12304286
  -OEChem-07051213103D

 51 55  0     1  0  0  0  0  0999 V2000
    4.7158   -0.2406   -0.0109 O   0  0  0  0  0  0  0  0  0  0  0  0
   -1.2706   -1.4265   -2.5895 O   0  0  0  0  0  0  0  0  0  0  0  0
    1.3290    2.8922    0.5414 O   0  0  0  0  0  0  0  0  0  0  0  0
    2.9145    3.3556   -1.0805 O   0  0  0  0  0  0  0  0  0  0  0  0
    0.2368   -2.2211    0.0846 N   0  0  1  0  0  0  0  0  0  0  0  0
   -2.9020    0.0995   -1.8793 N   0  0  0  0  0  0  0  0  0  0  0  0
   -0.3961   -0.9321    0.3812 C   0  0  2  0  0  0  0  0  0  0  0  0
   -1.8050   -1.1523   -0.1814 C   0  0  1  0  0  0  0  0  0  0  0  0
    0.4298    0.2306   -0.1782 C   0  0  0  0  0  0  0  0  0  0  0  0
    2.4649   -1.2245    0.1308 C   0  0  2  0  0  0  0  0  0  0  0  0
    1.8463    0.1722    0.4274 C   0  0  1  0  0  0  0  0  0  0  0  0
   -2.0783   -2.6428    0.1064 C   0  0  0  0  0  0  0  0  0  0  0  0
    1.5636   -2.3448    0.6834 C   0  0  0  0  0  0  0  0  0  0  0  0
   -0.7232   -3.2289    0.5224 C   0  0  0  0  0  0  0  0  0  0  0  0
   -2.8436   -0.2172    0.3781 C   0  0  0  0  0  0  0  0  0  0  0  0
    3.9131   -1.2349    0.6613 C   0  0  1  0  0  0  0  0  0  0  0  0
   -1.9184   -0.8796   -1.7094 C   0  0  0  0  0  0  0  0  0  0  0  0
    2.8044    1.2324   -0.0331 C   0  0  0  0  0  0  0  0  0  0  0  0
   -3.4456    0.4887   -0.6615 C   0  0  0  0  0  0  0  0  0  0  0  0
   -3.2337    0.0083    1.6870 C   0  0  0  0  0  0  0  0  0  0  0  0
    4.6227   -2.5688    0.4521 C   0  0  0  0  0  0  0  0  0  0  0  0
    4.1033    0.9674   -0.2262 C   0  0  0  0  0  0  0  0  0  0  0  0
   -4.4367    1.4273   -0.4522 C   0  0  0  0  0  0  0  0  0  0  0  0
    2.3801    2.6125   -0.2711 C   0  0  0  0  0  0  0  0  0  0  0  0
   -4.2356    0.9540    1.9272 C   0  0  0  0  0  0  0  0  0  0  0  0
   -4.8318    1.6578    0.8660 C   0  0  0  0  0  0  0  0  0  0  0  0
    0.7965    4.2156    0.4241 C   0  0  0  0  0  0  0  0  0  0  0  0
   -0.4592   -0.8038    1.4733 H   0  0  0  0  0  0  0  0  0  0  0  0
   -0.0935    1.1583    0.0645 H   0  0  0  0  0  0  0  0  0  0  0  0
    0.5014    0.1827   -1.2718 H   0  0  0  0  0  0  0  0  0  0  0  0
    2.5157   -1.3450   -0.9639 H   0  0  0  0  0  0  0  0  0  0  0  0
    1.7471    0.2852    1.5176 H   0  0  0  0  0  0  0  0  0  0  0  0
   -2.4592   -3.1626   -0.7809 H   0  0  0  0  0  0  0  0  0  0  0  0
   -2.8063   -2.7936    0.9118 H   0  0  0  0  0  0  0  0  0  0  0  0
    1.9781   -3.3218    0.4133 H   0  0  0  0  0  0  0  0  0  0  0  0
    1.5184   -2.2928    1.7787 H   0  0  0  0  0  0  0  0  0  0  0  0
   -0.7001   -3.3656    1.6109 H   0  0  0  0  0  0  0  0  0  0  0  0
   -0.5433   -4.1981    0.0469 H   0  0  0  0  0  0  0  0  0  0  0  0
    3.9261   -1.0029    1.7347 H   0  0  0  0  0  0  0  0  0  0  0  0
   -3.1937    0.4807   -2.7715 H   0  0  0  0  0  0  0  0  0  0  0  0
   -2.7795   -0.5305    2.5114 H   0  0  0  0  0  0  0  0  0  0  0  0
    5.6774   -2.4889    0.7381 H   0  0  0  0  0  0  0  0  0  0  0  0
    4.1712   -3.3683    1.0459 H   0  0  0  0  0  0  0  0  0  0  0  0
    4.6050   -2.8590   -0.6041 H   0  0  0  0  0  0  0  0  0  0  0  0
    4.8347    1.6824   -0.5795 H   0  0  0  0  0  0  0  0  0  0  0  0
   -4.8948    1.9677   -1.2727 H   0  0  0  0  0  0  0  0  0  0  0  0
   -4.5584    1.1485    2.9467 H   0  0  0  0  0  0  0  0  0  0  0  0
   -5.6085    2.3881    1.0769 H   0  0  0  0  0  0  0  0  0  0  0  0
    1.5594    4.9552    0.6848 H   0  0  0  0  0  0  0  0  0  0  0  0
   -0.0380    4.3091    1.1241 H   0  0  0  0  0  0  0  0  0  0  0  0
    0.4241    4.3847   -0.5909 H   0  0  0  0  0  0  0  0  0  0  0  0
  1 16  1  0  0  0  0
  1 22  1  0  0  0  0
  2 17  2  0  0  0  0
  3 24  1  0  0  0  0
  3 27  1  0  0  0  0
  4 24  2  0  0  0  0
  5  7  1  0  0  0  0
  5 13  1  0  0  0  0
  5 14  1  0  0  0  0
  6 17  1  0  0  0  0
  6 19  1  0  0  0  0
  6 40  1  0  0  0  0
  7  8  1  0  0  0  0
  7  9  1  0  0  0  0
  7 28  1  0  0  0  0
  8 12  1  0  0  0  0
  8 15  1  0  0  0  0
  8 17  1  0  0  0  0
  9 11  1  0  0  0  0
  9 29  1  0  0  0  0
  9 30  1  0  0  0  0
 10 11  1  0  0  0  0
 10 13  1  0  0  0  0
 10 16  1  0  0  0  0
 10 31  1  0  0  0  0
 11 18  1  0  0  0  0
 11 32  1  0  0  0  0
 12 14  1  0  0  0  0
 12 33  1  0  0  0  0
 12 34  1  0  0  0  0
 13 35  1  0  0  0  0
 13 36  1  0  0  0  0
 14 37  1  0  0  0  0
 14 38  1  0  0  0  0
 15 19  1  0  0  0  0
 15 20  2  0  0  0  0
 16 21  1  0  0  0  0
 16 39  1  0  0  0  0
 18 22  2  0  0  0  0
 18 24  1  0  0  0  0
 19 23  2  0  0  0  0
 20 25  1  0  0  0  0
 20 41  1  0  0  0  0
 21 42  1  0  0  0  0
 21 43  1  0  0  0  0
 21 44  1  0  0  0  0
 22 45  1  0  0  0  0
 23 26  1  0  0  0  0
 23 46  1  0  0  0  0
 25 26  2  0  0  0  0
 25 47  1  0  0  0  0
 26 48  1  0  0  0  0
 27 49  1  0  0  0  0
 27 50  1  0  0  0  0
 27 51  1  0  0  0  0
M  END
> <PUBCHEM_COMPOUND_CID>
12304286

> <PUBCHEM_CONFORMER_RMSD>
0.8

> <PUBCHEM_CONFORMER_DIVERSEORDER>
1
4
3
2

> <PUBCHEM_MMFF94_PARTIAL_CHARGES>
29
1 -0.36
11 0.14
13 0.27
14 0.27
15 -0.14
16 0.28
17 0.57
18 -0.12
19 0.12
2 -0.57
20 -0.15
22 -0.07
23 -0.15
24 0.71
25 -0.15
26 -0.15
27 0.28
3 -0.43
4 -0.57
40 0.37
41 0.15
45 0.15
46 0.15
47 0.15
48 0.15
5 -0.81
6 -0.55
7 0.27
8 0.2

> <PUBCHEM_EFFECTIVE_ROTOR_COUNT>
3.4

> <PUBCHEM_PHARMACOPHORE_FEATURES>
10
1 1 acceptor
1 2 acceptor
1 4 acceptor
1 5 cation
1 6 donor
5 5 7 8 12 14 rings
5 6 8 15 17 19 rings
6 1 10 11 16 18 22 rings
6 15 19 20 23 25 26 rings
6 5 7 9 10 11 13 rings

> <PUBCHEM_HEAVY_ATOM_COUNT>
27

> <PUBCHEM_ATOM_DEF_STEREO_COUNT>
5

> <PUBCHEM_ATOM_UDEF_STEREO_COUNT>
0

> <PUBCHEM_BOND_DEF_STEREO_COUNT>
0

> <PUBCHEM_BOND_UDEF_STEREO_COUNT>
0

> <PUBCHEM_ISOTOPIC_ATOM_COUNT>
0

> <PUBCHEM_COMPONENT_COUNT>
1

> <PUBCHEM_CACTVS_TAUTO_COUNT>
2

> <PUBCHEM_CONFORMER_ID>
00BBBF9E00000001

> <PUBCHEM_MMFF94_ENERGY>
80.3557

> <PUBCHEM_FEATURE_SELFOVERLAP>
50.944

> <PUBCHEM_SHAPE_FINGERPRINT>
10165383 225 18059558175059847741
10906281 52 18341046329869540072
1100329 8 18411417315123405344
11640471 11 17822577200347831083
12173636 292 18050004389735209103
12236239 1 17895766208993848779
12422481 6 17610056042051810122
12553582 1 18339645637565111882
12633257 1 18342185457489787514
12788726 201 18263917916747671560
13140716 1 18413392029628563786
13583140 156 18343294865070451451
14223421 5 17909550562542632482
14790565 3 18339633559795653344
14955137 171 18268697475833399970
15081414 286 18411696621690341784
151778 21 18129932378389358388
15238133 3 18127114497432622901
15276724 80 18191585457988531638
15475509 8 17899394661911345134
1601671 61 18412824681965597920
17980427 23 17895209783232627552
18219364 16 18130796646025822855
19930381 70 17113540312084043177
20739085 24 18194955464689227466
21033648 29 17703524262945975341
21033650 10 15502915507120420809
21857420 4 6249540804489538699
22122407 14 18265601256144381241
23227448 37 18409445865216365719
23558518 356 18054791680743232562
238 59 17768015013381602511
335352 9 18340207500728569422
350125 39 18340482249670287635
392239 28 18265031614826526499
4098825 35 7925631047936886281
474 4 18335422421686842739
5081480 168 17390200948098847479
5104073 3 18342746182972300106
513202 73 17616527797816776250
5252454 2 18128806448380821564
5283173 99 6050173173033289107
6287921 2 17701528507459753308
7832392 63 18336828602542717712
9981440 41 17469350044312482712

> <PUBCHEM_SHAPE_MULTIPOLES>
522.21
9.03
4.05
1.45
0.02
2.48
0.51
1.81
-1.65
-2.78
-0.28
1.68
-0.15
-1.24

> <PUBCHEM_SHAPE_SELFOVERLAP>
1154.175

> <PUBCHEM_SHAPE_VOLUME>
280

> <PUBCHEM_COORDINATE_TYPE>
2
5
10

$$$$

