10562
  -OEChem-06261204412D

  7  6  0     0  0  0  0  0  0999 V2000
    2.5369    0.9050    0.0000 S   0  0  0  0  0  0  0  0  0  0  0  0
    3.4030   -0.5950    0.0000 S   0  0  0  0  0  0  0  0  0  0  0  0
    4.2690    0.9050    0.0000 N   0  0  0  0  0  0  0  0  0  0  0  0
    3.4030    0.4050    0.0000 C   0  0  0  0  0  0  0  0  0  0  0  0
    2.0000    0.5950    0.0000 H   0  0  0  0  0  0  0  0  0  0  0  0
    2.8660   -0.9050    0.0000 H   0  0  0  0  0  0  0  0  0  0  0  0
    4.8059    0.5950    0.0000 H   0  0  0  0  0  0  0  0  0  0  0  0
  1  4  1  0  0  0  0
  1  5  1  0  0  0  0
  2  4  1  0  0  0  0
  2  6  1  0  0  0  0
  3  4  2  0  0  0  0
  3  7  1  0  0  0  0
M  END
> <PUBCHEM_COMPOUND_CID>
10562

> <PUBCHEM_COMPOUND_CANONICALIZED>
1

> <PUBCHEM_CACTVS_COMPLEXITY>
29

> <PUBCHEM_CACTVS_HBOND_ACCEPTOR>
3

> <PUBCHEM_CACTVS_HBOND_DONOR>
3

> <PUBCHEM_CACTVS_ROTATABLE_BOND>
0

> <PUBCHEM_CACTVS_SUBSKEYS>
AAADcQACAABgAAAAAAAAAAAAAAAAAAAAAAAAAAAAAAAAAAAAAAAABAQQAAAAAAAAAAAAAABAAAQgAAAAAAAAAgAAAAAAAAAAAAAAAAAAAAAAAAAAAAAAAAAAAAAAAAAAAAAAAAAAAAAAAAAAAAAAAAAAAA==

> <PUBCHEM_IUPAC_OPENEYE_NAME>
iminomethanedithiol

> <PUBCHEM_IUPAC_CAS_NAME>
iminomethanedithiol

> <PUBCHEM_IUPAC_NAME>
iminomethanedithiol

> <PUBCHEM_IUPAC_SYSTEMATIC_NAME>
azanylidenemethanedithiol

> <PUBCHEM_IUPAC_TRADITIONAL_NAME>
iminomethanedithiol

> <PUBCHEM_IUPAC_INCHI>
InChI=1S/CH3NS2/c2-1(3)4/h(H3,2,3,4)

> <PUBCHEM_IUPAC_INCHIKEY>
DKVNPHBNOWQYFE-UHFFFAOYSA-N

> <PUBCHEM_XLOGP3_AA>
1

> <PUBCHEM_EXACT_MASS>
92.970691

> <PUBCHEM_MOLECULAR_FORMULA>
CH3NS2

> <PUBCHEM_MOLECULAR_WEIGHT>
93.17122

> <PUBCHEM_OPENEYE_CAN_SMILES>
C(=N)(S)S

> <PUBCHEM_OPENEYE_ISO_SMILES>
C(=N)(S)S

> <PUBCHEM_CACTVS_TPSA>
25.8

> <PUBCHEM_MONOISOTOPIC_WEIGHT>
92.970691

> <PUBCHEM_TOTAL_CHARGE>
0

> <PUBCHEM_HEAVY_ATOM_COUNT>
4

> <PUBCHEM_ATOM_DEF_STEREO_COUNT>
0

> <PUBCHEM_ATOM_UDEF_STEREO_COUNT>
0

> <PUBCHEM_BOND_DEF_STEREO_COUNT>
0

> <PUBCHEM_BOND_UDEF_STEREO_COUNT>
0

> <PUBCHEM_ISOTOPIC_ATOM_COUNT>
0

> <PUBCHEM_COMPONENT_COUNT>
1

> <PUBCHEM_CACTVS_TAUTO_COUNT>
2

> <PUBCHEM_COORDINATE_TYPE>
1
5
255

$$$$

