6439716
  -OEChem-07051213113D

 47 47  0     0  0  0  0  0  0999 V2000
    2.1214   -1.4502    1.2662 O   0  0  0  0  0  0  0  0  0  0  0  0
   -3.2602   -4.5818    0.7085 O   0  0  0  0  0  0  0  0  0  0  0  0
   -5.1057    3.2088   -0.0094 O   0  0  0  0  0  0  0  0  0  0  0  0
   -3.4875    4.5458   -0.9028 O   0  0  0  0  0  0  0  0  0  0  0  0
   -0.1335   -0.8121    0.8029 C   0  0  0  0  0  0  0  0  0  0  0  0
    1.6314    0.8143    0.6834 C   0  0  0  0  0  0  0  0  0  0  0  0
    1.2118   -0.4946    0.9209 C   0  0  0  0  0  0  0  0  0  0  0  0
   -0.6061   -2.2220    1.0550 C   0  0  0  0  0  0  0  0  0  0  0  0
    3.0725    1.1881    0.8012 C   0  0  0  0  0  0  0  0  0  0  0  0
   -1.0686    0.1515    0.4524 C   0  0  0  0  0  0  0  0  0  0  0  0
   -0.6490    1.4603    0.2148 C   0  0  0  0  0  0  0  0  0  0  0  0
    0.7010    1.7918    0.3303 C   0  0  0  0  0  0  0  0  0  0  0  0
   -0.5946   -3.0597   -0.1927 C   0  0  0  0  0  0  0  0  0  0  0  0
    3.8275    1.0297   -0.4951 C   0  0  0  0  0  0  0  0  0  0  0  0
   -1.6357   -3.6668   -0.7953 C   0  0  0  0  0  0  0  0  0  0  0  0
    5.1227    0.7030   -0.6671 C   0  0  0  0  0  0  0  0  0  0  0  0
   -1.6193    2.4795   -0.1530 C   0  0  0  0  0  0  0  0  0  0  0  0
   -3.0239   -3.5316   -0.2200 C   0  0  0  0  0  0  0  0  0  0  0  0
   -1.5449   -4.4932   -2.0488 C   0  0  0  0  0  0  0  0  0  0  0  0
    5.8131    0.5620   -1.9940 C   0  0  0  0  0  0  0  0  0  0  0  0
    6.0103    0.4551    0.5237 C   0  0  0  0  0  0  0  0  0  0  0  0
   -2.9510    2.4056    0.0662 C   0  0  0  0  0  0  0  0  0  0  0  0
   -3.8318    3.5164   -0.3473 C   0  0  0  0  0  0  0  0  0  0  0  0
    0.0420   -2.7069    1.7965 H   0  0  0  0  0  0  0  0  0  0  0  0
   -1.5839   -2.1924    1.5461 H   0  0  0  0  0  0  0  0  0  0  0  0
    3.1357    2.2467    1.0893 H   0  0  0  0  0  0  0  0  0  0  0  0
    3.5317    0.6495    1.6358 H   0  0  0  0  0  0  0  0  0  0  0  0
   -2.1085   -0.1450    0.3506 H   0  0  0  0  0  0  0  0  0  0  0  0
    1.0316    2.8118    0.1447 H   0  0  0  0  0  0  0  0  0  0  0  0
    0.3878   -3.1943   -0.6451 H   0  0  0  0  0  0  0  0  0  0  0  0
    3.2498    1.2239   -1.3990 H   0  0  0  0  0  0  0  0  0  0  0  0
   -1.2077    3.3657   -0.6319 H   0  0  0  0  0  0  0  0  0  0  0  0
    3.0137   -1.1933    0.9860 H   0  0  0  0  0  0  0  0  0  0  0  0
   -3.1966   -2.5705    0.2715 H   0  0  0  0  0  0  0  0  0  0  0  0
   -3.7710   -3.6041   -1.0189 H   0  0  0  0  0  0  0  0  0  0  0  0
   -0.5131   -4.5683   -2.4076 H   0  0  0  0  0  0  0  0  0  0  0  0
   -1.9096   -5.5084   -1.8630 H   0  0  0  0  0  0  0  0  0  0  0  0
   -2.1448   -4.0444   -2.8468 H   0  0  0  0  0  0  0  0  0  0  0  0
    5.1236    0.7341   -2.8270 H   0  0  0  0  0  0  0  0  0  0  0  0
    6.6295    1.2862   -2.0803 H   0  0  0  0  0  0  0  0  0  0  0  0
    6.2248   -0.4464   -2.1038 H   0  0  0  0  0  0  0  0  0  0  0  0
    5.6137    0.8387    1.4663 H   0  0  0  0  0  0  0  0  0  0  0  0
    6.1950   -0.6181    0.6364 H   0  0  0  0  0  0  0  0  0  0  0  0
    6.9765    0.9521    0.3794 H   0  0  0  0  0  0  0  0  0  0  0  0
   -3.4215    1.5637    0.5611 H   0  0  0  0  0  0  0  0  0  0  0  0
   -4.1692   -4.4736    1.0365 H   0  0  0  0  0  0  0  0  0  0  0  0
   -5.7347    3.9173   -0.2639 H   0  0  0  0  0  0  0  0  0  0  0  0
  1  7  1  0  0  0  0
  1 33  1  0  0  0  0
  2 18  1  0  0  0  0
  2 46  1  0  0  0  0
  3 23  1  0  0  0  0
  3 47  1  0  0  0  0
  4 23  2  0  0  0  0
  5  7  1  0  0  0  0
  5  8  1  0  0  0  0
  5 10  2  0  0  0  0
  6  7  2  0  0  0  0
  6  9  1  0  0  0  0
  6 12  1  0  0  0  0
  8 13  1  0  0  0  0
  8 24  1  0  0  0  0
  8 25  1  0  0  0  0
  9 14  1  0  0  0  0
  9 26  1  0  0  0  0
  9 27  1  0  0  0  0
 10 11  1  0  0  0  0
 10 28  1  0  0  0  0
 11 12  2  0  0  0  0
 11 17  1  0  0  0  0
 12 29  1  0  0  0  0
 13 15  2  0  0  0  0
 13 30  1  0  0  0  0
 14 16  2  0  0  0  0
 14 31  1  0  0  0  0
 15 18  1  0  0  0  0
 15 19  1  0  0  0  0
 16 20  1  0  0  0  0
 16 21  1  0  0  0  0
 17 22  2  0  0  0  0
 17 32  1  0  0  0  0
 18 34  1  0  0  0  0
 18 35  1  0  0  0  0
 19 36  1  0  0  0  0
 19 37  1  0  0  0  0
 19 38  1  0  0  0  0
 20 39  1  0  0  0  0
 20 40  1  0  0  0  0
 20 41  1  0  0  0  0
 21 42  1  0  0  0  0
 21 43  1  0  0  0  0
 21 44  1  0  0  0  0
 22 23  1  0  0  0  0
 22 45  1  0  0  0  0
M  END
> <PUBCHEM_COMPOUND_CID>
6439716

> <PUBCHEM_CONFORMER_RMSD>
0.8

> <PUBCHEM_CONFORMER_DIVERSEORDER>
1
45
50
124
113
55
119
105
46
102
72
47
59
78
12
123
43
64
108
107
94
84
79
80
70
9
103
129
115
16
127
52
66
99
54
120
106
34
67
85
11
33
82
61
117
91
116
121
37
68
75
122
87
51
25
48
104
36
73
41
125
4
77
98
29
20
97
62
23
40
39
100
81
92
10
31
88
101
19
71
35
89
53
22
86
44
13
58
76
111
60
14
56
109
21
42
27
74
26
32
69
110
17
49
7
118
63
65
3
126
38
112
96
128
30
18
130
57
95
24
83
114
8
93
28
90
5
6
15
2

> <PUBCHEM_MMFF94_PARTIAL_CHARGES>
32
1 -0.53
10 -0.15
11 0.03
12 -0.15
13 -0.29
14 -0.29
15 -0.28
16 -0.28
17 -0.18
18 0.42
19 0.14
2 -0.68
20 0.14
21 0.14
22 -0.14
23 0.71
28 0.15
29 0.15
3 -0.65
30 0.15
31 0.15
32 0.15
33 0.45
4 -0.57
45 0.15
46 0.4
47 0.5
5 -0.14
6 -0.14
7 0.08
8 0.28
9 0.28

> <PUBCHEM_EFFECTIVE_ROTOR_COUNT>
7

> <PUBCHEM_PHARMACOPHORE_FEATURES>
9
1 1 donor
1 19 hydrophobe
1 2 acceptor
1 2 donor
1 3 acceptor
1 4 acceptor
3 16 20 21 hydrophobe
3 3 4 23 anion
6 5 6 7 10 11 12 rings

> <PUBCHEM_HEAVY_ATOM_COUNT>
23

> <PUBCHEM_ATOM_DEF_STEREO_COUNT>
0

> <PUBCHEM_ATOM_UDEF_STEREO_COUNT>
0

> <PUBCHEM_BOND_DEF_STEREO_COUNT>
2

> <PUBCHEM_BOND_UDEF_STEREO_COUNT>
0

> <PUBCHEM_ISOTOPIC_ATOM_COUNT>
0

> <PUBCHEM_COMPONENT_COUNT>
1

> <PUBCHEM_CACTVS_TAUTO_COUNT>
3

> <PUBCHEM_CONFORMER_ID>
0062432400000001

> <PUBCHEM_MMFF94_ENERGY>
50.2242

> <PUBCHEM_FEATURE_SELFOVERLAP>
45.724

> <PUBCHEM_SHAPE_FINGERPRINT>
10815517 723 18189324685814046139
11488393 25 17833815445949842563
11991303 11 18271802453704112279
12788726 201 18270126695173737530
13134695 92 17475237894592753623
13540713 5 18059586784813004682
13583140 156 14996821253376027738
13590594 115 18053094018095237707
13690498 29 18119791553150931964
13757389 114 18342161294036228588
13899415 180 17831028926992372278
14251757 5 18339089181427941911
14508225 48 18050569538870316908
14556957 393 17840846501061586868
14790565 3 18267024044889969208
14863182 85 17833557073380384843
14955137 171 17765987308262146347
15081414 286 17402896622560312723
15664445 248 17112961973358415180
15775530 1 17754195092971854736
17539 30 18264213512853898782
17980427 23 12677448765718638552
1813 80 17830723262786269534
20602899 9 18114738347464017864
21344244 181 17970335121732889862
22620623 9 18335974269312970348
23536364 44 18125459534954281511
23929065 36 18120119220253342240
25147074 1 17988659501365367090
3057174 1 18121224435133119261
3103668 31 18340776923550698831
38695281 34 18195810893040858324
5969126 39 18120939396024856644
6669772 16 18044372953281587278
7164475 11 18123470475754778452
7399639 24 17393336408097615168
9658208 31 18335428975627816176

> <PUBCHEM_SHAPE_MULTIPOLES>
449.85
10.01
6.7
1.34
15.09
1.61
0.49
-4.14
3.33
-15.35
2.44
0.84
0.91
0.17

> <PUBCHEM_SHAPE_SELFOVERLAP>
918.389

> <PUBCHEM_SHAPE_VOLUME>
261.1

> <PUBCHEM_COORDINATE_TYPE>
2
5
10

$$$$

