235498
  -OEChem-07051213063D

 54 57  0     1  0  0  0  0  0999 V2000
   -5.2668    0.8270   -0.3799 O   0  0  0  0  0  0  0  0  0  0  0  0
    5.7836    0.4350    0.2145 O   0  0  0  0  0  0  0  0  0  0  0  0
    3.7732   -0.7364    0.0684 N   0  0  0  0  0  0  0  0  0  0  0  0
   -2.8347    0.4854   -0.1987 C   0  0  1  0  0  0  0  0  0  0  0  0
   -2.0357   -0.7746    0.1910 C   0  0  2  0  0  0  0  0  0  0  0  0
   -0.5783   -0.7392   -0.2859 C   0  0  1  0  0  0  0  0  0  0  0  0
    0.1378    0.5078    0.3038 C   0  0  1  0  0  0  0  0  0  0  0  0
   -4.2571    0.0902    0.3070 C   0  0  2  0  0  0  0  0  0  0  0  0
   -2.1608    1.6865    0.4840 C   0  0  0  0  0  0  0  0  0  0  0  0
   -2.9223   -1.9223   -0.2800 C   0  0  0  0  0  0  0  0  0  0  0  0
    1.6351    0.5895   -0.1932 C   0  0  2  0  0  0  0  0  0  0  0  0
   -0.6783    1.8123    0.0874 C   0  0  0  0  0  0  0  0  0  0  0  0
   -4.3597   -1.4139   -0.0626 C   0  0  0  0  0  0  0  0  0  0  0  0
    0.1646   -2.0159    0.1182 C   0  0  0  0  0  0  0  0  0  0  0  0
   -2.8824    0.7398   -1.7334 C   0  0  0  0  0  0  0  0  0  0  0  0
    2.3638   -0.7494   -0.0028 C   0  0  0  0  0  0  0  0  0  0  0  0
    2.3779    1.6438    0.6478 C   0  0  0  0  0  0  0  0  0  0  0  0
   -4.5044    0.2986    1.8064 C   0  0  0  0  0  0  0  0  0  0  0  0
    1.6575   -1.8944    0.1175 C   0  0  0  0  0  0  0  0  0  0  0  0
    1.7032    0.9597   -1.6978 C   0  0  0  0  0  0  0  0  0  0  0  0
    3.8324    1.7540    0.2485 C   0  0  0  0  0  0  0  0  0  0  0  0
    4.5481    0.4271    0.1836 C   0  0  0  0  0  0  0  0  0  0  0  0
    4.5034   -2.0107    0.0561 C   0  0  0  0  0  0  0  0  0  0  0  0
   -1.9974   -0.8427    1.2891 H   0  0  0  0  0  0  0  0  0  0  0  0
   -0.5676   -0.6902   -1.3796 H   0  0  0  0  0  0  0  0  0  0  0  0
    0.1700    0.3597    1.3958 H   0  0  0  0  0  0  0  0  0  0  0  0
   -2.2013    1.5863    1.5751 H   0  0  0  0  0  0  0  0  0  0  0  0
   -2.6890    2.6150    0.2365 H   0  0  0  0  0  0  0  0  0  0  0  0
   -2.7362   -2.8412    0.2855 H   0  0  0  0  0  0  0  0  0  0  0  0
   -2.7557   -2.1486   -1.3391 H   0  0  0  0  0  0  0  0  0  0  0  0
   -0.6164    2.1388   -0.9546 H   0  0  0  0  0  0  0  0  0  0  0  0
   -0.2470    2.6228    0.6852 H   0  0  0  0  0  0  0  0  0  0  0  0
   -4.9554   -1.5839   -0.9669 H   0  0  0  0  0  0  0  0  0  0  0  0
   -4.8424   -1.9884    0.7367 H   0  0  0  0  0  0  0  0  0  0  0  0
   -0.1230   -2.8282   -0.5604 H   0  0  0  0  0  0  0  0  0  0  0  0
   -0.1368   -2.3292    1.1259 H   0  0  0  0  0  0  0  0  0  0  0  0
   -1.8898    0.8404   -2.1797 H   0  0  0  0  0  0  0  0  0  0  0  0
   -3.3848   -0.0663   -2.2776 H   0  0  0  0  0  0  0  0  0  0  0  0
   -3.4191    1.6698   -1.9547 H   0  0  0  0  0  0  0  0  0  0  0  0
    2.3164    1.3830    1.7133 H   0  0  0  0  0  0  0  0  0  0  0  0
    1.9232    2.6343    0.5397 H   0  0  0  0  0  0  0  0  0  0  0  0
   -4.4795    1.3634    2.0630 H   0  0  0  0  0  0  0  0  0  0  0  0
   -5.5091   -0.0482    2.0768 H   0  0  0  0  0  0  0  0  0  0  0  0
   -3.7857   -0.2327    2.4359 H   0  0  0  0  0  0  0  0  0  0  0  0
    2.1578   -2.8458    0.2747 H   0  0  0  0  0  0  0  0  0  0  0  0
    1.3961    1.9966   -1.8695 H   0  0  0  0  0  0  0  0  0  0  0  0
    2.7154    0.8580   -2.1061 H   0  0  0  0  0  0  0  0  0  0  0  0
    1.0666    0.3165   -2.3124 H   0  0  0  0  0  0  0  0  0  0  0  0
   -5.3495    0.4909   -1.2873 H   0  0  0  0  0  0  0  0  0  0  0  0
    4.3537    2.3836    0.9795 H   0  0  0  0  0  0  0  0  0  0  0  0
    3.9392    2.2425   -0.7263 H   0  0  0  0  0  0  0  0  0  0  0  0
    5.5842   -1.8622   -0.0207 H   0  0  0  0  0  0  0  0  0  0  0  0
    4.1910   -2.6066   -0.8075 H   0  0  0  0  0  0  0  0  0  0  0  0
    4.3065   -2.5469    0.9899 H   0  0  0  0  0  0  0  0  0  0  0  0
  1  8  1  0  0  0  0
  1 49  1  0  0  0  0
  2 22  2  0  0  0  0
  3 16  1  0  0  0  0
  3 22  1  0  0  0  0
  3 23  1  0  0  0  0
  4  5  1  0  0  0  0
  4  8  1  0  0  0  0
  4  9  1  0  0  0  0
  4 15  1  0  0  0  0
  5  6  1  0  0  0  0
  5 10  1  0  0  0  0
  5 24  1  0  0  0  0
  6  7  1  0  0  0  0
  6 14  1  0  0  0  0
  6 25  1  0  0  0  0
  7 11  1  0  0  0  0
  7 12  1  0  0  0  0
  7 26  1  0  0  0  0
  8 13  1  0  0  0  0
  8 18  1  0  0  0  0
  9 12  1  0  0  0  0
  9 27  1  0  0  0  0
  9 28  1  0  0  0  0
 10 13  1  0  0  0  0
 10 29  1  0  0  0  0
 10 30  1  0  0  0  0
 11 16  1  0  0  0  0
 11 17  1  0  0  0  0
 11 20  1  0  0  0  0
 12 31  1  0  0  0  0
 12 32  1  0  0  0  0
 13 33  1  0  0  0  0
 13 34  1  0  0  0  0
 14 19  1  0  0  0  0
 14 35  1  0  0  0  0
 14 36  1  0  0  0  0
 15 37  1  0  0  0  0
 15 38  1  0  0  0  0
 15 39  1  0  0  0  0
 16 19  2  0  0  0  0
 17 21  1  0  0  0  0
 17 40  1  0  0  0  0
 17 41  1  0  0  0  0
 18 42  1  0  0  0  0
 18 43  1  0  0  0  0
 18 44  1  0  0  0  0
 19 45  1  0  0  0  0
 20 46  1  0  0  0  0
 20 47  1  0  0  0  0
 20 48  1  0  0  0  0
 21 22  1  0  0  0  0
 21 50  1  0  0  0  0
 21 51  1  0  0  0  0
 23 52  1  0  0  0  0
 23 53  1  0  0  0  0
 23 54  1  0  0  0  0
M  END
> <PUBCHEM_COMPOUND_CID>
235498

> <PUBCHEM_CONFORMER_RMSD>
0.6

> <PUBCHEM_CONFORMER_DIVERSEORDER>
1

> <PUBCHEM_MMFF94_PARTIAL_CHARGES>
13
1 -0.68
11 0.14
14 0.14
16 -0.03
19 -0.29
2 -0.57
21 0.06
22 0.57
23 0.3
3 -0.47
45 0.15
49 0.4
8 0.28

> <PUBCHEM_EFFECTIVE_ROTOR_COUNT>
1.8

> <PUBCHEM_PHARMACOPHORE_FEATURES>
7
1 1 acceptor
1 1 donor
1 2 acceptor
5 4 5 8 10 13 rings
6 3 11 16 17 21 22 rings
6 4 5 6 7 9 12 rings
6 6 7 11 14 16 19 rings

> <PUBCHEM_HEAVY_ATOM_COUNT>
23

> <PUBCHEM_ATOM_DEF_STEREO_COUNT>
6

> <PUBCHEM_ATOM_UDEF_STEREO_COUNT>
0

> <PUBCHEM_BOND_DEF_STEREO_COUNT>
0

> <PUBCHEM_BOND_UDEF_STEREO_COUNT>
0

> <PUBCHEM_ISOTOPIC_ATOM_COUNT>
0

> <PUBCHEM_COMPONENT_COUNT>
1

> <PUBCHEM_CACTVS_TAUTO_COUNT>
1

> <PUBCHEM_CONFORMER_ID>
000397EA00000001

> <PUBCHEM_MMFF94_ENERGY>
88.9768

> <PUBCHEM_FEATURE_SELFOVERLAP>
35.612

> <PUBCHEM_SHAPE_FINGERPRINT>
10967382 1 18409730660054771834
11132069 177 18342738486200519935
11552529 35 17823422582866259775
11578080 2 17058100053683138206
12011746 2 18409163312582295340
12107183 9 17831294274313762570
12236239 1 17749392589816889539
12403259 226 18411706516931436668
12403259 415 18342464733412049068
12403814 3 17989769982365964389
12633257 1 18187922919345216267
12788726 201 17095793434186963577
128620 24 18060419109902371789
13140716 1 18410006620209513899
13224815 77 18409446977296117939
13675066 3 18202843240652414713
14341114 176 18410849988593209762
14787075 74 18338520720588400170
14790565 3 17979630139911456444
15163728 17 14780926768094530865
15196674 1 18410013221410470427
15209289 33 18410293588232806363
15238133 3 16733255859038215475
15536298 74 18407478860272864970
15788980 27 18202283593465644433
16945 1 18265904733425483067
17349148 13 18131634465359537568
17492 89 18409730668566585558
1813 80 17346877862524727996
18186145 218 18409449180719732036
19591789 44 18409451358179032322
200 152 18260836990371167367
21033648 29 18271824422504743396
21267235 1 18410003338690819746
21279426 13 18266742569917844948
21421861 104 18128820926694328242
22182313 1 18058739124896720996
23402539 116 18260272914608871932
23557571 272 18041274353357798183
23559900 14 18335424556517333624
296302 2 18187081741257275103
335352 9 18337391642316100991
34797466 226 15357976707394281648
34934 24 18410016563443587883
350125 39 18411417332261465912
351380 180 18335141981585902968
3545911 37 18411419501003276300
3633792 109 18263369252087631013
4214541 1 18410013234242403897
474 4 18059852831380853646
5104073 3 18409166593151696923
542803 24 17775565329648898596
633830 44 17967810527008186276
9709674 26 18410570661153264822

> <PUBCHEM_SHAPE_MULTIPOLES>
456.61
10.6
2.17
1.08
2.03
0.51
0.19
0.07
-1.4
0.73
-0.08
-0.82
-0.32
-0.02

> <PUBCHEM_SHAPE_SELFOVERLAP>
978.271

> <PUBCHEM_SHAPE_VOLUME>
251.7

> <PUBCHEM_COORDINATE_TYPE>
2
5
10

$$$$

