656695
  -OEChem-07051213043D

 35 36  0     1  0  0  0  0  0999 V2000
    0.3764    2.1075    1.2894 O   0  0  0  0  0  0  0  0  0  0  0  0
    2.9446    2.7583    0.3668 O   0  0  0  0  0  0  0  0  0  0  0  0
    3.0859   -3.4561    0.1540 O   0  0  0  0  0  0  0  0  0  0  0  0
   -4.6668   -1.7198    0.5029 O   0  0  0  0  0  0  0  0  0  0  0  0
    0.7867    1.6930   -0.0220 C   0  0  2  0  0  0  0  0  0  0  0  0
   -0.4557    1.7400   -0.9558 C   0  0  0  0  0  0  0  0  0  0  0  0
    1.4104    0.2968    0.0258 C   0  0  0  0  0  0  0  0  0  0  0  0
    1.8112    2.7489   -0.4973 C   0  0  0  0  0  0  0  0  0  0  0  0
   -1.5859    0.8114   -0.5640 C   0  0  0  0  0  0  0  0  0  0  0  0
    1.8742   -0.2578   -1.1446 C   0  0  0  0  0  0  0  0  0  0  0  0
    1.4833   -0.3507    1.2377 C   0  0  0  0  0  0  0  0  0  0  0  0
   -1.6088   -0.4747   -1.0727 C   0  0  0  0  0  0  0  0  0  0  0  0
   -2.5695    1.2708    0.2935 C   0  0  0  0  0  0  0  0  0  0  0  0
    2.4425   -1.5308   -1.1010 C   0  0  0  0  0  0  0  0  0  0  0  0
    2.0518   -1.6238    1.2814 C   0  0  0  0  0  0  0  0  0  0  0  0
    2.5315   -2.2139    0.1120 C   0  0  0  0  0  0  0  0  0  0  0  0
   -2.6500   -1.3300   -0.7121 C   0  0  0  0  0  0  0  0  0  0  0  0
   -3.6108    0.4157    0.6543 C   0  0  0  0  0  0  0  0  0  0  0  0
   -3.6510   -0.8849    0.1515 C   0  0  0  0  0  0  0  0  0  0  0  0
   -0.8574    2.7636   -0.9687 H   0  0  0  0  0  0  0  0  0  0  0  0
   -0.1733    1.5354   -1.9972 H   0  0  0  0  0  0  0  0  0  0  0  0
    1.3730    3.7529   -0.4645 H   0  0  0  0  0  0  0  0  0  0  0  0
    2.1589    2.5571   -1.5178 H   0  0  0  0  0  0  0  0  0  0  0  0
    1.8153    0.2586   -2.0969 H   0  0  0  0  0  0  0  0  0  0  0  0
    1.1199    0.0758    2.1661 H   0  0  0  0  0  0  0  0  0  0  0  0
   -0.0287    2.9885    1.2164 H   0  0  0  0  0  0  0  0  0  0  0  0
   -0.8507   -0.8306   -1.7624 H   0  0  0  0  0  0  0  0  0  0  0  0
   -2.5474    2.2814    0.6905 H   0  0  0  0  0  0  0  0  0  0  0  0
    2.8124   -1.9795   -2.0190 H   0  0  0  0  0  0  0  0  0  0  0  0
    2.1178   -2.1514    2.2290 H   0  0  0  0  0  0  0  0  0  0  0  0
    3.5526    3.4391    0.0314 H   0  0  0  0  0  0  0  0  0  0  0  0
   -2.6722   -2.3393   -1.1144 H   0  0  0  0  0  0  0  0  0  0  0  0
   -4.3876    0.7682    1.3274 H   0  0  0  0  0  0  0  0  0  0  0  0
    3.3628   -3.7081   -0.7437 H   0  0  0  0  0  0  0  0  0  0  0  0
   -4.5356   -2.5779    0.0641 H   0  0  0  0  0  0  0  0  0  0  0  0
  1  5  1  0  0  0  0
  1 26  1  0  0  0  0
  2  8  1  0  0  0  0
  2 31  1  0  0  0  0
  3 16  1  0  0  0  0
  3 34  1  0  0  0  0
  4 19  1  0  0  0  0
  4 35  1  0  0  0  0
  5  6  1  0  0  0  0
  5  7  1  0  0  0  0
  5  8  1  0  0  0  0
  6  9  1  0  0  0  0
  6 20  1  0  0  0  0
  6 21  1  0  0  0  0
  7 10  2  0  0  0  0
  7 11  1  0  0  0  0
  8 22  1  0  0  0  0
  8 23  1  0  0  0  0
  9 12  2  0  0  0  0
  9 13  1  0  0  0  0
 10 14  1  0  0  0  0
 10 24  1  0  0  0  0
 11 15  2  0  0  0  0
 11 25  1  0  0  0  0
 12 17  1  0  0  0  0
 12 27  1  0  0  0  0
 13 18  2  0  0  0  0
 13 28  1  0  0  0  0
 14 16  2  0  0  0  0
 14 29  1  0  0  0  0
 15 16  1  0  0  0  0
 15 30  1  0  0  0  0
 17 19  2  0  0  0  0
 17 32  1  0  0  0  0
 18 19  1  0  0  0  0
 18 33  1  0  0  0  0
M  END
> <PUBCHEM_COMPOUND_CID>
656695

> <PUBCHEM_CONFORMER_RMSD>
0.6

> <PUBCHEM_CONFORMER_DIVERSEORDER>
2
6
12
5
3
13
4
10
8
9
11
1
14
7

> <PUBCHEM_MMFF94_PARTIAL_CHARGES>
31
1 -0.68
10 -0.15
11 -0.15
12 -0.15
13 -0.15
14 -0.15
15 -0.15
16 0.08
17 -0.15
18 -0.15
19 0.08
2 -0.68
24 0.15
25 0.15
26 0.4
27 0.15
28 0.15
29 0.15
3 -0.53
30 0.15
31 0.4
32 0.15
33 0.15
34 0.45
35 0.45
4 -0.53
5 0.42
6 0.14
7 -0.14
8 0.28
9 -0.14

> <PUBCHEM_EFFECTIVE_ROTOR_COUNT>
4

> <PUBCHEM_PHARMACOPHORE_FEATURES>
8
1 1 acceptor
1 1 donor
1 2 acceptor
1 2 donor
1 3 donor
1 4 donor
6 7 10 11 14 15 16 rings
6 9 12 13 17 18 19 rings

> <PUBCHEM_HEAVY_ATOM_COUNT>
19

> <PUBCHEM_ATOM_DEF_STEREO_COUNT>
0

> <PUBCHEM_ATOM_UDEF_STEREO_COUNT>
1

> <PUBCHEM_BOND_DEF_STEREO_COUNT>
0

> <PUBCHEM_BOND_UDEF_STEREO_COUNT>
0

> <PUBCHEM_ISOTOPIC_ATOM_COUNT>
0

> <PUBCHEM_COMPONENT_COUNT>
1

> <PUBCHEM_CACTVS_TAUTO_COUNT>
4

> <PUBCHEM_CONFORMER_ID>
000A053700000002

> <PUBCHEM_MMFF94_ENERGY>
56.9963

> <PUBCHEM_FEATURE_SELFOVERLAP>
40.602

> <PUBCHEM_SHAPE_FINGERPRINT>
11067466 332 18059010571140658428
11140007 195 16879048914737943863
11578080 2 17774736366759665524
11640471 11 7059503982021543986
11725454 13 14115793525146514918
12553582 1 18267022949641367910
12633257 1 18116699889593785123
12714826 92 17700411661322715461
13140716 1 18335982077442546009
13533116 47 18335420111606490683
14178342 30 17831587479094045227
14223421 5 18412548674028905829
14787075 74 18131066065662485786
14863182 85 17983847887683551255
15375462 189 18339912813914926294
16752209 62 17694232461925564933
16945 1 18340498802342306132
17134984 74 17397295753922693871
201361 129 18189890929184723393
20291156 8 18197776802546022442
20442098 301 18260269616511948895
20559304 39 18260829254918867281
20600515 1 17900260007342481800
20645477 70 18341063912970083247
21421861 104 18410851036649678353
21731516 1 18200032974741552775
22445834 79 18263079933978216397
2255824 54 18270112396968866796
23184049 29 18409452522230986789
23557571 272 17756434017137548430
23559900 14 18410860971114670989
238078 22 18122333838471750958
2748010 2 18121806046888265724
568465 68 17097508732429513526
5902787 121 18268433601753415674
6138700 20 18410568475890539892
7097593 13 18334856130222146995
7364860 26 18336546027796098244
74978 22 18339366369869236597
81228 2 17540264567312030216

> <PUBCHEM_SHAPE_MULTIPOLES>
367.53
6.32
3.29
1.2
5.6
0.28
-0.05
-3.83
-0.76
-3.1
-0.2
-0.32
-0.07
-0.05

> <PUBCHEM_SHAPE_SELFOVERLAP>
789.27

> <PUBCHEM_SHAPE_VOLUME>
202.8

> <PUBCHEM_COORDINATE_TYPE>
2
5
10

$$$$

