92817
  -OEChem-07051212542D

 66 68  0     1  0  0  0  0  0999 V2000
    7.5274   -0.3025    0.0000 O   0  0  0  0  0  0  0  0  0  0  0  0
    5.6832   -1.0104    0.0000 O   0  0  0  0  0  0  0  0  0  0  0  0
    5.0547    0.4601    0.0000 O   0  0  0  0  0  0  0  0  0  0  0  0
    6.5492   -2.5104    0.0000 O   0  0  0  0  0  0  0  0  0  0  0  0
    5.2357    2.1827    0.0000 O   0  0  0  0  0  0  0  0  0  0  0  0
    6.5104    2.0769    0.0000 O   0  0  0  0  0  0  0  0  0  0  0  0
    7.7082   -1.7976    0.0000 O   0  0  0  0  0  0  0  0  0  0  0  0
    3.9511   -2.0104    0.0000 O   0  0  0  0  0  0  0  0  0  0  0  0
    3.0657    0.6692    0.0000 O   0  0  0  0  0  0  0  0  0  0  0  0
    3.9511   -4.0104    0.0000 O   0  0  0  0  0  0  0  0  0  0  0  0
    2.2522    2.4963    0.0000 O   0  0  0  0  0  0  0  0  0  0  0  0
    9.3639    0.6920    0.0000 O   0  0  0  0  0  0  0  0  0  0  0  0
    5.6832   -5.0104    0.0000 O   0  0  0  0  0  0  0  0  0  0  0  0
    3.4278    4.1143    0.0000 O   0  0  0  0  0  0  0  0  0  0  0  0
    7.4152   -5.0104    0.0000 O   0  0  0  0  0  0  0  0  0  0  0  0
    5.0100    4.8188    0.0000 O   0  0  0  0  0  0  0  0  0  0  0  0
    6.0492    0.3556    0.0000 C   0  0  2  0  0  0  0  0  0  0  0  0
    6.5492   -0.5104    0.0000 C   0  0  1  0  0  0  0  0  0  0  0  0
    6.7184    1.0988    0.0000 C   0  0  1  0  0  0  0  0  0  0  0  0
    7.6319    0.6920    0.0000 C   0  0  1  0  0  0  0  0  0  0  0  0
    5.6832   -2.0104    0.0000 C   0  0  1  0  0  0  0  0  0  0  0  0
    4.6480    1.3737    0.0000 C   0  0  1  0  0  0  0  0  0  0  0  0
    6.7571   -1.4886    0.0000 C   0  0  0  0  0  0  0  0  0  0  0  0
    4.8172   -2.5104    0.0000 C   0  0  1  0  0  0  0  0  0  0  0  0
    3.6534    1.4782    0.0000 C   0  0  1  0  0  0  0  0  0  0  0  0
    4.8172   -3.5104    0.0000 C   0  0  2  0  0  0  0  0  0  0  0  0
    3.2467    2.3918    0.0000 C   0  0  2  0  0  0  0  0  0  0  0  0
    8.4979    1.1920    0.0000 C   0  0  0  0  0  0  0  0  0  0  0  0
    5.6832   -4.0104    0.0000 C   0  0  1  0  0  0  0  0  0  0  0  0
    3.8345    3.2008    0.0000 C   0  0  1  0  0  0  0  0  0  0  0  0
    6.5492   -3.5104    0.0000 C   0  0  1  0  0  0  0  0  0  0  0  0
    4.8290    3.0962    0.0000 C   0  0  1  0  0  0  0  0  0  0  0  0
    7.4152   -4.0104    0.0000 C   0  0  0  0  0  0  0  0  0  0  0  0
    5.4168    3.9053    0.0000 C   0  0  0  0  0  0  0  0  0  0  0  0
    5.7115   -0.1644    0.0000 H   0  0  0  0  0  0  0  0  0  0  0  0
    6.1195    1.2592    0.0000 H   0  0  0  0  0  0  0  0  0  0  0  0
    8.1519    0.3544    0.0000 H   0  0  0  0  0  0  0  0  0  0  0  0
    5.1462   -1.7004    0.0000 H   0  0  0  0  0  0  0  0  0  0  0  0
    4.2835    0.8721    0.0000 H   0  0  0  0  0  0  0  0  0  0  0  0
    6.1375   -1.5102    0.0000 H   0  0  0  0  0  0  0  0  0  0  0  0
    6.6708   -2.1025    0.0000 H   0  0  0  0  0  0  0  0  0  0  0  0
    4.8172   -1.8904    0.0000 H   0  0  0  0  0  0  0  0  0  0  0  0
    3.0368    1.5430    0.0000 H   0  0  0  0  0  0  0  0  0  0  0  0
    4.8172   -4.1304    0.0000 H   0  0  0  0  0  0  0  0  0  0  0  0
    2.9945    2.9582    0.0000 H   0  0  0  0  0  0  0  0  0  0  0  0
    8.8964    1.6670    0.0000 H   0  0  0  0  0  0  0  0  0  0  0  0
    8.0994    1.6670    0.0000 H   0  0  0  0  0  0  0  0  0  0  0  0
    6.2201   -4.3204    0.0000 H   0  0  0  0  0  0  0  0  0  0  0  0
    3.2179    3.2656    0.0000 H   0  0  0  0  0  0  0  0  0  0  0  0
    7.0862   -3.2004    0.0000 H   0  0  0  0  0  0  0  0  0  0  0  0
    5.4456    3.0314    0.0000 H   0  0  0  0  0  0  0  0  0  0  0  0
    6.9712    2.4918    0.0000 H   0  0  0  0  0  0  0  0  0  0  0  0
    8.0258   -4.1181    0.0000 H   0  0  0  0  0  0  0  0  0  0  0  0
    7.6273   -3.4278    0.0000 H   0  0  0  0  0  0  0  0  0  0  0  0
    5.8475    3.4593    0.0000 H   0  0  0  0  0  0  0  0  0  0  0  0
    5.9308    4.2520    0.0000 H   0  0  0  0  0  0  0  0  0  0  0  0
    7.8371   -2.4040    0.0000 H   0  0  0  0  0  0  0  0  0  0  0  0
    3.4142   -2.3204    0.0000 H   0  0  0  0  0  0  0  0  0  0  0  0
    2.4490    0.7340    0.0000 H   0  0  0  0  0  0  0  0  0  0  0  0
    3.9511   -4.6304    0.0000 H   0  0  0  0  0  0  0  0  0  0  0  0
    2.0000    3.0627    0.0000 H   0  0  0  0  0  0  0  0  0  0  0  0
    9.9009    1.0020    0.0000 H   0  0  0  0  0  0  0  0  0  0  0  0
    5.1462   -5.3204    0.0000 H   0  0  0  0  0  0  0  0  0  0  0  0
    2.8111    4.1791    0.0000 H   0  0  0  0  0  0  0  0  0  0  0  0
    7.9522   -5.3204    0.0000 H   0  0  0  0  0  0  0  0  0  0  0  0
    5.3745    5.3204    0.0000 H   0  0  0  0  0  0  0  0  0  0  0  0
  1 18  1  0  0  0  0
  1 20  1  0  0  0  0
 18  2  1  1  0  0  0
 21  2  1  1  0  0  0
 17  3  1  1  0  0  0
 22  3  1  6  0  0  0
  4 21  1  0  0  0  0
  4 31  1  0  0  0  0
  5 22  1  0  0  0  0
  5 32  1  0  0  0  0
 19  6  1  6  0  0  0
  6 52  1  0  0  0  0
  7 23  1  0  0  0  0
  7 57  1  0  0  0  0
 24  8  1  1  0  0  0
  8 58  1  0  0  0  0
 25  9  1  6  0  0  0
  9 59  1  0  0  0  0
 26 10  1  6  0  0  0
 10 60  1  0  0  0  0
 27 11  1  1  0  0  0
 11 61  1  0  0  0  0
 12 28  1  0  0  0  0
 12 62  1  0  0  0  0
 29 13  1  1  0  0  0
 13 63  1  0  0  0  0
 30 14  1  6  0  0  0
 14 64  1  0  0  0  0
 15 33  1  0  0  0  0
 15 65  1  0  0  0  0
 16 34  1  0  0  0  0
 16 66  1  0  0  0  0
 17 18  1  0  0  0  0
 17 19  1  0  0  0  0
 17 35  1  0  0  0  0
 18 23  1  0  0  0  0
 19 20  1  0  0  0  0
 19 36  1  0  0  0  0
 20 28  1  1  0  0  0
 20 37  1  0  0  0  0
 21 24  1  0  0  0  0
 21 38  1  0  0  0  0
 22 25  1  0  0  0  0
 22 39  1  0  0  0  0
 23 40  1  0  0  0  0
 23 41  1  0  0  0  0
 24 26  1  0  0  0  0
 24 42  1  0  0  0  0
 25 27  1  0  0  0  0
 25 43  1  0  0  0  0
 26 29  1  0  0  0  0
 26 44  1  0  0  0  0
 27 30  1  0  0  0  0
 27 45  1  0  0  0  0
 28 46  1  0  0  0  0
 28 47  1  0  0  0  0
 29 31  1  0  0  0  0
 29 48  1  0  0  0  0
 30 32  1  0  0  0  0
 30 49  1  0  0  0  0
 31 33  1  6  0  0  0
 31 50  1  0  0  0  0
 32 34  1  1  0  0  0
 32 51  1  0  0  0  0
 33 53  1  0  0  0  0
 33 54  1  0  0  0  0
 34 55  1  0  0  0  0
 34 56  1  0  0  0  0
M  END
> <PUBCHEM_COMPOUND_CID>
92817

> <PUBCHEM_COMPOUND_CANONICALIZED>
1

> <PUBCHEM_CACTVS_COMPLEXITY>
655

> <PUBCHEM_CACTVS_HBOND_ACCEPTOR>
16

> <PUBCHEM_CACTVS_HBOND_DONOR>
11

> <PUBCHEM_CACTVS_ROTATABLE_BOND>
8

> <PUBCHEM_CACTVS_SUBSKEYS>
AAADcfB4PgAAAAAAAAAAAAAAAAAAASAAAAAkSAAAAAAAAAAAAAAAGgAACAAACBSwgAMACAAABgAAAAAAAAAAAAAAAAAAAAAAAAAREAIAAAAiQAAFAAAHAAHAYAwAAAAAAAAAAAAAAAAAAAAAAAAAAAAAAA==

> <PUBCHEM_IUPAC_OPENEYE_NAME>
(2R,3R,4S,5S,6R)-2-[(2S,3S,4R,5R)-4-hydroxy-2,5-bis(hydroxymethyl)-2-[(2R,3R,4S,5S,6R)-3,4,5-trihydroxy-6-(hydroxymethyl)tetrahydropyran-2-yl]oxy-tetrahydrofuran-3-yl]oxy-6-(hydroxymethyl)tetrahydropyran-3,4,5-triol

> <PUBCHEM_IUPAC_CAS_NAME>
(2R,3R,4S,5S,6R)-2-[[(2S,3S,4R,5R)-4-hydroxy-2,5-bis(hydroxymethyl)-2-[[(2R,3R,4S,5S,6R)-3,4,5-trihydroxy-6-(hydroxymethyl)-2-oxanyl]oxy]-3-oxolanyl]oxy]-6-(hydroxymethyl)oxane-3,4,5-triol

> <PUBCHEM_IUPAC_NAME>
(2R,3R,4S,5S,6R)-2-[(2S,3S,4R,5R)-4-hydroxy-2,5-bis(hydroxymethyl)-2-[(2R,3R,4S,5S,6R)-3,4,5-trihydroxy-6-(hydroxymethyl)oxan-2-yl]oxyoxolan-3-yl]oxy-6-(hydroxymethyl)oxane-3,4,5-triol

> <PUBCHEM_IUPAC_SYSTEMATIC_NAME>
(2R,3R,4S,5S,6R)-2-[(2S,3S,4R,5R)-2,5-bis(hydroxymethyl)-2-[(2R,3R,4S,5S,6R)-6-(hydroxymethyl)-3,4,5-tris(oxidanyl)oxan-2-yl]oxy-4-oxidanyl-oxolan-3-yl]oxy-6-(hydroxymethyl)oxane-3,4,5-triol

> <PUBCHEM_IUPAC_TRADITIONAL_NAME>
(2R,3R,4S,5S,6R)-2-[(2S,3S,4R,5R)-4-hydroxy-2,5-dimethylol-2-[(2R,3R,4S,5S,6R)-3,4,5-trihydroxy-6-methylol-tetrahydropyran-2-yl]oxy-tetrahydrofuran-3-yl]oxy-6-methylol-tetrahydropyran-3,4,5-triol

> <PUBCHEM_IUPAC_INCHI>
InChI=1S/C18H32O16/c19-1-5-8(23)11(26)13(28)16(30-5)32-15-10(25)7(3-21)33-18(15,4-22)34-17-14(29)12(27)9(24)6(2-20)31-17/h5-17,19-29H,1-4H2/t5-,6-,7-,8-,9-,10-,11+,12+,13-,14-,15+,16-,17-,18+/m1/s1

> <PUBCHEM_IUPAC_INCHIKEY>
QWIZNVHXZXRPDR-WSCXOGSTSA-N

> <PUBCHEM_XLOGP3>
-5.8

> <PUBCHEM_EXACT_MASS>
504.169035

> <PUBCHEM_MOLECULAR_FORMULA>
C18H32O16

> <PUBCHEM_MOLECULAR_WEIGHT>
504.43708

> <PUBCHEM_OPENEYE_CAN_SMILES>
C(C1C(C(C(C(O1)OC2C(C(OC2(CO)OC3C(C(C(C(O3)CO)O)O)O)CO)O)O)O)O)O

> <PUBCHEM_OPENEYE_ISO_SMILES>
C([C@@H]1[C@H]([C@@H]([C@H]([C@H](O1)O[C@H]2[C@@H]([C@H](O[C@@]2(CO)O[C@@H]3[C@@H]([C@H]([C@@H]([C@H](O3)CO)O)O)O)CO)O)O)O)O)O

> <PUBCHEM_CACTVS_TPSA>
269

> <PUBCHEM_MONOISOTOPIC_WEIGHT>
504.169035

> <PUBCHEM_TOTAL_CHARGE>
0

> <PUBCHEM_HEAVY_ATOM_COUNT>
34

> <PUBCHEM_ATOM_DEF_STEREO_COUNT>
14

> <PUBCHEM_ATOM_UDEF_STEREO_COUNT>
0

> <PUBCHEM_BOND_DEF_STEREO_COUNT>
0

> <PUBCHEM_BOND_UDEF_STEREO_COUNT>
0

> <PUBCHEM_ISOTOPIC_ATOM_COUNT>
0

> <PUBCHEM_COMPONENT_COUNT>
1

> <PUBCHEM_CACTVS_TAUTO_COUNT>
1

> <PUBCHEM_COORDINATE_TYPE>
1
5
255

> <PUBCHEM_BONDANNOTATIONS>
26  10  6
27  11  5
29  13  5
30  14  6
18  2  5
21  2  5
20  28  5
17  3  5
22  3  6
31  33  6
32  34  5
19  6  6
24  8  5
25  9  6

$$$$

