53297452
  -OEChem-07051213153D

 45 45  0     1  0  0  0  0  0999 V2000
   -2.3811    0.0117    1.3723 O   0  0  0  0  0  0  0  0  0  0  0  0
   -0.8331   -1.3518    0.2122 O   0  0  0  0  0  0  0  0  0  0  0  0
   -3.7897    0.1633   -2.5325 O   0  0  0  0  0  0  0  0  0  0  0  0
   -4.3323    1.4985   -0.1614 O   0  0  0  0  0  0  0  0  0  0  0  0
   -2.8471   -2.3178   -1.4225 O   0  0  0  0  0  0  0  0  0  0  0  0
   -1.1301    2.4356    2.4788 O   0  0  0  0  0  0  0  0  0  0  0  0
    1.4240   -2.8980   -0.2607 O   0  0  0  0  0  0  0  0  0  0  0  0
    1.8751    0.3333    1.4244 O   0  0  0  0  0  0  0  0  0  0  0  0
    4.2718   -1.1715    0.9113 O   0  0  0  0  0  0  0  0  0  0  0  0
    5.0117    1.1589   -0.0660 O   0  0  0  0  0  0  0  0  0  0  0  0
    3.9964    2.5387   -2.1073 O   0  0  0  0  0  0  0  0  0  0  0  0
   -2.8461    0.1058   -1.4665 C   0  0  1  0  0  0  0  0  0  0  0  0
   -2.9746    1.3510   -0.5846 C   0  0  2  0  0  0  0  0  0  0  0  0
   -3.0963   -1.1552   -0.6392 C   0  0  2  0  0  0  0  0  0  0  0  0
   -2.0803    1.2191    0.6551 C   0  0  1  0  0  0  0  0  0  0  0  0
   -2.1956   -1.1765    0.5983 C   0  0  2  0  0  0  0  0  0  0  0  0
   -2.2609    2.3794    1.6280 C   0  0  0  0  0  0  0  0  0  0  0  0
   -0.0420   -1.8277    1.2966 C   0  0  0  0  0  0  0  0  0  0  0  0
    1.4052   -1.9721    0.8252 C   0  0  2  0  0  0  0  0  0  0  0  0
    1.9988   -0.6237    0.3765 C   0  0  2  0  0  0  0  0  0  0  0  0
    3.4464   -0.6763   -0.1355 C   0  0  1  0  0  0  0  0  0  0  0  0
    4.0255    0.6564   -0.6073 C   0  0  0  0  0  0  0  0  0  0  0  0
    3.3543    1.3188   -1.7951 C   0  0  0  0  0  0  0  0  0  0  0  0
   -1.8498    0.0599   -1.9226 H   0  0  0  0  0  0  0  0  0  0  0  0
   -2.7241    2.2488   -1.1597 H   0  0  0  0  0  0  0  0  0  0  0  0
   -4.1511   -1.1898   -0.3417 H   0  0  0  0  0  0  0  0  0  0  0  0
   -1.0279    1.1784    0.3451 H   0  0  0  0  0  0  0  0  0  0  0  0
   -2.5004   -2.0289    1.2185 H   0  0  0  0  0  0  0  0  0  0  0  0
   -2.3205    3.3331    1.0942 H   0  0  0  0  0  0  0  0  0  0  0  0
   -3.1525    2.2516    2.2504 H   0  0  0  0  0  0  0  0  0  0  0  0
   -0.4217   -2.8103    1.6015 H   0  0  0  0  0  0  0  0  0  0  0  0
   -0.1106   -1.1435    2.1495 H   0  0  0  0  0  0  0  0  0  0  0  0
    2.0015   -2.3870    1.6459 H   0  0  0  0  0  0  0  0  0  0  0  0
    1.3830   -0.2543   -0.4529 H   0  0  0  0  0  0  0  0  0  0  0  0
   -3.6189    0.9815   -3.0296 H   0  0  0  0  0  0  0  0  0  0  0  0
   -4.5205    0.8194    0.5079 H   0  0  0  0  0  0  0  0  0  0  0  0
   -3.0137   -3.0927   -0.8591 H   0  0  0  0  0  0  0  0  0  0  0  0
    3.5326   -1.3791   -0.9711 H   0  0  0  0  0  0  0  0  0  0  0  0
   -1.2642    3.1833    3.0858 H   0  0  0  0  0  0  0  0  0  0  0  0
    1.0740   -3.7436    0.0680 H   0  0  0  0  0  0  0  0  0  0  0  0
    2.1169    1.2038    1.0661 H   0  0  0  0  0  0  0  0  0  0  0  0
    4.1533   -0.5908    1.6826 H   0  0  0  0  0  0  0  0  0  0  0  0
    3.4184    0.6506   -2.6581 H   0  0  0  0  0  0  0  0  0  0  0  0
    2.3105    1.5326   -1.5541 H   0  0  0  0  0  0  0  0  0  0  0  0
    3.5423    2.9124   -2.8817 H   0  0  0  0  0  0  0  0  0  0  0  0
  1 15  1  0  0  0  0
  1 16  1  0  0  0  0
  2 16  1  0  0  0  0
  2 18  1  0  0  0  0
  3 12  1  0  0  0  0
  3 35  1  0  0  0  0
  4 13  1  0  0  0  0
  4 36  1  0  0  0  0
  5 14  1  0  0  0  0
  5 37  1  0  0  0  0
  6 17  1  0  0  0  0
  6 39  1  0  0  0  0
  7 19  1  0  0  0  0
  7 40  1  0  0  0  0
  8 20  1  0  0  0  0
  8 41  1  0  0  0  0
  9 21  1  0  0  0  0
  9 42  1  0  0  0  0
 10 22  2  0  0  0  0
 11 23  1  0  0  0  0
 11 45  1  0  0  0  0
 12 13  1  0  0  0  0
 12 14  1  0  0  0  0
 12 24  1  0  0  0  0
 13 15  1  0  0  0  0
 13 25  1  0  0  0  0
 14 16  1  0  0  0  0
 14 26  1  0  0  0  0
 15 17  1  0  0  0  0
 15 27  1  0  0  0  0
 16 28  1  0  0  0  0
 17 29  1  0  0  0  0
 17 30  1  0  0  0  0
 18 19  1  0  0  0  0
 18 31  1  0  0  0  0
 18 32  1  0  0  0  0
 19 20  1  0  0  0  0
 19 33  1  0  0  0  0
 20 21  1  0  0  0  0
 20 34  1  0  0  0  0
 21 22  1  0  0  0  0
 21 38  1  0  0  0  0
 22 23  1  0  0  0  0
 23 43  1  0  0  0  0
 23 44  1  0  0  0  0
M  END
> <PUBCHEM_COMPOUND_CID>
53297452

> <PUBCHEM_CONFORMER_RMSD>
1

> <PUBCHEM_CONFORMER_DIVERSEORDER>
1
67
41
22
66
45
13
44
14
10
57
62
3
25
65
8
52
33
69
7
63
34
11
18
40
17
70
31
20
46
49
36
42
27
50
43
54
59
68
5
28
12
6
55
39
37
19
24
64
51
56
61
35
30
60
23
15
21
53
32
4
58
29
16
9
47
38
2
48
26

> <PUBCHEM_MMFF94_PARTIAL_CHARGES>
31
1 -0.56
10 -0.57
11 -0.68
12 0.28
13 0.28
14 0.28
15 0.28
16 0.56
17 0.28
18 0.28
19 0.28
2 -0.56
20 0.28
21 0.34
22 0.45
23 0.34
3 -0.68
35 0.4
36 0.4
37 0.4
39 0.4
4 -0.68
40 0.4
41 0.4
42 0.4
45 0.4
5 -0.68
6 -0.68
7 -0.68
8 -0.68
9 -0.68

> <PUBCHEM_EFFECTIVE_ROTOR_COUNT>
9.2

> <PUBCHEM_PHARMACOPHORE_FEATURES>
20
1 1 acceptor
1 10 acceptor
1 11 acceptor
1 11 donor
1 2 acceptor
1 3 acceptor
1 3 donor
1 4 acceptor
1 4 donor
1 5 acceptor
1 5 donor
1 6 acceptor
1 6 donor
1 7 acceptor
1 7 donor
1 8 acceptor
1 8 donor
1 9 acceptor
1 9 donor
6 1 12 13 14 15 16 rings

> <PUBCHEM_HEAVY_ATOM_COUNT>
23

> <PUBCHEM_ATOM_DEF_STEREO_COUNT>
8

> <PUBCHEM_ATOM_UDEF_STEREO_COUNT>
0

> <PUBCHEM_BOND_DEF_STEREO_COUNT>
0

> <PUBCHEM_BOND_UDEF_STEREO_COUNT>
0

> <PUBCHEM_ISOTOPIC_ATOM_COUNT>
0

> <PUBCHEM_COMPONENT_COUNT>
1

> <PUBCHEM_CACTVS_TAUTO_COUNT>
10

> <PUBCHEM_CONFORMER_ID>
032D412C00000001

> <PUBCHEM_MMFF94_ENERGY>
51.0898

> <PUBCHEM_FEATURE_SELFOVERLAP>
101.578

> <PUBCHEM_SHAPE_FINGERPRINT>
10498660 4 18260272944705311016
11552529 35 13398049939521086944
11640471 11 18341042020883283273
11725454 13 15625402236684969591
12539773 59 18265037072986297493
12596599 1 18410285952076295254
12670546 177 16443068253631758240
12788726 201 17532095071722254241
13583140 156 16917060092624793322
13899415 154 18188485767032007163
14123250 116 18262508299068224905
14787075 74 18342166740449872507
15183329 4 18271228518369501814
15342168 16 18201427125700474101
15475509 8 16950006937788829877
18186145 218 18201708575139651834
18981168 100 17773291604048428559
20449540 30 18343298167615419651
20775530 9 14347514492155906117
21033648 29 14117254870003676990
21095088 737 18125435311401872868
212916 134 13542192752905328631
21864079 5 18201146698658646092
22749437 52 18201716202869525572
22907989 373 18122046629471074366
23227448 37 18131912667797970239
23557571 272 18113903740729092223
27216 239 16702299044765274967
469060 322 16553655895754578848
474 4 18201437025394486546
4921388 177 16298389050281851535
5262128 65 17023191478613545928

> <PUBCHEM_SHAPE_MULTIPOLES>
408.77
9
2.86
2.05
6.38
0.05
0.2
-3.69
3.51
0.33
-0.21
-1.06
-1.12
-2.34

> <PUBCHEM_SHAPE_SELFOVERLAP>
816.715

> <PUBCHEM_SHAPE_VOLUME>
237.3

> <PUBCHEM_COORDINATE_TYPE>
2
5
10

$$$$

