11307
  -OEChem-06261205313D

 45 47  0     0  0  0  0  0  0999 V2000
    3.2748   -0.2321    2.3702 S   0  0  0  0  0  0  0  0  0  0  0  0
    3.4940   -0.0357    0.4422 P   0  0  0  0  0  0  0  0  0  0  0  0
   -1.5404   -1.6164    0.1757 O   0  0  0  0  0  0  0  0  0  0  0  0
   -3.4128   -2.8950    0.3647 O   0  0  0  0  0  0  0  0  0  0  0  0
    2.4472    0.9489   -0.3196 O   0  0  0  0  0  0  0  0  0  0  0  0
    4.9214    0.5723   -0.0530 O   0  0  0  0  0  0  0  0  0  0  0  0
    3.4038   -1.3861   -0.4608 O   0  0  0  0  0  0  0  0  0  0  0  0
   -4.0423    1.9116   -0.1525 C   0  0  0  0  0  0  0  0  0  0  0  0
   -5.5111    1.7028    0.2222 C   0  0  0  0  0  0  0  0  0  0  0  0
   -6.0486    0.4171   -0.3839 C   0  0  0  0  0  0  0  0  0  0  0  0
   -3.1949    0.6608   -0.0644 C   0  0  0  0  0  0  0  0  0  0  0  0
   -5.2408   -0.7833    0.1053 C   0  0  0  0  0  0  0  0  0  0  0  0
   -3.7474   -0.5593    0.0788 C   0  0  0  0  0  0  0  0  0  0  0  0
   -1.7303    0.7919   -0.1383 C   0  0  0  0  0  0  0  0  0  0  0  0
   -0.9497   -0.3547   -0.0106 C   0  0  0  0  0  0  0  0  0  0  0  0
   -2.9158   -1.7833    0.2151 C   0  0  0  0  0  0  0  0  0  0  0  0
   -1.0610    2.0074   -0.3413 C   0  0  0  0  0  0  0  0  0  0  0  0
    0.4456   -0.3219   -0.0659 C   0  0  0  0  0  0  0  0  0  0  0  0
    1.0894    0.8947   -0.2606 C   0  0  0  0  0  0  0  0  0  0  0  0
    0.3368    2.0582   -0.4002 C   0  0  0  0  0  0  0  0  0  0  0  0
    5.2540    1.9193    0.2386 C   0  0  0  0  0  0  0  0  0  0  0  0
    4.1884   -2.5159   -0.1184 C   0  0  0  0  0  0  0  0  0  0  0  0
    6.6233    2.2235   -0.3306 C   0  0  0  0  0  0  0  0  0  0  0  0
    3.9163   -3.6247   -1.1125 C   0  0  0  0  0  0  0  0  0  0  0  0
   -3.6484    2.6902    0.5118 H   0  0  0  0  0  0  0  0  0  0  0  0
   -3.9898    2.2976   -1.1788 H   0  0  0  0  0  0  0  0  0  0  0  0
   -5.6102    1.6621    1.3145 H   0  0  0  0  0  0  0  0  0  0  0  0
   -6.1040    2.5590   -0.1189 H   0  0  0  0  0  0  0  0  0  0  0  0
   -5.9988    0.4770   -1.4785 H   0  0  0  0  0  0  0  0  0  0  0  0
   -7.1037    0.2858   -0.1187 H   0  0  0  0  0  0  0  0  0  0  0  0
   -5.5074   -1.6463   -0.5167 H   0  0  0  0  0  0  0  0  0  0  0  0
   -5.5366   -1.0241    1.1344 H   0  0  0  0  0  0  0  0  0  0  0  0
   -1.6043    2.9406   -0.4631 H   0  0  0  0  0  0  0  0  0  0  0  0
    0.9921   -1.2525    0.0349 H   0  0  0  0  0  0  0  0  0  0  0  0
    0.8308    3.0135   -0.5574 H   0  0  0  0  0  0  0  0  0  0  0  0
    4.5078    2.5842   -0.2068 H   0  0  0  0  0  0  0  0  0  0  0  0
    5.2588    2.0699    1.3221 H   0  0  0  0  0  0  0  0  0  0  0  0
    5.2472   -2.2399   -0.1369 H   0  0  0  0  0  0  0  0  0  0  0  0
    3.9275   -2.8573    0.8872 H   0  0  0  0  0  0  0  0  0  0  0  0
    6.9118    3.2578   -0.1236 H   0  0  0  0  0  0  0  0  0  0  0  0
    7.3762    1.5538    0.0979 H   0  0  0  0  0  0  0  0  0  0  0  0
    6.6347    2.0633   -1.4138 H   0  0  0  0  0  0  0  0  0  0  0  0
    4.5069   -4.5145   -0.8773 H   0  0  0  0  0  0  0  0  0  0  0  0
    2.8547   -3.8935   -1.1090 H   0  0  0  0  0  0  0  0  0  0  0  0
    4.1584   -3.2985   -2.1294 H   0  0  0  0  0  0  0  0  0  0  0  0
  1  2  2  0  0  0  0
  2  5  1  0  0  0  0
  2  6  1  0  0  0  0
  2  7  1  0  0  0  0
  3 15  1  0  0  0  0
  3 16  1  0  0  0  0
  4 16  2  0  0  0  0
  5 19  1  0  0  0  0
  6 21  1  0  0  0  0
  7 22  1  0  0  0  0
  8  9  1  0  0  0  0
  8 11  1  0  0  0  0
  8 25  1  0  0  0  0
  8 26  1  0  0  0  0
  9 10  1  0  0  0  0
  9 27  1  0  0  0  0
  9 28  1  0  0  0  0
 10 12  1  0  0  0  0
 10 29  1  0  0  0  0
 10 30  1  0  0  0  0
 11 13  2  0  0  0  0
 11 14  1  0  0  0  0
 12 13  1  0  0  0  0
 12 31  1  0  0  0  0
 12 32  1  0  0  0  0
 13 16  1  0  0  0  0
 14 15  2  0  0  0  0
 14 17  1  0  0  0  0
 15 18  1  0  0  0  0
 17 20  2  0  0  0  0
 17 33  1  0  0  0  0
 18 19  2  0  0  0  0
 18 34  1  0  0  0  0
 19 20  1  0  0  0  0
 20 35  1  0  0  0  0
 21 23  1  0  0  0  0
 21 36  1  0  0  0  0
 21 37  1  0  0  0  0
 22 24  1  0  0  0  0
 22 38  1  0  0  0  0
 22 39  1  0  0  0  0
 23 40  1  0  0  0  0
 23 41  1  0  0  0  0
 23 42  1  0  0  0  0
 24 43  1  0  0  0  0
 24 44  1  0  0  0  0
 24 45  1  0  0  0  0
M  END
> <PUBCHEM_COMPOUND_CID>
11307

> <PUBCHEM_CONFORMER_RMSD>
0.8

> <PUBCHEM_CONFORMER_DIVERSEORDER>
1
4
30
14
10
40
13
15
24
17
29
34
32
28
2
23
3
37
20
39
12
11
36
38
19
27
9
35
22
18
16
41
31
5
6
21
33
7
26
8
25

> <PUBCHEM_MMFF94_PARTIAL_CHARGES>
23
1 -0.68
11 -0.17
12 0.14
13 -0.12
14 0.03
15 0.08
16 0.71
17 -0.15
18 -0.15
19 0.08
2 1.49
20 -0.15
21 0.28
22 0.28
3 -0.23
33 0.15
34 0.15
35 0.15
4 -0.57
5 -0.35
6 -0.55
7 -0.55
8 0.14

> <PUBCHEM_EFFECTIVE_ROTOR_COUNT>
6.8

> <PUBCHEM_PHARMACOPHORE_FEATURES>
4
1 4 acceptor
6 14 15 17 18 19 20 rings
6 3 11 13 14 15 16 rings
6 8 9 10 11 12 13 rings

> <PUBCHEM_HEAVY_ATOM_COUNT>
24

> <PUBCHEM_ATOM_DEF_STEREO_COUNT>
0

> <PUBCHEM_ATOM_UDEF_STEREO_COUNT>
0

> <PUBCHEM_BOND_DEF_STEREO_COUNT>
0

> <PUBCHEM_BOND_UDEF_STEREO_COUNT>
0

> <PUBCHEM_ISOTOPIC_ATOM_COUNT>
0

> <PUBCHEM_COMPONENT_COUNT>
1

> <PUBCHEM_CACTVS_TAUTO_COUNT>
1

> <PUBCHEM_CONFORMER_ID>
00002C2B00000001

> <PUBCHEM_MMFF94_ENERGY>
45.3061

> <PUBCHEM_FEATURE_SELFOVERLAP>
20.342

> <PUBCHEM_SHAPE_FINGERPRINT>
10366900 7 17022901250530233728
10906281 52 17916853626760484740
11719270 70 18334580144936645410
12107183 9 17684640309420604080
12236239 1 17918279735584404121
12616971 3 12463567357272838450
12788726 201 18343304794407703256
13073987 5 18409161130354040321
13402501 40 18191021407521669454
13533116 47 17968380146819010250
13583140 156 17604437288525732299
14251764 18 18342177731228873873
14341114 328 18059867129907517040
14790565 3 18050845825890842545
15196674 1 18411136969717857455
1813 80 17131829888942387053
18681886 176 18196371425903949772
21033648 29 17531258222576206465
21130935 74 18261388979953606467
21267235 1 18270112415013632643
21279426 13 18267868470352351245
21421861 104 17916879031333577810
220451 1 17603868892859572455
23402539 116 18335427863827027949
23559900 14 18336547217913489398
239999 70 18343022229263166306
300161 21 18272094876536934500
3004659 81 18272085050300627294
335352 9 18340203111535185101
34934 24 18413111636782560014
3545911 37 18410855447649844644
404807 14 16670758729311476591
4073 2 18201715112016560282
4325135 7 17988927739269110964
4340502 62 16056883524559297288
5104073 3 18412541045866055107
7226269 152 18186798098161448209
9709674 26 18411415124563879798
9981440 41 17048791189201467033

> <PUBCHEM_SHAPE_MULTIPOLES>
472.26
14.62
3.19
1.01
2.32
2.12
-0.6
-3.12
0.35
2.99
0.79
1.21
0.23
0.77

> <PUBCHEM_SHAPE_SELFOVERLAP>
967.385

> <PUBCHEM_SHAPE_VOLUME>
274

> <PUBCHEM_COORDINATE_TYPE>
2
5
10

$$$$

