73146
  -OEChem-07051212562D

108113  0     1  0  0  0  0  0999 V2000
    5.9998   -1.8052    0.0000 O   0  0  0  0  0  0  0  0  0  0  0  0
   14.9249    1.2813    0.0000 O   0  0  0  0  0  0  0  0  0  0  0  0
   14.0705   -0.2253    0.0000 O   0  0  0  0  0  0  0  0  0  0  0  0
    5.1396   -0.3019    0.0000 O   0  0  0  0  0  0  0  0  0  0  0  0
    2.5357   -1.7918    0.0000 O   0  0  0  0  0  0  0  0  0  0  0  0
    2.5434    0.2081    0.0000 O   0  0  0  0  0  0  0  0  0  0  0  0
    5.1473    1.6981    0.0000 O   0  0  0  0  0  0  0  0  0  0  0  0
    2.5319   -2.7918    0.0000 O   0  0  0  0  0  0  0  0  0  0  0  0
    4.2639   -2.7985    0.0000 N   0  0  0  0  0  0  0  0  0  0  0  0
   10.5269   -0.2529    0.0000 C   0  0  2  0  0  0  0  0  0  0  0  0
    9.6608    0.2471    0.0000 C   0  0  1  0  0  0  0  0  0  0  0  0
    8.7508   -0.2597    0.0000 C   0  0  2  0  0  0  0  0  0  0  0  0
   11.3929    0.2471    0.0000 C   0  0  1  0  0  0  0  0  0  0  0  0
    8.7428   -1.3013    0.0000 C   0  0  2  0  0  0  0  0  0  0  0  0
   10.5429   -1.2944    0.0000 C   0  0  0  0  0  0  0  0  0  0  0  0
    7.8074   -1.8510    0.0000 C   0  0  0  0  0  0  0  0  0  0  0  0
    9.6449   -1.8221    0.0000 C   0  0  0  0  0  0  0  0  0  0  0  0
   11.3929    1.2471    0.0000 C   0  0  0  0  0  0  0  0  0  0  0  0
    9.6608    1.2471    0.0000 C   0  0  0  0  0  0  0  0  0  0  0  0
    7.8240    0.3044    0.0000 C   0  0  0  0  0  0  0  0  0  0  0  0
   12.2868    1.7818    0.0000 C   0  0  1  0  0  0  0  0  0  0  0  0
   12.2868   -0.2875    0.0000 C   0  0  0  0  0  0  0  0  0  0  0  0
   13.1929    1.2680    0.0000 C   0  0  1  0  0  0  0  0  0  0  0  0
   11.1697   -1.0189    0.0000 C   0  0  0  0  0  0  0  0  0  0  0  0
    6.8678   -1.3085    0.0000 C   0  0  2  0  0  0  0  0  0  0  0  0
   13.1929    0.2263    0.0000 C   0  0  0  0  0  0  0  0  0  0  0  0
    8.7586    0.7403    0.0000 C   0  0  0  0  0  0  0  0  0  0  0  0
    6.8761   -0.2236    0.0000 C   0  0  0  0  0  0  0  0  0  0  0  0
   10.5269    1.7471    0.0000 C   0  0  0  0  0  0  0  0  0  0  0  0
   11.7350   -0.6925    0.0000 C   0  0  0  0  0  0  0  0  0  0  0  0
   12.2617    2.8665    0.0000 C   0  0  0  0  0  0  0  0  0  0  0  0
   14.1367    1.8032    0.0000 C   0  0  0  0  0  0  0  0  0  0  0  0
   13.1929    3.4234    0.0000 C   0  0  0  0  0  0  0  0  0  0  0  0
    7.3107   -2.7190    0.0000 C   0  0  0  0  0  0  0  0  0  0  0  0
    8.3107   -2.7151    0.0000 C   0  0  0  0  0  0  0  0  0  0  0  0
   14.1367    2.8882    0.0000 C   0  0  0  0  0  0  0  0  0  0  0  0
   14.0628    0.7746    0.0000 C   0  0  0  0  0  0  0  0  0  0  0  0
   13.6829    4.2952    0.0000 C   0  0  0  0  0  0  0  0  0  0  0  0
   12.6829    4.2836    0.0000 C   0  0  0  0  0  0  0  0  0  0  0  0
    5.1357   -1.3019    0.0000 C   0  0  2  0  0  0  0  0  0  0  0  0
    4.2678   -1.7985    0.0000 C   0  0  1  0  0  0  0  0  0  0  0  0
    3.4037   -1.2952    0.0000 C   0  0  2  0  0  0  0  0  0  0  0  0
    4.2755    0.2015    0.0000 C   0  0  1  0  0  0  0  0  0  0  0  0
    3.4075   -0.2952    0.0000 C   0  0  1  0  0  0  0  0  0  0  0  0
    4.2793    1.2014    0.0000 C   0  0  0  0  0  0  0  0  0  0  0  0
    3.3960   -3.2952    0.0000 C   0  0  0  0  0  0  0  0  0  0  0  0
    3.3921   -4.2952    0.0000 C   0  0  0  0  0  0  0  0  0  0  0  0
   10.3970    0.6721    0.0000 H   0  0  0  0  0  0  0  0  0  0  0  0
    8.7461   -2.1513    0.0000 H   0  0  0  0  0  0  0  0  0  0  0  0
   10.7610   -1.8748    0.0000 H   0  0  0  0  0  0  0  0  0  0  0  0
   11.1521   -1.1789    0.0000 H   0  0  0  0  0  0  0  0  0  0  0  0
    9.2476   -2.2981    0.0000 H   0  0  0  0  0  0  0  0  0  0  0  0
   10.0459   -2.2950    0.0000 H   0  0  0  0  0  0  0  0  0  0  0  0
    9.4488    1.8297    0.0000 H   0  0  0  0  0  0  0  0  0  0  0  0
    9.0503    1.1395    0.0000 H   0  0  0  0  0  0  0  0  0  0  0  0
    8.2322    0.7710    0.0000 H   0  0  0  0  0  0  0  0  0  0  0  0
    7.4341    0.7864    0.0000 H   0  0  0  0  0  0  0  0  0  0  0  0
   13.0163    2.2181    0.0000 H   0  0  0  0  0  0  0  0  0  0  0  0
   11.8822   -0.7573    0.0000 H   0  0  0  0  0  0  0  0  0  0  0  0
   12.6805   -0.7665    0.0000 H   0  0  0  0  0  0  0  0  0  0  0  0
   10.6947   -1.4174    0.0000 H   0  0  0  0  0  0  0  0  0  0  0  0
   11.5682   -1.4939    0.0000 H   0  0  0  0  0  0  0  0  0  0  0  0
   11.6446   -0.6204    0.0000 H   0  0  0  0  0  0  0  0  0  0  0  0
    6.8666   -1.9285    0.0000 H   0  0  0  0  0  0  0  0  0  0  0  0
   13.4020   -0.3574    0.0000 H   0  0  0  0  0  0  0  0  0  0  0  0
   13.8038    0.3324    0.0000 H   0  0  0  0  0  0  0  0  0  0  0  0
    9.3785    0.7355    0.0000 H   0  0  0  0  0  0  0  0  0  0  0  0
    8.7633    1.3602    0.0000 H   0  0  0  0  0  0  0  0  0  0  0  0
    8.1386    0.7450    0.0000 H   0  0  0  0  0  0  0  0  0  0  0  0
    6.6716    0.3617    0.0000 H   0  0  0  0  0  0  0  0  0  0  0  0
    6.2645   -0.3250    0.0000 H   0  0  0  0  0  0  0  0  0  0  0  0
   10.5269    2.3671    0.0000 H   0  0  0  0  0  0  0  0  0  0  0  0
   11.1524   -0.9046    0.0000 H   0  0  0  0  0  0  0  0  0  0  0  0
   11.9471   -1.2751    0.0000 H   0  0  0  0  0  0  0  0  0  0  0  0
   12.3176   -0.4804    0.0000 H   0  0  0  0  0  0  0  0  0  0  0  0
   12.0393    3.4452    0.0000 H   0  0  0  0  0  0  0  0  0  0  0  0
   11.6535    2.7463    0.0000 H   0  0  0  0  0  0  0  0  0  0  0  0
   14.3457    1.2195    0.0000 H   0  0  0  0  0  0  0  0  0  0  0  0
   14.7475    1.9093    0.0000 H   0  0  0  0  0  0  0  0  0  0  0  0
    7.7750   -3.0272    0.0000 H   0  0  0  0  0  0  0  0  0  0  0  0
    8.6228   -3.2509    0.0000 H   0  0  0  0  0  0  0  0  0  0  0  0
    8.8465   -2.4031    0.0000 H   0  0  0  0  0  0  0  0  0  0  0  0
    6.7726   -2.4111    0.0000 H   0  0  0  0  0  0  0  0  0  0  0  0
    7.0028   -3.2571    0.0000 H   0  0  0  0  0  0  0  0  0  0  0  0
    7.8489   -3.0269    0.0000 H   0  0  0  0  0  0  0  0  0  0  0  0
   14.7475    2.7821    0.0000 H   0  0  0  0  0  0  0  0  0  0  0  0
   14.3457    3.4719    0.0000 H   0  0  0  0  0  0  0  0  0  0  0  0
   13.2162    4.5998    0.0000 H   0  0  0  0  0  0  0  0  0  0  0  0
   12.3667    4.8169    0.0000 H   0  0  0  0  0  0  0  0  0  0  0  0
   12.1496    3.9674    0.0000 H   0  0  0  0  0  0  0  0  0  0  0  0
   14.2233    3.9914    0.0000 H   0  0  0  0  0  0  0  0  0  0  0  0
   13.9866    4.8356    0.0000 H   0  0  0  0  0  0  0  0  0  0  0  0
   13.1424    4.5989    0.0000 H   0  0  0  0  0  0  0  0  0  0  0  0
    5.1333   -1.9219    0.0000 H   0  0  0  0  0  0  0  0  0  0  0  0
   15.4642    0.9754    0.0000 H   0  0  0  0  0  0  0  0  0  0  0  0
    3.7296   -2.1064    0.0000 H   0  0  0  0  0  0  0  0  0  0  0  0
    2.8680   -0.9831    0.0000 H   0  0  0  0  0  0  0  0  0  0  0  0
    4.8136    0.5094    0.0000 H   0  0  0  0  0  0  0  0  0  0  0  0
    2.8694   -0.6031    0.0000 H   0  0  0  0  0  0  0  0  0  0  0  0
    4.7997   -3.1106    0.0000 H   0  0  0  0  0  0  0  0  0  0  0  0
    4.0695    1.7849    0.0000 H   0  0  0  0  0  0  0  0  0  0  0  0
    3.6684    1.0962    0.0000 H   0  0  0  0  0  0  0  0  0  0  0  0
    2.0000   -1.4798    0.0000 H   0  0  0  0  0  0  0  0  0  0  0  0
    2.5458    0.8281    0.0000 H   0  0  0  0  0  0  0  0  0  0  0  0
    5.1497    2.3181    0.0000 H   0  0  0  0  0  0  0  0  0  0  0  0
    2.7721   -4.2928    0.0000 H   0  0  0  0  0  0  0  0  0  0  0  0
    3.3897   -4.9152    0.0000 H   0  0  0  0  0  0  0  0  0  0  0  0
    4.0121   -4.2976    0.0000 H   0  0  0  0  0  0  0  0  0  0  0  0
 25  1  1  1  0  0  0
 40  1  1  1  0  0  0
  2 37  1  0  0  0  0
  2 95  1  0  0  0  0
  3 37  2  0  0  0  0
  4 40  1  0  0  0  0
  4 43  1  0  0  0  0
 42  5  1  1  0  0  0
  5103  1  0  0  0  0
 44  6  1  6  0  0  0
  6104  1  0  0  0  0
  7 45  1  0  0  0  0
  7105  1  0  0  0  0
  8 46  2  0  0  0  0
 41  9  1  6  0  0  0
  9 46  1  0  0  0  0
  9100  1  0  0  0  0
 10 11  1  0  0  0  0
 10 13  1  0  0  0  0
 10 15  1  0  0  0  0
 10 24  1  1  0  0  0
 11 12  1  0  0  0  0
 11 19  1  0  0  0  0
 11 48  1  6  0  0  0
 12 14  1  0  0  0  0
 12 20  1  0  0  0  0
 12 27  1  1  0  0  0
 13 18  1  0  0  0  0
 13 22  1  0  0  0  0
 13 30  1  6  0  0  0
 14 16  1  0  0  0  0
 14 17  1  0  0  0  0
 14 49  1  6  0  0  0
 15 17  1  0  0  0  0
 15 50  1  0  0  0  0
 15 51  1  0  0  0  0
 16 25  1  0  0  0  0
 16 34  1  0  0  0  0
 16 35  1  0  0  0  0
 17 52  1  0  0  0  0
 17 53  1  0  0  0  0
 18 21  1  0  0  0  0
 18 29  2  0  0  0  0
 19 29  1  0  0  0  0
 19 54  1  0  0  0  0
 19 55  1  0  0  0  0
 20 28  1  0  0  0  0
 20 56  1  0  0  0  0
 20 57  1  0  0  0  0
 21 23  1  0  0  0  0
 21 31  1  0  0  0  0
 21 58  1  1  0  0  0
 22 26  1  0  0  0  0
 22 59  1  0  0  0  0
 22 60  1  0  0  0  0
 23 26  1  0  0  0  0
 23 32  1  0  0  0  0
 23 37  1  1  0  0  0
 24 61  1  0  0  0  0
 24 62  1  0  0  0  0
 24 63  1  0  0  0  0
 25 28  1  0  0  0  0
 25 64  1  0  0  0  0
 26 65  1  0  0  0  0
 26 66  1  0  0  0  0
 27 67  1  0  0  0  0
 27 68  1  0  0  0  0
 27 69  1  0  0  0  0
 28 70  1  0  0  0  0
 28 71  1  0  0  0  0
 29 72  1  0  0  0  0
 30 73  1  0  0  0  0
 30 74  1  0  0  0  0
 30 75  1  0  0  0  0
 31 33  1  0  0  0  0
 31 76  1  0  0  0  0
 31 77  1  0  0  0  0
 32 36  1  0  0  0  0
 32 78  1  0  0  0  0
 32 79  1  0  0  0  0
 33 36  1  0  0  0  0
 33 38  1  0  0  0  0
 33 39  1  0  0  0  0
 34 83  1  0  0  0  0
 34 84  1  0  0  0  0
 34 85  1  0  0  0  0
 35 80  1  0  0  0  0
 35 81  1  0  0  0  0
 35 82  1  0  0  0  0
 36 86  1  0  0  0  0
 36 87  1  0  0  0  0
 38 91  1  0  0  0  0
 38 92  1  0  0  0  0
 38 93  1  0  0  0  0
 39 88  1  0  0  0  0
 39 89  1  0  0  0  0
 39 90  1  0  0  0  0
 40 41  1  0  0  0  0
 40 94  1  0  0  0  0
 41 42  1  0  0  0  0
 41 96  1  0  0  0  0
 42 44  1  0  0  0  0
 42 97  1  0  0  0  0
 43 44  1  0  0  0  0
 43 45  1  1  0  0  0
 43 98  1  0  0  0  0
 44 99  1  0  0  0  0
 45101  1  0  0  0  0
 45102  1  0  0  0  0
 46 47  1  0  0  0  0
 47106  1  0  0  0  0
 47107  1  0  0  0  0
 47108  1  0  0  0  0
M  END
> <PUBCHEM_COMPOUND_CID>
73146

> <PUBCHEM_COMPOUND_CANONICALIZED>
1

> <PUBCHEM_CACTVS_COMPLEXITY>
1300

> <PUBCHEM_CACTVS_HBOND_ACCEPTOR>
8

> <PUBCHEM_CACTVS_HBOND_DONOR>
5

> <PUBCHEM_CACTVS_ROTATABLE_BOND>
5

> <PUBCHEM_CACTVS_SUBSKEYS>
AAADcfB+PAAAAAAAAAAAAAAAAAAAAAAAAAA0YMGCAAAAAADAAAAAHgAQCAAADzzxgAcCCALABgCIAiHSGAAAAAAgAAAACIEIAAgTEBIAgQAnQAAHlgCfAAP4+P+PgAAAAAAAAADAAAYAADAAAAAAAAAAAA==

> <PUBCHEM_IUPAC_OPENEYE_NAME>
(4aS,6aR,6aS,6bR,8aR,10S,12aR,14bS)-10-[(2R,3R,4R,5S,6R)-3-acetamido-4,5-dihydroxy-6-(hydroxymethyl)tetrahydropyran-2-yl]oxy-2,2,6a,6b,9,9,12a-heptamethyl-1,3,4,5,6,6a,7,8,8a,10,11,12,13,14b-tetradecahydropicene-4a-carboxylic acid

> <PUBCHEM_IUPAC_CAS_NAME>
(4aS,6aR,6aS,6bR,8aR,10S,12aR,14bS)-10-[[(2R,3R,4R,5S,6R)-3-acetamido-4,5-dihydroxy-6-(hydroxymethyl)-2-oxanyl]oxy]-2,2,6a,6b,9,9,12a-heptamethyl-1,3,4,5,6,6a,7,8,8a,10,11,12,13,14b-tetradecahydropicene-4a-carboxylic acid

> <PUBCHEM_IUPAC_NAME>
(4aS,6aR,6aS,6bR,8aR,10S,12aR,14bS)-10-[(2R,3R,4R,5S,6R)-3-acetamido-4,5-dihydroxy-6-(hydroxymethyl)oxan-2-yl]oxy-2,2,6a,6b,9,9,12a-heptamethyl-1,3,4,5,6,6a,7,8,8a,10,11,12,13,14b-tetradecahydropicene-4a-carboxylic acid

> <PUBCHEM_IUPAC_SYSTEMATIC_NAME>
(4aS,6aR,6aS,6bR,8aR,10S,12aR,14bS)-10-[(2R,3R,4R,5S,6R)-3-acetamido-6-(hydroxymethyl)-4,5-bis(oxidanyl)oxan-2-yl]oxy-2,2,6a,6b,9,9,12a-heptamethyl-1,3,4,5,6,6a,7,8,8a,10,11,12,13,14b-tetradecahydropicene-4a-carboxylic acid

> <PUBCHEM_IUPAC_TRADITIONAL_NAME>
(4aS,6aR,6aS,6bR,8aR,10S,12aR,14bS)-10-[(2R,3R,4R,5S,6R)-3-acetamido-4,5-dihydroxy-6-methylol-tetrahydropyran-2-yl]oxy-2,2,6a,6b,9,9,12a-heptamethyl-1,3,4,5,6,6a,7,8,8a,10,11,12,13,14b-tetradecahydropicene-4a-carboxylic acid

> <PUBCHEM_IUPAC_INCHI>
InChI=1S/C38H61NO8/c1-21(41)39-28-30(43)29(42)24(20-40)46-31(28)47-27-12-13-35(6)25(34(27,4)5)11-14-37(8)26(35)10-9-22-23-19-33(2,3)15-17-38(23,32(44)45)18-16-36(22,37)7/h9,23-31,40,42-43H,10-20H2,1-8H3,(H,39,41)(H,44,45)/t23-,24+,25-,26+,27-,28+,29+,30+,31-,35-,36+,37+,38-/m0/s1

> <PUBCHEM_IUPAC_INCHIKEY>
VRFWJSCLROXBBW-FUHHSGJXSA-N

> <PUBCHEM_XLOGP3_AA>
5.9

> <PUBCHEM_EXACT_MASS>
659.439718

> <PUBCHEM_MOLECULAR_FORMULA>
C38H61NO8

> <PUBCHEM_MOLECULAR_WEIGHT>
659.89284

> <PUBCHEM_OPENEYE_CAN_SMILES>
CC(=O)NC1C(C(C(OC1OC2CCC3(C(C2(C)C)CCC4(C3CC=C5C4(CCC6(C5CC(CC6)(C)C)C(=O)O)C)C)C)CO)O)O

> <PUBCHEM_OPENEYE_ISO_SMILES>
CC(=O)N[C@@H]1[C@H]([C@@H]([C@H](O[C@H]1O[C@H]2CC[C@]3([C@H](C2(C)C)CC[C@@]4([C@@H]3CC=C5[C@]4(CC[C@@]6([C@H]5CC(CC6)(C)C)C(=O)O)C)C)C)CO)O)O

> <PUBCHEM_CACTVS_TPSA>
146

> <PUBCHEM_MONOISOTOPIC_WEIGHT>
659.439718

> <PUBCHEM_TOTAL_CHARGE>
0

> <PUBCHEM_HEAVY_ATOM_COUNT>
47

> <PUBCHEM_ATOM_DEF_STEREO_COUNT>
13

> <PUBCHEM_ATOM_UDEF_STEREO_COUNT>
0

> <PUBCHEM_BOND_DEF_STEREO_COUNT>
0

> <PUBCHEM_BOND_UDEF_STEREO_COUNT>
0

> <PUBCHEM_ISOTOPIC_ATOM_COUNT>
0

> <PUBCHEM_COMPONENT_COUNT>
1

> <PUBCHEM_CACTVS_TAUTO_COUNT>
2

> <PUBCHEM_COORDINATE_TYPE>
1
5
255

> <PUBCHEM_BONDANNOTATIONS>
25  1  5
40  1  5
10  24  5
11  48  6
12  27  5
13  30  6
14  49  6
21  58  5
23  37  5
43  45  5
42  5  5
44  6  6
41  9  6

$$$$

