441747
  -OEChem-07051212563D

 90 96  0     1  0  0  0  0  0999 V2000
    1.4018    1.2608    0.5757 O   0  0  0  0  0  0  0  0  0  0  0  0
   -1.7677    2.7151    0.7410 O   0  0  0  0  0  0  0  0  0  0  0  0
   -3.0462   -3.0463   -0.6428 O   0  0  0  0  0  0  0  0  0  0  0  0
    2.9224   -0.8022   -1.0821 O   0  0  0  0  0  0  0  0  0  0  0  0
    1.8582   -3.6633   -1.2529 O   0  0  0  0  0  0  0  0  0  0  0  0
    0.8219   -1.0218    2.6864 O   0  0  0  0  0  0  0  0  0  0  0  0
    2.6580   -2.9711    1.1518 O   0  0  0  0  0  0  0  0  0  0  0  0
   -6.3119    0.2980   -0.3261 O   0  0  0  0  0  0  0  0  0  0  0  0
   -4.5152    2.7122   -1.6998 O   0  0  0  0  0  0  0  0  0  0  0  0
    1.1410    1.2797    2.8710 O   0  0  0  0  0  0  0  0  0  0  0  0
    2.7130    1.0685   -2.4075 O   0  0  0  0  0  0  0  0  0  0  0  0
   -3.0853   -0.4963    1.7347 N   0  0  2  0  0  0  0  0  0  0  0  0
   -2.1245   -0.7265   -0.5610 C   0  0  1  0  0  0  0  0  0  0  0  0
   -2.5372    0.7929   -0.7259 C   0  0  2  0  0  0  0  0  0  0  0  0
   -0.7783   -1.1128   -1.3179 C   0  0  1  0  0  0  0  0  0  0  0  0
   -1.8405   -0.6918    0.9601 C   0  0  1  0  0  0  0  0  0  0  0  0
   -0.8256    0.4889    1.0155 C   0  0  1  0  0  0  0  0  0  0  0  0
    0.5043   -0.2985   -1.0070 C   0  0  1  0  0  0  0  0  0  0  0  0
    0.5817    0.0705    0.4974 C   0  0  1  0  0  0  0  0  0  0  0  0
   -1.4047    1.5467    0.0325 C   0  0  2  0  0  0  0  0  0  0  0  0
   -3.9566    1.0270   -0.1012 C   0  0  2  0  0  0  0  0  0  0  0  0
   -3.2516   -1.6971   -1.0531 C   0  0  2  0  0  0  0  0  0  0  0  0
   -0.2964   -2.5751   -1.1103 C   0  0  0  0  0  0  0  0  0  0  0  0
    1.2001   -2.5121   -0.7485 C   0  0  2  0  0  0  0  0  0  0  0  0
    1.6318   -1.2380   -1.4566 C   0  0  2  0  0  0  0  0  0  0  0  0
    1.3312   -0.9890    1.3513 C   0  0  2  0  0  0  0  0  0  0  0  0
   -3.8646    0.7147    1.4246 C   0  0  0  0  0  0  0  0  0  0  0  0
   -4.9856    0.1062   -0.8209 C   0  0  1  0  0  0  0  0  0  0  0  0
    1.3816   -2.4229    0.7846 C   0  0  2  0  0  0  0  0  0  0  0  0
   -4.6773   -1.3618   -0.6572 C   0  0  0  0  0  0  0  0  0  0  0  0
   -4.4605    2.4774   -0.3122 C   0  0  0  0  0  0  0  0  0  0  0  0
   -2.8746   -0.6369    3.1723 C   0  0  0  0  0  0  0  0  0  0  0  0
    1.5876    1.7424    1.8299 C   0  0  0  0  0  0  0  0  0  0  0  0
   -0.6528    3.2972    1.4085 C   0  0  0  0  0  0  0  0  0  0  0  0
   -3.9594   -3.9259   -1.2812 C   0  0  0  0  0  0  0  0  0  0  0  0
    3.3491    0.3737   -1.6303 C   0  0  0  0  0  0  0  0  0  0  0  0
    2.8108   -2.9988    2.5588 C   0  0  0  0  0  0  0  0  0  0  0  0
    2.4496    2.9661    1.7572 C   0  0  0  0  0  0  0  0  0  0  0  0
   -4.9706    4.0294   -2.0016 C   0  0  0  0  0  0  0  0  0  0  0  0
    4.7146    0.7185   -1.1602 C   0  0  0  0  0  0  0  0  0  0  0  0
    5.3040    1.8793   -1.6174 C   0  0  0  0  0  0  0  0  0  0  0  0
    5.3515   -0.1323   -0.2800 C   0  0  0  0  0  0  0  0  0  0  0  0
    6.5867    2.2035   -1.1756 C   0  0  0  0  0  0  0  0  0  0  0  0
    6.6342    0.1920    0.1619 C   0  0  0  0  0  0  0  0  0  0  0  0
    7.2518    1.3599   -0.2859 C   0  0  0  0  0  0  0  0  0  0  0  0
   -2.5342    1.0680   -1.7874 H   0  0  0  0  0  0  0  0  0  0  0  0
   -0.9765   -0.9907   -2.3933 H   0  0  0  0  0  0  0  0  0  0  0  0
   -1.3890   -1.6321    1.2874 H   0  0  0  0  0  0  0  0  0  0  0  0
   -0.8341    0.8595    2.0343 H   0  0  0  0  0  0  0  0  0  0  0  0
    0.5241    0.5993   -1.6305 H   0  0  0  0  0  0  0  0  0  0  0  0
   -0.6910    1.8907   -0.7200 H   0  0  0  0  0  0  0  0  0  0  0  0
   -3.2083   -1.6649   -2.1521 H   0  0  0  0  0  0  0  0  0  0  0  0
   -0.4484   -3.1415   -2.0385 H   0  0  0  0  0  0  0  0  0  0  0  0
   -0.8283   -3.1209   -0.3306 H   0  0  0  0  0  0  0  0  0  0  0  0
    1.6212   -1.3946   -2.5446 H   0  0  0  0  0  0  0  0  0  0  0  0
    2.3717   -0.6519    1.4535 H   0  0  0  0  0  0  0  0  0  0  0  0
   -4.8777    0.5930    1.8290 H   0  0  0  0  0  0  0  0  0  0  0  0
   -3.4454    1.5718    1.9639 H   0  0  0  0  0  0  0  0  0  0  0  0
   -5.0069    0.3370   -1.8936 H   0  0  0  0  0  0  0  0  0  0  0  0
    0.6281   -3.0573    1.2693 H   0  0  0  0  0  0  0  0  0  0  0  0
   -4.9119   -1.7082    0.3578 H   0  0  0  0  0  0  0  0  0  0  0  0
   -5.3954   -1.9058   -1.2856 H   0  0  0  0  0  0  0  0  0  0  0  0
   -3.8364    3.2326    0.1659 H   0  0  0  0  0  0  0  0  0  0  0  0
   -5.4626    2.5974    0.1191 H   0  0  0  0  0  0  0  0  0  0  0  0
   -2.2737    0.1757    3.5932 H   0  0  0  0  0  0  0  0  0  0  0  0
   -2.3796   -1.5867    3.4027 H   0  0  0  0  0  0  0  0  0  0  0  0
   -3.8360   -0.6535    3.6981 H   0  0  0  0  0  0  0  0  0  0  0  0
    1.4893   -4.4388   -0.7966 H   0  0  0  0  0  0  0  0  0  0  0  0
    0.5698   -0.1537    3.0147 H   0  0  0  0  0  0  0  0  0  0  0  0
   -6.9121   -0.2434   -0.8667 H   0  0  0  0  0  0  0  0  0  0  0  0
    0.1834    3.4182    0.7258 H   0  0  0  0  0  0  0  0  0  0  0  0
   -0.4898    2.8538    2.3853 H   0  0  0  0  0  0  0  0  0  0  0  0
   -0.9598    4.3242    1.6433 H   0  0  0  0  0  0  0  0  0  0  0  0
   -3.5395   -4.9347   -1.2163 H   0  0  0  0  0  0  0  0  0  0  0  0
   -4.0935   -3.6939   -2.3429 H   0  0  0  0  0  0  0  0  0  0  0  0
   -4.9185   -3.9527   -0.7560 H   0  0  0  0  0  0  0  0  0  0  0  0
    3.1226   -2.0304    2.9589 H   0  0  0  0  0  0  0  0  0  0  0  0
    1.9190   -3.3764    3.0697 H   0  0  0  0  0  0  0  0  0  0  0  0
    3.6255   -3.6959    2.7810 H   0  0  0  0  0  0  0  0  0  0  0  0
    2.0732    3.7221    2.4513 H   0  0  0  0  0  0  0  0  0  0  0  0
    3.4739    2.6942    2.0250 H   0  0  0  0  0  0  0  0  0  0  0  0
    2.4530    3.3966    0.7515 H   0  0  0  0  0  0  0  0  0  0  0  0
   -4.2843    4.7744   -1.5876 H   0  0  0  0  0  0  0  0  0  0  0  0
   -4.9961    4.1420   -3.0886 H   0  0  0  0  0  0  0  0  0  0  0  0
   -5.9800    4.1837   -1.6086 H   0  0  0  0  0  0  0  0  0  0  0  0
    4.8001    2.5475   -2.3093 H   0  0  0  0  0  0  0  0  0  0  0  0
    4.9070   -1.0490    0.0939 H   0  0  0  0  0  0  0  0  0  0  0  0
    7.0676    3.1129   -1.5238 H   0  0  0  0  0  0  0  0  0  0  0  0
    7.1524   -0.4642    0.8552 H   0  0  0  0  0  0  0  0  0  0  0  0
    8.2503    1.6125    0.0584 H   0  0  0  0  0  0  0  0  0  0  0  0
  1 19  1  0  0  0  0
  1 33  1  0  0  0  0
  2 20  1  0  0  0  0
  2 34  1  0  0  0  0
  3 22  1  0  0  0  0
  3 35  1  0  0  0  0
  4 25  1  0  0  0  0
  4 36  1  0  0  0  0
  5 24  1  0  0  0  0
  5 68  1  0  0  0  0
  6 26  1  0  0  0  0
  6 69  1  0  0  0  0
  7 29  1  0  0  0  0
  7 37  1  0  0  0  0
  8 28  1  0  0  0  0
  8 70  1  0  0  0  0
  9 31  1  0  0  0  0
  9 39  1  0  0  0  0
 10 33  2  0  0  0  0
 11 36  2  0  0  0  0
 12 16  1  0  0  0  0
 12 27  1  0  0  0  0
 12 32  1  0  0  0  0
 13 14  1  0  0  0  0
 13 15  1  0  0  0  0
 13 16  1  0  0  0  0
 13 22  1  0  0  0  0
 14 20  1  0  0  0  0
 14 21  1  0  0  0  0
 14 46  1  0  0  0  0
 15 18  1  0  0  0  0
 15 23  1  0  0  0  0
 15 47  1  0  0  0  0
 16 17  1  0  0  0  0
 16 48  1  0  0  0  0
 17 19  1  0  0  0  0
 17 20  1  0  0  0  0
 17 49  1  0  0  0  0
 18 19  1  0  0  0  0
 18 25  1  0  0  0  0
 18 50  1  0  0  0  0
 19 26  1  0  0  0  0
 20 51  1  0  0  0  0
 21 27  1  0  0  0  0
 21 28  1  0  0  0  0
 21 31  1  0  0  0  0
 22 30  1  0  0  0  0
 22 52  1  0  0  0  0
 23 24  1  0  0  0  0
 23 53  1  0  0  0  0
 23 54  1  0  0  0  0
 24 25  1  0  0  0  0
 24 29  1  0  0  0  0
 25 55  1  0  0  0  0
 26 29  1  0  0  0  0
 26 56  1  0  0  0  0
 27 57  1  0  0  0  0
 27 58  1  0  0  0  0
 28 30  1  0  0  0  0
 28 59  1  0  0  0  0
 29 60  1  0  0  0  0
 30 61  1  0  0  0  0
 30 62  1  0  0  0  0
 31 63  1  0  0  0  0
 31 64  1  0  0  0  0
 32 65  1  0  0  0  0
 32 66  1  0  0  0  0
 32 67  1  0  0  0  0
 33 38  1  0  0  0  0
 34 71  1  0  0  0  0
 34 72  1  0  0  0  0
 34 73  1  0  0  0  0
 35 74  1  0  0  0  0
 35 75  1  0  0  0  0
 35 76  1  0  0  0  0
 36 40  1  0  0  0  0
 37 77  1  0  0  0  0
 37 78  1  0  0  0  0
 37 79  1  0  0  0  0
 38 80  1  0  0  0  0
 38 81  1  0  0  0  0
 38 82  1  0  0  0  0
 39 83  1  0  0  0  0
 39 84  1  0  0  0  0
 39 85  1  0  0  0  0
 40 41  2  0  0  0  0
 40 42  1  0  0  0  0
 41 43  1  0  0  0  0
 41 86  1  0  0  0  0
 42 44  2  0  0  0  0
 42 87  1  0  0  0  0
 43 45  2  0  0  0  0
 43 88  1  0  0  0  0
 44 45  1  0  0  0  0
 44 89  1  0  0  0  0
 45 90  1  0  0  0  0
M  END
> <PUBCHEM_COMPOUND_CID>
441747

> <PUBCHEM_CONFORMER_RMSD>
1.2

> <PUBCHEM_CONFORMER_DIVERSEORDER>
1
2
3

> <PUBCHEM_MMFF94_PARTIAL_CHARGES>
45
1 -0.43
10 -0.57
11 -0.57
12 -0.81
16 0.27
19 0.28
2 -0.56
20 0.28
22 0.28
24 0.28
25 0.28
26 0.28
27 0.27
28 0.28
29 0.28
3 -0.56
31 0.28
32 0.27
33 0.66
34 0.28
35 0.28
36 0.63
37 0.28
38 0.06
39 0.28
4 -0.43
40 0.09
41 -0.15
42 -0.15
43 -0.15
44 -0.15
45 -0.15
5 -0.68
6 -0.68
68 0.4
69 0.4
7 -0.56
70 0.4
8 -0.68
86 0.15
87 0.15
88 0.15
89 0.15
9 -0.56
90 0.15

> <PUBCHEM_EFFECTIVE_ROTOR_COUNT>
12

> <PUBCHEM_PHARMACOPHORE_FEATURES>
18
1 10 acceptor
1 11 acceptor
1 12 cation
1 2 acceptor
1 3 acceptor
1 5 acceptor
1 5 donor
1 6 acceptor
1 6 donor
1 7 acceptor
1 8 acceptor
1 8 donor
1 9 acceptor
6 13 14 21 22 28 30 rings
6 40 41 42 43 44 45 rings
8 12 13 14 16 17 20 21 27 rings
8 13 14 15 16 17 18 19 20 rings
8 15 18 19 23 24 25 26 29 rings

> <PUBCHEM_HEAVY_ATOM_COUNT>
45

> <PUBCHEM_ATOM_DEF_STEREO_COUNT>
14

> <PUBCHEM_ATOM_UDEF_STEREO_COUNT>
1

> <PUBCHEM_BOND_DEF_STEREO_COUNT>
0

> <PUBCHEM_BOND_UDEF_STEREO_COUNT>
0

> <PUBCHEM_ISOTOPIC_ATOM_COUNT>
0

> <PUBCHEM_COMPONENT_COUNT>
1

> <PUBCHEM_CACTVS_TAUTO_COUNT>
1

> <PUBCHEM_CONFORMER_ID>
0006BD9300000001

> <PUBCHEM_MMFF94_ENERGY>
260.5645

> <PUBCHEM_FEATURE_SELFOVERLAP>
92.877

> <PUBCHEM_SHAPE_FINGERPRINT>
10032420 55 18340781329511975827
10190108 129 18123179114053866851
10675989 125 17689994961503306893
11007060 377 18193835934535330864
11513181 2 12966312443783550496
11578080 2 17844542195285409621
12422481 6 18059858411123737364
12608794 3 17318983089293861506
12788726 201 17969224610768052905
13690498 29 18189622640158486783
13726171 33 18334848463627026329
13811026 1 17822008693392375116
13911987 19 18189034453066774548
14068700 675 17679297469448017735
15324884 4 17461471064631837745
17492 54 18113609067713026244
1813 80 7420961884723845906
18608769 82 18338510834349560511
19319366 153 18343020020880356162
20511986 3 18270971240167242164
20764821 26 17609494178915265681
22393880 68 18187936040612606813
23559900 14 17313108514661484291
3493558 16 17916015948981687468
350125 39 17969497117662989223
4093350 32 16414935126488644315
469060 322 18116974625260594274
6086070 43 18187947087005157157
6669772 16 18042137457881338144
6823239 73 17968948487230558355

> <PUBCHEM_SHAPE_MULTIPOLES>
856.54
12.86
4.23
2.48
11.31
0.46
-1.47
-6.89
5.54
-2.4
0.67
0.16
-0.11
-0.45

> <PUBCHEM_SHAPE_SELFOVERLAP>
1891.956

> <PUBCHEM_SHAPE_VOLUME>
449.9

> <PUBCHEM_COORDINATE_TYPE>
2
5
10

$$$$

