8481
  -OEChem-06261202523D

 22 22  0     0  0  0  0  0  0999 V2000
    3.7089    0.3034   -1.8026 Cl  0  0  0  0  0  0  0  0  0  0  0  0
    3.2106    0.1752    0.1787 S   0  0  0  0  0  0  0  0  0  0  0  0
    3.8499   -1.0279    0.6781 O   0  0  0  0  0  0  0  0  0  0  0  0
    3.5034    1.4871    0.7260 O   0  0  0  0  0  0  0  0  0  0  0  0
   -3.5408    1.4993    0.0031 O   0  0  0  0  0  0  0  0  0  0  0  0
   -2.6539   -0.6847   -0.0359 N   0  0  0  0  0  0  0  0  0  0  0  0
    1.4844   -0.0782    0.1156 C   0  0  0  0  0  0  0  0  0  0  0  0
   -1.2741   -0.4826    0.0148 C   0  0  0  0  0  0  0  0  0  0  0  0
    0.6182    1.0152    0.1234 C   0  0  0  0  0  0  0  0  0  0  0  0
    0.9712   -1.3740    0.0574 C   0  0  0  0  0  0  0  0  0  0  0  0
   -0.7610    0.8131    0.0731 C   0  0  0  0  0  0  0  0  0  0  0  0
   -0.4081   -1.5762    0.0070 C   0  0  0  0  0  0  0  0  0  0  0  0
   -3.6699    0.2800   -0.0372 C   0  0  0  0  0  0  0  0  0  0  0  0
   -5.0388   -0.3498   -0.1014 C   0  0  0  0  0  0  0  0  0  0  0  0
    0.9981    2.0324    0.1630 H   0  0  0  0  0  0  0  0  0  0  0  0
    1.6272   -2.2399    0.0441 H   0  0  0  0  0  0  0  0  0  0  0  0
   -1.3673    1.7080    0.0815 H   0  0  0  0  0  0  0  0  0  0  0  0
   -0.7943   -2.5913   -0.0397 H   0  0  0  0  0  0  0  0  0  0  0  0
   -2.9489   -1.6581   -0.0765 H   0  0  0  0  0  0  0  0  0  0  0  0
   -5.1417   -0.9155   -1.0316 H   0  0  0  0  0  0  0  0  0  0  0  0
   -5.8066    0.4283   -0.0713 H   0  0  0  0  0  0  0  0  0  0  0  0
   -5.1797   -1.0196    0.7516 H   0  0  0  0  0  0  0  0  0  0  0  0
  1  2  1  0  0  0  0
  2  3  2  0  0  0  0
  2  4  2  0  0  0  0
  2  7  1  0  0  0  0
  5 13  2  0  0  0  0
  6  8  1  0  0  0  0
  6 13  1  0  0  0  0
  6 19  1  0  0  0  0
  7  9  2  0  0  0  0
  7 10  1  0  0  0  0
  8 11  2  0  0  0  0
  8 12  1  0  0  0  0
  9 11  1  0  0  0  0
  9 15  1  0  0  0  0
 10 12  2  0  0  0  0
 10 16  1  0  0  0  0
 11 17  1  0  0  0  0
 12 18  1  0  0  0  0
 13 14  1  0  0  0  0
 14 20  1  0  0  0  0
 14 21  1  0  0  0  0
 14 22  1  0  0  0  0
M  END
> <PUBCHEM_COMPOUND_CID>
8481

> <PUBCHEM_CONFORMER_RMSD>
0.6

> <PUBCHEM_CONFORMER_DIVERSEORDER>
2
3
1
4

> <PUBCHEM_MMFF94_PARTIAL_CHARGES>
19
1 -0.19
10 -0.15
11 -0.15
12 -0.15
13 0.57
14 0.06
15 0.15
16 0.15
17 0.15
18 0.15
19 0.37
2 1.49
3 -0.65
4 -0.65
5 -0.57
6 -0.55
7 -0.01
8 0.12
9 -0.15

> <PUBCHEM_EFFECTIVE_ROTOR_COUNT>
3

> <PUBCHEM_PHARMACOPHORE_FEATURES>
3
1 5 acceptor
1 6 donor
6 7 8 9 10 11 12 rings

> <PUBCHEM_HEAVY_ATOM_COUNT>
14

> <PUBCHEM_ATOM_DEF_STEREO_COUNT>
0

> <PUBCHEM_ATOM_UDEF_STEREO_COUNT>
0

> <PUBCHEM_BOND_DEF_STEREO_COUNT>
0

> <PUBCHEM_BOND_UDEF_STEREO_COUNT>
0

> <PUBCHEM_ISOTOPIC_ATOM_COUNT>
0

> <PUBCHEM_COMPONENT_COUNT>
1

> <PUBCHEM_CACTVS_TAUTO_COUNT>
2

> <PUBCHEM_CONFORMER_ID>
0000212100000002

> <PUBCHEM_MMFF94_ENERGY>
27.791

> <PUBCHEM_FEATURE_SELFOVERLAP>
15.223

> <PUBCHEM_SHAPE_FINGERPRINT>
11471102 20 18410299107249788398
13081056 2 18334295361954044881
13380535 76 18411419518521294859
13705890 14 16081085965740255790
13760787 19 17560795494391996442
14325111 11 18409732850176856513
14911166 2 18335129882694672358
14993402 34 18271517632942739428
16945 1 18187354446153529402
18186145 218 18113893862251239192
19026448 4 16081088194717486315
19026448 5 16558750070427783643
200 152 15430026691171894230
20645476 183 17987784208241910974
20645477 70 16732972142231013950
212847 35 18343020003979405388
23402539 116 18041292027063435404
23402655 69 18335431214006935933
23463225 33 18271248317292776170
23559900 14 18187640276928600908
2748010 2 18048315544127688354
4047638 21 18333449820395492160
4990 188 17894343397554449486
5104073 3 18411983593903412945
537710 114 18341890788131009004
633830 44 18040431100958902405
69090 78 17894636920141454071
7364860 26 18191871343042398418

> <PUBCHEM_SHAPE_MULTIPOLES>
271.24
8.62
1.43
0.92
4.91
0.07
-0.37
-1.17
-0.87
-0.13
0.15
-1.17
-0.1
-0.11

> <PUBCHEM_SHAPE_SELFOVERLAP>
538.218

> <PUBCHEM_SHAPE_VOLUME>
161.8

> <PUBCHEM_COORDINATE_TYPE>
2
5
10

$$$$

