6441391
  -OEChem-07051213103D

 41 41  0     1  0  0  0  0  0999 V2000
   -0.6698   -2.0333    1.0385 O   0  0  0  0  0  0  0  0  0  0  0  0
    2.2817    1.6497   -1.1326 O   0  0  0  0  0  0  0  0  0  0  0  0
    1.4530   -0.2747    0.0814 C   0  0  2  0  0  0  0  0  0  0  0  0
    2.8057   -0.9562   -0.1269 C   0  0  0  0  0  0  0  0  0  0  0  0
    0.3720   -0.9078   -0.8144 C   0  0  0  0  0  0  0  0  0  0  0  0
   -2.2212   -1.1349   -0.5773 C   0  0  2  0  0  0  0  0  0  0  0  0
   -0.8240   -1.3992   -0.0075 C   0  0  0  0  0  0  0  0  0  0  0  0
    1.5839    1.2252   -0.2098 C   0  0  0  0  0  0  0  0  0  0  0  0
   -3.1441   -0.4807    0.4735 C   0  0  0  0  0  0  0  0  0  0  0  0
    0.7727    2.1834    0.6522 C   0  0  0  0  0  0  0  0  0  0  0  0
   -2.9564    1.0412    0.6201 C   0  0  0  0  0  0  0  0  0  0  0  0
    3.8625   -0.3366    0.7836 C   0  0  0  0  0  0  0  0  0  0  0  0
    2.6925   -2.4577    0.1233 C   0  0  0  0  0  0  0  0  0  0  0  0
   -0.6718    2.1182    0.2293 C   0  0  0  0  0  0  0  0  0  0  0  0
   -2.7917   -2.4724   -1.0471 C   0  0  0  0  0  0  0  0  0  0  0  0
   -1.5460    1.4109    0.9711 C   0  0  0  0  0  0  0  0  0  0  0  0
   -0.9989    2.8249   -1.0573 C   0  0  0  0  0  0  0  0  0  0  0  0
    1.1879   -0.3669    1.1426 H   0  0  0  0  0  0  0  0  0  0  0  0
    3.1408   -0.8167   -1.1634 H   0  0  0  0  0  0  0  0  0  0  0  0
    0.7144   -1.7430   -1.4292 H   0  0  0  0  0  0  0  0  0  0  0  0
    0.0104   -0.1627   -1.5320 H   0  0  0  0  0  0  0  0  0  0  0  0
   -2.1436   -0.4751   -1.4486 H   0  0  0  0  0  0  0  0  0  0  0  0
   -3.0063   -0.9573    1.4526 H   0  0  0  0  0  0  0  0  0  0  0  0
   -4.1916   -0.6512    0.1933 H   0  0  0  0  0  0  0  0  0  0  0  0
    1.1680    3.1987    0.5352 H   0  0  0  0  0  0  0  0  0  0  0  0
    0.9216    1.9155    1.7043 H   0  0  0  0  0  0  0  0  0  0  0  0
   -3.6182    1.4050    1.4150 H   0  0  0  0  0  0  0  0  0  0  0  0
   -3.2946    1.5201   -0.3026 H   0  0  0  0  0  0  0  0  0  0  0  0
    4.8198   -0.8575    0.6701 H   0  0  0  0  0  0  0  0  0  0  0  0
    4.0482    0.7166    0.5546 H   0  0  0  0  0  0  0  0  0  0  0  0
    3.5708   -0.4084    1.8373 H   0  0  0  0  0  0  0  0  0  0  0  0
    2.2352   -2.6666    1.0967 H   0  0  0  0  0  0  0  0  0  0  0  0
    3.6875   -2.9181    0.1262 H   0  0  0  0  0  0  0  0  0  0  0  0
    2.1207   -2.9833   -0.6449 H   0  0  0  0  0  0  0  0  0  0  0  0
   -2.1196   -2.9511   -1.7678 H   0  0  0  0  0  0  0  0  0  0  0  0
   -2.9265   -3.1662   -0.2097 H   0  0  0  0  0  0  0  0  0  0  0  0
   -3.7630   -2.3326   -1.5327 H   0  0  0  0  0  0  0  0  0  0  0  0
   -1.1856    0.9630    1.8969 H   0  0  0  0  0  0  0  0  0  0  0  0
   -0.6133    3.8499   -1.0294 H   0  0  0  0  0  0  0  0  0  0  0  0
   -2.0707    2.9030   -1.2498 H   0  0  0  0  0  0  0  0  0  0  0  0
   -0.5407    2.3096   -1.9070 H   0  0  0  0  0  0  0  0  0  0  0  0
  1  7  2  0  0  0  0
  2  8  2  0  0  0  0
  3  4  1  0  0  0  0
  3  5  1  0  0  0  0
  3  8  1  0  0  0  0
  3 18  1  0  0  0  0
  4 12  1  0  0  0  0
  4 13  1  0  0  0  0
  4 19  1  0  0  0  0
  5  7  1  0  0  0  0
  5 20  1  0  0  0  0
  5 21  1  0  0  0  0
  6  7  1  0  0  0  0
  6  9  1  0  0  0  0
  6 15  1  0  0  0  0
  6 22  1  0  0  0  0
  8 10  1  0  0  0  0
  9 11  1  0  0  0  0
  9 23  1  0  0  0  0
  9 24  1  0  0  0  0
 10 14  1  0  0  0  0
 10 25  1  0  0  0  0
 10 26  1  0  0  0  0
 11 16  1  0  0  0  0
 11 27  1  0  0  0  0
 11 28  1  0  0  0  0
 12 29  1  0  0  0  0
 12 30  1  0  0  0  0
 12 31  1  0  0  0  0
 13 32  1  0  0  0  0
 13 33  1  0  0  0  0
 13 34  1  0  0  0  0
 14 16  2  0  0  0  0
 14 17  1  0  0  0  0
 15 35  1  0  0  0  0
 15 36  1  0  0  0  0
 15 37  1  0  0  0  0
 16 38  1  0  0  0  0
 17 39  1  0  0  0  0
 17 40  1  0  0  0  0
 17 41  1  0  0  0  0
M  END
> <PUBCHEM_COMPOUND_CID>
6441391

> <PUBCHEM_CONFORMER_RMSD>
0.6

> <PUBCHEM_CONFORMER_DIVERSEORDER>
1

> <PUBCHEM_MMFF94_PARTIAL_CHARGES>
13
1 -0.57
10 0.2
11 0.14
14 -0.28
16 -0.29
17 0.14
2 -0.57
3 0.06
38 0.15
5 0.06
6 0.06
7 0.45
8 0.45

> <PUBCHEM_EFFECTIVE_ROTOR_COUNT>
2.2

> <PUBCHEM_PHARMACOPHORE_FEATURES>
3
1 1 acceptor
1 2 acceptor
3 4 12 13 hydrophobe

> <PUBCHEM_HEAVY_ATOM_COUNT>
17

> <PUBCHEM_ATOM_DEF_STEREO_COUNT>
2

> <PUBCHEM_ATOM_UDEF_STEREO_COUNT>
0

> <PUBCHEM_BOND_DEF_STEREO_COUNT>
1

> <PUBCHEM_BOND_UDEF_STEREO_COUNT>
0

> <PUBCHEM_ISOTOPIC_ATOM_COUNT>
0

> <PUBCHEM_COMPONENT_COUNT>
1

> <PUBCHEM_CACTVS_TAUTO_COUNT>
24

> <PUBCHEM_CONFORMER_ID>
006249AF00000001

> <PUBCHEM_MMFF94_ENERGY>
32.2067

> <PUBCHEM_FEATURE_SELFOVERLAP>
15.223

> <PUBCHEM_SHAPE_FINGERPRINT>
10967382 1 18409445903417247835
11086676 242 18338219535874906113
11132069 177 18334295404676767200
11321824 6 17979652451912293339
13140716 1 18410289190228389603
14081887 123 18116169903313816408
1420 336 18409163303364905475
14251711 518 17972874765717179175
14817 1 12493666999416962541
15442244 35 18337672048204975530
16945 1 18040704879617858585
19930374 2 17480307103095905156
20559304 39 18263643970115401270
21160774 45 18265618864787120437
21249577 28 18409725149522099236
21501502 16 18337387141148111452
232386 152 18335696139783675348
2334 1 18265892467146533251
23388829 49 18408890611685894878
23402539 116 18187377540514778015
23419403 2 17244465982053849137
23463225 33 18410566314397993257
23557571 272 17749389247768383034
23559900 14 18116156756809475314
257057 1 18335997375746594311
2748010 2 18337107839498647141
2897 32 18048592621364076789
6992083 37 18260820510434206435
7471813 234 17898877667475222334
81228 2 18411695525946186898

> <PUBCHEM_SHAPE_MULTIPOLES>
338.11
5.19
3.3
1.07
1.88
0.37
-0.08
-2.05
0.59
-0.89
-0.56
-0.19
0.15
-0.63

> <PUBCHEM_SHAPE_SELFOVERLAP>
669.136

> <PUBCHEM_SHAPE_VOLUME>
200.6

> <PUBCHEM_COORDINATE_TYPE>
2
5
10

$$$$

