5321977
  -OEChem-07051213103D

 32 33  0     0  0  0  0  0  0999 V2000
    1.3133    2.1524   -0.0403 O   0  0  0  0  0  0  0  0  0  0  0  0
   -4.3029   -0.9344    0.0292 O   0  0  0  0  0  0  0  0  0  0  0  0
   -1.2282    2.6620   -0.0207 O   0  0  0  0  0  0  0  0  0  0  0  0
    4.0188    0.5600   -1.1180 O   0  0  0  0  0  0  0  0  0  0  0  0
   -0.3503    0.3933   -0.0129 C   0  0  0  0  0  0  0  0  0  0  0  0
   -0.6303   -0.9939   -0.0014 C   0  0  0  0  0  0  0  0  0  0  0  0
    2.0321   -0.0996   -0.0310 C   0  0  0  0  0  0  0  0  0  0  0  0
    1.7566   -1.4638   -0.0195 C   0  0  0  0  0  0  0  0  0  0  0  0
    0.9864    0.8241   -0.0278 C   0  0  0  0  0  0  0  0  0  0  0  0
    0.4346   -1.9094   -0.0050 C   0  0  0  0  0  0  0  0  0  0  0  0
   -1.4151    1.3089   -0.0097 C   0  0  0  0  0  0  0  0  0  0  0  0
   -1.9670   -1.4246    0.0130 C   0  0  0  0  0  0  0  0  0  0  0  0
   -3.0127   -0.5009    0.0163 C   0  0  0  0  0  0  0  0  0  0  0  0
   -2.7372    0.8633    0.0048 C   0  0  0  0  0  0  0  0  0  0  0  0
    2.8556   -2.4767   -0.0231 C   0  0  0  0  0  0  0  0  0  0  0  0
    3.4164    0.3628   -0.0471 C   0  0  0  0  0  0  0  0  0  0  0  0
    4.1528    0.6133    1.2614 C   0  0  0  0  0  0  0  0  0  0  0  0
   -5.3229    0.0632    0.0319 C   0  0  0  0  0  0  0  0  0  0  0  0
    0.2240   -2.9775    0.0040 H   0  0  0  0  0  0  0  0  0  0  0  0
   -2.1997   -2.4880    0.0217 H   0  0  0  0  0  0  0  0  0  0  0  0
   -3.5078    1.6275    0.0062 H   0  0  0  0  0  0  0  0  0  0  0  0
    3.4633   -2.3866    0.8832 H   0  0  0  0  0  0  0  0  0  0  0  0
    2.4669   -3.5005   -0.0532 H   0  0  0  0  0  0  0  0  0  0  0  0
    3.4945   -2.3496   -0.9034 H   0  0  0  0  0  0  0  0  0  0  0  0
    3.5030    0.3968    2.1140 H   0  0  0  0  0  0  0  0  0  0  0  0
    4.4556    1.6624    1.3080 H   0  0  0  0  0  0  0  0  0  0  0  0
    5.0280   -0.0392    1.3119 H   0  0  0  0  0  0  0  0  0  0  0  0
    2.2695    2.2900   -0.1235 H   0  0  0  0  0  0  0  0  0  0  0  0
   -0.2849    2.8815   -0.0276 H   0  0  0  0  0  0  0  0  0  0  0  0
   -6.2853   -0.4591    0.0433 H   0  0  0  0  0  0  0  0  0  0  0  0
   -5.2985    0.6667   -0.8819 H   0  0  0  0  0  0  0  0  0  0  0  0
   -5.2829    0.6779    0.9376 H   0  0  0  0  0  0  0  0  0  0  0  0
  1  9  1  0  0  0  0
  1 28  1  0  0  0  0
  2 13  1  0  0  0  0
  2 18  1  0  0  0  0
  3 11  1  0  0  0  0
  3 29  1  0  0  0  0
  4 16  2  0  0  0  0
  5  6  1  0  0  0  0
  5  9  1  0  0  0  0
  5 11  2  0  0  0  0
  6 10  1  0  0  0  0
  6 12  2  0  0  0  0
  7  8  1  0  0  0  0
  7  9  2  0  0  0  0
  7 16  1  0  0  0  0
  8 10  2  0  0  0  0
  8 15  1  0  0  0  0
 10 19  1  0  0  0  0
 11 14  1  0  0  0  0
 12 13  1  0  0  0  0
 12 20  1  0  0  0  0
 13 14  2  0  0  0  0
 14 21  1  0  0  0  0
 15 22  1  0  0  0  0
 15 23  1  0  0  0  0
 15 24  1  0  0  0  0
 16 17  1  0  0  0  0
 17 25  1  0  0  0  0
 17 26  1  0  0  0  0
 17 27  1  0  0  0  0
 18 30  1  0  0  0  0
 18 31  1  0  0  0  0
 18 32  1  0  0  0  0
M  END
> <PUBCHEM_COMPOUND_CID>
5321977

> <PUBCHEM_CONFORMER_RMSD>
0.6

> <PUBCHEM_CONFORMER_DIVERSEORDER>
2
3
1

> <PUBCHEM_MMFF94_PARTIAL_CHARGES>
21
1 -0.53
10 -0.15
11 0.08
12 -0.15
13 0.08
14 -0.15
15 0.14
16 0.42
17 0.06
18 0.28
19 0.15
2 -0.36
20 0.15
21 0.15
28 0.45
29 0.45
3 -0.53
4 -0.57
7 0.09
8 -0.14
9 0.08

> <PUBCHEM_EFFECTIVE_ROTOR_COUNT>
2

> <PUBCHEM_PHARMACOPHORE_FEATURES>
6
1 1 donor
1 2 acceptor
1 3 donor
1 4 acceptor
6 5 6 11 12 13 14 rings
6 5 6 7 8 9 10 rings

> <PUBCHEM_HEAVY_ATOM_COUNT>
18

> <PUBCHEM_ATOM_DEF_STEREO_COUNT>
0

> <PUBCHEM_ATOM_UDEF_STEREO_COUNT>
0

> <PUBCHEM_BOND_DEF_STEREO_COUNT>
0

> <PUBCHEM_BOND_UDEF_STEREO_COUNT>
0

> <PUBCHEM_ISOTOPIC_ATOM_COUNT>
0

> <PUBCHEM_COMPONENT_COUNT>
1

> <PUBCHEM_CACTVS_TAUTO_COUNT>
100

> <PUBCHEM_CONFORMER_ID>
005134F900000002

> <PUBCHEM_MMFF94_ENERGY>
71.1557

> <PUBCHEM_FEATURE_SELFOVERLAP>
30.484

> <PUBCHEM_SHAPE_FINGERPRINT>
10608611 8 18337677536967107168
10967382 1 18410855438669324982
10980938 120 18410572911647387274
11132069 177 18334860476301795674
11471102 20 18411421726266061535
12236239 1 17703793592124145160
13140716 1 18122631552439882272
13221675 6 18410011022413588631
13380535 76 18412826863150114570
13862211 1 18410862023218349003
14178342 30 18266186208787731744
14576447 43 18116727226950387215
14790565 3 18267010670340898764
15196674 1 18338797926689261423
15442244 35 18194964282088332786
15536298 74 18334857259455985726
16945 1 18410856521248957942
200 152 18113904849405141383
20510252 161 18261675973314251345
20559304 39 18413108364159892264
20645477 70 18337674221484989695
21267235 1 18338790221323312254
21421861 104 17916030242337014459
21501502 16 18266173018562779074
22182313 1 18267595769513622436
2334 1 17690280409097321518
23402539 116 18262246534028725383
23402655 69 18336271223499470119
23463225 33 18341615970712290194
23559900 14 18266746972607865842
2748010 2 18266459995656405118
2871803 45 18412544344432735703
296302 2 17203605956532645919
335352 9 18410573972329924662
34934 24 18336553737283701407
350125 39 18266457788201574250
4072396 5 18341910587845821762
43471831 8 18341898531994278914
474 4 16772097026792790236
5104073 3 18337952410848149131
5374978 207 18411987987190901394
537710 114 18412540998584620797
53812653 166 18261398814932329040
69090 78 17895197662270714623
7364860 26 18261394511586705342
9709674 26 18411978078775520507

> <PUBCHEM_SHAPE_MULTIPOLES>
346.95
7.94
2.26
0.74
4.2
0.02
-0.05
-0.14
-0.47
-0.69
0.04
-0.59
0.08
0.12

> <PUBCHEM_SHAPE_SELFOVERLAP>
757.005

> <PUBCHEM_SHAPE_VOLUME>
191.1

> <PUBCHEM_COORDINATE_TYPE>
2
5
10

$$$$

