442194
  -OEChem-07051212573D

 43 47  0     1  0  0  0  0  0999 V2000
    0.1227   -2.9455    0.3520 O   0  0  0  0  0  0  0  0  0  0  0  0
   -2.1347   -3.7419    0.2015 O   0  0  0  0  0  0  0  0  0  0  0  0
    4.4573   -0.9265   -0.3289 O   0  0  0  0  0  0  0  0  0  0  0  0
    4.7308    1.7134    0.4847 O   0  0  0  0  0  0  0  0  0  0  0  0
   -2.4986    2.6510    0.0546 N   0  0  2  0  0  0  0  0  0  0  0  0
   -1.2890    1.8282   -0.2051 C   0  0  2  0  0  0  0  0  0  0  0  0
   -1.5505    0.3199   -0.0949 C   0  0  0  0  0  0  0  0  0  0  0  0
   -0.1385    2.1950    0.7605 C   0  0  0  0  0  0  0  0  0  0  0  0
   -2.8778   -0.1741   -0.1822 C   0  0  0  0  0  0  0  0  0  0  0  0
   -0.4443   -0.5649    0.0461 C   0  0  0  0  0  0  0  0  0  0  0  0
   -3.6205    2.1635   -0.7627 C   0  0  0  0  0  0  0  0  0  0  0  0
   -4.0401    0.7733   -0.2970 C   0  0  0  0  0  0  0  0  0  0  0  0
    1.0856    1.3485    0.4901 C   0  0  0  0  0  0  0  0  0  0  0  0
    0.9250   -0.0066    0.1251 C   0  0  0  0  0  0  0  0  0  0  0  0
   -0.7550   -1.9201    0.1438 C   0  0  0  0  0  0  0  0  0  0  0  0
   -3.1273   -1.5472   -0.0913 C   0  0  0  0  0  0  0  0  0  0  0  0
   -2.0508   -2.3886    0.0732 C   0  0  0  0  0  0  0  0  0  0  0  0
   -2.2768    4.0712   -0.2391 C   0  0  0  0  0  0  0  0  0  0  0  0
    2.3643    1.9112    0.6253 C   0  0  0  0  0  0  0  0  0  0  0  0
    2.0875   -0.7422   -0.1637 C   0  0  0  0  0  0  0  0  0  0  0  0
    3.3587   -0.1715   -0.0453 C   0  0  0  0  0  0  0  0  0  0  0  0
    3.4977    1.1508    0.3586 C   0  0  0  0  0  0  0  0  0  0  0  0
   -0.7505   -4.0878    0.3710 C   0  0  0  0  0  0  0  0  0  0  0  0
    4.9246   -0.9093   -1.6760 C   0  0  0  0  0  0  0  0  0  0  0  0
   -0.9564    2.0020   -1.2404 H   0  0  0  0  0  0  0  0  0  0  0  0
   -0.4392    2.0476    1.8063 H   0  0  0  0  0  0  0  0  0  0  0  0
    0.1382    3.2478    0.6399 H   0  0  0  0  0  0  0  0  0  0  0  0
   -3.3508    2.1474   -1.8277 H   0  0  0  0  0  0  0  0  0  0  0  0
   -4.4903    2.8247   -0.6607 H   0  0  0  0  0  0  0  0  0  0  0  0
   -4.7782    0.3735   -1.0027 H   0  0  0  0  0  0  0  0  0  0  0  0
   -4.5230    0.8441    0.6861 H   0  0  0  0  0  0  0  0  0  0  0  0
   -4.1383   -1.9388   -0.1334 H   0  0  0  0  0  0  0  0  0  0  0  0
   -1.9251    4.2315   -1.2646 H   0  0  0  0  0  0  0  0  0  0  0  0
   -1.5578    4.5169    0.4541 H   0  0  0  0  0  0  0  0  0  0  0  0
   -3.2032    4.6420   -0.1036 H   0  0  0  0  0  0  0  0  0  0  0  0
    2.4737    2.9495    0.9296 H   0  0  0  0  0  0  0  0  0  0  0  0
    2.0285   -1.7727   -0.5030 H   0  0  0  0  0  0  0  0  0  0  0  0
   -0.6312   -4.6054    1.3297 H   0  0  0  0  0  0  0  0  0  0  0  0
   -0.4557   -4.7698   -0.4349 H   0  0  0  0  0  0  0  0  0  0  0  0
    5.4014    1.0346    0.2954 H   0  0  0  0  0  0  0  0  0  0  0  0
    5.8239   -1.5285   -1.7345 H   0  0  0  0  0  0  0  0  0  0  0  0
    5.1802    0.1089   -1.9861 H   0  0  0  0  0  0  0  0  0  0  0  0
    4.1680   -1.3270   -2.3478 H   0  0  0  0  0  0  0  0  0  0  0  0
  1 15  1  0  0  0  0
  1 23  1  0  0  0  0
  2 17  1  0  0  0  0
  2 23  1  0  0  0  0
  3 21  1  0  0  0  0
  3 24  1  0  0  0  0
  4 22  1  0  0  0  0
  4 40  1  0  0  0  0
  5  6  1  0  0  0  0
  5 11  1  0  0  0  0
  5 18  1  0  0  0  0
  6  7  1  0  0  0  0
  6  8  1  0  0  0  0
  6 25  1  0  0  0  0
  7  9  1  0  0  0  0
  7 10  2  0  0  0  0
  8 13  1  0  0  0  0
  8 26  1  0  0  0  0
  8 27  1  0  0  0  0
  9 12  1  0  0  0  0
  9 16  2  0  0  0  0
 10 14  1  0  0  0  0
 10 15  1  0  0  0  0
 11 12  1  0  0  0  0
 11 28  1  0  0  0  0
 11 29  1  0  0  0  0
 12 30  1  0  0  0  0
 12 31  1  0  0  0  0
 13 14  1  0  0  0  0
 13 19  2  0  0  0  0
 14 20  2  0  0  0  0
 15 17  2  0  0  0  0
 16 17  1  0  0  0  0
 16 32  1  0  0  0  0
 18 33  1  0  0  0  0
 18 34  1  0  0  0  0
 18 35  1  0  0  0  0
 19 22  1  0  0  0  0
 19 36  1  0  0  0  0
 20 21  1  0  0  0  0
 20 37  1  0  0  0  0
 21 22  2  0  0  0  0
 23 38  1  0  0  0  0
 23 39  1  0  0  0  0
 24 41  1  0  0  0  0
 24 42  1  0  0  0  0
 24 43  1  0  0  0  0
M  END
> <PUBCHEM_COMPOUND_CID>
442194

> <PUBCHEM_CONFORMER_RMSD>
0.6

> <PUBCHEM_CONFORMER_DIVERSEORDER>
1
2
3

> <PUBCHEM_MMFF94_PARTIAL_CHARGES>
26
1 -0.36
11 0.27
12 0.14
13 -0.14
15 0.08
16 -0.15
17 0.08
18 0.27
19 -0.15
2 -0.36
20 -0.15
21 0.08
22 0.08
23 0.56
24 0.28
3 -0.36
32 0.15
36 0.15
37 0.15
4 -0.53
40 0.45
5 -0.81
6 0.41
7 -0.14
8 0.14
9 -0.14

> <PUBCHEM_EFFECTIVE_ROTOR_COUNT>
2.4

> <PUBCHEM_PHARMACOPHORE_FEATURES>
10
1 1 acceptor
1 2 acceptor
1 3 acceptor
1 4 donor
1 5 cation
5 1 2 15 17 23 rings
6 13 14 19 20 21 22 rings
6 5 6 7 9 11 12 rings
6 6 7 8 10 13 14 rings
6 7 9 10 15 16 17 rings

> <PUBCHEM_HEAVY_ATOM_COUNT>
24

> <PUBCHEM_ATOM_DEF_STEREO_COUNT>
1

> <PUBCHEM_ATOM_UDEF_STEREO_COUNT>
0

> <PUBCHEM_BOND_DEF_STEREO_COUNT>
0

> <PUBCHEM_BOND_UDEF_STEREO_COUNT>
0

> <PUBCHEM_ISOTOPIC_ATOM_COUNT>
0

> <PUBCHEM_COMPONENT_COUNT>
1

> <PUBCHEM_CACTVS_TAUTO_COUNT>
9

> <PUBCHEM_CONFORMER_ID>
0006BF5200000001

> <PUBCHEM_MMFF94_ENERGY>
80.8695

> <PUBCHEM_FEATURE_SELFOVERLAP>
50.987

> <PUBCHEM_SHAPE_FINGERPRINT>
10165383 225 18053091006711740029
10319926 262 18192175741097962296
10411042 1 17691409607402618674
10616163 171 18193839241369835772
10693767 8 17753631314395382367
10967382 1 17185319184351126875
1100329 8 17617941773632196139
11370993 70 18339933726052973597
11578080 2 16445336468341074307
116883 192 18194402195343969766
12173636 292 18340211876830537981
12553582 1 17619626882639027779
12788726 201 18056484954530211146
13140716 1 17905330628409748417
13544592 145 18335134315385719404
13785724 45 17691662521121559395
138480 1 17113824548840743539
13941206 138 18129368470695406458
14223421 5 18119812413390467176
14251757 5 18339906139963178990
14363568 33 16828946007847620960
14790565 3 18337665416955312441
15042514 8 18269273474255935251
15196674 1 18408888416767709056
15927050 60 18264210378403589479
16752209 62 18411423946495024322
16945 1 18266470969572256825
19591789 44 18338799047464722739
20510252 161 18407761417549770513
20642791 178 17621035795173497370
20739085 24 14006598254547915216
20775438 99 16818317102616309983
22182313 1 18040710326221900556
2334 1 18194690267754346553
23366157 5 17409926264274576355
23557571 272 18264767667120713596
23559900 14 18334295371197879756
238 59 17192956310566405581
2748010 2 18120663430979243427
283562 15 18408611383388842177
3091708 16 9127099331661415283
3178227 256 18269828715587183147
3298306 158 18192717971026340527
335352 9 18337392742017476884
350125 39 18267580389610580289
352729 6 18411140251115089121
5104073 3 18335986385299675200
7364860 26 17762625392434901011
81228 2 18126848200870148145
8809292 202 18408319973682893998
9709674 26 18334859360074496412
9981440 41 18269566099041333481

> <PUBCHEM_SHAPE_MULTIPOLES>
465.45
7.68
4.64
0.84
7.77
1.99
0.19
-2.24
2.1
-3.93
-0.52
0.59
-0.05
1.18

> <PUBCHEM_SHAPE_SELFOVERLAP>
1048.734

> <PUBCHEM_SHAPE_VOLUME>
245.3

> <PUBCHEM_COORDINATE_TYPE>
2
5
10

$$$$

