3037463
  -OEChem-07051212553D

 31 32  0     0  0  0  0  0  0999 V2000
    4.3273    0.5405   -1.4462 S   0  0  0  0  0  0  0  0  0  0  0  0
    4.5851    0.2019    1.5285 S   0  0  0  0  0  0  0  0  0  0  0  0
   -3.0555    2.1503   -0.1018 O   0  0  0  0  0  0  0  0  0  0  0  0
   -2.0310    1.2586    0.1834 N   0  0  0  0  0  0  0  0  0  0  0  0
    2.2512    0.4673    0.1227 N   0  0  0  0  0  0  0  0  0  0  0  0
   -0.8759   -0.6313    0.4497 C   0  0  0  0  0  0  0  0  0  0  0  0
   -0.0463    0.4730    0.7922 C   0  0  0  0  0  0  0  0  0  0  0  0
   -2.1154   -0.1110    0.0713 C   0  0  0  0  0  0  0  0  0  0  0  0
   -0.7846    1.6209    0.6183 C   0  0  0  0  0  0  0  0  0  0  0  0
    1.3555    0.4099    1.2521 C   0  0  0  0  0  0  0  0  0  0  0  0
   -0.6907   -2.0280    0.4252 C   0  0  0  0  0  0  0  0  0  0  0  0
   -3.1833   -0.9207   -0.3319 C   0  0  0  0  0  0  0  0  0  0  0  0
   -1.7499   -2.8502    0.0240 C   0  0  0  0  0  0  0  0  0  0  0  0
   -2.9761   -2.3029   -0.3482 C   0  0  0  0  0  0  0  0  0  0  0  0
    3.6317    0.3866    0.1655 C   0  0  0  0  0  0  0  0  0  0  0  0
   -2.9891    2.5382   -1.4785 C   0  0  0  0  0  0  0  0  0  0  0  0
    4.3469   -1.2031   -1.9262 C   0  0  0  0  0  0  0  0  0  0  0  0
   -0.5311    2.6622    0.7661 H   0  0  0  0  0  0  0  0  0  0  0  0
    1.5869    1.2502    1.9167 H   0  0  0  0  0  0  0  0  0  0  0  0
    1.5492   -0.5130    1.8095 H   0  0  0  0  0  0  0  0  0  0  0  0
    0.2590   -2.4711    0.7108 H   0  0  0  0  0  0  0  0  0  0  0  0
   -4.1395   -0.4983   -0.6216 H   0  0  0  0  0  0  0  0  0  0  0  0
   -1.6127   -3.9281    0.0028 H   0  0  0  0  0  0  0  0  0  0  0  0
   -3.7852   -2.9602   -0.6564 H   0  0  0  0  0  0  0  0  0  0  0  0
    1.8432    0.5923   -0.8000 H   0  0  0  0  0  0  0  0  0  0  0  0
   -3.1136    1.6712   -2.1349 H   0  0  0  0  0  0  0  0  0  0  0  0
   -2.0426    3.0454   -1.6917 H   0  0  0  0  0  0  0  0  0  0  0  0
   -3.8073    3.2377   -1.6708 H   0  0  0  0  0  0  0  0  0  0  0  0
    3.3357   -1.6180   -1.8986 H   0  0  0  0  0  0  0  0  0  0  0  0
    4.9918   -1.7792   -1.2573 H   0  0  0  0  0  0  0  0  0  0  0  0
    4.7332   -1.2928   -2.9448 H   0  0  0  0  0  0  0  0  0  0  0  0
  1 15  1  0  0  0  0
  1 17  1  0  0  0  0
  2 15  2  0  0  0  0
  3  4  1  0  0  0  0
  3 16  1  0  0  0  0
  4  8  1  0  0  0  0
  4  9  1  0  0  0  0
  5 10  1  0  0  0  0
  5 15  1  0  0  0  0
  5 25  1  0  0  0  0
  6  7  1  0  0  0  0
  6  8  1  0  0  0  0
  6 11  2  0  0  0  0
  7  9  2  0  0  0  0
  7 10  1  0  0  0  0
  8 12  2  0  0  0  0
  9 18  1  0  0  0  0
 10 19  1  0  0  0  0
 10 20  1  0  0  0  0
 11 13  1  0  0  0  0
 11 21  1  0  0  0  0
 12 14  1  0  0  0  0
 12 22  1  0  0  0  0
 13 14  2  0  0  0  0
 13 23  1  0  0  0  0
 14 24  1  0  0  0  0
 16 26  1  0  0  0  0
 16 27  1  0  0  0  0
 16 28  1  0  0  0  0
 17 29  1  0  0  0  0
 17 30  1  0  0  0  0
 17 31  1  0  0  0  0
M  END
> <PUBCHEM_COMPOUND_CID>
3037463

> <PUBCHEM_CONFORMER_RMSD>
0.6

> <PUBCHEM_CONFORMER_DIVERSEORDER>
2
141
34
116
120
200
256
262
285
66
191
264
242
130
236
166
218
103
4
160
286
98
100
220
260
222
99
121
117
230
215
265
210
212
40
238
37
231
197
108
11
168
195
185
167
176
244
38
123
297
206
81
290
277
284
269
221
26
194
107
235
187
287
188
76
29
73
154
96
279
162
189
156
21
272
135
183
127
124
75
142
268
300
233
153
132
136
283
253
45
289
159
225
296
211
271
275
202
203
254
239
270
106
263
199
102
145
219
165
163
113
184
241
172
6
171
110
80
246
180
175
291
201
101
182
295
91
251
88
32
205
164
257
250
224
179
35
245
152
133
294
97
298
10
173
67
22
190
54
149
249
17
89
114
47
104
240
276
140
229
158
24
280
36
86
44
33
155
19
70
64
58
207
208
12
112
223
150
274
278
273
157
128
63
192
60
55
181
122
126
177
255
143
119
28
151
169
178
14
78
267
15
217
56
20
148
227
30
105
174
51
209
83
90
258
234
261
131
43
266
282
259
31
57
213
138
301
118
237
147
226
93
288
71
196
252
204
299
228
125
25
18
243
137
193
1
48
216
281
232
50
214
170
27
42
161
82
5
46
186
9
39
7
292
129
41
49
65
23
87
85
247
95
109
59
16
68
77
8
134
94
111
61
248
144
62
3
84
198
53
115
69
293
92
139
13
146
72
74
79
52

> <PUBCHEM_MMFF94_PARTIAL_CHARGES>
22
1 -0.37
10 0.48
11 -0.15
12 -0.15
13 -0.15
14 -0.15
15 0.58
16 0.28
17 0.23
18 0.15
2 -0.38
21 0.15
22 0.15
23 0.15
24 0.15
25 0.37
3 -0.42
4 0.44
5 -0.73
7 -0.18
8 -0.15
9 -0.3

> <PUBCHEM_EFFECTIVE_ROTOR_COUNT>
5

> <PUBCHEM_PHARMACOPHORE_FEATURES>
4
1 17 hydrophobe
1 2 acceptor
5 4 6 7 8 9 rings
6 6 8 11 12 13 14 rings

> <PUBCHEM_HEAVY_ATOM_COUNT>
17

> <PUBCHEM_ATOM_DEF_STEREO_COUNT>
0

> <PUBCHEM_ATOM_UDEF_STEREO_COUNT>
0

> <PUBCHEM_BOND_DEF_STEREO_COUNT>
0

> <PUBCHEM_BOND_UDEF_STEREO_COUNT>
0

> <PUBCHEM_ISOTOPIC_ATOM_COUNT>
0

> <PUBCHEM_COMPONENT_COUNT>
1

> <PUBCHEM_CACTVS_TAUTO_COUNT>
2

> <PUBCHEM_CONFORMER_ID>
002E591700000002

> <PUBCHEM_MMFF94_ENERGY>
27.2006

> <PUBCHEM_FEATURE_SELFOVERLAP>
20.389

> <PUBCHEM_SHAPE_FINGERPRINT>
12173636 292 18267877244554097709
12186901 62 18411695500102458461
12714826 92 18337945697402717466
13296908 3 17530958073603691242
14022347 108 17984714311695065371
14386348 63 17749102245669682026
15163728 17 17697875122458116413
16752209 62 18340785770407991755
16945 1 18268170685757750227
18186145 218 18261107534498114104
19433438 15 17704075127103972840
20645476 183 18201716296862842843
20645477 56 18410012139136929280
20645477 70 16732979843360589404
20693207 138 18040983021947744276
20871999 31 18409725140811020900
21524375 3 17987245614847643089
22943178 12 18040435473736477264
23526113 38 17313680342249133280
23557571 272 18334580105765066368
23559900 14 18187083992795980512
23598291 2 17704079512249530642
2748010 2 17762924073314441243
2838139 119 16198772266213422159
312425 83 18128510792033575148
559249 180 18199482115717500626
573450 72 18200050498693313960
7615 1 17775574104868445040
81228 2 18196381325196373537
9709674 26 18187364307725547026

> <PUBCHEM_SHAPE_MULTIPOLES>
341.72
8.55
2.71
1.48
10.1
0.35
0.42
-0.03
2.57
-3.93
0.71
1.99
-0.19
1.05

> <PUBCHEM_SHAPE_SELFOVERLAP>
691.939

> <PUBCHEM_SHAPE_VOLUME>
203.8

> <PUBCHEM_COORDINATE_TYPE>
2
5
10

$$$$

