255438
  -OEChem-07051213062D

 55 58  0     1  0  0  0  0  0999 V2000
    9.1857    2.0736    0.0000 O   0  0  0  0  0  0  0  0  0  0  0  0
   10.4586    0.3184    0.0000 O   0  0  0  0  0  0  0  0  0  0  0  0
    2.5357   -2.2340    0.0000 O   0  0  0  0  0  0  0  0  0  0  0  0
    7.9288   -0.1816    0.0000 C   0  0  2  0  0  0  0  0  0  0  0  0
    7.9288    0.8184    0.0000 C   0  0  2  0  0  0  0  0  0  0  0  0
    7.0628   -0.6816    0.0000 C   0  0  1  0  0  0  0  0  0  0  0  0
    6.1968   -0.1816    0.0000 C   0  0  1  0  0  0  0  0  0  0  0  0
    5.2868   -0.6885    0.0000 C   0  0  2  0  0  0  0  0  0  0  0  0
    7.0628    1.3184    0.0000 C   0  0  0  0  0  0  0  0  0  0  0  0
    6.1968    0.8184    0.0000 C   0  0  0  0  0  0  0  0  0  0  0  0
    8.8750    1.1231    0.0000 C   0  0  2  0  0  0  0  0  0  0  0  0
    8.8750   -0.4864    0.0000 C   0  0  0  0  0  0  0  0  0  0  0  0
    9.4586    0.3184    0.0000 C   0  0  2  0  0  0  0  0  0  0  0  0
    7.0789   -1.7232    0.0000 C   0  0  0  0  0  0  0  0  0  0  0  0
    5.2787   -1.7301    0.0000 C   0  0  0  0  0  0  0  0  0  0  0  0
    7.9288    1.8184    0.0000 C   0  0  0  0  0  0  0  0  0  0  0  0
    4.3599   -0.1244    0.0000 C   0  0  0  0  0  0  0  0  0  0  0  0
    6.1808   -2.2509    0.0000 C   0  0  0  0  0  0  0  0  0  0  0  0
    5.2945    0.3115    0.0000 C   0  0  0  0  0  0  0  0  0  0  0  0
    4.3433   -2.2798    0.0000 C   0  0  0  0  0  0  0  0  0  0  0  0
    3.4120   -0.6524    0.0000 C   0  0  0  0  0  0  0  0  0  0  0  0
    3.4037   -1.7373    0.0000 C   0  0  2  0  0  0  0  0  0  0  0  0
   10.1642    2.2798    0.0000 C   0  0  0  0  0  0  0  0  0  0  0  0
    8.0188   -1.0269    0.0000 H   0  0  0  0  0  0  0  0  0  0  0  0
    7.8022   -1.1010    0.0000 H   0  0  0  0  0  0  0  0  0  0  0  0
    6.9329    0.2434    0.0000 H   0  0  0  0  0  0  0  0  0  0  0  0
    7.4613    1.7933    0.0000 H   0  0  0  0  0  0  0  0  0  0  0  0
    6.6643    1.7933    0.0000 H   0  0  0  0  0  0  0  0  0  0  0  0
    5.9847    1.4010    0.0000 H   0  0  0  0  0  0  0  0  0  0  0  0
    5.5862    0.7107    0.0000 H   0  0  0  0  0  0  0  0  0  0  0  0
    9.4875    1.2193    0.0000 H   0  0  0  0  0  0  0  0  0  0  0  0
    8.6240   -1.0533    0.0000 H   0  0  0  0  0  0  0  0  0  0  0  0
    9.4124   -0.7956    0.0000 H   0  0  0  0  0  0  0  0  0  0  0  0
    9.7404   -0.2340    0.0000 H   0  0  0  0  0  0  0  0  0  0  0  0
    7.2969   -2.3036    0.0000 H   0  0  0  0  0  0  0  0  0  0  0  0
    7.6880   -1.6077    0.0000 H   0  0  0  0  0  0  0  0  0  0  0  0
    8.5488    1.8184    0.0000 H   0  0  0  0  0  0  0  0  0  0  0  0
    7.9288    2.4383    0.0000 H   0  0  0  0  0  0  0  0  0  0  0  0
    7.3088    1.8184    0.0000 H   0  0  0  0  0  0  0  0  0  0  0  0
    4.7681    0.3422    0.0000 H   0  0  0  0  0  0  0  0  0  0  0  0
    3.9700    0.3576    0.0000 H   0  0  0  0  0  0  0  0  0  0  0  0
    6.1832   -2.8709    0.0000 H   0  0  0  0  0  0  0  0  0  0  0  0
    5.9145    0.3067    0.0000 H   0  0  0  0  0  0  0  0  0  0  0  0
    5.2993    0.9315    0.0000 H   0  0  0  0  0  0  0  0  0  0  0  0
    4.6745    0.3163    0.0000 H   0  0  0  0  0  0  0  0  0  0  0  0
    3.9460   -2.7558    0.0000 H   0  0  0  0  0  0  0  0  0  0  0  0
    4.7443   -2.7527    0.0000 H   0  0  0  0  0  0  0  0  0  0  0  0
    3.2075   -0.0671    0.0000 H   0  0  0  0  0  0  0  0  0  0  0  0
    2.8004   -0.7537    0.0000 H   0  0  0  0  0  0  0  0  0  0  0  0
    2.8686   -1.4242    0.0000 H   0  0  0  0  0  0  0  0  0  0  0  0
   10.7687   -0.2186    0.0000 H   0  0  0  0  0  0  0  0  0  0  0  0
   10.2921    1.6732    0.0000 H   0  0  0  0  0  0  0  0  0  0  0  0
   10.7709    2.4077    0.0000 H   0  0  0  0  0  0  0  0  0  0  0  0
   10.0364    2.8865    0.0000 H   0  0  0  0  0  0  0  0  0  0  0  0
    2.0000   -1.9219    0.0000 H   0  0  0  0  0  0  0  0  0  0  0  0
 11  1  1  1  0  0  0
  1 23  1  0  0  0  0
 13  2  1  1  0  0  0
  2 51  1  0  0  0  0
 22  3  1  1  0  0  0
  3 55  1  0  0  0  0
  4  5  1  0  0  0  0
  4  6  1  0  0  0  0
  4 12  1  0  0  0  0
  4 24  1  6  0  0  0
  5  9  1  0  0  0  0
  5 11  1  0  0  0  0
  5 16  1  1  0  0  0
  6  7  1  0  0  0  0
  6 14  1  0  0  0  0
  6 25  1  1  0  0  0
  7  8  1  0  0  0  0
  7 10  1  0  0  0  0
  7 26  1  6  0  0  0
  8 15  1  0  0  0  0
  8 17  1  0  0  0  0
  8 19  1  1  0  0  0
  9 10  1  0  0  0  0
  9 27  1  0  0  0  0
  9 28  1  0  0  0  0
 10 29  1  0  0  0  0
 10 30  1  0  0  0  0
 11 13  1  0  0  0  0
 11 31  1  0  0  0  0
 12 13  1  0  0  0  0
 12 32  1  0  0  0  0
 12 33  1  0  0  0  0
 13 34  1  0  0  0  0
 14 18  1  0  0  0  0
 14 35  1  0  0  0  0
 14 36  1  0  0  0  0
 15 18  2  0  0  0  0
 15 20  1  0  0  0  0
 16 37  1  0  0  0  0
 16 38  1  0  0  0  0
 16 39  1  0  0  0  0
 17 21  1  0  0  0  0
 17 40  1  0  0  0  0
 17 41  1  0  0  0  0
 18 42  1  0  0  0  0
 19 43  1  0  0  0  0
 19 44  1  0  0  0  0
 19 45  1  0  0  0  0
 20 22  1  0  0  0  0
 20 46  1  0  0  0  0
 20 47  1  0  0  0  0
 21 22  1  0  0  0  0
 21 48  1  0  0  0  0
 21 49  1  0  0  0  0
 22 50  1  0  0  0  0
 23 52  1  0  0  0  0
 23 53  1  0  0  0  0
 23 54  1  0  0  0  0
M  END
> <PUBCHEM_COMPOUND_CID>
255438

> <PUBCHEM_COMPOUND_CANONICALIZED>
1

> <PUBCHEM_CACTVS_COMPLEXITY>
515

> <PUBCHEM_CACTVS_HBOND_ACCEPTOR>
3

> <PUBCHEM_CACTVS_HBOND_DONOR>
2

> <PUBCHEM_CACTVS_ROTATABLE_BOND>
1

> <PUBCHEM_CACTVS_SUBSKEYS>
AAADcfB4MAAAAAAAAAAAAAAAAAAAAYAAAAAwYIAAAAAAAGCAAAAAGgAACAAADxSggAICAAAABgCAAiBCAAAAAAAgAAAACAAAAAgBEAIAAQAAQAAEwAALAAOA4PgPgAAAAAAAAADAAAQAACAAAIAADCAAAA==

> <PUBCHEM_IUPAC_OPENEYE_NAME>
(3S,8R,9S,10R,13S,14S,16S,17R)-17-methoxy-10,13-dimethyl-2,3,4,7,8,9,11,12,14,15,16,17-dodecahydro-1H-cyclopenta[a]phenanthrene-3,16-diol

> <PUBCHEM_IUPAC_CAS_NAME>
(3S,8R,9S,10R,13S,14S,16S,17R)-17-methoxy-10,13-dimethyl-2,3,4,7,8,9,11,12,14,15,16,17-dodecahydro-1H-cyclopenta[a]phenanthrene-3,16-diol

> <PUBCHEM_IUPAC_NAME>
(3S,8R,9S,10R,13S,14S,16S,17R)-17-methoxy-10,13-dimethyl-2,3,4,7,8,9,11,12,14,15,16,17-dodecahydro-1H-cyclopenta[a]phenanthrene-3,16-diol

> <PUBCHEM_IUPAC_SYSTEMATIC_NAME>
(3S,8R,9S,10R,13S,14S,16S,17R)-17-methoxy-10,13-dimethyl-2,3,4,7,8,9,11,12,14,15,16,17-dodecahydro-1H-cyclopenta[a]phenanthrene-3,16-diol

> <PUBCHEM_IUPAC_TRADITIONAL_NAME>
(3S,8R,9S,10R,13S,14S,16S,17R)-17-methoxy-10,13-dimethyl-2,3,4,7,8,9,11,12,14,15,16,17-dodecahydro-1H-cyclopenta[a]phenanthrene-3,16-diol

> <PUBCHEM_IUPAC_INCHI>
InChI=1S/C20H32O3/c1-19-8-6-13(21)10-12(19)4-5-14-15(19)7-9-20(2)16(14)11-17(22)18(20)23-3/h4,13-18,21-22H,5-11H2,1-3H3/t13-,14+,15-,16-,17-,18-,19-,20-/m0/s1

> <PUBCHEM_IUPAC_INCHIKEY>
KQNNECHJCBGGIY-RGJFDMQWSA-N

> <PUBCHEM_XLOGP3>
3.1

> <PUBCHEM_EXACT_MASS>
320.235145

> <PUBCHEM_MOLECULAR_FORMULA>
C20H32O3

> <PUBCHEM_MOLECULAR_WEIGHT>
320.46628

> <PUBCHEM_OPENEYE_CAN_SMILES>
CC12CCC(CC1=CCC3C2CCC4(C3CC(C4OC)O)C)O

> <PUBCHEM_OPENEYE_ISO_SMILES>
C[C@]12CC[C@@H](CC1=CC[C@@H]3[C@@H]2CC[C@]4([C@H]3C[C@@H]([C@@H]4OC)O)C)O

> <PUBCHEM_CACTVS_TPSA>
49.7

> <PUBCHEM_MONOISOTOPIC_WEIGHT>
320.235145

> <PUBCHEM_TOTAL_CHARGE>
0

> <PUBCHEM_HEAVY_ATOM_COUNT>
23

> <PUBCHEM_ATOM_DEF_STEREO_COUNT>
8

> <PUBCHEM_ATOM_UDEF_STEREO_COUNT>
0

> <PUBCHEM_BOND_DEF_STEREO_COUNT>
0

> <PUBCHEM_BOND_UDEF_STEREO_COUNT>
0

> <PUBCHEM_ISOTOPIC_ATOM_COUNT>
0

> <PUBCHEM_COMPONENT_COUNT>
1

> <PUBCHEM_CACTVS_TAUTO_COUNT>
1

> <PUBCHEM_COORDINATE_TYPE>
1
5
255

> <PUBCHEM_BONDANNOTATIONS>
11  1  5
13  2  5
22  3  5
4  24  6
5  16  5
6  25  5
7  26  6
8  19  5

$$$$

