362568
  -OEChem-07051212573D

 87 93  0     1  0  0  0  0  0999 V2000
   -0.9799   -0.0099   -1.0797 O   0  0  0  0  0  0  0  0  0  0  0  0
   -4.4270   -3.6691    1.2265 O   0  0  0  0  0  0  0  0  0  0  0  0
   -3.7578    0.4219   -1.1150 O   0  0  0  0  0  0  0  0  0  0  0  0
   -5.4414   -1.4253    0.0260 O   0  0  0  0  0  0  0  0  0  0  0  0
    4.7353    0.3773   -0.5543 O   0  0  0  0  0  0  0  0  0  0  0  0
   -2.1499    1.6534   -3.0471 O   0  0  0  0  0  0  0  0  0  0  0  0
    6.4325   -1.7494   -0.8838 O   0  0  0  0  0  0  0  0  0  0  0  0
    0.6437   -3.2538    1.2028 N   0  0  2  0  0  0  0  0  0  0  0  0
   -0.3533    5.2483    1.9196 N   0  0  0  0  0  0  0  0  0  0  0  0
    0.2026   -2.2455    0.2074 C   0  0  2  0  0  0  0  0  0  0  0  0
   -1.3087   -2.0394    0.1376 C   0  0  0  0  0  0  0  0  0  0  0  0
   -0.1823   -4.4638    1.1569 C   0  0  0  0  0  0  0  0  0  0  0  0
   -2.1854   -2.9852    0.7029 C   0  0  0  0  0  0  0  0  0  0  0  0
   -1.6630   -4.1994    1.4250 C   0  0  0  0  0  0  0  0  0  0  0  0
    0.8201   -2.5836   -1.1836 C   0  0  0  0  0  0  0  0  0  0  0  0
   -1.8532   -0.8816   -0.4608 C   0  0  0  0  0  0  0  0  0  0  0  0
   -3.5706   -2.7668    0.6626 C   0  0  0  0  0  0  0  0  0  0  0  0
    0.7384   -2.6958    2.5519 C   0  0  0  0  0  0  0  0  0  0  0  0
    2.3191   -2.3705   -1.1944 C   0  0  0  0  0  0  0  0  0  0  0  0
   -3.2379   -0.6858   -0.5106 C   0  0  0  0  0  0  0  0  0  0  0  0
   -4.0922   -1.6266    0.0565 C   0  0  0  0  0  0  0  0  0  0  0  0
    2.8295   -1.0756   -1.0334 C   0  0  0  0  0  0  0  0  0  0  0  0
    3.2127   -3.4414   -1.2916 C   0  0  0  0  0  0  0  0  0  0  0  0
   -1.1522    1.3330   -0.8402 C   0  0  0  0  0  0  0  0  0  0  0  0
    4.2034   -0.8638   -0.8607 C   0  0  0  0  0  0  0  0  0  0  0  0
   -0.6943    3.2960    0.4793 C   0  0  0  0  0  0  0  0  0  0  0  0
   -1.2549    4.0974   -0.5279 C   0  0  0  0  0  0  0  0  0  0  0  0
    4.5907   -3.2189   -1.2024 C   0  0  0  0  0  0  0  0  0  0  0  0
   -0.6713    1.9056    0.3412 C   0  0  0  0  0  0  0  0  0  0  0  0
   -1.6630    2.1273   -1.8681 C   0  0  0  0  0  0  0  0  0  0  0  0
    5.0884   -1.9334   -0.9785 C   0  0  0  0  0  0  0  0  0  0  0  0
   -1.2562    5.5880   -0.3545 C   0  0  0  0  0  0  0  0  0  0  0  0
   -0.0618    4.0234    1.6224 C   0  0  0  0  0  0  0  0  0  0  0  0
   -1.7326    3.5082   -1.7027 C   0  0  0  0  0  0  0  0  0  0  0  0
   -5.2669   -3.1924    2.2736 C   0  0  0  0  0  0  0  0  0  0  0  0
   -1.3865    5.9174    1.1253 C   0  0  0  0  0  0  0  0  0  0  0  0
    0.9920    3.3449    2.4896 C   0  0  0  0  0  0  0  0  0  0  0  0
   -4.5488    1.2892   -0.3059 C   0  0  0  0  0  0  0  0  0  0  0  0
   -6.1486   -1.9491   -1.0955 C   0  0  0  0  0  0  0  0  0  0  0  0
    2.1068    2.6486    1.7462 C   0  0  0  0  0  0  0  0  0  0  0  0
    3.9641    1.1629    0.2791 C   0  0  0  0  0  0  0  0  0  0  0  0
    2.6588    3.1686    0.5653 C   0  0  0  0  0  0  0  0  0  0  0  0
    2.6002    1.4351    2.2480 C   0  0  0  0  0  0  0  0  0  0  0  0
    3.5790    2.4232   -0.1748 C   0  0  0  0  0  0  0  0  0  0  0  0
    3.5337    0.6970    1.5249 C   0  0  0  0  0  0  0  0  0  0  0  0
   -1.2218    1.5107   -4.1206 C   0  0  0  0  0  0  0  0  0  0  0  0
    7.0107   -1.8515    0.4155 C   0  0  0  0  0  0  0  0  0  0  0  0
    0.6174   -1.2804    0.5297 H   0  0  0  0  0  0  0  0  0  0  0  0
    0.1941   -5.2084    1.8696 H   0  0  0  0  0  0  0  0  0  0  0  0
   -0.0741   -4.9372    0.1733 H   0  0  0  0  0  0  0  0  0  0  0  0
   -1.8235   -4.0570    2.5011 H   0  0  0  0  0  0  0  0  0  0  0  0
   -2.2291   -5.0881    1.1207 H   0  0  0  0  0  0  0  0  0  0  0  0
    0.3955   -1.9486   -1.9710 H   0  0  0  0  0  0  0  0  0  0  0  0
    0.5758   -3.6079   -1.4901 H   0  0  0  0  0  0  0  0  0  0  0  0
    1.4827   -1.8919    2.5778 H   0  0  0  0  0  0  0  0  0  0  0  0
    1.0837   -3.4570    3.2602 H   0  0  0  0  0  0  0  0  0  0  0  0
   -0.2104   -2.2899    2.9180 H   0  0  0  0  0  0  0  0  0  0  0  0
    2.1330   -0.2414   -0.9879 H   0  0  0  0  0  0  0  0  0  0  0  0
    2.8457   -4.4558   -1.4233 H   0  0  0  0  0  0  0  0  0  0  0  0
    5.2722   -4.0615   -1.2884 H   0  0  0  0  0  0  0  0  0  0  0  0
   -0.2512    1.2656    1.1098 H   0  0  0  0  0  0  0  0  0  0  0  0
   -0.3198    5.9917   -0.7579 H   0  0  0  0  0  0  0  0  0  0  0  0
   -2.0891    6.0431   -0.9020 H   0  0  0  0  0  0  0  0  0  0  0  0
   -2.1436    4.1324   -2.4928 H   0  0  0  0  0  0  0  0  0  0  0  0
   -4.8507   -2.3125    2.7769 H   0  0  0  0  0  0  0  0  0  0  0  0
   -5.3651   -3.9910    3.0151 H   0  0  0  0  0  0  0  0  0  0  0  0
   -6.2645   -2.9723    1.8835 H   0  0  0  0  0  0  0  0  0  0  0  0
   -1.2875    6.9997    1.2627 H   0  0  0  0  0  0  0  0  0  0  0  0
   -2.3752    5.6352    1.5085 H   0  0  0  0  0  0  0  0  0  0  0  0
    0.4573    2.6351    3.1338 H   0  0  0  0  0  0  0  0  0  0  0  0
    1.4478    4.0931    3.1504 H   0  0  0  0  0  0  0  0  0  0  0  0
   -5.6069    1.0264   -0.3888 H   0  0  0  0  0  0  0  0  0  0  0  0
   -4.4363    2.3095   -0.6830 H   0  0  0  0  0  0  0  0  0  0  0  0
   -4.2327    1.2758    0.7431 H   0  0  0  0  0  0  0  0  0  0  0  0
   -5.7893   -1.4954   -2.0244 H   0  0  0  0  0  0  0  0  0  0  0  0
   -7.2079   -1.7065   -0.9754 H   0  0  0  0  0  0  0  0  0  0  0  0
   -6.0426   -3.0374   -1.1443 H   0  0  0  0  0  0  0  0  0  0  0  0
    2.3334    4.1313    0.1793 H   0  0  0  0  0  0  0  0  0  0  0  0
    2.2213    1.0319    3.1841 H   0  0  0  0  0  0  0  0  0  0  0  0
    3.9414    2.8043   -1.1252 H   0  0  0  0  0  0  0  0  0  0  0  0
    3.8656   -0.2639    1.9084 H   0  0  0  0  0  0  0  0  0  0  0  0
   -0.7962    2.4819   -4.3923 H   0  0  0  0  0  0  0  0  0  0  0  0
   -1.7572    1.1090   -4.9851 H   0  0  0  0  0  0  0  0  0  0  0  0
   -0.4234    0.8132   -3.8482 H   0  0  0  0  0  0  0  0  0  0  0  0
    8.0860   -1.6745    0.3267 H   0  0  0  0  0  0  0  0  0  0  0  0
    6.8541   -2.8537    0.8272 H   0  0  0  0  0  0  0  0  0  0  0  0
    6.5874   -1.0992    1.0884 H   0  0  0  0  0  0  0  0  0  0  0  0
  1 16  1  0  0  0  0
  1 24  1  0  0  0  0
  2 17  1  0  0  0  0
  2 35  1  0  0  0  0
  3 20  1  0  0  0  0
  3 38  1  0  0  0  0
  4 21  1  0  0  0  0
  4 39  1  0  0  0  0
  5 25  1  0  0  0  0
  5 41  1  0  0  0  0
  6 30  1  0  0  0  0
  6 46  1  0  0  0  0
  7 31  1  0  0  0  0
  7 47  1  0  0  0  0
  8 10  1  0  0  0  0
  8 12  1  0  0  0  0
  8 18  1  0  0  0  0
  9 33  2  0  0  0  0
  9 36  1  0  0  0  0
 10 11  1  0  0  0  0
 10 15  1  0  0  0  0
 10 48  1  0  0  0  0
 11 13  2  0  0  0  0
 11 16  1  0  0  0  0
 12 14  1  0  0  0  0
 12 49  1  0  0  0  0
 12 50  1  0  0  0  0
 13 14  1  0  0  0  0
 13 17  1  0  0  0  0
 14 51  1  0  0  0  0
 14 52  1  0  0  0  0
 15 19  1  0  0  0  0
 15 53  1  0  0  0  0
 15 54  1  0  0  0  0
 16 20  2  0  0  0  0
 17 21  2  0  0  0  0
 18 55  1  0  0  0  0
 18 56  1  0  0  0  0
 18 57  1  0  0  0  0
 19 22  2  0  0  0  0
 19 23  1  0  0  0  0
 20 21  1  0  0  0  0
 22 25  1  0  0  0  0
 22 58  1  0  0  0  0
 23 28  2  0  0  0  0
 23 59  1  0  0  0  0
 24 29  1  0  0  0  0
 24 30  2  0  0  0  0
 25 31  2  0  0  0  0
 26 27  1  0  0  0  0
 26 29  2  0  0  0  0
 26 33  1  0  0  0  0
 27 32  1  0  0  0  0
 27 34  2  0  0  0  0
 28 31  1  0  0  0  0
 28 60  1  0  0  0  0
 29 61  1  0  0  0  0
 30 34  1  0  0  0  0
 32 36  1  0  0  0  0
 32 62  1  0  0  0  0
 32 63  1  0  0  0  0
 33 37  1  0  0  0  0
 34 64  1  0  0  0  0
 35 65  1  0  0  0  0
 35 66  1  0  0  0  0
 35 67  1  0  0  0  0
 36 68  1  0  0  0  0
 36 69  1  0  0  0  0
 37 40  1  0  0  0  0
 37 70  1  0  0  0  0
 37 71  1  0  0  0  0
 38 72  1  0  0  0  0
 38 73  1  0  0  0  0
 38 74  1  0  0  0  0
 39 75  1  0  0  0  0
 39 76  1  0  0  0  0
 39 77  1  0  0  0  0
 40 42  2  0  0  0  0
 40 43  1  0  0  0  0
 41 44  2  0  0  0  0
 41 45  1  0  0  0  0
 42 44  1  0  0  0  0
 42 78  1  0  0  0  0
 43 45  2  0  0  0  0
 43 79  1  0  0  0  0
 44 80  1  0  0  0  0
 45 81  1  0  0  0  0
 46 82  1  0  0  0  0
 46 83  1  0  0  0  0
 46 84  1  0  0  0  0
 47 85  1  0  0  0  0
 47 86  1  0  0  0  0
 47 87  1  0  0  0  0
M  END
> <PUBCHEM_COMPOUND_CID>
362568

> <PUBCHEM_CONFORMER_RMSD>
1

> <PUBCHEM_CONFORMER_DIVERSEORDER>
1
2
6
5
3
7
4

> <PUBCHEM_MMFF94_PARTIAL_CHARGES>
56
1 -0.17
10 0.41
11 -0.14
12 0.27
13 -0.14
14 0.14
15 0.14
16 0.08
17 0.08
18 0.27
19 -0.14
2 -0.36
20 0.08
21 0.08
22 -0.15
23 -0.15
24 0.08
25 0.08
26 0.09
27 -0.14
28 -0.15
29 -0.15
3 -0.36
30 0.08
31 0.08
32 0.14
33 0.3
34 -0.15
35 0.28
36 0.25
37 0.2
38 0.28
39 0.28
4 -0.36
40 -0.14
41 0.08
42 -0.15
43 -0.15
44 -0.15
45 -0.15
46 0.28
47 0.28
5 -0.17
58 0.15
59 0.15
6 -0.36
60 0.15
61 0.15
64 0.15
7 -0.36
78 0.15
79 0.15
8 -0.81
80 0.15
81 0.15
9 -0.7

> <PUBCHEM_EFFECTIVE_ROTOR_COUNT>
6.8

> <PUBCHEM_PHARMACOPHORE_FEATURES>
15
1 1 acceptor
1 2 acceptor
1 3 acceptor
1 4 acceptor
1 5 acceptor
1 6 acceptor
1 7 acceptor
1 8 cation
1 9 acceptor
6 11 13 16 17 20 21 rings
6 19 22 23 25 28 31 rings
6 24 26 27 29 30 34 rings
6 40 41 42 43 44 45 rings
6 8 10 11 12 13 14 rings
6 9 26 27 32 33 36 rings

> <PUBCHEM_HEAVY_ATOM_COUNT>
47

> <PUBCHEM_ATOM_DEF_STEREO_COUNT>
1

> <PUBCHEM_ATOM_UDEF_STEREO_COUNT>
0

> <PUBCHEM_BOND_DEF_STEREO_COUNT>
0

> <PUBCHEM_BOND_UDEF_STEREO_COUNT>
0

> <PUBCHEM_ISOTOPIC_ATOM_COUNT>
0

> <PUBCHEM_COMPONENT_COUNT>
1

> <PUBCHEM_CACTVS_TAUTO_COUNT>
1

> <PUBCHEM_CONFORMER_ID>
0005884800000001

> <PUBCHEM_MMFF94_ENERGY>
226.3873

> <PUBCHEM_FEATURE_SELFOVERLAP>
76.189

> <PUBCHEM_SHAPE_FINGERPRINT>
10190108 129 18122610911387266553
10581848 127 17695868445143807838
11513181 2 16967163415794562734
11828532 37 18057884641270311059
12156800 1 16741363644728163112
12202916 173 17398731857277596896
12355185 1 18049471371852310687
12539745 222 18130793395717281270
12788726 201 18049447238626038215
13402501 40 18337111172794403390
13560911 43 18271804597737084410
14279260 333 17539689527690940054
14725015 67 18337684078503109658
150020 26 17905039253411769946
15200665 1 18127684040398493277
15264996 19 17976512208049192221
15274700 34 16900482442524060979
15351339 4 17978801425464394928
15484559 13 16610905396376606629
15975801 100 17417255458740921134
19319366 153 17111003201825022416
20764821 26 18336814373358381208
21133410 62 17547286065810830133
3493558 16 17897419754107168915
354706 132 17979618350673667876
463206 1 17539692821861776664
469060 322 16913373507314616893
474144 1 16534266519516453200
50150288 127 17390227375249299569
5171179 24 18193838142159641927
5252454 2 17337572897292717590

> <PUBCHEM_SHAPE_MULTIPOLES>
916.19
10.66
8.47
2.54
6.2
7.45
-0.84
-10.83
-1.45
-3.76
3.74
-0.72
0.95
3.84

> <PUBCHEM_SHAPE_SELFOVERLAP>
2024.232

> <PUBCHEM_SHAPE_VOLUME>
489.4

> <PUBCHEM_COORDINATE_TYPE>
2
5
10

$$$$

