4196
  -OEChem-06251223573D

 67 71  0     1  0  0  0  0  0999 V2000
   -0.7517   -4.4162   -1.6523 O   0  0  0  0  0  0  0  0  0  0  0  0
    5.8613    2.4923    1.6034 O   0  0  0  0  0  0  0  0  0  0  0  0
   -4.3492    3.7085   -0.2909 N   0  0  0  0  0  0  0  0  0  0  0  0
   -0.5331   -2.1893   -0.6029 C   0  0  1  0  0  0  0  0  0  0  0  0
    0.7848   -1.9485   -1.3742 C   0  0  1  0  0  0  0  0  0  0  0  0
    1.2049   -0.4677   -1.4632 C   0  0  1  0  0  0  0  0  0  0  0  0
   -0.4836   -3.7425   -0.4179 C   0  0  2  0  0  0  0  0  0  0  0  0
   -0.4935   -1.4418    0.7599 C   0  0  0  0  0  0  0  0  0  0  0  0
    1.7967   -2.8810   -0.6814 C   0  0  0  0  0  0  0  0  0  0  0  0
    0.9853   -4.0334   -0.0752 C   0  0  0  0  0  0  0  0  0  0  0  0
   -0.0649    0.0483    0.7283 C   0  0  1  0  0  0  0  0  0  0  0  0
    1.1970    0.2611   -0.1132 C   0  0  0  0  0  0  0  0  0  0  0  0
    2.5331   -0.3385   -2.2380 C   0  0  0  0  0  0  0  0  0  0  0  0
   -1.7542   -1.7453   -1.4278 C   0  0  0  0  0  0  0  0  0  0  0  0
    2.2185    1.0762    0.2590 C   0  0  0  0  0  0  0  0  0  0  0  0
    3.1118    1.0593   -2.0999 C   0  0  0  0  0  0  0  0  0  0  0  0
   -1.2113    1.0268    0.4552 C   0  0  0  0  0  0  0  0  0  0  0  0
    3.3462    1.3460   -0.6419 C   0  0  0  0  0  0  0  0  0  0  0  0
   -1.3938   -4.2595    0.6138 C   0  0  0  0  0  0  0  0  0  0  0  0
    2.2997    1.8677    1.5480 C   0  0  0  0  0  0  0  0  0  0  0  0
    4.5238    1.8315   -0.2161 C   0  0  0  0  0  0  0  0  0  0  0  0
    3.6694    1.7221    2.2008 C   0  0  0  0  0  0  0  0  0  0  0  0
   -2.3842    0.9435    1.2001 C   0  0  0  0  0  0  0  0  0  0  0  0
   -1.0733    1.9947   -0.5358 C   0  0  0  0  0  0  0  0  0  0  0  0
    4.7691    2.0727    1.2273 C   0  0  0  0  0  0  0  0  0  0  0  0
   -2.1370   -4.6824    1.4569 C   0  0  0  0  0  0  0  0  0  0  0  0
   -3.4278    1.8353    0.9519 C   0  0  0  0  0  0  0  0  0  0  0  0
   -2.1167    2.8866   -0.7840 C   0  0  0  0  0  0  0  0  0  0  0  0
   -3.2940    2.8069   -0.0400 C   0  0  0  0  0  0  0  0  0  0  0  0
   -3.0420   -5.1975    2.4833 C   0  0  0  0  0  0  0  0  0  0  0  0
   -5.5766    3.6337    0.4765 C   0  0  0  0  0  0  0  0  0  0  0  0
   -4.2147    4.7305   -1.3098 C   0  0  0  0  0  0  0  0  0  0  0  0
    0.6633   -2.3149   -2.4050 H   0  0  0  0  0  0  0  0  0  0  0  0
    0.4506    0.0381   -2.0817 H   0  0  0  0  0  0  0  0  0  0  0  0
    0.2253   -1.9453    1.4216 H   0  0  0  0  0  0  0  0  0  0  0  0
   -1.4584   -1.5641    1.2643 H   0  0  0  0  0  0  0  0  0  0  0  0
    2.3539   -2.3675    0.1104 H   0  0  0  0  0  0  0  0  0  0  0  0
    2.5315   -3.2626   -1.3988 H   0  0  0  0  0  0  0  0  0  0  0  0
    0.1907    0.2510    1.7751 H   0  0  0  0  0  0  0  0  0  0  0  0
    1.3219   -4.9931   -0.4852 H   0  0  0  0  0  0  0  0  0  0  0  0
    1.1620   -4.0639    1.0071 H   0  0  0  0  0  0  0  0  0  0  0  0
    2.3631   -0.5661   -3.2975 H   0  0  0  0  0  0  0  0  0  0  0  0
    3.2752   -1.0619   -1.8788 H   0  0  0  0  0  0  0  0  0  0  0  0
   -2.6873   -1.9895   -0.9087 H   0  0  0  0  0  0  0  0  0  0  0  0
   -1.7542   -0.6711   -1.6229 H   0  0  0  0  0  0  0  0  0  0  0  0
   -1.7819   -2.2297   -2.4095 H   0  0  0  0  0  0  0  0  0  0  0  0
    2.4204    1.8020   -2.5177 H   0  0  0  0  0  0  0  0  0  0  0  0
    4.0411    1.1260   -2.6781 H   0  0  0  0  0  0  0  0  0  0  0  0
   -1.7046   -4.3544   -1.8353 H   0  0  0  0  0  0  0  0  0  0  0  0
    2.1173    2.9257    1.3135 H   0  0  0  0  0  0  0  0  0  0  0  0
    1.5452    1.5874    2.2845 H   0  0  0  0  0  0  0  0  0  0  0  0
    5.3420    2.0366   -0.8977 H   0  0  0  0  0  0  0  0  0  0  0  0
    3.8333    0.6972    2.5523 H   0  0  0  0  0  0  0  0  0  0  0  0
    3.7349    2.4001    3.0587 H   0  0  0  0  0  0  0  0  0  0  0  0
   -2.5023    0.2123    1.9940 H   0  0  0  0  0  0  0  0  0  0  0  0
   -0.1786    2.1059   -1.1377 H   0  0  0  0  0  0  0  0  0  0  0  0
   -4.3206    1.7360    1.5612 H   0  0  0  0  0  0  0  0  0  0  0  0
   -1.9639    3.6250   -1.5649 H   0  0  0  0  0  0  0  0  0  0  0  0
   -2.4798   -5.6394    3.3115 H   0  0  0  0  0  0  0  0  0  0  0  0
   -3.6680   -4.3962    2.8873 H   0  0  0  0  0  0  0  0  0  0  0  0
   -3.7006   -5.9676    2.0707 H   0  0  0  0  0  0  0  0  0  0  0  0
   -5.3884    3.8069    1.5419 H   0  0  0  0  0  0  0  0  0  0  0  0
   -6.0687    2.6639    0.3430 H   0  0  0  0  0  0  0  0  0  0  0  0
   -6.2989    4.3945    0.1599 H   0  0  0  0  0  0  0  0  0  0  0  0
   -4.0651    4.2853   -2.2997 H   0  0  0  0  0  0  0  0  0  0  0  0
   -3.3849    5.4092   -1.0828 H   0  0  0  0  0  0  0  0  0  0  0  0
   -5.1143    5.3520   -1.3813 H   0  0  0  0  0  0  0  0  0  0  0  0
  1  7  1  0  0  0  0
  1 49  1  0  0  0  0
  2 25  2  0  0  0  0
  3 29  1  0  0  0  0
  3 31  1  0  0  0  0
  3 32  1  0  0  0  0
  4  5  1  0  0  0  0
  4  7  1  0  0  0  0
  4  8  1  0  0  0  0
  4 14  1  0  0  0  0
  5  6  1  0  0  0  0
  5  9  1  0  0  0  0
  5 33  1  0  0  0  0
  6 12  1  0  0  0  0
  6 13  1  0  0  0  0
  6 34  1  0  0  0  0
  7 10  1  0  0  0  0
  7 19  1  0  0  0  0
  8 11  1  0  0  0  0
  8 35  1  0  0  0  0
  8 36  1  0  0  0  0
  9 10  1  0  0  0  0
  9 37  1  0  0  0  0
  9 38  1  0  0  0  0
 10 40  1  0  0  0  0
 10 41  1  0  0  0  0
 11 12  1  0  0  0  0
 11 17  1  0  0  0  0
 11 39  1  0  0  0  0
 12 15  2  0  0  0  0
 13 16  1  0  0  0  0
 13 42  1  0  0  0  0
 13 43  1  0  0  0  0
 14 44  1  0  0  0  0
 14 45  1  0  0  0  0
 14 46  1  0  0  0  0
 15 18  1  0  0  0  0
 15 20  1  0  0  0  0
 16 18  1  0  0  0  0
 16 47  1  0  0  0  0
 16 48  1  0  0  0  0
 17 23  2  0  0  0  0
 17 24  1  0  0  0  0
 18 21  2  0  0  0  0
 19 26  3  0  0  0  0
 20 22  1  0  0  0  0
 20 50  1  0  0  0  0
 20 51  1  0  0  0  0
 21 25  1  0  0  0  0
 21 52  1  0  0  0  0
 22 25  1  0  0  0  0
 22 53  1  0  0  0  0
 22 54  1  0  0  0  0
 23 27  1  0  0  0  0
 23 55  1  0  0  0  0
 24 28  2  0  0  0  0
 24 56  1  0  0  0  0
 26 30  1  0  0  0  0
 27 29  2  0  0  0  0
 27 57  1  0  0  0  0
 28 29  1  0  0  0  0
 28 58  1  0  0  0  0
 30 59  1  0  0  0  0
 30 60  1  0  0  0  0
 30 61  1  0  0  0  0
 31 62  1  0  0  0  0
 31 63  1  0  0  0  0
 31 64  1  0  0  0  0
 32 65  1  0  0  0  0
 32 66  1  0  0  0  0
 32 67  1  0  0  0  0
M  END
> <PUBCHEM_COMPOUND_CID>
4196

> <PUBCHEM_CONFORMER_RMSD>
0.8

> <PUBCHEM_CONFORMER_DIVERSEORDER>
4
87
50
40
90
65
63
20
25
74
45
71
52
68
75
83
69
33
94
67
46
62
61
42
85
21
70
76
9
82
18
89
91
49
30
54
55
80
31
34
7
44
11
35
86
22
84
23
19
29
58
5
13
53
77
27
26
12
48
1
2
39
81
6
10
24
73
66
36
41
92
8
47
93
16
56
60
88
17
28
64
15
37
32
51
78
57
79
38
59
3
72
14
43

> <PUBCHEM_MMFF94_PARTIAL_CHARGES>
31
1 -0.68
11 0.28
12 -0.28
15 -0.14
16 0.14
17 -0.14
18 -0.14
19 -0.2
2 -0.57
20 0.14
21 -0.14
22 0.06
23 -0.15
24 -0.15
25 0.49
26 -0.2
27 -0.15
28 -0.15
29 0.1
3 -0.84
30 0.2
31 0.37
32 0.37
49 0.4
52 0.15
55 0.15
56 0.15
57 0.15
58 0.15
6 0.14
7 0.48

> <PUBCHEM_EFFECTIVE_ROTOR_COUNT>
3.8

> <PUBCHEM_PHARMACOPHORE_FEATURES>
10
1 1 acceptor
1 1 donor
1 2 acceptor
1 3 cation
1 30 hydrophobe
5 4 5 7 9 10 rings
6 15 18 20 21 22 25 rings
6 17 23 24 27 28 29 rings
6 4 5 6 8 11 12 rings
6 6 12 13 15 16 18 rings

> <PUBCHEM_HEAVY_ATOM_COUNT>
32

> <PUBCHEM_ATOM_DEF_STEREO_COUNT>
0

> <PUBCHEM_ATOM_UDEF_STEREO_COUNT>
5

> <PUBCHEM_BOND_DEF_STEREO_COUNT>
0

> <PUBCHEM_BOND_UDEF_STEREO_COUNT>
0

> <PUBCHEM_ISOTOPIC_ATOM_COUNT>
0

> <PUBCHEM_COMPONENT_COUNT>
1

> <PUBCHEM_CACTVS_TAUTO_COUNT>
5

> <PUBCHEM_CONFORMER_ID>
0000106400000004

> <PUBCHEM_MMFF94_ENERGY>
107.0141

> <PUBCHEM_FEATURE_SELFOVERLAP>
50.953

> <PUBCHEM_SHAPE_FINGERPRINT>
10074138 170 18195268644761109232
10165383 225 17903875068335703612
10305334 12 16234844987546593386
10675989 125 17972036109055597160
10721379 63 17684090562413356937
10930396 42 16960742367084043008
1100329 8 18190180277432502158
11607047 191 18044965547579892480
11720765 8 17044589401072890533
12160290 23 18116420462604265773
12522641 24 17688011425890574121
12553582 1 17544747933564870734
12608794 3 17841184291544032234
12730499 353 18263353862692775913
12788726 201 17838893733871140300
13004483 165 17689721857332764968
131258 43 10447064247961638152
13134695 92 17328593228619886589
13140716 1 18266182914383726425
13540713 4 17968926506294929804
13692114 37 18412545440161105675
13911987 19 17118843750354899246
13955234 65 17906167705046657625
14022347 108 17474644180353379246
14955137 171 17758114083125495838
15219462 58 18048340876604397320
15230672 131 18410853288336108862
15324884 4 18194934483462925200
15439362 3 18263088876316755520
15775530 1 17897144854957002918
17980427 26 18044955703103360644
1813 80 17472127385104305394
19301679 30 18125437510974183642
20587220 46 14952265858930393505
20600515 1 17325478909543120650
21033648 29 18409163333725816104
21304303 282 18192740919063074341
22149856 69 18053358150543504025
22182313 1 17314493839626551940
23559900 14 17697585951132060981
238 59 18045491173861036557
23845131 108 18410856594448018481
24941158 1 17549852291537132677
3187 122 17903634086194244906
3380486 145 17035312288792698748
3552219 110 17269191662395883828
376196 1 17605018994807713256
3886686 26 18341054120687917290
4058900 60 18189610708560353984
44317340 157 17764873885805485317
44802255 64 16976672284758123758
463206 1 17189527003115090195
469060 322 18339638920309951429
495365 180 18193274319626168213
508180 173 16039997585795050813
508706 21 18188485753862275364
513202 73 18196076756460489858
6669772 16 18188780568827883620
6697151 62 17043190818546509765
7399639 24 18338786918973568337
81228 2 17973996259087783254
9896288 288 18268720420234062658

> <PUBCHEM_SHAPE_MULTIPOLES>
641.83
8.47
7.91
2.04
1.05
9.84
0.18
-15
2.33
8.08
1.89
-1.15
0.55
3.72

> <PUBCHEM_SHAPE_SELFOVERLAP>
1390.868

> <PUBCHEM_SHAPE_VOLUME>
349.5

> <PUBCHEM_COORDINATE_TYPE>
2
5
10

$$$$

