582823
  -OEChem-06241222442D

 24 23  0     0  0  0  0  0  0999 V2000
    4.5981    0.3840    0.0000 Si  0  0  0  0  0  0  0  0  0  0  0  0
    5.0981   -0.4821    0.0000 C   0  0  0  0  0  0  0  0  0  0  0  0
    4.0981    1.2500    0.0000 C   0  0  0  0  0  0  0  0  0  0  0  0
    5.4641    0.8840    0.0000 C   0  0  0  0  0  0  0  0  0  0  0  0
    3.7320   -0.1160    0.0000 C   0  0  0  0  0  0  0  0  0  0  0  0
    4.5981    2.1160    0.0000 C   0  0  0  0  0  0  0  0  0  0  0  0
    6.3301    1.3840    0.0000 C   0  0  0  0  0  0  0  0  0  0  0  0
    2.8660   -0.6160    0.0000 C   0  0  0  0  0  0  0  0  0  0  0  0
    7.1962    1.8840    0.0000 C   0  0  0  0  0  0  0  0  0  0  0  0
    2.0000   -1.1160    0.0000 C   0  0  0  0  0  0  0  0  0  0  0  0
    8.0622    1.3840    0.0000 C   0  0  0  0  0  0  0  0  0  0  0  0
    2.0000   -2.1160    0.0000 C   0  0  0  0  0  0  0  0  0  0  0  0
    4.5611   -0.7921    0.0000 H   0  0  0  0  0  0  0  0  0  0  0  0
    5.4081   -1.0190    0.0000 H   0  0  0  0  0  0  0  0  0  0  0  0
    5.6350   -0.1721    0.0000 H   0  0  0  0  0  0  0  0  0  0  0  0
    3.4781    1.2500    0.0000 H   0  0  0  0  0  0  0  0  0  0  0  0
    5.2181    2.1160    0.0000 H   0  0  0  0  0  0  0  0  0  0  0  0
    4.2881    2.6530    0.0000 H   0  0  0  0  0  0  0  0  0  0  0  0
    7.1962    2.5040    0.0000 H   0  0  0  0  0  0  0  0  0  0  0  0
    1.4631   -0.8060    0.0000 H   0  0  0  0  0  0  0  0  0  0  0  0
    8.0622    0.7640    0.0000 H   0  0  0  0  0  0  0  0  0  0  0  0
    8.5991    1.6940    0.0000 H   0  0  0  0  0  0  0  0  0  0  0  0
    1.4631   -2.4260    0.0000 H   0  0  0  0  0  0  0  0  0  0  0  0
    2.5369   -2.4260    0.0000 H   0  0  0  0  0  0  0  0  0  0  0  0
  1  2  1  0  0  0  0
  1  3  1  0  0  0  0
  1  4  1  0  0  0  0
  1  5  1  0  0  0  0
  2 13  1  0  0  0  0
  2 14  1  0  0  0  0
  2 15  1  0  0  0  0
  3  6  2  0  0  0  0
  3 16  1  0  0  0  0
  4  7  3  0  0  0  0
  5  8  3  0  0  0  0
  6 17  1  0  0  0  0
  6 18  1  0  0  0  0
  7  9  1  0  0  0  0
  8 10  1  0  0  0  0
  9 11  2  0  0  0  0
  9 19  1  0  0  0  0
 10 12  2  0  0  0  0
 10 20  1  0  0  0  0
 11 21  1  0  0  0  0
 11 22  1  0  0  0  0
 12 23  1  0  0  0  0
 12 24  1  0  0  0  0
M  END
> <PUBCHEM_COMPOUND_CID>
582823

> <PUBCHEM_COMPOUND_CANONICALIZED>
1

> <PUBCHEM_CACTVS_COMPLEXITY>
293

> <PUBCHEM_CACTVS_HBOND_ACCEPTOR>
0

> <PUBCHEM_CACTVS_HBOND_DONOR>
0

> <PUBCHEM_CACTVS_ROTATABLE_BOND>
3

> <PUBCHEM_CACTVS_SUBSKEYS>
AAADccBwAAgAAAAAAAAAAAAAAAAAAAAAAAAAAAAAAAAAAAAAAAAAGBAAAAAACACAIABCAAAAAAHAECBCAAAAAAAAAAAIAAAAAAAAAAAAAAAAAAAAAAAAAAAAAAAAAAAAAAAAAAAAAAAAAAAAAAAAAAAAAA==

> <PUBCHEM_IUPAC_OPENEYE_NAME>
bis(but-3-en-1-ynyl)-methyl-vinyl-silane

> <PUBCHEM_IUPAC_CAS_NAME>
bis(but-3-en-1-ynyl)-ethenyl-methylsilane

> <PUBCHEM_IUPAC_NAME>
bis(but-3-en-1-ynyl)-ethenyl-methylsilane

> <PUBCHEM_IUPAC_SYSTEMATIC_NAME>
bis(but-3-en-1-ynyl)-ethenyl-methyl-silane

> <PUBCHEM_IUPAC_TRADITIONAL_NAME>
bis(but-3-en-1-ynyl)-methyl-vinyl-silane

> <PUBCHEM_IUPAC_INCHI>
InChI=1S/C11H12Si/c1-5-8-10-12(4,7-3)11-9-6-2/h5-7H,1-3H2,4H3

> <PUBCHEM_IUPAC_INCHIKEY>
FXMVQDSIQMFNGL-UHFFFAOYSA-N

> <PUBCHEM_EXACT_MASS>
172.070827

> <PUBCHEM_MOLECULAR_FORMULA>
C11H12Si

> <PUBCHEM_MOLECULAR_WEIGHT>
172.29848

> <PUBCHEM_OPENEYE_CAN_SMILES>
C[Si](C=C)(C#CC=C)C#CC=C

> <PUBCHEM_OPENEYE_ISO_SMILES>
C[Si](C=C)(C#CC=C)C#CC=C

> <PUBCHEM_CACTVS_TPSA>
0

> <PUBCHEM_MONOISOTOPIC_WEIGHT>
172.070827

> <PUBCHEM_TOTAL_CHARGE>
0

> <PUBCHEM_HEAVY_ATOM_COUNT>
12

> <PUBCHEM_ATOM_DEF_STEREO_COUNT>
0

> <PUBCHEM_ATOM_UDEF_STEREO_COUNT>
0

> <PUBCHEM_BOND_DEF_STEREO_COUNT>
0

> <PUBCHEM_BOND_UDEF_STEREO_COUNT>
0

> <PUBCHEM_ISOTOPIC_ATOM_COUNT>
0

> <PUBCHEM_COMPONENT_COUNT>
1

> <PUBCHEM_CACTVS_TAUTO_COUNT>
1

> <PUBCHEM_COORDINATE_TYPE>
1
5
255

$$$$

