46173779
  -OEChem-07051212562D

 64 69  0     1  0  0  0  0  0999 V2000
    2.7246    0.7107    0.0000 O   0  0  0  0  0  0  0  0  0  0  0  0
    4.1906    1.6107    0.0000 O   0  0  0  0  0  0  0  0  0  0  0  0
    3.7028   -1.3208    0.0000 O   0  0  0  0  0  0  0  0  0  0  0  0
    3.2247    1.0696    0.0000 O   0  0  0  0  0  0  0  0  0  0  0  0
    7.9450    1.0312    0.0000 O   0  0  0  0  0  0  0  0  0  0  0  0
    9.8422    1.0488    0.0000 O   0  0  0  0  0  0  0  0  0  0  0  0
    4.5515   -2.8307    0.0000 O   0  0  0  0  0  0  0  0  0  0  0  0
    3.6730    2.7425    0.0000 O   0  0  0  0  0  0  0  0  0  0  0  0
    4.5906    0.2107    0.0000 C   0  0  3  0  0  0  0  0  0  0  0  0
    3.7246    0.7107    0.0000 C   0  0  1  0  0  0  0  0  0  0  0  0
    5.4567    0.7107    0.0000 C   0  0  1  0  0  0  0  0  0  0  0  0
    6.3667    0.2038    0.0000 C   0  0  2  0  0  0  0  0  0  0  0  0
    4.5746   -0.8308    0.0000 C   0  0  2  0  0  0  0  0  0  0  0  0
    3.7246    1.7107    0.0000 C   0  0  0  0  0  0  0  0  0  0  0  0
    5.4567    1.7107    0.0000 C   0  0  0  0  0  0  0  0  0  0  0  0
    4.5906    2.2107    0.0000 C   0  0  1  0  0  0  0  0  0  0  0  0
    4.1906    0.8107    0.0000 C   0  0  2  0  0  0  0  0  0  0  0  0
    6.3747   -0.8378    0.0000 C   0  0  1  0  0  0  0  0  0  0  0  0
    3.2246   -0.1553    0.0000 C   0  0  0  0  0  0  0  0  0  0  0  0
    5.4726   -1.3586    0.0000 C   0  0  0  0  0  0  0  0  0  0  0  0
    7.3666    0.2154    0.0000 C   0  0  2  0  0  0  0  0  0  0  0  0
    6.8566    1.0756    0.0000 C   0  0  0  0  0  0  0  0  0  0  0  0
    7.9637   -0.5868    0.0000 C   0  0  0  0  0  0  0  0  0  0  0  0
    7.2426   -1.3344    0.0000 C   0  0  0  0  0  0  0  0  0  0  0  0
    8.9111   -0.2668    0.0000 C   0  0  2  0  0  0  0  0  0  0  0  0
    8.8996    0.7332    0.0000 C   0  0  2  0  0  0  0  0  0  0  0  0
    3.6913   -2.3207    0.0000 C   0  0  0  0  0  0  0  0  0  0  0  0
    9.8608   -0.5605    0.0000 C   0  0  0  0  0  0  0  0  0  0  0  0
    2.9660    2.0355    0.0000 C   0  0  0  0  0  0  0  0  0  0  0  0
   10.4351    0.2509    0.0000 C   0  0  0  0  0  0  0  0  0  0  0  0
    2.8195   -2.8107    0.0000 C   0  0  0  0  0  0  0  0  0  0  0  0
    2.0000    2.2943    0.0000 C   0  0  0  0  0  0  0  0  0  0  0  0
    6.1928    1.1357    0.0000 H   0  0  0  0  0  0  0  0  0  0  0  0
    4.0419   -0.5136    0.0000 H   0  0  0  0  0  0  0  0  0  0  0  0
    3.5126    2.2933    0.0000 H   0  0  0  0  0  0  0  0  0  0  0  0
    3.1140    1.6030    0.0000 H   0  0  0  0  0  0  0  0  0  0  0  0
    6.0672    1.6030    0.0000 H   0  0  0  0  0  0  0  0  0  0  0  0
    5.6687    2.2933    0.0000 H   0  0  0  0  0  0  0  0  0  0  0  0
    4.5906    3.0607    0.0000 H   0  0  0  0  0  0  0  0  0  0  0  0
    3.8292    0.3069    0.0000 H   0  0  0  0  0  0  0  0  0  0  0  0
    6.3759   -1.4578    0.0000 H   0  0  0  0  0  0  0  0  0  0  0  0
    2.7497   -0.5539    0.0000 H   0  0  0  0  0  0  0  0  0  0  0  0
    3.6996   -0.5539    0.0000 H   0  0  0  0  0  0  0  0  0  0  0  0
    5.0717   -1.8315    0.0000 H   0  0  0  0  0  0  0  0  0  0  0  0
    5.8699   -1.8345    0.0000 H   0  0  0  0  0  0  0  0  0  0  0  0
    6.9895   -0.5464    0.0000 H   0  0  0  0  0  0  0  0  0  0  0  0
    7.3971    0.7718    0.0000 H   0  0  0  0  0  0  0  0  0  0  0  0
    7.1604    1.6161    0.0000 H   0  0  0  0  0  0  0  0  0  0  0  0
    6.3161    1.3794    0.0000 H   0  0  0  0  0  0  0  0  0  0  0  0
    7.4304   -0.9030    0.0000 H   0  0  0  0  0  0  0  0  0  0  0  0
    8.2224   -1.1502    0.0000 H   0  0  0  0  0  0  0  0  0  0  0  0
    6.9347   -1.8725    0.0000 H   0  0  0  0  0  0  0  0  0  0  0  0
    7.7808   -1.6424    0.0000 H   0  0  0  0  0  0  0  0  0  0  0  0
    7.5506   -0.7963    0.0000 H   0  0  0  0  0  0  0  0  0  0  0  0
    8.9221   -1.1167    0.0000 H   0  0  0  0  0  0  0  0  0  0  0  0
    8.8908    1.5831    0.0000 H   0  0  0  0  0  0  0  0  0  0  0  0
   10.0602   -1.1476    0.0000 H   0  0  0  0  0  0  0  0  0  0  0  0
   11.0550    0.2581    0.0000 H   0  0  0  0  0  0  0  0  0  0  0  0
    2.5158   -2.2702    0.0000 H   0  0  0  0  0  0  0  0  0  0  0  0
    2.2790   -3.1144    0.0000 H   0  0  0  0  0  0  0  0  0  0  0  0
    3.1233   -3.3511    0.0000 H   0  0  0  0  0  0  0  0  0  0  0  0
    2.1605    2.8932    0.0000 H   0  0  0  0  0  0  0  0  0  0  0  0
    1.4011    2.4548    0.0000 H   0  0  0  0  0  0  0  0  0  0  0  0
    1.8395    1.6954    0.0000 H   0  0  0  0  0  0  0  0  0  0  0  0
 10  1  1  6  0  0  0
  1 19  1  0  0  0  0
  2 16  1  0  0  0  0
  2 17  1  0  0  0  0
  3 13  1  0  0  0  0
  3 27  1  0  0  0  0
 17  4  1  1  0  0  0
  4 29  1  0  0  0  0
  5 21  1  0  0  0  0
  5 26  1  0  0  0  0
  6 26  1  0  0  0  0
  6 30  1  0  0  0  0
  7 27  2  0  0  0  0
  8 29  2  0  0  0  0
  9 10  1  0  0  0  0
  9 11  1  0  0  0  0
  9 13  1  0  0  0  0
  9 17  1  0  0  0  0
 10 14  1  0  0  0  0
 10 19  1  0  0  0  0
 11 12  1  0  0  0  0
 11 15  1  0  0  0  0
 11 33  1  1  0  0  0
 12 18  1  0  0  0  0
 12 21  1  0  0  0  0
 12 22  1  6  0  0  0
 13 20  1  0  0  0  0
 13 34  1  0  0  0  0
 14 16  1  0  0  0  0
 14 35  1  0  0  0  0
 14 36  1  0  0  0  0
 15 16  1  0  0  0  0
 15 37  1  0  0  0  0
 15 38  1  0  0  0  0
 16 39  1  6  0  0  0
 17 40  1  0  0  0  0
 18 20  1  0  0  0  0
 18 24  1  6  0  0  0
 18 41  1  0  0  0  0
 19 42  1  0  0  0  0
 19 43  1  0  0  0  0
 20 44  1  0  0  0  0
 20 45  1  0  0  0  0
 21 23  1  0  0  0  0
 21 46  1  6  0  0  0
 22 47  1  0  0  0  0
 22 48  1  0  0  0  0
 22 49  1  0  0  0  0
 23 25  1  0  0  0  0
 23 50  1  0  0  0  0
 23 51  1  0  0  0  0
 24 52  1  0  0  0  0
 24 53  1  0  0  0  0
 24 54  1  0  0  0  0
 25 26  1  0  0  0  0
 25 28  1  0  0  0  0
 25 55  1  1  0  0  0
 26 56  1  1  0  0  0
 27 31  1  0  0  0  0
 28 30  2  0  0  0  0
 28 57  1  0  0  0  0
 29 32  1  0  0  0  0
 30 58  1  0  0  0  0
 31 59  1  0  0  0  0
 31 60  1  0  0  0  0
 31 61  1  0  0  0  0
 32 62  1  0  0  0  0
 32 63  1  0  0  0  0
 32 64  1  0  0  0  0
M  END
> <PUBCHEM_COMPOUND_CID>
46173779

> <PUBCHEM_COMPOUND_CANONICALIZED>
1

> <PUBCHEM_CACTVS_COMPLEXITY>
872

> <PUBCHEM_CACTVS_HBOND_ACCEPTOR>
8

> <PUBCHEM_CACTVS_HBOND_DONOR>
0

> <PUBCHEM_CACTVS_ROTATABLE_BOND>
5

> <PUBCHEM_CACTVS_SUBSKEYS>
AAADcfB4PAAAAAAAAAAAAAAAEgAAASIAAAA0aIEAAAAQAADQAAAAGgAAAAAAD1SwgAMCCAAABACIACDSCAAACAAgIAAIAAAAAAgQAAIAAQAiAAAFwAAEAAHA4PwPgAAAAAAAAADAAAYQADAAAAAAAAAAAA==

> <PUBCHEM_IUPAC_INCHI>
InChI=1S/C24H32O8/c1-12-7-19(29-13(2)25)24-17(22(12,4)18-8-15-5-6-27-20(15)32-18)9-16(10-23(24)11-28-23)31-21(24)30-14(3)26/h5-6,12,15-21H,7-11H2,1-4H3/t12-,15-,16-,17-,18+,19+,20+,21+,22+,23+,24?/m1/s1

> <PUBCHEM_IUPAC_INCHIKEY>
CEUOLEQPGHORRY-HKIGURNISA-N

> <PUBCHEM_XLOGP3_AA>
2.5

> <PUBCHEM_EXACT_MASS>
448.209718

> <PUBCHEM_MOLECULAR_FORMULA>
C24H32O8

> <PUBCHEM_MOLECULAR_WEIGHT>
448.50608

> <PUBCHEM_OPENEYE_CAN_SMILES>
CC1CC(C23C(C1(C)C4CC5C=COC5O4)CC(CC26CO6)OC3OC(=O)C)OC(=O)C

> <PUBCHEM_OPENEYE_ISO_SMILES>
C[C@@H]1C[C@@H](C23[C@@H]([C@@]1(C)[C@@H]4C[C@H]5C=CO[C@H]5O4)C[C@H](C[C@]26CO6)O[C@@H]3OC(=O)C)OC(=O)C

> <PUBCHEM_CACTVS_TPSA>
92.8

> <PUBCHEM_MONOISOTOPIC_WEIGHT>
448.209718

> <PUBCHEM_TOTAL_CHARGE>
0

> <PUBCHEM_HEAVY_ATOM_COUNT>
32

> <PUBCHEM_ATOM_DEF_STEREO_COUNT>
10

> <PUBCHEM_ATOM_UDEF_STEREO_COUNT>
1

> <PUBCHEM_BOND_DEF_STEREO_COUNT>
0

> <PUBCHEM_BOND_UDEF_STEREO_COUNT>
0

> <PUBCHEM_ISOTOPIC_ATOM_COUNT>
0

> <PUBCHEM_COMPONENT_COUNT>
1

> <PUBCHEM_CACTVS_TAUTO_COUNT>
1

> <PUBCHEM_COORDINATE_TYPE>
1
5
255

> <PUBCHEM_BONDANNOTATIONS>
10  1  6
11  33  5
12  22  6
16  39  6
18  24  6
21  46  6
25  55  5
26  56  5
17  4  5
9  13  3

$$$$

