5280569
  -OEChem-07051212483D

 19 20  0     0  0  0  0  0  0999 V2000
   -1.2094    1.0756   -0.0002 O   0  0  0  0  0  0  0  0  0  0  0  0
    1.2744    2.2384   -0.0003 O   0  0  0  0  0  0  0  0  0  0  0  0
    3.5657    0.6731    0.0005 O   0  0  0  0  0  0  0  0  0  0  0  0
   -3.4934    1.2441    0.0004 O   0  0  0  0  0  0  0  0  0  0  0  0
   -0.1858   -1.1329   -0.0001 C   0  0  0  0  0  0  0  0  0  0  0  0
   -0.0635    0.2541   -0.0001 C   0  0  0  0  0  0  0  0  0  0  0  0
    1.1813    0.8802   -0.0001 C   0  0  0  0  0  0  0  0  0  0  0  0
    0.9729   -1.9127   -0.0002 C   0  0  0  0  0  0  0  0  0  0  0  0
    2.3320    0.0949    0.0002 C   0  0  0  0  0  0  0  0  0  0  0  0
   -1.5153   -1.7191    0.0000 C   0  0  0  0  0  0  0  0  0  0  0  0
    2.2285   -1.2981   -0.0001 C   0  0  0  0  0  0  0  0  0  0  0  0
   -2.5956   -0.9343    0.0002 C   0  0  0  0  0  0  0  0  0  0  0  0
   -2.4919    0.5368   -0.0002 C   0  0  0  0  0  0  0  0  0  0  0  0
    0.9141   -2.9983   -0.0002 H   0  0  0  0  0  0  0  0  0  0  0  0
   -1.6147   -2.7989    0.0003 H   0  0  0  0  0  0  0  0  0  0  0  0
    3.1203   -1.9196    0.0000 H   0  0  0  0  0  0  0  0  0  0  0  0
   -3.5912   -1.3645    0.0005 H   0  0  0  0  0  0  0  0  0  0  0  0
    0.3741    2.6073   -0.0006 H   0  0  0  0  0  0  0  0  0  0  0  0
    4.2428   -0.0251    0.0006 H   0  0  0  0  0  0  0  0  0  0  0  0
  1  6  1  0  0  0  0
  1 13  1  0  0  0  0
  2  7  1  0  0  0  0
  2 18  1  0  0  0  0
  3  9  1  0  0  0  0
  3 19  1  0  0  0  0
  4 13  2  0  0  0  0
  5  6  2  0  0  0  0
  5  8  1  0  0  0  0
  5 10  1  0  0  0  0
  6  7  1  0  0  0  0
  7  9  2  0  0  0  0
  8 11  2  0  0  0  0
  8 14  1  0  0  0  0
  9 11  1  0  0  0  0
 10 12  2  0  0  0  0
 10 15  1  0  0  0  0
 11 16  1  0  0  0  0
 12 13  1  0  0  0  0
 12 17  1  0  0  0  0
M  END
> <PUBCHEM_COMPOUND_CID>
5280569

> <PUBCHEM_CONFORMER_RMSD>
0.4

> <PUBCHEM_CONFORMER_DIVERSEORDER>
1

> <PUBCHEM_MMFF94_PARTIAL_CHARGES>
19
1 -0.23
10 -0.18
11 -0.15
12 -0.14
13 0.71
14 0.15
15 0.15
16 0.15
17 0.15
18 0.45
19 0.45
2 -0.53
3 -0.53
4 -0.57
5 0.03
6 0.08
7 0.08
8 -0.15
9 0.08

> <PUBCHEM_EFFECTIVE_ROTOR_COUNT>
0

> <PUBCHEM_PHARMACOPHORE_FEATURES>
5
1 2 donor
1 3 donor
1 4 acceptor
6 1 5 6 10 12 13 rings
6 5 6 7 8 9 11 rings

> <PUBCHEM_HEAVY_ATOM_COUNT>
13

> <PUBCHEM_ATOM_DEF_STEREO_COUNT>
0

> <PUBCHEM_ATOM_UDEF_STEREO_COUNT>
0

> <PUBCHEM_BOND_DEF_STEREO_COUNT>
0

> <PUBCHEM_BOND_UDEF_STEREO_COUNT>
0

> <PUBCHEM_ISOTOPIC_ATOM_COUNT>
0

> <PUBCHEM_COMPONENT_COUNT>
1

> <PUBCHEM_CACTVS_TAUTO_COUNT>
10

> <PUBCHEM_CONFORMER_ID>
0050933900000001

> <PUBCHEM_MMFF94_ENERGY>
39.1444

> <PUBCHEM_FEATURE_SELFOVERLAP>
25.404

> <PUBCHEM_SHAPE_FINGERPRINT>
10608611 8 18410858741594251065
10967382 1 18338797934830809607
11132069 177 18410580595533394232
11206711 2 18339078172867644894
11471102 20 18338803419936660877
12382932 28 18409732884599898602
12524768 44 18191299579625876503
13380535 21 18339348738690876175
13380535 76 18411141341894688711
13897977 150 18410859858449077013
14144814 61 18410575106338408107
14325111 11 18410575088973883457
14897335 6 18409736179013965639
15775835 57 18413385449337200077
16945 1 18338798901182945255
17990270 104 18410011039593613674
193761 8 17545883728843689348
19973954 147 18339078185931868403
20201158 50 18410294713572285999
21501502 16 18411986857704270391
2334 1 18050567348268216685
23402655 69 18263375818844603133
23463225 33 18342181102551354450
23552423 10 18341895130321826703
23559900 14 18334006182739708092
2748010 2 17473542452100173398
5084963 1 18042400227436613354
528886 8 18410298020675894634
53812653 166 18335144180677840928
7364860 26 18262519337572401926

> <PUBCHEM_SHAPE_MULTIPOLES>
244.06
4.64
2.04
0.59
0.62
0.02
0
-1.08
0
-0.12
0
0
0.04
0

> <PUBCHEM_SHAPE_SELFOVERLAP>
536.937

> <PUBCHEM_SHAPE_VOLUME>
131.1

> <PUBCHEM_COORDINATE_TYPE>
2
5
10

$$$$

