236665
  -OEChem-07051213062D

 55 58  0     1  0  0  0  0  0999 V2000
    9.5141    2.5899    0.0000 O   0  0  0  0  0  0  0  0  0  0  0  0
    2.8602   -2.7177    0.0000 O   0  0  0  0  0  0  0  0  0  0  0  0
    7.3912   -0.1654    0.0000 C   0  0  2  0  0  0  0  0  0  0  0  0
    6.5251    0.3346    0.0000 C   0  0  1  0  0  0  0  0  0  0  0  0
    8.2572    0.3346    0.0000 C   0  0  1  0  0  0  0  0  0  0  0  0
    8.2572    1.3346    0.0000 C   0  0  2  0  0  0  0  0  0  0  0  0
    5.6151   -0.1722    0.0000 C   0  0  2  0  0  0  0  0  0  0  0  0
    6.5251    1.3346    0.0000 C   0  0  0  0  0  0  0  0  0  0  0  0
    5.6071   -1.2138    0.0000 C   0  0  1  0  0  0  0  0  0  0  0  0
    7.3912    1.8346    0.0000 C   0  0  0  0  0  0  0  0  0  0  0  0
    7.4072   -1.2069    0.0000 C   0  0  0  0  0  0  0  0  0  0  0  0
    9.2034    0.0299    0.0000 C   0  0  0  0  0  0  0  0  0  0  0  0
    9.2034    1.6393    0.0000 C   0  0  2  0  0  0  0  0  0  0  0  0
    6.5092   -1.7346    0.0000 C   0  0  0  0  0  0  0  0  0  0  0  0
    9.7870    0.8346    0.0000 C   0  0  0  0  0  0  0  0  0  0  0  0
    4.6883    0.3918    0.0000 C   0  0  0  0  0  0  0  0  0  0  0  0
    8.2572    2.3346    0.0000 C   0  0  0  0  0  0  0  0  0  0  0  0
    5.6228    0.8277    0.0000 C   0  0  0  0  0  0  0  0  0  0  0  0
    4.6717   -1.7636    0.0000 C   0  0  0  0  0  0  0  0  0  0  0  0
    3.7404   -0.1361    0.0000 C   0  0  0  0  0  0  0  0  0  0  0  0
    3.7320   -1.2211    0.0000 C   0  0  0  0  0  0  0  0  0  0  0  0
    2.8641   -1.7177    0.0000 C   0  0  0  0  0  0  0  0  0  0  0  0
    2.0000   -1.2144    0.0000 C   0  0  0  0  0  0  0  0  0  0  0  0
    8.1305   -0.5847    0.0000 H   0  0  0  0  0  0  0  0  0  0  0  0
    7.2612    0.7596    0.0000 H   0  0  0  0  0  0  0  0  0  0  0  0
    8.3471   -0.5106    0.0000 H   0  0  0  0  0  0  0  0  0  0  0  0
    6.3131    1.9172    0.0000 H   0  0  0  0  0  0  0  0  0  0  0  0
    5.9145    1.2270    0.0000 H   0  0  0  0  0  0  0  0  0  0  0  0
    5.6104   -2.0638    0.0000 H   0  0  0  0  0  0  0  0  0  0  0  0
    7.7897    2.3096    0.0000 H   0  0  0  0  0  0  0  0  0  0  0  0
    6.9926    2.3096    0.0000 H   0  0  0  0  0  0  0  0  0  0  0  0
    7.6252   -1.7873    0.0000 H   0  0  0  0  0  0  0  0  0  0  0  0
    8.0164   -1.0914    0.0000 H   0  0  0  0  0  0  0  0  0  0  0  0
    8.9524   -0.5370    0.0000 H   0  0  0  0  0  0  0  0  0  0  0  0
    9.7408   -0.2794    0.0000 H   0  0  0  0  0  0  0  0  0  0  0  0
    9.8159    1.7355    0.0000 H   0  0  0  0  0  0  0  0  0  0  0  0
    6.1119   -2.2106    0.0000 H   0  0  0  0  0  0  0  0  0  0  0  0
    6.9101   -2.2076    0.0000 H   0  0  0  0  0  0  0  0  0  0  0  0
   10.2479    0.4199    0.0000 H   0  0  0  0  0  0  0  0  0  0  0  0
   10.2479    1.2493    0.0000 H   0  0  0  0  0  0  0  0  0  0  0  0
    5.0965    0.8585    0.0000 H   0  0  0  0  0  0  0  0  0  0  0  0
    4.2984    0.8739    0.0000 H   0  0  0  0  0  0  0  0  0  0  0  0
    8.8772    2.3346    0.0000 H   0  0  0  0  0  0  0  0  0  0  0  0
    8.2572    2.9546    0.0000 H   0  0  0  0  0  0  0  0  0  0  0  0
    7.6372    2.3346    0.0000 H   0  0  0  0  0  0  0  0  0  0  0  0
    6.2428    0.8230    0.0000 H   0  0  0  0  0  0  0  0  0  0  0  0
    5.6276    1.4477    0.0000 H   0  0  0  0  0  0  0  0  0  0  0  0
    5.0028    0.8325    0.0000 H   0  0  0  0  0  0  0  0  0  0  0  0
    4.2744   -2.2395    0.0000 H   0  0  0  0  0  0  0  0  0  0  0  0
    5.0726   -2.2365    0.0000 H   0  0  0  0  0  0  0  0  0  0  0  0
    3.2071    0.1801    0.0000 H   0  0  0  0  0  0  0  0  0  0  0  0
   10.1207    2.7177    0.0000 H   0  0  0  0  0  0  0  0  0  0  0  0
    2.3121   -0.6787    0.0000 H   0  0  0  0  0  0  0  0  0  0  0  0
    1.4643   -0.9023    0.0000 H   0  0  0  0  0  0  0  0  0  0  0  0
    1.6879   -1.7501    0.0000 H   0  0  0  0  0  0  0  0  0  0  0  0
 13  1  1  1  0  0  0
  1 52  1  0  0  0  0
  2 22  2  0  0  0  0
  3  4  1  0  0  0  0
  3  5  1  0  0  0  0
  3 11  1  0  0  0  0
  3 24  1  1  0  0  0
  4  7  1  0  0  0  0
  4  8  1  0  0  0  0
  4 25  1  6  0  0  0
  5  6  1  0  0  0  0
  5 12  1  0  0  0  0
  5 26  1  6  0  0  0
  6 10  1  0  0  0  0
  6 13  1  0  0  0  0
  6 17  1  1  0  0  0
  7  9  1  0  0  0  0
  7 16  1  0  0  0  0
  7 18  1  1  0  0  0
  8 10  1  0  0  0  0
  8 27  1  0  0  0  0
  8 28  1  0  0  0  0
  9 14  1  0  0  0  0
  9 19  1  0  0  0  0
  9 29  1  6  0  0  0
 10 30  1  0  0  0  0
 10 31  1  0  0  0  0
 11 14  1  0  0  0  0
 11 32  1  0  0  0  0
 11 33  1  0  0  0  0
 12 15  1  0  0  0  0
 12 34  1  0  0  0  0
 12 35  1  0  0  0  0
 13 15  1  0  0  0  0
 13 36  1  0  0  0  0
 14 37  1  0  0  0  0
 14 38  1  0  0  0  0
 15 39  1  0  0  0  0
 15 40  1  0  0  0  0
 16 20  1  0  0  0  0
 16 41  1  0  0  0  0
 16 42  1  0  0  0  0
 17 43  1  0  0  0  0
 17 44  1  0  0  0  0
 17 45  1  0  0  0  0
 18 46  1  0  0  0  0
 18 47  1  0  0  0  0
 18 48  1  0  0  0  0
 19 21  1  0  0  0  0
 19 49  1  0  0  0  0
 19 50  1  0  0  0  0
 20 21  2  0  0  0  0
 20 51  1  0  0  0  0
 21 22  1  0  0  0  0
 22 23  1  0  0  0  0
 23 53  1  0  0  0  0
 23 54  1  0  0  0  0
 23 55  1  0  0  0  0
M  END
> <PUBCHEM_COMPOUND_CID>
236665

> <PUBCHEM_COMPOUND_CANONICALIZED>
1

> <PUBCHEM_CACTVS_COMPLEXITY>
550

> <PUBCHEM_CACTVS_HBOND_ACCEPTOR>
2

> <PUBCHEM_CACTVS_HBOND_DONOR>
1

> <PUBCHEM_CACTVS_ROTATABLE_BOND>
1

> <PUBCHEM_CACTVS_SUBSKEYS>
AAADcfB4MAAAAAAAAAAAAAAAAAAAAYAAAAAwYIAAAAAAAGDAAAAAGgAACAAADxSggAICAAAAAgCIAqBSAAAAAAAgAAAACAEAAEgAEBIAAQAAQAAEgAAIAYOIyPCPgAAAAAAAAACAAAQAACAAAIAADAAAAA==

> <PUBCHEM_IUPAC_OPENEYE_NAME>
1-[(5S,8R,9S,10S,13S,14S,17S)-17-hydroxy-10,13-dimethyl-4,5,6,7,8,9,11,12,14,15,16,17-dodecahydro-1H-cyclopenta[a]phenanthren-3-yl]ethanone

> <PUBCHEM_IUPAC_CAS_NAME>
1-[(5S,8R,9S,10S,13S,14S,17S)-17-hydroxy-10,13-dimethyl-4,5,6,7,8,9,11,12,14,15,16,17-dodecahydro-1H-cyclopenta[a]phenanthren-3-yl]ethanone

> <PUBCHEM_IUPAC_NAME>
1-[(5S,8R,9S,10S,13S,14S,17S)-17-hydroxy-10,13-dimethyl-4,5,6,7,8,9,11,12,14,15,16,17-dodecahydro-1H-cyclopenta[a]phenanthren-3-yl]ethanone

> <PUBCHEM_IUPAC_SYSTEMATIC_NAME>
1-[(5S,8R,9S,10S,13S,14S,17S)-10,13-dimethyl-17-oxidanyl-4,5,6,7,8,9,11,12,14,15,16,17-dodecahydro-1H-cyclopenta[a]phenanthren-3-yl]ethanone

> <PUBCHEM_IUPAC_TRADITIONAL_NAME>
1-[(5S,8R,9S,10S,13S,14S,17S)-17-hydroxy-10,13-dimethyl-4,5,6,7,8,9,11,12,14,15,16,17-dodecahydro-1H-cyclopenta[a]phenanthren-3-yl]ethanone

> <PUBCHEM_IUPAC_INCHI>
InChI=1S/C21H32O2/c1-13(22)14-8-10-20(2)15(12-14)4-5-16-17-6-7-19(23)21(17,3)11-9-18(16)20/h8,15-19,23H,4-7,9-12H2,1-3H3/t15-,16-,17-,18-,19-,20-,21-/m0/s1

> <PUBCHEM_IUPAC_INCHIKEY>
WMGRPBXJTKDUHJ-BPSSIEEOSA-N

> <PUBCHEM_XLOGP3>
4.5

> <PUBCHEM_EXACT_MASS>
316.24023

> <PUBCHEM_MOLECULAR_FORMULA>
C21H32O2

> <PUBCHEM_MOLECULAR_WEIGHT>
316.47758

> <PUBCHEM_OPENEYE_CAN_SMILES>
CC(=O)C1=CCC2(C(C1)CCC3C2CCC4(C3CCC4O)C)C

> <PUBCHEM_OPENEYE_ISO_SMILES>
CC(=O)C1=CC[C@]2([C@H](C1)CC[C@@H]3[C@@H]2CC[C@]4([C@H]3CC[C@@H]4O)C)C

> <PUBCHEM_CACTVS_TPSA>
37.3

> <PUBCHEM_MONOISOTOPIC_WEIGHT>
316.24023

> <PUBCHEM_TOTAL_CHARGE>
0

> <PUBCHEM_HEAVY_ATOM_COUNT>
23

> <PUBCHEM_ATOM_DEF_STEREO_COUNT>
7

> <PUBCHEM_ATOM_UDEF_STEREO_COUNT>
0

> <PUBCHEM_BOND_DEF_STEREO_COUNT>
0

> <PUBCHEM_BOND_UDEF_STEREO_COUNT>
0

> <PUBCHEM_ISOTOPIC_ATOM_COUNT>
0

> <PUBCHEM_COMPONENT_COUNT>
1

> <PUBCHEM_CACTVS_TAUTO_COUNT>
5

> <PUBCHEM_COORDINATE_TYPE>
1
5
255

> <PUBCHEM_BONDANNOTATIONS>
13  1  5
3  24  5
4  25  6
5  26  6
6  17  5
7  18  5
9  29  6

$$$$

