101788
  -OEChem-07051212503D

 54 57  0     1  0  0  0  0  0999 V2000
   -0.2319    2.0469   -1.3083 O   0  0  0  0  0  0  0  0  0  0  0  0
   -5.5429    0.1379   -0.4966 O   0  0  0  0  0  0  0  0  0  0  0  0
    6.0456    0.0510    1.2123 O   0  0  0  0  0  0  0  0  0  0  0  0
   -1.4133   -1.0603    0.2905 C   0  0  2  0  0  0  0  0  0  0  0  0
   -2.3093    0.1607    0.0035 C   0  0  2  0  0  0  0  0  0  0  0  0
   -0.0358   -0.9768   -0.3808 C   0  0  1  0  0  0  0  0  0  0  0  0
    0.7029    0.2956    0.1502 C   0  0  1  0  0  0  0  0  0  0  0  0
    2.1833    0.4212   -0.3975 C   0  0  2  0  0  0  0  0  0  0  0  0
   -1.6054    1.4041    0.5761 C   0  0  0  0  0  0  0  0  0  0  0  0
   -3.5732   -0.2719    0.7843 C   0  0  2  0  0  0  0  0  0  0  0  0
   -0.1702    1.5851    0.0341 C   0  0  2  0  0  0  0  0  0  0  0  0
   -2.3242   -2.2449   -0.0151 C   0  0  0  0  0  0  0  0  0  0  0  0
    0.7854   -2.2386   -0.0742 C   0  0  0  0  0  0  0  0  0  0  0  0
   -3.7032   -1.7817    0.4904 C   0  0  0  0  0  0  0  0  0  0  0  0
    2.9137   -0.9118   -0.1851 C   0  0  0  0  0  0  0  0  0  0  0  0
   -2.6415    0.3530   -1.4992 C   0  0  0  0  0  0  0  0  0  0  0  0
    2.1910   -2.1526   -0.6496 C   0  0  0  0  0  0  0  0  0  0  0  0
    2.8972    1.5520    0.3992 C   0  0  0  0  0  0  0  0  0  0  0  0
    2.2591    0.7461   -1.9066 C   0  0  0  0  0  0  0  0  0  0  0  0
   -4.8108    0.4916    0.4265 C   0  0  0  0  0  0  0  0  0  0  0  0
    4.4116    1.5250    0.2681 C   0  0  0  0  0  0  0  0  0  0  0  0
    4.1435   -1.0210    0.3447 C   0  0  0  0  0  0  0  0  0  0  0  0
    4.9450    0.1784    0.6800 C   0  0  0  0  0  0  0  0  0  0  0  0
   -5.1165    1.7111    1.2534 C   0  0  0  0  0  0  0  0  0  0  0  0
   -1.2255   -1.1004    1.3773 H   0  0  0  0  0  0  0  0  0  0  0  0
   -0.1528   -0.9174   -1.4672 H   0  0  0  0  0  0  0  0  0  0  0  0
    0.8033    0.1306    1.2365 H   0  0  0  0  0  0  0  0  0  0  0  0
   -1.5524    1.3260    1.6697 H   0  0  0  0  0  0  0  0  0  0  0  0
   -2.1912    2.3015    0.3468 H   0  0  0  0  0  0  0  0  0  0  0  0
   -3.4109   -0.1618    1.8655 H   0  0  0  0  0  0  0  0  0  0  0  0
    0.2931    2.3907    0.6133 H   0  0  0  0  0  0  0  0  0  0  0  0
   -2.0024   -3.1589    0.4940 H   0  0  0  0  0  0  0  0  0  0  0  0
   -2.3594   -2.4554   -1.0898 H   0  0  0  0  0  0  0  0  0  0  0  0
    0.2887   -3.1213   -0.4939 H   0  0  0  0  0  0  0  0  0  0  0  0
    0.8443   -2.3949    1.0110 H   0  0  0  0  0  0  0  0  0  0  0  0
   -4.4733   -2.0315   -0.2467 H   0  0  0  0  0  0  0  0  0  0  0  0
   -3.9668   -2.3144    1.4121 H   0  0  0  0  0  0  0  0  0  0  0  0
   -1.7819    0.2589   -2.1605 H   0  0  0  0  0  0  0  0  0  0  0  0
   -3.3549   -0.3952   -1.8620 H   0  0  0  0  0  0  0  0  0  0  0  0
   -3.0934    1.3355   -1.6767 H   0  0  0  0  0  0  0  0  0  0  0  0
    2.1401   -2.1484   -1.7453 H   0  0  0  0  0  0  0  0  0  0  0  0
    2.7402   -3.0609   -0.3727 H   0  0  0  0  0  0  0  0  0  0  0  0
    2.6491    1.4612    1.4661 H   0  0  0  0  0  0  0  0  0  0  0  0
    2.5351    2.5368    0.0806 H   0  0  0  0  0  0  0  0  0  0  0  0
    3.2712    0.5832   -2.2984 H   0  0  0  0  0  0  0  0  0  0  0  0
    1.5910    0.1176   -2.5033 H   0  0  0  0  0  0  0  0  0  0  0  0
    2.0233    1.7939   -2.1157 H   0  0  0  0  0  0  0  0  0  0  0  0
    4.8431    2.2867    0.9270 H   0  0  0  0  0  0  0  0  0  0  0  0
    4.7367    1.7359   -0.7556 H   0  0  0  0  0  0  0  0  0  0  0  0
   -0.1883    1.2912   -1.9115 H   0  0  0  0  0  0  0  0  0  0  0  0
    4.6229   -1.9834    0.4886 H   0  0  0  0  0  0  0  0  0  0  0  0
   -5.1624    1.4397    2.3111 H   0  0  0  0  0  0  0  0  0  0  0  0
   -4.3571    2.4774    1.0922 H   0  0  0  0  0  0  0  0  0  0  0  0
   -6.0892    2.1155    0.9587 H   0  0  0  0  0  0  0  0  0  0  0  0
  1 11  1  0  0  0  0
  1 50  1  0  0  0  0
  2 20  2  0  0  0  0
  3 23  2  0  0  0  0
  4  5  1  0  0  0  0
  4  6  1  0  0  0  0
  4 12  1  0  0  0  0
  4 25  1  0  0  0  0
  5  9  1  0  0  0  0
  5 10  1  0  0  0  0
  5 16  1  0  0  0  0
  6  7  1  0  0  0  0
  6 13  1  0  0  0  0
  6 26  1  0  0  0  0
  7  8  1  0  0  0  0
  7 11  1  0  0  0  0
  7 27  1  0  0  0  0
  8 15  1  0  0  0  0
  8 18  1  0  0  0  0
  8 19  1  0  0  0  0
  9 11  1  0  0  0  0
  9 28  1  0  0  0  0
  9 29  1  0  0  0  0
 10 14  1  0  0  0  0
 10 20  1  0  0  0  0
 10 30  1  0  0  0  0
 11 31  1  0  0  0  0
 12 14  1  0  0  0  0
 12 32  1  0  0  0  0
 12 33  1  0  0  0  0
 13 17  1  0  0  0  0
 13 34  1  0  0  0  0
 13 35  1  0  0  0  0
 14 36  1  0  0  0  0
 14 37  1  0  0  0  0
 15 17  1  0  0  0  0
 15 22  2  0  0  0  0
 16 38  1  0  0  0  0
 16 39  1  0  0  0  0
 16 40  1  0  0  0  0
 17 41  1  0  0  0  0
 17 42  1  0  0  0  0
 18 21  1  0  0  0  0
 18 43  1  0  0  0  0
 18 44  1  0  0  0  0
 19 45  1  0  0  0  0
 19 46  1  0  0  0  0
 19 47  1  0  0  0  0
 20 24  1  0  0  0  0
 21 23  1  0  0  0  0
 21 48  1  0  0  0  0
 21 49  1  0  0  0  0
 22 23  1  0  0  0  0
 22 51  1  0  0  0  0
 24 52  1  0  0  0  0
 24 53  1  0  0  0  0
 24 54  1  0  0  0  0
M  END
> <PUBCHEM_COMPOUND_CID>
101788

> <PUBCHEM_CONFORMER_RMSD>
0.6

> <PUBCHEM_CONFORMER_DIVERSEORDER>
1
2
3

> <PUBCHEM_MMFF94_PARTIAL_CHARGES>
15
1 -0.68
10 0.06
11 0.28
15 -0.28
17 0.14
2 -0.57
20 0.45
21 0.06
22 -0.14
23 0.49
24 0.06
3 -0.57
50 0.4
51 0.15
8 0.14

> <PUBCHEM_EFFECTIVE_ROTOR_COUNT>
2.8

> <PUBCHEM_PHARMACOPHORE_FEATURES>
8
1 1 acceptor
1 1 donor
1 2 acceptor
1 3 acceptor
5 4 5 10 12 14 rings
6 4 5 6 7 9 11 rings
6 6 7 8 13 15 17 rings
6 8 15 18 21 22 23 rings

> <PUBCHEM_HEAVY_ATOM_COUNT>
24

> <PUBCHEM_ATOM_DEF_STEREO_COUNT>
7

> <PUBCHEM_ATOM_UDEF_STEREO_COUNT>
0

> <PUBCHEM_BOND_DEF_STEREO_COUNT>
0

> <PUBCHEM_BOND_UDEF_STEREO_COUNT>
0

> <PUBCHEM_ISOTOPIC_ATOM_COUNT>
0

> <PUBCHEM_COMPONENT_COUNT>
1

> <PUBCHEM_CACTVS_TAUTO_COUNT>
15

> <PUBCHEM_CONFORMER_ID>
00018D9C00000001

> <PUBCHEM_MMFF94_ENERGY>
82.2005

> <PUBCHEM_FEATURE_SELFOVERLAP>
40.689

> <PUBCHEM_SHAPE_FINGERPRINT>
10062212 137 18341895134849097427
10906281 52 18199730523466263368
11089746 13 17603874394248714825
11132069 177 18413101758278872311
11796584 16 15195564619345508377
11961588 58 5256391813011364610
12011746 2 18408036308768669780
12236239 1 17989205911299465000
12403259 415 18341057380346126188
12403814 3 17847061069551166815
12422481 6 18342740766432658280
12633257 1 17560798797089802722
13140716 1 18339923697398990688
13224815 77 18410290289824510534
13583140 156 16226054349022326887
13675066 3 18130783439017095019
14178342 30 18338792330183539403
14223421 5 18337672035367306166
14341114 176 18410008862635752762
14790565 3 17979345366394522860
15142383 8 16128384804130489901
15196674 1 18410009901363879370
15375358 24 18260823795994367527
15536298 74 18261384589594767886
15788980 27 17203610371917307657
15840311 113 17826215570751587169
1601671 61 18410006632935913088
16945 1 18334565858719858526
17349148 13 18130790040555915116
17980427 23 18270683056773485852
1813 80 17131827681524382110
19141452 34 18412544293283466123
19784866 9 18408603669094491018
200 152 18113342994457578887
20511986 3 18115322166921668067
20715895 44 18270685401952625781
21033648 29 18199489755921279916
21267235 1 18411127030916043410
21304253 335 18337661023113441733
21421861 104 18059018418394497050
21452121 103 18261109716262366050
21859007 373 17630056090131963317
22182313 1 18057609960767260671
23402539 116 18410864226220028366
23557571 272 17917998312142208341
23559900 14 18189033370724265532
23569917 315 18410290307206041463
26918003 58 18411984650016941640
296302 2 16587740936493315678
335352 9 18409726296093861726
34797466 226 15574995022608331465
34934 24 18408044022161038387
350125 39 18411136923090798360
3633792 109 18263933297162825677
3680242 22 18340767156130488026
4340502 62 18187642509488629531
5104073 3 18341610369594752762
7064713 232 18407760317979905936
7495541 125 13758064178027098829
9709674 26 18262230126942704047

> <PUBCHEM_SHAPE_MULTIPOLES>
476.3
10.98
2.26
1.16
0.16
0.59
0.37
-2.18
-3.6
-0.28
-0.01
0.1
-0.33
-0.13

> <PUBCHEM_SHAPE_SELFOVERLAP>
1021.492

> <PUBCHEM_SHAPE_VOLUME>
260.1

> <PUBCHEM_COORDINATE_TYPE>
2
5
10

$$$$

