11427
  -OEChem-06261205403D

 19 18  0     1  0  0  0  0  0999 V2000
   -2.8991    0.0123    0.6081 S   0  0  0  0  0  0  0  0  0  0  0  0
    1.2016    1.7304   -0.6587 O   0  0  0  0  0  0  0  0  0  0  0  0
    1.8676   -1.4316    0.9247 O   0  0  0  0  0  0  0  0  0  0  0  0
    2.1004   -0.7432   -1.2253 O   0  0  0  0  0  0  0  0  0  0  0  0
   -0.2426    0.6673    0.9471 C   0  0  0  0  0  0  0  0  0  0  0  0
    1.1886    0.8018    0.4150 C   0  0  1  0  0  0  0  0  0  0  0  0
   -1.2302    0.1437   -0.0989 C   0  0  0  0  0  0  0  0  0  0  0  0
    1.7567   -0.5170   -0.0723 C   0  0  0  0  0  0  0  0  0  0  0  0
   -3.7432   -0.6639   -0.8397 C   0  0  0  0  0  0  0  0  0  0  0  0
   -0.5765    1.6571    1.2852 H   0  0  0  0  0  0  0  0  0  0  0  0
   -0.2412    0.0040    1.8211 H   0  0  0  0  0  0  0  0  0  0  0  0
    1.8464    1.1929    1.1992 H   0  0  0  0  0  0  0  0  0  0  0  0
   -1.2679    0.8190   -0.9596 H   0  0  0  0  0  0  0  0  0  0  0  0
   -0.9260   -0.8479   -0.4480 H   0  0  0  0  0  0  0  0  0  0  0  0
    2.1310    1.8898   -0.8972 H   0  0  0  0  0  0  0  0  0  0  0  0
   -4.7999   -0.8139   -0.6031 H   0  0  0  0  0  0  0  0  0  0  0  0
   -3.3100   -1.6280   -1.1184 H   0  0  0  0  0  0  0  0  0  0  0  0
   -3.6714    0.0296   -1.6816 H   0  0  0  0  0  0  0  0  0  0  0  0
    2.2437   -2.2788    0.6037 H   0  0  0  0  0  0  0  0  0  0  0  0
  1  7  1  0  0  0  0
  1  9  1  0  0  0  0
  2  6  1  0  0  0  0
  2 15  1  0  0  0  0
  3  8  1  0  0  0  0
  3 19  1  0  0  0  0
  4  8  2  0  0  0  0
  5  6  1  0  0  0  0
  5  7  1  0  0  0  0
  5 10  1  0  0  0  0
  5 11  1  0  0  0  0
  6  8  1  0  0  0  0
  6 12  1  0  0  0  0
  7 13  1  0  0  0  0
  7 14  1  0  0  0  0
  9 16  1  0  0  0  0
  9 17  1  0  0  0  0
  9 18  1  0  0  0  0
M  END
> <PUBCHEM_COMPOUND_CID>
11427

> <PUBCHEM_CONFORMER_RMSD>
0.6

> <PUBCHEM_CONFORMER_DIVERSEORDER>
1
24
44
30
34
45
13
40
41
42
37
14
43
26
39
36
12
11
32
8
33
2
38
25
18
29
27
16
20
5
9
21
4
31
28
10
15
23
22
7
17
6
35
19
3

> <PUBCHEM_MMFF94_PARTIAL_CHARGES>
10
1 -0.46
15 0.4
19 0.5
2 -0.68
3 -0.65
4 -0.57
6 0.34
7 0.23
8 0.66
9 0.23

> <PUBCHEM_EFFECTIVE_ROTOR_COUNT>
4

> <PUBCHEM_PHARMACOPHORE_FEATURES>
6
1 2 acceptor
1 2 donor
1 3 acceptor
1 4 acceptor
1 9 hydrophobe
3 3 4 8 anion

> <PUBCHEM_HEAVY_ATOM_COUNT>
9

> <PUBCHEM_ATOM_DEF_STEREO_COUNT>
0

> <PUBCHEM_ATOM_UDEF_STEREO_COUNT>
1

> <PUBCHEM_BOND_DEF_STEREO_COUNT>
0

> <PUBCHEM_BOND_UDEF_STEREO_COUNT>
0

> <PUBCHEM_ISOTOPIC_ATOM_COUNT>
0

> <PUBCHEM_COMPONENT_COUNT>
1

> <PUBCHEM_CACTVS_TAUTO_COUNT>
1

> <PUBCHEM_CONFORMER_ID>
00002CA300000001

> <PUBCHEM_MMFF94_ENERGY>
7.786

> <PUBCHEM_FEATURE_SELFOVERLAP>
30.512

> <PUBCHEM_SHAPE_FINGERPRINT>
10857977 72 14996283592031308529
12897270 3 17846772988561346185
12932741 1 17346314856800073937
12932764 1 18342735230694508833
14128692 85 18187072979550429993
14390081 3 12679457578200007551
177051 138 17022904541018605215
20653091 64 18334575737192268240
23552333 60 18260264127132223088
23552423 10 18410570674153750177
23552449 11 18261402147415663040
29004967 10 18272929448980777856
3248919 1 18341333293229100529

> <PUBCHEM_SHAPE_MULTIPOLES>
171.46
4.95
1.3
1.09
4.86
0.08
-0.01
-1.74
0.67
-0.61
0.11
-0.23
-0.07
-0.49

> <PUBCHEM_SHAPE_SELFOVERLAP>
303.128

> <PUBCHEM_SHAPE_VOLUME>
113.4

> <PUBCHEM_COORDINATE_TYPE>
2
5
10

$$$$

