10697
  -OEChem-06261204512D

 20 20  0     0  0  0  0  0  0999 V2000
    3.7320    1.6550    0.0000 O   0  0  0  0  0  0  0  0  0  0  0  0
    5.4641   -1.3450    0.0000 O   0  0  0  0  0  0  0  0  0  0  0  0
    2.8660    0.1550    0.0000 C   0  0  0  0  0  0  0  0  0  0  0  0
    2.8660   -0.8450    0.0000 C   0  0  0  0  0  0  0  0  0  0  0  0
    3.7320    0.6550    0.0000 C   0  0  0  0  0  0  0  0  0  0  0  0
    3.7320   -1.3450    0.0000 C   0  0  0  0  0  0  0  0  0  0  0  0
    4.5981   -0.8450    0.0000 C   0  0  0  0  0  0  0  0  0  0  0  0
    2.0000    0.6550    0.0000 C   0  0  0  0  0  0  0  0  0  0  0  0
    4.5981    0.1550    0.0000 C   0  0  0  0  0  0  0  0  0  0  0  0
    2.0000   -1.3450    0.0000 C   0  0  0  0  0  0  0  0  0  0  0  0
    3.7320   -1.9650    0.0000 H   0  0  0  0  0  0  0  0  0  0  0  0
    2.3100    1.1919    0.0000 H   0  0  0  0  0  0  0  0  0  0  0  0
    1.4631    0.9650    0.0000 H   0  0  0  0  0  0  0  0  0  0  0  0
    1.6900    0.1181    0.0000 H   0  0  0  0  0  0  0  0  0  0  0  0
    5.1350    0.4650    0.0000 H   0  0  0  0  0  0  0  0  0  0  0  0
    1.6900   -0.8081    0.0000 H   0  0  0  0  0  0  0  0  0  0  0  0
    1.4631   -1.6550    0.0000 H   0  0  0  0  0  0  0  0  0  0  0  0
    2.3100   -1.8819    0.0000 H   0  0  0  0  0  0  0  0  0  0  0  0
    4.2690    1.9650    0.0000 H   0  0  0  0  0  0  0  0  0  0  0  0
    5.4641   -1.9650    0.0000 H   0  0  0  0  0  0  0  0  0  0  0  0
  1  5  1  0  0  0  0
  1 19  1  0  0  0  0
  2  7  1  0  0  0  0
  2 20  1  0  0  0  0
  3  4  1  0  0  0  0
  3  5  2  0  0  0  0
  3  8  1  0  0  0  0
  4  6  2  0  0  0  0
  4 10  1  0  0  0  0
  5  9  1  0  0  0  0
  6  7  1  0  0  0  0
  6 11  1  0  0  0  0
  7  9  2  0  0  0  0
  8 12  1  0  0  0  0
  8 13  1  0  0  0  0
  8 14  1  0  0  0  0
  9 15  1  0  0  0  0
 10 16  1  0  0  0  0
 10 17  1  0  0  0  0
 10 18  1  0  0  0  0
M  END
> <PUBCHEM_COMPOUND_CID>
10697

> <PUBCHEM_COMPOUND_CANONICALIZED>
1

> <PUBCHEM_CACTVS_COMPLEXITY>
114

> <PUBCHEM_CACTVS_HBOND_ACCEPTOR>
2

> <PUBCHEM_CACTVS_HBOND_DONOR>
2

> <PUBCHEM_CACTVS_ROTATABLE_BOND>
0

> <PUBCHEM_CACTVS_SUBSKEYS>
AAADccBwMAAAAAAAAAAAAAAAAAAAAAAAAAAwAAAAAAAAAAABAAAAGgAACAAADASAmAAyBoAAAgCAAiBCAAACAAAgIAAAiAAGCIgIJyKCERKAcAAlwBUImAeA4LQOoAABCAAYAABAAAIQADAAAAAAAAAAAA==

> <PUBCHEM_IUPAC_OPENEYE_NAME>
4,5-dimethylbenzene-1,3-diol

> <PUBCHEM_IUPAC_CAS_NAME>
4,5-dimethylbenzene-1,3-diol

> <PUBCHEM_IUPAC_NAME>
4,5-dimethylbenzene-1,3-diol

> <PUBCHEM_IUPAC_SYSTEMATIC_NAME>
4,5-dimethylbenzene-1,3-diol

> <PUBCHEM_IUPAC_TRADITIONAL_NAME>
4,5-dimethylresorcinol

> <PUBCHEM_IUPAC_INCHI>
InChI=1S/C8H10O2/c1-5-3-7(9)4-8(10)6(5)2/h3-4,9-10H,1-2H3

> <PUBCHEM_IUPAC_INCHIKEY>
RCNCKKACINZDOI-UHFFFAOYSA-N

> <PUBCHEM_XLOGP3_AA>
1.9

> <PUBCHEM_EXACT_MASS>
138.06808

> <PUBCHEM_MOLECULAR_FORMULA>
C8H10O2

> <PUBCHEM_MOLECULAR_WEIGHT>
138.1638

> <PUBCHEM_OPENEYE_CAN_SMILES>
CC1=CC(=CC(=C1C)O)O

> <PUBCHEM_OPENEYE_ISO_SMILES>
CC1=CC(=CC(=C1C)O)O

> <PUBCHEM_CACTVS_TPSA>
40.5

> <PUBCHEM_MONOISOTOPIC_WEIGHT>
138.06808

> <PUBCHEM_TOTAL_CHARGE>
0

> <PUBCHEM_HEAVY_ATOM_COUNT>
10

> <PUBCHEM_ATOM_DEF_STEREO_COUNT>
0

> <PUBCHEM_ATOM_UDEF_STEREO_COUNT>
0

> <PUBCHEM_BOND_DEF_STEREO_COUNT>
0

> <PUBCHEM_BOND_UDEF_STEREO_COUNT>
0

> <PUBCHEM_ISOTOPIC_ATOM_COUNT>
0

> <PUBCHEM_COMPONENT_COUNT>
1

> <PUBCHEM_CACTVS_TAUTO_COUNT>
17

> <PUBCHEM_COORDINATE_TYPE>
1
5
255

> <PUBCHEM_BONDANNOTATIONS>
3  4  8
3  5  8
4  6  8
5  9  8
6  7  8
7  9  8

$$$$

