5280589
  -OEChem-07051213072D

 50 52  0     1  0  0  0  0  0999 V2000
    5.1350    0.3450    0.0000 O   0  0  0  0  0  0  0  0  0  0  0  0
    6.0010    1.8450    0.0000 O   0  0  0  0  0  0  0  0  0  0  0  0
    2.5369    1.8450    0.0000 O   0  0  0  0  0  0  0  0  0  0  0  0
    2.5369   -0.1550    0.0000 O   0  0  0  0  0  0  0  0  0  0  0  0
    4.2690    2.8450    0.0000 O   0  0  0  0  0  0  0  0  0  0  0  0
    3.4030   -1.6550    0.0000 O   0  0  0  0  0  0  0  0  0  0  0  0
    9.4651   -0.1550    0.0000 N   0  0  0  0  0  0  0  0  0  0  0  0
   11.2774   -1.3503    0.0000 N   0  0  0  0  0  0  0  0  0  0  0  0
    8.5991   -1.6550    0.0000 N   0  0  0  0  0  0  0  0  0  0  0  0
   11.2774   -2.9597    0.0000 N   0  0  0  0  0  0  0  0  0  0  0  0
    9.4651   -3.1550    0.0000 N   0  0  0  0  0  0  0  0  0  0  0  0
    3.4030    1.3450    0.0000 C   0  0  1  0  0  0  0  0  0  0  0  0
    3.4030    0.3450    0.0000 C   0  0  1  0  0  0  0  0  0  0  0  0
    4.2690    1.8450    0.0000 C   0  0  2  0  0  0  0  0  0  0  0  0
    4.2690   -0.1550    0.0000 C   0  0  1  0  0  0  0  0  0  0  0  0
    5.1350    1.3450    0.0000 C   0  0  1  0  0  0  0  0  0  0  0  0
    4.2690   -1.1550    0.0000 C   0  0  0  0  0  0  0  0  0  0  0  0
    6.8671    1.3450    0.0000 C   0  0  0  0  0  0  0  0  0  0  0  0
    7.7331    1.8450    0.0000 C   0  0  0  0  0  0  0  0  0  0  0  0
    8.5991    1.3450    0.0000 C   0  0  0  0  0  0  0  0  0  0  0  0
    7.7331    2.8450    0.0000 C   0  0  0  0  0  0  0  0  0  0  0  0
    8.5991    0.3450    0.0000 C   0  0  0  0  0  0  0  0  0  0  0  0
    9.4651   -1.1550    0.0000 C   0  0  0  0  0  0  0  0  0  0  0  0
   10.3312   -1.6550    0.0000 C   0  0  0  0  0  0  0  0  0  0  0  0
   10.3312   -2.6550    0.0000 C   0  0  0  0  0  0  0  0  0  0  0  0
   11.8610   -2.1550    0.0000 C   0  0  0  0  0  0  0  0  0  0  0  0
    8.5991   -2.6550    0.0000 C   0  0  0  0  0  0  0  0  0  0  0  0
    3.4030    1.9650    0.0000 H   0  0  0  0  0  0  0  0  0  0  0  0
    3.4030   -0.2750    0.0000 H   0  0  0  0  0  0  0  0  0  0  0  0
    4.8059    2.1550    0.0000 H   0  0  0  0  0  0  0  0  0  0  0  0
    4.8059   -0.4650    0.0000 H   0  0  0  0  0  0  0  0  0  0  0  0
    5.1350    1.9650    0.0000 H   0  0  0  0  0  0  0  0  0  0  0  0
    4.4810   -1.7376    0.0000 H   0  0  0  0  0  0  0  0  0  0  0  0
    4.8796   -1.0473    0.0000 H   0  0  0  0  0  0  0  0  0  0  0  0
    2.0000    1.5350    0.0000 H   0  0  0  0  0  0  0  0  0  0  0  0
    2.0000    0.1550    0.0000 H   0  0  0  0  0  0  0  0  0  0  0  0
    3.7320    3.1550    0.0000 H   0  0  0  0  0  0  0  0  0  0  0  0
    6.4685    0.8701    0.0000 H   0  0  0  0  0  0  0  0  0  0  0  0
    7.2656    0.8701    0.0000 H   0  0  0  0  0  0  0  0  0  0  0  0
    3.4030   -2.2750    0.0000 H   0  0  0  0  0  0  0  0  0  0  0  0
    9.1360    1.6550    0.0000 H   0  0  0  0  0  0  0  0  0  0  0  0
    8.3531    2.8450    0.0000 H   0  0  0  0  0  0  0  0  0  0  0  0
    7.7331    3.4650    0.0000 H   0  0  0  0  0  0  0  0  0  0  0  0
    7.1131    2.8450    0.0000 H   0  0  0  0  0  0  0  0  0  0  0  0
    7.9885    0.4527    0.0000 H   0  0  0  0  0  0  0  0  0  0  0  0
    8.3871   -0.2376    0.0000 H   0  0  0  0  0  0  0  0  0  0  0  0
   10.0021    0.1550    0.0000 H   0  0  0  0  0  0  0  0  0  0  0  0
   11.4700   -0.7609    0.0000 H   0  0  0  0  0  0  0  0  0  0  0  0
   12.4810   -2.1550    0.0000 H   0  0  0  0  0  0  0  0  0  0  0  0
    8.0622   -2.9650    0.0000 H   0  0  0  0  0  0  0  0  0  0  0  0
  1 15  1  0  0  0  0
  1 16  1  0  0  0  0
 16  2  1  6  0  0  0
  2 18  1  0  0  0  0
 12  3  1  6  0  0  0
  3 35  1  0  0  0  0
 13  4  1  1  0  0  0
  4 36  1  0  0  0  0
 14  5  1  1  0  0  0
  5 37  1  0  0  0  0
  6 17  1  0  0  0  0
  6 40  1  0  0  0  0
  7 22  1  0  0  0  0
  7 23  1  0  0  0  0
  7 47  1  0  0  0  0
  8 24  1  0  0  0  0
  8 26  1  0  0  0  0
  8 48  1  0  0  0  0
  9 23  2  0  0  0  0
  9 27  1  0  0  0  0
 10 25  1  0  0  0  0
 10 26  2  0  0  0  0
 11 25  1  0  0  0  0
 11 27  2  0  0  0  0
 12 13  1  0  0  0  0
 12 14  1  0  0  0  0
 12 28  1  0  0  0  0
 13 15  1  0  0  0  0
 13 29  1  0  0  0  0
 14 16  1  0  0  0  0
 14 30  1  0  0  0  0
 15 17  1  6  0  0  0
 15 31  1  0  0  0  0
 16 32  1  0  0  0  0
 17 33  1  0  0  0  0
 17 34  1  0  0  0  0
 18 19  1  0  0  0  0
 18 38  1  0  0  0  0
 18 39  1  0  0  0  0
 19 20  2  0  0  0  0
 19 21  1  0  0  0  0
 20 22  1  0  0  0  0
 20 41  1  0  0  0  0
 21 42  1  0  0  0  0
 21 43  1  0  0  0  0
 21 44  1  0  0  0  0
 22 45  1  0  0  0  0
 22 46  1  0  0  0  0
 23 24  1  0  0  0  0
 24 25  2  0  0  0  0
 26 49  1  0  0  0  0
 27 50  1  0  0  0  0
M  END
> <PUBCHEM_COMPOUND_CID>
5280589

> <PUBCHEM_COMPOUND_CANONICALIZED>
1

> <PUBCHEM_CACTVS_COMPLEXITY>
512

> <PUBCHEM_CACTVS_HBOND_ACCEPTOR>
10

> <PUBCHEM_CACTVS_HBOND_DONOR>
6

> <PUBCHEM_CACTVS_ROTATABLE_BOND>
7

> <PUBCHEM_CACTVS_SUBSKEYS>
AAADceB7uAAAAAAAAAAAAAAAAAAAAWAAAAAsSAAAAAAAAFgB+AAAHgAQCAAADBzxlwcH+L7JlgCgAyZjZACAgC2REKABWaAoVBCRXAJAaUA2VAgNEALHICHAYAwAAAAAAAAAAAAAAAAAAAAAAAAAAAAAAA==

> <PUBCHEM_IUPAC_OPENEYE_NAME>
(2R,3S,4S,5R,6R)-2-(hydroxymethyl)-6-[(Z)-2-methyl-4-(7H-purin-6-ylamino)but-2-enoxy]tetrahydropyran-3,4,5-triol

> <PUBCHEM_IUPAC_CAS_NAME>
(2R,3S,4S,5R,6R)-2-(hydroxymethyl)-6-[(Z)-2-methyl-4-(7H-purin-6-ylamino)but-2-enoxy]oxane-3,4,5-triol

> <PUBCHEM_IUPAC_NAME>
(2R,3S,4S,5R,6R)-2-(hydroxymethyl)-6-[(Z)-2-methyl-4-(7H-purin-6-ylamino)but-2-enoxy]oxane-3,4,5-triol

> <PUBCHEM_IUPAC_SYSTEMATIC_NAME>
(2R,3S,4S,5R,6R)-2-(hydroxymethyl)-6-[(Z)-2-methyl-4-(7H-purin-6-ylamino)but-2-enoxy]oxane-3,4,5-triol

> <PUBCHEM_IUPAC_TRADITIONAL_NAME>
(2R,3S,4S,5R,6R)-2-methylol-6-[(Z)-2-methyl-4-(7H-purin-6-ylamino)but-2-enoxy]tetrahydropyran-3,4,5-triol

> <PUBCHEM_IUPAC_INCHI>
InChI=1S/C16H23N5O6/c1-8(2-3-17-14-10-15(19-6-18-10)21-7-20-14)5-26-16-13(25)12(24)11(23)9(4-22)27-16/h2,6-7,9,11-13,16,22-25H,3-5H2,1H3,(H2,17,18,19,20,21)/b8-2-/t9-,11-,12+,13-,16-/m1/s1

> <PUBCHEM_IUPAC_INCHIKEY>
UUPDCCPAOMDMPT-MTQUCLQASA-N

> <PUBCHEM_XLOGP3_AA>
-0.9

> <PUBCHEM_EXACT_MASS>
381.164833

> <PUBCHEM_MOLECULAR_FORMULA>
C16H23N5O6

> <PUBCHEM_MOLECULAR_WEIGHT>
381.38372

> <PUBCHEM_OPENEYE_CAN_SMILES>
CC(=CCNC1=NC=NC2=C1NC=N2)COC3C(C(C(C(O3)CO)O)O)O

> <PUBCHEM_OPENEYE_ISO_SMILES>
C/C(=C/CNC1=NC=NC2=C1NC=N2)/CO[C@H]3[C@@H]([C@H]([C@@H]([C@H](O3)CO)O)O)O

> <PUBCHEM_CACTVS_TPSA>
166

> <PUBCHEM_MONOISOTOPIC_WEIGHT>
381.164833

> <PUBCHEM_TOTAL_CHARGE>
0

> <PUBCHEM_HEAVY_ATOM_COUNT>
27

> <PUBCHEM_ATOM_DEF_STEREO_COUNT>
5

> <PUBCHEM_ATOM_UDEF_STEREO_COUNT>
0

> <PUBCHEM_BOND_DEF_STEREO_COUNT>
1

> <PUBCHEM_BOND_UDEF_STEREO_COUNT>
0

> <PUBCHEM_ISOTOPIC_ATOM_COUNT>
0

> <PUBCHEM_COMPONENT_COUNT>
1

> <PUBCHEM_CACTVS_TAUTO_COUNT>
8

> <PUBCHEM_COORDINATE_TYPE>
1
5
255

> <PUBCHEM_BONDANNOTATIONS>
10  25  8
10  26  8
11  25  8
11  27  8
15  17  6
16  2  6
23  24  8
24  25  8
12  3  6
13  4  5
14  5  5
8  24  8
8  26  8
9  23  8
9  27  8

$$$$

