6766
  -OEChem-06261201303D

 32 34  0     0  0  0  0  0  0999 V2000
    1.0879    0.8746    0.0001 C   0  0  0  0  0  0  0  0  0  0  0  0
    1.3040   -0.5059   -0.0001 C   0  0  0  0  0  0  0  0  0  0  0  0
   -0.2450    1.4378    0.0003 C   0  0  0  0  0  0  0  0  0  0  0  0
    0.1986   -1.4465   -0.0003 C   0  0  0  0  0  0  0  0  0  0  0  0
    2.1801    1.7457    0.0002 C   0  0  0  0  0  0  0  0  0  0  0  0
    2.6040   -1.0116   -0.0003 C   0  0  0  0  0  0  0  0  0  0  0  0
    3.4800    1.2398    0.0001 C   0  0  0  0  0  0  0  0  0  0  0  0
    3.6920   -0.1387   -0.0001 C   0  0  0  0  0  0  0  0  0  0  0  0
   -0.8873    1.7095   -1.2078 C   0  0  0  0  0  0  0  0  0  0  0  0
   -0.3290   -1.8958    1.2078 C   0  0  0  0  0  0  0  0  0  0  0  0
   -0.8878    1.7086    1.2083 C   0  0  0  0  0  0  0  0  0  0  0  0
   -0.3298   -1.8949   -1.2083 C   0  0  0  0  0  0  0  0  0  0  0  0
   -2.1723    2.2521   -1.2079 C   0  0  0  0  0  0  0  0  0  0  0  0
   -1.3916   -2.7995    1.2079 C   0  0  0  0  0  0  0  0  0  0  0  0
   -2.1729    2.2512    1.2081 C   0  0  0  0  0  0  0  0  0  0  0  0
   -1.3925   -2.7985   -1.2081 C   0  0  0  0  0  0  0  0  0  0  0  0
   -2.8151    2.5229    0.0000 C   0  0  0  0  0  0  0  0  0  0  0  0
   -1.9233   -3.2508    0.0000 C   0  0  0  0  0  0  0  0  0  0  0  0
    2.0360    2.8239    0.0004 H   0  0  0  0  0  0  0  0  0  0  0  0
    2.7896   -2.0833   -0.0006 H   0  0  0  0  0  0  0  0  0  0  0  0
    4.3273    1.9193    0.0002 H   0  0  0  0  0  0  0  0  0  0  0  0
    4.7043   -0.5324   -0.0002 H   0  0  0  0  0  0  0  0  0  0  0  0
   -0.4008    1.5047   -2.1585 H   0  0  0  0  0  0  0  0  0  0  0  0
    0.0740   -1.5538    2.1580 H   0  0  0  0  0  0  0  0  0  0  0  0
   -0.4016    1.5031    2.1591 H   0  0  0  0  0  0  0  0  0  0  0  0
    0.0725   -1.5522   -2.1586 H   0  0  0  0  0  0  0  0  0  0  0  0
   -2.6725    2.4635   -2.1485 H   0  0  0  0  0  0  0  0  0  0  0  0
   -1.8051   -3.1515    2.1485 H   0  0  0  0  0  0  0  0  0  0  0  0
   -2.6737    2.4619    2.1485 H   0  0  0  0  0  0  0  0  0  0  0  0
   -1.8068   -3.1498   -2.1485 H   0  0  0  0  0  0  0  0  0  0  0  0
   -3.8157    2.9451   -0.0001 H   0  0  0  0  0  0  0  0  0  0  0  0
   -2.7508   -3.9542    0.0000 H   0  0  0  0  0  0  0  0  0  0  0  0
  1  2  1  0  0  0  0
  1  3  1  0  0  0  0
  1  5  2  0  0  0  0
  2  4  1  0  0  0  0
  2  6  2  0  0  0  0
  3  9  2  0  0  0  0
  3 11  1  0  0  0  0
  4 10  2  0  0  0  0
  4 12  1  0  0  0  0
  5  7  1  0  0  0  0
  5 19  1  0  0  0  0
  6  8  1  0  0  0  0
  6 20  1  0  0  0  0
  7  8  2  0  0  0  0
  7 21  1  0  0  0  0
  8 22  1  0  0  0  0
  9 13  1  0  0  0  0
  9 23  1  0  0  0  0
 10 14  1  0  0  0  0
 10 24  1  0  0  0  0
 11 15  2  0  0  0  0
 11 25  1  0  0  0  0
 12 16  2  0  0  0  0
 12 26  1  0  0  0  0
 13 17  2  0  0  0  0
 13 27  1  0  0  0  0
 14 18  2  0  0  0  0
 14 28  1  0  0  0  0
 15 17  1  0  0  0  0
 15 29  1  0  0  0  0
 16 18  1  0  0  0  0
 16 30  1  0  0  0  0
 17 31  1  0  0  0  0
 18 32  1  0  0  0  0
M  END
> <PUBCHEM_COMPOUND_CID>
6766

> <PUBCHEM_CONFORMER_RMSD>
0.6

> <PUBCHEM_CONFORMER_DIVERSEORDER>
1

> <PUBCHEM_MMFF94_PARTIAL_CHARGES>
28
10 -0.15
11 -0.15
12 -0.15
13 -0.15
14 -0.15
15 -0.15
16 -0.15
17 -0.15
18 -0.15
19 0.15
20 0.15
21 0.15
22 0.15
23 0.15
24 0.15
25 0.15
26 0.15
27 0.15
28 0.15
29 0.15
30 0.15
31 0.15
32 0.15
5 -0.15
6 -0.15
7 -0.15
8 -0.15
9 -0.15

> <PUBCHEM_EFFECTIVE_ROTOR_COUNT>
2

> <PUBCHEM_PHARMACOPHORE_FEATURES>
3
6 1 2 5 6 7 8 rings
6 3 9 11 13 15 17 rings
6 4 10 12 14 16 18 rings

> <PUBCHEM_HEAVY_ATOM_COUNT>
18

> <PUBCHEM_ATOM_DEF_STEREO_COUNT>
0

> <PUBCHEM_ATOM_UDEF_STEREO_COUNT>
0

> <PUBCHEM_BOND_DEF_STEREO_COUNT>
0

> <PUBCHEM_BOND_UDEF_STEREO_COUNT>
0

> <PUBCHEM_ISOTOPIC_ATOM_COUNT>
0

> <PUBCHEM_COMPONENT_COUNT>
1

> <PUBCHEM_CACTVS_TAUTO_COUNT>
1

> <PUBCHEM_CONFORMER_ID>
00001A6E00000001

> <PUBCHEM_MMFF94_ENERGY>
64.0563

> <PUBCHEM_FEATURE_SELFOVERLAP>
15.223

> <PUBCHEM_SHAPE_FINGERPRINT>
104564 63 18121769543855708932
10871710 139 17695597698985535628
11578080 2 17169567206919770722
11582403 64 15980931545839682428
12035758 1 17901922456250053530
12326174 3 17618785103376848256
12788726 201 18268440048562825746
13132413 78 17471558941808565065
13134695 92 17543637426504013623
13140716 1 18122627145602957034
13149001 5 17973697437207708614
13681431 1 17331962724926478988
14817 1 14301030984497084879
15309172 13 18195806490773375816
16945 1 18410855421673929184
17138139 8 17827399615682603125
17357779 13 17975424516017849462
20645477 70 17691132956132987621
21041028 32 17908131080320299651
21160774 45 18411702067260675213
21197605 99 18338216216972995123
21524375 3 18268148841126665098
23419403 2 17025173816537162699
23558518 356 18129379315946167216
23559900 14 18261669394526764038
238 59 17767709491199642261
2748010 2 18124010576075554890
283562 15 18124035625021144432
3060560 45 18053107512370772076
31174 14 17259326195520840097
350125 39 18049719621300135648
4340502 62 18192141810550744705
5364581 5 14739886727426182299
6438718 38 17968369044824467767
6992083 37 17464803580932817286
7364860 26 17472699607622885393
81228 2 18270123383653367936
8272917 22 17687462777624171277
9981440 41 17099791138691840888

> <PUBCHEM_SHAPE_MULTIPOLES>
370.43
4.34
4.32
1.26
3.73
2.01
0
-1.97
0
-4.1
0
-0.78
0.12
0

> <PUBCHEM_SHAPE_SELFOVERLAP>
823.756

> <PUBCHEM_SHAPE_VOLUME>
183.3

> <PUBCHEM_COORDINATE_TYPE>
2
5
10

$$$$

