253602
  -OEChem-07051213013D

 38 39  0     1  0  0  0  0  0999 V2000
   -1.7335   -0.8982   -0.6627 O   0  0  0  0  0  0  0  0  0  0  0  0
   -2.8712    0.6748    2.3348 O   0  0  0  0  0  0  0  0  0  0  0  0
   -2.3519   -2.4793    0.9041 O   0  0  0  0  0  0  0  0  0  0  0  0
    4.7312   -0.3094    0.7497 O   0  0  0  0  0  0  0  0  0  0  0  0
   -2.5916    1.9213   -0.7843 N   0  0  0  0  0  0  0  0  0  0  0  0
   -1.3046    1.4544   -0.2430 C   0  0  1  0  0  0  0  0  0  0  0  0
   -1.6500    0.0927    0.3551 C   0  0  1  0  0  0  0  0  0  0  0  0
   -3.0262    0.3232    0.9647 C   0  0  2  0  0  0  0  0  0  0  0  0
   -3.6080    1.5091    0.1958 C   0  0  0  0  0  0  0  0  0  0  0  0
   -0.2245    1.4260   -1.3150 C   0  0  0  0  0  0  0  0  0  0  0  0
    1.0983    0.9632   -0.7641 C   0  0  0  0  0  0  0  0  0  0  0  0
    1.9889    1.8956   -0.2509 C   0  0  0  0  0  0  0  0  0  0  0  0
    1.4070   -0.3895   -0.7770 C   0  0  0  0  0  0  0  0  0  0  0  0
   -2.0973   -2.1481   -0.2460 C   0  0  0  0  0  0  0  0  0  0  0  0
    3.2140    1.4662    0.2596 C   0  0  0  0  0  0  0  0  0  0  0  0
    2.6319   -0.8190   -0.2662 C   0  0  0  0  0  0  0  0  0  0  0  0
    3.5355    0.1090    0.2520 C   0  0  0  0  0  0  0  0  0  0  0  0
   -2.1441   -3.0813   -1.4179 C   0  0  0  0  0  0  0  0  0  0  0  0
    4.9961   -1.7109    0.7111 C   0  0  0  0  0  0  0  0  0  0  0  0
   -1.0070    2.1435    0.5594 H   0  0  0  0  0  0  0  0  0  0  0  0
   -0.9036   -0.2074    1.1010 H   0  0  0  0  0  0  0  0  0  0  0  0
   -3.7173   -0.5206    0.9116 H   0  0  0  0  0  0  0  0  0  0  0  0
   -4.5212    1.2220   -0.3364 H   0  0  0  0  0  0  0  0  0  0  0  0
   -3.8543    2.3493    0.8540 H   0  0  0  0  0  0  0  0  0  0  0  0
   -2.7734    1.4313   -1.6613 H   0  0  0  0  0  0  0  0  0  0  0  0
   -0.1021    2.4299   -1.7447 H   0  0  0  0  0  0  0  0  0  0  0  0
   -0.5115    0.7900   -2.1632 H   0  0  0  0  0  0  0  0  0  0  0  0
   -2.2958    1.4566    2.3895 H   0  0  0  0  0  0  0  0  0  0  0  0
    1.7471    2.9546   -0.2382 H   0  0  0  0  0  0  0  0  0  0  0  0
    0.7302   -1.1240   -1.1998 H   0  0  0  0  0  0  0  0  0  0  0  0
    3.9134    2.1936    0.6624 H   0  0  0  0  0  0  0  0  0  0  0  0
    2.8200   -1.8863   -0.3083 H   0  0  0  0  0  0  0  0  0  0  0  0
   -1.1546   -3.1487   -1.8769 H   0  0  0  0  0  0  0  0  0  0  0  0
   -2.8820   -2.7283   -2.1427 H   0  0  0  0  0  0  0  0  0  0  0  0
   -2.4392   -4.0777   -1.0768 H   0  0  0  0  0  0  0  0  0  0  0  0
    4.2851   -2.2719    1.3272 H   0  0  0  0  0  0  0  0  0  0  0  0
    5.9883   -1.8645    1.1479 H   0  0  0  0  0  0  0  0  0  0  0  0
    5.0383   -2.0841   -0.3178 H   0  0  0  0  0  0  0  0  0  0  0  0
  1  7  1  0  0  0  0
  1 14  1  0  0  0  0
  2  8  1  0  0  0  0
  2 28  1  0  0  0  0
  3 14  2  0  0  0  0
  4 17  1  0  0  0  0
  4 19  1  0  0  0  0
  5  6  1  0  0  0  0
  5  9  1  0  0  0  0
  5 25  1  0  0  0  0
  6  7  1  0  0  0  0
  6 10  1  0  0  0  0
  6 20  1  0  0  0  0
  7  8  1  0  0  0  0
  7 21  1  0  0  0  0
  8  9  1  0  0  0  0
  8 22  1  0  0  0  0
  9 23  1  0  0  0  0
  9 24  1  0  0  0  0
 10 11  1  0  0  0  0
 10 26  1  0  0  0  0
 10 27  1  0  0  0  0
 11 12  2  0  0  0  0
 11 13  1  0  0  0  0
 12 15  1  0  0  0  0
 12 29  1  0  0  0  0
 13 16  2  0  0  0  0
 13 30  1  0  0  0  0
 14 18  1  0  0  0  0
 15 17  2  0  0  0  0
 15 31  1  0  0  0  0
 16 17  1  0  0  0  0
 16 32  1  0  0  0  0
 18 33  1  0  0  0  0
 18 34  1  0  0  0  0
 18 35  1  0  0  0  0
 19 36  1  0  0  0  0
 19 37  1  0  0  0  0
 19 38  1  0  0  0  0
M  END
> <PUBCHEM_COMPOUND_CID>
253602

> <PUBCHEM_CONFORMER_RMSD>
0.8

> <PUBCHEM_CONFORMER_DIVERSEORDER>
1
4
10
14
6
13
12
9
8
11
2
5
7
3

> <PUBCHEM_MMFF94_PARTIAL_CHARGES>
25
1 -0.43
10 0.14
11 -0.14
12 -0.15
13 -0.15
14 0.66
15 -0.15
16 -0.15
17 0.08
18 0.06
19 0.28
2 -0.68
25 0.36
28 0.4
29 0.15
3 -0.57
30 0.15
31 0.15
32 0.15
4 -0.36
5 -0.9
6 0.27
7 0.28
8 0.28
9 0.27

> <PUBCHEM_EFFECTIVE_ROTOR_COUNT>
6

> <PUBCHEM_PHARMACOPHORE_FEATURES>
8
1 2 acceptor
1 2 donor
1 3 acceptor
1 4 acceptor
1 5 cation
1 5 donor
5 5 6 7 8 9 rings
6 11 12 13 15 16 17 rings

> <PUBCHEM_HEAVY_ATOM_COUNT>
19

> <PUBCHEM_ATOM_DEF_STEREO_COUNT>
3

> <PUBCHEM_ATOM_UDEF_STEREO_COUNT>
0

> <PUBCHEM_BOND_DEF_STEREO_COUNT>
0

> <PUBCHEM_BOND_UDEF_STEREO_COUNT>
0

> <PUBCHEM_ISOTOPIC_ATOM_COUNT>
0

> <PUBCHEM_COMPONENT_COUNT>
1

> <PUBCHEM_CACTVS_TAUTO_COUNT>
1

> <PUBCHEM_CONFORMER_ID>
0003DEA200000001

> <PUBCHEM_MMFF94_ENERGY>
52.4012

> <PUBCHEM_FEATURE_SELFOVERLAP>
40.594

> <PUBCHEM_SHAPE_FINGERPRINT>
10366900 7 17458351861776089424
11132069 177 18410862083579655484
11552529 35 17968102962952698966
12251169 10 18409729586318437044
12346177 29 18411429396607978542
12382932 28 18334286557007389452
12422481 6 18120059919956585899
12500047 106 18336835276547777996
12553582 1 17833256524617839335
12633257 1 18261104201508488496
13004483 165 17899429601275457231
13140716 1 18410854339373962064
13764800 53 16878767345166334161
14100547 121 18260553307433919182
14787075 74 16888358148756671888
14965852 173 18412548691208567116
15099037 8 18267872678908500646
15375462 189 18059860614415521258
15537594 2 18201432640866159570
16945 1 18336252535363970957
17804303 29 18341889736133111892
1813 80 17060052701146605838
19141452 34 18410860992309796222
19433438 48 18410015420697502738
20281475 54 18272653433403164636
20300324 65 9655567526604131474
20361792 2 16630527302007038676
20442098 301 18411134697685452156
20681651 13 18188769440240656848
21501502 16 18339359648187370116
21731228 192 18191009287524022585
23388829 49 17760644772382080741
23402539 116 18261968439413303653
23419403 2 17099486488213771441
23503953 91 18335144198110956744
23559900 14 18336841783692425616
23728640 28 18412830213451192499
257057 1 17902800652428431975
2748010 2 17909255124748367397
5104073 3 18409175385714285488
532947 4 17903641026935586423
5924683 9 18261687977647759470
69090 78 18411703205590506525
6992083 37 18412536609381414381
7097593 13 18411136905472890964
9709674 26 18333731320894340534

> <PUBCHEM_SHAPE_MULTIPOLES>
362.55
8
2.82
1.3
7.87
1.88
-0.33
1.55
-2.9
-1.83
0.69
-0.92
0.08
-0.84

> <PUBCHEM_SHAPE_SELFOVERLAP>
757.217

> <PUBCHEM_SHAPE_VOLUME>
206.3

> <PUBCHEM_COORDINATE_TYPE>
2
5
10

$$$$

