25246415
  -OEChem-07051213103D

 31 31  0     1  0  0  0  0  0999 V2000
   -0.8244   -0.1701    0.4150 S   0  0  0  0  0  0  0  0  0  0  0  0
   -3.9062   -0.4162    1.9062 O   0  0  0  0  0  0  0  0  0  0  0  0
   -5.1513    0.4746    0.2321 O   0  0  0  0  0  0  0  0  0  0  0  0
   -0.7931    2.5012    0.6627 O   0  0  0  0  0  0  0  0  0  0  0  0
   -4.1791   -1.4226   -1.5022 N   0  0  0  0  0  0  0  0  0  0  0  0
    0.2421    2.1747   -0.2120 N   0  0  0  0  0  0  0  0  0  0  0  0
   -3.3544   -1.0337   -0.3564 C   0  0  1  0  0  0  0  0  0  0  0  0
   -2.1528   -0.2140   -0.8304 C   0  0  0  0  0  0  0  0  0  0  0  0
    1.3247    0.1770   -1.2824 C   0  0  0  0  0  0  0  0  0  0  0  0
    2.6035   -0.1500   -0.5499 C   0  0  0  0  0  0  0  0  0  0  0  0
    0.3232    0.8945   -0.3983 C   0  0  0  0  0  0  0  0  0  0  0  0
    3.6586    0.7626   -0.5474 C   0  0  0  0  0  0  0  0  0  0  0  0
    2.7301   -1.3641    0.1252 C   0  0  0  0  0  0  0  0  0  0  0  0
   -4.2390   -0.2565    0.6004 C   0  0  0  0  0  0  0  0  0  0  0  0
    4.8401    0.4610    0.1299 C   0  0  0  0  0  0  0  0  0  0  0  0
    3.9116   -1.6656    0.8025 C   0  0  0  0  0  0  0  0  0  0  0  0
    4.9666   -0.7529    0.8049 C   0  0  0  0  0  0  0  0  0  0  0  0
   -3.0359   -1.9617    0.1337 H   0  0  0  0  0  0  0  0  0  0  0  0
   -1.7225   -0.6545   -1.7370 H   0  0  0  0  0  0  0  0  0  0  0  0
   -2.4521    0.8131   -1.0683 H   0  0  0  0  0  0  0  0  0  0  0  0
    0.8901   -0.7355   -1.7079 H   0  0  0  0  0  0  0  0  0  0  0  0
    1.5474    0.8284   -2.1371 H   0  0  0  0  0  0  0  0  0  0  0  0
    3.5717    1.7126   -1.0680 H   0  0  0  0  0  0  0  0  0  0  0  0
    1.9180   -2.0860    0.1288 H   0  0  0  0  0  0  0  0  0  0  0  0
   -4.9294   -2.0386   -1.1904 H   0  0  0  0  0  0  0  0  0  0  0  0
   -3.6203   -1.9679   -2.1575 H   0  0  0  0  0  0  0  0  0  0  0  0
    5.6613    1.1717    0.1321 H   0  0  0  0  0  0  0  0  0  0  0  0
    4.0106   -2.6111    1.3275 H   0  0  0  0  0  0  0  0  0  0  0  0
    5.8865   -0.9877    1.3323 H   0  0  0  0  0  0  0  0  0  0  0  0
   -4.4844    0.1105    2.4983 H   0  0  0  0  0  0  0  0  0  0  0  0
   -0.7240    3.4703    0.6952 H   0  0  0  0  0  0  0  0  0  0  0  0
  1  8  1  0  0  0  0
  1 11  1  0  0  0  0
  2 14  1  0  0  0  0
  2 30  1  0  0  0  0
  3 14  2  0  0  0  0
  4  6  1  0  0  0  0
  4 31  1  0  0  0  0
  5  7  1  0  0  0  0
  5 25  1  0  0  0  0
  5 26  1  0  0  0  0
  6 11  2  0  0  0  0
  7  8  1  0  0  0  0
  7 14  1  0  0  0  0
  7 18  1  0  0  0  0
  8 19  1  0  0  0  0
  8 20  1  0  0  0  0
  9 10  1  0  0  0  0
  9 11  1  0  0  0  0
  9 21  1  0  0  0  0
  9 22  1  0  0  0  0
 10 12  2  0  0  0  0
 10 13  1  0  0  0  0
 12 15  1  0  0  0  0
 12 23  1  0  0  0  0
 13 16  2  0  0  0  0
 13 24  1  0  0  0  0
 15 17  2  0  0  0  0
 15 27  1  0  0  0  0
 16 17  1  0  0  0  0
 16 28  1  0  0  0  0
 17 29  1  0  0  0  0
M  END
> <PUBCHEM_COMPOUND_CID>
25246415

> <PUBCHEM_CONFORMER_RMSD>
1

> <PUBCHEM_CONFORMER_DIVERSEORDER>
1
71
8
65
32
47
52
3
17
36
18
64
21
23
69
49
56
53
45
44
54
7
42
75
40
62
5
26
60
24
28
33
61
66
22
76
63
2
72
50
68
51
9
74
10
27
67
30
73
25
6
29
41
55
11
38
70
12
14
13
16
37
15
4
43
34
31
35
19
20
58
59
39
48
46
57

> <PUBCHEM_MMFF94_PARTIAL_CHARGES>
26
1 -0.37
10 -0.14
11 0.53
12 -0.15
13 -0.15
14 0.66
15 -0.15
16 -0.15
17 -0.15
2 -0.65
23 0.15
24 0.15
25 0.36
26 0.36
27 0.15
28 0.15
29 0.15
3 -0.57
30 0.5
31 0.4
4 -0.34
5 -0.99
6 -0.51
7 0.33
8 0.23
9 0.2

> <PUBCHEM_EFFECTIVE_ROTOR_COUNT>
6

> <PUBCHEM_PHARMACOPHORE_FEATURES>
8
1 2 acceptor
1 3 acceptor
1 4 anion
1 5 cation
1 5 donor
1 6 acceptor
3 2 3 14 anion
6 10 12 13 15 16 17 rings

> <PUBCHEM_HEAVY_ATOM_COUNT>
17

> <PUBCHEM_ATOM_DEF_STEREO_COUNT>
1

> <PUBCHEM_ATOM_UDEF_STEREO_COUNT>
0

> <PUBCHEM_BOND_DEF_STEREO_COUNT>
1

> <PUBCHEM_BOND_UDEF_STEREO_COUNT>
0

> <PUBCHEM_ISOTOPIC_ATOM_COUNT>
0

> <PUBCHEM_COMPONENT_COUNT>
1

> <PUBCHEM_CACTVS_TAUTO_COUNT>
2

> <PUBCHEM_CONFORMER_ID>
01813ACF00000001

> <PUBCHEM_MMFF94_ENERGY>
38.8769

> <PUBCHEM_FEATURE_SELFOVERLAP>
40.653

> <PUBCHEM_SHAPE_FINGERPRINT>
11287383 113 15913323563948098334
12596602 18 17749113248906604218
12815109 37 18410012134720213614
13544653 18 18272654549535544414
13675066 3 18060419114265839551
14251757 17 16773799220451460235
14251764 18 18411975872085100161
14252887 29 18335413595587026366
15375462 189 18412262813674035286
17834072 14 17775288278852246342
18186145 218 16200434658637395613
193927 3 17988352775943931482
19489759 90 16298386872860013267
200 152 18273217512595393918
20281475 54 18200311018176602767
20645477 70 17060615612360944554
21250096 35 18412267228821430590
21503847 285 15357702968365665370
231179 274 5689597178014905286
23402539 116 18334863817791711319
23557571 272 17676756682474828228
23559900 14 17846214398427420604
26918003 58 18060699494041804986
312423 11 18270668896593260510
4990 188 14405189469069177790
5374978 207 18409169922278585416
633830 44 12535345671284260079
6442390 28 15647054841955985150

> <PUBCHEM_SHAPE_MULTIPOLES>
326.13
11.34
1.73
1.21
2.98
0.69
-0.03
-3.63
-1.88
-0.45
-0.23
0.98
-0.2
-0.92

> <PUBCHEM_SHAPE_SELFOVERLAP>
647.73

> <PUBCHEM_SHAPE_VOLUME>
193.5

> <PUBCHEM_COORDINATE_TYPE>
2
5
10

$$$$

