446357
  -OEChem-07051213083D

 18 19  0     0  0  0  0  0  0999 V2000
   -0.3174    2.3513   -0.0004 O   0  0  0  0  0  0  0  0  0  0  0  0
   -0.2754   -2.2278   -0.0001 N   0  0  0  0  0  0  0  0  0  0  0  0
    1.8429   -1.0768   -0.0004 N   0  0  0  0  0  0  0  0  0  0  0  0
    1.7477    1.3172    0.0003 N   0  0  0  0  0  0  0  0  0  0  0  0
    3.7967    0.1543    0.0001 N   0  0  0  0  0  0  0  0  0  0  0  0
   -3.7822    0.9893    0.0001 N   0  0  0  0  0  0  0  0  0  0  0  0
    0.5045   -1.1172    0.0000 C   0  0  0  0  0  0  0  0  0  0  0  0
   -0.2753    0.0084    0.0002 C   0  0  0  0  0  0  0  0  0  0  0  0
   -1.6182   -0.4354    0.0001 C   0  0  0  0  0  0  0  0  0  0  0  0
   -1.5905   -1.8197   -0.0001 C   0  0  0  0  0  0  0  0  0  0  0  0
    0.3493    1.3229   -0.0002 C   0  0  0  0  0  0  0  0  0  0  0  0
    2.4252    0.1862    0.0002 C   0  0  0  0  0  0  0  0  0  0  0  0
   -2.8073    0.3474    0.0001 C   0  0  0  0  0  0  0  0  0  0  0  0
    0.0452   -3.1868   -0.0002 H   0  0  0  0  0  0  0  0  0  0  0  0
    2.4220   -1.9105   -0.0004 H   0  0  0  0  0  0  0  0  0  0  0  0
   -2.3846   -2.5542   -0.0002 H   0  0  0  0  0  0  0  0  0  0  0  0
    4.3058   -0.7228    0.0007 H   0  0  0  0  0  0  0  0  0  0  0  0
    4.3414    1.0099    0.0005 H   0  0  0  0  0  0  0  0  0  0  0  0
  1 11  2  0  0  0  0
  2  7  1  0  0  0  0
  2 10  1  0  0  0  0
  2 14  1  0  0  0  0
  3  7  1  0  0  0  0
  3 12  1  0  0  0  0
  3 15  1  0  0  0  0
  4 11  1  0  0  0  0
  4 12  2  0  0  0  0
  5 12  1  0  0  0  0
  5 17  1  0  0  0  0
  5 18  1  0  0  0  0
  6 13  3  0  0  0  0
  7  8  2  0  0  0  0
  8  9  1  0  0  0  0
  8 11  1  0  0  0  0
  9 10  2  0  0  0  0
  9 13  1  0  0  0  0
 10 16  1  0  0  0  0
M  END
> <PUBCHEM_COMPOUND_CID>
446357

> <PUBCHEM_CONFORMER_RMSD>
0.4

> <PUBCHEM_CONFORMER_DIVERSEORDER>
1

> <PUBCHEM_MMFF94_PARTIAL_CHARGES>
18
1 -0.57
10 -0.3
11 0.87
12 0.55
13 0.54
14 0.27
15 0.4
16 0.15
17 0.4
18 0.4
2 0.03
3 -0.53
4 -0.66
5 -0.85
6 -0.56
7 -0.07
8 -0.09
9 0.02

> <PUBCHEM_EFFECTIVE_ROTOR_COUNT>
0

> <PUBCHEM_PHARMACOPHORE_FEATURES>
9
1 1 acceptor
1 2 cation
1 2 donor
1 3 donor
1 4 donor
1 5 donor
1 6 acceptor
5 2 7 8 9 10 rings
6 3 4 7 8 11 12 rings

> <PUBCHEM_HEAVY_ATOM_COUNT>
13

> <PUBCHEM_ATOM_DEF_STEREO_COUNT>
0

> <PUBCHEM_ATOM_UDEF_STEREO_COUNT>
0

> <PUBCHEM_BOND_DEF_STEREO_COUNT>
0

> <PUBCHEM_BOND_UDEF_STEREO_COUNT>
0

> <PUBCHEM_ISOTOPIC_ATOM_COUNT>
0

> <PUBCHEM_COMPONENT_COUNT>
1

> <PUBCHEM_CACTVS_TAUTO_COUNT>
17

> <PUBCHEM_CONFORMER_ID>
0006CF9500000001

> <PUBCHEM_MMFF94_ENERGY>
26.428

> <PUBCHEM_FEATURE_SELFOVERLAP>
45.926

> <PUBCHEM_SHAPE_FINGERPRINT>
10967382 1 18338517542170039783
11471102 20 18339366395739169693
12382932 28 18409451349672974392
12423570 1 11113158368850001843
13380535 76 18409731768088139215
14993402 34 18409452487870936669
16945 1 18410856581267600358
193761 8 17906171750457021957
19973954 147 17979073786531026563
20588541 1 18408320007958210406
20645476 183 17773576270523431190
21040471 1 18338798896940491623
21501502 16 18124031234868235645
2334 1 18122343467403150568
23402539 116 18261404359355326062
23402655 69 18263939881289623069
23463225 33 18342178873241651754
23552423 10 17766561248608882318
23559900 14 18334571318810390436
25 1 18340774844343207631
2748010 2 18265894657442645798
5084963 1 17898846838321037211
528886 8 18409735062137820003
53655031 270 18341053024879555176
53812653 166 18408325479588244665

> <PUBCHEM_SHAPE_MULTIPOLES>
236.76
4.58
2.08
0.57
0.17
0.06
0
-1.06
0
-0.48
0
-0.02
0.01
0

> <PUBCHEM_SHAPE_SELFOVERLAP>
523.714

> <PUBCHEM_SHAPE_VOLUME>
122.7

> <PUBCHEM_COORDINATE_TYPE>
2
5
10

$$$$

