54686904
  -OEChem-07051213022D

 81 84  0     1  0  0  0  0  0999 V2000
    6.0678    1.5969    0.0000 O   0  0  0  0  0  0  0  0  0  0  0  0
    6.9338    2.0969    0.0000 O   0  0  0  0  0  0  0  0  0  0  0  0
    4.8427    2.0751    0.0000 O   0  0  0  0  0  0  0  0  0  0  0  0
    8.6822    2.1315    0.0000 O   0  0  0  0  0  0  0  0  0  0  0  0
    3.4037   -0.9273    0.0000 O   0  0  0  0  0  0  0  0  0  0  0  0
   10.5194    2.1746    0.0000 O   0  0  0  0  0  0  0  0  0  0  0  0
    3.4075    2.1210    0.0000 O   0  0  0  0  0  0  0  0  0  0  0  0
   13.2107   -0.3539    0.0000 O   0  0  0  0  0  0  0  0  0  0  0  0
    5.1854   -1.9377    0.0000 N   0  0  0  0  0  0  0  0  0  0  0  0
   10.5194   -1.9808    0.0000 N   0  0  0  0  0  0  0  0  0  0  0  0
    2.5357    0.6244    0.0000 N   0  0  0  0  0  0  0  0  0  0  0  0
   12.3389    1.1427    0.0000 N   0  0  0  0  0  0  0  0  0  0  0  0
   14.9389    0.6527    0.0000 N   0  0  0  0  0  0  0  0  0  0  0  0
    6.0678   -0.4031    0.0000 C   0  0  1  0  0  0  0  0  0  0  0  0
    6.0678    0.5969    0.0000 C   0  0  1  0  0  0  0  0  0  0  0  0
    6.9338   -0.9031    0.0000 C   0  0  0  0  0  0  0  0  0  0  0  0
    7.7998   -0.4031    0.0000 C   0  0  1  0  0  0  0  0  0  0  0  0
    5.1738   -0.9378    0.0000 C   0  0  1  0  0  0  0  0  0  0  0  0
    7.7998    0.5969    0.0000 C   0  0  0  0  0  0  0  0  0  0  0  0
    6.9338    1.0969    0.0000 C   0  0  0  0  0  0  0  0  0  0  0  0
    8.6938   -0.9378    0.0000 C   0  0  0  0  0  0  0  0  0  0  0  0
    5.1738    1.1316    0.0000 C   0  0  0  0  0  0  0  0  0  0  0  0
    4.2678   -0.4239    0.0000 C   0  0  0  0  0  0  0  0  0  0  0  0
    9.5998   -0.4239    0.0000 C   0  0  0  0  0  0  0  0  0  0  0  0
    8.6938    1.1316    0.0000 C   0  0  0  0  0  0  0  0  0  0  0  0
    4.2678    0.6177    0.0000 C   0  0  0  0  0  0  0  0  0  0  0  0
    9.5998    0.6177    0.0000 C   0  0  0  0  0  0  0  0  0  0  0  0
   10.5310   -0.9808    0.0000 C   0  0  0  0  0  0  0  0  0  0  0  0
    4.3252   -2.4477    0.0000 C   0  0  0  0  0  0  0  0  0  0  0  0
    6.0572   -2.4276    0.0000 C   0  0  0  0  0  0  0  0  0  0  0  0
   10.5310    1.1746    0.0000 C   0  0  0  0  0  0  0  0  0  0  0  0
    3.4037    1.1211    0.0000 C   0  0  0  0  0  0  0  0  0  0  0  0
   11.4748   -0.4456    0.0000 C   0  0  0  0  0  0  0  0  0  0  0  0
   11.4748    0.6394    0.0000 C   0  0  0  0  0  0  0  0  0  0  0  0
   11.3796   -2.4907    0.0000 C   0  0  0  0  0  0  0  0  0  0  0  0
    9.6477   -2.4707    0.0000 C   0  0  0  0  0  0  0  0  0  0  0  0
   13.2068    0.6461    0.0000 C   0  0  0  0  0  0  0  0  0  0  0  0
   14.0709    1.1494    0.0000 C   0  0  0  0  0  0  0  0  0  0  0  0
   15.8030    1.1561    0.0000 C   0  0  0  0  0  0  0  0  0  0  0  0
   16.6670    1.6594    0.0000 C   0  0  0  0  0  0  0  0  0  0  0  0
   16.3063    0.2920    0.0000 C   0  0  0  0  0  0  0  0  0  0  0  0
   15.2996    2.0202    0.0000 C   0  0  0  0  0  0  0  0  0  0  0  0
    6.0743   -1.2531    0.0000 H   0  0  0  0  0  0  0  0  0  0  0  0
    6.5353   -1.3780    0.0000 H   0  0  0  0  0  0  0  0  0  0  0  0
    7.3323   -1.3780    0.0000 H   0  0  0  0  0  0  0  0  0  0  0  0
    7.7933   -1.2531    0.0000 H   0  0  0  0  0  0  0  0  0  0  0  0
    5.7149   -1.2405    0.0000 H   0  0  0  0  0  0  0  0  0  0  0  0
    8.2892   -1.4076    0.0000 H   0  0  0  0  0  0  0  0  0  0  0  0
    9.0874   -1.4168    0.0000 H   0  0  0  0  0  0  0  0  0  0  0  0
    5.6693    2.0718    0.0000 H   0  0  0  0  0  0  0  0  0  0  0  0
    5.7534   -2.9681    0.0000 H   0  0  0  0  0  0  0  0  0  0  0  0
    6.5976   -2.7314    0.0000 H   0  0  0  0  0  0  0  0  0  0  0  0
    6.3609   -1.8872    0.0000 H   0  0  0  0  0  0  0  0  0  0  0  0
    4.0090   -1.9144    0.0000 H   0  0  0  0  0  0  0  0  0  0  0  0
    3.7919   -2.7639    0.0000 H   0  0  0  0  0  0  0  0  0  0  0  0
    4.6414   -2.9810    0.0000 H   0  0  0  0  0  0  0  0  0  0  0  0
    4.2334    2.1899    0.0000 H   0  0  0  0  0  0  0  0  0  0  0  0
   12.0105   -0.7577    0.0000 H   0  0  0  0  0  0  0  0  0  0  0  0
    9.2155    2.4477    0.0000 H   0  0  0  0  0  0  0  0  0  0  0  0
    2.0000    0.9365    0.0000 H   0  0  0  0  0  0  0  0  0  0  0  0
    2.5334    0.0044    0.0000 H   0  0  0  0  0  0  0  0  0  0  0  0
   11.0528    2.4907    0.0000 H   0  0  0  0  0  0  0  0  0  0  0  0
   12.3365    1.7627    0.0000 H   0  0  0  0  0  0  0  0  0  0  0  0
   11.0634   -3.0241    0.0000 H   0  0  0  0  0  0  0  0  0  0  0  0
   11.9129   -2.8069    0.0000 H   0  0  0  0  0  0  0  0  0  0  0  0
   11.6958   -1.9574    0.0000 H   0  0  0  0  0  0  0  0  0  0  0  0
    9.3439   -1.9302    0.0000 H   0  0  0  0  0  0  0  0  0  0  0  0
    9.1072   -2.7745    0.0000 H   0  0  0  0  0  0  0  0  0  0  0  0
    9.9515   -3.0112    0.0000 H   0  0  0  0  0  0  0  0  0  0  0  0
   14.4676    1.6259    0.0000 H   0  0  0  0  0  0  0  0  0  0  0  0
   13.6706    1.6228    0.0000 H   0  0  0  0  0  0  0  0  0  0  0  0
   14.9413    0.0328    0.0000 H   0  0  0  0  0  0  0  0  0  0  0  0
   15.7706   -0.0201    0.0000 H   0  0  0  0  0  0  0  0  0  0  0  0
   16.6184   -0.2437    0.0000 H   0  0  0  0  0  0  0  0  0  0  0  0
   16.8420    0.6041    0.0000 H   0  0  0  0  0  0  0  0  0  0  0  0
   15.8354    2.3322    0.0000 H   0  0  0  0  0  0  0  0  0  0  0  0
   14.9876    2.5559    0.0000 H   0  0  0  0  0  0  0  0  0  0  0  0
   14.7639    1.7081    0.0000 H   0  0  0  0  0  0  0  0  0  0  0  0
   16.9791    1.1237    0.0000 H   0  0  0  0  0  0  0  0  0  0  0  0
   17.2028    1.9715    0.0000 H   0  0  0  0  0  0  0  0  0  0  0  0
   16.3550    2.1952    0.0000 H   0  0  0  0  0  0  0  0  0  0  0  0
 15  1  1  6  0  0  0
  1 50  1  0  0  0  0
  2 20  2  0  0  0  0
  3 22  1  0  0  0  0
  3 57  1  0  0  0  0
  4 25  1  0  0  0  0
  4 59  1  0  0  0  0
  5 23  2  0  0  0  0
  6 31  1  0  0  0  0
  6 62  1  0  0  0  0
  7 32  2  0  0  0  0
  8 37  2  0  0  0  0
 18  9  1  6  0  0  0
  9 29  1  0  0  0  0
  9 30  1  0  0  0  0
 10 28  1  0  0  0  0
 10 35  1  0  0  0  0
 10 36  1  0  0  0  0
 11 32  1  0  0  0  0
 11 60  1  0  0  0  0
 11 61  1  0  0  0  0
 12 34  1  0  0  0  0
 12 37  1  0  0  0  0
 12 63  1  0  0  0  0
 13 38  1  0  0  0  0
 13 39  1  0  0  0  0
 13 72  1  0  0  0  0
 14 15  1  0  0  0  0
 14 16  1  0  0  0  0
 14 18  1  0  0  0  0
 14 43  1  6  0  0  0
 15 20  1  0  0  0  0
 15 22  1  0  0  0  0
 16 17  1  0  0  0  0
 16 44  1  0  0  0  0
 16 45  1  0  0  0  0
 17 19  1  0  0  0  0
 17 21  1  0  0  0  0
 17 46  1  6  0  0  0
 18 23  1  0  0  0  0
 18 47  1  0  0  0  0
 19 20  1  0  0  0  0
 19 25  2  0  0  0  0
 21 24  1  0  0  0  0
 21 48  1  0  0  0  0
 21 49  1  0  0  0  0
 22 26  2  0  0  0  0
 23 26  1  0  0  0  0
 24 27  1  0  0  0  0
 24 28  2  0  0  0  0
 25 27  1  0  0  0  0
 26 32  1  0  0  0  0
 27 31  2  0  0  0  0
 28 33  1  0  0  0  0
 29 54  1  0  0  0  0
 29 55  1  0  0  0  0
 29 56  1  0  0  0  0
 30 51  1  0  0  0  0
 30 52  1  0  0  0  0
 30 53  1  0  0  0  0
 31 34  1  0  0  0  0
 33 34  2  0  0  0  0
 33 58  1  0  0  0  0
 35 64  1  0  0  0  0
 35 65  1  0  0  0  0
 35 66  1  0  0  0  0
 36 67  1  0  0  0  0
 36 68  1  0  0  0  0
 36 69  1  0  0  0  0
 37 38  1  0  0  0  0
 38 70  1  0  0  0  0
 38 71  1  0  0  0  0
 39 40  1  0  0  0  0
 39 41  1  0  0  0  0
 39 42  1  0  0  0  0
 40 79  1  0  0  0  0
 40 80  1  0  0  0  0
 40 81  1  0  0  0  0
 41 73  1  0  0  0  0
 41 74  1  0  0  0  0
 41 75  1  0  0  0  0
 42 76  1  0  0  0  0
 42 77  1  0  0  0  0
 42 78  1  0  0  0  0
M  END
> <PUBCHEM_COMPOUND_CID>
54686904

> <PUBCHEM_COMPOUND_CANONICALIZED>
1

> <PUBCHEM_CACTVS_COMPLEXITY>
1240

> <PUBCHEM_CACTVS_HBOND_ACCEPTOR>
11

> <PUBCHEM_CACTVS_HBOND_DONOR>
7

> <PUBCHEM_CACTVS_ROTATABLE_BOND>
7

> <PUBCHEM_CACTVS_SUBSKEYS>
AAADcfB7vAAAAAAAAAAAAAAAAAAAAAAAAAAwYIEAAAAAAACBAAAAHgAQCAAADezBmAQyxoPAAgCIAqVSUAKCAAAhIgAAiIHNbMgLZz7a0POUcAhn9BHZ2Qe+zvCuiEABQAQaEADQgAaACDQgAAAAAAAAAA==

> <PUBCHEM_IUPAC_OPENEYE_NAME>
(4S,4aS,5aR,12aR)-9-[[2-(tert-butylamino)acetyl]amino]-4,7-bis(dimethylamino)-1,10,11,12a-tetrahydroxy-3,12-dioxo-4a,5,5a,6-tetrahydro-4H-tetracene-2-carboxamide

> <PUBCHEM_IUPAC_CAS_NAME>
(4S,4aS,5aR,12aR)-9-[[2-(tert-butylamino)-1-oxoethyl]amino]-4,7-bis(dimethylamino)-1,10,11,12a-tetrahydroxy-3,12-dioxo-4a,5,5a,6-tetrahydro-4H-tetracene-2-carboxamide

> <PUBCHEM_IUPAC_NAME>
(4S,4aS,5aR,12aR)-9-[[2-(tert-butylamino)acetyl]amino]-4,7-bis(dimethylamino)-1,10,11,12a-tetrahydroxy-3,12-dioxo-4a,5,5a,6-tetrahydro-4H-tetracene-2-carboxamide

> <PUBCHEM_IUPAC_SYSTEMATIC_NAME>
(4S,4aS,5aR,12aR)-9-[2-(tert-butylamino)ethanoylamino]-4,7-bis(dimethylamino)-1,10,11,12a-tetrakis(oxidanyl)-3,12-bis(oxidanylidene)-4a,5,5a,6-tetrahydro-4H-tetracene-2-carboxamide

> <PUBCHEM_IUPAC_TRADITIONAL_NAME>
(4S,4aS,5aR,12aR)-9-[[2-(tert-butylamino)acetyl]amino]-4,7-bis(dimethylamino)-1,10,11,12a-tetrahydroxy-3,12-diketo-4a,5,5a,6-tetrahydro-4H-tetracene-2-carboxamide

> <PUBCHEM_IUPAC_INCHI>
InChI=1S/C29H39N5O8/c1-28(2,3)31-11-17(35)32-15-10-16(33(4)5)13-8-12-9-14-21(34(6)7)24(38)20(27(30)41)26(40)29(14,42)25(39)18(12)23(37)19(13)22(15)36/h10,12,14,21,31,36-37,40,42H,8-9,11H2,1-7H3,(H2,30,41)(H,32,35)/t12-,14-,21-,29-/m0/s1

> <PUBCHEM_IUPAC_INCHIKEY>
SOVUOXKZCCAWOJ-HJYUBDRYSA-N

> <PUBCHEM_XLOGP3_AA>
1.1

> <PUBCHEM_EXACT_MASS>
585.279863

> <PUBCHEM_MOLECULAR_FORMULA>
C29H39N5O8

> <PUBCHEM_MOLECULAR_WEIGHT>
585.64866

> <PUBCHEM_OPENEYE_CAN_SMILES>
CC(C)(C)NCC(=O)NC1=C(C2=C(CC3CC4C(C(=O)C(=C(C4(C(=O)C3=C2O)O)O)C(=O)N)N(C)C)C(=C1)N(C)C)O

> <PUBCHEM_OPENEYE_ISO_SMILES>
CC(C)(C)NCC(=O)NC1=C(C2=C(C[C@H]3C[C@H]4[C@@H](C(=O)C(=C([C@]4(C(=O)C3=C2O)O)O)C(=O)N)N(C)C)C(=C1)N(C)C)O

> <PUBCHEM_CACTVS_TPSA>
206

> <PUBCHEM_MONOISOTOPIC_WEIGHT>
585.279863

> <PUBCHEM_TOTAL_CHARGE>
0

> <PUBCHEM_HEAVY_ATOM_COUNT>
42

> <PUBCHEM_ATOM_DEF_STEREO_COUNT>
4

> <PUBCHEM_ATOM_UDEF_STEREO_COUNT>
0

> <PUBCHEM_BOND_DEF_STEREO_COUNT>
0

> <PUBCHEM_BOND_UDEF_STEREO_COUNT>
0

> <PUBCHEM_ISOTOPIC_ATOM_COUNT>
0

> <PUBCHEM_COMPONENT_COUNT>
1

> <PUBCHEM_CACTVS_TAUTO_COUNT>
1000

> <PUBCHEM_COORDINATE_TYPE>
1
5
255

> <PUBCHEM_BONDANNOTATIONS>
15  1  6
14  43  6
17  46  6
24  27  8
24  28  8
27  31  8
28  33  8
31  34  8
33  34  8
18  9  6

$$$$

