17395862
  -OEChem-06241222522D

 45 47  0     1  0  0  0  0  0999 V2000
    9.6885    1.9215    0.0000 Cl  0  0  0  0  0  0  0  0  0  0  0  0
   11.5155    1.1081    0.0000 Cl  0  0  0  0  0  0  0  0  0  0  0  0
    4.2788    1.2372    0.0000 O   0  0  0  0  0  0  0  0  0  0  0  0
    6.3479   -1.6106    0.0000 O   0  0  0  0  0  0  0  0  0  0  0  0
    4.5878   -1.3319    0.0000 N   0  0  0  0  0  0  0  0  0  0  0  0
    5.5388   -0.0229    0.0000 N   0  0  0  0  0  0  0  0  0  0  0  0
    7.2614    0.1582    0.0000 N   0  0  3  0  0  0  0  0  0  0  0  0
    4.0000   -0.5229    0.0000 C   0  0  0  0  0  0  0  0  0  0  0  0
    3.5000   -1.3889    0.0000 C   0  0  0  0  0  0  0  0  0  0  0  0
    3.5000    0.3432    0.0000 C   0  0  0  0  0  0  0  0  0  0  0  0
    2.5000   -1.3889    0.0000 C   0  0  0  0  0  0  0  0  0  0  0  0
    2.5000    0.3432    0.0000 C   0  0  0  0  0  0  0  0  0  0  0  0
    2.0000   -0.5229    0.0000 C   0  0  0  0  0  0  0  0  0  0  0  0
    4.5878    0.2862    0.0000 C   0  0  0  0  0  0  0  0  0  0  0  0
    5.5388   -1.0229    0.0000 C   0  0  0  0  0  0  0  0  0  0  0  0
    6.3479    0.5649    0.0000 C   0  0  0  0  0  0  0  0  0  0  0  0
    8.0704    0.7460    0.0000 C   0  0  0  0  0  0  0  0  0  0  0  0
    7.3659   -0.8363    0.0000 C   0  0  0  0  0  0  0  0  0  0  0  0
    8.9840    0.3392    0.0000 C   0  0  0  0  0  0  0  0  0  0  0  0
    9.7930    0.9270    0.0000 C   0  0  0  0  0  0  0  0  0  0  0  0
    9.0885   -0.6553    0.0000 C   0  0  0  0  0  0  0  0  0  0  0  0
   10.7065    0.5203    0.0000 C   0  0  0  0  0  0  0  0  0  0  0  0
   10.0020   -1.0620    0.0000 C   0  0  0  0  0  0  0  0  0  0  0  0
   10.8111   -0.4742    0.0000 C   0  0  0  0  0  0  0  0  0  0  0  0
    4.0826    0.5552    0.0000 H   0  0  0  0  0  0  0  0  0  0  0  0
    3.3923    0.9537    0.0000 H   0  0  0  0  0  0  0  0  0  0  0  0
    3.3923   -1.9995    0.0000 H   0  0  0  0  0  0  0  0  0  0  0  0
    4.0826   -1.6009    0.0000 H   0  0  0  0  0  0  0  0  0  0  0  0
    2.6077    0.9537    0.0000 H   0  0  0  0  0  0  0  0  0  0  0  0
    1.9174    0.5552    0.0000 H   0  0  0  0  0  0  0  0  0  0  0  0
    1.9174   -1.6009    0.0000 H   0  0  0  0  0  0  0  0  0  0  0  0
    2.6077   -1.9995    0.0000 H   0  0  0  0  0  0  0  0  0  0  0  0
    1.5250   -0.1243    0.0000 H   0  0  0  0  0  0  0  0  0  0  0  0
    1.5250   -0.9214    0.0000 H   0  0  0  0  0  0  0  0  0  0  0  0
    4.3962   -1.9215    0.0000 H   0  0  0  0  0  0  0  0  0  0  0  0
    6.6946    1.0789    0.0000 H   0  0  0  0  0  0  0  0  0  0  0  0
    5.9019    0.9956    0.0000 H   0  0  0  0  0  0  0  0  0  0  0  0
    8.4171    1.2600    0.0000 H   0  0  0  0  0  0  0  0  0  0  0  0
    7.6244    1.1767    0.0000 H   0  0  0  0  0  0  0  0  0  0  0  0
    6.7493   -0.9011    0.0000 H   0  0  0  0  0  0  0  0  0  0  0  0
    7.4307   -1.4529    0.0000 H   0  0  0  0  0  0  0  0  0  0  0  0
    7.9825   -0.7715    0.0000 H   0  0  0  0  0  0  0  0  0  0  0  0
    8.5869   -1.0197    0.0000 H   0  0  0  0  0  0  0  0  0  0  0  0
   10.0668   -1.6786    0.0000 H   0  0  0  0  0  0  0  0  0  0  0  0
   11.3775   -0.7264    0.0000 H   0  0  0  0  0  0  0  0  0  0  0  0
  1 20  1  0  0  0  0
  2 22  1  0  0  0  0
  3 14  2  0  0  0  0
  4 15  2  0  0  0  0
  5  8  1  0  0  0  0
  5 15  1  0  0  0  0
  5 35  1  0  0  0  0
  6 14  1  0  0  0  0
  6 15  1  0  0  0  0
  6 16  1  0  0  0  0
  7 16  1  0  0  0  0
  7 17  1  0  0  0  0
  7 18  1  0  0  0  0
  8  9  1  0  0  0  0
  8 10  1  0  0  0  0
  8 14  1  0  0  0  0
  9 11  1  0  0  0  0
  9 27  1  0  0  0  0
  9 28  1  0  0  0  0
 10 12  1  0  0  0  0
 10 25  1  0  0  0  0
 10 26  1  0  0  0  0
 11 13  1  0  0  0  0
 11 31  1  0  0  0  0
 11 32  1  0  0  0  0
 12 13  1  0  0  0  0
 12 29  1  0  0  0  0
 12 30  1  0  0  0  0
 13 33  1  0  0  0  0
 13 34  1  0  0  0  0
 16 36  1  0  0  0  0
 16 37  1  0  0  0  0
 17 19  1  0  0  0  0
 17 38  1  0  0  0  0
 17 39  1  0  0  0  0
 18 40  1  0  0  0  0
 18 41  1  0  0  0  0
 18 42  1  0  0  0  0
 19 20  2  0  0  0  0
 19 21  1  0  0  0  0
 20 22  1  0  0  0  0
 21 23  2  0  0  0  0
 21 43  1  0  0  0  0
 22 24  2  0  0  0  0
 23 24  1  0  0  0  0
 23 44  1  0  0  0  0
 24 45  1  0  0  0  0
M  END
> <PUBCHEM_COMPOUND_CID>
17395862

> <PUBCHEM_COMPOUND_CANONICALIZED>
1

> <PUBCHEM_CACTVS_COMPLEXITY>
496

> <PUBCHEM_CACTVS_HBOND_ACCEPTOR>
3

> <PUBCHEM_CACTVS_HBOND_DONOR>
1

> <PUBCHEM_CACTVS_ROTATABLE_BOND>
4

> <PUBCHEM_CACTVS_SUBSKEYS>
AAADceB7MAAGAAAAAAAAAAAAAAAAAWAAAAAwYAAAAAAAAAABAAAAHgIQAAAADIrBmCQzAIPAAACIAiFSEACCAAAgBQAIikGIBoiIYDKBkzGUIAholyIIiAcYiACOAAAAIAABAAQAAABAAAIACAAAAAAAAA==

> <PUBCHEM_IUPAC_OPENEYE_NAME>
3-[[(2,3-dichlorophenyl)methyl-methyl-amino]methyl]-1,3-diazaspiro[4.5]decane-2,4-dione

> <PUBCHEM_IUPAC_CAS_NAME>
3-[[(2,3-dichlorophenyl)methyl-methylamino]methyl]-1,3-diazaspiro[4.5]decane-2,4-dione

> <PUBCHEM_IUPAC_NAME>
3-[[(2,3-dichlorophenyl)methyl-methylamino]methyl]-1,3-diazaspiro[4.5]decane-2,4-dione

> <PUBCHEM_IUPAC_SYSTEMATIC_NAME>
3-[[[2,3-bis(chloranyl)phenyl]methyl-methyl-amino]methyl]-1,3-diazaspiro[4.5]decane-2,4-dione

> <PUBCHEM_IUPAC_TRADITIONAL_NAME>
3-[[(2,3-dichlorobenzyl)-methyl-amino]methyl]-1,3-diazaspiro[4.5]decane-2,4-quinone

> <PUBCHEM_IUPAC_INCHI>
InChI=1S/C17H21Cl2N3O2/c1-21(10-12-6-5-7-13(18)14(12)19)11-22-15(23)17(20-16(22)24)8-3-2-4-9-17/h5-7H,2-4,8-11H2,1H3,(H,20,24)

> <PUBCHEM_IUPAC_INCHIKEY>
QZTKMYCJLUGSID-UHFFFAOYSA-N

> <PUBCHEM_XLOGP3_AA>
3.6

> <PUBCHEM_EXACT_MASS>
369.101082

> <PUBCHEM_MOLECULAR_FORMULA>
C17H21Cl2N3O2

> <PUBCHEM_MOLECULAR_WEIGHT>
370.27354

> <PUBCHEM_OPENEYE_CAN_SMILES>
CN(CC1=C(C(=CC=C1)Cl)Cl)CN2C(=O)C3(CCCCC3)NC2=O

> <PUBCHEM_OPENEYE_ISO_SMILES>
CN(CC1=C(C(=CC=C1)Cl)Cl)CN2C(=O)C3(CCCCC3)NC2=O

> <PUBCHEM_CACTVS_TPSA>
52.6

> <PUBCHEM_MONOISOTOPIC_WEIGHT>
369.101082

> <PUBCHEM_TOTAL_CHARGE>
0

> <PUBCHEM_HEAVY_ATOM_COUNT>
24

> <PUBCHEM_ATOM_DEF_STEREO_COUNT>
0

> <PUBCHEM_ATOM_UDEF_STEREO_COUNT>
0

> <PUBCHEM_BOND_DEF_STEREO_COUNT>
0

> <PUBCHEM_BOND_UDEF_STEREO_COUNT>
0

> <PUBCHEM_ISOTOPIC_ATOM_COUNT>
0

> <PUBCHEM_COMPONENT_COUNT>
1

> <PUBCHEM_CACTVS_TAUTO_COUNT>
2

> <PUBCHEM_COORDINATE_TYPE>
1
5
255

> <PUBCHEM_BONDANNOTATIONS>
19  20  8
19  21  8
20  22  8
21  23  8
22  24  8
23  24  8

$$$$

