47205805
  -OEChem-06241223002D

 40 42  0     0  0  0  0  0  0999 V2000
    2.0000   -1.0843    0.0000 O   0  0  0  0  0  0  0  0  0  0  0  0
    5.4641   -0.0843    0.0000 O   0  0  0  0  0  0  0  0  0  0  0  0
    4.5981    1.4157    0.0000 N   0  0  0  0  0  0  0  0  0  0  0  0
    3.7320   -1.0843    0.0000 N   0  0  0  0  0  0  0  0  0  0  0  0
    2.8660   -2.5843    0.0000 C   0  0  0  0  0  0  0  0  0  0  0  0
    2.3660   -3.4503    0.0000 C   0  0  0  0  0  0  0  0  0  0  0  0
    3.3660   -3.4503    0.0000 C   0  0  0  0  0  0  0  0  0  0  0  0
    2.8660   -1.5843    0.0000 C   0  0  0  0  0  0  0  0  0  0  0  0
    3.7320    1.9157    0.0000 C   0  0  0  0  0  0  0  0  0  0  0  0
    3.7320    2.9157    0.0000 C   0  0  0  0  0  0  0  0  0  0  0  0
    4.5981    3.4157    0.0000 C   0  0  0  0  0  0  0  0  0  0  0  0
    5.4641    1.9157    0.0000 C   0  0  0  0  0  0  0  0  0  0  0  0
    5.4641    2.9157    0.0000 C   0  0  0  0  0  0  0  0  0  0  0  0
    3.7320   -0.0843    0.0000 C   0  0  0  0  0  0  0  0  0  0  0  0
    4.5981    0.4157    0.0000 C   0  0  0  0  0  0  0  0  0  0  0  0
    6.3580    3.4503    0.0000 C   0  0  0  0  0  0  0  0  0  0  0  0
    6.3580    1.3810    0.0000 C   0  0  0  0  0  0  0  0  0  0  0  0
    7.2641    2.9365    0.0000 C   0  0  0  0  0  0  0  0  0  0  0  0
    7.2641    1.8949    0.0000 C   0  0  0  0  0  0  0  0  0  0  0  0
    8.1282    3.4398    0.0000 C   0  0  0  0  0  0  0  0  0  0  0  0
    3.4649   -2.4238    0.0000 H   0  0  0  0  0  0  0  0  0  0  0  0
    1.7834   -3.2383    0.0000 H   0  0  0  0  0  0  0  0  0  0  0  0
    2.2584   -4.0609    0.0000 H   0  0  0  0  0  0  0  0  0  0  0  0
    3.4737   -4.0609    0.0000 H   0  0  0  0  0  0  0  0  0  0  0  0
    3.9486   -3.2383    0.0000 H   0  0  0  0  0  0  0  0  0  0  0  0
    3.1215    2.0233    0.0000 H   0  0  0  0  0  0  0  0  0  0  0  0
    3.5200    1.3331    0.0000 H   0  0  0  0  0  0  0  0  0  0  0  0
    3.5200    3.4983    0.0000 H   0  0  0  0  0  0  0  0  0  0  0  0
    3.1215    2.8080    0.0000 H   0  0  0  0  0  0  0  0  0  0  0  0
    4.9966    3.8906    0.0000 H   0  0  0  0  0  0  0  0  0  0  0  0
    4.1996    3.8906    0.0000 H   0  0  0  0  0  0  0  0  0  0  0  0
    4.2690   -1.3943    0.0000 H   0  0  0  0  0  0  0  0  0  0  0  0
    3.5200    0.4983    0.0000 H   0  0  0  0  0  0  0  0  0  0  0  0
    3.1215   -0.1920    0.0000 H   0  0  0  0  0  0  0  0  0  0  0  0
    6.3509    4.0703    0.0000 H   0  0  0  0  0  0  0  0  0  0  0  0
    6.3509    0.7611    0.0000 H   0  0  0  0  0  0  0  0  0  0  0  0
    7.7998    1.5828    0.0000 H   0  0  0  0  0  0  0  0  0  0  0  0
    8.4403    2.9041    0.0000 H   0  0  0  0  0  0  0  0  0  0  0  0
    8.6639    3.7519    0.0000 H   0  0  0  0  0  0  0  0  0  0  0  0
    7.8161    3.9756    0.0000 H   0  0  0  0  0  0  0  0  0  0  0  0
  1  8  2  0  0  0  0
  2 15  2  0  0  0  0
  3  9  1  0  0  0  0
  3 12  1  0  0  0  0
  3 15  1  0  0  0  0
  4  8  1  0  0  0  0
  4 14  1  0  0  0  0
  4 32  1  0  0  0  0
  5  6  1  0  0  0  0
  5  7  1  0  0  0  0
  5  8  1  0  0  0  0
  5 21  1  0  0  0  0
  6  7  1  0  0  0  0
  6 22  1  0  0  0  0
  6 23  1  0  0  0  0
  7 24  1  0  0  0  0
  7 25  1  0  0  0  0
  9 10  1  0  0  0  0
  9 26  1  0  0  0  0
  9 27  1  0  0  0  0
 10 11  1  0  0  0  0
 10 28  1  0  0  0  0
 10 29  1  0  0  0  0
 11 13  1  0  0  0  0
 11 30  1  0  0  0  0
 11 31  1  0  0  0  0
 12 13  2  0  0  0  0
 12 17  1  0  0  0  0
 13 16  1  0  0  0  0
 14 15  1  0  0  0  0
 14 33  1  0  0  0  0
 14 34  1  0  0  0  0
 16 18  2  0  0  0  0
 16 35  1  0  0  0  0
 17 19  2  0  0  0  0
 17 36  1  0  0  0  0
 18 19  1  0  0  0  0
 18 20  1  0  0  0  0
 19 37  1  0  0  0  0
 20 38  1  0  0  0  0
 20 39  1  0  0  0  0
 20 40  1  0  0  0  0
M  END
> <PUBCHEM_COMPOUND_CID>
47205805

> <PUBCHEM_COMPOUND_CANONICALIZED>
1

> <PUBCHEM_CACTVS_COMPLEXITY>
392

> <PUBCHEM_CACTVS_HBOND_ACCEPTOR>
2

> <PUBCHEM_CACTVS_HBOND_DONOR>
1

> <PUBCHEM_CACTVS_ROTATABLE_BOND>
3

> <PUBCHEM_CACTVS_SUBSKEYS>
AAADceB7MAAAAAAAAAAAAAAAGAAAAAAAAAA8QAAAAAAAAACxAAAAHgAQAAAADQjBmAQywIPAAACIAiVSUACCAAAhAgAIiIGIZIgIYDLAkbGUIAhglgDIyAcQgMAOCAACAAACAAAQAAQAAAQAAAAAAAAAAA==

> <PUBCHEM_IUPAC_OPENEYE_NAME>
N-[2-(6-methyl-3,4-dihydro-2H-quinolin-1-yl)-2-oxo-ethyl]cyclopropanecarboxamide

> <PUBCHEM_IUPAC_CAS_NAME>
N-[2-(6-methyl-3,4-dihydro-2H-quinolin-1-yl)-2-oxoethyl]cyclopropanecarboxamide

> <PUBCHEM_IUPAC_NAME>
N-[2-(6-methyl-3,4-dihydro-2H-quinolin-1-yl)-2-oxoethyl]cyclopropanecarboxamide

> <PUBCHEM_IUPAC_SYSTEMATIC_NAME>
N-[2-(6-methyl-3,4-dihydro-2H-quinolin-1-yl)-2-oxidanylidene-ethyl]cyclopropanecarboxamide

> <PUBCHEM_IUPAC_TRADITIONAL_NAME>
N-[2-keto-2-(6-methyl-3,4-dihydro-2H-quinolin-1-yl)ethyl]cyclopropanecarboxamide

> <PUBCHEM_IUPAC_INCHI>
InChI=1S/C16H20N2O2/c1-11-4-7-14-13(9-11)3-2-8-18(14)15(19)10-17-16(20)12-5-6-12/h4,7,9,12H,2-3,5-6,8,10H2,1H3,(H,17,20)

> <PUBCHEM_IUPAC_INCHIKEY>
QSJGMJBJDRPSCZ-UHFFFAOYSA-N

> <PUBCHEM_XLOGP3_AA>
1.8

> <PUBCHEM_EXACT_MASS>
272.152478

> <PUBCHEM_MOLECULAR_FORMULA>
C16H20N2O2

> <PUBCHEM_MOLECULAR_WEIGHT>
272.3422

> <PUBCHEM_OPENEYE_CAN_SMILES>
CC1=CC2=C(C=C1)N(CCC2)C(=O)CNC(=O)C3CC3

> <PUBCHEM_OPENEYE_ISO_SMILES>
CC1=CC2=C(C=C1)N(CCC2)C(=O)CNC(=O)C3CC3

> <PUBCHEM_CACTVS_TPSA>
49.4

> <PUBCHEM_MONOISOTOPIC_WEIGHT>
272.152478

> <PUBCHEM_TOTAL_CHARGE>
0

> <PUBCHEM_HEAVY_ATOM_COUNT>
20

> <PUBCHEM_ATOM_DEF_STEREO_COUNT>
0

> <PUBCHEM_ATOM_UDEF_STEREO_COUNT>
0

> <PUBCHEM_BOND_DEF_STEREO_COUNT>
0

> <PUBCHEM_BOND_UDEF_STEREO_COUNT>
0

> <PUBCHEM_ISOTOPIC_ATOM_COUNT>
0

> <PUBCHEM_COMPONENT_COUNT>
1

> <PUBCHEM_CACTVS_TAUTO_COUNT>
2

> <PUBCHEM_COORDINATE_TYPE>
1
5
255

> <PUBCHEM_BONDANNOTATIONS>
12  13  8
12  17  8
13  16  8
16  18  8
17  19  8
18  19  8

$$$$

