9368
  -OEChem-06261203392D

  8  6  0     0  0  0  0  0  0999 V2000
    0.0000    1.0000    0.0000 I   0  0  0  0  0  0  0  0  0  0  0  0
    3.4641    1.0000    0.0000 Na  0  3  0  0  0  0  0  0  0  0  0  0
    2.5981    1.5000    0.0000 O   0  5  0  0  0  0  0  0  0  0  0  0
    1.7321    0.0000    0.0000 O   0  0  0  0  0  0  0  0  0  0  0  0
    0.8660    1.5000    0.0000 C   0  0  0  0  0  0  0  0  0  0  0  0
    1.7321    1.0000    0.0000 C   0  0  0  0  0  0  0  0  0  0  0  0
    1.2646    1.9749    0.0000 H   0  0  0  0  0  0  0  0  0  0  0  0
    0.4675    1.9749    0.0000 H   0  0  0  0  0  0  0  0  0  0  0  0
  1  5  1  0  0  0  0
  3  6  1  0  0  0  0
  4  6  2  0  0  0  0
  5  6  1  0  0  0  0
  5  7  1  0  0  0  0
  5  8  1  0  0  0  0
M  CHG  2   2   1   3  -1
M  END
> <PUBCHEM_COMPOUND_CID>
9368

> <PUBCHEM_COMPOUND_CANONICALIZED>
1

> <PUBCHEM_CACTVS_COMPLEXITY>
37.4

> <PUBCHEM_CACTVS_HBOND_ACCEPTOR>
2

> <PUBCHEM_CACTVS_HBOND_DONOR>
0

> <PUBCHEM_CACTVS_ROTATABLE_BOND>
0

> <PUBCHEM_CACTVS_SUBSKEYS>
AAADcQBAMCAAAgAAAAAAAAAAAAAAAAAAAAAAAAAAAAAAAAAAAAAAGgAgAAAAAACCgAAACAAAAAAIAACQCAAAAAAAAAAAAAAAAAAAAAAAAAAAAAAAAAAAAAAAAAAAAAAAAAAAAAAAAAAAAAAAAAAAAAAAAA==

> <PUBCHEM_IUPAC_OPENEYE_NAME>
sodium 2-iodoacetate

> <PUBCHEM_IUPAC_CAS_NAME>
sodium 2-iodoacetate

> <PUBCHEM_IUPAC_NAME>
sodium 2-iodoacetate

> <PUBCHEM_IUPAC_SYSTEMATIC_NAME>
sodium 2-iodanylethanoate

> <PUBCHEM_IUPAC_TRADITIONAL_NAME>
sodium 2-iodoacetate

> <PUBCHEM_IUPAC_INCHI>
InChI=1S/C2H3IO2.Na/c3-1-2(4)5;/h1H2,(H,4,5);/q;+1/p-1

> <PUBCHEM_IUPAC_INCHIKEY>
AGDSCTQQXMDDCV-UHFFFAOYSA-M

> <PUBCHEM_EXACT_MASS>
207.899722

> <PUBCHEM_MOLECULAR_FORMULA>
C2H2INaO2

> <PUBCHEM_MOLECULAR_WEIGHT>
207.930319

> <PUBCHEM_OPENEYE_CAN_SMILES>
C(C(=O)[O-])I.[Na+]

> <PUBCHEM_OPENEYE_ISO_SMILES>
C(C(=O)[O-])I.[Na+]

> <PUBCHEM_CACTVS_TPSA>
40.1

> <PUBCHEM_MONOISOTOPIC_WEIGHT>
207.899722

> <PUBCHEM_TOTAL_CHARGE>
0

> <PUBCHEM_HEAVY_ATOM_COUNT>
6

> <PUBCHEM_ATOM_DEF_STEREO_COUNT>
0

> <PUBCHEM_ATOM_UDEF_STEREO_COUNT>
0

> <PUBCHEM_BOND_DEF_STEREO_COUNT>
0

> <PUBCHEM_BOND_UDEF_STEREO_COUNT>
0

> <PUBCHEM_ISOTOPIC_ATOM_COUNT>
0

> <PUBCHEM_COMPONENT_COUNT>
2

> <PUBCHEM_CACTVS_TAUTO_COUNT>
1

> <PUBCHEM_COORDINATE_TYPE>
1
5
255

$$$$

