4170
  -OEChem-06251223563D

 40 42  0     1  0  0  0  0  0999 V2000
   -4.7772    1.7921    0.7310 Cl  0  0  0  0  0  0  0  0  0  0  0  0
   -4.4850   -1.2855   -0.2154 S   0  0  0  0  0  0  0  0  0  0  0  0
    0.7238   -1.7093   -0.6592 O   0  0  0  0  0  0  0  0  0  0  0  0
   -5.6289   -0.4202   -0.4879 O   0  0  0  0  0  0  0  0  0  0  0  0
   -4.0731   -2.2921   -1.1877 O   0  0  0  0  0  0  0  0  0  0  0  0
    1.7379    0.3733   -0.2363 N   0  0  0  0  0  0  0  0  0  0  0  0
    0.2858    2.2204    0.3224 N   0  0  0  0  0  0  0  0  0  0  0  0
   -4.7755   -2.0739    1.2846 N   0  0  0  0  0  0  0  0  0  0  0  0
    1.5082    1.8271   -0.3578 C   0  0  2  0  0  0  0  0  0  0  0  0
   -0.8286    1.4068    0.2088 C   0  0  0  0  0  0  0  0  0  0  0  0
   -0.7035    0.0683   -0.1797 C   0  0  0  0  0  0  0  0  0  0  0  0
    0.6502   -0.5134   -0.3866 C   0  0  0  0  0  0  0  0  0  0  0  0
    3.0940   -0.1162   -0.1002 C   0  0  0  0  0  0  0  0  0  0  0  0
    1.4393    2.2768   -1.8212 C   0  0  0  0  0  0  0  0  0  0  0  0
   -1.8383   -0.7441   -0.3085 C   0  0  0  0  0  0  0  0  0  0  0  0
   -2.1050    1.9077    0.4992 C   0  0  0  0  0  0  0  0  0  0  0  0
   -3.1026   -0.2233   -0.0376 C   0  0  0  0  0  0  0  0  0  0  0  0
    3.6252   -0.3942    1.1560 C   0  0  0  0  0  0  0  0  0  0  0  0
   -3.2360    1.1002    0.3719 C   0  0  0  0  0  0  0  0  0  0  0  0
    3.8601   -0.3049   -1.2469 C   0  0  0  0  0  0  0  0  0  0  0  0
    4.9336   -0.8646    1.2665 C   0  0  0  0  0  0  0  0  0  0  0  0
    2.8216   -0.1997    2.4007 C   0  0  0  0  0  0  0  0  0  0  0  0
    5.1684   -0.7757   -1.1364 C   0  0  0  0  0  0  0  0  0  0  0  0
    5.7054   -1.0554    0.1203 C   0  0  0  0  0  0  0  0  0  0  0  0
    2.3430    2.3450    0.1296 H   0  0  0  0  0  0  0  0  0  0  0  0
    0.1575    3.1943    0.5717 H   0  0  0  0  0  0  0  0  0  0  0  0
    1.2302    3.3502   -1.8874 H   0  0  0  0  0  0  0  0  0  0  0  0
    2.3872    2.0890   -2.3343 H   0  0  0  0  0  0  0  0  0  0  0  0
    0.6547    1.7503   -2.3758 H   0  0  0  0  0  0  0  0  0  0  0  0
   -1.7239   -1.7855   -0.5966 H   0  0  0  0  0  0  0  0  0  0  0  0
   -2.2110    2.9443    0.8154 H   0  0  0  0  0  0  0  0  0  0  0  0
    3.4519   -0.1002   -2.2327 H   0  0  0  0  0  0  0  0  0  0  0  0
    5.3676   -1.0881    2.2375 H   0  0  0  0  0  0  0  0  0  0  0  0
    2.4990    0.8427    2.4911 H   0  0  0  0  0  0  0  0  0  0  0  0
    1.9421   -0.8516    2.3947 H   0  0  0  0  0  0  0  0  0  0  0  0
    3.3990   -0.4391    3.3002 H   0  0  0  0  0  0  0  0  0  0  0  0
    5.7686   -0.9264   -2.0290 H   0  0  0  0  0  0  0  0  0  0  0  0
    6.7239   -1.4224    0.2060 H   0  0  0  0  0  0  0  0  0  0  0  0
   -4.5650   -3.0780    1.3384 H   0  0  0  0  0  0  0  0  0  0  0  0
   -5.6129   -1.7945    1.8101 H   0  0  0  0  0  0  0  0  0  0  0  0
  1 19  1  0  0  0  0
  2  4  2  0  0  0  0
  2  5  2  0  0  0  0
  2  8  1  0  0  0  0
  2 17  1  0  0  0  0
  3 12  2  0  0  0  0
  6  9  1  0  0  0  0
  6 12  1  0  0  0  0
  6 13  1  0  0  0  0
  7  9  1  0  0  0  0
  7 10  1  0  0  0  0
  7 26  1  0  0  0  0
  8 39  1  0  0  0  0
  8 40  1  0  0  0  0
  9 14  1  0  0  0  0
  9 25  1  0  0  0  0
 10 11  1  0  0  0  0
 10 16  2  0  0  0  0
 11 12  1  0  0  0  0
 11 15  2  0  0  0  0
 13 18  1  0  0  0  0
 13 20  2  0  0  0  0
 14 27  1  0  0  0  0
 14 28  1  0  0  0  0
 14 29  1  0  0  0  0
 15 17  1  0  0  0  0
 15 30  1  0  0  0  0
 16 19  1  0  0  0  0
 16 31  1  0  0  0  0
 17 19  2  0  0  0  0
 18 21  2  0  0  0  0
 18 22  1  0  0  0  0
 20 23  1  0  0  0  0
 20 32  1  0  0  0  0
 21 24  1  0  0  0  0
 21 33  1  0  0  0  0
 22 34  1  0  0  0  0
 22 35  1  0  0  0  0
 22 36  1  0  0  0  0
 23 24  2  0  0  0  0
 23 37  1  0  0  0  0
 24 38  1  0  0  0  0
M  END
> <PUBCHEM_COMPOUND_CID>
4170

> <PUBCHEM_CONFORMER_RMSD>
0.6

> <PUBCHEM_CONFORMER_DIVERSEORDER>
3
1
6
4
2
5

> <PUBCHEM_MMFF94_PARTIAL_CHARGES>
32
1 -0.18
10 0.1
11 0.09
12 0.54
13 0.12
15 -0.15
16 -0.15
17 -0.01
18 -0.14
19 0.18
2 1.45
20 -0.15
21 -0.15
22 0.14
23 -0.15
24 -0.15
26 0.4
3 -0.57
30 0.15
31 0.15
32 0.15
33 0.15
37 0.15
38 0.15
39 0.42
4 -0.65
40 0.42
5 -0.65
6 -0.48
7 -0.87
8 -0.98
9 0.67

> <PUBCHEM_EFFECTIVE_ROTOR_COUNT>
2.6

> <PUBCHEM_PHARMACOPHORE_FEATURES>
9
1 3 acceptor
1 4 acceptor
1 5 acceptor
1 7 cation
1 7 donor
1 8 donor
6 10 11 15 16 17 19 rings
6 13 18 20 21 23 24 rings
6 6 7 9 10 11 12 rings

> <PUBCHEM_HEAVY_ATOM_COUNT>
24

> <PUBCHEM_ATOM_DEF_STEREO_COUNT>
0

> <PUBCHEM_ATOM_UDEF_STEREO_COUNT>
1

> <PUBCHEM_BOND_DEF_STEREO_COUNT>
0

> <PUBCHEM_BOND_UDEF_STEREO_COUNT>
0

> <PUBCHEM_ISOTOPIC_ATOM_COUNT>
0

> <PUBCHEM_COMPONENT_COUNT>
1

> <PUBCHEM_CACTVS_TAUTO_COUNT>
2

> <PUBCHEM_CONFORMER_ID>
0000104A00000003

> <PUBCHEM_MMFF94_ENERGY>
88.4239

> <PUBCHEM_FEATURE_SELFOVERLAP>
45.712

> <PUBCHEM_SHAPE_FINGERPRINT>
10062212 137 18411417302491814621
11045977 3 17458352960833971737
11545043 162 17967534588033232746
11552529 35 14708078461106545743
11796584 16 17632582647440663563
12236239 1 18131629015489001174
12403259 415 17530687610659435578
12553582 1 17847064406371828384
13009979 54 18339348717258614521
13140716 1 18409164398624127969
13583140 156 16515693263845769876
13675066 3 17603870000444208957
13760787 5 17489582381281948244
13782708 43 17676487302437331526
13862211 1 18408325479630949407
14178342 30 18189328129655013993
15183329 4 17917441955838935557
15196674 1 18335699429480879532
15537594 2 18060134396488613546
15788980 27 18334857199642720943
1601671 61 18339641256276359924
17138139 8 17487905514112149851
17349148 13 18411699872389877703
17804303 29 18260831514019125448
17844677 252 18040433287118270816
1813 80 18202279238764439252
18222031 100 18411987944394033638
18681886 176 18410008802326933876
18785283 64 17241909605188185120
18927931 339 18333447638826763423
193927 3 18410566267169281135
200 152 16702018738336400704
20028762 73 18041283145283123447
20626108 58 18272093772746261200
21033648 29 17168441444293476458
21267235 1 18336256878272024847
22182313 1 17823125886361311751
22950370 63 18202281437687409026
23402539 116 18342176699687448214
23557571 272 17821720663441086917
23559900 14 18200315412054818361
25147074 1 18340189826542591893
3004659 81 18342741780593410503
312423 11 18271232821166972653
335352 9 18408039624636708661
351380 3 18273495684399544747
4340502 62 5039956273319891965
465052 167 18272082769071794662
5104073 3 18335977593375461353
559249 180 18411702127806760249
7970288 3 18413673508763474698
8863177 126 17843109308876782619
9981440 41 17405141825447630560

> <PUBCHEM_SHAPE_MULTIPOLES>
467.08
12.33
2.25
1.45
0.47
0.53
-0.36
-5.8
-0.95
2.18
0.32
-1.31
-0.05
-0.99

> <PUBCHEM_SHAPE_SELFOVERLAP>
993.668

> <PUBCHEM_SHAPE_VOLUME>
262.8

> <PUBCHEM_COORDINATE_TYPE>
2
5
10

$$$$

