13658
  -OEChem-06241222393D

 22 22  0     1  0  0  0  0  0999 V2000
    0.4775   -0.6047   -0.6551 O   0  0  0  0  0  0  0  0  0  0  0  0
    3.4790    0.6890    0.8543 O   0  0  0  0  0  0  0  0  0  0  0  0
    2.5310    1.0479   -1.1766 O   0  0  0  0  0  0  0  0  0  0  0  0
    1.4708   -0.5037    0.3642 C   0  0  1  0  0  0  0  0  0  0  0  0
   -0.7911   -0.2418   -0.3220 C   0  0  0  0  0  0  0  0  0  0  0  0
    2.0623   -1.8854    0.5818 C   0  0  0  0  0  0  0  0  0  0  0  0
   -1.0538    1.0572    0.1132 C   0  0  0  0  0  0  0  0  0  0  0  0
   -1.8286   -1.1695   -0.4146 C   0  0  0  0  0  0  0  0  0  0  0  0
    2.5274    0.4806   -0.0918 C   0  0  0  0  0  0  0  0  0  0  0  0
   -2.3540    1.4283    0.4558 C   0  0  0  0  0  0  0  0  0  0  0  0
   -3.1288   -0.7984   -0.0722 C   0  0  0  0  0  0  0  0  0  0  0  0
   -3.3917    0.5006    0.3630 C   0  0  0  0  0  0  0  0  0  0  0  0
    1.0473   -0.1346    1.3073 H   0  0  0  0  0  0  0  0  0  0  0  0
    2.5237   -2.2627   -0.3381 H   0  0  0  0  0  0  0  0  0  0  0  0
    1.2805   -2.5995    0.8621 H   0  0  0  0  0  0  0  0  0  0  0  0
    2.8259   -1.8791    1.3658 H   0  0  0  0  0  0  0  0  0  0  0  0
   -0.2580    1.7938    0.1817 H   0  0  0  0  0  0  0  0  0  0  0  0
   -1.6296   -2.1830   -0.7521 H   0  0  0  0  0  0  0  0  0  0  0  0
   -2.5592    2.4402    0.7927 H   0  0  0  0  0  0  0  0  0  0  0  0
   -3.9365   -1.5208   -0.1443 H   0  0  0  0  0  0  0  0  0  0  0  0
   -4.4041    0.7897    0.6292 H   0  0  0  0  0  0  0  0  0  0  0  0
    4.1555    1.3340    0.5565 H   0  0  0  0  0  0  0  0  0  0  0  0
  1  4  1  0  0  0  0
  1  5  1  0  0  0  0
  2  9  1  0  0  0  0
  2 22  1  0  0  0  0
  3  9  2  0  0  0  0
  4  6  1  0  0  0  0
  4  9  1  0  0  0  0
  4 13  1  0  0  0  0
  5  7  2  0  0  0  0
  5  8  1  0  0  0  0
  6 14  1  0  0  0  0
  6 15  1  0  0  0  0
  6 16  1  0  0  0  0
  7 10  1  0  0  0  0
  7 17  1  0  0  0  0
  8 11  2  0  0  0  0
  8 18  1  0  0  0  0
 10 12  2  0  0  0  0
 10 19  1  0  0  0  0
 11 12  1  0  0  0  0
 11 20  1  0  0  0  0
 12 21  1  0  0  0  0
M  END
> <PUBCHEM_COMPOUND_CID>
13658

> <PUBCHEM_CONFORMER_RMSD>
0.6

> <PUBCHEM_CONFORMER_DIVERSEORDER>
1
10
8
13
20
5
18
15
17
7
21
19
11
3
14
16
4
12
6
9
22
2

> <PUBCHEM_MMFF94_PARTIAL_CHARGES>
17
1 -0.36
10 -0.15
11 -0.15
12 -0.15
17 0.15
18 0.15
19 0.15
2 -0.65
20 0.15
21 0.15
22 0.5
3 -0.57
4 0.34
5 0.08
7 -0.15
8 -0.15
9 0.66

> <PUBCHEM_EFFECTIVE_ROTOR_COUNT>
3

> <PUBCHEM_PHARMACOPHORE_FEATURES>
5
1 1 acceptor
1 2 acceptor
1 3 acceptor
3 2 3 9 anion
6 5 7 8 10 11 12 rings

> <PUBCHEM_HEAVY_ATOM_COUNT>
12

> <PUBCHEM_ATOM_DEF_STEREO_COUNT>
0

> <PUBCHEM_ATOM_UDEF_STEREO_COUNT>
1

> <PUBCHEM_BOND_DEF_STEREO_COUNT>
0

> <PUBCHEM_BOND_UDEF_STEREO_COUNT>
0

> <PUBCHEM_ISOTOPIC_ATOM_COUNT>
0

> <PUBCHEM_COMPONENT_COUNT>
1

> <PUBCHEM_CACTVS_TAUTO_COUNT>
1

> <PUBCHEM_CONFORMER_ID>
0000355A00000001

> <PUBCHEM_MMFF94_ENERGY>
31.9472

> <PUBCHEM_FEATURE_SELFOVERLAP>
25.437

> <PUBCHEM_SHAPE_FINGERPRINT>
11132069 177 18335139782531154769
12251169 10 18339083820744474523
12346645 44 18409731729580710874
12696612 119 18272087236043082300
12932764 1 17987512778871588319
14144814 61 18408323310819690123
14325111 11 18335701684538747737
15669948 3 18114187410639650831
15775835 57 18334012795918393752
16945 1 18337953385615651439
20559304 39 18411138060681755208
20871998 184 17895753994223079311
22445834 79 18199752625057193811
22802520 49 16444727536557530012
23463225 33 18339080500797967119
23552423 10 18342739675595653291
2748010 2 16751838966989055911
3248919 1 18060700580594703699
369184 2 18272933864491845019
7364860 26 18188490306274492118
8030462 33 18408888433905341431

> <PUBCHEM_SHAPE_MULTIPOLES>
229.35
5.78
1.57
0.85
0.51
0.26
0.06
-0.79
-0.73
0.16
-0.12
0.35
-0.07
-0.58

> <PUBCHEM_SHAPE_SELFOVERLAP>
470.697

> <PUBCHEM_SHAPE_VOLUME>
132.5

> <PUBCHEM_COORDINATE_TYPE>
2
5
10

$$$$

