5281637
  -OEChem-07051212582D

 51 54  0     1  0  0  0  0  0999 V2000
   10.4663   -0.1200    0.0000 O   0  0  0  0  0  0  0  0  0  0  0  0
    8.7266    1.8733    0.0000 O   0  0  0  0  0  0  0  0  0  0  0  0
   10.4548    2.8800    0.0000 O   0  0  0  0  0  0  0  0  0  0  0  0
   12.1907    1.8867    0.0000 O   0  0  0  0  0  0  0  0  0  0  0  0
   13.0625    0.3900    0.0000 O   0  0  0  0  0  0  0  0  0  0  0  0
    7.8167    1.3871    0.0000 O   0  0  0  0  0  0  0  0  0  0  0  0
    6.0682   -1.6475    0.0000 O   0  0  0  0  0  0  0  0  0  0  0  0
    9.5984   -1.6716    0.0000 O   0  0  0  0  0  0  0  0  0  0  0  0
    6.0682    1.3525    0.0000 O   0  0  0  0  0  0  0  0  0  0  0  0
    4.3198   -2.6821    0.0000 O   0  0  0  0  0  0  0  0  0  0  0  0
    2.5381   -1.6716    0.0000 O   0  0  0  0  0  0  0  0  0  0  0  0
    9.5945    1.3767    0.0000 C   0  0  2  0  0  0  0  0  0  0  0  0
   10.4586    1.8800    0.0000 C   0  0  2  0  0  0  0  0  0  0  0  0
    9.5984    0.3767    0.0000 C   0  0  2  0  0  0  0  0  0  0  0  0
   11.3266    1.3833    0.0000 C   0  0  1  0  0  0  0  0  0  0  0  0
   11.3304    0.3833    0.0000 C   0  0  1  0  0  0  0  0  0  0  0  0
    8.7343   -0.1267    0.0000 C   0  0  0  0  0  0  0  0  0  0  0  0
   12.1984   -0.1133    0.0000 C   0  0  0  0  0  0  0  0  0  0  0  0
    7.8282    0.3872    0.0000 C   0  0  0  0  0  0  0  0  0  0  0  0
    8.7343   -1.1683    0.0000 C   0  0  0  0  0  0  0  0  0  0  0  0
    6.9343   -0.1475    0.0000 C   0  0  0  0  0  0  0  0  0  0  0  0
    6.9343   -1.1475    0.0000 C   0  0  0  0  0  0  0  0  0  0  0  0
    7.8282   -1.6821    0.0000 C   0  0  0  0  0  0  0  0  0  0  0  0
    6.0682    0.3525    0.0000 C   0  0  0  0  0  0  0  0  0  0  0  0
    5.2022   -0.1475    0.0000 C   0  0  0  0  0  0  0  0  0  0  0  0
    5.2022   -1.1475    0.0000 C   0  0  0  0  0  0  0  0  0  0  0  0
    4.3083   -1.6821    0.0000 C   0  0  0  0  0  0  0  0  0  0  0  0
    4.3083    0.3872    0.0000 C   0  0  0  0  0  0  0  0  0  0  0  0
    3.4022   -1.1683    0.0000 C   0  0  0  0  0  0  0  0  0  0  0  0
    3.4022   -0.1267    0.0000 C   0  0  0  0  0  0  0  0  0  0  0  0
    3.4597   -3.1921    0.0000 C   0  0  0  0  0  0  0  0  0  0  0  0
    9.5921    1.9967    0.0000 H   0  0  0  0  0  0  0  0  0  0  0  0
    9.9205    2.1879    0.0000 H   0  0  0  0  0  0  0  0  0  0  0  0
    8.8606    0.7988    0.0000 H   0  0  0  0  0  0  0  0  0  0  0  0
   11.3242    2.0033    0.0000 H   0  0  0  0  0  0  0  0  0  0  0  0
   11.3328   -0.2366    0.0000 H   0  0  0  0  0  0  0  0  0  0  0  0
   11.8017   -0.5898    0.0000 H   0  0  0  0  0  0  0  0  0  0  0  0
   12.5987   -0.5867    0.0000 H   0  0  0  0  0  0  0  0  0  0  0  0
    8.7242    2.4933    0.0000 H   0  0  0  0  0  0  0  0  0  0  0  0
   10.9905    3.1921    0.0000 H   0  0  0  0  0  0  0  0  0  0  0  0
   12.1883    2.5067    0.0000 H   0  0  0  0  0  0  0  0  0  0  0  0
    7.8210   -2.3021    0.0000 H   0  0  0  0  0  0  0  0  0  0  0  0
   13.6006    0.0821    0.0000 H   0  0  0  0  0  0  0  0  0  0  0  0
    7.2762    1.6909    0.0000 H   0  0  0  0  0  0  0  0  0  0  0  0
    9.5960   -2.2916    0.0000 H   0  0  0  0  0  0  0  0  0  0  0  0
    4.3154    1.0071    0.0000 H   0  0  0  0  0  0  0  0  0  0  0  0
    2.8665    0.1854    0.0000 H   0  0  0  0  0  0  0  0  0  0  0  0
    2.0000   -1.3637    0.0000 H   0  0  0  0  0  0  0  0  0  0  0  0
    3.1435   -2.6587    0.0000 H   0  0  0  0  0  0  0  0  0  0  0  0
    2.9263   -3.5082    0.0000 H   0  0  0  0  0  0  0  0  0  0  0  0
    3.7758   -3.7254    0.0000 H   0  0  0  0  0  0  0  0  0  0  0  0
  1 14  1  0  0  0  0
  1 16  1  0  0  0  0
 12  2  1  6  0  0  0
  2 39  1  0  0  0  0
 13  3  1  1  0  0  0
  3 40  1  0  0  0  0
 15  4  1  6  0  0  0
  4 41  1  0  0  0  0
  5 18  1  0  0  0  0
  5 43  1  0  0  0  0
  6 19  1  0  0  0  0
  6 44  1  0  0  0  0
  7 22  1  0  0  0  0
  7 26  1  0  0  0  0
  8 20  1  0  0  0  0
  8 45  1  0  0  0  0
  9 24  2  0  0  0  0
 10 27  1  0  0  0  0
 10 31  1  0  0  0  0
 11 29  1  0  0  0  0
 11 48  1  0  0  0  0
 12 13  1  0  0  0  0
 12 14  1  0  0  0  0
 12 32  1  0  0  0  0
 13 15  1  0  0  0  0
 13 33  1  0  0  0  0
 14 17  1  0  0  0  0
 14 34  1  6  0  0  0
 15 16  1  0  0  0  0
 15 35  1  0  0  0  0
 16 18  1  1  0  0  0
 16 36  1  0  0  0  0
 17 19  1  0  0  0  0
 17 20  2  0  0  0  0
 18 37  1  0  0  0  0
 18 38  1  0  0  0  0
 19 21  2  0  0  0  0
 20 23  1  0  0  0  0
 21 22  1  0  0  0  0
 21 24  1  0  0  0  0
 22 23  2  0  0  0  0
 23 42  1  0  0  0  0
 24 25  1  0  0  0  0
 25 26  2  0  0  0  0
 25 28  1  0  0  0  0
 26 27  1  0  0  0  0
 27 29  2  0  0  0  0
 28 30  2  0  0  0  0
 28 46  1  0  0  0  0
 29 30  1  0  0  0  0
 30 47  1  0  0  0  0
 31 49  1  0  0  0  0
 31 50  1  0  0  0  0
 31 51  1  0  0  0  0
M  END
> <PUBCHEM_COMPOUND_CID>
5281637

> <PUBCHEM_COMPOUND_CANONICALIZED>
1

> <PUBCHEM_CACTVS_COMPLEXITY>
661

> <PUBCHEM_CACTVS_HBOND_ACCEPTOR>
11

> <PUBCHEM_CACTVS_HBOND_DONOR>
7

> <PUBCHEM_CACTVS_ROTATABLE_BOND>
3

> <PUBCHEM_CACTVS_SUBSKEYS>
AAADceB4PAAAAAAAAAAAAAAAAAAAAAAAAAA0aIEAAAAAAACRQAAAGgAACAAADBSgmAIyBoAABgCIAqBSAAACCAAkIAAIiAEGiMgNNzaGNBqCeWOl4BULuYfK7PzOIAADCAAIQABAAAYQABCAAAAAAAAAAA==

> <PUBCHEM_IUPAC_OPENEYE_NAME>
1,3,6-trihydroxy-5-methoxy-2-[(2S,3R,4R,5S,6R)-3,4,5-trihydroxy-6-(hydroxymethyl)tetrahydropyran-2-yl]xanthen-9-one

> <PUBCHEM_IUPAC_CAS_NAME>
1,3,6-trihydroxy-5-methoxy-2-[(2S,3R,4R,5S,6R)-3,4,5-trihydroxy-6-(hydroxymethyl)-2-oxanyl]-9-xanthenone

> <PUBCHEM_IUPAC_NAME>
1,3,6-trihydroxy-5-methoxy-2-[(2S,3R,4R,5S,6R)-3,4,5-trihydroxy-6-(hydroxymethyl)oxan-2-yl]xanthen-9-one

> <PUBCHEM_IUPAC_SYSTEMATIC_NAME>
2-[(2S,3R,4R,5S,6R)-6-(hydroxymethyl)-3,4,5-tris(oxidanyl)oxan-2-yl]-5-methoxy-1,3,6-tris(oxidanyl)xanthen-9-one

> <PUBCHEM_IUPAC_TRADITIONAL_NAME>
1,3,6-trihydroxy-5-methoxy-2-[(2S,3R,4R,5S,6R)-3,4,5-trihydroxy-6-methylol-tetrahydropyran-2-yl]xanthone

> <PUBCHEM_IUPAC_INCHI>
InChI=1S/C20H20O11/c1-29-19-7(22)3-2-6-13(24)12-9(30-18(6)19)4-8(23)11(15(12)26)20-17(28)16(27)14(25)10(5-21)31-20/h2-4,10,14,16-17,20-23,25-28H,5H2,1H3/t10-,14-,16+,17-,20+/m1/s1

> <PUBCHEM_IUPAC_INCHIKEY>
MTQVPZUZBBTLNO-HSLVGEKZSA-N

> <PUBCHEM_XLOGP3_AA>
0

> <PUBCHEM_EXACT_MASS>
436.100561

> <PUBCHEM_MOLECULAR_FORMULA>
C20H20O11

> <PUBCHEM_MOLECULAR_WEIGHT>
436.3662

> <PUBCHEM_OPENEYE_CAN_SMILES>
COC1=C(C=CC2=C1OC3=CC(=C(C(=C3C2=O)O)C4C(C(C(C(O4)CO)O)O)O)O)O

> <PUBCHEM_OPENEYE_ISO_SMILES>
COC1=C(C=CC2=C1OC3=CC(=C(C(=C3C2=O)O)[C@H]4[C@@H]([C@H]([C@@H]([C@H](O4)CO)O)O)O)O)O

> <PUBCHEM_CACTVS_TPSA>
186

> <PUBCHEM_MONOISOTOPIC_WEIGHT>
436.100561

> <PUBCHEM_TOTAL_CHARGE>
0

> <PUBCHEM_HEAVY_ATOM_COUNT>
31

> <PUBCHEM_ATOM_DEF_STEREO_COUNT>
5

> <PUBCHEM_ATOM_UDEF_STEREO_COUNT>
0

> <PUBCHEM_BOND_DEF_STEREO_COUNT>
0

> <PUBCHEM_BOND_UDEF_STEREO_COUNT>
0

> <PUBCHEM_ISOTOPIC_ATOM_COUNT>
0

> <PUBCHEM_COMPONENT_COUNT>
1

> <PUBCHEM_CACTVS_TAUTO_COUNT>
57

> <PUBCHEM_COORDINATE_TYPE>
1
5
255

> <PUBCHEM_BONDANNOTATIONS>
14  34  6
16  18  5
17  19  8
17  20  8
19  21  8
12  2  6
20  23  8
21  22  8
21  24  8
22  23  8
24  25  8
25  26  8
25  28  8
26  27  8
27  29  8
28  30  8
29  30  8
13  3  5
15  4  6
7  22  8
7  26  8

$$$$

