23724606
  -OEChem-07051213083D

 64 67  0     1  0  0  0  0  0999 V2000
    3.7367   -0.5611    1.8275 P   0  0  2  0  0  0  0  0  0  0  0  0
    3.6903    1.0842   -0.6114 P   0  0  1  0  0  0  0  0  0  0  0  0
   -0.3534   -3.1613    0.5468 O   0  0  0  0  0  0  0  0  0  0  0  0
    0.9026    2.5663    0.4538 O   0  0  0  0  0  0  0  0  0  0  0  0
    0.2322   -2.8967   -2.9979 O   0  0  0  0  0  0  0  0  0  0  0  0
    1.5592   -4.6100   -1.3028 O   0  0  0  0  0  0  0  0  0  0  0  0
    2.9837   -1.8288    1.1619 O   0  0  0  0  0  0  0  0  0  0  0  0
    2.7263    2.3233   -0.9829 O   0  0  0  0  0  0  0  0  0  0  0  0
   -1.3708    1.8072   -2.1423 O   0  0  0  0  0  0  0  0  0  0  0  0
   -1.0315    4.7338   -0.0006 O   0  0  0  0  0  0  0  0  0  0  0  0
    1.0020    2.6638   -3.2159 O   0  0  0  0  0  0  0  0  0  0  0  0
    3.2676    0.6720    0.8937 O   0  0  0  0  0  0  0  0  0  0  0  0
   -0.0540    1.8867    2.9387 O   0  0  0  0  0  0  0  0  0  0  0  0
    5.2859   -0.7653    1.4091 O   0  0  0  0  0  0  0  0  0  0  0  0
    3.1350   -0.1467   -1.5025 O   0  0  0  0  0  0  0  0  0  0  0  0
    3.4978   -0.3590    3.2953 O   0  0  0  0  0  0  0  0  0  0  0  0
    5.1553    1.3627   -0.7848 O   0  0  0  0  0  0  0  0  0  0  0  0
   -5.3624    0.8474   -0.0030 O   0  0  0  0  0  0  0  0  0  0  0  0
   -2.0243   -2.0765   -0.8644 N   0  0  0  0  0  0  0  0  0  0  0  0
   -2.2640   -1.3425    1.4419 N   0  0  0  0  0  0  0  0  0  0  0  0
   -3.7237   -0.8928   -1.7293 N   0  0  0  0  0  0  0  0  0  0  0  0
   -4.0613    0.2081    1.8055 N   0  0  0  0  0  0  0  0  0  0  0  0
   -2.6687   -0.5181    3.5630 N   0  0  0  0  0  0  0  0  0  0  0  0
    0.3404   -2.5493   -1.6319 C   0  0  2  0  0  0  0  0  0  0  0  0
    1.5017   -3.2321   -0.9372 C   0  0  1  0  0  0  0  0  0  0  0  0
   -0.8482   -3.0221   -0.8012 C   0  0  1  0  0  0  0  0  0  0  0  0
    1.0916   -3.1514    0.5277 C   0  0  1  0  0  0  0  0  0  0  0  0
   -0.8690    3.0882   -1.7566 C   0  0  1  0  0  0  0  0  0  0  0  0
   -1.2764    3.3629   -0.3067 C   0  0  1  0  0  0  0  0  0  0  0  0
    0.6557    3.0886   -1.9010 C   0  0  1  0  0  0  0  0  0  0  0  0
   -0.5094    2.4442    0.6607 C   0  0  2  0  0  0  0  0  0  0  0  0
    1.5685   -1.8774    1.2118 C   0  0  0  0  0  0  0  0  0  0  0  0
    1.3119    2.1807   -0.8587 C   0  0  2  0  0  0  0  0  0  0  0  0
   -2.5904   -1.3791    0.1475 C   0  0  0  0  0  0  0  0  0  0  0  0
   -0.7866    2.7817    2.1212 C   0  0  0  0  0  0  0  0  0  0  0  0
   -2.7486   -1.7477   -1.9883 C   0  0  0  0  0  0  0  0  0  0  0  0
   -3.6217   -0.6628   -0.3861 C   0  0  0  0  0  0  0  0  0  0  0  0
   -4.4323    0.1949    0.4551 C   0  0  0  0  0  0  0  0  0  0  0  0
   -3.0478   -0.5157    2.2445 C   0  0  0  0  0  0  0  0  0  0  0  0
    0.4453   -1.4597   -1.5602 H   0  0  0  0  0  0  0  0  0  0  0  0
    2.4709   -2.7931   -1.1800 H   0  0  0  0  0  0  0  0  0  0  0  0
   -1.2493   -3.9864   -1.1361 H   0  0  0  0  0  0  0  0  0  0  0  0
    1.4442   -4.0240    1.0895 H   0  0  0  0  0  0  0  0  0  0  0  0
   -1.2998    3.8273   -2.4418 H   0  0  0  0  0  0  0  0  0  0  0  0
   -2.3506    3.1846   -0.1751 H   0  0  0  0  0  0  0  0  0  0  0  0
    1.0357    4.1102   -1.7752 H   0  0  0  0  0  0  0  0  0  0  0  0
   -0.7778    1.3941    0.4871 H   0  0  0  0  0  0  0  0  0  0  0  0
    1.1470   -0.9864    0.7339 H   0  0  0  0  0  0  0  0  0  0  0  0
    1.2378   -1.8660    2.2564 H   0  0  0  0  0  0  0  0  0  0  0  0
    1.0427    1.1329   -1.0353 H   0  0  0  0  0  0  0  0  0  0  0  0
    1.0701   -2.6539   -3.4273 H   0  0  0  0  0  0  0  0  0  0  0  0
    2.2968   -5.0110   -0.8118 H   0  0  0  0  0  0  0  0  0  0  0  0
   -1.8518    2.6845    2.3523 H   0  0  0  0  0  0  0  0  0  0  0  0
   -0.4524    3.7948    2.3664 H   0  0  0  0  0  0  0  0  0  0  0  0
   -2.5223   -2.1634   -2.9605 H   0  0  0  0  0  0  0  0  0  0  0  0
   -2.3392    1.8347   -2.0592 H   0  0  0  0  0  0  0  0  0  0  0  0
   -1.5566    5.2704   -0.6184 H   0  0  0  0  0  0  0  0  0  0  0  0
    0.5709    3.2693   -3.8428 H   0  0  0  0  0  0  0  0  0  0  0  0
   -1.4968   -1.8726    1.8417 H   0  0  0  0  0  0  0  0  0  0  0  0
   -0.2537    2.1131    3.8630 H   0  0  0  0  0  0  0  0  0  0  0  0
    5.5110   -0.8896    0.4625 H   0  0  0  0  0  0  0  0  0  0  0  0
    3.6848   -0.9551   -1.5791 H   0  0  0  0  0  0  0  0  0  0  0  0
   -3.1584    0.0438    4.2507 H   0  0  0  0  0  0  0  0  0  0  0  0
   -1.8859   -1.0751    3.8874 H   0  0  0  0  0  0  0  0  0  0  0  0
  1  7  1  0  0  0  0
  1 12  1  0  0  0  0
  1 14  1  0  0  0  0
  1 16  2  0  0  0  0
  2  8  1  0  0  0  0
  2 12  1  0  0  0  0
  2 15  1  0  0  0  0
  2 17  2  0  0  0  0
  3 26  1  0  0  0  0
  3 27  1  0  0  0  0
  4 31  1  0  0  0  0
  4 33  1  0  0  0  0
  5 24  1  0  0  0  0
  5 51  1  0  0  0  0
  6 25  1  0  0  0  0
  6 52  1  0  0  0  0
  7 32  1  0  0  0  0
  8 33  1  0  0  0  0
  9 28  1  0  0  0  0
  9 56  1  0  0  0  0
 10 29  1  0  0  0  0
 10 57  1  0  0  0  0
 11 30  1  0  0  0  0
 11 58  1  0  0  0  0
 13 35  1  0  0  0  0
 13 60  1  0  0  0  0
 14 61  1  0  0  0  0
 15 62  1  0  0  0  0
 18 38  2  0  0  0  0
 19 26  1  0  0  0  0
 19 34  1  0  0  0  0
 19 36  1  0  0  0  0
 20 34  1  0  0  0  0
 20 39  1  0  0  0  0
 20 59  1  0  0  0  0
 21 36  2  0  0  0  0
 21 37  1  0  0  0  0
 22 38  1  0  0  0  0
 22 39  2  0  0  0  0
 23 39  1  0  0  0  0
 23 63  1  0  0  0  0
 23 64  1  0  0  0  0
 24 25  1  0  0  0  0
 24 26  1  0  0  0  0
 24 40  1  0  0  0  0
 25 27  1  0  0  0  0
 25 41  1  0  0  0  0
 26 42  1  0  0  0  0
 27 32  1  0  0  0  0
 27 43  1  0  0  0  0
 28 29  1  0  0  0  0
 28 30  1  0  0  0  0
 28 44  1  0  0  0  0
 29 31  1  0  0  0  0
 29 45  1  0  0  0  0
 30 33  1  0  0  0  0
 30 46  1  0  0  0  0
 31 35  1  0  0  0  0
 31 47  1  0  0  0  0
 32 48  1  0  0  0  0
 32 49  1  0  0  0  0
 33 50  1  0  0  0  0
 34 37  2  0  0  0  0
 35 53  1  0  0  0  0
 35 54  1  0  0  0  0
 36 55  1  0  0  0  0
 37 38  1  0  0  0  0
M  END
> <PUBCHEM_COMPOUND_CID>
23724606

> <PUBCHEM_CONFORMER_RMSD>
1.6

> <PUBCHEM_CONFORMER_DIVERSEORDER>
1
182
122
174
107
142
98
190
133
18
209
13
211
193
218
92
115
78
207
197
40
37
208
46
214
14
204
66
191
48
121
6
137
2
117
226
70
175
187
108
55
129
162
119
186
12
69
213
84
167
89
215
49
34
56
144
198
61
125
127
192
97
161
110
95
88
220
184
38
58
223
200
15
79
154
85
228
3
118
113
72
82
22
83
80
43
230
148
21
194
102
17
138
44
131
170
219
86
140
203
106
178
185
196
60
212
96
64
57
202
143
90
216
201
205
24
114
45
149
233
31
180
87
4
25
188
23
74
135
224
27
222
104
151
128
63
54
51
152
105
169
134
8
160
65
159
101
210
177
9
29
227
91
16
231
229
94
11
28
75
147
126
26
217
199
165
42
62
33
35
39
103
19
225
176
71
124
132
76
232
123
100
36
112
166
73
195
155
109
221
206
50
156
145
99
171
53
120
158
172
41
20
168
130
157
136
173
32
30
47
116
164
93
179
189
111
150
77
146
163
153
183
59
81
139
5
181
67
68
141
52
10
7

> <PUBCHEM_MMFF94_PARTIAL_CHARGES>
51
1 1.51
10 -0.68
11 -0.68
12 -0.54
13 -0.68
14 -0.77
15 -0.77
16 -0.7
17 -0.7
18 -0.57
19 0.05
2 1.51
20 -0.53
21 -0.57
22 -0.66
23 -0.85
24 0.28
25 0.28
26 0.54
27 0.28
28 0.28
29 0.28
3 -0.56
30 0.28
31 0.28
32 0.28
33 0.56
34 -0.07
35 0.28
36 0.04
37 0.14
38 0.87
39 0.55
4 -0.56
5 -0.68
51 0.4
52 0.4
55 0.15
56 0.4
57 0.4
58 0.4
59 0.4
6 -0.68
60 0.4
61 0.5
62 0.5
63 0.4
64 0.4
7 -0.55
8 -0.55
9 -0.68

> <PUBCHEM_EFFECTIVE_ROTOR_COUNT>
11.2

> <PUBCHEM_PHARMACOPHORE_FEATURES>
27
1 10 acceptor
1 10 donor
1 11 acceptor
1 11 donor
1 13 acceptor
1 13 donor
1 14 acceptor
1 15 acceptor
1 16 acceptor
1 17 acceptor
1 18 acceptor
1 20 donor
1 22 donor
1 23 donor
1 3 acceptor
1 4 acceptor
1 5 acceptor
1 5 donor
1 6 acceptor
1 6 donor
1 9 acceptor
1 9 donor
3 19 21 36 cation
5 19 21 34 36 37 rings
5 3 24 25 26 27 rings
6 20 22 34 37 38 39 rings
6 4 28 29 30 31 33 rings

> <PUBCHEM_HEAVY_ATOM_COUNT>
39

> <PUBCHEM_ATOM_DEF_STEREO_COUNT>
8

> <PUBCHEM_ATOM_UDEF_STEREO_COUNT>
1

> <PUBCHEM_BOND_DEF_STEREO_COUNT>
0

> <PUBCHEM_BOND_UDEF_STEREO_COUNT>
0

> <PUBCHEM_ISOTOPIC_ATOM_COUNT>
0

> <PUBCHEM_COMPONENT_COUNT>
1

> <PUBCHEM_CACTVS_TAUTO_COUNT>
6

> <PUBCHEM_CONFORMER_ID>
016A023E00000001

> <PUBCHEM_MMFF94_ENERGY>
62.2727

> <PUBCHEM_FEATURE_SELFOVERLAP>
137.305

> <PUBCHEM_SHAPE_FINGERPRINT>
11513181 2 17752195339361112215
12156800 1 17909812568453443036
12422481 6 18267875058325696673
12788726 201 18411978083170967880
13122387 1 16681761597482004646
14251757 17 16271942488134760353
14279260 333 17202222874970777874
14840074 17 18412822469487994856
15274700 242 17201653138885281316
15276724 80 18341062861378341706
15297060 5 18041824135247244090
19311894 1 17834094370011066828
20764821 26 17976862814687415952
25265897 201 16226588716115937167
35225 105 17972309882981359164
445580 8 18408039606581061386
469060 322 18197523833420061002

> <PUBCHEM_SHAPE_MULTIPOLES>
691.49
7.6
5.61
3.16
1.18
0.68
1.01
-0.48
2.66
0.85
-2.75
-0.07
0.27
-1.03

> <PUBCHEM_SHAPE_SELFOVERLAP>
1440.298

> <PUBCHEM_SHAPE_VOLUME>
394.6

> <PUBCHEM_COORDINATE_TYPE>
2
5
10

$$$$

