25090658
  -OEChem-07051212543D

 41 44  0     1  0  0  0  0  0999 V2000
    0.3974    0.7449   -2.3916 O   0  0  0  0  0  0  0  0  0  0  0  0
    2.0494   -1.9453    1.0487 O   0  0  0  0  0  0  0  0  0  0  0  0
    0.0654    2.5364   -0.8845 O   0  0  0  0  0  0  0  0  0  0  0  0
   -1.2937   -1.4597   -1.5501 O   0  0  0  0  0  0  0  0  0  0  0  0
   -1.7610    1.5461    1.3917 O   0  0  0  0  0  0  0  0  0  0  0  0
    2.2017   -0.6478   -2.5656 O   0  0  0  0  0  0  0  0  0  0  0  0
    0.3430    3.5611    1.1448 O   0  0  0  0  0  0  0  0  0  0  0  0
    3.6555   -0.7234    2.1138 O   0  0  0  0  0  0  0  0  0  0  0  0
   -0.2770    0.3160   -0.1645 C   0  0  2  0  0  0  0  0  0  0  0  0
    1.1508   -0.2656   -0.3912 C   0  0  2  0  0  0  0  0  0  0  0  0
   -1.1765   -0.9600   -0.2097 C   0  0  2  0  0  0  0  0  0  0  0  0
    1.0829   -1.7329    0.0239 C   0  0  2  0  0  0  0  0  0  0  0  0
   -0.3253   -1.9650    0.5659 C   0  0  0  0  0  0  0  0  0  0  0  0
   -0.4145    1.2641   -1.3378 C   0  0  2  0  0  0  0  0  0  0  0  0
   -0.4232    1.2618    1.0274 C   0  0  1  0  0  0  0  0  0  0  0  0
   -2.5907   -0.8865    0.3505 C   0  0  0  0  0  0  0  0  0  0  0  0
    2.3615    0.2845    0.3434 C   0  0  0  0  0  0  0  0  0  0  0  0
    1.3395   -0.1070   -1.8889 C   0  0  0  0  0  0  0  0  0  0  0  0
    0.0505    2.5791    0.4798 C   0  0  0  0  0  0  0  0  0  0  0  0
    2.7717   -0.8160    1.2740 C   0  0  0  0  0  0  0  0  0  0  0  0
   -2.5397   -0.4493    1.8226 C   0  0  0  0  0  0  0  0  0  0  0  0
   -3.2562   -2.2679    0.2524 C   0  0  0  0  0  0  0  0  0  0  0  0
   -3.4115    0.1325   -0.4551 C   0  0  0  0  0  0  0  0  0  0  0  0
    1.2993   -2.4232   -0.7997 H   0  0  0  0  0  0  0  0  0  0  0  0
   -0.6007   -3.0060    0.3623 H   0  0  0  0  0  0  0  0  0  0  0  0
   -0.3302   -1.8346    1.6514 H   0  0  0  0  0  0  0  0  0  0  0  0
   -1.4239    1.4044   -1.7249 H   0  0  0  0  0  0  0  0  0  0  0  0
    0.1597    0.9576    1.9008 H   0  0  0  0  0  0  0  0  0  0  0  0
    2.1705    1.1824    0.9293 H   0  0  0  0  0  0  0  0  0  0  0  0
    3.2035    0.4818   -0.3289 H   0  0  0  0  0  0  0  0  0  0  0  0
   -1.6219   -0.7545   -2.1298 H   0  0  0  0  0  0  0  0  0  0  0  0
   -3.2898    0.3068    2.0942 H   0  0  0  0  0  0  0  0  0  0  0  0
   -1.5805   -0.3543    2.3342 H   0  0  0  0  0  0  0  0  0  0  0  0
   -2.9390   -1.2954    2.4099 H   0  0  0  0  0  0  0  0  0  0  0  0
   -4.2923   -2.2168    0.6102 H   0  0  0  0  0  0  0  0  0  0  0  0
   -3.3026   -2.6371   -0.7778 H   0  0  0  0  0  0  0  0  0  0  0  0
   -2.7557   -3.0274    0.8616 H   0  0  0  0  0  0  0  0  0  0  0  0
   -4.4342    0.1771   -0.0575 H   0  0  0  0  0  0  0  0  0  0  0  0
   -3.5175   -0.1621   -1.5048 H   0  0  0  0  0  0  0  0  0  0  0  0
   -3.0451    1.1570   -0.4353 H   0  0  0  0  0  0  0  0  0  0  0  0
   -1.7378    2.1688    2.1395 H   0  0  0  0  0  0  0  0  0  0  0  0
  1 14  1  0  0  0  0
  1 18  1  0  0  0  0
  2 12  1  0  0  0  0
  2 20  1  0  0  0  0
  3 14  1  0  0  0  0
  3 19  1  0  0  0  0
  4 11  1  0  0  0  0
  4 31  1  0  0  0  0
  5 15  1  0  0  0  0
  5 41  1  0  0  0  0
  6 18  2  0  0  0  0
  7 19  2  0  0  0  0
  8 20  2  0  0  0  0
  9 10  1  0  0  0  0
  9 11  1  0  0  0  0
  9 14  1  0  0  0  0
  9 15  1  0  0  0  0
 10 12  1  0  0  0  0
 10 17  1  0  0  0  0
 10 18  1  0  0  0  0
 11 13  1  0  0  0  0
 11 16  1  0  0  0  0
 12 13  1  0  0  0  0
 12 24  1  0  0  0  0
 13 25  1  0  0  0  0
 13 26  1  0  0  0  0
 14 27  1  0  0  0  0
 15 19  1  0  0  0  0
 15 28  1  0  0  0  0
 16 21  1  0  0  0  0
 16 22  1  0  0  0  0
 16 23  1  0  0  0  0
 17 20  1  0  0  0  0
 17 29  1  0  0  0  0
 17 30  1  0  0  0  0
 21 32  1  0  0  0  0
 21 33  1  0  0  0  0
 21 34  1  0  0  0  0
 22 35  1  0  0  0  0
 22 36  1  0  0  0  0
 22 37  1  0  0  0  0
 23 38  1  0  0  0  0
 23 39  1  0  0  0  0
 23 40  1  0  0  0  0
M  END
> <PUBCHEM_COMPOUND_CID>
25090658

> <PUBCHEM_CONFORMER_RMSD>
0.6

> <PUBCHEM_CONFORMER_DIVERSEORDER>
2
1

> <PUBCHEM_MMFF94_PARTIAL_CHARGES>
19
1 -0.43
10 0.06
11 0.28
12 0.28
14 0.56
15 0.34
17 0.06
18 0.66
19 0.66
2 -0.43
20 0.66
3 -0.43
31 0.4
4 -0.68
41 0.4
5 -0.68
6 -0.57
7 -0.57
8 -0.57

> <PUBCHEM_EFFECTIVE_ROTOR_COUNT>
2.4

> <PUBCHEM_PHARMACOPHORE_FEATURES>
12
1 4 acceptor
1 4 donor
1 5 acceptor
1 5 donor
1 6 acceptor
1 7 acceptor
1 8 acceptor
4 16 21 22 23 hydrophobe
5 1 9 10 14 18 rings
5 2 10 12 17 20 rings
5 3 9 14 15 19 rings
5 9 10 11 12 13 rings

> <PUBCHEM_HEAVY_ATOM_COUNT>
23

> <PUBCHEM_ATOM_DEF_STEREO_COUNT>
4

> <PUBCHEM_ATOM_UDEF_STEREO_COUNT>
2

> <PUBCHEM_BOND_DEF_STEREO_COUNT>
0

> <PUBCHEM_BOND_UDEF_STEREO_COUNT>
0

> <PUBCHEM_ISOTOPIC_ATOM_COUNT>
0

> <PUBCHEM_COMPONENT_COUNT>
1

> <PUBCHEM_CACTVS_TAUTO_COUNT>
6

> <PUBCHEM_CONFORMER_ID>
017EDA6200000002

> <PUBCHEM_MMFF94_ENERGY>
115.7161

> <PUBCHEM_FEATURE_SELFOVERLAP>
62.144

> <PUBCHEM_SHAPE_FINGERPRINT>
10863032 1 16271630205552528207
10948715 1 17323792262832112145
11315181 36 13182461153407175050
11578080 2 17987818322718984484
12035759 4 17630019750281731510
12423570 1 14821270245560394045
12654903 92 17246062515992203301
12716301 132 17684628206191850168
13132413 78 18339648823686968972
13140716 1 18268706285075198331
13898156 1 17912895521779937700
14181834 199 18119257168571386861
144361 1 17472370759241237419
14787075 74 17981030926187771652
14817 1 13950205995439078276
15163728 17 14347458391123994803
15852999 172 16905528659180417329
15881359 60 17413861364882401497
16945 1 18196083580524777507
18981168 100 16082222981112124728
19010151 120 18190205445270651235
19765921 60 17483925239301366700
20600515 1 18341619247308068101
20905425 154 17254273423709791567
21524375 3 17035851028158020593
22112679 90 18127103437912726734
22344851 12 8347748915446127602
22344851 341 17479716235607003554
23227448 37 13915456952856619866
23419403 2 17697361422661971580
23559900 14 18261662792444521078
2748010 2 17895744227145246205
3286 77 18057896749157125171
394222 165 16915919808962172742
427121 178 17175999655075056713
4340502 62 17474382475269465803
5845 1 16985743422911014870
68419 9 17841967147800977732
81228 2 18044927111553127729
9981440 41 17037044359309900266

> <PUBCHEM_SHAPE_MULTIPOLES>
426.37
4.18
2.76
2.03
1.11
1.82
0.69
-2.38
-1.38
-0.08
-0.83
-1.08
0.1
-0.43

> <PUBCHEM_SHAPE_SELFOVERLAP>
965.254

> <PUBCHEM_SHAPE_VOLUME>
224.4

> <PUBCHEM_COORDINATE_TYPE>
2
5
10

$$$$

