442702
  -OEChem-07051212592D

 32 34  0     0  0  0  0  0  0999 V2000
    3.7817    1.4641    0.0000 O   0  0  0  0  0  0  0  0  0  0  0  0
    2.0000   -1.5946    0.0000 O   0  0  0  0  0  0  0  0  0  0  0  0
    8.1821    1.9746    0.0000 O   0  0  0  0  0  0  0  0  0  0  0  0
    5.5301   -1.5705    0.0000 C   0  0  0  0  0  0  0  0  0  0  0  0
    6.3961   -1.0705    0.0000 C   0  0  0  0  0  0  0  0  0  0  0  0
    4.6641   -1.0705    0.0000 C   0  0  0  0  0  0  0  0  0  0  0  0
    6.3961   -0.0705    0.0000 C   0  0  0  0  0  0  0  0  0  0  0  0
    4.6641   -0.0705    0.0000 C   0  0  0  0  0  0  0  0  0  0  0  0
    5.5301    0.4295    0.0000 C   0  0  0  0  0  0  0  0  0  0  0  0
    3.7702   -1.6051    0.0000 C   0  0  0  0  0  0  0  0  0  0  0  0
    3.7702    0.4642    0.0000 C   0  0  0  0  0  0  0  0  0  0  0  0
    7.3062    0.4364    0.0000 C   0  0  0  0  0  0  0  0  0  0  0  0
    5.5141    1.4710    0.0000 C   0  0  0  0  0  0  0  0  0  0  0  0
    2.8641   -1.0913    0.0000 C   0  0  0  0  0  0  0  0  0  0  0  0
    2.8641   -0.0497    0.0000 C   0  0  0  0  0  0  0  0  0  0  0  0
    7.3142    1.4780    0.0000 C   0  0  0  0  0  0  0  0  0  0  0  0
    6.4121    1.9988    0.0000 C   0  0  0  0  0  0  0  0  0  0  0  0
    2.0038   -2.5946    0.0000 C   0  0  0  0  0  0  0  0  0  0  0  0
    5.1316   -2.0454    0.0000 H   0  0  0  0  0  0  0  0  0  0  0  0
    5.9286   -2.0454    0.0000 H   0  0  0  0  0  0  0  0  0  0  0  0
    6.6082   -1.6531    0.0000 H   0  0  0  0  0  0  0  0  0  0  0  0
    7.0067   -0.9628    0.0000 H   0  0  0  0  0  0  0  0  0  0  0  0
    3.7773   -2.2251    0.0000 H   0  0  0  0  0  0  0  0  0  0  0  0
    7.8395    0.1202    0.0000 H   0  0  0  0  0  0  0  0  0  0  0  0
    4.9736    1.7748    0.0000 H   0  0  0  0  0  0  0  0  0  0  0  0
    2.3284    0.2624    0.0000 H   0  0  0  0  0  0  0  0  0  0  0  0
    6.4097    2.6188    0.0000 H   0  0  0  0  0  0  0  0  0  0  0  0
    3.2484    1.7803    0.0000 H   0  0  0  0  0  0  0  0  0  0  0  0
    8.1845    2.5946    0.0000 H   0  0  0  0  0  0  0  0  0  0  0  0
    1.3839   -2.5970    0.0000 H   0  0  0  0  0  0  0  0  0  0  0  0
    2.0062   -3.2146    0.0000 H   0  0  0  0  0  0  0  0  0  0  0  0
    2.6238   -2.5922    0.0000 H   0  0  0  0  0  0  0  0  0  0  0  0
  1 11  1  0  0  0  0
  1 28  1  0  0  0  0
  2 14  1  0  0  0  0
  2 18  1  0  0  0  0
  3 16  1  0  0  0  0
  3 29  1  0  0  0  0
  4  5  1  0  0  0  0
  4  6  1  0  0  0  0
  4 19  1  0  0  0  0
  4 20  1  0  0  0  0
  5  7  1  0  0  0  0
  5 21  1  0  0  0  0
  5 22  1  0  0  0  0
  6  8  2  0  0  0  0
  6 10  1  0  0  0  0
  7  9  2  0  0  0  0
  7 12  1  0  0  0  0
  8  9  1  0  0  0  0
  8 11  1  0  0  0  0
  9 13  1  0  0  0  0
 10 14  2  0  0  0  0
 10 23  1  0  0  0  0
 11 15  2  0  0  0  0
 12 16  2  0  0  0  0
 12 24  1  0  0  0  0
 13 17  2  0  0  0  0
 13 25  1  0  0  0  0
 14 15  1  0  0  0  0
 15 26  1  0  0  0  0
 16 17  1  0  0  0  0
 17 27  1  0  0  0  0
 18 30  1  0  0  0  0
 18 31  1  0  0  0  0
 18 32  1  0  0  0  0
M  END
> <PUBCHEM_COMPOUND_CID>
442702

> <PUBCHEM_COMPOUND_CANONICALIZED>
1

> <PUBCHEM_CACTVS_COMPLEXITY>
294

> <PUBCHEM_CACTVS_HBOND_ACCEPTOR>
3

> <PUBCHEM_CACTVS_HBOND_DONOR>
2

> <PUBCHEM_CACTVS_ROTATABLE_BOND>
1

> <PUBCHEM_CACTVS_SUBSKEYS>
AAADccBwMAAAAAAAAAAAAAAAAAAAAAAAAAAwYMAAAAAAAADBQAAAGgAACAAADASAmAIyBoAABgCAAiBCAAACCAAgIAAIiAAGCIgMJyKGMRqAcCAlwBUIuAeA4PwOoAABCAAYAADAAAYQADAAAAAAAAAAAA==

> <PUBCHEM_IUPAC_OPENEYE_NAME>
7-methoxy-9,10-dihydrophenanthrene-2,5-diol

> <PUBCHEM_IUPAC_CAS_NAME>
7-methoxy-9,10-dihydrophenanthrene-2,5-diol

> <PUBCHEM_IUPAC_NAME>
7-methoxy-9,10-dihydrophenanthrene-2,5-diol

> <PUBCHEM_IUPAC_SYSTEMATIC_NAME>
7-methoxy-9,10-dihydrophenanthrene-2,5-diol

> <PUBCHEM_IUPAC_TRADITIONAL_NAME>
7-methoxy-9,10-dihydrophenanthrene-2,5-diol

> <PUBCHEM_IUPAC_INCHI>
InChI=1S/C15H14O3/c1-18-12-7-10-3-2-9-6-11(16)4-5-13(9)15(10)14(17)8-12/h4-8,16-17H,2-3H2,1H3

> <PUBCHEM_IUPAC_INCHIKEY>
RDKDIPDDUFMMMT-UHFFFAOYSA-N

> <PUBCHEM_XLOGP3_AA>
3.1

> <PUBCHEM_EXACT_MASS>
242.094294

> <PUBCHEM_MOLECULAR_FORMULA>
C15H14O3

> <PUBCHEM_MOLECULAR_WEIGHT>
242.26986

> <PUBCHEM_OPENEYE_CAN_SMILES>
COC1=CC(=C2C(=C1)CCC3=C2C=CC(=C3)O)O

> <PUBCHEM_OPENEYE_ISO_SMILES>
COC1=CC(=C2C(=C1)CCC3=C2C=CC(=C3)O)O

> <PUBCHEM_CACTVS_TPSA>
49.7

> <PUBCHEM_MONOISOTOPIC_WEIGHT>
242.094294

> <PUBCHEM_TOTAL_CHARGE>
0

> <PUBCHEM_HEAVY_ATOM_COUNT>
18

> <PUBCHEM_ATOM_DEF_STEREO_COUNT>
0

> <PUBCHEM_ATOM_UDEF_STEREO_COUNT>
0

> <PUBCHEM_BOND_DEF_STEREO_COUNT>
0

> <PUBCHEM_BOND_UDEF_STEREO_COUNT>
0

> <PUBCHEM_ISOTOPIC_ATOM_COUNT>
0

> <PUBCHEM_COMPONENT_COUNT>
1

> <PUBCHEM_CACTVS_TAUTO_COUNT>
165

> <PUBCHEM_COORDINATE_TYPE>
1
5
255

> <PUBCHEM_BONDANNOTATIONS>
10  14  8
11  15  8
12  16  8
13  17  8
14  15  8
16  17  8
6  10  8
6  8  8
7  12  8
7  9  8
8  11  8
9  13  8

$$$$

