10515
  -OEChem-06261204383D

 42 46  0     1  0  0  0  0  0999 V2000
    1.8639    1.0733    1.0105 O   0  0  0  0  0  0  0  0  0  0  0  0
    1.6990    3.4258   -0.4499 O   0  0  0  0  0  0  0  0  0  0  0  0
    4.0872   -0.7348    0.6367 O   0  0  0  0  0  0  0  0  0  0  0  0
   -3.3095   -0.7282    0.4396 N   0  0  1  0  0  0  0  0  0  0  0  0
   -0.4887    0.5467    0.6470 C   0  0  1  0  0  0  0  0  0  0  0  0
   -1.4182    0.5699   -0.5537 C   0  0  2  0  0  0  0  0  0  0  0  0
    0.5454    1.6734    0.7813 C   0  0  2  0  0  0  0  0  0  0  0  0
   -2.0945   -0.8470   -0.3710 C   0  0  2  0  0  0  0  0  0  0  0  0
   -1.4181    0.3735    1.9249 C   0  0  0  0  0  0  0  0  0  0  0  0
    0.4633   -0.5981    0.3141 C   0  0  0  0  0  0  0  0  0  0  0  0
   -0.7477    0.9111   -1.9024 C   0  0  0  0  0  0  0  0  0  0  0  0
    0.5443    2.5941   -0.4538 C   0  0  2  0  0  0  0  0  0  0  0  0
   -1.2555   -1.9815   -0.9997 C   0  0  0  0  0  0  0  0  0  0  0  0
    0.4764    1.8333   -1.7780 C   0  0  0  0  0  0  0  0  0  0  0  0
   -2.9851    0.2053    1.5847 C   0  0  0  0  0  0  0  0  0  0  0  0
    0.1744   -1.7704   -0.4361 C   0  0  0  0  0  0  0  0  0  0  0  0
    1.7555   -0.2289    0.6018 C   0  0  0  0  0  0  0  0  0  0  0  0
   -4.4635   -0.2946   -0.3311 C   0  0  0  0  0  0  0  0  0  0  0  0
    1.2292   -2.6382   -0.7095 C   0  0  0  0  0  0  0  0  0  0  0  0
    2.8087   -1.0821    0.3412 C   0  0  0  0  0  0  0  0  0  0  0  0
    2.5335   -2.3025   -0.2968 C   0  0  0  0  0  0  0  0  0  0  0  0
   -2.1468    1.3823   -0.4223 H   0  0  0  0  0  0  0  0  0  0  0  0
    0.3612    2.2989    1.6627 H   0  0  0  0  0  0  0  0  0  0  0  0
   -2.6445   -0.8061   -1.3289 H   0  0  0  0  0  0  0  0  0  0  0  0
   -1.3273    1.2377    2.5923 H   0  0  0  0  0  0  0  0  0  0  0  0
   -1.0964   -0.5105    2.4896 H   0  0  0  0  0  0  0  0  0  0  0  0
   -1.4994    1.4087   -2.5299 H   0  0  0  0  0  0  0  0  0  0  0  0
   -0.4542    0.0295   -2.4785 H   0  0  0  0  0  0  0  0  0  0  0  0
   -0.3305    3.2537   -0.3896 H   0  0  0  0  0  0  0  0  0  0  0  0
   -1.2275   -1.9815   -2.0956 H   0  0  0  0  0  0  0  0  0  0  0  0
   -1.6273   -2.9520   -0.6533 H   0  0  0  0  0  0  0  0  0  0  0  0
    1.3942    1.2457   -1.9084 H   0  0  0  0  0  0  0  0  0  0  0  0
    0.4843    2.5405   -2.6172 H   0  0  0  0  0  0  0  0  0  0  0  0
   -3.4984   -0.1592    2.4818 H   0  0  0  0  0  0  0  0  0  0  0  0
   -3.3818    1.2089    1.3805 H   0  0  0  0  0  0  0  0  0  0  0  0
   -5.3333   -0.1978    0.3291 H   0  0  0  0  0  0  0  0  0  0  0  0
   -4.7417   -1.0407   -1.0850 H   0  0  0  0  0  0  0  0  0  0  0  0
   -4.3192    0.6714   -0.8281 H   0  0  0  0  0  0  0  0  0  0  0  0
    1.0609   -3.5564   -1.2647 H   0  0  0  0  0  0  0  0  0  0  0  0
    1.6384    4.0188   -1.2181 H   0  0  0  0  0  0  0  0  0  0  0  0
    3.3445   -2.9897   -0.5293 H   0  0  0  0  0  0  0  0  0  0  0  0
    4.6799   -1.4567    0.3652 H   0  0  0  0  0  0  0  0  0  0  0  0
  1  7  1  0  0  0  0
  1 17  1  0  0  0  0
  2 12  1  0  0  0  0
  2 40  1  0  0  0  0
  3 20  1  0  0  0  0
  3 42  1  0  0  0  0
  4  8  1  0  0  0  0
  4 15  1  0  0  0  0
  4 18  1  0  0  0  0
  5  6  1  0  0  0  0
  5  7  1  0  0  0  0
  5  9  1  0  0  0  0
  5 10  1  0  0  0  0
  6  8  1  0  0  0  0
  6 11  1  0  0  0  0
  6 22  1  0  0  0  0
  7 12  1  0  0  0  0
  7 23  1  0  0  0  0
  8 13  1  0  0  0  0
  8 24  1  0  0  0  0
  9 15  1  0  0  0  0
  9 25  1  0  0  0  0
  9 26  1  0  0  0  0
 10 16  2  0  0  0  0
 10 17  1  0  0  0  0
 11 14  1  0  0  0  0
 11 27  1  0  0  0  0
 11 28  1  0  0  0  0
 12 14  1  0  0  0  0
 12 29  1  0  0  0  0
 13 16  1  0  0  0  0
 13 30  1  0  0  0  0
 13 31  1  0  0  0  0
 14 32  1  0  0  0  0
 14 33  1  0  0  0  0
 15 34  1  0  0  0  0
 15 35  1  0  0  0  0
 16 19  1  0  0  0  0
 17 20  2  0  0  0  0
 18 36  1  0  0  0  0
 18 37  1  0  0  0  0
 18 38  1  0  0  0  0
 19 21  2  0  0  0  0
 19 39  1  0  0  0  0
 20 21  1  0  0  0  0
 21 41  1  0  0  0  0
M  END
> <PUBCHEM_COMPOUND_CID>
10515

> <PUBCHEM_CONFORMER_RMSD>
0.6

> <PUBCHEM_CONFORMER_DIVERSEORDER>
1

> <PUBCHEM_MMFF94_PARTIAL_CHARGES>
21
1 -0.36
10 -0.14
12 0.28
13 0.14
15 0.27
16 -0.14
17 0.08
18 0.27
19 -0.15
2 -0.68
20 0.08
21 -0.15
3 -0.53
39 0.15
4 -0.81
40 0.4
41 0.15
42 0.45
5 0.14
7 0.28
8 0.27

> <PUBCHEM_EFFECTIVE_ROTOR_COUNT>
1.6

> <PUBCHEM_PHARMACOPHORE_FEATURES>
10
1 1 acceptor
1 2 acceptor
1 2 donor
1 3 donor
1 4 cation
5 1 5 7 10 17 rings
6 10 16 17 19 20 21 rings
6 4 5 6 8 9 15 rings
6 5 6 7 11 12 14 rings
6 5 6 8 10 13 16 rings

> <PUBCHEM_HEAVY_ATOM_COUNT>
21

> <PUBCHEM_ATOM_DEF_STEREO_COUNT>
5

> <PUBCHEM_ATOM_UDEF_STEREO_COUNT>
0

> <PUBCHEM_BOND_DEF_STEREO_COUNT>
0

> <PUBCHEM_BOND_UDEF_STEREO_COUNT>
0

> <PUBCHEM_ISOTOPIC_ATOM_COUNT>
0

> <PUBCHEM_COMPONENT_COUNT>
1

> <PUBCHEM_CACTVS_TAUTO_COUNT>
3

> <PUBCHEM_CONFORMER_ID>
0000291300000001

> <PUBCHEM_MMFF94_ENERGY>
138.9475

> <PUBCHEM_FEATURE_SELFOVERLAP>
52.242

> <PUBCHEM_SHAPE_FINGERPRINT>
10863032 1 18045505205466009569
10948715 1 17906728099056544893
10967382 1 18260834803853499194
12011746 2 18260829340612731951
12403814 3 18342747350855042674
12423570 1 11411433118554738425
12592029 89 17841136762881728077
13132413 78 18187920737528346425
13134695 92 18272647948361013085
13140716 1 18189908508438250554
13172582 1 18409174294112414890
13681431 1 18058990852930186133
141345 1 15900654252048694549
14142880 1 18117005592006434272
14181834 199 18341886338534211069
144361 1 17120058311355034733
14817 1 16768219263391379812
14955137 171 18191838220269929514
15375462 478 17240488039331660907
1601671 61 18338516464450013085
16945 1 18260559925898764039
17357779 13 18268726063467414687
1813 80 18268975635042266214
19868273 325 18271243949084085318
20600515 1 17488442230425691031
21330990 113 17762326320919312389
2334 1 17901957330872462490
23419403 2 17900013635017157857
23557571 272 18057321902059586286
2748010 2 17974015251565171374
576247 118 17987218088217100409
7364860 26 18340202969084118533
81228 2 17554029323035604241
84936 31 18268424650867718572

> <PUBCHEM_SHAPE_MULTIPOLES>
409.58
4.84
2.91
1.53
1.78
1.19
0.06
-2.15
-1.13
-1.91
1.06
0.56
0.5
-0.13

> <PUBCHEM_SHAPE_SELFOVERLAP>
917.364

> <PUBCHEM_SHAPE_VOLUME>
215.5

> <PUBCHEM_COORDINATE_TYPE>
2
5
10

$$$$

