12334
  -OEChem-06261206493D

 17 16  0     0  0  0  0  0  0999 V2000
   -3.3122    0.9858    0.5917 Cl  0  0  0  0  0  0  0  0  0  0  0  0
    0.8609   -0.5901    0.1070 O   0  0  0  0  0  0  0  0  0  0  0  0
    2.0138    1.3543   -0.3695 O   0  0  0  0  0  0  0  0  0  0  0  0
   -1.4984   -0.9640   -0.0568 C   0  0  0  0  0  0  0  0  0  0  0  0
   -0.3662    0.0396   -0.2386 C   0  0  0  0  0  0  0  0  0  0  0  0
   -2.8695   -0.4087   -0.4193 C   0  0  0  0  0  0  0  0  0  0  0  0
    1.9806    0.1868   -0.0046 C   0  0  0  0  0  0  0  0  0  0  0  0
    3.1910   -0.6038    0.3902 C   0  0  0  0  0  0  0  0  0  0  0  0
   -1.5001   -1.3248    0.9798 H   0  0  0  0  0  0  0  0  0  0  0  0
   -1.2940   -1.8486   -0.6731 H   0  0  0  0  0  0  0  0  0  0  0  0
   -0.3251    0.3708   -1.2829 H   0  0  0  0  0  0  0  0  0  0  0  0
   -0.5070    0.9115    0.4089 H   0  0  0  0  0  0  0  0  0  0  0  0
   -2.8951   -0.0838   -1.4639 H   0  0  0  0  0  0  0  0  0  0  0  0
   -3.6382   -1.1745   -0.2799 H   0  0  0  0  0  0  0  0  0  0  0  0
    3.3027   -1.4658   -0.2722 H   0  0  0  0  0  0  0  0  0  0  0  0
    3.0996   -0.9263    1.4304 H   0  0  0  0  0  0  0  0  0  0  0  0
    4.0812    0.0249    0.2972 H   0  0  0  0  0  0  0  0  0  0  0  0
  1  6  1  0  0  0  0
  2  5  1  0  0  0  0
  2  7  1  0  0  0  0
  3  7  2  0  0  0  0
  4  5  1  0  0  0  0
  4  6  1  0  0  0  0
  4  9  1  0  0  0  0
  4 10  1  0  0  0  0
  5 11  1  0  0  0  0
  5 12  1  0  0  0  0
  6 13  1  0  0  0  0
  6 14  1  0  0  0  0
  7  8  1  0  0  0  0
  8 15  1  0  0  0  0
  8 16  1  0  0  0  0
  8 17  1  0  0  0  0
M  END
> <PUBCHEM_COMPOUND_CID>
12334

> <PUBCHEM_CONFORMER_RMSD>
0.6

> <PUBCHEM_CONFORMER_DIVERSEORDER>
1
30
27
22
26
20
3
17
18
31
34
5
32
25
9
13
21
4
24
11
15
14
19
23
35
7
12
6
28
33
29
2
16
8
10

> <PUBCHEM_MMFF94_PARTIAL_CHARGES>
7
1 -0.29
2 -0.43
3 -0.57
5 0.28
6 0.29
7 0.66
8 0.06

> <PUBCHEM_EFFECTIVE_ROTOR_COUNT>
4

> <PUBCHEM_PHARMACOPHORE_FEATURES>
1
1 3 acceptor

> <PUBCHEM_HEAVY_ATOM_COUNT>
8

> <PUBCHEM_ATOM_DEF_STEREO_COUNT>
0

> <PUBCHEM_ATOM_UDEF_STEREO_COUNT>
0

> <PUBCHEM_BOND_DEF_STEREO_COUNT>
0

> <PUBCHEM_BOND_UDEF_STEREO_COUNT>
0

> <PUBCHEM_ISOTOPIC_ATOM_COUNT>
0

> <PUBCHEM_COMPONENT_COUNT>
1

> <PUBCHEM_CACTVS_TAUTO_COUNT>
1

> <PUBCHEM_CONFORMER_ID>
0000302E00000001

> <PUBCHEM_MMFF94_ENERGY>
4.5514

> <PUBCHEM_FEATURE_SELFOVERLAP>
5.074

> <PUBCHEM_SHAPE_FINGERPRINT>
10857977 72 14764346016287698367
11062470 55 14779269717386265667
12932764 1 17060349504138921883
14325111 11 18410575059046372911
14390081 3 18186522077286196681
21293036 1 5039658262761198001
29004967 10 15698285507788167447
3248919 1 18335987493048023239
5460574 1 8862951588567884559

> <PUBCHEM_SHAPE_MULTIPOLES>
154.77
5.91
1.14
0.71
0.51
0.2
-0.03
0.69
-0.75
0.19
0.01
0.11
0.04
-0.53

> <PUBCHEM_SHAPE_SELFOVERLAP>
271.019

> <PUBCHEM_SHAPE_VOLUME>
102.3

> <PUBCHEM_COORDINATE_TYPE>
2
5
10

$$$$

