17396113
  -OEChem-06241222542D

 46 48  0     0  0  0  0  0  0999 V2000
    2.5000   -5.3512    0.0000 S   0  0  0  0  0  0  0  0  0  0  0  0
    9.6448    5.3512    0.0000 F   0  0  0  0  0  0  0  0  0  0  0  0
    6.1808   -2.6488    0.0000 O   0  0  0  0  0  0  0  0  0  0  0  0
    7.0468    1.8512    0.0000 O   0  0  0  0  0  0  0  0  0  0  0  0
    5.3147    0.8512    0.0000 N   0  0  0  0  0  0  0  0  0  0  0  0
    5.3147   -1.1488    0.0000 N   0  0  0  0  0  0  0  0  0  0  0  0
    6.1808    3.3512    0.0000 N   0  0  0  0  0  0  0  0  0  0  0  0
    6.1808    0.3512    0.0000 C   0  0  0  0  0  0  0  0  0  0  0  0
    4.4487    0.3512    0.0000 C   0  0  0  0  0  0  0  0  0  0  0  0
    6.1808   -0.6488    0.0000 C   0  0  0  0  0  0  0  0  0  0  0  0
    4.4487   -0.6488    0.0000 C   0  0  0  0  0  0  0  0  0  0  0  0
    5.3147    1.8512    0.0000 C   0  0  0  0  0  0  0  0  0  0  0  0
    5.3147   -2.1488    0.0000 C   0  0  0  0  0  0  0  0  0  0  0  0
    6.1808    2.3512    0.0000 C   0  0  0  0  0  0  0  0  0  0  0  0
    4.4487   -2.6488    0.0000 C   0  0  0  0  0  0  0  0  0  0  0  0
    7.0468    3.8512    0.0000 C   0  0  0  0  0  0  0  0  0  0  0  0
    4.4487   -3.6488    0.0000 C   0  0  0  0  0  0  0  0  0  0  0  0
    3.5827   -4.1488    0.0000 C   0  0  0  0  0  0  0  0  0  0  0  0
    7.9128    3.3512    0.0000 C   0  0  0  0  0  0  0  0  0  0  0  0
    7.0468    4.8512    0.0000 C   0  0  0  0  0  0  0  0  0  0  0  0
    8.7788    3.8512    0.0000 C   0  0  0  0  0  0  0  0  0  0  0  0
    7.9128    5.3512    0.0000 C   0  0  0  0  0  0  0  0  0  0  0  0
    2.6691   -3.7420    0.0000 C   0  0  0  0  0  0  0  0  0  0  0  0
    3.4782   -5.1433    0.0000 C   0  0  0  0  0  0  0  0  0  0  0  0
    8.7788    4.8512    0.0000 C   0  0  0  0  0  0  0  0  0  0  0  0
    2.0000   -4.4852    0.0000 C   0  0  0  0  0  0  0  0  0  0  0  0
    6.7913    0.2436    0.0000 H   0  0  0  0  0  0  0  0  0  0  0  0
    6.3928    0.9338    0.0000 H   0  0  0  0  0  0  0  0  0  0  0  0
    4.2366    0.9338    0.0000 H   0  0  0  0  0  0  0  0  0  0  0  0
    3.8381    0.2436    0.0000 H   0  0  0  0  0  0  0  0  0  0  0  0
    3.8381   -0.5411    0.0000 H   0  0  0  0  0  0  0  0  0  0  0  0
    4.2366   -1.2314    0.0000 H   0  0  0  0  0  0  0  0  0  0  0  0
    6.3928   -1.2314    0.0000 H   0  0  0  0  0  0  0  0  0  0  0  0
    6.7913   -0.5411    0.0000 H   0  0  0  0  0  0  0  0  0  0  0  0
    5.1027    2.4338    0.0000 H   0  0  0  0  0  0  0  0  0  0  0  0
    4.7042    1.7436    0.0000 H   0  0  0  0  0  0  0  0  0  0  0  0
    3.9118   -2.3388    0.0000 H   0  0  0  0  0  0  0  0  0  0  0  0
    5.6438    3.6612    0.0000 H   0  0  0  0  0  0  0  0  0  0  0  0
    4.9856   -3.9588    0.0000 H   0  0  0  0  0  0  0  0  0  0  0  0
    7.9128    2.7312    0.0000 H   0  0  0  0  0  0  0  0  0  0  0  0
    6.5098    5.1612    0.0000 H   0  0  0  0  0  0  0  0  0  0  0  0
    9.3158    3.5412    0.0000 H   0  0  0  0  0  0  0  0  0  0  0  0
    7.9128    5.9712    0.0000 H   0  0  0  0  0  0  0  0  0  0  0  0
    2.5402   -3.1356    0.0000 H   0  0  0  0  0  0  0  0  0  0  0  0
    3.9389   -5.5582    0.0000 H   0  0  0  0  0  0  0  0  0  0  0  0
    1.3834   -4.4204    0.0000 H   0  0  0  0  0  0  0  0  0  0  0  0
  1 24  1  0  0  0  0
  1 26  1  0  0  0  0
  2 25  1  0  0  0  0
  3 13  2  0  0  0  0
  4 14  2  0  0  0  0
  5  8  1  0  0  0  0
  5  9  1  0  0  0  0
  5 12  1  0  0  0  0
  6 10  1  0  0  0  0
  6 11  1  0  0  0  0
  6 13  1  0  0  0  0
  7 14  1  0  0  0  0
  7 16  1  0  0  0  0
  7 38  1  0  0  0  0
  8 10  1  0  0  0  0
  8 27  1  0  0  0  0
  8 28  1  0  0  0  0
  9 11  1  0  0  0  0
  9 29  1  0  0  0  0
  9 30  1  0  0  0  0
 10 33  1  0  0  0  0
 10 34  1  0  0  0  0
 11 31  1  0  0  0  0
 11 32  1  0  0  0  0
 12 14  1  0  0  0  0
 12 35  1  0  0  0  0
 12 36  1  0  0  0  0
 13 15  1  0  0  0  0
 15 17  2  0  0  0  0
 15 37  1  0  0  0  0
 16 19  2  0  0  0  0
 16 20  1  0  0  0  0
 17 18  1  0  0  0  0
 17 39  1  0  0  0  0
 18 23  1  0  0  0  0
 18 24  2  0  0  0  0
 19 21  1  0  0  0  0
 19 40  1  0  0  0  0
 20 22  2  0  0  0  0
 20 41  1  0  0  0  0
 21 25  2  0  0  0  0
 21 42  1  0  0  0  0
 22 25  1  0  0  0  0
 22 43  1  0  0  0  0
 23 26  2  0  0  0  0
 23 44  1  0  0  0  0
 24 45  1  0  0  0  0
 26 46  1  0  0  0  0
M  END
> <PUBCHEM_COMPOUND_CID>
17396113

> <PUBCHEM_COMPOUND_CANONICALIZED>
1

> <PUBCHEM_CACTVS_COMPLEXITY>
515

> <PUBCHEM_CACTVS_HBOND_ACCEPTOR>
5

> <PUBCHEM_CACTVS_HBOND_DONOR>
1

> <PUBCHEM_CACTVS_ROTATABLE_BOND>
5

> <PUBCHEM_CACTVS_SUBSKEYS>
AAADceB7MQBAAAAAAAAAAAAAAAAAASAAAAA8QAAAAAAAAAABwAAAHwQQAAAADAjF2AywwYPAAAiMAiVSUACDAIAhChBIiBiIZMgIYCLgkbGUIAhglgDoyYcQAAAIAAAAAAAAAAAAAAAAAAAAAAAAAAAAAA==

> <PUBCHEM_IUPAC_OPENEYE_NAME>
N-(4-fluorophenyl)-2-[4-[(E)-3-(3-thienyl)prop-2-enoyl]piperazin-1-yl]acetamide

> <PUBCHEM_IUPAC_CAS_NAME>
N-(4-fluorophenyl)-2-[4-[(E)-1-oxo-3-(3-thiophenyl)prop-2-enyl]-1-piperazinyl]acetamide

> <PUBCHEM_IUPAC_NAME>
N-(4-fluorophenyl)-2-[4-[(E)-3-thiophen-3-ylprop-2-enoyl]piperazin-1-yl]acetamide

> <PUBCHEM_IUPAC_SYSTEMATIC_NAME>
N-(4-fluorophenyl)-2-[4-[(E)-3-thiophen-3-ylprop-2-enoyl]piperazin-1-yl]ethanamide

> <PUBCHEM_IUPAC_TRADITIONAL_NAME>
N-(4-fluorophenyl)-2-[4-[(E)-3-(3-thienyl)acryloyl]piperazino]acetamide

> <PUBCHEM_IUPAC_INCHI>
InChI=1S/C19H20FN3O2S/c20-16-2-4-17(5-3-16)21-18(24)13-22-8-10-23(11-9-22)19(25)6-1-15-7-12-26-14-15/h1-7,12,14H,8-11,13H2,(H,21,24)/b6-1+

> <PUBCHEM_IUPAC_INCHIKEY>
YOIIDVIHMCAAAJ-LZCJLJQNSA-N

> <PUBCHEM_XLOGP3_AA>
2.3

> <PUBCHEM_EXACT_MASS>
373.126026

> <PUBCHEM_MOLECULAR_FORMULA>
C19H20FN3O2S

> <PUBCHEM_MOLECULAR_WEIGHT>
373.444403

> <PUBCHEM_OPENEYE_CAN_SMILES>
C1CN(CCN1CC(=O)NC2=CC=C(C=C2)F)C(=O)C=CC3=CSC=C3

> <PUBCHEM_OPENEYE_ISO_SMILES>
C1CN(CCN1CC(=O)NC2=CC=C(C=C2)F)C(=O)/C=C/C3=CSC=C3

> <PUBCHEM_CACTVS_TPSA>
80.9

> <PUBCHEM_MONOISOTOPIC_WEIGHT>
373.126026

> <PUBCHEM_TOTAL_CHARGE>
0

> <PUBCHEM_HEAVY_ATOM_COUNT>
26

> <PUBCHEM_ATOM_DEF_STEREO_COUNT>
0

> <PUBCHEM_ATOM_UDEF_STEREO_COUNT>
0

> <PUBCHEM_BOND_DEF_STEREO_COUNT>
1

> <PUBCHEM_BOND_UDEF_STEREO_COUNT>
0

> <PUBCHEM_ISOTOPIC_ATOM_COUNT>
0

> <PUBCHEM_COMPONENT_COUNT>
1

> <PUBCHEM_CACTVS_TAUTO_COUNT>
3

> <PUBCHEM_COORDINATE_TYPE>
1
5
255

> <PUBCHEM_BONDANNOTATIONS>
1  24  8
1  26  8
16  19  8
16  20  8
18  23  8
18  24  8
19  21  8
20  22  8
21  25  8
22  25  8
23  26  8

$$$$

