37995
  -OEChem-07051213133D

 35 35  0     0  0  0  0  0  0999 V2000
    3.2118    0.8664    1.7202 S   0  0  0  0  0  0  0  0  0  0  0  0
    2.8538   -0.2755    0.1801 P   0  0  0  0  0  0  0  0  0  0  0  0
    1.4396   -1.0680    0.1656 O   0  0  0  0  0  0  0  0  0  0  0  0
   -3.2820   -1.4356   -0.0499 O   0  0  0  0  0  0  0  0  0  0  0  0
    2.8063    0.4740   -1.2650 O   0  0  0  0  0  0  0  0  0  0  0  0
    3.9154   -1.4698   -0.1264 O   0  0  0  0  0  0  0  0  0  0  0  0
    0.1302    0.8354   -0.0381 N   0  0  0  0  0  0  0  0  0  0  0  0
   -2.2697    0.6480   -0.1489 N   0  0  0  0  0  0  0  0  0  0  0  0
   -1.2254    2.8224   -0.2503 C   0  0  0  0  0  0  0  0  0  0  0  0
   -1.1143    1.3397   -0.1394 C   0  0  0  0  0  0  0  0  0  0  0  0
    0.1943   -0.5089    0.0636 C   0  0  0  0  0  0  0  0  0  0  0  0
   -2.1329   -0.6903   -0.0438 C   0  0  0  0  0  0  0  0  0  0  0  0
   -0.9154   -1.3301    0.0664 C   0  0  0  0  0  0  0  0  0  0  0  0
   -1.3398    3.5000    1.1130 C   0  0  0  0  0  0  0  0  0  0  0  0
   -4.5077   -0.7224   -0.1659 C   0  0  0  0  0  0  0  0  0  0  0  0
   -5.6548   -1.7104   -0.1695 C   0  0  0  0  0  0  0  0  0  0  0  0
    3.8856    1.3007   -1.6671 C   0  0  0  0  0  0  0  0  0  0  0  0
    4.0051   -2.5758    0.7556 C   0  0  0  0  0  0  0  0  0  0  0  0
   -0.3494    3.2170   -0.7789 H   0  0  0  0  0  0  0  0  0  0  0  0
   -2.1005    3.0804   -0.8584 H   0  0  0  0  0  0  0  0  0  0  0  0
   -0.8351   -2.4067    0.1488 H   0  0  0  0  0  0  0  0  0  0  0  0
   -2.2258    3.1500    1.6535 H   0  0  0  0  0  0  0  0  0  0  0  0
   -1.4190    4.5847    0.9917 H   0  0  0  0  0  0  0  0  0  0  0  0
   -0.4621    3.2879    1.7329 H   0  0  0  0  0  0  0  0  0  0  0  0
   -4.6277   -0.0379    0.6823 H   0  0  0  0  0  0  0  0  0  0  0  0
   -4.5266   -0.1518   -1.1024 H   0  0  0  0  0  0  0  0  0  0  0  0
   -6.6152   -1.1947   -0.2575 H   0  0  0  0  0  0  0  0  0  0  0  0
   -5.5544   -2.4148   -1.0019 H   0  0  0  0  0  0  0  0  0  0  0  0
   -5.6555   -2.3037    0.7508 H   0  0  0  0  0  0  0  0  0  0  0  0
    3.8242    1.4524   -2.7476 H   0  0  0  0  0  0  0  0  0  0  0  0
    4.8417    0.8265   -1.4297 H   0  0  0  0  0  0  0  0  0  0  0  0
    3.8138    2.2711   -1.1699 H   0  0  0  0  0  0  0  0  0  0  0  0
    4.2930   -2.2398    1.7546 H   0  0  0  0  0  0  0  0  0  0  0  0
    4.7681   -3.2614    0.3788 H   0  0  0  0  0  0  0  0  0  0  0  0
    3.0477   -3.1008    0.7999 H   0  0  0  0  0  0  0  0  0  0  0  0
  1  2  2  0  0  0  0
  2  3  1  0  0  0  0
  2  5  1  0  0  0  0
  2  6  1  0  0  0  0
  3 11  1  0  0  0  0
  4 12  1  0  0  0  0
  4 15  1  0  0  0  0
  5 17  1  0  0  0  0
  6 18  1  0  0  0  0
  7 10  1  0  0  0  0
  7 11  2  0  0  0  0
  8 10  2  0  0  0  0
  8 12  1  0  0  0  0
  9 10  1  0  0  0  0
  9 14  1  0  0  0  0
  9 19  1  0  0  0  0
  9 20  1  0  0  0  0
 11 13  1  0  0  0  0
 12 13  2  0  0  0  0
 13 21  1  0  0  0  0
 14 22  1  0  0  0  0
 14 23  1  0  0  0  0
 14 24  1  0  0  0  0
 15 16  1  0  0  0  0
 15 25  1  0  0  0  0
 15 26  1  0  0  0  0
 16 27  1  0  0  0  0
 16 28  1  0  0  0  0
 16 29  1  0  0  0  0
 17 30  1  0  0  0  0
 17 31  1  0  0  0  0
 17 32  1  0  0  0  0
 18 33  1  0  0  0  0
 18 34  1  0  0  0  0
 18 35  1  0  0  0  0
M  END
> <PUBCHEM_COMPOUND_CID>
37995

> <PUBCHEM_CONFORMER_RMSD>
0.8

> <PUBCHEM_CONFORMER_DIVERSEORDER>
1
85
84
118
103
25
140
42
104
96
64
106
143
79
139
110
63
23
69
3
37
102
78
76
83
50
119
65
90
124
116
6
58
125
41
137
98
91
133
12
92
15
126
123
20
100
70
29
75
48
101
62
113
105
82
134
94
34
81
117
132
59
18
4
122
120
60
77
111
16
56
30
87
114
109
40
95
19
24
9
55
99
107
7
52
44
128
5
39
108
2
72
35
27
142
73
138
68
71
31
53
33
49
66
127
136
86
13
10
17
26
28
14
57
121
67
11
97
36
88
43
54
135
80
112
21
131
115
129
51
89
45
8
74
61
38
46
130
22
32
47
144
141
93

> <PUBCHEM_MMFF94_PARTIAL_CHARGES>
17
1 -0.68
10 0.48
11 0.39
12 0.39
13 -0.15
15 0.28
17 0.28
18 0.28
2 1.49
21 0.15
3 -0.35
4 -0.36
5 -0.55
6 -0.55
7 -0.62
8 -0.62
9 0.14

> <PUBCHEM_EFFECTIVE_ROTOR_COUNT>
7

> <PUBCHEM_PHARMACOPHORE_FEATURES>
4
1 14 hydrophobe
1 4 acceptor
3 7 8 10 cation
6 7 8 10 11 12 13 rings

> <PUBCHEM_HEAVY_ATOM_COUNT>
18

> <PUBCHEM_ATOM_DEF_STEREO_COUNT>
0

> <PUBCHEM_ATOM_UDEF_STEREO_COUNT>
0

> <PUBCHEM_BOND_DEF_STEREO_COUNT>
0

> <PUBCHEM_BOND_UDEF_STEREO_COUNT>
0

> <PUBCHEM_ISOTOPIC_ATOM_COUNT>
0

> <PUBCHEM_COMPONENT_COUNT>
1

> <PUBCHEM_CACTVS_TAUTO_COUNT>
3

> <PUBCHEM_CONFORMER_ID>
0000946B00000001

> <PUBCHEM_MMFF94_ENERGY>
30.0064

> <PUBCHEM_FEATURE_SELFOVERLAP>
20.297

> <PUBCHEM_SHAPE_FINGERPRINT>
12032990 46 18411421696248789099
12403259 226 18263091053389985648
12788726 201 18336251405850680493
14178342 30 18053679232969295242
17492 89 18339643472501252614
18186145 218 16630809906454646158
18222031 100 18114461154928280359
20281475 54 18411980243792153715
20510252 161 18336553792959878193
20559304 39 18342741797799731164
20645477 70 17846501417695434698
21029758 11 18337394851342343017
21501502 16 18340759459723029900
21524375 3 17832145291881926377
23402539 116 18334022713530935543
23557571 272 18335141994550095032
23558518 356 18052530260318783627
23559900 14 18341622559107823666
23598291 2 18057874926454142046
23845131 108 17469033823683960777
25147074 1 18200017569163386676
3004659 81 18060142037283386054
31174 14 17895486838471849416
312423 11 18271231828939700474
314194 84 18340484444662612155
3286 77 18187651327267595330
350125 39 18338515360748627208
5104073 3 18334864960300498523
5374978 207 18410864239220910098
537710 114 18271523092030801949
53777708 50 18269263716279837308
6049 1 17676203619594060200
621550 34 17749678411021039464
6992083 37 17912357938283382532
7164475 11 18342175608955808748
7364860 26 17974288716813029289
81228 2 18339912818479165929

> <PUBCHEM_SHAPE_MULTIPOLES>
344.69
9.26
3.11
1.16
4.88
2.2
0.01
-6.27
0.62
0.56
-0.77
-1.58
0.59
-0.93

> <PUBCHEM_SHAPE_SELFOVERLAP>
658.834

> <PUBCHEM_SHAPE_VOLUME>
215.1

> <PUBCHEM_COORDINATE_TYPE>
2
5
10

$$$$

