114989
  -OEChem-07051213152D

 33 33  0     1  0  0  0  0  0999 V2000
    5.0868    0.9630    0.0000 P   0  0  3  0  0  0  0  0  0  0  0  0
    4.2208    0.4630    0.0000 O   0  0  0  0  0  0  0  0  0  0  0  0
    5.9529    1.4630    0.0000 O   0  0  0  0  0  0  0  0  0  0  0  0
    4.5868    1.8290    0.0000 O   0  0  0  0  0  0  0  0  0  0  0  0
    5.5868    0.0970    0.0000 O   0  0  0  0  0  0  0  0  0  0  0  0
    4.2208   -0.5370    0.0000 N   0  0  0  0  0  0  0  0  0  0  0  0
    6.7240   -1.4849    0.0000 N   0  0  0  0  0  0  0  0  0  0  0  0
    3.7208   -2.0758    0.0000 N   0  0  0  0  0  0  0  0  0  0  0  0
    2.4608   -0.8157    0.0000 N   0  0  0  0  0  0  0  0  0  0  0  0
    5.0298   -1.1248    0.0000 C   0  0  1  0  0  0  0  0  0  0  0  0
    5.9809   -0.8157    0.0000 C   0  0  0  0  0  0  0  0  0  0  0  0
    4.7208   -2.0758    0.0000 C   0  0  0  0  0  0  0  0  0  0  0  0
    3.4118   -1.1248    0.0000 C   0  0  0  0  0  0  0  0  0  0  0  0
    7.6751   -1.1759    0.0000 C   0  0  0  0  0  0  0  0  0  0  0  0
    6.5161   -2.4630    0.0000 C   0  0  0  0  0  0  0  0  0  0  0  0
    5.9529    2.4630    0.0000 C   0  0  0  0  0  0  0  0  0  0  0  0
    5.1268   -0.5124    0.0000 H   0  0  0  0  0  0  0  0  0  0  0  0
    6.4695   -0.4340    0.0000 H   0  0  0  0  0  0  0  0  0  0  0  0
    5.6898   -0.2683    0.0000 H   0  0  0  0  0  0  0  0  0  0  0  0
    4.6560   -2.6924    0.0000 H   0  0  0  0  0  0  0  0  0  0  0  0
    5.3273   -2.2047    0.0000 H   0  0  0  0  0  0  0  0  0  0  0  0
    7.8667   -1.7655    0.0000 H   0  0  0  0  0  0  0  0  0  0  0  0
    8.2648   -0.9843    0.0000 H   0  0  0  0  0  0  0  0  0  0  0  0
    7.4835   -0.5862    0.0000 H   0  0  0  0  0  0  0  0  0  0  0  0
    5.9097   -2.3341    0.0000 H   0  0  0  0  0  0  0  0  0  0  0  0
    6.3872   -3.0695    0.0000 H   0  0  0  0  0  0  0  0  0  0  0  0
    7.1226   -2.5919    0.0000 H   0  0  0  0  0  0  0  0  0  0  0  0
    2.0000   -1.2306    0.0000 H   0  0  0  0  0  0  0  0  0  0  0  0
    2.3318   -0.2093    0.0000 H   0  0  0  0  0  0  0  0  0  0  0  0
    3.9668    1.8290    0.0000 H   0  0  0  0  0  0  0  0  0  0  0  0
    6.5729    2.4630    0.0000 H   0  0  0  0  0  0  0  0  0  0  0  0
    5.9529    3.0830    0.0000 H   0  0  0  0  0  0  0  0  0  0  0  0
    5.3329    2.4630    0.0000 H   0  0  0  0  0  0  0  0  0  0  0  0
  1  2  1  0  0  0  0
  1  3  1  0  0  0  0
  1  4  1  0  0  0  0
  1  5  2  0  0  0  0
  2  6  1  0  0  0  0
  3 16  1  0  0  0  0
  4 30  1  0  0  0  0
  6 10  1  0  0  0  0
  6 13  1  0  0  0  0
  7 11  1  0  0  0  0
  7 14  1  0  0  0  0
  7 15  1  0  0  0  0
  8 12  1  0  0  0  0
  8 13  2  0  0  0  0
  9 13  1  0  0  0  0
  9 28  1  0  0  0  0
  9 29  1  0  0  0  0
 10 11  1  1  0  0  0
 10 12  1  0  0  0  0
 10 17  1  0  0  0  0
 11 18  1  0  0  0  0
 11 19  1  0  0  0  0
 12 20  1  0  0  0  0
 12 21  1  0  0  0  0
 14 22  1  0  0  0  0
 14 23  1  0  0  0  0
 14 24  1  0  0  0  0
 15 25  1  0  0  0  0
 15 26  1  0  0  0  0
 15 27  1  0  0  0  0
 16 31  1  0  0  0  0
 16 32  1  0  0  0  0
 16 33  1  0  0  0  0
M  END
> <PUBCHEM_COMPOUND_CID>
114989

> <PUBCHEM_COMPOUND_CANONICALIZED>
1

> <PUBCHEM_CACTVS_COMPLEXITY>
322

> <PUBCHEM_CACTVS_HBOND_ACCEPTOR>
6

> <PUBCHEM_CACTVS_HBOND_DONOR>
2

> <PUBCHEM_CACTVS_ROTATABLE_BOND>
5

> <PUBCHEM_CACTVS_SUBSKEYS>
AAADceBjuAIAAAAAAAAAAAAAAAAAAQAAAAAAAAAAAAAAAAAAAAAAHgAUCCAACCjBAAYDAANQARAgQAAAJIAAAAEAAAAhAAAIAACAQAAASAAUAAAAAAIAAAAAAAAAAAAAAAAAAAAAAAAAAAAAAAAAAAAAAA==

> <PUBCHEM_IUPAC_OPENEYE_NAME>
[(5S)-2-amino-5-[(dimethylamino)methyl]-4,5-dihydroimidazol-1-yl] methyl hydrogen phosphate

> <PUBCHEM_IUPAC_CAS_NAME>
[(5S)-2-amino-5-[(dimethylamino)methyl]-4,5-dihydroimidazol-1-yl] methyl hydrogen phosphate

> <PUBCHEM_IUPAC_NAME>
[(5S)-2-amino-5-[(dimethylamino)methyl]-4,5-dihydroimidazol-1-yl] methyl hydrogen phosphate

> <PUBCHEM_IUPAC_SYSTEMATIC_NAME>
[(5S)-2-azanyl-5-[(dimethylamino)methyl]-4,5-dihydroimidazol-1-yl] methyl hydrogen phosphate

> <PUBCHEM_IUPAC_TRADITIONAL_NAME>
[(5S)-2-amino-5-[(dimethylamino)methyl]-2-imidazolin-1-yl] methyl hydrogen phosphate

> <PUBCHEM_IUPAC_INCHI>
InChI=1S/C7H17N4O4P/c1-10(2)5-6-4-9-7(8)11(6)15-16(12,13)14-3/h6H,4-5H2,1-3H3,(H2,8,9)(H,12,13)/t6-/m1/s1

> <PUBCHEM_IUPAC_INCHIKEY>
FYXHGVMFJYHPFX-ZCFIWIBFSA-N

> <PUBCHEM_XLOGP3_AA>
-4.4

> <PUBCHEM_EXACT_MASS>
252.098742

> <PUBCHEM_MOLECULAR_FORMULA>
C7H17N4O4P

> <PUBCHEM_MOLECULAR_WEIGHT>
252.208042

> <PUBCHEM_OPENEYE_CAN_SMILES>
CN(C)CC1CN=C(N1OP(=O)(O)OC)N

> <PUBCHEM_OPENEYE_ISO_SMILES>
CN(C)C[C@H]1CN=C(N1OP(=O)(O)OC)N

> <PUBCHEM_CACTVS_TPSA>
101

> <PUBCHEM_MONOISOTOPIC_WEIGHT>
252.098742

> <PUBCHEM_TOTAL_CHARGE>
0

> <PUBCHEM_HEAVY_ATOM_COUNT>
16

> <PUBCHEM_ATOM_DEF_STEREO_COUNT>
1

> <PUBCHEM_ATOM_UDEF_STEREO_COUNT>
0

> <PUBCHEM_BOND_DEF_STEREO_COUNT>
0

> <PUBCHEM_BOND_UDEF_STEREO_COUNT>
0

> <PUBCHEM_ISOTOPIC_ATOM_COUNT>
0

> <PUBCHEM_COMPONENT_COUNT>
1

> <PUBCHEM_CACTVS_TAUTO_COUNT>
2

> <PUBCHEM_COORDINATE_TYPE>
1
5
255

> <PUBCHEM_BONDANNOTATIONS>
10  11  5

$$$$

