363
  -OEChem-07051212522D

  9  8  0     0  0  0  0  0  0999 V2000
    5.1350    0.5600    0.0000 O   0  0  0  0  0  0  0  0  0  0  0  0
    2.5369    0.0600    0.0000 N   0  0  0  0  0  0  0  0  0  0  0  0
    3.4030    0.5600    0.0000 C   0  0  0  0  0  0  0  0  0  0  0  0
    4.2690    0.0600    0.0000 C   0  0  0  0  0  0  0  0  0  0  0  0
    3.8015    1.0350    0.0000 H   0  0  0  0  0  0  0  0  0  0  0  0
    3.0044    1.0350    0.0000 H   0  0  0  0  0  0  0  0  0  0  0  0
    2.0000    0.3700    0.0000 H   0  0  0  0  0  0  0  0  0  0  0  0
    2.5369   -0.5600    0.0000 H   0  0  0  0  0  0  0  0  0  0  0  0
    4.2690   -0.5600    0.0000 H   0  0  0  0  0  0  0  0  0  0  0  0
  1  4  2  0  0  0  0
  2  3  1  0  0  0  0
  2  7  1  0  0  0  0
  2  8  1  0  0  0  0
  3  4  1  0  0  0  0
  3  5  1  0  0  0  0
  3  6  1  0  0  0  0
  4  9  1  0  0  0  0
M  END
> <PUBCHEM_COMPOUND_CID>
363

> <PUBCHEM_COMPOUND_CANONICALIZED>
1

> <PUBCHEM_CACTVS_COMPLEXITY>
20

> <PUBCHEM_CACTVS_HBOND_ACCEPTOR>
2

> <PUBCHEM_CACTVS_HBOND_DONOR>
1

> <PUBCHEM_CACTVS_ROTATABLE_BOND>
1

> <PUBCHEM_CACTVS_SUBSKEYS>
AAADcYBCIAAAAAAAAAAAAAAAAAAAAAAAAAAAAAAAAAAAAAAAAAAAHgAQAAAAAADhgAYAAABAAAAIAAgQgAAAAAAAAAAAAICAAAAAAAAAAAAAAAAAEAAAAAAAAAAAAAAAAAAAAAAAAAAAAAAAAAAAAAAAAA==

> <PUBCHEM_IUPAC_OPENEYE_NAME>
2-aminoacetaldehyde

> <PUBCHEM_IUPAC_CAS_NAME>
2-aminoacetaldehyde

> <PUBCHEM_IUPAC_NAME>
2-aminoacetaldehyde

> <PUBCHEM_IUPAC_SYSTEMATIC_NAME>
2-azanylethanal

> <PUBCHEM_IUPAC_TRADITIONAL_NAME>
2-aminoacetaldehyde

> <PUBCHEM_IUPAC_INCHI>
InChI=1S/C2H5NO/c3-1-2-4/h2H,1,3H2

> <PUBCHEM_IUPAC_INCHIKEY>
LYIIBVSRGJSHAV-UHFFFAOYSA-N

> <PUBCHEM_XLOGP3_AA>
-1.2

> <PUBCHEM_EXACT_MASS>
59.037114

> <PUBCHEM_MOLECULAR_FORMULA>
C2H5NO

> <PUBCHEM_MOLECULAR_WEIGHT>
59.0672

> <PUBCHEM_OPENEYE_CAN_SMILES>
C(C=O)N

> <PUBCHEM_OPENEYE_ISO_SMILES>
C(C=O)N

> <PUBCHEM_CACTVS_TPSA>
43.1

> <PUBCHEM_MONOISOTOPIC_WEIGHT>
59.037114

> <PUBCHEM_TOTAL_CHARGE>
0

> <PUBCHEM_HEAVY_ATOM_COUNT>
4

> <PUBCHEM_ATOM_DEF_STEREO_COUNT>
0

> <PUBCHEM_ATOM_UDEF_STEREO_COUNT>
0

> <PUBCHEM_BOND_DEF_STEREO_COUNT>
0

> <PUBCHEM_BOND_UDEF_STEREO_COUNT>
0

> <PUBCHEM_ISOTOPIC_ATOM_COUNT>
0

> <PUBCHEM_COMPONENT_COUNT>
1

> <PUBCHEM_CACTVS_TAUTO_COUNT>
3

> <PUBCHEM_COORDINATE_TYPE>
1
5
255

$$$$

