5281793
  -OEChem-07051212593D

 58 60  0     1  0  0  0  0  0999 V2000
    0.6001    2.5443    0.3246 O   0  0  0  0  0  0  0  0  0  0  0  0
    2.4374    5.1790   -1.1163 O   0  0  0  0  0  0  0  0  0  0  0  0
    6.1489   -0.3416   -0.8133 O   0  0  0  0  0  0  0  0  0  0  0  0
    4.8952   -2.4533    0.4893 O   0  0  0  0  0  0  0  0  0  0  0  0
    0.8809    5.2755    0.5332 O   0  0  0  0  0  0  0  0  0  0  0  0
   -5.1249   -2.3641    0.3491 O   0  0  0  0  0  0  0  0  0  0  0  0
   -7.3546   -0.8194    0.8330 O   0  0  0  0  0  0  0  0  0  0  0  0
   -0.4084    3.4626   -1.5401 O   0  0  0  0  0  0  0  0  0  0  0  0
    1.4463   -3.5301   -2.6002 O   0  0  0  0  0  0  0  0  0  0  0  0
    2.7070   -4.8200   -0.4863 O   0  0  0  0  0  0  0  0  0  0  0  0
    2.8902    2.7949    1.0223 C   0  0  0  0  0  0  0  0  0  0  0  0
    1.8531    3.1245   -0.0535 C   0  0  2  0  0  0  0  0  0  0  0  0
    3.4293    1.3918    0.8772 C   0  0  0  0  0  0  0  0  0  0  0  0
    4.5495    1.1727    0.0917 C   0  0  0  0  0  0  0  0  0  0  0  0
    2.7936    0.3496    1.5326 C   0  0  0  0  0  0  0  0  0  0  0  0
   -3.8776   -0.3916   -0.2131 C   0  0  0  0  0  0  0  0  0  0  0  0
   -3.8153    0.9866   -0.3724 C   0  0  0  0  0  0  0  0  0  0  0  0
    1.6487    4.6222   -0.1611 C   0  0  0  0  0  0  0  0  0  0  0  0
    5.0476   -0.1234   -0.0418 C   0  0  0  0  0  0  0  0  0  0  0  0
    3.2915   -0.9465    1.3988 C   0  0  0  0  0  0  0  0  0  0  0  0
    4.4185   -1.1830    0.6117 C   0  0  0  0  0  0  0  0  0  0  0  0
   -5.0545   -1.0099    0.1898 C   0  0  0  0  0  0  0  0  0  0  0  0
   -2.5988    1.6733   -0.7937 C   0  0  0  0  0  0  0  0  0  0  0  0
   -4.9494    1.7602   -0.1250 C   0  0  0  0  0  0  0  0  0  0  0  0
   -2.6898   -1.2249   -0.4699 C   0  0  0  0  0  0  0  0  0  0  0  0
   -0.4392    2.7998   -0.5153 C   0  0  0  0  0  0  0  0  0  0  0  0
   -6.1886   -0.2363    0.4372 C   0  0  0  0  0  0  0  0  0  0  0  0
   -1.6366    2.1258    0.0363 C   0  0  0  0  0  0  0  0  0  0  0  0
   -6.1359    1.1486    0.2797 C   0  0  0  0  0  0  0  0  0  0  0  0
   -1.7751   -1.5879    0.4603 C   0  0  0  0  0  0  0  0  0  0  0  0
   -0.6130   -2.4261    0.2113 C   0  0  0  0  0  0  0  0  0  0  0  0
   -0.1303   -2.5812   -1.0882 C   0  0  0  0  0  0  0  0  0  0  0  0
    0.0192   -3.0749    1.2721 C   0  0  0  0  0  0  0  0  0  0  0  0
    0.9845   -3.3848   -1.3270 C   0  0  0  0  0  0  0  0  0  0  0  0
    1.1340   -3.8786    1.0332 C   0  0  0  0  0  0  0  0  0  0  0  0
    1.6167   -4.0336   -0.2662 C   0  0  0  0  0  0  0  0  0  0  0  0
    2.4564    2.9144    2.0242 H   0  0  0  0  0  0  0  0  0  0  0  0
    3.7292    3.5017    0.9743 H   0  0  0  0  0  0  0  0  0  0  0  0
    2.1424    2.7240   -1.0335 H   0  0  0  0  0  0  0  0  0  0  0  0
    5.0351    2.0009   -0.4178 H   0  0  0  0  0  0  0  0  0  0  0  0
    1.9177    0.5234    2.1511 H   0  0  0  0  0  0  0  0  0  0  0  0
    2.8113   -1.7610    1.9302 H   0  0  0  0  0  0  0  0  0  0  0  0
   -2.5093    1.8199   -1.8678 H   0  0  0  0  0  0  0  0  0  0  0  0
   -4.9275    2.8412   -0.2431 H   0  0  0  0  0  0  0  0  0  0  0  0
   -2.6224   -1.5603   -1.5012 H   0  0  0  0  0  0  0  0  0  0  0  0
   -1.6908    1.9693    1.1087 H   0  0  0  0  0  0  0  0  0  0  0  0
   -7.0120    1.7633    0.4688 H   0  0  0  0  0  0  0  0  0  0  0  0
   -1.9095   -1.2471    1.4851 H   0  0  0  0  0  0  0  0  0  0  0  0
   -0.5808   -2.0763   -1.9382 H   0  0  0  0  0  0  0  0  0  0  0  0
   -0.3426   -2.9659    2.2916 H   0  0  0  0  0  0  0  0  0  0  0  0
    2.3084    6.1495   -1.1767 H   0  0  0  0  0  0  0  0  0  0  0  0
    6.4479    0.5055   -1.1860 H   0  0  0  0  0  0  0  0  0  0  0  0
    1.6175   -4.3777    1.8688 H   0  0  0  0  0  0  0  0  0  0  0  0
    5.6753   -2.4325   -0.0918 H   0  0  0  0  0  0  0  0  0  0  0  0
   -6.0263   -2.5952    0.6333 H   0  0  0  0  0  0  0  0  0  0  0  0
   -8.0285   -0.1290    0.9563 H   0  0  0  0  0  0  0  0  0  0  0  0
    2.2218   -4.1173   -2.5793 H   0  0  0  0  0  0  0  0  0  0  0  0
    3.0138   -5.1809    0.3632 H   0  0  0  0  0  0  0  0  0  0  0  0
  1 12  1  0  0  0  0
  1 26  1  0  0  0  0
  2 18  1  0  0  0  0
  2 51  1  0  0  0  0
  3 19  1  0  0  0  0
  3 52  1  0  0  0  0
  4 21  1  0  0  0  0
  4 54  1  0  0  0  0
  5 18  2  0  0  0  0
  6 22  1  0  0  0  0
  6 55  1  0  0  0  0
  7 27  1  0  0  0  0
  7 56  1  0  0  0  0
  8 26  2  0  0  0  0
  9 34  1  0  0  0  0
  9 57  1  0  0  0  0
 10 36  1  0  0  0  0
 10 58  1  0  0  0  0
 11 12  1  0  0  0  0
 11 13  1  0  0  0  0
 11 37  1  0  0  0  0
 11 38  1  0  0  0  0
 12 18  1  0  0  0  0
 12 39  1  0  0  0  0
 13 14  2  0  0  0  0
 13 15  1  0  0  0  0
 14 19  1  0  0  0  0
 14 40  1  0  0  0  0
 15 20  2  0  0  0  0
 15 41  1  0  0  0  0
 16 17  2  0  0  0  0
 16 22  1  0  0  0  0
 16 25  1  0  0  0  0
 17 23  1  0  0  0  0
 17 24  1  0  0  0  0
 19 21  2  0  0  0  0
 20 21  1  0  0  0  0
 20 42  1  0  0  0  0
 22 27  2  0  0  0  0
 23 28  2  0  0  0  0
 23 43  1  0  0  0  0
 24 29  2  0  0  0  0
 24 44  1  0  0  0  0
 25 30  2  0  0  0  0
 25 45  1  0  0  0  0
 26 28  1  0  0  0  0
 27 29  1  0  0  0  0
 28 46  1  0  0  0  0
 29 47  1  0  0  0  0
 30 31  1  0  0  0  0
 30 48  1  0  0  0  0
 31 32  2  0  0  0  0
 31 33  1  0  0  0  0
 32 34  1  0  0  0  0
 32 49  1  0  0  0  0
 33 35  2  0  0  0  0
 33 50  1  0  0  0  0
 34 36  2  0  0  0  0
 35 36  1  0  0  0  0
 35 53  1  0  0  0  0
M  END
> <PUBCHEM_COMPOUND_CID>
5281793

> <PUBCHEM_CONFORMER_RMSD>
1

> <PUBCHEM_CONFORMER_DIVERSEORDER>
1
378
197
118
223
10
96
259
39
114
68
255
59
256
270
76
201
280
308
127
417
209
262
79
263
73
146
291
101
363
249
353
176
200
106
116
137
183
357
182
173
188
329
48
401
77
303
19
254
343
130
328
239
306
129
301
309
369
281
150
70
15
115
122
185
29
192
53
174
135
314
27
163
213
248
264
151
72
293
88
389
140
109
24
316
284
75
121
56
83
334
44
81
40
312
344
297
8
97
221
300
234
171
164
167
408
196
318
36
208
261
94
218
45
187
9
100
82
108
405
319
232
95
354
207
41
119
294
139
278
191
147
64
89
169
273
275
206
107
23
123
180
4
126
86
128
339
87
154
258
238
84
203
92
98
148
69
279
7
307
186
46
391
3
52
387
12
406
243
198
246
25
132
257
331
166
124
85
311
321
16
220
222
61
26
105
156
134
352
204
149
214
347
162
313
161
202
250
215
142
5
407
226
228
304
133
58
80
342
57
18
341
193
37
349
30
35
231
402
60
322
413
177
325
236
195
415
371
104
412
382
99
323
78
50
395
31
153
181
418
6
125
11
374
136
290
74
17
370
410
117
350
230
49
351
28
33
38
337
152
66
138
131
2
90
144
288
217
179
326
13
298
224
421
210
47
269
356
237
330
251
160
93
155
400
414
168
157
120
110
14
141
22
355
376
245
219
367
340
112
276
403
229
91
380
266
358
111
62
373
34
103
315
271
145
361
65
240
175
252
190
143
324
302
366
55
411
332
379
51
67
113
178
335
283
32
420
267
386
268
43
299
54
211
20
272
398
21
416
409
305
359
159
360
247
385
310
212
205
390
362
419
265
346
295
241
42
165
289
199
383
71
253
377
244
172
260
216
397
384
399
282
372
225
393
375
189
396
392
274
242
170
102
235
158
320
404
381
348
286
277
233
364
388
227
327
368
194
285
365
184
336
338
63
394
317
345
287
333
296
292

> <PUBCHEM_MMFF94_PARTIAL_CHARGES>
55
1 -0.43
10 -0.53
11 0.14
12 0.34
13 -0.14
14 -0.15
15 -0.15
16 0.03
17 0.03
18 0.66
19 0.08
2 -0.65
20 -0.15
21 0.08
22 0.08
23 -0.18
24 -0.15
25 -0.18
26 0.71
27 0.08
28 -0.14
29 -0.15
3 -0.53
30 -0.18
31 0.03
32 -0.15
33 -0.15
34 0.08
35 -0.15
36 0.08
4 -0.53
40 0.15
41 0.15
42 0.15
43 0.15
44 0.15
45 0.15
46 0.15
47 0.15
48 0.15
49 0.15
5 -0.57
50 0.15
51 0.5
52 0.45
53 0.15
54 0.45
55 0.45
56 0.45
57 0.45
58 0.45
6 -0.53
7 -0.53
8 -0.57
9 -0.53

> <PUBCHEM_EFFECTIVE_ROTOR_COUNT>
9

> <PUBCHEM_PHARMACOPHORE_FEATURES>
13
1 10 donor
1 2 acceptor
1 3 donor
1 4 donor
1 5 acceptor
1 6 donor
1 7 donor
1 8 acceptor
1 9 donor
3 2 5 18 anion
6 13 14 15 19 20 21 rings
6 16 17 22 24 27 29 rings
6 31 32 33 34 35 36 rings

> <PUBCHEM_HEAVY_ATOM_COUNT>
36

> <PUBCHEM_ATOM_DEF_STEREO_COUNT>
1

> <PUBCHEM_ATOM_UDEF_STEREO_COUNT>
0

> <PUBCHEM_BOND_DEF_STEREO_COUNT>
2

> <PUBCHEM_BOND_UDEF_STEREO_COUNT>
0

> <PUBCHEM_ISOTOPIC_ATOM_COUNT>
0

> <PUBCHEM_COMPONENT_COUNT>
1

> <PUBCHEM_CACTVS_TAUTO_COUNT>
994

> <PUBCHEM_CONFORMER_ID>
0050980100000001

> <PUBCHEM_MMFF94_ENERGY>
101.7798

> <PUBCHEM_FEATURE_SELFOVERLAP>
66.04

> <PUBCHEM_SHAPE_FINGERPRINT>
11513181 2 17974284322676331878
11578080 2 16986613081206592831
12107183 9 18337383950827233481
12925494 130 18266468783824891145
13383661 66 17751627978819467902
13402501 40 18411982489621959274
1361 2 18339646646228117153
14725015 67 18266187321569337890
15001296 14 18127421042613488577
15081414 286 18337952406637492563
15264996 163 15889977289779175870
15274700 259 17271466887631505173
15320467 1 18411421717222264425
15400415 2 17979075981693039801
15927050 60 17905606597307106628
15961568 22 18339079414182089758
16112460 7 18335130952020879240
19611394 137 18130210589507832083
20028762 73 18262523585320885991
20764821 26 18337968826344847276
3298306 158 18339089271311063925
394071 54 18334570283433043931
4066623 53 18045483456427409038
5265222 85 18267859493338680132
5309563 4 18339084907371414712
5776283 40 18197766714559491844

> <PUBCHEM_SHAPE_MULTIPOLES>
682.17
12.81
7.28
1.29
14.11
2.9
0.34
-0.96
-2.36
-6.56
1.66
-0.76
-0.67
0.75

> <PUBCHEM_SHAPE_SELFOVERLAP>
1482.864

> <PUBCHEM_SHAPE_VOLUME>
369.4

> <PUBCHEM_COORDINATE_TYPE>
2
5
10

$$$$

