53297410
  -OEChem-07051213122D

111114  0     1  0  0  0  0  0999 V2000
   12.3928   -0.6550    0.0000 O   0  0  0  0  0  0  0  0  0  0  0  0
   14.1244    0.3450    0.0000 O   0  0  0  0  0  0  0  0  0  0  0  0
   11.5263    1.8450    0.0000 O   0  0  0  0  0  0  0  0  0  0  0  0
    6.3301    1.8450    0.0000 O   0  0  0  0  0  0  0  0  0  0  0  0
   15.8564    0.3450    0.0000 O   0  0  0  0  0  0  0  0  0  0  0  0
    5.4641    0.3450    0.0000 O   0  0  0  0  0  0  0  0  0  0  0  0
   14.1244   -1.6550    0.0000 O   0  0  0  0  0  0  0  0  0  0  0  0
   15.8564   -2.6550    0.0000 O   0  0  0  0  0  0  0  0  0  0  0  0
    4.5981    2.8450    0.0000 O   0  0  0  0  0  0  0  0  0  0  0  0
   17.5885   -1.6550    0.0000 O   0  0  0  0  0  0  0  0  0  0  0  0
    8.9282   -2.6550    0.0000 O   0  0  0  0  0  0  0  0  0  0  0  0
   10.6603    0.3450    0.0000 O   0  0  0  0  0  0  0  0  0  0  0  0
    2.8660    1.8450    0.0000 N   0  0  0  0  0  0  0  0  0  0  0  0
   11.5263   -0.1550    0.0000 C   0  0  2  0  0  0  0  0  0  0  0  0
   12.3923    0.3450    0.0000 C   0  0  1  0  0  0  0  0  0  0  0  0
   11.5263   -1.1550    0.0000 C   0  0  1  0  0  0  0  0  0  0  0  0
   12.3923    1.3450    0.0000 C   0  0  1  0  0  0  0  0  0  0  0  0
   13.2583   -0.1550    0.0000 C   0  0  0  0  0  0  0  0  0  0  0  0
   10.6603   -1.6550    0.0000 C   0  0  0  0  0  0  0  0  0  0  0  0
   13.2583    1.8450    0.0000 C   0  0  0  0  0  0  0  0  0  0  0  0
    7.1962    1.3450    0.0000 C   0  0  1  0  0  0  0  0  0  0  0  0
    7.1962    0.3450    0.0000 C   0  0  2  0  0  0  0  0  0  0  0  0
   14.9904   -0.1550    0.0000 C   0  0  2  0  0  0  0  0  0  0  0  0
    3.7320    1.3450    0.0000 C   0  0  2  0  0  0  0  0  0  0  0  0
   14.9904   -1.1550    0.0000 C   0  0  1  0  0  0  0  0  0  0  0  0
    4.5981    1.8450    0.0000 C   0  0  2  0  0  0  0  0  0  0  0  0
    5.4641    1.3450    0.0000 C   0  0  2  0  0  0  0  0  0  0  0  0
   15.8564   -1.6550    0.0000 C   0  0  1  0  0  0  0  0  0  0  0  0
    8.0622   -0.1550    0.0000 C   0  0  0  0  0  0  0  0  0  0  0  0
    3.7320    0.3450    0.0000 C   0  0  0  0  0  0  0  0  0  0  0  0
    8.0622    1.8450    0.0000 C   0  0  2  0  0  0  0  0  0  0  0  0
   16.7224   -1.1550    0.0000 C   0  0  1  0  0  0  0  0  0  0  0  0
    8.0622   -1.1550    0.0000 C   0  0  2  0  0  0  0  0  0  0  0  0
    4.5981   -0.1550    0.0000 C   0  0  1  0  0  0  0  0  0  0  0  0
   16.7224   -0.1550    0.0000 C   0  0  1  0  0  0  0  0  0  0  0  0
    9.7942   -1.1550    0.0000 C   0  0  0  0  0  0  0  0  0  0  0  0
   13.2583    2.8450    0.0000 C   0  0  0  0  0  0  0  0  0  0  0  0
    8.9282   -1.6550    0.0000 C   0  0  0  0  0  0  0  0  0  0  0  0
    6.3301   -0.1550    0.0000 C   0  0  0  0  0  0  0  0  0  0  0  0
    8.9282    1.3450    0.0000 C   0  0  0  0  0  0  0  0  0  0  0  0
   10.6603    1.3450    0.0000 C   0  0  0  0  0  0  0  0  0  0  0  0
    8.0622    2.8450    0.0000 C   0  0  0  0  0  0  0  0  0  0  0  0
    7.1962   -1.6550    0.0000 C   0  0  0  0  0  0  0  0  0  0  0  0
    4.5981   -1.1550    0.0000 C   0  0  0  0  0  0  0  0  0  0  0  0
   17.5885    0.3450    0.0000 C   0  0  0  0  0  0  0  0  0  0  0  0
    9.7942    1.8450    0.0000 C   0  0  0  0  0  0  0  0  0  0  0  0
    2.0000    1.3450    0.0000 C   0  0  0  0  0  0  0  0  0  0  0  0
    2.8660    2.8450    0.0000 C   0  0  0  0  0  0  0  0  0  0  0  0
   14.1244   -2.6550    0.0000 C   0  0  0  0  0  0  0  0  0  0  0  0
   16.7224   -3.1550    0.0000 C   0  0  0  0  0  0  0  0  0  0  0  0
   10.9893    0.1550    0.0000 H   0  0  0  0  0  0  0  0  0  0  0  0
   12.3923   -0.2750    0.0000 H   0  0  0  0  0  0  0  0  0  0  0  0
   11.8362   -1.6920    0.0000 H   0  0  0  0  0  0  0  0  0  0  0  0
   12.3923    1.9650    0.0000 H   0  0  0  0  0  0  0  0  0  0  0  0
   12.8598   -0.6299    0.0000 H   0  0  0  0  0  0  0  0  0  0  0  0
   13.6569   -0.6299    0.0000 H   0  0  0  0  0  0  0  0  0  0  0  0
   10.6603   -2.2750    0.0000 H   0  0  0  0  0  0  0  0  0  0  0  0
   13.4704    1.2624    0.0000 H   0  0  0  0  0  0  0  0  0  0  0  0
   13.8689    1.9527    0.0000 H   0  0  0  0  0  0  0  0  0  0  0  0
    6.6592    1.0350    0.0000 H   0  0  0  0  0  0  0  0  0  0  0  0
    6.6592    0.6550    0.0000 H   0  0  0  0  0  0  0  0  0  0  0  0
   14.9904    0.4650    0.0000 H   0  0  0  0  0  0  0  0  0  0  0  0
    3.7320    1.9650    0.0000 H   0  0  0  0  0  0  0  0  0  0  0  0
   14.9904   -1.7750    0.0000 H   0  0  0  0  0  0  0  0  0  0  0  0
    5.1350    2.1550    0.0000 H   0  0  0  0  0  0  0  0  0  0  0  0
    5.4641    1.9650    0.0000 H   0  0  0  0  0  0  0  0  0  0  0  0
   16.3933   -1.9650    0.0000 H   0  0  0  0  0  0  0  0  0  0  0  0
    8.6728   -0.2627    0.0000 H   0  0  0  0  0  0  0  0  0  0  0  0
    8.2742    0.4276    0.0000 H   0  0  0  0  0  0  0  0  0  0  0  0
    3.1215    0.4527    0.0000 H   0  0  0  0  0  0  0  0  0  0  0  0
    3.5200   -0.2376    0.0000 H   0  0  0  0  0  0  0  0  0  0  0  0
    7.5252    2.1550    0.0000 H   0  0  0  0  0  0  0  0  0  0  0  0
   16.7224   -1.7750    0.0000 H   0  0  0  0  0  0  0  0  0  0  0  0
    8.0622   -1.7750    0.0000 H   0  0  0  0  0  0  0  0  0  0  0  0
    5.1350   -0.4650    0.0000 H   0  0  0  0  0  0  0  0  0  0  0  0
   16.7224    0.4650    0.0000 H   0  0  0  0  0  0  0  0  0  0  0  0
    9.7942   -0.5350    0.0000 H   0  0  0  0  0  0  0  0  0  0  0  0
   13.8783    2.8450    0.0000 H   0  0  0  0  0  0  0  0  0  0  0  0
   13.2583    3.4650    0.0000 H   0  0  0  0  0  0  0  0  0  0  0  0
   12.6383    2.8450    0.0000 H   0  0  0  0  0  0  0  0  0  0  0  0
    6.0201    0.3819    0.0000 H   0  0  0  0  0  0  0  0  0  0  0  0
    5.7932   -0.4650    0.0000 H   0  0  0  0  0  0  0  0  0  0  0  0
    6.6401   -0.6919    0.0000 H   0  0  0  0  0  0  0  0  0  0  0  0
    8.9282    0.7250    0.0000 H   0  0  0  0  0  0  0  0  0  0  0  0
    8.6822    2.8450    0.0000 H   0  0  0  0  0  0  0  0  0  0  0  0
    8.0622    3.4650    0.0000 H   0  0  0  0  0  0  0  0  0  0  0  0
    7.4422    2.8450    0.0000 H   0  0  0  0  0  0  0  0  0  0  0  0
    6.8862   -1.1181    0.0000 H   0  0  0  0  0  0  0  0  0  0  0  0
    6.6592   -1.9650    0.0000 H   0  0  0  0  0  0  0  0  0  0  0  0
    7.5062   -2.1919    0.0000 H   0  0  0  0  0  0  0  0  0  0  0  0
    3.9781   -1.1550    0.0000 H   0  0  0  0  0  0  0  0  0  0  0  0
    4.5981   -1.7750    0.0000 H   0  0  0  0  0  0  0  0  0  0  0  0
    5.2181   -1.1550    0.0000 H   0  0  0  0  0  0  0  0  0  0  0  0
   17.8985   -0.1919    0.0000 H   0  0  0  0  0  0  0  0  0  0  0  0
   18.1254    0.6550    0.0000 H   0  0  0  0  0  0  0  0  0  0  0  0
   17.2785    0.8819    0.0000 H   0  0  0  0  0  0  0  0  0  0  0  0
    9.7942    2.4650    0.0000 H   0  0  0  0  0  0  0  0  0  0  0  0
    5.1350    3.1550    0.0000 H   0  0  0  0  0  0  0  0  0  0  0  0
    3.4860    2.8450    0.0000 H   0  0  0  0  0  0  0  0  0  0  0  0
    2.8660    3.4650    0.0000 H   0  0  0  0  0  0  0  0  0  0  0  0
    2.2460    2.8450    0.0000 H   0  0  0  0  0  0  0  0  0  0  0  0
    1.6900    1.8819    0.0000 H   0  0  0  0  0  0  0  0  0  0  0  0
    1.4631    1.0350    0.0000 H   0  0  0  0  0  0  0  0  0  0  0  0
    2.3100    0.8081    0.0000 H   0  0  0  0  0  0  0  0  0  0  0  0
   18.1254   -1.3450    0.0000 H   0  0  0  0  0  0  0  0  0  0  0  0
   13.5044   -2.6550    0.0000 H   0  0  0  0  0  0  0  0  0  0  0  0
   14.1244   -3.2750    0.0000 H   0  0  0  0  0  0  0  0  0  0  0  0
   14.7444   -2.6550    0.0000 H   0  0  0  0  0  0  0  0  0  0  0  0
   16.4124   -3.6919    0.0000 H   0  0  0  0  0  0  0  0  0  0  0  0
   17.2594   -3.4650    0.0000 H   0  0  0  0  0  0  0  0  0  0  0  0
   17.0324   -2.6181    0.0000 H   0  0  0  0  0  0  0  0  0  0  0  0
 14  1  1  6  0  0  0
 16  1  1  6  0  0  0
  2 18  1  0  0  0  0
 23  2  1  6  0  0  0
  3 17  1  0  0  0  0
  3 41  1  0  0  0  0
 21  4  1  6  0  0  0
 27  4  1  6  0  0  0
  5 23  1  0  0  0  0
  5 35  1  0  0  0  0
  6 27  1  0  0  0  0
  6 34  1  0  0  0  0
 25  7  1  1  0  0  0
  7 49  1  0  0  0  0
 28  8  1  1  0  0  0
  8 50  1  0  0  0  0
 26  9  1  1  0  0  0
  9 98  1  0  0  0  0
 32 10  1  1  0  0  0
 10105  1  0  0  0  0
 11 38  2  0  0  0  0
 12 41  2  0  0  0  0
 24 13  1  6  0  0  0
 13 47  1  0  0  0  0
 13 48  1  0  0  0  0
 14 15  1  0  0  0  0
 14 16  1  0  0  0  0
 14 51  1  0  0  0  0
 15 17  1  0  0  0  0
 15 18  1  1  0  0  0
 15 52  1  0  0  0  0
 16 19  1  0  0  0  0
 16 53  1  0  0  0  0
 17 20  1  6  0  0  0
 17 54  1  0  0  0  0
 18 55  1  0  0  0  0
 18 56  1  0  0  0  0
 19 36  2  0  0  0  0
 19 57  1  0  0  0  0
 20 37  1  0  0  0  0
 20 58  1  0  0  0  0
 20 59  1  0  0  0  0
 21 22  1  0  0  0  0
 21 31  1  0  0  0  0
 21 60  1  0  0  0  0
 22 29  1  0  0  0  0
 22 39  1  6  0  0  0
 22 61  1  0  0  0  0
 23 25  1  0  0  0  0
 23 62  1  0  0  0  0
 24 26  1  0  0  0  0
 24 30  1  0  0  0  0
 24 63  1  0  0  0  0
 25 28  1  0  0  0  0
 25 64  1  0  0  0  0
 26 27  1  0  0  0  0
 26 65  1  0  0  0  0
 27 66  1  0  0  0  0
 28 32  1  0  0  0  0
 28 67  1  0  0  0  0
 29 33  1  0  0  0  0
 29 68  1  0  0  0  0
 29 69  1  0  0  0  0
 30 34  1  0  0  0  0
 30 70  1  0  0  0  0
 30 71  1  0  0  0  0
 31 40  1  0  0  0  0
 31 42  1  1  0  0  0
 31 72  1  0  0  0  0
 32 35  1  0  0  0  0
 32 73  1  0  0  0  0
 33 38  1  0  0  0  0
 33 43  1  6  0  0  0
 33 74  1  0  0  0  0
 34 44  1  6  0  0  0
 34 75  1  0  0  0  0
 35 45  1  6  0  0  0
 35 76  1  0  0  0  0
 36 38  1  0  0  0  0
 36 77  1  0  0  0  0
 37 78  1  0  0  0  0
 37 79  1  0  0  0  0
 37 80  1  0  0  0  0
 39 81  1  0  0  0  0
 39 82  1  0  0  0  0
 39 83  1  0  0  0  0
 40 46  2  0  0  0  0
 40 84  1  0  0  0  0
 41 46  1  0  0  0  0
 42 85  1  0  0  0  0
 42 86  1  0  0  0  0
 42 87  1  0  0  0  0
 43 88  1  0  0  0  0
 43 89  1  0  0  0  0
 43 90  1  0  0  0  0
 44 91  1  0  0  0  0
 44 92  1  0  0  0  0
 44 93  1  0  0  0  0
 45 94  1  0  0  0  0
 45 95  1  0  0  0  0
 45 96  1  0  0  0  0
 46 97  1  0  0  0  0
 47102  1  0  0  0  0
 47103  1  0  0  0  0
 47104  1  0  0  0  0
 48 99  1  0  0  0  0
 48100  1  0  0  0  0
 48101  1  0  0  0  0
 49106  1  0  0  0  0
 49107  1  0  0  0  0
 49108  1  0  0  0  0
 50109  1  0  0  0  0
 50110  1  0  0  0  0
 50111  1  0  0  0  0
M  END
> <PUBCHEM_COMPOUND_CID>
53297410

> <PUBCHEM_COMPOUND_CANONICALIZED>
1

> <PUBCHEM_CACTVS_COMPLEXITY>
1170

> <PUBCHEM_CACTVS_HBOND_ACCEPTOR>
13

> <PUBCHEM_CACTVS_HBOND_DONOR>
2

> <PUBCHEM_CACTVS_ROTATABLE_BOND>
9

> <PUBCHEM_CACTVS_SUBSKEYS>
AAADcfB+PAAAAAAAAAAAAAAAEgAAAAAAAAAkSAAAAAAAAAAAAAAAHgAACAAADTzxgAcCCAMABgCIAKDSCAAAAAAgAAAICAEIAEgTFBIAoQAmUAAHwAAfIYPI7MzOAAAAAAAAAAAAAAAAAAAAAAAAAAAAAA==

> <PUBCHEM_IUPAC_OPENEYE_NAME>
(1R,2E,5R,7S,8S,9S,10E,14R,15R,16R)-8-[(2S,3R,4S,6R)-4-(dimethylamino)-3-hydroxy-6-methyl-tetrahydropyran-2-yl]oxy-14-ethyl-15-[[(2R,3R,4R,5R,6R)-5-hydroxy-3,4-dimethoxy-6-methyl-tetrahydropyran-2-yl]oxymethyl]-5,7,9-trimethyl-13,17-dioxabicyclo[14.1.0]heptadeca-2,10-diene-4,12-dione

> <PUBCHEM_IUPAC_CAS_NAME>
(1R,2E,5R,7S,8S,9S,10E,14R,15R,16R)-8-[[(2S,3R,4S,6R)-4-(dimethylamino)-3-hydroxy-6-methyl-2-oxanyl]oxy]-14-ethyl-15-[[(2R,3R,4R,5R,6R)-5-hydroxy-3,4-dimethoxy-6-methyl-2-oxanyl]oxymethyl]-5,7,9-trimethyl-13,17-dioxabicyclo[14.1.0]heptadeca-2,10-diene-4,12-dione

> <PUBCHEM_IUPAC_NAME>
(1R,2E,5R,7S,8S,9S,10E,14R,15R,16R)-8-[(2S,3R,4S,6R)-4-(dimethylamino)-3-hydroxy-6-methyloxan-2-yl]oxy-14-ethyl-15-[[(2R,3R,4R,5R,6R)-5-hydroxy-3,4-dimethoxy-6-methyloxan-2-yl]oxymethyl]-5,7,9-trimethyl-13,17-dioxabicyclo[14.1.0]heptadeca-2,10-diene-4,12-dione

> <PUBCHEM_IUPAC_SYSTEMATIC_NAME>
(1R,2E,5R,7S,8S,9S,10E,14R,15R,16R)-15-[[(2R,3R,4R,5R,6R)-3,4-dimethoxy-6-methyl-5-oxidanyl-oxan-2-yl]oxymethyl]-8-[(2S,3R,4S,6R)-4-(dimethylamino)-6-methyl-3-oxidanyl-oxan-2-yl]oxy-14-ethyl-5,7,9-trimethyl-13,17-dioxabicyclo[14.1.0]heptadeca-2,10-diene-4,12-dione

> <PUBCHEM_IUPAC_TRADITIONAL_NAME>
(1R,2E,5R,7S,8S,9S,10E,14R,15R,16R)-8-[(2S,3R,4S,6R)-4-(dimethylamino)-3-hydroxy-6-methyl-tetrahydropyran-2-yl]oxy-14-ethyl-15-[[(2R,3R,4R,5R,6R)-5-hydroxy-3,4-dimethoxy-6-methyl-tetrahydropyran-2-yl]oxymethyl]-5,7,9-trimethyl-13,17-dioxabicyclo[14.1.0]heptadeca-2,10-diene-4,12-quinone

> <PUBCHEM_IUPAC_INCHI>
InChI=1S/C37H61NO12/c1-11-27-24(18-45-37-35(44-10)34(43-9)30(41)23(6)47-37)33-28(49-33)14-13-26(39)20(3)16-21(4)32(19(2)12-15-29(40)48-27)50-36-31(42)25(38(7)8)17-22(5)46-36/h12-15,19-25,27-28,30-37,41-42H,11,16-18H2,1-10H3/b14-13+,15-12+/t19-,20+,21-,22+,23+,24+,25-,27+,28+,30+,31+,32+,33+,34+,35+,36-,37+/m0/s1

> <PUBCHEM_IUPAC_INCHIKEY>
QABCJBNUVVMWAL-QBPANRIESA-N

> <PUBCHEM_XLOGP3_AA>
3

> <PUBCHEM_EXACT_MASS>
711.419376

> <PUBCHEM_MOLECULAR_FORMULA>
C37H61NO12

> <PUBCHEM_MOLECULAR_WEIGHT>
711.87974

> <PUBCHEM_OPENEYE_CAN_SMILES>
CCC1C(C2C(O2)C=CC(=O)C(CC(C(C(C=CC(=O)O1)C)OC3C(C(CC(O3)C)N(C)C)O)C)C)COC4C(C(C(C(O4)C)O)OC)OC

> <PUBCHEM_OPENEYE_ISO_SMILES>
CC[C@@H]1[C@H]([C@@H]2[C@H](O2)/C=C/C(=O)[C@@H](C[C@@H]([C@@H]([C@H](/C=C/C(=O)O1)C)O[C@H]3[C@@H]([C@H](C[C@H](O3)C)N(C)C)O)C)C)CO[C@H]4[C@@H]([C@@H]([C@@H]([C@H](O4)C)O)OC)OC

> <PUBCHEM_CACTVS_TPSA>
155

> <PUBCHEM_MONOISOTOPIC_WEIGHT>
711.419376

> <PUBCHEM_TOTAL_CHARGE>
0

> <PUBCHEM_HEAVY_ATOM_COUNT>
50

> <PUBCHEM_ATOM_DEF_STEREO_COUNT>
17

> <PUBCHEM_ATOM_UDEF_STEREO_COUNT>
0

> <PUBCHEM_BOND_DEF_STEREO_COUNT>
2

> <PUBCHEM_BOND_UDEF_STEREO_COUNT>
0

> <PUBCHEM_ISOTOPIC_ATOM_COUNT>
0

> <PUBCHEM_COMPONENT_COUNT>
1

> <PUBCHEM_CACTVS_TAUTO_COUNT>
2

> <PUBCHEM_COORDINATE_TYPE>
1
5
255

> <PUBCHEM_BONDANNOTATIONS>
14  1  6
16  1  6
32  10  5
24  13  6
15  18  5
17  20  6
23  2  6
22  39  6
31  42  5
33  43  6
34  44  6
35  45  6
21  4  6
27  4  6
25  7  5
28  8  5
26  9  5

$$$$

