32518
  -OEChem-07051213012D

 60 60  0     1  0  0  0  0  0999 V2000
    7.1962    6.0000    0.0000 O   0  0  0  0  0  0  0  0  0  0  0  0
    7.1962    4.0000    0.0000 N   0  0  0  0  0  0  0  0  0  0  0  0
    6.3301    4.5000    0.0000 C   0  0  0  0  0  0  0  0  0  0  0  0
    8.0622    4.5000    0.0000 C   0  0  0  0  0  0  0  0  0  0  0  0
    7.1962    3.0000    0.0000 C   0  0  0  0  0  0  0  0  0  0  0  0
    8.0622    5.5000    0.0000 C   0  0  3  0  0  0  0  0  0  0  0  0
    6.3301    5.5000    0.0000 C   0  0  3  0  0  0  0  0  0  0  0  0
    6.3301    2.5000    0.0000 C   0  0  0  0  0  0  0  0  0  0  0  0
    6.3301    1.5000    0.0000 C   0  0  0  0  0  0  0  0  0  0  0  0
    5.4641    1.0000    0.0000 C   0  0  0  0  0  0  0  0  0  0  0  0
    5.4641    0.0000    0.0000 C   0  0  0  0  0  0  0  0  0  0  0  0
    4.5981   -0.5000    0.0000 C   0  0  0  0  0  0  0  0  0  0  0  0
    4.5981   -1.5000    0.0000 C   0  0  0  0  0  0  0  0  0  0  0  0
    5.4641    6.0000    0.0000 C   0  0  0  0  0  0  0  0  0  0  0  0
    8.9282    6.0000    0.0000 C   0  0  0  0  0  0  0  0  0  0  0  0
    3.7320   -2.0000    0.0000 C   0  0  0  0  0  0  0  0  0  0  0  0
    3.7320   -3.0000    0.0000 C   0  0  0  0  0  0  0  0  0  0  0  0
    2.8660   -3.5000    0.0000 C   0  0  0  0  0  0  0  0  0  0  0  0
    2.8660   -4.5000    0.0000 C   0  0  0  0  0  0  0  0  0  0  0  0
    2.0000   -5.0000    0.0000 C   0  0  0  0  0  0  0  0  0  0  0  0
    2.0000   -6.0000    0.0000 C   0  0  0  0  0  0  0  0  0  0  0  0
    8.2742    3.9174    0.0000 H   0  0  0  0  0  0  0  0  0  0  0  0
    8.6728    4.6077    0.0000 H   0  0  0  0  0  0  0  0  0  0  0  0
    5.7196    4.6077    0.0000 H   0  0  0  0  0  0  0  0  0  0  0  0
    6.1181    3.9174    0.0000 H   0  0  0  0  0  0  0  0  0  0  0  0
    7.4082    2.4174    0.0000 H   0  0  0  0  0  0  0  0  0  0  0  0
    7.8067    3.1077    0.0000 H   0  0  0  0  0  0  0  0  0  0  0  0
    8.0622    6.1200    0.0000 H   0  0  0  0  0  0  0  0  0  0  0  0
    6.3301    6.1200    0.0000 H   0  0  0  0  0  0  0  0  0  0  0  0
    6.1181    3.0826    0.0000 H   0  0  0  0  0  0  0  0  0  0  0  0
    5.7196    2.3923    0.0000 H   0  0  0  0  0  0  0  0  0  0  0  0
    6.5422    0.9174    0.0000 H   0  0  0  0  0  0  0  0  0  0  0  0
    6.9407    1.6077    0.0000 H   0  0  0  0  0  0  0  0  0  0  0  0
    5.2520    1.5826    0.0000 H   0  0  0  0  0  0  0  0  0  0  0  0
    4.8535    0.8923    0.0000 H   0  0  0  0  0  0  0  0  0  0  0  0
    5.6762   -0.5826    0.0000 H   0  0  0  0  0  0  0  0  0  0  0  0
    6.0747    0.1077    0.0000 H   0  0  0  0  0  0  0  0  0  0  0  0
    4.3860    0.0826    0.0000 H   0  0  0  0  0  0  0  0  0  0  0  0
    3.9875   -0.6077    0.0000 H   0  0  0  0  0  0  0  0  0  0  0  0
    4.8101   -2.0826    0.0000 H   0  0  0  0  0  0  0  0  0  0  0  0
    5.2087   -1.3923    0.0000 H   0  0  0  0  0  0  0  0  0  0  0  0
    9.2382    5.4631    0.0000 H   0  0  0  0  0  0  0  0  0  0  0  0
    9.4651    6.3100    0.0000 H   0  0  0  0  0  0  0  0  0  0  0  0
    8.6182    6.5369    0.0000 H   0  0  0  0  0  0  0  0  0  0  0  0
    5.7741    6.5369    0.0000 H   0  0  0  0  0  0  0  0  0  0  0  0
    4.9272    6.3100    0.0000 H   0  0  0  0  0  0  0  0  0  0  0  0
    5.1541    5.4631    0.0000 H   0  0  0  0  0  0  0  0  0  0  0  0
    3.5200   -1.4174    0.0000 H   0  0  0  0  0  0  0  0  0  0  0  0
    3.1215   -2.1077    0.0000 H   0  0  0  0  0  0  0  0  0  0  0  0
    3.9441   -3.5826    0.0000 H   0  0  0  0  0  0  0  0  0  0  0  0
    4.3426   -2.8923    0.0000 H   0  0  0  0  0  0  0  0  0  0  0  0
    2.6540   -2.9174    0.0000 H   0  0  0  0  0  0  0  0  0  0  0  0
    2.2554   -3.6077    0.0000 H   0  0  0  0  0  0  0  0  0  0  0  0
    3.0781   -5.0826    0.0000 H   0  0  0  0  0  0  0  0  0  0  0  0
    3.4766   -4.3923    0.0000 H   0  0  0  0  0  0  0  0  0  0  0  0
    1.7880   -4.4174    0.0000 H   0  0  0  0  0  0  0  0  0  0  0  0
    1.3894   -5.1077    0.0000 H   0  0  0  0  0  0  0  0  0  0  0  0
    1.3800   -6.0000    0.0000 H   0  0  0  0  0  0  0  0  0  0  0  0
    2.0000   -6.6200    0.0000 H   0  0  0  0  0  0  0  0  0  0  0  0
    2.6200   -6.0000    0.0000 H   0  0  0  0  0  0  0  0  0  0  0  0
  1  6  1  0  0  0  0
  1  7  1  0  0  0  0
  2  3  1  0  0  0  0
  2  4  1  0  0  0  0
  2  5  1  0  0  0  0
  3  7  1  0  0  0  0
  3 24  1  0  0  0  0
  3 25  1  0  0  0  0
  4  6  1  0  0  0  0
  4 22  1  0  0  0  0
  4 23  1  0  0  0  0
  5  8  1  0  0  0  0
  5 26  1  0  0  0  0
  5 27  1  0  0  0  0
  6 15  1  0  0  0  0
  6 28  1  0  0  0  0
  7 14  1  0  0  0  0
  7 29  1  0  0  0  0
  8  9  1  0  0  0  0
  8 30  1  0  0  0  0
  8 31  1  0  0  0  0
  9 10  1  0  0  0  0
  9 32  1  0  0  0  0
  9 33  1  0  0  0  0
 10 11  1  0  0  0  0
 10 34  1  0  0  0  0
 10 35  1  0  0  0  0
 11 12  1  0  0  0  0
 11 36  1  0  0  0  0
 11 37  1  0  0  0  0
 12 13  1  0  0  0  0
 12 38  1  0  0  0  0
 12 39  1  0  0  0  0
 13 16  1  0  0  0  0
 13 40  1  0  0  0  0
 13 41  1  0  0  0  0
 14 45  1  0  0  0  0
 14 46  1  0  0  0  0
 14 47  1  0  0  0  0
 15 42  1  0  0  0  0
 15 43  1  0  0  0  0
 15 44  1  0  0  0  0
 16 17  1  0  0  0  0
 16 48  1  0  0  0  0
 16 49  1  0  0  0  0
 17 18  1  0  0  0  0
 17 50  1  0  0  0  0
 17 51  1  0  0  0  0
 18 19  1  0  0  0  0
 18 52  1  0  0  0  0
 18 53  1  0  0  0  0
 19 20  1  0  0  0  0
 19 54  1  0  0  0  0
 19 55  1  0  0  0  0
 20 21  1  0  0  0  0
 20 56  1  0  0  0  0
 20 57  1  0  0  0  0
 21 58  1  0  0  0  0
 21 59  1  0  0  0  0
 21 60  1  0  0  0  0
M  END
> <PUBCHEM_COMPOUND_CID>
32518

> <PUBCHEM_COMPOUND_CANONICALIZED>
1

> <PUBCHEM_CACTVS_COMPLEXITY>
222

> <PUBCHEM_CACTVS_HBOND_ACCEPTOR>
2

> <PUBCHEM_CACTVS_HBOND_DONOR>
0

> <PUBCHEM_CACTVS_ROTATABLE_BOND>
12

> <PUBCHEM_CACTVS_SUBSKEYS>
AAADcfB6IAAAAAAAAAAAAAAAAAAAAAAAAAAsAAAAAAAAAAAAAAAAHgAAAAAACBThgAYCAAMABAAAAAAAAAAAAAAAAAAAAAAIAAACAAIAgAAHAAAAAACQAAEQgIAAAAAAAAAAAAAAAAAAAAAAAAAAAAAAAA==

> <PUBCHEM_IUPAC_OPENEYE_NAME>
2,6-dimethyl-4-tridecyl-morpholine

> <PUBCHEM_IUPAC_CAS_NAME>
2,6-dimethyl-4-tridecylmorpholine

> <PUBCHEM_IUPAC_NAME>
2,6-dimethyl-4-tridecylmorpholine

> <PUBCHEM_IUPAC_SYSTEMATIC_NAME>
2,6-dimethyl-4-tridecyl-morpholine

> <PUBCHEM_IUPAC_TRADITIONAL_NAME>
2,6-dimethyl-4-tridecyl-morpholine

> <PUBCHEM_IUPAC_INCHI>
InChI=1S/C19H39NO/c1-4-5-6-7-8-9-10-11-12-13-14-15-20-16-18(2)21-19(3)17-20/h18-19H,4-17H2,1-3H3

> <PUBCHEM_IUPAC_INCHIKEY>
YTOPFCCWCSOHFV-UHFFFAOYSA-N

> <PUBCHEM_XLOGP3_AA>
6.9

> <PUBCHEM_EXACT_MASS>
297.303165

> <PUBCHEM_MOLECULAR_FORMULA>
C19H39NO

> <PUBCHEM_MOLECULAR_WEIGHT>
297.51906

> <PUBCHEM_OPENEYE_CAN_SMILES>
CCCCCCCCCCCCCN1CC(OC(C1)C)C

> <PUBCHEM_OPENEYE_ISO_SMILES>
CCCCCCCCCCCCCN1CC(OC(C1)C)C

> <PUBCHEM_CACTVS_TPSA>
12.5

> <PUBCHEM_MONOISOTOPIC_WEIGHT>
297.303165

> <PUBCHEM_TOTAL_CHARGE>
0

> <PUBCHEM_HEAVY_ATOM_COUNT>
21

> <PUBCHEM_ATOM_DEF_STEREO_COUNT>
0

> <PUBCHEM_ATOM_UDEF_STEREO_COUNT>
2

> <PUBCHEM_BOND_DEF_STEREO_COUNT>
0

> <PUBCHEM_BOND_UDEF_STEREO_COUNT>
0

> <PUBCHEM_ISOTOPIC_ATOM_COUNT>
0

> <PUBCHEM_COMPONENT_COUNT>
1

> <PUBCHEM_CACTVS_TAUTO_COUNT>
1

> <PUBCHEM_COORDINATE_TYPE>
1
5
255

> <PUBCHEM_BONDANNOTATIONS>
6  15  3
7  14  3

$$$$

