7671
  -OEChem-06261202133D

 16 16  0     0  0  0  0  0  0999 V2000
    2.8440   -0.9145    0.0001 O   0  0  0  0  0  0  0  0  0  0  0  0
    1.4336    0.9864   -0.0001 N   0  0  0  0  0  0  0  0  0  0  0  0
    0.1403    0.4627    0.0002 C   0  0  0  0  0  0  0  0  0  0  0  0
   -0.9595    1.3208    0.0001 C   0  0  0  0  0  0  0  0  0  0  0  0
   -0.0530   -0.9188    0.0001 C   0  0  0  0  0  0  0  0  0  0  0  0
   -2.2525    0.7977    0.0000 C   0  0  0  0  0  0  0  0  0  0  0  0
   -1.3462   -1.4419   -0.0001 C   0  0  0  0  0  0  0  0  0  0  0  0
   -2.4458   -0.5837   -0.0001 C   0  0  0  0  0  0  0  0  0  0  0  0
    2.6390    0.2912   -0.0002 C   0  0  0  0  0  0  0  0  0  0  0  0
   -0.8237    2.3994    0.0001 H   0  0  0  0  0  0  0  0  0  0  0  0
    0.7514   -1.6418    0.0001 H   0  0  0  0  0  0  0  0  0  0  0  0
   -3.1088    1.4658   -0.0001 H   0  0  0  0  0  0  0  0  0  0  0  0
   -1.4982   -2.5175   -0.0001 H   0  0  0  0  0  0  0  0  0  0  0  0
   -3.4525   -0.9911   -0.0003 H   0  0  0  0  0  0  0  0  0  0  0  0
    1.5005    2.0018   -0.0002 H   0  0  0  0  0  0  0  0  0  0  0  0
    3.4775    1.0087   -0.0004 H   0  0  0  0  0  0  0  0  0  0  0  0
  1  9  2  0  0  0  0
  2  3  1  0  0  0  0
  2  9  1  0  0  0  0
  2 15  1  0  0  0  0
  3  4  2  0  0  0  0
  3  5  1  0  0  0  0
  4  6  1  0  0  0  0
  4 10  1  0  0  0  0
  5  7  2  0  0  0  0
  5 11  1  0  0  0  0
  6  8  2  0  0  0  0
  6 12  1  0  0  0  0
  7  8  1  0  0  0  0
  7 13  1  0  0  0  0
  8 14  1  0  0  0  0
  9 16  1  0  0  0  0
M  END
> <PUBCHEM_COMPOUND_CID>
7671

> <PUBCHEM_CONFORMER_RMSD>
0.4

> <PUBCHEM_CONFORMER_DIVERSEORDER>
1
3
2

> <PUBCHEM_MMFF94_PARTIAL_CHARGES>
16
1 -0.57
10 0.15
11 0.15
12 0.15
13 0.15
14 0.15
15 0.37
16 0.06
2 -0.55
3 0.12
4 -0.15
5 -0.15
6 -0.15
7 -0.15
8 -0.15
9 0.57

> <PUBCHEM_EFFECTIVE_ROTOR_COUNT>
2

> <PUBCHEM_PHARMACOPHORE_FEATURES>
3
1 1 acceptor
1 2 donor
6 3 4 5 6 7 8 rings

> <PUBCHEM_HEAVY_ATOM_COUNT>
9

> <PUBCHEM_ATOM_DEF_STEREO_COUNT>
0

> <PUBCHEM_ATOM_UDEF_STEREO_COUNT>
0

> <PUBCHEM_BOND_DEF_STEREO_COUNT>
0

> <PUBCHEM_BOND_UDEF_STEREO_COUNT>
0

> <PUBCHEM_ISOTOPIC_ATOM_COUNT>
0

> <PUBCHEM_COMPONENT_COUNT>
1

> <PUBCHEM_CACTVS_TAUTO_COUNT>
2

> <PUBCHEM_CONFORMER_ID>
00001DF700000001

> <PUBCHEM_MMFF94_ENERGY>
23.3624

> <PUBCHEM_FEATURE_SELFOVERLAP>
15.223

> <PUBCHEM_SHAPE_FINGERPRINT>
12932764 1 17603868849656711132
14325111 11 18410856572567116832
16714656 1 18411982451162484397
16945 1 18410855473181862245
20871998 184 18115303363191349799
21040471 1 18410856607148381793
23552423 10 18200875063251615334
29004967 10 18267863869930570088
369184 2 14634868664755705814
5084963 1 18410012130493993593

> <PUBCHEM_SHAPE_MULTIPOLES>
174.37
3.9
1.45
0.6
2.11
0.08
0
0.35
0
-0.36
0
-0.05
0
0

> <PUBCHEM_SHAPE_SELFOVERLAP>
358.825

> <PUBCHEM_SHAPE_VOLUME>
98

> <PUBCHEM_COORDINATE_TYPE>
2
5
10

$$$$

