16093504
  -OEChem-07051213032D

 53 54  0     1  0  0  0  0  0999 V2000
    4.2690    0.8100    0.0000 O   0  0  0  0  0  0  0  0  0  0  0  0
    3.4030   -1.6900    0.0000 O   0  0  0  0  0  0  0  0  0  0  0  0
    6.8671    4.3100    0.0000 O   0  0  0  0  0  0  0  0  0  0  0  0
    2.5369   -3.1900    0.0000 O   0  0  0  0  0  0  0  0  0  0  0  0
    2.5369   -5.1900    0.0000 O   0  0  0  0  0  0  0  0  0  0  0  0
    9.4651    2.8100    0.0000 O   0  0  0  0  0  0  0  0  0  0  0  0
   11.1972    3.8100    0.0000 O   0  0  0  0  0  0  0  0  0  0  0  0
    5.1350   -1.6900    0.0000 N   0  0  0  0  0  0  0  0  0  0  0  0
    7.7331    2.8100    0.0000 N   0  0  0  0  0  0  0  0  0  0  0  0
    6.0010   -0.1900    0.0000 C   0  0  0  0  0  0  0  0  0  0  0  0
    5.1350   -0.6900    0.0000 C   0  0  1  0  0  0  0  0  0  0  0  0
    6.0010    0.8100    0.0000 C   0  0  0  0  0  0  0  0  0  0  0  0
    6.8671    1.3100    0.0000 C   0  0  0  0  0  0  0  0  0  0  0  0
    4.2690   -0.1900    0.0000 C   0  0  0  0  0  0  0  0  0  0  0  0
    6.8671    2.3100    0.0000 C   0  0  0  0  0  0  0  0  0  0  0  0
    4.2690   -2.1900    0.0000 C   0  0  0  0  0  0  0  0  0  0  0  0
    4.2690   -3.1900    0.0000 C   0  0  0  0  0  0  0  0  0  0  0  0
    7.7331    3.8100    0.0000 C   0  0  0  0  0  0  0  0  0  0  0  0
    8.5991    4.3100    0.0000 C   0  0  0  0  0  0  0  0  0  0  0  0
    3.4030   -3.6900    0.0000 C   0  0  0  0  0  0  0  0  0  0  0  0
    5.1350   -3.6900    0.0000 C   0  0  0  0  0  0  0  0  0  0  0  0
    3.4030   -4.6900    0.0000 C   0  0  0  0  0  0  0  0  0  0  0  0
    9.4651    3.8100    0.0000 C   0  0  0  0  0  0  0  0  0  0  0  0
    5.1350   -4.6900    0.0000 C   0  0  0  0  0  0  0  0  0  0  0  0
    8.5991    5.3100    0.0000 C   0  0  0  0  0  0  0  0  0  0  0  0
    4.2690   -5.1900    0.0000 C   0  0  0  0  0  0  0  0  0  0  0  0
   10.3312    4.3100    0.0000 C   0  0  0  0  0  0  0  0  0  0  0  0
    9.4651    5.8100    0.0000 C   0  0  0  0  0  0  0  0  0  0  0  0
   10.3312    5.3100    0.0000 C   0  0  0  0  0  0  0  0  0  0  0  0
    6.2131   -0.7726    0.0000 H   0  0  0  0  0  0  0  0  0  0  0  0
    6.6116   -0.0823    0.0000 H   0  0  0  0  0  0  0  0  0  0  0  0
    5.6720   -1.0000    0.0000 H   0  0  0  0  0  0  0  0  0  0  0  0
    5.7890    1.3926    0.0000 H   0  0  0  0  0  0  0  0  0  0  0  0
    5.3905    0.7023    0.0000 H   0  0  0  0  0  0  0  0  0  0  0  0
    7.0791    0.7274    0.0000 H   0  0  0  0  0  0  0  0  0  0  0  0
    7.4776    1.4177    0.0000 H   0  0  0  0  0  0  0  0  0  0  0  0
    3.6584   -0.0823    0.0000 H   0  0  0  0  0  0  0  0  0  0  0  0
    4.0569   -0.7726    0.0000 H   0  0  0  0  0  0  0  0  0  0  0  0
    6.6550    2.8926    0.0000 H   0  0  0  0  0  0  0  0  0  0  0  0
    6.2565    2.2023    0.0000 H   0  0  0  0  0  0  0  0  0  0  0  0
    5.6720   -2.0000    0.0000 H   0  0  0  0  0  0  0  0  0  0  0  0
    8.2700    2.5000    0.0000 H   0  0  0  0  0  0  0  0  0  0  0  0
    3.7320    1.1200    0.0000 H   0  0  0  0  0  0  0  0  0  0  0  0
    5.6720   -3.3800    0.0000 H   0  0  0  0  0  0  0  0  0  0  0  0
    5.6720   -5.0000    0.0000 H   0  0  0  0  0  0  0  0  0  0  0  0
    8.0622    5.6200    0.0000 H   0  0  0  0  0  0  0  0  0  0  0  0
    4.2690   -5.8100    0.0000 H   0  0  0  0  0  0  0  0  0  0  0  0
    9.4651    6.4300    0.0000 H   0  0  0  0  0  0  0  0  0  0  0  0
   10.8681    5.6200    0.0000 H   0  0  0  0  0  0  0  0  0  0  0  0
    2.0000   -3.5000    0.0000 H   0  0  0  0  0  0  0  0  0  0  0  0
    2.5369   -5.8100    0.0000 H   0  0  0  0  0  0  0  0  0  0  0  0
   10.0021    2.5000    0.0000 H   0  0  0  0  0  0  0  0  0  0  0  0
   11.7341    4.1200    0.0000 H   0  0  0  0  0  0  0  0  0  0  0  0
  1 14  1  0  0  0  0
  1 43  1  0  0  0  0
  2 16  2  0  0  0  0
  3 18  2  0  0  0  0
  4 20  1  0  0  0  0
  4 50  1  0  0  0  0
  5 22  1  0  0  0  0
  5 51  1  0  0  0  0
  6 23  1  0  0  0  0
  6 52  1  0  0  0  0
  7 27  1  0  0  0  0
  7 53  1  0  0  0  0
 11  8  1  6  0  0  0
  8 16  1  0  0  0  0
  8 41  1  0  0  0  0
  9 15  1  0  0  0  0
  9 18  1  0  0  0  0
  9 42  1  0  0  0  0
 10 11  1  0  0  0  0
 10 12  1  0  0  0  0
 10 30  1  0  0  0  0
 10 31  1  0  0  0  0
 11 14  1  0  0  0  0
 11 32  1  0  0  0  0
 12 13  1  0  0  0  0
 12 33  1  0  0  0  0
 12 34  1  0  0  0  0
 13 15  1  0  0  0  0
 13 35  1  0  0  0  0
 13 36  1  0  0  0  0
 14 37  1  0  0  0  0
 14 38  1  0  0  0  0
 15 39  1  0  0  0  0
 15 40  1  0  0  0  0
 16 17  1  0  0  0  0
 17 20  2  0  0  0  0
 17 21  1  0  0  0  0
 18 19  1  0  0  0  0
 19 23  2  0  0  0  0
 19 25  1  0  0  0  0
 20 22  1  0  0  0  0
 21 24  2  0  0  0  0
 21 44  1  0  0  0  0
 22 26  2  0  0  0  0
 23 27  1  0  0  0  0
 24 26  1  0  0  0  0
 24 45  1  0  0  0  0
 25 28  2  0  0  0  0
 25 46  1  0  0  0  0
 26 47  1  0  0  0  0
 27 29  2  0  0  0  0
 28 29  1  0  0  0  0
 28 48  1  0  0  0  0
 29 49  1  0  0  0  0
M  END
> <PUBCHEM_COMPOUND_CID>
16093504

> <PUBCHEM_COMPOUND_CANONICALIZED>
1

> <PUBCHEM_CACTVS_COMPLEXITY>
533

> <PUBCHEM_CACTVS_HBOND_ACCEPTOR>
7

> <PUBCHEM_CACTVS_HBOND_DONOR>
7

> <PUBCHEM_CACTVS_ROTATABLE_BOND>
9

> <PUBCHEM_CACTVS_SUBSKEYS>
AAADceB7OAAAAAAAAAAAAAAAAAAAAAAAAAAwYAAAAAAAAAABQAAAHgAQCAAADCzhmAYwBoLAAgCIAiFSEACCAAAkIAAIiIEOjMgLNjaClROEcUlm9hGZmYe6yDCOAAABAAAIQAAAAAIAABCAAAAAAAAAAA==

> <PUBCHEM_IUPAC_OPENEYE_NAME>
N-[(5S)-5-[(2,3-dihydroxybenzoyl)amino]-6-hydroxy-hexyl]-2,3-dihydroxy-benzamide

> <PUBCHEM_IUPAC_CAS_NAME>
N-[(5S)-5-[[(2,3-dihydroxyphenyl)-oxomethyl]amino]-6-hydroxyhexyl]-2,3-dihydroxybenzamide

> <PUBCHEM_IUPAC_NAME>
N-[(5S)-5-[(2,3-dihydroxybenzoyl)amino]-6-hydroxyhexyl]-2,3-dihydroxybenzamide

> <PUBCHEM_IUPAC_SYSTEMATIC_NAME>
N-[(5S)-5-[[2,3-bis(oxidanyl)phenyl]carbonylamino]-6-oxidanyl-hexyl]-2,3-bis(oxidanyl)benzamide

> <PUBCHEM_IUPAC_TRADITIONAL_NAME>
N-[(5S)-5-[(2,3-dihydroxybenzoyl)amino]-6-hydroxy-hexyl]-2,3-dihydroxy-benzamide

> <PUBCHEM_IUPAC_INCHI>
InChI=1S/C20H24N2O7/c23-11-12(22-20(29)14-7-4-9-16(25)18(14)27)5-1-2-10-21-19(28)13-6-3-8-15(24)17(13)26/h3-4,6-9,12,23-27H,1-2,5,10-11H2,(H,21,28)(H,22,29)/t12-/m0/s1

> <PUBCHEM_IUPAC_INCHIKEY>
WNBVGSNESTZACV-LBPRGKRZSA-N

> <PUBCHEM_XLOGP3_AA>
2.3

> <PUBCHEM_EXACT_MASS>
404.158351

> <PUBCHEM_MOLECULAR_FORMULA>
C20H24N2O7

> <PUBCHEM_MOLECULAR_WEIGHT>
404.41376

> <PUBCHEM_OPENEYE_CAN_SMILES>
C1=CC(=C(C(=C1)O)O)C(=O)NCCCCC(CO)NC(=O)C2=C(C(=CC=C2)O)O

> <PUBCHEM_OPENEYE_ISO_SMILES>
C1=CC(=C(C(=C1)O)O)C(=O)NCCCC[C@@H](CO)NC(=O)C2=C(C(=CC=C2)O)O

> <PUBCHEM_CACTVS_TPSA>
159

> <PUBCHEM_MONOISOTOPIC_WEIGHT>
404.158351

> <PUBCHEM_TOTAL_CHARGE>
0

> <PUBCHEM_HEAVY_ATOM_COUNT>
29

> <PUBCHEM_ATOM_DEF_STEREO_COUNT>
1

> <PUBCHEM_ATOM_UDEF_STEREO_COUNT>
0

> <PUBCHEM_BOND_DEF_STEREO_COUNT>
0

> <PUBCHEM_BOND_UDEF_STEREO_COUNT>
0

> <PUBCHEM_ISOTOPIC_ATOM_COUNT>
0

> <PUBCHEM_COMPONENT_COUNT>
1

> <PUBCHEM_CACTVS_TAUTO_COUNT>
513

> <PUBCHEM_COORDINATE_TYPE>
1
5
255

> <PUBCHEM_BONDANNOTATIONS>
17  20  8
17  21  8
19  23  8
19  25  8
20  22  8
21  24  8
22  26  8
23  27  8
24  26  8
25  28  8
27  29  8
28  29  8
11  8  6

$$$$

