10129991
  -OEChem-07051213013D

 20 19  0     0  0  0  0  0  0999 V2000
   -3.0984   -1.2682   -0.0140 O   0  0  0  0  0  0  0  0  0  0  0  0
    4.3179    0.3255   -0.0037 O   0  0  0  0  0  0  0  0  0  0  0  0
    1.9677   -0.1116    0.0014 C   0  0  0  0  0  0  0  0  0  0  0  0
    0.7855    0.5290   -0.0007 C   0  0  0  0  0  0  0  0  0  0  0  0
   -0.5263   -0.0873    0.0037 C   0  0  0  0  0  0  0  0  0  0  0  0
    2.2212   -1.5876    0.0091 C   0  0  0  0  0  0  0  0  0  0  0  0
   -1.6580    0.6312    0.0012 C   0  0  0  0  0  0  0  0  0  0  0  0
   -2.9857   -0.0448    0.0056 C   0  0  0  0  0  0  0  0  0  0  0  0
   -4.1976    0.8492    0.0029 C   0  0  0  0  0  0  0  0  0  0  0  0
    3.1737    0.7648   -0.0054 C   0  0  0  0  0  0  0  0  0  0  0  0
    0.7742    1.6186   -0.0067 H   0  0  0  0  0  0  0  0  0  0  0  0
   -0.5768   -1.1706    0.0102 H   0  0  0  0  0  0  0  0  0  0  0  0
    2.7951   -1.8772   -0.8778 H   0  0  0  0  0  0  0  0  0  0  0  0
    2.7972   -1.8675    0.8977 H   0  0  0  0  0  0  0  0  0  0  0  0
    1.3077   -2.1861    0.0134 H   0  0  0  0  0  0  0  0  0  0  0  0
   -1.6476    1.7161   -0.0059 H   0  0  0  0  0  0  0  0  0  0  0  0
   -3.9551    1.8464    0.3800 H   0  0  0  0  0  0  0  0  0  0  0  0
   -4.9610    0.4208    0.6586 H   0  0  0  0  0  0  0  0  0  0  0  0
   -4.5851    0.9303   -1.0157 H   0  0  0  0  0  0  0  0  0  0  0  0
    2.9846    1.8516   -0.0116 H   0  0  0  0  0  0  0  0  0  0  0  0
  1  8  2  0  0  0  0
  2 10  2  0  0  0  0
  3  4  2  0  0  0  0
  3  6  1  0  0  0  0
  3 10  1  0  0  0  0
  4  5  1  0  0  0  0
  4 11  1  0  0  0  0
  5  7  2  0  0  0  0
  5 12  1  0  0  0  0
  6 13  1  0  0  0  0
  6 14  1  0  0  0  0
  6 15  1  0  0  0  0
  7  8  1  0  0  0  0
  7 16  1  0  0  0  0
  8  9  1  0  0  0  0
  9 17  1  0  0  0  0
  9 18  1  0  0  0  0
  9 19  1  0  0  0  0
 10 20  1  0  0  0  0
M  END
> <PUBCHEM_COMPOUND_CID>
10129991

> <PUBCHEM_CONFORMER_RMSD>
0.6

> <PUBCHEM_CONFORMER_DIVERSEORDER>
1
12
7
13
4
8
5
9
2
6
3
11
10

> <PUBCHEM_MMFF94_PARTIAL_CHARGES>
14
1 -0.57
10 0.5
11 0.15
12 0.15
16 0.15
2 -0.57
20 0.06
3 -0.12
4 -0.15
5 -0.15
6 0.14
7 -0.14
8 0.49
9 0.06

> <PUBCHEM_EFFECTIVE_ROTOR_COUNT>
3

> <PUBCHEM_PHARMACOPHORE_FEATURES>
3
1 1 acceptor
1 2 acceptor
1 6 hydrophobe

> <PUBCHEM_HEAVY_ATOM_COUNT>
10

> <PUBCHEM_ATOM_DEF_STEREO_COUNT>
0

> <PUBCHEM_ATOM_UDEF_STEREO_COUNT>
0

> <PUBCHEM_BOND_DEF_STEREO_COUNT>
2

> <PUBCHEM_BOND_UDEF_STEREO_COUNT>
0

> <PUBCHEM_ISOTOPIC_ATOM_COUNT>
0

> <PUBCHEM_COMPONENT_COUNT>
1

> <PUBCHEM_CACTVS_TAUTO_COUNT>
2

> <PUBCHEM_CONFORMER_ID>
009A924700000001

> <PUBCHEM_MMFF94_ENERGY>
12.1018

> <PUBCHEM_FEATURE_SELFOVERLAP>
15.223

> <PUBCHEM_SHAPE_FINGERPRINT>
11062470 55 18344145895058917065
12500047 106 18408610257822138563
12932764 1 17168439223769003457
14325111 11 18410856572714653987
14445660 50 18335975433059372513
17834076 25 18341892995680876069
190213 19 17458340832015054496
20201158 50 18341892987080366114
20279233 1 18202277013686575339
20645477 56 18202285835971699949
20645477 70 18264210373317779799
22485316 2 18410295821779258975
23402539 116 17560810913408608268
23402655 69 18409168835113945268
3248919 1 17458340887965615407
3312278 4 18334855009135475611
449060 50 18413103957375987461

> <PUBCHEM_SHAPE_MULTIPOLES>
194.06
7.94
1.2
0.6
1.2
0.44
0
-0.99
-0.01
-0.16
0
0.01
-0.01
-0.01

> <PUBCHEM_SHAPE_SELFOVERLAP>
369.568

> <PUBCHEM_SHAPE_VOLUME>
118.8

> <PUBCHEM_COORDINATE_TYPE>
2
5
10

$$$$

