10777
  -OEChem-07051213053D

 19 19  0     0  0  0  0  0  0999 V2000
   -0.9878    2.6951    0.0009 Cl  0  0  0  0  0  0  0  0  0  0  0  0
    2.4716   -1.4070   -0.0012 O   0  0  0  0  0  0  0  0  0  0  0  0
    1.1848    0.5677   -0.0006 N   0  0  0  0  0  0  0  0  0  0  0  0
   -0.1337    0.1026   -0.0010 C   0  0  0  0  0  0  0  0  0  0  0  0
   -1.2159    0.9826   -0.0013 C   0  0  0  0  0  0  0  0  0  0  0  0
   -0.3546   -1.2747    0.0001 C   0  0  0  0  0  0  0  0  0  0  0  0
   -2.5191    0.4853   -0.0005 C   0  0  0  0  0  0  0  0  0  0  0  0
   -1.6578   -1.7719    0.0010 C   0  0  0  0  0  0  0  0  0  0  0  0
   -2.7401   -0.8920    0.0008 C   0  0  0  0  0  0  0  0  0  0  0  0
    2.3647   -0.1849    0.0009 C   0  0  0  0  0  0  0  0  0  0  0  0
    3.5879    0.6972    0.0009 C   0  0  0  0  0  0  0  0  0  0  0  0
    0.4212   -2.0259    0.0007 H   0  0  0  0  0  0  0  0  0  0  0  0
    1.2841    1.5807   -0.0010 H   0  0  0  0  0  0  0  0  0  0  0  0
   -3.3735    1.1573   -0.0001 H   0  0  0  0  0  0  0  0  0  0  0  0
   -1.8316   -2.8442    0.0020 H   0  0  0  0  0  0  0  0  0  0  0  0
   -3.7548   -1.2794    0.0018 H   0  0  0  0  0  0  0  0  0  0  0  0
    3.6037    1.3066   -0.9070 H   0  0  0  0  0  0  0  0  0  0  0  0
    4.4900    0.0801    0.0309 H   0  0  0  0  0  0  0  0  0  0  0  0
    3.5755    1.3493    0.8789 H   0  0  0  0  0  0  0  0  0  0  0  0
  1  5  1  0  0  0  0
  2 10  2  0  0  0  0
  3  4  1  0  0  0  0
  3 10  1  0  0  0  0
  3 13  1  0  0  0  0
  4  5  1  0  0  0  0
  4  6  2  0  0  0  0
  5  7  2  0  0  0  0
  6  8  1  0  0  0  0
  6 12  1  0  0  0  0
  7  9  1  0  0  0  0
  7 14  1  0  0  0  0
  8  9  2  0  0  0  0
  8 15  1  0  0  0  0
  9 16  1  0  0  0  0
 10 11  1  0  0  0  0
 11 17  1  0  0  0  0
 11 18  1  0  0  0  0
 11 19  1  0  0  0  0
M  END
> <PUBCHEM_COMPOUND_CID>
10777

> <PUBCHEM_CONFORMER_RMSD>
0.4

> <PUBCHEM_CONFORMER_DIVERSEORDER>
1
2
3

> <PUBCHEM_MMFF94_PARTIAL_CHARGES>
16
1 -0.18
10 0.57
11 0.06
12 0.15
13 0.37
14 0.15
15 0.15
16 0.15
2 -0.57
3 -0.55
4 0.12
5 0.18
6 -0.15
7 -0.15
8 -0.15
9 -0.15

> <PUBCHEM_EFFECTIVE_ROTOR_COUNT>
2

> <PUBCHEM_PHARMACOPHORE_FEATURES>
3
1 2 acceptor
1 3 donor
6 4 5 6 7 8 9 rings

> <PUBCHEM_HEAVY_ATOM_COUNT>
11

> <PUBCHEM_ATOM_DEF_STEREO_COUNT>
0

> <PUBCHEM_ATOM_UDEF_STEREO_COUNT>
0

> <PUBCHEM_BOND_DEF_STEREO_COUNT>
0

> <PUBCHEM_BOND_UDEF_STEREO_COUNT>
0

> <PUBCHEM_ISOTOPIC_ATOM_COUNT>
0

> <PUBCHEM_COMPONENT_COUNT>
1

> <PUBCHEM_CACTVS_TAUTO_COUNT>
2

> <PUBCHEM_CONFORMER_ID>
00002A1900000001

> <PUBCHEM_MMFF94_ENERGY>
29.8883

> <PUBCHEM_FEATURE_SELFOVERLAP>
15.223

> <PUBCHEM_SHAPE_FINGERPRINT>
12716758 59 18264773340339748104
12897270 3 18410292476157900030
12932764 1 17386016061136383398
13024252 1 17632578236524541707
13380535 76 17906457980300230413
14325111 11 18410574015279538720
16945 1 18410856598415924967
193761 8 17690279730756252323
19973954 147 18337952397852496028
20201158 50 18409169870338213446
20510252 161 18334575788848089289
20711985 365 18339081626269114366
20871998 184 18260263019231283183
23402539 116 18260840293253791751
23552423 10 18200312113155866678
2748010 2 18193281788700357197
3312278 4 18342736269602035762
369184 2 18407760343581001907
5084963 1 18115311205653503809
6333449 129 18408326570504675860
7364860 26 17759802546470124065

> <PUBCHEM_SHAPE_MULTIPOLES>
217.39
4.68
2.2
0.6
3.72
1.08
0
-0.49
0
-0.96
0
-0.03
0.02
0

> <PUBCHEM_SHAPE_SELFOVERLAP>
438.793

> <PUBCHEM_SHAPE_VOLUME>
127.4

> <PUBCHEM_COORDINATE_TYPE>
2
5
10

$$$$

