10141
  -OEChem-06261204203D

 20 21  0     0  0  0  0  0  0999 V2000
   -2.7592   -1.3086    0.0008 O   0  0  0  0  0  0  0  0  0  0  0  0
    2.7590   -1.3098    0.0010 O   0  0  0  0  0  0  0  0  0  0  0  0
   -2.6711    1.2953   -0.0009 O   0  0  0  0  0  0  0  0  0  0  0  0
    2.6713    1.2954    0.0000 O   0  0  0  0  0  0  0  0  0  0  0  0
   -0.6988   -0.0306   -0.0001 C   0  0  0  0  0  0  0  0  0  0  0  0
    0.6988   -0.0307   -0.0004 C   0  0  0  0  0  0  0  0  0  0  0  0
   -1.3977   -1.2429   -0.0001 C   0  0  0  0  0  0  0  0  0  0  0  0
    1.3975   -1.2430   -0.0004 C   0  0  0  0  0  0  0  0  0  0  0  0
   -1.4475    1.2416    0.0003 C   0  0  0  0  0  0  0  0  0  0  0  0
    1.4477    1.2414   -0.0008 C   0  0  0  0  0  0  0  0  0  0  0  0
   -0.6973   -2.4496   -0.0001 C   0  0  0  0  0  0  0  0  0  0  0  0
    0.6967   -2.4497   -0.0003 C   0  0  0  0  0  0  0  0  0  0  0  0
   -0.6666    2.4957    0.0007 C   0  0  0  0  0  0  0  0  0  0  0  0
    0.6672    2.4957    0.0002 C   0  0  0  0  0  0  0  0  0  0  0  0
   -1.2323   -3.3957    0.0002 H   0  0  0  0  0  0  0  0  0  0  0  0
    1.2228   -3.4009    0.0000 H   0  0  0  0  0  0  0  0  0  0  0  0
   -1.2189    3.4293    0.0013 H   0  0  0  0  0  0  0  0  0  0  0  0
    1.2196    3.4291    0.0005 H   0  0  0  0  0  0  0  0  0  0  0  0
   -3.1458   -0.4200    0.0019 H   0  0  0  0  0  0  0  0  0  0  0  0
    3.0392   -2.2410    0.0011 H   0  0  0  0  0  0  0  0  0  0  0  0
  1  7  1  0  0  0  0
  1 19  1  0  0  0  0
  2  8  1  0  0  0  0
  2 20  1  0  0  0  0
  3  9  2  0  0  0  0
  4 10  2  0  0  0  0
  5  6  1  0  0  0  0
  5  7  2  0  0  0  0
  5  9  1  0  0  0  0
  6  8  2  0  0  0  0
  6 10  1  0  0  0  0
  7 11  1  0  0  0  0
  8 12  1  0  0  0  0
  9 13  1  0  0  0  0
 10 14  1  0  0  0  0
 11 12  2  0  0  0  0
 11 15  1  0  0  0  0
 12 16  1  0  0  0  0
 13 14  2  0  0  0  0
 13 17  1  0  0  0  0
 14 18  1  0  0  0  0
M  END
> <PUBCHEM_COMPOUND_CID>
10141

> <PUBCHEM_CONFORMER_RMSD>
0.4

> <PUBCHEM_CONFORMER_DIVERSEORDER>
1

> <PUBCHEM_MMFF94_PARTIAL_CHARGES>
20
1 -0.53
10 0.47
11 -0.15
12 -0.15
13 -0.14
14 -0.14
15 0.15
16 0.15
17 0.15
18 0.15
19 0.45
2 -0.53
20 0.45
3 -0.57
4 -0.57
5 0.09
6 0.09
7 0.08
8 0.08
9 0.47

> <PUBCHEM_EFFECTIVE_ROTOR_COUNT>
0

> <PUBCHEM_PHARMACOPHORE_FEATURES>
6
1 1 donor
1 2 donor
1 3 acceptor
1 4 acceptor
6 5 6 7 8 11 12 rings
6 5 6 9 10 13 14 rings

> <PUBCHEM_HEAVY_ATOM_COUNT>
14

> <PUBCHEM_ATOM_DEF_STEREO_COUNT>
0

> <PUBCHEM_ATOM_UDEF_STEREO_COUNT>
0

> <PUBCHEM_BOND_DEF_STEREO_COUNT>
0

> <PUBCHEM_BOND_UDEF_STEREO_COUNT>
0

> <PUBCHEM_ISOTOPIC_ATOM_COUNT>
0

> <PUBCHEM_COMPONENT_COUNT>
1

> <PUBCHEM_CACTVS_TAUTO_COUNT>
6

> <PUBCHEM_CONFORMER_ID>
0000279D00000001

> <PUBCHEM_MMFF94_ENERGY>
40.6743

> <PUBCHEM_FEATURE_SELFOVERLAP>
30.468

> <PUBCHEM_SHAPE_FINGERPRINT>
10967382 1 18410573998173574535
13140716 1 18410856606884430312
16945 1 18122624942242555278
193761 8 18410855464423129093
20588541 1 18123185701783839102
21501502 16 18410573985151457639
2334 1 18410573955086680068
23559900 14 18262225738709786078
241688 4 18410856594010103787
2748010 2 18410575088958046308
2897 32 18411979152427232061
66348 1 18266741474643200781

> <PUBCHEM_SHAPE_MULTIPOLES>
264.64
3.35
3.08
0.59
0.12
0
0
0
0
-0.07
0
0
0
0

> <PUBCHEM_SHAPE_SELFOVERLAP>
589.331

> <PUBCHEM_SHAPE_VOLUME>
139.7

> <PUBCHEM_COORDINATE_TYPE>
2
5
10

$$$$

