88125
  -OEChem-07051213092D

 29 30  0     0  0  0  0  0  0999 V2000
    4.5981    0.5670    0.0000 S   0  0  0  0  0  0  0  0  0  0  0  0
    4.0981   -0.2990    0.0000 O   0  0  0  0  0  0  0  0  0  0  0  0
    5.0981    1.4330    0.0000 O   0  0  0  0  0  0  0  0  0  0  0  0
    8.1424    0.3717    0.0000 N   0  0  0  0  0  0  0  0  0  0  0  0
    8.1424   -1.2377    0.0000 N   0  0  0  0  0  0  0  0  0  0  0  0
    9.7260   -0.4330    0.0000 N   0  0  0  0  0  0  0  0  0  0  0  0
    3.7320    1.0670    0.0000 C   0  0  0  0  0  0  0  0  0  0  0  0
    5.4641    0.0670    0.0000 C   0  0  0  0  0  0  0  0  0  0  0  0
    2.8660    0.5670    0.0000 C   0  0  0  0  0  0  0  0  0  0  0  0
    7.1962    0.0670    0.0000 C   0  0  0  0  0  0  0  0  0  0  0  0
    6.3301    0.5670    0.0000 C   0  0  0  0  0  0  0  0  0  0  0  0
    7.1962   -0.9330    0.0000 C   0  0  0  0  0  0  0  0  0  0  0  0
    5.4641   -0.9330    0.0000 C   0  0  0  0  0  0  0  0  0  0  0  0
    6.3301   -1.4330    0.0000 C   0  0  0  0  0  0  0  0  0  0  0  0
    2.0000    1.0670    0.0000 C   0  0  0  0  0  0  0  0  0  0  0  0
    8.7260   -0.4330    0.0000 C   0  0  0  0  0  0  0  0  0  0  0  0
    4.1306    1.5419    0.0000 H   0  0  0  0  0  0  0  0  0  0  0  0
    3.3335    1.5419    0.0000 H   0  0  0  0  0  0  0  0  0  0  0  0
    2.4675    0.0920    0.0000 H   0  0  0  0  0  0  0  0  0  0  0  0
    3.2646    0.0920    0.0000 H   0  0  0  0  0  0  0  0  0  0  0  0
    6.3301    1.1870    0.0000 H   0  0  0  0  0  0  0  0  0  0  0  0
    4.9272   -1.2430    0.0000 H   0  0  0  0  0  0  0  0  0  0  0  0
    6.3301   -2.0530    0.0000 H   0  0  0  0  0  0  0  0  0  0  0  0
    8.3350    0.9610    0.0000 H   0  0  0  0  0  0  0  0  0  0  0  0
    2.3100    1.6039    0.0000 H   0  0  0  0  0  0  0  0  0  0  0  0
    1.4631    1.3770    0.0000 H   0  0  0  0  0  0  0  0  0  0  0  0
    1.6900    0.5301    0.0000 H   0  0  0  0  0  0  0  0  0  0  0  0
   10.0360   -0.9699    0.0000 H   0  0  0  0  0  0  0  0  0  0  0  0
   10.0360    0.1039    0.0000 H   0  0  0  0  0  0  0  0  0  0  0  0
  1  2  2  0  0  0  0
  1  3  2  0  0  0  0
  1  7  1  0  0  0  0
  1  8  1  0  0  0  0
  4 10  1  0  0  0  0
  4 16  1  0  0  0  0
  4 24  1  0  0  0  0
  5 12  1  0  0  0  0
  5 16  2  0  0  0  0
  6 16  1  0  0  0  0
  6 28  1  0  0  0  0
  6 29  1  0  0  0  0
  7  9  1  0  0  0  0
  7 17  1  0  0  0  0
  7 18  1  0  0  0  0
  8 11  2  0  0  0  0
  8 13  1  0  0  0  0
  9 15  1  0  0  0  0
  9 19  1  0  0  0  0
  9 20  1  0  0  0  0
 10 11  1  0  0  0  0
 10 12  2  0  0  0  0
 11 21  1  0  0  0  0
 12 14  1  0  0  0  0
 13 14  2  0  0  0  0
 13 22  1  0  0  0  0
 14 23  1  0  0  0  0
 15 25  1  0  0  0  0
 15 26  1  0  0  0  0
 15 27  1  0  0  0  0
M  END
> <PUBCHEM_COMPOUND_CID>
88125

> <PUBCHEM_COMPOUND_CANONICALIZED>
1

> <PUBCHEM_CACTVS_COMPLEXITY>
339

> <PUBCHEM_CACTVS_HBOND_ACCEPTOR>
4

> <PUBCHEM_CACTVS_HBOND_DONOR>
2

> <PUBCHEM_CACTVS_ROTATABLE_BOND>
3

> <PUBCHEM_CACTVS_SUBSKEYS>
AAADccBzMABAAAAAAAAAAAAAAAAAAWAAAAAwAAAAAAAAAFgB8AAAHAQQAAAACAiFVgCz0bbJkAqgASRiZHDCgC2hGrAJmTgwdJiIaKLgmZGUIAxokAJoyCcQAAAAAAQAACAAACAACAAAQAAAQAAAAAAAAA==

> <PUBCHEM_IUPAC_OPENEYE_NAME>
6-propylsulfonyl-1H-benzimidazol-2-amine

> <PUBCHEM_IUPAC_CAS_NAME>
6-propylsulfonyl-1H-benzimidazol-2-amine

> <PUBCHEM_IUPAC_NAME>
6-propylsulfonyl-1H-benzimidazol-2-amine

> <PUBCHEM_IUPAC_SYSTEMATIC_NAME>
6-propylsulfonyl-1H-benzimidazol-2-amine

> <PUBCHEM_IUPAC_TRADITIONAL_NAME>
(6-propylsulfonyl-1H-benzimidazol-2-yl)amine

> <PUBCHEM_IUPAC_INCHI>
InChI=1S/C10H13N3O2S/c1-2-5-16(14,15)7-3-4-8-9(6-7)13-10(11)12-8/h3-4,6H,2,5H2,1H3,(H3,11,12,13)

> <PUBCHEM_IUPAC_INCHIKEY>
WTPBIYSMFKUQKY-UHFFFAOYSA-N

> <PUBCHEM_XLOGP3>
1.4

> <PUBCHEM_EXACT_MASS>
239.072848

> <PUBCHEM_MOLECULAR_FORMULA>
C10H13N3O2S

> <PUBCHEM_MOLECULAR_WEIGHT>
239.29412

> <PUBCHEM_OPENEYE_CAN_SMILES>
CCCS(=O)(=O)C1=CC2=C(C=C1)N=C(N2)N

> <PUBCHEM_OPENEYE_ISO_SMILES>
CCCS(=O)(=O)C1=CC2=C(C=C1)N=C(N2)N

> <PUBCHEM_CACTVS_TPSA>
97.2

> <PUBCHEM_MONOISOTOPIC_WEIGHT>
239.072848

> <PUBCHEM_TOTAL_CHARGE>
0

> <PUBCHEM_HEAVY_ATOM_COUNT>
16

> <PUBCHEM_ATOM_DEF_STEREO_COUNT>
0

> <PUBCHEM_ATOM_UDEF_STEREO_COUNT>
0

> <PUBCHEM_BOND_DEF_STEREO_COUNT>
0

> <PUBCHEM_BOND_UDEF_STEREO_COUNT>
0

> <PUBCHEM_ISOTOPIC_ATOM_COUNT>
0

> <PUBCHEM_COMPONENT_COUNT>
1

> <PUBCHEM_CACTVS_TAUTO_COUNT>
3

> <PUBCHEM_COORDINATE_TYPE>
1
5
255

> <PUBCHEM_BONDANNOTATIONS>
10  11  8
10  12  8
12  14  8
13  14  8
4  10  8
4  16  8
5  12  8
5  16  8
8  11  8
8  13  8

$$$$

