150875
  -OEChem-07051212463D

 12 11  0     0  0  0  0  0  0999 V2000
   -0.1575   -1.3749   -0.0045 O   0  0  0  0  0  0  0  0  0  0  0  0
    2.3293   -0.9627    0.0032 O   0  0  0  0  0  0  0  0  0  0  0  0
    1.9862    1.3055   -0.0245 O   0  0  0  0  0  0  0  0  0  0  0  0
   -2.7520   -0.5212   -0.0125 O   0  0  0  0  0  0  0  0  0  0  0  0
   -0.8340    0.9671    0.0245 C   0  0  0  0  0  0  0  0  0  0  0  0
    0.1323   -0.1881    0.0059 C   0  0  0  0  0  0  0  0  0  0  0  0
    1.5945    0.1566    0.0113 C   0  0  0  0  0  0  0  0  0  0  0  0
   -2.2986    0.6177   -0.0033 C   0  0  0  0  0  0  0  0  0  0  0  0
   -0.6582    1.5515    0.9335 H   0  0  0  0  0  0  0  0  0  0  0  0
   -0.6387    1.5944   -0.8516 H   0  0  0  0  0  0  0  0  0  0  0  0
   -2.9809    1.4855   -0.0101 H   0  0  0  0  0  0  0  0  0  0  0  0
    3.2919   -0.7755   -0.0178 H   0  0  0  0  0  0  0  0  0  0  0  0
  1  6  2  0  0  0  0
  2  7  1  0  0  0  0
  2 12  1  0  0  0  0
  3  7  2  0  0  0  0
  4  8  2  0  0  0  0
  5  6  1  0  0  0  0
  5  8  1  0  0  0  0
  5  9  1  0  0  0  0
  5 10  1  0  0  0  0
  6  7  1  0  0  0  0
  8 11  1  0  0  0  0
M  END
> <PUBCHEM_COMPOUND_CID>
150875

> <PUBCHEM_CONFORMER_RMSD>
0.6

> <PUBCHEM_CONFORMER_DIVERSEORDER>
1
2
5
4
3

> <PUBCHEM_MMFF94_PARTIAL_CHARGES>
10
1 -0.57
11 0.06
12 0.5
2 -0.65
3 -0.57
4 -0.57
5 0.12
6 0.51
7 0.72
8 0.45

> <PUBCHEM_EFFECTIVE_ROTOR_COUNT>
3

> <PUBCHEM_PHARMACOPHORE_FEATURES>
6
1 1 acceptor
1 2 acceptor
1 3 acceptor
1 4 acceptor
1 5 anion
3 2 3 7 anion

> <PUBCHEM_HEAVY_ATOM_COUNT>
8

> <PUBCHEM_ATOM_DEF_STEREO_COUNT>
0

> <PUBCHEM_ATOM_UDEF_STEREO_COUNT>
0

> <PUBCHEM_BOND_DEF_STEREO_COUNT>
0

> <PUBCHEM_BOND_UDEF_STEREO_COUNT>
0

> <PUBCHEM_ISOTOPIC_ATOM_COUNT>
0

> <PUBCHEM_COMPONENT_COUNT>
1

> <PUBCHEM_CACTVS_TAUTO_COUNT>
3

> <PUBCHEM_CONFORMER_ID>
00024D5B00000001

> <PUBCHEM_MMFF94_ENERGY>
7.94

> <PUBCHEM_FEATURE_SELFOVERLAP>
30.524

> <PUBCHEM_SHAPE_FINGERPRINT>
12897270 3 18412547643226055877
14325111 11 18410856559729648737
14390081 3 18334859385491197081
16714656 1 18409729534704716557
20096714 4 18411138043422836080
21040471 1 18338517443565237480
23552423 10 18343018917036174887
29004967 10 7997677718817990452
5084963 1 18334859454115455488
5460574 1 9295289443260486537

> <PUBCHEM_SHAPE_MULTIPOLES>
141.16
3.58
1.26
0.57
0.84
0.02
0
0.02
-0.02
-0.27
0
0.02
-0.02
-0.01

> <PUBCHEM_SHAPE_SELFOVERLAP>
271.466

> <PUBCHEM_SHAPE_VOLUME>
84.5

> <PUBCHEM_COORDINATE_TYPE>
2
5
10

$$$$

