205912
  -OEChem-07051213113D

 26 26  0     0  0  0  0  0  0999 V2000
   -0.1029    2.2630    0.1325 O   0  0  0  0  0  0  0  0  0  0  0  0
   -4.0062   -0.3534   -0.6617 O   0  0  0  0  0  0  0  0  0  0  0  0
    2.3498   -0.2046   -0.2630 C   0  0  0  0  0  0  0  0  0  0  0  0
    1.4005   -0.0335    0.9250 C   0  0  0  0  0  0  0  0  0  0  0  0
    3.8106   -0.1668    0.1855 C   0  0  0  0  0  0  0  0  0  0  0  0
   -0.0437   -0.1048    0.4991 C   0  0  0  0  0  0  0  0  0  0  0  0
   -0.7195    1.0481    0.1255 C   0  0  0  0  0  0  0  0  0  0  0  0
   -0.6766   -1.3400    0.4894 C   0  0  0  0  0  0  0  0  0  0  0  0
    4.7586   -0.3770   -0.9844 C   0  0  0  0  0  0  0  0  0  0  0  0
   -2.0557    0.9643   -0.2661 C   0  0  0  0  0  0  0  0  0  0  0  0
   -2.0127   -1.4237    0.0980 C   0  0  0  0  0  0  0  0  0  0  0  0
   -2.7023   -0.2715   -0.2798 C   0  0  0  0  0  0  0  0  0  0  0  0
    2.1738    0.5843   -1.0046 H   0  0  0  0  0  0  0  0  0  0  0  0
    2.1473   -1.1588   -0.7661 H   0  0  0  0  0  0  0  0  0  0  0  0
    1.6114    0.8913    1.4749 H   0  0  0  0  0  0  0  0  0  0  0  0
    1.5918   -0.8321    1.6553 H   0  0  0  0  0  0  0  0  0  0  0  0
    4.0294    0.7974    0.6587 H   0  0  0  0  0  0  0  0  0  0  0  0
    3.9907   -0.9454    0.9360 H   0  0  0  0  0  0  0  0  0  0  0  0
   -0.1491   -2.2446    0.7791 H   0  0  0  0  0  0  0  0  0  0  0  0
    4.6263    0.4027   -1.7413 H   0  0  0  0  0  0  0  0  0  0  0  0
    4.5878   -1.3489   -1.4583 H   0  0  0  0  0  0  0  0  0  0  0  0
    5.7974   -0.3444   -0.6412 H   0  0  0  0  0  0  0  0  0  0  0  0
   -2.5877    1.8660   -0.5596 H   0  0  0  0  0  0  0  0  0  0  0  0
   -2.5109   -2.3894    0.0886 H   0  0  0  0  0  0  0  0  0  0  0  0
    0.8613    2.1618    0.1336 H   0  0  0  0  0  0  0  0  0  0  0  0
   -4.3247    0.5371   -0.8889 H   0  0  0  0  0  0  0  0  0  0  0  0
  1  7  1  0  0  0  0
  1 25  1  0  0  0  0
  2 12  1  0  0  0  0
  2 26  1  0  0  0  0
  3  4  1  0  0  0  0
  3  5  1  0  0  0  0
  3 13  1  0  0  0  0
  3 14  1  0  0  0  0
  4  6  1  0  0  0  0
  4 15  1  0  0  0  0
  4 16  1  0  0  0  0
  5  9  1  0  0  0  0
  5 17  1  0  0  0  0
  5 18  1  0  0  0  0
  6  7  2  0  0  0  0
  6  8  1  0  0  0  0
  7 10  1  0  0  0  0
  8 11  2  0  0  0  0
  8 19  1  0  0  0  0
  9 20  1  0  0  0  0
  9 21  1  0  0  0  0
  9 22  1  0  0  0  0
 10 12  2  0  0  0  0
 10 23  1  0  0  0  0
 11 12  1  0  0  0  0
 11 24  1  0  0  0  0
M  END
> <PUBCHEM_COMPOUND_CID>
205912

> <PUBCHEM_CONFORMER_RMSD>
0.6

> <PUBCHEM_CONFORMER_DIVERSEORDER>
2
7
8
6
3
4
5
1

> <PUBCHEM_MMFF94_PARTIAL_CHARGES>
14
1 -0.53
10 -0.15
11 -0.15
12 0.08
19 0.15
2 -0.53
23 0.15
24 0.15
25 0.45
26 0.45
4 0.14
6 -0.14
7 0.08
8 -0.15

> <PUBCHEM_EFFECTIVE_ROTOR_COUNT>
3

> <PUBCHEM_PHARMACOPHORE_FEATURES>
4
1 1 donor
1 2 donor
1 9 hydrophobe
6 6 7 8 10 11 12 rings

> <PUBCHEM_HEAVY_ATOM_COUNT>
12

> <PUBCHEM_ATOM_DEF_STEREO_COUNT>
0

> <PUBCHEM_ATOM_UDEF_STEREO_COUNT>
0

> <PUBCHEM_BOND_DEF_STEREO_COUNT>
0

> <PUBCHEM_BOND_UDEF_STEREO_COUNT>
0

> <PUBCHEM_ISOTOPIC_ATOM_COUNT>
0

> <PUBCHEM_COMPONENT_COUNT>
1

> <PUBCHEM_CACTVS_TAUTO_COUNT>
9

> <PUBCHEM_CONFORMER_ID>
0003245800000002

> <PUBCHEM_MMFF94_ENERGY>
21.8095

> <PUBCHEM_FEATURE_SELFOVERLAP>
20.297

> <PUBCHEM_SHAPE_FINGERPRINT>
10465860 71 18412822460982345780
11206711 2 18270983313742505765
12032990 46 18337390448521031211
13024252 1 17346591980690012123
14911166 2 18341341024159644727
14993402 34 18131636685694014935
15775835 57 16988562416095195118
16945 1 18270136651139518243
187816 3 18343864419971443122
200 152 16877943862697190902
20201158 50 18187080663547797870
20645476 183 17561367257618445571
20871999 31 18412832403805353397
21061003 4 16805320003001476578
21119208 17 17989204845910309374
21293036 1 18272655644673076815
21501502 16 18119247517600732322
22213442 358 18264489486104090642
228727 97 18131351938168593680
22926399 37 16916779678499788028
23402539 116 18337679706083782532
23403322 49 17895467154932410222
23557571 272 18187639245825473284
23559900 14 18410578375594419480
2748010 2 17910688574705376411
528716 315 18343858909765779210
7364860 26 18045787779770310081

> <PUBCHEM_SHAPE_MULTIPOLES>
235.22
6.95
1.46
0.85
6.61
0.49
-0.01
-1.36
-2.6
-0.78
0.11
0.33
-0.06
0.12

> <PUBCHEM_SHAPE_SELFOVERLAP>
477.079

> <PUBCHEM_SHAPE_VOLUME>
138.2

> <PUBCHEM_COORDINATE_TYPE>
2
5
10

$$$$

