17396429
  -OEChem-06241222562D

 33 34  0     1  0  0  0  0  0999 V2000
    7.0255   -1.4190    0.0000 S   0  0  0  0  0  0  0  0  0  0  0  0
    2.9945   -2.9599    0.0000 S   0  0  0  0  0  0  0  0  0  0  0  0
    8.7576   -0.4190    0.0000 O   0  0  0  0  0  0  0  0  0  0  0  0
    9.6516    1.3598    0.0000 O   0  0  0  0  0  0  0  0  0  0  0  0
    5.2460   -1.5123    0.0000 O   0  0  0  0  0  0  0  0  0  0  0  0
    7.8916    1.0810    0.0000 N   0  0  0  0  0  0  0  0  0  0  0  0
    8.3916    2.6198    0.0000 N   0  0  0  0  0  0  0  0  0  0  0  0
    6.0550   -2.9135    0.0000 N   0  0  0  0  0  0  0  0  0  0  0  0
    5.0768   -3.1214    0.0000 N   0  0  0  0  0  0  0  0  0  0  0  0
    7.0825    1.6688    0.0000 C   0  0  0  0  0  0  0  0  0  0  0  0
    7.3916    2.6198    0.0000 C   0  0  0  0  0  0  0  0  0  0  0  0
    7.8916    0.0810    0.0000 C   0  0  0  0  0  0  0  0  0  0  0  0
    7.0255   -0.4190    0.0000 C   0  0  3  0  0  0  0  0  0  0  0  0
    8.7006    1.6688    0.0000 C   0  0  0  0  0  0  0  0  0  0  0  0
    6.1595    0.0810    0.0000 C   0  0  0  0  0  0  0  0  0  0  0  0
    6.1595   -1.9190    0.0000 C   0  0  0  0  0  0  0  0  0  0  0  0
    4.5768   -2.2554    0.0000 C   0  0  0  0  0  0  0  0  0  0  0  0
    3.5823   -2.1509    0.0000 C   0  0  0  0  0  0  0  0  0  0  0  0
    2.0000   -2.8554    0.0000 C   0  0  0  0  0  0  0  0  0  0  0  0
    6.5161    1.9210    0.0000 H   0  0  0  0  0  0  0  0  0  0  0  0
    6.7725    1.1318    0.0000 H   0  0  0  0  0  0  0  0  0  0  0  0
    7.4564    3.2364    0.0000 H   0  0  0  0  0  0  0  0  0  0  0  0
    6.7851    2.7487    0.0000 H   0  0  0  0  0  0  0  0  0  0  0  0
    6.4886   -0.7290    0.0000 H   0  0  0  0  0  0  0  0  0  0  0  0
    8.7560    3.1214    0.0000 H   0  0  0  0  0  0  0  0  0  0  0  0
    6.4695    0.6179    0.0000 H   0  0  0  0  0  0  0  0  0  0  0  0
    5.6226    0.3910    0.0000 H   0  0  0  0  0  0  0  0  0  0  0  0
    5.8495   -0.4559    0.0000 H   0  0  0  0  0  0  0  0  0  0  0  0
    3.7532   -1.5549    0.0000 H   0  0  0  0  0  0  0  0  0  0  0  0
    3.0250   -1.8791    0.0000 H   0  0  0  0  0  0  0  0  0  0  0  0
    2.0648   -2.2388    0.0000 H   0  0  0  0  0  0  0  0  0  0  0  0
    1.3834   -2.7906    0.0000 H   0  0  0  0  0  0  0  0  0  0  0  0
    1.9352   -3.4720    0.0000 H   0  0  0  0  0  0  0  0  0  0  0  0
  1 13  1  0  0  0  0
  1 16  1  0  0  0  0
  2 18  1  0  0  0  0
  2 19  1  0  0  0  0
  3 12  2  0  0  0  0
  4 14  2  0  0  0  0
  5 16  1  0  0  0  0
  5 17  1  0  0  0  0
  6 10  1  0  0  0  0
  6 12  1  0  0  0  0
  6 14  1  0  0  0  0
  7 11  1  0  0  0  0
  7 14  1  0  0  0  0
  7 25  1  0  0  0  0
  8  9  1  0  0  0  0
  8 16  2  0  0  0  0
  9 17  2  0  0  0  0
 10 11  1  0  0  0  0
 10 20  1  0  0  0  0
 10 21  1  0  0  0  0
 11 22  1  0  0  0  0
 11 23  1  0  0  0  0
 12 13  1  0  0  0  0
 13 15  1  0  0  0  0
 13 24  1  0  0  0  0
 15 26  1  0  0  0  0
 15 27  1  0  0  0  0
 15 28  1  0  0  0  0
 17 18  1  0  0  0  0
 18 29  1  0  0  0  0
 18 30  1  0  0  0  0
 19 31  1  0  0  0  0
 19 32  1  0  0  0  0
 19 33  1  0  0  0  0
M  END
> <PUBCHEM_COMPOUND_CID>
17396429

> <PUBCHEM_COMPOUND_CANONICALIZED>
1

> <PUBCHEM_CACTVS_COMPLEXITY>
358

> <PUBCHEM_CACTVS_HBOND_ACCEPTOR>
7

> <PUBCHEM_CACTVS_HBOND_DONOR>
1

> <PUBCHEM_CACTVS_ROTATABLE_BOND>
5

> <PUBCHEM_CACTVS_SUBSKEYS>
AAADccBzsABgAAAAAAAAAAAAAAAAAWLAAAAAAAAAAAAAAAABgAAAHgQYAAAACADFwgSDAAPABEgqAAEwEAAQAABIABASAIEYAACAQAAAAAAcAAAIHyKAAAAAAAAAAAAAAAAAAAAAAAAAAAAAAAAAAAAAAA==

> <PUBCHEM_IUPAC_OPENEYE_NAME>
1-[2-[[5-(methylsulfanylmethyl)-1,3,4-oxadiazol-2-yl]sulfanyl]propanoyl]imidazolidin-2-one

> <PUBCHEM_IUPAC_CAS_NAME>
1-[2-[[5-[(methylthio)methyl]-1,3,4-oxadiazol-2-yl]thio]-1-oxopropyl]-2-imidazolidinone

> <PUBCHEM_IUPAC_NAME>
1-[2-[[5-(methylsulfanylmethyl)-1,3,4-oxadiazol-2-yl]sulfanyl]propanoyl]imidazolidin-2-one

> <PUBCHEM_IUPAC_SYSTEMATIC_NAME>
1-[2-[[5-(methylsulfanylmethyl)-1,3,4-oxadiazol-2-yl]sulfanyl]propanoyl]imidazolidin-2-one

> <PUBCHEM_IUPAC_TRADITIONAL_NAME>
1-[2-[[5-[(methylthio)methyl]-1,3,4-oxadiazol-2-yl]thio]propanoyl]-2-imidazolidinone

> <PUBCHEM_IUPAC_INCHI>
InChI=1S/C10H14N4O3S2/c1-6(8(15)14-4-3-11-9(14)16)19-10-13-12-7(17-10)5-18-2/h6H,3-5H2,1-2H3,(H,11,16)

> <PUBCHEM_IUPAC_INCHIKEY>
FEUJIWALYPIAFI-UHFFFAOYSA-N

> <PUBCHEM_XLOGP3_AA>
0.4

> <PUBCHEM_EXACT_MASS>
302.050732

> <PUBCHEM_MOLECULAR_FORMULA>
C10H14N4O3S2

> <PUBCHEM_MOLECULAR_WEIGHT>
302.37316

> <PUBCHEM_OPENEYE_CAN_SMILES>
CC(C(=O)N1CCNC1=O)SC2=NN=C(O2)CSC

> <PUBCHEM_OPENEYE_ISO_SMILES>
CC(C(=O)N1CCNC1=O)SC2=NN=C(O2)CSC

> <PUBCHEM_CACTVS_TPSA>
139

> <PUBCHEM_MONOISOTOPIC_WEIGHT>
302.050732

> <PUBCHEM_TOTAL_CHARGE>
0

> <PUBCHEM_HEAVY_ATOM_COUNT>
19

> <PUBCHEM_ATOM_DEF_STEREO_COUNT>
0

> <PUBCHEM_ATOM_UDEF_STEREO_COUNT>
1

> <PUBCHEM_BOND_DEF_STEREO_COUNT>
0

> <PUBCHEM_BOND_UDEF_STEREO_COUNT>
0

> <PUBCHEM_ISOTOPIC_ATOM_COUNT>
0

> <PUBCHEM_COMPONENT_COUNT>
1

> <PUBCHEM_CACTVS_TAUTO_COUNT>
2

> <PUBCHEM_COORDINATE_TYPE>
1
5
255

> <PUBCHEM_BONDANNOTATIONS>
13  15  3
5  16  8
5  17  8
8  16  8
8  9  8
9  17  8

$$$$

