228863
  -OEChem-07051213053D

 51 54  0     1  0  0  0  0  0999 V2000
    5.4959    0.1825    0.7357 O   0  0  0  0  0  0  0  0  0  0  0  0
   -6.1618    0.2420   -0.7120 O   0  0  0  0  0  0  0  0  0  0  0  0
    1.4449   -0.9677   -0.4425 C   0  0  1  0  0  0  0  0  0  0  0  0
    0.0426   -0.9752    0.1595 C   0  0  1  0  0  0  0  0  0  0  0  0
    2.2824    0.2159    0.1120 C   0  0  1  0  0  0  0  0  0  0  0  0
   -0.6950    0.3120   -0.3364 C   0  0  1  0  0  0  0  0  0  0  0  0
   -2.1006    0.4787    0.3541 C   0  0  2  0  0  0  0  0  0  0  0  0
    3.5858   -0.0428   -0.6748 C   0  0  2  0  0  0  0  0  0  0  0  0
    2.3708   -2.1629   -0.2801 C   0  0  0  0  0  0  0  0  0  0  0  0
   -0.7900   -2.2050   -0.1988 C   0  0  0  0  0  0  0  0  0  0  0  0
    3.7550   -1.5800   -0.6282 C   0  0  0  0  0  0  0  0  0  0  0  0
    1.5458    1.5011   -0.1668 C   0  0  0  0  0  0  0  0  0  0  0  0
    0.2111    1.5413   -0.3327 C   0  0  0  0  0  0  0  0  0  0  0  0
   -2.8887   -0.8348    0.2043 C   0  0  0  0  0  0  0  0  0  0  0  0
   -2.1516   -2.1272    0.4911 C   0  0  0  0  0  0  0  0  0  0  0  0
    2.5285    0.1711    1.6425 C   0  0  0  0  0  0  0  0  0  0  0  0
   -2.8689    1.6364   -0.3503 C   0  0  0  0  0  0  0  0  0  0  0  0
   -1.9571    0.8138    1.8555 C   0  0  0  0  0  0  0  0  0  0  0  0
    4.7883    0.6739   -0.1421 C   0  0  0  0  0  0  0  0  0  0  0  0
   -4.3574    1.6621   -0.0392 C   0  0  0  0  0  0  0  0  0  0  0  0
   -4.1818   -0.8920   -0.1570 C   0  0  0  0  0  0  0  0  0  0  0  0
   -4.9879    0.3333   -0.3583 C   0  0  0  0  0  0  0  0  0  0  0  0
    5.0895    2.0236   -0.7355 C   0  0  0  0  0  0  0  0  0  0  0  0
    1.3175   -0.8389   -1.5319 H   0  0  0  0  0  0  0  0  0  0  0  0
    0.1335   -0.9629    1.2502 H   0  0  0  0  0  0  0  0  0  0  0  0
   -0.9046    0.1512   -1.4077 H   0  0  0  0  0  0  0  0  0  0  0  0
    3.4596    0.2467   -1.7276 H   0  0  0  0  0  0  0  0  0  0  0  0
    2.1047   -2.9864   -0.9505 H   0  0  0  0  0  0  0  0  0  0  0  0
    2.3576   -2.5507    0.7440 H   0  0  0  0  0  0  0  0  0  0  0  0
   -0.2794   -3.1192    0.1248 H   0  0  0  0  0  0  0  0  0  0  0  0
   -0.9211   -2.2777   -1.2857 H   0  0  0  0  0  0  0  0  0  0  0  0
    4.4958   -1.9279    0.0992 H   0  0  0  0  0  0  0  0  0  0  0  0
    4.0831   -1.9431   -1.6094 H   0  0  0  0  0  0  0  0  0  0  0  0
    2.1027    2.4320   -0.1868 H   0  0  0  0  0  0  0  0  0  0  0  0
   -0.2398    2.5077   -0.5370 H   0  0  0  0  0  0  0  0  0  0  0  0
   -2.0130   -2.2143    1.5762 H   0  0  0  0  0  0  0  0  0  0  0  0
   -2.7446   -2.9988    0.1873 H   0  0  0  0  0  0  0  0  0  0  0  0
    3.0341   -0.7444    1.9642 H   0  0  0  0  0  0  0  0  0  0  0  0
    3.1494    1.0156    1.9664 H   0  0  0  0  0  0  0  0  0  0  0  0
    1.5977    0.2468    2.2150 H   0  0  0  0  0  0  0  0  0  0  0  0
   -2.7521    1.5426   -1.4392 H   0  0  0  0  0  0  0  0  0  0  0  0
   -2.4443    2.6090   -0.0747 H   0  0  0  0  0  0  0  0  0  0  0  0
   -1.4058    0.0454    2.4058 H   0  0  0  0  0  0  0  0  0  0  0  0
   -1.4314    1.7635    2.0028 H   0  0  0  0  0  0  0  0  0  0  0  0
   -2.9342    0.9031    2.3432 H   0  0  0  0  0  0  0  0  0  0  0  0
   -4.8380    2.4307   -0.6548 H   0  0  0  0  0  0  0  0  0  0  0  0
   -4.5506    1.8995    1.0115 H   0  0  0  0  0  0  0  0  0  0  0  0
   -4.7028   -1.8374   -0.2678 H   0  0  0  0  0  0  0  0  0  0  0  0
    5.0745    1.9661   -1.8267 H   0  0  0  0  0  0  0  0  0  0  0  0
    4.3650    2.7594   -0.3838 H   0  0  0  0  0  0  0  0  0  0  0  0
    6.0896    2.3399   -0.4250 H   0  0  0  0  0  0  0  0  0  0  0  0
  1 19  2  0  0  0  0
  2 22  2  0  0  0  0
  3  4  1  0  0  0  0
  3  5  1  0  0  0  0
  3  9  1  0  0  0  0
  3 24  1  0  0  0  0
  4  6  1  0  0  0  0
  4 10  1  0  0  0  0
  4 25  1  0  0  0  0
  5  8  1  0  0  0  0
  5 12  1  0  0  0  0
  5 16  1  0  0  0  0
  6  7  1  0  0  0  0
  6 13  1  0  0  0  0
  6 26  1  0  0  0  0
  7 14  1  0  0  0  0
  7 17  1  0  0  0  0
  7 18  1  0  0  0  0
  8 11  1  0  0  0  0
  8 19  1  0  0  0  0
  8 27  1  0  0  0  0
  9 11  1  0  0  0  0
  9 28  1  0  0  0  0
  9 29  1  0  0  0  0
 10 15  1  0  0  0  0
 10 30  1  0  0  0  0
 10 31  1  0  0  0  0
 11 32  1  0  0  0  0
 11 33  1  0  0  0  0
 12 13  2  0  0  0  0
 12 34  1  0  0  0  0
 13 35  1  0  0  0  0
 14 15  1  0  0  0  0
 14 21  2  0  0  0  0
 15 36  1  0  0  0  0
 15 37  1  0  0  0  0
 16 38  1  0  0  0  0
 16 39  1  0  0  0  0
 16 40  1  0  0  0  0
 17 20  1  0  0  0  0
 17 41  1  0  0  0  0
 17 42  1  0  0  0  0
 18 43  1  0  0  0  0
 18 44  1  0  0  0  0
 18 45  1  0  0  0  0
 19 23  1  0  0  0  0
 20 22  1  0  0  0  0
 20 46  1  0  0  0  0
 20 47  1  0  0  0  0
 21 22  1  0  0  0  0
 21 48  1  0  0  0  0
 23 49  1  0  0  0  0
 23 50  1  0  0  0  0
 23 51  1  0  0  0  0
M  END
> <PUBCHEM_COMPOUND_CID>
228863

> <PUBCHEM_CONFORMER_RMSD>
0.6

> <PUBCHEM_CONFORMER_DIVERSEORDER>
1
2

> <PUBCHEM_MMFF94_PARTIAL_CHARGES>
18
1 -0.57
12 -0.29
13 -0.29
14 -0.28
15 0.14
19 0.45
2 -0.57
20 0.06
21 -0.14
22 0.49
23 0.06
34 0.15
35 0.15
48 0.15
5 0.14
6 0.14
7 0.14
8 0.06

> <PUBCHEM_EFFECTIVE_ROTOR_COUNT>
2.4

> <PUBCHEM_PHARMACOPHORE_FEATURES>
6
1 1 acceptor
1 2 acceptor
5 3 5 8 9 11 rings
6 3 4 5 6 12 13 rings
6 4 6 7 10 14 15 rings
6 7 14 17 20 21 22 rings

> <PUBCHEM_HEAVY_ATOM_COUNT>
23

> <PUBCHEM_ATOM_DEF_STEREO_COUNT>
6

> <PUBCHEM_ATOM_UDEF_STEREO_COUNT>
0

> <PUBCHEM_BOND_DEF_STEREO_COUNT>
0

> <PUBCHEM_BOND_UDEF_STEREO_COUNT>
0

> <PUBCHEM_ISOTOPIC_ATOM_COUNT>
0

> <PUBCHEM_COMPONENT_COUNT>
1

> <PUBCHEM_CACTVS_TAUTO_COUNT>
15

> <PUBCHEM_CONFORMER_ID>
00037DFF00000001

> <PUBCHEM_MMFF94_ENERGY>
69.0077

> <PUBCHEM_FEATURE_SELFOVERLAP>
30.552

> <PUBCHEM_SHAPE_FINGERPRINT>
10366900 7 17530681000361986226
10498660 4 18411414029494782516
10906281 52 18263062410416729109
11132069 177 18413102870907309222
11315181 36 18113331986514447632
11370993 70 18409730655438291478
11578080 2 16734969817335853011
12011746 2 18334855021830427998
12107183 9 17542497683759268801
12236239 1 17632581526374531994
12403259 415 18199465635790653661
12403260 363 18265337402705679219
12403814 3 17560805428524446477
12596602 18 17203609250814916257
12788726 201 18115026423779264465
13140716 1 17977093561731586275
13224815 77 18113335336092949186
13533116 47 17822573909986456231
14528608 73 18409444769994300956
14790565 3 18412539916290246820
15196674 1 18410571816293414447
15238133 3 15338837607342294423
15375358 24 18413384341415102630
15536298 74 18334294305123097239
15788980 27 15626223515803981060
1601671 61 18411418397645327620
16945 1 18337955567417106087
17349148 13 18260831522809182159
18608769 82 18340201878853625971
200 152 17749111101902542533
20645477 70 17968656137549908174
21033648 29 17894925026479026961
21267235 1 18338225050607950999
21279426 13 18194119840046592021
21421861 104 17773890855677379154
22182313 1 18191561155987800703
23402539 116 18335709312564332495
23402655 69 18259703414993899895
23559900 14 18262242105690999185
296302 2 18272368672270135067
3004659 81 18342737464220167966
3286 77 17459196333708164554
335352 9 18411698795065223838
34797466 226 17604138234485652348
34934 24 18413110537281819590
350125 39 18337665313806732961
3545911 37 18408039606554486167
4072396 5 18340497720358512226
474 4 17273969152219472196
495365 180 17458639895057130282
5104073 3 18411414059332733491
5283173 99 18200317752532913861
542803 24 17749385979487941033
69090 78 18408042922744265295
9709674 26 18410005516334398863

> <PUBCHEM_SHAPE_MULTIPOLES>
461.59
11.23
2.2
1.03
0.87
0.52
0.44
-3.27
-1.71
-0.34
-0.26
-0.15
-0.15
0.06

> <PUBCHEM_SHAPE_SELFOVERLAP>
994.133

> <PUBCHEM_SHAPE_VOLUME>
253.1

> <PUBCHEM_COORDINATE_TYPE>
2
5
10

$$$$

