47205722
  -OEChem-06241223002D

 33 34  0     0  0  0  0  0  0999 V2000
    2.0000   -0.8747    0.0000 Cl  0  0  0  0  0  0  0  0  0  0  0  0
    3.7601   -1.1535    0.0000 S   0  0  0  0  0  0  0  0  0  0  0  0
    9.4438    1.4928    0.0000 O   0  0  0  0  0  0  0  0  0  0  0  0
    7.4223   -1.4928    0.0000 O   0  0  0  0  0  0  0  0  0  0  0  0
    8.9086   -0.1545    0.0000 N   0  0  0  0  0  0  0  0  0  0  0  0
    6.2633   -0.2056    0.0000 N   0  0  0  0  0  0  0  0  0  0  0  0
   10.6028    0.2056    0.0000 C   0  0  0  0  0  0  0  0  0  0  0  0
   11.2719   -0.5375    0.0000 C   0  0  0  0  0  0  0  0  0  0  0  0
   11.5809    0.4135    0.0000 C   0  0  0  0  0  0  0  0  0  0  0  0
    9.6517    0.5146    0.0000 C   0  0  0  0  0  0  0  0  0  0  0  0
    7.9575    0.1545    0.0000 C   0  0  0  0  0  0  0  0  0  0  0  0
    7.2144   -0.5146    0.0000 C   0  0  0  0  0  0  0  0  0  0  0  0
    5.5202   -0.8747    0.0000 C   0  0  0  0  0  0  0  0  0  0  0  0
    4.5691   -0.5657    0.0000 C   0  0  0  0  0  0  0  0  0  0  0  0
    6.0554    0.7725    0.0000 C   0  0  0  0  0  0  0  0  0  0  0  0
    4.2601    0.3853    0.0000 C   0  0  0  0  0  0  0  0  0  0  0  0
    3.2601    0.3853    0.0000 C   0  0  0  0  0  0  0  0  0  0  0  0
    2.9511   -0.5657    0.0000 C   0  0  0  0  0  0  0  0  0  0  0  0
   10.2651   -0.3144    0.0000 H   0  0  0  0  0  0  0  0  0  0  0  0
   12.1949    0.3272    0.0000 H   0  0  0  0  0  0  0  0  0  0  0  0
   11.5593    1.0331    0.0000 H   0  0  0  0  0  0  0  0  0  0  0  0
   10.8902   -1.0261    0.0000 H   0  0  0  0  0  0  0  0  0  0  0  0
   11.8193   -0.8286    0.0000 H   0  0  0  0  0  0  0  0  0  0  0  0
    9.0374   -0.7610    0.0000 H   0  0  0  0  0  0  0  0  0  0  0  0
    8.2486    0.7019    0.0000 H   0  0  0  0  0  0  0  0  0  0  0  0
    7.4689    0.5362    0.0000 H   0  0  0  0  0  0  0  0  0  0  0  0
    5.2291   -1.4222    0.0000 H   0  0  0  0  0  0  0  0  0  0  0  0
    6.0087   -1.2564    0.0000 H   0  0  0  0  0  0  0  0  0  0  0  0
    6.6618    0.9014    0.0000 H   0  0  0  0  0  0  0  0  0  0  0  0
    5.9265    1.3790    0.0000 H   0  0  0  0  0  0  0  0  0  0  0  0
    5.4489    0.6436    0.0000 H   0  0  0  0  0  0  0  0  0  0  0  0
    4.6245    0.8869    0.0000 H   0  0  0  0  0  0  0  0  0  0  0  0
    2.8956    0.8869    0.0000 H   0  0  0  0  0  0  0  0  0  0  0  0
  1 18  1  0  0  0  0
  2 14  1  0  0  0  0
  2 18  1  0  0  0  0
  3 10  2  0  0  0  0
  4 12  2  0  0  0  0
  5 10  1  0  0  0  0
  5 11  1  0  0  0  0
  5 24  1  0  0  0  0
  6 12  1  0  0  0  0
  6 13  1  0  0  0  0
  6 15  1  0  0  0  0
  7  8  1  0  0  0  0
  7  9  1  0  0  0  0
  7 10  1  0  0  0  0
  7 19  1  0  0  0  0
  8  9  1  0  0  0  0
  8 22  1  0  0  0  0
  8 23  1  0  0  0  0
  9 20  1  0  0  0  0
  9 21  1  0  0  0  0
 11 12  1  0  0  0  0
 11 25  1  0  0  0  0
 11 26  1  0  0  0  0
 13 14  1  0  0  0  0
 13 27  1  0  0  0  0
 13 28  1  0  0  0  0
 14 16  2  0  0  0  0
 15 29  1  0  0  0  0
 15 30  1  0  0  0  0
 15 31  1  0  0  0  0
 16 17  1  0  0  0  0
 16 32  1  0  0  0  0
 17 18  2  0  0  0  0
 17 33  1  0  0  0  0
M  END
> <PUBCHEM_COMPOUND_CID>
47205722

> <PUBCHEM_COMPOUND_CANONICALIZED>
1

> <PUBCHEM_CACTVS_COMPLEXITY>
336

> <PUBCHEM_CACTVS_HBOND_ACCEPTOR>
3

> <PUBCHEM_CACTVS_HBOND_DONOR>
1

> <PUBCHEM_CACTVS_ROTATABLE_BOND>
5

> <PUBCHEM_CACTVS_SUBSKEYS>
AAADccBzMABEAAAAAAAAAAAAGAAAASAAAAAAAAAAAAAAAAABgAAAHgYQAAAADQLB0CQyAYPAAAiMACFSEACDAIAgDRBIiJmIBogIYDKhkzGUAAhglgCoiAYQAAAAAAAAAAAAAAAAAAAAAAAAAAAAAAAAAA==

> <PUBCHEM_IUPAC_OPENEYE_NAME>
N-[2-[(5-chloro-2-thienyl)methyl-methyl-amino]-2-oxo-ethyl]cyclopropanecarboxamide

> <PUBCHEM_IUPAC_CAS_NAME>
N-[2-[(5-chloro-2-thiophenyl)methyl-methylamino]-2-oxoethyl]cyclopropanecarboxamide

> <PUBCHEM_IUPAC_NAME>
N-[2-[(5-chlorothiophen-2-yl)methyl-methylamino]-2-oxoethyl]cyclopropanecarboxamide

> <PUBCHEM_IUPAC_SYSTEMATIC_NAME>
N-[2-[(5-chloranylthiophen-2-yl)methyl-methyl-amino]-2-oxidanylidene-ethyl]cyclopropanecarboxamide

> <PUBCHEM_IUPAC_TRADITIONAL_NAME>
N-[2-[(5-chloro-2-thienyl)methyl-methyl-amino]-2-keto-ethyl]cyclopropanecarboxamide

> <PUBCHEM_IUPAC_INCHI>
InChI=1S/C12H15ClN2O2S/c1-15(7-9-4-5-10(13)18-9)11(16)6-14-12(17)8-2-3-8/h4-5,8H,2-3,6-7H2,1H3,(H,14,17)

> <PUBCHEM_IUPAC_INCHIKEY>
MQCAATAUOCKLSK-UHFFFAOYSA-N

> <PUBCHEM_XLOGP3_AA>
1.7

> <PUBCHEM_EXACT_MASS>
286.054276

> <PUBCHEM_MOLECULAR_FORMULA>
C12H15ClN2O2S

> <PUBCHEM_MOLECULAR_WEIGHT>
286.7777

> <PUBCHEM_OPENEYE_CAN_SMILES>
CN(CC1=CC=C(S1)Cl)C(=O)CNC(=O)C2CC2

> <PUBCHEM_OPENEYE_ISO_SMILES>
CN(CC1=CC=C(S1)Cl)C(=O)CNC(=O)C2CC2

> <PUBCHEM_CACTVS_TPSA>
77.6

> <PUBCHEM_MONOISOTOPIC_WEIGHT>
286.054276

> <PUBCHEM_TOTAL_CHARGE>
0

> <PUBCHEM_HEAVY_ATOM_COUNT>
18

> <PUBCHEM_ATOM_DEF_STEREO_COUNT>
0

> <PUBCHEM_ATOM_UDEF_STEREO_COUNT>
0

> <PUBCHEM_BOND_DEF_STEREO_COUNT>
0

> <PUBCHEM_BOND_UDEF_STEREO_COUNT>
0

> <PUBCHEM_ISOTOPIC_ATOM_COUNT>
0

> <PUBCHEM_COMPONENT_COUNT>
1

> <PUBCHEM_CACTVS_TAUTO_COUNT>
2

> <PUBCHEM_COORDINATE_TYPE>
1
5
255

> <PUBCHEM_BONDANNOTATIONS>
14  16  8
16  17  8
17  18  8
2  14  8
2  18  8

$$$$

