4250
  -OEChem-06251223592D

 31 32  0     0  0  0  0  0  0999 V2000
    3.4782   -1.3933    0.0000 S   0  0  0  0  0  0  0  0  0  0  0  0
    7.0468   -0.3988    0.0000 N   0  0  0  0  0  0  0  0  0  0  0  0
    6.1808    1.1012    0.0000 N   0  0  0  0  0  0  0  0  0  0  0  0
    7.9128    0.1012    0.0000 C   0  0  0  0  0  0  0  0  0  0  0  0
    7.9128    1.1012    0.0000 C   0  0  0  0  0  0  0  0  0  0  0  0
    7.0468    1.6012    0.0000 C   0  0  0  0  0  0  0  0  0  0  0  0
    6.1808    0.1012    0.0000 C   0  0  0  0  0  0  0  0  0  0  0  0
    7.0468   -1.3988    0.0000 C   0  0  0  0  0  0  0  0  0  0  0  0
    5.3147   -0.3988    0.0000 C   0  0  0  0  0  0  0  0  0  0  0  0
    4.4487    0.1012    0.0000 C   0  0  0  0  0  0  0  0  0  0  0  0
    3.5827   -0.3988    0.0000 C   0  0  0  0  0  0  0  0  0  0  0  0
    2.6691    0.0080    0.0000 C   0  0  0  0  0  0  0  0  0  0  0  0
    2.0000   -0.7352    0.0000 C   0  0  0  0  0  0  0  0  0  0  0  0
    2.4612    0.9861    0.0000 C   0  0  0  0  0  0  0  0  0  0  0  0
    2.5000   -1.6012    0.0000 C   0  0  0  0  0  0  0  0  0  0  0  0
    8.1249   -0.4814    0.0000 H   0  0  0  0  0  0  0  0  0  0  0  0
    8.5234    0.2089    0.0000 H   0  0  0  0  0  0  0  0  0  0  0  0
    8.5234    0.9936    0.0000 H   0  0  0  0  0  0  0  0  0  0  0  0
    8.1249    1.6838    0.0000 H   0  0  0  0  0  0  0  0  0  0  0  0
    7.4453    2.0762    0.0000 H   0  0  0  0  0  0  0  0  0  0  0  0
    6.6482    2.0762    0.0000 H   0  0  0  0  0  0  0  0  0  0  0  0
    6.4268   -1.3988    0.0000 H   0  0  0  0  0  0  0  0  0  0  0  0
    7.0468   -2.0188    0.0000 H   0  0  0  0  0  0  0  0  0  0  0  0
    7.6668   -1.3988    0.0000 H   0  0  0  0  0  0  0  0  0  0  0  0
    5.3147   -1.0188    0.0000 H   0  0  0  0  0  0  0  0  0  0  0  0
    4.4487    0.7212    0.0000 H   0  0  0  0  0  0  0  0  0  0  0  0
    1.3834   -0.6704    0.0000 H   0  0  0  0  0  0  0  0  0  0  0  0
    3.0677    1.1150    0.0000 H   0  0  0  0  0  0  0  0  0  0  0  0
    2.3323    1.5926    0.0000 H   0  0  0  0  0  0  0  0  0  0  0  0
    1.8548    0.8572    0.0000 H   0  0  0  0  0  0  0  0  0  0  0  0
    2.2478   -2.1676    0.0000 H   0  0  0  0  0  0  0  0  0  0  0  0
  1 11  1  0  0  0  0
  1 15  1  0  0  0  0
  2  4  1  0  0  0  0
  2  7  1  0  0  0  0
  2  8  1  0  0  0  0
  3  6  1  0  0  0  0
  3  7  2  0  0  0  0
  4  5  1  0  0  0  0
  4 16  1  0  0  0  0
  4 17  1  0  0  0  0
  5  6  1  0  0  0  0
  5 18  1  0  0  0  0
  5 19  1  0  0  0  0
  6 20  1  0  0  0  0
  6 21  1  0  0  0  0
  7  9  1  0  0  0  0
  8 22  1  0  0  0  0
  8 23  1  0  0  0  0
  8 24  1  0  0  0  0
  9 10  2  3  0  0  0
  9 25  1  0  0  0  0
 10 11  1  0  0  0  0
 10 26  1  0  0  0  0
 11 12  2  0  0  0  0
 12 13  1  0  0  0  0
 12 14  1  0  0  0  0
 13 15  2  0  0  0  0
 13 27  1  0  0  0  0
 14 28  1  0  0  0  0
 14 29  1  0  0  0  0
 14 30  1  0  0  0  0
 15 31  1  0  0  0  0
M  END
> <PUBCHEM_COMPOUND_CID>
4250

> <PUBCHEM_COMPOUND_CANONICALIZED>
1

> <PUBCHEM_CACTVS_COMPLEXITY>
273

> <PUBCHEM_CACTVS_HBOND_ACCEPTOR>
2

> <PUBCHEM_CACTVS_HBOND_DONOR>
0

> <PUBCHEM_CACTVS_ROTATABLE_BOND>
2

> <PUBCHEM_CACTVS_SUBSKEYS>
AAADceBzAABAAAAAAAAAAAAAAAAAASAAAAAgAAAAAAAAAAABgAAAHAQAAAAADADFWASzAYMAAAikAiJiJACDAIEgCBBJiBgYAJgIICKgWRCEAAAggACoiAYAAAAKAAAAAAAAAAAAAAAAAAAAAAAAAAAAAA==

> <PUBCHEM_IUPAC_OPENEYE_NAME>
1-methyl-2-[2-(3-methyl-2-thienyl)vinyl]-5,6-dihydro-4H-pyrimidine

> <PUBCHEM_IUPAC_CAS_NAME>
1-methyl-2-[2-(3-methyl-2-thiophenyl)ethenyl]-5,6-dihydro-4H-pyrimidine

> <PUBCHEM_IUPAC_NAME>
1-methyl-2-[2-(3-methylthiophen-2-yl)ethenyl]-5,6-dihydro-4H-pyrimidine

> <PUBCHEM_IUPAC_SYSTEMATIC_NAME>
1-methyl-2-[2-(3-methylthiophen-2-yl)ethenyl]-5,6-dihydro-4H-pyrimidine

> <PUBCHEM_IUPAC_TRADITIONAL_NAME>
1-methyl-2-[2-(3-methyl-2-thienyl)vinyl]-5,6-dihydro-4H-pyrimidine

> <PUBCHEM_IUPAC_INCHI>
InChI=1S/C12H16N2S/c1-10-6-9-15-11(10)4-5-12-13-7-3-8-14(12)2/h4-6,9H,3,7-8H2,1-2H3

> <PUBCHEM_IUPAC_INCHIKEY>
NVEPPWDVLBMNMB-UHFFFAOYSA-N

> <PUBCHEM_XLOGP3_AA>
1.9

> <PUBCHEM_EXACT_MASS>
220.10342

> <PUBCHEM_MOLECULAR_FORMULA>
C12H16N2S

> <PUBCHEM_MOLECULAR_WEIGHT>
220.33384

> <PUBCHEM_OPENEYE_CAN_SMILES>
CC1=C(SC=C1)C=CC2=NCCCN2C

> <PUBCHEM_OPENEYE_ISO_SMILES>
CC1=C(SC=C1)C=CC2=NCCCN2C

> <PUBCHEM_CACTVS_TPSA>
43.8

> <PUBCHEM_MONOISOTOPIC_WEIGHT>
220.10342

> <PUBCHEM_TOTAL_CHARGE>
0

> <PUBCHEM_HEAVY_ATOM_COUNT>
15

> <PUBCHEM_ATOM_DEF_STEREO_COUNT>
0

> <PUBCHEM_ATOM_UDEF_STEREO_COUNT>
0

> <PUBCHEM_BOND_DEF_STEREO_COUNT>
0

> <PUBCHEM_BOND_UDEF_STEREO_COUNT>
1

> <PUBCHEM_ISOTOPIC_ATOM_COUNT>
0

> <PUBCHEM_COMPONENT_COUNT>
1

> <PUBCHEM_CACTVS_TAUTO_COUNT>
3

> <PUBCHEM_COORDINATE_TYPE>
1
5
255

> <PUBCHEM_BONDANNOTATIONS>
1  11  8
1  15  8
11  12  8
12  13  8
13  15  8
9  10  1

$$$$

