72386
  -OEChem-07051212553D

 23 23  0     0  0  0  0  0  0999 V2000
   -2.4829    1.5885   -0.6055 S   0  0  0  0  0  0  0  0  0  0  0  0
   -0.8580    1.6866    0.6616 S   0  0  0  0  0  0  0  0  0  0  0  0
   -2.2222   -1.0196    0.0571 C   0  0  0  0  0  0  0  0  0  0  0  0
   -0.7743   -0.9236   -0.0377 C   0  0  0  0  0  0  0  0  0  0  0  0
   -3.0674    0.0069   -0.1554 C   0  0  0  0  0  0  0  0  0  0  0  0
   -0.0713    0.2021    0.1891 C   0  0  0  0  0  0  0  0  0  0  0  0
   -4.4721   -0.2065   -0.0724 C   0  0  0  0  0  0  0  0  0  0  0  0
    1.3493    0.1764    0.1041 C   0  0  0  0  0  0  0  0  0  0  0  0
   -5.6572   -0.3864   -0.0025 C   0  0  0  0  0  0  0  0  0  0  0  0
   -7.1004   -0.6055    0.0827 C   0  0  0  0  0  0  0  0  0  0  0  0
    2.5474    0.1540    0.0329 C   0  0  0  0  0  0  0  0  0  0  0  0
    3.9170    0.1288   -0.0486 C   0  0  0  0  0  0  0  0  0  0  0  0
    6.5323    0.0871   -0.2062 C   0  0  0  0  0  0  0  0  0  0  0  0
    5.1153    0.1067   -0.1197 C   0  0  0  0  0  0  0  0  0  0  0  0
    7.2444   -0.9956    0.1206 C   0  0  0  0  0  0  0  0  0  0  0  0
   -2.6032   -2.0104    0.2954 H   0  0  0  0  0  0  0  0  0  0  0  0
   -0.2668   -1.8523   -0.2895 H   0  0  0  0  0  0  0  0  0  0  0  0
   -7.3814   -0.9651    1.0771 H   0  0  0  0  0  0  0  0  0  0  0  0
   -7.6469    0.3227   -0.1096 H   0  0  0  0  0  0  0  0  0  0  0  0
   -7.4251   -1.3490   -0.6513 H   0  0  0  0  0  0  0  0  0  0  0  0
    7.0402    0.9825   -0.5487 H   0  0  0  0  0  0  0  0  0  0  0  0
    8.3265   -0.9816    0.0445 H   0  0  0  0  0  0  0  0  0  0  0  0
    6.7744   -1.9101    0.4672 H   0  0  0  0  0  0  0  0  0  0  0  0
  1  2  1  0  0  0  0
  1  5  1  0  0  0  0
  2  6  1  0  0  0  0
  3  4  1  0  0  0  0
  3  5  2  0  0  0  0
  3 16  1  0  0  0  0
  4  6  2  0  0  0  0
  4 17  1  0  0  0  0
  5  7  1  0  0  0  0
  6  8  1  0  0  0  0
  7  9  3  0  0  0  0
  8 11  3  0  0  0  0
  9 10  1  0  0  0  0
 10 18  1  0  0  0  0
 10 19  1  0  0  0  0
 10 20  1  0  0  0  0
 11 12  1  0  0  0  0
 12 14  3  0  0  0  0
 13 14  1  0  0  0  0
 13 15  2  0  0  0  0
 13 21  1  0  0  0  0
 15 22  1  0  0  0  0
 15 23  1  0  0  0  0
M  END
> <PUBCHEM_COMPOUND_CID>
72386

> <PUBCHEM_CONFORMER_RMSD>
0.4

> <PUBCHEM_CONFORMER_DIVERSEORDER>
2
1

> <PUBCHEM_MMFF94_PARTIAL_CHARGES>
18
1 -0.1
10 0.2
13 -0.09
14 -0.06
15 -0.3
16 0.15
17 0.15
2 -0.1
21 0.15
22 0.15
23 0.15
3 -0.15
4 -0.15
5 0.17
6 0.17
7 -0.06
8 -0.06
9 -0.2

> <PUBCHEM_EFFECTIVE_ROTOR_COUNT>
0.4

> <PUBCHEM_PHARMACOPHORE_FEATURES>
3
1 10 hydrophobe
1 15 hydrophobe
6 1 2 3 4 5 6 rings

> <PUBCHEM_HEAVY_ATOM_COUNT>
15

> <PUBCHEM_ATOM_DEF_STEREO_COUNT>
0

> <PUBCHEM_ATOM_UDEF_STEREO_COUNT>
0

> <PUBCHEM_BOND_DEF_STEREO_COUNT>
0

> <PUBCHEM_BOND_UDEF_STEREO_COUNT>
0

> <PUBCHEM_ISOTOPIC_ATOM_COUNT>
0

> <PUBCHEM_COMPONENT_COUNT>
1

> <PUBCHEM_CACTVS_TAUTO_COUNT>
1

> <PUBCHEM_CONFORMER_ID>
00011AC200000002

> <PUBCHEM_MMFF94_ENERGY>
8.6705

> <PUBCHEM_FEATURE_SELFOVERLAP>
15.223

> <PUBCHEM_SHAPE_FINGERPRINT>
10968037 39 18342457028182158439
11315181 36 16056588859695666100
11524674 6 16660363658307917807
12236239 1 17918276471815291408
13073987 5 17749947890307125162
13288520 33 18409730660202601333
13862211 1 18335422344398335471
14123256 10 18202283606260843043
1420 363 18410290306867073638
14251764 18 18186799188354621026
14251764 46 18113899359893734950
14350574 20 18335422361151125088
14729087 3 6627477289736813859
17834076 25 18260829297810504958
18006028 8 17967814942366552129
187816 3 18060419105834232121
200 152 16877662383399041784
20645477 70 17822847706331866454
20767249 213 9223230745637457650
21150785 3 17346876746139166230
21267235 1 18412541007174555296
21304253 13 17822007606217790217
22224240 67 15285361716832329300
2297311 6 18335416885315723068
23035841 295 18407760330701439787
23402539 116 18260834786525437093
23521765 1 18335420162085424630
23559900 14 18339647715986515352
246663 6 18413102845475388507
300161 21 7060377007629380628
33684 2 18060702792566203579
34797466 226 17822283562572773868
3545911 37 18202284701593684482
42788 4 18413389834968301180
4463277 17 18408604751832593577
8209 1 18272933816820008374

> <PUBCHEM_SHAPE_MULTIPOLES>
316.39
18.22
1.27
0.7
14.14
0.45
0
-5.96
-0.54
-0.65
0.04
-0.09
0.12
0.07

> <PUBCHEM_SHAPE_SELFOVERLAP>
615.842

> <PUBCHEM_SHAPE_VOLUME>
183.3

> <PUBCHEM_COORDINATE_TYPE>
2
5
10

$$$$

