443810
  -OEChem-07051213033D

 39 42  0     1  0  0  0  0  0999 V2000
   -4.1315    0.2288    1.6576 O   0  0  0  0  0  0  0  0  0  0  0  0
   -1.6534    2.3814   -1.0879 O   0  0  0  0  0  0  0  0  0  0  0  0
    0.2177   -3.5935   -0.0895 O   0  0  0  0  0  0  0  0  0  0  0  0
    0.2114    2.3161    0.6800 O   0  0  0  0  0  0  0  0  0  0  0  0
    2.4402   -2.4147    0.2471 O   0  0  0  0  0  0  0  0  0  0  0  0
    4.7912   -1.4069   -0.0969 O   0  0  0  0  0  0  0  0  0  0  0  0
   -4.3958    0.2979    0.2522 C   0  0  2  0  0  0  0  0  0  0  0  0
   -3.8292   -0.9449   -0.4416 C   0  0  0  0  0  0  0  0  0  0  0  0
   -3.7462    1.5656   -0.2984 C   0  0  0  0  0  0  0  0  0  0  0  0
   -2.3286   -1.0001   -0.3013 C   0  0  0  0  0  0  0  0  0  0  0  0
   -1.5524    0.1724   -0.2526 C   0  0  0  0  0  0  0  0  0  0  0  0
   -2.2559    1.4507   -0.5575 C   0  0  0  0  0  0  0  0  0  0  0  0
   -0.1593    0.0865   -0.0356 C   0  0  0  0  0  0  0  0  0  0  0  0
   -5.9160    0.3638    0.0803 C   0  0  0  0  0  0  0  0  0  0  0  0
    0.4513   -1.1766   -0.0018 C   0  0  0  0  0  0  0  0  0  0  0  0
   -1.6996   -2.2491   -0.2387 C   0  0  0  0  0  0  0  0  0  0  0  0
   -0.3175   -2.3393   -0.1085 C   0  0  0  0  0  0  0  0  0  0  0  0
    0.6906    1.2701    0.2613 C   0  0  0  0  0  0  0  0  0  0  0  0
    1.9200   -1.3129    0.1225 C   0  0  0  0  0  0  0  0  0  0  0  0
    2.1548    1.1566    0.1287 C   0  0  0  0  0  0  0  0  0  0  0  0
    2.7541   -0.0997    0.0699 C   0  0  0  0  0  0  0  0  0  0  0  0
    4.1458   -0.2085   -0.0237 C   0  0  0  0  0  0  0  0  0  0  0  0
    2.9448    2.3111    0.0977 C   0  0  0  0  0  0  0  0  0  0  0  0
    4.9313    0.9440   -0.0618 C   0  0  0  0  0  0  0  0  0  0  0  0
    4.3321    2.2013   -0.0014 C   0  0  0  0  0  0  0  0  0  0  0  0
   -4.0845   -0.9529   -1.5083 H   0  0  0  0  0  0  0  0  0  0  0  0
   -4.2644   -1.8407    0.0199 H   0  0  0  0  0  0  0  0  0  0  0  0
   -3.8915    2.4023    0.3953 H   0  0  0  0  0  0  0  0  0  0  0  0
   -4.2007    1.8257   -1.2629 H   0  0  0  0  0  0  0  0  0  0  0  0
   -6.3274    1.2398    0.5946 H   0  0  0  0  0  0  0  0  0  0  0  0
   -6.2037    0.4131   -0.9749 H   0  0  0  0  0  0  0  0  0  0  0  0
   -6.3956   -0.5133    0.5297 H   0  0  0  0  0  0  0  0  0  0  0  0
   -2.2930   -3.1589   -0.3031 H   0  0  0  0  0  0  0  0  0  0  0  0
   -3.1795    0.3433    1.8108 H   0  0  0  0  0  0  0  0  0  0  0  0
    2.4993    3.3011    0.1453 H   0  0  0  0  0  0  0  0  0  0  0  0
    1.1850   -3.5565   -0.1255 H   0  0  0  0  0  0  0  0  0  0  0  0
    6.0137    0.8803   -0.1390 H   0  0  0  0  0  0  0  0  0  0  0  0
    4.9461    3.0968   -0.0296 H   0  0  0  0  0  0  0  0  0  0  0  0
    5.7500   -1.2573   -0.1588 H   0  0  0  0  0  0  0  0  0  0  0  0
  1  7  1  0  0  0  0
  1 34  1  0  0  0  0
  2 12  2  0  0  0  0
  3 17  1  0  0  0  0
  3 36  1  0  0  0  0
  4 18  2  0  0  0  0
  5 19  2  0  0  0  0
  6 22  1  0  0  0  0
  6 39  1  0  0  0  0
  7  8  1  0  0  0  0
  7  9  1  0  0  0  0
  7 14  1  0  0  0  0
  8 10  1  0  0  0  0
  8 26  1  0  0  0  0
  8 27  1  0  0  0  0
  9 12  1  0  0  0  0
  9 28  1  0  0  0  0
  9 29  1  0  0  0  0
 10 11  1  0  0  0  0
 10 16  2  0  0  0  0
 11 12  1  0  0  0  0
 11 13  2  0  0  0  0
 13 15  1  0  0  0  0
 13 18  1  0  0  0  0
 14 30  1  0  0  0  0
 14 31  1  0  0  0  0
 14 32  1  0  0  0  0
 15 17  2  0  0  0  0
 15 19  1  0  0  0  0
 16 17  1  0  0  0  0
 16 33  1  0  0  0  0
 18 20  1  0  0  0  0
 19 21  1  0  0  0  0
 20 21  2  0  0  0  0
 20 23  1  0  0  0  0
 21 22  1  0  0  0  0
 22 24  2  0  0  0  0
 23 25  2  0  0  0  0
 23 35  1  0  0  0  0
 24 25  1  0  0  0  0
 24 37  1  0  0  0  0
 25 38  1  0  0  0  0
M  END
> <PUBCHEM_COMPOUND_CID>
443810

> <PUBCHEM_CONFORMER_RMSD>
0.6

> <PUBCHEM_CONFORMER_DIVERSEORDER>
1
2

> <PUBCHEM_MMFF94_PARTIAL_CHARGES>
31
1 -0.68
10 -0.14
11 0.09
12 0.42
13 0.09
15 0.09
16 -0.15
17 0.08
18 0.4
19 0.4
2 -0.57
20 0.09
21 0.09
22 0.08
23 -0.15
24 -0.15
25 -0.15
3 -0.53
33 0.15
34 0.4
35 0.15
36 0.45
37 0.15
38 0.15
39 0.45
4 -0.57
5 -0.57
6 -0.53
7 0.28
8 0.14
9 0.06

> <PUBCHEM_EFFECTIVE_ROTOR_COUNT>
0.6

> <PUBCHEM_PHARMACOPHORE_FEATURES>
11
1 1 acceptor
1 1 donor
1 2 acceptor
1 3 donor
1 4 acceptor
1 5 acceptor
1 6 donor
6 10 11 13 15 16 17 rings
6 13 15 18 19 20 21 rings
6 20 21 22 23 24 25 rings
6 7 8 9 10 11 12 rings

> <PUBCHEM_HEAVY_ATOM_COUNT>
25

> <PUBCHEM_ATOM_DEF_STEREO_COUNT>
1

> <PUBCHEM_ATOM_UDEF_STEREO_COUNT>
0

> <PUBCHEM_BOND_DEF_STEREO_COUNT>
0

> <PUBCHEM_BOND_UDEF_STEREO_COUNT>
0

> <PUBCHEM_ISOTOPIC_ATOM_COUNT>
0

> <PUBCHEM_COMPONENT_COUNT>
1

> <PUBCHEM_CACTVS_TAUTO_COUNT>
129

> <PUBCHEM_CONFORMER_ID>
0006C5A200000001

> <PUBCHEM_MMFF94_ENERGY>
85.9186

> <PUBCHEM_FEATURE_SELFOVERLAP>
55.895

> <PUBCHEM_SHAPE_FINGERPRINT>
10411042 1 17617377728652628927
10493431 412 18337671914870844945
10616163 171 18194402191302333630
10675989 125 15460456036269726916
10967382 1 18410578396146206686
1100329 8 18410016533336859458
11112241 14 16373561419122632384
11578080 2 17025168310663343978
12011746 2 18413112762528332445
12236239 1 17748826328401595537
12403814 3 18130793347633598285
12592029 89 18340769333515428538
12633257 1 18410582773008161618
12644460 14 18272090525930223562
12788726 201 17531514455977890776
12838862 33 18338255794020889316
13140716 1 18339083687764103258
13224815 77 18272375277972177277
13402501 40 18411982464073863981
13583140 156 16701202822861219852
138480 1 17906174310347837830
14765038 42 18116133528708876433
14787075 74 18334580122749301677
14790565 3 18409161130212057209
15196674 1 18410013195598390695
15209289 33 18334579005978826289
16945 1 18339377257289370526
1813 80 17132116818549019940
19591789 44 18410577266506484791
19784866 170 18343017796677432077
20739085 24 18269535278055817097
21033648 29 18270698510040182997
21236236 1 18263645074370655679
21267235 1 18410005572089521022
21421861 104 18130237046452965074
23227448 37 18337393738233754742
2334 1 18410020926534131806
23558518 356 17623014486807231080
23559900 14 18261112946800381096
238 59 17550995719141771589
3004659 81 18413387653525705142
335352 9 18409730669088000350
34934 24 18263086531174434106
350125 39 18411981390221458684
3680242 22 18340773723462537666
474 4 18408321099075400843
495365 180 17168434753436022984
5104073 3 18338802212813682482
9709674 26 18337107874196398606

> <PUBCHEM_SHAPE_MULTIPOLES>
479.27
10.02
3.04
0.77
1.72
1.27
0.1
-3.19
0.55
-1.13
-0.18
0.5
-0.17
0.04

> <PUBCHEM_SHAPE_SELFOVERLAP>
1091.343

> <PUBCHEM_SHAPE_VOLUME>
247

> <PUBCHEM_COORDINATE_TYPE>
2
5
10

$$$$

