68577
  -OEChem-07051213053D

 62 66  0     1  0  0  0  0  0999 V2000
    1.9948   -0.2541   -0.2322 O   0  0  0  0  0  0  0  0  0  0  0  0
    3.2528   -1.9288   -1.1991 O   0  0  0  0  0  0  0  0  0  0  0  0
   -8.7734    1.6227    0.6512 O   0  0  0  0  0  0  0  0  0  0  0  0
   -0.4674   -0.2031   -0.1054 C   0  0  1  0  0  0  0  0  0  0  0  0
   -1.4820   -1.3522   -0.2728 C   0  0  2  0  0  0  0  0  0  0  0  0
   -2.8784   -0.9642    0.2126 C   0  0  1  0  0  0  0  0  0  0  0  0
   -3.3887    0.2347   -0.6431 C   0  0  2  0  0  0  0  0  0  0  0  0
    0.8026   -0.9178   -0.6050 C   0  0  2  0  0  0  0  0  0  0  0  0
   -0.9303    0.9724   -0.9746 C   0  0  0  0  0  0  0  0  0  0  0  0
   -0.7744   -2.5461    0.3619 C   0  0  0  0  0  0  0  0  0  0  0  0
   -2.3692    1.4056   -0.6341 C   0  0  0  0  0  0  0  0  0  0  0  0
    0.7106   -2.3230    0.0218 C   0  0  0  0  0  0  0  0  0  0  0  0
   -3.8797   -2.1155    0.1026 C   0  0  0  0  0  0  0  0  0  0  0  0
   -0.2726    0.2846    1.3532 C   0  0  0  0  0  0  0  0  0  0  0  0
   -4.8167    0.6172   -0.2634 C   0  0  0  0  0  0  0  0  0  0  0  0
   -5.2080   -1.7081    0.7333 C   0  0  0  0  0  0  0  0  0  0  0  0
   -5.6733   -0.3254    0.3467 C   0  0  0  0  0  0  0  0  0  0  0  0
   -5.3429    1.8798   -0.5894 C   0  0  0  0  0  0  0  0  0  0  0  0
   -6.9971    0.0307    0.6597 C   0  0  0  0  0  0  0  0  0  0  0  0
    3.1683   -0.8701   -0.5922 C   0  0  0  0  0  0  0  0  0  0  0  0
   -6.6626    2.2172   -0.2812 C   0  0  0  0  0  0  0  0  0  0  0  0
   -7.4886    1.2948    0.3477 C   0  0  0  0  0  0  0  0  0  0  0  0
    4.3399   -0.0386   -0.1217 C   0  0  0  0  0  0  0  0  0  0  0  0
    5.6779   -0.6600   -0.5210 C   0  0  0  0  0  0  0  0  0  0  0  0
    6.8421    0.1750   -0.0542 C   0  0  0  0  0  0  0  0  0  0  0  0
    7.3443    1.1686   -0.8820 C   0  0  0  0  0  0  0  0  0  0  0  0
    7.3937   -0.0622    1.1965 C   0  0  0  0  0  0  0  0  0  0  0  0
    8.4218    1.9417   -0.4499 C   0  0  0  0  0  0  0  0  0  0  0  0
    8.4713    0.7112    1.6286 C   0  0  0  0  0  0  0  0  0  0  0  0
    8.9853    1.7131    0.8054 C   0  0  0  0  0  0  0  0  0  0  0  0
   -1.5716   -1.5881   -1.3466 H   0  0  0  0  0  0  0  0  0  0  0  0
   -2.8306   -0.6689    1.2687 H   0  0  0  0  0  0  0  0  0  0  0  0
   -3.4553   -0.1075   -1.6877 H   0  0  0  0  0  0  0  0  0  0  0  0
    0.7731   -1.0006   -1.7006 H   0  0  0  0  0  0  0  0  0  0  0  0
   -0.8974    0.6893   -2.0349 H   0  0  0  0  0  0  0  0  0  0  0  0
   -0.2520    1.8271   -0.8641 H   0  0  0  0  0  0  0  0  0  0  0  0
   -1.1360   -3.4982   -0.0397 H   0  0  0  0  0  0  0  0  0  0  0  0
   -0.9190   -2.5679    1.4479 H   0  0  0  0  0  0  0  0  0  0  0  0
   -2.3884    1.9063    0.3414 H   0  0  0  0  0  0  0  0  0  0  0  0
   -2.6573    2.1642   -1.3711 H   0  0  0  0  0  0  0  0  0  0  0  0
    1.3279   -2.4253    0.9215 H   0  0  0  0  0  0  0  0  0  0  0  0
    1.0454   -3.0854   -0.6903 H   0  0  0  0  0  0  0  0  0  0  0  0
   -3.5095   -3.0142    0.6084 H   0  0  0  0  0  0  0  0  0  0  0  0
   -4.0324   -2.3821   -0.9512 H   0  0  0  0  0  0  0  0  0  0  0  0
    0.4634    1.0962    1.3926 H   0  0  0  0  0  0  0  0  0  0  0  0
   -1.1932    0.6730    1.7964 H   0  0  0  0  0  0  0  0  0  0  0  0
    0.0895   -0.5086    2.0148 H   0  0  0  0  0  0  0  0  0  0  0  0
   -5.1075   -1.7353    1.8259 H   0  0  0  0  0  0  0  0  0  0  0  0
   -5.9687   -2.4475    0.4548 H   0  0  0  0  0  0  0  0  0  0  0  0
   -4.7397    2.6261   -1.0973 H   0  0  0  0  0  0  0  0  0  0  0  0
   -7.6492   -0.6895    1.1498 H   0  0  0  0  0  0  0  0  0  0  0  0
   -7.0316    3.2053   -0.5434 H   0  0  0  0  0  0  0  0  0  0  0  0
    4.2764    0.0507    0.9691 H   0  0  0  0  0  0  0  0  0  0  0  0
    4.2449    0.9615   -0.5606 H   0  0  0  0  0  0  0  0  0  0  0  0
    5.7627   -1.6745   -0.1092 H   0  0  0  0  0  0  0  0  0  0  0  0
    5.7274   -0.7857   -1.6108 H   0  0  0  0  0  0  0  0  0  0  0  0
   -8.9423    2.5361    0.3627 H   0  0  0  0  0  0  0  0  0  0  0  0
    6.9112    1.3557   -1.8605 H   0  0  0  0  0  0  0  0  0  0  0  0
    6.9994   -0.8388    1.8457 H   0  0  0  0  0  0  0  0  0  0  0  0
    8.8217    2.7223   -1.0905 H   0  0  0  0  0  0  0  0  0  0  0  0
    8.9097    0.5336    2.6062 H   0  0  0  0  0  0  0  0  0  0  0  0
    9.8240    2.3153    1.1420 H   0  0  0  0  0  0  0  0  0  0  0  0
  1  8  1  0  0  0  0
  1 20  1  0  0  0  0
  2 20  2  0  0  0  0
  3 22  1  0  0  0  0
  3 57  1  0  0  0  0
  4  5  1  0  0  0  0
  4  8  1  0  0  0  0
  4  9  1  0  0  0  0
  4 14  1  0  0  0  0
  5  6  1  0  0  0  0
  5 10  1  0  0  0  0
  5 31  1  0  0  0  0
  6  7  1  0  0  0  0
  6 13  1  0  0  0  0
  6 32  1  0  0  0  0
  7 11  1  0  0  0  0
  7 15  1  0  0  0  0
  7 33  1  0  0  0  0
  8 12  1  0  0  0  0
  8 34  1  0  0  0  0
  9 11  1  0  0  0  0
  9 35  1  0  0  0  0
  9 36  1  0  0  0  0
 10 12  1  0  0  0  0
 10 37  1  0  0  0  0
 10 38  1  0  0  0  0
 11 39  1  0  0  0  0
 11 40  1  0  0  0  0
 12 41  1  0  0  0  0
 12 42  1  0  0  0  0
 13 16  1  0  0  0  0
 13 43  1  0  0  0  0
 13 44  1  0  0  0  0
 14 45  1  0  0  0  0
 14 46  1  0  0  0  0
 14 47  1  0  0  0  0
 15 17  2  0  0  0  0
 15 18  1  0  0  0  0
 16 17  1  0  0  0  0
 16 48  1  0  0  0  0
 16 49  1  0  0  0  0
 17 19  1  0  0  0  0
 18 21  2  0  0  0  0
 18 50  1  0  0  0  0
 19 22  2  0  0  0  0
 19 51  1  0  0  0  0
 20 23  1  0  0  0  0
 21 22  1  0  0  0  0
 21 52  1  0  0  0  0
 23 24  1  0  0  0  0
 23 53  1  0  0  0  0
 23 54  1  0  0  0  0
 24 25  1  0  0  0  0
 24 55  1  0  0  0  0
 24 56  1  0  0  0  0
 25 26  2  0  0  0  0
 25 27  1  0  0  0  0
 26 28  1  0  0  0  0
 26 58  1  0  0  0  0
 27 29  2  0  0  0  0
 27 59  1  0  0  0  0
 28 30  2  0  0  0  0
 28 60  1  0  0  0  0
 29 30  1  0  0  0  0
 29 61  1  0  0  0  0
 30 62  1  0  0  0  0
M  END
> <PUBCHEM_COMPOUND_CID>
68577

> <PUBCHEM_CONFORMER_RMSD>
0.8

> <PUBCHEM_CONFORMER_DIVERSEORDER>
1
38
34
14
18
9
23
26
11
31
13
40
43
27
4
41
33
36
32
29
19
16
37
24
22
10
6
39
44
20
15
42
5
2
12
7
21
8
30
3
35
28
17
25

> <PUBCHEM_MMFF94_PARTIAL_CHARGES>
30
1 -0.43
15 -0.14
16 0.14
17 -0.14
18 -0.15
19 -0.15
2 -0.57
20 0.66
21 -0.15
22 0.08
23 0.06
24 0.14
25 -0.14
26 -0.15
27 -0.15
28 -0.15
29 -0.15
3 -0.53
30 -0.15
50 0.15
51 0.15
52 0.15
57 0.45
58 0.15
59 0.15
60 0.15
61 0.15
62 0.15
7 0.14
8 0.28

> <PUBCHEM_EFFECTIVE_ROTOR_COUNT>
6.4

> <PUBCHEM_PHARMACOPHORE_FEATURES>
7
1 2 acceptor
1 3 donor
5 4 5 8 10 12 rings
6 15 17 18 19 21 22 rings
6 25 26 27 28 29 30 rings
6 4 5 6 7 9 11 rings
6 6 7 13 15 16 17 rings

> <PUBCHEM_HEAVY_ATOM_COUNT>
30

> <PUBCHEM_ATOM_DEF_STEREO_COUNT>
5

> <PUBCHEM_ATOM_UDEF_STEREO_COUNT>
0

> <PUBCHEM_BOND_DEF_STEREO_COUNT>
0

> <PUBCHEM_BOND_UDEF_STEREO_COUNT>
0

> <PUBCHEM_ISOTOPIC_ATOM_COUNT>
0

> <PUBCHEM_COMPONENT_COUNT>
1

> <PUBCHEM_CACTVS_TAUTO_COUNT>
9

> <PUBCHEM_CONFORMER_ID>
00010BE100000001

> <PUBCHEM_MMFF94_ENERGY>
91.6853

> <PUBCHEM_FEATURE_SELFOVERLAP>
35.618

> <PUBCHEM_SHAPE_FINGERPRINT>
10 15 18201718461536922496
10190206 1 18262252023519955903
10369192 42 18408324406173462471
10411042 1 17836923400809468875
106641 1 18202558485101496289
10835480 77 18334294292269616566
11135926 11 17775293776384784467
11181472 205 15720218638590119547
11456790 92 16917065555987483812
11578821 258 18259702276870791392
12133447 93 18265882717819439220
125118 31 18411698773601098780
12539765 74 18333443245349786606
12838862 33 18201727280043667957
13685833 64 11312054353395588814
13726171 33 18125439954905728401
14028597 1 16630532876885463040
14216079 64 10303812086424702572
14251764 18 17846217735584919382
15183329 4 5833997157267397852
15247644 1 14189570832717119817
15461852 350 17676210139491260823
1577012 14 18343305847465480846
16989713 51 17460322049085168271
17093844 174 18343301466493116491
1754911 235 15719391729159275160
18603816 31 13901895680104635673
18608769 82 18411139116958847328
19302320 297 18201433649999072356
19315958 150 18334288803354692655
20105231 36 7204483443031802101
20554085 129 18113911459603105106
21150785 3 14056722352573883883
21895431 317 11312064222888544512
22224240 67 18273214213844525143
23559900 14 18259989249225246593
23576562 1 15285941112458503265
24771293 8 18412545405326542581
3918712 181 18041002779446711464
4073 2 18343295964013087930
4403749 210 17677619670422789454
44280117 145 18189618233094928895
44802255 64 16515687771564196565
4616759 239 18343858910140118899
504579 68 13839986612111916634
504843 32 17603871048749501286
5470011 282 4823208442699221368
563151 97 15430579758290016399
5758199 1 18409728482226875303
5937810 71 17385996330373767841
6081469 158 8142086450908026464
636775 72 18336264635099701233
9953998 17 18202282498575882115

> <PUBCHEM_SHAPE_MULTIPOLES>
599.78
28.45
2.36
1.07
35.81
0.41
-0.19
-19.5
-7.23
-1.82
0.14
1.22
-0.09
0.79

> <PUBCHEM_SHAPE_SELFOVERLAP>
1303.32

> <PUBCHEM_SHAPE_VOLUME>
324.8

> <PUBCHEM_COORDINATE_TYPE>
2
5
10

$$$$

