162976
  -OEChem-07051213092D

 39 41  0     1  0  0  0  0  0999 V2000
    9.6504    2.0417    0.0000 F   0  0  0  0  0  0  0  0  0  0  0  0
    6.9939   -1.1086    0.0000 O   0  0  0  0  0  0  0  0  0  0  0  0
    3.8400    2.0186    0.0000 N   0  0  0  0  0  0  0  0  0  0  0  0
    2.0000   -2.6086    0.0000 N   0  0  0  0  0  0  0  0  0  0  0  0
    6.4103   -0.3038    0.0000 C   0  0  3  0  0  0  0  0  0  0  0  0
    6.1030    0.6478    0.0000 C   0  0  0  0  0  0  0  0  0  0  0  0
    5.4641   -0.6086    0.0000 C   0  0  0  0  0  0  0  0  0  0  0  0
    5.4641   -1.6086    0.0000 C   0  0  0  0  0  0  0  0  0  0  0  0
    7.2204    0.2826    0.0000 C   0  0  0  0  0  0  0  0  0  0  0  0
    6.4103   -1.9133    0.0000 C   0  0  0  0  0  0  0  0  0  0  0  0
    5.1252    0.8574    0.0000 C   0  0  0  0  0  0  0  0  0  0  0  0
    4.5981   -0.1086    0.0000 C   0  0  0  0  0  0  0  0  0  0  0  0
    4.5981   -2.1086    0.0000 C   0  0  0  0  0  0  0  0  0  0  0  0
    4.8178    1.8090    0.0000 C   0  0  0  0  0  0  0  0  0  0  0  0
    8.1332   -0.1258    0.0000 C   0  0  0  0  0  0  0  0  0  0  0  0
    7.1176    1.2773    0.0000 C   0  0  0  0  0  0  0  0  0  0  0  0
    3.7320   -0.6086    0.0000 C   0  0  0  0  0  0  0  0  0  0  0  0
    3.7320   -1.6086    0.0000 C   0  0  0  0  0  0  0  0  0  0  0  0
    8.9432    0.4606    0.0000 C   0  0  0  0  0  0  0  0  0  0  0  0
    7.9276    1.8636    0.0000 C   0  0  0  0  0  0  0  0  0  0  0  0
    8.8404    1.4553    0.0000 C   0  0  0  0  0  0  0  0  0  0  0  0
    2.8660   -2.1086    0.0000 C   0  0  0  0  0  0  0  0  0  0  0  0
    6.7171    0.7330    0.0000 H   0  0  0  0  0  0  0  0  0  0  0  0
    6.1257    1.2674    0.0000 H   0  0  0  0  0  0  0  0  0  0  0  0
    6.1593   -2.4802    0.0000 H   0  0  0  0  0  0  0  0  0  0  0  0
    6.9477   -2.2225    0.0000 H   0  0  0  0  0  0  0  0  0  0  0  0
    4.5110    0.7721    0.0000 H   0  0  0  0  0  0  0  0  0  0  0  0
    5.1024    0.2378    0.0000 H   0  0  0  0  0  0  0  0  0  0  0  0
    4.5981    0.5114    0.0000 H   0  0  0  0  0  0  0  0  0  0  0  0
    4.5981   -2.7285    0.0000 H   0  0  0  0  0  0  0  0  0  0  0  0
    5.4319    1.8942    0.0000 H   0  0  0  0  0  0  0  0  0  0  0  0
    4.8405    2.4286    0.0000 H   0  0  0  0  0  0  0  0  0  0  0  0
    8.1969   -0.7425    0.0000 H   0  0  0  0  0  0  0  0  0  0  0  0
    6.5516    1.5304    0.0000 H   0  0  0  0  0  0  0  0  0  0  0  0
    3.1951   -0.2986    0.0000 H   0  0  0  0  0  0  0  0  0  0  0  0
    9.5092    0.2075    0.0000 H   0  0  0  0  0  0  0  0  0  0  0  0
    7.8638    2.4804    0.0000 H   0  0  0  0  0  0  0  0  0  0  0  0
    3.6494    2.6086    0.0000 H   0  0  0  0  0  0  0  0  0  0  0  0
    3.4244    1.5585    0.0000 H   0  0  0  0  0  0  0  0  0  0  0  0
  1 21  1  0  0  0  0
  2  5  1  0  0  0  0
  2 10  1  0  0  0  0
  3 14  1  0  0  0  0
  3 38  1  0  0  0  0
  3 39  1  0  0  0  0
  4 22  3  0  0  0  0
  5  6  1  0  0  0  0
  5  7  1  0  0  0  0
  5  9  1  0  0  0  0
  6 11  1  0  0  0  0
  6 23  1  0  0  0  0
  6 24  1  0  0  0  0
  7  8  2  0  0  0  0
  7 12  1  0  0  0  0
  8 10  1  0  0  0  0
  8 13  1  0  0  0  0
  9 15  2  0  0  0  0
  9 16  1  0  0  0  0
 10 25  1  0  0  0  0
 10 26  1  0  0  0  0
 11 14  1  0  0  0  0
 11 27  1  0  0  0  0
 11 28  1  0  0  0  0
 12 17  2  0  0  0  0
 12 29  1  0  0  0  0
 13 18  2  0  0  0  0
 13 30  1  0  0  0  0
 14 31  1  0  0  0  0
 14 32  1  0  0  0  0
 15 19  1  0  0  0  0
 15 33  1  0  0  0  0
 16 20  2  0  0  0  0
 16 34  1  0  0  0  0
 17 18  1  0  0  0  0
 17 35  1  0  0  0  0
 18 22  1  0  0  0  0
 19 21  2  0  0  0  0
 19 36  1  0  0  0  0
 20 21  1  0  0  0  0
 20 37  1  0  0  0  0
M  END
> <PUBCHEM_COMPOUND_CID>
162976

> <PUBCHEM_COMPOUND_CANONICALIZED>
1

> <PUBCHEM_CACTVS_COMPLEXITY>
426

> <PUBCHEM_CACTVS_HBOND_ACCEPTOR>
4

> <PUBCHEM_CACTVS_HBOND_DONOR>
1

> <PUBCHEM_CACTVS_ROTATABLE_BOND>
4

> <PUBCHEM_CACTVS_SUBSKEYS>
AAADceB7IQAAAAAAAAAAAAAAAAAAASAAAAAwYAAAAAAAAEgBQAAAHwAQAAAADEThmA4wAIBABACQBiBCAAAiAAAgAAAIiIAACIgIpiKAsRiCMAAk0AEIqA+wwPAOwAACAAAQAACAAAQAACAAAAAAAAAAAA==

> <PUBCHEM_IUPAC_OPENEYE_NAME>
1-(3-aminopropyl)-1-(4-fluorophenyl)-3H-isobenzofuran-5-carbonitrile

> <PUBCHEM_IUPAC_CAS_NAME>
1-(3-aminopropyl)-1-(4-fluorophenyl)-3H-isobenzofuran-5-carbonitrile

> <PUBCHEM_IUPAC_NAME>
1-(3-aminopropyl)-1-(4-fluorophenyl)-3H-2-benzofuran-5-carbonitrile

> <PUBCHEM_IUPAC_SYSTEMATIC_NAME>
1-(3-azanylpropyl)-1-(4-fluorophenyl)-3H-2-benzofuran-5-carbonitrile

> <PUBCHEM_IUPAC_TRADITIONAL_NAME>
1-(3-aminopropyl)-1-(4-fluorophenyl)phthalan-5-carbonitrile

> <PUBCHEM_IUPAC_INCHI>
InChI=1S/C18H17FN2O/c19-16-5-3-15(4-6-16)18(8-1-9-20)17-7-2-13(11-21)10-14(17)12-22-18/h2-7,10H,1,8-9,12,20H2

> <PUBCHEM_IUPAC_INCHIKEY>
RKUKMUWCRLRPEJ-UHFFFAOYSA-N

> <PUBCHEM_XLOGP3_AA>
2.3

> <PUBCHEM_EXACT_MASS>
296.132491

> <PUBCHEM_MOLECULAR_FORMULA>
C18H17FN2O

> <PUBCHEM_MOLECULAR_WEIGHT>
296.338783

> <PUBCHEM_OPENEYE_CAN_SMILES>
C1C2=C(C=CC(=C2)C#N)C(O1)(CCCN)C3=CC=C(C=C3)F

> <PUBCHEM_OPENEYE_ISO_SMILES>
C1C2=C(C=CC(=C2)C#N)C(O1)(CCCN)C3=CC=C(C=C3)F

> <PUBCHEM_CACTVS_TPSA>
59

> <PUBCHEM_MONOISOTOPIC_WEIGHT>
296.132491

> <PUBCHEM_TOTAL_CHARGE>
0

> <PUBCHEM_HEAVY_ATOM_COUNT>
22

> <PUBCHEM_ATOM_DEF_STEREO_COUNT>
0

> <PUBCHEM_ATOM_UDEF_STEREO_COUNT>
1

> <PUBCHEM_BOND_DEF_STEREO_COUNT>
0

> <PUBCHEM_BOND_UDEF_STEREO_COUNT>
0

> <PUBCHEM_ISOTOPIC_ATOM_COUNT>
0

> <PUBCHEM_COMPONENT_COUNT>
1

> <PUBCHEM_CACTVS_TAUTO_COUNT>
1

> <PUBCHEM_COORDINATE_TYPE>
1
5
255

> <PUBCHEM_BONDANNOTATIONS>
12  17  8
13  18  8
15  19  8
16  20  8
17  18  8
19  21  8
20  21  8
5  6  3
7  12  8
7  8  8
8  13  8
9  15  8
9  16  8

$$$$

