46173873
  -OEChem-07051213103D

 41 41  0     1  0  0  0  0  0999 V2000
   -0.0263   -2.3949   -0.5598 S   0  0  0  0  0  0  0  0  0  0  0  0
   -3.9362    1.7008    1.7428 S   0  0  0  0  0  0  0  0  0  0  0  0
    0.6627    0.1856   -0.6735 O   0  0  0  0  0  0  0  0  0  0  0  0
    4.5685   -0.3165    0.5090 O   0  0  0  0  0  0  0  0  0  0  0  0
    3.4089    2.3066    0.5334 O   0  0  0  0  0  0  0  0  0  0  0  0
    2.6102   -2.3429    1.1543 O   0  0  0  0  0  0  0  0  0  0  0  0
   -0.5593    2.6132   -1.0132 O   0  0  0  0  0  0  0  0  0  0  0  0
   -1.2145   -1.0211   -2.5862 O   0  0  0  0  0  0  0  0  0  0  0  0
   -2.1535   -1.1261   -1.5595 N   0  0  0  0  0  0  0  0  0  0  0  0
    3.1733   -0.0688    0.6942 C   0  0  1  0  0  0  0  0  0  0  0  0
    2.7965    1.1845   -0.0968 C   0  0  1  0  0  0  0  0  0  0  0  0
    2.3785   -1.2896    0.2201 C   0  0  2  0  0  0  0  0  0  0  0  0
    1.2761    1.3590   -0.1385 C   0  0  1  0  0  0  0  0  0  0  0  0
    0.8828   -0.9691    0.1365 C   0  0  2  0  0  0  0  0  0  0  0  0
    0.8541    2.5294   -1.0213 C   0  0  0  0  0  0  0  0  0  0  0  0
   -1.6785   -1.7833   -0.5484 C   0  0  0  0  0  0  0  0  0  0  0  0
   -2.4253   -2.0853    0.7391 C   0  0  0  0  0  0  0  0  0  0  0  0
   -3.4135   -0.9608    1.0614 C   0  0  0  0  0  0  0  0  0  0  0  0
   -2.7475    0.3843    1.3488 C   0  0  0  0  0  0  0  0  0  0  0  0
   -4.4569    2.0950    0.0577 C   0  0  0  0  0  0  0  0  0  0  0  0
    3.0339    0.0933    1.7698 H   0  0  0  0  0  0  0  0  0  0  0  0
    3.2029    1.1162   -1.1131 H   0  0  0  0  0  0  0  0  0  0  0  0
    2.7664   -1.6160   -0.7531 H   0  0  0  0  0  0  0  0  0  0  0  0
    0.8732    1.5332    0.8686 H   0  0  0  0  0  0  0  0  0  0  0  0
    0.4699   -0.7939    1.1376 H   0  0  0  0  0  0  0  0  0  0  0  0
    1.1731    2.3714   -2.0570 H   0  0  0  0  0  0  0  0  0  0  0  0
    1.2660    3.4748   -0.6555 H   0  0  0  0  0  0  0  0  0  0  0  0
    4.7250   -0.4696   -0.4385 H   0  0  0  0  0  0  0  0  0  0  0  0
    3.0242    2.3993    1.4217 H   0  0  0  0  0  0  0  0  0  0  0  0
    2.2363   -2.0734    2.0105 H   0  0  0  0  0  0  0  0  0  0  0  0
   -2.9717   -3.0241    0.5934 H   0  0  0  0  0  0  0  0  0  0  0  0
   -1.7345   -2.2244    1.5775 H   0  0  0  0  0  0  0  0  0  0  0  0
   -0.8062    3.3614   -1.5830 H   0  0  0  0  0  0  0  0  0  0  0  0
   -4.1265   -0.8616    0.2342 H   0  0  0  0  0  0  0  0  0  0  0  0
   -3.9972   -1.2683    1.9387 H   0  0  0  0  0  0  0  0  0  0  0  0
   -2.1181    0.7156    0.5183 H   0  0  0  0  0  0  0  0  0  0  0  0
   -2.0880    0.2764    2.2171 H   0  0  0  0  0  0  0  0  0  0  0  0
   -1.7072   -0.5101   -3.2503 H   0  0  0  0  0  0  0  0  0  0  0  0
   -4.9637    1.2442   -0.4034 H   0  0  0  0  0  0  0  0  0  0  0  0
   -5.1579    2.9336    0.0889 H   0  0  0  0  0  0  0  0  0  0  0  0
   -3.5984    2.3884   -0.5520 H   0  0  0  0  0  0  0  0  0  0  0  0
  1 14  1  0  0  0  0
  1 16  1  0  0  0  0
  2 19  1  0  0  0  0
  2 20  1  0  0  0  0
  3 13  1  0  0  0  0
  3 14  1  0  0  0  0
  4 10  1  0  0  0  0
  4 28  1  0  0  0  0
  5 11  1  0  0  0  0
  5 29  1  0  0  0  0
  6 12  1  0  0  0  0
  6 30  1  0  0  0  0
  7 15  1  0  0  0  0
  7 33  1  0  0  0  0
  8  9  1  0  0  0  0
  8 38  1  0  0  0  0
  9 16  2  0  0  0  0
 10 11  1  0  0  0  0
 10 12  1  0  0  0  0
 10 21  1  0  0  0  0
 11 13  1  0  0  0  0
 11 22  1  0  0  0  0
 12 14  1  0  0  0  0
 12 23  1  0  0  0  0
 13 15  1  0  0  0  0
 13 24  1  0  0  0  0
 14 25  1  0  0  0  0
 15 26  1  0  0  0  0
 15 27  1  0  0  0  0
 16 17  1  0  0  0  0
 17 18  1  0  0  0  0
 17 31  1  0  0  0  0
 17 32  1  0  0  0  0
 18 19  1  0  0  0  0
 18 34  1  0  0  0  0
 18 35  1  0  0  0  0
 19 36  1  0  0  0  0
 19 37  1  0  0  0  0
 20 39  1  0  0  0  0
 20 40  1  0  0  0  0
 20 41  1  0  0  0  0
M  END
> <PUBCHEM_COMPOUND_CID>
46173873

> <PUBCHEM_CONFORMER_RMSD>
1

> <PUBCHEM_CONFORMER_DIVERSEORDER>
1
21
20
28
30
62
75
71
84
53
37
11
38
52
49
65
86
22
29
10
60
59
25
16
35
9
23
68
26
18
7
72
44
2
89
63
82
73
74
45
5
69
15
70
79
76
32
36
87
39
50
78
55
17
31
27
51
56
13
42
14
3
81
24
64
83
48
8
33
4
58
47
80
40
77
6
46
34
88
66
41
67
19
61
43
85
57
54
12

> <PUBCHEM_MMFF94_PARTIAL_CHARGES>
24
1 -0.37
10 0.28
11 0.28
12 0.28
13 0.28
14 0.51
15 0.28
16 0.53
17 0.06
19 0.23
2 -0.46
20 0.23
28 0.4
29 0.4
3 -0.56
30 0.4
33 0.4
38 0.4
4 -0.68
5 -0.68
6 -0.68
7 -0.68
8 -0.34
9 -0.51

> <PUBCHEM_EFFECTIVE_ROTOR_COUNT>
8.2

> <PUBCHEM_PHARMACOPHORE_FEATURES>
14
1 20 hydrophobe
1 3 acceptor
1 4 acceptor
1 4 donor
1 5 acceptor
1 5 donor
1 6 acceptor
1 6 donor
1 7 acceptor
1 7 donor
1 8 anion
1 9 acceptor
4 2 17 18 19 hydrophobe
6 3 10 11 12 13 14 rings

> <PUBCHEM_HEAVY_ATOM_COUNT>
20

> <PUBCHEM_ATOM_DEF_STEREO_COUNT>
5

> <PUBCHEM_ATOM_UDEF_STEREO_COUNT>
0

> <PUBCHEM_BOND_DEF_STEREO_COUNT>
1

> <PUBCHEM_BOND_UDEF_STEREO_COUNT>
0

> <PUBCHEM_ISOTOPIC_ATOM_COUNT>
0

> <PUBCHEM_COMPONENT_COUNT>
1

> <PUBCHEM_CACTVS_TAUTO_COUNT>
2

> <PUBCHEM_CONFORMER_ID>
02C08EB100000001

> <PUBCHEM_MMFF94_ENERGY>
48.4908

> <PUBCHEM_FEATURE_SELFOVERLAP>
71.058

> <PUBCHEM_SHAPE_FINGERPRINT>
10382601 240 18342451535161658322
11370993 70 18189612911957282441
11578080 2 17533814578531537016
11640471 11 18040712580420445523
12633257 1 17917417731827584793
13132413 78 18263359209541567256
13140716 1 18412267254759942210
14178342 30 18195532480613077002
14790565 3 18127396875012329580
15042514 8 17478055316631807066
16945 1 18269856280122656086
17859628 37 18267007539762595583
18219364 16 17771365079324764774
20261772 1 18338797922109730504
20739085 24 18130785608450787756
21197605 99 18122628520942824005
22749437 52 18188478203246322681
23184049 59 18338510975476469145
23598288 3 17968658212093010279
23598291 2 18264205820662716190
2748010 2 18270139975460016870
6438718 38 18041005028869630189
6992083 37 18337114449469445454

> <PUBCHEM_SHAPE_MULTIPOLES>
379.09
7.43
3.3
1.58
1.4
0.62
0.58
2.98
-3.57
0.52
0.42
1
-0.17
-0.89

> <PUBCHEM_SHAPE_SELFOVERLAP>
717.331

> <PUBCHEM_SHAPE_VOLUME>
235.9

> <PUBCHEM_COORDINATE_TYPE>
2
5
10

$$$$

