5200193
  -OEChem-07051213083D

 74 77  0     1  0  0  0  0  0999 V2000
   -7.6743   -1.7460    0.3635 S   0  0  0  0  0  0  0  0  0  0  0  0
   -0.0177    0.0631    1.8668 O   0  0  0  0  0  0  0  0  0  0  0  0
    2.1687   -2.1180   -1.6221 O   0  0  0  0  0  0  0  0  0  0  0  0
    6.2992   -2.6699    1.3619 O   0  0  0  0  0  0  0  0  0  0  0  0
   -6.1916   -1.0973    0.5948 O   0  0  0  0  0  0  0  0  0  0  0  0
   -8.6890   -0.5296    0.7533 O   0  0  0  0  0  0  0  0  0  0  0  0
   -7.8233   -2.0009   -1.0572 O   0  0  0  0  0  0  0  0  0  0  0  0
   -7.8738   -2.8177    1.3212 O   0  0  0  0  0  0  0  0  0  0  0  0
   -0.0580    1.4087   -0.1926 C   0  0  1  0  0  0  0  0  0  0  0  0
    0.5329    0.2546   -1.0384 C   0  0  2  0  0  0  0  0  0  0  0  0
    2.0680    0.2757   -1.1033 C   0  0  1  0  0  0  0  0  0  0  0  0
    2.6347    0.1778    0.3545 C   0  0  1  0  0  0  0  0  0  0  0  0
    4.2128    0.1807    0.3715 C   0  0  2  0  0  0  0  0  0  0  0  0
   -1.5663    1.1228   -0.4245 C   0  0  2  0  0  0  0  0  0  0  0  0
    0.4528    1.2644    1.2566 C   0  0  2  0  0  0  0  0  0  0  0  0
    1.9939    1.2312    1.3034 C   0  0  0  0  0  0  0  0  0  0  0  0
    4.6967   -0.9906   -0.5411 C   0  0  1  0  0  0  0  0  0  0  0  0
   -0.2469    0.3314   -2.3506 C   0  0  0  0  0  0  0  0  0  0  0  0
    2.6417   -0.8298   -2.0150 C   0  0  1  0  0  0  0  0  0  0  0  0
   -1.6522    0.7991   -1.9334 C   0  0  0  0  0  0  0  0  0  0  0  0
    4.1716   -0.8639   -1.9793 C   0  0  0  0  0  0  0  0  0  0  0  0
    4.7463   -0.0927    1.8070 C   0  0  0  0  0  0  0  0  0  0  0  0
    0.3169    2.8211   -0.7183 C   0  0  0  0  0  0  0  0  0  0  0  0
   -2.5352    2.2147    0.0055 C   0  0  1  0  0  0  0  0  0  0  0  0
    6.2240   -1.1791   -0.5183 C   0  0  0  0  0  0  0  0  0  0  0  0
    4.7666    1.5503   -0.1014 C   0  0  0  0  0  0  0  0  0  0  0  0
    6.2638   -0.3114    1.8679 C   0  0  0  0  0  0  0  0  0  0  0  0
    6.7446   -1.3934    0.9035 C   0  0  1  0  0  0  0  0  0  0  0  0
   -3.9836    1.8010   -0.3287 C   0  0  0  0  0  0  0  0  0  0  0  0
   -2.3519    2.5207    1.4960 C   0  0  0  0  0  0  0  0  0  0  0  0
   -4.4227    0.4980    0.3407 C   0  0  0  0  0  0  0  0  0  0  0  0
   -5.8485    0.1248   -0.0438 C   0  0  0  0  0  0  0  0  0  0  0  0
    0.2467   -0.7018   -0.5721 H   0  0  0  0  0  0  0  0  0  0  0  0
    2.3793    1.2283   -1.5437 H   0  0  0  0  0  0  0  0  0  0  0  0
    2.3211   -0.7939    0.7624 H   0  0  0  0  0  0  0  0  0  0  0  0
   -1.7981    0.1983    0.1188 H   0  0  0  0  0  0  0  0  0  0  0  0
    0.1391    2.0926    1.8923 H   0  0  0  0  0  0  0  0  0  0  0  0
    2.3757    2.2295    1.0699 H   0  0  0  0  0  0  0  0  0  0  0  0
    2.2993    1.0123    2.3331 H   0  0  0  0  0  0  0  0  0  0  0  0
    4.2821   -1.9206   -0.1270 H   0  0  0  0  0  0  0  0  0  0  0  0
    0.2040    1.0495   -3.0447 H   0  0  0  0  0  0  0  0  0  0  0  0
   -0.2860   -0.6381   -2.8579 H   0  0  0  0  0  0  0  0  0  0  0  0
    2.3153   -0.6722   -3.0485 H   0  0  0  0  0  0  0  0  0  0  0  0
   -2.3921    0.0134   -2.1218 H   0  0  0  0  0  0  0  0  0  0  0  0
   -1.9390    1.6719   -2.5311 H   0  0  0  0  0  0  0  0  0  0  0  0
    4.5214   -1.7267   -2.5605 H   0  0  0  0  0  0  0  0  0  0  0  0
    4.5788    0.0314   -2.4622 H   0  0  0  0  0  0  0  0  0  0  0  0
    4.5004    0.7410    2.4751 H   0  0  0  0  0  0  0  0  0  0  0  0
    4.2467   -0.9787    2.2201 H   0  0  0  0  0  0  0  0  0  0  0  0
   -0.0718    3.6067   -0.0626 H   0  0  0  0  0  0  0  0  0  0  0  0
   -0.0778    3.0152   -1.7206 H   0  0  0  0  0  0  0  0  0  0  0  0
    1.3971    2.9780   -0.7747 H   0  0  0  0  0  0  0  0  0  0  0  0
   -2.3458    3.1400   -0.5526 H   0  0  0  0  0  0  0  0  0  0  0  0
    6.4799   -2.0557   -1.1273 H   0  0  0  0  0  0  0  0  0  0  0  0
    6.7261   -0.3196   -0.9754 H   0  0  0  0  0  0  0  0  0  0  0  0
    4.5212    2.3453    0.6105 H   0  0  0  0  0  0  0  0  0  0  0  0
    5.8559    1.5505   -0.1955 H   0  0  0  0  0  0  0  0  0  0  0  0
    4.3729    1.8528   -1.0746 H   0  0  0  0  0  0  0  0  0  0  0  0
    6.5292   -0.5860    2.8961 H   0  0  0  0  0  0  0  0  0  0  0  0
    6.7820    0.6291    1.6501 H   0  0  0  0  0  0  0  0  0  0  0  0
    7.8398   -1.4208    0.8894 H   0  0  0  0  0  0  0  0  0  0  0  0
    0.3029    0.0514    2.7847 H   0  0  0  0  0  0  0  0  0  0  0  0
   -4.6601    2.6071   -0.0157 H   0  0  0  0  0  0  0  0  0  0  0  0
   -4.1090    1.7156   -1.4147 H   0  0  0  0  0  0  0  0  0  0  0  0
    2.3081   -2.2440   -0.6713 H   0  0  0  0  0  0  0  0  0  0  0  0
   -1.5236    3.2104    1.6676 H   0  0  0  0  0  0  0  0  0  0  0  0
   -3.2375    3.0406    1.8814 H   0  0  0  0  0  0  0  0  0  0  0  0
   -2.2265    1.6194    2.1025 H   0  0  0  0  0  0  0  0  0  0  0  0
   -3.7823   -0.3423    0.0558 H   0  0  0  0  0  0  0  0  0  0  0  0
   -4.3547    0.5771    1.4319 H   0  0  0  0  0  0  0  0  0  0  0  0
    6.6622   -2.8044    2.2539 H   0  0  0  0  0  0  0  0  0  0  0  0
   -5.9302    0.0006   -1.1291 H   0  0  0  0  0  0  0  0  0  0  0  0
   -6.5415    0.9109    0.2745 H   0  0  0  0  0  0  0  0  0  0  0  0
   -8.5022   -0.0832    1.6124 H   0  0  0  0  0  0  0  0  0  0  0  0
  1  5  1  0  0  0  0
  1  6  1  0  0  0  0
  1  7  2  0  0  0  0
  1  8  2  0  0  0  0
  2 15  1  0  0  0  0
  2 62  1  0  0  0  0
  3 19  1  0  0  0  0
  3 65  1  0  0  0  0
  4 28  1  0  0  0  0
  4 71  1  0  0  0  0
  5 32  1  0  0  0  0
  6 74  1  0  0  0  0
  9 10  1  0  0  0  0
  9 14  1  0  0  0  0
  9 15  1  0  0  0  0
  9 23  1  0  0  0  0
 10 11  1  0  0  0  0
 10 18  1  0  0  0  0
 10 33  1  0  0  0  0
 11 12  1  0  0  0  0
 11 19  1  0  0  0  0
 11 34  1  0  0  0  0
 12 13  1  0  0  0  0
 12 16  1  0  0  0  0
 12 35  1  0  0  0  0
 13 17  1  0  0  0  0
 13 22  1  0  0  0  0
 13 26  1  0  0  0  0
 14 20  1  0  0  0  0
 14 24  1  0  0  0  0
 14 36  1  0  0  0  0
 15 16  1  0  0  0  0
 15 37  1  0  0  0  0
 16 38  1  0  0  0  0
 16 39  1  0  0  0  0
 17 21  1  0  0  0  0
 17 25  1  0  0  0  0
 17 40  1  0  0  0  0
 18 20  1  0  0  0  0
 18 41  1  0  0  0  0
 18 42  1  0  0  0  0
 19 21  1  0  0  0  0
 19 43  1  0  0  0  0
 20 44  1  0  0  0  0
 20 45  1  0  0  0  0
 21 46  1  0  0  0  0
 21 47  1  0  0  0  0
 22 27  1  0  0  0  0
 22 48  1  0  0  0  0
 22 49  1  0  0  0  0
 23 50  1  0  0  0  0
 23 51  1  0  0  0  0
 23 52  1  0  0  0  0
 24 29  1  0  0  0  0
 24 30  1  0  0  0  0
 24 53  1  0  0  0  0
 25 28  1  0  0  0  0
 25 54  1  0  0  0  0
 25 55  1  0  0  0  0
 26 56  1  0  0  0  0
 26 57  1  0  0  0  0
 26 58  1  0  0  0  0
 27 28  1  0  0  0  0
 27 59  1  0  0  0  0
 27 60  1  0  0  0  0
 28 61  1  0  0  0  0
 29 31  1  0  0  0  0
 29 63  1  0  0  0  0
 29 64  1  0  0  0  0
 30 66  1  0  0  0  0
 30 67  1  0  0  0  0
 30 68  1  0  0  0  0
 31 32  1  0  0  0  0
 31 69  1  0  0  0  0
 31 70  1  0  0  0  0
 32 72  1  0  0  0  0
 32 73  1  0  0  0  0
M  END
> <PUBCHEM_COMPOUND_CID>
5200193

> <PUBCHEM_CONFORMER_RMSD>
1

> <PUBCHEM_CONFORMER_DIVERSEORDER>
6
5
10
8
7
9
2
11
4
1
12
3

> <PUBCHEM_MMFF94_PARTIAL_CHARGES>
16
1 1.67
15 0.28
19 0.28
2 -0.68
28 0.28
3 -0.68
32 0.28
4 -0.68
5 -0.46
6 -0.68
62 0.4
65 0.4
7 -0.65
71 0.4
74 0.5
8 -0.65

> <PUBCHEM_EFFECTIVE_ROTOR_COUNT>
8.2

> <PUBCHEM_PHARMACOPHORE_FEATURES>
15
1 2 acceptor
1 2 donor
1 3 acceptor
1 3 donor
1 30 hydrophobe
1 4 acceptor
1 4 donor
1 6 acceptor
1 7 acceptor
1 8 acceptor
4 1 6 7 8 anion
5 9 10 14 18 20 rings
6 11 12 13 17 19 21 rings
6 13 17 22 25 27 28 rings
6 9 10 11 12 15 16 rings

> <PUBCHEM_HEAVY_ATOM_COUNT>
32

> <PUBCHEM_ATOM_DEF_STEREO_COUNT>
11

> <PUBCHEM_ATOM_UDEF_STEREO_COUNT>
0

> <PUBCHEM_BOND_DEF_STEREO_COUNT>
0

> <PUBCHEM_BOND_UDEF_STEREO_COUNT>
0

> <PUBCHEM_ISOTOPIC_ATOM_COUNT>
0

> <PUBCHEM_COMPONENT_COUNT>
1

> <PUBCHEM_CACTVS_TAUTO_COUNT>
1

> <PUBCHEM_CONFORMER_ID>
004F594100000006

> <PUBCHEM_MMFF94_ENERGY>
102.6918

> <PUBCHEM_FEATURE_SELFOVERLAP>
76.261

> <PUBCHEM_SHAPE_FINGERPRINT>
10 15 17676778629878776888
10190206 1 11887681701402235599
10693767 8 16343710927936487795
10816530 90 8718822076739887830
10906281 52 13912612610907404296
11115154 58 16558755624912839781
11135609 12 18334012753617580229
11456790 92 16370730383082365842
11646440 116 16660369203389745040
11828532 37 18197210340327835451
11963148 33 18341901834829982346
12011746 2 12823002175881642612
12035758 1 17240489112646132540
12166972 35 17060334167454656972
12218070 45 16443638874839954543
12236239 1 17131546258472718900
13140716 1 16879376449223661072
13782708 43 18342455984241484882
13811026 1 18040999566430929981
13947930 73 18268705005781656959
14068700 675 18201999924399462205
14849402 71 14707503438554196611
14931854 50 13614526281174804221
15183329 4 13326859941819524165
15188451 53 18343865524226320861
15347590 135 17313106366782698139
15510800 12 18341880888748902371
16728433 281 10735889395701662815
17349148 13 16987987444850247508
18335252 98 18410857647052642208
190975 80 17967817124204423271
20028762 73 17989208178773757210
20105231 36 16950554511479510694
21130935 74 18266745864986306570
21267235 1 17240477061754013764
21424621 283 7132719405270060469
21521239 73 15913327991832604912
21623969 137 17676488371255927054
21637258 2 18202283615056629589
21781051 124 18040987445885638646
21781055 127 13984666928824152778
21792938 169 17059782226431181282
22149856 69 17313370254073533537
22224240 67 15936128565228007525
23569943 247 17622731234326731074
23576562 1 12606819428979905155
2747138 104 17748819739547301589
3178227 256 17312824861672274056
3383291 50 18409445857107115755
3633792 109 14908178659876683900
392239 28 16950293900615224256
4144715 1 17389366431669225336
4340502 62 17530686528427890782
439807 62 18343863321251106243
465052 167 18409169922273492384
474113 269 12463029740018458112
5104073 3 17241603012562088905
5718773 13 18343866598221410947
6086070 43 17346608511793132941
6126387 218 17530683226626616461
9689198 14 6483358846027936735

> <PUBCHEM_SHAPE_MULTIPOLES>
621.31
20.67
2.57
2.02
33.88
0.11
-0.34
18.98
8.52
2.49
0.37
-1.61
0.34
0.73

> <PUBCHEM_SHAPE_SELFOVERLAP>
1282.358

> <PUBCHEM_SHAPE_VOLUME>
359.3

> <PUBCHEM_COORDINATE_TYPE>
2
5
10

$$$$

