443488
  -OEChem-07051213023D

 59 61  0     1  0  0  0  0  0999 V2000
    3.5052   -1.3003   -1.5403 O   0  0  0  0  0  0  0  0  0  0  0  0
   -2.8534    0.3769   -0.9568 O   0  0  0  0  0  0  0  0  0  0  0  0
   -3.6939    1.4938    0.8825 O   0  0  0  0  0  0  0  0  0  0  0  0
   -0.0554   -1.9580   -0.0781 C   0  0  2  0  0  0  0  0  0  0  0  0
   -0.4906   -0.6369    0.6868 C   0  0  2  0  0  0  0  0  0  0  0  0
    1.4532    0.9609    1.6710 C   0  0  2  0  0  0  0  0  0  0  0  0
    2.6635    0.5885    0.7776 C   0  0  0  0  0  0  0  0  0  0  0  0
    0.3969   -0.1852    1.8893 C   0  0  0  0  0  0  0  0  0  0  0  0
    1.4439   -2.0895   -0.5181 C   0  0  0  0  0  0  0  0  0  0  0  0
    2.0817    0.3927   -0.6354 C   0  0  0  0  0  0  0  0  0  0  0  0
   -0.9313   -2.0723   -1.3683 C   0  0  0  0  0  0  0  0  0  0  0  0
    2.1397   -0.9593   -1.3037 C   0  0  1  0  0  0  0  0  0  0  0  0
    0.7935    2.2768    1.1919 C   0  0  0  0  0  0  0  0  0  0  0  0
   -1.9982   -0.7434    0.9963 C   0  0  0  0  0  0  0  0  0  0  0  0
   -2.4451   -2.0207   -1.1199 C   0  0  0  0  0  0  0  0  0  0  0  0
   -2.8790   -0.8516   -0.2319 C   0  0  2  0  0  0  0  0  0  0  0  0
   -0.3161   -3.2092    0.8132 C   0  0  0  0  0  0  0  0  0  0  0  0
    0.8421    2.5443   -0.3250 C   0  0  0  0  0  0  0  0  0  0  0  0
    1.3554    1.4040   -1.1823 C   0  0  0  0  0  0  0  0  0  0  0  0
    3.4686   -0.5589    1.4418 C   0  0  0  0  0  0  0  0  0  0  0  0
    3.7143    1.7438    0.7231 C   0  0  0  0  0  0  0  0  0  0  0  0
   -2.5580   -0.8136    2.2162 C   0  0  0  0  0  0  0  0  0  0  0  0
    0.8615    1.4596   -2.6040 C   0  0  0  0  0  0  0  0  0  0  0  0
   -3.2909    1.4740   -0.2726 C   0  0  0  0  0  0  0  0  0  0  0  0
   -3.2076    2.6838   -1.1533 C   0  0  0  0  0  0  0  0  0  0  0  0
   -0.4624    0.1775   -0.0353 H   0  0  0  0  0  0  0  0  0  0  0  0
    1.8422    1.1704    2.6795 H   0  0  0  0  0  0  0  0  0  0  0  0
   -0.2421    0.2205    2.6813 H   0  0  0  0  0  0  0  0  0  0  0  0
    0.8740   -1.0558    2.3472 H   0  0  0  0  0  0  0  0  0  0  0  0
    1.5227   -2.9864   -1.1540 H   0  0  0  0  0  0  0  0  0  0  0  0
    2.0519   -2.3843    0.3369 H   0  0  0  0  0  0  0  0  0  0  0  0
   -0.7009   -3.0029   -1.9028 H   0  0  0  0  0  0  0  0  0  0  0  0
   -0.6732   -1.2550   -2.0526 H   0  0  0  0  0  0  0  0  0  0  0  0
    1.6730   -0.9388   -2.2910 H   0  0  0  0  0  0  0  0  0  0  0  0
    1.2965    3.1172    1.6897 H   0  0  0  0  0  0  0  0  0  0  0  0
   -0.2459    2.3283    1.5406 H   0  0  0  0  0  0  0  0  0  0  0  0
   -2.9521   -1.9546   -2.0903 H   0  0  0  0  0  0  0  0  0  0  0  0
   -2.7630   -2.9645   -0.6605 H   0  0  0  0  0  0  0  0  0  0  0  0
   -3.9260   -1.0395    0.0435 H   0  0  0  0  0  0  0  0  0  0  0  0
   -0.0649   -4.1302    0.2734 H   0  0  0  0  0  0  0  0  0  0  0  0
   -1.3576   -3.3072    1.1301 H   0  0  0  0  0  0  0  0  0  0  0  0
    0.2982   -3.1851    1.7196 H   0  0  0  0  0  0  0  0  0  0  0  0
    1.4298    3.4469   -0.5321 H   0  0  0  0  0  0  0  0  0  0  0  0
   -0.1813    2.7869   -0.6366 H   0  0  0  0  0  0  0  0  0  0  0  0
    3.9691   -0.1980    2.3504 H   0  0  0  0  0  0  0  0  0  0  0  0
    2.8636   -1.3968    1.7809 H   0  0  0  0  0  0  0  0  0  0  0  0
    4.2560   -0.9424    0.7862 H   0  0  0  0  0  0  0  0  0  0  0  0
    4.0495    2.0155    1.7314 H   0  0  0  0  0  0  0  0  0  0  0  0
    4.5981    1.4321    0.1521 H   0  0  0  0  0  0  0  0  0  0  0  0
    3.3577    2.6644    0.2572 H   0  0  0  0  0  0  0  0  0  0  0  0
   -3.6321   -0.9198    2.3345 H   0  0  0  0  0  0  0  0  0  0  0  0
   -1.9814   -0.8047    3.1323 H   0  0  0  0  0  0  0  0  0  0  0  0
    0.9142    2.4886   -2.9779 H   0  0  0  0  0  0  0  0  0  0  0  0
   -0.1799    1.1290   -2.6616 H   0  0  0  0  0  0  0  0  0  0  0  0
    1.4670    0.8617   -3.2899 H   0  0  0  0  0  0  0  0  0  0  0  0
    3.5216   -2.1672   -1.9803 H   0  0  0  0  0  0  0  0  0  0  0  0
   -3.1270    3.5789   -0.5302 H   0  0  0  0  0  0  0  0  0  0  0  0
   -2.3175    2.6354   -1.7860 H   0  0  0  0  0  0  0  0  0  0  0  0
   -4.1043    2.7459   -1.7740 H   0  0  0  0  0  0  0  0  0  0  0  0
  1 12  1  0  0  0  0
  1 56  1  0  0  0  0
  2 16  1  0  0  0  0
  2 24  1  0  0  0  0
  3 24  2  0  0  0  0
  4  5  1  0  0  0  0
  4  9  1  0  0  0  0
  4 11  1  0  0  0  0
  4 17  1  0  0  0  0
  5  8  1  0  0  0  0
  5 14  1  0  0  0  0
  5 26  1  0  0  0  0
  6  7  1  0  0  0  0
  6  8  1  0  0  0  0
  6 13  1  0  0  0  0
  6 27  1  0  0  0  0
  7 10  1  0  0  0  0
  7 20  1  0  0  0  0
  7 21  1  0  0  0  0
  8 28  1  0  0  0  0
  8 29  1  0  0  0  0
  9 12  1  0  0  0  0
  9 30  1  0  0  0  0
  9 31  1  0  0  0  0
 10 12  1  0  0  0  0
 10 19  2  0  0  0  0
 11 15  1  0  0  0  0
 11 32  1  0  0  0  0
 11 33  1  0  0  0  0
 12 34  1  0  0  0  0
 13 18  1  0  0  0  0
 13 35  1  0  0  0  0
 13 36  1  0  0  0  0
 14 16  1  0  0  0  0
 14 22  2  0  0  0  0
 15 16  1  0  0  0  0
 15 37  1  0  0  0  0
 15 38  1  0  0  0  0
 16 39  1  0  0  0  0
 17 40  1  0  0  0  0
 17 41  1  0  0  0  0
 17 42  1  0  0  0  0
 18 19  1  0  0  0  0
 18 43  1  0  0  0  0
 18 44  1  0  0  0  0
 19 23  1  0  0  0  0
 20 45  1  0  0  0  0
 20 46  1  0  0  0  0
 20 47  1  0  0  0  0
 21 48  1  0  0  0  0
 21 49  1  0  0  0  0
 21 50  1  0  0  0  0
 22 51  1  0  0  0  0
 22 52  1  0  0  0  0
 23 53  1  0  0  0  0
 23 54  1  0  0  0  0
 23 55  1  0  0  0  0
 24 25  1  0  0  0  0
 25 57  1  0  0  0  0
 25 58  1  0  0  0  0
 25 59  1  0  0  0  0
M  END
> <PUBCHEM_COMPOUND_CID>
443488

> <PUBCHEM_CONFORMER_RMSD>
0.8

> <PUBCHEM_CONFORMER_DIVERSEORDER>
1
2

> <PUBCHEM_MMFF94_PARTIAL_CHARGES>
18
1 -0.68
10 -0.28
12 0.42
14 -0.28
16 0.42
18 0.14
19 -0.28
2 -0.43
22 -0.3
23 0.14
24 0.66
25 0.06
3 -0.57
5 0.14
51 0.15
52 0.15
56 0.4
7 0.14

> <PUBCHEM_EFFECTIVE_ROTOR_COUNT>
3.8

> <PUBCHEM_PHARMACOPHORE_FEATURES>
6
1 1 acceptor
1 1 donor
1 3 acceptor
3 7 20 21 hydrophobe
6 4 5 11 14 15 16 rings
6 6 7 10 13 18 19 rings

> <PUBCHEM_HEAVY_ATOM_COUNT>
25

> <PUBCHEM_ATOM_DEF_STEREO_COUNT>
5

> <PUBCHEM_ATOM_UDEF_STEREO_COUNT>
0

> <PUBCHEM_BOND_DEF_STEREO_COUNT>
0

> <PUBCHEM_BOND_UDEF_STEREO_COUNT>
0

> <PUBCHEM_ISOTOPIC_ATOM_COUNT>
0

> <PUBCHEM_COMPONENT_COUNT>
1

> <PUBCHEM_CACTVS_TAUTO_COUNT>
1

> <PUBCHEM_CONFORMER_ID>
0006C46000000001

> <PUBCHEM_MMFF94_ENERGY>
103.1428

> <PUBCHEM_FEATURE_SELFOVERLAP>
30.446

> <PUBCHEM_SHAPE_FINGERPRINT>
10863032 1 18041287599231766908
10948715 1 18263374607299795920
11370993 70 18187663387203277604
11578080 2 18187916266499332184
12077114 3 18340779143109683176
12156800 1 16244431578063812389
12422481 6 17624155083933756160
12654903 92 18343295972533586836
128993 33 18265877087111486297
13132413 78 18339935813881664232
13140716 1 18337952406104768843
14251745 187 18195519522575269516
14713325 29 17121662477846348836
15664445 248 17044556956989786495
16945 1 18199179590615324842
17093844 170 17481717763371399725
17357779 13 17825937397950053422
17492 54 17478875538639913253
17980427 23 15792013436991894210
18981168 100 18271236110958901495
192875 21 18049185279389870767
20600515 1 18272653442030093830
20691752 17 18130515226730875231
20905425 154 17836370723773059205
21330990 113 18197790005813183838
23419403 2 17046863156748531398
23557571 272 18051136895602797059
23559900 14 17967810583597037478
238 59 17971221203614343333
2748010 2 18336253639154364698
2818148 4 16558454336328364689
3797600 57 16482730794551123813
513532 50 17391670991267480397

> <PUBCHEM_SHAPE_MULTIPOLES>
496.88
5.65
3.21
2.1
0.77
0.02
0.09
1.75
-0.35
1.05
0.63
-0.31
0.11
0.58

> <PUBCHEM_SHAPE_SELFOVERLAP>
1033.217

> <PUBCHEM_SHAPE_VOLUME>
278.9

> <PUBCHEM_COORDINATE_TYPE>
2
5
10

$$$$

