17395598
  -OEChem-06241222513D

 56 59  0     0  0  0  0  0  0999 V2000
    3.1304   -1.6036   -1.0518 S   0  0  0  0  0  0  0  0  0  0  0  0
    0.6202   -2.3512    3.3595 F   0  0  0  0  0  0  0  0  0  0  0  0
    4.6452    1.0140    0.5331 O   0  0  0  0  0  0  0  0  0  0  0  0
   -1.1102    2.5035    1.0743 N   0  0  0  0  0  0  0  0  0  0  0  0
   -0.6156    1.8446    2.1362 N   0  0  0  0  0  0  0  0  0  0  0  0
    2.7918    1.7391   -0.6673 N   0  0  0  0  0  0  0  0  0  0  0  0
    0.3857   -1.6727   -1.3712 N   0  0  0  0  0  0  0  0  0  0  0  0
    1.4586   -0.5103   -2.9300 N   0  0  0  0  0  0  0  0  0  0  0  0
    1.0492    2.5757    0.7535 C   0  0  0  0  0  0  0  0  0  0  0  0
   -0.1543    2.9613    0.2157 C   0  0  0  0  0  0  0  0  0  0  0  0
    0.7039    1.8920    1.9347 C   0  0  0  0  0  0  0  0  0  0  0  0
   -2.5404    2.6592    0.9444 C   0  0  0  0  0  0  0  0  0  0  0  0
    2.4122    2.8264    0.2062 C   0  0  0  0  0  0  0  0  0  0  0  0
   -0.4762    3.7099   -1.0145 C   0  0  0  0  0  0  0  0  0  0  0  0
   -3.1502    1.5155    0.1800 C   0  0  0  0  0  0  0  0  0  0  0  0
    1.6096    1.2620    2.9120 C   0  0  0  0  0  0  0  0  0  0  0  0
   -3.5926    0.3800    0.8589 C   0  0  0  0  0  0  0  0  0  0  0  0
   -3.2737    1.5908   -1.2075 C   0  0  0  0  0  0  0  0  0  0  0  0
    3.8831    0.9204   -0.4277 C   0  0  0  0  0  0  0  0  0  0  0  0
    4.0782   -0.1287   -1.4969 C   0  0  0  0  0  0  0  0  0  0  0  0
   -4.1581   -0.6801    0.1505 C   0  0  0  0  0  0  0  0  0  0  0  0
   -3.8394    0.5306   -1.9158 C   0  0  0  0  0  0  0  0  0  0  0  0
   -4.2816   -0.6048   -1.2368 C   0  0  0  0  0  0  0  0  0  0  0  0
    1.5922   -1.2314   -1.8390 C   0  0  0  0  0  0  0  0  0  0  0  0
    0.1352   -2.4579   -0.2446 C   0  0  0  0  0  0  0  0  0  0  0  0
   -0.5786   -1.2028   -2.2176 C   0  0  0  0  0  0  0  0  0  0  0  0
    0.5109   -2.0035    1.0197 C   0  0  0  0  0  0  0  0  0  0  0  0
   -0.4920   -3.6961   -0.3828 C   0  0  0  0  0  0  0  0  0  0  0  0
    0.1076   -0.4881   -3.1711 C   0  0  0  0  0  0  0  0  0  0  0  0
    0.2596   -2.7876    2.1457 C   0  0  0  0  0  0  0  0  0  0  0  0
   -0.7431   -4.4802    0.7431 C   0  0  0  0  0  0  0  0  0  0  0  0
   -0.3674   -4.0260    2.0072 C   0  0  0  0  0  0  0  0  0  0  0  0
   -2.7682    3.6208    0.4750 H   0  0  0  0  0  0  0  0  0  0  0  0
   -2.9654    2.7162    1.9548 H   0  0  0  0  0  0  0  0  0  0  0  0
    2.4380    3.7449   -0.3881 H   0  0  0  0  0  0  0  0  0  0  0  0
    3.1404    2.9397    1.0160 H   0  0  0  0  0  0  0  0  0  0  0  0
    0.3770    4.3179   -1.3335 H   0  0  0  0  0  0  0  0  0  0  0  0
   -1.3124    4.4018   -0.8877 H   0  0  0  0  0  0  0  0  0  0  0  0
   -0.7012    3.0214   -1.8341 H   0  0  0  0  0  0  0  0  0  0  0  0
    2.1201    2.0274    3.5055 H   0  0  0  0  0  0  0  0  0  0  0  0
    1.0690    0.6053    3.6019 H   0  0  0  0  0  0  0  0  0  0  0  0
    2.3703    0.6570    2.4093 H   0  0  0  0  0  0  0  0  0  0  0  0
    2.2372    1.5920   -1.5058 H   0  0  0  0  0  0  0  0  0  0  0  0
   -3.5007    0.3079    1.9393 H   0  0  0  0  0  0  0  0  0  0  0  0
   -2.9571    2.4747   -1.7515 H   0  0  0  0  0  0  0  0  0  0  0  0
    3.8283    0.2602   -2.4883 H   0  0  0  0  0  0  0  0  0  0  0  0
    5.1406   -0.3936   -1.5180 H   0  0  0  0  0  0  0  0  0  0  0  0
   -4.5007   -1.5650    0.6788 H   0  0  0  0  0  0  0  0  0  0  0  0
   -3.9391    0.5905   -2.9956 H   0  0  0  0  0  0  0  0  0  0  0  0
   -4.7213   -1.4306   -1.7885 H   0  0  0  0  0  0  0  0  0  0  0  0
   -1.6282   -1.4201   -2.0899 H   0  0  0  0  0  0  0  0  0  0  0  0
    0.9872   -1.0372    1.1498 H   0  0  0  0  0  0  0  0  0  0  0  0
   -0.7881   -4.0687   -1.3605 H   0  0  0  0  0  0  0  0  0  0  0  0
   -0.3023    0.0377   -4.0209 H   0  0  0  0  0  0  0  0  0  0  0  0
   -1.2305   -5.4447    0.6356 H   0  0  0  0  0  0  0  0  0  0  0  0
   -0.5628   -4.6362    2.8840 H   0  0  0  0  0  0  0  0  0  0  0  0
  1 20  1  0  0  0  0
  1 24  1  0  0  0  0
  2 30  1  0  0  0  0
  3 19  2  0  0  0  0
  4  5  1  0  0  0  0
  4 10  1  0  0  0  0
  4 12  1  0  0  0  0
  5 11  2  0  0  0  0
  6 13  1  0  0  0  0
  6 19  1  0  0  0  0
  6 43  1  0  0  0  0
  7 24  1  0  0  0  0
  7 25  1  0  0  0  0
  7 26  1  0  0  0  0
  8 24  2  0  0  0  0
  8 29  1  0  0  0  0
  9 10  2  0  0  0  0
  9 11  1  0  0  0  0
  9 13  1  0  0  0  0
 10 14  1  0  0  0  0
 11 16  1  0  0  0  0
 12 15  1  0  0  0  0
 12 33  1  0  0  0  0
 12 34  1  0  0  0  0
 13 35  1  0  0  0  0
 13 36  1  0  0  0  0
 14 37  1  0  0  0  0
 14 38  1  0  0  0  0
 14 39  1  0  0  0  0
 15 17  2  0  0  0  0
 15 18  1  0  0  0  0
 16 40  1  0  0  0  0
 16 41  1  0  0  0  0
 16 42  1  0  0  0  0
 17 21  1  0  0  0  0
 17 44  1  0  0  0  0
 18 22  2  0  0  0  0
 18 45  1  0  0  0  0
 19 20  1  0  0  0  0
 20 46  1  0  0  0  0
 20 47  1  0  0  0  0
 21 23  2  0  0  0  0
 21 48  1  0  0  0  0
 22 23  1  0  0  0  0
 22 49  1  0  0  0  0
 23 50  1  0  0  0  0
 25 27  2  0  0  0  0
 25 28  1  0  0  0  0
 26 29  2  0  0  0  0
 26 51  1  0  0  0  0
 27 30  1  0  0  0  0
 27 52  1  0  0  0  0
 28 31  2  0  0  0  0
 28 53  1  0  0  0  0
 29 54  1  0  0  0  0
 30 32  2  0  0  0  0
 31 32  1  0  0  0  0
 31 55  1  0  0  0  0
 32 56  1  0  0  0  0
M  END
> <PUBCHEM_COMPOUND_CID>
17395598

> <PUBCHEM_CONFORMER_RMSD>
1.6

> <PUBCHEM_CONFORMER_DIVERSEORDER>
1
15
35
62
61
8
21
12
99
36
74
132
60
131
7
94
66
125
88
68
128
6
65
76
63
43
114
129
18
84
101
3
17
100
118
11
79
38
90
70
58
50
52
51
120
112
40
104
86
122
37
73
93
47
13
83
48
55
117
41
97
87
23
82
29
54
124
27
78
49
26
30
81
39
4
24
105
57
56
34
20
80
130
102
5
28
134
46
71
77
126
72
110
2
19
14
91
75
32
107
115
85
113
67
44
45
96
127
121
69
123
98
103
22
42
9
53
92
59
25
64
106
33
95
16
119
109
31
10
116
108
133
111
89

> <PUBCHEM_MMFF94_PARTIAL_CHARGES>
44
1 -0.29
10 -0.33
11 0.11
12 0.4
13 0.48
14 0.18
15 -0.14
16 0.18
17 -0.15
18 -0.15
19 0.57
2 -0.19
20 0.29
21 -0.15
22 -0.15
23 -0.15
24 0.24
25 -0.02
26 -0.3
27 -0.15
28 -0.15
29 0.08
3 -0.57
30 0.19
31 -0.15
32 -0.15
4 0.31
43 0.37
44 0.15
45 0.15
48 0.15
49 0.15
5 -0.71
50 0.15
51 0.15
52 0.15
53 0.15
54 0.15
55 0.15
56 0.15
6 -0.73
7 0.33
8 -0.57
9 -0.18

> <PUBCHEM_EFFECTIVE_ROTOR_COUNT>
9

> <PUBCHEM_PHARMACOPHORE_FEATURES>
8
1 3 acceptor
1 5 acceptor
1 6 donor
3 7 8 24 cation
5 4 5 9 10 11 rings
5 7 8 24 26 29 rings
6 15 17 18 21 22 23 rings
6 25 27 28 30 31 32 rings

> <PUBCHEM_HEAVY_ATOM_COUNT>
32

> <PUBCHEM_ATOM_DEF_STEREO_COUNT>
0

> <PUBCHEM_ATOM_UDEF_STEREO_COUNT>
0

> <PUBCHEM_BOND_DEF_STEREO_COUNT>
0

> <PUBCHEM_BOND_UDEF_STEREO_COUNT>
0

> <PUBCHEM_ISOTOPIC_ATOM_COUNT>
0

> <PUBCHEM_COMPONENT_COUNT>
1

> <PUBCHEM_CACTVS_TAUTO_COUNT>
2

> <PUBCHEM_CONFORMER_ID>
01096F8E00000001

> <PUBCHEM_MMFF94_ENERGY>
70.0172

> <PUBCHEM_FEATURE_SELFOVERLAP>
40.594

> <PUBCHEM_SHAPE_FINGERPRINT>
10032420 55 18337389465005461460
10119406 146 18192407841146455750
12156800 1 17049897323688990477
13751561 76 16332147068365221675
14114207 22 16536596135394087515
17492 54 18113902653991564564
19319366 153 16682538840639077094
20764821 26 17977647728814289167
35225 105 17842579352508278355

> <PUBCHEM_SHAPE_MULTIPOLES>
624.35
6.29
5.43
3.07
1.62
2.83
0.25
-2.5
-2.45
-0.21
2.81
-0.74
1.13
0.23

> <PUBCHEM_SHAPE_SELFOVERLAP>
1336.227

> <PUBCHEM_SHAPE_VOLUME>
351.6

> <PUBCHEM_COORDINATE_TYPE>
2
5
10

$$$$

