10642
  -OEChem-06261204473D

 52 55  0     1  0  0  0  0  0999 V2000
   -2.6235    0.3819   -0.0229 O   0  0  0  0  0  0  0  0  0  0  0  0
   -0.4624    1.0962   -0.6752 O   0  0  0  0  0  0  0  0  0  0  0  0
   -2.8095    4.4733    0.6466 O   0  0  0  0  0  0  0  0  0  0  0  0
   -4.6443    2.4094    0.5681 O   0  0  0  0  0  0  0  0  0  0  0  0
   -0.4393    3.0161    1.3266 O   0  0  0  0  0  0  0  0  0  0  0  0
    1.9274   -1.6197    0.0071 O   0  0  0  0  0  0  0  0  0  0  0  0
    1.7749    2.5012   -0.6222 O   0  0  0  0  0  0  0  0  0  0  0  0
    4.3576    2.6276   -0.3670 O   0  0  0  0  0  0  0  0  0  0  0  0
    6.6232   -1.4523    0.4325 O   0  0  0  0  0  0  0  0  0  0  0  0
   -2.8777   -3.1528    2.2132 O   0  0  0  0  0  0  0  0  0  0  0  0
   -3.7454   -4.3658   -0.1322 O   0  0  0  0  0  0  0  0  0  0  0  0
   -2.4431    3.2529    0.0081 C   0  0  2  0  0  0  0  0  0  0  0  0
   -3.6947    2.5255   -0.4943 C   0  0  1  0  0  0  0  0  0  0  0  0
   -1.6688    2.3783    0.9938 C   0  0  1  0  0  0  0  0  0  0  0  0
   -3.3289    1.1321   -1.0238 C   0  0  2  0  0  0  0  0  0  0  0  0
   -1.4002    0.9939    0.3953 C   0  0  1  0  0  0  0  0  0  0  0  0
   -4.5570    0.3191   -1.4180 C   0  0  0  0  0  0  0  0  0  0  0  0
    0.6808    0.3723   -0.4192 C   0  0  0  0  0  0  0  0  0  0  0  0
    0.7280   -0.9556   -0.2054 C   0  0  0  0  0  0  0  0  0  0  0  0
    1.9110    1.1437   -0.4066 C   0  0  0  0  0  0  0  0  0  0  0  0
    3.1070    0.5454   -0.1960 C   0  0  0  0  0  0  0  0  0  0  0  0
    3.1258   -0.9120    0.0196 C   0  0  0  0  0  0  0  0  0  0  0  0
   -0.4412   -1.8456   -0.1826 C   0  0  0  0  0  0  0  0  0  0  0  0
    4.3896    1.2619   -0.1707 C   0  0  0  0  0  0  0  0  0  0  0  0
    4.2724   -1.5731    0.2272 C   0  0  0  0  0  0  0  0  0  0  0  0
   -1.1182   -2.0845    1.0158 C   0  0  0  0  0  0  0  0  0  0  0  0
   -0.8797   -2.4574   -1.3594 C   0  0  0  0  0  0  0  0  0  0  0  0
    5.5462    0.6141    0.0356 C   0  0  0  0  0  0  0  0  0  0  0  0
    5.5689   -0.8542    0.2471 C   0  0  0  0  0  0  0  0  0  0  0  0
   -2.2273   -2.9301    1.0371 C   0  0  0  0  0  0  0  0  0  0  0  0
   -1.9887   -3.3029   -1.3381 C   0  0  0  0  0  0  0  0  0  0  0  0
   -2.6627   -3.5392   -0.1400 C   0  0  0  0  0  0  0  0  0  0  0  0
   -1.7945    3.5169   -0.8363 H   0  0  0  0  0  0  0  0  0  0  0  0
   -4.1796    3.1145   -1.2814 H   0  0  0  0  0  0  0  0  0  0  0  0
   -2.2481    2.2754    1.9201 H   0  0  0  0  0  0  0  0  0  0  0  0
   -2.6857    1.2287   -1.9073 H   0  0  0  0  0  0  0  0  0  0  0  0
   -1.0001    0.4271    1.2398 H   0  0  0  0  0  0  0  0  0  0  0  0
   -4.2510   -0.6469   -1.8346 H   0  0  0  0  0  0  0  0  0  0  0  0
   -5.1854    0.0943   -0.5494 H   0  0  0  0  0  0  0  0  0  0  0  0
   -5.1586    0.8446   -2.1657 H   0  0  0  0  0  0  0  0  0  0  0  0
   -3.3025    5.0049   -0.0014 H   0  0  0  0  0  0  0  0  0  0  0  0
   -4.8244    3.3071    0.8958 H   0  0  0  0  0  0  0  0  0  0  0  0
   -0.6536    3.8977    1.6766 H   0  0  0  0  0  0  0  0  0  0  0  0
    4.2911   -2.6458    0.3856 H   0  0  0  0  0  0  0  0  0  0  0  0
   -0.7663   -1.6394    1.9441 H   0  0  0  0  0  0  0  0  0  0  0  0
   -0.3653   -2.2826   -2.3014 H   0  0  0  0  0  0  0  0  0  0  0  0
    0.8322    2.7002   -0.7548 H   0  0  0  0  0  0  0  0  0  0  0  0
    6.4950    1.1388    0.0547 H   0  0  0  0  0  0  0  0  0  0  0  0
   -2.3234   -3.7735   -2.2585 H   0  0  0  0  0  0  0  0  0  0  0  0
    3.4593    2.9656   -0.2351 H   0  0  0  0  0  0  0  0  0  0  0  0
   -2.4400   -2.6464    2.9188 H   0  0  0  0  0  0  0  0  0  0  0  0
   -4.0871   -4.4136    0.7776 H   0  0  0  0  0  0  0  0  0  0  0  0
  1 15  1  0  0  0  0
  1 16  1  0  0  0  0
  2 16  1  0  0  0  0
  2 18  1  0  0  0  0
  3 12  1  0  0  0  0
  3 41  1  0  0  0  0
  4 13  1  0  0  0  0
  4 42  1  0  0  0  0
  5 14  1  0  0  0  0
  5 43  1  0  0  0  0
  6 19  1  0  0  0  0
  6 22  1  0  0  0  0
  7 20  1  0  0  0  0
  7 47  1  0  0  0  0
  8 24  1  0  0  0  0
  8 50  1  0  0  0  0
  9 29  2  0  0  0  0
 10 30  1  0  0  0  0
 10 51  1  0  0  0  0
 11 32  1  0  0  0  0
 11 52  1  0  0  0  0
 12 13  1  0  0  0  0
 12 14  1  0  0  0  0
 12 33  1  0  0  0  0
 13 15  1  0  0  0  0
 13 34  1  0  0  0  0
 14 16  1  0  0  0  0
 14 35  1  0  0  0  0
 15 17  1  0  0  0  0
 15 36  1  0  0  0  0
 16 37  1  0  0  0  0
 17 38  1  0  0  0  0
 17 39  1  0  0  0  0
 17 40  1  0  0  0  0
 18 19  2  0  0  0  0
 18 20  1  0  0  0  0
 19 23  1  0  0  0  0
 20 21  2  0  0  0  0
 21 22  1  0  0  0  0
 21 24  1  0  0  0  0
 22 25  2  0  0  0  0
 23 26  2  0  0  0  0
 23 27  1  0  0  0  0
 24 28  2  0  0  0  0
 25 29  1  0  0  0  0
 25 44  1  0  0  0  0
 26 30  1  0  0  0  0
 26 45  1  0  0  0  0
 27 31  2  0  0  0  0
 27 46  1  0  0  0  0
 28 29  1  0  0  0  0
 28 48  1  0  0  0  0
 30 32  2  0  0  0  0
 31 32  1  0  0  0  0
 31 49  1  0  0  0  0
M  END
> <PUBCHEM_COMPOUND_CID>
10642

> <PUBCHEM_CONFORMER_RMSD>
0.8

> <PUBCHEM_CONFORMER_DIVERSEORDER>
3
36
38
26
18
10
24
25
34
22
7
27
39
29
15
33
30
37
19
32
12
21
17
16
8
4
28
20
31
35
13
1
23
9
2
14
11
5
6

> <PUBCHEM_MMFF94_PARTIAL_CHARGES>
42
1 -0.56
10 -0.53
11 -0.53
12 0.28
13 0.28
14 0.28
15 0.28
16 0.56
18 0.08
19 0.05
2 -0.36
20 0.08
22 0.08
23 0.03
24 0.08
25 -0.14
26 -0.15
27 -0.15
28 -0.14
29 0.54
3 -0.68
30 0.08
31 -0.15
32 0.08
4 -0.68
41 0.4
42 0.4
43 0.4
44 0.15
45 0.15
46 0.15
47 0.45
48 0.15
49 0.15
5 -0.68
50 0.45
51 0.45
52 0.45
6 -0.15
7 -0.53
8 -0.53
9 -0.57

> <PUBCHEM_EFFECTIVE_ROTOR_COUNT>
4.2

> <PUBCHEM_PHARMACOPHORE_FEATURES>
18
1 1 acceptor
1 10 donor
1 11 donor
1 2 acceptor
1 3 acceptor
1 3 donor
1 4 acceptor
1 4 donor
1 5 acceptor
1 5 donor
1 6 acceptor
1 7 donor
1 8 donor
1 9 acceptor
6 1 12 13 14 15 16 rings
6 21 22 24 25 28 29 rings
6 23 26 27 30 31 32 rings
6 6 18 19 20 21 22 rings

> <PUBCHEM_HEAVY_ATOM_COUNT>
32

> <PUBCHEM_ATOM_DEF_STEREO_COUNT>
5

> <PUBCHEM_ATOM_UDEF_STEREO_COUNT>
0

> <PUBCHEM_BOND_DEF_STEREO_COUNT>
0

> <PUBCHEM_BOND_UDEF_STEREO_COUNT>
0

> <PUBCHEM_ISOTOPIC_ATOM_COUNT>
0

> <PUBCHEM_COMPONENT_COUNT>
1

> <PUBCHEM_CACTVS_TAUTO_COUNT>
162

> <PUBCHEM_CONFORMER_ID>
0000299200000003

> <PUBCHEM_MMFF94_ENERGY>
108.8988

> <PUBCHEM_FEATURE_SELFOVERLAP>
91.443

> <PUBCHEM_SHAPE_FINGERPRINT>
10050765 1 18410856526419573124
10119406 146 18192427696358862534
10411042 1 18121502349693490295
1100329 8 18411421730429062512
11513181 2 17898858117032024102
11578080 2 17460611228905295970
12107183 9 18125448750971954650
12156800 1 18122939506206601515
12422481 6 18122310615657584635
12643181 29 18265607879411284190
12741549 16 17340712720254642911
12788726 201 18269848535737829539
13004483 165 18191872227568141658
13140716 1 18337950078200774218
13540713 5 18272929402617021172
13583140 156 17418089957500465544
13690498 29 18191565503274913398
138480 1 16752684487162234967
14790565 3 18122624118099945252
14844126 61 18336273357592561026
14866123 147 18341898519209818314
15042514 8 18410854322362897975
15131766 46 15983101832207145926
15775530 1 17897980608026930686
15927050 60 18194402418714944062
17138139 8 17900017977782976261
18603816 31 15482403014509828664
19301679 30 18338790109681147074
20587220 46 14284771780503374471
20775438 99 16239611125967797543
21033648 144 18341907281465166532
21049683 271 17263276229492525047
21133410 90 17168983379958388459
21641784 216 17842545258926001884
22182313 1 18115285878706802070
23558518 356 18129936772362129674
23559900 14 18335427855216085144
23598288 3 18335423413602950270
25147074 1 18202003206006982532
283562 15 18270402664150060994
335352 9 18339926034705225326
3380486 145 18196074565900087683
3383291 50 18409737269888959227
352729 6 18335412495647896806
38695281 34 18123192565489919669
4258327 124 17560786711304968812
4409770 3 18410858750669761751
460360 51 18339062861979426910
484989 97 18342184307071919143
5104073 3 18342468011236422296
5171179 24 17752782229035064209
7164475 11 18267302032858929718
79837 15 18338228388008309441
9709674 26 18334008432616820990
9981440 41 18263925612733090867

> <PUBCHEM_SHAPE_MULTIPOLES>
593.98
10.63
5.39
1.17
14.78
0.66
-0.19
-0.87
0.13
-7.45
-0.88
-1.17
0.51
-0.31

> <PUBCHEM_SHAPE_SELFOVERLAP>
1307.013

> <PUBCHEM_SHAPE_VOLUME>
314.3

> <PUBCHEM_COORDINATE_TYPE>
2
5
10

$$$$

