11601
  -OEChem-06261205533D

 18 17  0     0  0  0  0  0  0999 V2000
    1.9538    0.4732    0.0361 C   0  0  0  0  0  0  0  0  0  0  0  0
   -1.9538    0.4732   -0.0360 C   0  0  0  0  0  0  0  0  0  0  0  0
    0.5083    0.4673    0.4372 C   0  0  0  0  0  0  0  0  0  0  0  0
   -0.5084    0.4673   -0.4374 C   0  0  0  0  0  0  0  0  0  0  0  0
    2.4926   -0.9405   -0.1175 C   0  0  0  0  0  0  0  0  0  0  0  0
   -2.4926   -0.9405    0.1174 C   0  0  0  0  0  0  0  0  0  0  0  0
    2.0851    1.0165   -0.9074 H   0  0  0  0  0  0  0  0  0  0  0  0
    2.5327    1.0156    0.7922 H   0  0  0  0  0  0  0  0  0  0  0  0
   -2.0849    1.0163    0.9076 H   0  0  0  0  0  0  0  0  0  0  0  0
   -2.5328    1.0157   -0.7919 H   0  0  0  0  0  0  0  0  0  0  0  0
    0.2957    0.4572    1.5033 H   0  0  0  0  0  0  0  0  0  0  0  0
   -0.2959    0.4575   -1.5035 H   0  0  0  0  0  0  0  0  0  0  0  0
    3.5519   -0.9126   -0.3925 H   0  0  0  0  0  0  0  0  0  0  0  0
    2.4013   -1.5028    0.8181 H   0  0  0  0  0  0  0  0  0  0  0  0
    1.9558   -1.4890   -0.8989 H   0  0  0  0  0  0  0  0  0  0  0  0
   -1.9556   -1.4892    0.8987 H   0  0  0  0  0  0  0  0  0  0  0  0
   -3.5518   -0.9127    0.3927 H   0  0  0  0  0  0  0  0  0  0  0  0
   -2.4014   -1.5026   -0.8182 H   0  0  0  0  0  0  0  0  0  0  0  0
  1  3  1  0  0  0  0
  1  5  1  0  0  0  0
  1  7  1  0  0  0  0
  1  8  1  0  0  0  0
  2  4  1  0  0  0  0
  2  6  1  0  0  0  0
  2  9  1  0  0  0  0
  2 10  1  0  0  0  0
  3  4  2  0  0  0  0
  3 11  1  0  0  0  0
  4 12  1  0  0  0  0
  5 13  1  0  0  0  0
  5 14  1  0  0  0  0
  5 15  1  0  0  0  0
  6 16  1  0  0  0  0
  6 17  1  0  0  0  0
  6 18  1  0  0  0  0
M  END
> <PUBCHEM_COMPOUND_CID>
11601

> <PUBCHEM_CONFORMER_RMSD>
0.4

> <PUBCHEM_CONFORMER_DIVERSEORDER>
1
2

> <PUBCHEM_MMFF94_PARTIAL_CHARGES>
6
1 0.14
11 0.15
12 0.15
2 0.14
3 -0.29
4 -0.29

> <PUBCHEM_EFFECTIVE_ROTOR_COUNT>
2

> <PUBCHEM_PHARMACOPHORE_FEATURES>
2
1 5 hydrophobe
1 6 hydrophobe

> <PUBCHEM_HEAVY_ATOM_COUNT>
6

> <PUBCHEM_ATOM_DEF_STEREO_COUNT>
0

> <PUBCHEM_ATOM_UDEF_STEREO_COUNT>
0

> <PUBCHEM_BOND_DEF_STEREO_COUNT>
0

> <PUBCHEM_BOND_UDEF_STEREO_COUNT>
1

> <PUBCHEM_ISOTOPIC_ATOM_COUNT>
0

> <PUBCHEM_COMPONENT_COUNT>
1

> <PUBCHEM_CACTVS_TAUTO_COUNT>
1

> <PUBCHEM_CONFORMER_ID>
00002D5100000001

> <PUBCHEM_MMFF94_ENERGY>
-2.2942

> <PUBCHEM_FEATURE_SELFOVERLAP>
10.149

> <PUBCHEM_SHAPE_FINGERPRINT>
14390081 3 9655574106283214271
16714656 1 17918275367792288615
20096714 4 9943514220208159900
23552423 10 18202562895104474734
29004967 10 18186804677449373912
5460574 1 9367350340101943304

> <PUBCHEM_SHAPE_MULTIPOLES>
123.48
4.05
1.06
0.69
0
0.21
0
1.31
0
0
0
0
-0.03
0.14

> <PUBCHEM_SHAPE_SELFOVERLAP>
212.505

> <PUBCHEM_SHAPE_VOLUME>
81.5

> <PUBCHEM_COORDINATE_TYPE>
2
5
10

$$$$

