93532
  -OEChem-07051213123D

 48 49  0     1  0  0  0  0  0999 V2000
    1.3290   -2.0505   -0.5239 O   0  0  0  0  0  0  0  0  0  0  0  0
    1.7199    2.2051    0.1813 O   0  0  0  0  0  0  0  0  0  0  0  0
    0.3456   -0.2652   -1.5883 O   0  0  0  0  0  0  0  0  0  0  0  0
   -2.9557    1.7448    1.0011 O   0  0  0  0  0  0  0  0  0  0  0  0
   -1.0799    0.3630    0.7450 N   0  0  0  0  0  0  0  0  0  0  0  0
   -3.2400   -0.2360   -0.0237 N   0  0  0  0  0  0  0  0  0  0  0  0
   -5.1514   -1.2617   -0.6160 N   0  0  0  0  0  0  0  0  0  0  0  0
   -0.5210   -0.9753    0.5536 C   0  0  2  0  0  0  0  0  0  0  0  0
    0.1569   -1.4915    1.8275 C   0  0  0  0  0  0  0  0  0  0  0  0
   -0.1804    1.3272    1.3613 C   0  0  0  0  0  0  0  0  0  0  0  0
    0.4195   -1.0429   -0.6424 C   0  0  0  0  0  0  0  0  0  0  0  0
   -2.4276    0.7023    0.6321 C   0  0  0  0  0  0  0  0  0  0  0  0
   -0.7230   -1.4166    3.0706 C   0  0  0  0  0  0  0  0  0  0  0  0
    0.3802    2.2343    0.3087 C   0  0  0  0  0  0  0  0  0  0  0  0
    2.2557   -2.1825   -1.6068 C   0  0  0  0  0  0  0  0  0  0  0  0
    3.4822   -1.3300   -1.3118 C   0  0  0  0  0  0  0  0  0  0  0  0
   -0.2062    3.0962   -0.5583 C   0  0  0  0  0  0  0  0  0  0  0  0
    4.1813   -1.7755   -0.0287 C   0  0  0  0  0  0  0  0  0  0  0  0
   -2.9329   -1.1350   -1.0234 C   0  0  0  0  0  0  0  0  0  0  0  0
   -4.6093   -0.3355    0.1411 C   0  0  0  0  0  0  0  0  0  0  0  0
    0.8594    3.6613   -1.2987 C   0  0  0  0  0  0  0  0  0  0  0  0
    2.0100    3.0868   -0.8112 C   0  0  0  0  0  0  0  0  0  0  0  0
   -4.1126   -1.7625   -1.3459 C   0  0  0  0  0  0  0  0  0  0  0  0
    5.4114   -0.9585    0.2339 C   0  0  0  0  0  0  0  0  0  0  0  0
    5.5888   -0.2018    1.3228 C   0  0  0  0  0  0  0  0  0  0  0  0
   -1.2942   -1.7228    0.3948 H   0  0  0  0  0  0  0  0  0  0  0  0
    0.3986   -2.5548    1.6857 H   0  0  0  0  0  0  0  0  0  0  0  0
    1.1285   -1.0225    2.0178 H   0  0  0  0  0  0  0  0  0  0  0  0
   -0.7471    1.9449    2.0692 H   0  0  0  0  0  0  0  0  0  0  0  0
    0.6322    0.8850    1.9352 H   0  0  0  0  0  0  0  0  0  0  0  0
   -0.9203   -0.3873    3.3809 H   0  0  0  0  0  0  0  0  0  0  0  0
   -0.2279   -1.9208    3.9071 H   0  0  0  0  0  0  0  0  0  0  0  0
   -1.6827   -1.9154    2.9007 H   0  0  0  0  0  0  0  0  0  0  0  0
    2.5309   -3.2405   -1.6753 H   0  0  0  0  0  0  0  0  0  0  0  0
    1.8010   -1.9082   -2.5656 H   0  0  0  0  0  0  0  0  0  0  0  0
    4.1746   -1.3972   -2.1597 H   0  0  0  0  0  0  0  0  0  0  0  0
    3.1875   -0.2777   -1.2142 H   0  0  0  0  0  0  0  0  0  0  0  0
   -1.2599    3.3098   -0.6629 H   0  0  0  0  0  0  0  0  0  0  0  0
    3.4926   -1.7087    0.8219 H   0  0  0  0  0  0  0  0  0  0  0  0
    4.4781   -2.8278   -0.1142 H   0  0  0  0  0  0  0  0  0  0  0  0
   -1.9763   -1.2084   -1.5099 H   0  0  0  0  0  0  0  0  0  0  0  0
   -5.1478    0.2869    0.8436 H   0  0  0  0  0  0  0  0  0  0  0  0
    0.7966    4.3954   -2.0890 H   0  0  0  0  0  0  0  0  0  0  0  0
    3.0581    3.1916   -1.0512 H   0  0  0  0  0  0  0  0  0  0  0  0
   -4.2675   -2.5212   -2.0990 H   0  0  0  0  0  0  0  0  0  0  0  0
    6.2063   -0.9997   -0.5062 H   0  0  0  0  0  0  0  0  0  0  0  0
    6.5056    0.3618    1.4565 H   0  0  0  0  0  0  0  0  0  0  0  0
    4.8294   -0.1295    2.0934 H   0  0  0  0  0  0  0  0  0  0  0  0
  1 11  1  0  0  0  0
  1 15  1  0  0  0  0
  2 14  1  0  0  0  0
  2 22  1  0  0  0  0
  3 11  2  0  0  0  0
  4 12  2  0  0  0  0
  5  8  1  0  0  0  0
  5 10  1  0  0  0  0
  5 12  1  0  0  0  0
  6 12  1  0  0  0  0
  6 19  1  0  0  0  0
  6 20  1  0  0  0  0
  7 20  2  0  0  0  0
  7 23  1  0  0  0  0
  8  9  1  0  0  0  0
  8 11  1  0  0  0  0
  8 26  1  0  0  0  0
  9 13  1  0  0  0  0
  9 27  1  0  0  0  0
  9 28  1  0  0  0  0
 10 14  1  0  0  0  0
 10 29  1  0  0  0  0
 10 30  1  0  0  0  0
 13 31  1  0  0  0  0
 13 32  1  0  0  0  0
 13 33  1  0  0  0  0
 14 17  2  0  0  0  0
 15 16  1  0  0  0  0
 15 34  1  0  0  0  0
 15 35  1  0  0  0  0
 16 18  1  0  0  0  0
 16 36  1  0  0  0  0
 16 37  1  0  0  0  0
 17 21  1  0  0  0  0
 17 38  1  0  0  0  0
 18 24  1  0  0  0  0
 18 39  1  0  0  0  0
 18 40  1  0  0  0  0
 19 23  2  0  0  0  0
 19 41  1  0  0  0  0
 20 42  1  0  0  0  0
 21 22  2  0  0  0  0
 21 43  1  0  0  0  0
 22 44  1  0  0  0  0
 23 45  1  0  0  0  0
 24 25  2  0  0  0  0
 24 46  1  0  0  0  0
 25 47  1  0  0  0  0
 25 48  1  0  0  0  0
M  END
> <PUBCHEM_COMPOUND_CID>
93532

> <PUBCHEM_CONFORMER_RMSD>
1

> <PUBCHEM_CONFORMER_DIVERSEORDER>
8
219
72
187
82
149
209
193
122
218
71
146
208
171
123
53
52
204
173
176
46
197
110
32
162
156
89
105
214
159
22
153
199
140
7
200
61
175
186
177
113
16
190
114
142
121
90
93
203
194
172
1
181
60
185
41
21
184
37
38
56
135
174
136
76
191
179
124
99
39
160
182
196
168
129
109
130
144
30
28
14
6
183
120
206
54
134
57
19
88
64
127
104
74
165
212
133
216
143
161
158
188
91
198
70
4
108
69
154
167
80
101
164
119
50
107
115
152
94
202
68
66
47
112
77
5
178
106
131
201
213
128
139
86
98
169
25
33
141
211
59
117
29
189
43
45
58
138
83
96
205
195
217
24
85
92
26
150
163
84
126
18
3
100
215
49
78
13
97
75
79
31
111
210
137
51
170
103
23
63
81
207
65
166
11
118
62
132
148
35
48
95
2
42
12
116
34
155
180
55
145
10
73
67
15
20
125
102
151
192
44
157
27
87
36
17
40
9
147

> <PUBCHEM_MMFF94_PARTIAL_CHARGES>
31
1 -0.43
10 0.48
11 0.66
12 0.64
14 -0.04
15 0.28
17 -0.15
18 0.14
19 -0.3
2 -0.28
20 0.04
21 -0.15
22 -0.01
23 0.08
24 -0.29
25 -0.3
3 -0.57
38 0.15
4 -0.57
41 0.15
42 0.15
43 0.15
44 0.15
45 0.15
46 0.15
47 0.15
48 0.15
5 -0.66
6 0.29
7 -0.57
8 0.36

> <PUBCHEM_EFFECTIVE_ROTOR_COUNT>
12

> <PUBCHEM_PHARMACOPHORE_FEATURES>
7
1 13 hydrophobe
1 2 acceptor
1 25 hydrophobe
1 3 acceptor
1 4 acceptor
5 2 14 17 21 22 rings
5 6 7 19 20 23 rings

> <PUBCHEM_HEAVY_ATOM_COUNT>
25

> <PUBCHEM_ATOM_DEF_STEREO_COUNT>
0

> <PUBCHEM_ATOM_UDEF_STEREO_COUNT>
1

> <PUBCHEM_BOND_DEF_STEREO_COUNT>
0

> <PUBCHEM_BOND_UDEF_STEREO_COUNT>
0

> <PUBCHEM_ISOTOPIC_ATOM_COUNT>
0

> <PUBCHEM_COMPONENT_COUNT>
1

> <PUBCHEM_CACTVS_TAUTO_COUNT>
1

> <PUBCHEM_CONFORMER_ID>
00016D5C00000008

> <PUBCHEM_MMFF94_ENERGY>
53.0511

> <PUBCHEM_FEATURE_SELFOVERLAP>
35.52

> <PUBCHEM_SHAPE_FINGERPRINT>
10366900 7 18271796978576202242
11045515 52 18339356482453445486
11135609 12 18263925437119953851
11488393 25 17907851808925946059
11963148 33 17472989397947594599
12156800 1 16126161609079058708
12422481 6 18187650253552203432
13004483 165 18049443939716855495
13149001 5 17988348270301653251
133893 2 18121190144008881808
14787075 74 18130786780765687638
14840074 17 18268437828914553168
167882 2 18196650696850086516
1813 80 18410011061041842718
18769570 83 18270682094415954705
192875 21 17988349481946491934
20691752 17 18059569221758366160
21304303 282 16770996689819143125
23402539 116 18338517559698484366
23419403 2 17770185338003337683
34934 24 18053379087658757889
4280585 95 18338530702140187191
463206 1 17897166818939985703
6669772 16 17773038549086282112
81228 2 17836618062618830280
9925002 15 17460050490881228582
9981440 41 17546167406933492561

> <PUBCHEM_SHAPE_MULTIPOLES>
476.07
8.9
3.67
1.93
2.91
4.16
0.97
-5.74
-0.7
1.58
-1.19
0.03
-0.94
-0.51

> <PUBCHEM_SHAPE_SELFOVERLAP>
986.186

> <PUBCHEM_SHAPE_VOLUME>
273.3

> <PUBCHEM_COORDINATE_TYPE>
2
5
10

$$$$

