441749
  -OEChem-07051212563D

 59 64  0     1  0  0  0  0  0999 V2000
    0.9995   -2.8101    0.9951 O   0  0  0  0  0  0  0  0  0  0  0  0
   -2.2276    2.2016    1.3016 O   0  0  0  0  0  0  0  0  0  0  0  0
   -3.3532   -2.8625   -0.4710 O   0  0  0  0  0  0  0  0  0  0  0  0
    2.2136   -0.3338   -1.2876 N   0  0  2  0  0  0  0  0  0  0  0  0
    0.6487   -0.3771    0.6892 C   0  0  1  0  0  0  0  0  0  0  0  0
   -1.3990    0.5555   -0.3597 C   0  0  2  0  0  0  0  0  0  0  0  0
   -0.0517    0.9514   -1.0010 C   0  0  2  0  0  0  0  0  0  0  0  0
   -0.9370   -0.3474    0.8497 C   0  0  1  0  0  0  0  0  0  0  0  0
    0.8119   -0.3414   -0.8477 C   0  0  1  0  0  0  0  0  0  0  0  0
    1.2579    1.0361    1.0102 C   0  0  2  0  0  0  0  0  0  0  0  0
    0.6210    1.9577   -0.0563 C   0  0  0  0  0  0  0  0  0  0  0  0
    2.7975    0.9899    0.8155 C   0  0  2  0  0  0  0  0  0  0  0  0
    1.3427   -1.5140    1.4773 C   0  0  2  0  0  0  0  0  0  0  0  0
   -2.3367   -0.2548   -1.2572 C   0  0  0  0  0  0  0  0  0  0  0  0
   -2.3641    1.7328   -0.0282 C   0  0  1  0  0  0  0  0  0  0  0  0
   -1.6269   -1.7527    0.8257 C   0  0  0  0  0  0  0  0  0  0  0  0
   -3.5599   -0.4326   -0.2916 C   0  0  1  0  0  0  0  0  0  0  0  0
    3.0975    0.6747   -0.6826 C   0  0  0  0  0  0  0  0  0  0  0  0
    3.3996   -0.0728    1.7581 C   0  0  0  0  0  0  0  0  0  0  0  0
    2.8670   -1.4663    1.5055 C   0  0  0  0  0  0  0  0  0  0  0  0
   -3.1277   -1.7630    0.4184 C   0  0  1  0  0  0  0  0  0  0  0  0
   -3.7214    1.0829   -0.2148 C   0  0  0  0  0  0  0  0  0  0  0  0
    3.4441    2.3399    1.1932 C   0  0  0  0  0  0  0  0  0  0  0  0
    2.3258   -0.3273   -2.7433 C   0  0  0  0  0  0  0  0  0  0  0  0
   -4.8757    1.7318   -0.4135 C   0  0  0  0  0  0  0  0  0  0  0  0
    3.7539   -0.5984   -3.1850 C   0  0  0  0  0  0  0  0  0  0  0  0
   -0.1532    1.3171   -2.0259 H   0  0  0  0  0  0  0  0  0  0  0  0
   -1.1757    0.1182    1.8126 H   0  0  0  0  0  0  0  0  0  0  0  0
    0.3209   -1.2086   -1.3035 H   0  0  0  0  0  0  0  0  0  0  0  0
    0.9972    1.3612    2.0244 H   0  0  0  0  0  0  0  0  0  0  0  0
    1.3343    2.5752   -0.6066 H   0  0  0  0  0  0  0  0  0  0  0  0
   -0.0593    2.6758    0.4030 H   0  0  0  0  0  0  0  0  0  0  0  0
    0.9850   -1.4538    2.5137 H   0  0  0  0  0  0  0  0  0  0  0  0
   -1.9060   -1.1897   -1.6325 H   0  0  0  0  0  0  0  0  0  0  0  0
   -2.6005    0.2997   -2.1734 H   0  0  0  0  0  0  0  0  0  0  0  0
   -2.2343    2.5645   -0.7312 H   0  0  0  0  0  0  0  0  0  0  0  0
   -1.1017   -2.4110    0.1255 H   0  0  0  0  0  0  0  0  0  0  0  0
   -1.5242   -2.2229    1.8114 H   0  0  0  0  0  0  0  0  0  0  0  0
   -4.4114   -0.7520   -0.9133 H   0  0  0  0  0  0  0  0  0  0  0  0
    3.0604    1.6025   -1.2682 H   0  0  0  0  0  0  0  0  0  0  0  0
    4.1380    0.3306   -0.7440 H   0  0  0  0  0  0  0  0  0  0  0  0
    3.1878    0.2009    2.8005 H   0  0  0  0  0  0  0  0  0  0  0  0
    4.4927   -0.0909    1.6623 H   0  0  0  0  0  0  0  0  0  0  0  0
    3.2824   -1.8741    0.5758 H   0  0  0  0  0  0  0  0  0  0  0  0
    3.2359   -2.1445    2.2863 H   0  0  0  0  0  0  0  0  0  0  0  0
   -3.7500   -1.9108    1.3077 H   0  0  0  0  0  0  0  0  0  0  0  0
    4.5339    2.2944    1.0847 H   0  0  0  0  0  0  0  0  0  0  0  0
    3.0920    3.1635    0.5651 H   0  0  0  0  0  0  0  0  0  0  0  0
    3.2228    2.6038    2.2336 H   0  0  0  0  0  0  0  0  0  0  0  0
    1.6962   -1.1216   -3.1631 H   0  0  0  0  0  0  0  0  0  0  0  0
    1.9774    0.6200   -3.1722 H   0  0  0  0  0  0  0  0  0  0  0  0
    1.3845   -3.4653    1.6019 H   0  0  0  0  0  0  0  0  0  0  0  0
   -2.8694    2.9209    1.4289 H   0  0  0  0  0  0  0  0  0  0  0  0
   -4.9139    2.8157   -0.3986 H   0  0  0  0  0  0  0  0  0  0  0  0
   -5.8013    1.1950   -0.5902 H   0  0  0  0  0  0  0  0  0  0  0  0
   -4.3102   -2.9153   -0.6341 H   0  0  0  0  0  0  0  0  0  0  0  0
    4.4212    0.2450   -2.9819 H   0  0  0  0  0  0  0  0  0  0  0  0
    4.1612   -1.4941   -2.7036 H   0  0  0  0  0  0  0  0  0  0  0  0
    3.7779   -0.7682   -4.2671 H   0  0  0  0  0  0  0  0  0  0  0  0
  1 13  1  0  0  0  0
  1 52  1  0  0  0  0
  2 15  1  0  0  0  0
  2 53  1  0  0  0  0
  3 21  1  0  0  0  0
  3 56  1  0  0  0  0
  4  9  1  0  0  0  0
  4 18  1  0  0  0  0
  4 24  1  0  0  0  0
  5  8  1  0  0  0  0
  5  9  1  0  0  0  0
  5 10  1  0  0  0  0
  5 13  1  0  0  0  0
  6  7  1  0  0  0  0
  6  8  1  0  0  0  0
  6 14  1  0  0  0  0
  6 15  1  0  0  0  0
  7  9  1  0  0  0  0
  7 11  1  0  0  0  0
  7 27  1  0  0  0  0
  8 16  1  0  0  0  0
  8 28  1  0  0  0  0
  9 29  1  0  0  0  0
 10 11  1  0  0  0  0
 10 12  1  0  0  0  0
 10 30  1  0  0  0  0
 11 31  1  0  0  0  0
 11 32  1  0  0  0  0
 12 18  1  0  0  0  0
 12 19  1  0  0  0  0
 12 23  1  0  0  0  0
 13 20  1  0  0  0  0
 13 33  1  0  0  0  0
 14 17  1  0  0  0  0
 14 34  1  0  0  0  0
 14 35  1  0  0  0  0
 15 22  1  0  0  0  0
 15 36  1  0  0  0  0
 16 21  1  0  0  0  0
 16 37  1  0  0  0  0
 16 38  1  0  0  0  0
 17 21  1  0  0  0  0
 17 22  1  0  0  0  0
 17 39  1  0  0  0  0
 18 40  1  0  0  0  0
 18 41  1  0  0  0  0
 19 20  1  0  0  0  0
 19 42  1  0  0  0  0
 19 43  1  0  0  0  0
 20 44  1  0  0  0  0
 20 45  1  0  0  0  0
 21 46  1  0  0  0  0
 22 25  2  0  0  0  0
 23 47  1  0  0  0  0
 23 48  1  0  0  0  0
 23 49  1  0  0  0  0
 24 26  1  0  0  0  0
 24 50  1  0  0  0  0
 24 51  1  0  0  0  0
 25 54  1  0  0  0  0
 25 55  1  0  0  0  0
 26 57  1  0  0  0  0
 26 58  1  0  0  0  0
 26 59  1  0  0  0  0
M  END
> <PUBCHEM_COMPOUND_CID>
441749

> <PUBCHEM_CONFORMER_RMSD>
0.6

> <PUBCHEM_CONFORMER_DIVERSEORDER>
1

> <PUBCHEM_MMFF94_PARTIAL_CHARGES>
18
1 -0.68
13 0.28
15 0.42
17 0.14
18 0.27
2 -0.68
21 0.28
22 -0.28
24 0.27
25 -0.3
3 -0.68
4 -0.81
52 0.4
53 0.4
54 0.15
55 0.15
56 0.4
9 0.27

> <PUBCHEM_EFFECTIVE_ROTOR_COUNT>
3

> <PUBCHEM_PHARMACOPHORE_FEATURES>
11
1 1 acceptor
1 1 donor
1 2 acceptor
1 2 donor
1 3 acceptor
1 3 donor
1 4 cation
6 5 10 12 13 19 20 rings
7 5 6 7 8 9 10 11 rings
8 4 5 7 9 10 11 12 18 rings
8 6 8 14 15 16 17 21 22 rings

> <PUBCHEM_HEAVY_ATOM_COUNT>
26

> <PUBCHEM_ATOM_DEF_STEREO_COUNT>
10

> <PUBCHEM_ATOM_UDEF_STEREO_COUNT>
1

> <PUBCHEM_BOND_DEF_STEREO_COUNT>
0

> <PUBCHEM_BOND_UDEF_STEREO_COUNT>
0

> <PUBCHEM_ISOTOPIC_ATOM_COUNT>
0

> <PUBCHEM_COMPONENT_COUNT>
1

> <PUBCHEM_CACTVS_TAUTO_COUNT>
1

> <PUBCHEM_CONFORMER_ID>
0006BD9500000001

> <PUBCHEM_MMFF94_ENERGY>
159.6589

> <PUBCHEM_FEATURE_SELFOVERLAP>
58.235

> <PUBCHEM_SHAPE_FINGERPRINT>
10646746 165 18410580556530827864
10863032 1 18340221712189243920
10948715 1 18264219010813243768
11578080 2 14563379612950974994
11640471 11 16485555504611056486
12035759 4 17559940169246122710
12633257 1 18127719173151392736
12644460 14 15984808389674283644
13134695 92 14189035366174313846
13140716 1 18129677385990935291
13224815 77 18334298630387117033
14022347 108 18261944267025988613
14115302 16 18130789022237235371
14178342 30 18201447947664852585
14181834 199 17275112730079666954
14223421 5 18339938064011926353
14713325 29 15981401961149660170
14787075 74 17760657966352984161
14955137 171 17183045381668203419
15238133 3 18267866279471065705
16752209 62 18129934568754042223
16945 1 18272654549604369257
17349148 13 17203058391099351114
17980427 23 17203058365820410996
18915476 22 17313373496789776628
18981168 100 16443065031868183881
20905425 154 16758586055515367400
21756936 100 17832165839844598504
22149856 69 18059567041233680953
23419403 2 17538802986089254846
23526113 38 17605820628772135246
23557571 272 18261108509423853227
23559900 14 18187358861411539084
296302 2 18130799935781016993
350125 39 17912653693768136309
4340502 62 18341902926431358433
474 4 16486967393051595718
5104073 3 18272385156476099929
633830 44 18336274461351377996
9709674 26 17967813842854853125

> <PUBCHEM_SHAPE_MULTIPOLES>
512.48
7.27
2.49
2.12
3.7
0.66
-1.68
-1.29
-1.01
1.11
0.9
-3.16
0.32
0.18

> <PUBCHEM_SHAPE_SELFOVERLAP>
1139.413

> <PUBCHEM_SHAPE_VOLUME>
273.7

> <PUBCHEM_COORDINATE_TYPE>
2
5
10

$$$$

