17396364
  -OEChem-06241222562D

 44 46  0     1  0  0  0  0  0999 V2000
    6.3301    3.4827    0.0000 S   0  0  0  0  0  0  0  0  0  0  0  0
    8.0785    4.5173    0.0000 F   0  0  0  0  0  0  0  0  0  0  0  0
    4.5981    0.4827    0.0000 O   0  0  0  0  0  0  0  0  0  0  0  0
    2.8660   -2.5173    0.0000 O   0  0  0  0  0  0  0  0  0  0  0  0
    6.3301    0.4827    0.0000 N   0  0  0  0  0  0  0  0  0  0  0  0
    6.3301    1.4827    0.0000 C   0  0  3  0  0  0  0  0  0  0  0  0
    5.4641    1.9827    0.0000 C   0  0  0  0  0  0  0  0  0  0  0  0
    7.1962    1.9827    0.0000 C   0  0  0  0  0  0  0  0  0  0  0  0
    5.4641    2.9827    0.0000 C   0  0  0  0  0  0  0  0  0  0  0  0
    7.1962    2.9827    0.0000 C   0  0  0  0  0  0  0  0  0  0  0  0
    8.0901    1.4480    0.0000 C   0  0  0  0  0  0  0  0  0  0  0  0
    5.4641   -0.0173    0.0000 C   0  0  0  0  0  0  0  0  0  0  0  0
    5.4641   -1.0173    0.0000 C   0  0  0  0  0  0  0  0  0  0  0  0
    4.5981   -1.5173    0.0000 C   0  0  0  0  0  0  0  0  0  0  0  0
    8.0901    3.5174    0.0000 C   0  0  0  0  0  0  0  0  0  0  0  0
    8.9962    1.9619    0.0000 C   0  0  0  0  0  0  0  0  0  0  0  0
    8.9962    3.0035    0.0000 C   0  0  0  0  0  0  0  0  0  0  0  0
    4.5981   -2.5173    0.0000 C   0  0  0  0  0  0  0  0  0  0  0  0
    3.7320   -3.0173    0.0000 C   0  0  0  0  0  0  0  0  0  0  0  0
    5.4641   -3.0173    0.0000 C   0  0  0  0  0  0  0  0  0  0  0  0
    3.7320   -4.0173    0.0000 C   0  0  0  0  0  0  0  0  0  0  0  0
    5.4641   -4.0173    0.0000 C   0  0  0  0  0  0  0  0  0  0  0  0
    4.5981   -4.5173    0.0000 C   0  0  0  0  0  0  0  0  0  0  0  0
    2.0000   -3.0173    0.0000 C   0  0  0  0  0  0  0  0  0  0  0  0
    6.8671    1.1727    0.0000 H   0  0  0  0  0  0  0  0  0  0  0  0
    4.8535    2.0904    0.0000 H   0  0  0  0  0  0  0  0  0  0  0  0
    5.2520    1.4001    0.0000 H   0  0  0  0  0  0  0  0  0  0  0  0
    5.2520    3.5653    0.0000 H   0  0  0  0  0  0  0  0  0  0  0  0
    4.8535    2.8750    0.0000 H   0  0  0  0  0  0  0  0  0  0  0  0
    6.8671    0.1727    0.0000 H   0  0  0  0  0  0  0  0  0  0  0  0
    8.0829    0.8281    0.0000 H   0  0  0  0  0  0  0  0  0  0  0  0
    5.6762   -1.5999    0.0000 H   0  0  0  0  0  0  0  0  0  0  0  0
    6.0747   -0.9096    0.0000 H   0  0  0  0  0  0  0  0  0  0  0  0
    4.3860   -0.9347    0.0000 H   0  0  0  0  0  0  0  0  0  0  0  0
    3.9875   -1.6250    0.0000 H   0  0  0  0  0  0  0  0  0  0  0  0
    9.5319    1.6498    0.0000 H   0  0  0  0  0  0  0  0  0  0  0  0
    9.5319    3.3156    0.0000 H   0  0  0  0  0  0  0  0  0  0  0  0
    6.0010   -2.7073    0.0000 H   0  0  0  0  0  0  0  0  0  0  0  0
    3.1951   -4.3273    0.0000 H   0  0  0  0  0  0  0  0  0  0  0  0
    6.0010   -4.3273    0.0000 H   0  0  0  0  0  0  0  0  0  0  0  0
    4.5981   -5.1373    0.0000 H   0  0  0  0  0  0  0  0  0  0  0  0
    1.6900   -2.4804    0.0000 H   0  0  0  0  0  0  0  0  0  0  0  0
    1.4631   -3.3273    0.0000 H   0  0  0  0  0  0  0  0  0  0  0  0
    2.3100   -3.5542    0.0000 H   0  0  0  0  0  0  0  0  0  0  0  0
  1  9  1  0  0  0  0
  1 10  1  0  0  0  0
  2 15  1  0  0  0  0
  3 12  2  0  0  0  0
  4 19  1  0  0  0  0
  4 24  1  0  0  0  0
  5  6  1  0  0  0  0
  5 12  1  0  0  0  0
  5 30  1  0  0  0  0
  6  7  1  0  0  0  0
  6  8  1  0  0  0  0
  6 25  1  0  0  0  0
  7  9  1  0  0  0  0
  7 26  1  0  0  0  0
  7 27  1  0  0  0  0
  8 10  2  0  0  0  0
  8 11  1  0  0  0  0
  9 28  1  0  0  0  0
  9 29  1  0  0  0  0
 10 15  1  0  0  0  0
 11 16  2  0  0  0  0
 11 31  1  0  0  0  0
 12 13  1  0  0  0  0
 13 14  1  0  0  0  0
 13 32  1  0  0  0  0
 13 33  1  0  0  0  0
 14 18  1  0  0  0  0
 14 34  1  0  0  0  0
 14 35  1  0  0  0  0
 15 17  2  0  0  0  0
 16 17  1  0  0  0  0
 16 36  1  0  0  0  0
 17 37  1  0  0  0  0
 18 19  1  0  0  0  0
 18 20  2  0  0  0  0
 19 21  2  0  0  0  0
 20 22  1  0  0  0  0
 20 38  1  0  0  0  0
 21 23  1  0  0  0  0
 21 39  1  0  0  0  0
 22 23  2  0  0  0  0
 22 40  1  0  0  0  0
 23 41  1  0  0  0  0
 24 42  1  0  0  0  0
 24 43  1  0  0  0  0
 24 44  1  0  0  0  0
M  END
> <PUBCHEM_COMPOUND_CID>
17396364

> <PUBCHEM_COMPOUND_CANONICALIZED>
1

> <PUBCHEM_CACTVS_COMPLEXITY>
422

> <PUBCHEM_CACTVS_HBOND_ACCEPTOR>
4

> <PUBCHEM_CACTVS_HBOND_DONOR>
1

> <PUBCHEM_CACTVS_ROTATABLE_BOND>
5

> <PUBCHEM_CACTVS_SUBSKEYS>
AAADceB6MQBAAAAAAAAAAAAAAAAAAAAAAAA0YIAAAAAAAACRQAAAHwQQAAAADCzF2A6yB4LABAiIAiFSEACCCAAgKBAIiJEODIgMJjKksRuEMChk1hGoqAeY3KLOAAAAAAAMAAAAAAAAABgAAAAAAAAAAA==

> <PUBCHEM_IUPAC_OPENEYE_NAME>
N-(8-fluorothiochroman-4-yl)-3-(2-methoxyphenyl)propanamide

> <PUBCHEM_IUPAC_CAS_NAME>
N-(8-fluoro-3,4-dihydro-2H-1-benzothiopyran-4-yl)-3-(2-methoxyphenyl)propanamide

> <PUBCHEM_IUPAC_NAME>
N-(8-fluoro-3,4-dihydro-2H-thiochromen-4-yl)-3-(2-methoxyphenyl)propanamide

> <PUBCHEM_IUPAC_SYSTEMATIC_NAME>
N-(8-fluoranyl-3,4-dihydro-2H-thiochromen-4-yl)-3-(2-methoxyphenyl)propanamide

> <PUBCHEM_IUPAC_TRADITIONAL_NAME>
N-(8-fluorothiochroman-4-yl)-3-(2-methoxyphenyl)propionamide

> <PUBCHEM_IUPAC_INCHI>
InChI=1S/C19H20FNO2S/c1-23-17-8-3-2-5-13(17)9-10-18(22)21-16-11-12-24-19-14(16)6-4-7-15(19)20/h2-8,16H,9-12H2,1H3,(H,21,22)

> <PUBCHEM_IUPAC_INCHIKEY>
HGEQOWNMOJXCRO-UHFFFAOYSA-N

> <PUBCHEM_XLOGP3_AA>
3.7

> <PUBCHEM_EXACT_MASS>
345.119878

> <PUBCHEM_MOLECULAR_FORMULA>
C19H20FNO2S

> <PUBCHEM_MOLECULAR_WEIGHT>
345.431003

> <PUBCHEM_OPENEYE_CAN_SMILES>
COC1=CC=CC=C1CCC(=O)NC2CCSC3=C2C=CC=C3F

> <PUBCHEM_OPENEYE_ISO_SMILES>
COC1=CC=CC=C1CCC(=O)NC2CCSC3=C2C=CC=C3F

> <PUBCHEM_CACTVS_TPSA>
63.6

> <PUBCHEM_MONOISOTOPIC_WEIGHT>
345.119878

> <PUBCHEM_TOTAL_CHARGE>
0

> <PUBCHEM_HEAVY_ATOM_COUNT>
24

> <PUBCHEM_ATOM_DEF_STEREO_COUNT>
0

> <PUBCHEM_ATOM_UDEF_STEREO_COUNT>
1

> <PUBCHEM_BOND_DEF_STEREO_COUNT>
0

> <PUBCHEM_BOND_UDEF_STEREO_COUNT>
0

> <PUBCHEM_ISOTOPIC_ATOM_COUNT>
0

> <PUBCHEM_COMPONENT_COUNT>
1

> <PUBCHEM_CACTVS_TAUTO_COUNT>
2

> <PUBCHEM_COORDINATE_TYPE>
1
5
255

> <PUBCHEM_BONDANNOTATIONS>
10  15  8
11  16  8
15  17  8
16  17  8
18  19  8
18  20  8
19  21  8
20  22  8
21  23  8
22  23  8
6  5  3
8  10  8
8  11  8

$$$$

