24892812
  -OEChem-07051213093D

 24 23  0     1  0  0  0  0  0999 V2000
   -0.1557    1.8998   -1.0343 O   0  0  0  0  0  0  0  0  0  0  0  0
    0.7389    1.8700    1.0561 O   0  0  0  0  0  0  0  0  0  0  0  0
   -1.2774   -0.6528    0.4917 C   0  0  0  0  0  0  0  0  0  0  0  0
    0.1031   -0.2268   -0.0280 C   0  0  2  0  0  0  0  0  0  0  0  0
   -2.3900   -0.4227   -0.5355 C   0  0  0  0  0  0  0  0  0  0  0  0
    1.2013   -0.8715    0.7793 C   0  0  0  0  0  0  0  0  0  0  0  0
   -3.7486   -0.8232    0.0188 C   0  0  0  0  0  0  0  0  0  0  0  0
    0.2866    1.2756    0.0878 C   0  0  0  0  0  0  0  0  0  0  0  0
    2.4143   -1.1629    0.2858 C   0  0  0  0  0  0  0  0  0  0  0  0
    2.8275   -0.8855   -1.1216 C   0  0  0  0  0  0  0  0  0  0  0  0
   -1.2655   -1.7208    0.7471 H   0  0  0  0  0  0  0  0  0  0  0  0
   -1.5182   -0.1089    1.4148 H   0  0  0  0  0  0  0  0  0  0  0  0
    0.1900   -0.5259   -1.0787 H   0  0  0  0  0  0  0  0  0  0  0  0
   -2.1851   -1.0021   -1.4431 H   0  0  0  0  0  0  0  0  0  0  0  0
   -2.4310    0.6326   -0.8245 H   0  0  0  0  0  0  0  0  0  0  0  0
    1.0029   -1.0991    1.8242 H   0  0  0  0  0  0  0  0  0  0  0  0
   -3.9985   -0.2358    0.9081 H   0  0  0  0  0  0  0  0  0  0  0  0
   -3.7642   -1.8834    0.2911 H   0  0  0  0  0  0  0  0  0  0  0  0
   -4.5284   -0.6536   -0.7303 H   0  0  0  0  0  0  0  0  0  0  0  0
    3.1454   -1.6346    0.9363 H   0  0  0  0  0  0  0  0  0  0  0  0
    2.8148   -1.8113   -1.7048 H   0  0  0  0  0  0  0  0  0  0  0  0
    2.2201   -0.1366   -1.6340 H   0  0  0  0  0  0  0  0  0  0  0  0
    3.8546   -0.5045   -1.1225 H   0  0  0  0  0  0  0  0  0  0  0  0
   -0.0596    2.8740   -0.9726 H   0  0  0  0  0  0  0  0  0  0  0  0
  1  8  1  0  0  0  0
  1 24  1  0  0  0  0
  2  8  2  0  0  0  0
  3  4  1  0  0  0  0
  3  5  1  0  0  0  0
  3 11  1  0  0  0  0
  3 12  1  0  0  0  0
  4  6  1  0  0  0  0
  4  8  1  0  0  0  0
  4 13  1  0  0  0  0
  5  7  1  0  0  0  0
  5 14  1  0  0  0  0
  5 15  1  0  0  0  0
  6  9  2  0  0  0  0
  6 16  1  0  0  0  0
  7 17  1  0  0  0  0
  7 18  1  0  0  0  0
  7 19  1  0  0  0  0
  9 10  1  0  0  0  0
  9 20  1  0  0  0  0
 10 21  1  0  0  0  0
 10 22  1  0  0  0  0
 10 23  1  0  0  0  0
M  END
> <PUBCHEM_COMPOUND_CID>
24892812

> <PUBCHEM_CONFORMER_RMSD>
0.6

> <PUBCHEM_CONFORMER_DIVERSEORDER>
1
31
25
22
35
7
26
19
44
23
32
36
41
8
37
39
40
38
10
4
17
15
24
14
16
42
29
13
33
27
18
20
21
34
43
12
30
9
5
6
28
11
2
3

> <PUBCHEM_MMFF94_PARTIAL_CHARGES>
10
1 -0.65
10 0.14
16 0.15
2 -0.57
20 0.15
24 0.5
4 0.2
6 -0.29
8 0.66
9 -0.29

> <PUBCHEM_EFFECTIVE_ROTOR_COUNT>
4

> <PUBCHEM_PHARMACOPHORE_FEATURES>
6
1 1 acceptor
1 10 hydrophobe
1 2 acceptor
1 7 hydrophobe
3 1 2 8 anion
4 3 4 5 6 hydrophobe

> <PUBCHEM_HEAVY_ATOM_COUNT>
10

> <PUBCHEM_ATOM_DEF_STEREO_COUNT>
0

> <PUBCHEM_ATOM_UDEF_STEREO_COUNT>
1

> <PUBCHEM_BOND_DEF_STEREO_COUNT>
1

> <PUBCHEM_BOND_UDEF_STEREO_COUNT>
0

> <PUBCHEM_ISOTOPIC_ATOM_COUNT>
0

> <PUBCHEM_COMPONENT_COUNT>
1

> <PUBCHEM_CACTVS_TAUTO_COUNT>
1

> <PUBCHEM_CONFORMER_ID>
017BD58C00000001

> <PUBCHEM_MMFF94_ENERGY>
6.8669

> <PUBCHEM_FEATURE_SELFOVERLAP>
30.504

> <PUBCHEM_SHAPE_FINGERPRINT>
10219947 1 17967813851265575767
12932764 1 17988094313702712051
14120999 15 17917698124093014372
14128692 85 18411411813069858381
14325111 11 8934991586082726147
161256 15 18411992338003392820
20653085 51 14835546076907744534
20653091 64 18340200791667237211
20708731 107 18199462165219532535
20711978 78 17969523540127759837
20711985 344 18122053471242921242
20820808 20 17489297539019190118
20871998 22 18260550056111514050
21293036 1 18201712942546450510
228727 97 18128802196626734270
23552423 10 17627511862805826898
23552449 11 18261683575290138515
23595355 12 17983292621252516450

> <PUBCHEM_SHAPE_MULTIPOLES>
194.06
4.54
1.74
1.03
2.84
1.13
0.08
-2.75
0.86
-0.43
-0.05
-0.41
0.12
0.22

> <PUBCHEM_SHAPE_SELFOVERLAP>
361.189

> <PUBCHEM_SHAPE_VOLUME>
121.7

> <PUBCHEM_COORDINATE_TYPE>
2
5
10

$$$$

