250329
  -OEChem-07051213073D

 47 50  0     1  0  0  0  0  0999 V2000
   -5.1098    1.1550   -0.2422 O   0  0  0  0  0  0  0  0  0  0  0  0
    5.6658   -0.1696   -0.7095 O   0  0  0  0  0  0  0  0  0  0  0  0
   -2.7135    0.5469   -0.0861 C   0  0  1  0  0  0  0  0  0  0  0  0
   -2.0790   -0.8198    0.2322 C   0  0  2  0  0  0  0  0  0  0  0  0
   -0.5844   -0.8767   -0.0937 C   0  0  1  0  0  0  0  0  0  0  0  0
    0.1631    0.2292    0.7072 C   0  0  2  0  0  0  0  0  0  0  0  0
   -4.1753    0.2373    0.2920 C   0  0  2  0  0  0  0  0  0  0  0  0
   -2.0298    1.6006    0.7948 C   0  0  0  0  0  0  0  0  0  0  0  0
   -3.0227   -1.8159   -0.4364 C   0  0  0  0  0  0  0  0  0  0  0  0
   -0.5090    1.6192    0.5661 C   0  0  0  0  0  0  0  0  0  0  0  0
   -4.4142   -1.1787   -0.2672 C   0  0  0  0  0  0  0  0  0  0  0  0
   -0.0046   -2.2811    0.1711 C   0  0  0  0  0  0  0  0  0  0  0  0
   -2.6216    0.9719   -1.5737 C   0  0  0  0  0  0  0  0  0  0  0  0
    1.6348    0.1811    0.3169 C   0  0  0  0  0  0  0  0  0  0  0  0
    1.4593   -2.3123    0.6200 C   0  0  0  0  0  0  0  0  0  0  0  0
    2.2470   -1.0875    0.2426 C   0  0  0  0  0  0  0  0  0  0  0  0
    2.4090    1.3187    0.0504 C   0  0  0  0  0  0  0  0  0  0  0  0
    3.6023   -1.1975   -0.0953 C   0  0  0  0  0  0  0  0  0  0  0  0
    3.7561    1.1984   -0.2989 C   0  0  0  0  0  0  0  0  0  0  0  0
    1.9752    2.7383    0.1837 C   0  0  0  0  0  0  0  0  0  0  0  0
    4.3513   -0.0572   -0.3741 C   0  0  0  0  0  0  0  0  0  0  0  0
   -2.1681   -0.9970    1.3176 H   0  0  0  0  0  0  0  0  0  0  0  0
   -0.4414   -0.6816   -1.1654 H   0  0  0  0  0  0  0  0  0  0  0  0
    0.1149   -0.0282    1.7760 H   0  0  0  0  0  0  0  0  0  0  0  0
   -4.3021    0.2272    1.3814 H   0  0  0  0  0  0  0  0  0  0  0  0
   -2.2228    1.3864    1.8543 H   0  0  0  0  0  0  0  0  0  0  0  0
   -2.4470    2.5961    0.6007 H   0  0  0  0  0  0  0  0  0  0  0  0
   -2.9783   -2.8048    0.0310 H   0  0  0  0  0  0  0  0  0  0  0  0
   -2.7862   -1.9405   -1.4990 H   0  0  0  0  0  0  0  0  0  0  0  0
   -0.3602    2.0183   -0.4378 H   0  0  0  0  0  0  0  0  0  0  0  0
   -0.1356    2.3095    1.3225 H   0  0  0  0  0  0  0  0  0  0  0  0
   -4.9554   -1.1727   -1.2199 H   0  0  0  0  0  0  0  0  0  0  0  0
   -5.0219   -1.7588    0.4366 H   0  0  0  0  0  0  0  0  0  0  0  0
   -0.1065   -2.8682   -0.7516 H   0  0  0  0  0  0  0  0  0  0  0  0
   -0.5975   -2.8178    0.9227 H   0  0  0  0  0  0  0  0  0  0  0  0
   -1.5926    1.0188   -1.9393 H   0  0  0  0  0  0  0  0  0  0  0  0
   -3.1571    0.2869   -2.2388 H   0  0  0  0  0  0  0  0  0  0  0  0
   -3.0552    1.9683   -1.7182 H   0  0  0  0  0  0  0  0  0  0  0  0
    1.9312   -3.2171    0.2179 H   0  0  0  0  0  0  0  0  0  0  0  0
    1.4975   -2.4024    1.7135 H   0  0  0  0  0  0  0  0  0  0  0  0
   -5.1591    1.0313   -1.2044 H   0  0  0  0  0  0  0  0  0  0  0  0
    4.0771   -2.1750   -0.1352 H   0  0  0  0  0  0  0  0  0  0  0  0
    4.3645    2.0765   -0.5045 H   0  0  0  0  0  0  0  0  0  0  0  0
    2.8175    3.4276    0.0271 H   0  0  0  0  0  0  0  0  0  0  0  0
    1.2644    3.0458   -0.5833 H   0  0  0  0  0  0  0  0  0  0  0  0
    1.6634    2.9724    1.2035 H   0  0  0  0  0  0  0  0  0  0  0  0
    6.0296    0.7184   -0.8675 H   0  0  0  0  0  0  0  0  0  0  0  0
  1  7  1  0  0  0  0
  1 41  1  0  0  0  0
  2 21  1  0  0  0  0
  2 47  1  0  0  0  0
  3  4  1  0  0  0  0
  3  7  1  0  0  0  0
  3  8  1  0  0  0  0
  3 13  1  0  0  0  0
  4  5  1  0  0  0  0
  4  9  1  0  0  0  0
  4 22  1  0  0  0  0
  5  6  1  0  0  0  0
  5 12  1  0  0  0  0
  5 23  1  0  0  0  0
  6 10  1  0  0  0  0
  6 14  1  0  0  0  0
  6 24  1  0  0  0  0
  7 11  1  0  0  0  0
  7 25  1  0  0  0  0
  8 10  1  0  0  0  0
  8 26  1  0  0  0  0
  8 27  1  0  0  0  0
  9 11  1  0  0  0  0
  9 28  1  0  0  0  0
  9 29  1  0  0  0  0
 10 30  1  0  0  0  0
 10 31  1  0  0  0  0
 11 32  1  0  0  0  0
 11 33  1  0  0  0  0
 12 15  1  0  0  0  0
 12 34  1  0  0  0  0
 12 35  1  0  0  0  0
 13 36  1  0  0  0  0
 13 37  1  0  0  0  0
 13 38  1  0  0  0  0
 14 16  2  0  0  0  0
 14 17  1  0  0  0  0
 15 16  1  0  0  0  0
 15 39  1  0  0  0  0
 15 40  1  0  0  0  0
 16 18  1  0  0  0  0
 17 19  2  0  0  0  0
 17 20  1  0  0  0  0
 18 21  2  0  0  0  0
 18 42  1  0  0  0  0
 19 21  1  0  0  0  0
 19 43  1  0  0  0  0
 20 44  1  0  0  0  0
 20 45  1  0  0  0  0
 20 46  1  0  0  0  0
M  END
> <PUBCHEM_COMPOUND_CID>
250329

> <PUBCHEM_CONFORMER_RMSD>
0.6

> <PUBCHEM_CONFORMER_DIVERSEORDER>
1

> <PUBCHEM_MMFF94_PARTIAL_CHARGES>
16
1 -0.68
14 -0.14
15 0.14
16 -0.14
17 -0.14
18 -0.15
19 -0.15
2 -0.53
20 0.14
21 0.08
41 0.4
42 0.15
43 0.15
47 0.45
6 0.14
7 0.28

> <PUBCHEM_EFFECTIVE_ROTOR_COUNT>
1.4

> <PUBCHEM_PHARMACOPHORE_FEATURES>
7
1 1 acceptor
1 1 donor
1 2 donor
5 3 4 7 9 11 rings
6 14 16 17 18 19 21 rings
6 3 4 5 6 8 10 rings
6 5 6 12 14 15 16 rings

> <PUBCHEM_HEAVY_ATOM_COUNT>
21

> <PUBCHEM_ATOM_DEF_STEREO_COUNT>
5

> <PUBCHEM_ATOM_UDEF_STEREO_COUNT>
0

> <PUBCHEM_BOND_DEF_STEREO_COUNT>
0

> <PUBCHEM_BOND_UDEF_STEREO_COUNT>
0

> <PUBCHEM_ISOTOPIC_ATOM_COUNT>
0

> <PUBCHEM_COMPONENT_COUNT>
1

> <PUBCHEM_CACTVS_TAUTO_COUNT>
17

> <PUBCHEM_CONFORMER_ID>
0003D1D900000001

> <PUBCHEM_MMFF94_ENERGY>
89.7877

> <PUBCHEM_FEATURE_SELFOVERLAP>
35.622

> <PUBCHEM_SHAPE_FINGERPRINT>
10366900 7 17846781784570089603
10498660 4 18341899601308961429
10616163 171 18334857208264654807
10967382 1 18410574015464278674
11458722 379 18410007728247434666
11471102 20 18410858771558503072
11578080 2 17201086034885517727
12236239 1 17967249819011829936
12403259 415 18343026566426014532
12403814 3 17989490745009134149
12553582 1 18335993046456600289
12592029 89 18201440302486149850
12596599 1 17750495339327877887
12788726 201 17677613249567644049
13009979 54 17754740760229876658
13140716 1 18338526243789625778
13224815 77 18334022669937346531
13583140 156 16486697957058295624
14790565 3 17758669336735295977
15099037 51 18411415099231620614
15196674 1 18409448046621616384
15536298 74 18261394403816546448
1601671 61 18411983593750340204
16752209 62 17386293215529085849
16945 1 18338526364133131779
18186145 218 18411145709823427908
18681886 176 18261679190629637386
19591789 44 18265896843792450819
19862831 5 18259702298223197016
200 152 18187365419615460241
21267235 1 18336256856612766827
21524375 3 18271805696700339114
21634736 98 18262239915457592382
21709351 56 18412550889962804261
221357 26 18409451383827003917
221490 88 18267297643033295954
22393880 68 18411143536506536454
22854114 111 18342178864356285618
23402539 116 18333734611176691214
23402655 69 18410575114727856500
23493267 7 17775286019319777538
23559900 14 18188212005500094552
23566358 2 18264205996603206246
238 59 17981367548328194983
25 1 18343022207292444506
2748010 2 17761205515001795650
2871803 45 18339651053054492527
3004659 81 18272364313844077222
3323516 105 18410295770186871521
335352 9 18409448111014419140
350125 39 18411979169860458177
3545911 37 18411417323665892775
4214541 1 18409448077050338813
4280585 95 17468467566516154582
474 4 17917987256922313668
4990 188 18113892758618756534
5104073 3 18410293579621611194
543358 83 18338233885471320747
6138700 20 18337948008944981086
633830 44 18336553724261272989
9709674 26 18193555567185467682
9981440 41 17472425344503505152

> <PUBCHEM_SHAPE_MULTIPOLES>
420.43
9.25
2.44
0.88
0.92
0
0.14
-0.34
2.08
0.36
-0.25
-0.25
-0.14
-0.14

> <PUBCHEM_SHAPE_SELFOVERLAP>
916.509

> <PUBCHEM_SHAPE_VOLUME>
229

> <PUBCHEM_COORDINATE_TYPE>
2
5
10

$$$$

