5281865
  -OEChem-07051213003D

 37 38  0     1  0  0  0  0  0999 V2000
    0.9553    0.5245    0.3453 O   0  0  0  0  0  0  0  0  0  0  0  0
    1.6867   -1.5802   -0.2348 O   0  0  0  0  0  0  0  0  0  0  0  0
   -2.9456    0.6194   -0.7114 N   0  0  0  0  0  0  0  0  0  0  0  0
   -2.3905   -0.7372   -0.8780 C   0  0  2  0  0  0  0  0  0  0  0  0
   -2.7801    0.8627    0.7342 C   0  0  1  0  0  0  0  0  0  0  0  0
   -2.9288   -1.5219    0.3235 C   0  0  0  0  0  0  0  0  0  0  0  0
   -3.1877   -0.4592    1.3944 C   0  0  0  0  0  0  0  0  0  0  0  0
   -0.8573   -0.5869   -0.8262 C   0  0  0  0  0  0  0  0  0  0  0  0
   -1.2869    1.1777    0.9520 C   0  0  0  0  0  0  0  0  0  0  0  0
   -0.3718    0.0340    0.4922 C   0  0  0  0  0  0  0  0  0  0  0  0
   -4.3366    0.7189   -1.1462 C   0  0  0  0  0  0  0  0  0  0  0  0
    1.8954   -0.3938   -0.0247 C   0  0  0  0  0  0  0  0  0  0  0  0
    3.2320    0.2661   -0.1313 C   0  0  0  0  0  0  0  0  0  0  0  0
    3.2841    1.7039   -0.5558 C   0  0  0  0  0  0  0  0  0  0  0  0
    4.2951   -0.5135    0.1394 C   0  0  0  0  0  0  0  0  0  0  0  0
    5.7367   -0.1146    0.1275 C   0  0  0  0  0  0  0  0  0  0  0  0
   -2.6727   -1.1977   -1.8316 H   0  0  0  0  0  0  0  0  0  0  0  0
   -3.3788    1.7064    1.0954 H   0  0  0  0  0  0  0  0  0  0  0  0
   -2.2337   -2.2922    0.6730 H   0  0  0  0  0  0  0  0  0  0  0  0
   -3.8716   -2.0204    0.0688 H   0  0  0  0  0  0  0  0  0  0  0  0
   -4.2539   -0.4510    1.6498 H   0  0  0  0  0  0  0  0  0  0  0  0
   -2.6307   -0.6629    2.3148 H   0  0  0  0  0  0  0  0  0  0  0  0
   -0.4344   -1.5840   -0.9810 H   0  0  0  0  0  0  0  0  0  0  0  0
   -0.5169    0.0226   -1.6746 H   0  0  0  0  0  0  0  0  0  0  0  0
   -1.0222    2.0999    0.4166 H   0  0  0  0  0  0  0  0  0  0  0  0
   -1.0946    1.3884    2.0115 H   0  0  0  0  0  0  0  0  0  0  0  0
   -0.3630   -0.7327    1.2781 H   0  0  0  0  0  0  0  0  0  0  0  0
   -4.4084    0.5191   -2.2211 H   0  0  0  0  0  0  0  0  0  0  0  0
   -4.7055    1.7389   -0.9916 H   0  0  0  0  0  0  0  0  0  0  0  0
   -5.0144    0.0323   -0.6288 H   0  0  0  0  0  0  0  0  0  0  0  0
    4.2611    1.9944   -0.9503 H   0  0  0  0  0  0  0  0  0  0  0  0
    2.5593    1.8923   -1.3556 H   0  0  0  0  0  0  0  0  0  0  0  0
    3.0448    2.3588    0.2880 H   0  0  0  0  0  0  0  0  0  0  0  0
    4.1340   -1.5527    0.4229 H   0  0  0  0  0  0  0  0  0  0  0  0
    6.2018   -0.4002    1.0766 H   0  0  0  0  0  0  0  0  0  0  0  0
    5.8912    0.9590    0.0002 H   0  0  0  0  0  0  0  0  0  0  0  0
    6.2601   -0.6377   -0.6786 H   0  0  0  0  0  0  0  0  0  0  0  0
  1 10  1  0  0  0  0
  1 12  1  0  0  0  0
  2 12  2  0  0  0  0
  3  4  1  0  0  0  0
  3  5  1  0  0  0  0
  3 11  1  0  0  0  0
  4  6  1  0  0  0  0
  4  8  1  0  0  0  0
  4 17  1  0  0  0  0
  5  7  1  0  0  0  0
  5  9  1  0  0  0  0
  5 18  1  0  0  0  0
  6  7  1  0  0  0  0
  6 19  1  0  0  0  0
  6 20  1  0  0  0  0
  7 21  1  0  0  0  0
  7 22  1  0  0  0  0
  8 10  1  0  0  0  0
  8 23  1  0  0  0  0
  8 24  1  0  0  0  0
  9 10  1  0  0  0  0
  9 25  1  0  0  0  0
  9 26  1  0  0  0  0
 10 27  1  0  0  0  0
 11 28  1  0  0  0  0
 11 29  1  0  0  0  0
 11 30  1  0  0  0  0
 12 13  1  0  0  0  0
 13 14  1  0  0  0  0
 13 15  2  0  0  0  0
 14 31  1  0  0  0  0
 14 32  1  0  0  0  0
 14 33  1  0  0  0  0
 15 16  1  0  0  0  0
 15 34  1  0  0  0  0
 16 35  1  0  0  0  0
 16 36  1  0  0  0  0
 16 37  1  0  0  0  0
M  END
> <PUBCHEM_COMPOUND_CID>
5281865

> <PUBCHEM_CONFORMER_RMSD>
0.6

> <PUBCHEM_CONFORMER_DIVERSEORDER>
1
29
40
19
38
21
6
39
37
11
28
36
27
32
2
35
41
24
8
15
22
31
25
42
33
30
13
26
10
14
23
34
9
3
12
4
18
5
20
7
17
16

> <PUBCHEM_MMFF94_PARTIAL_CHARGES>
13
1 -0.43
10 0.28
11 0.27
12 0.71
13 -0.12
14 0.14
15 -0.29
16 0.14
2 -0.57
3 -0.81
34 0.15
4 0.27
5 0.27

> <PUBCHEM_EFFECTIVE_ROTOR_COUNT>
4.2

> <PUBCHEM_PHARMACOPHORE_FEATURES>
5
1 14 hydrophobe
1 16 hydrophobe
1 2 acceptor
1 3 cation
8 3 4 5 6 7 8 9 10 rings

> <PUBCHEM_HEAVY_ATOM_COUNT>
16

> <PUBCHEM_ATOM_DEF_STEREO_COUNT>
0

> <PUBCHEM_ATOM_UDEF_STEREO_COUNT>
2

> <PUBCHEM_BOND_DEF_STEREO_COUNT>
1

> <PUBCHEM_BOND_UDEF_STEREO_COUNT>
0

> <PUBCHEM_ISOTOPIC_ATOM_COUNT>
0

> <PUBCHEM_COMPONENT_COUNT>
1

> <PUBCHEM_CACTVS_TAUTO_COUNT>
1

> <PUBCHEM_CONFORMER_ID>
0050984900000001

> <PUBCHEM_MMFF94_ENERGY>
34.6301

> <PUBCHEM_FEATURE_SELFOVERLAP>
25.372

> <PUBCHEM_SHAPE_FINGERPRINT>
10680689 15 17632292367564120282
11132069 177 17894629262256742140
11315181 36 17603589616911359608
11401426 45 18335426768293602656
12236239 1 18186523215431320662
12500047 106 17489873747389117059
12507557 5 18343866597989529492
12916754 54 18059288751750819663
13024252 1 15697997436390484657
13214271 11 17918274251121981839
13288520 33 15357700785952533893
13675066 3 18186519900101780906
13760787 5 18114176415359771024
14123238 8 15502377816376023328
14144814 61 17821726147803106946
14289901 80 17060052597513424336
15309172 13 17022897956485619759
15788980 27 18131633383280921522
16945 1 17821729429506176779
17802600 8 18186807984743347704
18186145 218 18412819171158618740
190213 19 18260265248419224470
19026448 4 17775002366836838688
19050596 39 18333723611649434152
200 152 18187090558941184949
20279233 1 18130784590042222799
20300324 65 16805328798841336285
20645477 56 17489591203456101677
20645477 70 18264776626111685710
2306618 200 18410291436871201817
23402539 116 17060624399626538366
23557571 272 17132108044115086055
23559900 14 18261399918950193600
26918003 58 18343584044775236442
4175511 318 18410014355677397837
5104073 3 18411134697801620960
542803 24 15769772468450475198

> <PUBCHEM_SHAPE_MULTIPOLES>
312.55
9.75
1.37
1.08
10.08
0.03
0.05
0.33
-0.59
-0.11
-0.04
-1.13
0.09
0.01

> <PUBCHEM_SHAPE_SELFOVERLAP>
641.344

> <PUBCHEM_SHAPE_VOLUME>
181.5

> <PUBCHEM_COORDINATE_TYPE>
2
5
10

$$$$

