442420
  -OEChem-07051212583D

 25 26  0     1  0  0  0  0  0999 V2000
    1.6123    1.2985    0.0149 O   0  0  0  0  0  0  0  0  0  0  0  0
    3.3962   -0.1015   -0.0153 O   0  0  0  0  0  0  0  0  0  0  0  0
   -0.5633    0.4303   -0.6441 C   0  0  1  0  0  0  0  0  0  0  0  0
    0.0247   -0.9958   -0.5339 C   0  0  2  0  0  0  0  0  0  0  0  0
   -2.0656    0.2763   -0.3461 C   0  0  1  0  0  0  0  0  0  0  0  0
   -1.1226   -1.8902   -0.0464 C   0  0  0  0  0  0  0  0  0  0  0  0
   -2.1239   -0.9329    0.5835 C   0  0  0  0  0  0  0  0  0  0  0  0
    1.2288   -1.0528    0.4037 C   0  0  0  0  0  0  0  0  0  0  0  0
    0.1956    1.4024    0.2557 C   0  0  0  0  0  0  0  0  0  0  0  0
   -2.7701    1.4967    0.2245 C   0  0  0  0  0  0  0  0  0  0  0  0
    2.1879    0.0691    0.1035 C   0  0  0  0  0  0  0  0  0  0  0  0
   -0.4375    0.7745   -1.6797 H   0  0  0  0  0  0  0  0  0  0  0  0
    0.3454   -1.3326   -1.5286 H   0  0  0  0  0  0  0  0  0  0  0  0
   -2.5686    0.0081   -1.2861 H   0  0  0  0  0  0  0  0  0  0  0  0
   -0.8018   -2.6697    0.6517 H   0  0  0  0  0  0  0  0  0  0  0  0
   -1.5867   -2.3886   -0.9067 H   0  0  0  0  0  0  0  0  0  0  0  0
   -3.1264   -1.3685    0.6362 H   0  0  0  0  0  0  0  0  0  0  0  0
   -1.8107   -0.6677    1.6003 H   0  0  0  0  0  0  0  0  0  0  0  0
    1.7507   -2.0074    0.2697 H   0  0  0  0  0  0  0  0  0  0  0  0
    0.9407   -0.9874    1.4593 H   0  0  0  0  0  0  0  0  0  0  0  0
   -0.0927    2.4346    0.0318 H   0  0  0  0  0  0  0  0  0  0  0  0
    0.0086    1.2329    1.3225 H   0  0  0  0  0  0  0  0  0  0  0  0
   -2.3794    1.7745    1.2085 H   0  0  0  0  0  0  0  0  0  0  0  0
   -2.6603    2.3559   -0.4451 H   0  0  0  0  0  0  0  0  0  0  0  0
   -3.8407    1.2975    0.3421 H   0  0  0  0  0  0  0  0  0  0  0  0
  1  9  1  0  0  0  0
  1 11  1  0  0  0  0
  2 11  2  0  0  0  0
  3  4  1  0  0  0  0
  3  5  1  0  0  0  0
  3  9  1  0  0  0  0
  3 12  1  0  0  0  0
  4  6  1  0  0  0  0
  4  8  1  0  0  0  0
  4 13  1  0  0  0  0
  5  7  1  0  0  0  0
  5 10  1  0  0  0  0
  5 14  1  0  0  0  0
  6  7  1  0  0  0  0
  6 15  1  0  0  0  0
  6 16  1  0  0  0  0
  7 17  1  0  0  0  0
  7 18  1  0  0  0  0
  8 11  1  0  0  0  0
  8 19  1  0  0  0  0
  8 20  1  0  0  0  0
  9 21  1  0  0  0  0
  9 22  1  0  0  0  0
 10 23  1  0  0  0  0
 10 24  1  0  0  0  0
 10 25  1  0  0  0  0
M  END
> <PUBCHEM_COMPOUND_CID>
442420

> <PUBCHEM_CONFORMER_RMSD>
0.4

> <PUBCHEM_CONFORMER_DIVERSEORDER>
2
1
6
5
3
4

> <PUBCHEM_MMFF94_PARTIAL_CHARGES>
5
1 -0.43
11 0.66
2 -0.57
8 0.06
9 0.28

> <PUBCHEM_EFFECTIVE_ROTOR_COUNT>
1.2

> <PUBCHEM_PHARMACOPHORE_FEATURES>
3
1 2 acceptor
5 3 4 5 6 7 rings
6 1 3 4 8 9 11 rings

> <PUBCHEM_HEAVY_ATOM_COUNT>
11

> <PUBCHEM_ATOM_DEF_STEREO_COUNT>
3

> <PUBCHEM_ATOM_UDEF_STEREO_COUNT>
0

> <PUBCHEM_BOND_DEF_STEREO_COUNT>
0

> <PUBCHEM_BOND_UDEF_STEREO_COUNT>
0

> <PUBCHEM_ISOTOPIC_ATOM_COUNT>
0

> <PUBCHEM_COMPONENT_COUNT>
1

> <PUBCHEM_CACTVS_TAUTO_COUNT>
1

> <PUBCHEM_CONFORMER_ID>
0006C03400000002

> <PUBCHEM_MMFF94_ENERGY>
25.8241

> <PUBCHEM_FEATURE_SELFOVERLAP>
15.337

> <PUBCHEM_SHAPE_FINGERPRINT>
12423570 1 7958982533261578319
13024252 1 14620801508895458447
13380535 76 18338237171459003111
14325111 11 18410575089084835172
15310529 11 16702027533970370064
15775835 57 18272367611233877913
16945 1 18338234860386815639
18185500 45 17256528517837070591
19973954 147 18266459806403667216
20645464 45 18113626651150854482
20871998 184 18189048707641249871
21040471 1 18409731772213885725
23235685 24 18336271248557370425
23402655 69 18119828034714472661
23552423 10 18057327184542072310
23559900 14 18334290990642390078
241688 4 16319496735561274947
2748010 2 18266182733837013372
369184 2 14923940124400615430
5084963 1 18264206915694480715
528886 8 18337115660597215473
53812653 166 18336547208875142513

> <PUBCHEM_SHAPE_MULTIPOLES>
214.64
3.89
1.77
0.74
1.36
0.15
0.02
-0.78
-0.35
-0.67
-0.11
-0.13
0.05
0.01

> <PUBCHEM_SHAPE_SELFOVERLAP>
444.327

> <PUBCHEM_SHAPE_VOLUME>
123.5

> <PUBCHEM_COORDINATE_TYPE>
2
5
10

$$$$

