9930620
  -OEChem-07051213033D

 45 47  0     0  0  0  0  0  0999 V2000
    0.1004    2.5040    0.3745 O   0  0  0  0  0  0  0  0  0  0  0  0
   -2.4035    2.4215   -0.0577 O   0  0  0  0  0  0  0  0  0  0  0  0
   -2.4637   -2.9151    0.2191 O   0  0  0  0  0  0  0  0  0  0  0  0
    2.8369    1.5070    1.9986 O   0  0  0  0  0  0  0  0  0  0  0  0
   -4.9220    2.5141   -0.5040 O   0  0  0  0  0  0  0  0  0  0  0  0
    4.2849   -2.7271   -0.1542 O   0  0  0  0  0  0  0  0  0  0  0  0
    5.2153    0.2775    0.6054 O   0  0  0  0  0  0  0  0  0  0  0  0
    2.6361   -1.7874   -1.4019 O   0  0  0  0  0  0  0  0  0  0  0  0
   -1.1698    0.4474    0.2651 C   0  0  0  0  0  0  0  0  0  0  0  0
   -1.1859   -0.9472    0.3361 C   0  0  0  0  0  0  0  0  0  0  0  0
    1.2148    0.4394    0.6813 C   0  0  0  0  0  0  0  0  0  0  0  0
    1.1985   -0.9522    0.7520 C   0  0  0  0  0  0  0  0  0  0  0  0
    0.0338    1.1414    0.4384 C   0  0  0  0  0  0  0  0  0  0  0  0
    0.0013   -1.6478    0.5803 C   0  0  0  0  0  0  0  0  0  0  0  0
   -3.6776    0.4540   -0.1747 C   0  0  0  0  0  0  0  0  0  0  0  0
   -3.6938   -0.9405   -0.1034 C   0  0  0  0  0  0  0  0  0  0  0  0
   -2.4150    1.1989    0.0069 C   0  0  0  0  0  0  0  0  0  0  0  0
   -2.4486   -1.6921    0.1553 C   0  0  0  0  0  0  0  0  0  0  0  0
    2.4499   -1.7286    1.0070 C   0  0  0  0  0  0  0  0  0  0  0  0
    2.4705    1.1618    0.8613 C   0  0  0  0  0  0  0  0  0  0  0  0
    3.3492    1.4669   -0.3565 C   0  0  0  0  0  0  0  0  0  0  0  0
   -4.8646    1.1543   -0.4207 C   0  0  0  0  0  0  0  0  0  0  0  0
   -4.8969   -1.6347   -0.2783 C   0  0  0  0  0  0  0  0  0  0  0  0
   -6.0613    0.4587   -0.5945 C   0  0  0  0  0  0  0  0  0  0  0  0
   -6.0775   -0.9329   -0.5237 C   0  0  0  0  0  0  0  0  0  0  0  0
    4.7651    0.9169   -0.3438 C   0  0  0  0  0  0  0  0  0  0  0  0
    3.1134   -2.0604   -0.3074 C   0  0  0  0  0  0  0  0  0  0  0  0
    5.6097    1.2538   -1.5624 C   0  0  0  0  0  0  0  0  0  0  0  0
    7.0004    0.6483   -1.4982 C   0  0  0  0  0  0  0  0  0  0  0  0
   -0.0003   -2.7338    0.6344 H   0  0  0  0  0  0  0  0  0  0  0  0
    2.2126   -2.6701    1.5169 H   0  0  0  0  0  0  0  0  0  0  0  0
    3.1483   -1.1875    1.6512 H   0  0  0  0  0  0  0  0  0  0  0  0
    2.8521    1.0825   -1.2541 H   0  0  0  0  0  0  0  0  0  0  0  0
    3.4021    2.5578   -0.4463 H   0  0  0  0  0  0  0  0  0  0  0  0
   -4.9361   -2.7195   -0.2277 H   0  0  0  0  0  0  0  0  0  0  0  0
   -6.9870    0.9952   -0.7862 H   0  0  0  0  0  0  0  0  0  0  0  0
   -7.0105   -1.4723   -0.6594 H   0  0  0  0  0  0  0  0  0  0  0  0
    0.9889    2.8326    0.5815 H   0  0  0  0  0  0  0  0  0  0  0  0
    5.6866    2.3438   -1.6340 H   0  0  0  0  0  0  0  0  0  0  0  0
    5.0902    0.8792   -2.4505 H   0  0  0  0  0  0  0  0  0  0  0  0
   -4.0463    2.9049   -0.3671 H   0  0  0  0  0  0  0  0  0  0  0  0
    7.5501    1.0167   -0.6258 H   0  0  0  0  0  0  0  0  0  0  0  0
    6.9502   -0.4433   -1.4265 H   0  0  0  0  0  0  0  0  0  0  0  0
    7.5705    0.9067   -2.3957 H   0  0  0  0  0  0  0  0  0  0  0  0
    4.6970   -2.9453   -1.0172 H   0  0  0  0  0  0  0  0  0  0  0  0
  1 13  1  0  0  0  0
  1 38  1  0  0  0  0
  2 17  2  0  0  0  0
  3 18  2  0  0  0  0
  4 20  2  0  0  0  0
  5 22  1  0  0  0  0
  5 41  1  0  0  0  0
  6 27  1  0  0  0  0
  6 45  1  0  0  0  0
  7 26  2  0  0  0  0
  8 27  2  0  0  0  0
  9 10  2  0  0  0  0
  9 13  1  0  0  0  0
  9 17  1  0  0  0  0
 10 14  1  0  0  0  0
 10 18  1  0  0  0  0
 11 12  1  0  0  0  0
 11 13  2  0  0  0  0
 11 20  1  0  0  0  0
 12 14  2  0  0  0  0
 12 19  1  0  0  0  0
 14 30  1  0  0  0  0
 15 16  2  0  0  0  0
 15 17  1  0  0  0  0
 15 22  1  0  0  0  0
 16 18  1  0  0  0  0
 16 23  1  0  0  0  0
 19 27  1  0  0  0  0
 19 31  1  0  0  0  0
 19 32  1  0  0  0  0
 20 21  1  0  0  0  0
 21 26  1  0  0  0  0
 21 33  1  0  0  0  0
 21 34  1  0  0  0  0
 22 24  2  0  0  0  0
 23 25  2  0  0  0  0
 23 35  1  0  0  0  0
 24 25  1  0  0  0  0
 24 36  1  0  0  0  0
 25 37  1  0  0  0  0
 26 28  1  0  0  0  0
 28 29  1  0  0  0  0
 28 39  1  0  0  0  0
 28 40  1  0  0  0  0
 29 42  1  0  0  0  0
 29 43  1  0  0  0  0
 29 44  1  0  0  0  0
M  END
> <PUBCHEM_COMPOUND_CID>
9930620

> <PUBCHEM_CONFORMER_RMSD>
0.8

> <PUBCHEM_CONFORMER_DIVERSEORDER>
2
30
38
48
42
17
1
44
32
29
33
26
27
39
6
49
24
5
43
50
51
11
41
45
14
10
46
21
31
22
20
13
8
36
40
35
3
37
7
34
12
47
28
15
4
19
25
9
18
23
16

> <PUBCHEM_MMFF94_PARTIAL_CHARGES>
35
1 -0.53
10 0.09
11 0.09
12 -0.14
13 0.08
14 -0.15
15 0.09
16 0.09
17 0.4
18 0.4
19 0.2
2 -0.57
20 0.42
21 0.12
22 0.08
23 -0.15
24 -0.15
25 -0.15
26 0.45
27 0.66
28 0.06
3 -0.57
30 0.15
35 0.15
36 0.15
37 0.15
38 0.45
4 -0.57
41 0.45
45 0.5
5 -0.53
6 -0.65
7 -0.57
8 -0.57
9 0.09

> <PUBCHEM_EFFECTIVE_ROTOR_COUNT>
6

> <PUBCHEM_PHARMACOPHORE_FEATURES>
14
1 1 donor
1 2 acceptor
1 21 anion
1 29 hydrophobe
1 3 acceptor
1 4 acceptor
1 5 donor
1 6 acceptor
1 7 acceptor
1 8 acceptor
3 6 8 27 anion
6 15 16 22 23 24 25 rings
6 9 10 11 12 13 14 rings
6 9 10 15 16 17 18 rings

> <PUBCHEM_HEAVY_ATOM_COUNT>
29

> <PUBCHEM_ATOM_DEF_STEREO_COUNT>
0

> <PUBCHEM_ATOM_UDEF_STEREO_COUNT>
0

> <PUBCHEM_BOND_DEF_STEREO_COUNT>
0

> <PUBCHEM_BOND_UDEF_STEREO_COUNT>
0

> <PUBCHEM_ISOTOPIC_ATOM_COUNT>
0

> <PUBCHEM_COMPONENT_COUNT>
1

> <PUBCHEM_CACTVS_TAUTO_COUNT>
492

> <PUBCHEM_CONFORMER_ID>
0097877C00000002

> <PUBCHEM_MMFF94_ENERGY>
82.2581

> <PUBCHEM_FEATURE_SELFOVERLAP>
71.143

> <PUBCHEM_SHAPE_FINGERPRINT>
10670039 82 18344146985870295628
10906281 52 18336251427647413379
11578080 2 17416987186250871301
11963148 33 18339089168127457826
12011746 2 18335138657107181605
12236239 1 17418099788580378953
12390115 104 18334572478193357465
12788726 201 17895188969336191553
12954195 1 18114169869661138408
13140716 1 18193290799868870361
13668630 136 16660359247428790663
13944108 23 17402338569176525445
14617045 38 18335978692718146839
14659021 117 16024486753597073718
14790565 3 18339922731411501481
14840074 17 16988562372765766677
14931854 50 18410863161653539405
15183329 4 18410291406373446164
15196674 1 18410862087969581411
15575132 122 17489878145668003717
15961568 22 17918274251053891500
1601671 61 18342462512644769048
18335252 98 18201428148235435395
18608769 82 18198898120419183899
18681886 176 18269839718349318392
20691752 17 17560514127026533240
21267235 1 18339078165248426707
21279426 13 18337676442114274951
21637258 2 15068611726259632804
22393880 68 18041283149577453558
23559900 14 18263366901960214160
23569914 152 16811785345684029645
25147074 1 18338231682263984992
3004659 81 18341897441563098626
335352 9 18411422769969449349
34797466 226 17313386678139463872
350125 39 18410859888313349217
3545911 37 18409731733896751251
4280585 95 17831005099199999886
4325135 7 18342175566211792654
474 4 17417808413878065844
495365 180 17531263716013418738
5104073 3 18410018758366945563
6669772 16 17386294169607820216
9709674 26 18337959996003272059

> <PUBCHEM_SHAPE_MULTIPOLES>
549.85
14.49
2.79
1.12
2.47
0.6
-0.01
-2.49
6.43
-0.24
0
1.55
-0.17
-0.04

> <PUBCHEM_SHAPE_SELFOVERLAP>
1214.937

> <PUBCHEM_SHAPE_VOLUME>
292.6

> <PUBCHEM_COORDINATE_TYPE>
2
5
10

$$$$

