101690
  -OEChem-07051212462D

 81 85  0     1  0  0  0  0  0999 V2000
    2.5381   -3.1815    0.0000 O   0  0  0  0  0  0  0  0  0  0  0  0
    6.0682   -1.1574    0.0000 C   0  0  1  0  0  0  0  0  0  0  0  0
    5.2022   -1.6574    0.0000 C   0  0  2  0  0  0  0  0  0  0  0  0
    5.2020   -0.6569    0.0000 C   0  0  0  0  0  0  0  0  0  0  0  0
    6.9343   -1.6574    0.0000 C   0  0  2  0  0  0  0  0  0  0  0  0
    7.8443   -1.1505    0.0000 C   0  0  1  0  0  0  0  0  0  0  0  0
    5.2022   -2.6574    0.0000 C   0  0  1  0  0  0  0  0  0  0  0  0
    6.0522   -0.1159    0.0000 C   0  0  0  0  0  0  0  0  0  0  0  0
    7.8523   -0.1089    0.0000 C   0  0  2  0  0  0  0  0  0  0  0  0
    4.3083   -1.1227    0.0000 C   0  0  0  0  0  0  0  0  0  0  0  0
    6.9343   -2.6574    0.0000 C   0  0  0  0  0  0  0  0  0  0  0  0
    6.9502    0.4119    0.0000 C   0  0  0  0  0  0  0  0  0  0  0  0
    6.0682   -3.1574    0.0000 C   0  0  0  0  0  0  0  0  0  0  0  0
    4.3083   -3.1920    0.0000 C   0  0  1  0  0  0  0  0  0  0  0  0
    8.8403    0.2009    0.0000 C   0  0  2  0  0  0  0  0  0  0  0  0
    8.8274   -1.4755    0.0000 C   0  0  0  0  0  0  0  0  0  0  0  0
    3.4022   -1.6365    0.0000 C   0  0  0  0  0  0  0  0  0  0  0  0
    9.4418   -0.6420    0.0000 C   0  0  0  0  0  0  0  0  0  0  0  0
    7.8366   -2.1505    0.0000 C   0  0  0  0  0  0  0  0  0  0  0  0
    3.4022   -2.6782    0.0000 C   0  0  2  0  0  0  0  0  0  0  0  0
    7.8600    0.8911    0.0000 C   0  0  0  0  0  0  0  0  0  0  0  0
    9.1583    1.1490    0.0000 C   0  0  1  0  0  0  0  0  0  0  0  0
    4.3198   -4.1920    0.0000 C   0  0  0  0  0  0  0  0  0  0  0  0
   10.1384    1.3477    0.0000 C   0  0  0  0  0  0  0  0  0  0  0  0
    8.4962    1.8984    0.0000 C   0  0  0  0  0  0  0  0  0  0  0  0
   10.4564    2.2958    0.0000 C   0  0  0  0  0  0  0  0  0  0  0  0
   11.4364    2.4944    0.0000 C   0  0  0  0  0  0  0  0  0  0  0  0
   11.7544    3.4425    0.0000 C   0  0  0  0  0  0  0  0  0  0  0  0
   12.0985    1.7450    0.0000 C   0  0  0  0  0  0  0  0  0  0  0  0
   12.7345    3.6412    0.0000 C   0  0  0  0  0  0  0  0  0  0  0  0
   11.0923    4.1920    0.0000 C   0  0  0  0  0  0  0  0  0  0  0  0
    5.4141   -0.0743    0.0000 H   0  0  0  0  0  0  0  0  0  0  0  0
    4.5914   -0.5493    0.0000 H   0  0  0  0  0  0  0  0  0  0  0  0
    7.6671   -2.0880    0.0000 H   0  0  0  0  0  0  0  0  0  0  0  0
    5.2088   -3.5073    0.0000 H   0  0  0  0  0  0  0  0  0  0  0  0
    5.8342    0.4645    0.0000 H   0  0  0  0  0  0  0  0  0  0  0  0
    5.4431   -0.2314    0.0000 H   0  0  0  0  0  0  0  0  0  0  0  0
    4.7129   -0.6529    0.0000 H   0  0  0  0  0  0  0  0  0  0  0  0
    3.9147   -0.6437    0.0000 H   0  0  0  0  0  0  0  0  0  0  0  0
    7.1463   -3.2400    0.0000 H   0  0  0  0  0  0  0  0  0  0  0  0
    7.5449   -2.5497    0.0000 H   0  0  0  0  0  0  0  0  0  0  0  0
    7.3475    0.8879    0.0000 H   0  0  0  0  0  0  0  0  0  0  0  0
    6.5493    0.8848    0.0000 H   0  0  0  0  0  0  0  0  0  0  0  0
    5.6697   -3.6323    0.0000 H   0  0  0  0  0  0  0  0  0  0  0  0
    6.4668   -3.6323    0.0000 H   0  0  0  0  0  0  0  0  0  0  0  0
    3.7744   -3.5072    0.0000 H   0  0  0  0  0  0  0  0  0  0  0  0
    9.6810    0.3263    0.0000 H   0  0  0  0  0  0  0  0  0  0  0  0
    8.5720   -2.0405    0.0000 H   0  0  0  0  0  0  0  0  0  0  0  0
    9.3624   -1.7889    0.0000 H   0  0  0  0  0  0  0  0  0  0  0  0
    3.1932   -1.0528    0.0000 H   0  0  0  0  0  0  0  0  0  0  0  0
    2.7914   -1.7426    0.0000 H   0  0  0  0  0  0  0  0  0  0  0  0
    9.8994   -1.0603    0.0000 H   0  0  0  0  0  0  0  0  0  0  0  0
    9.9058   -0.2308    0.0000 H   0  0  0  0  0  0  0  0  0  0  0  0
    7.2166   -2.1457    0.0000 H   0  0  0  0  0  0  0  0  0  0  0  0
    7.8318   -2.7705    0.0000 H   0  0  0  0  0  0  0  0  0  0  0  0
    8.4566   -2.1553    0.0000 H   0  0  0  0  0  0  0  0  0  0  0  0
    3.4058   -3.2982    0.0000 H   0  0  0  0  0  0  0  0  0  0  0  0
    8.4800    0.8863    0.0000 H   0  0  0  0  0  0  0  0  0  0  0  0
    7.8648    1.5110    0.0000 H   0  0  0  0  0  0  0  0  0  0  0  0
    7.2400    0.8958    0.0000 H   0  0  0  0  0  0  0  0  0  0  0  0
    9.3555    1.7368    0.0000 H   0  0  0  0  0  0  0  0  0  0  0  0
    3.6999   -4.1991    0.0000 H   0  0  0  0  0  0  0  0  0  0  0  0
    4.3270   -4.8119    0.0000 H   0  0  0  0  0  0  0  0  0  0  0  0
    4.9398   -4.1848    0.0000 H   0  0  0  0  0  0  0  0  0  0  0  0
   10.1542    0.7279    0.0000 H   0  0  0  0  0  0  0  0  0  0  0  0
   10.7515    1.2556    0.0000 H   0  0  0  0  0  0  0  0  0  0  0  0
    2.0000   -2.8736    0.0000 H   0  0  0  0  0  0  0  0  0  0  0  0
    8.9609    2.3089    0.0000 H   0  0  0  0  0  0  0  0  0  0  0  0
    8.0857    2.3631    0.0000 H   0  0  0  0  0  0  0  0  0  0  0  0
    8.0316    1.4879    0.0000 H   0  0  0  0  0  0  0  0  0  0  0  0
   10.4406    2.9156    0.0000 H   0  0  0  0  0  0  0  0  0  0  0  0
    9.8432    2.3878    0.0000 H   0  0  0  0  0  0  0  0  0  0  0  0
   12.1649    2.9779    0.0000 H   0  0  0  0  0  0  0  0  0  0  0  0
   11.9014    1.1572    0.0000 H   0  0  0  0  0  0  0  0  0  0  0  0
   12.7062    1.8682    0.0000 H   0  0  0  0  0  0  0  0  0  0  0  0
   12.8577    3.0336    0.0000 H   0  0  0  0  0  0  0  0  0  0  0  0
   13.3421    3.7644    0.0000 H   0  0  0  0  0  0  0  0  0  0  0  0
   11.5570    4.6024    0.0000 H   0  0  0  0  0  0  0  0  0  0  0  0
   10.6818    4.6566    0.0000 H   0  0  0  0  0  0  0  0  0  0  0  0
   10.6277    3.7815    0.0000 H   0  0  0  0  0  0  0  0  0  0  0  0
   12.6113    4.2488    0.0000 H   0  0  0  0  0  0  0  0  0  0  0  0
 20  1  1  1  0  0  0
  1 67  1  0  0  0  0
  2  3  1  0  0  0  0
  2  4  1  1  0  0  0
  2  5  1  0  0  0  0
  2  8  1  0  0  0  0
  3  4  1  1  0  0  0
  3  7  1  0  0  0  0
  3 10  1  0  0  0  0
  4 32  1  0  0  0  0
  4 33  1  0  0  0  0
  5  6  1  0  0  0  0
  5 11  1  0  0  0  0
  5 34  1  1  0  0  0
  6  9  1  0  0  0  0
  6 16  1  0  0  0  0
  6 19  1  6  0  0  0
  7 13  1  0  0  0  0
  7 14  1  0  0  0  0
  7 35  1  6  0  0  0
  8 12  1  0  0  0  0
  8 36  1  0  0  0  0
  8 37  1  0  0  0  0
  9 12  1  0  0  0  0
  9 15  1  0  0  0  0
  9 21  1  1  0  0  0
 10 17  1  0  0  0  0
 10 38  1  0  0  0  0
 10 39  1  0  0  0  0
 11 13  1  0  0  0  0
 11 40  1  0  0  0  0
 11 41  1  0  0  0  0
 12 42  1  0  0  0  0
 12 43  1  0  0  0  0
 13 44  1  0  0  0  0
 13 45  1  0  0  0  0
 14 20  1  0  0  0  0
 14 23  1  6  0  0  0
 14 46  1  0  0  0  0
 15 18  1  0  0  0  0
 15 22  1  0  0  0  0
 15 47  1  6  0  0  0
 16 18  1  0  0  0  0
 16 48  1  0  0  0  0
 16 49  1  0  0  0  0
 17 20  1  0  0  0  0
 17 50  1  0  0  0  0
 17 51  1  0  0  0  0
 18 52  1  0  0  0  0
 18 53  1  0  0  0  0
 19 54  1  0  0  0  0
 19 55  1  0  0  0  0
 19 56  1  0  0  0  0
 20 57  1  0  0  0  0
 21 58  1  0  0  0  0
 21 59  1  0  0  0  0
 21 60  1  0  0  0  0
 22 24  1  0  0  0  0
 22 25  1  6  0  0  0
 22 61  1  0  0  0  0
 23 62  1  0  0  0  0
 23 63  1  0  0  0  0
 23 64  1  0  0  0  0
 24 26  1  0  0  0  0
 24 65  1  0  0  0  0
 24 66  1  0  0  0  0
 25 68  1  0  0  0  0
 25 69  1  0  0  0  0
 25 70  1  0  0  0  0
 26 27  1  0  0  0  0
 26 71  1  0  0  0  0
 26 72  1  0  0  0  0
 27 28  1  0  0  0  0
 27 29  2  0  0  0  0
 28 30  1  0  0  0  0
 28 31  1  0  0  0  0
 28 73  1  0  0  0  0
 29 74  1  0  0  0  0
 29 75  1  0  0  0  0
 30 76  1  0  0  0  0
 30 77  1  0  0  0  0
 30 81  1  0  0  0  0
 31 78  1  0  0  0  0
 31 79  1  0  0  0  0
 31 80  1  0  0  0  0
M  END
> <PUBCHEM_COMPOUND_CID>
101690

> <PUBCHEM_COMPOUND_CANONICALIZED>
1

> <PUBCHEM_CACTVS_COMPLEXITY>
739

> <PUBCHEM_CACTVS_HBOND_ACCEPTOR>
1

> <PUBCHEM_CACTVS_HBOND_DONOR>
1

> <PUBCHEM_CACTVS_ROTATABLE_BOND>
5

> <PUBCHEM_CACTVS_SUBSKEYS>
AAADcfB4IAAAAAAAAAAAAAAAGAAAAYAAAAAwYMAABgAAAGDAAAAAGgAACAAADxSggAICAAAAAgCAAgBCAAAAAAAgAAAAAAAAAAgAEAIAAQAAQAAEgAAAAAGAwPAPgAAAAAAAAADAAAYAADAAAQAACAAAAA==

> <PUBCHEM_IUPAC_INCHI>
InChI=1S/C30H50O/c1-19(2)20(3)8-9-21(4)23-12-14-28(7)26-11-10-24-22(5)25(31)13-15-29(24)18-30(26,29)17-16-27(23,28)6/h19,21-26,31H,3,8-18H2,1-2,4-7H3/t21-,22+,23-,24+,25+,26+,27-,28+,29-,30+/m1/s1

> <PUBCHEM_IUPAC_INCHIKEY>
HUNLTIZKNQDZEI-PGFZVWMDSA-N

> <PUBCHEM_XLOGP3_AA>
9.9

> <PUBCHEM_EXACT_MASS>
426.386166

> <PUBCHEM_MOLECULAR_FORMULA>
C30H50O

> <PUBCHEM_MOLECULAR_WEIGHT>
426.7174

> <PUBCHEM_OPENEYE_CAN_SMILES>
CC1C2CCC3C4(CCC(C4(CCC35C2(C5)CCC1O)C)C(C)CCC(=C)C(C)C)C

> <PUBCHEM_OPENEYE_ISO_SMILES>
C[C@H]1[C@@H]2CC[C@H]3[C@@]4(CC[C@@H]([C@]4(CC[C@@]35[C@@]2(C5)CC[C@@H]1O)C)[C@H](C)CCC(=C)C(C)C)C

> <PUBCHEM_CACTVS_TPSA>
20.2

> <PUBCHEM_MONOISOTOPIC_WEIGHT>
426.386166

> <PUBCHEM_TOTAL_CHARGE>
0

> <PUBCHEM_HEAVY_ATOM_COUNT>
31

> <PUBCHEM_ATOM_DEF_STEREO_COUNT>
10

> <PUBCHEM_ATOM_UDEF_STEREO_COUNT>
0

> <PUBCHEM_BOND_DEF_STEREO_COUNT>
0

> <PUBCHEM_BOND_UDEF_STEREO_COUNT>
0

> <PUBCHEM_ISOTOPIC_ATOM_COUNT>
0

> <PUBCHEM_COMPONENT_COUNT>
1

> <PUBCHEM_CACTVS_TAUTO_COUNT>
1

> <PUBCHEM_COORDINATE_TYPE>
1
5
255

> <PUBCHEM_BONDANNOTATIONS>
20  1  5
14  23  6
15  47  6
2  4  5
22  25  6
3  4  5
5  34  5
6  19  6
7  35  6
9  21  5

$$$$

