442180
  -OEChem-07051212573D

 44 48  0     1  0  0  0  0  0999 V2000
    1.5020    2.7675   -1.3545 O   0  0  0  0  0  0  0  0  0  0  0  0
    6.0962   -0.1616   -0.0077 O   0  0  0  0  0  0  0  0  0  0  0  0
    4.9337   -2.2644    0.1626 O   0  0  0  0  0  0  0  0  0  0  0  0
   -4.3268    1.3726    0.4751 O   0  0  0  0  0  0  0  0  0  0  0  0
   -5.8649   -0.7957   -0.2107 O   0  0  0  0  0  0  0  0  0  0  0  0
   -0.1435    1.0885    0.4240 N   0  3  0  0  0  0  0  0  0  0  0  0
    1.8769    2.4316   -0.0222 C   0  0  1  0  0  0  0  0  0  0  0  0
    0.6312    2.2910    0.8337 C   0  0  0  0  0  0  0  0  0  0  0  0
    2.6612    1.1491    0.0151 C   0  0  0  0  0  0  0  0  0  0  0  0
    0.4768   -0.0803    0.0905 C   0  0  0  0  0  0  0  0  0  0  0  0
    1.9527   -0.0805    0.0923 C   0  0  0  0  0  0  0  0  0  0  0  0
   -1.4941    1.1800    0.4439 C   0  0  0  0  0  0  0  0  0  0  0  0
   -0.3119   -1.1892   -0.2643 C   0  0  0  0  0  0  0  0  0  0  0  0
   -2.3118    0.1033    0.1061 C   0  0  0  0  0  0  0  0  0  0  0  0
   -1.7080   -1.1090   -0.2589 C   0  0  0  0  0  0  0  0  0  0  0  0
    4.0652    1.1880   -0.0338 C   0  0  0  0  0  0  0  0  0  0  0  0
    2.7019   -1.2726    0.1540 C   0  0  0  0  0  0  0  0  0  0  0  0
    4.7452   -0.0066    0.0195 C   0  0  0  0  0  0  0  0  0  0  0  0
    4.0820   -1.2032    0.1153 C   0  0  0  0  0  0  0  0  0  0  0  0
   -3.7128    0.2037    0.1220 C   0  0  0  0  0  0  0  0  0  0  0  0
   -2.5181   -2.2035   -0.6075 C   0  0  0  0  0  0  0  0  0  0  0  0
   -4.5058   -0.8903   -0.2246 C   0  0  0  0  0  0  0  0  0  0  0  0
    6.2092   -1.5965    0.0825 C   0  0  0  0  0  0  0  0  0  0  0  0
   -3.9089   -2.0931   -0.5898 C   0  0  0  0  0  0  0  0  0  0  0  0
   -4.6028    2.2968   -0.5727 C   0  0  0  0  0  0  0  0  0  0  0  0
   -6.5249   -1.1255    1.0098 C   0  0  0  0  0  0  0  0  0  0  0  0
    2.4789    3.2595    0.3696 H   0  0  0  0  0  0  0  0  0  0  0  0
    0.8666    2.1484    1.8952 H   0  0  0  0  0  0  0  0  0  0  0  0
   -0.0079    3.1728    0.7160 H   0  0  0  0  0  0  0  0  0  0  0  0
   -1.8938    2.1407    0.7494 H   0  0  0  0  0  0  0  0  0  0  0  0
    0.1576   -2.1241   -0.5624 H   0  0  0  0  0  0  0  0  0  0  0  0
    4.5990    2.1299   -0.1040 H   0  0  0  0  0  0  0  0  0  0  0  0
    2.2271   -2.2451    0.2367 H   0  0  0  0  0  0  0  0  0  0  0  0
    2.2435    2.5512   -1.9451 H   0  0  0  0  0  0  0  0  0  0  0  0
   -2.0708   -3.1528   -0.8948 H   0  0  0  0  0  0  0  0  0  0  0  0
    6.7935   -1.8473    0.9753 H   0  0  0  0  0  0  0  0  0  0  0  0
    6.7427   -1.9631   -0.8020 H   0  0  0  0  0  0  0  0  0  0  0  0
   -4.5186   -2.9502   -0.8624 H   0  0  0  0  0  0  0  0  0  0  0  0
   -5.3347    1.8769   -1.2699 H   0  0  0  0  0  0  0  0  0  0  0  0
   -3.6893    2.5682   -1.1111 H   0  0  0  0  0  0  0  0  0  0  0  0
   -5.0261    3.2017   -0.1281 H   0  0  0  0  0  0  0  0  0  0  0  0
   -6.3356   -2.1698    1.2779 H   0  0  0  0  0  0  0  0  0  0  0  0
   -7.6003   -0.9911    0.8648 H   0  0  0  0  0  0  0  0  0  0  0  0
   -6.1956   -0.4644    1.8177 H   0  0  0  0  0  0  0  0  0  0  0  0
  1  7  1  0  0  0  0
  1 34  1  0  0  0  0
  2 18  1  0  0  0  0
  2 23  1  0  0  0  0
  3 19  1  0  0  0  0
  3 23  1  0  0  0  0
  4 20  1  0  0  0  0
  4 25  1  0  0  0  0
  5 22  1  0  0  0  0
  5 26  1  0  0  0  0
  6  8  1  0  0  0  0
  6 10  2  0  0  0  0
  6 12  1  0  0  0  0
  7  8  1  0  0  0  0
  7  9  1  0  0  0  0
  7 27  1  0  0  0  0
  8 28  1  0  0  0  0
  8 29  1  0  0  0  0
  9 11  1  0  0  0  0
  9 16  2  0  0  0  0
 10 11  1  0  0  0  0
 10 13  1  0  0  0  0
 11 17  2  0  0  0  0
 12 14  2  0  0  0  0
 12 30  1  0  0  0  0
 13 15  2  0  0  0  0
 13 31  1  0  0  0  0
 14 15  1  0  0  0  0
 14 20  1  0  0  0  0
 15 21  1  0  0  0  0
 16 18  1  0  0  0  0
 16 32  1  0  0  0  0
 17 19  1  0  0  0  0
 17 33  1  0  0  0  0
 18 19  2  0  0  0  0
 20 22  2  0  0  0  0
 21 24  2  0  0  0  0
 21 35  1  0  0  0  0
 22 24  1  0  0  0  0
 23 36  1  0  0  0  0
 23 37  1  0  0  0  0
 24 38  1  0  0  0  0
 25 39  1  0  0  0  0
 25 40  1  0  0  0  0
 25 41  1  0  0  0  0
 26 42  1  0  0  0  0
 26 43  1  0  0  0  0
 26 44  1  0  0  0  0
M  CHG  1   6   1
M  END
> <PUBCHEM_COMPOUND_CID>
442180

> <PUBCHEM_CONFORMER_RMSD>
0.6

> <PUBCHEM_CONFORMER_DIVERSEORDER>
2
3
1
4

> <PUBCHEM_MMFF94_PARTIAL_CHARGES>
30
1 -0.68
10 0.36
12 0.21
13 -0.15
16 -0.15
17 -0.15
18 0.08
19 0.08
2 -0.36
20 0.08
21 -0.15
22 0.08
23 0.56
24 -0.15
25 0.28
26 0.28
3 -0.36
30 0.15
31 0.15
32 0.15
33 0.15
34 0.4
35 0.15
38 0.15
4 -0.36
5 -0.36
6 -0.21
7 0.42
8 0.49
9 -0.14

> <PUBCHEM_EFFECTIVE_ROTOR_COUNT>
3

> <PUBCHEM_PHARMACOPHORE_FEATURES>
11
1 1 acceptor
1 1 donor
1 2 acceptor
1 3 acceptor
1 4 acceptor
1 5 acceptor
5 2 3 18 19 23 rings
6 14 15 20 21 22 24 rings
6 6 10 12 13 14 15 rings
6 6 7 8 9 10 11 rings
6 9 11 16 17 18 19 rings

> <PUBCHEM_HEAVY_ATOM_COUNT>
26

> <PUBCHEM_ATOM_DEF_STEREO_COUNT>
0

> <PUBCHEM_ATOM_UDEF_STEREO_COUNT>
1

> <PUBCHEM_BOND_DEF_STEREO_COUNT>
0

> <PUBCHEM_BOND_UDEF_STEREO_COUNT>
0

> <PUBCHEM_ISOTOPIC_ATOM_COUNT>
0

> <PUBCHEM_COMPONENT_COUNT>
1

> <PUBCHEM_CACTVS_TAUTO_COUNT>
1

> <PUBCHEM_CONFORMER_ID>
0006BF4400000002

> <PUBCHEM_MMFF94_ENERGY>
104.0647

> <PUBCHEM_FEATURE_SELFOVERLAP>
56.056

> <PUBCHEM_SHAPE_FINGERPRINT>
10366900 7 16774081769507604585
11578080 2 16807868528783229027
12107183 9 17905609156949184483
12166972 35 18408038485626570705
12236239 1 18343863346778180394
12403259 226 18263370205148682785
12516196 113 18259988180416582824
13140716 1 18261669290492584913
13167823 11 18410858741520463018
13533116 47 18262519186805168792
13685833 64 18411134731871357690
13862211 1 18261114062837906335
14341114 176 18340203003712648315
15183329 4 18410296916858776071
15196674 1 18408887330325547544
15352361 1 18408605868476474770
15420108 30 17470438999100834896
15788980 27 18412544305814810313
15927050 60 17612034781436559964
16087824 20 18194965377495767869
17349148 13 17676486138126199013
17492 89 18194967335805240639
17844677 252 18411694383374239513
1813 80 17704075101318377796
18681886 176 18261118435299152242
19141452 34 18408323315104172844
200 152 18260832600603419450
20612939 158 18200872881371630756
21033648 29 17096104557206912642
21133410 127 17770514040731820509
21236236 1 18335703875446939257
21267235 1 18408878551681588722
21279426 13 18337955713234751118
21709351 56 18342744022297619213
221490 88 18268707199813061074
23402539 116 18335426798179110286
23522609 53 18120904322821394337
23559900 14 18336836268711214075
25147074 1 18263344967351152472
3004659 81 18342458153975305794
3178227 256 18340756088379853651
335352 9 18336266825231685805
3411729 13 16517103804785184328
34797466 226 17240475876464527764
350125 39 18409728448589868913
4073 2 18130222645522820274
4214541 1 18409168818250437581
46194498 28 17489590009249582612
465052 167 18336259067993371246
5104073 3 18334576832419374856
559249 180 18410015480700444147
6138700 20 18339079401571578754
7226269 152 17531245123279634929
8863177 126 17986380106055223283
9709674 26 18268993072672888891
9981440 41 17331403065077016128
999808 66 18131338705786234035

> <PUBCHEM_SHAPE_MULTIPOLES>
500.74
14.17
2.73
0.8
0.45
0.91
0.03
-6.07
-1.01
-0.06
0.37
0.38
0.16
-0.26

> <PUBCHEM_SHAPE_SELFOVERLAP>
1134.511

> <PUBCHEM_SHAPE_VOLUME>
262.7

> <PUBCHEM_COORDINATE_TYPE>
2
5
10

$$$$

