854234
  -OEChem-06241222472D

 38 41  0     0  0  0  0  0  0999 V2000
    8.2619    0.6020    0.0000 N   0  3  0  0  0  0  0  0  0  0  0  0
    4.6783    1.4067    0.0000 N   0  0  0  0  0  0  0  0  0  0  0  0
    4.6783   -0.2027    0.0000 N   0  0  0  0  0  0  0  0  0  0  0  0
    9.2619    0.6020    0.0000 C   0  0  0  0  0  0  0  0  0  0  0  0
    6.2619    0.6020    0.0000 C   0  0  0  0  0  0  0  0  0  0  0  0
    5.2619    0.6020    0.0000 C   0  0  0  0  0  0  0  0  0  0  0  0
    3.7320    1.1020    0.0000 C   0  0  0  0  0  0  0  0  0  0  0  0
    3.7320    0.1020    0.0000 C   0  0  0  0  0  0  0  0  0  0  0  0
    7.7619    1.4680    0.0000 C   0  0  0  0  0  0  0  0  0  0  0  0
    7.7619   -0.2640    0.0000 C   0  0  0  0  0  0  0  0  0  0  0  0
    6.7619    1.4680    0.0000 C   0  0  0  0  0  0  0  0  0  0  0  0
    6.7619   -0.2640    0.0000 C   0  0  0  0  0  0  0  0  0  0  0  0
    9.7619   -0.2640    0.0000 C   0  0  0  0  0  0  0  0  0  0  0  0
    2.8660    1.6020    0.0000 C   0  0  0  0  0  0  0  0  0  0  0  0
    2.8660   -0.3980    0.0000 C   0  0  0  0  0  0  0  0  0  0  0  0
    9.2619   -1.1300    0.0000 C   0  0  0  0  0  0  0  0  0  0  0  0
   10.7619   -0.2640    0.0000 C   0  0  0  0  0  0  0  0  0  0  0  0
    2.0000    1.1020    0.0000 C   0  0  0  0  0  0  0  0  0  0  0  0
    2.0000    0.1020    0.0000 C   0  0  0  0  0  0  0  0  0  0  0  0
    9.7619   -1.9961    0.0000 C   0  0  0  0  0  0  0  0  0  0  0  0
   11.2619   -1.1300    0.0000 C   0  0  0  0  0  0  0  0  0  0  0  0
   10.7619   -1.9961    0.0000 C   0  0  0  0  0  0  0  0  0  0  0  0
    9.8445    0.8141    0.0000 H   0  0  0  0  0  0  0  0  0  0  0  0
    9.1542    1.2126    0.0000 H   0  0  0  0  0  0  0  0  0  0  0  0
    4.8709    1.9961    0.0000 H   0  0  0  0  0  0  0  0  0  0  0  0
    8.0719    2.0050    0.0000 H   0  0  0  0  0  0  0  0  0  0  0  0
    8.0719   -0.8010    0.0000 H   0  0  0  0  0  0  0  0  0  0  0  0
    6.4519    2.0050    0.0000 H   0  0  0  0  0  0  0  0  0  0  0  0
    6.4519   -0.8010    0.0000 H   0  0  0  0  0  0  0  0  0  0  0  0
    2.8660    2.2220    0.0000 H   0  0  0  0  0  0  0  0  0  0  0  0
    2.8660   -1.0180    0.0000 H   0  0  0  0  0  0  0  0  0  0  0  0
    8.6419   -1.1300    0.0000 H   0  0  0  0  0  0  0  0  0  0  0  0
   11.0719    0.2729    0.0000 H   0  0  0  0  0  0  0  0  0  0  0  0
    1.4631    1.4120    0.0000 H   0  0  0  0  0  0  0  0  0  0  0  0
    1.4631   -0.2080    0.0000 H   0  0  0  0  0  0  0  0  0  0  0  0
    9.4519   -2.5330    0.0000 H   0  0  0  0  0  0  0  0  0  0  0  0
   11.8819   -1.1300    0.0000 H   0  0  0  0  0  0  0  0  0  0  0  0
   11.0719   -2.5330    0.0000 H   0  0  0  0  0  0  0  0  0  0  0  0
  1  4  1  0  0  0  0
  1  9  2  0  0  0  0
  1 10  1  0  0  0  0
  2  6  1  0  0  0  0
  2  7  1  0  0  0  0
  2 25  1  0  0  0  0
  3  6  2  0  0  0  0
  3  8  1  0  0  0  0
  4 13  1  0  0  0  0
  4 23  1  0  0  0  0
  4 24  1  0  0  0  0
  5  6  1  0  0  0  0
  5 11  2  0  0  0  0
  5 12  1  0  0  0  0
  7  8  1  0  0  0  0
  7 14  2  0  0  0  0
  8 15  2  0  0  0  0
  9 11  1  0  0  0  0
  9 26  1  0  0  0  0
 10 12  2  0  0  0  0
 10 27  1  0  0  0  0
 11 28  1  0  0  0  0
 12 29  1  0  0  0  0
 13 16  2  0  0  0  0
 13 17  1  0  0  0  0
 14 18  1  0  0  0  0
 14 30  1  0  0  0  0
 15 19  1  0  0  0  0
 15 31  1  0  0  0  0
 16 20  1  0  0  0  0
 16 32  1  0  0  0  0
 17 21  2  0  0  0  0
 17 33  1  0  0  0  0
 18 19  2  0  0  0  0
 18 34  1  0  0  0  0
 19 35  1  0  0  0  0
 20 22  2  0  0  0  0
 20 36  1  0  0  0  0
 21 22  1  0  0  0  0
 21 37  1  0  0  0  0
 22 38  1  0  0  0  0
M  CHG  1   1   1
M  END
> <PUBCHEM_COMPOUND_CID>
854234

> <PUBCHEM_COMPOUND_CANONICALIZED>
1

> <PUBCHEM_CACTVS_COMPLEXITY>
345

> <PUBCHEM_CACTVS_HBOND_ACCEPTOR>
1

> <PUBCHEM_CACTVS_HBOND_DONOR>
1

> <PUBCHEM_CACTVS_ROTATABLE_BOND>
3

> <PUBCHEM_CACTVS_SUBSKEYS>
AAADceB7AAAAAAAAAAAAAAAAAAAAAWAAAAA8YIAAAAAAAFgB/AAAHAAQAAAADAjBHwQ90LfNkACgAzZnZACCgC2xEqAJ2SA4dJiIaOLAmZGUIAhokALIyCcQgAAOAAAAAAAAACAAAAAAAAAAQAAAAAAAAA==

> <PUBCHEM_IUPAC_OPENEYE_NAME>
2-(1-benzylpyridin-1-ium-4-yl)-1H-benzimidazole

> <PUBCHEM_IUPAC_CAS_NAME>
2-[1-(phenylmethyl)-4-pyridin-1-iumyl]-1H-benzimidazole

> <PUBCHEM_IUPAC_NAME>
2-(1-benzylpyridin-1-ium-4-yl)-1H-benzimidazole

> <PUBCHEM_IUPAC_SYSTEMATIC_NAME>
2-[1-(phenylmethyl)pyridin-1-ium-4-yl]-1H-benzimidazole

> <PUBCHEM_IUPAC_TRADITIONAL_NAME>
2-(1-benzylpyridin-1-ium-4-yl)-1H-benzimidazole

> <PUBCHEM_IUPAC_INCHI>
InChI=1S/C19H15N3/c1-2-6-15(7-3-1)14-22-12-10-16(11-13-22)19-20-17-8-4-5-9-18(17)21-19/h1-13H,14H2/p+1

> <PUBCHEM_IUPAC_INCHIKEY>
KKNQYCKHPHVGFZ-UHFFFAOYSA-O

> <PUBCHEM_XLOGP3>
3.9

> <PUBCHEM_EXACT_MASS>
286.134423

> <PUBCHEM_MOLECULAR_FORMULA>
C19H16N3+

> <PUBCHEM_MOLECULAR_WEIGHT>
286.35044

> <PUBCHEM_OPENEYE_CAN_SMILES>
C1=CC=C(C=C1)C[N+]2=CC=C(C=C2)C3=NC4=CC=CC=C4N3

> <PUBCHEM_OPENEYE_ISO_SMILES>
C1=CC=C(C=C1)C[N+]2=CC=C(C=C2)C3=NC4=CC=CC=C4N3

> <PUBCHEM_CACTVS_TPSA>
32.6

> <PUBCHEM_MONOISOTOPIC_WEIGHT>
286.134423

> <PUBCHEM_TOTAL_CHARGE>
1

> <PUBCHEM_HEAVY_ATOM_COUNT>
22

> <PUBCHEM_ATOM_DEF_STEREO_COUNT>
0

> <PUBCHEM_ATOM_UDEF_STEREO_COUNT>
0

> <PUBCHEM_BOND_DEF_STEREO_COUNT>
0

> <PUBCHEM_BOND_UDEF_STEREO_COUNT>
0

> <PUBCHEM_ISOTOPIC_ATOM_COUNT>
0

> <PUBCHEM_COMPONENT_COUNT>
1

> <PUBCHEM_CACTVS_TAUTO_COUNT>
2

> <PUBCHEM_COORDINATE_TYPE>
1
5
255

> <PUBCHEM_BONDANNOTATIONS>
1  10  8
1  9  8
10  12  8
13  16  8
13  17  8
14  18  8
15  19  8
16  20  8
17  21  8
18  19  8
2  6  8
2  7  8
20  22  8
21  22  8
3  6  8
3  8  8
5  11  8
5  12  8
7  14  8
7  8  8
8  15  8
9  11  8

$$$$

