17396167
  -OEChem-06241222553D

 45 46  0     1  0  0  0  0  0999 V2000
   -0.3359   -1.7208   -0.9367 O   0  0  0  0  0  0  0  0  0  0  0  0
    5.4267    1.4763   -0.4106 O   0  0  0  0  0  0  0  0  0  0  0  0
   -4.8873   -0.8534   -0.1697 O   0  0  0  0  0  0  0  0  0  0  0  0
    1.8345    0.0677    1.3414 N   0  0  0  0  0  0  0  0  0  0  0  0
   -2.2480   -0.9895    0.7969 N   0  0  0  0  0  0  0  0  0  0  0  0
    1.3848   -0.5663    0.2127 C   0  0  0  0  0  0  0  0  0  0  0  0
   -0.9115   -1.0904    1.2936 C   0  0  2  0  0  0  0  0  0  0  0  0
    2.3916   -0.5207   -0.7262 C   0  0  0  0  0  0  0  0  0  0  0  0
    3.4851    0.1643   -0.1412 C   0  0  0  0  0  0  0  0  0  0  0  0
    3.1134    0.5164    1.1374 C   0  0  0  0  0  0  0  0  0  0  0  0
    0.0424   -1.1678    0.1000 C   0  0  0  0  0  0  0  0  0  0  0  0
   -0.7930   -2.3385    2.1569 C   0  0  0  0  0  0  0  0  0  0  0  0
    2.3417   -1.0823   -2.0928 C   0  0  0  0  0  0  0  0  0  0  0  0
    3.8419    1.2384    2.1988 C   0  0  0  0  0  0  0  0  0  0  0  0
    4.7606    0.4596   -0.7307 C   0  0  0  0  0  0  0  0  0  0  0  0
   -2.7982    0.2200    0.3194 C   0  0  0  0  0  0  0  0  0  0  0  0
   -4.1090    0.2653   -0.1553 C   0  0  0  0  0  0  0  0  0  0  0  0
    5.3711   -0.4664   -1.7909 C   0  0  0  0  0  0  0  0  0  0  0  0
   -2.0184    1.3766    0.3260 C   0  0  0  0  0  0  0  0  0  0  0  0
   -4.6400    1.4671   -0.6234 C   0  0  0  0  0  0  0  0  0  0  0  0
   -2.5495    2.5784   -0.1424 C   0  0  0  0  0  0  0  0  0  0  0  0
   -3.8602    2.6237   -0.6171 C   0  0  0  0  0  0  0  0  0  0  0  0
   -4.8430   -1.6578   -1.3463 C   0  0  0  0  0  0  0  0  0  0  0  0
   -0.6841   -0.2419    1.9436 H   0  0  0  0  0  0  0  0  0  0  0  0
    1.3201    0.1837    2.2030 H   0  0  0  0  0  0  0  0  0  0  0  0
   -2.8219   -1.8220    0.7197 H   0  0  0  0  0  0  0  0  0  0  0  0
    0.2185   -2.4369    2.5651 H   0  0  0  0  0  0  0  0  0  0  0  0
   -1.4980   -2.3062    2.9947 H   0  0  0  0  0  0  0  0  0  0  0  0
   -1.0027   -3.2465    1.5795 H   0  0  0  0  0  0  0  0  0  0  0  0
    2.7698   -2.0891   -2.1140 H   0  0  0  0  0  0  0  0  0  0  0  0
    1.3247   -1.1398   -2.4874 H   0  0  0  0  0  0  0  0  0  0  0  0
    2.8803   -0.4514   -2.8046 H   0  0  0  0  0  0  0  0  0  0  0  0
    3.9491    2.2962    1.9378 H   0  0  0  0  0  0  0  0  0  0  0  0
    3.3211    1.1817    3.1605 H   0  0  0  0  0  0  0  0  0  0  0  0
    4.8415    0.8150    2.3404 H   0  0  0  0  0  0  0  0  0  0  0  0
    6.4620   -0.4090   -1.7191 H   0  0  0  0  0  0  0  0  0  0  0  0
    5.0858   -1.5052   -1.6100 H   0  0  0  0  0  0  0  0  0  0  0  0
    5.0678   -0.1428   -2.7883 H   0  0  0  0  0  0  0  0  0  0  0  0
   -0.9935    1.4049    0.6777 H   0  0  0  0  0  0  0  0  0  0  0  0
   -5.6606    1.5104   -0.9940 H   0  0  0  0  0  0  0  0  0  0  0  0
   -1.9426    3.4792   -0.1388 H   0  0  0  0  0  0  0  0  0  0  0  0
   -4.2736    3.5595   -0.9818 H   0  0  0  0  0  0  0  0  0  0  0  0
   -5.2323   -1.1000   -2.2038 H   0  0  0  0  0  0  0  0  0  0  0  0
   -3.8219   -1.9948   -1.5514 H   0  0  0  0  0  0  0  0  0  0  0  0
   -5.4745   -2.5357   -1.1848 H   0  0  0  0  0  0  0  0  0  0  0  0
  1 11  2  0  0  0  0
  2 15  2  0  0  0  0
  3 17  1  0  0  0  0
  3 23  1  0  0  0  0
  4  6  1  0  0  0  0
  4 10  1  0  0  0  0
  4 25  1  0  0  0  0
  5  7  1  0  0  0  0
  5 16  1  0  0  0  0
  5 26  1  0  0  0  0
  6  8  2  0  0  0  0
  6 11  1  0  0  0  0
  7 11  1  0  0  0  0
  7 12  1  0  0  0  0
  7 24  1  0  0  0  0
  8  9  1  0  0  0  0
  8 13  1  0  0  0  0
  9 10  2  0  0  0  0
  9 15  1  0  0  0  0
 10 14  1  0  0  0  0
 12 27  1  0  0  0  0
 12 28  1  0  0  0  0
 12 29  1  0  0  0  0
 13 30  1  0  0  0  0
 13 31  1  0  0  0  0
 13 32  1  0  0  0  0
 14 33  1  0  0  0  0
 14 34  1  0  0  0  0
 14 35  1  0  0  0  0
 15 18  1  0  0  0  0
 16 17  1  0  0  0  0
 16 19  2  0  0  0  0
 17 20  2  0  0  0  0
 18 36  1  0  0  0  0
 18 37  1  0  0  0  0
 18 38  1  0  0  0  0
 19 21  1  0  0  0  0
 19 39  1  0  0  0  0
 20 22  1  0  0  0  0
 20 40  1  0  0  0  0
 21 22  2  0  0  0  0
 21 41  1  0  0  0  0
 22 42  1  0  0  0  0
 23 43  1  0  0  0  0
 23 44  1  0  0  0  0
 23 45  1  0  0  0  0
M  END
> <PUBCHEM_COMPOUND_CID>
17396167

> <PUBCHEM_CONFORMER_RMSD>
1

> <PUBCHEM_CONFORMER_DIVERSEORDER>
1
61
5
50
164
4
166
154
172
58
107
65
124
71
37
114
22
120
38
9
127
26
162
102
146
130
190
53
156
57
160
175
106
46
183
28
168
17
3
47
105
62
100
21
112
182
139
83
20
188
41
72
174
121
99
6
150
118
180
115
137
29
67
98
24
134
108
45
54
193
177
95
126
169
30
186
132
192
159
14
77
161
179
11
171
87
151
136
42
2
66
70
76
187
82
135
178
101
84
34
25
123
163
148
119
149
91
128
103
97
85
96
23
48
90
88
15
141
117
155
173
49
131
31
89
33
55
138
13
110
64
104
12
142
143
27
81
86
43
10
80
7
122
140
68
109
63
59
144
152
167
39
93
147
170
36
189
165
51
116
32
194
153
52
145
184
73
19
125
157
185
181
133
8
75
92
40
158
78
111
113
44
69
74
35
79
191
176
16
129
56
94
60
18

> <PUBCHEM_MMFF94_PARTIAL_CHARGES>
28
1 -0.57
10 -0.33
11 0.59
13 0.18
14 0.18
15 0.6
16 0.1
17 0.08
18 0.06
19 -0.15
2 -0.57
20 -0.15
21 -0.15
22 -0.15
23 0.28
25 0.27
26 0.4
3 -0.36
39 0.15
4 0.03
40 0.15
41 0.15
42 0.15
5 -0.87
6 -0.24
7 0.43
8 -0.18
9 -0.09

> <PUBCHEM_EFFECTIVE_ROTOR_COUNT>
6

> <PUBCHEM_PHARMACOPHORE_FEATURES>
9
1 1 acceptor
1 2 acceptor
1 3 acceptor
1 4 cation
1 4 donor
1 5 cation
1 5 donor
5 4 6 8 9 10 rings
6 16 17 19 20 21 22 rings

> <PUBCHEM_HEAVY_ATOM_COUNT>
23

> <PUBCHEM_ATOM_DEF_STEREO_COUNT>
0

> <PUBCHEM_ATOM_UDEF_STEREO_COUNT>
1

> <PUBCHEM_BOND_DEF_STEREO_COUNT>
0

> <PUBCHEM_BOND_UDEF_STEREO_COUNT>
0

> <PUBCHEM_ISOTOPIC_ATOM_COUNT>
0

> <PUBCHEM_COMPONENT_COUNT>
1

> <PUBCHEM_CACTVS_TAUTO_COUNT>
92

> <PUBCHEM_CONFORMER_ID>
010971C700000001

> <PUBCHEM_MMFF94_ENERGY>
71.705

> <PUBCHEM_FEATURE_SELFOVERLAP>
45.669

> <PUBCHEM_SHAPE_FINGERPRINT>
10366900 7 18411699850798828090
10498660 4 18340769350753592461
10670039 82 18131627920077539084
11089746 13 17917996045095528780
11640471 11 17060328626329114138
12236239 1 16773795883298560114
12403259 415 18041000630712440016
12596602 18 16271919415660195097
12670546 177 17821729424915921031
12788726 201 17058636362075982635
12892183 10 14261350310051903317
13965767 371 16844728780041775908
14251764 30 15574721253382906605
14739800 52 18058178233003651128
15238133 3 18131079255385940712
15961568 22 18267311919742854388
17349148 13 17917994971042461719
18186145 218 17603308171551137651
200 152 15430029967989601210
20645477 70 17168134646991434958
20739085 24 15698002981124867658
21033648 29 18333734606808150408
221357 26 17604149323648085929
22393880 68 18113901597418923678
22950370 63 6266893597657195865
23402539 116 18343304764590182447
235170 7 17822014228729676005
23557571 272 18334851702174174887
23559900 14 18340483478030713166
3268164 11 18411707590857409669
341906 21 18201443592330968728
3633792 109 17131293335958621915
4028521 119 18409448119852513657
46194498 28 18040993986793873380
463206 1 5978105739051167452
474 4 17488742423339324395
5252454 2 17981040035740287473
5924683 9 12391211787606388953
633830 44 18059015124038503243
7808743 9 18131344190148123408
7970288 3 6122490303070429061
9849439 229 17629763633093077813
9981440 41 17846212285044782603

> <PUBCHEM_SHAPE_MULTIPOLES>
445.76
11.79
2.32
1.83
2.46
0.59
0.32
3.79
-4.49
-2.66
0.18
1.8
-0.67
0.96

> <PUBCHEM_SHAPE_SELFOVERLAP>
942.244

> <PUBCHEM_SHAPE_VOLUME>
252.4

> <PUBCHEM_COORDINATE_TYPE>
2
5
10

$$$$

