441763
  -OEChem-07051212563D

 79 84  0     1  0  0  0  0  0999 V2000
    0.2576   -1.0672   -2.4258 O   0  0  0  0  0  0  0  0  0  0  0  0
    2.0194   -2.5999   -0.8939 O   0  0  0  0  0  0  0  0  0  0  0  0
   -0.3118   -2.7265    0.4087 O   0  0  0  0  0  0  0  0  0  0  0  0
    0.2930    3.1065    1.2003 O   0  0  0  0  0  0  0  0  0  0  0  0
    4.3457   -1.8411    0.8099 O   0  0  0  0  0  0  0  0  0  0  0  0
    5.1581    0.4720   -1.0761 O   0  0  0  0  0  0  0  0  0  0  0  0
   -4.8349   -0.2987    0.0655 O   0  0  0  0  0  0  0  0  0  0  0  0
   -6.0025   -2.2678    0.3770 O   0  0  0  0  0  0  0  0  0  0  0  0
   -1.0897    1.3378   -1.3367 N   0  0  2  0  0  0  0  0  0  0  0  0
   -0.0386    0.6659    0.7951 C   0  0  2  0  0  0  0  0  0  0  0  0
   -1.1350   -0.4714    0.8433 C   0  0  2  0  0  0  0  0  0  0  0  0
    0.1241    0.7320   -0.7467 C   0  0  1  0  0  0  0  0  0  0  0  0
    1.3323    0.2276    1.4540 C   0  0  1  0  0  0  0  0  0  0  0  0
    0.4084   -0.7860   -1.0390 C   0  0  2  0  0  0  0  0  0  0  0  0
    2.0048   -1.0557    0.9260 C   0  0  1  0  0  0  0  0  0  0  0  0
    1.8526   -1.1949   -0.6036 C   0  0  1  0  0  0  0  0  0  0  0  0
   -0.6933   -1.5156   -0.2219 C   0  0  1  0  0  0  0  0  0  0  0  0
   -2.5067    0.1273    0.3881 C   0  0  2  0  0  0  0  0  0  0  0  0
   -0.5127    1.9757    1.5248 C   0  0  2  0  0  0  0  0  0  0  0  0
    2.4819    1.2702    1.3810 C   0  0  0  0  0  0  0  0  0  0  0  0
    3.7235    0.5254    0.8681 C   0  0  1  0  0  0  0  0  0  0  0  0
    3.4637   -0.8876    1.3622 C   0  0  2  0  0  0  0  0  0  0  0  0
    2.9715   -0.4790   -1.4116 C   0  0  0  0  0  0  0  0  0  0  0  0
   -2.3613    0.6443   -1.0805 C   0  0  0  0  0  0  0  0  0  0  0  0
   -2.9172    1.2605    1.3491 C   0  0  0  0  0  0  0  0  0  0  0  0
    3.7899    0.5908   -0.6689 C   0  0  2  0  0  0  0  0  0  0  0  0
   -1.9549    2.4214    1.3269 C   0  0  0  0  0  0  0  0  0  0  0  0
   -3.6357   -0.9258    0.4599 C   0  0  0  0  0  0  0  0  0  0  0  0
   -0.9443    1.7158   -2.7357 C   0  0  0  0  0  0  0  0  0  0  0  0
   -1.4428   -3.5137    0.7614 C   0  0  0  0  0  0  0  0  0  0  0  0
   -2.0613    2.6491   -3.1711 C   0  0  0  0  0  0  0  0  0  0  0  0
    0.3466    4.0295    2.2773 C   0  0  0  0  0  0  0  0  0  0  0  0
    5.6089   -1.8414    1.4690 C   0  0  0  0  0  0  0  0  0  0  0  0
    5.3734    1.0949   -2.3307 C   0  0  0  0  0  0  0  0  0  0  0  0
   -5.9602   -1.0852    0.0661 C   0  0  0  0  0  0  0  0  0  0  0  0
   -7.1522   -0.2894   -0.3717 C   0  0  0  0  0  0  0  0  0  0  0  0
   -1.2056   -0.8885    1.8543 H   0  0  0  0  0  0  0  0  0  0  0  0
    0.9779    1.3584   -1.0200 H   0  0  0  0  0  0  0  0  0  0  0  0
    1.1272    0.0567    2.5218 H   0  0  0  0  0  0  0  0  0  0  0  0
    1.6140   -1.9406    1.4387 H   0  0  0  0  0  0  0  0  0  0  0  0
   -1.4904   -1.7877   -0.9170 H   0  0  0  0  0  0  0  0  0  0  0  0
   -0.4100    1.7561    2.5985 H   0  0  0  0  0  0  0  0  0  0  0  0
    2.6735    1.6556    2.3904 H   0  0  0  0  0  0  0  0  0  0  0  0
    2.2772    2.1305    0.7444 H   0  0  0  0  0  0  0  0  0  0  0  0
    4.6363    0.9518    1.2981 H   0  0  0  0  0  0  0  0  0  0  0  0
    3.5102   -0.9316    2.4601 H   0  0  0  0  0  0  0  0  0  0  0  0
    3.6651   -1.2383   -1.8021 H   0  0  0  0  0  0  0  0  0  0  0  0
    2.5541   -0.0244   -2.3192 H   0  0  0  0  0  0  0  0  0  0  0  0
   -2.4981   -0.1759   -1.7950 H   0  0  0  0  0  0  0  0  0  0  0  0
   -3.1977    1.3303   -1.2617 H   0  0  0  0  0  0  0  0  0  0  0  0
   -2.9830    0.8685    2.3731 H   0  0  0  0  0  0  0  0  0  0  0  0
   -3.9123    1.6535    1.1078 H   0  0  0  0  0  0  0  0  0  0  0  0
    3.4358    1.5835   -0.9773 H   0  0  0  0  0  0  0  0  0  0  0  0
   -2.0642    3.0041    0.4043 H   0  0  0  0  0  0  0  0  0  0  0  0
   -2.2490    3.1180    2.1216 H   0  0  0  0  0  0  0  0  0  0  0  0
   -3.4547   -1.7697   -0.2103 H   0  0  0  0  0  0  0  0  0  0  0  0
   -3.7386   -1.3052    1.4839 H   0  0  0  0  0  0  0  0  0  0  0  0
   -0.6859   -1.0751   -2.6510 H   0  0  0  0  0  0  0  0  0  0  0  0
    1.8224   -2.7291   -1.8377 H   0  0  0  0  0  0  0  0  0  0  0  0
   -0.9234    0.8566   -3.4116 H   0  0  0  0  0  0  0  0  0  0  0  0
    0.0016    2.2540   -2.8724 H   0  0  0  0  0  0  0  0  0  0  0  0
   -2.0453   -3.0244    1.5296 H   0  0  0  0  0  0  0  0  0  0  0  0
   -2.0483   -3.7554   -0.1174 H   0  0  0  0  0  0  0  0  0  0  0  0
   -1.0741   -4.4543    1.1812 H   0  0  0  0  0  0  0  0  0  0  0  0
   -3.0183    2.1301   -3.2827 H   0  0  0  0  0  0  0  0  0  0  0  0
   -2.1892    3.4809   -2.4698 H   0  0  0  0  0  0  0  0  0  0  0  0
   -1.8198    3.0800   -4.1491 H   0  0  0  0  0  0  0  0  0  0  0  0
   -0.6224    4.5010    2.4581 H   0  0  0  0  0  0  0  0  0  0  0  0
    0.7178    3.5528    3.1902 H   0  0  0  0  0  0  0  0  0  0  0  0
    1.0515    4.8200    2.0034 H   0  0  0  0  0  0  0  0  0  0  0  0
    6.1094   -0.8749    1.3643 H   0  0  0  0  0  0  0  0  0  0  0  0
    5.4908   -2.0949    2.5270 H   0  0  0  0  0  0  0  0  0  0  0  0
    6.2352   -2.6049    0.9996 H   0  0  0  0  0  0  0  0  0  0  0  0
    5.1683    2.1685   -2.2723 H   0  0  0  0  0  0  0  0  0  0  0  0
    4.7671    0.6364   -3.1173 H   0  0  0  0  0  0  0  0  0  0  0  0
    6.4263    0.9659   -2.5969 H   0  0  0  0  0  0  0  0  0  0  0  0
   -6.9955    0.0823   -1.3873 H   0  0  0  0  0  0  0  0  0  0  0  0
   -8.0385   -0.9301   -0.3672 H   0  0  0  0  0  0  0  0  0  0  0  0
   -7.3173    0.5399    0.3207 H   0  0  0  0  0  0  0  0  0  0  0  0
  1 14  1  0  0  0  0
  1 58  1  0  0  0  0
  2 16  1  0  0  0  0
  2 59  1  0  0  0  0
  3 17  1  0  0  0  0
  3 30  1  0  0  0  0
  4 19  1  0  0  0  0
  4 32  1  0  0  0  0
  5 22  1  0  0  0  0
  5 33  1  0  0  0  0
  6 26  1  0  0  0  0
  6 34  1  0  0  0  0
  7 28  1  0  0  0  0
  7 35  1  0  0  0  0
  8 35  2  0  0  0  0
  9 12  1  0  0  0  0
  9 24  1  0  0  0  0
  9 29  1  0  0  0  0
 10 11  1  0  0  0  0
 10 12  1  0  0  0  0
 10 13  1  0  0  0  0
 10 19  1  0  0  0  0
 11 17  1  0  0  0  0
 11 18  1  0  0  0  0
 11 37  1  0  0  0  0
 12 14  1  0  0  0  0
 12 38  1  0  0  0  0
 13 15  1  0  0  0  0
 13 20  1  0  0  0  0
 13 39  1  0  0  0  0
 14 16  1  0  0  0  0
 14 17  1  0  0  0  0
 15 16  1  0  0  0  0
 15 22  1  0  0  0  0
 15 40  1  0  0  0  0
 16 23  1  0  0  0  0
 17 41  1  0  0  0  0
 18 24  1  0  0  0  0
 18 25  1  0  0  0  0
 18 28  1  0  0  0  0
 19 27  1  0  0  0  0
 19 42  1  0  0  0  0
 20 21  1  0  0  0  0
 20 43  1  0  0  0  0
 20 44  1  0  0  0  0
 21 22  1  0  0  0  0
 21 26  1  0  0  0  0
 21 45  1  0  0  0  0
 22 46  1  0  0  0  0
 23 26  1  0  0  0  0
 23 47  1  0  0  0  0
 23 48  1  0  0  0  0
 24 49  1  0  0  0  0
 24 50  1  0  0  0  0
 25 27  1  0  0  0  0
 25 51  1  0  0  0  0
 25 52  1  0  0  0  0
 26 53  1  0  0  0  0
 27 54  1  0  0  0  0
 27 55  1  0  0  0  0
 28 56  1  0  0  0  0
 28 57  1  0  0  0  0
 29 31  1  0  0  0  0
 29 60  1  0  0  0  0
 29 61  1  0  0  0  0
 30 62  1  0  0  0  0
 30 63  1  0  0  0  0
 30 64  1  0  0  0  0
 31 65  1  0  0  0  0
 31 66  1  0  0  0  0
 31 67  1  0  0  0  0
 32 68  1  0  0  0  0
 32 69  1  0  0  0  0
 32 70  1  0  0  0  0
 33 71  1  0  0  0  0
 33 72  1  0  0  0  0
 33 73  1  0  0  0  0
 34 74  1  0  0  0  0
 34 75  1  0  0  0  0
 34 76  1  0  0  0  0
 35 36  1  0  0  0  0
 36 77  1  0  0  0  0
 36 78  1  0  0  0  0
 36 79  1  0  0  0  0
M  END
> <PUBCHEM_COMPOUND_CID>
441763

> <PUBCHEM_CONFORMER_RMSD>
1

> <PUBCHEM_CONFORMER_DIVERSEORDER>
1
3
2

> <PUBCHEM_MMFF94_PARTIAL_CHARGES>
27
1 -0.68
12 0.27
14 0.28
16 0.28
17 0.28
19 0.28
2 -0.68
22 0.28
24 0.27
26 0.28
28 0.28
29 0.27
3 -0.56
30 0.28
32 0.28
33 0.28
34 0.28
35 0.66
36 0.06
4 -0.56
5 -0.56
58 0.4
59 0.4
6 -0.56
7 -0.43
8 -0.57
9 -0.81

> <PUBCHEM_EFFECTIVE_ROTOR_COUNT>
10

> <PUBCHEM_PHARMACOPHORE_FEATURES>
14
1 1 acceptor
1 1 donor
1 2 acceptor
1 2 donor
1 3 acceptor
1 4 acceptor
1 5 acceptor
1 6 acceptor
1 8 acceptor
1 9 cation
6 10 11 18 19 25 27 rings
8 10 11 12 13 14 15 16 17 rings
8 13 15 16 20 21 22 23 26 rings
8 9 10 11 12 14 17 18 24 rings

> <PUBCHEM_HEAVY_ATOM_COUNT>
36

> <PUBCHEM_ATOM_DEF_STEREO_COUNT>
12

> <PUBCHEM_ATOM_UDEF_STEREO_COUNT>
1

> <PUBCHEM_BOND_DEF_STEREO_COUNT>
0

> <PUBCHEM_BOND_UDEF_STEREO_COUNT>
0

> <PUBCHEM_ISOTOPIC_ATOM_COUNT>
0

> <PUBCHEM_COMPONENT_COUNT>
1

> <PUBCHEM_CACTVS_TAUTO_COUNT>
1

> <PUBCHEM_CONFORMER_ID>
0006BDA300000001

> <PUBCHEM_MMFF94_ENERGY>
188.7395

> <PUBCHEM_FEATURE_SELFOVERLAP>
72.546

> <PUBCHEM_SHAPE_FINGERPRINT>
10366900 7 18186790370686763187
10863032 1 17897152739899863857
11578080 2 18053936531411832829
11963148 33 18259991452702959647
12011746 2 18260822666333579171
12156800 1 16527714121572449480
12166972 35 18202565089764106764
12236239 1 17561083583829384851
12788726 201 18335128817469053592
13140716 1 17751097833346140530
13224815 77 18261674878102715856
13782708 43 18342463668154775027
14787075 74 18410009914607548803
14955137 171 16878219771380565953
15927050 60 17393330905468632753
16945 1 17822305620796324746
20691752 17 18189594177093198211
21033648 29 17983046554651267872
23419403 2 18265921114964039277
23559900 14 18042122064290943395
3633792 109 17846499265942939882
392239 28 18261106409390749955

> <PUBCHEM_SHAPE_MULTIPOLES>
688.93
10.67
3.36
2.4
7.03
0.73
1.38
-4.92
0.76
0.72
-1.11
-0.96
2.11
-0.14

> <PUBCHEM_SHAPE_SELFOVERLAP>
1493.575

> <PUBCHEM_SHAPE_VOLUME>
371.8

> <PUBCHEM_COORDINATE_TYPE>
2
5
10

$$$$

