115084
  -OEChem-07051213142D

 21 21  0     0  0  0  0  0  0999 V2000
    2.0000    0.5000    0.0000 O   0  0  0  0  0  0  0  0  0  0  0  0
    4.5981    3.0000    0.0000 O   0  0  0  0  0  0  0  0  0  0  0  0
    3.7320   -2.5000    0.0000 N   0  0  0  0  0  0  0  0  0  0  0  0
    3.7320    0.5000    0.0000 C   0  0  0  0  0  0  0  0  0  0  0  0
    3.7320    1.5000    0.0000 C   0  0  0  0  0  0  0  0  0  0  0  0
    2.8660    0.0000    0.0000 C   0  0  0  0  0  0  0  0  0  0  0  0
    2.8660   -1.0000    0.0000 C   0  0  0  0  0  0  0  0  0  0  0  0
    2.0000   -1.5000    0.0000 C   0  0  0  0  0  0  0  0  0  0  0  0
    3.7320   -1.5000    0.0000 C   0  0  0  0  0  0  0  0  0  0  0  0
    4.5981    2.0000    0.0000 C   0  0  0  0  0  0  0  0  0  0  0  0
    2.0000   -2.5000    0.0000 C   0  0  0  0  0  0  0  0  0  0  0  0
    2.8660   -3.0000    0.0000 C   0  0  0  0  0  0  0  0  0  0  0  0
    3.9441   -0.0826    0.0000 H   0  0  0  0  0  0  0  0  0  0  0  0
    4.3426    0.6077    0.0000 H   0  0  0  0  0  0  0  0  0  0  0  0
    3.5200    2.0826    0.0000 H   0  0  0  0  0  0  0  0  0  0  0  0
    3.1215    1.3923    0.0000 H   0  0  0  0  0  0  0  0  0  0  0  0
    1.4631   -1.1900    0.0000 H   0  0  0  0  0  0  0  0  0  0  0  0
    4.2690   -1.1900    0.0000 H   0  0  0  0  0  0  0  0  0  0  0  0
    5.1350    1.6900    0.0000 H   0  0  0  0  0  0  0  0  0  0  0  0
    1.4631   -2.8100    0.0000 H   0  0  0  0  0  0  0  0  0  0  0  0
    2.8660   -3.6200    0.0000 H   0  0  0  0  0  0  0  0  0  0  0  0
  1  6  2  0  0  0  0
  2 10  2  0  0  0  0
  3  9  1  0  0  0  0
  3 12  2  0  0  0  0
  4  5  1  0  0  0  0
  4  6  1  0  0  0  0
  4 13  1  0  0  0  0
  4 14  1  0  0  0  0
  5 10  1  0  0  0  0
  5 15  1  0  0  0  0
  5 16  1  0  0  0  0
  6  7  1  0  0  0  0
  7  8  1  0  0  0  0
  7  9  2  0  0  0  0
  8 11  2  0  0  0  0
  8 17  1  0  0  0  0
  9 18  1  0  0  0  0
 10 19  1  0  0  0  0
 11 12  1  0  0  0  0
 11 20  1  0  0  0  0
 12 21  1  0  0  0  0
M  END
> <PUBCHEM_COMPOUND_CID>
115084

> <PUBCHEM_COMPOUND_CANONICALIZED>
1

> <PUBCHEM_CACTVS_COMPLEXITY>
168

> <PUBCHEM_CACTVS_HBOND_ACCEPTOR>
3

> <PUBCHEM_CACTVS_HBOND_DONOR>
0

> <PUBCHEM_CACTVS_ROTATABLE_BOND>
4

> <PUBCHEM_CACTVS_SUBSKEYS>
AAADccByMAAAAAAAAAAAAAAAAAAAAAAAAAAsAAAAAAAAAAABgAAAHgAAAAAADAThmgY8gJIIEACoArh3xACCgCA1AiAI2CE4ZNgIIPrAlZGEIYhggADIyccZiYCOAAAAAAAAAAAAAAAAAAAAAAAAAAAAAA==

> <PUBCHEM_IUPAC_OPENEYE_NAME>
4-oxo-4-(3-pyridyl)butanal

> <PUBCHEM_IUPAC_CAS_NAME>
4-oxo-4-(3-pyridinyl)butanal

> <PUBCHEM_IUPAC_NAME>
4-oxo-4-pyridin-3-ylbutanal

> <PUBCHEM_IUPAC_SYSTEMATIC_NAME>
4-oxidanylidene-4-pyridin-3-yl-butanal

> <PUBCHEM_IUPAC_TRADITIONAL_NAME>
4-keto-4-(3-pyridyl)butyraldehyde

> <PUBCHEM_IUPAC_INCHI>
InChI=1S/C9H9NO2/c11-6-2-4-9(12)8-3-1-5-10-7-8/h1,3,5-7H,2,4H2

> <PUBCHEM_IUPAC_INCHIKEY>
CFONOJVUTZAMCB-UHFFFAOYSA-N

> <PUBCHEM_XLOGP3>
-0.2

> <PUBCHEM_EXACT_MASS>
163.063329

> <PUBCHEM_MOLECULAR_FORMULA>
C9H9NO2

> <PUBCHEM_MOLECULAR_WEIGHT>
163.17326

> <PUBCHEM_OPENEYE_CAN_SMILES>
C1=CC(=CN=C1)C(=O)CCC=O

> <PUBCHEM_OPENEYE_ISO_SMILES>
C1=CC(=CN=C1)C(=O)CCC=O

> <PUBCHEM_CACTVS_TPSA>
47

> <PUBCHEM_MONOISOTOPIC_WEIGHT>
163.063329

> <PUBCHEM_TOTAL_CHARGE>
0

> <PUBCHEM_HEAVY_ATOM_COUNT>
12

> <PUBCHEM_ATOM_DEF_STEREO_COUNT>
0

> <PUBCHEM_ATOM_UDEF_STEREO_COUNT>
0

> <PUBCHEM_BOND_DEF_STEREO_COUNT>
0

> <PUBCHEM_BOND_UDEF_STEREO_COUNT>
0

> <PUBCHEM_ISOTOPIC_ATOM_COUNT>
0

> <PUBCHEM_COMPONENT_COUNT>
1

> <PUBCHEM_CACTVS_TAUTO_COUNT>
4

> <PUBCHEM_COORDINATE_TYPE>
1
5
255

> <PUBCHEM_BONDANNOTATIONS>
11  12  8
3  12  8
3  9  8
7  8  8
7  9  8
8  11  8

$$$$

