4053
  -OEChem-06251223503D

 37 37  0     1  0  0  0  0  0999 V2000
    4.1840   -3.6966   -0.2067 Cl  0  0  0  0  0  0  0  0  0  0  0  0
    4.2245    3.6223   -0.6556 Cl  0  0  0  0  0  0  0  0  0  0  0  0
   -3.3776    0.3445   -2.1667 O   0  0  0  0  0  0  0  0  0  0  0  0
   -4.0341   -1.5115   -1.0400 O   0  0  0  0  0  0  0  0  0  0  0  0
    2.5638   -0.0026   -0.0131 N   0  0  0  0  0  0  0  0  0  0  0  0
   -5.2524    0.6054    0.5810 N   0  0  0  0  0  0  0  0  0  0  0  0
    1.1931    0.0254    0.3186 C   0  0  0  0  0  0  0  0  0  0  0  0
   -2.9676    0.1114    1.3230 C   0  0  0  0  0  0  0  0  0  0  0  0
   -1.4988    0.0812    0.9683 C   0  0  0  0  0  0  0  0  0  0  0  0
    3.1557   -1.1942   -0.5874 C   0  0  0  0  0  0  0  0  0  0  0  0
    3.3950    1.1649    0.2033 C   0  0  0  0  0  0  0  0  0  0  0  0
   -3.8519    0.5978    0.1643 C   0  0  1  0  0  0  0  0  0  0  0  0
    0.6325    1.1774    0.8702 C   0  0  0  0  0  0  0  0  0  0  0  0
    0.3979   -1.0984    0.0942 C   0  0  0  0  0  0  0  0  0  0  0  0
   -0.7231    1.2056    1.1975 C   0  0  0  0  0  0  0  0  0  0  0  0
   -0.9578   -1.0704    0.4214 C   0  0  0  0  0  0  0  0  0  0  0  0
    3.4654   -2.2226    0.4890 C   0  0  0  0  0  0  0  0  0  0  0  0
    3.2150    2.1778   -0.9164 C   0  0  0  0  0  0  0  0  0  0  0  0
   -3.7635   -0.3173   -1.0450 C   0  0  0  0  0  0  0  0  0  0  0  0
   -3.2721   -0.8941    1.6461 H   0  0  0  0  0  0  0  0  0  0  0  0
   -3.1107    0.7557    2.2013 H   0  0  0  0  0  0  0  0  0  0  0  0
    4.0957   -0.9271   -1.0899 H   0  0  0  0  0  0  0  0  0  0  0  0
    2.5383   -1.6111   -1.3926 H   0  0  0  0  0  0  0  0  0  0  0  0
    4.4503    0.8593    0.2259 H   0  0  0  0  0  0  0  0  0  0  0  0
    3.2309    1.6080    1.1932 H   0  0  0  0  0  0  0  0  0  0  0  0
   -3.5632    1.6127   -0.1328 H   0  0  0  0  0  0  0  0  0  0  0  0
    1.1944    2.0824    1.0719 H   0  0  0  0  0  0  0  0  0  0  0  0
    0.7702   -2.0227   -0.3333 H   0  0  0  0  0  0  0  0  0  0  0  0
   -1.1524    2.1071    1.6252 H   0  0  0  0  0  0  0  0  0  0  0  0
   -1.5645   -1.9544    0.2491 H   0  0  0  0  0  0  0  0  0  0  0  0
    4.1841   -1.8202    1.2107 H   0  0  0  0  0  0  0  0  0  0  0  0
    2.5798   -2.5320    1.0496 H   0  0  0  0  0  0  0  0  0  0  0  0
    2.1826    2.5223   -1.0150 H   0  0  0  0  0  0  0  0  0  0  0  0
    3.5085    1.7454   -1.8787 H   0  0  0  0  0  0  0  0  0  0  0  0
   -5.5211   -0.3206    0.9132 H   0  0  0  0  0  0  0  0  0  0  0  0
   -5.3660    1.2291    1.3795 H   0  0  0  0  0  0  0  0  0  0  0  0
   -3.3358   -0.2503   -2.9456 H   0  0  0  0  0  0  0  0  0  0  0  0
  1 17  1  0  0  0  0
  2 18  1  0  0  0  0
  3 19  1  0  0  0  0
  3 37  1  0  0  0  0
  4 19  2  0  0  0  0
  5  7  1  0  0  0  0
  5 10  1  0  0  0  0
  5 11  1  0  0  0  0
  6 12  1  0  0  0  0
  6 35  1  0  0  0  0
  6 36  1  0  0  0  0
  7 13  2  0  0  0  0
  7 14  1  0  0  0  0
  8  9  1  0  0  0  0
  8 12  1  0  0  0  0
  8 20  1  0  0  0  0
  8 21  1  0  0  0  0
  9 15  2  0  0  0  0
  9 16  1  0  0  0  0
 10 17  1  0  0  0  0
 10 22  1  0  0  0  0
 10 23  1  0  0  0  0
 11 18  1  0  0  0  0
 11 24  1  0  0  0  0
 11 25  1  0  0  0  0
 12 19  1  0  0  0  0
 12 26  1  0  0  0  0
 13 15  1  0  0  0  0
 13 27  1  0  0  0  0
 14 16  2  0  0  0  0
 14 28  1  0  0  0  0
 15 29  1  0  0  0  0
 16 30  1  0  0  0  0
 17 31  1  0  0  0  0
 17 32  1  0  0  0  0
 18 33  1  0  0  0  0
 18 34  1  0  0  0  0
M  END
> <PUBCHEM_COMPOUND_CID>
4053

> <PUBCHEM_CONFORMER_RMSD>
0.8

> <PUBCHEM_CONFORMER_DIVERSEORDER>
2
132
65
153
74
104
42
78
167
7
79
125
169
18
90
138
118
94
161
45
141
155
154
25
81
173
181
73
82
37
111
28
131
12
166
172
85
128
156
53
56
137
170
157
158
101
95
129
108
91
174
87
120
40
84
24
178
126
100
48
149
77
14
54
10
36
33
80
83
184
134
66
70
115
127
140
116
60
179
47
93
114
71
176
175
98
15
22
39
29
46
185
171
117
145
57
4
92
62
72
139
31
27
16
76
67
130
133
97
68
135
106
89
177
21
75
59
159
123
64
121
168
151
5
147
88
30
165
44
112
99
41
150
162
13
119
8
9
122
86
50
180
3
105
109
152
183
103
124
61
142
49
51
148
96
38
58
35
52
163
164
34
32
143
160
43
63
136
102
107
17
110
69
20
26
55
19
182
146
1
113
11
23
6
144

> <PUBCHEM_MMFF94_PARTIAL_CHARGES>
26
1 -0.29
10 0.37
11 0.37
12 0.33
13 -0.15
14 -0.15
15 -0.15
16 -0.15
17 0.29
18 0.29
19 0.66
2 -0.29
27 0.15
28 0.15
29 0.15
3 -0.65
30 0.15
35 0.36
36 0.36
37 0.5
4 -0.57
5 -0.84
6 -0.99
7 0.1
8 0.14
9 -0.14

> <PUBCHEM_EFFECTIVE_ROTOR_COUNT>
8

> <PUBCHEM_PHARMACOPHORE_FEATURES>
7
1 3 acceptor
1 4 acceptor
1 5 cation
1 6 cation
1 6 donor
3 3 4 19 anion
6 7 9 13 14 15 16 rings

> <PUBCHEM_HEAVY_ATOM_COUNT>
19

> <PUBCHEM_ATOM_DEF_STEREO_COUNT>
0

> <PUBCHEM_ATOM_UDEF_STEREO_COUNT>
1

> <PUBCHEM_BOND_DEF_STEREO_COUNT>
0

> <PUBCHEM_BOND_UDEF_STEREO_COUNT>
0

> <PUBCHEM_ISOTOPIC_ATOM_COUNT>
0

> <PUBCHEM_COMPONENT_COUNT>
1

> <PUBCHEM_CACTVS_TAUTO_COUNT>
1

> <PUBCHEM_CONFORMER_ID>
00000FD500000002

> <PUBCHEM_MMFF94_ENERGY>
50.1141

> <PUBCHEM_FEATURE_SELFOVERLAP>
35.579

> <PUBCHEM_SHAPE_FINGERPRINT>
10062212 137 17822579399323841079
10759866 29 18262521377444315806
11315621 136 18260543399281997278
12616971 3 18261110815916334251
12670546 177 18269562632817998445
13583140 156 17274829004081203432
13675066 3 14548470097602157313
13760787 5 18335415785930358281
15842332 3 17896578735085796976
17539 30 17476641349115281334
1813 80 18046614875103410878
18186145 218 17703788141262027267
19784866 34 18193834847682167208
200 152 18189620608084852938
20281475 54 18259708904146720491
20369508 70 18059858428282845266
20645477 56 17704067361496964913
20645477 70 18342734143851895242
20671657 53 18196086862212250458
21054139 6 18043537114423459950
2255824 54 18409721885832556290
23114952 82 18343026570820981444
23402539 116 18115876384816706218
23402655 69 18186232927240241297
23557571 272 16988266582889748761
23559900 14 18411979166029721450
25147074 1 18042105708976690512
268830 7 18341890809790709057
3004659 81 18040712605900040447
312423 11 18188755258247803568
312425 83 18199774525390459165
5281201 14 18202565115660647909
633830 44 18272933847264503473
7364860 26 18338222835332714978
7615 1 18041552637305423712
9981440 41 18123467173225271040

> <PUBCHEM_SHAPE_MULTIPOLES>
373.05
10.03
3.32
1.3
5.34
0.2
-0.36
0.08
-2.44
-8.05
-0.69
1.29
-0.21
-1.04

> <PUBCHEM_SHAPE_SELFOVERLAP>
734.609

> <PUBCHEM_SHAPE_VOLUME>
224.8

> <PUBCHEM_COORDINATE_TYPE>
2
5
10

$$$$

