439726
  -OEChem-07051212473D

 43 46  0     1  0  0  0  0  0999 V2000
    5.5745   -0.1345    0.0730 O   0  0  0  0  0  0  0  0  0  0  0  0
   -2.9266   -0.0692    0.6757 C   0  0  2  0  0  0  0  0  0  0  0  0
   -2.3416    0.6872   -0.5370 C   0  0  1  0  0  0  0  0  0  0  0  0
   -0.8021    0.7742   -0.6223 C   0  0  2  0  0  0  0  0  0  0  0  0
   -0.0928   -0.5565   -0.2691 C   0  0  2  0  0  0  0  0  0  0  0  0
   -2.1633   -1.3807    0.9500 C   0  0  0  0  0  0  0  0  0  0  0  0
   -4.3643   -0.3609    0.2010 C   0  0  0  0  0  0  0  0  0  0  0  0
   -2.9365   -0.0523   -1.7526 C   0  0  0  0  0  0  0  0  0  0  0  0
   -0.6501   -1.1855    1.0215 C   0  0  0  0  0  0  0  0  0  0  0  0
   -4.2578   -0.6588   -1.2895 C   0  0  0  0  0  0  0  0  0  0  0  0
   -0.2376    1.9194    0.2325 C   0  0  0  0  0  0  0  0  0  0  0  0
   -2.9941    0.7835    1.9513 C   0  0  0  0  0  0  0  0  0  0  0  0
    1.4191   -0.4088   -0.1806 C   0  0  0  0  0  0  0  0  0  0  0  0
    1.2440    2.1286   -0.0687 C   0  0  0  0  0  0  0  0  0  0  0  0
    2.0377    0.8487   -0.0540 C   0  0  0  0  0  0  0  0  0  0  0  0
    2.2229   -1.5622   -0.2178 C   0  0  0  0  0  0  0  0  0  0  0  0
    3.4377    0.9266    0.0239 C   0  0  0  0  0  0  0  0  0  0  0  0
    3.6117   -1.4718   -0.1294 C   0  0  0  0  0  0  0  0  0  0  0  0
    4.2192   -0.2270   -0.0078 C   0  0  0  0  0  0  0  0  0  0  0  0
   -2.7540    1.7065   -0.5579 H   0  0  0  0  0  0  0  0  0  0  0  0
   -0.5515    1.0198   -1.6659 H   0  0  0  0  0  0  0  0  0  0  0  0
   -0.2903   -1.2551   -1.0943 H   0  0  0  0  0  0  0  0  0  0  0  0
   -2.3744   -2.1210    0.1678 H   0  0  0  0  0  0  0  0  0  0  0  0
   -2.5146   -1.8306    1.8873 H   0  0  0  0  0  0  0  0  0  0  0  0
   -5.0023    0.5220    0.3378 H   0  0  0  0  0  0  0  0  0  0  0  0
   -4.8326   -1.1868    0.7473 H   0  0  0  0  0  0  0  0  0  0  0  0
   -2.2789   -0.8498   -2.1146 H   0  0  0  0  0  0  0  0  0  0  0  0
   -3.0885    0.6370   -2.5906 H   0  0  0  0  0  0  0  0  0  0  0  0
   -0.3853   -0.5781    1.8949 H   0  0  0  0  0  0  0  0  0  0  0  0
   -0.1886   -2.1663    1.1928 H   0  0  0  0  0  0  0  0  0  0  0  0
   -5.1085   -0.2389   -1.8362 H   0  0  0  0  0  0  0  0  0  0  0  0
   -4.2585   -1.7399   -1.4694 H   0  0  0  0  0  0  0  0  0  0  0  0
   -0.3518    1.7091    1.2994 H   0  0  0  0  0  0  0  0  0  0  0  0
   -0.7763    2.8531    0.0322 H   0  0  0  0  0  0  0  0  0  0  0  0
   -3.6069    0.2884    2.7138 H   0  0  0  0  0  0  0  0  0  0  0  0
   -2.0129    0.9568    2.3967 H   0  0  0  0  0  0  0  0  0  0  0  0
   -3.4454    1.7621    1.7529 H   0  0  0  0  0  0  0  0  0  0  0  0
    1.6550    2.8316    0.6658 H   0  0  0  0  0  0  0  0  0  0  0  0
    1.3523    2.5863   -1.0601 H   0  0  0  0  0  0  0  0  0  0  0  0
    1.7665   -2.5442   -0.3187 H   0  0  0  0  0  0  0  0  0  0  0  0
    3.9218    1.8976    0.1061 H   0  0  0  0  0  0  0  0  0  0  0  0
    4.2064   -2.3808   -0.1597 H   0  0  0  0  0  0  0  0  0  0  0  0
    5.9544   -1.0291    0.0341 H   0  0  0  0  0  0  0  0  0  0  0  0
  1 19  1  0  0  0  0
  1 43  1  0  0  0  0
  2  3  1  0  0  0  0
  2  6  1  0  0  0  0
  2  7  1  0  0  0  0
  2 12  1  0  0  0  0
  3  4  1  0  0  0  0
  3  8  1  0  0  0  0
  3 20  1  0  0  0  0
  4  5  1  0  0  0  0
  4 11  1  0  0  0  0
  4 21  1  0  0  0  0
  5  9  1  0  0  0  0
  5 13  1  0  0  0  0
  5 22  1  0  0  0  0
  6  9  1  0  0  0  0
  6 23  1  0  0  0  0
  6 24  1  0  0  0  0
  7 10  1  0  0  0  0
  7 25  1  0  0  0  0
  7 26  1  0  0  0  0
  8 10  1  0  0  0  0
  8 27  1  0  0  0  0
  8 28  1  0  0  0  0
  9 29  1  0  0  0  0
  9 30  1  0  0  0  0
 10 31  1  0  0  0  0
 10 32  1  0  0  0  0
 11 14  1  0  0  0  0
 11 33  1  0  0  0  0
 11 34  1  0  0  0  0
 12 35  1  0  0  0  0
 12 36  1  0  0  0  0
 12 37  1  0  0  0  0
 13 15  2  0  0  0  0
 13 16  1  0  0  0  0
 14 15  1  0  0  0  0
 14 38  1  0  0  0  0
 14 39  1  0  0  0  0
 15 17  1  0  0  0  0
 16 18  2  0  0  0  0
 16 40  1  0  0  0  0
 17 19  2  0  0  0  0
 17 41  1  0  0  0  0
 18 19  1  0  0  0  0
 18 42  1  0  0  0  0
M  END
> <PUBCHEM_COMPOUND_CID>
439726

> <PUBCHEM_CONFORMER_RMSD>
0.6

> <PUBCHEM_CONFORMER_DIVERSEORDER>
4
9
8
7
16
17
10
1
14
13
12
5
15
2
3
6
11

> <PUBCHEM_MMFF94_PARTIAL_CHARGES>
13
1 -0.53
13 -0.14
14 0.14
15 -0.14
16 -0.15
17 -0.15
18 -0.15
19 0.08
40 0.15
41 0.15
42 0.15
43 0.45
5 0.14

> <PUBCHEM_EFFECTIVE_ROTOR_COUNT>
1.4

> <PUBCHEM_PHARMACOPHORE_FEATURES>
5
1 1 donor
5 2 3 7 8 10 rings
6 13 15 16 17 18 19 rings
6 2 3 4 5 6 9 rings
6 4 5 11 13 14 15 rings

> <PUBCHEM_HEAVY_ATOM_COUNT>
19

> <PUBCHEM_ATOM_DEF_STEREO_COUNT>
0

> <PUBCHEM_ATOM_UDEF_STEREO_COUNT>
4

> <PUBCHEM_BOND_DEF_STEREO_COUNT>
0

> <PUBCHEM_BOND_UDEF_STEREO_COUNT>
0

> <PUBCHEM_ISOTOPIC_ATOM_COUNT>
0

> <PUBCHEM_COMPONENT_COUNT>
1

> <PUBCHEM_CACTVS_TAUTO_COUNT>
9

> <PUBCHEM_CONFORMER_ID>
0006B5AE00000004

> <PUBCHEM_MMFF94_ENERGY>
58.9085

> <PUBCHEM_FEATURE_SELFOVERLAP>
25.598

> <PUBCHEM_SHAPE_FINGERPRINT>
10062212 137 17967812752112299833
10366900 7 18408604756143034642
11132069 177 18271808990897524506
11471102 20 18411983533773876412
11578080 2 12749567803764386223
11615757 297 18260550013003306228
11796584 16 16487263200856556298
12011746 2 18343867714242916966
12186901 62 16200439074201295133
12236239 1 17530684303181222063
12403259 415 17846225427723965509
124424 183 18131070415794229242
12553582 1 18339909485605649516
12670546 56 17240488000270844928
13140716 1 18267019449706914152
13224815 77 18333449871924582630
13544653 18 18341610455836943892
13583140 156 16415479337594789744
13760787 5 18413101745562866684
13862211 1 18410300229027848822
14115302 16 17774994674719229830
14289901 80 16443342083134171594
14386348 63 18202562878019564106
15196674 1 18339360876626903988
15309172 13 18186800292092787406
15375358 24 18273500057050629322
15653759 3 17275101713061174449
15848700 24 18409735058227961532
15848702 151 17967807292850417558
16945 1 18342450426606642261
17349148 13 18410582777208060034
17357779 13 18271818929293975581
1813 80 18263347205150231956
18186145 218 17989207074607900215
200 152 18186806867951286095
20201158 50 18342457040914215898
20279233 1 18060418018996665230
20645476 183 14692574308295076929
20645477 70 18343586209396587980
21029758 11 18410860966345203317
21267235 1 18410003343307495022
22094290 60 15554725568905493573
23175994 123 18272083907211514244
23184049 59 18260824904106492518
23402539 116 18336551598421311780
23493267 7 15769780177932784097
23557571 272 14634857665576550411
23559900 14 18202284663529861416
26918003 58 18273496775563739986
2748010 2 17981321192741107940
296302 2 18113614599277540458
3286 77 17458354017533082984
4175511 318 15769781273165340511
5104073 3 18265055902518107354
69090 78 18413110541492533723
77492 1 17603301531742694325
8809292 202 18059850619478205170
9709674 26 18339356478596581014

> <PUBCHEM_SHAPE_MULTIPOLES>
385.14
8.73
1.71
1.25
4.63
0.39
0.09
-1.75
-0.6
0.72
0.16
-1.71
-0.02
-0.1

> <PUBCHEM_SHAPE_SELFOVERLAP>
838.915

> <PUBCHEM_SHAPE_VOLUME>
209.2

> <PUBCHEM_COORDINATE_TYPE>
2
5
10

$$$$

