5282330
  -OEChem-07051213043D

 58 66  0     0  0  0  0  0  0999 V2000
   -1.9474   -0.1974    0.2363 N   0  0  0  0  0  0  0  0  0  0  0  0
   -0.0659   -2.6175    0.8530 N   0  0  0  0  0  0  0  0  0  0  0  0
   -2.4271   -2.5985    0.4817 N   0  0  0  0  0  0  0  0  0  0  0  0
   -2.2445    2.2374    0.3405 N   0  0  0  0  0  0  0  0  0  0  0  0
    2.3097   -2.5646    0.7447 N   0  0  0  0  0  0  0  0  0  0  0  0
    0.0872    1.7628    0.1408 N   0  0  0  0  0  0  0  0  0  0  0  0
    1.9923   -0.3255   -0.0814 N   0  0  0  0  0  0  0  0  0  0  0  0
    2.3916    1.9927   -0.4813 N   0  0  0  0  0  0  0  0  0  0  0  0
   -4.0008   -0.8057    0.9563 C   0  0  0  0  0  0  0  0  0  0  0  0
   -0.6748   -3.5475   -1.0464 C   0  0  0  0  0  0  0  0  0  0  0  0
   -3.9487    0.6015    0.9125 C   0  0  0  0  0  0  0  0  0  0  0  0
    0.7510   -3.5352   -0.9725 C   0  0  0  0  0  0  0  0  0  0  0  0
   -2.6880   -1.3331    0.5250 C   0  0  0  0  0  0  0  0  0  0  0  0
   -1.1721   -2.9166    0.0716 C   0  0  0  0  0  0  0  0  0  0  0  0
   -2.6007    1.0024    0.4565 C   0  0  0  0  0  0  0  0  0  0  0  0
    1.1174   -2.8993    0.1919 C   0  0  0  0  0  0  0  0  0  0  0  0
   -0.6469    3.7458   -0.7438 C   0  0  0  0  0  0  0  0  0  0  0  0
    3.9148   -0.7776    1.1326 C   0  0  0  0  0  0  0  0  0  0  0  0
    0.7169    3.6867   -0.9798 C   0  0  0  0  0  0  0  0  0  0  0  0
    3.9242    0.5619    0.7820 C   0  0  0  0  0  0  0  0  0  0  0  0
   -0.9636    2.5084   -0.0530 C   0  0  0  0  0  0  0  0  0  0  0  0
    2.6781   -1.3321    0.5924 C   0  0  0  0  0  0  0  0  0  0  0  0
    1.1708    2.4149   -0.4286 C   0  0  0  0  0  0  0  0  0  0  0  0
    2.6933    0.7664    0.0393 C   0  0  0  0  0  0  0  0  0  0  0  0
   -5.1379   -1.4777    1.3529 C   0  0  0  0  0  0  0  0  0  0  0  0
   -1.4191   -4.0692   -2.0992 C   0  0  0  0  0  0  0  0  0  0  0  0
   -5.0318    1.3791    1.2645 C   0  0  0  0  0  0  0  0  0  0  0  0
    1.6098   -4.0441   -1.9409 C   0  0  0  0  0  0  0  0  0  0  0  0
   -6.2435   -0.7003    1.7114 C   0  0  0  0  0  0  0  0  0  0  0  0
   -0.5651   -4.6018   -3.0918 C   0  0  0  0  0  0  0  0  0  0  0  0
   -6.1911    0.7095    1.6676 C   0  0  0  0  0  0  0  0  0  0  0  0
    0.8729   -4.5899   -3.0166 C   0  0  0  0  0  0  0  0  0  0  0  0
   -1.4166    4.8170   -1.1399 C   0  0  0  0  0  0  0  0  0  0  0  0
    4.9363   -1.3504    1.8588 C   0  0  0  0  0  0  0  0  0  0  0  0
    1.3913    4.6981   -1.6284 C   0  0  0  0  0  0  0  0  0  0  0  0
    4.9531    1.4076    1.1333 C   0  0  0  0  0  0  0  0  0  0  0  0
   -0.7554    5.8574   -1.7991 C   0  0  0  0  0  0  0  0  0  0  0  0
    5.9943   -0.5146    2.2286 C   0  0  0  0  0  0  0  0  0  0  0  0
    0.6340    5.7987   -2.0408 C   0  0  0  0  0  0  0  0  0  0  0  0
    6.0026    0.8503    1.8695 C   0  0  0  0  0  0  0  0  0  0  0  0
   -0.9902   -0.2356   -0.0957 H   0  0  0  0  0  0  0  0  0  0  0  0
   -0.1160   -2.1516    1.7475 H   0  0  0  0  0  0  0  0  0  0  0  0
   -5.1846   -2.5596    1.3892 H   0  0  0  0  0  0  0  0  0  0  0  0
   -2.4968   -4.0771   -2.1769 H   0  0  0  0  0  0  0  0  0  0  0  0
   -4.9978    2.4617    1.2344 H   0  0  0  0  0  0  0  0  0  0  0  0
    2.6896   -4.0342   -1.9055 H   0  0  0  0  0  0  0  0  0  0  0  0
   -7.1612   -1.1881    2.0302 H   0  0  0  0  0  0  0  0  0  0  0  0
   -1.0208   -5.0471   -3.9764 H   0  0  0  0  0  0  0  0  0  0  0  0
   -7.0694    1.2827    1.9538 H   0  0  0  0  0  0  0  0  0  0  0  0
    1.4256   -5.0270   -3.8483 H   0  0  0  0  0  0  0  0  0  0  0  0
   -2.4830    4.8614   -0.9550 H   0  0  0  0  0  0  0  0  0  0  0  0
    4.9296   -2.3978    2.1354 H   0  0  0  0  0  0  0  0  0  0  0  0
    2.4573    4.6522   -1.8156 H   0  0  0  0  0  0  0  0  0  0  0  0
    4.9586    2.4554    0.8582 H   0  0  0  0  0  0  0  0  0  0  0  0
   -1.3176    6.7261   -2.1322 H   0  0  0  0  0  0  0  0  0  0  0  0
    6.8242   -0.9196    2.8020 H   0  0  0  0  0  0  0  0  0  0  0  0
    1.1202    6.6228   -2.5565 H   0  0  0  0  0  0  0  0  0  0  0  0
    6.8389    1.4755    2.1716 H   0  0  0  0  0  0  0  0  0  0  0  0
  1 13  1  0  0  0  0
  1 15  1  0  0  0  0
  1 41  1  0  0  0  0
  2 14  1  0  0  0  0
  2 16  1  0  0  0  0
  2 42  1  0  0  0  0
  3 13  2  0  0  0  0
  3 14  1  0  0  0  0
  4 15  2  0  0  0  0
  4 21  1  0  0  0  0
  5 16  1  0  0  0  0
  5 22  2  0  0  0  0
  6 21  2  0  0  0  0
  6 23  1  0  0  0  0
  7 22  1  0  0  0  0
  7 24  2  0  0  0  0
  8 23  2  0  0  0  0
  8 24  1  0  0  0  0
  9 11  1  0  0  0  0
  9 13  1  0  0  0  0
  9 25  2  0  0  0  0
 10 12  1  0  0  0  0
 10 14  2  0  0  0  0
 10 26  1  0  0  0  0
 11 15  1  0  0  0  0
 11 27  2  0  0  0  0
 12 16  2  0  0  0  0
 12 28  1  0  0  0  0
 17 19  1  0  0  0  0
 17 21  1  0  0  0  0
 17 33  2  0  0  0  0
 18 20  1  0  0  0  0
 18 22  1  0  0  0  0
 18 34  2  0  0  0  0
 19 23  1  0  0  0  0
 19 35  2  0  0  0  0
 20 24  1  0  0  0  0
 20 36  2  0  0  0  0
 25 29  1  0  0  0  0
 25 43  1  0  0  0  0
 26 30  2  0  0  0  0
 26 44  1  0  0  0  0
 27 31  1  0  0  0  0
 27 45  1  0  0  0  0
 28 32  2  0  0  0  0
 28 46  1  0  0  0  0
 29 31  2  0  0  0  0
 29 47  1  0  0  0  0
 30 32  1  0  0  0  0
 30 48  1  0  0  0  0
 31 49  1  0  0  0  0
 32 50  1  0  0  0  0
 33 37  1  0  0  0  0
 33 51  1  0  0  0  0
 34 38  1  0  0  0  0
 34 52  1  0  0  0  0
 35 39  1  0  0  0  0
 35 53  1  0  0  0  0
 36 40  1  0  0  0  0
 36 54  1  0  0  0  0
 37 39  2  0  0  0  0
 37 55  1  0  0  0  0
 38 40  2  0  0  0  0
 38 56  1  0  0  0  0
 39 57  1  0  0  0  0
 40 58  1  0  0  0  0
M  END
> <PUBCHEM_COMPOUND_CID>
5282330

> <PUBCHEM_CONFORMER_RMSD>
0.8

> <PUBCHEM_CONFORMER_DIVERSEORDER>
2
1

> <PUBCHEM_MMFF94_PARTIAL_CHARGES>
56
1 -0.5
11 0.09
13 0.41
14 -0.03
15 0.41
16 -0.03
17 0.09
18 0.09
19 0.09
2 0.03
20 0.09
21 0.57
22 0.57
23 0.57
24 0.57
25 -0.15
26 -0.15
27 -0.15
28 -0.15
29 -0.15
3 -0.58
30 -0.15
31 -0.15
32 -0.15
33 -0.15
34 -0.15
35 -0.15
36 -0.15
37 -0.15
38 -0.15
39 -0.15
4 -0.66
40 -0.15
41 0.4
42 0.27
43 0.15
44 0.15
45 0.15
46 0.15
47 0.15
48 0.15
49 0.15
5 -0.58
50 0.15
51 0.15
52 0.15
53 0.15
54 0.15
55 0.15
56 0.15
57 0.15
58 0.15
6 -0.66
7 -0.66
8 -0.66
9 0.09

> <PUBCHEM_EFFECTIVE_ROTOR_COUNT>
0

> <PUBCHEM_PHARMACOPHORE_FEATURES>
17
1 1 donor
1 2 cation
1 2 donor
3 1 3 13 cation
3 1 4 15 cation
3 4 6 21 cation
3 5 7 22 cation
3 6 8 23 cation
3 7 8 24 cation
5 1 9 11 13 15 rings
5 2 10 12 14 16 rings
5 6 17 19 21 23 rings
5 7 18 20 22 24 rings
6 10 12 26 28 30 32 rings
6 17 19 33 35 37 39 rings
6 18 20 34 36 38 40 rings
6 9 11 25 27 29 31 rings

> <PUBCHEM_HEAVY_ATOM_COUNT>
40

> <PUBCHEM_ATOM_DEF_STEREO_COUNT>
0

> <PUBCHEM_ATOM_UDEF_STEREO_COUNT>
0

> <PUBCHEM_BOND_DEF_STEREO_COUNT>
0

> <PUBCHEM_BOND_UDEF_STEREO_COUNT>
0

> <PUBCHEM_ISOTOPIC_ATOM_COUNT>
0

> <PUBCHEM_COMPONENT_COUNT>
1

> <PUBCHEM_CACTVS_TAUTO_COUNT>
4

> <PUBCHEM_CONFORMER_ID>
00509A1A00000002

> <PUBCHEM_MMFF94_ENERGY>
160.8453

> <PUBCHEM_FEATURE_SELFOVERLAP>
87.97

> <PUBCHEM_SHAPE_FINGERPRINT>
10815517 723 18335148549018348478
11297750 10 17687447371449789215
11445158 3 18198622138747427333
11513181 2 17822286920472438623
12218070 45 17971771977630755938
12422481 6 18338520845158601554
12440610 7 17622455260770505684
131258 38 17273135687792977938
14068700 675 17465129062139317806
14068700 686 18193563491258249581
14117953 113 18411979182740118093
14294032 229 17677610852749773043
14395042 24 18119258268632563307
14725015 67 17909824667661724051
15160629 57 18129655284311139565
15351339 4 16177365461709486442
15484559 13 18199447910223077045
15775530 1 17761769967713865288
15840311 113 17536294180218396361
15961568 22 18340191003516358431
15968369 26 17401218162753803094
19319366 153 16758025300432867111
1979834 28 18261660563119286411
21033648 29 17749962059526048634
21133410 221 17256558707843436978
21796203 349 17842241871079323208
22113638 7 18338801091637085913
238918 7 18191596460929846122
24771293 8 18335419102093666425
25019877 29 17676489414991645911
255183 313 18261127248577273090
4017518 198 17968362473466658782
4394409 98 15745041883193186353
44426695 316 17461695347323447411
50150288 127 16964037560229697115
50677037 204 18050026406497457792
508180 173 17265873469157098806
5171179 24 17685773931937029407
9982175 49 18124038922844053037

> <PUBCHEM_SHAPE_MULTIPOLES>
783.33
10.6
8.79
2.45
1.78
6.14
1.3
-0.38
-12.55
0.06
10.67
-0.67
-1.63
-0.15

> <PUBCHEM_SHAPE_SELFOVERLAP>
1845.162

> <PUBCHEM_SHAPE_VOLUME>
382.5

> <PUBCHEM_COORDINATE_TYPE>
2
5
10

$$$$

