439800
  -OEChem-07051212473D

 27 29  0     1  0  0  0  0  0999 V2000
    2.0752    0.5723    0.4818 O   0  0  0  0  0  0  0  0  0  0  0  0
   -0.1639   -0.4607    0.9108 C   0  0  2  0  0  0  0  0  0  0  0  0
    1.1956   -0.5281    0.2473 C   0  0  1  0  0  0  0  0  0  0  0  0
   -1.3353   -0.3087   -0.1296 C   0  0  0  0  0  0  0  0  0  0  0  0
   -0.9240    1.2025   -0.1387 C   0  0  1  0  0  0  0  0  0  0  0  0
    1.4345    0.5297   -0.8022 C   0  0  1  0  0  0  0  0  0  0  0  0
   -0.6194    0.9718    1.3766 C   0  0  0  0  0  0  0  0  0  0  0  0
    0.3174    1.5258   -1.0062 C   0  0  0  0  0  0  0  0  0  0  0  0
    1.8734   -1.8396    0.1373 C   0  0  0  0  0  0  0  0  0  0  0  0
   -1.1225   -1.0420   -1.4444 C   0  0  0  0  0  0  0  0  0  0  0  0
   -2.7309   -0.6230    0.3674 C   0  0  0  0  0  0  0  0  0  0  0  0
   -0.3058   -1.2363    1.6710 H   0  0  0  0  0  0  0  0  0  0  0  0
   -1.7385    1.9092   -0.3316 H   0  0  0  0  0  0  0  0  0  0  0  0
    2.0504    0.3444   -1.6685 H   0  0  0  0  0  0  0  0  0  0  0  0
    0.1562    1.6131    1.8076 H   0  0  0  0  0  0  0  0  0  0  0  0
   -1.4718    1.0123    2.0616 H   0  0  0  0  0  0  0  0  0  0  0  0
    0.0290    1.5343   -2.0635 H   0  0  0  0  0  0  0  0  0  0  0  0
    0.6804    2.5321   -0.7681 H   0  0  0  0  0  0  0  0  0  0  0  0
    1.2573   -2.5521   -0.4198 H   0  0  0  0  0  0  0  0  0  0  0  0
    2.8386   -1.7620   -0.3749 H   0  0  0  0  0  0  0  0  0  0  0  0
    2.0580   -2.2582    1.1319 H   0  0  0  0  0  0  0  0  0  0  0  0
   -0.1623   -0.8968   -1.9379 H   0  0  0  0  0  0  0  0  0  0  0  0
   -1.2314   -2.1237   -1.2995 H   0  0  0  0  0  0  0  0  0  0  0  0
   -1.8825   -0.7386   -2.1750 H   0  0  0  0  0  0  0  0  0  0  0  0
   -2.9900   -0.1463    1.3160 H   0  0  0  0  0  0  0  0  0  0  0  0
   -3.4855   -0.3007   -0.3596 H   0  0  0  0  0  0  0  0  0  0  0  0
   -2.8570   -1.7017    0.5169 H   0  0  0  0  0  0  0  0  0  0  0  0
  1  3  1  0  0  0  0
  1  6  1  0  0  0  0
  2  3  1  0  0  0  0
  2  4  1  0  0  0  0
  2  7  1  0  0  0  0
  2 12  1  0  0  0  0
  3  6  1  0  0  0  0
  3  9  1  0  0  0  0
  4  5  1  0  0  0  0
  4 10  1  0  0  0  0
  4 11  1  0  0  0  0
  5  7  1  0  0  0  0
  5  8  1  0  0  0  0
  5 13  1  0  0  0  0
  6  8  1  0  0  0  0
  6 14  1  0  0  0  0
  7 15  1  0  0  0  0
  7 16  1  0  0  0  0
  8 17  1  0  0  0  0
  8 18  1  0  0  0  0
  9 19  1  0  0  0  0
  9 20  1  0  0  0  0
  9 21  1  0  0  0  0
 10 22  1  0  0  0  0
 10 23  1  0  0  0  0
 10 24  1  0  0  0  0
 11 25  1  0  0  0  0
 11 26  1  0  0  0  0
 11 27  1  0  0  0  0
M  END
> <PUBCHEM_COMPOUND_CID>
439800

> <PUBCHEM_CONFORMER_RMSD>
0.4

> <PUBCHEM_CONFORMER_DIVERSEORDER>
1
2

> <PUBCHEM_MMFF94_PARTIAL_CHARGES>
7
1 -0.3
14 0.1
2 0.08
3 -0.02
6 -0.05
8 0.09
9 0.09

> <PUBCHEM_EFFECTIVE_ROTOR_COUNT>
0.8

> <PUBCHEM_PHARMACOPHORE_FEATURES>
3
1 1 acceptor
3 4 10 11 hydrophobe
8 1 2 3 4 5 6 7 8 rings

> <PUBCHEM_HEAVY_ATOM_COUNT>
11

> <PUBCHEM_ATOM_DEF_STEREO_COUNT>
2

> <PUBCHEM_ATOM_UDEF_STEREO_COUNT>
2

> <PUBCHEM_BOND_DEF_STEREO_COUNT>
0

> <PUBCHEM_BOND_UDEF_STEREO_COUNT>
0

> <PUBCHEM_ISOTOPIC_ATOM_COUNT>
0

> <PUBCHEM_COMPONENT_COUNT>
1

> <PUBCHEM_CACTVS_TAUTO_COUNT>
1

> <PUBCHEM_CONFORMER_ID>
0006B5F800000001

> <PUBCHEM_MMFF94_ENERGY>
42.5743

> <PUBCHEM_FEATURE_SELFOVERLAP>
15.223

> <PUBCHEM_SHAPE_FINGERPRINT>
12423570 1 13562542500752629057
13024252 1 15980855778563913610
137420 1 14299916079574754589
16945 1 18338801113212233677
18185500 45 18263084331486722351
21040471 1 17479442444263605348
23552423 10 18130499842115770810
241688 4 18057884851669979816
2748010 2 18200879598573536694
29004967 10 18202002088402933857
369184 2 15866352573154265786
5084963 1 18267574882987460938
528886 8 18128538150242078441
54276843 12 17756385362977717205

> <PUBCHEM_SHAPE_MULTIPOLES>
220.51
2.65
1.6
1.25
0.35
0.05
-0.09
0.88
0.17
-0.37
-0.2
0.21
-0.09
-0.28

> <PUBCHEM_SHAPE_SELFOVERLAP>
471.892

> <PUBCHEM_SHAPE_VOLUME>
125.3

> <PUBCHEM_COORDINATE_TYPE>
2
5
10

$$$$

