12644
  -OEChem-06261207123D

 29 29  0     0  0  0  0  0  0999 V2000
    3.9386    0.4037    0.4169 Cl  0  0  0  0  0  0  0  0  0  0  0  0
   -0.9355    2.7367   -0.1093 Cl  0  0  0  0  0  0  0  0  0  0  0  0
   -1.7716    0.0067   -0.9537 O   0  0  0  0  0  0  0  0  0  0  0  0
   -2.2181   -0.5232    1.2657 O   0  0  0  0  0  0  0  0  0  0  0  0
   -3.9247   -0.4346   -0.3033 N   0  0  0  0  0  0  0  0  0  0  0  0
    1.7150   -0.9154   -0.3972 C   0  0  0  0  0  0  0  0  0  0  0  0
    2.5477   -2.1522   -0.5085 C   0  0  0  0  0  0  0  0  0  0  0  0
    1.4423    1.4317    0.1071 C   0  0  0  0  0  0  0  0  0  0  0  0
    2.2557    0.3021    0.0165 C   0  0  0  0  0  0  0  0  0  0  0  0
    0.3610   -1.0034   -0.7205 C   0  0  0  0  0  0  0  0  0  0  0  0
   -0.4523    0.1261   -0.6301 C   0  0  0  0  0  0  0  0  0  0  0  0
    0.0882    1.3437   -0.2163 C   0  0  0  0  0  0  0  0  0  0  0  0
    2.5696   -2.9517    0.7900 C   0  0  0  0  0  0  0  0  0  0  0  0
    2.0220    2.7406    0.5519 C   0  0  0  0  0  0  0  0  0  0  0  0
   -2.6149   -0.3373    0.1191 C   0  0  0  0  0  0  0  0  0  0  0  0
   -5.0229   -0.7734    0.5717 C   0  0  0  0  0  0  0  0  0  0  0  0
    2.1430   -2.7922   -1.3043 H   0  0  0  0  0  0  0  0  0  0  0  0
    3.5693   -1.9310   -0.8357 H   0  0  0  0  0  0  0  0  0  0  0  0
   -0.0689   -1.9492   -1.0422 H   0  0  0  0  0  0  0  0  0  0  0  0
    2.9987   -2.3700    1.6123 H   0  0  0  0  0  0  0  0  0  0  0  0
    3.1721   -3.8570    0.6650 H   0  0  0  0  0  0  0  0  0  0  0  0
    1.5597   -3.2559    1.0857 H   0  0  0  0  0  0  0  0  0  0  0  0
    2.4175    3.2866   -0.3108 H   0  0  0  0  0  0  0  0  0  0  0  0
    1.2974    3.3788    1.0658 H   0  0  0  0  0  0  0  0  0  0  0  0
    2.8227    2.6169    1.2874 H   0  0  0  0  0  0  0  0  0  0  0  0
   -4.1279   -0.2579   -1.2823 H   0  0  0  0  0  0  0  0  0  0  0  0
   -5.7430    0.0481    0.5488 H   0  0  0  0  0  0  0  0  0  0  0  0
   -4.6806   -0.9383    1.5960 H   0  0  0  0  0  0  0  0  0  0  0  0
   -5.4970   -1.6802    0.1884 H   0  0  0  0  0  0  0  0  0  0  0  0
  1  9  1  0  0  0  0
  2 12  1  0  0  0  0
  3 11  1  0  0  0  0
  3 15  1  0  0  0  0
  4 15  2  0  0  0  0
  5 15  1  0  0  0  0
  5 16  1  0  0  0  0
  5 26  1  0  0  0  0
  6  7  1  0  0  0  0
  6  9  1  0  0  0  0
  6 10  2  0  0  0  0
  7 13  1  0  0  0  0
  7 17  1  0  0  0  0
  7 18  1  0  0  0  0
  8  9  2  0  0  0  0
  8 12  1  0  0  0  0
  8 14  1  0  0  0  0
 10 11  1  0  0  0  0
 10 19  1  0  0  0  0
 11 12  2  0  0  0  0
 13 20  1  0  0  0  0
 13 21  1  0  0  0  0
 13 22  1  0  0  0  0
 14 23  1  0  0  0  0
 14 24  1  0  0  0  0
 14 25  1  0  0  0  0
 16 27  1  0  0  0  0
 16 28  1  0  0  0  0
 16 29  1  0  0  0  0
M  END
> <PUBCHEM_COMPOUND_CID>
12644

> <PUBCHEM_CONFORMER_RMSD>
0.6

> <PUBCHEM_CONFORMER_DIVERSEORDER>
1
43
27
41
39
15
42
38
28
24
16
44
37
40
17
21
25
20
35
30
36
18
31
29
34
12
10
32
22
23
11
33
9
14
13
5
6
26
19
2
7
8
3
4

> <PUBCHEM_MMFF94_PARTIAL_CHARGES>
17
1 -0.18
10 -0.15
11 0.08
12 0.18
14 0.14
15 0.78
16 0.3
19 0.15
2 -0.18
26 0.37
3 -0.23
4 -0.57
5 -0.73
6 -0.14
7 0.14
8 -0.14
9 0.18

> <PUBCHEM_EFFECTIVE_ROTOR_COUNT>
4

> <PUBCHEM_PHARMACOPHORE_FEATURES>
4
1 13 hydrophobe
1 4 acceptor
1 5 donor
6 6 8 9 10 11 12 rings

> <PUBCHEM_HEAVY_ATOM_COUNT>
16

> <PUBCHEM_ATOM_DEF_STEREO_COUNT>
0

> <PUBCHEM_ATOM_UDEF_STEREO_COUNT>
0

> <PUBCHEM_BOND_DEF_STEREO_COUNT>
0

> <PUBCHEM_BOND_UDEF_STEREO_COUNT>
0

> <PUBCHEM_ISOTOPIC_ATOM_COUNT>
0

> <PUBCHEM_COMPONENT_COUNT>
1

> <PUBCHEM_CACTVS_TAUTO_COUNT>
2

> <PUBCHEM_CONFORMER_ID>
0000316400000001

> <PUBCHEM_MMFF94_ENERGY>
41.9744

> <PUBCHEM_FEATURE_SELFOVERLAP>
20.297

> <PUBCHEM_SHAPE_FINGERPRINT>
10967382 1 18336831900988053692
10980938 120 18333731286502699951
11471102 20 18336830801239166068
11471102 22 18410568466208179169
11680986 33 18191600850302169556
12251169 10 18260266322050389183
12553582 1 18335145348719639302
12824470 246 17414721165742998378
13140716 1 18120665630208188496
14178342 30 17901400999616365363
14252887 29 18342172258865435123
14790565 3 18265324024242183612
15375462 189 18335989717830585038
16945 1 18335995189972211668
17841504 4 18338800129638349066
19049666 15 18200885079273722197
20201158 50 18272369754480678443
20559304 39 18408319990883985692
20645477 70 18408890633456410255
20871998 22 18410008879214137684
21041028 32 18262521532141908480
21501502 16 18266453398470821124
2334 1 17760378690837112604
23526113 38 18055664890586107621
23557571 272 16988853799165708988
23559900 14 18127700533072546110
2748010 2 18045794630801894260
31174 14 18409450288626193535
33824 294 18411419466649163578
54173680 148 17760928841518875446
7364860 26 18334011670879477278
77492 1 17385727950609215709
81228 2 17325493697130974756
9999458 23 18339359643950412324

> <PUBCHEM_SHAPE_MULTIPOLES>
316.29
6.76
2.95
0.91
7.43
0.59
-0.06
-2.96
-1.58
-2.42
-0.47
0.11
-0.19
0.33

> <PUBCHEM_SHAPE_SELFOVERLAP>
634.039

> <PUBCHEM_SHAPE_VOLUME>
189

> <PUBCHEM_COORDINATE_TYPE>
2
5
10

$$$$

