1236
  -OEChem-07051213013D

 84 88  0     1  0  0  0  0  0999 V2000
    1.9103   -2.8740    0.8585 O   0  0  0  0  0  0  0  0  0  0  0  0
    3.6459   -2.4232    2.3226 O   0  0  0  0  0  0  0  0  0  0  0  0
    6.5046    1.3880    0.1949 O   0  0  0  0  0  0  0  0  0  0  0  0
    5.5907    2.2882   -1.7322 O   0  0  0  0  0  0  0  0  0  0  0  0
    0.4335    3.6571    2.6349 O   0  5  0  0  0  0  0  0  0  0  0  0
    2.2868    2.8792    3.5176 O   0  0  0  0  0  0  0  0  0  0  0  0
   -2.1222   -1.6201    1.2944 N   0  0  0  0  0  0  0  0  0  0  0  0
    4.7376   -2.0024   -2.1260 N   0  0  0  0  0  0  0  0  0  0  0  0
    1.4519    2.9261    2.5820 N   0  3  0  0  0  0  0  0  0  0  0  0
   -4.5351   -0.3253    0.0132 C   0  0  0  0  0  0  0  0  0  0  0  0
   -3.9255   -1.7073   -0.4110 C   0  0  0  0  0  0  0  0  0  0  0  0
   -4.0873   -0.1524    1.5063 C   0  0  0  0  0  0  0  0  0  0  0  0
   -2.4246   -1.8566   -0.1187 C   0  0  0  0  0  0  0  0  0  0  0  0
   -2.5746   -0.2909    1.7108 C   0  0  0  0  0  0  0  0  0  0  0  0
   -6.0785   -0.4205   -0.1376 C   0  0  0  0  0  0  0  0  0  0  0  0
   -4.0529    0.8840   -0.8294 C   0  0  0  0  0  0  0  0  0  0  0  0
   -0.6919   -1.7831    1.5508 C   0  0  0  0  0  0  0  0  0  0  0  0
   -0.3332   -3.2636    1.6276 C   0  0  0  0  0  0  0  0  0  0  0  0
   -6.6331   -1.1859   -1.1635 C   0  0  0  0  0  0  0  0  0  0  0  0
   -3.9742    2.1506   -0.2502 C   0  0  0  0  0  0  0  0  0  0  0  0
   -6.9097    0.2590    0.7531 C   0  0  0  0  0  0  0  0  0  0  0  0
   -3.6973    0.7052   -2.1664 C   0  0  0  0  0  0  0  0  0  0  0  0
    1.1483   -3.4653    1.9160 C   0  0  0  0  0  0  0  0  0  0  0  0
   -8.0187   -1.2716   -1.2988 C   0  0  0  0  0  0  0  0  0  0  0  0
   -3.5403    3.2383   -1.0080 C   0  0  0  0  0  0  0  0  0  0  0  0
   -8.2953    0.1732    0.6176 C   0  0  0  0  0  0  0  0  0  0  0  0
   -3.2633    1.7931   -2.9240 C   0  0  0  0  0  0  0  0  0  0  0  0
   -8.8498   -0.5921   -0.4084 C   0  0  0  0  0  0  0  0  0  0  0  0
   -3.1848    3.0595   -2.3447 C   0  0  0  0  0  0  0  0  0  0  0  0
    4.2109   -0.3638    0.1246 C   0  0  1  0  0  0  0  0  0  0  0  0
    3.7790   -1.8318    0.0313 C   0  0  0  0  0  0  0  0  0  0  0  0
    3.1282   -2.4040    1.2212 C   0  0  0  0  0  0  0  0  0  0  0  0
    5.0941    0.0739   -1.0482 C   0  0  0  0  0  0  0  0  0  0  0  0
    4.0413   -2.5707   -1.0708 C   0  0  0  0  0  0  0  0  0  0  0  0
    3.0006    0.5211    0.2125 C   0  0  0  0  0  0  0  0  0  0  0  0
    5.2940   -0.7336   -2.1141 C   0  0  0  0  0  0  0  0  0  0  0  0
    3.6296   -4.0030   -1.2790 C   0  0  0  0  0  0  0  0  0  0  0  0
    2.7910    1.3061    1.3464 C   0  0  0  0  0  0  0  0  0  0  0  0
    2.0857    0.5570   -0.8397 C   0  0  0  0  0  0  0  0  0  0  0  0
    5.7455    1.3883   -0.9274 C   0  0  0  0  0  0  0  0  0  0  0  0
    6.0977   -0.3819   -3.3368 C   0  0  0  0  0  0  0  0  0  0  0  0
    1.6660    2.1269    1.4279 C   0  0  0  0  0  0  0  0  0  0  0  0
    0.9609    1.3776   -0.7580 C   0  0  0  0  0  0  0  0  0  0  0  0
    0.7510    2.1627    0.3758 C   0  0  0  0  0  0  0  0  0  0  0  0
    7.2071    2.6081    0.4528 C   0  0  0  0  0  0  0  0  0  0  0  0
   -4.0592   -1.9362   -1.4721 H   0  0  0  0  0  0  0  0  0  0  0  0
   -4.4468   -2.5109    0.1318 H   0  0  0  0  0  0  0  0  0  0  0  0
   -4.4155    0.7809    1.9710 H   0  0  0  0  0  0  0  0  0  0  0  0
   -4.5773   -0.9346    2.1075 H   0  0  0  0  0  0  0  0  0  0  0  0
   -2.1455   -2.8740   -0.4120 H   0  0  0  0  0  0  0  0  0  0  0  0
   -1.8545   -1.1733   -0.7612 H   0  0  0  0  0  0  0  0  0  0  0  0
   -2.0312    0.5002    1.1803 H   0  0  0  0  0  0  0  0  0  0  0  0
   -2.3733   -0.1554    2.7810 H   0  0  0  0  0  0  0  0  0  0  0  0
   -0.4327   -1.3373    2.5204 H   0  0  0  0  0  0  0  0  0  0  0  0
   -0.0914   -1.2588    0.7981 H   0  0  0  0  0  0  0  0  0  0  0  0
   -0.5575   -3.7627    0.6789 H   0  0  0  0  0  0  0  0  0  0  0  0
   -0.9234   -3.7584    2.4084 H   0  0  0  0  0  0  0  0  0  0  0  0
   -6.0358   -1.7080   -1.9014 H   0  0  0  0  0  0  0  0  0  0  0  0
   -4.2695    2.3567    0.7710 H   0  0  0  0  0  0  0  0  0  0  0  0
   -6.5192    0.8778    1.5534 H   0  0  0  0  0  0  0  0  0  0  0  0
   -3.7601   -0.2565   -2.6622 H   0  0  0  0  0  0  0  0  0  0  0  0
    1.3931   -3.0266    2.8906 H   0  0  0  0  0  0  0  0  0  0  0  0
    1.3787   -4.5356    1.9459 H   0  0  0  0  0  0  0  0  0  0  0  0
   -8.4512   -1.8612   -2.1020 H   0  0  0  0  0  0  0  0  0  0  0  0
   -3.4859    4.2262   -0.5599 H   0  0  0  0  0  0  0  0  0  0  0  0
   -8.9430    0.7056    1.3081 H   0  0  0  0  0  0  0  0  0  0  0  0
   -2.9902    1.6553   -3.9662 H   0  0  0  0  0  0  0  0  0  0  0  0
   -9.9286   -0.6567   -0.5154 H   0  0  0  0  0  0  0  0  0  0  0  0
   -2.8490    3.9069   -2.9353 H   0  0  0  0  0  0  0  0  0  0  0  0
    4.8118   -0.2775    1.0407 H   0  0  0  0  0  0  0  0  0  0  0  0
    4.9031   -2.5787   -2.9436 H   0  0  0  0  0  0  0  0  0  0  0  0
    4.4422   -4.5689   -1.7490 H   0  0  0  0  0  0  0  0  0  0  0  0
    3.3956   -4.5239   -0.3467 H   0  0  0  0  0  0  0  0  0  0  0  0
    2.7553   -4.0524   -1.9359 H   0  0  0  0  0  0  0  0  0  0  0  0
    3.5164    1.2637    2.1556 H   0  0  0  0  0  0  0  0  0  0  0  0
    2.2236   -0.0455   -1.7332 H   0  0  0  0  0  0  0  0  0  0  0  0
    5.4373   -0.2839   -4.2048 H   0  0  0  0  0  0  0  0  0  0  0  0
    6.6617    0.5483   -3.2350 H   0  0  0  0  0  0  0  0  0  0  0  0
    6.8275   -1.1715   -3.5489 H   0  0  0  0  0  0  0  0  0  0  0  0
    0.2465    1.4032   -1.5759 H   0  0  0  0  0  0  0  0  0  0  0  0
   -0.1378    2.7879    0.4050 H   0  0  0  0  0  0  0  0  0  0  0  0
    7.8991    2.8276   -0.3660 H   0  0  0  0  0  0  0  0  0  0  0  0
    6.4985    3.4303    0.5916 H   0  0  0  0  0  0  0  0  0  0  0  0
    7.7819    2.4810    1.3740 H   0  0  0  0  0  0  0  0  0  0  0  0
  1 23  1  0  0  0  0
  1 32  1  0  0  0  0
  2 32  2  0  0  0  0
  3 40  1  0  0  0  0
  3 45  1  0  0  0  0
  4 40  2  0  0  0  0
  5  9  1  0  0  0  0
  6  9  2  0  0  0  0
  7 13  1  0  0  0  0
  7 14  1  0  0  0  0
  7 17  1  0  0  0  0
  8 34  1  0  0  0  0
  8 36  1  0  0  0  0
  8 71  1  0  0  0  0
  9 42  1  0  0  0  0
 10 11  1  0  0  0  0
 10 12  1  0  0  0  0
 10 15  1  0  0  0  0
 10 16  1  0  0  0  0
 11 13  1  0  0  0  0
 11 46  1  0  0  0  0
 11 47  1  0  0  0  0
 12 14  1  0  0  0  0
 12 48  1  0  0  0  0
 12 49  1  0  0  0  0
 13 50  1  0  0  0  0
 13 51  1  0  0  0  0
 14 52  1  0  0  0  0
 14 53  1  0  0  0  0
 15 19  2  0  0  0  0
 15 21  1  0  0  0  0
 16 20  2  0  0  0  0
 16 22  1  0  0  0  0
 17 18  1  0  0  0  0
 17 54  1  0  0  0  0
 17 55  1  0  0  0  0
 18 23  1  0  0  0  0
 18 56  1  0  0  0  0
 18 57  1  0  0  0  0
 19 24  1  0  0  0  0
 19 58  1  0  0  0  0
 20 25  1  0  0  0  0
 20 59  1  0  0  0  0
 21 26  2  0  0  0  0
 21 60  1  0  0  0  0
 22 27  2  0  0  0  0
 22 61  1  0  0  0  0
 23 62  1  0  0  0  0
 23 63  1  0  0  0  0
 24 28  2  0  0  0  0
 24 64  1  0  0  0  0
 25 29  2  0  0  0  0
 25 65  1  0  0  0  0
 26 28  1  0  0  0  0
 26 66  1  0  0  0  0
 27 29  1  0  0  0  0
 27 67  1  0  0  0  0
 28 68  1  0  0  0  0
 29 69  1  0  0  0  0
 30 31  1  0  0  0  0
 30 33  1  0  0  0  0
 30 35  1  0  0  0  0
 30 70  1  0  0  0  0
 31 32  1  0  0  0  0
 31 34  2  0  0  0  0
 33 36  2  0  0  0  0
 33 40  1  0  0  0  0
 34 37  1  0  0  0  0
 35 38  2  0  0  0  0
 35 39  1  0  0  0  0
 36 41  1  0  0  0  0
 37 72  1  0  0  0  0
 37 73  1  0  0  0  0
 37 74  1  0  0  0  0
 38 42  1  0  0  0  0
 38 75  1  0  0  0  0
 39 43  2  0  0  0  0
 39 76  1  0  0  0  0
 41 77  1  0  0  0  0
 41 78  1  0  0  0  0
 41 79  1  0  0  0  0
 42 44  2  0  0  0  0
 43 44  1  0  0  0  0
 43 80  1  0  0  0  0
 44 81  1  0  0  0  0
 45 82  1  0  0  0  0
 45 83  1  0  0  0  0
 45 84  1  0  0  0  0
M  CHG  2   5  -1   9   1
M  END
> <PUBCHEM_COMPOUND_CID>
1236

> <PUBCHEM_CONFORMER_RMSD>
1.6

> <PUBCHEM_CONFORMER_DIVERSEORDER>
1
41
73
155
83
60
94
69
8
26
145
118
134
24
49
110
33
137
28
135
50
10
44
64
80
113
104
29
129
53
121
112
128
87
34
57
71
39
111
79
146
143
123
140
101
75
91
132
36
43
67
138
46
13
150
151
127
37
89
144
55
27
148
100
81
126
122
25
152
142
48
105
102
97
68
76
147
65
54
62
45
93
32
114
3
96
141
72
108
40
98
56
12
90
77
38
74
124
30
153
139
86
103
125
92
59
120
99
51
16
107
117
22
116
18
85
35
130
21
78
63
149
6
119
15
70
11
61
136
19
17
106
5
115
133
84
52
7
42
23
95
2
88
82
131
9
4
154
58
31
109
20
66
14
47

> <PUBCHEM_MMFF94_PARTIAL_CHARGES>
57
1 -0.43
10 0.29
13 0.27
14 0.27
15 -0.14
16 -0.14
17 0.27
19 -0.15
2 -0.57
20 -0.15
21 -0.15
22 -0.15
23 0.28
24 -0.15
25 -0.15
26 -0.15
27 -0.15
28 -0.15
29 -0.15
3 -0.43
30 0.42
31 -0.12
32 0.71
33 -0.12
34 -0.04
35 -0.14
36 -0.04
37 0.14
38 -0.15
39 -0.15
4 -0.57
40 0.71
41 0.14
42 0.13
43 -0.15
44 -0.15
45 0.28
5 -0.52
58 0.15
59 0.15
6 -0.52
60 0.15
61 0.15
64 0.15
65 0.15
66 0.15
67 0.15
68 0.15
69 0.15
7 -0.81
71 0.4
75 0.15
76 0.15
8 -0.6
80 0.15
81 0.15
9 0.91

> <PUBCHEM_EFFECTIVE_ROTOR_COUNT>
13.6

> <PUBCHEM_PHARMACOPHORE_FEATURES>
13
1 2 acceptor
1 4 acceptor
1 5 acceptor
1 5 anion
1 6 acceptor
1 7 cation
1 8 cation
1 8 donor
6 15 19 21 24 26 28 rings
6 16 20 22 25 27 29 rings
6 35 38 39 42 43 44 rings
6 7 10 11 12 13 14 rings
6 8 30 31 33 34 36 rings

> <PUBCHEM_HEAVY_ATOM_COUNT>
45

> <PUBCHEM_ATOM_DEF_STEREO_COUNT>
0

> <PUBCHEM_ATOM_UDEF_STEREO_COUNT>
1

> <PUBCHEM_BOND_DEF_STEREO_COUNT>
0

> <PUBCHEM_BOND_UDEF_STEREO_COUNT>
0

> <PUBCHEM_ISOTOPIC_ATOM_COUNT>
0

> <PUBCHEM_COMPONENT_COUNT>
1

> <PUBCHEM_CACTVS_TAUTO_COUNT>
3

> <PUBCHEM_CONFORMER_ID>
000004D400000001

> <PUBCHEM_MMFF94_ENERGY>
132.0568

> <PUBCHEM_FEATURE_SELFOVERLAP>
66.048

> <PUBCHEM_SHAPE_FINGERPRINT>
10079526 769 18266170832989610770
11115154 58 17531515551405015435
12107698 1 17675920989608945681
12166972 35 16515680031167594843
13111901 137 17989201556054894793
13617811 41 17704351057240858605
13782708 43 18409454717523446605
14118638 360 18060136578458801669
14537116 161 18334015029755113631
14664723 55 17202459188007941390
15001296 14 18262531299214505459
15082195 135 17489006216320904028
15150948 74 18342177730801631889
15183329 4 18333730217789371563
15351339 4 18410575127823814392
15684393 108 16153420649619847638
18608769 82 18130223757950952803
20764821 26 17915759749427999159
208703 8 17313379062866912365
3918712 181 17632004252810674564
508706 21 17917425484433620187
513532 50 17894636937664429354
5776283 40 18058155151416593340
86090 222 18342188734750230083

> <PUBCHEM_SHAPE_MULTIPOLES>
875.92
20.54
4.41
2.85
21.47
0.6
0.2
-0.63
-8.77
-3.83
1.24
-2.53
-1.23
2.14

> <PUBCHEM_SHAPE_SELFOVERLAP>
1887.979

> <PUBCHEM_SHAPE_VOLUME>
479.1

> <PUBCHEM_COORDINATE_TYPE>
2
5
10

$$$$

