10346039
  -OEChem-07051213023D

 65 66  0     1  0  0  0  0  0999 V2000
   -0.1009    3.9557   -2.2436 Cl  0  0  0  0  0  0  0  0  0  0  0  0
   -2.0051   -1.1459   -1.9525 S   0  0  0  0  0  0  0  0  0  0  0  0
   -4.3172   -2.5265    0.3706 P   0  0  0  0  0  0  0  0  0  0  0  0
   -0.9311    0.2647    0.1198 O   0  0  0  0  0  0  0  0  0  0  0  0
   -2.2990    2.3616    1.5802 O   0  0  0  0  0  0  0  0  0  0  0  0
   -4.4071   -0.9715   -0.0596 O   0  0  0  0  0  0  0  0  0  0  0  0
   -4.7781    1.8246    0.4513 O   0  0  0  0  0  0  0  0  0  0  0  0
    2.2009    1.2829    1.7277 O   0  0  0  0  0  0  0  0  0  0  0  0
   -4.4082   -2.4551    1.9836 O   0  0  0  0  0  0  0  0  0  0  0  0
   -5.7559   -3.1286   -0.0568 O   0  0  0  0  0  0  0  0  0  0  0  0
   -3.1268   -3.2673   -0.1649 O   0  0  0  0  0  0  0  0  0  0  0  0
    4.5564    0.6092    0.6937 N   0  0  1  0  0  0  0  0  0  0  0  0
    1.3238    1.7111   -0.3856 N   0  0  0  0  0  0  0  0  0  0  0  0
    4.1365   -1.6604    0.5205 C   0  0  2  0  0  0  0  0  0  0  0  0
    3.3904    0.5255   -0.1937 C   0  0  1  0  0  0  0  0  0  0  0  0
    3.1106   -0.9681   -0.3748 C   0  0  0  0  0  0  0  0  0  0  0  0
    5.2800   -0.6563    0.5531 C   0  0  0  0  0  0  0  0  0  0  0  0
   -1.1105    1.6010   -0.3749 C   0  0  2  0  0  0  0  0  0  0  0  0
    0.1234    2.3990    0.0348 C   0  0  2  0  0  0  0  0  0  0  0  0
   -2.4071    2.2178    0.1618 C   0  0  1  0  0  0  0  0  0  0  0  0
   -3.6002    1.3199   -0.1732 C   0  0  1  0  0  0  0  0  0  0  0  0
    4.5531   -3.0317    0.0166 C   0  0  0  0  0  0  0  0  0  0  0  0
   -3.3427   -0.1048    0.3178 C   0  0  2  0  0  0  0  0  0  0  0  0
    2.2600    1.2120    0.5030 C   0  0  0  0  0  0  0  0  0  0  0  0
   -1.9968   -0.6436   -0.1889 C   0  0  1  0  0  0  0  0  0  0  0  0
    0.0841    3.8587   -0.4632 C   0  0  1  0  0  0  0  0  0  0  0  0
    5.4036    1.7615    0.4178 C   0  0  0  0  0  0  0  0  0  0  0  0
    3.3538   -3.9689   -0.1158 C   0  0  0  0  0  0  0  0  0  0  0  0
    1.3201    4.6534   -0.0506 C   0  0  0  0  0  0  0  0  0  0  0  0
    3.7747   -5.3496   -0.5928 C   0  0  0  0  0  0  0  0  0  0  0  0
   -0.2847   -1.6804   -2.0616 C   0  0  0  0  0  0  0  0  0  0  0  0
    3.7141   -1.7592    1.5310 H   0  0  0  0  0  0  0  0  0  0  0  0
    3.5841    0.9825   -1.1727 H   0  0  0  0  0  0  0  0  0  0  0  0
    3.2668   -1.2389   -1.4264 H   0  0  0  0  0  0  0  0  0  0  0  0
    2.0911   -1.2549   -0.0955 H   0  0  0  0  0  0  0  0  0  0  0  0
    5.8630   -0.6911   -0.3764 H   0  0  0  0  0  0  0  0  0  0  0  0
    5.9508   -0.8356    1.3996 H   0  0  0  0  0  0  0  0  0  0  0  0
   -1.1621    1.5396   -1.4675 H   0  0  0  0  0  0  0  0  0  0  0  0
    0.1580    2.4342    1.1313 H   0  0  0  0  0  0  0  0  0  0  0  0
   -2.5883    3.2148   -0.2511 H   0  0  0  0  0  0  0  0  0  0  0  0
   -3.7899    1.3166   -1.2528 H   0  0  0  0  0  0  0  0  0  0  0  0
    5.0522   -2.9424   -0.9566 H   0  0  0  0  0  0  0  0  0  0  0  0
    5.2869   -3.4642    0.7079 H   0  0  0  0  0  0  0  0  0  0  0  0
   -3.3238   -0.0804    1.4153 H   0  0  0  0  0  0  0  0  0  0  0  0
    1.4682    1.5875   -1.3836 H   0  0  0  0  0  0  0  0  0  0  0  0
   -1.7412   -1.5359    0.3853 H   0  0  0  0  0  0  0  0  0  0  0  0
   -0.7831    4.3753   -0.0413 H   0  0  0  0  0  0  0  0  0  0  0  0
    4.8433    2.6932    0.5524 H   0  0  0  0  0  0  0  0  0  0  0  0
    5.8066    1.7475   -0.6012 H   0  0  0  0  0  0  0  0  0  0  0  0
    6.2448    1.7923    1.1188 H   0  0  0  0  0  0  0  0  0  0  0  0
    2.8457   -4.0628    0.8511 H   0  0  0  0  0  0  0  0  0  0  0  0
    2.6244   -3.5683   -0.8282 H   0  0  0  0  0  0  0  0  0  0  0  0
   -3.1457    2.7161    1.9012 H   0  0  0  0  0  0  0  0  0  0  0  0
    1.2180    5.7063   -0.3363 H   0  0  0  0  0  0  0  0  0  0  0  0
    1.4562    4.6188    1.0356 H   0  0  0  0  0  0  0  0  0  0  0  0
    2.2329    4.2699   -0.5189 H   0  0  0  0  0  0  0  0  0  0  0  0
   -4.9132    2.7322    0.1297 H   0  0  0  0  0  0  0  0  0  0  0  0
    4.2558   -5.2957   -1.5746 H   0  0  0  0  0  0  0  0  0  0  0  0
    4.4768   -5.8102    0.1096 H   0  0  0  0  0  0  0  0  0  0  0  0
    2.9015   -6.0040   -0.6779 H   0  0  0  0  0  0  0  0  0  0  0  0
    0.3897   -0.8256   -1.9749 H   0  0  0  0  0  0  0  0  0  0  0  0
   -0.0560   -2.4163   -1.2863 H   0  0  0  0  0  0  0  0  0  0  0  0
   -0.1174   -2.1463   -3.0365 H   0  0  0  0  0  0  0  0  0  0  0  0
   -4.2800   -3.2773    2.5029 H   0  0  0  0  0  0  0  0  0  0  0  0
   -5.9189   -4.0898    0.0509 H   0  0  0  0  0  0  0  0  0  0  0  0
  1 26  1  0  0  0  0
  2 25  1  0  0  0  0
  2 31  1  0  0  0  0
  3  6  1  0  0  0  0
  3  9  1  0  0  0  0
  3 10  1  0  0  0  0
  3 11  2  0  0  0  0
  4 18  1  0  0  0  0
  4 25  1  0  0  0  0
  5 20  1  0  0  0  0
  5 53  1  0  0  0  0
  6 23  1  0  0  0  0
  7 21  1  0  0  0  0
  7 57  1  0  0  0  0
  8 24  2  0  0  0  0
  9 64  1  0  0  0  0
 10 65  1  0  0  0  0
 12 15  1  0  0  0  0
 12 17  1  0  0  0  0
 12 27  1  0  0  0  0
 13 19  1  0  0  0  0
 13 24  1  0  0  0  0
 13 45  1  0  0  0  0
 14 16  1  0  0  0  0
 14 17  1  0  0  0  0
 14 22  1  0  0  0  0
 14 32  1  0  0  0  0
 15 16  1  0  0  0  0
 15 24  1  0  0  0  0
 15 33  1  0  0  0  0
 16 34  1  0  0  0  0
 16 35  1  0  0  0  0
 17 36  1  0  0  0  0
 17 37  1  0  0  0  0
 18 19  1  0  0  0  0
 18 20  1  0  0  0  0
 18 38  1  0  0  0  0
 19 26  1  0  0  0  0
 19 39  1  0  0  0  0
 20 21  1  0  0  0  0
 20 40  1  0  0  0  0
 21 23  1  0  0  0  0
 21 41  1  0  0  0  0
 22 28  1  0  0  0  0
 22 42  1  0  0  0  0
 22 43  1  0  0  0  0
 23 25  1  0  0  0  0
 23 44  1  0  0  0  0
 25 46  1  0  0  0  0
 26 29  1  0  0  0  0
 26 47  1  0  0  0  0
 27 48  1  0  0  0  0
 27 49  1  0  0  0  0
 27 50  1  0  0  0  0
 28 30  1  0  0  0  0
 28 51  1  0  0  0  0
 28 52  1  0  0  0  0
 29 54  1  0  0  0  0
 29 55  1  0  0  0  0
 29 56  1  0  0  0  0
 30 58  1  0  0  0  0
 30 59  1  0  0  0  0
 30 60  1  0  0  0  0
 31 61  1  0  0  0  0
 31 62  1  0  0  0  0
 31 63  1  0  0  0  0
M  END
> <PUBCHEM_COMPOUND_CID>
10346039

> <PUBCHEM_CONFORMER_RMSD>
1.2

> <PUBCHEM_CONFORMER_DIVERSEORDER>
2
32
79
119
134
80
107
72
70
15
33
23
101
110
123
3
57
20
112
100
24
94
126
137
58
41
108
109
61
106
104
116
35
115
136
67
118
86
130
84
52
55
85
77
68
124
92
127
26
39
98
56
12
62
64
29
83
8
47
120
51
97
93
102
111
38
133
87
46
91
19
73
63
48
105
14
78
82
13
31
99
40
53
69
90
65
28
117
103
1
114
43
96
131
50
11
42
18
95
27
132
135
22
88
76
71
17
75
122
121
45
113
59
37
129
54
74
44
21
9
6
81
128
66
10
16
30
34
49
89
7
4
5
125
36
25
60

> <PUBCHEM_MMFF94_PARTIAL_CHARGES>
30
1 -0.29
10 -0.77
11 -0.7
12 -0.81
13 -0.73
15 0.33
17 0.27
18 0.28
19 0.3
2 -0.46
20 0.28
21 0.28
23 0.28
24 0.57
25 0.51
26 0.29
27 0.27
3 1.51
31 0.23
4 -0.56
45 0.37
5 -0.68
53 0.4
57 0.4
6 -0.55
64 0.5
65 0.5
7 -0.68
8 -0.57
9 -0.77

> <PUBCHEM_EFFECTIVE_ROTOR_COUNT>
12.2

> <PUBCHEM_PHARMACOPHORE_FEATURES>
16
1 10 acceptor
1 11 acceptor
1 12 cation
1 13 donor
1 30 hydrophobe
1 31 hydrophobe
1 4 acceptor
1 5 acceptor
1 5 donor
1 7 acceptor
1 7 donor
1 8 acceptor
1 9 acceptor
4 3 9 10 11 anion
5 12 14 15 16 17 rings
6 4 18 20 21 23 25 rings

> <PUBCHEM_HEAVY_ATOM_COUNT>
31

> <PUBCHEM_ATOM_DEF_STEREO_COUNT>
7

> <PUBCHEM_ATOM_UDEF_STEREO_COUNT>
2

> <PUBCHEM_BOND_DEF_STEREO_COUNT>
0

> <PUBCHEM_BOND_UDEF_STEREO_COUNT>
0

> <PUBCHEM_ISOTOPIC_ATOM_COUNT>
0

> <PUBCHEM_COMPONENT_COUNT>
1

> <PUBCHEM_CACTVS_TAUTO_COUNT>
2

> <PUBCHEM_CONFORMER_ID>
009DDE3700000002

> <PUBCHEM_MMFF94_ENERGY>
39.9052

> <PUBCHEM_FEATURE_SELFOVERLAP>
81.237

> <PUBCHEM_SHAPE_FINGERPRINT>
117089 54 18410845573293950922
11756154 67 18266451190842040846
12107183 9 17539684025346677608
12422481 6 17973995451708031889
12553582 1 18337687308434554084
13140716 1 18263078980062849612
14863182 85 17765150566543404828
15320467 1 18266459793809708210
15361156 5 18057869416100791298
17492 89 18268149743444330777
1813 80 18129951082713547404
21033648 29 17603878775252500777
21344244 181 17766303215917881589
23559900 14 18267877081809629049
325973 47 17835520418896536370
3737641 26 18335417980912341174
4409770 3 17913783978800022789
463206 1 18271241737096865506
5104073 3 18333454257070407384
5309563 4 18411420587910135694
56633871 153 18338507660004212545
7970288 3 18339927008824687291
9709674 26 18121787398567560292

> <PUBCHEM_SHAPE_MULTIPOLES>
590.62
11.4
6.61
1.42
2.45
1.44
0.47
10.36
-3.24
1.93
1.33
-0.72
-0.21
1.15

> <PUBCHEM_SHAPE_SELFOVERLAP>
1154.769

> <PUBCHEM_SHAPE_VOLUME>
359.5

> <PUBCHEM_COORDINATE_TYPE>
2
5
10

$$$$

