121997
  -OEChem-07051213093D

 14 14  0     1  0  0  0  0  0999 V2000
   -1.4335    1.1333   -1.1145 F   0  0  0  0  0  0  0  0  0  0  0  0
   -1.8676   -1.6178    0.1912 O   0  0  0  0  0  0  0  0  0  0  0  0
    2.5937   -0.6198   -0.3784 O   0  0  0  0  0  0  0  0  0  0  0  0
    1.1666    1.0796    0.2146 N   0  0  0  0  0  0  0  0  0  0  0  0
    0.3824   -1.1223    0.0393 N   0  0  0  0  0  0  0  0  0  0  0  0
   -1.2415    0.6970    0.1615 C   0  0  2  0  0  0  0  0  0  0  0  0
   -0.1033    1.4811    0.7789 C   0  0  0  0  0  0  0  0  0  0  0  0
   -0.9619   -0.7867    0.1652 C   0  0  0  0  0  0  0  0  0  0  0  0
    1.4651   -0.2444   -0.0577 C   0  0  0  0  0  0  0  0  0  0  0  0
   -2.1671    0.8871    0.7143 H   0  0  0  0  0  0  0  0  0  0  0  0
   -0.2196    2.5536    0.5981 H   0  0  0  0  0  0  0  0  0  0  0  0
   -0.0451    1.3019    1.8579 H   0  0  0  0  0  0  0  0  0  0  0  0
    1.9143    1.7645    0.1606 H   0  0  0  0  0  0  0  0  0  0  0  0
    0.5933   -2.1119   -0.0560 H   0  0  0  0  0  0  0  0  0  0  0  0
  1  6  1  0  0  0  0
  2  8  2  0  0  0  0
  3  9  2  0  0  0  0
  4  7  1  0  0  0  0
  4  9  1  0  0  0  0
  4 13  1  0  0  0  0
  5  8  1  0  0  0  0
  5  9  1  0  0  0  0
  5 14  1  0  0  0  0
  6  7  1  0  0  0  0
  6  8  1  0  0  0  0
  6 10  1  0  0  0  0
  7 11  1  0  0  0  0
  7 12  1  0  0  0  0
M  END
> <PUBCHEM_COMPOUND_CID>
121997

> <PUBCHEM_CONFORMER_RMSD>
0.4

> <PUBCHEM_CONFORMER_DIVERSEORDER>
1
2
3

> <PUBCHEM_MMFF94_PARTIAL_CHARGES>
11
1 -0.34
13 0.37
14 0.37
2 -0.57
3 -0.57
4 -0.73
5 -0.49
6 0.4
7 0.3
8 0.57
9 0.69

> <PUBCHEM_EFFECTIVE_ROTOR_COUNT>
0.8

> <PUBCHEM_PHARMACOPHORE_FEATURES>
5
1 2 acceptor
1 3 acceptor
1 4 donor
1 5 donor
6 4 5 6 7 8 9 rings

> <PUBCHEM_HEAVY_ATOM_COUNT>
9

> <PUBCHEM_ATOM_DEF_STEREO_COUNT>
0

> <PUBCHEM_ATOM_UDEF_STEREO_COUNT>
1

> <PUBCHEM_BOND_DEF_STEREO_COUNT>
0

> <PUBCHEM_BOND_UDEF_STEREO_COUNT>
0

> <PUBCHEM_ISOTOPIC_ATOM_COUNT>
0

> <PUBCHEM_COMPONENT_COUNT>
1

> <PUBCHEM_CACTVS_TAUTO_COUNT>
5

> <PUBCHEM_CONFORMER_ID>
0001DC8D00000001

> <PUBCHEM_MMFF94_ENERGY>
12.0165

> <PUBCHEM_FEATURE_SELFOVERLAP>
25.413

> <PUBCHEM_SHAPE_FINGERPRINT>
12423570 1 17621052962194709129
15310529 11 17059762451024110392
20711978 78 17532366470114616892
21040471 1 18122909995022073088
23552423 10 18271799121210631030
24536 1 18186807993079756376
29004967 10 17749384854195843082

> <PUBCHEM_SHAPE_MULTIPOLES>
156.24
2.46
1.64
0.77
1.06
0.05
-0.09
-0.68
-0.32
-0.49
0.17
-0.18
0.22
0.28

> <PUBCHEM_SHAPE_SELFOVERLAP>
318.076

> <PUBCHEM_SHAPE_VOLUME>
89.7

> <PUBCHEM_COORDINATE_TYPE>
2
5
10

$$$$

