10292
  -OEChem-06261204263D

 26 27  0     0  0  0  0  0  0999 V2000
   -1.1578    2.2532    0.0018 N   0  0  0  0  0  0  0  0  0  0  0  0
    4.6330   -0.0301   -0.0003 N   0  0  0  0  0  0  0  0  0  0  0  0
   -1.0116   -0.1899    0.0003 C   0  0  0  0  0  0  0  0  0  0  0  0
    0.4344   -0.1481    0.0000 C   0  0  0  0  0  0  0  0  0  0  0  0
   -1.7738    0.9806    0.0014 C   0  0  0  0  0  0  0  0  0  0  0  0
    1.1312   -0.1264   -1.2080 C   0  0  0  0  0  0  0  0  0  0  0  0
    1.1317   -0.1307    1.2080 C   0  0  0  0  0  0  0  0  0  0  0  0
   -1.6500   -1.4322   -0.0011 C   0  0  0  0  0  0  0  0  0  0  0  0
    3.2230   -0.0697   -0.0003 C   0  0  0  0  0  0  0  0  0  0  0  0
    2.5255   -0.0873   -1.2082 C   0  0  0  0  0  0  0  0  0  0  0  0
    2.5261   -0.0914    1.2079 C   0  0  0  0  0  0  0  0  0  0  0  0
   -3.1670    0.9090    0.0007 C   0  0  0  0  0  0  0  0  0  0  0  0
   -3.0432   -1.5037   -0.0016 C   0  0  0  0  0  0  0  0  0  0  0  0
   -3.8015   -0.3331   -0.0006 C   0  0  0  0  0  0  0  0  0  0  0  0
    0.6030   -0.1394   -2.1585 H   0  0  0  0  0  0  0  0  0  0  0  0
    0.6039   -0.1470    2.1587 H   0  0  0  0  0  0  0  0  0  0  0  0
   -1.0762   -2.3562   -0.0020 H   0  0  0  0  0  0  0  0  0  0  0  0
    3.0571   -0.0706   -2.1562 H   0  0  0  0  0  0  0  0  0  0  0  0
    3.0581   -0.0780    2.1557 H   0  0  0  0  0  0  0  0  0  0  0  0
   -3.7707    1.8130    0.0012 H   0  0  0  0  0  0  0  0  0  0  0  0
   -3.5375   -2.4708   -0.0027 H   0  0  0  0  0  0  0  0  0  0  0  0
   -4.8862   -0.3890   -0.0011 H   0  0  0  0  0  0  0  0  0  0  0  0
   -0.1516    2.3452    0.0042 H   0  0  0  0  0  0  0  0  0  0  0  0
   -1.7317    3.0863    0.0038 H   0  0  0  0  0  0  0  0  0  0  0  0
    5.1390   -0.0180    0.8753 H   0  0  0  0  0  0  0  0  0  0  0  0
    5.1389   -0.0149   -0.8758 H   0  0  0  0  0  0  0  0  0  0  0  0
  1  5  1  0  0  0  0
  1 23  1  0  0  0  0
  1 24  1  0  0  0  0
  2  9  1  0  0  0  0
  2 25  1  0  0  0  0
  2 26  1  0  0  0  0
  3  4  1  0  0  0  0
  3  5  1  0  0  0  0
  3  8  2  0  0  0  0
  4  6  2  0  0  0  0
  4  7  1  0  0  0  0
  5 12  2  0  0  0  0
  6 10  1  0  0  0  0
  6 15  1  0  0  0  0
  7 11  2  0  0  0  0
  7 16  1  0  0  0  0
  8 13  1  0  0  0  0
  8 17  1  0  0  0  0
  9 10  2  0  0  0  0
  9 11  1  0  0  0  0
 10 18  1  0  0  0  0
 11 19  1  0  0  0  0
 12 14  1  0  0  0  0
 12 20  1  0  0  0  0
 13 14  2  0  0  0  0
 13 21  1  0  0  0  0
 14 22  1  0  0  0  0
M  END
> <PUBCHEM_COMPOUND_CID>
10292

> <PUBCHEM_CONFORMER_RMSD>
0.4

> <PUBCHEM_CONFORMER_DIVERSEORDER>
1
2

> <PUBCHEM_MMFF94_PARTIAL_CHARGES>
24
1 -0.9
10 -0.15
11 -0.15
12 -0.15
13 -0.15
14 -0.15
15 0.15
16 0.15
17 0.15
18 0.15
19 0.15
2 -0.9
20 0.15
21 0.15
22 0.15
23 0.4
24 0.4
25 0.4
26 0.4
5 0.1
6 -0.15
7 -0.15
8 -0.15
9 0.1

> <PUBCHEM_EFFECTIVE_ROTOR_COUNT>
1

> <PUBCHEM_PHARMACOPHORE_FEATURES>
6
1 1 cation
1 1 donor
1 2 cation
1 2 donor
6 3 5 8 12 13 14 rings
6 4 6 7 9 10 11 rings

> <PUBCHEM_HEAVY_ATOM_COUNT>
14

> <PUBCHEM_ATOM_DEF_STEREO_COUNT>
0

> <PUBCHEM_ATOM_UDEF_STEREO_COUNT>
0

> <PUBCHEM_BOND_DEF_STEREO_COUNT>
0

> <PUBCHEM_BOND_UDEF_STEREO_COUNT>
0

> <PUBCHEM_ISOTOPIC_ATOM_COUNT>
0

> <PUBCHEM_COMPONENT_COUNT>
1

> <PUBCHEM_CACTVS_TAUTO_COUNT>
1

> <PUBCHEM_CONFORMER_ID>
0000283400000001

> <PUBCHEM_MMFF94_ENERGY>
65.5376

> <PUBCHEM_FEATURE_SELFOVERLAP>
30.446

> <PUBCHEM_SHAPE_FINGERPRINT>
10465860 250 18041002868917837506
11471102 20 15936410048372548698
11578080 2 17343259309148757420
12236239 1 17704072897556834899
124424 183 17822014237351336674
13538477 17 18059859450062775819
13581323 91 18412267246064603290
14144814 61 17560803242407197851
14993402 34 17346600763777020822
15219456 202 17676202506817443086
15653759 3 18186524301984297546
15775835 57 17846498166278181893
16945 1 18410574007074693509
17844478 74 17603581932761355233
18175812 5 17749112153620988341
18186145 218 16988562372829011094
19049666 15 17605546867350991790
200 152 16559034870052040235
20201158 50 17458059378312843798
20279233 1 17676485046967278631
20510252 161 18262234533885072497
20645464 45 17821446855049649135
20645476 183 17775569719612169635
20645477 70 16226603125488388748
21639500 275 15984532296254535470
23402539 116 18408893940042735671
23557571 272 18260259772315206332
23559900 14 18261671584253255102
2748010 2 18193287295265227049
474 4 17201911528011466740
6333449 129 18260550034915940679
7364860 26 17973162829364067657
77492 1 17704071797992427107
81228 2 18336250349658198817

> <PUBCHEM_SHAPE_MULTIPOLES>
278.15
6.8
1.36
1.04
2.33
0.38
0
-0.62
0
-1.39
0
0.8
-0.05
0

> <PUBCHEM_SHAPE_SELFOVERLAP>
605.807

> <PUBCHEM_SHAPE_VOLUME>
150.6

> <PUBCHEM_COORDINATE_TYPE>
2
5
10

$$$$

