442668
  -OEChem-07051212592D

 35 38  0     0  0  0  0  0  0999 V2000
    5.5022   -2.0877    0.0000 O   0  0  0  0  0  0  0  0  0  0  0  0
    9.0744   -0.2483    0.0000 O   0  0  0  0  0  0  0  0  0  0  0  0
    9.0744   -1.8578    0.0000 O   0  0  0  0  0  0  0  0  0  0  0  0
    7.2622    0.9469    0.0000 O   0  0  0  0  0  0  0  0  0  0  0  0
    5.5138    0.9815    0.0000 O   0  0  0  0  0  0  0  0  0  0  0  0
    4.6038    1.4677    0.0000 O   0  0  0  0  0  0  0  0  0  0  0  0
    6.3961   -0.5531    0.0000 C   0  0  0  0  0  0  0  0  0  0  0  0
    6.3961   -1.5531    0.0000 C   0  0  0  0  0  0  0  0  0  0  0  0
    7.2622   -0.0531    0.0000 C   0  0  0  0  0  0  0  0  0  0  0  0
    8.1282   -0.5531    0.0000 C   0  0  0  0  0  0  0  0  0  0  0  0
    8.1282   -1.5531    0.0000 C   0  0  0  0  0  0  0  0  0  0  0  0
    5.5022   -0.0184    0.0000 C   0  0  0  0  0  0  0  0  0  0  0  0
    7.2622   -2.0531    0.0000 C   0  0  0  0  0  0  0  0  0  0  0  0
    4.5961   -0.5323    0.0000 C   0  0  0  0  0  0  0  0  0  0  0  0
    3.7320   -0.0289    0.0000 C   0  0  0  0  0  0  0  0  0  0  0  0
    9.6580   -1.0531    0.0000 C   0  0  0  0  0  0  0  0  0  0  0  0
    4.5961   -1.5739    0.0000 C   0  0  0  0  0  0  0  0  0  0  0  0
    3.7359    0.9711    0.0000 C   0  0  0  0  0  0  0  0  0  0  0  0
    2.8641   -0.5256    0.0000 C   0  0  0  0  0  0  0  0  0  0  0  0
    2.8718    1.4744    0.0000 C   0  0  0  0  0  0  0  0  0  0  0  0
    2.0000   -0.0222    0.0000 C   0  0  0  0  0  0  0  0  0  0  0  0
    8.1282    1.4469    0.0000 C   0  0  0  0  0  0  0  0  0  0  0  0
    2.0038    0.9778    0.0000 C   0  0  0  0  0  0  0  0  0  0  0  0
    7.2622   -2.6731    0.0000 H   0  0  0  0  0  0  0  0  0  0  0  0
   10.1189   -1.4678    0.0000 H   0  0  0  0  0  0  0  0  0  0  0  0
   10.1189   -0.6383    0.0000 H   0  0  0  0  0  0  0  0  0  0  0  0
    4.0604   -1.8860    0.0000 H   0  0  0  0  0  0  0  0  0  0  0  0
    2.8617   -1.1456    0.0000 H   0  0  0  0  0  0  0  0  0  0  0  0
    2.8742    2.0944    0.0000 H   0  0  0  0  0  0  0  0  0  0  0  0
    1.4619   -0.3302    0.0000 H   0  0  0  0  0  0  0  0  0  0  0  0
    8.4382    0.9100    0.0000 H   0  0  0  0  0  0  0  0  0  0  0  0
    8.6651    1.7569    0.0000 H   0  0  0  0  0  0  0  0  0  0  0  0
    7.8182    1.9839    0.0000 H   0  0  0  0  0  0  0  0  0  0  0  0
    1.4681    1.2898    0.0000 H   0  0  0  0  0  0  0  0  0  0  0  0
    4.6062    2.0877    0.0000 H   0  0  0  0  0  0  0  0  0  0  0  0
  1  8  1  0  0  0  0
  1 17  1  0  0  0  0
  2 10  1  0  0  0  0
  2 16  1  0  0  0  0
  3 11  1  0  0  0  0
  3 16  1  0  0  0  0
  4  9  1  0  0  0  0
  4 22  1  0  0  0  0
  5 12  2  0  0  0  0
  6 18  1  0  0  0  0
  6 35  1  0  0  0  0
  7  8  1  0  0  0  0
  7  9  2  0  0  0  0
  7 12  1  0  0  0  0
  8 13  2  0  0  0  0
  9 10  1  0  0  0  0
 10 11  2  0  0  0  0
 11 13  1  0  0  0  0
 12 14  1  0  0  0  0
 13 24  1  0  0  0  0
 14 15  1  0  0  0  0
 14 17  2  0  0  0  0
 15 18  1  0  0  0  0
 15 19  2  0  0  0  0
 16 25  1  0  0  0  0
 16 26  1  0  0  0  0
 17 27  1  0  0  0  0
 18 20  2  0  0  0  0
 19 21  1  0  0  0  0
 19 28  1  0  0  0  0
 20 23  1  0  0  0  0
 20 29  1  0  0  0  0
 21 23  2  0  0  0  0
 21 30  1  0  0  0  0
 22 31  1  0  0  0  0
 22 32  1  0  0  0  0
 22 33  1  0  0  0  0
 23 34  1  0  0  0  0
M  END
> <PUBCHEM_COMPOUND_CID>
442668

> <PUBCHEM_COMPOUND_CANONICALIZED>
1

> <PUBCHEM_CACTVS_COMPLEXITY>
503

> <PUBCHEM_CACTVS_HBOND_ACCEPTOR>
6

> <PUBCHEM_CACTVS_HBOND_DONOR>
1

> <PUBCHEM_CACTVS_ROTATABLE_BOND>
2

> <PUBCHEM_CACTVS_SUBSKEYS>
AAADccB4OAAAAAAAAAAAAAAAAAAAASAAAAAwYIAAAAAAAEiBQAAAGgAACAAADASgmAMyDoAABgCIAqBSAAACCAAkIAAIiAEGiMgdJzaGNRqgcWIl4BUOuYfK7PzOIQABCAAIQABCAAIQABCAAAAAAAAAAA==

> <PUBCHEM_IUPAC_OPENEYE_NAME>
7-(2-hydroxyphenyl)-9-methoxy-[1,3]dioxolo[4,5-g]chromen-8-one

> <PUBCHEM_IUPAC_CAS_NAME>
7-(2-hydroxyphenyl)-9-methoxy-[1,3]dioxolo[4,5-g][1]benzopyran-8-one

> <PUBCHEM_IUPAC_NAME>
7-(2-hydroxyphenyl)-9-methoxy-[1,3]dioxolo[4,5-g]chromen-8-one

> <PUBCHEM_IUPAC_SYSTEMATIC_NAME>
7-(2-hydroxyphenyl)-9-methoxy-[1,3]dioxolo[4,5-g]chromen-8-one

> <PUBCHEM_IUPAC_TRADITIONAL_NAME>
7-(2-hydroxyphenyl)-9-methoxy-[1,3]dioxolo[4,5-g]chromen-8-one

> <PUBCHEM_IUPAC_INCHI>
InChI=1S/C17H12O6/c1-20-17-14-12(6-13-16(17)23-8-22-13)21-7-10(15(14)19)9-4-2-3-5-11(9)18/h2-7,18H,8H2,1H3

> <PUBCHEM_IUPAC_INCHIKEY>
NDVRQFZUJRMKKP-UHFFFAOYSA-N

> <PUBCHEM_XLOGP3_AA>
2.6

> <PUBCHEM_EXACT_MASS>
312.063388

> <PUBCHEM_MOLECULAR_FORMULA>
C17H12O6

> <PUBCHEM_MOLECULAR_WEIGHT>
312.27358

> <PUBCHEM_OPENEYE_CAN_SMILES>
COC1=C2C(=CC3=C1OCO3)OC=C(C2=O)C4=CC=CC=C4O

> <PUBCHEM_OPENEYE_ISO_SMILES>
COC1=C2C(=CC3=C1OCO3)OC=C(C2=O)C4=CC=CC=C4O

> <PUBCHEM_CACTVS_TPSA>
74.2

> <PUBCHEM_MONOISOTOPIC_WEIGHT>
312.063388

> <PUBCHEM_TOTAL_CHARGE>
0

> <PUBCHEM_HEAVY_ATOM_COUNT>
23

> <PUBCHEM_ATOM_DEF_STEREO_COUNT>
0

> <PUBCHEM_ATOM_UDEF_STEREO_COUNT>
0

> <PUBCHEM_BOND_DEF_STEREO_COUNT>
0

> <PUBCHEM_BOND_UDEF_STEREO_COUNT>
0

> <PUBCHEM_ISOTOPIC_ATOM_COUNT>
0

> <PUBCHEM_COMPONENT_COUNT>
1

> <PUBCHEM_CACTVS_TAUTO_COUNT>
3

> <PUBCHEM_COORDINATE_TYPE>
1
5
255

> <PUBCHEM_BONDANNOTATIONS>
1  17  8
1  8  8
10  11  8
11  13  8
12  14  8
14  17  8
15  18  8
15  19  8
18  20  8
19  21  8
20  23  8
21  23  8
7  12  8
7  8  8
7  9  8
8  13  8
9  10  8

$$$$

