176448
  -OEChem-07051212543D

 19 20  0     1  0  0  0  0  0999 V2000
   -1.5523    2.0891   -0.7841 O   0  0  0  0  0  0  0  0  0  0  0  0
   -1.6271   -2.2569   -0.1487 O   0  0  0  0  0  0  0  0  0  0  0  0
   -1.2388    1.2935    0.3501 C   0  0  1  0  0  0  0  0  0  0  0  0
   -2.1653    0.0618    0.3815 C   0  0  0  0  0  0  0  0  0  0  0  0
    0.1342    0.7102    0.2102 C   0  0  0  0  0  0  0  0  0  0  0  0
    0.1140   -0.6645    0.0057 C   0  0  0  0  0  0  0  0  0  0  0  0
   -1.2707   -1.1082    0.0403 C   0  0  0  0  0  0  0  0  0  0  0  0
    1.3457    1.3829    0.2324 C   0  0  0  0  0  0  0  0  0  0  0  0
    1.2590   -1.4163   -0.1806 C   0  0  0  0  0  0  0  0  0  0  0  0
    2.5225    0.6490    0.0496 C   0  0  0  0  0  0  0  0  0  0  0  0
    2.4788   -0.7406   -0.1563 C   0  0  0  0  0  0  0  0  0  0  0  0
   -1.3364    1.8964    1.2587 H   0  0  0  0  0  0  0  0  0  0  0  0
   -2.9856    0.1318   -0.3384 H   0  0  0  0  0  0  0  0  0  0  0  0
   -2.5580   -0.0992    1.3910 H   0  0  0  0  0  0  0  0  0  0  0  0
    1.3873    2.4565    0.3835 H   0  0  0  0  0  0  0  0  0  0  0  0
    1.2209   -2.4882   -0.3366 H   0  0  0  0  0  0  0  0  0  0  0  0
    3.4823    1.1586    0.0638 H   0  0  0  0  0  0  0  0  0  0  0  0
    3.4048   -1.2915   -0.2972 H   0  0  0  0  0  0  0  0  0  0  0  0
   -2.4637    2.4095   -0.6722 H   0  0  0  0  0  0  0  0  0  0  0  0
  1  3  1  0  0  0  0
  1 19  1  0  0  0  0
  2  7  2  0  0  0  0
  3  4  1  0  0  0  0
  3  5  1  0  0  0  0
  3 12  1  0  0  0  0
  4  7  1  0  0  0  0
  4 13  1  0  0  0  0
  4 14  1  0  0  0  0
  5  6  1  0  0  0  0
  5  8  2  0  0  0  0
  6  7  1  0  0  0  0
  6  9  2  0  0  0  0
  8 10  1  0  0  0  0
  8 15  1  0  0  0  0
  9 11  1  0  0  0  0
  9 16  1  0  0  0  0
 10 11  2  0  0  0  0
 10 17  1  0  0  0  0
 11 18  1  0  0  0  0
M  END
> <PUBCHEM_COMPOUND_CID>
176448

> <PUBCHEM_CONFORMER_RMSD>
0.4

> <PUBCHEM_CONFORMER_DIVERSEORDER>
1

> <PUBCHEM_MMFF94_PARTIAL_CHARGES>
16
1 -0.68
10 -0.15
11 -0.15
15 0.15
16 0.15
17 0.15
18 0.15
19 0.4
2 -0.57
3 0.42
4 0.06
5 -0.14
6 0.09
7 0.42
8 -0.15
9 -0.15

> <PUBCHEM_EFFECTIVE_ROTOR_COUNT>
0.4

> <PUBCHEM_PHARMACOPHORE_FEATURES>
5
1 1 acceptor
1 1 donor
1 2 acceptor
5 3 4 5 6 7 rings
6 5 6 8 9 10 11 rings

> <PUBCHEM_HEAVY_ATOM_COUNT>
11

> <PUBCHEM_ATOM_DEF_STEREO_COUNT>
0

> <PUBCHEM_ATOM_UDEF_STEREO_COUNT>
1

> <PUBCHEM_BOND_DEF_STEREO_COUNT>
0

> <PUBCHEM_BOND_UDEF_STEREO_COUNT>
0

> <PUBCHEM_ISOTOPIC_ATOM_COUNT>
0

> <PUBCHEM_COMPONENT_COUNT>
1

> <PUBCHEM_CACTVS_TAUTO_COUNT>
2

> <PUBCHEM_CONFORMER_ID>
0002B14000000001

> <PUBCHEM_MMFF94_ENERGY>
26.2841

> <PUBCHEM_FEATURE_SELFOVERLAP>
25.451

> <PUBCHEM_SHAPE_FINGERPRINT>
1 1 17764031663295646589
11206711 2 18410290272760575804
12138202 97 18200043952567217940
12423570 1 5080133909545812124
12524768 44 18409441462521309995
12897270 3 18337671893348353838
16945 1 18410573989541383528
17844478 74 18201137923950945641
18185500 45 17903918859605683486
21040471 1 18266459987003186336
21501502 16 18409166589004064498
23552423 10 18270396084069830478
23559900 14 18116986897005825134
241688 4 18267304227107202643
25 1 17477490171385529957
2748010 2 18049999192798342094
369184 2 18412263947577082442
5084963 1 18333732446149203096
5255222 1 18408885126791209400
528886 8 18336549291828779562
66348 1 17832987144099832594

> <PUBCHEM_SHAPE_MULTIPOLES>
214.64
3.22
2.09
0.68
0.92
0.17
0.02
0.02
0.01
-0.73
0.24
-0.08
-0.12
0.21

> <PUBCHEM_SHAPE_SELFOVERLAP>
469.748

> <PUBCHEM_SHAPE_VOLUME>
118.8

> <PUBCHEM_COORDINATE_TYPE>
2
5
10

$$$$

