56928134
  -OEChem-07051213152D

 66 65  0     1  0  0  0  0  0999 V2000
    3.4030    1.8100    0.0000 P   0  0  3  0  0  0  0  0  0  0  0  0
    7.7331    3.3100    0.0000 O   0  0  0  0  0  0  0  0  0  0  0  0
    4.2690    2.3100    0.0000 O   0  0  0  0  0  0  0  0  0  0  0  0
    2.5369    1.3100    0.0000 O   0  0  0  0  0  0  0  0  0  0  0  0
    2.9030    2.6760    0.0000 O   0  5  0  0  0  0  0  0  0  0  0  0
    3.9030    0.9440    0.0000 O   0  0  0  0  0  0  0  0  0  0  0  0
    6.8671    1.8100    0.0000 N   0  0  0  0  0  0  0  0  0  0  0  0
    7.7331   -0.6900    0.0000 C   0  0  0  0  0  0  0  0  0  0  0  0
    6.8671   -1.1900    0.0000 C   0  0  0  0  0  0  0  0  0  0  0  0
    8.5991   -1.1900    0.0000 C   0  0  0  0  0  0  0  0  0  0  0  0
    6.0010   -0.6900    0.0000 C   0  0  0  0  0  0  0  0  0  0  0  0
    9.4651    2.3100    0.0000 C   0  0  0  0  0  0  0  0  0  0  0  0
    8.5991    1.8100    0.0000 C   0  0  0  0  0  0  0  0  0  0  0  0
   10.3312    1.8100    0.0000 C   0  0  0  0  0  0  0  0  0  0  0  0
    8.5991   -2.1900    0.0000 C   0  0  0  0  0  0  0  0  0  0  0  0
    5.1350   -1.1900    0.0000 C   0  0  0  0  0  0  0  0  0  0  0  0
    7.7331    2.3100    0.0000 C   0  0  0  0  0  0  0  0  0  0  0  0
   11.1972    2.3100    0.0000 C   0  0  0  0  0  0  0  0  0  0  0  0
    9.4651   -2.6900    0.0000 C   0  0  0  0  0  0  0  0  0  0  0  0
   10.3312   -2.1900    0.0000 C   0  0  0  0  0  0  0  0  0  0  0  0
    6.0010    2.3100    0.0000 C   0  0  0  0  0  0  0  0  0  0  0  0
   12.0632    1.8100    0.0000 C   0  0  0  0  0  0  0  0  0  0  0  0
   12.0632    0.8100    0.0000 C   0  0  0  0  0  0  0  0  0  0  0  0
    5.1350    1.8100    0.0000 C   0  0  0  0  0  0  0  0  0  0  0  0
   11.1972   -2.6900    0.0000 C   0  0  0  0  0  0  0  0  0  0  0  0
   12.0632   -1.1900    0.0000 C   0  0  0  0  0  0  0  0  0  0  0  0
   12.9292    0.3100    0.0000 C   0  0  0  0  0  0  0  0  0  0  0  0
   12.0632   -2.1900    0.0000 C   0  0  0  0  0  0  0  0  0  0  0  0
   12.9292   -0.6900    0.0000 C   0  0  0  0  0  0  0  0  0  0  0  0
    8.1316   -0.2151    0.0000 H   0  0  0  0  0  0  0  0  0  0  0  0
    7.3346   -0.2151    0.0000 H   0  0  0  0  0  0  0  0  0  0  0  0
    6.4685   -1.6650    0.0000 H   0  0  0  0  0  0  0  0  0  0  0  0
    7.2656   -1.6650    0.0000 H   0  0  0  0  0  0  0  0  0  0  0  0
    9.2097   -1.2977    0.0000 H   0  0  0  0  0  0  0  0  0  0  0  0
    8.8112   -0.6074    0.0000 H   0  0  0  0  0  0  0  0  0  0  0  0
    6.3996   -0.2151    0.0000 H   0  0  0  0  0  0  0  0  0  0  0  0
    5.6025   -0.2151    0.0000 H   0  0  0  0  0  0  0  0  0  0  0  0
    9.8637    2.7849    0.0000 H   0  0  0  0  0  0  0  0  0  0  0  0
    9.0666    2.7849    0.0000 H   0  0  0  0  0  0  0  0  0  0  0  0
    8.2006    1.3350    0.0000 H   0  0  0  0  0  0  0  0  0  0  0  0
    8.9976    1.3350    0.0000 H   0  0  0  0  0  0  0  0  0  0  0  0
    9.9326    1.3350    0.0000 H   0  0  0  0  0  0  0  0  0  0  0  0
   10.7297    1.3350    0.0000 H   0  0  0  0  0  0  0  0  0  0  0  0
    8.0622   -2.5000    0.0000 H   0  0  0  0  0  0  0  0  0  0  0  0
    4.8250   -0.6531    0.0000 H   0  0  0  0  0  0  0  0  0  0  0  0
    4.5981   -1.5000    0.0000 H   0  0  0  0  0  0  0  0  0  0  0  0
    5.4450   -1.7269    0.0000 H   0  0  0  0  0  0  0  0  0  0  0  0
   11.1972    2.9300    0.0000 H   0  0  0  0  0  0  0  0  0  0  0  0
    9.4651   -3.3100    0.0000 H   0  0  0  0  0  0  0  0  0  0  0  0
   10.7297   -1.7150    0.0000 H   0  0  0  0  0  0  0  0  0  0  0  0
    9.9326   -1.7150    0.0000 H   0  0  0  0  0  0  0  0  0  0  0  0
    6.8671    1.1900    0.0000 H   0  0  0  0  0  0  0  0  0  0  0  0
    6.3996    2.7849    0.0000 H   0  0  0  0  0  0  0  0  0  0  0  0
    5.6025    2.7849    0.0000 H   0  0  0  0  0  0  0  0  0  0  0  0
   12.6002    2.1200    0.0000 H   0  0  0  0  0  0  0  0  0  0  0  0
   11.4526    0.9177    0.0000 H   0  0  0  0  0  0  0  0  0  0  0  0
   11.8512    0.2274    0.0000 H   0  0  0  0  0  0  0  0  0  0  0  0
    4.7365    1.3350    0.0000 H   0  0  0  0  0  0  0  0  0  0  0  0
    5.5335    1.3350    0.0000 H   0  0  0  0  0  0  0  0  0  0  0  0
   11.1972   -3.3100    0.0000 H   0  0  0  0  0  0  0  0  0  0  0  0
   11.8512   -0.6074    0.0000 H   0  0  0  0  0  0  0  0  0  0  0  0
   11.4526   -1.2977    0.0000 H   0  0  0  0  0  0  0  0  0  0  0  0
   13.4662    0.6200    0.0000 H   0  0  0  0  0  0  0  0  0  0  0  0
   12.6002   -2.5000    0.0000 H   0  0  0  0  0  0  0  0  0  0  0  0
   13.4662   -1.0000    0.0000 H   0  0  0  0  0  0  0  0  0  0  0  0
    2.0000    1.6200    0.0000 H   0  0  0  0  0  0  0  0  0  0  0  0
  1  3  1  0  0  0  0
  1  4  1  0  0  0  0
  1  5  1  0  0  0  0
  1  6  2  0  0  0  0
  2 17  2  0  0  0  0
  3 24  1  0  0  0  0
  4 66  1  0  0  0  0
  7 17  1  0  0  0  0
  7 21  1  0  0  0  0
  7 52  1  0  0  0  0
  8  9  1  0  0  0  0
  8 10  1  0  0  0  0
  8 30  1  0  0  0  0
  8 31  1  0  0  0  0
  9 11  1  0  0  0  0
  9 32  1  0  0  0  0
  9 33  1  0  0  0  0
 10 15  1  0  0  0  0
 10 34  1  0  0  0  0
 10 35  1  0  0  0  0
 11 16  1  0  0  0  0
 11 36  1  0  0  0  0
 11 37  1  0  0  0  0
 12 13  1  0  0  0  0
 12 14  1  0  0  0  0
 12 38  1  0  0  0  0
 12 39  1  0  0  0  0
 13 17  1  0  0  0  0
 13 40  1  0  0  0  0
 13 41  1  0  0  0  0
 14 18  1  0  0  0  0
 14 42  1  0  0  0  0
 14 43  1  0  0  0  0
 15 19  2  0  0  0  0
 15 44  1  0  0  0  0
 16 45  1  0  0  0  0
 16 46  1  0  0  0  0
 16 47  1  0  0  0  0
 18 22  2  0  0  0  0
 18 48  1  0  0  0  0
 19 20  1  0  0  0  0
 19 49  1  0  0  0  0
 20 25  1  0  0  0  0
 20 50  1  0  0  0  0
 20 51  1  0  0  0  0
 21 24  1  0  0  0  0
 21 53  1  0  0  0  0
 21 54  1  0  0  0  0
 22 23  1  0  0  0  0
 22 55  1  0  0  0  0
 23 27  1  0  0  0  0
 23 56  1  0  0  0  0
 23 57  1  0  0  0  0
 24 58  1  0  0  0  0
 24 59  1  0  0  0  0
 25 28  2  0  0  0  0
 25 60  1  0  0  0  0
 26 28  1  0  0  0  0
 26 29  1  0  0  0  0
 26 61  1  0  0  0  0
 26 62  1  0  0  0  0
 27 29  2  0  0  0  0
 27 63  1  0  0  0  0
 28 64  1  0  0  0  0
 29 65  1  0  0  0  0
M  CHG  1   5  -1
M  END
> <PUBCHEM_COMPOUND_CID>
56928134

> <PUBCHEM_COMPOUND_CANONICALIZED>
1

> <PUBCHEM_CACTVS_COMPLEXITY>
561

> <PUBCHEM_CACTVS_HBOND_ACCEPTOR>
5

> <PUBCHEM_CACTVS_HBOND_DONOR>
2

> <PUBCHEM_CACTVS_ROTATABLE_BOND>
18

> <PUBCHEM_CACTVS_SUBSKEYS>
AAADcfB6OAIAAAAAAAAAAAAAAAAAAAAAAAAAAAAAAAAAAAAAAAAAHgAQCCAACADhgAYCAALAARCIQCFSEIAAAAAgAAAICIEIAAgCABIAgQAEAAAAlgCYAAMYAAAAAAAAAAAAAAAAAAAAAAAAAAAAAAAAAA==

> <PUBCHEM_IUPAC_OPENEYE_NAME>
2-[[(5Z,8Z,11Z,14Z)-icosa-5,8,11,14-tetraenoyl]amino]ethyl hydrogen phosphate

> <PUBCHEM_IUPAC_CAS_NAME>
2-[[(5Z,8Z,11Z,14Z)-1-oxoeicosa-5,8,11,14-tetraenyl]amino]ethyl hydrogen phosphate

> <PUBCHEM_IUPAC_NAME>
2-[[(5Z,8Z,11Z,14Z)-icosa-5,8,11,14-tetraenoyl]amino]ethyl hydrogen phosphate

> <PUBCHEM_IUPAC_SYSTEMATIC_NAME>
2-[[(5Z,8Z,11Z,14Z)-icosa-5,8,11,14-tetraenoyl]amino]ethyl hydrogen phosphate

> <PUBCHEM_IUPAC_TRADITIONAL_NAME>
2-[[(5Z,8Z,11Z,14Z)-eicosa-5,8,11,14-tetraenoyl]amino]ethyl hydrogen phosphate

> <PUBCHEM_IUPAC_INCHI>
InChI=1S/C22H38NO5P/c1-2-3-4-5-6-7-8-9-10-11-12-13-14-15-16-17-18-19-22(24)23-20-21-28-29(25,26)27/h6-7,9-10,12-13,15-16H,2-5,8,11,14,17-21H2,1H3,(H,23,24)(H2,25,26,27)/p-1/b7-6-,10-9-,13-12-,16-15-

> <PUBCHEM_IUPAC_INCHIKEY>
PZPHIQQEQWCEGG-DOFZRALJSA-M

> <PUBCHEM_XLOGP3_AA>
4.2

> <PUBCHEM_EXACT_MASS>
426.240935

> <PUBCHEM_MOLECULAR_FORMULA>
C22H37NO5P-

> <PUBCHEM_MOLECULAR_WEIGHT>
426.506642

> <PUBCHEM_OPENEYE_CAN_SMILES>
CCCCCC=CCC=CCC=CCC=CCCCC(=O)NCCOP(=O)(O)[O-]

> <PUBCHEM_OPENEYE_ISO_SMILES>
CCCCC/C=C\C/C=C\C/C=C\C/C=C\CCCC(=O)NCCOP(=O)(O)[O-]

> <PUBCHEM_CACTVS_TPSA>
98.7

> <PUBCHEM_MONOISOTOPIC_WEIGHT>
426.240935

> <PUBCHEM_TOTAL_CHARGE>
-1

> <PUBCHEM_HEAVY_ATOM_COUNT>
29

> <PUBCHEM_ATOM_DEF_STEREO_COUNT>
0

> <PUBCHEM_ATOM_UDEF_STEREO_COUNT>
0

> <PUBCHEM_BOND_DEF_STEREO_COUNT>
4

> <PUBCHEM_BOND_UDEF_STEREO_COUNT>
0

> <PUBCHEM_ISOTOPIC_ATOM_COUNT>
0

> <PUBCHEM_COMPONENT_COUNT>
1

> <PUBCHEM_CACTVS_TAUTO_COUNT>
2

> <PUBCHEM_COORDINATE_TYPE>
1
5
255

$$$$

