47205281
  -OEChem-06241222582D

 41 42  0     0  0  0  0  0  0999 V2000
    2.0000   -4.4239    0.0000 O   0  0  0  0  0  0  0  0  0  0  0  0
    5.4641   -1.4239    0.0000 O   0  0  0  0  0  0  0  0  0  0  0  0
    4.5981    3.0761    0.0000 N   0  0  0  0  0  0  0  0  0  0  0  0
    5.4071    3.6639    0.0000 N   0  0  0  0  0  0  0  0  0  0  0  0
    3.7320   -1.4239    0.0000 N   0  0  0  0  0  0  0  0  0  0  0  0
    3.7891    3.6639    0.0000 C   0  0  0  0  0  0  0  0  0  0  0  0
    4.0981    4.6149    0.0000 C   0  0  0  0  0  0  0  0  0  0  0  0
    5.0981    4.6149    0.0000 C   0  0  0  0  0  0  0  0  0  0  0  0
    4.5981    2.0761    0.0000 C   0  0  0  0  0  0  0  0  0  0  0  0
    3.7320    1.5761    0.0000 C   0  0  0  0  0  0  0  0  0  0  0  0
    5.4641    1.5761    0.0000 C   0  0  0  0  0  0  0  0  0  0  0  0
    5.6859    5.4239    0.0000 C   0  0  0  0  0  0  0  0  0  0  0  0
    4.5981    0.0761    0.0000 C   0  0  0  0  0  0  0  0  0  0  0  0
    3.7320   -2.4239    0.0000 C   0  0  0  0  0  0  0  0  0  0  0  0
    2.8660   -2.9239    0.0000 C   0  0  0  0  0  0  0  0  0  0  0  0
    3.7320    0.5761    0.0000 C   0  0  0  0  0  0  0  0  0  0  0  0
    5.4641    0.5761    0.0000 C   0  0  0  0  0  0  0  0  0  0  0  0
    4.5981   -0.9239    0.0000 C   0  0  0  0  0  0  0  0  0  0  0  0
    2.8660   -3.9239    0.0000 C   0  0  0  0  0  0  0  0  0  0  0  0
    2.0000   -5.4239    0.0000 C   0  0  0  0  0  0  0  0  0  0  0  0
    3.2227    3.9160    0.0000 H   0  0  0  0  0  0  0  0  0  0  0  0
    3.4791    3.1269    0.0000 H   0  0  0  0  0  0  0  0  0  0  0  0
    4.1629    5.2315    0.0000 H   0  0  0  0  0  0  0  0  0  0  0  0
    3.4916    4.7438    0.0000 H   0  0  0  0  0  0  0  0  0  0  0  0
    3.1951    1.8861    0.0000 H   0  0  0  0  0  0  0  0  0  0  0  0
    6.0010    1.8861    0.0000 H   0  0  0  0  0  0  0  0  0  0  0  0
    6.1874    5.0595    0.0000 H   0  0  0  0  0  0  0  0  0  0  0  0
    6.0503    5.9255    0.0000 H   0  0  0  0  0  0  0  0  0  0  0  0
    5.1843    5.7884    0.0000 H   0  0  0  0  0  0  0  0  0  0  0  0
    3.9441   -3.0065    0.0000 H   0  0  0  0  0  0  0  0  0  0  0  0
    4.3426   -2.3163    0.0000 H   0  0  0  0  0  0  0  0  0  0  0  0
    2.6540   -2.3413    0.0000 H   0  0  0  0  0  0  0  0  0  0  0  0
    2.2554   -3.0316    0.0000 H   0  0  0  0  0  0  0  0  0  0  0  0
    3.1951    0.2661    0.0000 H   0  0  0  0  0  0  0  0  0  0  0  0
    6.0010    0.2661    0.0000 H   0  0  0  0  0  0  0  0  0  0  0  0
    3.1951   -1.1139    0.0000 H   0  0  0  0  0  0  0  0  0  0  0  0
    3.0781   -4.5065    0.0000 H   0  0  0  0  0  0  0  0  0  0  0  0
    3.4766   -3.8163    0.0000 H   0  0  0  0  0  0  0  0  0  0  0  0
    1.3800   -5.4239    0.0000 H   0  0  0  0  0  0  0  0  0  0  0  0
    2.0000   -6.0439    0.0000 H   0  0  0  0  0  0  0  0  0  0  0  0
    2.6200   -5.4239    0.0000 H   0  0  0  0  0  0  0  0  0  0  0  0
  1 19  1  0  0  0  0
  1 20  1  0  0  0  0
  2 18  2  0  0  0  0
  3  4  1  0  0  0  0
  3  6  1  0  0  0  0
  3  9  1  0  0  0  0
  4  8  2  0  0  0  0
  5 14  1  0  0  0  0
  5 18  1  0  0  0  0
  5 36  1  0  0  0  0
  6  7  1  0  0  0  0
  6 21  1  0  0  0  0
  6 22  1  0  0  0  0
  7  8  1  0  0  0  0
  7 23  1  0  0  0  0
  7 24  1  0  0  0  0
  8 12  1  0  0  0  0
  9 10  2  0  0  0  0
  9 11  1  0  0  0  0
 10 16  1  0  0  0  0
 10 25  1  0  0  0  0
 11 17  2  0  0  0  0
 11 26  1  0  0  0  0
 12 27  1  0  0  0  0
 12 28  1  0  0  0  0
 12 29  1  0  0  0  0
 13 16  2  0  0  0  0
 13 17  1  0  0  0  0
 13 18  1  0  0  0  0
 14 15  1  0  0  0  0
 14 30  1  0  0  0  0
 14 31  1  0  0  0  0
 15 19  1  0  0  0  0
 15 32  1  0  0  0  0
 15 33  1  0  0  0  0
 16 34  1  0  0  0  0
 17 35  1  0  0  0  0
 19 37  1  0  0  0  0
 19 38  1  0  0  0  0
 20 39  1  0  0  0  0
 20 40  1  0  0  0  0
 20 41  1  0  0  0  0
M  END
> <PUBCHEM_COMPOUND_CID>
47205281

> <PUBCHEM_COMPOUND_CANONICALIZED>
1

> <PUBCHEM_CACTVS_COMPLEXITY>
349

> <PUBCHEM_CACTVS_HBOND_ACCEPTOR>
4

> <PUBCHEM_CACTVS_HBOND_DONOR>
1

> <PUBCHEM_CACTVS_ROTATABLE_BOND>
6

> <PUBCHEM_CACTVS_SUBSKEYS>
AAADceBzMAAAAAAAAAAAAAAAAAAAAQAAAAAwAAAAAAAAAAABAAAAHgAYAAAADAjhmAYywILABACoAyVyUACSBAAlAgAYiIE4ZMgIIDLAlZGEIQhingDIyYcYiQCeCAAAAAAAAAAQAAAAAAAAAAAAAAAAAA==

> <PUBCHEM_IUPAC_OPENEYE_NAME>
N-(3-methoxypropyl)-4-(5-methyl-3,4-dihydropyrazol-2-yl)benzamide

> <PUBCHEM_IUPAC_CAS_NAME>
N-(3-methoxypropyl)-4-(5-methyl-3,4-dihydropyrazol-2-yl)benzamide

> <PUBCHEM_IUPAC_NAME>
N-(3-methoxypropyl)-4-(5-methyl-3,4-dihydropyrazol-2-yl)benzamide

> <PUBCHEM_IUPAC_SYSTEMATIC_NAME>
N-(3-methoxypropyl)-4-(5-methyl-3,4-dihydropyrazol-2-yl)benzamide

> <PUBCHEM_IUPAC_TRADITIONAL_NAME>
N-(3-methoxypropyl)-4-(3-methyl-2-pyrazolin-1-yl)benzamide

> <PUBCHEM_IUPAC_INCHI>
InChI=1S/C15H21N3O2/c1-12-8-10-18(17-12)14-6-4-13(5-7-14)15(19)16-9-3-11-20-2/h4-7H,3,8-11H2,1-2H3,(H,16,19)

> <PUBCHEM_IUPAC_INCHIKEY>
ZTPZEWBXBAZJSM-UHFFFAOYSA-N

> <PUBCHEM_XLOGP3_AA>
1.3

> <PUBCHEM_EXACT_MASS>
275.163377

> <PUBCHEM_MOLECULAR_FORMULA>
C15H21N3O2

> <PUBCHEM_MOLECULAR_WEIGHT>
275.34614

> <PUBCHEM_OPENEYE_CAN_SMILES>
CC1=NN(CC1)C2=CC=C(C=C2)C(=O)NCCCOC

> <PUBCHEM_OPENEYE_ISO_SMILES>
CC1=NN(CC1)C2=CC=C(C=C2)C(=O)NCCCOC

> <PUBCHEM_CACTVS_TPSA>
53.9

> <PUBCHEM_MONOISOTOPIC_WEIGHT>
275.163377

> <PUBCHEM_TOTAL_CHARGE>
0

> <PUBCHEM_HEAVY_ATOM_COUNT>
20

> <PUBCHEM_ATOM_DEF_STEREO_COUNT>
0

> <PUBCHEM_ATOM_UDEF_STEREO_COUNT>
0

> <PUBCHEM_BOND_DEF_STEREO_COUNT>
0

> <PUBCHEM_BOND_UDEF_STEREO_COUNT>
0

> <PUBCHEM_ISOTOPIC_ATOM_COUNT>
0

> <PUBCHEM_COMPONENT_COUNT>
1

> <PUBCHEM_CACTVS_TAUTO_COUNT>
2

> <PUBCHEM_COORDINATE_TYPE>
1
5
255

> <PUBCHEM_BONDANNOTATIONS>
10  16  8
11  17  8
13  16  8
13  17  8
9  10  8
9  11  8

$$$$

