108081
  -OEChem-07051213153D

  8  7  0     0  0  0  0  0  0999 V2000
    1.6028   -0.1214    0.1719 O   0  0  0  0  0  0  0  0  0  0  0  0
   -0.4247   -0.4392   -0.1597 N   0  0  0  0  0  0  0  0  0  0  0  0
    0.5480    0.4291   -0.1602 N   0  0  0  0  0  0  0  0  0  0  0  0
   -1.7261    0.1316    0.1480 C   0  0  0  0  0  0  0  0  0  0  0  0
   -2.4889   -0.6523    0.0974 H   0  0  0  0  0  0  0  0  0  0  0  0
   -2.0081    0.9068   -0.5737 H   0  0  0  0  0  0  0  0  0  0  0  0
   -1.7539    0.5592    1.1568 H   0  0  0  0  0  0  0  0  0  0  0  0
   -0.2026   -1.2057    0.4732 H   0  0  0  0  0  0  0  0  0  0  0  0
  1  3  2  0  0  0  0
  2  3  1  0  0  0  0
  2  4  1  0  0  0  0
  2  8  1  0  0  0  0
  4  5  1  0  0  0  0
  4  6  1  0  0  0  0
  4  7  1  0  0  0  0
M  END
> <PUBCHEM_COMPOUND_CID>
108081

> <PUBCHEM_CONFORMER_RMSD>
0.4

> <PUBCHEM_CONFORMER_DIVERSEORDER>
1
2

> <PUBCHEM_MMFF94_PARTIAL_CHARGES>
5
1 -0.16
2 -0.45
3 -0.01
4 0.27
8 0.36

> <PUBCHEM_EFFECTIVE_ROTOR_COUNT>
1

> <PUBCHEM_PHARMACOPHORE_FEATURES>
1
1 2 donor

> <PUBCHEM_HEAVY_ATOM_COUNT>
4

> <PUBCHEM_ATOM_DEF_STEREO_COUNT>
0

> <PUBCHEM_ATOM_UDEF_STEREO_COUNT>
0

> <PUBCHEM_BOND_DEF_STEREO_COUNT>
0

> <PUBCHEM_BOND_UDEF_STEREO_COUNT>
0

> <PUBCHEM_ISOTOPIC_ATOM_COUNT>
0

> <PUBCHEM_COMPONENT_COUNT>
1

> <PUBCHEM_CACTVS_TAUTO_COUNT>
2

> <PUBCHEM_CONFORMER_ID>
0001A63100000001

> <PUBCHEM_MMFF94_ENERGY>
2.3983

> <PUBCHEM_FEATURE_SELFOVERLAP>
5.074

> <PUBCHEM_SHAPE_FINGERPRINT>
139733 1 17967529086385731001
20096714 4 18334573495224672641
21015797 1 9510014159922978085
5460574 1 9223234043887465401

> <PUBCHEM_SHAPE_MULTIPOLES>
66.49
2.12
0.64
0.57
0.13
0.01
-0.01
0.05
-0.2
0.04
0.01
0.05
0
-0.03

> <PUBCHEM_SHAPE_SELFOVERLAP>
110.06

> <PUBCHEM_SHAPE_VOLUME>
46.4

> <PUBCHEM_COORDINATE_TYPE>
2
5
10

$$$$

