372
  -OEChem-07051212483D

 17 17  0     0  0  0  0  0  0999 V2000
   -1.2386   -1.1838   -0.0318 O   0  0  0  0  0  0  0  0  0  0  0  0
    2.4456    1.9767   -0.5600 O   0  0  0  0  0  0  0  0  0  0  0  0
   -0.1319   -3.1670   -0.1173 O   0  0  0  0  0  0  0  0  0  0  0  0
   -3.4550    0.1318    0.0270 O   0  0  0  0  0  0  0  0  0  0  0  0
    3.5289    0.2575    0.5164 O   0  0  0  0  0  0  0  0  0  0  0  0
   -2.4505    2.1985    0.1115 O   0  0  0  0  0  0  0  0  0  0  0  0
    1.2227    0.1109    0.0083 C   0  0  0  0  0  0  0  0  0  0  0  0
    0.0096    0.8768    0.0453 C   0  0  0  0  0  0  0  0  0  0  0  0
   -1.1547    0.2206    0.0244 C   0  0  0  0  0  0  0  0  0  0  0  0
    1.1970   -1.2253   -0.0454 C   0  0  0  0  0  0  0  0  0  0  0  0
   -0.0976   -1.9416   -0.0682 C   0  0  0  0  0  0  0  0  0  0  0  0
    2.5303    0.7701    0.0285 C   0  0  0  0  0  0  0  0  0  0  0  0
   -2.4059    0.9747    0.0615 C   0  0  0  0  0  0  0  0  0  0  0  0
    0.0596    1.9583    0.1022 H   0  0  0  0  0  0  0  0  0  0  0  0
    2.0946   -1.8333   -0.0788 H   0  0  0  0  0  0  0  0  0  0  0  0
    3.3065    2.4469   -0.5659 H   0  0  0  0  0  0  0  0  0  0  0  0
   -4.3125    0.6076    0.0483 H   0  0  0  0  0  0  0  0  0  0  0  0
  1  9  1  0  0  0  0
  1 11  1  0  0  0  0
  2 12  1  0  0  0  0
  2 16  1  0  0  0  0
  3 11  2  0  0  0  0
  4 13  1  0  0  0  0
  4 17  1  0  0  0  0
  5 12  2  0  0  0  0
  6 13  2  0  0  0  0
  7  8  1  0  0  0  0
  7 10  2  0  0  0  0
  7 12  1  0  0  0  0
  8  9  2  0  0  0  0
  8 14  1  0  0  0  0
  9 13  1  0  0  0  0
 10 11  1  0  0  0  0
 10 15  1  0  0  0  0
M  END
> <PUBCHEM_COMPOUND_CID>
372

> <PUBCHEM_CONFORMER_RMSD>
0.6

> <PUBCHEM_CONFORMER_DIVERSEORDER>
1
2

> <PUBCHEM_MMFF94_PARTIAL_CHARGES>
17
1 -0.23
10 -0.14
11 0.71
12 0.71
13 0.71
14 0.15
15 0.15
16 0.5
17 0.5
2 -0.65
3 -0.57
4 -0.65
5 -0.57
6 -0.57
7 0.01
8 -0.15
9 0.09

> <PUBCHEM_EFFECTIVE_ROTOR_COUNT>
2

> <PUBCHEM_PHARMACOPHORE_FEATURES>
8
1 2 acceptor
1 3 acceptor
1 4 acceptor
1 5 acceptor
1 6 acceptor
3 2 5 12 anion
3 4 6 13 anion
6 1 7 8 9 10 11 rings

> <PUBCHEM_HEAVY_ATOM_COUNT>
13

> <PUBCHEM_ATOM_DEF_STEREO_COUNT>
0

> <PUBCHEM_ATOM_UDEF_STEREO_COUNT>
0

> <PUBCHEM_BOND_DEF_STEREO_COUNT>
0

> <PUBCHEM_BOND_UDEF_STEREO_COUNT>
0

> <PUBCHEM_ISOTOPIC_ATOM_COUNT>
0

> <PUBCHEM_COMPONENT_COUNT>
1

> <PUBCHEM_CACTVS_TAUTO_COUNT>
1

> <PUBCHEM_CONFORMER_ID>
0000017400000001

> <PUBCHEM_MMFF94_ENERGY>
35.0033

> <PUBCHEM_FEATURE_SELFOVERLAP>
40.697

> <PUBCHEM_SHAPE_FINGERPRINT>
1 1 18337954626629292950
10465860 228 17974842075751213449
13380535 76 18409732858761834559
14325111 11 18410012169080224849
14648413 74 17979913040684635153
16945 1 18265613169776309438
17990270 104 17979073009469234099
20510252 161 18189612748352457392
20645477 70 18117565252547390517
20871998 184 18046054961100945991
21028194 46 18261111872198733640
21040471 1 18409729538989147274
21524375 3 18410295813004610619
23402539 116 18262532389692554613
23552423 10 18192992853639656045
241688 4 16825022456343622666
2748010 2 18338789104383603255
305870 269 18267589181012697560
3071541 12 18048029971894569550
528862 383 18270689799481996754
7364860 26 17974289021175328663
81228 2 17904208031206129707

> <PUBCHEM_SHAPE_MULTIPOLES>
232.32
4.43
2.53
0.61
0.11
1.58
0
-2.62
0.29
0.17
-0.2
-0.12
-0.04
-0.17

> <PUBCHEM_SHAPE_SELFOVERLAP>
494.498

> <PUBCHEM_SHAPE_VOLUME>
127.9

> <PUBCHEM_COORDINATE_TYPE>
2
5
10

$$$$

