12117
  -OEChem-06261206333D

 30 31  0     0  0  0  0  0  0999 V2000
    1.2787   -1.3565   -0.3156 N   0  0  0  0  0  0  0  0  0  0  0  0
   -0.6151    0.0653    0.0208 N   0  0  0  0  0  0  0  0  0  0  0  0
    2.3708   -0.4799   -0.1320 C   0  0  0  0  0  0  0  0  0  0  0  0
   -0.0828   -1.0968   -0.2563 C   0  0  0  0  0  0  0  0  0  0  0  0
   -2.0021    0.2331    0.0753 C   0  0  0  0  0  0  0  0  0  0  0  0
    3.5741   -0.9655    0.3771 C   0  0  0  0  0  0  0  0  0  0  0  0
    2.2435    0.8685   -0.4611 C   0  0  0  0  0  0  0  0  0  0  0  0
   -0.9570   -2.3218   -0.5168 C   0  0  0  0  0  0  0  0  0  0  0  0
    4.6532   -0.1002    0.5577 C   0  0  0  0  0  0  0  0  0  0  0  0
    3.3225    1.7338   -0.2806 C   0  0  0  0  0  0  0  0  0  0  0  0
   -2.6811    0.0424    1.2787 C   0  0  0  0  0  0  0  0  0  0  0  0
   -2.7069    0.5913   -1.0738 C   0  0  0  0  0  0  0  0  0  0  0  0
    4.5273    1.2494    0.2288 C   0  0  0  0  0  0  0  0  0  0  0  0
   -4.0648    0.2099    1.3331 C   0  0  0  0  0  0  0  0  0  0  0  0
   -4.0906    0.7589   -1.0195 C   0  0  0  0  0  0  0  0  0  0  0  0
   -4.7695    0.5681    0.1840 C   0  0  0  0  0  0  0  0  0  0  0  0
    1.5668   -2.3291   -0.3913 H   0  0  0  0  0  0  0  0  0  0  0  0
    3.6847   -2.0148    0.6381 H   0  0  0  0  0  0  0  0  0  0  0  0
    1.3361    1.2763   -0.8943 H   0  0  0  0  0  0  0  0  0  0  0  0
   -1.5359   -2.5616    0.3795 H   0  0  0  0  0  0  0  0  0  0  0  0
   -1.6341   -2.1302   -1.3535 H   0  0  0  0  0  0  0  0  0  0  0  0
   -0.3493   -3.1949   -0.7719 H   0  0  0  0  0  0  0  0  0  0  0  0
    5.5914   -0.4774    0.9541 H   0  0  0  0  0  0  0  0  0  0  0  0
    3.2279    2.7831   -0.5446 H   0  0  0  0  0  0  0  0  0  0  0  0
   -2.1407   -0.2364    2.1796 H   0  0  0  0  0  0  0  0  0  0  0  0
   -2.1866    0.7427   -2.0161 H   0  0  0  0  0  0  0  0  0  0  0  0
    5.3681    1.9228    0.3675 H   0  0  0  0  0  0  0  0  0  0  0  0
   -4.5935    0.0613    2.2701 H   0  0  0  0  0  0  0  0  0  0  0  0
   -4.6394    1.0379   -1.9143 H   0  0  0  0  0  0  0  0  0  0  0  0
   -5.8470    0.6985    0.2262 H   0  0  0  0  0  0  0  0  0  0  0  0
  1  3  1  0  0  0  0
  1  4  1  0  0  0  0
  1 17  1  0  0  0  0
  2  4  2  0  0  0  0
  2  5  1  0  0  0  0
  3  6  2  0  0  0  0
  3  7  1  0  0  0  0
  4  8  1  0  0  0  0
  5 11  2  0  0  0  0
  5 12  1  0  0  0  0
  6  9  1  0  0  0  0
  6 18  1  0  0  0  0
  7 10  2  0  0  0  0
  7 19  1  0  0  0  0
  8 20  1  0  0  0  0
  8 21  1  0  0  0  0
  8 22  1  0  0  0  0
  9 13  2  0  0  0  0
  9 23  1  0  0  0  0
 10 13  1  0  0  0  0
 10 24  1  0  0  0  0
 11 14  1  0  0  0  0
 11 25  1  0  0  0  0
 12 15  2  0  0  0  0
 12 26  1  0  0  0  0
 13 27  1  0  0  0  0
 14 16  2  0  0  0  0
 14 28  1  0  0  0  0
 15 16  1  0  0  0  0
 15 29  1  0  0  0  0
 16 30  1  0  0  0  0
M  END
> <PUBCHEM_COMPOUND_CID>
12117

> <PUBCHEM_CONFORMER_RMSD>
0.6

> <PUBCHEM_CONFORMER_DIVERSEORDER>
1
5
3
2
6
4

> <PUBCHEM_MMFF94_PARTIAL_CHARGES>
27
1 -0.55
10 -0.15
11 -0.15
12 -0.15
13 -0.15
14 -0.15
15 -0.15
16 -0.15
17 0.4
18 0.15
19 0.15
2 -0.63
23 0.15
24 0.15
25 0.15
26 0.15
27 0.15
28 0.15
29 0.15
3 0.1
30 0.15
4 0.44
5 0.18
6 -0.15
7 -0.15
8 0.06
9 -0.15

> <PUBCHEM_EFFECTIVE_ROTOR_COUNT>
3

> <PUBCHEM_PHARMACOPHORE_FEATURES>
4
1 1 donor
3 1 2 4 cation
6 3 6 7 9 10 13 rings
6 5 11 12 14 15 16 rings

> <PUBCHEM_HEAVY_ATOM_COUNT>
16

> <PUBCHEM_ATOM_DEF_STEREO_COUNT>
0

> <PUBCHEM_ATOM_UDEF_STEREO_COUNT>
0

> <PUBCHEM_BOND_DEF_STEREO_COUNT>
0

> <PUBCHEM_BOND_UDEF_STEREO_COUNT>
0

> <PUBCHEM_ISOTOPIC_ATOM_COUNT>
0

> <PUBCHEM_COMPONENT_COUNT>
1

> <PUBCHEM_CACTVS_TAUTO_COUNT>
1

> <PUBCHEM_CONFORMER_ID>
00002F5500000001

> <PUBCHEM_MMFF94_ENERGY>
58.0225

> <PUBCHEM_FEATURE_SELFOVERLAP>
20.297

> <PUBCHEM_SHAPE_FINGERPRINT>
114248 4 13767929017868351272
11543360 7 14923947821050497200
12119455 92 18342460356797786455
12236239 1 17530966916952007061
12251169 10 18343302557124685214
12507557 5 18342738507179919672
12507560 40 17847062194373759668
12616999 72 6411293542455153720
13583140 156 17632302271874866475
13675066 3 17847062181562691206
14123260 362 17676481735594842667
14897335 6 18334016077426590006
15188451 53 15841268134805751209
15342168 16 18334001796776323229
15653759 3 17203608194152662780
16988056 13 13999517271232614601
18186145 218 18260541255670614902
18222031 100 13326568527871856467
19489759 90 16630813214259666749
20279233 1 17917424350266757403
20325693 3 14562529587873974993
204376 136 18408602561024804191
20645477 56 18412829062373323644
20645477 70 18340492269670714014
20871999 31 13984660360821767323
21033648 29 18200329782773200508
21033650 10 16227145112139149704
21065199 12 17561081406037963536
21499 59 18260548939599371895
21524375 3 18259705605300873646
22079108 93 18040988519600997643
22854114 59 18343580746045206529
23184049 59 18342457053962635292
23402539 116 17095527313818379992
23559900 14 16916501604794842843
3268164 11 16008754645063338801
351380 180 18060705004606268829
3545911 37 18408882919620955366
4047638 21 18334292072335994306
42 15 16773798112465707928
474 4 18187362151150739615
4921388 177 15068624847004972645
4990 188 4678817237937885444
5104073 3 18339652118733838442
5924683 9 17774436067284064147
602551 16 15626216893106933536
633830 44 17895461644103987535
69090 78 18411141320303697359
83771 10 10879995757028114718

> <PUBCHEM_SHAPE_MULTIPOLES>
319.31
10.51
1.63
1.05
0.97
0.56
-0.14
-3.84
-1.63
0.89
0.33
-1.05
-0.08
-0.01

> <PUBCHEM_SHAPE_SELFOVERLAP>
677.025

> <PUBCHEM_SHAPE_VOLUME>
177

> <PUBCHEM_COORDINATE_TYPE>
2
5
10

$$$$

