582837
  -OEChem-06241222442D

 19 19  0     0  0  0  0  0  0999 V2000
    3.0000    0.5000    0.0000 S   0  0  0  0  0  0  0  0  0  0  0  0
    6.0916    0.4339    0.0000 F   0  0  0  0  0  0  0  0  0  0  0  0
    6.0916   -0.4339    0.0000 F   0  0  0  0  0  0  0  0  0  0  0  0
    4.9793   -1.8759    0.0000 F   0  0  0  0  0  0  0  0  0  0  0  0
    5.6577   -1.3349    0.0000 F   0  0  0  0  0  0  0  0  0  0  0  0
    4.9793    1.8759    0.0000 F   0  0  0  0  0  0  0  0  0  0  0  0
    5.6577    1.3349    0.0000 F   0  0  0  0  0  0  0  0  0  0  0  0
    3.1583   -1.9053    0.0000 F   0  0  0  0  0  0  0  0  0  0  0  0
    4.0043   -2.0984    0.0000 F   0  0  0  0  0  0  0  0  0  0  0  0
    3.1583    1.9053    0.0000 F   0  0  0  0  0  0  0  0  0  0  0  0
    4.0043    2.0984    0.0000 F   0  0  0  0  0  0  0  0  0  0  0  0
    2.0000   -0.5000    0.0000 F   0  0  0  0  0  0  0  0  0  0  0  0
    2.3765   -1.2818    0.0000 F   0  0  0  0  0  0  0  0  0  0  0  0
    5.1906    0.0000    0.0000 C   0  0  0  0  0  0  0  0  0  0  0  0
    4.7568   -0.9010    0.0000 C   0  0  0  0  0  0  0  0  0  0  0  0
    4.7568    0.9010    0.0000 C   0  0  0  0  0  0  0  0  0  0  0  0
    3.7818   -1.1235    0.0000 C   0  0  0  0  0  0  0  0  0  0  0  0
    3.7818    1.1235    0.0000 C   0  0  0  0  0  0  0  0  0  0  0  0
    3.0000   -0.5000    0.0000 C   0  0  0  0  0  0  0  0  0  0  0  0
  1 18  1  0  0  0  0
  1 19  1  0  0  0  0
  2 14  1  0  0  0  0
  3 14  1  0  0  0  0
  4 15  1  0  0  0  0
  5 15  1  0  0  0  0
  6 16  1  0  0  0  0
  7 16  1  0  0  0  0
  8 17  1  0  0  0  0
  9 17  1  0  0  0  0
 10 18  1  0  0  0  0
 11 18  1  0  0  0  0
 12 19  1  0  0  0  0
 13 19  1  0  0  0  0
 14 15  1  0  0  0  0
 14 16  1  0  0  0  0
 15 17  1  0  0  0  0
 16 18  1  0  0  0  0
 17 19  1  0  0  0  0
M  END
> <PUBCHEM_COMPOUND_CID>
582837

> <PUBCHEM_COMPOUND_CANONICALIZED>
1

> <PUBCHEM_CACTVS_COMPLEXITY>
348

> <PUBCHEM_CACTVS_HBOND_ACCEPTOR>
13

> <PUBCHEM_CACTVS_HBOND_DONOR>
0

> <PUBCHEM_CACTVS_ROTATABLE_BOND>
0

> <PUBCHEM_CACTVS_SUBSKEYS>
AAADcQBgAcBAAAAAAAAAAAAAAAAAAAAAAAAAAAAABIAAAAAAAAAACQQAAAAACAAAQBAAAAAAAAgAAAAAAAAAAAAAABAAAAAAAAAAAAIgAAAAAAAAAAAgAAEAAAAAAAAAAAAAAAAAAAAAAAAAAAAAAAAAAA==

> <PUBCHEM_IUPAC_OPENEYE_NAME>
2,2,3,3,4,4,5,5,6,6,7,7-dodecafluorothiepane

> <PUBCHEM_IUPAC_CAS_NAME>
2,2,3,3,4,4,5,5,6,6,7,7-dodecafluorothiepane

> <PUBCHEM_IUPAC_NAME>
2,2,3,3,4,4,5,5,6,6,7,7-dodecafluorothiepane

> <PUBCHEM_IUPAC_SYSTEMATIC_NAME>
2,2,3,3,4,4,5,5,6,6,7,7-dodecakis(fluoranyl)thiepane

> <PUBCHEM_IUPAC_TRADITIONAL_NAME>
2,2,3,3,4,4,5,5,6,6,7,7-dodecafluorothiepane

> <PUBCHEM_IUPAC_INCHI>
InChI=1S/C6F12S/c7-1(8)2(9,10)4(13,14)6(17,18)19-5(15,16)3(1,11)12

> <PUBCHEM_IUPAC_INCHIKEY>
OJDBMYBMBYVOEH-UHFFFAOYSA-N

> <PUBCHEM_XLOGP3_AA>
4.9

> <PUBCHEM_EXACT_MASS>
331.95291

> <PUBCHEM_MOLECULAR_FORMULA>
C6F12S

> <PUBCHEM_MOLECULAR_WEIGHT>
332.110038

> <PUBCHEM_OPENEYE_CAN_SMILES>
C1(C(C(C(SC(C1(F)F)(F)F)(F)F)(F)F)(F)F)(F)F

> <PUBCHEM_OPENEYE_ISO_SMILES>
C1(C(C(C(SC(C1(F)F)(F)F)(F)F)(F)F)(F)F)(F)F

> <PUBCHEM_CACTVS_TPSA>
25.3

> <PUBCHEM_MONOISOTOPIC_WEIGHT>
331.95291

> <PUBCHEM_TOTAL_CHARGE>
0

> <PUBCHEM_HEAVY_ATOM_COUNT>
19

> <PUBCHEM_ATOM_DEF_STEREO_COUNT>
0

> <PUBCHEM_ATOM_UDEF_STEREO_COUNT>
0

> <PUBCHEM_BOND_DEF_STEREO_COUNT>
0

> <PUBCHEM_BOND_UDEF_STEREO_COUNT>
0

> <PUBCHEM_ISOTOPIC_ATOM_COUNT>
0

> <PUBCHEM_COMPONENT_COUNT>
1

> <PUBCHEM_CACTVS_TAUTO_COUNT>
1

> <PUBCHEM_COORDINATE_TYPE>
1
5
255

$$$$

