8460
  -OEChem-06261202513D

 56 58  0     0  0  0  0  0  0999 V2000
    0.0015    0.0002   -0.3454 P   0  0  0  0  0  0  0  0  0  0  0  0
   -1.0687    0.9997    0.3463 O   0  0  0  0  0  0  0  0  0  0  0  0
    1.3997    0.4235    0.3474 O   0  0  0  0  0  0  0  0  0  0  0  0
   -0.3314   -1.4223    0.3473 O   0  0  0  0  0  0  0  0  0  0  0  0
    0.0015    0.0002   -1.8485 O   0  0  0  0  0  0  0  0  0  0  0  0
   -2.4210    0.9406    0.1773 C   0  0  0  0  0  0  0  0  0  0  0  0
    2.0271    1.6279    0.1772 C   0  0  0  0  0  0  0  0  0  0  0  0
    0.3977   -2.5679    0.1771 C   0  0  0  0  0  0  0  0  0  0  0  0
   -3.1983    0.1640    1.0367 C   0  0  0  0  0  0  0  0  0  0  0  0
    1.7409    2.6860    1.0361 C   0  0  0  0  0  0  0  0  0  0  0  0
    1.4570   -2.8494    1.0362 C   0  0  0  0  0  0  0  0  0  0  0  0
   -3.0265    1.6565   -0.8555 C   0  0  0  0  0  0  0  0  0  0  0  0
    2.9484    1.7893   -0.8547 C   0  0  0  0  0  0  0  0  0  0  0  0
    0.0767   -3.4465   -0.8547 C   0  0  0  0  0  0  0  0  0  0  0  0
   -4.5809    0.1030    0.8632 C   0  0  0  0  0  0  0  0  0  0  0  0
    2.3799    3.9136    0.8620 C   0  0  0  0  0  0  0  0  0  0  0  0
    2.2004   -4.0167    0.8622 C   0  0  0  0  0  0  0  0  0  0  0  0
   -4.4093    1.5955   -1.0288 C   0  0  0  0  0  0  0  0  0  0  0  0
    3.5874    3.0170   -1.0286 C   0  0  0  0  0  0  0  0  0  0  0  0
    0.8202   -4.6138   -1.0286 C   0  0  0  0  0  0  0  0  0  0  0  0
   -5.1864    0.8187   -0.1694 C   0  0  0  0  0  0  0  0  0  0  0  0
    3.3031    4.0791   -0.1702 C   0  0  0  0  0  0  0  0  0  0  0  0
    1.8820   -4.8989   -0.1700 C   0  0  0  0  0  0  0  0  0  0  0  0
   -2.5686   -0.6100    2.1477 C   0  0  0  0  0  0  0  0  0  0  0  0
    0.7551    2.5289    2.1467 C   0  0  0  0  0  0  0  0  0  0  0  0
    1.8140   -1.9172    2.1469 C   0  0  0  0  0  0  0  0  0  0  0  0
   -2.2116    2.4925   -1.7865 C   0  0  0  0  0  0  0  0  0  0  0  0
    3.2653    0.6648   -1.7846 C   0  0  0  0  0  0  0  0  0  0  0  0
   -1.0554   -3.1584   -1.7848 C   0  0  0  0  0  0  0  0  0  0  0  0
   -5.1971   -0.5003    1.5246 H   0  0  0  0  0  0  0  0  0  0  0  0
    2.1653    4.7495    1.5227 H   0  0  0  0  0  0  0  0  0  0  0  0
    3.0314   -4.2490    1.5230 H   0  0  0  0  0  0  0  0  0  0  0  0
   -4.8942    2.1459   -1.8308 H   0  0  0  0  0  0  0  0  0  0  0  0
    4.3071    3.1608   -1.8303 H   0  0  0  0  0  0  0  0  0  0  0  0
    0.5850   -5.3089   -1.8302 H   0  0  0  0  0  0  0  0  0  0  0  0
   -6.2629    0.7704   -0.3052 H   0  0  0  0  0  0  0  0  0  0  0  0
    3.7998    5.0353   -0.3065 H   0  0  0  0  0  0  0  0  0  0  0  0
    2.4616   -5.8073   -0.3062 H   0  0  0  0  0  0  0  0  0  0  0  0
   -2.4348   -1.6552    1.8540 H   0  0  0  0  0  0  0  0  0  0  0  0
   -3.2087   -0.5863    3.0372 H   0  0  0  0  0  0  0  0  0  0  0  0
   -1.6043   -0.1950    2.4564 H   0  0  0  0  0  0  0  0  0  0  0  0
    0.6308    1.4864    2.4551 H   0  0  0  0  0  0  0  0  0  0  0  0
   -0.2164    2.9371    1.8527 H   0  0  0  0  0  0  0  0  0  0  0  0
    1.0962    3.0708    3.0364 H   0  0  0  0  0  0  0  0  0  0  0  0
    0.9734   -1.2883    2.4554 H   0  0  0  0  0  0  0  0  0  0  0  0
    2.1126   -2.4837    3.0365 H   0  0  0  0  0  0  0  0  0  0  0  0
    2.6533   -1.2801    1.8531 H   0  0  0  0  0  0  0  0  0  0  0  0
   -1.3480    2.9374   -1.2813 H   0  0  0  0  0  0  0  0  0  0  0  0
   -1.8609    1.8881   -2.6282 H   0  0  0  0  0  0  0  0  0  0  0  0
   -2.8017    3.3254   -2.1850 H   0  0  0  0  0  0  0  0  0  0  0  0
    2.5686    0.6644   -2.6280 H   0  0  0  0  0  0  0  0  0  0  0  0
    4.2829    0.7573   -2.1804 H   0  0  0  0  0  0  0  0  0  0  0  0
    3.2156   -0.3054   -1.2793 H   0  0  0  0  0  0  0  0  0  0  0  0
   -1.4841   -4.0858   -2.1806 H   0  0  0  0  0  0  0  0  0  0  0  0
   -1.8707   -2.6299   -1.2797 H   0  0  0  0  0  0  0  0  0  0  0  0
   -0.7071   -2.5549   -2.6283 H   0  0  0  0  0  0  0  0  0  0  0  0
  1  2  1  0  0  0  0
  1  3  1  0  0  0  0
  1  4  1  0  0  0  0
  1  5  2  0  0  0  0
  2  6  1  0  0  0  0
  3  7  1  0  0  0  0
  4  8  1  0  0  0  0
  6  9  2  0  0  0  0
  6 12  1  0  0  0  0
  7 10  2  0  0  0  0
  7 13  1  0  0  0  0
  8 11  2  0  0  0  0
  8 14  1  0  0  0  0
  9 15  1  0  0  0  0
  9 24  1  0  0  0  0
 10 16  1  0  0  0  0
 10 25  1  0  0  0  0
 11 17  1  0  0  0  0
 11 26  1  0  0  0  0
 12 18  2  0  0  0  0
 12 27  1  0  0  0  0
 13 19  2  0  0  0  0
 13 28  1  0  0  0  0
 14 20  2  0  0  0  0
 14 29  1  0  0  0  0
 15 21  2  0  0  0  0
 15 30  1  0  0  0  0
 16 22  2  0  0  0  0
 16 31  1  0  0  0  0
 17 23  2  0  0  0  0
 17 32  1  0  0  0  0
 18 21  1  0  0  0  0
 18 33  1  0  0  0  0
 19 22  1  0  0  0  0
 19 34  1  0  0  0  0
 20 23  1  0  0  0  0
 20 35  1  0  0  0  0
 21 36  1  0  0  0  0
 22 37  1  0  0  0  0
 23 38  1  0  0  0  0
 24 39  1  0  0  0  0
 24 40  1  0  0  0  0
 24 41  1  0  0  0  0
 25 42  1  0  0  0  0
 25 43  1  0  0  0  0
 25 44  1  0  0  0  0
 26 45  1  0  0  0  0
 26 46  1  0  0  0  0
 26 47  1  0  0  0  0
 27 48  1  0  0  0  0
 27 49  1  0  0  0  0
 27 50  1  0  0  0  0
 28 51  1  0  0  0  0
 28 52  1  0  0  0  0
 28 53  1  0  0  0  0
 29 54  1  0  0  0  0
 29 55  1  0  0  0  0
 29 56  1  0  0  0  0
M  END
> <PUBCHEM_COMPOUND_CID>
8460

> <PUBCHEM_CONFORMER_RMSD>
0.8

> <PUBCHEM_CONFORMER_DIVERSEORDER>
2
1

> <PUBCHEM_MMFF94_PARTIAL_CHARGES>
38
1 1.51
10 -0.14
11 -0.14
12 -0.14
13 -0.14
14 -0.14
15 -0.15
16 -0.15
17 -0.15
18 -0.15
19 -0.15
2 -0.35
20 -0.15
21 -0.15
22 -0.15
23 -0.15
24 0.14
25 0.14
26 0.14
27 0.14
28 0.14
29 0.14
3 -0.35
30 0.15
31 0.15
32 0.15
33 0.15
34 0.15
35 0.15
36 0.15
37 0.15
38 0.15
4 -0.35
5 -0.7
6 0.08
7 0.08
8 0.08
9 -0.14

> <PUBCHEM_EFFECTIVE_ROTOR_COUNT>
6

> <PUBCHEM_PHARMACOPHORE_FEATURES>
4
1 5 acceptor
6 6 9 12 15 18 21 rings
6 7 10 13 16 19 22 rings
6 8 11 14 17 20 23 rings

> <PUBCHEM_HEAVY_ATOM_COUNT>
29

> <PUBCHEM_ATOM_DEF_STEREO_COUNT>
0

> <PUBCHEM_ATOM_UDEF_STEREO_COUNT>
0

> <PUBCHEM_BOND_DEF_STEREO_COUNT>
0

> <PUBCHEM_BOND_UDEF_STEREO_COUNT>
0

> <PUBCHEM_ISOTOPIC_ATOM_COUNT>
0

> <PUBCHEM_COMPONENT_COUNT>
1

> <PUBCHEM_CACTVS_TAUTO_COUNT>
1

> <PUBCHEM_CONFORMER_ID>
0000210C00000002

> <PUBCHEM_MMFF94_ENERGY>
88.51

> <PUBCHEM_FEATURE_SELFOVERLAP>
20.297

> <PUBCHEM_SHAPE_FINGERPRINT>
10165383 225 18267850705877679729
10190108 129 18124297330290629419
1100329 8 18408602544298576594
11115154 58 16819723833123419605
11488393 25 18270102626060713035
11578080 2 15912491362353161543
12788726 201 17545896922830436970
131258 43 17828193621670432798
133893 2 17768496694026930544
13681431 1 18050568739779293203
140371 6 17257652751143375046
14955137 171 18339929332908201890
20600515 1 17195744697618195322
21033648 29 18192147101502411377
21304303 282 17759837769422675878
21927370 108 17547269555608054019
23558518 356 17690001137528796892
23559900 14 18056489567552121585
238 59 18410303531419732845
24893989 43 15008732039332537719
255183 313 17978781312243447793
3298306 158 18342166787245982918
35225 105 18050286964154859274
3729539 64 18265870589137061620
44802255 64 17412985905035314166
469060 322 17485097297680831191
5265222 85 18056734578609762236
6442390 28 18196087746638059197
6669772 16 18335412440398767798
81228 2 17473826125946814595

> <PUBCHEM_SHAPE_MULTIPOLES>
577.18
6.98
6.97
1.93
7.91
6.45
0.28
-6.46
-0.67
-7.9
-0.67
0
0
0

> <PUBCHEM_SHAPE_SELFOVERLAP>
1224.302

> <PUBCHEM_SHAPE_VOLUME>
325

> <PUBCHEM_COORDINATE_TYPE>
2
5
10

$$$$

