2157
  -OEChem-07051212523D

 60 62  0     0  0  0  0  0  0999 V2000
    2.1727    0.3364    3.0407 I   0  0  0  0  0  0  0  0  0  0  0  0
    2.3355    2.6317   -2.6114 I   0  0  0  0  0  0  0  0  0  0  0  0
   -4.5056   -1.7406    0.5255 O   0  0  0  0  0  0  0  0  0  0  0  0
    3.3217    1.5789    0.2835 O   0  0  0  0  0  0  0  0  0  0  0  0
   -2.9154    2.1300   -0.2903 O   0  0  0  0  0  0  0  0  0  0  0  0
    6.4058   -0.3118   -0.4024 N   0  0  0  0  0  0  0  0  0  0  0  0
   -5.2354    0.4793    1.0669 C   0  0  0  0  0  0  0  0  0  0  0  0
   -4.1956   -0.4177    0.5399 C   0  0  0  0  0  0  0  0  0  0  0  0
   -2.9309   -0.2081    0.0407 C   0  0  0  0  0  0  0  0  0  0  0  0
   -6.1995    0.9870   -0.0286 C   0  0  0  0  0  0  0  0  0  0  0  0
   -2.4208   -1.4867   -0.3070 C   0  0  0  0  0  0  0  0  0  0  0  0
   -3.4264   -2.3941    0.0102 C   0  0  0  0  0  0  0  0  0  0  0  0
    5.5718    0.8073    0.0098 C   0  0  0  0  0  0  0  0  0  0  0  0
   -7.2504    1.9536    0.5174 C   0  0  0  0  0  0  0  0  0  0  0  0
   -2.2941    1.0709   -0.0845 C   0  0  0  0  0  0  0  0  0  0  0  0
    7.7607    0.1426   -0.7247 C   0  0  0  0  0  0  0  0  0  0  0  0
    6.4521   -1.3365    0.6434 C   0  0  0  0  0  0  0  0  0  0  0  0
    4.0987    0.4650   -0.1464 C   0  0  0  0  0  0  0  0  0  0  0  0
   -1.2221   -1.9769   -0.8541 C   0  0  0  0  0  0  0  0  0  0  0  0
   -0.8081    1.2062    0.0135 C   0  0  0  0  0  0  0  0  0  0  0  0
   -3.3249   -3.7710   -0.1794 C   0  0  0  0  0  0  0  0  0  0  0  0
   -8.1605    2.4691   -0.5861 C   0  0  0  0  0  0  0  0  0  0  0  0
    8.4446    0.7379    0.4943 C   0  0  0  0  0  0  0  0  0  0  0  0
    7.2639   -2.5406    0.1968 C   0  0  0  0  0  0  0  0  0  0  0  0
    1.9643    1.4567    0.1951 C   0  0  0  0  0  0  0  0  0  0  0  0
   -1.0903   -3.3576   -1.0563 C   0  0  0  0  0  0  0  0  0  0  0  0
   -2.1243   -4.2366   -0.7239 C   0  0  0  0  0  0  0  0  0  0  0  0
   -0.1474    0.8148    1.1778 C   0  0  0  0  0  0  0  0  0  0  0  0
   -0.0826    1.7227   -1.0601 C   0  0  0  0  0  0  0  0  0  0  0  0
    1.2388    0.9402    1.2687 C   0  0  0  0  0  0  0  0  0  0  0  0
    1.3036    1.8479   -0.9693 C   0  0  0  0  0  0  0  0  0  0  0  0
   -4.7691    1.3364    1.5674 H   0  0  0  0  0  0  0  0  0  0  0  0
   -5.8154   -0.0430    1.8381 H   0  0  0  0  0  0  0  0  0  0  0  0
   -6.6979    0.1294   -0.4986 H   0  0  0  0  0  0  0  0  0  0  0  0
   -5.6237    1.4843   -0.8194 H   0  0  0  0  0  0  0  0  0  0  0  0
    5.7613    1.6911   -0.6148 H   0  0  0  0  0  0  0  0  0  0  0  0
    5.7601    1.1267    1.0432 H   0  0  0  0  0  0  0  0  0  0  0  0
   -6.7562    2.8037    1.0017 H   0  0  0  0  0  0  0  0  0  0  0  0
   -7.8550    1.4510    1.2811 H   0  0  0  0  0  0  0  0  0  0  0  0
    7.7079    0.9042   -1.5138 H   0  0  0  0  0  0  0  0  0  0  0  0
    8.3706   -0.6558   -1.1604 H   0  0  0  0  0  0  0  0  0  0  0  0
    5.4397   -1.7144    0.8253 H   0  0  0  0  0  0  0  0  0  0  0  0
    6.8057   -0.9700    1.6136 H   0  0  0  0  0  0  0  0  0  0  0  0
    3.8802    0.2308   -1.1949 H   0  0  0  0  0  0  0  0  0  0  0  0
    3.8243   -0.4125    0.4456 H   0  0  0  0  0  0  0  0  0  0  0  0
   -0.4039   -1.3222   -1.1339 H   0  0  0  0  0  0  0  0  0  0  0  0
   -4.1313   -4.4463    0.0806 H   0  0  0  0  0  0  0  0  0  0  0  0
   -8.6922    1.6452   -1.0727 H   0  0  0  0  0  0  0  0  0  0  0  0
   -8.9048    3.1571   -0.1730 H   0  0  0  0  0  0  0  0  0  0  0  0
   -7.5874    3.0064   -1.3484 H   0  0  0  0  0  0  0  0  0  0  0  0
    7.9002    1.5763    0.9374 H   0  0  0  0  0  0  0  0  0  0  0  0
    8.6621    0.0015    1.2728 H   0  0  0  0  0  0  0  0  0  0  0  0
    9.4169    1.1404    0.1846 H   0  0  0  0  0  0  0  0  0  0  0  0
    6.9717   -2.8778   -0.8037 H   0  0  0  0  0  0  0  0  0  0  0  0
    8.3410   -2.3491    0.2056 H   0  0  0  0  0  0  0  0  0  0  0  0
    7.0887   -3.3758    0.8845 H   0  0  0  0  0  0  0  0  0  0  0  0
   -0.1694   -3.7495   -1.4807 H   0  0  0  0  0  0  0  0  0  0  0  0
   -1.9939   -5.3027   -0.8925 H   0  0  0  0  0  0  0  0  0  0  0  0
   -0.7224    0.4176    2.0115 H   0  0  0  0  0  0  0  0  0  0  0  0
   -0.6092    2.0218   -1.9639 H   0  0  0  0  0  0  0  0  0  0  0  0
  1 30  1  0  0  0  0
  2 31  1  0  0  0  0
  3  8  1  0  0  0  0
  3 12  1  0  0  0  0
  4 18  1  0  0  0  0
  4 25  1  0  0  0  0
  5 15  2  0  0  0  0
  6 13  1  0  0  0  0
  6 16  1  0  0  0  0
  6 17  1  0  0  0  0
  7  8  1  0  0  0  0
  7 10  1  0  0  0  0
  7 32  1  0  0  0  0
  7 33  1  0  0  0  0
  8  9  2  0  0  0  0
  9 11  1  0  0  0  0
  9 15  1  0  0  0  0
 10 14  1  0  0  0  0
 10 34  1  0  0  0  0
 10 35  1  0  0  0  0
 11 12  1  0  0  0  0
 11 19  2  0  0  0  0
 12 21  2  0  0  0  0
 13 18  1  0  0  0  0
 13 36  1  0  0  0  0
 13 37  1  0  0  0  0
 14 22  1  0  0  0  0
 14 38  1  0  0  0  0
 14 39  1  0  0  0  0
 15 20  1  0  0  0  0
 16 23  1  0  0  0  0
 16 40  1  0  0  0  0
 16 41  1  0  0  0  0
 17 24  1  0  0  0  0
 17 42  1  0  0  0  0
 17 43  1  0  0  0  0
 18 44  1  0  0  0  0
 18 45  1  0  0  0  0
 19 26  1  0  0  0  0
 19 46  1  0  0  0  0
 20 28  2  0  0  0  0
 20 29  1  0  0  0  0
 21 27  1  0  0  0  0
 21 47  1  0  0  0  0
 22 48  1  0  0  0  0
 22 49  1  0  0  0  0
 22 50  1  0  0  0  0
 23 51  1  0  0  0  0
 23 52  1  0  0  0  0
 23 53  1  0  0  0  0
 24 54  1  0  0  0  0
 24 55  1  0  0  0  0
 24 56  1  0  0  0  0
 25 30  2  0  0  0  0
 25 31  1  0  0  0  0
 26 27  2  0  0  0  0
 26 57  1  0  0  0  0
 27 58  1  0  0  0  0
 28 30  1  0  0  0  0
 28 59  1  0  0  0  0
 29 31  2  0  0  0  0
 29 60  1  0  0  0  0
M  END
> <PUBCHEM_COMPOUND_CID>
2157

> <PUBCHEM_CONFORMER_RMSD>
1.4

> <PUBCHEM_CONFORMER_DIVERSEORDER>
1
32
31
15
34
2
12
17
22
18
5
16
9
24
30
29
19
3
11
25
33
28
14
26
10
7
23
27
8
13
35
4
20
21
6

> <PUBCHEM_MMFF94_PARTIAL_CHARGES>
31
1 -0.08
12 0.14
13 0.27
15 0.57
16 0.27
17 0.27
18 0.28
19 -0.15
2 -0.08
20 0.09
21 -0.15
25 0.08
26 -0.15
27 -0.15
28 -0.15
29 -0.15
3 -0.28
30 0.08
31 0.08
4 -0.36
46 0.15
47 0.15
5 -0.57
57 0.15
58 0.15
59 0.15
6 -0.81
60 0.15
7 0.18
8 -0.04
9 -0.09

> <PUBCHEM_EFFECTIVE_ROTOR_COUNT>
11

> <PUBCHEM_PHARMACOPHORE_FEATURES>
10
1 1 hydrophobe
1 2 hydrophobe
1 22 hydrophobe
1 3 acceptor
1 4 acceptor
1 5 acceptor
1 6 cation
5 3 8 9 11 12 rings
6 11 12 19 21 26 27 rings
6 20 25 28 29 30 31 rings

> <PUBCHEM_HEAVY_ATOM_COUNT>
31

> <PUBCHEM_ATOM_DEF_STEREO_COUNT>
0

> <PUBCHEM_ATOM_UDEF_STEREO_COUNT>
0

> <PUBCHEM_BOND_DEF_STEREO_COUNT>
0

> <PUBCHEM_BOND_UDEF_STEREO_COUNT>
0

> <PUBCHEM_ISOTOPIC_ATOM_COUNT>
0

> <PUBCHEM_COMPONENT_COUNT>
1

> <PUBCHEM_CACTVS_TAUTO_COUNT>
1

> <PUBCHEM_CONFORMER_ID>
0000086D00000001

> <PUBCHEM_MMFF94_ENERGY>
72.432

> <PUBCHEM_FEATURE_SELFOVERLAP>
50.845

> <PUBCHEM_SHAPE_FINGERPRINT>
10674148 151 18272652346739886176
11331351 85 18131633383334670356
11524674 6 17603586326486694759
117089 54 17839733773429959866
11796584 16 18260260816318982166
12107183 9 18412539899157506117
12144603 126 18130496467284586540
12633257 1 15937525928231732686
12643181 29 18335423448189164770
12788726 201 17837207079182731291
14117953 113 18341047501984818397
14251751 18 18335136437337037806
14394314 77 18341614794086488376
14420673 8 18408599249795169878
15021287 119 17917705764792653452
15064986 96 18338785810930041379
15230672 131 18338519741769003506
15439362 3 18120934165155480297
15537594 2 17917720093008800802
15849732 13 18202280324842947909
16110190 28 18409729552233265102
18603816 31 17822024085542594295
21781055 127 18189324831706258753
23516275 137 18126264549718446490
23559900 14 18188780439662730792
23569917 315 18409727332205191383
249057 3 18341892987054544581
335352 9 18410294709799694877
34797466 226 11815894587498819496
3552219 110 12031781509494980159
397830 11 17896893054310598224
4017518 198 18187082871288011591
5081480 168 15769497513434743254
559249 180 18411417276679890795
6009941 240 18114179709900140202
6371380 46 18113341920452030737
6691757 9 18040988541054592227
7970288 3 17617099105412864142

> <PUBCHEM_SHAPE_MULTIPOLES>
639.25
20.25
4.09
1.8
16.3
4.26
-0.65
-3.6
-1.28
-4.23
2.25
1.57
-0.83
-1.43

> <PUBCHEM_SHAPE_SELFOVERLAP>
1305.407

> <PUBCHEM_SHAPE_VOLUME>
379.3

> <PUBCHEM_COORDINATE_TYPE>
2
5
10

$$$$

