12094166
  -OEChem-07051212582D

 49 51  0     1  0  0  0  0  0999 V2000
    5.5929   -1.9782    0.0000 O   0  0  0  0  0  0  0  0  0  0  0  0
    9.8562    0.2484    0.0000 O   0  0  0  0  0  0  0  0  0  0  0  0
    6.8530   -0.7182    0.0000 O   0  0  0  0  0  0  0  0  0  0  0  0
    8.2684   -0.5606    0.0000 O   0  0  0  0  0  0  0  0  0  0  0  0
    2.5896    1.5085    0.0000 O   0  0  0  0  0  0  0  0  0  0  0  0
    5.0929    0.5606    0.0000 N   0  0  0  0  0  0  0  0  0  0  0  0
    7.5961    1.5085    0.0000 N   0  0  0  0  0  0  0  0  0  0  0  0
    4.2839   -1.0272    0.0000 C   0  0  1  0  0  0  0  0  0  0  0  0
    5.0929   -0.4394    0.0000 C   0  0  3  0  0  0  0  0  0  0  0  0
    4.5929   -1.9782    0.0000 C   0  0  1  0  0  0  0  0  0  0  0  0
    9.3562    1.7873    0.0000 C   0  0  1  0  0  0  0  0  0  0  0  0
    5.9019   -1.0272    0.0000 C   0  0  0  0  0  0  0  0  0  0  0  0
    3.3328   -0.7182    0.0000 C   0  0  0  0  0  0  0  0  0  0  0  0
    8.5472    1.1995    0.0000 C   0  0  1  0  0  0  0  0  0  0  0  0
   10.1652    1.1995    0.0000 C   0  0  1  0  0  0  0  0  0  0  0  0
    5.9019    1.1484    0.0000 C   0  0  0  0  0  0  0  0  0  0  0  0
    4.2839    1.1484    0.0000 C   0  0  0  0  0  0  0  0  0  0  0  0
    4.0051   -2.7873    0.0000 C   0  0  0  0  0  0  0  0  0  0  0  0
    9.3562    2.7873    0.0000 C   0  0  0  0  0  0  0  0  0  0  0  0
    8.8562    0.2484    0.0000 C   0  0  0  0  0  0  0  0  0  0  0  0
    5.5929    2.0994    0.0000 C   0  0  0  0  0  0  0  0  0  0  0  0
    4.5929    2.0994    0.0000 C   0  0  0  0  0  0  0  0  0  0  0  0
    6.8530    0.8394    0.0000 C   0  0  0  0  0  0  0  0  0  0  0  0
   11.1162    1.5085    0.0000 C   0  0  0  0  0  0  0  0  0  0  0  0
    3.3328    0.8394    0.0000 C   0  0  0  0  0  0  0  0  0  0  0  0
    4.1869   -0.4148    0.0000 H   0  0  0  0  0  0  0  0  0  0  0  0
    5.6453   -0.1579    0.0000 H   0  0  0  0  0  0  0  0  0  0  0  0
    4.8744   -2.5307    0.0000 H   0  0  0  0  0  0  0  0  0  0  0  0
    8.8037    2.0687    0.0000 H   0  0  0  0  0  0  0  0  0  0  0  0
    3.5244   -0.1285    0.0000 H   0  0  0  0  0  0  0  0  0  0  0  0
    2.7431   -0.5266    0.0000 H   0  0  0  0  0  0  0  0  0  0  0  0
    3.1412   -1.3078    0.0000 H   0  0  0  0  0  0  0  0  0  0  0  0
    8.4502    1.8118    0.0000 H   0  0  0  0  0  0  0  0  0  0  0  0
   10.6036    0.7611    0.0000 H   0  0  0  0  0  0  0  0  0  0  0  0
    3.5035   -2.4228    0.0000 H   0  0  0  0  0  0  0  0  0  0  0  0
    3.6407   -3.2888    0.0000 H   0  0  0  0  0  0  0  0  0  0  0  0
    4.5067   -3.1517    0.0000 H   0  0  0  0  0  0  0  0  0  0  0  0
    9.9762    2.7873    0.0000 H   0  0  0  0  0  0  0  0  0  0  0  0
    9.3562    3.4073    0.0000 H   0  0  0  0  0  0  0  0  0  0  0  0
    8.7362    2.7873    0.0000 H   0  0  0  0  0  0  0  0  0  0  0  0
    5.9573    2.6010    0.0000 H   0  0  0  0  0  0  0  0  0  0  0  0
    4.2284    2.6010    0.0000 H   0  0  0  0  0  0  0  0  0  0  0  0
    6.9818    0.2329    0.0000 H   0  0  0  0  0  0  0  0  0  0  0  0
   11.3078    0.9188    0.0000 H   0  0  0  0  0  0  0  0  0  0  0  0
   11.7059    1.7001    0.0000 H   0  0  0  0  0  0  0  0  0  0  0  0
   10.9246    2.0982    0.0000 H   0  0  0  0  0  0  0  0  0  0  0  0
    2.8442    0.4577    0.0000 H   0  0  0  0  0  0  0  0  0  0  0  0
    3.6239    0.2919    0.0000 H   0  0  0  0  0  0  0  0  0  0  0  0
    2.0000    1.3169    0.0000 H   0  0  0  0  0  0  0  0  0  0  0  0
  1 10  1  0  0  0  0
  1 12  1  0  0  0  0
  2 15  1  0  0  0  0
  2 20  1  0  0  0  0
  3 12  2  0  0  0  0
  4 20  2  0  0  0  0
  5 25  1  0  0  0  0
  5 49  1  0  0  0  0
  6  9  1  0  0  0  0
  6 16  1  0  0  0  0
  6 17  1  0  0  0  0
 14  7  1  1  0  0  0
  7 23  2  0  0  0  0
  8  9  1  0  0  0  0
  8 10  1  0  0  0  0
  8 13  1  1  0  0  0
  8 26  1  0  0  0  0
  9 12  1  0  0  0  0
  9 27  1  0  0  0  0
 10 18  1  6  0  0  0
 10 28  1  0  0  0  0
 11 14  1  0  0  0  0
 11 15  1  0  0  0  0
 11 19  1  6  0  0  0
 11 29  1  0  0  0  0
 13 30  1  0  0  0  0
 13 31  1  0  0  0  0
 13 32  1  0  0  0  0
 14 20  1  0  0  0  0
 14 33  1  0  0  0  0
 15 24  1  1  0  0  0
 15 34  1  0  0  0  0
 16 21  2  0  0  0  0
 16 23  1  0  0  0  0
 17 22  2  0  0  0  0
 17 25  1  0  0  0  0
 18 35  1  0  0  0  0
 18 36  1  0  0  0  0
 18 37  1  0  0  0  0
 19 38  1  0  0  0  0
 19 39  1  0  0  0  0
 19 40  1  0  0  0  0
 21 22  1  0  0  0  0
 21 41  1  0  0  0  0
 22 42  1  0  0  0  0
 23 43  1  0  0  0  0
 24 44  1  0  0  0  0
 24 45  1  0  0  0  0
 24 46  1  0  0  0  0
 25 47  1  0  0  0  0
 25 48  1  0  0  0  0
M  END
> <PUBCHEM_COMPOUND_CID>
12094166

> <PUBCHEM_COMPOUND_CANONICALIZED>
1

> <PUBCHEM_CACTVS_COMPLEXITY>
566

> <PUBCHEM_CACTVS_HBOND_ACCEPTOR>
6

> <PUBCHEM_CACTVS_HBOND_DONOR>
1

> <PUBCHEM_CACTVS_ROTATABLE_BOND>
4

> <PUBCHEM_CACTVS_SUBSKEYS>
AAADceB7OAAAAAAAAAAAAAAAAAAAAWJEgAAAAAAAAAAAAAABgAAAHgAACAAADTzhlgYyiJMMFgCoATTzTASCgCAhAiAI2CG4bJgKNvLAkbGHUAhmwAHY2AeaUAMKAAAAAAAAAAAAAAAAAAAAAAAAAAAAAA==

> <PUBCHEM_IUPAC_OPENEYE_NAME>
(3S,4S,5R)-3-[[1-[(4S,5R)-4,5-dimethyl-2-oxo-tetrahydrofuran-3-yl]-5-(hydroxymethyl)pyrrol-2-yl]methyleneamino]-4,5-dimethyl-tetrahydrofuran-2-one

> <PUBCHEM_IUPAC_CAS_NAME>
(3S,4S,5R)-3-[[1-[(4S,5R)-4,5-dimethyl-2-oxo-3-oxolanyl]-5-(hydroxymethyl)-2-pyrrolyl]methylideneamino]-4,5-dimethyl-2-oxolanone

> <PUBCHEM_IUPAC_NAME>
(3S,4S,5R)-3-[[1-[(4S,5R)-4,5-dimethyl-2-oxooxolan-3-yl]-5-(hydroxymethyl)pyrrol-2-yl]methylideneamino]-4,5-dimethyloxolan-2-one

> <PUBCHEM_IUPAC_SYSTEMATIC_NAME>
(3S,4S,5R)-3-[[1-[(4S,5R)-4,5-dimethyl-2-oxidanylidene-oxolan-3-yl]-5-(hydroxymethyl)pyrrol-2-yl]methylideneamino]-4,5-dimethyl-oxolan-2-one

> <PUBCHEM_IUPAC_TRADITIONAL_NAME>
(3S,4S,5R)-3-[[1-[(4S,5R)-2-keto-4,5-dimethyl-tetrahydrofuran-3-yl]-5-methylol-pyrrol-2-yl]methyleneamino]-4,5-dimethyl-tetrahydrofuran-2-one

> <PUBCHEM_IUPAC_INCHI>
InChI=1S/C18H24N2O5/c1-9-11(3)24-17(22)15(9)19-7-13-5-6-14(8-21)20(13)16-10(2)12(4)25-18(16)23/h5-7,9-12,15-16,21H,8H2,1-4H3/t9-,10-,11-,12-,15+,16?/m1/s1

> <PUBCHEM_IUPAC_INCHIKEY>
RYQKWJPWKLPCHJ-PVEDBRNASA-N

> <PUBCHEM_XLOGP3_AA>
1.9

> <PUBCHEM_EXACT_MASS>
348.168522

> <PUBCHEM_MOLECULAR_FORMULA>
C18H24N2O5

> <PUBCHEM_MOLECULAR_WEIGHT>
348.39356

> <PUBCHEM_OPENEYE_CAN_SMILES>
CC1C(OC(=O)C1N=CC2=CC=C(N2C3C(C(OC3=O)C)C)CO)C

> <PUBCHEM_OPENEYE_ISO_SMILES>
C[C@@H]1[C@H](OC(=O)[C@H]1N=CC2=CC=C(N2C3[C@@H]([C@H](OC3=O)C)C)CO)C

> <PUBCHEM_CACTVS_TPSA>
90.1

> <PUBCHEM_MONOISOTOPIC_WEIGHT>
348.168522

> <PUBCHEM_TOTAL_CHARGE>
0

> <PUBCHEM_HEAVY_ATOM_COUNT>
25

> <PUBCHEM_ATOM_DEF_STEREO_COUNT>
5

> <PUBCHEM_ATOM_UDEF_STEREO_COUNT>
1

> <PUBCHEM_BOND_DEF_STEREO_COUNT>
0

> <PUBCHEM_BOND_UDEF_STEREO_COUNT>
0

> <PUBCHEM_ISOTOPIC_ATOM_COUNT>
0

> <PUBCHEM_COMPONENT_COUNT>
1

> <PUBCHEM_CACTVS_TAUTO_COUNT>
4

> <PUBCHEM_COORDINATE_TYPE>
1
5
255

> <PUBCHEM_BONDANNOTATIONS>
10  18  6
11  19  6
15  24  5
16  21  8
17  22  8
21  22  8
6  16  8
6  17  8
9  6  3
14  7  5
8  13  5

$$$$

