23665731
  -OEChem-07051212542D

 51 53  0     1  0  0  0  0  0999 V2000
    7.0468   -0.5981    0.0000 S   0  0  0  0  0  0  0  0  0  0  0  0
    4.4487    0.9019    0.0000 S   0  0  0  0  0  0  0  0  0  0  0  0
    6.1808    3.9019    0.0000 Na  0  3  0  0  0  0  0  0  0  0  0  0
    9.6267    1.6146    0.0000 O   0  0  0  0  0  0  0  0  0  0  0  0
    6.1808    2.9019    0.0000 O   0  5  0  0  0  0  0  0  0  0  0  0
   10.8540    0.4114    0.0000 O   0  0  0  0  0  0  0  0  0  0  0  0
    7.9128    2.9019    0.0000 O   0  0  0  0  0  0  0  0  0  0  0  0
   11.0380   -2.2279    0.0000 O   0  0  0  0  0  0  0  0  0  0  0  0
   11.4829   -3.9019    0.0000 O   0  0  0  0  0  0  0  0  0  0  0  0
    7.9128    0.9019    0.0000 N   0  0  0  0  0  0  0  0  0  0  0  0
    9.6267   -0.8108    0.0000 N   0  0  0  0  0  0  0  0  0  0  0  0
    2.6691    0.9951    0.0000 N   0  0  0  0  0  0  0  0  0  0  0  0
    3.4782    2.3964    0.0000 N   0  0  0  0  0  0  0  0  0  0  0  0
    2.0000    1.7383    0.0000 N   0  0  0  0  0  0  0  0  0  0  0  0
    2.5000    2.6043    0.0000 N   0  0  0  0  0  0  0  0  0  0  0  0
    7.9128   -0.0981    0.0000 C   0  0  1  0  0  0  0  0  0  0  0  0
    8.9211   -0.1023    0.0000 C   0  0  1  0  0  0  0  0  0  0  0  0
    8.9211    0.9060    0.0000 C   0  0  0  0  0  0  0  0  0  0  0  0
    7.0468    1.4019    0.0000 C   0  0  0  0  0  0  0  0  0  0  0  0
    6.1808    0.9019    0.0000 C   0  0  0  0  0  0  0  0  0  0  0  0
    6.1808   -0.0981    0.0000 C   0  0  0  0  0  0  0  0  0  0  0  0
    5.3147    1.4019    0.0000 C   0  0  0  0  0  0  0  0  0  0  0  0
   10.5932   -0.5540    0.0000 C   0  0  0  0  0  0  0  0  0  0  0  0
    7.0468    2.4019    0.0000 C   0  0  0  0  0  0  0  0  0  0  0  0
   11.2988   -1.2625    0.0000 C   0  0  1  0  0  0  0  0  0  0  0  0
   12.2653   -1.0057    0.0000 C   0  0  0  0  0  0  0  0  0  0  0  0
    3.5827    1.4019    0.0000 C   0  0  0  0  0  0  0  0  0  0  0  0
   12.9710   -1.7143    0.0000 C   0  0  0  0  0  0  0  0  0  0  0  0
   12.5261   -0.0403    0.0000 C   0  0  0  0  0  0  0  0  0  0  0  0
   13.9374   -1.4574    0.0000 C   0  0  0  0  0  0  0  0  0  0  0  0
   13.4926    0.2165    0.0000 C   0  0  0  0  0  0  0  0  0  0  0  0
   11.7437   -2.9365    0.0000 C   0  0  0  0  0  0  0  0  0  0  0  0
   14.1982   -0.4920    0.0000 C   0  0  0  0  0  0  0  0  0  0  0  0
    2.4612    0.0170    0.0000 C   0  0  0  0  0  0  0  0  0  0  0  0
    8.1311   -0.9196    0.0000 H   0  0  0  0  0  0  0  0  0  0  0  0
    8.6821   -0.6743    0.0000 H   0  0  0  0  0  0  0  0  0  0  0  0
    5.5702    0.0095    0.0000 H   0  0  0  0  0  0  0  0  0  0  0  0
    5.9687   -0.6807    0.0000 H   0  0  0  0  0  0  0  0  0  0  0  0
    9.4650   -1.4094    0.0000 H   0  0  0  0  0  0  0  0  0  0  0  0
    5.7133    1.8768    0.0000 H   0  0  0  0  0  0  0  0  0  0  0  0
    4.9162    1.8768    0.0000 H   0  0  0  0  0  0  0  0  0  0  0  0
   11.7363   -1.7018    0.0000 H   0  0  0  0  0  0  0  0  0  0  0  0
   12.8093   -2.3128    0.0000 H   0  0  0  0  0  0  0  0  0  0  0  0
   12.0886    0.3990    0.0000 H   0  0  0  0  0  0  0  0  0  0  0  0
   14.3749   -1.8967    0.0000 H   0  0  0  0  0  0  0  0  0  0  0  0
   13.6543    0.8151    0.0000 H   0  0  0  0  0  0  0  0  0  0  0  0
   12.3429   -2.7773    0.0000 H   0  0  0  0  0  0  0  0  0  0  0  0
   14.7974   -0.3328    0.0000 H   0  0  0  0  0  0  0  0  0  0  0  0
    1.8548    0.1459    0.0000 H   0  0  0  0  0  0  0  0  0  0  0  0
    2.3323   -0.5895    0.0000 H   0  0  0  0  0  0  0  0  0  0  0  0
    3.0677   -0.1119    0.0000 H   0  0  0  0  0  0  0  0  0  0  0  0
  1 16  1  0  0  0  0
  1 21  1  0  0  0  0
  2 22  1  0  0  0  0
  2 27  1  0  0  0  0
  4 18  2  0  0  0  0
  5 24  1  0  0  0  0
  6 23  2  0  0  0  0
  7 24  2  0  0  0  0
 25  8  1  1  0  0  0
  8 32  1  0  0  0  0
  9 32  2  0  0  0  0
 10 16  1  0  0  0  0
 10 18  1  0  0  0  0
 10 19  1  0  0  0  0
 17 11  1  1  0  0  0
 11 23  1  0  0  0  0
 11 39  1  0  0  0  0
 12 14  1  0  0  0  0
 12 27  1  0  0  0  0
 12 34  1  0  0  0  0
 13 15  1  0  0  0  0
 13 27  2  0  0  0  0
 14 15  2  0  0  0  0
 16 17  1  0  0  0  0
 16 35  1  6  0  0  0
 17 18  1  0  0  0  0
 17 36  1  0  0  0  0
 19 20  2  0  0  0  0
 19 24  1  0  0  0  0
 20 21  1  0  0  0  0
 20 22  1  0  0  0  0
 21 37  1  0  0  0  0
 21 38  1  0  0  0  0
 22 40  1  0  0  0  0
 22 41  1  0  0  0  0
 23 25  1  0  0  0  0
 25 26  1  0  0  0  0
 25 42  1  0  0  0  0
 26 28  2  0  0  0  0
 26 29  1  0  0  0  0
 28 30  1  0  0  0  0
 28 43  1  0  0  0  0
 29 31  2  0  0  0  0
 29 44  1  0  0  0  0
 30 33  2  0  0  0  0
 30 45  1  0  0  0  0
 31 33  1  0  0  0  0
 31 46  1  0  0  0  0
 32 47  1  0  0  0  0
 33 48  1  0  0  0  0
 34 49  1  0  0  0  0
 34 50  1  0  0  0  0
 34 51  1  0  0  0  0
M  CHG  2   3   1   5  -1
M  END
> <PUBCHEM_COMPOUND_CID>
23665731

> <PUBCHEM_COMPOUND_CANONICALIZED>
1

> <PUBCHEM_CACTVS_COMPLEXITY>
844

> <PUBCHEM_CACTVS_HBOND_ACCEPTOR>
11

> <PUBCHEM_CACTVS_HBOND_DONOR>
1

> <PUBCHEM_CACTVS_ROTATABLE_BOND>
9

> <PUBCHEM_CACTVS_SUBSKEYS>
AAADceB7uCBgAAAAAAAAAAAAAABYAWAAAAAwQAAAAAAQAAABwAAAHgQYAAAADDzl2AezGIfIBAiqAiXS/AICEANggJANyIHICMiKZjqgtT2VMAAk1gG4qQeYyKCOAAAAAAAAAAAAAAAAAAAAAAAAAAAAAA==

> <PUBCHEM_IUPAC_OPENEYE_NAME>
sodium (6R,7R)-7-[[(2R)-2-formyloxy-2-phenyl-acetyl]amino]-3-[(1-methyltetrazol-5-yl)sulfanylmethyl]-8-oxo-5-thia-1-azabicyclo[4.2.0]oct-2-ene-2-carboxylate

> <PUBCHEM_IUPAC_CAS_NAME>
sodium (6R,7R)-7-[[(2R)-2-formyloxy-1-oxo-2-phenylethyl]amino]-3-[[(1-methyl-5-tetrazolyl)thio]methyl]-8-oxo-5-thia-1-azabicyclo[4.2.0]oct-2-ene-2-carboxylate

> <PUBCHEM_IUPAC_NAME>
sodium (6R,7R)-7-[[(2R)-2-formyloxy-2-phenylacetyl]amino]-3-[(1-methyltetrazol-5-yl)sulfanylmethyl]-8-oxo-5-thia-1-azabicyclo[4.2.0]oct-2-ene-2-carboxylate

> <PUBCHEM_IUPAC_SYSTEMATIC_NAME>
sodium (6R,7R)-7-[[(2R)-2-methanoyloxy-2-phenyl-ethanoyl]amino]-3-[(1-methyl-1,2,3,4-tetrazol-5-yl)sulfanylmethyl]-8-oxidanylidene-5-thia-1-azabicyclo[4.2.0]oct-2-ene-2-carboxylate

> <PUBCHEM_IUPAC_TRADITIONAL_NAME>
sodium (6R,7R)-7-[[(2R)-2-formyloxy-2-phenyl-acetyl]amino]-8-keto-3-[[(1-methyltetrazol-5-yl)thio]methyl]-5-thia-1-azabicyclo[4.2.0]oct-2-ene-2-carboxylate

> <PUBCHEM_IUPAC_INCHI>
InChI=1S/C19H18N6O6S2.Na/c1-24-19(21-22-23-24)33-8-11-7-32-17-12(16(28)25(17)13(11)18(29)30)20-15(27)14(31-9-26)10-5-3-2-4-6-10;/h2-6,9,12,14,17H,7-8H2,1H3,(H,20,27)(H,29,30);/q;+1/p-1/t12-,14-,17-;/m1./s1

> <PUBCHEM_IUPAC_INCHIKEY>
ICZOIXFFVKYXOM-YCLOEFEOSA-M

> <PUBCHEM_EXACT_MASS>
512.054869

> <PUBCHEM_MOLECULAR_FORMULA>
C19H17N6NaO6S2

> <PUBCHEM_MOLECULAR_WEIGHT>
512.494649

> <PUBCHEM_OPENEYE_CAN_SMILES>
CN1C(=NN=N1)SCC2=C(N3C(C(C3=O)NC(=O)C(C4=CC=CC=C4)OC=O)SC2)C(=O)[O-].[Na+]

> <PUBCHEM_OPENEYE_ISO_SMILES>
CN1C(=NN=N1)SCC2=C(N3[C@@H]([C@@H](C3=O)NC(=O)[C@@H](C4=CC=CC=C4)OC=O)SC2)C(=O)[O-].[Na+]

> <PUBCHEM_CACTVS_TPSA>
210

> <PUBCHEM_MONOISOTOPIC_WEIGHT>
512.054869

> <PUBCHEM_TOTAL_CHARGE>
0

> <PUBCHEM_HEAVY_ATOM_COUNT>
34

> <PUBCHEM_ATOM_DEF_STEREO_COUNT>
3

> <PUBCHEM_ATOM_UDEF_STEREO_COUNT>
0

> <PUBCHEM_BOND_DEF_STEREO_COUNT>
0

> <PUBCHEM_BOND_UDEF_STEREO_COUNT>
0

> <PUBCHEM_ISOTOPIC_ATOM_COUNT>
0

> <PUBCHEM_COMPONENT_COUNT>
2

> <PUBCHEM_CACTVS_TAUTO_COUNT>
4

> <PUBCHEM_NONSTANDARDBOND>
3  5  7

> <PUBCHEM_COORDINATE_TYPE>
1
5
255

> <PUBCHEM_BONDANNOTATIONS>
17  11  5
12  14  8
12  27  8
13  15  8
13  27  8
14  15  8
16  35  6
26  28  8
26  29  8
28  30  8
29  31  8
30  33  8
31  33  8
25  8  5

$$$$

