543
  -OEChem-07051212453D

 19 19  0     1  0  0  0  0  0999 V2000
   -0.8266    0.6762    0.4931 O   0  0  0  0  0  0  0  0  0  0  0  0
    0.8608   -2.3890   -0.1932 O   0  0  0  0  0  0  0  0  0  0  0  0
    0.3042   -1.3762    1.7715 O   0  0  0  0  0  0  0  0  0  0  0  0
    3.2631    0.9367   -0.7235 O   0  0  0  0  0  0  0  0  0  0  0  0
   -2.9976    1.4306    0.6376 O   0  0  0  0  0  0  0  0  0  0  0  0
    1.8601    1.3126    1.0289 O   0  0  0  0  0  0  0  0  0  0  0  0
   -0.1426   -0.2680   -0.3314 C   0  0  2  0  0  0  0  0  0  0  0  0
    0.9991    0.4132   -1.0663 C   0  0  0  0  0  0  0  0  0  0  0  0
   -1.2004   -0.7931   -1.2202 C   0  0  0  0  0  0  0  0  0  0  0  0
    0.3503   -1.3772    0.5504 C   0  0  0  0  0  0  0  0  0  0  0  0
   -2.3737   -0.2242   -0.9611 C   0  0  0  0  0  0  0  0  0  0  0  0
   -2.1441    0.7216    0.1328 C   0  0  0  0  0  0  0  0  0  0  0  0
    2.0474    0.9370   -0.1185 C   0  0  0  0  0  0  0  0  0  0  0  0
    1.4741   -0.2893   -1.7628 H   0  0  0  0  0  0  0  0  0  0  0  0
    0.6381    1.2745   -1.6417 H   0  0  0  0  0  0  0  0  0  0  0  0
   -1.0504   -1.5343   -1.9930 H   0  0  0  0  0  0  0  0  0  0  0  0
   -3.3177   -0.4004   -1.4460 H   0  0  0  0  0  0  0  0  0  0  0  0
    1.1903   -3.1245    0.3659 H   0  0  0  0  0  0  0  0  0  0  0  0
    3.9673    1.2729   -0.1291 H   0  0  0  0  0  0  0  0  0  0  0  0
  1  7  1  0  0  0  0
  1 12  1  0  0  0  0
  2 10  1  0  0  0  0
  2 18  1  0  0  0  0
  3 10  2  0  0  0  0
  4 13  1  0  0  0  0
  4 19  1  0  0  0  0
  5 12  2  0  0  0  0
  6 13  2  0  0  0  0
  7  8  1  0  0  0  0
  7  9  1  0  0  0  0
  7 10  1  0  0  0  0
  8 13  1  0  0  0  0
  8 14  1  0  0  0  0
  8 15  1  0  0  0  0
  9 11  2  0  0  0  0
  9 16  1  0  0  0  0
 11 12  1  0  0  0  0
 11 17  1  0  0  0  0
M  END
> <PUBCHEM_COMPOUND_CID>
543

> <PUBCHEM_CONFORMER_RMSD>
0.6

> <PUBCHEM_CONFORMER_DIVERSEORDER>
1
18
4
13
9
2
12
3
5
11
10
14
6
15
7
8
16
17

> <PUBCHEM_MMFF94_PARTIAL_CHARGES>
17
1 -0.43
10 0.66
11 -0.14
12 0.71
13 0.66
16 0.15
17 0.15
18 0.5
19 0.5
2 -0.65
3 -0.57
4 -0.65
5 -0.57
6 -0.57
7 0.48
8 0.06
9 -0.29

> <PUBCHEM_EFFECTIVE_ROTOR_COUNT>
3.4

> <PUBCHEM_PHARMACOPHORE_FEATURES>
8
1 2 acceptor
1 3 acceptor
1 4 acceptor
1 5 acceptor
1 6 acceptor
3 2 3 10 anion
3 4 6 13 anion
5 1 7 9 11 12 rings

> <PUBCHEM_HEAVY_ATOM_COUNT>
13

> <PUBCHEM_ATOM_DEF_STEREO_COUNT>
0

> <PUBCHEM_ATOM_UDEF_STEREO_COUNT>
1

> <PUBCHEM_BOND_DEF_STEREO_COUNT>
0

> <PUBCHEM_BOND_UDEF_STEREO_COUNT>
0

> <PUBCHEM_ISOTOPIC_ATOM_COUNT>
0

> <PUBCHEM_COMPONENT_COUNT>
1

> <PUBCHEM_CACTVS_TAUTO_COUNT>
1

> <PUBCHEM_CONFORMER_ID>
0000021F00000001

> <PUBCHEM_MMFF94_ENERGY>
16.9417

> <PUBCHEM_FEATURE_SELFOVERLAP>
40.708

> <PUBCHEM_SHAPE_FINGERPRINT>
12326174 3 17915470599329094810
12423570 1 14434677593542558295
12716758 59 17894917265298919326
13024252 1 11958635295259754606
15775835 57 18335133219668412021
16945 1 17823706269428744421
19837323 101 18190460463211745922
20653085 51 17895461532239840644
21061003 4 17270051853623386859
21922407 69 18190483669289363343
23235685 24 18131064909614689196
23419403 2 17337255001114837666
23552423 10 18189628305072481367
305870 269 18410577322420226460
369184 2 17678171603399266100
430814 3 18410851075130212973
5084963 1 17988092079686319358
528862 383 18200597024211915747
528886 8 17095517418034479469
68419 9 17970659404617055847
7364860 26 18116432733378857559
81228 2 17552918425655248610

> <PUBCHEM_SHAPE_MULTIPOLES>
232.32
3.63
1.75
1.26
0.18
0.79
-0.16
-2.13
0.4
0.32
-0.39
0.01
0.2
-0.48

> <PUBCHEM_SHAPE_SELFOVERLAP>
492.813

> <PUBCHEM_SHAPE_VOLUME>
130.3

> <PUBCHEM_COORDINATE_TYPE>
2
5
10

$$$$

