6857724
  -OEChem-07051213153D

 59 63  0     1  0  0  0  0  0999 V2000
   -3.3333    2.2711   -0.4706 O   0  0  0  0  0  0  0  0  0  0  0  0
   -1.5631   -3.3619    0.4357 O   0  0  0  0  0  0  0  0  0  0  0  0
    1.4192   -0.2446    2.3891 O   0  0  0  0  0  0  0  0  0  0  0  0
    4.0015   -0.8259   -1.7546 O   0  0  0  0  0  0  0  0  0  0  0  0
    3.0502    1.4024    2.3796 O   0  0  0  0  0  0  0  0  0  0  0  0
    7.7867    0.6771   -1.6152 O   0  0  0  0  0  0  0  0  0  0  0  0
    6.6721   -1.2067   -2.2282 O   0  0  0  0  0  0  0  0  0  0  0  0
    2.1475   -0.0453    0.1661 N   0  0  0  0  0  0  0  0  0  0  0  0
   -4.1914   -0.4105   -0.9496 C   0  0  1  0  0  0  0  0  0  0  0  0
   -3.0062   -0.0567    0.0241 C   0  0  1  0  0  0  0  0  0  0  0  0
   -5.4920    1.3643   -0.0297 C   0  0  1  0  0  0  0  0  0  0  0  0
   -4.5669    1.9190   -1.1478 C   0  0  2  0  0  0  0  0  0  0  0  0
   -3.2598    1.3501    0.6515 C   0  0  2  0  0  0  0  0  0  0  0  0
   -5.5686   -0.1396   -0.3166 C   0  0  0  0  0  0  0  0  0  0  0  0
   -4.2302    0.7040   -2.0269 C   0  0  0  0  0  0  0  0  0  0  0  0
   -4.6511    1.5595    1.2234 C   0  0  0  0  0  0  0  0  0  0  0  0
   -2.5776   -1.2145    0.9711 C   0  0  1  0  0  0  0  0  0  0  0  0
   -4.0723   -1.7855   -1.5203 C   0  0  0  0  0  0  0  0  0  0  0  0
   -5.0989    3.1136   -1.9063 C   0  0  0  0  0  0  0  0  0  0  0  0
   -2.3767   -2.4894    0.1284 C   0  0  0  0  0  0  0  0  0  0  0  0
   -1.2246   -0.8574    1.6280 C   0  0  0  0  0  0  0  0  0  0  0  0
   -3.5559   -1.5746    2.0940 C   0  0  0  0  0  0  0  0  0  0  0  0
   -3.2428   -2.7250   -1.0562 C   0  0  0  0  0  0  0  0  0  0  0  0
   -0.1472   -0.5972    0.5903 C   0  0  0  0  0  0  0  0  0  0  0  0
    1.2196   -0.2696    1.1792 C   0  0  0  0  0  0  0  0  0  0  0  0
    3.5168    0.2834    0.3078 C   0  0  0  0  0  0  0  0  0  0  0  0
    4.4201   -0.1178   -0.6650 C   0  0  0  0  0  0  0  0  0  0  0  0
    3.9308    1.0031    1.4185 C   0  0  0  0  0  0  0  0  0  0  0  0
    5.7690    0.2086   -0.5237 C   0  0  0  0  0  0  0  0  0  0  0  0
    5.2796    1.3293    1.5598 C   0  0  0  0  0  0  0  0  0  0  0  0
    6.1987    0.9321    0.5887 C   0  0  0  0  0  0  0  0  0  0  0  0
    6.7470   -0.1956   -1.5245 C   0  0  0  0  0  0  0  0  0  0  0  0
   -2.1804    0.0854   -0.6845 H   0  0  0  0  0  0  0  0  0  0  0  0
   -6.4824    1.8222    0.0338 H   0  0  0  0  0  0  0  0  0  0  0  0
   -2.4620    1.6796    1.3197 H   0  0  0  0  0  0  0  0  0  0  0  0
   -5.7844   -0.7279    0.5765 H   0  0  0  0  0  0  0  0  0  0  0  0
   -6.3776   -0.3433   -1.0315 H   0  0  0  0  0  0  0  0  0  0  0  0
   -3.2709    0.8130   -2.5463 H   0  0  0  0  0  0  0  0  0  0  0  0
   -5.0106    0.5167   -2.7755 H   0  0  0  0  0  0  0  0  0  0  0  0
   -4.7621    2.5923    1.5768 H   0  0  0  0  0  0  0  0  0  0  0  0
   -4.9182    0.8910    2.0422 H   0  0  0  0  0  0  0  0  0  0  0  0
   -4.6997   -2.0329   -2.3734 H   0  0  0  0  0  0  0  0  0  0  0  0
   -5.2764    3.9550   -1.2278 H   0  0  0  0  0  0  0  0  0  0  0  0
   -4.3708    3.4575   -2.6490 H   0  0  0  0  0  0  0  0  0  0  0  0
   -6.0361    2.8779   -2.4199 H   0  0  0  0  0  0  0  0  0  0  0  0
   -0.8920   -1.6764    2.2808 H   0  0  0  0  0  0  0  0  0  0  0  0
   -1.3288    0.0130    2.2870 H   0  0  0  0  0  0  0  0  0  0  0  0
   -3.1622   -2.4010    2.6998 H   0  0  0  0  0  0  0  0  0  0  0  0
   -3.7199   -0.7372    2.7765 H   0  0  0  0  0  0  0  0  0  0  0  0
   -4.5182   -1.9230    1.7141 H   0  0  0  0  0  0  0  0  0  0  0  0
   -3.1876   -3.6995   -1.5288 H   0  0  0  0  0  0  0  0  0  0  0  0
   -0.3840    0.2845   -0.0134 H   0  0  0  0  0  0  0  0  0  0  0  0
   -0.0124   -1.4460   -0.0873 H   0  0  0  0  0  0  0  0  0  0  0  0
    1.8775   -0.3368   -0.7714 H   0  0  0  0  0  0  0  0  0  0  0  0
    5.6288    1.8902    2.4227 H   0  0  0  0  0  0  0  0  0  0  0  0
    7.2444    1.1904    0.7341 H   0  0  0  0  0  0  0  0  0  0  0  0
    4.7329   -0.9745   -2.3741 H   0  0  0  0  0  0  0  0  0  0  0  0
    3.5318    1.8893    3.0701 H   0  0  0  0  0  0  0  0  0  0  0  0
    8.4402    0.3975   -2.2913 H   0  0  0  0  0  0  0  0  0  0  0  0
  1 12  1  0  0  0  0
  1 13  1  0  0  0  0
  2 20  2  0  0  0  0
  3 25  2  0  0  0  0
  4 27  1  0  0  0  0
  4 57  1  0  0  0  0
  5 28  1  0  0  0  0
  5 58  1  0  0  0  0
  6 32  1  0  0  0  0
  6 59  1  0  0  0  0
  7 32  2  0  0  0  0
  8 25  1  0  0  0  0
  8 26  1  0  0  0  0
  8 54  1  0  0  0  0
  9 10  1  0  0  0  0
  9 14  1  0  0  0  0
  9 15  1  0  0  0  0
  9 18  1  0  0  0  0
 10 13  1  0  0  0  0
 10 17  1  0  0  0  0
 10 33  1  0  0  0  0
 11 12  1  0  0  0  0
 11 14  1  0  0  0  0
 11 16  1  0  0  0  0
 11 34  1  0  0  0  0
 12 15  1  0  0  0  0
 12 19  1  0  0  0  0
 13 16  1  0  0  0  0
 13 35  1  0  0  0  0
 14 36  1  0  0  0  0
 14 37  1  0  0  0  0
 15 38  1  0  0  0  0
 15 39  1  0  0  0  0
 16 40  1  0  0  0  0
 16 41  1  0  0  0  0
 17 20  1  0  0  0  0
 17 21  1  0  0  0  0
 17 22  1  0  0  0  0
 18 23  2  0  0  0  0
 18 42  1  0  0  0  0
 19 43  1  0  0  0  0
 19 44  1  0  0  0  0
 19 45  1  0  0  0  0
 20 23  1  0  0  0  0
 21 24  1  0  0  0  0
 21 46  1  0  0  0  0
 21 47  1  0  0  0  0
 22 48  1  0  0  0  0
 22 49  1  0  0  0  0
 22 50  1  0  0  0  0
 23 51  1  0  0  0  0
 24 25  1  0  0  0  0
 24 52  1  0  0  0  0
 24 53  1  0  0  0  0
 26 27  1  0  0  0  0
 26 28  2  0  0  0  0
 27 29  2  0  0  0  0
 28 30  1  0  0  0  0
 29 31  1  0  0  0  0
 29 32  1  0  0  0  0
 30 31  2  0  0  0  0
 30 55  1  0  0  0  0
 31 56  1  0  0  0  0
M  END
> <PUBCHEM_COMPOUND_CID>
6857724

> <PUBCHEM_CONFORMER_RMSD>
1

> <PUBCHEM_CONFORMER_DIVERSEORDER>
1
18
17
20
3
9
19
7
13
12
15
11
4
16
10
8
5
14
2
6

> <PUBCHEM_MMFF94_PARTIAL_CHARGES>
32
1 -0.56
12 0.28
13 0.28
17 0.06
18 -0.29
2 -0.57
20 0.49
23 -0.14
24 0.06
25 0.57
26 0.12
27 0.08
28 0.08
29 0.09
3 -0.57
30 -0.15
31 -0.15
32 0.63
4 -0.53
42 0.15
5 -0.53
51 0.15
54 0.37
55 0.15
56 0.15
57 0.45
58 0.45
59 0.5
6 -0.65
7 -0.57
8 -0.55
9 0.14

> <PUBCHEM_EFFECTIVE_ROTOR_COUNT>
7

> <PUBCHEM_PHARMACOPHORE_FEATURES>
12
1 1 acceptor
1 2 acceptor
1 3 acceptor
1 4 donor
1 5 donor
1 6 acceptor
1 7 acceptor
1 8 donor
3 6 7 32 anion
6 26 27 28 29 30 31 rings
6 9 10 17 18 20 23 rings
9 1 9 10 11 12 13 14 15 16 rings

> <PUBCHEM_HEAVY_ATOM_COUNT>
32

> <PUBCHEM_ATOM_DEF_STEREO_COUNT>
6

> <PUBCHEM_ATOM_UDEF_STEREO_COUNT>
0

> <PUBCHEM_BOND_DEF_STEREO_COUNT>
0

> <PUBCHEM_BOND_UDEF_STEREO_COUNT>
0

> <PUBCHEM_ISOTOPIC_ATOM_COUNT>
0

> <PUBCHEM_COMPONENT_COUNT>
1

> <PUBCHEM_CACTVS_TAUTO_COUNT>
24

> <PUBCHEM_CONFORMER_ID>
0068A3FC00000001

> <PUBCHEM_MMFF94_ENERGY>
136.5984

> <PUBCHEM_FEATURE_SELFOVERLAP>
60.97

> <PUBCHEM_SHAPE_FINGERPRINT>
10 15 11455886941408299438
105312 117 18413395345242874751
10670039 82 18273497870527173446
10674148 151 16443347624280073243
10864689 126 18125172768631161748
11135926 11 17676752259075440078
11475781 23 18334306374804203560
12082328 90 17846489306504682602
12166972 35 14418142807203488538
13690498 29 18190177884413369815
13761468 95 18195242450151774437
13782708 43 17676493800305956270
14068700 675 17058363675230158243
14840074 17 16845576430418331877
14856354 85 16486965172543376803
15064986 266 17458618987409235737
15081414 286 14549019875956362238
15082195 135 18115865210193244736
15183329 4 18187363268216789530
15274700 147 16390442036519032340
15274700 232 15400254334722942722
15513586 35 16772937113442002069
15575132 122 18059302079778657837
17780758 139 8718826500945663975
17857418 61 13912323473592492776
17913733 40 14261636136083757872
18393751 57 12679170627087786817
19377110 9 8718538446179737698
19841028 212 6698365085208030117
19958102 18 18335147500482150846
21033650 10 18342175570227120289
21223535 225 17677611037211522409
21756936 100 17632291276784910691
22061861 79 17603303743909327548
22122407 14 15266799796192958783
22393880 68 18186526479622919930
23081809 10 17489314058001591410
23198884 109 17822009826615031305
23559900 14 17676777482779416544
23569914 152 17321549723083657198
255183 451 17471028978048880111
32027 91 17822284739246217246
3552219 110 15983676864009273179
3610482 184 17704066287897857974
4015057 19 17022903411199691746
4073 2 18260830354789340674
4098825 35 17458060482820831475
4169191 19 16413781585111620412
4258327 124 16271932597495055551
44249763 50 18337123263164342944
46194498 28 17970920950956212192
484985 159 15792012226180427623
508706 21 18337957783382983978
5219985 9 16557047950221629683
5283173 99 18259708891034991528
531348 171 16370721569402921761
5937810 71 16558167317556340366
6034566 193 16559038181366577939
6086070 43 18186812374500332130
6608658 132 17989216953397016325

> <PUBCHEM_SHAPE_MULTIPOLES>
612.48
18.71
2.64
2.24
30.57
0.42
-0.07
-7.11
8.41
-5.15
0.6
1.48
-0.02
1.89

> <PUBCHEM_SHAPE_SELFOVERLAP>
1362.742

> <PUBCHEM_SHAPE_VOLUME>
326.3

> <PUBCHEM_COORDINATE_TYPE>
2
5
10

$$$$

