5316752
  -OEChem-07051213083D

 41 43  0     1  0  0  0  0  0999 V2000
    1.6001    0.6623   -0.0665 O   0  0  0  0  0  0  0  0  0  0  0  0
    0.4590   -1.3489   -0.3774 O   0  0  0  0  0  0  0  0  0  0  0  0
    5.2184   -1.1219   -0.8354 O   0  0  0  0  0  0  0  0  0  0  0  0
    5.1348    1.4516    0.4782 O   0  0  0  0  0  0  0  0  0  0  0  0
    2.8936   -2.7547   -0.0545 O   0  0  0  0  0  0  0  0  0  0  0  0
    1.3145    3.2252    0.8854 O   0  0  0  0  0  0  0  0  0  0  0  0
   -1.1173    0.3562   -0.5658 O   0  0  0  0  0  0  0  0  0  0  0  0
   -1.4149   -3.1127    0.3349 O   0  0  0  0  0  0  0  0  0  0  0  0
   -4.0465   -2.4182    0.5174 O   0  0  0  0  0  0  0  0  0  0  0  0
   -3.0315   -1.4657    0.3526 N   0  0  0  0  0  0  0  0  0  0  0  0
    4.1354   -0.6862   -0.0123 C   0  0  1  0  0  0  0  0  0  0  0  0
    4.0166    0.8317   -0.1515 C   0  0  1  0  0  0  0  0  0  0  0  0
    2.8487   -1.3846   -0.4521 C   0  0  2  0  0  0  0  0  0  0  0  0
    2.7260    1.3372    0.4974 C   0  0  1  0  0  0  0  0  0  0  0  0
    1.6193   -0.7402    0.1885 C   0  0  1  0  0  0  0  0  0  0  0  0
    2.5275    2.8324    0.2695 C   0  0  0  0  0  0  0  0  0  0  0  0
   -0.7330   -0.7946    0.1663 C   0  0  1  0  0  0  0  0  0  0  0  0
   -1.7460   -1.9312    0.2719 C   0  0  0  0  0  0  0  0  0  0  0  0
   -2.4173    0.7392   -0.3652 C   0  0  0  0  0  0  0  0  0  0  0  0
   -3.4046   -0.1453    0.0806 C   0  0  0  0  0  0  0  0  0  0  0  0
   -2.7467    2.0544   -0.6967 C   0  0  0  0  0  0  0  0  0  0  0  0
   -4.7250    0.2987    0.2061 C   0  0  0  0  0  0  0  0  0  0  0  0
   -4.0622    2.4954   -0.5614 C   0  0  0  0  0  0  0  0  0  0  0  0
   -5.0489    1.6197   -0.1099 C   0  0  0  0  0  0  0  0  0  0  0  0
    4.3925   -0.9707    1.0155 H   0  0  0  0  0  0  0  0  0  0  0  0
    4.0463    1.1035   -1.2138 H   0  0  0  0  0  0  0  0  0  0  0  0
    2.7606   -1.3702   -1.5456 H   0  0  0  0  0  0  0  0  0  0  0  0
    2.7326    1.1573    1.5811 H   0  0  0  0  0  0  0  0  0  0  0  0
    1.6158   -0.9298    1.2708 H   0  0  0  0  0  0  0  0  0  0  0  0
    2.4522    3.0688   -0.7971 H   0  0  0  0  0  0  0  0  0  0  0  0
    3.3409    3.4200    0.7045 H   0  0  0  0  0  0  0  0  0  0  0  0
   -0.5565   -0.4845    1.2080 H   0  0  0  0  0  0  0  0  0  0  0  0
    6.0167   -0.6522   -0.5387 H   0  0  0  0  0  0  0  0  0  0  0  0
    5.1133    1.2212    1.4227 H   0  0  0  0  0  0  0  0  0  0  0  0
    3.6923   -3.1453   -0.4489 H   0  0  0  0  0  0  0  0  0  0  0  0
    0.5999    2.6945    0.4935 H   0  0  0  0  0  0  0  0  0  0  0  0
   -1.9847    2.7392   -1.0590 H   0  0  0  0  0  0  0  0  0  0  0  0
   -5.5144   -0.3644    0.5493 H   0  0  0  0  0  0  0  0  0  0  0  0
   -4.3199    3.5201   -0.8130 H   0  0  0  0  0  0  0  0  0  0  0  0
   -6.0741    1.9646   -0.0089 H   0  0  0  0  0  0  0  0  0  0  0  0
   -3.8105   -3.0707   -0.1637 H   0  0  0  0  0  0  0  0  0  0  0  0
  1 14  1  0  0  0  0
  1 15  1  0  0  0  0
  2 15  1  0  0  0  0
  2 17  1  0  0  0  0
  3 11  1  0  0  0  0
  3 33  1  0  0  0  0
  4 12  1  0  0  0  0
  4 34  1  0  0  0  0
  5 13  1  0  0  0  0
  5 35  1  0  0  0  0
  6 16  1  0  0  0  0
  6 36  1  0  0  0  0
  7 17  1  0  0  0  0
  7 19  1  0  0  0  0
  8 18  2  0  0  0  0
  9 10  1  0  0  0  0
  9 41  1  0  0  0  0
 10 18  1  0  0  0  0
 10 20  1  0  0  0  0
 11 12  1  0  0  0  0
 11 13  1  0  0  0  0
 11 25  1  0  0  0  0
 12 14  1  0  0  0  0
 12 26  1  0  0  0  0
 13 15  1  0  0  0  0
 13 27  1  0  0  0  0
 14 16  1  0  0  0  0
 14 28  1  0  0  0  0
 15 29  1  0  0  0  0
 16 30  1  0  0  0  0
 16 31  1  0  0  0  0
 17 18  1  0  0  0  0
 17 32  1  0  0  0  0
 19 20  1  0  0  0  0
 19 21  2  0  0  0  0
 20 22  2  0  0  0  0
 21 23  1  0  0  0  0
 21 37  1  0  0  0  0
 22 24  1  0  0  0  0
 22 38  1  0  0  0  0
 23 24  2  0  0  0  0
 23 39  1  0  0  0  0
 24 40  1  0  0  0  0
M  END
> <PUBCHEM_COMPOUND_CID>
5316752

> <PUBCHEM_CONFORMER_RMSD>
0.8

> <PUBCHEM_CONFORMER_DIVERSEORDER>
1
9
82
78
36
88
66
71
16
80
21
47
10
12
52
79
42
22
74
57
7
40
44
84
91
17
45
41
20
29
81
11
89
3
19
8
63
77
67
4
54
93
35
37
50
94
56
55
6
53
95
87
85
75
2
62
73
86
59
48
33
28
23
61
5
64
76
69
58
83
51
15
60
92
49
26
72
65
90
43
13
34
31
25
32
68
39
14
46
38
18
30
27
24
70

> <PUBCHEM_MMFF94_PARTIAL_CHARGES>
33
1 -0.56
10 -0.14
11 0.28
12 0.28
13 0.28
14 0.28
15 0.56
16 0.28
17 0.62
18 0.57
19 0.08
2 -0.56
20 0.12
21 -0.15
22 -0.15
23 -0.15
24 -0.15
3 -0.68
33 0.4
34 0.4
35 0.4
36 0.4
37 0.15
38 0.15
39 0.15
4 -0.68
40 0.15
41 0.4
5 -0.68
6 -0.68
7 -0.36
8 -0.57
9 -0.44

> <PUBCHEM_EFFECTIVE_ROTOR_COUNT>
4.8

> <PUBCHEM_PHARMACOPHORE_FEATURES>
15
1 1 acceptor
1 2 acceptor
1 3 acceptor
1 3 donor
1 4 acceptor
1 4 donor
1 5 acceptor
1 5 donor
1 6 acceptor
1 6 donor
1 7 acceptor
1 8 acceptor
6 1 11 12 13 14 15 rings
6 19 20 21 22 23 24 rings
6 7 10 17 18 19 20 rings

> <PUBCHEM_HEAVY_ATOM_COUNT>
24

> <PUBCHEM_ATOM_DEF_STEREO_COUNT>
5

> <PUBCHEM_ATOM_UDEF_STEREO_COUNT>
1

> <PUBCHEM_BOND_DEF_STEREO_COUNT>
0

> <PUBCHEM_BOND_UDEF_STEREO_COUNT>
0

> <PUBCHEM_ISOTOPIC_ATOM_COUNT>
0

> <PUBCHEM_COMPONENT_COUNT>
1

> <PUBCHEM_CACTVS_TAUTO_COUNT>
1

> <PUBCHEM_CONFORMER_ID>
0051209000000001

> <PUBCHEM_MMFF94_ENERGY>
71.7253

> <PUBCHEM_FEATURE_SELFOVERLAP>
76.265

> <PUBCHEM_SHAPE_FINGERPRINT>
10319926 262 18340781377242088722
10411042 1 17620471316544995931
10608611 8 18410857629123589035
1100329 8 16752969264668343185
11578080 2 16879653482676349178
11595378 159 16917076602199906413
12173636 292 18341615927778597815
12403259 226 18337955580264948345
12633257 1 18342187690719768384
12769317 202 17909004432224890357
12788726 201 17971754634426324880
13134695 92 17167585990494255952
13140716 1 18269843171191560851
13402501 40 18410576218545514437
14251757 17 18409449214905676712
14341114 176 18410287025596903761
14790565 3 18049718821982557393
14866123 147 16463328236716001914
15081414 286 18187638090658891656
15196674 1 18410855447507030020
1601671 61 18410576180618594460
20645477 56 18271240616506078767
20645477 70 17748820848039332502
20681677 76 18410016503039563855
21033648 29 18129676308313353021
21065198 57 18411418392923040306
21279426 13 18265332987764226780
21421861 104 17773893059137799522
221357 26 18336550524706283941
221490 88 18410569548777282112
22289505 5 18336550537759860980
23227448 37 18408326566663448047
23558518 356 18057326071950415867
23559900 14 18335985354365293314
3004659 81 18057316400634326166
335352 9 18410575132366675006
350125 39 18339636742175982897
3524813 1 18271812375179318797
3545911 37 18411416245439210525
3680242 22 18197500842375489600
4214541 1 18411698798653126983
495365 180 17749686154947469954
508706 21 18342466945399191405
5104073 3 18413108363859505122
6287921 2 17983573009793081444
9709674 26 18338233765117673983

> <PUBCHEM_SHAPE_MULTIPOLES>
436.1
10.91
3.45
0.74
1.24
0.17
-0.02
2.44
-0.52
-0.34
0.45
0.06
0.13
1.46

> <PUBCHEM_SHAPE_SELFOVERLAP>
932.837

> <PUBCHEM_SHAPE_VOLUME>
236.2

> <PUBCHEM_COORDINATE_TYPE>
2
5
10

$$$$

