4817
  -OEChem-06261200213D

 38 40  0     0  0  0  0  0  0999 V2000
    3.6404   -1.9127   -0.2778 S   0  0  0  0  0  0  0  0  0  0  0  0
   -0.3321   -0.3728   -1.5126 O   0  0  0  0  0  0  0  0  0  0  0  0
    1.4401   -0.7359    0.4691 N   0  0  0  0  0  0  0  0  0  0  0  0
    1.3454   -3.1649    0.2486 N   0  0  0  0  0  0  0  0  0  0  0  0
    2.3936    0.2690    0.2730 C   0  0  0  0  0  0  0  0  0  0  0  0
    2.0933    1.7252    0.4646 C   0  0  0  0  0  0  0  0  0  0  0  0
    3.1828    2.6303   -0.1281 C   0  0  0  0  0  0  0  0  0  0  0  0
    4.5874    2.1077    0.1795 C   0  0  0  0  0  0  0  0  0  0  0  0
    4.7949    0.6884   -0.3637 C   0  0  0  0  0  0  0  0  0  0  0  0
    3.6044   -0.1750   -0.1140 C   0  0  0  0  0  0  0  0  0  0  0  0
    0.0641   -0.4851    0.8596 C   0  0  0  0  0  0  0  0  0  0  0  0
    1.9215   -2.0134    0.2025 C   0  0  0  0  0  0  0  0  0  0  0  0
   -0.7960   -0.3097   -0.3761 C   0  0  0  0  0  0  0  0  0  0  0  0
   -2.2559   -0.0536   -0.1994 C   0  0  0  0  0  0  0  0  0  0  0  0
   -2.7633    0.0132    1.0780 C   0  0  0  0  0  0  0  0  0  0  0  0
   -3.0378    0.1049   -1.3206 C   0  0  0  0  0  0  0  0  0  0  0  0
   -4.9471    0.4167    0.1266 C   0  0  0  0  0  0  0  0  0  0  0  0
   -4.1277    0.2516    1.2433 C   0  0  0  0  0  0  0  0  0  0  0  0
   -4.4022    0.3433   -1.1553 C   0  0  0  0  0  0  0  0  0  0  0  0
   -6.4059    0.6728    0.3030 C   0  0  0  0  0  0  0  0  0  0  0  0
    1.1385    1.9903   -0.0032 H   0  0  0  0  0  0  0  0  0  0  0  0
    2.0006    1.9276    1.5386 H   0  0  0  0  0  0  0  0  0  0  0  0
    3.0527    2.6932   -1.2163 H   0  0  0  0  0  0  0  0  0  0  0  0
    3.0673    3.6471    0.2642 H   0  0  0  0  0  0  0  0  0  0  0  0
    4.7426    2.1101    1.2661 H   0  0  0  0  0  0  0  0  0  0  0  0
    5.3399    2.7787   -0.2500 H   0  0  0  0  0  0  0  0  0  0  0  0
    5.6902    0.2596    0.1014 H   0  0  0  0  0  0  0  0  0  0  0  0
    4.9797    0.7356   -1.4439 H   0  0  0  0  0  0  0  0  0  0  0  0
   -0.3082   -1.3385    1.4377 H   0  0  0  0  0  0  0  0  0  0  0  0
    0.0006    0.4094    1.4877 H   0  0  0  0  0  0  0  0  0  0  0  0
    2.0240   -3.8865   -0.0184 H   0  0  0  0  0  0  0  0  0  0  0  0
   -2.1659   -0.1095    1.9738 H   0  0  0  0  0  0  0  0  0  0  0  0
   -2.6339    0.0511   -2.3267 H   0  0  0  0  0  0  0  0  0  0  0  0
   -4.5415    0.3050    2.2469 H   0  0  0  0  0  0  0  0  0  0  0  0
   -5.0308    0.4687   -2.0329 H   0  0  0  0  0  0  0  0  0  0  0  0
   -6.6023    1.2139    1.2349 H   0  0  0  0  0  0  0  0  0  0  0  0
   -6.8006    1.2874   -0.5132 H   0  0  0  0  0  0  0  0  0  0  0  0
   -6.9534   -0.2746    0.3255 H   0  0  0  0  0  0  0  0  0  0  0  0
  1 10  1  0  0  0  0
  1 12  1  0  0  0  0
  2 13  2  0  0  0  0
  3  5  1  0  0  0  0
  3 11  1  0  0  0  0
  3 12  1  0  0  0  0
  4 12  2  0  0  0  0
  4 31  1  0  0  0  0
  5  6  1  0  0  0  0
  5 10  2  0  0  0  0
  6  7  1  0  0  0  0
  6 21  1  0  0  0  0
  6 22  1  0  0  0  0
  7  8  1  0  0  0  0
  7 23  1  0  0  0  0
  7 24  1  0  0  0  0
  8  9  1  0  0  0  0
  8 25  1  0  0  0  0
  8 26  1  0  0  0  0
  9 10  1  0  0  0  0
  9 27  1  0  0  0  0
  9 28  1  0  0  0  0
 11 13  1  0  0  0  0
 11 29  1  0  0  0  0
 11 30  1  0  0  0  0
 13 14  1  0  0  0  0
 14 15  2  0  0  0  0
 14 16  1  0  0  0  0
 15 18  1  0  0  0  0
 15 32  1  0  0  0  0
 16 19  2  0  0  0  0
 16 33  1  0  0  0  0
 17 18  2  0  0  0  0
 17 19  1  0  0  0  0
 17 20  1  0  0  0  0
 18 34  1  0  0  0  0
 19 35  1  0  0  0  0
 20 36  1  0  0  0  0
 20 37  1  0  0  0  0
 20 38  1  0  0  0  0
M  END
> <PUBCHEM_COMPOUND_CID>
4817

> <PUBCHEM_CONFORMER_RMSD>
0.6

> <PUBCHEM_CONFORMER_DIVERSEORDER>
1
28
43
27
32
18
33
6
35
42
40
21
37
19
3
29
39
36
49
7
15
22
48
20
34
50
24
12
16
30
23
11
46
47
51
13
17
52
41
45
26
8
25
44
31
38
14
5
10
4
9
2

> <PUBCHEM_MMFF94_PARTIAL_CHARGES>
23
1 -0.24
10 -0.04
11 0.43
12 0.64
13 0.42
14 0.09
15 -0.15
16 -0.15
17 -0.14
18 -0.15
19 -0.15
2 -0.57
20 0.14
3 -0.52
31 0.4
32 0.15
33 0.15
34 0.15
35 0.15
4 -0.85
5 -0.04
6 0.14
9 0.14

> <PUBCHEM_EFFECTIVE_ROTOR_COUNT>
3.8

> <PUBCHEM_PHARMACOPHORE_FEATURES>
6
1 2 acceptor
1 4 donor
3 3 4 12 cation
5 1 3 5 10 12 rings
6 14 15 16 17 18 19 rings
6 5 6 7 8 9 10 rings

> <PUBCHEM_HEAVY_ATOM_COUNT>
20

> <PUBCHEM_ATOM_DEF_STEREO_COUNT>
0

> <PUBCHEM_ATOM_UDEF_STEREO_COUNT>
0

> <PUBCHEM_BOND_DEF_STEREO_COUNT>
0

> <PUBCHEM_BOND_UDEF_STEREO_COUNT>
0

> <PUBCHEM_ISOTOPIC_ATOM_COUNT>
0

> <PUBCHEM_COMPONENT_COUNT>
1

> <PUBCHEM_CACTVS_TAUTO_COUNT>
2

> <PUBCHEM_CONFORMER_ID>
000012D100000001

> <PUBCHEM_MMFF94_ENERGY>
40.1061

> <PUBCHEM_FEATURE_SELFOVERLAP>
30.501

> <PUBCHEM_SHAPE_FINGERPRINT>
10366900 7 18059847419811874539
10411042 1 17978508969053757034
10693767 8 17969214702801143750
11471102 20 18411138052255370378
11796584 16 14635139145175601020
12107183 9 17613710844862439377
12236239 1 17749109993262968393
12403259 415 17846221102807780541
12616971 3 18188218679588953319
12730499 353 18343577443173431018
12788726 201 17168416164685762569
13009979 54 17388535196910746378
13533116 47 18340485677280848267
13583140 156 18409725128590614355
13631057 29 18045793290973168735
13760787 19 18113341894988292183
13955234 65 18342180015703479234
14341114 176 18411973689798569721
14386348 63 17489302014559767699
14528608 73 18335986389446987613
15342168 16 18199182897782471052
15375358 24 17489869353896035931
17834072 33 18334579027638402599
17844677 252 18338512058103678661
1813 80 17680419254628686262
18186145 218 18408884006247570860
19784866 34 18263086535063505600
20157964 124 18410576210720022485
204376 136 18341049623017796546
20612939 158 18335416885426122504
20645477 56 17988926669758456767
20645477 70 18337391638105841246
21033648 29 17917722313776346677
21033650 10 15358793696373728024
21065201 7 16056597715891837355
22122407 14 18260815026146527353
221357 26 18410855503236597244
22289505 5 18340775952081247428
2255824 54 18335142033189366158
22854114 59 18059857250992021409
23402655 69 18187647951629048364
23532345 1 18411699893648273986
23557571 272 16701738366728487767
23559900 14 16558191656107955283
25 1 18337671923919442640
3004659 81 16588295129720499630
3060560 45 18408885148851679918
335352 9 18410289199873261518
341906 21 15769785692565135229
3545911 37 18341891874836771649
42630746 31 18409167723186835922
4409770 3 15520913743584137246
449060 50 18272370871456901503
474 4 18410012096213435032
495365 180 18410580569652931474
4990 188 5545198320249829245
5104073 3 18343586209212258235
5281201 14 18341050829866560396
542803 24 17967532389621802497
602551 16 16271918268771610392
621550 34 18060143175623520255
633830 44 18261106361692233654
8272917 22 18335699476714814502
9981440 41 16306298713689037488
9999458 23 18412542128551630918

> <PUBCHEM_SHAPE_MULTIPOLES>
399.61
12.16
2.28
1.09
11.68
0.53
-0.14
-4.74
-0.05
-4.17
0.15
1.02
0
0

> <PUBCHEM_SHAPE_SELFOVERLAP>
844.281

> <PUBCHEM_SHAPE_VOLUME>
227.3

> <PUBCHEM_COORDINATE_TYPE>
2
5
10

$$$$

