7847
  -OEChem-06261202232D

  8  7  0     0  0  0  0  0  0999 V2000
    2.0000    0.5600    0.0000 O   0  0  0  0  0  0  0  0  0  0  0  0
    3.7320    0.5600    0.0000 C   0  0  0  0  0  0  0  0  0  0  0  0
    2.8660    0.0600    0.0000 C   0  0  0  0  0  0  0  0  0  0  0  0
    4.5981    0.0600    0.0000 C   0  0  0  0  0  0  0  0  0  0  0  0
    3.7320    1.1800    0.0000 H   0  0  0  0  0  0  0  0  0  0  0  0
    2.8660   -0.5600    0.0000 H   0  0  0  0  0  0  0  0  0  0  0  0
    4.5981   -0.5600    0.0000 H   0  0  0  0  0  0  0  0  0  0  0  0
    5.1350    0.3700    0.0000 H   0  0  0  0  0  0  0  0  0  0  0  0
  1  3  2  0  0  0  0
  2  3  1  0  0  0  0
  2  4  2  0  0  0  0
  2  5  1  0  0  0  0
  3  6  1  0  0  0  0
  4  7  1  0  0  0  0
  4  8  1  0  0  0  0
M  END
> <PUBCHEM_COMPOUND_CID>
7847

> <PUBCHEM_COMPOUND_CANONICALIZED>
1

> <PUBCHEM_CACTVS_COMPLEXITY>
30.3

> <PUBCHEM_CACTVS_HBOND_ACCEPTOR>
1

> <PUBCHEM_CACTVS_HBOND_DONOR>
0

> <PUBCHEM_CACTVS_ROTATABLE_BOND>
1

> <PUBCHEM_CACTVS_SUBSKEYS>
AAADcYBAIAAAAAAAAAAAAAAAAAAAAAAAAAAAAAAAAAAAAAAAAAAAGgAAAAAACACggAIAAAAAAACIAChSgAAAAAAAAAAIAAAAAEAAAAAAAQAAAAAAAAAAAIAAAAAAAAAAAAAAAAAAAAAAAAAAAAAAAAAAAA==

> <PUBCHEM_IUPAC_OPENEYE_NAME>
prop-2-enal

> <PUBCHEM_IUPAC_CAS_NAME>
2-propenal

> <PUBCHEM_IUPAC_NAME>
prop-2-enal

> <PUBCHEM_IUPAC_SYSTEMATIC_NAME>
prop-2-enal

> <PUBCHEM_IUPAC_TRADITIONAL_NAME>
acrolein

> <PUBCHEM_IUPAC_INCHI>
InChI=1S/C3H4O/c1-2-3-4/h2-3H,1H2

> <PUBCHEM_IUPAC_INCHIKEY>
HGINCPLSRVDWNT-UHFFFAOYSA-N

> <PUBCHEM_XLOGP3>
0

> <PUBCHEM_EXACT_MASS>
56.026215

> <PUBCHEM_MOLECULAR_FORMULA>
C3H4O

> <PUBCHEM_MOLECULAR_WEIGHT>
56.06326

> <PUBCHEM_OPENEYE_CAN_SMILES>
C=CC=O

> <PUBCHEM_OPENEYE_ISO_SMILES>
C=CC=O

> <PUBCHEM_CACTVS_TPSA>
17.1

> <PUBCHEM_MONOISOTOPIC_WEIGHT>
56.026215

> <PUBCHEM_TOTAL_CHARGE>
0

> <PUBCHEM_HEAVY_ATOM_COUNT>
4

> <PUBCHEM_ATOM_DEF_STEREO_COUNT>
0

> <PUBCHEM_ATOM_UDEF_STEREO_COUNT>
0

> <PUBCHEM_BOND_DEF_STEREO_COUNT>
0

> <PUBCHEM_BOND_UDEF_STEREO_COUNT>
0

> <PUBCHEM_ISOTOPIC_ATOM_COUNT>
0

> <PUBCHEM_COMPONENT_COUNT>
1

> <PUBCHEM_CACTVS_TAUTO_COUNT>
1

> <PUBCHEM_COORDINATE_TYPE>
1
5
255

$$$$

