3654
  -OEChem-06251223342D

 37 38  0     0  0  0  0  0  0999 V2000
    2.5369    1.2500    0.0000 O   0  0  0  0  0  0  0  0  0  0  0  0
    5.1350    4.7500    0.0000 N   0  0  0  0  0  0  0  0  0  0  0  0
    6.0010   -4.7500    0.0000 N   0  0  0  0  0  0  0  0  0  0  0  0
    3.4030    4.7500    0.0000 N   0  0  0  0  0  0  0  0  0  0  0  0
    4.2690   -4.7500    0.0000 N   0  0  0  0  0  0  0  0  0  0  0  0
    4.2690    1.2500    0.0000 C   0  0  0  0  0  0  0  0  0  0  0  0
    5.1350   -1.2500    0.0000 C   0  0  0  0  0  0  0  0  0  0  0  0
    3.4030    1.7500    0.0000 C   0  0  0  0  0  0  0  0  0  0  0  0
    4.2690    0.2500    0.0000 C   0  0  0  0  0  0  0  0  0  0  0  0
    4.2690    3.2500    0.0000 C   0  0  0  0  0  0  0  0  0  0  0  0
    5.1350    1.7500    0.0000 C   0  0  0  0  0  0  0  0  0  0  0  0
    5.1350   -0.2500    0.0000 C   0  0  0  0  0  0  0  0  0  0  0  0
    3.4030    2.7500    0.0000 C   0  0  0  0  0  0  0  0  0  0  0  0
    5.1350    2.7500    0.0000 C   0  0  0  0  0  0  0  0  0  0  0  0
    6.0010   -1.7500    0.0000 C   0  0  0  0  0  0  0  0  0  0  0  0
    4.2690   -1.7500    0.0000 C   0  0  0  0  0  0  0  0  0  0  0  0
    5.1350   -3.2500    0.0000 C   0  0  0  0  0  0  0  0  0  0  0  0
    6.0010   -2.7500    0.0000 C   0  0  0  0  0  0  0  0  0  0  0  0
    4.2690   -2.7500    0.0000 C   0  0  0  0  0  0  0  0  0  0  0  0
    4.2690    4.2500    0.0000 C   0  0  0  0  0  0  0  0  0  0  0  0
    5.1350   -4.2500    0.0000 C   0  0  0  0  0  0  0  0  0  0  0  0
    3.7321   -0.0600    0.0000 H   0  0  0  0  0  0  0  0  0  0  0  0
    5.6719    1.4400    0.0000 H   0  0  0  0  0  0  0  0  0  0  0  0
    5.6719    0.0600    0.0000 H   0  0  0  0  0  0  0  0  0  0  0  0
    2.8660    3.0600    0.0000 H   0  0  0  0  0  0  0  0  0  0  0  0
    5.6719    3.0600    0.0000 H   0  0  0  0  0  0  0  0  0  0  0  0
    6.5380   -1.4400    0.0000 H   0  0  0  0  0  0  0  0  0  0  0  0
    3.7321   -1.4400    0.0000 H   0  0  0  0  0  0  0  0  0  0  0  0
    6.5380   -3.0600    0.0000 H   0  0  0  0  0  0  0  0  0  0  0  0
    3.7321   -3.0600    0.0000 H   0  0  0  0  0  0  0  0  0  0  0  0
    2.0000    1.5600    0.0000 H   0  0  0  0  0  0  0  0  0  0  0  0
    5.1350    5.3700    0.0000 H   0  0  0  0  0  0  0  0  0  0  0  0
    5.6719    4.4400    0.0000 H   0  0  0  0  0  0  0  0  0  0  0  0
    6.0010   -5.3700    0.0000 H   0  0  0  0  0  0  0  0  0  0  0  0
    6.5380   -4.4400    0.0000 H   0  0  0  0  0  0  0  0  0  0  0  0
    3.4030    5.3700    0.0000 H   0  0  0  0  0  0  0  0  0  0  0  0
    4.2690   -5.3700    0.0000 H   0  0  0  0  0  0  0  0  0  0  0  0
  1  8  1  0  0  0  0
  1 31  1  0  0  0  0
  2 20  1  0  0  0  0
  2 32  1  0  0  0  0
  2 33  1  0  0  0  0
  3 21  1  0  0  0  0
  3 34  1  0  0  0  0
  3 35  1  0  0  0  0
  4 20  2  0  0  0  0
  4 36  1  0  0  0  0
  5 21  2  0  0  0  0
  5 37  1  0  0  0  0
  6  8  2  0  0  0  0
  6  9  1  0  0  0  0
  6 11  1  0  0  0  0
  7 12  1  0  0  0  0
  7 15  2  0  0  0  0
  7 16  1  0  0  0  0
  8 13  1  0  0  0  0
  9 12  2  3  0  0  0
  9 22  1  0  0  0  0
 10 13  2  0  0  0  0
 10 14  1  0  0  0  0
 10 20  1  0  0  0  0
 11 14  2  0  0  0  0
 11 23  1  0  0  0  0
 12 24  1  0  0  0  0
 13 25  1  0  0  0  0
 14 26  1  0  0  0  0
 15 18  1  0  0  0  0
 15 27  1  0  0  0  0
 16 19  2  0  0  0  0
 16 28  1  0  0  0  0
 17 18  2  0  0  0  0
 17 19  1  0  0  0  0
 17 21  1  0  0  0  0
 18 29  1  0  0  0  0
 19 30  1  0  0  0  0
M  END
> <PUBCHEM_COMPOUND_CID>
3654

> <PUBCHEM_COMPOUND_CANONICALIZED>
1

> <PUBCHEM_CACTVS_COMPLEXITY>
413

> <PUBCHEM_CACTVS_HBOND_ACCEPTOR>
3

> <PUBCHEM_CACTVS_HBOND_DONOR>
5

> <PUBCHEM_CACTVS_ROTATABLE_BOND>
4

> <PUBCHEM_CACTVS_SUBSKEYS>
AAADceB7oAAAAAAAAAAAAAAAAAAAAAAAAAAwYAAAAAAAAAABQAAAHgAQCAAADASBmAAxBoBAAgCgAiJiIACCAACgIAAIiAAmDJgIJqKCkROAcABkwBEImAewwDAOQAABAAAIAACAAAIAABAAAAAAAAAAAA==

> <PUBCHEM_IUPAC_OPENEYE_NAME>
4-[2-(4-carbamimidoylphenyl)vinyl]-3-hydroxy-benzamidine

> <PUBCHEM_IUPAC_CAS_NAME>
4-[2-(4-carbamimidoylphenyl)ethenyl]-3-hydroxybenzenecarboximidamide

> <PUBCHEM_IUPAC_NAME>
4-[2-(4-carbamimidoylphenyl)ethenyl]-3-hydroxybenzenecarboximidamide

> <PUBCHEM_IUPAC_SYSTEMATIC_NAME>
4-[2-(4-carbamimidoylphenyl)ethenyl]-3-oxidanyl-benzenecarboximidamide

> <PUBCHEM_IUPAC_TRADITIONAL_NAME>
4-[2-(4-amidinophenyl)vinyl]-3-hydroxy-benzamidine

> <PUBCHEM_IUPAC_INCHI>
InChI=1S/C16H16N4O/c17-15(18)12-5-2-10(3-6-12)1-4-11-7-8-13(16(19)20)9-14(11)21/h1-9,21H,(H3,17,18)(H3,19,20)

> <PUBCHEM_IUPAC_INCHIKEY>
TUESWZZJYCLFNL-UHFFFAOYSA-N

> <PUBCHEM_XLOGP3_AA>
1.8

> <PUBCHEM_EXACT_MASS>
280.132411

> <PUBCHEM_MOLECULAR_FORMULA>
C16H16N4O

> <PUBCHEM_MOLECULAR_WEIGHT>
280.32444

> <PUBCHEM_OPENEYE_CAN_SMILES>
C1=CC(=CC=C1C=CC2=C(C=C(C=C2)C(=N)N)O)C(=N)N

> <PUBCHEM_OPENEYE_ISO_SMILES>
C1=CC(=CC=C1C=CC2=C(C=C(C=C2)C(=N)N)O)C(=N)N

> <PUBCHEM_CACTVS_TPSA>
120

> <PUBCHEM_MONOISOTOPIC_WEIGHT>
280.132411

> <PUBCHEM_TOTAL_CHARGE>
0

> <PUBCHEM_HEAVY_ATOM_COUNT>
21

> <PUBCHEM_ATOM_DEF_STEREO_COUNT>
0

> <PUBCHEM_ATOM_UDEF_STEREO_COUNT>
0

> <PUBCHEM_BOND_DEF_STEREO_COUNT>
0

> <PUBCHEM_BOND_UDEF_STEREO_COUNT>
1

> <PUBCHEM_ISOTOPIC_ATOM_COUNT>
0

> <PUBCHEM_COMPONENT_COUNT>
1

> <PUBCHEM_CACTVS_TAUTO_COUNT>
5

> <PUBCHEM_COORDINATE_TYPE>
1
5
255

> <PUBCHEM_BONDANNOTATIONS>
10  13  8
10  14  8
11  14  8
15  18  8
16  19  8
17  18  8
17  19  8
6  11  8
6  8  8
7  15  8
7  16  8
8  13  8
9  12  1

$$$$

