17395560
  -OEChem-06241222512D

 38 40  0     1  0  0  0  0  0999 V2000
    2.6691   -0.9067    0.0000 S   0  0  0  0  0  0  0  0  0  0  0  0
    7.9128    2.0000    0.0000 O   0  0  0  0  0  0  0  0  0  0  0  0
    5.3147   -0.5000    0.0000 N   0  0  3  0  0  0  0  0  0  0  0  0
    7.9128   -1.0000    0.0000 N   0  0  0  0  0  0  0  0  0  0  0  0
    7.0468    0.5000    0.0000 N   0  0  0  0  0  0  0  0  0  0  0  0
    6.1808   -1.0000    0.0000 C   0  0  3  0  0  0  0  0  0  0  0  0
    7.0468   -0.5000    0.0000 C   0  0  0  0  0  0  0  0  0  0  0  0
    4.4487   -1.0000    0.0000 C   0  0  0  0  0  0  0  0  0  0  0  0
    6.1808   -2.0000    0.0000 C   0  0  0  0  0  0  0  0  0  0  0  0
    5.3147    0.5000    0.0000 C   0  0  0  0  0  0  0  0  0  0  0  0
    8.7788   -0.5000    0.0000 C   0  0  0  0  0  0  0  0  0  0  0  0
    3.5827   -0.5000    0.0000 C   0  0  0  0  0  0  0  0  0  0  0  0
    8.7788    0.5000    0.0000 C   0  0  0  0  0  0  0  0  0  0  0  0
    7.9128    1.0000    0.0000 C   0  0  0  0  0  0  0  0  0  0  0  0
    9.6728   -1.0347    0.0000 C   0  0  0  0  0  0  0  0  0  0  0  0
    3.4782    0.4945    0.0000 C   0  0  0  0  0  0  0  0  0  0  0  0
    9.6728    1.0347    0.0000 C   0  0  0  0  0  0  0  0  0  0  0  0
   10.5788   -0.5208    0.0000 C   0  0  0  0  0  0  0  0  0  0  0  0
   10.5788    0.5208    0.0000 C   0  0  0  0  0  0  0  0  0  0  0  0
    2.5000    0.7024    0.0000 C   0  0  0  0  0  0  0  0  0  0  0  0
    2.0000   -0.1636    0.0000 C   0  0  0  0  0  0  0  0  0  0  0  0
    6.1808   -0.3800    0.0000 H   0  0  0  0  0  0  0  0  0  0  0  0
    4.0502   -1.4750    0.0000 H   0  0  0  0  0  0  0  0  0  0  0  0
    4.8472   -1.4750    0.0000 H   0  0  0  0  0  0  0  0  0  0  0  0
    5.5608   -2.0000    0.0000 H   0  0  0  0  0  0  0  0  0  0  0  0
    6.1808   -2.6200    0.0000 H   0  0  0  0  0  0  0  0  0  0  0  0
    6.8008   -2.0000    0.0000 H   0  0  0  0  0  0  0  0  0  0  0  0
    5.9347    0.5000    0.0000 H   0  0  0  0  0  0  0  0  0  0  0  0
    5.3147    1.1200    0.0000 H   0  0  0  0  0  0  0  0  0  0  0  0
    4.6947    0.5000    0.0000 H   0  0  0  0  0  0  0  0  0  0  0  0
    7.9128   -1.6200    0.0000 H   0  0  0  0  0  0  0  0  0  0  0  0
    9.6656   -1.6546    0.0000 H   0  0  0  0  0  0  0  0  0  0  0  0
    3.9389    0.9094    0.0000 H   0  0  0  0  0  0  0  0  0  0  0  0
    9.6656    1.6546    0.0000 H   0  0  0  0  0  0  0  0  0  0  0  0
   11.1146   -0.8329    0.0000 H   0  0  0  0  0  0  0  0  0  0  0  0
   11.1146    0.8329    0.0000 H   0  0  0  0  0  0  0  0  0  0  0  0
    2.2478    1.2688    0.0000 H   0  0  0  0  0  0  0  0  0  0  0  0
    1.3834   -0.2284    0.0000 H   0  0  0  0  0  0  0  0  0  0  0  0
  1 12  1  0  0  0  0
  1 21  1  0  0  0  0
  2 14  2  0  0  0  0
  3  6  1  0  0  0  0
  3  8  1  0  0  0  0
  3 10  1  0  0  0  0
  4  7  1  0  0  0  0
  4 11  1  0  0  0  0
  4 31  1  0  0  0  0
  5  7  2  0  0  0  0
  5 14  1  0  0  0  0
  6  7  1  0  0  0  0
  6  9  1  0  0  0  0
  6 22  1  0  0  0  0
  8 12  1  0  0  0  0
  8 23  1  0  0  0  0
  8 24  1  0  0  0  0
  9 25  1  0  0  0  0
  9 26  1  0  0  0  0
  9 27  1  0  0  0  0
 10 28  1  0  0  0  0
 10 29  1  0  0  0  0
 10 30  1  0  0  0  0
 11 13  1  0  0  0  0
 11 15  2  0  0  0  0
 12 16  2  0  0  0  0
 13 14  1  0  0  0  0
 13 17  2  0  0  0  0
 15 18  1  0  0  0  0
 15 32  1  0  0  0  0
 16 20  1  0  0  0  0
 16 33  1  0  0  0  0
 17 19  1  0  0  0  0
 17 34  1  0  0  0  0
 18 19  2  0  0  0  0
 18 35  1  0  0  0  0
 19 36  1  0  0  0  0
 20 21  2  0  0  0  0
 20 37  1  0  0  0  0
 21 38  1  0  0  0  0
M  END
> <PUBCHEM_COMPOUND_CID>
17395560

> <PUBCHEM_COMPOUND_CANONICALIZED>
1

> <PUBCHEM_CACTVS_COMPLEXITY>
426

> <PUBCHEM_CACTVS_HBOND_ACCEPTOR>
3

> <PUBCHEM_CACTVS_HBOND_DONOR>
1

> <PUBCHEM_CACTVS_ROTATABLE_BOND>
4

> <PUBCHEM_CACTVS_SUBSKEYS>
AAADceB7IABAAAAAAAAAAAAAAAAAASAAAAAwQAAAAAAAAACBwAAAHgQQAAAADCjF2ASzwYPAAAisAidydACDAIElChBJiBk4ZMgIYDrg3ZGUIYhgkADoyccYiACOAAAAAAACAAAAAAAAAAQAAAAAAAAAAA==

> <PUBCHEM_IUPAC_OPENEYE_NAME>
2-[1-[methyl(2-thienylmethyl)amino]ethyl]-1H-quinazolin-4-one

> <PUBCHEM_IUPAC_CAS_NAME>
2-[1-[methyl(thiophen-2-ylmethyl)amino]ethyl]-1H-quinazolin-4-one

> <PUBCHEM_IUPAC_NAME>
2-[1-[methyl(thiophen-2-ylmethyl)amino]ethyl]-1H-quinazolin-4-one

> <PUBCHEM_IUPAC_SYSTEMATIC_NAME>
2-[1-[methyl(thiophen-2-ylmethyl)amino]ethyl]-1H-quinazolin-4-one

> <PUBCHEM_IUPAC_TRADITIONAL_NAME>
2-[1-[methyl(2-thenyl)amino]ethyl]-1H-quinazolin-4-one

> <PUBCHEM_IUPAC_INCHI>
InChI=1S/C16H17N3OS/c1-11(19(2)10-12-6-5-9-21-12)15-17-14-8-4-3-7-13(14)16(20)18-15/h3-9,11H,10H2,1-2H3,(H,17,18,20)

> <PUBCHEM_IUPAC_INCHIKEY>
PKSKFTNECPDZNB-UHFFFAOYSA-N

> <PUBCHEM_XLOGP3_AA>
2.4

> <PUBCHEM_EXACT_MASS>
299.109233

> <PUBCHEM_MOLECULAR_FORMULA>
C16H17N3OS

> <PUBCHEM_MOLECULAR_WEIGHT>
299.39068

> <PUBCHEM_OPENEYE_CAN_SMILES>
CC(C1=NC(=O)C2=CC=CC=C2N1)N(C)CC3=CC=CS3

> <PUBCHEM_OPENEYE_ISO_SMILES>
CC(C1=NC(=O)C2=CC=CC=C2N1)N(C)CC3=CC=CS3

> <PUBCHEM_CACTVS_TPSA>
72.9

> <PUBCHEM_MONOISOTOPIC_WEIGHT>
299.109233

> <PUBCHEM_TOTAL_CHARGE>
0

> <PUBCHEM_HEAVY_ATOM_COUNT>
21

> <PUBCHEM_ATOM_DEF_STEREO_COUNT>
0

> <PUBCHEM_ATOM_UDEF_STEREO_COUNT>
1

> <PUBCHEM_BOND_DEF_STEREO_COUNT>
0

> <PUBCHEM_BOND_UDEF_STEREO_COUNT>
0

> <PUBCHEM_ISOTOPIC_ATOM_COUNT>
0

> <PUBCHEM_COMPONENT_COUNT>
1

> <PUBCHEM_CACTVS_TAUTO_COUNT>
10

> <PUBCHEM_COORDINATE_TYPE>
1
5
255

> <PUBCHEM_BONDANNOTATIONS>
1  12  8
1  21  8
11  13  8
11  15  8
12  16  8
13  14  8
13  17  8
15  18  8
16  20  8
17  19  8
18  19  8
20  21  8
4  11  8
4  7  8
5  14  8
5  7  8
6  9  3

$$$$

