3083857
  -OEChem-07051213093D

 32 33  0     1  0  0  0  0  0999 V2000
    0.4544    1.3287   -0.0377 O   0  0  0  0  0  0  0  0  0  0  0  0
   -1.2115    2.9232    0.1073 O   0  0  0  0  0  0  0  0  0  0  0  0
   -0.8001   -0.6124    0.3566 C   0  0  2  0  0  0  0  0  0  0  0  0
    0.4775   -0.0971   -0.2768 C   0  0  2  0  0  0  0  0  0  0  0  0
   -1.3772   -1.8952   -0.2341 C   0  0  0  0  0  0  0  0  0  0  0  0
   -1.6786    0.5571    0.1086 C   0  0  0  0  0  0  0  0  0  0  0  0
    1.7321   -0.6916    0.3386 C   0  0  0  0  0  0  0  0  0  0  0  0
   -2.8445   -2.0354    0.1911 C   0  0  0  0  0  0  0  0  0  0  0  0
   -3.6982   -0.8267   -0.2348 C   0  0  0  0  0  0  0  0  0  0  0  0
   -2.9858    0.4965   -0.1568 C   0  0  0  0  0  0  0  0  0  0  0  0
   -0.8401    1.7657    0.0607 C   0  0  0  0  0  0  0  0  0  0  0  0
    2.9972   -0.1186   -0.3008 C   0  0  0  0  0  0  0  0  0  0  0  0
    4.2577   -0.6938    0.3447 C   0  0  0  0  0  0  0  0  0  0  0  0
    5.5171   -0.1005   -0.2665 C   0  0  0  0  0  0  0  0  0  0  0  0
   -0.6801   -0.7226    1.4431 H   0  0  0  0  0  0  0  0  0  0  0  0
    0.4869   -0.2481   -1.3649 H   0  0  0  0  0  0  0  0  0  0  0  0
   -0.8007   -2.7611    0.1099 H   0  0  0  0  0  0  0  0  0  0  0  0
   -1.3172   -1.8841   -1.3299 H   0  0  0  0  0  0  0  0  0  0  0  0
    1.7228   -1.7821    0.2253 H   0  0  0  0  0  0  0  0  0  0  0  0
    1.7568   -0.4713    1.4134 H   0  0  0  0  0  0  0  0  0  0  0  0
   -2.8906   -2.1387    1.2830 H   0  0  0  0  0  0  0  0  0  0  0  0
   -3.2716   -2.9530   -0.2293 H   0  0  0  0  0  0  0  0  0  0  0  0
   -4.6038   -0.7914    0.3813 H   0  0  0  0  0  0  0  0  0  0  0  0
   -4.0239   -0.9705   -1.2723 H   0  0  0  0  0  0  0  0  0  0  0  0
   -3.5513    1.3949   -0.3825 H   0  0  0  0  0  0  0  0  0  0  0  0
    3.0001   -0.3412   -1.3749 H   0  0  0  0  0  0  0  0  0  0  0  0
    3.0089    0.9732   -0.1982 H   0  0  0  0  0  0  0  0  0  0  0  0
    4.2751   -1.7829    0.2213 H   0  0  0  0  0  0  0  0  0  0  0  0
    4.2520   -0.4891    1.4216 H   0  0  0  0  0  0  0  0  0  0  0  0
    5.5466    0.9851   -0.1286 H   0  0  0  0  0  0  0  0  0  0  0  0
    5.5699   -0.3125   -1.3391 H   0  0  0  0  0  0  0  0  0  0  0  0
    6.4061   -0.5272    0.2083 H   0  0  0  0  0  0  0  0  0  0  0  0
  1  4  1  0  0  0  0
  1 11  1  0  0  0  0
  2 11  2  0  0  0  0
  3  4  1  0  0  0  0
  3  5  1  0  0  0  0
  3  6  1  0  0  0  0
  3 15  1  0  0  0  0
  4  7  1  0  0  0  0
  4 16  1  0  0  0  0
  5  8  1  0  0  0  0
  5 17  1  0  0  0  0
  5 18  1  0  0  0  0
  6 10  2  0  0  0  0
  6 11  1  0  0  0  0
  7 12  1  0  0  0  0
  7 19  1  0  0  0  0
  7 20  1  0  0  0  0
  8  9  1  0  0  0  0
  8 21  1  0  0  0  0
  8 22  1  0  0  0  0
  9 10  1  0  0  0  0
  9 23  1  0  0  0  0
  9 24  1  0  0  0  0
 10 25  1  0  0  0  0
 12 13  1  0  0  0  0
 12 26  1  0  0  0  0
 12 27  1  0  0  0  0
 13 14  1  0  0  0  0
 13 28  1  0  0  0  0
 13 29  1  0  0  0  0
 14 30  1  0  0  0  0
 14 31  1  0  0  0  0
 14 32  1  0  0  0  0
M  END
> <PUBCHEM_COMPOUND_CID>
3083857

> <PUBCHEM_CONFORMER_RMSD>
0.6

> <PUBCHEM_CONFORMER_DIVERSEORDER>
1
6
12
10
2
11
4
9
3
7
5
8

> <PUBCHEM_MMFF94_PARTIAL_CHARGES>
9
1 -0.43
10 -0.29
11 0.71
2 -0.57
25 0.15
3 0.14
4 0.28
6 -0.12
9 0.14

> <PUBCHEM_EFFECTIVE_ROTOR_COUNT>
4

> <PUBCHEM_PHARMACOPHORE_FEATURES>
4
1 14 hydrophobe
1 2 acceptor
5 1 3 4 6 11 rings
6 3 5 6 8 9 10 rings

> <PUBCHEM_HEAVY_ATOM_COUNT>
14

> <PUBCHEM_ATOM_DEF_STEREO_COUNT>
2

> <PUBCHEM_ATOM_UDEF_STEREO_COUNT>
0

> <PUBCHEM_BOND_DEF_STEREO_COUNT>
0

> <PUBCHEM_BOND_UDEF_STEREO_COUNT>
0

> <PUBCHEM_ISOTOPIC_ATOM_COUNT>
0

> <PUBCHEM_COMPONENT_COUNT>
1

> <PUBCHEM_CACTVS_TAUTO_COUNT>
1

> <PUBCHEM_CONFORMER_ID>
002F0E5100000001

> <PUBCHEM_MMFF94_ENERGY>
13.8976

> <PUBCHEM_FEATURE_SELFOVERLAP>
20.382

> <PUBCHEM_SHAPE_FINGERPRINT>
11680986 33 18048604724755652681
12032990 46 18338796706649764451
12390115 104 17898836113677462257
13024252 1 17275381027869723827
14911166 2 18340498806953505303
15536298 74 18263926545073322616
15669948 3 18411146861201944810
16945 1 18410856607237916217
17804303 29 18333731295250890056
187816 3 18131071523911849755
193761 8 17689717884683337575
200 152 18202848738284672882
20300324 65 18412259541357309560
20510252 161 18189053260243065792
20871998 184 18259703419146520511
20871999 31 18342750610914445335
21029758 11 18335428932894004681
21029758 27 18271519802296752103
21061003 4 16950285091869233842
21267235 1 18340197510096438603
21339142 51 18412549795015071319
2297311 6 18261943103490349478
2306618 200 18187077403466874856
23402539 116 18334020497000509919
23557571 272 18114172086528634988
23559900 14 18335987571027347398
2748010 2 18265625281805584757
3312278 4 18343866619058197283
4214541 1 18338516464977332234
43471831 8 18270402822768737738
5493415 88 18267584598551864979
573450 72 18200041767193768410
68521 5 18411138047543847092
7364860 26 17903357009464661305
81228 2 18338219570276881305
8809292 202 18271242716423651555
9709674 26 18263358243569831070

> <PUBCHEM_SHAPE_MULTIPOLES>
276.37
7.95
2.15
0.66
12.05
1.04
0
-2.53
-0.49
-1.97
0.09
0.06
-0.06
-0.11

> <PUBCHEM_SHAPE_SELFOVERLAP>
565.678

> <PUBCHEM_SHAPE_VOLUME>
161.3

> <PUBCHEM_COORDINATE_TYPE>
2
5
10

$$$$

