46173828
  -OEChem-07051213093D

 57 58  0     1  0  0  0  0  0999 V2000
   -2.8992    3.7616   -1.3807 O   0  0  0  0  0  0  0  0  0  0  0  0
   -1.2277    0.6942   -0.2169 O   0  0  0  0  0  0  0  0  0  0  0  0
   -2.9692   -0.5180   -1.1215 O   0  0  0  0  0  0  0  0  0  0  0  0
   -2.1149    0.1452    3.0405 O   0  0  0  0  0  0  0  0  0  0  0  0
    6.0775    0.1152    2.3784 O   0  0  0  0  0  0  0  0  0  0  0  0
    3.8731   -0.4704    2.3308 O   0  0  0  0  0  0  0  0  0  0  0  0
   -2.7230   -1.5682    1.5860 N   0  0  0  0  0  0  0  0  0  0  0  0
   -2.5573    2.6509   -0.5418 C   0  0  1  0  0  0  0  0  0  0  0  0
   -3.8991    2.7492   -1.2075 C   0  0  0  0  0  0  0  0  0  0  0  0
   -1.4973    1.7631   -1.1294 C   0  0  1  0  0  0  0  0  0  0  0  0
   -2.4182    3.0140    0.8880 C   0  0  0  0  0  0  0  0  0  0  0  0
   -0.2005    2.4675   -1.4308 C   0  0  0  0  0  0  0  0  0  0  0  0
   -1.6131   -1.4554    0.6708 C   0  0  1  0  0  0  0  0  0  0  0  0
   -1.2939   -2.7926   -0.0314 C   0  0  1  0  0  0  0  0  0  0  0  0
   -2.0473   -0.3933   -0.3249 C   0  0  0  0  0  0  0  0  0  0  0  0
    1.0122    2.2396   -0.9020 C   0  0  0  0  0  0  0  0  0  0  0  0
   -0.1133   -2.6697   -0.9846 C   0  0  0  0  0  0  0  0  0  0  0  0
   -1.0400   -3.9216    0.9787 C   0  0  0  0  0  0  0  0  0  0  0  0
    0.9511   -1.8245   -0.6715 C   0  0  0  0  0  0  0  0  0  0  0  0
   -0.0963   -3.4024   -2.1713 C   0  0  0  0  0  0  0  0  0  0  0  0
    2.2413    2.9355   -1.2135 C   0  0  0  0  0  0  0  0  0  0  0  0
   -2.8775   -0.7539    2.6964 C   0  0  0  0  0  0  0  0  0  0  0  0
    2.0327   -1.7118   -1.5452 C   0  0  0  0  0  0  0  0  0  0  0  0
    0.9852   -3.2899   -3.0451 C   0  0  0  0  0  0  0  0  0  0  0  0
    2.0497   -2.4445   -2.7319 C   0  0  0  0  0  0  0  0  0  0  0  0
   -4.1330   -1.0679    3.4652 C   0  0  0  0  0  0  0  0  0  0  0  0
    3.4126    2.6360   -0.6303 C   0  0  0  0  0  0  0  0  0  0  0  0
    3.5562    1.5921    0.3619 C   0  0  0  0  0  0  0  0  0  0  0  0
    4.7292    1.2993    0.9394 C   0  0  0  0  0  0  0  0  0  0  0  0
    4.8001    0.2208    1.9440 C   0  0  0  0  0  0  0  0  0  0  0  0
   -4.1166    2.1123   -2.0555 H   0  0  0  0  0  0  0  0  0  0  0  0
   -4.7637    2.9972   -0.6046 H   0  0  0  0  0  0  0  0  0  0  0  0
   -1.8337    1.3507   -2.0906 H   0  0  0  0  0  0  0  0  0  0  0  0
   -1.3905    3.2977    1.1360 H   0  0  0  0  0  0  0  0  0  0  0  0
   -2.7077    2.1757    1.5262 H   0  0  0  0  0  0  0  0  0  0  0  0
   -3.0616    3.8597    1.1568 H   0  0  0  0  0  0  0  0  0  0  0  0
   -0.2781    3.2510   -2.1848 H   0  0  0  0  0  0  0  0  0  0  0  0
   -0.7665   -1.0911    1.2608 H   0  0  0  0  0  0  0  0  0  0  0  0
   -2.1739   -3.0803   -0.6248 H   0  0  0  0  0  0  0  0  0  0  0  0
    1.0398    1.4547   -0.1587 H   0  0  0  0  0  0  0  0  0  0  0  0
   -0.1978   -3.6821    1.6378 H   0  0  0  0  0  0  0  0  0  0  0  0
   -0.8019   -4.8609    0.4667 H   0  0  0  0  0  0  0  0  0  0  0  0
   -1.9191   -4.1054    1.6045 H   0  0  0  0  0  0  0  0  0  0  0  0
   -3.4638   -2.2250    1.3564 H   0  0  0  0  0  0  0  0  0  0  0  0
    1.0016   -1.2616    0.2534 H   0  0  0  0  0  0  0  0  0  0  0  0
   -0.9184   -4.0658   -2.4262 H   0  0  0  0  0  0  0  0  0  0  0  0
    2.2014    3.7307   -1.9522 H   0  0  0  0  0  0  0  0  0  0  0  0
    2.8665   -1.0614   -1.2986 H   0  0  0  0  0  0  0  0  0  0  0  0
    0.9990   -3.8610   -3.9687 H   0  0  0  0  0  0  0  0  0  0  0  0
    2.8928   -2.3584   -3.4111 H   0  0  0  0  0  0  0  0  0  0  0  0
   -4.9969   -0.6678    2.9275 H   0  0  0  0  0  0  0  0  0  0  0  0
   -4.0807   -0.6102    4.4568 H   0  0  0  0  0  0  0  0  0  0  0  0
   -4.2474   -2.1490    3.5858 H   0  0  0  0  0  0  0  0  0  0  0  0
    4.2986    3.1988   -0.9115 H   0  0  0  0  0  0  0  0  0  0  0  0
    2.7009    1.0073    0.6718 H   0  0  0  0  0  0  0  0  0  0  0  0
    5.6403    1.8339    0.6906 H   0  0  0  0  0  0  0  0  0  0  0  0
    6.1796   -0.5913    3.0513 H   0  0  0  0  0  0  0  0  0  0  0  0
  1  8  1  0  0  0  0
  1  9  1  0  0  0  0
  2 10  1  0  0  0  0
  2 15  1  0  0  0  0
  3 15  2  0  0  0  0
  4 22  2  0  0  0  0
  5 30  1  0  0  0  0
  5 57  1  0  0  0  0
  6 30  2  0  0  0  0
  7 13  1  0  0  0  0
  7 22  1  0  0  0  0
  7 44  1  0  0  0  0
  8  9  1  0  0  0  0
  8 10  1  0  0  0  0
  8 11  1  0  0  0  0
  9 31  1  0  0  0  0
  9 32  1  0  0  0  0
 10 12  1  0  0  0  0
 10 33  1  0  0  0  0
 11 34  1  0  0  0  0
 11 35  1  0  0  0  0
 11 36  1  0  0  0  0
 12 16  2  0  0  0  0
 12 37  1  0  0  0  0
 13 14  1  0  0  0  0
 13 15  1  0  0  0  0
 13 38  1  0  0  0  0
 14 17  1  0  0  0  0
 14 18  1  0  0  0  0
 14 39  1  0  0  0  0
 16 21  1  0  0  0  0
 16 40  1  0  0  0  0
 17 19  2  0  0  0  0
 17 20  1  0  0  0  0
 18 41  1  0  0  0  0
 18 42  1  0  0  0  0
 18 43  1  0  0  0  0
 19 23  1  0  0  0  0
 19 45  1  0  0  0  0
 20 24  2  0  0  0  0
 20 46  1  0  0  0  0
 21 27  2  0  0  0  0
 21 47  1  0  0  0  0
 22 26  1  0  0  0  0
 23 25  2  0  0  0  0
 23 48  1  0  0  0  0
 24 25  1  0  0  0  0
 24 49  1  0  0  0  0
 25 50  1  0  0  0  0
 26 51  1  0  0  0  0
 26 52  1  0  0  0  0
 26 53  1  0  0  0  0
 27 28  1  0  0  0  0
 27 54  1  0  0  0  0
 28 29  2  0  0  0  0
 28 55  1  0  0  0  0
 29 30  1  0  0  0  0
 29 56  1  0  0  0  0
M  END
> <PUBCHEM_COMPOUND_CID>
46173828

> <PUBCHEM_CONFORMER_RMSD>
1.6

> <PUBCHEM_CONFORMER_DIVERSEORDER>
1
81
98
37
79
85
35
57
93
106
101
34
71
88
12
119
76
87
95
108
103
78
67
52
69
65
97
56
43
83
15
114
45
27
48
28
104
121
21
61
31
5
96
94
120
44
86
117
109
55
17
80
82
111
51
36
42
50
13
118
38
116
32
72
22
49
115
59
14
40
46
4
99
41
33
110
18
58
66
25
26
100
23
107
8
24
10
47
74
9
3
73
7
39
54
64
30
89
75
53
77
60
19
90
91
16
84
92
2
11
122
63
102
68
6
105
112
29
113
20
70
62

> <PUBCHEM_MMFF94_PARTIAL_CHARGES>
44
1 -0.3
10 0.51
11 0.09
12 -0.29
13 0.36
14 0.14
15 0.66
16 -0.15
17 -0.14
19 -0.15
2 -0.43
20 -0.15
21 -0.15
22 0.57
23 -0.15
24 -0.15
25 -0.15
26 0.06
27 -0.15
28 -0.15
29 -0.14
3 -0.57
30 0.71
31 0.1
32 0.1
37 0.15
4 -0.57
40 0.15
44 0.37
45 0.15
46 0.15
47 0.15
48 0.15
49 0.15
5 -0.65
50 0.15
54 0.15
55 0.15
56 0.15
57 0.5
6 -0.57
7 -0.73
8 -0.04
9 -0.05

> <PUBCHEM_EFFECTIVE_ROTOR_COUNT>
12.6

> <PUBCHEM_PHARMACOPHORE_FEATURES>
9
1 1 acceptor
1 18 hydrophobe
1 3 acceptor
1 4 acceptor
1 5 acceptor
1 6 acceptor
1 7 donor
3 5 6 30 anion
6 17 19 20 23 24 25 rings

> <PUBCHEM_HEAVY_ATOM_COUNT>
30

> <PUBCHEM_ATOM_DEF_STEREO_COUNT>
0

> <PUBCHEM_ATOM_UDEF_STEREO_COUNT>
4

> <PUBCHEM_BOND_DEF_STEREO_COUNT>
3

> <PUBCHEM_BOND_UDEF_STEREO_COUNT>
0

> <PUBCHEM_ISOTOPIC_ATOM_COUNT>
0

> <PUBCHEM_COMPONENT_COUNT>
1

> <PUBCHEM_CACTVS_TAUTO_COUNT>
2

> <PUBCHEM_CONFORMER_ID>
02C08E8400000001

> <PUBCHEM_MMFF94_ENERGY>
67.0187

> <PUBCHEM_FEATURE_SELFOVERLAP>
45.725

> <PUBCHEM_SHAPE_FINGERPRINT>
10305334 12 17771368609851114632
12156800 1 17558804390481800688
12422481 6 18338500976497010387
12539773 59 17686890627628762522
13726171 33 18055039200294583620
13965767 371 18048291389332258544
15403338 16 17626959573061701274
161222 619 18337103561917410025
17974551 9 17701267064548550114
23419403 2 17900233584713823859
238918 7 18189631599612850492
35225 105 17679886837576029588
5171179 24 18048849035522944639
6287921 2 17825634903066214695
9862522 239 18262244317920429222
9981440 41 18188788247802420217

> <PUBCHEM_SHAPE_MULTIPOLES>
577.19
8.1
5.56
3.36
8.73
0.72
-1.99
-4.49
-7.65
-1.82
4.04
-0.16
1.83
2.72

> <PUBCHEM_SHAPE_SELFOVERLAP>
1187.55

> <PUBCHEM_SHAPE_VOLUME>
330.2

> <PUBCHEM_COORDINATE_TYPE>
2
5
10

$$$$

