441131
  -OEChem-07051212523D

 51 54  0     1  0  0  0  0  0999 V2000
    3.7792   -0.0186    1.2329 O   0  0  0  0  0  0  0  0  0  0  0  0
   -3.8794   -1.6458    0.2626 O   0  0  0  0  0  0  0  0  0  0  0  0
    2.5933    2.0697   -1.5377 O   0  0  0  0  0  0  0  0  0  0  0  0
   -1.8454    0.1079   -2.2393 O   0  0  0  0  0  0  0  0  0  0  0  0
    6.4715   -2.1232   -1.1173 O   0  0  0  0  0  0  0  0  0  0  0  0
   -6.5639    1.4830    0.7162 O   0  0  0  0  0  0  0  0  0  0  0  0
   -0.7340   -0.3723    1.4714 O   0  0  0  0  0  0  0  0  0  0  0  0
    0.5262    3.3607    1.4196 O   0  0  0  0  0  0  0  0  0  0  0  0
   -0.2682    2.9266   -0.6612 O   0  0  0  0  0  0  0  0  0  0  0  0
    5.8087   -0.2072    0.0893 N   0  0  0  0  0  0  0  0  0  0  0  0
   -5.6972   -0.3682   -0.4621 N   0  0  0  0  0  0  0  0  0  0  0  0
    0.5685    0.3034   -0.3220 N   0  0  0  0  0  0  0  0  0  0  0  0
   -1.3319   -2.7031    0.1245 N   0  0  0  0  0  0  0  0  0  0  0  0
    5.1589   -0.4297    1.3880 C   0  0  2  0  0  0  0  0  0  0  0  0
   -5.3223   -1.5465    0.3311 C   0  0  2  0  0  0  0  0  0  0  0  0
    3.5592    0.3762   -0.1499 C   0  0  2  0  0  0  0  0  0  0  0  0
   -3.3658   -0.5120   -0.4906 C   0  0  2  0  0  0  0  0  0  0  0  0
    4.9603    0.6166   -0.7504 C   0  0  0  0  0  0  0  0  0  0  0  0
   -4.5697    0.0625   -1.2663 C   0  0  0  0  0  0  0  0  0  0  0  0
    5.5342   -1.9140    1.2463 C   0  0  0  0  0  0  0  0  0  0  0  0
   -5.9844   -0.8618    1.5381 C   0  0  0  0  0  0  0  0  0  0  0  0
    2.6762    1.6071   -0.1904 C   0  0  2  0  0  0  0  0  0  0  0  0
   -2.2411   -0.9731   -1.3954 C   0  0  2  0  0  0  0  0  0  0  0  0
    6.0764   -1.5259   -0.1417 C   0  0  0  0  0  0  0  0  0  0  0  0
   -6.2059    0.3336    0.5928 C   0  0  0  0  0  0  0  0  0  0  0  0
    1.2760    1.3506    0.3760 C   0  0  1  0  0  0  0  0  0  0  0  0
   -1.0027   -1.5124   -0.6587 C   0  0  1  0  0  0  0  0  0  0  0  0
   -0.3937   -0.4836    0.2949 C   0  0  0  0  0  0  0  0  0  0  0  0
    0.4169    2.5995    0.2993 C   0  0  0  0  0  0  0  0  0  0  0  0
    5.6536    0.1027    2.2061 H   0  0  0  0  0  0  0  0  0  0  0  0
   -5.8109   -2.4628   -0.0140 H   0  0  0  0  0  0  0  0  0  0  0  0
    3.1001   -0.4764   -0.6650 H   0  0  0  0  0  0  0  0  0  0  0  0
   -3.0304    0.2405    0.2326 H   0  0  0  0  0  0  0  0  0  0  0  0
    5.2960    1.6507   -0.6269 H   0  0  0  0  0  0  0  0  0  0  0  0
    5.0169    0.3160   -1.8003 H   0  0  0  0  0  0  0  0  0  0  0  0
   -4.6879   -0.3950   -2.2531 H   0  0  0  0  0  0  0  0  0  0  0  0
   -4.5256    1.1521   -1.3495 H   0  0  0  0  0  0  0  0  0  0  0  0
    6.2992   -2.2726    1.9392 H   0  0  0  0  0  0  0  0  0  0  0  0
    4.6932   -2.6109    1.2141 H   0  0  0  0  0  0  0  0  0  0  0  0
   -6.9076   -1.3264    1.8927 H   0  0  0  0  0  0  0  0  0  0  0  0
   -5.3205   -0.6446    2.3784 H   0  0  0  0  0  0  0  0  0  0  0  0
    3.1313    2.4125    0.4010 H   0  0  0  0  0  0  0  0  0  0  0  0
   -2.6068   -1.7740   -2.0526 H   0  0  0  0  0  0  0  0  0  0  0  0
    1.3454    1.0571    1.4308 H   0  0  0  0  0  0  0  0  0  0  0  0
   -0.2409   -1.7874   -1.3994 H   0  0  0  0  0  0  0  0  0  0  0  0
    0.7307    0.1998   -1.3197 H   0  0  0  0  0  0  0  0  0  0  0  0
    3.4609    2.4293   -1.7872 H   0  0  0  0  0  0  0  0  0  0  0  0
   -2.5709    0.2881   -2.8600 H   0  0  0  0  0  0  0  0  0  0  0  0
   -1.7342   -3.4136   -0.4857 H   0  0  0  0  0  0  0  0  0  0  0  0
   -0.4780   -3.1078    0.5070 H   0  0  0  0  0  0  0  0  0  0  0  0
   -0.0133    4.1779    1.3601 H   0  0  0  0  0  0  0  0  0  0  0  0
  1 14  1  0  0  0  0
  1 16  1  0  0  0  0
  2 15  1  0  0  0  0
  2 17  1  0  0  0  0
  3 22  1  0  0  0  0
  3 47  1  0  0  0  0
  4 23  1  0  0  0  0
  4 48  1  0  0  0  0
  5 24  2  0  0  0  0
  6 25  2  0  0  0  0
  7 28  2  0  0  0  0
  8 29  1  0  0  0  0
  8 51  1  0  0  0  0
  9 29  2  0  0  0  0
 10 14  1  0  0  0  0
 10 18  1  0  0  0  0
 10 24  1  0  0  0  0
 11 15  1  0  0  0  0
 11 19  1  0  0  0  0
 11 25  1  0  0  0  0
 12 26  1  0  0  0  0
 12 28  1  0  0  0  0
 12 46  1  0  0  0  0
 13 27  1  0  0  0  0
 13 49  1  0  0  0  0
 13 50  1  0  0  0  0
 14 20  1  0  0  0  0
 14 30  1  0  0  0  0
 15 21  1  0  0  0  0
 15 31  1  0  0  0  0
 16 18  1  0  0  0  0
 16 22  1  0  0  0  0
 16 32  1  0  0  0  0
 17 19  1  0  0  0  0
 17 23  1  0  0  0  0
 17 33  1  0  0  0  0
 18 34  1  0  0  0  0
 18 35  1  0  0  0  0
 19 36  1  0  0  0  0
 19 37  1  0  0  0  0
 20 24  1  0  0  0  0
 20 38  1  0  0  0  0
 20 39  1  0  0  0  0
 21 25  1  0  0  0  0
 21 40  1  0  0  0  0
 21 41  1  0  0  0  0
 22 26  1  0  0  0  0
 22 42  1  0  0  0  0
 23 27  1  0  0  0  0
 23 43  1  0  0  0  0
 26 29  1  0  0  0  0
 26 44  1  0  0  0  0
 27 28  1  0  0  0  0
 27 45  1  0  0  0  0
M  END
> <PUBCHEM_COMPOUND_CID>
441131

> <PUBCHEM_CONFORMER_RMSD>
1.4

> <PUBCHEM_CONFORMER_DIVERSEORDER>
1
36
169
71
172
94
95
103
56
177
122
64
119
30
146
2
120
46
164
50
138
8
83
7
107
150
28
87
81
125
39
128
110
78
142
157
37
159
73
53
174
154
79
29
55
15
151
61
54
132
90
140
101
116
13
170
58
99
127
85
160
118
149
77
66
131
34
33
74
147
51
67
121
82
135
148
113
91
114
88
96
43
124
16
134
69
173
72
171
162
3
176
75
10
17
153
166
27
22
26
41
104
129
89
93
98
109
6
84
12
31
62
4
21
60
76
68
70
143
59
139
115
11
136
40
48
161
24
126
65
137
155
156
35
133
92
167
168
23
163
57
5
178
100
130
123
19
14
18
152
32
112
144
9
108
47
52
141
44
117
145
111
20
49
86
165
25
106
63
80
45
38
102
42
97
175
158
105

> <PUBCHEM_MMFF94_PARTIAL_CHARGES>
35
1 -0.54
10 -0.59
11 -0.59
12 -0.73
13 -0.99
14 0.48
15 0.48
16 0.28
17 0.28
18 0.3
19 0.3
2 -0.54
20 0.05
21 0.05
22 0.28
23 0.28
24 0.58
25 0.58
26 0.36
27 0.33
28 0.57
29 0.66
3 -0.68
4 -0.68
46 0.37
47 0.4
48 0.4
49 0.36
5 -0.57
50 0.36
51 0.5
6 -0.57
7 -0.57
8 -0.65
9 -0.57

> <PUBCHEM_EFFECTIVE_ROTOR_COUNT>
9.6

> <PUBCHEM_PHARMACOPHORE_FEATURES>
17
1 1 acceptor
1 12 donor
1 13 cation
1 13 donor
1 2 acceptor
1 3 acceptor
1 3 donor
1 4 acceptor
1 4 donor
1 5 acceptor
1 6 acceptor
1 7 acceptor
1 8 acceptor
1 9 acceptor
3 8 9 29 anion
7 1 10 14 16 18 20 24 rings
7 2 11 15 17 19 21 25 rings

> <PUBCHEM_HEAVY_ATOM_COUNT>
29

> <PUBCHEM_ATOM_DEF_STEREO_COUNT>
4

> <PUBCHEM_ATOM_UDEF_STEREO_COUNT>
4

> <PUBCHEM_BOND_DEF_STEREO_COUNT>
0

> <PUBCHEM_BOND_UDEF_STEREO_COUNT>
0

> <PUBCHEM_ISOTOPIC_ATOM_COUNT>
0

> <PUBCHEM_COMPONENT_COUNT>
1

> <PUBCHEM_CACTVS_TAUTO_COUNT>
2

> <PUBCHEM_CONFORMER_ID>
0006BB2B00000001

> <PUBCHEM_MMFF94_ENERGY>
86.8774

> <PUBCHEM_FEATURE_SELFOVERLAP>
86.327

> <PUBCHEM_SHAPE_FINGERPRINT>
11458722 120 18334858303296250685
11488393 25 13685480016788721753
11646440 116 18334011692111805322
11828532 37 16661217928072932339
12166972 35 17775563148280078036
12236239 1 17967816024481980795
12422481 6 17894351098441464773
12788726 201 18335414682319402944
13073987 5 18117844296029448155
13533116 47 17749391486221901730
13590594 115 18407758136390643481
13782708 43 18130225943999869331
14251758 9 18187087243321384395
14251764 30 17775284933056989319
14347424 109 17749396966567925850
14420673 8 18413668011320944891
14466204 15 18260826025430839929
14528608 73 9943531820805031178
14767858 380 10735876158131498875
14787075 74 10735883875992512045
14840074 17 17822016415031911038
14955137 171 18409449163408156539
15131766 46 14853892382770112626
15183329 4 18411702079860623607
20511986 3 6483357681865147637
20832881 197 18410576167142738856
21279426 13 18342747329216754077
21365058 113 16988838380491644548
23522609 53 17986647368942849469
2838139 119 17967818250208892193
3004659 81 18202002123533058886
3027735 51 18191029095924085406
345986 75 18269008620723253680
4340502 62 14273452574483041300
437815 12 18411136918072832850
46194498 28 16845575284395196286
463206 1 18336558114288386702
5104073 3 17970629593460116043
5207 217 10231751188971212149
53794403 172 10591170519670290702
5486654 2 10159698005891097073
6086070 43 18268170711886269805
7226269 152 17312820464026533811

> <PUBCHEM_SHAPE_MULTIPOLES>
524.06
17.18
2.72
1.46
1.42
1.48
0.13
-7.59
-2.84
-1.36
-0.27
0.21
0.03
-0.31

> <PUBCHEM_SHAPE_SELFOVERLAP>
1112.906

> <PUBCHEM_SHAPE_VOLUME>
289.9

> <PUBCHEM_COORDINATE_TYPE>
2
5
10

$$$$

