17395461
  -OEChem-06241222502D

 38 39  0     0  0  0  0  0  0999 V2000
    6.6906   -2.7268    0.0000 Br  0  0  0  0  0  0  0  0  0  0  0  0
    5.1906   -0.1287    0.0000 O   0  0  0  0  0  0  0  0  0  0  0  0
    8.6906    0.7373    0.0000 O   0  0  0  0  0  0  0  0  0  0  0  0
    8.6906   -2.7268    0.0000 O   0  0  0  0  0  0  0  0  0  0  0  0
    5.1906    1.6033    0.0000 N   0  0  0  0  0  0  0  0  0  0  0  0
    7.1906   -0.1287    0.0000 N   0  0  0  0  0  0  0  0  0  0  0  0
    8.6906   -0.9948    0.0000 N   0  0  0  0  0  0  0  0  0  0  0  0
    4.1906    1.6033    0.0000 C   0  0  0  0  0  0  0  0  0  0  0  0
    3.7568    0.7024    0.0000 C   0  0  0  0  0  0  0  0  0  0  0  0
    3.7568    2.5043    0.0000 C   0  0  0  0  0  0  0  0  0  0  0  0
    2.7818    0.4798    0.0000 C   0  0  0  0  0  0  0  0  0  0  0  0
    2.7818    2.7268    0.0000 C   0  0  0  0  0  0  0  0  0  0  0  0
    2.0000    1.1033    0.0000 C   0  0  0  0  0  0  0  0  0  0  0  0
    2.0000    2.1033    0.0000 C   0  0  0  0  0  0  0  0  0  0  0  0
    5.6906    0.7373    0.0000 C   0  0  0  0  0  0  0  0  0  0  0  0
    6.6906    0.7373    0.0000 C   0  0  0  0  0  0  0  0  0  0  0  0
    8.1906   -0.1287    0.0000 C   0  0  0  0  0  0  0  0  0  0  0  0
    6.6906   -0.9948    0.0000 C   0  0  0  0  0  0  0  0  0  0  0  0
    7.1906   -1.8608    0.0000 C   0  0  0  0  0  0  0  0  0  0  0  0
    8.1906   -1.8608    0.0000 C   0  0  0  0  0  0  0  0  0  0  0  0
    4.5205    1.0784    0.0000 H   0  0  0  0  0  0  0  0  0  0  0  0
    3.7568    0.0823    0.0000 H   0  0  0  0  0  0  0  0  0  0  0  0
    4.3612    0.5644    0.0000 H   0  0  0  0  0  0  0  0  0  0  0  0
    4.3612    2.6423    0.0000 H   0  0  0  0  0  0  0  0  0  0  0  0
    3.7568    3.1243    0.0000 H   0  0  0  0  0  0  0  0  0  0  0  0
    2.2971    0.0933    0.0000 H   0  0  0  0  0  0  0  0  0  0  0  0
    3.0508   -0.0788    0.0000 H   0  0  0  0  0  0  0  0  0  0  0  0
    3.0508    3.2854    0.0000 H   0  0  0  0  0  0  0  0  0  0  0  0
    2.2971    3.1134    0.0000 H   0  0  0  0  0  0  0  0  0  0  0  0
    1.7310    2.6619    0.0000 H   0  0  0  0  0  0  0  0  0  0  0  0
    1.3955    1.9654    0.0000 H   0  0  0  0  0  0  0  0  0  0  0  0
    1.3955    1.2413    0.0000 H   0  0  0  0  0  0  0  0  0  0  0  0
    1.7310    0.5447    0.0000 H   0  0  0  0  0  0  0  0  0  0  0  0
    5.5006    2.1402    0.0000 H   0  0  0  0  0  0  0  0  0  0  0  0
    7.2732    0.9493    0.0000 H   0  0  0  0  0  0  0  0  0  0  0  0
    6.5830    1.3479    0.0000 H   0  0  0  0  0  0  0  0  0  0  0  0
    6.0706   -0.9948    0.0000 H   0  0  0  0  0  0  0  0  0  0  0  0
    9.3106   -0.9948    0.0000 H   0  0  0  0  0  0  0  0  0  0  0  0
  1 19  1  0  0  0  0
  2 15  2  0  0  0  0
  3 17  2  0  0  0  0
  4 20  2  0  0  0  0
  5  8  1  0  0  0  0
  5 15  1  0  0  0  0
  5 34  1  0  0  0  0
  6 16  1  0  0  0  0
  6 17  1  0  0  0  0
  6 18  1  0  0  0  0
  7 17  1  0  0  0  0
  7 20  1  0  0  0  0
  7 38  1  0  0  0  0
  8  9  1  0  0  0  0
  8 10  1  0  0  0  0
  8 21  1  0  0  0  0
  9 11  1  0  0  0  0
  9 22  1  0  0  0  0
  9 23  1  0  0  0  0
 10 12  1  0  0  0  0
 10 24  1  0  0  0  0
 10 25  1  0  0  0  0
 11 13  1  0  0  0  0
 11 26  1  0  0  0  0
 11 27  1  0  0  0  0
 12 14  1  0  0  0  0
 12 28  1  0  0  0  0
 12 29  1  0  0  0  0
 13 14  1  0  0  0  0
 13 32  1  0  0  0  0
 13 33  1  0  0  0  0
 14 30  1  0  0  0  0
 14 31  1  0  0  0  0
 15 16  1  0  0  0  0
 16 35  1  0  0  0  0
 16 36  1  0  0  0  0
 18 19  2  0  0  0  0
 18 37  1  0  0  0  0
 19 20  1  0  0  0  0
M  END
> <PUBCHEM_COMPOUND_CID>
17395461

> <PUBCHEM_COMPOUND_CANONICALIZED>
1

> <PUBCHEM_CACTVS_COMPLEXITY>
442

> <PUBCHEM_CACTVS_HBOND_ACCEPTOR>
3

> <PUBCHEM_CACTVS_HBOND_DONOR>
2

> <PUBCHEM_CACTVS_ROTATABLE_BOND>
3

> <PUBCHEM_CACTVS_SUBSKEYS>
AAADceBzMAAAEAAAAAAAAAAAAAAAAAAAAAAgAAAABgAAAAAAAAAAHgBQAAABiCjBgAQBAAPAAACIAAFWUACAAAAAAAAAAICIAECgQAIAgCAUAAAIFyKAAMEQgAAAAAAAAAAAAAAAAAAAAAAAAAAAAAAAAA==

> <PUBCHEM_IUPAC_OPENEYE_NAME>
2-(5-bromo-2,4-dioxo-pyrimidin-1-yl)-N-cycloheptyl-acetamide

> <PUBCHEM_IUPAC_CAS_NAME>
2-(5-bromo-2,4-dioxo-1-pyrimidinyl)-N-cycloheptylacetamide

> <PUBCHEM_IUPAC_NAME>
2-(5-bromo-2,4-dioxopyrimidin-1-yl)-N-cycloheptylacetamide

> <PUBCHEM_IUPAC_SYSTEMATIC_NAME>
2-[5-bromanyl-2,4-bis(oxidanylidene)pyrimidin-1-yl]-N-cycloheptyl-ethanamide

> <PUBCHEM_IUPAC_TRADITIONAL_NAME>
2-(5-bromo-2,4-diketo-pyrimidin-1-yl)-N-cycloheptyl-acetamide

> <PUBCHEM_IUPAC_INCHI>
InChI=1S/C13H18BrN3O3/c14-10-7-17(13(20)16-12(10)19)8-11(18)15-9-5-3-1-2-4-6-9/h7,9H,1-6,8H2,(H,15,18)(H,16,19,20)

> <PUBCHEM_IUPAC_INCHIKEY>
CGLBMJZUUALVQC-UHFFFAOYSA-N

> <PUBCHEM_XLOGP3_AA>
1.8

> <PUBCHEM_EXACT_MASS>
343.053154

> <PUBCHEM_MOLECULAR_FORMULA>
C13H18BrN3O3

> <PUBCHEM_MOLECULAR_WEIGHT>
344.20432

> <PUBCHEM_OPENEYE_CAN_SMILES>
C1CCCC(CC1)NC(=O)CN2C=C(C(=O)NC2=O)Br

> <PUBCHEM_OPENEYE_ISO_SMILES>
C1CCCC(CC1)NC(=O)CN2C=C(C(=O)NC2=O)Br

> <PUBCHEM_CACTVS_TPSA>
78.5

> <PUBCHEM_MONOISOTOPIC_WEIGHT>
343.053154

> <PUBCHEM_TOTAL_CHARGE>
0

> <PUBCHEM_HEAVY_ATOM_COUNT>
20

> <PUBCHEM_ATOM_DEF_STEREO_COUNT>
0

> <PUBCHEM_ATOM_UDEF_STEREO_COUNT>
0

> <PUBCHEM_BOND_DEF_STEREO_COUNT>
0

> <PUBCHEM_BOND_UDEF_STEREO_COUNT>
0

> <PUBCHEM_ISOTOPIC_ATOM_COUNT>
0

> <PUBCHEM_COMPONENT_COUNT>
1

> <PUBCHEM_CACTVS_TAUTO_COUNT>
6

> <PUBCHEM_COORDINATE_TYPE>
1
5
255

> <PUBCHEM_BONDANNOTATIONS>
18  19  8
19  20  8
6  17  8
6  18  8
7  17  8
7  20  8

$$$$

