5212
  -OEChem-07051212533D

 63 66  0     0  0  0  0  0  0999 V2000
    3.8681    0.4497    1.8881 S   0  0  0  0  0  0  0  0  0  0  0  0
    4.6003    1.6168    2.3314 O   0  0  0  0  0  0  0  0  0  0  0  0
    3.5044   -0.5993    2.8165 O   0  0  0  0  0  0  0  0  0  0  0  0
   -1.0488    2.3312   -0.7733 O   0  0  0  0  0  0  0  0  0  0  0  0
   -1.6048   -3.7609    0.1595 O   0  0  0  0  0  0  0  0  0  0  0  0
    4.6827   -0.2473    0.5528 N   0  0  0  0  0  0  0  0  0  0  0  0
    5.4436   -1.1065   -2.0838 N   0  0  0  0  0  0  0  0  0  0  0  0
   -2.3197    0.2565    0.2968 N   0  0  0  0  0  0  0  0  0  0  0  0
   -4.3470   -2.5292    0.1247 N   0  0  0  0  0  0  0  0  0  0  0  0
   -5.3555   -1.6294    0.1251 N   0  0  0  0  0  0  0  0  0  0  0  0
   -0.7837   -1.6069    0.2709 N   0  0  0  0  0  0  0  0  0  0  0  0
    5.2382    0.7200   -0.4358 C   0  0  0  0  0  0  0  0  0  0  0  0
    3.9656   -1.3653   -0.1236 C   0  0  0  0  0  0  0  0  0  0  0  0
    6.1599   -0.0160   -1.4072 C   0  0  0  0  0  0  0  0  0  0  0  0
    4.9117   -2.0611   -1.1010 C   0  0  0  0  0  0  0  0  0  0  0  0
    2.3938    1.0072    1.0931 C   0  0  0  0  0  0  0  0  0  0  0  0
    6.3212   -1.7850   -3.0367 C   0  0  0  0  0  0  0  0  0  0  0  0
    1.3001    0.1598    1.0204 C   0  0  0  0  0  0  0  0  0  0  0  0
    0.1353    0.6006    0.3919 C   0  0  0  0  0  0  0  0  0  0  0  0
    2.3545    2.2832    0.5548 C   0  0  0  0  0  0  0  0  0  0  0  0
   -1.0455   -0.3193    0.3164 C   0  0  0  0  0  0  0  0  0  0  0  0
   -3.3406   -0.6112    0.2318 C   0  0  0  0  0  0  0  0  0  0  0  0
    0.0801    1.8825   -0.1555 C   0  0  0  0  0  0  0  0  0  0  0  0
    1.1897    2.7238   -0.0738 C   0  0  0  0  0  0  0  0  0  0  0  0
   -4.7258   -0.4485    0.1903 C   0  0  0  0  0  0  0  0  0  0  0  0
   -3.1106   -1.9576    0.1867 C   0  0  0  0  0  0  0  0  0  0  0  0
   -5.5053    0.7998    0.2099 C   0  0  0  0  0  0  0  0  0  0  0  0
   -1.8030   -2.5524    0.2026 C   0  0  0  0  0  0  0  0  0  0  0  0
   -5.7791    1.3683   -1.1964 C   0  0  0  0  0  0  0  0  0  0  0  0
   -4.6595   -3.9372    0.0589 C   0  0  0  0  0  0  0  0  0  0  0  0
   -6.6171    2.6363   -1.1569 C   0  0  0  0  0  0  0  0  0  0  0  0
   -1.3040    3.7331   -0.7172 C   0  0  0  0  0  0  0  0  0  0  0  0
   -2.7994    3.9644   -0.7615 C   0  0  0  0  0  0  0  0  0  0  0  0
    4.4309    1.2048   -0.9947 H   0  0  0  0  0  0  0  0  0  0  0  0
    5.8217    1.4908    0.0777 H   0  0  0  0  0  0  0  0  0  0  0  0
    3.6253   -2.0967    0.6166 H   0  0  0  0  0  0  0  0  0  0  0  0
    3.0996   -0.9917   -0.6793 H   0  0  0  0  0  0  0  0  0  0  0  0
    7.0329   -0.4040   -0.8653 H   0  0  0  0  0  0  0  0  0  0  0  0
    6.5265    0.7048   -2.1479 H   0  0  0  0  0  0  0  0  0  0  0  0
    4.3547   -2.8536   -1.6152 H   0  0  0  0  0  0  0  0  0  0  0  0
    5.7289   -2.5404   -0.5453 H   0  0  0  0  0  0  0  0  0  0  0  0
    5.7742   -2.5690   -3.5720 H   0  0  0  0  0  0  0  0  0  0  0  0
    7.1896   -2.2420   -2.5485 H   0  0  0  0  0  0  0  0  0  0  0  0
    6.6824   -1.0811   -3.7948 H   0  0  0  0  0  0  0  0  0  0  0  0
    1.3456   -0.8341    1.4558 H   0  0  0  0  0  0  0  0  0  0  0  0
    3.2102    2.9501    0.5995 H   0  0  0  0  0  0  0  0  0  0  0  0
    1.2030    3.7172   -0.5122 H   0  0  0  0  0  0  0  0  0  0  0  0
   -2.4472    1.2613    0.3526 H   0  0  0  0  0  0  0  0  0  0  0  0
   -6.4625    0.6301    0.7202 H   0  0  0  0  0  0  0  0  0  0  0  0
   -4.9774    1.5552    0.8055 H   0  0  0  0  0  0  0  0  0  0  0  0
   -4.8290    1.5769   -1.7025 H   0  0  0  0  0  0  0  0  0  0  0  0
   -6.2989    0.6166   -1.8032 H   0  0  0  0  0  0  0  0  0  0  0  0
   -4.2063   -4.3492   -0.8459 H   0  0  0  0  0  0  0  0  0  0  0  0
   -4.2568   -4.4222    0.9514 H   0  0  0  0  0  0  0  0  0  0  0  0
   -5.7439   -4.0708    0.0232 H   0  0  0  0  0  0  0  0  0  0  0  0
   -7.5914    2.4470   -0.6955 H   0  0  0  0  0  0  0  0  0  0  0  0
   -6.1121    3.4207   -0.5844 H   0  0  0  0  0  0  0  0  0  0  0  0
   -6.7872    3.0108   -2.1711 H   0  0  0  0  0  0  0  0  0  0  0  0
   -0.8298    4.2207   -1.5761 H   0  0  0  0  0  0  0  0  0  0  0  0
   -0.9322    4.1804    0.2133 H   0  0  0  0  0  0  0  0  0  0  0  0
   -3.2923    3.4806    0.0877 H   0  0  0  0  0  0  0  0  0  0  0  0
   -3.2286    3.5313   -1.6706 H   0  0  0  0  0  0  0  0  0  0  0  0
   -3.0306    5.0331   -0.7387 H   0  0  0  0  0  0  0  0  0  0  0  0
  1  2  2  0  0  0  0
  1  3  2  0  0  0  0
  1  6  1  0  0  0  0
  1 16  1  0  0  0  0
  4 23  1  0  0  0  0
  4 32  1  0  0  0  0
  5 28  2  0  0  0  0
  6 12  1  0  0  0  0
  6 13  1  0  0  0  0
  7 14  1  0  0  0  0
  7 15  1  0  0  0  0
  7 17  1  0  0  0  0
  8 21  1  0  0  0  0
  8 22  1  0  0  0  0
  8 48  1  0  0  0  0
  9 10  1  0  0  0  0
  9 26  1  0  0  0  0
  9 30  1  0  0  0  0
 10 25  2  0  0  0  0
 11 21  2  0  0  0  0
 11 28  1  0  0  0  0
 12 14  1  0  0  0  0
 12 34  1  0  0  0  0
 12 35  1  0  0  0  0
 13 15  1  0  0  0  0
 13 36  1  0  0  0  0
 13 37  1  0  0  0  0
 14 38  1  0  0  0  0
 14 39  1  0  0  0  0
 15 40  1  0  0  0  0
 15 41  1  0  0  0  0
 16 18  2  0  0  0  0
 16 20  1  0  0  0  0
 17 42  1  0  0  0  0
 17 43  1  0  0  0  0
 17 44  1  0  0  0  0
 18 19  1  0  0  0  0
 18 45  1  0  0  0  0
 19 21  1  0  0  0  0
 19 23  2  0  0  0  0
 20 24  2  0  0  0  0
 20 46  1  0  0  0  0
 22 25  1  0  0  0  0
 22 26  2  0  0  0  0
 23 24  1  0  0  0  0
 24 47  1  0  0  0  0
 25 27  1  0  0  0  0
 26 28  1  0  0  0  0
 27 29  1  0  0  0  0
 27 49  1  0  0  0  0
 27 50  1  0  0  0  0
 29 31  1  0  0  0  0
 29 51  1  0  0  0  0
 29 52  1  0  0  0  0
 30 53  1  0  0  0  0
 30 54  1  0  0  0  0
 30 55  1  0  0  0  0
 31 56  1  0  0  0  0
 31 57  1  0  0  0  0
 31 58  1  0  0  0  0
 32 33  1  0  0  0  0
 32 59  1  0  0  0  0
 32 60  1  0  0  0  0
 33 61  1  0  0  0  0
 33 62  1  0  0  0  0
 33 63  1  0  0  0  0
M  END
> <PUBCHEM_COMPOUND_CID>
5212

> <PUBCHEM_CONFORMER_RMSD>
1

> <PUBCHEM_CONFORMER_DIVERSEORDER>
2
75
27
70
3
29
59
56
25
20
33
68
30
46
48
47
44
23
45
63
15
24
76
19
18
50
31
67
55
71
36
39
60
26
38
40
9
37
57
16
53
28
65
13
43
17
54
72
11
32
41
61
74
14
62
42
22
1
51
10
58
35
52
66
7
73
34
6
21
49
12
8
69
5
64
4

> <PUBCHEM_MMFF94_PARTIAL_CHARGES>
34
1 1.45
10 -0.71
11 -0.66
12 0.36
13 0.36
14 0.27
15 0.27
16 -0.01
17 0.27
18 -0.15
19 0.09
2 -0.65
20 -0.15
21 0.41
22 0.08
23 0.08
24 -0.15
25 0.11
26 -0.24
27 0.18
28 0.87
3 -0.65
30 0.26
32 0.28
4 -0.36
45 0.15
46 0.15
47 0.15
48 0.4
5 -0.57
6 -0.85
7 -0.81
8 -0.53
9 0.31

> <PUBCHEM_EFFECTIVE_ROTOR_COUNT>
8.2

> <PUBCHEM_PHARMACOPHORE_FEATURES>
13
1 10 acceptor
1 11 donor
1 2 acceptor
1 3 acceptor
1 31 hydrophobe
1 4 acceptor
1 5 acceptor
1 7 cation
1 8 donor
5 9 10 22 25 26 rings
6 16 18 19 20 23 24 rings
6 6 7 12 13 14 15 rings
6 8 11 21 22 26 28 rings

> <PUBCHEM_HEAVY_ATOM_COUNT>
33

> <PUBCHEM_ATOM_DEF_STEREO_COUNT>
0

> <PUBCHEM_ATOM_UDEF_STEREO_COUNT>
0

> <PUBCHEM_BOND_DEF_STEREO_COUNT>
0

> <PUBCHEM_BOND_UDEF_STEREO_COUNT>
0

> <PUBCHEM_ISOTOPIC_ATOM_COUNT>
0

> <PUBCHEM_COMPONENT_COUNT>
1

> <PUBCHEM_CACTVS_TAUTO_COUNT>
3

> <PUBCHEM_CONFORMER_ID>
0000145C00000002

> <PUBCHEM_MMFF94_ENERGY>
68.1117

> <PUBCHEM_FEATURE_SELFOVERLAP>
66.121

> <PUBCHEM_SHAPE_FINGERPRINT>
10369192 42 17606978183527843048
11200772 71 18059842983321934340
12107183 9 18199489794955034633
12128747 34 17096076004475130608
12422481 6 17748825194118753895
12788726 201 18202002140164425752
13402501 40 18187074071068729286
13533116 47 17167857531058623650
13583140 156 15430892973058960922
13782708 43 17749104495873953382
14251757 5 18271800211726057990
14790565 3 17979635963796971249
14910302 57 18335139808622594956
15052358 14 18410291453945257767
15183329 4 18410571816287983673
15328829 1 17202749509899824053
15420108 30 17036432674468514144
15475509 8 18337378426707025176
15510800 12 17533208907583167846
15629462 23 16879348037714792305
15664445 248 18270398270857472480
17492 89 17978508629408260987
17852330 162 18342161295064097382
1813 80 17775013332041391348
19958102 18 18335703904947415857
21279426 13 18334012808961609419
21307412 95 18188478181291743798
21641784 216 17489871544245292916
2215653 11 18040434408162737534
22182313 1 18187660119487779704
23522609 53 17131825516898249405
23559900 14 18259701177252498818
244849 19 17604163622332666984
437815 12 17967527999912323736
46194498 28 18334008364456766572
6823239 73 18334575725040634930
7237137 82 17917997195529891309
77296 10 16660943071012895799

> <PUBCHEM_SHAPE_MULTIPOLES>
629.61
15.95
4.48
1.81
2.63
0.01
0.11
3.54
7.07
-6.07
1.03
4.34
0.12
3.81

> <PUBCHEM_SHAPE_SELFOVERLAP>
1330.229

> <PUBCHEM_SHAPE_VOLUME>
357.5

> <PUBCHEM_COORDINATE_TYPE>
2
5
10

$$$$

