7847054
  -OEChem-06241222483D

 49 51  0     0  0  0  0  0  0999 V2000
    8.4931   -0.1850   -1.8677 Cl  0  0  0  0  0  0  0  0  0  0  0  0
   -0.3827    0.1861    0.5308 O   0  0  0  0  0  0  0  0  0  0  0  0
   -1.5024    0.3800    2.5327 O   0  0  0  0  0  0  0  0  0  0  0  0
    1.7349    0.0145   -0.9937 O   0  0  0  0  0  0  0  0  0  0  0  0
   -5.0202    0.2086   -1.0740 N   0  0  0  0  0  0  0  0  0  0  0  0
    3.2374    0.1440    0.8111 N   0  0  0  0  0  0  0  0  0  0  0  0
   -3.2395    1.4226    0.0142 C   0  0  0  0  0  0  0  0  0  0  0  0
   -2.7166    0.2273    0.4865 C   0  0  0  0  0  0  0  0  0  0  0  0
   -4.3833    1.3587   -0.7554 C   0  0  0  0  0  0  0  0  0  0  0  0
   -3.3452   -0.9871    0.1798 C   0  0  0  0  0  0  0  0  0  0  0  0
   -4.5106   -0.9497   -0.6143 C   0  0  0  0  0  0  0  0  0  0  0  0
   -5.0008    2.6067   -1.2968 C   0  0  0  0  0  0  0  0  0  0  0  0
   -2.5945    2.7327    0.3222 C   0  0  0  0  0  0  0  0  0  0  0  0
   -2.8409   -2.2144    0.6426 C   0  0  0  0  0  0  0  0  0  0  0  0
   -1.5044    0.2747    1.3039 C   0  0  0  0  0  0  0  0  0  0  0  0
   -5.1345   -2.1564   -0.9187 C   0  0  0  0  0  0  0  0  0  0  0  0
   -6.0297    3.2040   -0.3419 C   0  0  0  0  0  0  0  0  0  0  0  0
   -3.4851   -3.4060    0.3229 C   0  0  0  0  0  0  0  0  0  0  0  0
   -4.6333   -3.3767   -0.4588 C   0  0  0  0  0  0  0  0  0  0  0  0
    0.8724    0.2201    1.2186 C   0  0  0  0  0  0  0  0  0  0  0  0
    4.5034    0.0668    0.1838 C   0  0  0  0  0  0  0  0  0  0  0  0
    5.6621    0.1147    0.9428 C   0  0  0  0  0  0  0  0  0  0  0  0
    1.9889    0.1109    0.2031 C   0  0  0  0  0  0  0  0  0  0  0  0
    4.5519   -0.0568   -1.1962 C   0  0  0  0  0  0  0  0  0  0  0  0
    6.9009    0.0363    0.3062 C   0  0  0  0  0  0  0  0  0  0  0  0
    5.6229    0.2471    2.4308 C   0  0  0  0  0  0  0  0  0  0  0  0
    5.7907   -0.1350   -1.8328 C   0  0  0  0  0  0  0  0  0  0  0  0
    6.9651   -0.0886   -1.0816 C   0  0  0  0  0  0  0  0  0  0  0  0
   -4.2477    3.3555   -1.5642 H   0  0  0  0  0  0  0  0  0  0  0  0
   -5.5074    2.3654   -2.2407 H   0  0  0  0  0  0  0  0  0  0  0  0
   -3.3237    3.4685    0.6729 H   0  0  0  0  0  0  0  0  0  0  0  0
   -1.8428    2.6792    1.1144 H   0  0  0  0  0  0  0  0  0  0  0  0
   -2.0934    3.1224   -0.5704 H   0  0  0  0  0  0  0  0  0  0  0  0
   -1.9449   -2.2709    1.2557 H   0  0  0  0  0  0  0  0  0  0  0  0
   -6.0355   -2.1603   -1.5294 H   0  0  0  0  0  0  0  0  0  0  0  0
   -5.5888    3.4738    0.6222 H   0  0  0  0  0  0  0  0  0  0  0  0
   -6.4688    4.1067   -0.7787 H   0  0  0  0  0  0  0  0  0  0  0  0
   -6.8414    2.4943   -0.1477 H   0  0  0  0  0  0  0  0  0  0  0  0
   -3.0928   -4.3526    0.6820 H   0  0  0  0  0  0  0  0  0  0  0  0
   -5.1424   -4.3018   -0.7131 H   0  0  0  0  0  0  0  0  0  0  0  0
    0.9713    1.1683    1.7585 H   0  0  0  0  0  0  0  0  0  0  0  0
    0.9360   -0.6257    1.9120 H   0  0  0  0  0  0  0  0  0  0  0  0
    3.2451    0.2326    1.8235 H   0  0  0  0  0  0  0  0  0  0  0  0
    3.6946   -0.1008   -1.8506 H   0  0  0  0  0  0  0  0  0  0  0  0
    7.8185    0.0722    0.8892 H   0  0  0  0  0  0  0  0  0  0  0  0
    5.1267    1.1790    2.7217 H   0  0  0  0  0  0  0  0  0  0  0  0
    5.0987   -0.6033    2.8794 H   0  0  0  0  0  0  0  0  0  0  0  0
    6.6293    0.2697    2.8635 H   0  0  0  0  0  0  0  0  0  0  0  0
    5.8272   -0.2322   -2.9150 H   0  0  0  0  0  0  0  0  0  0  0  0
  1 28  1  0  0  0  0
  2 15  1  0  0  0  0
  2 20  1  0  0  0  0
  3 15  2  0  0  0  0
  4 23  2  0  0  0  0
  5  9  2  0  0  0  0
  5 11  1  0  0  0  0
  6 21  1  0  0  0  0
  6 23  1  0  0  0  0
  6 43  1  0  0  0  0
  7  8  2  0  0  0  0
  7  9  1  0  0  0  0
  7 13  1  0  0  0  0
  8 10  1  0  0  0  0
  8 15  1  0  0  0  0
  9 12  1  0  0  0  0
 10 11  1  0  0  0  0
 10 14  2  0  0  0  0
 11 16  2  0  0  0  0
 12 17  1  0  0  0  0
 12 29  1  0  0  0  0
 12 30  1  0  0  0  0
 13 31  1  0  0  0  0
 13 32  1  0  0  0  0
 13 33  1  0  0  0  0
 14 18  1  0  0  0  0
 14 34  1  0  0  0  0
 16 19  1  0  0  0  0
 16 35  1  0  0  0  0
 17 36  1  0  0  0  0
 17 37  1  0  0  0  0
 17 38  1  0  0  0  0
 18 19  2  0  0  0  0
 18 39  1  0  0  0  0
 19 40  1  0  0  0  0
 20 23  1  0  0  0  0
 20 41  1  0  0  0  0
 20 42  1  0  0  0  0
 21 22  2  0  0  0  0
 21 24  1  0  0  0  0
 22 25  1  0  0  0  0
 22 26  1  0  0  0  0
 24 27  2  0  0  0  0
 24 44  1  0  0  0  0
 25 28  2  0  0  0  0
 25 45  1  0  0  0  0
 26 46  1  0  0  0  0
 26 47  1  0  0  0  0
 26 48  1  0  0  0  0
 27 28  1  0  0  0  0
 27 49  1  0  0  0  0
M  END
> <PUBCHEM_COMPOUND_CID>
7847054

> <PUBCHEM_CONFORMER_RMSD>
0.8

> <PUBCHEM_CONFORMER_DIVERSEORDER>
1
253
197
280
112
100
46
246
242
94
279
272
114
256
230
166
121
224
72
225
69
73
208
174
110
268
245
277
195
150
273
205
232
102
95
199
81
118
42
183
54
106
222
142
80
87
263
104
84
231
164
161
229
88
250
252
56
89
144
74
261
91
266
124
93
213
194
153
282
109
203
201
278
248
188
281
135
116
43
216
143
83
145
16
140
198
9
146
172
51
169
24
31
98
185
238
37
66
165
36
269
92
247
3
47
235
108
70
48
78
149
127
11
259
219
101
202
184
190
179
34
214
40
209
241
10
163
103
227
170
191
187
271
160
193
276
35
86
2
38
228
234
270
22
97
171
167
60
262
177
17
33
267
12
20
67
173
7
90
137
254
226
18
61
132
182
99
28
141
220
154
156
139
265
29
212
178
200
138
75
192
120
147
23
158
204
157
63
133
77
123
274
39
119
148
162
134
255
115
168
13
107
215
151
152
76
53
111
105
206
175
159
186
85
8
26
275
211
6
189
59
130
155
41
239
249
180
5
176
122
131
64
125
68
19
21
52
126
57
221
4
96
207
218
128
251
79
30
117
25
181
240
32
50
82
49
15
237
257
71
244
264
55
260
45
217
129
44
136
243
65
14
236
113
58
223
196
62
210
258
233
27

> <PUBCHEM_MMFF94_PARTIAL_CHARGES>
34
1 -0.18
11 0.31
12 0.14
13 0.14
14 -0.15
15 0.63
16 -0.15
18 -0.15
19 -0.15
2 -0.43
20 0.34
21 0.12
22 -0.14
23 0.57
24 -0.15
25 -0.15
26 0.14
27 -0.15
28 0.18
3 -0.57
34 0.15
35 0.15
39 0.15
4 -0.57
40 0.15
43 0.37
44 0.15
45 0.15
49 0.15
5 -0.62
6 -0.55
7 -0.14
8 0.09
9 0.17

> <PUBCHEM_EFFECTIVE_ROTOR_COUNT>
7

> <PUBCHEM_PHARMACOPHORE_FEATURES>
8
1 17 hydrophobe
1 3 acceptor
1 4 acceptor
1 5 acceptor
1 6 donor
6 10 11 14 16 18 19 rings
6 21 22 24 25 27 28 rings
6 5 7 8 9 10 11 rings

> <PUBCHEM_HEAVY_ATOM_COUNT>
28

> <PUBCHEM_ATOM_DEF_STEREO_COUNT>
0

> <PUBCHEM_ATOM_UDEF_STEREO_COUNT>
0

> <PUBCHEM_BOND_DEF_STEREO_COUNT>
0

> <PUBCHEM_BOND_UDEF_STEREO_COUNT>
0

> <PUBCHEM_ISOTOPIC_ATOM_COUNT>
0

> <PUBCHEM_COMPONENT_COUNT>
1

> <PUBCHEM_CACTVS_TAUTO_COUNT>
4

> <PUBCHEM_CONFORMER_ID>
0077BC8E00000001

> <PUBCHEM_MMFF94_ENERGY>
87.8193

> <PUBCHEM_FEATURE_SELFOVERLAP>
40.626

> <PUBCHEM_SHAPE_FINGERPRINT>
10 15 11312049942379571980
10076449 9 18271810082848274915
10165383 225 18335416920698874121
10554248 39 16415484861698517426
11089746 13 17704071772950766644
11315181 36 17748823016581085208
12082328 90 17704064093111469602
12342043 65 17752490858971058243
12841400 136 17312822689352427696
12895837 130 17988636424132039253
13690498 29 18339079272896646351
13757389 114 18339645637802878893
13782708 43 17968382234421256658
14848160 23 17822010891751102690
15064981 113 18197515118941805238
15183329 4 17203334386220330062
15419008 91 18115045043053615464
15461852 350 18412824665075846572
1577012 14 17632577171678691872
16990350 14 17183341162670313497
16992828 155 17202213008761590541
17627616 140 18259987102022440678
17844677 252 18339360764847244496
18643901 69 18261952956356803831
18927931 339 18411417272469579419
19489759 90 18411139134133409258
20505436 4 17846218929696747409
21033650 10 18343581850163220481
21623969 137 16443336560391837382
21756936 100 17274815883547080913
22393880 68 18409455769009679666
2303208 19 17603862287437332270
23081809 10 17632865226560929736
23522609 53 17561070445883168764
23559900 14 18187939369080834585
23569914 152 16449530366456317012
24771293 8 17846498072918394180
249057 3 18411703188664260837
255183 451 17761496890327419423
328310 630 16056588838431696878
3610482 184 17632003226018058500
4015057 19 16153717474910050490
4073 2 17676477368151212066
4169191 19 15840973461906217252
44880568 143 18408039598624701120
484985 159 17240195522495555839
49967989 163 18058152961315906234
531348 171 18271245022847398266
6608658 132 17917992802057902924
9896288 288 8646491856069782733

> <PUBCHEM_SHAPE_MULTIPOLES>
550.53
21.37
2.97
1.78
37.65
0.82
-0.48
-1.03
8.94
-10.11
0.51
2.7
-0.18
0.78

> <PUBCHEM_SHAPE_SELFOVERLAP>
1183.944

> <PUBCHEM_SHAPE_VOLUME>
305.6

> <PUBCHEM_COORDINATE_TYPE>
2
5
10

$$$$

