439762
  -OEChem-07051212473D

 50 51  0     1  0  0  0  0  0999 V2000
   -0.5936    3.2914   -0.0926 P   0  0  0  0  0  0  0  0  0  0  0  0
   -1.3505   -0.8333   -1.1197 O   0  0  0  0  0  0  0  0  0  0  0  0
   -0.5144   -1.0782    1.0604 O   0  0  0  0  0  0  0  0  0  0  0  0
    0.9927   -0.2836   -0.5470 O   0  0  0  0  0  0  0  0  0  0  0  0
   -2.9219   -2.0844    1.8742 O   0  0  0  0  0  0  0  0  0  0  0  0
   -4.6093   -0.1489    0.1493 O   0  0  0  0  0  0  0  0  0  0  0  0
    1.1167    0.8971    2.0974 O   0  0  0  0  0  0  0  0  0  0  0  0
    3.7482   -1.5142    1.4201 O   0  0  0  0  0  0  0  0  0  0  0  0
    3.0202    1.7972    0.1238 O   0  0  0  0  0  0  0  0  0  0  0  0
   -1.5889   -3.5988   -1.3382 O   0  0  0  0  0  0  0  0  0  0  0  0
   -1.1941    1.7898   -0.1578 O   0  0  0  0  0  0  0  0  0  0  0  0
    4.0502   -1.3279   -2.2596 O   0  0  0  0  0  0  0  0  0  0  0  0
    0.0465    3.4879   -1.5645 O   0  0  0  0  0  0  0  0  0  0  0  0
   -1.9081    4.2326   -0.1300 O   0  0  0  0  0  0  0  0  0  0  0  0
    0.3477    3.5490    1.0475 O   0  0  0  0  0  0  0  0  0  0  0  0
   -1.3310   -1.6722    0.0500 C   0  0  1  0  0  0  0  0  0  0  0  0
   -2.7817   -1.7028    0.5203 C   0  0  2  0  0  0  0  0  0  0  0  0
   -3.2043   -0.2706    0.2713 C   0  0  1  0  0  0  0  0  0  0  0  0
   -2.5155    0.0150   -1.0585 C   0  0  1  0  0  0  0  0  0  0  0  0
    0.8538   -1.0298    0.6604 C   0  0  1  0  0  0  0  0  0  0  0  0
    1.6646   -0.3846    1.7861 C   0  0  1  0  0  0  0  0  0  0  0  0
    3.1352   -0.2291    1.3924 C   0  0  2  0  0  0  0  0  0  0  0  0
    3.2912    0.3974    0.0006 C   0  0  1  0  0  0  0  0  0  0  0  0
    2.3320   -0.1904   -1.0490 C   0  0  1  0  0  0  0  0  0  0  0  0
   -0.7924   -3.0499   -0.3022 C   0  0  0  0  0  0  0  0  0  0  0  0
   -2.0919    1.4661   -1.2066 C   0  0  0  0  0  0  0  0  0  0  0  0
    2.7985   -1.5246   -1.6282 C   0  0  0  0  0  0  0  0  0  0  0  0
   -3.4008   -2.3759   -0.0855 H   0  0  0  0  0  0  0  0  0  0  0  0
   -2.8768    0.3790    1.0907 H   0  0  0  0  0  0  0  0  0  0  0  0
   -3.1622   -0.2544   -1.9023 H   0  0  0  0  0  0  0  0  0  0  0  0
    1.2539   -2.0400    0.5529 H   0  0  0  0  0  0  0  0  0  0  0  0
    1.5756   -0.9955    2.6925 H   0  0  0  0  0  0  0  0  0  0  0  0
    3.6387    0.4003    2.1365 H   0  0  0  0  0  0  0  0  0  0  0  0
    4.3304    0.3089   -0.3347 H   0  0  0  0  0  0  0  0  0  0  0  0
    2.2746    0.5228   -1.8813 H   0  0  0  0  0  0  0  0  0  0  0  0
    0.2115   -3.0301   -0.7282 H   0  0  0  0  0  0  0  0  0  0  0  0
   -0.7948   -3.7203    0.5634 H   0  0  0  0  0  0  0  0  0  0  0  0
   -2.9633    2.1268   -1.1710 H   0  0  0  0  0  0  0  0  0  0  0  0
   -1.5753    1.6009   -2.1620 H   0  0  0  0  0  0  0  0  0  0  0  0
   -3.8537   -1.9530    2.1193 H   0  0  0  0  0  0  0  0  0  0  0  0
    2.0798   -1.9020   -2.3638 H   0  0  0  0  0  0  0  0  0  0  0  0
    2.9144   -2.3028   -0.8709 H   0  0  0  0  0  0  0  0  0  0  0  0
   -4.8029    0.7726   -0.0929 H   0  0  0  0  0  0  0  0  0  0  0  0
    0.1726    0.7704    2.2936 H   0  0  0  0  0  0  0  0  0  0  0  0
    4.6857   -1.3973    1.1902 H   0  0  0  0  0  0  0  0  0  0  0  0
    3.1929    2.2076   -0.7407 H   0  0  0  0  0  0  0  0  0  0  0  0
   -1.2413   -4.4866   -1.5296 H   0  0  0  0  0  0  0  0  0  0  0  0
    3.9222   -0.6857   -2.9785 H   0  0  0  0  0  0  0  0  0  0  0  0
    0.5643    4.2994   -1.7523 H   0  0  0  0  0  0  0  0  0  0  0  0
   -1.8001    5.2026   -0.0325 H   0  0  0  0  0  0  0  0  0  0  0  0
  1 11  1  0  0  0  0
  1 13  1  0  0  0  0
  1 14  1  0  0  0  0
  1 15  2  0  0  0  0
  2 16  1  0  0  0  0
  2 19  1  0  0  0  0
  3 16  1  0  0  0  0
  3 20  1  0  0  0  0
  4 20  1  0  0  0  0
  4 24  1  0  0  0  0
  5 17  1  0  0  0  0
  5 40  1  0  0  0  0
  6 18  1  0  0  0  0
  6 43  1  0  0  0  0
  7 21  1  0  0  0  0
  7 44  1  0  0  0  0
  8 22  1  0  0  0  0
  8 45  1  0  0  0  0
  9 23  1  0  0  0  0
  9 46  1  0  0  0  0
 10 25  1  0  0  0  0
 10 47  1  0  0  0  0
 11 26  1  0  0  0  0
 12 27  1  0  0  0  0
 12 48  1  0  0  0  0
 13 49  1  0  0  0  0
 14 50  1  0  0  0  0
 16 17  1  0  0  0  0
 16 25  1  0  0  0  0
 17 18  1  0  0  0  0
 17 28  1  0  0  0  0
 18 19  1  0  0  0  0
 18 29  1  0  0  0  0
 19 26  1  0  0  0  0
 19 30  1  0  0  0  0
 20 21  1  0  0  0  0
 20 31  1  0  0  0  0
 21 22  1  0  0  0  0
 21 32  1  0  0  0  0
 22 23  1  0  0  0  0
 22 33  1  0  0  0  0
 23 24  1  0  0  0  0
 23 34  1  0  0  0  0
 24 27  1  0  0  0  0
 24 35  1  0  0  0  0
 25 36  1  0  0  0  0
 25 37  1  0  0  0  0
 26 38  1  0  0  0  0
 26 39  1  0  0  0  0
 27 41  1  0  0  0  0
 27 42  1  0  0  0  0
M  END
> <PUBCHEM_COMPOUND_CID>
439762

> <PUBCHEM_CONFORMER_RMSD>
1

> <PUBCHEM_CONFORMER_DIVERSEORDER>
1
10
15
6
16
8
9
14
7
3
13
11
2
4
12
5

> <PUBCHEM_MMFF94_PARTIAL_CHARGES>
36
1 1.51
10 -0.68
11 -0.55
12 -0.68
13 -0.77
14 -0.77
15 -0.7
16 0.56
17 0.28
18 0.28
19 0.28
2 -0.56
20 0.56
21 0.28
22 0.28
23 0.28
24 0.28
25 0.28
26 0.28
27 0.28
3 -0.56
4 -0.56
40 0.4
43 0.4
44 0.4
45 0.4
46 0.4
47 0.4
48 0.4
49 0.5
5 -0.68
50 0.5
6 -0.68
7 -0.68
8 -0.68
9 -0.68

> <PUBCHEM_EFFECTIVE_ROTOR_COUNT>
9.2

> <PUBCHEM_PHARMACOPHORE_FEATURES>
23
1 10 acceptor
1 10 donor
1 12 acceptor
1 12 donor
1 13 acceptor
1 14 acceptor
1 15 acceptor
1 2 acceptor
1 3 acceptor
1 4 acceptor
1 5 acceptor
1 5 donor
1 6 acceptor
1 6 donor
1 7 acceptor
1 7 donor
1 8 acceptor
1 8 donor
1 9 acceptor
1 9 donor
4 1 13 14 15 anion
5 2 16 17 18 19 rings
6 4 20 21 22 23 24 rings

> <PUBCHEM_HEAVY_ATOM_COUNT>
27

> <PUBCHEM_ATOM_DEF_STEREO_COUNT>
9

> <PUBCHEM_ATOM_UDEF_STEREO_COUNT>
0

> <PUBCHEM_BOND_DEF_STEREO_COUNT>
0

> <PUBCHEM_BOND_UDEF_STEREO_COUNT>
0

> <PUBCHEM_ISOTOPIC_ATOM_COUNT>
0

> <PUBCHEM_COMPONENT_COUNT>
1

> <PUBCHEM_CACTVS_TAUTO_COUNT>
1

> <PUBCHEM_CONFORMER_ID>
0006B5D200000001

> <PUBCHEM_MMFF94_ENERGY>
50.253

> <PUBCHEM_FEATURE_SELFOVERLAP>
116.881

> <PUBCHEM_SHAPE_FINGERPRINT>
10165383 225 17542199698955178112
10498660 4 18341335608047875845
11582403 64 15802786486058860738
12054548 360 18268155270677233984
12156800 1 16824387819423626181
12788726 201 18340479058245757864
13009979 54 17632024160137279746
13140716 1 18342465794010125195
133893 2 17480881722501570869
14022347 108 18341885312052864471
14713325 29 17909794924876029614
16945 1 18340205309830797194
18981168 100 17978794837184957701
20600515 1 18410300181123767049
20905425 154 17118331996431724649
21033648 29 17894906318034333739
21285901 2 18187358874153931847
22802520 49 18262229027689162334
23557571 272 18409168844199862456
23558518 356 17693666222401396701
23559900 14 17967523567859768838
350125 39 17763179546321576435
35225 105 17982202154994821028
6287921 2 17467624906246802938
81228 2 18339076107078325353
9925002 15 15663973804661440512

> <PUBCHEM_SHAPE_MULTIPOLES>
477.33
6.05
4.28
1.81
1.36
3.85
0.04
-2.05
-0.19
-2.41
-0.72
1.23
-0.49
0.85

> <PUBCHEM_SHAPE_SELFOVERLAP>
971.682

> <PUBCHEM_SHAPE_VOLUME>
277.9

> <PUBCHEM_COORDINATE_TYPE>
2
5
10

$$$$

