440290
  -OEChem-07051212493D

 51 52  0     1  0  0  0  0  0999 V2000
   -0.5204    0.2715   -1.0422 O   0  0  0  0  0  0  0  0  0  0  0  0
    2.8253    1.7898    2.2291 O   0  0  0  0  0  0  0  0  0  0  0  0
   -7.9626    0.6650    0.2177 O   0  5  0  0  0  0  0  0  0  0  0  0
   -7.3222    0.6180   -1.8815 O   0  0  0  0  0  0  0  0  0  0  0  0
    1.7668    0.9618    0.3387 N   0  0  0  0  0  0  0  0  0  0  0  0
   -1.6883    0.3663    0.9908 N   0  0  0  0  0  0  0  0  0  0  0  0
    2.2312   -4.2355   -0.5967 N   0  0  0  0  0  0  0  0  0  0  0  0
   -7.0614    0.6144   -0.6540 N   0  3  0  0  0  0  0  0  0  0  0  0
    2.8667   -6.0861    0.7966 N   0  0  0  0  0  0  0  0  0  0  0  0
    2.9660   -6.2509   -1.4746 N   0  0  0  0  0  0  0  0  0  0  0  0
    0.7205    0.2508    1.0275 C   0  0  2  0  0  0  0  0  0  0  0  0
    1.1344   -1.1827    1.3824 C   0  0  0  0  0  0  0  0  0  0  0  0
    1.4664   -2.0576    0.1677 C   0  0  0  0  0  0  0  0  0  0  0  0
   -0.5550    0.3077    0.1846 C   0  0  0  0  0  0  0  0  0  0  0  0
    1.9281   -3.4456    0.5978 C   0  0  0  0  0  0  0  0  0  0  0  0
    2.7465    1.6827    1.0080 C   0  0  0  0  0  0  0  0  0  0  0  0
   -3.0401    0.4291    0.5768 C   0  0  0  0  0  0  0  0  0  0  0  0
    3.7396    2.3822    0.1526 C   0  0  0  0  0  0  0  0  0  0  0  0
   -4.0588    0.4856    1.5280 C   0  0  0  0  0  0  0  0  0  0  0  0
   -3.3539    0.4339   -0.7824 C   0  0  0  0  0  0  0  0  0  0  0  0
    4.3793    3.5295    0.6221 C   0  0  0  0  0  0  0  0  0  0  0  0
    4.0330    1.8913   -1.1198 C   0  0  0  0  0  0  0  0  0  0  0  0
   -5.3912    0.5470    1.1203 C   0  0  0  0  0  0  0  0  0  0  0  0
   -4.6865    0.4952   -1.1902 C   0  0  0  0  0  0  0  0  0  0  0  0
    2.6590   -5.4443   -0.4040 C   0  0  0  0  0  0  0  0  0  0  0  0
   -5.7051    0.5517   -0.2388 C   0  0  0  0  0  0  0  0  0  0  0  0
    5.3119    4.1862   -0.1809 C   0  0  0  0  0  0  0  0  0  0  0  0
    4.9657    2.5479   -1.9226 C   0  0  0  0  0  0  0  0  0  0  0  0
    5.6052    3.6954   -1.4530 C   0  0  0  0  0  0  0  0  0  0  0  0
    0.5339    0.7852    1.9681 H   0  0  0  0  0  0  0  0  0  0  0  0
    0.3253   -1.6594    1.9502 H   0  0  0  0  0  0  0  0  0  0  0  0
    2.0088   -1.1476    2.0448 H   0  0  0  0  0  0  0  0  0  0  0  0
    2.2524   -1.5881   -0.4360 H   0  0  0  0  0  0  0  0  0  0  0  0
    0.5872   -2.1566   -0.4797 H   0  0  0  0  0  0  0  0  0  0  0  0
    1.7356    0.9568   -0.6752 H   0  0  0  0  0  0  0  0  0  0  0  0
    1.1338   -3.9272    1.1809 H   0  0  0  0  0  0  0  0  0  0  0  0
    2.8207   -3.3495    1.2279 H   0  0  0  0  0  0  0  0  0  0  0  0
   -1.5512    0.3634    1.9991 H   0  0  0  0  0  0  0  0  0  0  0  0
   -3.8275    0.4824    2.5902 H   0  0  0  0  0  0  0  0  0  0  0  0
   -2.6224    0.3939   -1.5770 H   0  0  0  0  0  0  0  0  0  0  0  0
    4.1614    3.9300    1.6086 H   0  0  0  0  0  0  0  0  0  0  0  0
    3.5836    0.9837   -1.5114 H   0  0  0  0  0  0  0  0  0  0  0  0
   -6.1583    0.5900    1.8893 H   0  0  0  0  0  0  0  0  0  0  0  0
   -4.8951    0.4975   -2.2572 H   0  0  0  0  0  0  0  0  0  0  0  0
    5.8095    5.0799    0.1841 H   0  0  0  0  0  0  0  0  0  0  0  0
    5.2003    2.1620   -2.9104 H   0  0  0  0  0  0  0  0  0  0  0  0
    6.3327    4.2056   -2.0776 H   0  0  0  0  0  0  0  0  0  0  0  0
    3.2070   -7.0413    0.8265 H   0  0  0  0  0  0  0  0  0  0  0  0
    2.6890   -5.6372    1.6880 H   0  0  0  0  0  0  0  0  0  0  0  0
    3.3012   -7.1992   -1.3452 H   0  0  0  0  0  0  0  0  0  0  0  0
    2.8639   -5.9181   -2.4272 H   0  0  0  0  0  0  0  0  0  0  0  0
  1 14  2  0  0  0  0
  2 16  2  0  0  0  0
  3  8  1  0  0  0  0
  4  8  2  0  0  0  0
  5 11  1  0  0  0  0
  5 16  1  0  0  0  0
  5 35  1  0  0  0  0
  6 14  1  0  0  0  0
  6 17  1  0  0  0  0
  6 38  1  0  0  0  0
  7 15  1  0  0  0  0
  7 25  2  0  0  0  0
  8 26  1  0  0  0  0
  9 25  1  0  0  0  0
  9 48  1  0  0  0  0
  9 49  1  0  0  0  0
 10 25  1  0  0  0  0
 10 50  1  0  0  0  0
 10 51  1  0  0  0  0
 11 12  1  0  0  0  0
 11 14  1  0  0  0  0
 11 30  1  0  0  0  0
 12 13  1  0  0  0  0
 12 31  1  0  0  0  0
 12 32  1  0  0  0  0
 13 15  1  0  0  0  0
 13 33  1  0  0  0  0
 13 34  1  0  0  0  0
 15 36  1  0  0  0  0
 15 37  1  0  0  0  0
 16 18  1  0  0  0  0
 17 19  2  0  0  0  0
 17 20  1  0  0  0  0
 18 21  2  0  0  0  0
 18 22  1  0  0  0  0
 19 23  1  0  0  0  0
 19 39  1  0  0  0  0
 20 24  2  0  0  0  0
 20 40  1  0  0  0  0
 21 27  1  0  0  0  0
 21 41  1  0  0  0  0
 22 28  2  0  0  0  0
 22 42  1  0  0  0  0
 23 26  2  0  0  0  0
 23 43  1  0  0  0  0
 24 26  1  0  0  0  0
 24 44  1  0  0  0  0
 27 29  2  0  0  0  0
 27 45  1  0  0  0  0
 28 29  1  0  0  0  0
 28 46  1  0  0  0  0
 29 47  1  0  0  0  0
M  CHG  2   3  -1   8   1
M  END
> <PUBCHEM_COMPOUND_CID>
440290

> <PUBCHEM_CONFORMER_RMSD>
1

> <PUBCHEM_CONFORMER_DIVERSEORDER>
1
45
16
55
70
33
24
77
35
63
90
134
123
79
82
51
29
135
53
15
127
49
8
119
68
137
67
88
69
42
86
37
2
94
84
72
21
60
7
87
62
34
80
109
5
46
105
121
112
44
39
128
9
115
30
96
54
75
19
106
3
111
117
22
36
31
104
50
66
25
108
6
41
97
93
120
92
116
78
113
98
20
58
76
83
59
99
56
95
130
10
57
52
125
17
129
122
101
133
64
89
132
28
14
131
38
73
65
71
43
13
32
12
114
18
126
118
138
47
81
100
4
61
124
74
48
110
11
103
107
85
136
26
40
102
27
23
91

> <PUBCHEM_MMFF94_PARTIAL_CHARGES>
42
1 -0.57
10 -0.85
11 0.36
14 0.57
15 0.25
16 0.54
17 0.12
18 0.09
19 -0.15
2 -0.57
20 -0.15
21 -0.15
22 -0.15
23 -0.15
24 -0.15
25 0.55
26 0.13
27 -0.15
28 -0.15
29 -0.15
3 -0.52
35 0.37
38 0.37
39 0.15
4 -0.52
40 0.15
41 0.15
42 0.15
43 0.15
44 0.15
45 0.15
46 0.15
47 0.15
48 0.4
49 0.4
5 -0.73
50 0.4
51 0.4
6 -0.55
7 -0.7
8 0.91
9 -0.85

> <PUBCHEM_EFFECTIVE_ROTOR_COUNT>
11

> <PUBCHEM_PHARMACOPHORE_FEATURES>
12
1 1 acceptor
1 10 donor
1 2 acceptor
1 3 acceptor
1 3 anion
1 4 acceptor
1 5 donor
1 6 donor
1 9 donor
4 7 9 10 25 cation
6 17 19 20 23 24 26 rings
6 18 21 22 27 28 29 rings

> <PUBCHEM_HEAVY_ATOM_COUNT>
29

> <PUBCHEM_ATOM_DEF_STEREO_COUNT>
1

> <PUBCHEM_ATOM_UDEF_STEREO_COUNT>
0

> <PUBCHEM_BOND_DEF_STEREO_COUNT>
0

> <PUBCHEM_BOND_UDEF_STEREO_COUNT>
0

> <PUBCHEM_ISOTOPIC_ATOM_COUNT>
0

> <PUBCHEM_COMPONENT_COUNT>
1

> <PUBCHEM_CACTVS_TAUTO_COUNT>
8

> <PUBCHEM_CONFORMER_ID>
0006B7E200000001

> <PUBCHEM_MMFF94_ENERGY>
86.4555

> <PUBCHEM_FEATURE_SELFOVERLAP>
61.03

> <PUBCHEM_SHAPE_FINGERPRINT>
10 15 15698005089780502981
10319688 140 18338516447043498503
10554248 39 18192451847318164221
10721379 63 18263634220845354246
10815517 723 17470995991739814227
11445158 3 18190753126668311375
11488393 25 18271523216896051002
11505856 67 17121969202930796980
11763715 3 17473236144240262374
11823591 26 18269280066994110216
13383668 262 17531536378102581631
13533116 47 18334862766453151707
13540713 4 17988342829190201443
13955234 65 18411133679646652722
13968360 50 18410296895716223082
15183329 4 16443331044968734701
15878777 1 16684903439643471578
17539 30 17401202275601047018
17980427 23 16844168935534202525
17980427 26 17684882064876955994
1813 80 17753609345147253438
19319366 153 18333453118888255492
21120745 212 10459850343932334474
21716022 299 18044364149078665030
23522609 53 17822836685604131641
23523766 6 18048597311305275646
23559900 14 16916781950600992523
24180151 248 18199464536010475165
27425 322 18118125770975141044
3004659 81 14273723028563932392
3057174 1 18339360769458846414
3103668 31 17689998934232368239
46194498 28 18200318843749453863
504843 32 18054224332917223882
5219985 13 18129381493162582116
6058803 2 17897712391746131785
6898599 12 17764860300448907228
77188 2 17978228593292729410

> <PUBCHEM_SHAPE_MULTIPOLES>
543.44
16.71
7.6
1.66
30.5
20.73
-0.09
-19.05
-6.08
-19.01
-2.08
-0.22
-0.45
-0.15

> <PUBCHEM_SHAPE_SELFOVERLAP>
1137.82

> <PUBCHEM_SHAPE_VOLUME>
303.3

> <PUBCHEM_COORDINATE_TYPE>
2
5
10

$$$$

