10053416
  -OEChem-07051213153D

 84 85  0     1  0  0  0  0  0999 V2000
    2.0533   -3.6174    2.2568 S   0  0  0  0  0  0  0  0  0  0  0  0
    4.6449    2.6087   -1.5990 O   0  0  0  0  0  0  0  0  0  0  0  0
   -0.1804   -0.5780    1.7941 O   0  0  0  0  0  0  0  0  0  0  0  0
    5.5206    1.3042    0.0918 O   0  0  0  0  0  0  0  0  0  0  0  0
    1.3105    0.1789    0.1972 O   0  0  0  0  0  0  0  0  0  0  0  0
    5.9275   -1.4738   -0.9694 N   0  0  0  0  0  0  0  0  0  0  0  0
    1.5024   -3.2154   -0.2260 N   0  0  0  0  0  0  0  0  0  0  0  0
   -9.7562    1.7509   -1.1925 N   0  0  0  0  0  0  0  0  0  0  0  0
    3.7856   -2.1291   -2.0443 C   0  0  0  0  0  0  0  0  0  0  0  0
    3.6627   -3.5380   -1.4212 C   0  0  1  0  0  0  0  0  0  0  0  0
    4.5304   -1.0856   -1.1795 C   0  0  2  0  0  0  0  0  0  0  0  0
    4.4796    0.2906   -1.8655 C   0  0  0  0  0  0  0  0  0  0  0  0
    2.8527   -3.5225   -0.1552 C   0  0  0  0  0  0  0  0  0  0  0  0
    3.0571   -4.5098   -2.4417 C   0  0  0  0  0  0  0  0  0  0  0  0
    4.9525    1.4294   -0.9835 C   0  0  0  0  0  0  0  0  0  0  0  0
    3.3219   -3.7781    1.1198 C   0  0  0  0  0  0  0  0  0  0  0  0
    0.9733   -3.2282    0.9780 C   0  0  0  0  0  0  0  0  0  0  0  0
   -0.4687   -2.9245    1.2624 C   0  0  0  0  0  0  0  0  0  0  0  0
    5.0078    3.8454   -0.9423 C   0  0  2  0  0  0  0  0  0  0  0  0
   -0.8322   -1.4846    0.8767 C   0  0  1  0  0  0  0  0  0  0  0  0
    3.7871    4.3979   -0.1881 C   0  0  0  0  0  0  0  0  0  0  0  0
    5.4278    4.8064   -2.0506 C   0  0  0  0  0  0  0  0  0  0  0  0
    3.5260    3.6979    1.1356 C   0  0  0  0  0  0  0  0  0  0  0  0
   -2.3055   -1.2553    1.0028 C   0  0  0  0  0  0  0  0  0  0  0  0
   -3.1804   -0.8611    0.0539 C   0  0  0  0  0  0  0  0  0  0  0  0
    4.3890    4.1719    2.2759 C   0  0  0  0  0  0  0  0  0  0  0  0
    2.5732    2.7470    1.2175 C   0  0  0  0  0  0  0  0  0  0  0  0
    0.8638    0.1622    1.3317 C   0  0  0  0  0  0  0  0  0  0  0  0
    2.1626    2.0295    2.4054 C   0  0  0  0  0  0  0  0  0  0  0  0
   -2.7896   -0.5419   -1.3654 C   0  0  0  0  0  0  0  0  0  0  0  0
   -4.5950   -0.7235    0.4197 C   0  0  0  0  0  0  0  0  0  0  0  0
    1.3896    0.9361    2.4807 C   0  0  0  0  0  0  0  0  0  0  0  0
   -5.5998   -0.3443   -0.3906 C   0  0  0  0  0  0  0  0  0  0  0  0
   -7.0149   -0.2076   -0.0256 C   0  0  0  0  0  0  0  0  0  0  0  0
   -7.8891    0.1870   -0.9759 C   0  0  0  0  0  0  0  0  0  0  0  0
   -9.3738    0.3810   -0.8615 C   0  0  0  0  0  0  0  0  0  0  0  0
   -7.4013   -0.5116    1.3986 C   0  0  0  0  0  0  0  0  0  0  0  0
   -9.1053    2.6985   -0.2874 C   0  0  0  0  0  0  0  0  0  0  0  0
  -11.2099    1.9066   -1.1335 C   0  0  0  0  0  0  0  0  0  0  0  0
    4.2947   -2.2129   -3.0146 H   0  0  0  0  0  0  0  0  0  0  0  0
    2.7782   -1.7481   -2.2630 H   0  0  0  0  0  0  0  0  0  0  0  0
    4.6663   -3.9162   -1.1907 H   0  0  0  0  0  0  0  0  0  0  0  0
    4.0470   -1.0031   -0.1994 H   0  0  0  0  0  0  0  0  0  0  0  0
    3.4396    0.5094   -2.1391 H   0  0  0  0  0  0  0  0  0  0  0  0
    5.0827    0.2918   -2.7815 H   0  0  0  0  0  0  0  0  0  0  0  0
    2.9657   -5.5158   -2.0170 H   0  0  0  0  0  0  0  0  0  0  0  0
    2.0579   -4.1911   -2.7596 H   0  0  0  0  0  0  0  0  0  0  0  0
    3.6886   -4.5784   -3.3340 H   0  0  0  0  0  0  0  0  0  0  0  0
    6.3781   -1.6448   -1.8676 H   0  0  0  0  0  0  0  0  0  0  0  0
    5.9731   -2.3514   -0.4550 H   0  0  0  0  0  0  0  0  0  0  0  0
    4.3254   -4.0355    1.4279 H   0  0  0  0  0  0  0  0  0  0  0  0
   -1.0796   -3.6332    0.6882 H   0  0  0  0  0  0  0  0  0  0  0  0
   -0.6890   -3.0956    2.3242 H   0  0  0  0  0  0  0  0  0  0  0  0
    5.8655    3.6940   -0.2767 H   0  0  0  0  0  0  0  0  0  0  0  0
   -0.4879   -1.2977   -0.1425 H   0  0  0  0  0  0  0  0  0  0  0  0
    2.8990    4.3199   -0.8297 H   0  0  0  0  0  0  0  0  0  0  0  0
    3.9214    5.4680    0.0164 H   0  0  0  0  0  0  0  0  0  0  0  0
    5.7309    5.7757   -1.6432 H   0  0  0  0  0  0  0  0  0  0  0  0
    6.2672    4.3895   -2.6179 H   0  0  0  0  0  0  0  0  0  0  0  0
    4.6123    4.9640   -2.7654 H   0  0  0  0  0  0  0  0  0  0  0  0
   -2.6903   -1.4479    2.0057 H   0  0  0  0  0  0  0  0  0  0  0  0
    4.2717    3.5847    3.1891 H   0  0  0  0  0  0  0  0  0  0  0  0
    4.1526    5.2137    2.5161 H   0  0  0  0  0  0  0  0  0  0  0  0
    5.4477    4.1156    2.0034 H   0  0  0  0  0  0  0  0  0  0  0  0
    2.0348    2.5020    0.3055 H   0  0  0  0  0  0  0  0  0  0  0  0
    2.4847    2.4453    3.3569 H   0  0  0  0  0  0  0  0  0  0  0  0
   -3.3021   -1.2136   -2.0632 H   0  0  0  0  0  0  0  0  0  0  0  0
   -3.0571    0.4917   -1.6129 H   0  0  0  0  0  0  0  0  0  0  0  0
   -1.7220   -0.6379   -1.5682 H   0  0  0  0  0  0  0  0  0  0  0  0
   -4.8211   -0.9613    1.4575 H   0  0  0  0  0  0  0  0  0  0  0  0
    1.1374    0.5545    3.4679 H   0  0  0  0  0  0  0  0  0  0  0  0
   -5.3738   -0.1087   -1.4289 H   0  0  0  0  0  0  0  0  0  0  0  0
   -7.5057    0.3792   -1.9795 H   0  0  0  0  0  0  0  0  0  0  0  0
   -9.8375   -0.3051   -1.5824 H   0  0  0  0  0  0  0  0  0  0  0  0
   -9.7625    0.0957    0.1201 H   0  0  0  0  0  0  0  0  0  0  0  0
   -8.4603   -0.3558    1.6114 H   0  0  0  0  0  0  0  0  0  0  0  0
   -6.8512    0.1348    2.0918 H   0  0  0  0  0  0  0  0  0  0  0  0
   -7.1805   -1.5570    1.6412 H   0  0  0  0  0  0  0  0  0  0  0  0
   -8.0192    2.7193   -0.4250 H   0  0  0  0  0  0  0  0  0  0  0  0
   -9.3234    2.4844    0.7655 H   0  0  0  0  0  0  0  0  0  0  0  0
   -9.4453    3.7195   -0.4987 H   0  0  0  0  0  0  0  0  0  0  0  0
  -11.6072    1.7173   -0.1295 H   0  0  0  0  0  0  0  0  0  0  0  0
  -11.6996    1.2204   -1.8336 H   0  0  0  0  0  0  0  0  0  0  0  0
  -11.5010    2.9194   -1.4339 H   0  0  0  0  0  0  0  0  0  0  0  0
  1 16  1  0  0  0  0
  1 17  1  0  0  0  0
  2 15  1  0  0  0  0
  2 19  1  0  0  0  0
  3 20  1  0  0  0  0
  3 28  1  0  0  0  0
  4 15  2  0  0  0  0
  5 28  2  0  0  0  0
  6 11  1  0  0  0  0
  6 49  1  0  0  0  0
  6 50  1  0  0  0  0
  7 13  1  0  0  0  0
  7 17  2  0  0  0  0
  8 36  1  0  0  0  0
  8 38  1  0  0  0  0
  8 39  1  0  0  0  0
  9 10  1  0  0  0  0
  9 11  1  0  0  0  0
  9 40  1  0  0  0  0
  9 41  1  0  0  0  0
 10 13  1  0  0  0  0
 10 14  1  0  0  0  0
 10 42  1  0  0  0  0
 11 12  1  0  0  0  0
 11 43  1  0  0  0  0
 12 15  1  0  0  0  0
 12 44  1  0  0  0  0
 12 45  1  0  0  0  0
 13 16  2  0  0  0  0
 14 46  1  0  0  0  0
 14 47  1  0  0  0  0
 14 48  1  0  0  0  0
 16 51  1  0  0  0  0
 17 18  1  0  0  0  0
 18 20  1  0  0  0  0
 18 52  1  0  0  0  0
 18 53  1  0  0  0  0
 19 21  1  0  0  0  0
 19 22  1  0  0  0  0
 19 54  1  0  0  0  0
 20 24  1  0  0  0  0
 20 55  1  0  0  0  0
 21 23  1  0  0  0  0
 21 56  1  0  0  0  0
 21 57  1  0  0  0  0
 22 58  1  0  0  0  0
 22 59  1  0  0  0  0
 22 60  1  0  0  0  0
 23 26  1  0  0  0  0
 23 27  2  0  0  0  0
 24 25  2  0  0  0  0
 24 61  1  0  0  0  0
 25 30  1  0  0  0  0
 25 31  1  0  0  0  0
 26 62  1  0  0  0  0
 26 63  1  0  0  0  0
 26 64  1  0  0  0  0
 27 29  1  0  0  0  0
 27 65  1  0  0  0  0
 28 32  1  0  0  0  0
 29 32  2  0  0  0  0
 29 66  1  0  0  0  0
 30 67  1  0  0  0  0
 30 68  1  0  0  0  0
 30 69  1  0  0  0  0
 31 33  2  0  0  0  0
 31 70  1  0  0  0  0
 32 71  1  0  0  0  0
 33 34  1  0  0  0  0
 33 72  1  0  0  0  0
 34 35  2  0  0  0  0
 34 37  1  0  0  0  0
 35 36  1  0  0  0  0
 35 73  1  0  0  0  0
 36 74  1  0  0  0  0
 36 75  1  0  0  0  0
 37 76  1  0  0  0  0
 37 77  1  0  0  0  0
 37 78  1  0  0  0  0
 38 79  1  0  0  0  0
 38 80  1  0  0  0  0
 38 81  1  0  0  0  0
 39 82  1  0  0  0  0
 39 83  1  0  0  0  0
 39 84  1  0  0  0  0
M  END
> <PUBCHEM_COMPOUND_CID>
10053416

> <PUBCHEM_CONFORMER_RMSD>
1

> <PUBCHEM_CONFORMER_DIVERSEORDER>
1
7
4
5
3
2
6

> <PUBCHEM_MMFF94_PARTIAL_CHARGES>
46
1 -0.08
10 0.18
11 0.27
12 0.06
13 0.05
15 0.66
16 -0.11
17 0.2
18 0.18
19 0.28
2 -0.43
20 0.42
21 0.14
23 -0.28
24 -0.29
25 -0.14
26 0.14
27 -0.15
28 0.71
29 -0.15
3 -0.43
30 0.14
31 -0.15
32 -0.14
33 -0.15
34 -0.14
35 -0.29
36 0.41
37 0.14
38 0.27
39 0.27
4 -0.57
49 0.36
5 -0.57
50 0.36
51 0.15
6 -0.99
61 0.15
65 0.15
66 0.15
7 -0.57
70 0.15
71 0.15
72 0.15
73 0.15
8 -0.81

> <PUBCHEM_EFFECTIVE_ROTOR_COUNT>
7

> <PUBCHEM_PHARMACOPHORE_FEATURES>
9
1 30 hydrophobe
1 37 hydrophobe
1 4 acceptor
1 5 acceptor
1 6 cation
1 6 donor
1 7 acceptor
1 8 cation
5 1 7 13 16 17 rings

> <PUBCHEM_HEAVY_ATOM_COUNT>
39

> <PUBCHEM_ATOM_DEF_STEREO_COUNT>
4

> <PUBCHEM_ATOM_UDEF_STEREO_COUNT>
0

> <PUBCHEM_BOND_DEF_STEREO_COUNT>
5

> <PUBCHEM_BOND_UDEF_STEREO_COUNT>
0

> <PUBCHEM_ISOTOPIC_ATOM_COUNT>
0

> <PUBCHEM_COMPONENT_COUNT>
1

> <PUBCHEM_CACTVS_TAUTO_COUNT>
1

> <PUBCHEM_CONFORMER_ID>
0099672800000001

> <PUBCHEM_MMFF94_ENERGY>
65.9259

> <PUBCHEM_FEATURE_SELFOVERLAP>
45.669

> <PUBCHEM_SHAPE_FINGERPRINT>
10673678 19 18341043030427983858
10675989 125 18261104120236802968
10677351 14 18335707140508814663
10721379 63 18409733980006840426
10816530 90 18408889550882013075
11211813 74 18130224961000251151
12104220 4 17130424571955291364
12522641 24 18411422856011031903
12539747 72 17417523623804321363
13782708 43 6771875078207604939
13944108 23 18411983576449470304
14117953 113 18335127675988856748
14747281 78 18131632291826589499
15183329 4 16805867499721206385
15351334 14 18338528452326469543
15484559 13 18041832914682396236
15721738 15 18116143386223362152

> <PUBCHEM_SHAPE_MULTIPOLES>
768.03
25.25
6.97
2.47
100.41
2.05
-0.37
23.15
13.92
-16.27
0.56
-3.2
-0.02
2.35

> <PUBCHEM_SHAPE_SELFOVERLAP>
1534.79

> <PUBCHEM_SHAPE_VOLUME>
455.6

> <PUBCHEM_COORDINATE_TYPE>
2
5
10

$$$$

