442210
  -OEChem-07051212572D

 39 41  0     1  0  0  0  0  0999 V2000
    6.4783   -1.3047    0.0000 O   0  0  0  0  0  0  0  0  0  0  0  0
    8.0619   -0.5000    0.0000 O   0  0  0  0  0  0  0  0  0  0  0  0
    3.8000    0.0000    0.0000 C   0  0  1  0  0  0  0  0  0  0  0  0
    3.8000   -1.0000    0.0000 C   0  0  1  0  0  0  0  0  0  0  0  0
    2.9061    0.5347    0.0000 C   0  0  2  0  0  0  0  0  0  0  0  0
    4.6660    0.5000    0.0000 C   0  0  0  0  0  0  0  0  0  0  0  0
    4.6660   -1.5000    0.0000 C   0  0  0  0  0  0  0  0  0  0  0  0
    2.9061   -1.5346    0.0000 C   0  0  0  0  0  0  0  0  0  0  0  0
    2.0000    0.0208    0.0000 C   0  0  0  0  0  0  0  0  0  0  0  0
    5.5321   -1.0000    0.0000 C   0  0  1  0  0  0  0  0  0  0  0  0
    2.0000   -1.0208    0.0000 C   0  0  0  0  0  0  0  0  0  0  0  0
    5.5321    0.0000    0.0000 C   0  0  0  0  0  0  0  0  0  0  0  0
    3.8000    1.0000    0.0000 C   0  0  0  0  0  0  0  0  0  0  0  0
    2.9176    1.5346    0.0000 C   0  0  0  0  0  0  0  0  0  0  0  0
    6.4783    0.3048    0.0000 C   0  0  0  0  0  0  0  0  0  0  0  0
    7.0619   -0.5000    0.0000 C   0  0  0  0  0  0  0  0  0  0  0  0
    6.7889    1.2553    0.0000 C   0  0  0  0  0  0  0  0  0  0  0  0
    3.8066   -1.8499    0.0000 H   0  0  0  0  0  0  0  0  0  0  0  0
    2.3721    0.8499    0.0000 H   0  0  0  0  0  0  0  0  0  0  0  0
    5.0646    0.9750    0.0000 H   0  0  0  0  0  0  0  0  0  0  0  0
    4.2675    0.9750    0.0000 H   0  0  0  0  0  0  0  0  0  0  0  0
    4.2675   -1.9749    0.0000 H   0  0  0  0  0  0  0  0  0  0  0  0
    5.0646   -1.9749    0.0000 H   0  0  0  0  0  0  0  0  0  0  0  0
    2.5124   -2.0136    0.0000 H   0  0  0  0  0  0  0  0  0  0  0  0
    3.3107   -2.0044    0.0000 H   0  0  0  0  0  0  0  0  0  0  0  0
    1.7909    0.6045    0.0000 H   0  0  0  0  0  0  0  0  0  0  0  0
    1.3891   -0.0852    0.0000 H   0  0  0  0  0  0  0  0  0  0  0  0
    5.6220   -1.8452    0.0000 H   0  0  0  0  0  0  0  0  0  0  0  0
    1.3891   -0.9147    0.0000 H   0  0  0  0  0  0  0  0  0  0  0  0
    1.7909   -1.6045    0.0000 H   0  0  0  0  0  0  0  0  0  0  0  0
    4.4200    1.0000    0.0000 H   0  0  0  0  0  0  0  0  0  0  0  0
    3.8000    1.6200    0.0000 H   0  0  0  0  0  0  0  0  0  0  0  0
    3.1800    1.0000    0.0000 H   0  0  0  0  0  0  0  0  0  0  0  0
    3.5376    1.5275    0.0000 H   0  0  0  0  0  0  0  0  0  0  0  0
    2.9248    2.1546    0.0000 H   0  0  0  0  0  0  0  0  0  0  0  0
    2.2977    1.5418    0.0000 H   0  0  0  0  0  0  0  0  0  0  0  0
    7.3783    1.0627    0.0000 H   0  0  0  0  0  0  0  0  0  0  0  0
    6.9816    1.8446    0.0000 H   0  0  0  0  0  0  0  0  0  0  0  0
    6.1996    1.4479    0.0000 H   0  0  0  0  0  0  0  0  0  0  0  0
  1 10  1  0  0  0  0
  1 16  1  0  0  0  0
  2 16  2  0  0  0  0
  3  4  1  0  0  0  0
  3  5  1  0  0  0  0
  3  6  1  0  0  0  0
  3 13  1  6  0  0  0
  4  7  1  0  0  0  0
  4  8  1  0  0  0  0
  4 18  1  6  0  0  0
  5  9  1  0  0  0  0
  5 14  1  6  0  0  0
  5 19  1  0  0  0  0
  6 12  1  0  0  0  0
  6 20  1  0  0  0  0
  6 21  1  0  0  0  0
  7 10  1  0  0  0  0
  7 22  1  0  0  0  0
  7 23  1  0  0  0  0
  8 11  1  0  0  0  0
  8 24  1  0  0  0  0
  8 25  1  0  0  0  0
  9 11  1  0  0  0  0
  9 26  1  0  0  0  0
  9 27  1  0  0  0  0
 10 12  1  0  0  0  0
 10 28  1  6  0  0  0
 11 29  1  0  0  0  0
 11 30  1  0  0  0  0
 12 15  2  0  0  0  0
 13 31  1  0  0  0  0
 13 32  1  0  0  0  0
 13 33  1  0  0  0  0
 14 34  1  0  0  0  0
 14 35  1  0  0  0  0
 14 36  1  0  0  0  0
 15 16  1  0  0  0  0
 15 17  1  0  0  0  0
 17 37  1  0  0  0  0
 17 38  1  0  0  0  0
 17 39  1  0  0  0  0
M  END
> <PUBCHEM_COMPOUND_CID>
442210

> <PUBCHEM_COMPOUND_CANONICALIZED>
1

> <PUBCHEM_CACTVS_COMPLEXITY>
396

> <PUBCHEM_CACTVS_HBOND_ACCEPTOR>
2

> <PUBCHEM_CACTVS_HBOND_DONOR>
0

> <PUBCHEM_CACTVS_ROTATABLE_BOND>
0

> <PUBCHEM_CACTVS_SUBSKEYS>
AAADceBwMAAAAAAAAAAAAAAAAAAAAQAAAAAwYAAAAAAAAEDAAAAAGgAAAAAADxSggAICCAAABACIAgDQCAAAAAAgAAAACAEAAEgABAIAIAACEAAEgAAIIQOAwPAPgAAAAAAAAABAAAYAACAAAAAAAAAAAA==

> <PUBCHEM_IUPAC_OPENEYE_NAME>
(4aR,5S,8aR,9aS)-3,4a,5-trimethyl-4,5,6,7,8,8a,9,9a-octahydrobenzo[f]benzofuran-2-one

> <PUBCHEM_IUPAC_CAS_NAME>
(4aR,5S,8aR,9aS)-3,4a,5-trimethyl-4,5,6,7,8,8a,9,9a-octahydrobenzo[f]benzofuran-2-one

> <PUBCHEM_IUPAC_NAME>
(4aR,5S,8aR,9aS)-3,4a,5-trimethyl-4,5,6,7,8,8a,9,9a-octahydrobenzo[f][1]benzofuran-2-one

> <PUBCHEM_IUPAC_SYSTEMATIC_NAME>
(4aR,5S,8aR,9aS)-3,4a,5-trimethyl-4,5,6,7,8,8a,9,9a-octahydrobenzo[f][1]benzofuran-2-one

> <PUBCHEM_IUPAC_TRADITIONAL_NAME>
(4aR,5S,8aR,9aS)-3,4a,5-trimethyl-4,5,6,7,8,8a,9,9a-octahydrobenzo[f]benzofuran-2-one

> <PUBCHEM_IUPAC_INCHI>
InChI=1S/C15H22O2/c1-9-5-4-6-11-7-13-12(8-15(9,11)3)10(2)14(16)17-13/h9,11,13H,4-8H2,1-3H3/t9-,11+,13-,15+/m0/s1

> <PUBCHEM_IUPAC_INCHIKEY>
AEQDXSFIHGWHDV-XPGAZNKBSA-N

> <PUBCHEM_XLOGP3_AA>
3.7

> <PUBCHEM_EXACT_MASS>
234.16198

> <PUBCHEM_MOLECULAR_FORMULA>
C15H22O2

> <PUBCHEM_MOLECULAR_WEIGHT>
234.33398

> <PUBCHEM_OPENEYE_CAN_SMILES>
CC1CCCC2C1(CC3=C(C(=O)OC3C2)C)C

> <PUBCHEM_OPENEYE_ISO_SMILES>
C[C@H]1CCC[C@H]2[C@@]1(CC3=C(C(=O)O[C@H]3C2)C)C

> <PUBCHEM_CACTVS_TPSA>
26.3

> <PUBCHEM_MONOISOTOPIC_WEIGHT>
234.16198

> <PUBCHEM_TOTAL_CHARGE>
0

> <PUBCHEM_HEAVY_ATOM_COUNT>
17

> <PUBCHEM_ATOM_DEF_STEREO_COUNT>
4

> <PUBCHEM_ATOM_UDEF_STEREO_COUNT>
0

> <PUBCHEM_BOND_DEF_STEREO_COUNT>
0

> <PUBCHEM_BOND_UDEF_STEREO_COUNT>
0

> <PUBCHEM_ISOTOPIC_ATOM_COUNT>
0

> <PUBCHEM_COMPONENT_COUNT>
1

> <PUBCHEM_CACTVS_TAUTO_COUNT>
1

> <PUBCHEM_COORDINATE_TYPE>
1
5
255

> <PUBCHEM_BONDANNOTATIONS>
10  28  6
3  13  6
4  18  6
5  14  6

$$$$

