6441014
  -OEChem-07051213022D

 74 77  0     1  0  0  0  0  0999 V2000
   14.1249   -2.2706    0.0000 O   0  0  0  0  0  0  0  0  0  0  0  0
   12.8923   -0.4046    0.0000 O   0  0  0  0  0  0  0  0  0  0  0  0
   12.3923   -4.2706    0.0000 O   0  0  0  0  0  0  0  0  0  0  0  0
    9.7942   -1.7706    0.0000 O   0  0  0  0  0  0  0  0  0  0  0  0
    7.2772    4.1810    0.0000 O   0  0  0  0  0  0  0  0  0  0  0  0
    4.2286    2.4209    0.0000 O   0  0  0  0  0  0  0  0  0  0  0  0
    7.8923    3.0595    0.0000 O   0  0  0  0  0  0  0  0  0  0  0  0
   10.6603   -3.2706    0.0000 N   0  0  0  0  0  0  0  0  0  0  0  0
    6.3923    2.1935    0.0000 N   0  0  0  0  0  0  0  0  0  0  0  0
   13.2583   -1.7706    0.0000 C   0  0  2  0  0  0  0  0  0  0  0  0
   13.2583   -2.7706    0.0000 C   0  0  1  0  0  0  0  0  0  0  0  0
   12.3923   -1.2706    0.0000 C   0  0  2  0  0  0  0  0  0  0  0  0
   12.3923   -3.2706    0.0000 C   0  0  0  0  0  0  0  0  0  0  0  0
   11.5263   -1.7706    0.0000 C   0  0  0  0  0  0  0  0  0  0  0  0
   11.5263   -2.7706    0.0000 C   0  0  0  0  0  0  0  0  0  0  0  0
   11.8923   -0.4046    0.0000 C   0  0  0  0  0  0  0  0  0  0  0  0
    3.7320   -3.2706    0.0000 C   0  0  0  0  0  0  0  0  0  0  0  0
    2.8660   -2.7706    0.0000 C   0  0  0  0  0  0  0  0  0  0  0  0
    3.7320   -4.2706    0.0000 C   0  0  0  0  0  0  0  0  0  0  0  0
    2.0000   -3.2706    0.0000 C   0  0  0  0  0  0  0  0  0  0  0  0
    2.8660   -4.7706    0.0000 C   0  0  0  0  0  0  0  0  0  0  0  0
    2.0000   -4.2706    0.0000 C   0  0  0  0  0  0  0  0  0  0  0  0
   10.8923   -0.4046    0.0000 C   0  0  0  0  0  0  0  0  0  0  0  0
    4.5981   -2.7706    0.0000 C   0  0  0  0  0  0  0  0  0  0  0  0
    9.7942   -2.7706    0.0000 C   0  0  0  0  0  0  0  0  0  0  0  0
   10.3923    0.4614    0.0000 C   0  0  0  0  0  0  0  0  0  0  0  0
    5.4641   -3.2706    0.0000 C   0  0  0  0  0  0  0  0  0  0  0  0
    8.9282   -3.2706    0.0000 C   0  0  0  0  0  0  0  0  0  0  0  0
    6.3301   -2.7706    0.0000 C   0  0  0  0  0  0  0  0  0  0  0  0
    9.3923    0.4614    0.0000 C   0  0  0  0  0  0  0  0  0  0  0  0
    8.0622   -2.7706    0.0000 C   0  0  0  0  0  0  0  0  0  0  0  0
    7.1962   -3.2706    0.0000 C   0  0  0  0  0  0  0  0  0  0  0  0
    8.8923    1.3275    0.0000 C   0  0  0  0  0  0  0  0  0  0  0  0
    5.5559    4.6422    0.0000 C   0  0  0  0  0  0  0  0  0  0  0  0
    4.6899    4.1422    0.0000 C   0  0  0  0  0  0  0  0  0  0  0  0
    7.8923    1.3275    0.0000 C   0  0  0  0  0  0  0  0  0  0  0  0
    5.8923    3.0595    0.0000 C   0  0  0  0  0  0  0  0  0  0  0  0
    6.2990    3.9730    0.0000 C   0  0  0  0  0  0  0  0  0  0  0  0
    4.8978    3.1640    0.0000 C   0  0  0  0  0  0  0  0  0  0  0  0
    7.3923    2.1935    0.0000 C   0  0  0  0  0  0  0  0  0  0  0  0
   13.5683   -1.2336    0.0000 H   0  0  0  0  0  0  0  0  0  0  0  0
   13.5683   -3.3076    0.0000 H   0  0  0  0  0  0  0  0  0  0  0  0
   10.9893   -1.4606    0.0000 H   0  0  0  0  0  0  0  0  0  0  0  0
   12.2023    0.1323    0.0000 H   0  0  0  0  0  0  0  0  0  0  0  0
    3.7320   -2.6506    0.0000 H   0  0  0  0  0  0  0  0  0  0  0  0
   13.5123   -0.4046    0.0000 H   0  0  0  0  0  0  0  0  0  0  0  0
    3.2646   -2.2957    0.0000 H   0  0  0  0  0  0  0  0  0  0  0  0
    2.4675   -2.2957    0.0000 H   0  0  0  0  0  0  0  0  0  0  0  0
    3.9441   -4.8532    0.0000 H   0  0  0  0  0  0  0  0  0  0  0  0
    4.3426   -4.1630    0.0000 H   0  0  0  0  0  0  0  0  0  0  0  0
    1.7880   -2.6880    0.0000 H   0  0  0  0  0  0  0  0  0  0  0  0
    1.3894   -3.3783    0.0000 H   0  0  0  0  0  0  0  0  0  0  0  0
    2.4675   -5.2456    0.0000 H   0  0  0  0  0  0  0  0  0  0  0  0
    3.2646   -5.2456    0.0000 H   0  0  0  0  0  0  0  0  0  0  0  0
    1.3894   -4.1630    0.0000 H   0  0  0  0  0  0  0  0  0  0  0  0
    1.7880   -4.8532    0.0000 H   0  0  0  0  0  0  0  0  0  0  0  0
   10.6603   -3.8906    0.0000 H   0  0  0  0  0  0  0  0  0  0  0  0
   10.5823   -0.9415    0.0000 H   0  0  0  0  0  0  0  0  0  0  0  0
    4.5981   -2.1506    0.0000 H   0  0  0  0  0  0  0  0  0  0  0  0
   10.7023    0.9984    0.0000 H   0  0  0  0  0  0  0  0  0  0  0  0
    5.4641   -3.8906    0.0000 H   0  0  0  0  0  0  0  0  0  0  0  0
    8.9282   -3.8906    0.0000 H   0  0  0  0  0  0  0  0  0  0  0  0
    6.3301   -2.1506    0.0000 H   0  0  0  0  0  0  0  0  0  0  0  0
    9.0823   -0.0755    0.0000 H   0  0  0  0  0  0  0  0  0  0  0  0
    8.0622   -2.1506    0.0000 H   0  0  0  0  0  0  0  0  0  0  0  0
    7.1962   -3.8906    0.0000 H   0  0  0  0  0  0  0  0  0  0  0  0
    9.2023    1.8644    0.0000 H   0  0  0  0  0  0  0  0  0  0  0  0
    6.0166    5.0570    0.0000 H   0  0  0  0  0  0  0  0  0  0  0  0
    5.1915    5.1438    0.0000 H   0  0  0  0  0  0  0  0  0  0  0  0
    4.4377    4.7086    0.0000 H   0  0  0  0  0  0  0  0  0  0  0  0
    4.1002    3.9506    0.0000 H   0  0  0  0  0  0  0  0  0  0  0  0
    7.5823    0.7905    0.0000 H   0  0  0  0  0  0  0  0  0  0  0  0
    6.0823    1.6566    0.0000 H   0  0  0  0  0  0  0  0  0  0  0  0
    7.4688    4.7706    0.0000 H   0  0  0  0  0  0  0  0  0  0  0  0
 10  1  1  6  0  0  0
 11  1  1  6  0  0  0
 12  2  1  6  0  0  0
  2 46  1  0  0  0  0
  3 13  2  0  0  0  0
  4 25  2  0  0  0  0
  5 38  1  0  0  0  0
  5 74  1  0  0  0  0
  6 39  2  0  0  0  0
  7 40  2  0  0  0  0
  8 15  1  0  0  0  0
  8 25  1  0  0  0  0
  8 57  1  0  0  0  0
  9 37  1  0  0  0  0
  9 40  1  0  0  0  0
  9 73  1  0  0  0  0
 10 11  1  0  0  0  0
 10 12  1  0  0  0  0
 10 41  1  0  0  0  0
 11 13  1  0  0  0  0
 11 42  1  0  0  0  0
 12 14  1  0  0  0  0
 12 16  1  0  0  0  0
 13 15  1  0  0  0  0
 14 15  2  0  0  0  0
 14 43  1  0  0  0  0
 16 23  2  0  0  0  0
 16 44  1  0  0  0  0
 17 18  1  0  0  0  0
 17 19  1  0  0  0  0
 17 24  1  0  0  0  0
 17 45  1  0  0  0  0
 18 20  1  0  0  0  0
 18 47  1  0  0  0  0
 18 48  1  0  0  0  0
 19 21  1  0  0  0  0
 19 49  1  0  0  0  0
 19 50  1  0  0  0  0
 20 22  1  0  0  0  0
 20 51  1  0  0  0  0
 20 52  1  0  0  0  0
 21 22  1  0  0  0  0
 21 53  1  0  0  0  0
 21 54  1  0  0  0  0
 22 55  1  0  0  0  0
 22 56  1  0  0  0  0
 23 26  1  0  0  0  0
 23 58  1  0  0  0  0
 24 27  2  0  0  0  0
 24 59  1  0  0  0  0
 25 28  1  0  0  0  0
 26 30  2  0  0  0  0
 26 60  1  0  0  0  0
 27 29  1  0  0  0  0
 27 61  1  0  0  0  0
 28 31  2  0  0  0  0
 28 62  1  0  0  0  0
 29 32  2  0  0  0  0
 29 63  1  0  0  0  0
 30 33  1  0  0  0  0
 30 64  1  0  0  0  0
 31 32  1  0  0  0  0
 31 65  1  0  0  0  0
 32 66  1  0  0  0  0
 33 36  2  0  0  0  0
 33 67  1  0  0  0  0
 34 35  1  0  0  0  0
 34 38  1  0  0  0  0
 34 68  1  0  0  0  0
 34 69  1  0  0  0  0
 35 39  1  0  0  0  0
 35 70  1  0  0  0  0
 35 71  1  0  0  0  0
 36 40  1  0  0  0  0
 36 72  1  0  0  0  0
 37 38  2  0  0  0  0
 37 39  1  0  0  0  0
M  END
> <PUBCHEM_COMPOUND_CID>
6441014

> <PUBCHEM_COMPOUND_CANONICALIZED>
1

> <PUBCHEM_CACTVS_COMPLEXITY>
1270

> <PUBCHEM_CACTVS_HBOND_ACCEPTOR>
7

> <PUBCHEM_CACTVS_HBOND_DONOR>
4

> <PUBCHEM_CACTVS_ROTATABLE_BOND>
10

> <PUBCHEM_CACTVS_SUBSKEYS>
AAADcfB7OAAAAAAAAAAAAAAAEgAAAQAAAAAwQAAABAAAAAAAAAAAHgAQCAAADVyhgAIAAALABgCIAKVSUAKAAAAgIgAICAHAAEgJBBYAgSQGUAAH9ACLkYO6kAIOAAAAAAAAAAAAAAAAAAAAAAAAAAAAAA==

> <PUBCHEM_IUPAC_OPENEYE_NAME>
(2E,4E,6E)-7-cyclohexyl-N-[(1S,5S,6R)-5-hydroxy-5-[(1E,3E,5E)-7-[(2-hydroxy-5-oxo-cyclopenten-1-yl)amino]-7-oxo-hepta-1,3,5-trienyl]-2-oxo-7-oxabicyclo[4.1.0]hept-3-en-3-yl]hepta-2,4,6-trienamide

> <PUBCHEM_IUPAC_CAS_NAME>
(2E,4E,6E)-7-cyclohexyl-N-[(1S,5S,6R)-5-hydroxy-5-[(1E,3E,5E)-7-[(2-hydroxy-5-oxo-1-cyclopentenyl)amino]-7-oxohepta-1,3,5-trienyl]-2-oxo-7-oxabicyclo[4.1.0]hept-3-en-3-yl]hepta-2,4,6-trienamide

> <PUBCHEM_IUPAC_NAME>
(2E,4E,6E)-7-cyclohexyl-N-[(1S,5S,6R)-5-hydroxy-5-[(1E,3E,5E)-7-[(2-hydroxy-5-oxocyclopenten-1-yl)amino]-7-oxohepta-1,3,5-trienyl]-2-oxo-7-oxabicyclo[4.1.0]hept-3-en-3-yl]hepta-2,4,6-trienamide

> <PUBCHEM_IUPAC_SYSTEMATIC_NAME>
(2E,4E,6E)-7-cyclohexyl-N-[(1S,5S,6R)-5-oxidanyl-2-oxidanylidene-5-[(1E,3E,5E)-7-oxidanylidene-7-[(2-oxidanyl-5-oxidanylidene-cyclopenten-1-yl)amino]hepta-1,3,5-trienyl]-7-oxabicyclo[4.1.0]hept-3-en-3-yl]hepta-2,4,6-trienamide

> <PUBCHEM_IUPAC_TRADITIONAL_NAME>
(2E,4E,6E)-7-cyclohexyl-N-[(1S,5S,6R)-5-hydroxy-5-[(1E,3E,5E)-7-[(2-hydroxy-5-keto-cyclopenten-1-yl)amino]-7-keto-hepta-1,3,5-trienyl]-2-keto-7-oxabicyclo[4.1.0]hept-3-en-3-yl]hepta-2,4,6-trienamide

> <PUBCHEM_IUPAC_INCHI>
InChI=1S/C31H34N2O7/c34-23-17-18-24(35)27(23)33-26(37)16-10-3-4-11-19-31(39)20-22(28(38)29-30(31)40-29)32-25(36)15-9-2-1-6-12-21-13-7-5-8-14-21/h1-4,6,9-12,15-16,19-21,29-30,34,39H,5,7-8,13-14,17-18H2,(H,32,36)(H,33,37)/b2-1+,4-3+,12-6+,15-9+,16-10+,19-11+/t29-,30-,31+/m1/s1

> <PUBCHEM_IUPAC_INCHIKEY>
SSHVAUUEPNULMP-JHWDTTIQSA-N

> <PUBCHEM_XLOGP3_AA>
3.5

> <PUBCHEM_EXACT_MASS>
546.236601

> <PUBCHEM_MOLECULAR_FORMULA>
C31H34N2O7

> <PUBCHEM_MOLECULAR_WEIGHT>
546.61086

> <PUBCHEM_OPENEYE_CAN_SMILES>
C1CCC(CC1)C=CC=CC=CC(=O)NC2=CC(C3C(C2=O)O3)(C=CC=CC=CC(=O)NC4=C(CCC4=O)O)O

> <PUBCHEM_OPENEYE_ISO_SMILES>
C1CCC(CC1)/C=C/C=C/C=C/C(=O)NC2=C[C@]([C@H]3[C@@H](C2=O)O3)(/C=C/C=C/C=C/C(=O)NC4=C(CCC4=O)O)O

> <PUBCHEM_CACTVS_TPSA>
145

> <PUBCHEM_MONOISOTOPIC_WEIGHT>
546.236601

> <PUBCHEM_TOTAL_CHARGE>
0

> <PUBCHEM_HEAVY_ATOM_COUNT>
40

> <PUBCHEM_ATOM_DEF_STEREO_COUNT>
3

> <PUBCHEM_ATOM_UDEF_STEREO_COUNT>
0

> <PUBCHEM_BOND_DEF_STEREO_COUNT>
6

> <PUBCHEM_BOND_UDEF_STEREO_COUNT>
0

> <PUBCHEM_ISOTOPIC_ATOM_COUNT>
0

> <PUBCHEM_COMPONENT_COUNT>
1

> <PUBCHEM_CACTVS_TAUTO_COUNT>
88

> <PUBCHEM_COORDINATE_TYPE>
1
5
255

> <PUBCHEM_BONDANNOTATIONS>
10  1  6
11  1  6
12  2  6

$$$$

