5281583
  -OEChem-07051212583D

 81 84  0     1  0  0  0  0  0999 V2000
   -1.7816    2.4785    0.0120 O   0  0  0  0  0  0  0  0  0  0  0  0
   -2.3853   -2.2473   -0.6759 O   0  0  0  0  0  0  0  0  0  0  0  0
    0.5289   -0.0827    1.5941 O   0  0  0  0  0  0  0  0  0  0  0  0
    3.7082   -0.1851   -2.2650 O   0  0  0  0  0  0  0  0  0  0  0  0
    5.0467    0.8093    0.6381 O   0  0  0  0  0  0  0  0  0  0  0  0
   -4.7504   -2.4564    0.7504 N   0  0  0  0  0  0  0  0  0  0  0  0
   -1.8951   -0.3107    0.5047 N   0  0  0  0  0  0  0  0  0  0  0  0
    1.5791    0.2393   -0.4461 N   0  0  0  0  0  0  0  0  0  0  0  0
    3.1475    2.1006    0.9257 N   0  0  0  0  0  0  0  0  0  0  0  0
   -2.9896   -2.5951    2.5472 C   0  0  2  0  0  0  0  0  0  0  0  0
   -3.6080   -1.7881    1.3735 C   0  0  1  0  0  0  0  0  0  0  0  0
   -1.8481   -1.8263    3.2518 C   0  0  0  0  0  0  0  0  0  0  0  0
   -2.5756   -1.5011    0.2827 C   0  0  0  0  0  0  0  0  0  0  0  0
   -0.8715    0.1923   -0.3793 C   0  0  1  0  0  0  0  0  0  0  0  0
   -2.5238   -3.9768    2.0671 C   0  0  0  0  0  0  0  0  0  0  0  0
   -1.2380    1.5719   -0.9808 C   0  0  1  0  0  0  0  0  0  0  0  0
   -1.3005   -2.5439    4.4791 C   0  0  0  0  0  0  0  0  0  0  0  0
   -5.7481   -2.8097    1.7594 C   0  0  0  0  0  0  0  0  0  0  0  0
   -5.3431   -1.6021   -0.2778 C   0  0  0  0  0  0  0  0  0  0  0  0
    0.4646    0.1195    0.3819 C   0  0  0  0  0  0  0  0  0  0  0  0
   -2.2723    1.4187   -2.0882 C   0  0  0  0  0  0  0  0  0  0  0  0
    2.9300   -0.1327   -0.0237 C   0  0  1  0  0  0  0  0  0  0  0  0
   -3.6328    1.4669   -1.7837 C   0  0  0  0  0  0  0  0  0  0  0  0
   -1.8592    1.2298   -3.4071 C   0  0  0  0  0  0  0  0  0  0  0  0
   -0.8083    3.2527    0.5858 C   0  0  0  0  0  0  0  0  0  0  0  0
   -4.5799    1.3262   -2.7982 C   0  0  0  0  0  0  0  0  0  0  0  0
   -2.8063    1.0892   -4.4215 C   0  0  0  0  0  0  0  0  0  0  0  0
    3.5068   -0.8093   -1.2259 C   0  0  0  0  0  0  0  0  0  0  0  0
    3.8341    0.9802    0.5128 C   0  0  0  0  0  0  0  0  0  0  0  0
   -4.1666    1.1373   -4.1170 C   0  0  0  0  0  0  0  0  0  0  0  0
   -0.5283    3.0429    1.9346 C   0  0  0  0  0  0  0  0  0  0  0  0
   -0.0628    4.1559   -0.1738 C   0  0  0  0  0  0  0  0  0  0  0  0
    3.8388   -2.2601   -1.1511 C   0  0  0  0  0  0  0  0  0  0  0  0
    1.5200    4.2789    1.6366 C   0  0  0  0  0  0  0  0  0  0  0  0
    0.6503    3.5548    2.4652 C   0  0  0  0  0  0  0  0  0  0  0  0
    1.1161    4.6680    0.3523 C   0  0  0  0  0  0  0  0  0  0  0  0
    2.9568    4.2646    1.9359 C   0  0  0  0  0  0  0  0  0  0  0  0
    3.6914    3.1996    1.5608 C   0  0  0  0  0  0  0  0  0  0  0  0
    4.8829   -2.7773   -1.9182 C   0  0  0  0  0  0  0  0  0  0  0  0
    3.1052   -3.1012   -0.3143 C   0  0  0  0  0  0  0  0  0  0  0  0
    5.1932   -4.1355   -1.8484 C   0  0  0  0  0  0  0  0  0  0  0  0
    3.4157   -4.4593   -0.2444 C   0  0  0  0  0  0  0  0  0  0  0  0
    4.4595   -4.9764   -1.0114 C   0  0  0  0  0  0  0  0  0  0  0  0
   -3.7518   -2.7475    3.3207 H   0  0  0  0  0  0  0  0  0  0  0  0
   -3.9454   -0.8246    1.7847 H   0  0  0  0  0  0  0  0  0  0  0  0
   -1.0116   -1.6914    2.5644 H   0  0  0  0  0  0  0  0  0  0  0  0
   -2.2035   -0.8334    3.5509 H   0  0  0  0  0  0  0  0  0  0  0  0
   -0.7541   -0.5214   -1.2069 H   0  0  0  0  0  0  0  0  0  0  0  0
   -3.2950   -4.5061    1.4998 H   0  0  0  0  0  0  0  0  0  0  0  0
   -2.2740   -4.6190    2.9179 H   0  0  0  0  0  0  0  0  0  0  0  0
   -1.6308   -3.9036    1.4375 H   0  0  0  0  0  0  0  0  0  0  0  0
   -0.3440    2.0026   -1.4503 H   0  0  0  0  0  0  0  0  0  0  0  0
   -2.1027    0.2344    1.3361 H   0  0  0  0  0  0  0  0  0  0  0  0
   -2.1010   -2.7811    5.1868 H   0  0  0  0  0  0  0  0  0  0  0  0
   -0.5749   -1.9038    4.9918 H   0  0  0  0  0  0  0  0  0  0  0  0
   -0.7853   -3.4705    4.2105 H   0  0  0  0  0  0  0  0  0  0  0  0
   -5.4206   -3.6372    2.3958 H   0  0  0  0  0  0  0  0  0  0  0  0
   -6.6624   -3.1781    1.2777 H   0  0  0  0  0  0  0  0  0  0  0  0
   -6.0294   -1.9570    2.3884 H   0  0  0  0  0  0  0  0  0  0  0  0
   -4.6791   -1.4359   -1.1303 H   0  0  0  0  0  0  0  0  0  0  0  0
   -5.6526   -0.6283    0.1199 H   0  0  0  0  0  0  0  0  0  0  0  0
   -6.2326   -2.0833   -0.7025 H   0  0  0  0  0  0  0  0  0  0  0  0
    1.4381    0.5093   -1.4158 H   0  0  0  0  0  0  0  0  0  0  0  0
    2.8355   -0.8146    0.8259 H   0  0  0  0  0  0  0  0  0  0  0  0
   -3.9819    1.6011   -0.7636 H   0  0  0  0  0  0  0  0  0  0  0  0
   -0.8024    1.1874   -3.6570 H   0  0  0  0  0  0  0  0  0  0  0  0
   -5.6392    1.3596   -2.5605 H   0  0  0  0  0  0  0  0  0  0  0  0
   -2.4847    0.9410   -5.4482 H   0  0  0  0  0  0  0  0  0  0  0  0
   -4.9040    1.0264   -4.9065 H   0  0  0  0  0  0  0  0  0  0  0  0
   -1.1422    2.3745    2.5317 H   0  0  0  0  0  0  0  0  0  0  0  0
   -0.3229    4.3633   -1.2079 H   0  0  0  0  0  0  0  0  0  0  0  0
    0.9544    3.2522    3.4644 H   0  0  0  0  0  0  0  0  0  0  0  0
    1.7800    5.2366   -0.2944 H   0  0  0  0  0  0  0  0  0  0  0  0
    2.1494    2.1103    0.7445 H   0  0  0  0  0  0  0  0  0  0  0  0
    3.3919    5.1209    2.4364 H   0  0  0  0  0  0  0  0  0  0  0  0
    4.7574    3.1661    1.7556 H   0  0  0  0  0  0  0  0  0  0  0  0
    5.4674   -2.1360   -2.5725 H   0  0  0  0  0  0  0  0  0  0  0  0
    2.2610   -2.7474    0.2693 H   0  0  0  0  0  0  0  0  0  0  0  0
    6.0063   -4.5383   -2.4450 H   0  0  0  0  0  0  0  0  0  0  0  0
    2.8389   -5.1162    0.4002 H   0  0  0  0  0  0  0  0  0  0  0  0
    4.6999   -6.0341   -0.9586 H   0  0  0  0  0  0  0  0  0  0  0  0
  1 16  1  0  0  0  0
  1 25  1  0  0  0  0
  2 13  2  0  0  0  0
  3 20  2  0  0  0  0
  4 28  2  0  0  0  0
  5 29  2  0  0  0  0
  6 11  1  0  0  0  0
  6 18  1  0  0  0  0
  6 19  1  0  0  0  0
  7 13  1  0  0  0  0
  7 14  1  0  0  0  0
  7 53  1  0  0  0  0
  8 20  1  0  0  0  0
  8 22  1  0  0  0  0
  8 63  1  0  0  0  0
  9 29  1  0  0  0  0
  9 38  1  0  0  0  0
  9 74  1  0  0  0  0
 10 11  1  0  0  0  0
 10 12  1  0  0  0  0
 10 15  1  0  0  0  0
 10 44  1  0  0  0  0
 11 13  1  0  0  0  0
 11 45  1  0  0  0  0
 12 17  1  0  0  0  0
 12 46  1  0  0  0  0
 12 47  1  0  0  0  0
 14 16  1  0  0  0  0
 14 20  1  0  0  0  0
 14 48  1  0  0  0  0
 15 49  1  0  0  0  0
 15 50  1  0  0  0  0
 15 51  1  0  0  0  0
 16 21  1  0  0  0  0
 16 52  1  0  0  0  0
 17 54  1  0  0  0  0
 17 55  1  0  0  0  0
 17 56  1  0  0  0  0
 18 57  1  0  0  0  0
 18 58  1  0  0  0  0
 18 59  1  0  0  0  0
 19 60  1  0  0  0  0
 19 61  1  0  0  0  0
 19 62  1  0  0  0  0
 21 23  2  0  0  0  0
 21 24  1  0  0  0  0
 22 28  1  0  0  0  0
 22 29  1  0  0  0  0
 22 64  1  0  0  0  0
 23 26  1  0  0  0  0
 23 65  1  0  0  0  0
 24 27  2  0  0  0  0
 24 66  1  0  0  0  0
 25 31  2  0  0  0  0
 25 32  1  0  0  0  0
 26 30  2  0  0  0  0
 26 67  1  0  0  0  0
 27 30  1  0  0  0  0
 27 68  1  0  0  0  0
 28 33  1  0  0  0  0
 30 69  1  0  0  0  0
 31 35  1  0  0  0  0
 31 70  1  0  0  0  0
 32 36  2  0  0  0  0
 32 71  1  0  0  0  0
 33 39  2  0  0  0  0
 33 40  1  0  0  0  0
 34 35  2  0  0  0  0
 34 36  1  0  0  0  0
 34 37  1  0  0  0  0
 35 72  1  0  0  0  0
 36 73  1  0  0  0  0
 37 38  2  0  0  0  0
 37 75  1  0  0  0  0
 38 76  1  0  0  0  0
 39 41  1  0  0  0  0
 39 77  1  0  0  0  0
 40 42  2  0  0  0  0
 40 78  1  0  0  0  0
 41 43  2  0  0  0  0
 41 79  1  0  0  0  0
 42 43  1  0  0  0  0
 42 80  1  0  0  0  0
 43 81  1  0  0  0  0
M  END
> <PUBCHEM_COMPOUND_CID>
5281583

> <PUBCHEM_CONFORMER_RMSD>
1.2

> <PUBCHEM_CONFORMER_DIVERSEORDER>
1
24
4
25
3
20
23
21
26
12
13
8
11
18
17
19
16
14
5
22
9
15
10
2
6
7

> <PUBCHEM_MMFF94_PARTIAL_CHARGES>
58
1 -0.36
11 0.33
13 0.57
14 0.36
16 0.42
18 0.27
19 0.27
2 -0.57
20 0.57
21 -0.14
22 0.42
23 -0.15
24 -0.15
25 0.08
26 -0.15
27 -0.15
28 0.42
29 0.57
3 -0.57
30 -0.15
31 -0.15
32 -0.15
33 0.09
34 0.03
35 -0.15
36 -0.15
37 -0.18
38 -0.04
39 -0.15
4 -0.57
40 -0.15
41 -0.15
42 -0.15
43 -0.15
5 -0.57
53 0.37
6 -0.81
63 0.37
65 0.15
66 0.15
67 0.15
68 0.15
69 0.15
7 -0.73
70 0.15
71 0.15
72 0.15
73 0.15
74 0.37
75 0.15
76 0.15
77 0.15
78 0.15
79 0.15
8 -0.73
80 0.15
81 0.15
9 -0.54

> <PUBCHEM_EFFECTIVE_ROTOR_COUNT>
10.2

> <PUBCHEM_PHARMACOPHORE_FEATURES>
15
1 1 acceptor
1 15 hydrophobe
1 17 hydrophobe
1 2 acceptor
1 22 anion
1 3 acceptor
1 4 acceptor
1 5 acceptor
1 6 cation
1 7 donor
1 8 donor
1 9 donor
6 21 23 24 26 27 30 rings
6 25 31 32 34 35 36 rings
6 33 39 40 41 42 43 rings

> <PUBCHEM_HEAVY_ATOM_COUNT>
43

> <PUBCHEM_ATOM_DEF_STEREO_COUNT>
5

> <PUBCHEM_ATOM_UDEF_STEREO_COUNT>
0

> <PUBCHEM_BOND_DEF_STEREO_COUNT>
1

> <PUBCHEM_BOND_UDEF_STEREO_COUNT>
0

> <PUBCHEM_ISOTOPIC_ATOM_COUNT>
0

> <PUBCHEM_COMPONENT_COUNT>
1

> <PUBCHEM_CACTVS_TAUTO_COUNT>
20

> <PUBCHEM_CONFORMER_ID>
0050972F00000001

> <PUBCHEM_MMFF94_ENERGY>
153.6825

> <PUBCHEM_FEATURE_SELFOVERLAP>
76.12

> <PUBCHEM_SHAPE_FINGERPRINT>
10290309 65 18265623083199333504
10581848 31 17698163185672046498
11227688 84 18188479277262368460
11285246 1 17901683878989229868
12128747 34 18263916654069809913
12202916 173 17906218127989021560
12633046 712 18336539516757416853
14114206 34 17835811068012392908
15815584 197 18187936058425667340
19319366 153 16969693980197441424
25223398 141 17131014043094244885
3044373 233 18335699433744224382
4015057 19 18263095464284728830

> <PUBCHEM_SHAPE_MULTIPOLES>
835.65
10.59
7.52
4.28
2.59
1
-1.35
-11.39
-5.38
6.07
4.19
-5.04
-0.38
8.48

> <PUBCHEM_SHAPE_SELFOVERLAP>
1778.631

> <PUBCHEM_SHAPE_VOLUME>
459.9

> <PUBCHEM_COORDINATE_TYPE>
2
5
10

$$$$

