5152
  -OEChem-07051212532D

 67 68  0     1  0  0  0  0  0999 V2000
    9.4651    2.4050    0.0000 O   0  0  0  0  0  0  0  0  0  0  0  0
    4.2690   -3.5950    0.0000 O   0  0  0  0  0  0  0  0  0  0  0  0
    5.1350   -8.0950    0.0000 O   0  0  0  0  0  0  0  0  0  0  0  0
    2.5369   -6.5950    0.0000 O   0  0  0  0  0  0  0  0  0  0  0  0
    6.0010   -2.5950    0.0000 N   0  0  0  0  0  0  0  0  0  0  0  0
    7.7331   -0.5950    0.0000 C   0  0  0  0  0  0  0  0  0  0  0  0
    7.7331    0.4050    0.0000 C   0  0  0  0  0  0  0  0  0  0  0  0
    6.8671   -1.0950    0.0000 C   0  0  0  0  0  0  0  0  0  0  0  0
    8.5991    0.9050    0.0000 C   0  0  0  0  0  0  0  0  0  0  0  0
    6.8671   -2.0950    0.0000 C   0  0  0  0  0  0  0  0  0  0  0  0
    6.0010   -3.5950    0.0000 C   0  0  0  0  0  0  0  0  0  0  0  0
    8.5991    1.9050    0.0000 C   0  0  0  0  0  0  0  0  0  0  0  0
    5.1350   -4.0950    0.0000 C   0  0  3  0  0  0  0  0  0  0  0  0
   10.3312    3.9050    0.0000 C   0  0  0  0  0  0  0  0  0  0  0  0
   10.3312    4.9050    0.0000 C   0  0  0  0  0  0  0  0  0  0  0  0
    9.4651    3.4050    0.0000 C   0  0  0  0  0  0  0  0  0  0  0  0
    5.1350   -5.0950    0.0000 C   0  0  0  0  0  0  0  0  0  0  0  0
   11.1972    5.4050    0.0000 C   0  0  0  0  0  0  0  0  0  0  0  0
    4.2690   -5.5950    0.0000 C   0  0  0  0  0  0  0  0  0  0  0  0
   11.1972    6.4050    0.0000 C   0  0  0  0  0  0  0  0  0  0  0  0
    6.0010   -5.5950    0.0000 C   0  0  0  0  0  0  0  0  0  0  0  0
    4.2690   -6.5950    0.0000 C   0  0  0  0  0  0  0  0  0  0  0  0
    6.0010   -6.5950    0.0000 C   0  0  0  0  0  0  0  0  0  0  0  0
    5.1350   -7.0950    0.0000 C   0  0  0  0  0  0  0  0  0  0  0  0
   12.0632    6.9050    0.0000 C   0  0  0  0  0  0  0  0  0  0  0  0
   10.3312    6.9050    0.0000 C   0  0  0  0  0  0  0  0  0  0  0  0
    3.4030   -7.0950    0.0000 C   0  0  0  0  0  0  0  0  0  0  0  0
   12.0632    7.9050    0.0000 C   0  0  0  0  0  0  0  0  0  0  0  0
   10.3312    7.9050    0.0000 C   0  0  0  0  0  0  0  0  0  0  0  0
   11.1972    8.4050    0.0000 C   0  0  0  0  0  0  0  0  0  0  0  0
    7.9451   -1.1776    0.0000 H   0  0  0  0  0  0  0  0  0  0  0  0
    8.3437   -0.4873    0.0000 H   0  0  0  0  0  0  0  0  0  0  0  0
    7.5210    0.9876    0.0000 H   0  0  0  0  0  0  0  0  0  0  0  0
    7.1225    0.2973    0.0000 H   0  0  0  0  0  0  0  0  0  0  0  0
    6.6550   -0.5124    0.0000 H   0  0  0  0  0  0  0  0  0  0  0  0
    6.2565   -1.2027    0.0000 H   0  0  0  0  0  0  0  0  0  0  0  0
    8.8112    0.3224    0.0000 H   0  0  0  0  0  0  0  0  0  0  0  0
    9.2097    1.0127    0.0000 H   0  0  0  0  0  0  0  0  0  0  0  0
    7.0791   -2.6776    0.0000 H   0  0  0  0  0  0  0  0  0  0  0  0
    7.4776   -1.9873    0.0000 H   0  0  0  0  0  0  0  0  0  0  0  0
    6.2131   -4.1776    0.0000 H   0  0  0  0  0  0  0  0  0  0  0  0
    6.6116   -3.4873    0.0000 H   0  0  0  0  0  0  0  0  0  0  0  0
    8.3871    2.4876    0.0000 H   0  0  0  0  0  0  0  0  0  0  0  0
    7.9885    1.7973    0.0000 H   0  0  0  0  0  0  0  0  0  0  0  0
    5.4641   -2.2850    0.0000 H   0  0  0  0  0  0  0  0  0  0  0  0
    5.1350   -3.2450    0.0000 H   0  0  0  0  0  0  0  0  0  0  0  0
   10.5432    3.3224    0.0000 H   0  0  0  0  0  0  0  0  0  0  0  0
   10.9417    4.0127    0.0000 H   0  0  0  0  0  0  0  0  0  0  0  0
   10.1191    5.4876    0.0000 H   0  0  0  0  0  0  0  0  0  0  0  0
    9.7206    4.7973    0.0000 H   0  0  0  0  0  0  0  0  0  0  0  0
    9.2531    3.9876    0.0000 H   0  0  0  0  0  0  0  0  0  0  0  0
    8.8546    3.2973    0.0000 H   0  0  0  0  0  0  0  0  0  0  0  0
   11.4092    4.8224    0.0000 H   0  0  0  0  0  0  0  0  0  0  0  0
   11.8078    5.5127    0.0000 H   0  0  0  0  0  0  0  0  0  0  0  0
    3.7320   -5.2850    0.0000 H   0  0  0  0  0  0  0  0  0  0  0  0
    6.5380   -5.2850    0.0000 H   0  0  0  0  0  0  0  0  0  0  0  0
    4.2690   -2.9750    0.0000 H   0  0  0  0  0  0  0  0  0  0  0  0
    6.5380   -6.9050    0.0000 H   0  0  0  0  0  0  0  0  0  0  0  0
   12.6002    6.5950    0.0000 H   0  0  0  0  0  0  0  0  0  0  0  0
    9.7942    6.5950    0.0000 H   0  0  0  0  0  0  0  0  0  0  0  0
    3.0044   -7.5700    0.0000 H   0  0  0  0  0  0  0  0  0  0  0  0
    3.8015   -7.5700    0.0000 H   0  0  0  0  0  0  0  0  0  0  0  0
   12.6002    8.2150    0.0000 H   0  0  0  0  0  0  0  0  0  0  0  0
    9.7942    8.2150    0.0000 H   0  0  0  0  0  0  0  0  0  0  0  0
   11.1972    9.0250    0.0000 H   0  0  0  0  0  0  0  0  0  0  0  0
    5.6720   -8.4050    0.0000 H   0  0  0  0  0  0  0  0  0  0  0  0
    2.0000   -6.9050    0.0000 H   0  0  0  0  0  0  0  0  0  0  0  0
  1 12  1  0  0  0  0
  1 16  1  0  0  0  0
  2 13  1  0  0  0  0
  2 57  1  0  0  0  0
  3 24  1  0  0  0  0
  3 66  1  0  0  0  0
  4 27  1  0  0  0  0
  4 67  1  0  0  0  0
  5 10  1  0  0  0  0
  5 11  1  0  0  0  0
  5 45  1  0  0  0  0
  6  7  1  0  0  0  0
  6  8  1  0  0  0  0
  6 31  1  0  0  0  0
  6 32  1  0  0  0  0
  7  9  1  0  0  0  0
  7 33  1  0  0  0  0
  7 34  1  0  0  0  0
  8 10  1  0  0  0  0
  8 35  1  0  0  0  0
  8 36  1  0  0  0  0
  9 12  1  0  0  0  0
  9 37  1  0  0  0  0
  9 38  1  0  0  0  0
 10 39  1  0  0  0  0
 10 40  1  0  0  0  0
 11 13  1  0  0  0  0
 11 41  1  0  0  0  0
 11 42  1  0  0  0  0
 12 43  1  0  0  0  0
 12 44  1  0  0  0  0
 13 17  1  0  0  0  0
 13 46  1  0  0  0  0
 14 15  1  0  0  0  0
 14 16  1  0  0  0  0
 14 47  1  0  0  0  0
 14 48  1  0  0  0  0
 15 18  1  0  0  0  0
 15 49  1  0  0  0  0
 15 50  1  0  0  0  0
 16 51  1  0  0  0  0
 16 52  1  0  0  0  0
 17 19  2  0  0  0  0
 17 21  1  0  0  0  0
 18 20  1  0  0  0  0
 18 53  1  0  0  0  0
 18 54  1  0  0  0  0
 19 22  1  0  0  0  0
 19 55  1  0  0  0  0
 20 25  2  0  0  0  0
 20 26  1  0  0  0  0
 21 23  2  0  0  0  0
 21 56  1  0  0  0  0
 22 24  2  0  0  0  0
 22 27  1  0  0  0  0
 23 24  1  0  0  0  0
 23 58  1  0  0  0  0
 25 28  1  0  0  0  0
 25 59  1  0  0  0  0
 26 29  2  0  0  0  0
 26 60  1  0  0  0  0
 27 61  1  0  0  0  0
 27 62  1  0  0  0  0
 28 30  2  0  0  0  0
 28 63  1  0  0  0  0
 29 30  1  0  0  0  0
 29 64  1  0  0  0  0
 30 65  1  0  0  0  0
M  END
> <PUBCHEM_COMPOUND_CID>
5152

> <PUBCHEM_COMPOUND_CANONICALIZED>
1

> <PUBCHEM_CACTVS_COMPLEXITY>
403

> <PUBCHEM_CACTVS_HBOND_ACCEPTOR>
5

> <PUBCHEM_CACTVS_HBOND_DONOR>
4

> <PUBCHEM_CACTVS_ROTATABLE_BOND>
16

> <PUBCHEM_CACTVS_SUBSKEYS>
AAADcfB6OAAAAAAAAAAAAAAAAAAAAAAAAAAwYAAAAAAAAAABQAAAHgAQCAAADBThmAYwBoLABgCAAiBCAAACAAAgIAAIiIAOCIgKNyKCkROGcAAl0BGYmAeQ4PQOIAACAAAIAABAAAQAABAAAAAAAAAAAA==

> <PUBCHEM_IUPAC_OPENEYE_NAME>
2-(hydroxymethyl)-4-[1-hydroxy-2-[6-(4-phenylbutoxy)hexylamino]ethyl]phenol

> <PUBCHEM_IUPAC_CAS_NAME>
2-(hydroxymethyl)-4-[1-hydroxy-2-[6-(4-phenylbutoxy)hexylamino]ethyl]phenol

> <PUBCHEM_IUPAC_NAME>
2-(hydroxymethyl)-4-[1-hydroxy-2-[6-(4-phenylbutoxy)hexylamino]ethyl]phenol

> <PUBCHEM_IUPAC_SYSTEMATIC_NAME>
2-(hydroxymethyl)-4-[1-oxidanyl-2-[6-(4-phenylbutoxy)hexylamino]ethyl]phenol

> <PUBCHEM_IUPAC_TRADITIONAL_NAME>
4-[1-hydroxy-2-[6-(4-phenylbutoxy)hexylamino]ethyl]-2-methylol-phenol

> <PUBCHEM_IUPAC_INCHI>
InChI=1S/C25H37NO4/c27-20-23-18-22(13-14-24(23)28)25(29)19-26-15-7-1-2-8-16-30-17-9-6-12-21-10-4-3-5-11-21/h3-5,10-11,13-14,18,25-29H,1-2,6-9,12,15-17,19-20H2

> <PUBCHEM_IUPAC_INCHIKEY>
GIIZNNXWQWCKIB-UHFFFAOYSA-N

> <PUBCHEM_XLOGP3_AA>
3.9

> <PUBCHEM_EXACT_MASS>
415.272259

> <PUBCHEM_MOLECULAR_FORMULA>
C25H37NO4

> <PUBCHEM_MOLECULAR_WEIGHT>
415.56558

> <PUBCHEM_OPENEYE_CAN_SMILES>
C1=CC=C(C=C1)CCCCOCCCCCCNCC(C2=CC(=C(C=C2)O)CO)O

> <PUBCHEM_OPENEYE_ISO_SMILES>
C1=CC=C(C=C1)CCCCOCCCCCCNCC(C2=CC(=C(C=C2)O)CO)O

> <PUBCHEM_CACTVS_TPSA>
82

> <PUBCHEM_MONOISOTOPIC_WEIGHT>
415.272259

> <PUBCHEM_TOTAL_CHARGE>
0

> <PUBCHEM_HEAVY_ATOM_COUNT>
30

> <PUBCHEM_ATOM_DEF_STEREO_COUNT>
0

> <PUBCHEM_ATOM_UDEF_STEREO_COUNT>
1

> <PUBCHEM_BOND_DEF_STEREO_COUNT>
0

> <PUBCHEM_BOND_UDEF_STEREO_COUNT>
0

> <PUBCHEM_ISOTOPIC_ATOM_COUNT>
0

> <PUBCHEM_COMPONENT_COUNT>
1

> <PUBCHEM_CACTVS_TAUTO_COUNT>
3

> <PUBCHEM_COORDINATE_TYPE>
1
5
255

> <PUBCHEM_BONDANNOTATIONS>
13  46  3
17  19  8
17  21  8
19  22  8
20  25  8
20  26  8
21  23  8
22  24  8
23  24  8
25  28  8
26  29  8
28  30  8
29  30  8

$$$$

