11744954
  -OEChem-07051213073D

 24 24  0     1  0  0  0  0  0999 V2000
   -0.6946    1.3717    0.1085 O   0  0  0  0  0  0  0  0  0  0  0  0
    0.9043   -2.4475    0.0116 O   0  0  0  0  0  0  0  0  0  0  0  0
   -1.2701   -1.2002    1.2061 O   0  0  0  0  0  0  0  0  0  0  0  0
    1.3947    2.3149    0.5209 O   0  0  0  0  0  0  0  0  0  0  0  0
    2.6754   -0.1467   -0.2829 N   0  0  0  0  0  0  0  0  0  0  0  0
    0.4627   -1.1865   -0.4839 C   0  0  1  0  0  0  0  0  0  0  0  0
   -1.0304   -1.0127   -0.1901 C   0  0  2  0  0  0  0  0  0  0  0  0
    1.2808   -0.0600    0.1603 C   0  0  2  0  0  0  0  0  0  0  0  0
   -1.4785    0.3968   -0.5893 C   0  0  1  0  0  0  0  0  0  0  0  0
    0.6965    1.3109   -0.2139 C   0  0  1  0  0  0  0  0  0  0  0  0
   -2.9407    0.6592   -0.2473 C   0  0  0  0  0  0  0  0  0  0  0  0
    0.6059   -1.1868   -1.5727 H   0  0  0  0  0  0  0  0  0  0  0  0
   -1.6098   -1.7787   -0.7165 H   0  0  0  0  0  0  0  0  0  0  0  0
    1.2831   -0.1774    1.2515 H   0  0  0  0  0  0  0  0  0  0  0  0
   -1.3426    0.5437   -1.6684 H   0  0  0  0  0  0  0  0  0  0  0  0
    0.8267    1.5186   -1.2841 H   0  0  0  0  0  0  0  0  0  0  0  0
   -3.1132    0.6324    0.8339 H   0  0  0  0  0  0  0  0  0  0  0  0
   -3.2312    1.6616   -0.5807 H   0  0  0  0  0  0  0  0  0  0  0  0
   -3.5981   -0.0705   -0.7295 H   0  0  0  0  0  0  0  0  0  0  0  0
    3.0961   -1.0067    0.0658 H   0  0  0  0  0  0  0  0  0  0  0  0
    3.2105    0.6180    0.1273 H   0  0  0  0  0  0  0  0  0  0  0  0
    1.8194   -2.5773   -0.2886 H   0  0  0  0  0  0  0  0  0  0  0  0
   -0.9035   -0.4378    1.6847 H   0  0  0  0  0  0  0  0  0  0  0  0
    1.3156    3.1431    0.0177 H   0  0  0  0  0  0  0  0  0  0  0  0
  1  9  1  0  0  0  0
  1 10  1  0  0  0  0
  2  6  1  0  0  0  0
  2 22  1  0  0  0  0
  3  7  1  0  0  0  0
  3 23  1  0  0  0  0
  4 10  1  0  0  0  0
  4 24  1  0  0  0  0
  5  8  1  0  0  0  0
  5 20  1  0  0  0  0
  5 21  1  0  0  0  0
  6  7  1  0  0  0  0
  6  8  1  0  0  0  0
  6 12  1  0  0  0  0
  7  9  1  0  0  0  0
  7 13  1  0  0  0  0
  8 10  1  0  0  0  0
  8 14  1  0  0  0  0
  9 11  1  0  0  0  0
  9 15  1  0  0  0  0
 10 16  1  0  0  0  0
 11 17  1  0  0  0  0
 11 18  1  0  0  0  0
 11 19  1  0  0  0  0
M  END
> <PUBCHEM_COMPOUND_CID>
11744954

> <PUBCHEM_CONFORMER_RMSD>
0.4

> <PUBCHEM_CONFORMER_DIVERSEORDER>
1
3
2
4
5

> <PUBCHEM_MMFF94_PARTIAL_CHARGES>
15
1 -0.56
10 0.56
2 -0.68
20 0.36
21 0.36
22 0.4
23 0.4
24 0.4
3 -0.68
4 -0.68
5 -0.99
6 0.28
7 0.28
8 0.27
9 0.28

> <PUBCHEM_EFFECTIVE_ROTOR_COUNT>
1.2

> <PUBCHEM_PHARMACOPHORE_FEATURES>
10
1 1 acceptor
1 2 acceptor
1 2 donor
1 3 acceptor
1 3 donor
1 4 acceptor
1 4 donor
1 5 cation
1 5 donor
6 1 6 7 8 9 10 rings

> <PUBCHEM_HEAVY_ATOM_COUNT>
11

> <PUBCHEM_ATOM_DEF_STEREO_COUNT>
4

> <PUBCHEM_ATOM_UDEF_STEREO_COUNT>
1

> <PUBCHEM_BOND_DEF_STEREO_COUNT>
0

> <PUBCHEM_BOND_UDEF_STEREO_COUNT>
0

> <PUBCHEM_ISOTOPIC_ATOM_COUNT>
0

> <PUBCHEM_COMPONENT_COUNT>
1

> <PUBCHEM_CACTVS_TAUTO_COUNT>
1

> <PUBCHEM_CONFORMER_ID>
00B336BA00000001

> <PUBCHEM_MMFF94_ENERGY>
19.5955

> <PUBCHEM_FEATURE_SELFOVERLAP>
50.804

> <PUBCHEM_SHAPE_FINGERPRINT>
16945 1 18337122249261689845
18185500 45 18191594257273610573
193761 8 17905613202881885524
20511035 2 18269273465291168404
20588541 1 18342171219372495071
21040471 1 18122347865360114468
23235685 24 18341336672856724317
241688 4 17688875658190873017
2748010 2 18267585693488853213
29004967 10 18338795735976385123
5084963 1 17896599483719381854
66348 1 18410857654962114028

> <PUBCHEM_SHAPE_MULTIPOLES>
197.92
2.97
2.16
0.78
0.86
0.02
0.09
-0.5
-0.22
-0.81
0.28
0.15
0.11
0.29

> <PUBCHEM_SHAPE_SELFOVERLAP>
392.166

> <PUBCHEM_SHAPE_VOLUME>
115.9

> <PUBCHEM_COORDINATE_TYPE>
2
5
10

$$$$

