10284
  -OEChem-07051212513D

 18 19  0     0  0  0  0  0  0999 V2000
    1.6460    2.1374    0.0004 O   0  0  0  0  0  0  0  0  0  0  0  0
    2.3333   -0.0621   -0.0003 N   0  0  0  0  0  0  0  0  0  0  0  0
   -0.0417    0.4819    0.0001 C   0  0  0  0  0  0  0  0  0  0  0  0
   -0.3171   -0.8959    0.0002 C   0  0  0  0  0  0  0  0  0  0  0  0
    1.3740    0.9411   -0.0001 C   0  0  0  0  0  0  0  0  0  0  0  0
    0.7857   -1.8575    0.0001 C   0  0  0  0  0  0  0  0  0  0  0  0
   -1.0835    1.4139   -0.0001 C   0  0  0  0  0  0  0  0  0  0  0  0
   -1.6469   -1.3289    0.0002 C   0  0  0  0  0  0  0  0  0  0  0  0
    2.0425   -1.4019   -0.0002 C   0  0  0  0  0  0  0  0  0  0  0  0
   -2.4056    0.9692   -0.0003 C   0  0  0  0  0  0  0  0  0  0  0  0
   -2.6867   -0.3972    0.0000 C   0  0  0  0  0  0  0  0  0  0  0  0
    0.5706   -2.9196    0.0002 H   0  0  0  0  0  0  0  0  0  0  0  0
   -0.8868    2.4822   -0.0003 H   0  0  0  0  0  0  0  0  0  0  0  0
   -1.8877   -2.3893    0.0003 H   0  0  0  0  0  0  0  0  0  0  0  0
    3.3139    0.2032   -0.0005 H   0  0  0  0  0  0  0  0  0  0  0  0
    2.8968   -2.0676   -0.0003 H   0  0  0  0  0  0  0  0  0  0  0  0
   -3.2192    1.6890   -0.0005 H   0  0  0  0  0  0  0  0  0  0  0  0
   -3.7182   -0.7376   -0.0001 H   0  0  0  0  0  0  0  0  0  0  0  0
  1  5  2  0  0  0  0
  2  5  1  0  0  0  0
  2  9  1  0  0  0  0
  2 15  1  0  0  0  0
  3  4  1  0  0  0  0
  3  5  1  0  0  0  0
  3  7  2  0  0  0  0
  4  6  1  0  0  0  0
  4  8  2  0  0  0  0
  6  9  2  0  0  0  0
  6 12  1  0  0  0  0
  7 10  1  0  0  0  0
  7 13  1  0  0  0  0
  8 11  1  0  0  0  0
  8 14  1  0  0  0  0
  9 16  1  0  0  0  0
 10 11  2  0  0  0  0
 10 17  1  0  0  0  0
 11 18  1  0  0  0  0
M  END
> <PUBCHEM_COMPOUND_CID>
10284

> <PUBCHEM_CONFORMER_RMSD>
0.4

> <PUBCHEM_CONFORMER_DIVERSEORDER>
1

> <PUBCHEM_MMFF94_PARTIAL_CHARGES>
18
1 -0.57
10 -0.15
11 -0.15
12 0.15
13 0.15
14 0.15
15 0.37
16 0.15
17 0.15
18 0.15
2 -0.54
3 0.09
4 0.03
5 0.54
6 -0.18
7 -0.15
8 -0.15
9 -0.04

> <PUBCHEM_EFFECTIVE_ROTOR_COUNT>
0

> <PUBCHEM_PHARMACOPHORE_FEATURES>
4
1 1 acceptor
1 2 donor
6 2 3 4 5 6 9 rings
6 3 4 7 8 10 11 rings

> <PUBCHEM_HEAVY_ATOM_COUNT>
11

> <PUBCHEM_ATOM_DEF_STEREO_COUNT>
0

> <PUBCHEM_ATOM_UDEF_STEREO_COUNT>
0

> <PUBCHEM_BOND_DEF_STEREO_COUNT>
0

> <PUBCHEM_BOND_UDEF_STEREO_COUNT>
0

> <PUBCHEM_ISOTOPIC_ATOM_COUNT>
0

> <PUBCHEM_COMPONENT_COUNT>
1

> <PUBCHEM_CACTVS_TAUTO_COUNT>
2

> <PUBCHEM_CONFORMER_ID>
0000282C00000001

> <PUBCHEM_MMFF94_ENERGY>
28.8845

> <PUBCHEM_FEATURE_SELFOVERLAP>
20.323

> <PUBCHEM_SHAPE_FINGERPRINT>
12423570 1 6741236563153882548
12524768 44 18413388726587150943
12897270 3 18411419471154783181
16945 1 18410855490340768839
17990270 104 18410011082453531402
18185500 45 18194965372772564626
193761 8 18338797793149928679
19973954 147 18410571794913309027
21040471 1 18122344566988520932
21501502 16 18410854360896121863
23552423 10 18341894069491187415
23559900 14 17902509617467054334
241688 4 17834112322431103250
2748010 2 18195244421150658463
5084963 1 18187365428226571883
528886 8 18410298033534422771
66348 1 18411135801286266871
7364860 26 18333168354077391696

> <PUBCHEM_SHAPE_MULTIPOLES>
215.52
3.44
2.07
0.6
0.66
0.27
0
-0.07
0
-0.59
0
0.03
-0.02
0

> <PUBCHEM_SHAPE_SELFOVERLAP>
472.733

> <PUBCHEM_SHAPE_VOLUME>
115.7

> <PUBCHEM_COORDINATE_TYPE>
2
5
10

$$$$

