12494
  -OEChem-06261207003D

 20 20  0     0  0  0  0  0  0999 V2000
    3.8037    1.3519    0.0004 O   0  0  0  0  0  0  0  0  0  0  0  0
    3.9697   -1.0078    0.0069 O   0  0  0  0  0  0  0  0  0  0  0  0
   -3.0289   -1.3976   -0.0003 O   0  0  0  0  0  0  0  0  0  0  0  0
    3.1626    0.1209   -0.0012 N   0  0  0  0  0  0  0  0  0  0  0  0
   -3.1905    0.9207    0.0018 N   0  0  0  0  0  0  0  0  0  0  0  0
   -4.4247    0.7553    0.0032 N   0  0  0  0  0  0  0  0  0  0  0  0
    1.7557    0.0214   -0.0022 C   0  0  0  0  0  0  0  0  0  0  0  0
   -1.0270   -0.1761   -0.0015 C   0  0  0  0  0  0  0  0  0  0  0  0
    0.9745    1.1769   -0.0018 C   0  0  0  0  0  0  0  0  0  0  0  0
    1.1456   -1.2329   -0.0023 C   0  0  0  0  0  0  0  0  0  0  0  0
   -0.4169    1.0782   -0.0013 C   0  0  0  0  0  0  0  0  0  0  0  0
   -0.2458   -1.3317   -0.0019 C   0  0  0  0  0  0  0  0  0  0  0  0
   -2.4778   -0.2791    0.0002 C   0  0  0  0  0  0  0  0  0  0  0  0
    1.4244    2.1661   -0.0017 H   0  0  0  0  0  0  0  0  0  0  0  0
    1.7304   -2.1488   -0.0025 H   0  0  0  0  0  0  0  0  0  0  0  0
   -0.9899    2.0012   -0.0007 H   0  0  0  0  0  0  0  0  0  0  0  0
   -0.6965   -2.3207   -0.0017 H   0  0  0  0  0  0  0  0  0  0  0  0
    4.2376    1.3473   -0.8694 H   0  0  0  0  0  0  0  0  0  0  0  0
    4.4021   -0.9451   -0.8615 H   0  0  0  0  0  0  0  0  0  0  0  0
   -4.9235    1.6520    0.0044 H   0  0  0  0  0  0  0  0  0  0  0  0
  1  4  1  0  0  0  0
  1 18  1  0  0  0  0
  2  4  1  0  0  0  0
  2 19  1  0  0  0  0
  3 13  2  0  0  0  0
  4  7  1  0  0  0  0
  5  6  2  0  0  0  0
  5 13  1  0  0  0  0
  6 20  1  0  0  0  0
  7  9  2  0  0  0  0
  7 10  1  0  0  0  0
  8 11  2  0  0  0  0
  8 12  1  0  0  0  0
  8 13  1  0  0  0  0
  9 11  1  0  0  0  0
  9 14  1  0  0  0  0
 10 12  2  0  0  0  0
 10 15  1  0  0  0  0
 11 16  1  0  0  0  0
 12 17  1  0  0  0  0
M  END
> <PUBCHEM_COMPOUND_CID>
12494

> <PUBCHEM_CONFORMER_RMSD>
0.6

> <PUBCHEM_CONFORMER_DIVERSEORDER>
1
7
2
8
3
5
4
6

> <PUBCHEM_MMFF94_PARTIAL_CHARGES>
20
1 -0.38
10 -0.15
11 -0.15
12 -0.15
13 0.69
14 0.15
15 0.15
16 0.15
17 0.15
18 0.4
19 0.4
2 -0.38
20 0.4
3 -0.57
4 -0.14
5 -0.21
6 -0.4
7 0.1
8 0.09
9 -0.15

> <PUBCHEM_EFFECTIVE_ROTOR_COUNT>
3

> <PUBCHEM_PHARMACOPHORE_FEATURES>
7
1 1 acceptor
1 1 anion
1 2 acceptor
1 2 anion
1 3 acceptor
1 5 donor
6 7 8 9 10 11 12 rings

> <PUBCHEM_HEAVY_ATOM_COUNT>
13

> <PUBCHEM_ATOM_DEF_STEREO_COUNT>
0

> <PUBCHEM_ATOM_UDEF_STEREO_COUNT>
0

> <PUBCHEM_BOND_DEF_STEREO_COUNT>
0

> <PUBCHEM_BOND_UDEF_STEREO_COUNT>
0

> <PUBCHEM_ISOTOPIC_ATOM_COUNT>
0

> <PUBCHEM_COMPONENT_COUNT>
1

> <PUBCHEM_CACTVS_TAUTO_COUNT>
1

> <PUBCHEM_CONFORMER_ID>
000030CE00000001

> <PUBCHEM_MMFF94_ENERGY>
32.3927

> <PUBCHEM_FEATURE_SELFOVERLAP>
35.595

> <PUBCHEM_SHAPE_FINGERPRINT>
10219947 1 18412260644689261372
10608611 8 18410295782950713872
11062470 55 18409448093977097841
11132069 177 18410017636715809720
11401426 45 18335146396738404202
11471102 20 18410298024933997124
11543360 7 15647342883384192384
12032990 46 18410287008569872470
12932764 1 17060351716073303631
13380535 76 18410292536414445455
14325111 11 18410855434490246308
15775835 57 18411417310802076933
16945 1 18410288146609287053
18186145 218 17989211447180065222
193761 8 17617941773636989998
20201158 50 18410292544798404847
20645476 183 17916003682596963238
20645477 70 18261110819852937006
23402539 116 18187655699639131270
23402655 69 18263094352589845221
23463225 33 18413109489420367722
23559900 14 18334294258832985624
2748010 2 18194120711613742244
3312278 4 18408319982420450427
5104073 3 18411419492413401146
528886 8 18409735066627927123
53655031 270 18337391650900643704
53812653 166 18408045104149658985
7364860 26 18192432085366772886

> <PUBCHEM_SHAPE_MULTIPOLES>
234.98
6.8
1.49
0.57
0.51
0.1
0
-0.98
0.01
-0.16
0
0.01
0
0

> <PUBCHEM_SHAPE_SELFOVERLAP>
490.883

> <PUBCHEM_SHAPE_VOLUME>
131.8

> <PUBCHEM_COORDINATE_TYPE>
2
5
10

$$$$

