11102033
  -OEChem-07051213152D

 68 67  0     0  0  0  0  0  0999 V2000
   23.6506   -0.2500    0.0000 O   0  0  0  0  0  0  0  0  0  0  0  0
    2.0000    0.2500    0.0000 O   0  0  0  0  0  0  0  0  0  0  0  0
   14.9904   -0.2500    0.0000 C   0  0  0  0  0  0  0  0  0  0  0  0
   10.6603    0.2500    0.0000 C   0  0  0  0  0  0  0  0  0  0  0  0
   18.4545   -0.2500    0.0000 C   0  0  0  0  0  0  0  0  0  0  0  0
    7.1962    0.2500    0.0000 C   0  0  0  0  0  0  0  0  0  0  0  0
   15.8564    0.2500    0.0000 C   0  0  0  0  0  0  0  0  0  0  0  0
    9.7942   -0.2500    0.0000 C   0  0  0  0  0  0  0  0  0  0  0  0
   14.1244    0.2500    0.0000 C   0  0  0  0  0  0  0  0  0  0  0  0
   11.5263   -0.2500    0.0000 C   0  0  0  0  0  0  0  0  0  0  0  0
   17.5885    0.2500    0.0000 C   0  0  0  0  0  0  0  0  0  0  0  0
    8.0622   -0.2500    0.0000 C   0  0  0  0  0  0  0  0  0  0  0  0
   16.7224   -0.2500    0.0000 C   0  0  0  0  0  0  0  0  0  0  0  0
    8.9282    0.2500    0.0000 C   0  0  0  0  0  0  0  0  0  0  0  0
   13.2583   -0.2500    0.0000 C   0  0  0  0  0  0  0  0  0  0  0  0
   12.3923    0.2500    0.0000 C   0  0  0  0  0  0  0  0  0  0  0  0
   14.9904   -1.2500    0.0000 C   0  0  0  0  0  0  0  0  0  0  0  0
   10.6603    1.2500    0.0000 C   0  0  0  0  0  0  0  0  0  0  0  0
   19.3205    0.2500    0.0000 C   0  0  0  0  0  0  0  0  0  0  0  0
    6.3301   -0.2500    0.0000 C   0  0  0  0  0  0  0  0  0  0  0  0
   18.4545   -1.2500    0.0000 C   0  0  0  0  0  0  0  0  0  0  0  0
    7.1962    1.2500    0.0000 C   0  0  0  0  0  0  0  0  0  0  0  0
   20.1865   -0.2500    0.0000 C   0  0  0  0  0  0  0  0  0  0  0  0
    5.4641    0.2500    0.0000 C   0  0  0  0  0  0  0  0  0  0  0  0
   21.0526    0.2500    0.0000 C   0  0  0  0  0  0  0  0  0  0  0  0
    4.5981   -0.2500    0.0000 C   0  0  0  0  0  0  0  0  0  0  0  0
   21.9186   -0.2500    0.0000 C   0  0  0  0  0  0  0  0  0  0  0  0
    3.7320    0.2500    0.0000 C   0  0  0  0  0  0  0  0  0  0  0  0
   21.9186   -1.2500    0.0000 C   0  0  0  0  0  0  0  0  0  0  0  0
    3.7320    1.2500    0.0000 C   0  0  0  0  0  0  0  0  0  0  0  0
   22.7846    0.2500    0.0000 C   0  0  0  0  0  0  0  0  0  0  0  0
    2.8660   -0.2500    0.0000 C   0  0  0  0  0  0  0  0  0  0  0  0
   15.8564    0.8700    0.0000 H   0  0  0  0  0  0  0  0  0  0  0  0
    9.7942   -0.8700    0.0000 H   0  0  0  0  0  0  0  0  0  0  0  0
   11.5263   -0.8700    0.0000 H   0  0  0  0  0  0  0  0  0  0  0  0
   14.1244    0.8700    0.0000 H   0  0  0  0  0  0  0  0  0  0  0  0
    8.0622   -0.8700    0.0000 H   0  0  0  0  0  0  0  0  0  0  0  0
   17.5885    0.8700    0.0000 H   0  0  0  0  0  0  0  0  0  0  0  0
   16.7224   -0.8700    0.0000 H   0  0  0  0  0  0  0  0  0  0  0  0
    8.9282    0.8700    0.0000 H   0  0  0  0  0  0  0  0  0  0  0  0
   12.3923    0.8700    0.0000 H   0  0  0  0  0  0  0  0  0  0  0  0
   13.2583   -0.8700    0.0000 H   0  0  0  0  0  0  0  0  0  0  0  0
   11.2803    1.2500    0.0000 H   0  0  0  0  0  0  0  0  0  0  0  0
   10.6603    1.8700    0.0000 H   0  0  0  0  0  0  0  0  0  0  0  0
   10.0403    1.2500    0.0000 H   0  0  0  0  0  0  0  0  0  0  0  0
   14.3704   -1.2500    0.0000 H   0  0  0  0  0  0  0  0  0  0  0  0
   14.9904   -1.8700    0.0000 H   0  0  0  0  0  0  0  0  0  0  0  0
   15.6104   -1.2500    0.0000 H   0  0  0  0  0  0  0  0  0  0  0  0
    6.3301   -0.8700    0.0000 H   0  0  0  0  0  0  0  0  0  0  0  0
   19.3205    0.8700    0.0000 H   0  0  0  0  0  0  0  0  0  0  0  0
   17.8345   -1.2500    0.0000 H   0  0  0  0  0  0  0  0  0  0  0  0
   18.4545   -1.8700    0.0000 H   0  0  0  0  0  0  0  0  0  0  0  0
   19.0745   -1.2500    0.0000 H   0  0  0  0  0  0  0  0  0  0  0  0
    7.8162    1.2500    0.0000 H   0  0  0  0  0  0  0  0  0  0  0  0
    7.1962    1.8700    0.0000 H   0  0  0  0  0  0  0  0  0  0  0  0
    6.5762    1.2500    0.0000 H   0  0  0  0  0  0  0  0  0  0  0  0
   20.1865   -0.8700    0.0000 H   0  0  0  0  0  0  0  0  0  0  0  0
    5.4641    0.8700    0.0000 H   0  0  0  0  0  0  0  0  0  0  0  0
    4.5981   -0.8700    0.0000 H   0  0  0  0  0  0  0  0  0  0  0  0
   21.0526    0.8700    0.0000 H   0  0  0  0  0  0  0  0  0  0  0  0
    4.3520    1.2500    0.0000 H   0  0  0  0  0  0  0  0  0  0  0  0
    3.7320    1.8700    0.0000 H   0  0  0  0  0  0  0  0  0  0  0  0
    3.1120    1.2500    0.0000 H   0  0  0  0  0  0  0  0  0  0  0  0
   21.2986   -1.2500    0.0000 H   0  0  0  0  0  0  0  0  0  0  0  0
   21.9186   -1.8700    0.0000 H   0  0  0  0  0  0  0  0  0  0  0  0
   22.5386   -1.2500    0.0000 H   0  0  0  0  0  0  0  0  0  0  0  0
    2.8660   -0.8700    0.0000 H   0  0  0  0  0  0  0  0  0  0  0  0
   22.7846    0.8700    0.0000 H   0  0  0  0  0  0  0  0  0  0  0  0
  1 31  2  0  0  0  0
  2 32  2  0  0  0  0
  3  7  1  0  0  0  0
  3  9  2  0  0  0  0
  3 17  1  0  0  0  0
  4  8  1  0  0  0  0
  4 10  2  0  0  0  0
  4 18  1  0  0  0  0
  5 11  2  0  0  0  0
  5 19  1  0  0  0  0
  5 21  1  0  0  0  0
  6 12  2  0  0  0  0
  6 20  1  0  0  0  0
  6 22  1  0  0  0  0
  7 13  2  0  0  0  0
  7 33  1  0  0  0  0
  8 14  2  0  0  0  0
  8 34  1  0  0  0  0
  9 15  1  0  0  0  0
  9 36  1  0  0  0  0
 10 16  1  0  0  0  0
 10 35  1  0  0  0  0
 11 13  1  0  0  0  0
 11 38  1  0  0  0  0
 12 14  1  0  0  0  0
 12 37  1  0  0  0  0
 13 39  1  0  0  0  0
 14 40  1  0  0  0  0
 15 16  2  0  0  0  0
 15 42  1  0  0  0  0
 16 41  1  0  0  0  0
 17 46  1  0  0  0  0
 17 47  1  0  0  0  0
 17 48  1  0  0  0  0
 18 43  1  0  0  0  0
 18 44  1  0  0  0  0
 18 45  1  0  0  0  0
 19 23  2  0  0  0  0
 19 50  1  0  0  0  0
 20 24  2  0  0  0  0
 20 49  1  0  0  0  0
 21 51  1  0  0  0  0
 21 52  1  0  0  0  0
 21 53  1  0  0  0  0
 22 54  1  0  0  0  0
 22 55  1  0  0  0  0
 22 56  1  0  0  0  0
 23 25  1  0  0  0  0
 23 57  1  0  0  0  0
 24 26  1  0  0  0  0
 24 58  1  0  0  0  0
 25 27  2  0  0  0  0
 25 60  1  0  0  0  0
 26 28  2  0  0  0  0
 26 59  1  0  0  0  0
 27 29  1  0  0  0  0
 27 31  1  0  0  0  0
 28 30  1  0  0  0  0
 28 32  1  0  0  0  0
 29 64  1  0  0  0  0
 29 65  1  0  0  0  0
 29 66  1  0  0  0  0
 30 61  1  0  0  0  0
 30 62  1  0  0  0  0
 30 63  1  0  0  0  0
 31 68  1  0  0  0  0
 32 67  1  0  0  0  0
M  END
> <PUBCHEM_COMPOUND_CID>
11102033

> <PUBCHEM_COMPOUND_CANONICALIZED>
1

> <PUBCHEM_CACTVS_COMPLEXITY>
869

> <PUBCHEM_CACTVS_HBOND_ACCEPTOR>
2

> <PUBCHEM_CACTVS_HBOND_DONOR>
0

> <PUBCHEM_CACTVS_ROTATABLE_BOND>
12

> <PUBCHEM_CACTVS_SUBSKEYS>
AAADcfB4MAAAAAAAAAAAAAAAAAAAAAAAAAAAAAAAAAAAAAAAAAAAGgAAAAAADACggAICAAAAAACIAihSgAAAAAAgAAAICAEAAEgIAAAAAQAAAAAAAAAIgYIAAAAAAAAAAAAAAAAAAAAAAAAAAAAAAAAAAA==

> <PUBCHEM_IUPAC_OPENEYE_NAME>
(2E,4E,6E,8E,10E,12E,14E,16E,18E,20E,22E)-2,6,10,15,19,23-hexamethyltetracosa-2,4,6,8,10,12,14,16,18,20,22-undecaenedial

> <PUBCHEM_IUPAC_CAS_NAME>
(2E,4E,6E,8E,10E,12E,14E,16E,18E,20E,22E)-2,6,10,15,19,23-hexamethyltetracosa-2,4,6,8,10,12,14,16,18,20,22-undecaenedial

> <PUBCHEM_IUPAC_NAME>
(2E,4E,6E,8E,10E,12E,14E,16E,18E,20E,22E)-2,6,10,15,19,23-hexamethyltetracosa-2,4,6,8,10,12,14,16,18,20,22-undecaenedial

> <PUBCHEM_IUPAC_SYSTEMATIC_NAME>
(2E,4E,6E,8E,10E,12E,14E,16E,18E,20E,22E)-2,6,10,15,19,23-hexamethyltetracosa-2,4,6,8,10,12,14,16,18,20,22-undecaenedial

> <PUBCHEM_IUPAC_TRADITIONAL_NAME>
(2E,4E,6E,8E,10E,12E,14E,16E,18E,20E,22E)-2,6,10,15,19,23-hexamethyltetracosa-2,4,6,8,10,12,14,16,18,20,22-undecaenedial

> <PUBCHEM_IUPAC_INCHI>
InChI=1S/C30H36O2/c1-25(15-9-17-27(3)19-11-21-29(5)23-31)13-7-8-14-26(2)16-10-18-28(4)20-12-22-30(6)24-32/h7-24H,1-6H3/b8-7+,15-9+,16-10+,19-11+,20-12+,25-13+,26-14+,27-17+,28-18+,29-21+,30-22+

> <PUBCHEM_IUPAC_INCHIKEY>
OBHXTIIHLYSQRY-RAGRHNDSSA-N

> <PUBCHEM_XLOGP3_AA>
9.1

> <PUBCHEM_EXACT_MASS>
428.27153

> <PUBCHEM_MOLECULAR_FORMULA>
C30H36O2

> <PUBCHEM_MOLECULAR_WEIGHT>
428.60564

> <PUBCHEM_OPENEYE_CAN_SMILES>
CC(=CC=CC=C(C)C=CC=C(C)C=CC=C(C)C=O)C=CC=C(C)C=CC=C(C)C=O

> <PUBCHEM_OPENEYE_ISO_SMILES>
C/C(=C\C=C\C=C(\C=C\C=C(\C=C\C=C(\C=O)/C)/C)/C)/C=C/C=C(/C=C/C=C(/C=O)\C)\C

> <PUBCHEM_CACTVS_TPSA>
34.1

> <PUBCHEM_MONOISOTOPIC_WEIGHT>
428.27153

> <PUBCHEM_TOTAL_CHARGE>
0

> <PUBCHEM_HEAVY_ATOM_COUNT>
32

> <PUBCHEM_ATOM_DEF_STEREO_COUNT>
0

> <PUBCHEM_ATOM_UDEF_STEREO_COUNT>
0

> <PUBCHEM_BOND_DEF_STEREO_COUNT>
11

> <PUBCHEM_BOND_UDEF_STEREO_COUNT>
0

> <PUBCHEM_ISOTOPIC_ATOM_COUNT>
0

> <PUBCHEM_COMPONENT_COUNT>
1

> <PUBCHEM_CACTVS_TAUTO_COUNT>
1

> <PUBCHEM_COORDINATE_TYPE>
1
5
255

$$$$

