443678
  -OEChem-07051213022D

 42 46  0     1  0  0  0  0  0999 V2000
    5.4390    0.4860    0.0000 O   0  0  0  0  0  0  0  0  0  0  0  0
    6.2596   -2.6176    0.0000 O   0  0  0  0  0  0  0  0  0  0  0  0
    8.9116    1.9276    0.0000 O   0  0  0  0  0  0  0  0  0  0  0  0
    2.6079    0.2207    0.0000 O   0  0  0  0  0  0  0  0  0  0  0  0
    2.6079   -1.4558    0.0000 O   0  0  0  0  0  0  0  0  0  0  0  0
    7.1256   -1.1176    0.0000 N   0  0  3  0  0  0  0  0  0  0  0  0
    6.2596    0.3825    0.0000 C   0  0  1  0  0  0  0  0  0  0  0  0
    7.1256   -0.1175    0.0000 C   0  0  2  0  0  0  0  0  0  0  0  0
    6.1461   -0.2211    0.0000 C   0  0  2  0  0  0  0  0  0  0  0  0
    6.5462   -0.9140    0.0000 C   0  0  0  0  0  0  0  0  0  0  0  0
    8.0356    0.3893    0.0000 C   0  0  0  0  0  0  0  0  0  0  0  0
    5.3935   -0.1175    0.0000 C   0  0  0  0  0  0  0  0  0  0  0  0
    6.2596   -1.6176    0.0000 C   0  0  3  0  0  0  0  0  0  0  0  0
    6.2435    1.4240    0.0000 C   0  0  0  0  0  0  0  0  0  0  0  0
    5.3935   -1.1176    0.0000 C   0  0  0  0  0  0  0  0  0  0  0  0
    8.0436    1.4309    0.0000 C   0  0  1  0  0  0  0  0  0  0  0  0
    7.1415    1.9517    0.0000 C   0  0  0  0  0  0  0  0  0  0  0  0
    4.4996    0.4171    0.0000 C   0  0  0  0  0  0  0  0  0  0  0  0
    4.4996   -1.6522    0.0000 C   0  0  0  0  0  0  0  0  0  0  0  0
    3.5935   -0.0967    0.0000 C   0  0  0  0  0  0  0  0  0  0  0  0
    3.5935   -1.1384    0.0000 C   0  0  0  0  0  0  0  0  0  0  0  0
    8.9154    2.9276    0.0000 C   0  0  0  0  0  0  0  0  0  0  0  0
    2.0000   -0.6175    0.0000 C   0  0  0  0  0  0  0  0  0  0  0  0
    7.8617   -0.5425    0.0000 H   0  0  0  0  0  0  0  0  0  0  0  0
    5.6543   -0.5986    0.0000 H   0  0  0  0  0  0  0  0  0  0  0  0
    5.9434   -1.0592    0.0000 H   0  0  0  0  0  0  0  0  0  0  0  0
    6.5147   -1.5332    0.0000 H   0  0  0  0  0  0  0  0  0  0  0  0
    8.2401   -0.1960    0.0000 H   0  0  0  0  0  0  0  0  0  0  0  0
    8.6472    0.4907    0.0000 H   0  0  0  0  0  0  0  0  0  0  0  0
    5.7226   -1.9276    0.0000 H   0  0  0  0  0  0  0  0  0  0  0  0
    5.7030    1.7277    0.0000 H   0  0  0  0  0  0  0  0  0  0  0  0
    8.0448    2.0509    0.0000 H   0  0  0  0  0  0  0  0  0  0  0  0
    7.1391    2.5717    0.0000 H   0  0  0  0  0  0  0  0  0  0  0  0
    4.5068    1.0371    0.0000 H   0  0  0  0  0  0  0  0  0  0  0  0
    5.5995    1.0848    0.0000 H   0  0  0  0  0  0  0  0  0  0  0  0
    4.5068   -2.2722    0.0000 H   0  0  0  0  0  0  0  0  0  0  0  0
    6.7965   -2.9276    0.0000 H   0  0  0  0  0  0  0  0  0  0  0  0
    9.5354    2.9252    0.0000 H   0  0  0  0  0  0  0  0  0  0  0  0
    8.9178    3.5475    0.0000 H   0  0  0  0  0  0  0  0  0  0  0  0
    8.2954    2.9299    0.0000 H   0  0  0  0  0  0  0  0  0  0  0  0
    1.5391   -0.2028    0.0000 H   0  0  0  0  0  0  0  0  0  0  0  0
    1.5391   -1.0323    0.0000 H   0  0  0  0  0  0  0  0  0  0  0  0
  9  1  1  6  0  0  0
  1 35  1  0  0  0  0
  2 13  1  0  0  0  0
  2 37  1  0  0  0  0
 16  3  1  1  0  0  0
  3 22  1  0  0  0  0
  4 20  1  0  0  0  0
  4 23  1  0  0  0  0
  5 21  1  0  0  0  0
  5 23  1  0  0  0  0
  6  8  1  0  0  0  0
  6 10  1  0  0  0  0
  6 13  1  0  0  0  0
  7  8  1  0  0  0  0
  7  9  1  0  0  0  0
  7 12  1  0  0  0  0
  7 14  1  6  0  0  0
  8 11  1  0  0  0  0
  8 24  1  1  0  0  0
  9 10  1  0  0  0  0
  9 25  1  0  0  0  0
 10 26  1  0  0  0  0
 10 27  1  0  0  0  0
 11 16  1  0  0  0  0
 11 28  1  0  0  0  0
 11 29  1  0  0  0  0
 12 15  1  0  0  0  0
 12 18  2  0  0  0  0
 13 15  1  0  0  0  0
 13 30  1  0  0  0  0
 14 17  2  0  0  0  0
 14 31  1  0  0  0  0
 15 19  2  0  0  0  0
 16 17  1  0  0  0  0
 16 32  1  0  0  0  0
 17 33  1  0  0  0  0
 18 20  1  0  0  0  0
 18 34  1  0  0  0  0
 19 21  1  0  0  0  0
 19 36  1  0  0  0  0
 20 21  2  0  0  0  0
 22 38  1  0  0  0  0
 22 39  1  0  0  0  0
 22 40  1  0  0  0  0
 23 41  1  0  0  0  0
 23 42  1  0  0  0  0
M  END
> <PUBCHEM_COMPOUND_CID>
443678

> <PUBCHEM_COMPOUND_CANONICALIZED>
1

> <PUBCHEM_CACTVS_COMPLEXITY>
527

> <PUBCHEM_CACTVS_HBOND_ACCEPTOR>
6

> <PUBCHEM_CACTVS_HBOND_DONOR>
2

> <PUBCHEM_CACTVS_ROTATABLE_BOND>
1

> <PUBCHEM_CACTVS_SUBSKEYS>
AAADceB6OAAAAAAAAAAAAAAAAAAAAWJAAAA8QIAABYAAAEixAAAAHgAACAAADjzhmAcyDoMABgCAAiBCAACCCAAgIAAIiAAOjIgfNiKEsRukcCpmwBGeuAfw8P8PoAABAAAQQABAAAIAACCAAAAAAAAAAA==

> <PUBCHEM_IUPAC_INCHI>
InChI=1S/C17H19NO5/c1-21-9-2-3-17-11-6-13-12(22-8-23-13)5-10(11)16(20)18(7-15(17)19)14(17)4-9/h2-3,5-6,9,14-16,19-20H,4,7-8H2,1H3/t9-,14+,15+,16?,17+/m1/s1

> <PUBCHEM_IUPAC_INCHIKEY>
ZSTPNQLNQBRLQF-MTJLQIHRSA-N

> <PUBCHEM_XLOGP3_AA>
0.7

> <PUBCHEM_EXACT_MASS>
317.126323

> <PUBCHEM_MOLECULAR_FORMULA>
C17H19NO5

> <PUBCHEM_MOLECULAR_WEIGHT>
317.33646

> <PUBCHEM_OPENEYE_CAN_SMILES>
COC1CC2C3(C=C1)C(CN2C(C4=CC5=C(C=C34)OCO5)O)O

> <PUBCHEM_OPENEYE_ISO_SMILES>
CO[C@H]1C[C@H]2[C@@]3(C=C1)[C@H](CN2C(C4=CC5=C(C=C34)OCO5)O)O

> <PUBCHEM_CACTVS_TPSA>
71.4

> <PUBCHEM_MONOISOTOPIC_WEIGHT>
317.126323

> <PUBCHEM_TOTAL_CHARGE>
0

> <PUBCHEM_HEAVY_ATOM_COUNT>
23

> <PUBCHEM_ATOM_DEF_STEREO_COUNT>
4

> <PUBCHEM_ATOM_UDEF_STEREO_COUNT>
1

> <PUBCHEM_BOND_DEF_STEREO_COUNT>
0

> <PUBCHEM_BOND_UDEF_STEREO_COUNT>
0

> <PUBCHEM_ISOTOPIC_ATOM_COUNT>
0

> <PUBCHEM_COMPONENT_COUNT>
1

> <PUBCHEM_CACTVS_TAUTO_COUNT>
1

> <PUBCHEM_COORDINATE_TYPE>
1
5
255

> <PUBCHEM_BONDANNOTATIONS>
9  1  6
12  15  8
12  18  8
15  19  8
18  20  8
19  21  8
13  2  3
20  21  8
16  3  5
7  14  6
8  24  5

$$$$

