656736
  -OEChem-07051213043D

 62 66  0     0  0  0  0  0  0999 V2000
    3.8136   -0.4648   -0.5749 N   0  0  0  0  0  0  0  0  0  0  0  0
   -1.3430   -0.3664   -1.4573 C   0  0  0  0  0  0  0  0  0  0  0  0
   -0.8641    0.9668   -0.8789 C   0  0  0  0  0  0  0  0  0  0  0  0
   -1.0405   -1.3203   -0.2999 C   0  0  0  0  0  0  0  0  0  0  0  0
   -2.8452   -0.3270   -1.7594 C   0  0  0  0  0  0  0  0  0  0  0  0
   -0.5397   -0.7448   -2.7068 C   0  0  0  0  0  0  0  0  0  0  0  0
   -0.3594    0.7836    0.4284 C   0  0  0  0  0  0  0  0  0  0  0  0
   -0.4674   -0.6150    0.7827 C   0  0  0  0  0  0  0  0  0  0  0  0
   -0.8803    2.2212   -1.4706 C   0  0  0  0  0  0  0  0  0  0  0  0
   -1.2590   -2.6881   -0.2274 C   0  0  0  0  0  0  0  0  0  0  0  0
   -3.6441   -0.0074   -0.5285 C   0  0  0  0  0  0  0  0  0  0  0  0
    0.1332    1.8580    1.1522 C   0  0  0  0  0  0  0  0  0  0  0  0
   -0.1093   -1.2771    1.9464 C   0  0  0  0  0  0  0  0  0  0  0  0
    3.4878    0.9631   -0.6533 C   0  0  0  0  0  0  0  0  0  0  0  0
    5.1930   -0.7471   -0.1746 C   0  0  0  0  0  0  0  0  0  0  0  0
    4.0068    1.8649    0.4708 C   0  0  0  0  0  0  0  0  0  0  0  0
    5.2920   -0.9006    1.3458 C   0  0  0  0  0  0  0  0  0  0  0  0
    3.9568    1.2432    1.8625 C   0  0  0  0  0  0  0  0  0  0  0  0
    5.1882    0.3892    2.1540 C   0  0  0  0  0  0  0  0  0  0  0  0
    0.8827   -0.8746   -2.3900 C   0  0  0  0  0  0  0  0  0  0  0  0
   -0.3843    3.3029   -0.7408 C   0  0  0  0  0  0  0  0  0  0  0  0
   -0.8979   -3.3540    0.9451 C   0  0  0  0  0  0  0  0  0  0  0  0
    3.4810   -1.1208   -1.8409 C   0  0  0  0  0  0  0  0  0  0  0  0
    0.1178    3.1229    0.5580 C   0  0  0  0  0  0  0  0  0  0  0  0
   -0.3287   -2.6553    2.0216 C   0  0  0  0  0  0  0  0  0  0  0  0
   -4.0908   -1.0398    0.2878 C   0  0  0  0  0  0  0  0  0  0  0  0
   -3.9279    1.3171   -0.2181 C   0  0  0  0  0  0  0  0  0  0  0  0
    2.0527   -0.9839   -2.1411 C   0  0  0  0  0  0  0  0  0  0  0  0
   -4.8325   -0.7431    1.4313 C   0  0  0  0  0  0  0  0  0  0  0  0
   -4.6695    1.6137    0.9255 C   0  0  0  0  0  0  0  0  0  0  0  0
   -5.1218    0.5834    1.7501 C   0  0  0  0  0  0  0  0  0  0  0  0
   -3.1843   -1.2892   -2.1677 H   0  0  0  0  0  0  0  0  0  0  0  0
   -3.0679    0.4115   -2.5418 H   0  0  0  0  0  0  0  0  0  0  0  0
   -0.6744    0.0045   -3.4967 H   0  0  0  0  0  0  0  0  0  0  0  0
   -0.8998   -1.6971   -3.1168 H   0  0  0  0  0  0  0  0  0  0  0  0
   -1.2657    2.3668   -2.4738 H   0  0  0  0  0  0  0  0  0  0  0  0
   -1.6963   -3.2340   -1.0563 H   0  0  0  0  0  0  0  0  0  0  0  0
    0.5246    1.7354    2.1566 H   0  0  0  0  0  0  0  0  0  0  0  0
    0.3327   -0.7513    2.7863 H   0  0  0  0  0  0  0  0  0  0  0  0
    2.3999    1.0778   -0.6610 H   0  0  0  0  0  0  0  0  0  0  0  0
    3.8508    1.3914   -1.5981 H   0  0  0  0  0  0  0  0  0  0  0  0
    5.9003   -0.0005   -0.5561 H   0  0  0  0  0  0  0  0  0  0  0  0
    5.5179   -1.7087   -0.5939 H   0  0  0  0  0  0  0  0  0  0  0  0
    3.3989    2.7787    0.4729 H   0  0  0  0  0  0  0  0  0  0  0  0
    5.0305    2.1880    0.2437 H   0  0  0  0  0  0  0  0  0  0  0  0
    6.2553   -1.3699    1.5831 H   0  0  0  0  0  0  0  0  0  0  0  0
    4.5234   -1.6045    1.6920 H   0  0  0  0  0  0  0  0  0  0  0  0
    3.0375    0.6645    2.0068 H   0  0  0  0  0  0  0  0  0  0  0  0
    3.9355    2.0564    2.5988 H   0  0  0  0  0  0  0  0  0  0  0  0
    6.0936    0.9878    1.9923 H   0  0  0  0  0  0  0  0  0  0  0  0
    5.1853    0.1256    3.2190 H   0  0  0  0  0  0  0  0  0  0  0  0
   -0.3853    4.2960   -1.1819 H   0  0  0  0  0  0  0  0  0  0  0  0
   -1.0584   -4.4258    1.0269 H   0  0  0  0  0  0  0  0  0  0  0  0
    3.7008   -2.1937   -1.7723 H   0  0  0  0  0  0  0  0  0  0  0  0
    4.0845   -0.7219   -2.6659 H   0  0  0  0  0  0  0  0  0  0  0  0
    0.5004    3.9791    1.1073 H   0  0  0  0  0  0  0  0  0  0  0  0
   -0.0549   -3.1945    2.9247 H   0  0  0  0  0  0  0  0  0  0  0  0
   -3.9140   -2.0808    0.0380 H   0  0  0  0  0  0  0  0  0  0  0  0
   -3.6144    2.1319   -0.8628 H   0  0  0  0  0  0  0  0  0  0  0  0
   -5.1928   -1.5456    2.0682 H   0  0  0  0  0  0  0  0  0  0  0  0
   -4.9013    2.6462    1.1699 H   0  0  0  0  0  0  0  0  0  0  0  0
   -5.7024    0.8143    2.6385 H   0  0  0  0  0  0  0  0  0  0  0  0
  1 14  1  0  0  0  0
  1 15  1  0  0  0  0
  1 23  1  0  0  0  0
  2  3  1  0  0  0  0
  2  4  1  0  0  0  0
  2  5  1  0  0  0  0
  2  6  1  0  0  0  0
  3  7  1  0  0  0  0
  3  9  2  0  0  0  0
  4  8  1  0  0  0  0
  4 10  2  0  0  0  0
  5 11  1  0  0  0  0
  5 32  1  0  0  0  0
  5 33  1  0  0  0  0
  6 20  1  0  0  0  0
  6 34  1  0  0  0  0
  6 35  1  0  0  0  0
  7  8  1  0  0  0  0
  7 12  2  0  0  0  0
  8 13  2  0  0  0  0
  9 21  1  0  0  0  0
  9 36  1  0  0  0  0
 10 22  1  0  0  0  0
 10 37  1  0  0  0  0
 11 26  2  0  0  0  0
 11 27  1  0  0  0  0
 12 24  1  0  0  0  0
 12 38  1  0  0  0  0
 13 25  1  0  0  0  0
 13 39  1  0  0  0  0
 14 16  1  0  0  0  0
 14 40  1  0  0  0  0
 14 41  1  0  0  0  0
 15 17  1  0  0  0  0
 15 42  1  0  0  0  0
 15 43  1  0  0  0  0
 16 18  1  0  0  0  0
 16 44  1  0  0  0  0
 16 45  1  0  0  0  0
 17 19  1  0  0  0  0
 17 46  1  0  0  0  0
 17 47  1  0  0  0  0
 18 19  1  0  0  0  0
 18 48  1  0  0  0  0
 18 49  1  0  0  0  0
 19 50  1  0  0  0  0
 19 51  1  0  0  0  0
 20 28  3  0  0  0  0
 21 24  2  0  0  0  0
 21 52  1  0  0  0  0
 22 25  2  0  0  0  0
 22 53  1  0  0  0  0
 23 28  1  0  0  0  0
 23 54  1  0  0  0  0
 23 55  1  0  0  0  0
 24 56  1  0  0  0  0
 25 57  1  0  0  0  0
 26 29  1  0  0  0  0
 26 58  1  0  0  0  0
 27 30  2  0  0  0  0
 27 59  1  0  0  0  0
 29 31  2  0  0  0  0
 29 60  1  0  0  0  0
 30 31  1  0  0  0  0
 30 61  1  0  0  0  0
 31 62  1  0  0  0  0
M  END
> <PUBCHEM_COMPOUND_CID>
656736

> <PUBCHEM_CONFORMER_RMSD>
0.8

> <PUBCHEM_CONFORMER_DIVERSEORDER>
1
17
10
5
14
12
18
11
15
13
9
16
4
3
7
8
6
2

> <PUBCHEM_MMFF94_PARTIAL_CHARGES>
38
1 -0.81
10 -0.15
11 -0.14
12 -0.15
13 -0.15
14 0.27
15 0.27
2 0.29
20 -0.2
21 -0.15
22 -0.15
23 0.47
24 -0.15
25 -0.15
26 -0.15
27 -0.15
28 -0.2
29 -0.15
3 -0.14
30 -0.15
31 -0.15
36 0.15
37 0.15
38 0.15
39 0.15
4 -0.14
5 0.14
52 0.15
53 0.15
56 0.15
57 0.15
58 0.15
59 0.15
6 0.2
60 0.15
61 0.15
62 0.15
9 -0.15

> <PUBCHEM_EFFECTIVE_ROTOR_COUNT>
5.6

> <PUBCHEM_PHARMACOPHORE_FEATURES>
6
1 1 cation
5 2 3 4 7 8 rings
6 11 26 27 29 30 31 rings
6 3 7 9 12 21 24 rings
6 4 8 10 13 22 25 rings
7 1 14 15 16 17 18 19 rings

> <PUBCHEM_HEAVY_ATOM_COUNT>
31

> <PUBCHEM_ATOM_DEF_STEREO_COUNT>
0

> <PUBCHEM_ATOM_UDEF_STEREO_COUNT>
0

> <PUBCHEM_BOND_DEF_STEREO_COUNT>
0

> <PUBCHEM_BOND_UDEF_STEREO_COUNT>
0

> <PUBCHEM_ISOTOPIC_ATOM_COUNT>
0

> <PUBCHEM_COMPONENT_COUNT>
1

> <PUBCHEM_CACTVS_TAUTO_COUNT>
1

> <PUBCHEM_CONFORMER_ID>
000A056000000001

> <PUBCHEM_MMFF94_ENERGY>
94.1758

> <PUBCHEM_FEATURE_SELFOVERLAP>
30.606

> <PUBCHEM_SHAPE_FINGERPRINT>
11578080 2 17195400194123458493
12035758 1 18338224982209883819
12422481 6 18114184176386890840
12633257 1 18271816674868375524
12788726 201 18341885312422733804
17974551 9 17898295996054841489
20600515 1 18342168943150948916
20715895 44 16806163405281024780
21304253 335 17168686627245122961
21330990 113 18131068259873686025
23559900 14 18339063961464674878
3493558 16 16300616797904224521
35225 105 17987783216220133094
392239 28 18342733052792655723
404807 14 15507119086176188998
6034566 193 17097491986504890696
7226269 152 18412820317561549988

> <PUBCHEM_SHAPE_MULTIPOLES>
632.98
9.93
3.14
2.51
5.16
0.44
-0.56
0.9
5
-0.63
0.66
0.83
-0.72
0.76

> <PUBCHEM_SHAPE_SELFOVERLAP>
1385.418

> <PUBCHEM_SHAPE_VOLUME>
337.5

> <PUBCHEM_COORDINATE_TYPE>
2
5
10

$$$$

