585168
  -OEChem-06241222453D

 88 95  0     1  0  0  0  0  0999 V2000
   -1.8934    0.3255   -0.6831 C   0  0  0  0  0  0  0  0  0  0  0  0
    1.8930   -0.3243   -0.6837 C   0  0  0  0  0  0  0  0  0  0  0  0
   -0.4371    0.6429   -0.3335 C   0  0  2  0  0  0  0  0  0  0  0  0
    0.4352   -0.6420   -0.3340 C   0  0  2  0  0  0  0  0  0  0  0  0
   -2.5262    1.5009   -1.4650 C   0  0  0  0  0  0  0  0  0  0  0  0
   -1.9702   -0.9482   -1.5577 C   0  0  0  0  0  0  0  0  0  0  0  0
   -2.7157    0.0899    0.6062 C   0  0  0  0  0  0  0  0  0  0  0  0
    2.5255   -1.4991   -1.4669 C   0  0  0  0  0  0  0  0  0  0  0  0
    1.9699    0.9503   -1.5572 C   0  0  0  0  0  0  0  0  0  0  0  0
    2.7155   -0.0900    0.6056 C   0  0  0  0  0  0  0  0  0  0  0  0
   -3.9903    1.1854   -1.8181 C   0  0  0  0  0  0  0  0  0  0  0  0
   -3.4327   -1.2705   -1.9110 C   0  0  0  0  0  0  0  0  0  0  0  0
   -4.1804   -0.2294    0.2587 C   0  0  0  0  0  0  0  0  0  0  0  0
    3.9896   -1.1834   -1.8198 C   0  0  0  0  0  0  0  0  0  0  0  0
    3.4325    1.2726   -1.9103 C   0  0  0  0  0  0  0  0  0  0  0  0
    4.1802    0.2293    0.2584 C   0  0  0  0  0  0  0  0  0  0  0  0
   -0.3830    1.4362    0.9707 C   0  0  0  0  0  0  0  0  0  0  0  0
    0.3822   -1.4368    0.9693 C   0  0  0  0  0  0  0  0  0  0  0  0
   -4.0400   -0.0863   -2.6812 C   0  0  0  0  0  0  0  0  0  0  0  0
   -4.7839    0.9497   -0.5223 C   0  0  0  0  0  0  0  0  0  0  0  0
   -4.2292   -1.4939   -0.6146 C   0  0  0  0  0  0  0  0  0  0  0  0
    4.0396    0.0889   -2.6817 C   0  0  0  0  0  0  0  0  0  0  0  0
    4.7834   -0.9491   -0.5239 C   0  0  0  0  0  0  0  0  0  0  0  0
    4.2292    1.4946   -0.6140 C   0  0  0  0  0  0  0  0  0  0  0  0
   -0.8863    2.8698    0.7543 C   0  0  0  0  0  0  0  0  0  0  0  0
    1.0399    1.4376    1.5457 C   0  0  0  0  0  0  0  0  0  0  0  0
    0.8879   -2.8693    0.7516 C   0  0  0  0  0  0  0  0  0  0  0  0
   -1.0408   -1.4412    1.5441 C   0  0  0  0  0  0  0  0  0  0  0  0
   -0.7917    3.6995    2.0328 C   0  0  0  0  0  0  0  0  0  0  0  0
    1.1310    2.2695    2.8229 C   0  0  0  0  0  0  0  0  0  0  0  0
    0.7946   -3.7005    2.0292 C   0  0  0  0  0  0  0  0  0  0  0  0
   -1.1307   -2.2746    2.8204 C   0  0  0  0  0  0  0  0  0  0  0  0
    0.6219    3.6912    2.6060 C   0  0  0  0  0  0  0  0  0  0  0  0
   -0.6191   -3.6952    2.6021 C   0  0  0  0  0  0  0  0  0  0  0  0
   -0.1648    1.2963   -1.1566 H   0  0  0  0  0  0  0  0  0  0  0  0
    0.1638   -1.2947   -1.1579 H   0  0  0  0  0  0  0  0  0  0  0  0
   -1.9756    1.6399   -2.4070 H   0  0  0  0  0  0  0  0  0  0  0  0
   -2.5336    2.4806   -1.0134 H   0  0  0  0  0  0  0  0  0  0  0  0
   -1.6082   -1.8681   -1.0975 H   0  0  0  0  0  0  0  0  0  0  0  0
   -1.4163   -0.8013   -2.4955 H   0  0  0  0  0  0  0  0  0  0  0  0
   -2.8104    1.0325    1.1591 H   0  0  0  0  0  0  0  0  0  0  0  0
   -2.7583   -0.6481    1.3749 H   0  0  0  0  0  0  0  0  0  0  0  0
    1.9747   -1.6367   -2.4089 H   0  0  0  0  0  0  0  0  0  0  0  0
    2.5326   -2.4795   -1.0167 H   0  0  0  0  0  0  0  0  0  0  0  0
    1.6078    1.8696   -1.0959 H   0  0  0  0  0  0  0  0  0  0  0  0
    1.4158    0.8043   -2.4950 H   0  0  0  0  0  0  0  0  0  0  0  0
    2.8099   -1.0328    1.1580 H   0  0  0  0  0  0  0  0  0  0  0  0
    2.7584    0.6475    1.3748 H   0  0  0  0  0  0  0  0  0  0  0  0
   -4.4275    2.0219   -2.3750 H   0  0  0  0  0  0  0  0  0  0  0  0
   -3.4757   -2.1724   -2.5322 H   0  0  0  0  0  0  0  0  0  0  0  0
   -4.7785   -0.3841    1.1670 H   0  0  0  0  0  0  0  0  0  0  0  0
    4.4266   -2.0196   -2.3775 H   0  0  0  0  0  0  0  0  0  0  0  0
    3.4756    2.1750   -2.5307 H   0  0  0  0  0  0  0  0  0  0  0  0
    4.7784    0.3830    1.1667 H   0  0  0  0  0  0  0  0  0  0  0  0
   -0.9918    1.1319    1.8082 H   0  0  0  0  0  0  0  0  0  0  0  0
    0.9905   -1.1334    1.8073 H   0  0  0  0  0  0  0  0  0  0  0  0
   -5.0779   -0.3116   -2.9557 H   0  0  0  0  0  0  0  0  0  0  0  0
   -3.4916    0.0734   -3.6177 H   0  0  0  0  0  0  0  0  0  0  0  0
   -4.7739    1.8572    0.0940 H   0  0  0  0  0  0  0  0  0  0  0  0
   -5.8341    0.7411   -0.7612 H   0  0  0  0  0  0  0  0  0  0  0  0
   -5.2712   -1.7370   -0.8575 H   0  0  0  0  0  0  0  0  0  0  0  0
   -3.8280   -2.3538   -0.0655 H   0  0  0  0  0  0  0  0  0  0  0  0
    5.0775    0.3143   -2.9562 H   0  0  0  0  0  0  0  0  0  0  0  0
    3.4909   -0.0697   -3.6183 H   0  0  0  0  0  0  0  0  0  0  0  0
    4.7732   -1.8572    0.0915 H   0  0  0  0  0  0  0  0  0  0  0  0
    5.8337   -0.7405   -0.7627 H   0  0  0  0  0  0  0  0  0  0  0  0
    5.2712    1.7378   -0.8567 H   0  0  0  0  0  0  0  0  0  0  0  0
    3.8282    2.3541   -0.0639 H   0  0  0  0  0  0  0  0  0  0  0  0
   -1.9523    2.9093    0.5711 H   0  0  0  0  0  0  0  0  0  0  0  0
   -0.3511    3.3698   -0.0604 H   0  0  0  0  0  0  0  0  0  0  0  0
    1.6979    1.9657    0.8612 H   0  0  0  0  0  0  0  0  0  0  0  0
    1.2046    0.5088    2.0427 H   0  0  0  0  0  0  0  0  0  0  0  0
    1.9541   -2.9069    0.5689 H   0  0  0  0  0  0  0  0  0  0  0  0
    0.3538   -3.3693   -0.0638 H   0  0  0  0  0  0  0  0  0  0  0  0
   -1.6991   -1.9682    0.8591 H   0  0  0  0  0  0  0  0  0  0  0  0
   -1.2054   -0.5127    2.0421 H   0  0  0  0  0  0  0  0  0  0  0  0
   -1.4888    3.3059    2.7838 H   0  0  0  0  0  0  0  0  0  0  0  0
   -1.0982    4.7318    1.8273 H   0  0  0  0  0  0  0  0  0  0  0  0
    2.1683    2.3017    3.1776 H   0  0  0  0  0  0  0  0  0  0  0  0
    0.5382    1.8030    3.6215 H   0  0  0  0  0  0  0  0  0  0  0  0
    1.4908   -3.3065    2.7806 H   0  0  0  0  0  0  0  0  0  0  0  0
    1.1029   -4.7320    1.8226 H   0  0  0  0  0  0  0  0  0  0  0  0
   -2.1679   -2.3088    3.1749 H   0  0  0  0  0  0  0  0  0  0  0  0
   -0.5388   -1.8079    3.6196 H   0  0  0  0  0  0  0  0  0  0  0  0
    0.6380    4.2378    3.5557 H   0  0  0  0  0  0  0  0  0  0  0  0
    1.2962    4.2208    1.9217 H   0  0  0  0  0  0  0  0  0  0  0  0
   -0.6345   -4.2428    3.5513 H   0  0  0  0  0  0  0  0  0  0  0  0
   -1.2925   -4.2251    1.9171 H   0  0  0  0  0  0  0  0  0  0  0  0
  1  3  1  0  0  0  0
  1  5  1  0  0  0  0
  1  6  1  0  0  0  0
  1  7  1  0  0  0  0
  2  4  1  0  0  0  0
  2  8  1  0  0  0  0
  2  9  1  0  0  0  0
  2 10  1  0  0  0  0
  3  4  1  0  0  0  0
  3 17  1  0  0  0  0
  3 35  1  0  0  0  0
  4 18  1  0  0  0  0
  4 36  1  0  0  0  0
  5 11  1  0  0  0  0
  5 37  1  0  0  0  0
  5 38  1  0  0  0  0
  6 12  1  0  0  0  0
  6 39  1  0  0  0  0
  6 40  1  0  0  0  0
  7 13  1  0  0  0  0
  7 41  1  0  0  0  0
  7 42  1  0  0  0  0
  8 14  1  0  0  0  0
  8 43  1  0  0  0  0
  8 44  1  0  0  0  0
  9 15  1  0  0  0  0
  9 45  1  0  0  0  0
  9 46  1  0  0  0  0
 10 16  1  0  0  0  0
 10 47  1  0  0  0  0
 10 48  1  0  0  0  0
 11 19  1  0  0  0  0
 11 20  1  0  0  0  0
 11 49  1  0  0  0  0
 12 19  1  0  0  0  0
 12 21  1  0  0  0  0
 12 50  1  0  0  0  0
 13 20  1  0  0  0  0
 13 21  1  0  0  0  0
 13 51  1  0  0  0  0
 14 22  1  0  0  0  0
 14 23  1  0  0  0  0
 14 52  1  0  0  0  0
 15 22  1  0  0  0  0
 15 24  1  0  0  0  0
 15 53  1  0  0  0  0
 16 23  1  0  0  0  0
 16 24  1  0  0  0  0
 16 54  1  0  0  0  0
 17 25  1  0  0  0  0
 17 26  1  0  0  0  0
 17 55  1  0  0  0  0
 18 27  1  0  0  0  0
 18 28  1  0  0  0  0
 18 56  1  0  0  0  0
 19 57  1  0  0  0  0
 19 58  1  0  0  0  0
 20 59  1  0  0  0  0
 20 60  1  0  0  0  0
 21 61  1  0  0  0  0
 21 62  1  0  0  0  0
 22 63  1  0  0  0  0
 22 64  1  0  0  0  0
 23 65  1  0  0  0  0
 23 66  1  0  0  0  0
 24 67  1  0  0  0  0
 24 68  1  0  0  0  0
 25 29  1  0  0  0  0
 25 69  1  0  0  0  0
 25 70  1  0  0  0  0
 26 30  1  0  0  0  0
 26 71  1  0  0  0  0
 26 72  1  0  0  0  0
 27 31  1  0  0  0  0
 27 73  1  0  0  0  0
 27 74  1  0  0  0  0
 28 32  1  0  0  0  0
 28 75  1  0  0  0  0
 28 76  1  0  0  0  0
 29 33  1  0  0  0  0
 29 77  1  0  0  0  0
 29 78  1  0  0  0  0
 30 33  1  0  0  0  0
 30 79  1  0  0  0  0
 30 80  1  0  0  0  0
 31 34  1  0  0  0  0
 31 81  1  0  0  0  0
 31 82  1  0  0  0  0
 32 34  1  0  0  0  0
 32 83  1  0  0  0  0
 32 84  1  0  0  0  0
 33 85  1  0  0  0  0
 33 86  1  0  0  0  0
 34 87  1  0  0  0  0
 34 88  1  0  0  0  0
M  END
> <PUBCHEM_COMPOUND_CID>
585168

> <PUBCHEM_CONFORMER_RMSD>
1

> <PUBCHEM_CONFORMER_DIVERSEORDER>
2
1

> <PUBCHEM_MMFF94_PARTIAL_CHARGES>
0

> <PUBCHEM_EFFECTIVE_ROTOR_COUNT>
9.8

> <PUBCHEM_PHARMACOPHORE_FEATURES>
10
6 1 5 6 11 12 19 rings
6 1 5 7 11 13 20 rings
6 1 6 7 12 13 21 rings
6 11 12 13 19 20 21 rings
6 14 15 16 22 23 24 rings
6 17 25 26 29 30 33 rings
6 18 27 28 31 32 34 rings
6 2 8 10 14 16 23 rings
6 2 8 9 14 15 22 rings
6 2 9 10 15 16 24 rings

> <PUBCHEM_HEAVY_ATOM_COUNT>
34

> <PUBCHEM_ATOM_DEF_STEREO_COUNT>
0

> <PUBCHEM_ATOM_UDEF_STEREO_COUNT>
2

> <PUBCHEM_BOND_DEF_STEREO_COUNT>
0

> <PUBCHEM_BOND_UDEF_STEREO_COUNT>
0

> <PUBCHEM_ISOTOPIC_ATOM_COUNT>
0

> <PUBCHEM_COMPONENT_COUNT>
1

> <PUBCHEM_CACTVS_TAUTO_COUNT>
1

> <PUBCHEM_CONFORMER_ID>
0008EDD000000002

> <PUBCHEM_MMFF94_ENERGY>
288.4169

> <PUBCHEM_FEATURE_SELFOVERLAP>
75.778

> <PUBCHEM_SHAPE_FINGERPRINT>
10006869 2 17687161494358395865
10165383 225 17916850388349511619
10290309 65 17254536220929494900
10906281 52 18042970870283598080
11370993 70 17847064384649169407
11421498 54 18340486789519122425
11578080 2 17765415561703681569
11763715 3 17757308072625426595
12156800 1 17126224368273962392
12160290 23 17628032808253536578
12553582 1 17676481756995949949
12788726 201 17826800536211287241
13009979 54 17688043323646836179
13149001 5 18194119612102134232
13224815 77 18410575088958046759
13544653 18 15068621586708050550
13911987 19 17826497882983143828
14068700 675 17981352258635602170
14787075 74 18338238167453455532
14955137 171 17895738635519748429
15420108 30 16966888027092686368
15775530 1 17689998933830402634
17349148 13 18341890822960128958
17909252 39 17683812003624417055
17980427 23 15334673731417962765
1813 80 16950276295628940733
19319366 153 18269832193945813851
20691752 17 18198083407650708117
20775438 99 17326913776328447503
21033650 10 18265030583470236540
22907989 373 18052781872535182348
229495 10 17338983566384894913
23419403 2 17760631582479440531
23558518 356 18120633976272849640
23559900 14 17414742030994490447
238 59 17535478010907224360
3380486 145 17972020450015642442
35225 105 14045153269709436171
3552219 110 16545454660472561376
463206 1 18040999552845006518
469060 322 17773007926249698641
513532 50 17389422365508219509
5895379 119 16337281125777176653
6669772 16 17975161776068253448
7226269 152 18410301302590032648

> <PUBCHEM_SHAPE_MULTIPOLES>
699.7
8.14
3.84
3.15
0
0.01
0.81
0
-6.99
0
4.52
0
0
0.48

> <PUBCHEM_SHAPE_SELFOVERLAP>
1549.065

> <PUBCHEM_SHAPE_VOLUME>
357.4

> <PUBCHEM_COORDINATE_TYPE>
2
5
10

$$$$

