5281784
  -OEChem-07051212592D

 97101  0     1  0  0  0  0  0999 V2000
   10.3312    1.3573    0.0000 O   0  0  0  0  0  0  0  0  0  0  0  0
   12.0632    4.3573    0.0000 O   0  0  0  0  0  0  0  0  0  0  0  0
   12.0632    1.3573    0.0000 O   0  0  0  0  0  0  0  0  0  0  0  0
   13.8428    4.4505    0.0000 O   0  0  0  0  0  0  0  0  0  0  0  0
   10.3312   -1.6427    0.0000 O   0  0  0  0  0  0  0  0  0  0  0  0
   10.3312    3.3573    0.0000 O   0  0  0  0  0  0  0  0  0  0  0  0
   13.7953    3.3573    0.0000 O   0  0  0  0  0  0  0  0  0  0  0  0
    8.5991    0.3573    0.0000 O   0  0  0  0  0  0  0  0  0  0  0  0
   12.0632    0.3573    0.0000 O   0  0  0  0  0  0  0  0  0  0  0  0
   13.8040    7.0379    0.0000 O   0  0  0  0  0  0  0  0  0  0  0  0
   12.2906    6.5209    0.0000 O   0  0  0  0  0  0  0  0  0  0  0  0
   12.0632   -1.6427    0.0000 O   0  0  0  0  0  0  0  0  0  0  0  0
   15.7440    6.0597    0.0000 O   0  0  0  0  0  0  0  0  0  0  0  0
    8.5991   -2.6427    0.0000 O   0  0  0  0  0  0  0  0  0  0  0  0
    7.7331   -1.1427    0.0000 O   0  0  0  0  0  0  0  0  0  0  0  0
   11.1972   -6.1427    0.0000 O   0  0  0  0  0  0  0  0  0  0  0  0
   12.9292   -7.1427    0.0000 O   0  0  0  0  0  0  0  0  0  0  0  0
    4.2690    2.8573    0.0000 O   0  0  0  0  0  0  0  0  0  0  0  0
    2.5369    1.8573    0.0000 O   0  0  0  0  0  0  0  0  0  0  0  0
   12.0632    3.3573    0.0000 C   0  0  1  0  0  0  0  0  0  0  0  0
   11.1972    2.8573    0.0000 C   0  0  2  0  0  0  0  0  0  0  0  0
   11.1972    1.8573    0.0000 C   0  0  2  0  0  0  0  0  0  0  0  0
   12.9292    2.8573    0.0000 C   0  0  2  0  0  0  0  0  0  0  0  0
   10.3312    0.3573    0.0000 C   0  0  1  0  0  0  0  0  0  0  0  0
   12.9292    1.8573    0.0000 C   0  0  2  0  0  0  0  0  0  0  0  0
    9.4651   -0.1427    0.0000 C   0  0  1  0  0  0  0  0  0  0  0  0
   12.9292    4.8573    0.0000 C   0  0  2  0  0  0  0  0  0  0  0  0
   11.1972   -0.1427    0.0000 C   0  0  2  0  0  0  0  0  0  0  0  0
   14.0119    6.0597    0.0000 C   0  0  1  0  0  0  0  0  0  0  0  0
   13.0338    5.8518    0.0000 C   0  0  1  0  0  0  0  0  0  0  0  0
    9.4651   -1.1427    0.0000 C   0  0  1  0  0  0  0  0  0  0  0  0
   11.1972   -1.1427    0.0000 C   0  0  1  0  0  0  0  0  0  0  0  0
   14.5119    5.1937    0.0000 C   0  0  0  0  0  0  0  0  0  0  0  0
   13.7953    1.3573    0.0000 C   0  0  0  0  0  0  0  0  0  0  0  0
   14.8779    6.5597    0.0000 C   0  0  0  0  0  0  0  0  0  0  0  0
    8.5991   -1.6427    0.0000 C   0  0  0  0  0  0  0  0  0  0  0  0
   12.0632   -2.6427    0.0000 C   0  0  0  0  0  0  0  0  0  0  0  0
    7.7331   -0.1427    0.0000 C   0  0  0  0  0  0  0  0  0  0  0  0
   12.9292   -3.1427    0.0000 C   0  0  0  0  0  0  0  0  0  0  0  0
    6.8671    0.3573    0.0000 C   0  0  0  0  0  0  0  0  0  0  0  0
   12.9292   -4.1427    0.0000 C   0  0  0  0  0  0  0  0  0  0  0  0
    6.0010   -0.1427    0.0000 C   0  0  0  0  0  0  0  0  0  0  0  0
   12.0632   -4.6427    0.0000 C   0  0  0  0  0  0  0  0  0  0  0  0
   13.7953   -4.6427    0.0000 C   0  0  0  0  0  0  0  0  0  0  0  0
    5.1350    0.3573    0.0000 C   0  0  0  0  0  0  0  0  0  0  0  0
   12.0632   -5.6427    0.0000 C   0  0  0  0  0  0  0  0  0  0  0  0
   13.7953   -5.6427    0.0000 C   0  0  0  0  0  0  0  0  0  0  0  0
   12.9292   -6.1427    0.0000 C   0  0  0  0  0  0  0  0  0  0  0  0
    5.1350    1.3573    0.0000 C   0  0  0  0  0  0  0  0  0  0  0  0
    4.2690   -0.1427    0.0000 C   0  0  0  0  0  0  0  0  0  0  0  0
    4.2690    1.8573    0.0000 C   0  0  0  0  0  0  0  0  0  0  0  0
    3.4030    0.3573    0.0000 C   0  0  0  0  0  0  0  0  0  0  0  0
    3.4030    1.3573    0.0000 C   0  0  0  0  0  0  0  0  0  0  0  0
   12.6002    3.6673    0.0000 H   0  0  0  0  0  0  0  0  0  0  0  0
   10.6603    2.5473    0.0000 H   0  0  0  0  0  0  0  0  0  0  0  0
   10.6603    2.1673    0.0000 H   0  0  0  0  0  0  0  0  0  0  0  0
   12.9292    3.4773    0.0000 H   0  0  0  0  0  0  0  0  0  0  0  0
   10.8681    0.6673    0.0000 H   0  0  0  0  0  0  0  0  0  0  0  0
   12.9292    1.2373    0.0000 H   0  0  0  0  0  0  0  0  0  0  0  0
    9.4651    0.4773    0.0000 H   0  0  0  0  0  0  0  0  0  0  0  0
   12.4093    5.1950    0.0000 H   0  0  0  0  0  0  0  0  0  0  0  0
   11.1972    0.4773    0.0000 H   0  0  0  0  0  0  0  0  0  0  0  0
   12.4549    5.6296    0.0000 H   0  0  0  0  0  0  0  0  0  0  0  0
    9.4651   -1.7627    0.0000 H   0  0  0  0  0  0  0  0  0  0  0  0
   11.1972   -1.7627    0.0000 H   0  0  0  0  0  0  0  0  0  0  0  0
   14.9268    4.7329    0.0000 H   0  0  0  0  0  0  0  0  0  0  0  0
   15.0135    5.5581    0.0000 H   0  0  0  0  0  0  0  0  0  0  0  0
   13.4853    0.8203    0.0000 H   0  0  0  0  0  0  0  0  0  0  0  0
   14.3322    1.0473    0.0000 H   0  0  0  0  0  0  0  0  0  0  0  0
   14.1053    1.8942    0.0000 H   0  0  0  0  0  0  0  0  0  0  0  0
   15.2765    7.0347    0.0000 H   0  0  0  0  0  0  0  0  0  0  0  0
   14.4794    7.0347    0.0000 H   0  0  0  0  0  0  0  0  0  0  0  0
    8.3871   -1.0601    0.0000 H   0  0  0  0  0  0  0  0  0  0  0  0
    7.9885   -1.7504    0.0000 H   0  0  0  0  0  0  0  0  0  0  0  0
   10.3312    3.9773    0.0000 H   0  0  0  0  0  0  0  0  0  0  0  0
   14.3322    3.0473    0.0000 H   0  0  0  0  0  0  0  0  0  0  0  0
   12.6002    0.0473    0.0000 H   0  0  0  0  0  0  0  0  0  0  0  0
   14.2648    7.4527    0.0000 H   0  0  0  0  0  0  0  0  0  0  0  0
   11.7010    6.3293    0.0000 H   0  0  0  0  0  0  0  0  0  0  0  0
   11.4526   -2.5351    0.0000 H   0  0  0  0  0  0  0  0  0  0  0  0
   11.8512   -3.2253    0.0000 H   0  0  0  0  0  0  0  0  0  0  0  0
   16.2809    6.3697    0.0000 H   0  0  0  0  0  0  0  0  0  0  0  0
    8.0622   -2.9527    0.0000 H   0  0  0  0  0  0  0  0  0  0  0  0
   13.5398   -3.2504    0.0000 H   0  0  0  0  0  0  0  0  0  0  0  0
   13.1413   -2.5601    0.0000 H   0  0  0  0  0  0  0  0  0  0  0  0
    6.8671    0.9773    0.0000 H   0  0  0  0  0  0  0  0  0  0  0  0
    6.0010   -0.7627    0.0000 H   0  0  0  0  0  0  0  0  0  0  0  0
   11.5263   -4.3327    0.0000 H   0  0  0  0  0  0  0  0  0  0  0  0
   14.3322   -4.3327    0.0000 H   0  0  0  0  0  0  0  0  0  0  0  0
   14.3322   -5.9527    0.0000 H   0  0  0  0  0  0  0  0  0  0  0  0
    5.6720    1.6673    0.0000 H   0  0  0  0  0  0  0  0  0  0  0  0
    4.2690   -0.7627    0.0000 H   0  0  0  0  0  0  0  0  0  0  0  0
   11.1972   -6.7627    0.0000 H   0  0  0  0  0  0  0  0  0  0  0  0
    2.8660    0.0473    0.0000 H   0  0  0  0  0  0  0  0  0  0  0  0
   13.4662   -7.4527    0.0000 H   0  0  0  0  0  0  0  0  0  0  0  0
    3.7320    3.1673    0.0000 H   0  0  0  0  0  0  0  0  0  0  0  0
    2.0000    1.5473    0.0000 H   0  0  0  0  0  0  0  0  0  0  0  0
 22  1  1  1  0  0  0
 24  1  1  6  0  0  0
 20  2  1  6  0  0  0
 27  2  1  1  0  0  0
  3 22  1  0  0  0  0
  3 25  1  0  0  0  0
  4 27  1  0  0  0  0
  4 33  1  0  0  0  0
  5 31  1  0  0  0  0
  5 32  1  0  0  0  0
 21  6  1  6  0  0  0
  6 75  1  0  0  0  0
 23  7  1  1  0  0  0
  7 76  1  0  0  0  0
 26  8  1  1  0  0  0
  8 38  1  0  0  0  0
 28  9  1  1  0  0  0
  9 77  1  0  0  0  0
 29 10  1  6  0  0  0
 10 78  1  0  0  0  0
 30 11  1  6  0  0  0
 11 79  1  0  0  0  0
 32 12  1  6  0  0  0
 12 37  1  0  0  0  0
 13 35  1  0  0  0  0
 13 82  1  0  0  0  0
 14 36  1  0  0  0  0
 14 83  1  0  0  0  0
 15 38  2  0  0  0  0
 16 46  1  0  0  0  0
 16 93  1  0  0  0  0
 17 48  1  0  0  0  0
 17 95  1  0  0  0  0
 18 51  1  0  0  0  0
 18 96  1  0  0  0  0
 19 53  1  0  0  0  0
 19 97  1  0  0  0  0
 20 21  1  0  0  0  0
 20 23  1  0  0  0  0
 20 54  1  0  0  0  0
 21 22  1  0  0  0  0
 21 55  1  0  0  0  0
 22 56  1  0  0  0  0
 23 25  1  0  0  0  0
 23 57  1  0  0  0  0
 24 26  1  0  0  0  0
 24 28  1  0  0  0  0
 24 58  1  0  0  0  0
 25 34  1  6  0  0  0
 25 59  1  0  0  0  0
 26 31  1  0  0  0  0
 26 60  1  0  0  0  0
 27 30  1  0  0  0  0
 27 61  1  0  0  0  0
 28 32  1  0  0  0  0
 28 62  1  0  0  0  0
 29 30  1  0  0  0  0
 29 33  1  0  0  0  0
 29 35  1  0  0  0  0
 30 63  1  0  0  0  0
 31 36  1  6  0  0  0
 31 64  1  0  0  0  0
 32 65  1  0  0  0  0
 33 66  1  0  0  0  0
 33 67  1  0  0  0  0
 34 68  1  0  0  0  0
 34 69  1  0  0  0  0
 34 70  1  0  0  0  0
 35 71  1  0  0  0  0
 35 72  1  0  0  0  0
 36 73  1  0  0  0  0
 36 74  1  0  0  0  0
 37 39  1  0  0  0  0
 37 80  1  0  0  0  0
 37 81  1  0  0  0  0
 38 40  1  0  0  0  0
 39 41  1  0  0  0  0
 39 84  1  0  0  0  0
 39 85  1  0  0  0  0
 40 42  2  0  0  0  0
 40 86  1  0  0  0  0
 41 43  2  0  0  0  0
 41 44  1  0  0  0  0
 42 45  1  0  0  0  0
 42 87  1  0  0  0  0
 43 46  1  0  0  0  0
 43 88  1  0  0  0  0
 44 47  2  0  0  0  0
 44 89  1  0  0  0  0
 45 49  2  0  0  0  0
 45 50  1  0  0  0  0
 46 48  2  0  0  0  0
 47 48  1  0  0  0  0
 47 90  1  0  0  0  0
 49 51  1  0  0  0  0
 49 91  1  0  0  0  0
 50 52  2  0  0  0  0
 50 92  1  0  0  0  0
 51 53  2  0  0  0  0
 52 53  1  0  0  0  0
 52 94  1  0  0  0  0
M  END
> <PUBCHEM_COMPOUND_CID>
5281784

> <PUBCHEM_COMPOUND_CANONICALIZED>
1

> <PUBCHEM_CACTVS_COMPLEXITY>
1190

> <PUBCHEM_CACTVS_HBOND_ACCEPTOR>
19

> <PUBCHEM_CACTVS_HBOND_DONOR>
11

> <PUBCHEM_CACTVS_ROTATABLE_BOND>
14

> <PUBCHEM_CACTVS_SUBSKEYS>
AAADcfB8PgAAAAAAAAAAAAAAAAAAASAAAAA0aIEAAAAAAAABQAAAGgAACAAADFSwmAMyDoAABgCIAiDSCAACAAAgIAAIiAAGiMgZNiKCMRKicAElwBEPuYfA4LwOIAABAAAAQABAAAIAAACAAAAAAAAAAA==

> <PUBCHEM_IUPAC_OPENEYE_NAME>
[(2R,3R,4R,5R,6R)-4-[(2S,3R,4R,5S,6S)-4-[(2S,3R,4R)-3,4-dihydroxy-4-(hydroxymethyl)tetrahydrofuran-2-yl]oxy-3,5-dihydroxy-6-methyl-tetrahydropyran-2-yl]oxy-6-[2-(3,4-dihydroxyphenyl)ethoxy]-5-hydroxy-2-(hydroxymethyl)tetrahydropyran-3-yl] (E)-3-(3,4-dihydroxyphenyl)prop-2-enoate

> <PUBCHEM_IUPAC_CAS_NAME>
(E)-3-(3,4-dihydroxyphenyl)-2-propenoic acid [(2R,3R,4R,5R,6R)-4-[[(2S,3R,4R,5S,6S)-4-[[(2S,3R,4R)-3,4-dihydroxy-4-(hydroxymethyl)-2-oxolanyl]oxy]-3,5-dihydroxy-6-methyl-2-oxanyl]oxy]-6-[2-(3,4-dihydroxyphenyl)ethoxy]-5-hydroxy-2-(hydroxymethyl)-3-oxanyl] ester

> <PUBCHEM_IUPAC_NAME>
[(2R,3R,4R,5R,6R)-4-[(2S,3R,4R,5S,6S)-4-[(2S,3R,4R)-3,4-dihydroxy-4-(hydroxymethyl)oxolan-2-yl]oxy-3,5-dihydroxy-6-methyloxan-2-yl]oxy-6-[2-(3,4-dihydroxyphenyl)ethoxy]-5-hydroxy-2-(hydroxymethyl)oxan-3-yl] (E)-3-(3,4-dihydroxyphenyl)prop-2-enoate

> <PUBCHEM_IUPAC_SYSTEMATIC_NAME>
[(2R,3R,4R,5R,6R)-6-[2-[3,4-bis(oxidanyl)phenyl]ethoxy]-2-(hydroxymethyl)-4-[(2S,3R,4R,5S,6S)-4-[(2S,3R,4R)-4-(hydroxymethyl)-3,4-bis(oxidanyl)oxolan-2-yl]oxy-6-methyl-3,5-bis(oxidanyl)oxan-2-yl]oxy-5-oxidanyl-oxan-3-yl] (E)-3-[3,4-bis(oxidanyl)phenyl]prop-2-enoate

> <PUBCHEM_IUPAC_TRADITIONAL_NAME>
(E)-3-(3,4-dihydroxyphenyl)acrylic acid [(2R,3R,4R,5R,6R)-4-[(2S,3R,4R,5S,6S)-4-[(2S,3R,4R)-3,4-dihydroxy-4-methylol-tetrahydrofuran-2-yl]oxy-3,5-dihydroxy-6-methyl-tetrahydropyran-2-yl]oxy-6-[2-(3,4-dihydroxyphenyl)ethoxy]-5-hydroxy-2-methylol-tetrahydropyran-3-yl] ester

> <PUBCHEM_IUPAC_INCHI>
InChI=1S/C34H44O19/c1-15-24(42)28(52-33-30(45)34(46,13-36)14-48-33)25(43)32(49-15)53-29-26(44)31(47-9-8-17-3-6-19(38)21(40)11-17)50-22(12-35)27(29)51-23(41)7-4-16-2-5-18(37)20(39)10-16/h2-7,10-11,15,22,24-33,35-40,42-46H,8-9,12-14H2,1H3/b7-4+/t15-,22+,24-,25+,26+,27+,28+,29+,30-,31+,32-,33-,34+/m0/s1

> <PUBCHEM_IUPAC_INCHIKEY>
KAKUSAKVVYFENV-SBLIKUSGSA-N

> <PUBCHEM_XLOGP3_AA>
-1.7

> <PUBCHEM_EXACT_MASS>
756.247679

> <PUBCHEM_MOLECULAR_FORMULA>
C34H44O19

> <PUBCHEM_MOLECULAR_WEIGHT>
756.70176

> <PUBCHEM_OPENEYE_CAN_SMILES>
CC1C(C(C(C(O1)OC2C(C(OC(C2OC(=O)C=CC3=CC(=C(C=C3)O)O)CO)OCCC4=CC(=C(C=C4)O)O)O)O)OC5C(C(CO5)(CO)O)O)O

> <PUBCHEM_OPENEYE_ISO_SMILES>
C[C@H]1[C@@H]([C@H]([C@H]([C@@H](O1)O[C@@H]2[C@H]([C@@H](O[C@@H]([C@H]2OC(=O)/C=C/C3=CC(=C(C=C3)O)O)CO)OCCC4=CC(=C(C=C4)O)O)O)O)O[C@H]5[C@@H]([C@](CO5)(CO)O)O)O

> <PUBCHEM_CACTVS_TPSA>
304

> <PUBCHEM_MONOISOTOPIC_WEIGHT>
756.247679

> <PUBCHEM_TOTAL_CHARGE>
0

> <PUBCHEM_HEAVY_ATOM_COUNT>
53

> <PUBCHEM_ATOM_DEF_STEREO_COUNT>
13

> <PUBCHEM_ATOM_UDEF_STEREO_COUNT>
0

> <PUBCHEM_BOND_DEF_STEREO_COUNT>
1

> <PUBCHEM_BOND_UDEF_STEREO_COUNT>
0

> <PUBCHEM_ISOTOPIC_ATOM_COUNT>
0

> <PUBCHEM_COMPONENT_COUNT>
1

> <PUBCHEM_CACTVS_TAUTO_COUNT>
288

> <PUBCHEM_COORDINATE_TYPE>
1
5
255

> <PUBCHEM_BONDANNOTATIONS>
22  1  5
24  1  6
29  10  6
30  11  6
32  12  6
20  2  6
27  2  5
25  34  6
31  36  6
41  43  8
41  44  8
43  46  8
44  47  8
45  49  8
45  50  8
46  48  8
47  48  8
49  51  8
50  52  8
51  53  8
52  53  8
21  6  6
23  7  5
26  8  5
28  9  5

$$$$

