5281661
  -OEChem-07051212583D

 30 32  0     0  0  0  0  0  0999 V2000
    0.0454    1.7406    0.0004 O   0  0  0  0  0  0  0  0  0  0  0  0
   -4.6662    1.2102   -0.0003 O   0  0  0  0  0  0  0  0  0  0  0  0
   -1.9605   -2.6889    0.0002 O   0  0  0  0  0  0  0  0  0  0  0  0
    0.6250   -2.3099   -0.0003 O   0  0  0  0  0  0  0  0  0  0  0  0
    3.2033   -1.9505    0.0004 O   0  0  0  0  0  0  0  0  0  0  0  0
    5.2462   -0.1311   -0.0006 O   0  0  0  0  0  0  0  0  0  0  0  0
   -0.8955   -0.5130    0.0002 C   0  0  0  0  0  0  0  0  0  0  0  0
    1.5821   -0.1574    0.0002 C   0  0  0  0  0  0  0  0  0  0  0  0
   -1.0214    0.8759    0.0004 C   0  0  0  0  0  0  0  0  0  0  0  0
    1.3123    1.2108    0.0003 C   0  0  0  0  0  0  0  0  0  0  0  0
    0.4530   -1.1002    0.0002 C   0  0  0  0  0  0  0  0  0  0  0  0
   -2.0301   -1.3286   -0.0001 C   0  0  0  0  0  0  0  0  0  0  0  0
    2.9004   -0.6211    0.0000 C   0  0  0  0  0  0  0  0  0  0  0  0
   -2.2922    1.4546    0.0003 C   0  0  0  0  0  0  0  0  0  0  0  0
    2.3692    2.1235    0.0000 C   0  0  0  0  0  0  0  0  0  0  0  0
   -3.4281    0.6443    0.0001 C   0  0  0  0  0  0  0  0  0  0  0  0
   -3.2970   -0.7446   -0.0002 C   0  0  0  0  0  0  0  0  0  0  0  0
    3.9519    0.2956   -0.0003 C   0  0  0  0  0  0  0  0  0  0  0  0
    3.6871    1.6653   -0.0003 C   0  0  0  0  0  0  0  0  0  0  0  0
   -5.7848    0.3245   -0.0005 C   0  0  0  0  0  0  0  0  0  0  0  0
   -2.3993    2.5367    0.0004 H   0  0  0  0  0  0  0  0  0  0  0  0
    2.1740    3.1926    0.0000 H   0  0  0  0  0  0  0  0  0  0  0  0
   -4.1439   -1.4233   -0.0003 H   0  0  0  0  0  0  0  0  0  0  0  0
    4.5040    2.3819   -0.0005 H   0  0  0  0  0  0  0  0  0  0  0  0
   -1.0365   -2.9819    0.0007 H   0  0  0  0  0  0  0  0  0  0  0  0
    4.0687   -2.0874    0.4196 H   0  0  0  0  0  0  0  0  0  0  0  0
    5.2917   -1.0288   -0.3682 H   0  0  0  0  0  0  0  0  0  0  0  0
   -5.8160   -0.2846   -0.9103 H   0  0  0  0  0  0  0  0  0  0  0  0
   -6.6873    0.9443   -0.0006 H   0  0  0  0  0  0  0  0  0  0  0  0
   -5.8163   -0.2847    0.9093 H   0  0  0  0  0  0  0  0  0  0  0  0
  1  9  1  0  0  0  0
  1 10  1  0  0  0  0
  2 16  1  0  0  0  0
  2 20  1  0  0  0  0
  3 12  1  0  0  0  0
  3 25  1  0  0  0  0
  4 11  2  0  0  0  0
  5 13  1  0  0  0  0
  5 26  1  0  0  0  0
  6 18  1  0  0  0  0
  6 27  1  0  0  0  0
  7  9  1  0  0  0  0
  7 11  1  0  0  0  0
  7 12  2  0  0  0  0
  8 10  2  0  0  0  0
  8 11  1  0  0  0  0
  8 13  1  0  0  0  0
  9 14  2  0  0  0  0
 10 15  1  0  0  0  0
 12 17  1  0  0  0  0
 13 18  2  0  0  0  0
 14 16  1  0  0  0  0
 14 21  1  0  0  0  0
 15 19  2  0  0  0  0
 15 22  1  0  0  0  0
 16 17  2  0  0  0  0
 17 23  1  0  0  0  0
 18 19  1  0  0  0  0
 19 24  1  0  0  0  0
 20 28  1  0  0  0  0
 20 29  1  0  0  0  0
 20 30  1  0  0  0  0
M  END
> <PUBCHEM_COMPOUND_CID>
5281661

> <PUBCHEM_CONFORMER_RMSD>
0.6

> <PUBCHEM_CONFORMER_DIVERSEORDER>
1

> <PUBCHEM_MMFF94_PARTIAL_CHARGES>
27
1 -0.17
10 0.08
11 0.4
12 0.08
13 0.08
14 -0.15
15 -0.15
16 0.08
17 -0.15
18 0.08
19 -0.15
2 -0.36
20 0.28
21 0.15
22 0.15
23 0.15
24 0.15
25 0.45
26 0.45
27 0.45
3 -0.53
4 -0.57
5 -0.53
6 -0.53
7 0.09
8 0.09
9 0.08

> <PUBCHEM_EFFECTIVE_ROTOR_COUNT>
1

> <PUBCHEM_PHARMACOPHORE_FEATURES>
9
1 1 acceptor
1 2 acceptor
1 3 donor
1 4 acceptor
1 5 donor
1 6 donor
6 1 7 8 9 10 11 rings
6 7 9 12 14 16 17 rings
6 8 10 13 15 18 19 rings

> <PUBCHEM_HEAVY_ATOM_COUNT>
20

> <PUBCHEM_ATOM_DEF_STEREO_COUNT>
0

> <PUBCHEM_ATOM_UDEF_STEREO_COUNT>
0

> <PUBCHEM_BOND_DEF_STEREO_COUNT>
0

> <PUBCHEM_BOND_UDEF_STEREO_COUNT>
0

> <PUBCHEM_ISOTOPIC_ATOM_COUNT>
0

> <PUBCHEM_COMPONENT_COUNT>
1

> <PUBCHEM_CACTVS_TAUTO_COUNT>
48

> <PUBCHEM_CONFORMER_ID>
0050977D00000001

> <PUBCHEM_MMFF94_ENERGY>
73.2366

> <PUBCHEM_FEATURE_SELFOVERLAP>
45.732

> <PUBCHEM_SHAPE_FINGERPRINT>
10062212 137 18337963298200067802
10411042 1 17473825503662938059
10608611 8 18338238163269550216
10616163 171 18337107856700063662
10967382 1 18410575106227618660
11132069 177 18410859836879379520
11471102 20 18410577309519571773
12011746 2 18410853291196116388
12236239 1 17748827427697114281
12251169 10 18411699889363836556
12403814 3 17846784018248599629
12592029 89 18342739653972884011
12838862 33 18338817666127332456
13140716 1 18339366266425751920
13380535 76 18409165519705141231
13583140 156 16773529814791728001
138480 1 17690280830036479587
14115302 16 18342448223246325652
14790565 3 18338227258564396209
15099037 51 18410011048146274373
15196674 1 18338798905477613732
15442244 35 18337953518886231762
15536298 74 18334857203937714084
16945 1 18338517550781092868
17804303 29 18409726231722183924
18186145 218 18131079207634495156
19591789 44 18195527218961445959
200 152 17967818249565092949
20510252 161 18188771785324702241
20645477 70 18335983159373228743
21267235 1 18410284830789104454
21279426 13 18194682806895162845
21421861 104 17845102933815794834
21478907 32 17904486199770705055
21501502 16 18339082570940418942
221490 88 18268422439492031664
2334 1 18266458706949873312
23402539 116 18261118456251560941
23463225 33 18412545414106361124
23558518 356 17841152147407077322
23559900 14 18334296444844959688
2748010 2 18338795602679392238
3004659 81 18271801363906239878
335352 9 18410855464934799958
34934 24 18410016515898228330
350125 39 18411980269214103228
3545911 37 18410291406378727404
4214541 1 18410573959634913409
474 4 17989201512630747588
495365 180 17458637674569477408
5104073 3 18339080384781090568
633830 44 17489308525608979568
69090 78 18409732859209857205
7364860 26 18335982081468481438
7832392 63 18337676317217396684
8809292 202 18270960150540786122
9709674 26 18408880711628379534
9981440 41 17405146223420327888

> <PUBCHEM_SHAPE_MULTIPOLES>
376.37
9.37
2.3
0.59
3.68
0.69
0
-1.87
0
-0.38
0
0.01
-0.02
0

> <PUBCHEM_SHAPE_SELFOVERLAP>
849.181

> <PUBCHEM_SHAPE_VOLUME>
197

> <PUBCHEM_COORDINATE_TYPE>
2
5
10

$$$$

