439935
  -OEChem-07051212482D

 75 78  0     0  0  0  0  0  0999 V2000
    8.8575   -1.1532    0.0000 Zn  0  2  0  0  0  0  0  0  0  0  0  0
    7.9909    5.2169    0.0000 O   0  0  0  0  0  0  0  0  0  0  0  0
    6.5959    4.1902    0.0000 O   0  0  0  0  0  0  0  0  0  0  0  0
    2.4934   -0.1996    0.0000 O   0  0  0  0  0  0  0  0  0  0  0  0
    3.5422    1.1788    0.0000 O   0  0  0  0  0  0  0  0  0  0  0  0
    8.8626    0.2103    0.0000 N   0  5  0  0  0  0  0  0  0  0  0  0
    8.8953   -2.4628    0.0000 N   0  5  0  0  0  0  0  0  0  0  0  0
    7.4280   -1.1262    0.0000 N   0  0  0  0  0  0  0  0  0  0  0  0
   10.3609   -1.1262    0.0000 N   0  0  0  0  0  0  0  0  0  0  0  0
    8.3741    1.7740    0.0000 C   0  0  0  0  0  0  0  0  0  0  0  0
    8.0799    0.8295    0.0000 C   0  0  0  0  0  0  0  0  0  0  0  0
    9.6779    0.8623    0.0000 C   0  0  0  0  0  0  0  0  0  0  0  0
    9.3512    1.7740    0.0000 C   0  0  0  0  0  0  0  0  0  0  0  0
    8.1126   -3.0821    0.0000 C   0  0  0  0  0  0  0  0  0  0  0  0
    7.7814    2.5794    0.0000 C   0  0  0  0  0  0  0  0  0  0  0  0
    9.6779   -3.0494    0.0000 C   0  0  0  0  0  0  0  0  0  0  0  0
    7.1356    0.5681    0.0000 C   0  0  0  0  0  0  0  0  0  0  0  0
    6.8742   -0.3763    0.0000 C   0  0  0  0  0  0  0  0  0  0  0  0
    5.9297   -0.6377    0.0000 C   0  0  0  0  0  0  0  0  0  0  0  0
    9.3839   -3.9938    0.0000 C   0  0  0  0  0  0  0  0  0  0  0  0
    8.4067   -3.9938    0.0000 C   0  0  0  0  0  0  0  0  0  0  0  0
    5.9297   -1.6147    0.0000 C   0  0  0  0  0  0  0  0  0  0  0  0
    6.8742   -1.8762    0.0000 C   0  0  0  0  0  0  0  0  0  0  0  0
   10.6223    0.5681    0.0000 C   0  0  0  0  0  0  0  0  0  0  0  0
    7.1682   -2.7880    0.0000 C   0  0  0  0  0  0  0  0  0  0  0  0
    5.1339   -0.0322    0.0000 C   0  0  0  0  0  0  0  0  0  0  0  0
   10.9148   -0.3436    0.0000 C   0  0  0  0  0  0  0  0  0  0  0  0
    9.9268    2.5917    0.0000 C   0  0  0  0  0  0  0  0  0  0  0  0
   10.6550   -2.7880    0.0000 C   0  0  0  0  0  0  0  0  0  0  0  0
    8.1825    3.4954    0.0000 C   0  0  0  0  0  0  0  0  0  0  0  0
   10.9475   -1.8435    0.0000 C   0  0  0  0  0  0  0  0  0  0  0  0
   11.8608   -0.6051    0.0000 C   0  0  0  0  0  0  0  0  0  0  0  0
   11.8608   -1.5821    0.0000 C   0  0  0  0  0  0  0  0  0  0  0  0
    9.9766   -4.7992    0.0000 C   0  0  0  0  0  0  0  0  0  0  0  0
    5.1338   -2.2202    0.0000 C   0  0  0  0  0  0  0  0  0  0  0  0
    4.2116   -0.4187    0.0000 C   0  0  0  0  0  0  0  0  0  0  0  0
    7.8181   -4.8023    0.0000 C   0  0  0  0  0  0  0  0  0  0  0  0
   12.6565    0.0005    0.0000 C   0  0  0  0  0  0  0  0  0  0  0  0
    7.5898    4.3008    0.0000 C   0  0  0  0  0  0  0  0  0  0  0  0
   12.6593   -2.1841    0.0000 C   0  0  0  0  0  0  0  0  0  0  0  0
    3.4157    0.1869    0.0000 C   0  0  0  0  0  0  0  0  0  0  0  0
    8.2239   -5.7162    0.0000 C   0  0  0  0  0  0  0  0  0  0  0  0
   13.5799   -1.7936    0.0000 C   0  0  0  0  0  0  0  0  0  0  0  0
    7.2652    2.9230    0.0000 H   0  0  0  0  0  0  0  0  0  0  0  0
    7.3534    2.1308    0.0000 H   0  0  0  0  0  0  0  0  0  0  0  0
    6.6972    1.0065    0.0000 H   0  0  0  0  0  0  0  0  0  0  0  0
   11.0588    1.0084    0.0000 H   0  0  0  0  0  0  0  0  0  0  0  0
    6.7320   -3.2286    0.0000 H   0  0  0  0  0  0  0  0  0  0  0  0
    5.5893    0.3885    0.0000 H   0  0  0  0  0  0  0  0  0  0  0  0
    4.7986    0.4893    0.0000 H   0  0  0  0  0  0  0  0  0  0  0  0
   10.4338    2.2348    0.0000 H   0  0  0  0  0  0  0  0  0  0  0  0
   10.2836    3.0987    0.0000 H   0  0  0  0  0  0  0  0  0  0  0  0
    9.4198    2.9486    0.0000 H   0  0  0  0  0  0  0  0  0  0  0  0
   11.0848   -3.2348    0.0000 H   0  0  0  0  0  0  0  0  0  0  0  0
    8.6986    3.1519    0.0000 H   0  0  0  0  0  0  0  0  0  0  0  0
    8.6105    3.9440    0.0000 H   0  0  0  0  0  0  0  0  0  0  0  0
    9.4773   -5.1667    0.0000 H   0  0  0  0  0  0  0  0  0  0  0  0
   10.3442   -5.2985    0.0000 H   0  0  0  0  0  0  0  0  0  0  0  0
   10.4760   -4.4317    0.0000 H   0  0  0  0  0  0  0  0  0  0  0  0
    4.7584   -1.7268    0.0000 H   0  0  0  0  0  0  0  0  0  0  0  0
    4.6404   -2.5956    0.0000 H   0  0  0  0  0  0  0  0  0  0  0  0
    5.5092   -2.7136    0.0000 H   0  0  0  0  0  0  0  0  0  0  0  0
    3.7562   -0.8394    0.0000 H   0  0  0  0  0  0  0  0  0  0  0  0
    4.5468   -0.9402    0.0000 H   0  0  0  0  0  0  0  0  0  0  0  0
    7.2015   -4.7368    0.0000 H   0  0  0  0  0  0  0  0  0  0  0  0
   13.0320   -0.4928    0.0000 H   0  0  0  0  0  0  0  0  0  0  0  0
   13.1499    0.3760    0.0000 H   0  0  0  0  0  0  0  0  0  0  0  0
   12.2810    0.4939    0.0000 H   0  0  0  0  0  0  0  0  0  0  0  0
   12.5836   -2.7995    0.0000 H   0  0  0  0  0  0  0  0  0  0  0  0
    7.8589   -6.2174    0.0000 H   0  0  0  0  0  0  0  0  0  0  0  0
    8.8404   -5.7816    0.0000 H   0  0  0  0  0  0  0  0  0  0  0  0
   14.0749   -2.1668    0.0000 H   0  0  0  0  0  0  0  0  0  0  0  0
   13.6556   -1.1782    0.0000 H   0  0  0  0  0  0  0  0  0  0  0  0
    7.6235    5.7162    0.0000 H   0  0  0  0  0  0  0  0  0  0  0  0
    2.0000    0.1758    0.0000 H   0  0  0  0  0  0  0  0  0  0  0  0
  2 39  1  0  0  0  0
  2 74  1  0  0  0  0
  3 39  2  0  0  0  0
  4 41  1  0  0  0  0
  4 75  1  0  0  0  0
  5 41  2  0  0  0  0
  6 11  1  0  0  0  0
  6 12  1  0  0  0  0
  7 14  1  0  0  0  0
  7 16  1  0  0  0  0
  8 18  1  0  0  0  0
  8 23  2  0  0  0  0
  9 27  1  0  0  0  0
  9 31  2  0  0  0  0
 10 11  2  0  0  0  0
 10 13  1  0  0  0  0
 10 15  1  0  0  0  0
 11 17  1  0  0  0  0
 12 13  2  0  0  0  0
 12 24  1  0  0  0  0
 13 28  1  0  0  0  0
 14 21  1  0  0  0  0
 14 25  2  0  0  0  0
 15 30  1  0  0  0  0
 15 44  1  0  0  0  0
 15 45  1  0  0  0  0
 16 20  1  0  0  0  0
 16 29  2  0  0  0  0
 17 18  2  0  0  0  0
 17 46  1  0  0  0  0
 18 19  1  0  0  0  0
 19 22  2  0  0  0  0
 19 26  1  0  0  0  0
 20 21  2  0  0  0  0
 20 34  1  0  0  0  0
 21 37  1  0  0  0  0
 22 23  1  0  0  0  0
 22 35  1  0  0  0  0
 23 25  1  0  0  0  0
 24 27  2  0  0  0  0
 24 47  1  0  0  0  0
 25 48  1  0  0  0  0
 26 36  1  0  0  0  0
 26 49  1  0  0  0  0
 26 50  1  0  0  0  0
 27 32  1  0  0  0  0
 28 51  1  0  0  0  0
 28 52  1  0  0  0  0
 28 53  1  0  0  0  0
 29 31  1  0  0  0  0
 29 54  1  0  0  0  0
 30 39  1  0  0  0  0
 30 55  1  0  0  0  0
 30 56  1  0  0  0  0
 31 33  1  0  0  0  0
 32 33  2  0  0  0  0
 32 38  1  0  0  0  0
 33 40  1  0  0  0  0
 34 57  1  0  0  0  0
 34 58  1  0  0  0  0
 34 59  1  0  0  0  0
 35 60  1  0  0  0  0
 35 61  1  0  0  0  0
 35 62  1  0  0  0  0
 36 41  1  0  0  0  0
 36 63  1  0  0  0  0
 36 64  1  0  0  0  0
 37 42  2  0  0  0  0
 37 65  1  0  0  0  0
 38 66  1  0  0  0  0
 38 67  1  0  0  0  0
 38 68  1  0  0  0  0
 40 43  2  0  0  0  0
 40 69  1  0  0  0  0
 42 70  1  0  0  0  0
 42 71  1  0  0  0  0
 43 72  1  0  0  0  0
 43 73  1  0  0  0  0
M  CHG  3   1   2   6  -1   7  -1
M  END
> <PUBCHEM_COMPOUND_CID>
439935

> <PUBCHEM_COMPOUND_CANONICALIZED>
1

> <PUBCHEM_CACTVS_COMPLEXITY>
1580

> <PUBCHEM_CACTVS_HBOND_ACCEPTOR>
8

> <PUBCHEM_CACTVS_HBOND_DONOR>
2

> <PUBCHEM_CACTVS_ROTATABLE_BOND>
8

> <PUBCHEM_CACTVS_SUBSKEYS>
AAADcfB/uAAAAAACAAAAAAAAAAAAAWIECAAAAAAAAAAAAACBgAAAHgAACAAADAiBngACiJIIEgCoAyTyTACCgCAhAiAImCEwRJgIIHLAkJGEQAhkgADIyAeY2TOegAAAAAAAAAAAAAAAAAAAAAAAAAAAAA==

> <PUBCHEM_IUPAC_OPENEYE_NAME>
zinc 3-[18-(2-carboxyethyl)-3,7,12,17-tetramethyl-8,13-divinyl-porphyrin-21,23-diid-2-yl]propanoic acid

> <PUBCHEM_IUPAC_CAS_NAME>
zinc 3-[18-(2-carboxyethyl)-8,13-bis(ethenyl)-3,7,12,17-tetramethyl-2-porphyrin-21,23-diidyl]propanoic acid

> <PUBCHEM_IUPAC_NAME>
zinc 3-[18-(2-carboxyethyl)-8,13-bis(ethenyl)-3,7,12,17-tetramethylporphyrin-21,23-diid-2-yl]propanoic acid

> <PUBCHEM_IUPAC_SYSTEMATIC_NAME>
zinc 3-[8,13-bis(ethenyl)-18-(3-hydroxy-3-oxopropyl)-3,7,12,17-tetramethyl-porphyrin-21,23-diid-2-yl]propanoic acid

> <PUBCHEM_IUPAC_TRADITIONAL_NAME>
zinc 3-[18-(2-carboxyethyl)-3,7,12,17-tetramethyl-8,13-divinyl-porphine-21,23-diid-2-yl]propionic acid

> <PUBCHEM_IUPAC_INCHI>
InChI=1S/C34H34N4O4.Zn/c1-7-21-17(3)25-13-26-19(5)23(9-11-33(39)40)31(37-26)16-32-24(10-12-34(41)42)20(6)28(38-32)15-30-22(8-2)18(4)27(36-30)14-29(21)35-25;/h7-8,13-16H,1-2,9-12H2,3-6H3,(H4,35,36,37,38,39,40,41,42);/q;+2/p-2

> <PUBCHEM_IUPAC_INCHIKEY>
FUTVBRXUIKZACV-UHFFFAOYSA-L

> <PUBCHEM_EXACT_MASS>
624.171498

> <PUBCHEM_MOLECULAR_FORMULA>
C34H32N4O4Zn

> <PUBCHEM_MOLECULAR_WEIGHT>
626.02228

> <PUBCHEM_OPENEYE_CAN_SMILES>
CC1=C(C2=CC3=NC(=CC4=C(C(=C([N-]4)C=C5C(=C(C(=N5)C=C1[N-]2)C=C)C)C)CCC(=O)O)C(=C3C)CCC(=O)O)C=C.[Zn+2]

> <PUBCHEM_OPENEYE_ISO_SMILES>
CC1=C(C2=CC3=NC(=CC4=C(C(=C([N-]4)C=C5C(=C(C(=N5)C=C1[N-]2)C=C)C)C)CCC(=O)O)C(=C3C)CCC(=O)O)C=C.[Zn+2]

> <PUBCHEM_CACTVS_TPSA>
101

> <PUBCHEM_MONOISOTOPIC_WEIGHT>
624.171498

> <PUBCHEM_TOTAL_CHARGE>
0

> <PUBCHEM_HEAVY_ATOM_COUNT>
43

> <PUBCHEM_ATOM_DEF_STEREO_COUNT>
0

> <PUBCHEM_ATOM_UDEF_STEREO_COUNT>
0

> <PUBCHEM_BOND_DEF_STEREO_COUNT>
0

> <PUBCHEM_BOND_UDEF_STEREO_COUNT>
0

> <PUBCHEM_ISOTOPIC_ATOM_COUNT>
0

> <PUBCHEM_COMPONENT_COUNT>
2

> <PUBCHEM_CACTVS_TAUTO_COUNT>
3

> <PUBCHEM_NONSTANDARDBOND>
1  6  6
1  7  6

> <PUBCHEM_COORDINATE_TYPE>
1
5
255

> <PUBCHEM_BONDANNOTATIONS>
10  11  8
10  13  8
11  17  8
12  13  8
12  24  8
14  21  8
14  25  8
16  20  8
16  29  8
17  18  8
20  21  8
23  25  8
24  27  8
29  31  8
6  11  8
6  12  8
7  14  8
7  16  8
8  18  8
8  23  8
9  27  8
9  31  8

$$$$

