95155
  -OEChem-07051212473D

 18 17  0     0  0  0  0  0  0999 V2000
   -3.4042   -0.3195    1.0671 O   0  0  0  0  0  0  0  0  0  0  0  0
    3.3665   -0.2724    0.3987 O   0  0  0  0  0  0  0  0  0  0  0  0
   -2.9098   -0.0493   -1.1328 O   0  0  0  0  0  0  0  0  0  0  0  0
    1.7401   -1.7190   -0.2426 O   0  0  0  0  0  0  0  0  0  0  0  0
   -0.1673    0.3965   -0.6257 C   0  0  0  0  0  0  0  0  0  0  0  0
   -1.1403    0.1459    0.5288 C   0  0  0  0  0  0  0  0  0  0  0  0
    1.2432    0.6210   -0.1404 C   0  0  0  0  0  0  0  0  0  0  0  0
   -2.5525   -0.0767    0.0366 C   0  0  0  0  0  0  0  0  0  0  0  0
    2.1150   -0.5779   -0.0138 C   0  0  0  0  0  0  0  0  0  0  0  0
    1.7093    1.8513    0.1241 C   0  0  0  0  0  0  0  0  0  0  0  0
   -0.5040    1.2717   -1.1983 H   0  0  0  0  0  0  0  0  0  0  0  0
   -0.1973   -0.4375   -1.3382 H   0  0  0  0  0  0  0  0  0  0  0  0
   -1.1506    1.0072    1.2067 H   0  0  0  0  0  0  0  0  0  0  0  0
   -0.8339   -0.7441    1.0904 H   0  0  0  0  0  0  0  0  0  0  0  0
    1.0665    2.7195    0.0124 H   0  0  0  0  0  0  0  0  0  0  0  0
    2.7222    2.0457    0.4579 H   0  0  0  0  0  0  0  0  0  0  0  0
   -4.3227   -0.4659    0.7552 H   0  0  0  0  0  0  0  0  0  0  0  0
    3.9304   -1.0704    0.4847 H   0  0  0  0  0  0  0  0  0  0  0  0
  1  8  1  0  0  0  0
  1 17  1  0  0  0  0
  2  9  1  0  0  0  0
  2 18  1  0  0  0  0
  3  8  2  0  0  0  0
  4  9  2  0  0  0  0
  5  6  1  0  0  0  0
  5  7  1  0  0  0  0
  5 11  1  0  0  0  0
  5 12  1  0  0  0  0
  6  8  1  0  0  0  0
  6 13  1  0  0  0  0
  6 14  1  0  0  0  0
  7  9  1  0  0  0  0
  7 10  2  0  0  0  0
 10 15  1  0  0  0  0
 10 16  1  0  0  0  0
M  END
> <PUBCHEM_COMPOUND_CID>
95155

> <PUBCHEM_CONFORMER_RMSD>
0.6

> <PUBCHEM_CONFORMER_DIVERSEORDER>
1
29
7
11
26
15
27
5
13
20
12
2
18
17
28
10
6
21
16
8
25
4
9
3
19
22
30
14
23
24

> <PUBCHEM_MMFF94_PARTIAL_CHARGES>
14
1 -0.65
10 -0.3
15 0.15
16 0.15
17 0.5
18 0.5
2 -0.65
3 -0.57
4 -0.57
5 0.14
6 0.06
7 -0.12
8 0.66
9 0.71

> <PUBCHEM_EFFECTIVE_ROTOR_COUNT>
4

> <PUBCHEM_PHARMACOPHORE_FEATURES>
7
1 1 acceptor
1 10 hydrophobe
1 2 acceptor
1 3 acceptor
1 4 acceptor
3 1 3 8 anion
3 2 4 9 anion

> <PUBCHEM_HEAVY_ATOM_COUNT>
10

> <PUBCHEM_ATOM_DEF_STEREO_COUNT>
0

> <PUBCHEM_ATOM_UDEF_STEREO_COUNT>
0

> <PUBCHEM_BOND_DEF_STEREO_COUNT>
0

> <PUBCHEM_BOND_UDEF_STEREO_COUNT>
0

> <PUBCHEM_ISOTOPIC_ATOM_COUNT>
0

> <PUBCHEM_COMPONENT_COUNT>
1

> <PUBCHEM_CACTVS_TAUTO_COUNT>
1

> <PUBCHEM_CONFORMER_ID>
000173B300000001

> <PUBCHEM_MMFF94_ENERGY>
12.1009

> <PUBCHEM_FEATURE_SELFOVERLAP>
35.637

> <PUBCHEM_SHAPE_FINGERPRINT>
10219947 1 18408328787203601282
12932741 1 17775010067976983541
12932764 1 18114177510729490285
20201158 50 18272373095917826882
20645477 70 18411426107159200887
20715346 28 17846219908522080829
20871998 22 18044367464682868558
29004967 10 18411701027915259424
3248919 1 18413110545913757377

> <PUBCHEM_SHAPE_MULTIPOLES>
182.32
5.25
1.31
0.87
2.43
0.15
0.03
-0.84
-0.66
-1.21
0.01
0.59
0
0.12

> <PUBCHEM_SHAPE_SELFOVERLAP>
351.153

> <PUBCHEM_SHAPE_VOLUME>
110.4

> <PUBCHEM_COORDINATE_TYPE>
2
5
10

$$$$

