17395416
  -OEChem-06241222502D

 44 47  0     0  0  0  0  0  0999 V2000
   10.8007    0.7680    0.0000 O   0  0  0  0  0  0  0  0  0  0  0  0
    7.7619   -0.5980    0.0000 O   0  0  0  0  0  0  0  0  0  0  0  0
    4.6783    2.8048    0.0000 N   0  0  0  0  0  0  0  0  0  0  0  0
    7.7619    1.1341    0.0000 N   0  0  0  0  0  0  0  0  0  0  0  0
    4.6783    1.1954    0.0000 N   0  0  0  0  0  0  0  0  0  0  0  0
   10.8007   -0.2320    0.0000 N   0  0  0  0  0  0  0  0  0  0  0  0
    6.2619    2.0001    0.0000 C   0  0  0  0  0  0  0  0  0  0  0  0
    6.7619    1.1341    0.0000 C   0  0  0  0  0  0  0  0  0  0  0  0
    5.2619    2.0001    0.0000 C   0  0  0  0  0  0  0  0  0  0  0  0
    3.7320    2.5001    0.0000 C   0  0  0  0  0  0  0  0  0  0  0  0
    3.7320    1.5001    0.0000 C   0  0  0  0  0  0  0  0  0  0  0  0
    9.2619    0.2680    0.0000 C   0  0  0  0  0  0  0  0  0  0  0  0
    8.2619    0.2680    0.0000 C   0  0  0  0  0  0  0  0  0  0  0  0
    9.8497   -0.5410    0.0000 C   0  0  0  0  0  0  0  0  0  0  0  0
    9.8497    1.0771    0.0000 C   0  0  0  0  0  0  0  0  0  0  0  0
    2.8660    3.0001    0.0000 C   0  0  0  0  0  0  0  0  0  0  0  0
    2.8660    1.0001    0.0000 C   0  0  0  0  0  0  0  0  0  0  0  0
    9.5406   -1.4920    0.0000 C   0  0  0  0  0  0  0  0  0  0  0  0
    2.0000    2.5001    0.0000 C   0  0  0  0  0  0  0  0  0  0  0  0
    2.0000    1.5001    0.0000 C   0  0  0  0  0  0  0  0  0  0  0  0
    9.5406    2.0281    0.0000 C   0  0  0  0  0  0  0  0  0  0  0  0
    8.5625   -1.6999    0.0000 C   0  0  0  0  0  0  0  0  0  0  0  0
   10.2098   -2.2352    0.0000 C   0  0  0  0  0  0  0  0  0  0  0  0
    8.2535   -2.6510    0.0000 C   0  0  0  0  0  0  0  0  0  0  0  0
    9.9008   -3.1862    0.0000 C   0  0  0  0  0  0  0  0  0  0  0  0
    8.9226   -3.3942    0.0000 C   0  0  0  0  0  0  0  0  0  0  0  0
    6.8445    2.2121    0.0000 H   0  0  0  0  0  0  0  0  0  0  0  0
    6.1542    2.6107    0.0000 H   0  0  0  0  0  0  0  0  0  0  0  0
    6.1793    0.9220    0.0000 H   0  0  0  0  0  0  0  0  0  0  0  0
    6.8695    0.5235    0.0000 H   0  0  0  0  0  0  0  0  0  0  0  0
    4.8709    3.3942    0.0000 H   0  0  0  0  0  0  0  0  0  0  0  0
    8.0719    1.6710    0.0000 H   0  0  0  0  0  0  0  0  0  0  0  0
    2.8660    3.6201    0.0000 H   0  0  0  0  0  0  0  0  0  0  0  0
    2.8660    0.3801    0.0000 H   0  0  0  0  0  0  0  0  0  0  0  0
    1.4631    2.8101    0.0000 H   0  0  0  0  0  0  0  0  0  0  0  0
    1.4631    1.1901    0.0000 H   0  0  0  0  0  0  0  0  0  0  0  0
   10.1303    2.2197    0.0000 H   0  0  0  0  0  0  0  0  0  0  0  0
    9.3491    2.6178    0.0000 H   0  0  0  0  0  0  0  0  0  0  0  0
    8.9510    1.8365    0.0000 H   0  0  0  0  0  0  0  0  0  0  0  0
    8.1476   -1.2392    0.0000 H   0  0  0  0  0  0  0  0  0  0  0  0
   10.8162   -2.1063    0.0000 H   0  0  0  0  0  0  0  0  0  0  0  0
    7.6470   -2.7799    0.0000 H   0  0  0  0  0  0  0  0  0  0  0  0
   10.3156   -3.6470    0.0000 H   0  0  0  0  0  0  0  0  0  0  0  0
    8.7310   -3.9838    0.0000 H   0  0  0  0  0  0  0  0  0  0  0  0
  1  6  1  0  0  0  0
  1 15  1  0  0  0  0
  2 13  2  0  0  0  0
  3  9  1  0  0  0  0
  3 10  1  0  0  0  0
  3 31  1  0  0  0  0
  4  8  1  0  0  0  0
  4 13  1  0  0  0  0
  4 32  1  0  0  0  0
  5  9  2  0  0  0  0
  5 11  1  0  0  0  0
  6 14  2  0  0  0  0
  7  8  1  0  0  0  0
  7  9  1  0  0  0  0
  7 27  1  0  0  0  0
  7 28  1  0  0  0  0
  8 29  1  0  0  0  0
  8 30  1  0  0  0  0
 10 11  1  0  0  0  0
 10 16  2  0  0  0  0
 11 17  2  0  0  0  0
 12 13  1  0  0  0  0
 12 14  1  0  0  0  0
 12 15  2  0  0  0  0
 14 18  1  0  0  0  0
 15 21  1  0  0  0  0
 16 19  1  0  0  0  0
 16 33  1  0  0  0  0
 17 20  1  0  0  0  0
 17 34  1  0  0  0  0
 18 22  2  0  0  0  0
 18 23  1  0  0  0  0
 19 20  2  0  0  0  0
 19 35  1  0  0  0  0
 20 36  1  0  0  0  0
 21 37  1  0  0  0  0
 21 38  1  0  0  0  0
 21 39  1  0  0  0  0
 22 24  1  0  0  0  0
 22 40  1  0  0  0  0
 23 25  2  0  0  0  0
 23 41  1  0  0  0  0
 24 26  2  0  0  0  0
 24 42  1  0  0  0  0
 25 26  1  0  0  0  0
 25 43  1  0  0  0  0
 26 44  1  0  0  0  0
M  END
> <PUBCHEM_COMPOUND_CID>
17395416

> <PUBCHEM_COMPOUND_CANONICALIZED>
1

> <PUBCHEM_CACTVS_COMPLEXITY>
482

> <PUBCHEM_CACTVS_HBOND_ACCEPTOR>
4

> <PUBCHEM_CACTVS_HBOND_DONOR>
2

> <PUBCHEM_CACTVS_ROTATABLE_BOND>
5

> <PUBCHEM_CACTVS_SUBSKEYS>
AAADceB7sAAAAAAAAAAAAAAAAAAAAWLAAAAwYAAAAAAAAFgB/AAAHgAUAAAADAzBnwQz1LbZkACpA6dydgCCgC2lMqApmaE8fNqIbr7I2ZOUMchuthrIyWeYyOCOAAAAAAAAACAAAAAAAAAAQAAAAAAAAA==

> <PUBCHEM_IUPAC_OPENEYE_NAME>
N-[2-(1H-benzimidazol-2-yl)ethyl]-5-methyl-3-phenyl-isoxazole-4-carboxamide

> <PUBCHEM_IUPAC_CAS_NAME>
N-[2-(1H-benzimidazol-2-yl)ethyl]-5-methyl-3-phenyl-4-isoxazolecarboxamide

> <PUBCHEM_IUPAC_NAME>
N-[2-(1H-benzimidazol-2-yl)ethyl]-5-methyl-3-phenyl-1,2-oxazole-4-carboxamide

> <PUBCHEM_IUPAC_SYSTEMATIC_NAME>
N-[2-(1H-benzimidazol-2-yl)ethyl]-5-methyl-3-phenyl-1,2-oxazole-4-carboxamide

> <PUBCHEM_IUPAC_TRADITIONAL_NAME>
N-[2-(1H-benzimidazol-2-yl)ethyl]-5-methyl-3-phenyl-isoxazole-4-carboxamide

> <PUBCHEM_IUPAC_INCHI>
InChI=1S/C20H18N4O2/c1-13-18(19(24-26-13)14-7-3-2-4-8-14)20(25)21-12-11-17-22-15-9-5-6-10-16(15)23-17/h2-10H,11-12H2,1H3,(H,21,25)(H,22,23)

> <PUBCHEM_IUPAC_INCHIKEY>
HTMHVVQSCBDBSQ-UHFFFAOYSA-N

> <PUBCHEM_XLOGP3_AA>
3.3

> <PUBCHEM_EXACT_MASS>
346.142976

> <PUBCHEM_MOLECULAR_FORMULA>
C20H18N4O2

> <PUBCHEM_MOLECULAR_WEIGHT>
346.38252

> <PUBCHEM_OPENEYE_CAN_SMILES>
CC1=C(C(=NO1)C2=CC=CC=C2)C(=O)NCCC3=NC4=CC=CC=C4N3

> <PUBCHEM_OPENEYE_ISO_SMILES>
CC1=C(C(=NO1)C2=CC=CC=C2)C(=O)NCCC3=NC4=CC=CC=C4N3

> <PUBCHEM_CACTVS_TPSA>
83.8

> <PUBCHEM_MONOISOTOPIC_WEIGHT>
346.142976

> <PUBCHEM_TOTAL_CHARGE>
0

> <PUBCHEM_HEAVY_ATOM_COUNT>
26

> <PUBCHEM_ATOM_DEF_STEREO_COUNT>
0

> <PUBCHEM_ATOM_UDEF_STEREO_COUNT>
0

> <PUBCHEM_BOND_DEF_STEREO_COUNT>
0

> <PUBCHEM_BOND_UDEF_STEREO_COUNT>
0

> <PUBCHEM_ISOTOPIC_ATOM_COUNT>
0

> <PUBCHEM_COMPONENT_COUNT>
1

> <PUBCHEM_CACTVS_TAUTO_COUNT>
4

> <PUBCHEM_COORDINATE_TYPE>
1
5
255

> <PUBCHEM_BONDANNOTATIONS>
1  15  8
1  6  8
10  11  8
10  16  8
11  17  8
12  14  8
12  15  8
16  19  8
17  20  8
18  22  8
18  23  8
19  20  8
22  24  8
23  25  8
24  26  8
25  26  8
3  10  8
3  9  8
5  11  8
5  9  8
6  14  8

$$$$

