16490
  -OEChem-07051213053D

 57 60  0     1  0  0  0  0  0999 V2000
   -1.2727    0.2109   -1.3078 F   0  0  0  0  0  0  0  0  0  0  0  0
   -3.3022   -3.0270    0.7463 F   0  0  0  0  0  0  0  0  0  0  0  0
    3.0651   -0.0445   -1.9278 O   0  0  0  0  0  0  0  0  0  0  0  0
   -0.2380    2.3963    1.3466 O   0  0  0  0  0  0  0  0  0  0  0  0
    4.3449    1.8616   -0.0194 O   0  0  0  0  0  0  0  0  0  0  0  0
    6.7822    0.7357    0.0853 O   0  0  0  0  0  0  0  0  0  0  0  0
   -6.1251    0.1630   -1.6846 O   0  0  0  0  0  0  0  0  0  0  0  0
    1.8838    0.3801    0.2160 C   0  0  1  0  0  0  0  0  0  0  0  0
    0.9721   -0.8527    0.0335 C   0  0  2  0  0  0  0  0  0  0  0  0
   -0.4119   -0.7006    0.6853 C   0  0  1  0  0  0  0  0  0  0  0  0
   -1.1486    0.5224    0.0393 C   0  0  1  0  0  0  0  0  0  0  0  0
    3.1589   -0.1443   -0.5122 C   0  0  1  0  0  0  0  0  0  0  0  0
    1.8605   -2.0248    0.4491 C   0  0  0  0  0  0  0  0  0  0  0  0
    1.1771    1.5833   -0.4423 C   0  0  0  0  0  0  0  0  0  0  0  0
    3.2844   -1.6178   -0.0170 C   0  0  1  0  0  0  0  0  0  0  0  0
   -0.2692    1.8102    0.0533 C   0  0  2  0  0  0  0  0  0  0  0  0
   -2.6294    0.6790    0.5678 C   0  0  1  0  0  0  0  0  0  0  0  0
   -1.2272   -1.9932    0.5106 C   0  0  0  0  0  0  0  0  0  0  0  0
    2.2003    0.6924    1.7040 C   0  0  0  0  0  0  0  0  0  0  0  0
   -2.6556   -1.8556    1.0180 C   0  0  1  0  0  0  0  0  0  0  0  0
   -3.3326   -0.6719    0.3729 C   0  0  0  0  0  0  0  0  0  0  0  0
    4.3966    0.6500   -0.2258 C   0  0  0  0  0  0  0  0  0  0  0  0
    3.8523   -2.5944   -1.0425 C   0  0  0  0  0  0  0  0  0  0  0  0
   -2.7237    1.0579    2.0634 C   0  0  0  0  0  0  0  0  0  0  0  0
   -3.3413    1.7866   -0.1957 C   0  0  0  0  0  0  0  0  0  0  0  0
   -4.4514   -0.8280   -0.3524 C   0  0  0  0  0  0  0  0  0  0  0  0
    5.6990   -0.1215   -0.2070 C   0  0  0  0  0  0  0  0  0  0  0  0
   -4.4536    1.6346   -0.9204 C   0  0  0  0  0  0  0  0  0  0  0  0
   -5.0947    0.3125   -1.0365 C   0  0  0  0  0  0  0  0  0  0  0  0
    0.7907   -0.9891   -1.0455 H   0  0  0  0  0  0  0  0  0  0  0  0
   -0.2952   -0.5322    1.7604 H   0  0  0  0  0  0  0  0  0  0  0  0
    1.8416   -2.1630    1.5367 H   0  0  0  0  0  0  0  0  0  0  0  0
    1.5250   -2.9631   -0.0055 H   0  0  0  0  0  0  0  0  0  0  0  0
    1.1100    1.4292   -1.5258 H   0  0  0  0  0  0  0  0  0  0  0  0
    1.7692    2.4933   -0.2899 H   0  0  0  0  0  0  0  0  0  0  0  0
    3.8986   -1.6871    0.8877 H   0  0  0  0  0  0  0  0  0  0  0  0
   -0.7153    2.5503   -0.6209 H   0  0  0  0  0  0  0  0  0  0  0  0
   -0.7475   -2.8224    1.0446 H   0  0  0  0  0  0  0  0  0  0  0  0
   -1.2465   -2.2930   -0.5459 H   0  0  0  0  0  0  0  0  0  0  0  0
    1.3046    0.7307    2.3277 H   0  0  0  0  0  0  0  0  0  0  0  0
    2.8595   -0.0511    2.1629 H   0  0  0  0  0  0  0  0  0  0  0  0
    2.6904    1.6656    1.8121 H   0  0  0  0  0  0  0  0  0  0  0  0
   -2.6646   -1.7451    2.1071 H   0  0  0  0  0  0  0  0  0  0  0  0
    3.2140   -2.6503   -1.9311 H   0  0  0  0  0  0  0  0  0  0  0  0
    4.8611   -2.3454   -1.3705 H   0  0  0  0  0  0  0  0  0  0  0  0
    3.8948   -3.6022   -0.6140 H   0  0  0  0  0  0  0  0  0  0  0  0
   -3.7460    0.9230    2.4408 H   0  0  0  0  0  0  0  0  0  0  0  0
   -2.0676    0.4510    2.6942 H   0  0  0  0  0  0  0  0  0  0  0  0
   -2.4703    2.1080    2.2448 H   0  0  0  0  0  0  0  0  0  0  0  0
    3.0241    0.8943   -2.1761 H   0  0  0  0  0  0  0  0  0  0  0  0
   -2.9285    2.7906   -0.1262 H   0  0  0  0  0  0  0  0  0  0  0  0
    0.2752    3.2199    1.2876 H   0  0  0  0  0  0  0  0  0  0  0  0
   -4.9221   -1.7968   -0.4805 H   0  0  0  0  0  0  0  0  0  0  0  0
    5.8856   -0.5251   -1.2035 H   0  0  0  0  0  0  0  0  0  0  0  0
    5.7173   -0.9091    0.5443 H   0  0  0  0  0  0  0  0  0  0  0  0
   -4.9153    2.4733   -1.4282 H   0  0  0  0  0  0  0  0  0  0  0  0
    6.6638    1.0577    0.9953 H   0  0  0  0  0  0  0  0  0  0  0  0
  1 11  1  0  0  0  0
  2 20  1  0  0  0  0
  3 12  1  0  0  0  0
  3 50  1  0  0  0  0
  4 16  1  0  0  0  0
  4 52  1  0  0  0  0
  5 22  2  0  0  0  0
  6 27  1  0  0  0  0
  6 57  1  0  0  0  0
  7 29  2  0  0  0  0
  8  9  1  0  0  0  0
  8 12  1  0  0  0  0
  8 14  1  0  0  0  0
  8 19  1  0  0  0  0
  9 10  1  0  0  0  0
  9 13  1  0  0  0  0
  9 30  1  0  0  0  0
 10 11  1  0  0  0  0
 10 18  1  0  0  0  0
 10 31  1  0  0  0  0
 11 16  1  0  0  0  0
 11 17  1  0  0  0  0
 12 15  1  0  0  0  0
 12 22  1  0  0  0  0
 13 15  1  0  0  0  0
 13 32  1  0  0  0  0
 13 33  1  0  0  0  0
 14 16  1  0  0  0  0
 14 34  1  0  0  0  0
 14 35  1  0  0  0  0
 15 23  1  0  0  0  0
 15 36  1  0  0  0  0
 16 37  1  0  0  0  0
 17 21  1  0  0  0  0
 17 24  1  0  0  0  0
 17 25  1  0  0  0  0
 18 20  1  0  0  0  0
 18 38  1  0  0  0  0
 18 39  1  0  0  0  0
 19 40  1  0  0  0  0
 19 41  1  0  0  0  0
 19 42  1  0  0  0  0
 20 21  1  0  0  0  0
 20 43  1  0  0  0  0
 21 26  2  0  0  0  0
 22 27  1  0  0  0  0
 23 44  1  0  0  0  0
 23 45  1  0  0  0  0
 23 46  1  0  0  0  0
 24 47  1  0  0  0  0
 24 48  1  0  0  0  0
 24 49  1  0  0  0  0
 25 28  2  0  0  0  0
 25 51  1  0  0  0  0
 26 29  1  0  0  0  0
 26 53  1  0  0  0  0
 27 54  1  0  0  0  0
 27 55  1  0  0  0  0
 28 29  1  0  0  0  0
 28 56  1  0  0  0  0
M  END
> <PUBCHEM_COMPOUND_CID>
16490

> <PUBCHEM_CONFORMER_RMSD>
0.8

> <PUBCHEM_CONFORMER_DIVERSEORDER>
1
2

> <PUBCHEM_MMFF94_PARTIAL_CHARGES>
25
1 -0.34
11 0.34
12 0.34
16 0.28
17 0.28
2 -0.34
20 0.48
21 -0.28
22 0.45
25 -0.29
26 -0.14
27 0.34
28 -0.14
29 0.54
3 -0.68
4 -0.68
5 -0.57
50 0.4
51 0.15
52 0.4
53 0.15
56 0.15
57 0.4
6 -0.68
7 -0.57

> <PUBCHEM_EFFECTIVE_ROTOR_COUNT>
3.4

> <PUBCHEM_PHARMACOPHORE_FEATURES>
12
1 3 acceptor
1 3 donor
1 4 acceptor
1 4 donor
1 5 acceptor
1 6 acceptor
1 6 donor
1 7 acceptor
5 8 9 12 13 15 rings
6 10 11 17 18 20 21 rings
6 17 21 25 26 28 29 rings
6 8 9 10 11 14 16 rings

> <PUBCHEM_HEAVY_ATOM_COUNT>
29

> <PUBCHEM_ATOM_DEF_STEREO_COUNT>
9

> <PUBCHEM_ATOM_UDEF_STEREO_COUNT>
0

> <PUBCHEM_BOND_DEF_STEREO_COUNT>
0

> <PUBCHEM_BOND_UDEF_STEREO_COUNT>
0

> <PUBCHEM_ISOTOPIC_ATOM_COUNT>
0

> <PUBCHEM_COMPONENT_COUNT>
1

> <PUBCHEM_CACTVS_TAUTO_COUNT>
3

> <PUBCHEM_CONFORMER_ID>
0000406A00000001

> <PUBCHEM_MMFF94_ENERGY>
99.4198

> <PUBCHEM_FEATURE_SELFOVERLAP>
60.999

> <PUBCHEM_SHAPE_FINGERPRINT>
10366900 7 18040157313894218736
10498660 4 18343299266699643107
10863032 1 18409158935382983610
10906281 52 18261379092622048449
11315181 36 18113616768289097440
12011746 2 18409453574450248165
12236239 1 17822293521662617876
12596602 18 14129060309456042238
12788726 201 18115874160234760969
13140716 1 18266445534428088992
13224815 77 18409724075743365130
13533116 47 18113903805411999487
13583140 156 18260830371314900294
13782708 43 16515950584770420980
14790565 3 17978504566543421745
14931854 50 18339369655729929197
15196674 1 18412261778508009946
15238133 3 14692289585769404191
15788980 27 16845570898790584920
16752209 62 18199753724758491641
16945 1 18343293761036976945
17349148 13 18187362168799944781
18608769 82 18272086047054891059
19862831 5 18341895229433115659
200 152 17894635863937987221
20511986 3 17988658380046631794
20715895 44 17988087802041564509
20775438 99 17249253161878117399
21267235 1 18339912745211585706
21279426 13 18267586986753901573
221357 26 18336837463487751285
22393880 68 18272376334454952475
23402539 116 18272934899768834982
23557571 272 18412256217052869426
23559900 14 18410016494186281608
23569914 152 17032748734625304972
3004659 81 18200595912142725870
34934 24 18272655666237792138
350125 39 18270108012461067001
3545911 37 18413105052386770195
3633792 109 18339650065459999509
5104073 3 18340479062667235714
5283173 99 18342462589975435485
9709674 26 18336537326371893046

> <PUBCHEM_SHAPE_MULTIPOLES>
552.91
11.84
2.48
1.37
4.08
0.94
-0.11
-0.9
3.95
-0.11
-0.36
-0.79
-0.18
0.83

> <PUBCHEM_SHAPE_SELFOVERLAP>
1205.094

> <PUBCHEM_SHAPE_VOLUME>
301.5

> <PUBCHEM_COORDINATE_TYPE>
2
5
10

$$$$

