637564
  -OEChem-07051213133D

 15 14  0     0  0  0  0  0  0999 V2000
    3.5710   -0.2204    0.0006 O   0  0  0  0  0  0  0  0  0  0  0  0
   -2.3818    0.4013    0.0001 C   0  0  0  0  0  0  0  0  0  0  0  0
   -1.2324   -0.2897   -0.0002 C   0  0  0  0  0  0  0  0  0  0  0  0
   -3.7320   -0.2370    0.0003 C   0  0  0  0  0  0  0  0  0  0  0  0
    0.0693    0.3397   -0.0002 C   0  0  0  0  0  0  0  0  0  0  0  0
    1.2104   -0.3600   -0.0006 C   0  0  0  0  0  0  0  0  0  0  0  0
    2.4955    0.3661   -0.0001 C   0  0  0  0  0  0  0  0  0  0  0  0
   -2.3640    1.4886    0.0003 H   0  0  0  0  0  0  0  0  0  0  0  0
   -1.2608   -1.3765   -0.0004 H   0  0  0  0  0  0  0  0  0  0  0  0
   -4.2915    0.0751   -0.8867 H   0  0  0  0  0  0  0  0  0  0  0  0
   -3.6750   -1.3301    0.0004 H   0  0  0  0  0  0  0  0  0  0  0  0
   -4.2914    0.0753    0.8875 H   0  0  0  0  0  0  0  0  0  0  0  0
    0.0921    1.4269    0.0002 H   0  0  0  0  0  0  0  0  0  0  0  0
    1.2396   -1.4436   -0.0009 H   0  0  0  0  0  0  0  0  0  0  0  0
    2.4351    1.4673    0.0002 H   0  0  0  0  0  0  0  0  0  0  0  0
  1  7  2  0  0  0  0
  2  3  2  0  0  0  0
  2  4  1  0  0  0  0
  2  8  1  0  0  0  0
  3  5  1  0  0  0  0
  3  9  1  0  0  0  0
  4 10  1  0  0  0  0
  4 11  1  0  0  0  0
  4 12  1  0  0  0  0
  5  6  2  0  0  0  0
  5 13  1  0  0  0  0
  6  7  1  0  0  0  0
  6 14  1  0  0  0  0
  7 15  1  0  0  0  0
M  END
> <PUBCHEM_COMPOUND_CID>
637564

> <PUBCHEM_CONFORMER_RMSD>
0.4

> <PUBCHEM_CONFORMER_DIVERSEORDER>
1
2
5
3
4

> <PUBCHEM_MMFF94_PARTIAL_CHARGES>
12
1 -0.57
13 0.15
14 0.15
15 0.06
2 -0.29
3 -0.15
4 0.14
5 -0.15
6 -0.14
7 0.5
8 0.15
9 0.15

> <PUBCHEM_EFFECTIVE_ROTOR_COUNT>
2

> <PUBCHEM_PHARMACOPHORE_FEATURES>
2
1 1 acceptor
1 4 hydrophobe

> <PUBCHEM_HEAVY_ATOM_COUNT>
7

> <PUBCHEM_ATOM_DEF_STEREO_COUNT>
0

> <PUBCHEM_ATOM_UDEF_STEREO_COUNT>
0

> <PUBCHEM_BOND_DEF_STEREO_COUNT>
2

> <PUBCHEM_BOND_UDEF_STEREO_COUNT>
0

> <PUBCHEM_ISOTOPIC_ATOM_COUNT>
0

> <PUBCHEM_COMPONENT_COUNT>
1

> <PUBCHEM_CACTVS_TAUTO_COUNT>
1

> <PUBCHEM_CONFORMER_ID>
0009BA7C00000001

> <PUBCHEM_MMFF94_ENERGY>
2.9617

> <PUBCHEM_FEATURE_SELFOVERLAP>
10.148

> <PUBCHEM_SHAPE_FINGERPRINT>
11062470 55 10231756690808442103
12932764 1 15647345177065156751
14325111 11 18410855468733959619
14390081 3 18335423469278950865
5460574 1 9295289439044569057

> <PUBCHEM_SHAPE_MULTIPOLES>
138.19
6.23
0.71
0.6
0.19
0.02
0
-0.29
0
0.04
0
0.05
0
0

> <PUBCHEM_SHAPE_SELFOVERLAP>
252.345

> <PUBCHEM_SHAPE_VOLUME>
87.7

> <PUBCHEM_COORDINATE_TYPE>
2
5
10

$$$$

