440055
  -OEChem-07051212483D

 32 33  0     1  0  0  0  0  0999 V2000
    1.6010   -0.1726   -0.9940 O   0  0  0  0  0  0  0  0  0  0  0  0
    3.7820    1.6645    0.1200 O   0  0  0  0  0  0  0  0  0  0  0  0
    2.3692   -2.8378   -0.5935 O   0  0  0  0  0  0  0  0  0  0  0  0
   -1.1752    2.7546   -0.3818 O   0  0  0  0  0  0  0  0  0  0  0  0
   -0.4638    0.5719   -0.1833 N   0  0  0  0  0  0  0  0  0  0  0  0
   -2.7719    1.1727   -0.0801 N   0  0  0  0  0  0  0  0  0  0  0  0
   -4.4282   -0.4090    0.2266 N   0  0  0  0  0  0  0  0  0  0  0  0
    3.0213    0.6236    0.7293 C   0  0  1  0  0  0  0  0  0  0  0  0
    0.9242    0.9015   -0.3257 C   0  0  1  0  0  0  0  0  0  0  0  0
    1.6196    1.1143    1.0091 C   0  0  0  0  0  0  0  0  0  0  0  0
    2.7988   -0.5063   -0.2662 C   0  0  1  0  0  0  0  0  0  0  0  0
    2.5772   -1.8544    0.4072 C   0  0  0  0  0  0  0  0  0  0  0  0
   -0.7950   -0.7510   -0.0048 C   0  0  0  0  0  0  0  0  0  0  0  0
   -1.4544    1.5649   -0.2238 C   0  0  0  0  0  0  0  0  0  0  0  0
   -2.0578   -1.1629    0.1377 C   0  0  0  0  0  0  0  0  0  0  0  0
   -3.0963   -0.0842    0.0900 C   0  0  0  0  0  0  0  0  0  0  0  0
   -2.4505   -2.5898    0.3333 C   0  0  0  0  0  0  0  0  0  0  0  0
    3.5576    0.3066    1.6286 H   0  0  0  0  0  0  0  0  0  0  0  0
    1.0349    1.7929   -0.9544 H   0  0  0  0  0  0  0  0  0  0  0  0
    1.1637    0.4997    1.7948 H   0  0  0  0  0  0  0  0  0  0  0  0
    1.5661    2.1602    1.3272 H   0  0  0  0  0  0  0  0  0  0  0  0
    3.6085   -0.5797   -1.0006 H   0  0  0  0  0  0  0  0  0  0  0  0
    1.7274   -1.8584    1.0934 H   0  0  0  0  0  0  0  0  0  0  0  0
    3.4695   -2.1371    0.9763 H   0  0  0  0  0  0  0  0  0  0  0  0
    3.8521    2.3890    0.7648 H   0  0  0  0  0  0  0  0  0  0  0  0
   -0.0096   -1.4875    0.0126 H   0  0  0  0  0  0  0  0  0  0  0  0
    2.2454   -3.6880   -0.1381 H   0  0  0  0  0  0  0  0  0  0  0  0
   -3.1063   -2.9229   -0.4775 H   0  0  0  0  0  0  0  0  0  0  0  0
   -2.9757   -2.7172    1.2854 H   0  0  0  0  0  0  0  0  0  0  0  0
   -1.5796   -3.2540    0.3464 H   0  0  0  0  0  0  0  0  0  0  0  0
   -4.7480   -1.3619    0.3602 H   0  0  0  0  0  0  0  0  0  0  0  0
   -5.1411    0.3122    0.1953 H   0  0  0  0  0  0  0  0  0  0  0  0
  1  9  1  0  0  0  0
  1 11  1  0  0  0  0
  2  8  1  0  0  0  0
  2 25  1  0  0  0  0
  3 12  1  0  0  0  0
  3 27  1  0  0  0  0
  4 14  2  0  0  0  0
  5  9  1  0  0  0  0
  5 13  1  0  0  0  0
  5 14  1  0  0  0  0
  6 14  1  0  0  0  0
  6 16  2  0  0  0  0
  7 16  1  0  0  0  0
  7 31  1  0  0  0  0
  7 32  1  0  0  0  0
  8 10  1  0  0  0  0
  8 11  1  0  0  0  0
  8 18  1  0  0  0  0
  9 10  1  0  0  0  0
  9 19  1  0  0  0  0
 10 20  1  0  0  0  0
 10 21  1  0  0  0  0
 11 12  1  0  0  0  0
 11 22  1  0  0  0  0
 12 23  1  0  0  0  0
 12 24  1  0  0  0  0
 13 15  2  0  0  0  0
 13 26  1  0  0  0  0
 15 16  1  0  0  0  0
 15 17  1  0  0  0  0
 17 28  1  0  0  0  0
 17 29  1  0  0  0  0
 17 30  1  0  0  0  0
M  END
> <PUBCHEM_COMPOUND_CID>
440055

> <PUBCHEM_CONFORMER_RMSD>
0.6

> <PUBCHEM_CONFORMER_DIVERSEORDER>
1
10
14
5
4
13
12
9
7
8
11
2
3
6

> <PUBCHEM_MMFF94_PARTIAL_CHARGES>
21
1 -0.56
11 0.28
12 0.28
13 -0.04
14 0.84
15 -0.12
16 0.49
17 0.14
2 -0.68
25 0.4
26 0.15
27 0.4
3 -0.68
31 0.4
32 0.4
4 -0.57
5 -0.47
6 -0.66
7 -0.85
8 0.28
9 0.58

> <PUBCHEM_EFFECTIVE_ROTOR_COUNT>
3

> <PUBCHEM_PHARMACOPHORE_FEATURES>
10
1 1 acceptor
1 2 acceptor
1 2 donor
1 3 acceptor
1 3 donor
1 4 acceptor
1 6 donor
1 7 donor
5 1 8 9 10 11 rings
6 5 6 13 14 15 16 rings

> <PUBCHEM_HEAVY_ATOM_COUNT>
17

> <PUBCHEM_ATOM_DEF_STEREO_COUNT>
3

> <PUBCHEM_ATOM_UDEF_STEREO_COUNT>
0

> <PUBCHEM_BOND_DEF_STEREO_COUNT>
0

> <PUBCHEM_BOND_UDEF_STEREO_COUNT>
0

> <PUBCHEM_ISOTOPIC_ATOM_COUNT>
0

> <PUBCHEM_COMPONENT_COUNT>
1

> <PUBCHEM_CACTVS_TAUTO_COUNT>
3

> <PUBCHEM_CONFORMER_ID>
0006B6F700000001

> <PUBCHEM_MMFF94_ENERGY>
47.8617

> <PUBCHEM_FEATURE_SELFOVERLAP>
50.797

> <PUBCHEM_SHAPE_FINGERPRINT>
10366900 7 18114752524950569209
10608611 8 18410016571569532680
10616163 171 18339360747493412290
10618630 7 18343301457328207783
10922523 26 18272933864191255823
10967382 1 18411138013194463239
12382932 28 18339361859784252219
12500047 106 18269842076159302324
12553582 1 17981310202115431067
12932764 1 17604161362594091892
13140716 1 18122066403268403337
13380535 21 18409442600861567416
14144814 61 18411419535452724577
14178342 30 18265620870674010899
14252887 29 18341603790010842427
15219456 202 18335425689856099084
15375358 24 18341057315393647707
15375462 6 18410013234464203420
15442244 35 18193839464534113954
16945 1 18412261735531956805
17804303 29 18266171927804915150
17834074 16 18409729581880927938
19049666 15 18191030195045199704
19784866 170 18337954467926655456
20510252 161 18336266833763909921
20645477 70 18333735744816273775
21501502 16 18335985367033845920
23184049 29 18339930436297727506
23402539 116 18269286672278608716
23463225 33 18412823581937141919
23559900 14 18410298038320084780
2748010 2 18198064887682896389
34934 24 18339648841199069567
5104073 3 18411418448984365489
69090 78 18334300851217713295
7364860 26 18335701672002128886
81228 2 18272928345343312433
8809292 202 18413105069767391890
9709674 26 18409729594676529374

> <PUBCHEM_SHAPE_MULTIPOLES>
311.43
6.37
2.67
0.79
1.15
0.84
0.04
0.78
0.65
-0.12
-0.16
-0.33
0
0.6

> <PUBCHEM_SHAPE_SELFOVERLAP>
653.575

> <PUBCHEM_SHAPE_VOLUME>
176.8

> <PUBCHEM_COORDINATE_TYPE>
2
5
10

$$$$

