9034
  -OEChem-07051212543D

 37 37  0     1  0  0  0  0  0999 V2000
   -1.8960   -1.1866    1.7837 O   0  0  0  0  0  0  0  0  0  0  0  0
    0.8163   -0.3646   -1.8786 O   0  0  0  0  0  0  0  0  0  0  0  0
   -3.2856    1.6490   -1.6243 O   0  0  0  0  0  0  0  0  0  0  0  0
   -2.5868    0.3821    0.2081 N   0  0  0  0  0  0  0  0  0  0  0  0
   -1.2151    0.6848   -1.6939 N   0  0  0  0  0  0  0  0  0  0  0  0
   -0.2131   -0.2752    0.3129 C   0  0  1  0  0  0  0  0  0  0  0  0
    0.3995    0.9514    1.0125 C   0  0  1  0  0  0  0  0  0  0  0  0
    0.6173   -1.5195    0.6653 C   0  0  0  0  0  0  0  0  0  0  0  0
   -1.6374   -0.4365    0.8410 C   0  0  0  0  0  0  0  0  0  0  0  0
   -0.1417   -0.0273   -1.1848 C   0  0  0  0  0  0  0  0  0  0  0  0
    0.3062    0.7990    2.5252 C   0  0  0  0  0  0  0  0  0  0  0  0
   -2.4231    0.9697   -1.0613 C   0  0  0  0  0  0  0  0  0  0  0  0
    0.1426   -2.7075   -0.1034 C   0  0  0  0  0  0  0  0  0  0  0  0
    1.7976    1.1241    0.5914 C   0  0  0  0  0  0  0  0  0  0  0  0
   -3.8971    0.5099    0.8348 C   0  0  0  0  0  0  0  0  0  0  0  0
    0.9084   -3.3893   -0.9625 C   0  0  0  0  0  0  0  0  0  0  0  0
    2.9399    1.2715    0.2506 C   0  0  0  0  0  0  0  0  0  0  0  0
    4.3358    1.4513   -0.1660 C   0  0  0  0  0  0  0  0  0  0  0  0
    5.0323    0.1138   -0.3504 C   0  0  0  0  0  0  0  0  0  0  0  0
   -0.1515    1.8607    0.7366 H   0  0  0  0  0  0  0  0  0  0  0  0
    0.5379   -1.7852    1.7256 H   0  0  0  0  0  0  0  0  0  0  0  0
    1.6865   -1.3796    0.4684 H   0  0  0  0  0  0  0  0  0  0  0  0
   -0.7235    0.7593    2.8908 H   0  0  0  0  0  0  0  0  0  0  0  0
    0.8568   -0.0618    2.9158 H   0  0  0  0  0  0  0  0  0  0  0  0
    0.7565    1.6772    3.0070 H   0  0  0  0  0  0  0  0  0  0  0  0
   -1.1355    0.9880   -2.6606 H   0  0  0  0  0  0  0  0  0  0  0  0
   -0.8742   -3.0549    0.0591 H   0  0  0  0  0  0  0  0  0  0  0  0
   -4.5616   -0.2379    0.3907 H   0  0  0  0  0  0  0  0  0  0  0  0
   -4.3124    1.5047    0.6490 H   0  0  0  0  0  0  0  0  0  0  0  0
   -3.8355    0.3405    1.9134 H   0  0  0  0  0  0  0  0  0  0  0  0
    0.5113   -4.2530   -1.4849 H   0  0  0  0  0  0  0  0  0  0  0  0
    1.9355   -3.1038   -1.1614 H   0  0  0  0  0  0  0  0  0  0  0  0
    4.3726    2.0130   -1.1060 H   0  0  0  0  0  0  0  0  0  0  0  0
    4.8739    2.0413    0.5841 H   0  0  0  0  0  0  0  0  0  0  0  0
    4.5310   -0.4909   -1.1143 H   0  0  0  0  0  0  0  0  0  0  0  0
    6.0704    0.2649   -0.6625 H   0  0  0  0  0  0  0  0  0  0  0  0
    5.0369   -0.4616    0.5818 H   0  0  0  0  0  0  0  0  0  0  0  0
  1  9  2  0  0  0  0
  2 10  2  0  0  0  0
  3 12  2  0  0  0  0
  4  9  1  0  0  0  0
  4 12  1  0  0  0  0
  4 15  1  0  0  0  0
  5 10  1  0  0  0  0
  5 12  1  0  0  0  0
  5 26  1  0  0  0  0
  6  7  1  0  0  0  0
  6  8  1  0  0  0  0
  6  9  1  0  0  0  0
  6 10  1  0  0  0  0
  7 11  1  0  0  0  0
  7 14  1  0  0  0  0
  7 20  1  0  0  0  0
  8 13  1  0  0  0  0
  8 21  1  0  0  0  0
  8 22  1  0  0  0  0
 11 23  1  0  0  0  0
 11 24  1  0  0  0  0
 11 25  1  0  0  0  0
 13 16  2  0  0  0  0
 13 27  1  0  0  0  0
 14 17  3  0  0  0  0
 15 28  1  0  0  0  0
 15 29  1  0  0  0  0
 15 30  1  0  0  0  0
 16 31  1  0  0  0  0
 16 32  1  0  0  0  0
 17 18  1  0  0  0  0
 18 19  1  0  0  0  0
 18 33  1  0  0  0  0
 18 34  1  0  0  0  0
 19 35  1  0  0  0  0
 19 36  1  0  0  0  0
 19 37  1  0  0  0  0
M  END
> <PUBCHEM_COMPOUND_CID>
9034

> <PUBCHEM_CONFORMER_RMSD>
0.6

> <PUBCHEM_CONFORMER_DIVERSEORDER>
2
23
31
33
13
6
41
38
25
9
22
1
7
29
5
14
18
26
21
40
36
32
30
11
27
37
42
3
24
39
28
35
8
15
10
12
19
34
20
16
17
4

> <PUBCHEM_MMFF94_PARTIAL_CHARGES>
21
1 -0.57
10 0.57
12 0.69
13 -0.29
14 -0.2
15 0.3
16 -0.3
17 -0.2
18 0.2
2 -0.57
26 0.37
27 0.15
3 -0.57
31 0.15
32 0.15
4 -0.42
5 -0.49
6 0.12
7 0.2
8 0.14
9 0.57

> <PUBCHEM_EFFECTIVE_ROTOR_COUNT>
3.6

> <PUBCHEM_PHARMACOPHORE_FEATURES>
8
1 1 acceptor
1 11 hydrophobe
1 16 hydrophobe
1 19 hydrophobe
1 2 acceptor
1 3 acceptor
1 5 donor
6 4 5 6 9 10 12 rings

> <PUBCHEM_HEAVY_ATOM_COUNT>
19

> <PUBCHEM_ATOM_DEF_STEREO_COUNT>
0

> <PUBCHEM_ATOM_UDEF_STEREO_COUNT>
2

> <PUBCHEM_BOND_DEF_STEREO_COUNT>
0

> <PUBCHEM_BOND_UDEF_STEREO_COUNT>
0

> <PUBCHEM_ISOTOPIC_ATOM_COUNT>
0

> <PUBCHEM_COMPONENT_COUNT>
1

> <PUBCHEM_CACTVS_TAUTO_COUNT>
3

> <PUBCHEM_CONFORMER_ID>
0000234A00000002

> <PUBCHEM_MMFF94_ENERGY>
43.6448

> <PUBCHEM_FEATURE_SELFOVERLAP>
40.594

> <PUBCHEM_SHAPE_FINGERPRINT>
10062212 137 16732982033219033660
10922049 32 18343023285197217572
11322862 65 18264487278712888422
11578080 2 17768493395365745557
12592029 89 18201438108084863762
13464514 151 18194120952153568517
14142880 1 12750703736978238262
14817 1 15667687026974255739
15163728 17 18199167633479562564
15219456 202 18059297672408469001
16945 1 18191877940064127163
1813 80 17028248373113540542
18186145 218 18260276213550287904
18915476 22 18265894838074190359
19765921 60 17894627067291129193
20645477 56 18196938777745091080
23114952 82 18052831526251352989
23402539 116 15140681388713148144
23419403 2 17981856912470160123
23557571 272 17917703605009191777
25 1 18333733537129041936
3729539 64 18196359541565905502
4340502 62 18115847682119875659
633830 44 17968084339853093164
81228 2 17545619854427057050

> <PUBCHEM_SHAPE_MULTIPOLES>
363.44
6.14
2.45
1.84
5.09
3.03
-0.12
-3.58
1.17
0.79
0.14
-1.08
-0.45
0.7

> <PUBCHEM_SHAPE_SELFOVERLAP>
745.621

> <PUBCHEM_SHAPE_VOLUME>
207.1

> <PUBCHEM_COORDINATE_TYPE>
2
5
10

$$$$

