247023
  -OEChem-07051213073D

 59 62  0     1  0  0  0  0  0999 V2000
   -0.3925   -0.1016    2.7451 O   0  0  0  0  0  0  0  0  0  0  0  0
    4.3721   -1.0514   -1.0973 O   0  0  0  0  0  0  0  0  0  0  0  0
   -5.1473   -1.6855    1.2404 O   0  0  0  0  0  0  0  0  0  0  0  0
    6.0260   -1.5073    0.4498 O   0  0  0  0  0  0  0  0  0  0  0  0
    1.3785    1.3507    0.8733 C   0  0  2  0  0  0  0  0  0  0  0  0
    0.1236    0.5194    0.4246 C   0  0  2  0  0  0  0  0  0  0  0  0
   -0.8147    1.3349   -0.5265 C   0  0  2  0  0  0  0  0  0  0  0  0
   -1.9773    0.4280   -0.9432 C   0  0  1  0  0  0  0  0  0  0  0  0
    2.1160    1.9013   -0.3997 C   0  0  2  0  0  0  0  0  0  0  0  0
   -2.8360   -0.0122    0.2687 C   0  0  2  0  0  0  0  0  0  0  0  0
   -0.0563    1.8709   -1.7443 C   0  0  0  0  0  0  0  0  0  0  0  0
    1.1746    2.6744   -1.3385 C   0  0  0  0  0  0  0  0  0  0  0  0
    2.4032    0.5100    1.6935 C   0  0  0  0  0  0  0  0  0  0  0  0
   -1.9565   -0.9131    1.1344 C   0  0  0  0  0  0  0  0  0  0  0  0
   -0.7120   -0.1324    1.5579 C   0  0  0  0  0  0  0  0  0  0  0  0
    2.8546    0.7990   -1.1890 C   0  0  0  0  0  0  0  0  0  0  0  0
   -2.9911    0.8914   -1.9905 C   0  0  0  0  0  0  0  0  0  0  0  0
    0.9607    2.5450    1.7703 C   0  0  0  0  0  0  0  0  0  0  0  0
    3.1009   -0.5831    0.8938 C   0  0  0  0  0  0  0  0  0  0  0  0
    3.8154    0.0008   -0.3167 C   0  0  1  0  0  0  0  0  0  0  0  0
   -3.9771   -0.6260   -0.4960 C   0  0  0  0  0  0  0  0  0  0  0  0
   -3.4102    1.1433    1.1227 C   0  0  0  0  0  0  0  0  0  0  0  0
   -4.0939   -0.0984   -1.7245 C   0  0  0  0  0  0  0  0  0  0  0  0
   -4.9021   -1.6159    0.0273 C   0  0  0  0  0  0  0  0  0  0  0  0
   -5.5732   -2.5622   -0.9453 C   0  0  0  0  0  0  0  0  0  0  0  0
    5.2796   -1.8484   -0.4577 C   0  0  0  0  0  0  0  0  0  0  0  0
    5.2350   -3.2318   -1.0326 C   0  0  0  0  0  0  0  0  0  0  0  0
    0.4911   -0.3437   -0.1474 H   0  0  0  0  0  0  0  0  0  0  0  0
   -1.2220    2.1998    0.0078 H   0  0  0  0  0  0  0  0  0  0  0  0
   -1.5097   -0.4742   -1.3809 H   0  0  0  0  0  0  0  0  0  0  0  0
    2.8866    2.6114   -0.0654 H   0  0  0  0  0  0  0  0  0  0  0  0
   -0.7141    2.5168   -2.3382 H   0  0  0  0  0  0  0  0  0  0  0  0
    0.2358    1.0440   -2.4021 H   0  0  0  0  0  0  0  0  0  0  0  0
    1.7166    2.9837   -2.2407 H   0  0  0  0  0  0  0  0  0  0  0  0
    0.8520    3.6029   -0.8526 H   0  0  0  0  0  0  0  0  0  0  0  0
    1.9413    0.0605    2.5767 H   0  0  0  0  0  0  0  0  0  0  0  0
    3.1793    1.1824    2.0864 H   0  0  0  0  0  0  0  0  0  0  0  0
   -1.6306   -1.8133    0.6007 H   0  0  0  0  0  0  0  0  0  0  0  0
   -2.4915   -1.2407    2.0332 H   0  0  0  0  0  0  0  0  0  0  0  0
    2.1507    0.1084   -1.6682 H   0  0  0  0  0  0  0  0  0  0  0  0
    3.4183    1.2487   -2.0172 H   0  0  0  0  0  0  0  0  0  0  0  0
   -2.5943    0.7825   -3.0041 H   0  0  0  0  0  0  0  0  0  0  0  0
   -3.3339    1.9194   -1.8401 H   0  0  0  0  0  0  0  0  0  0  0  0
    0.5367    2.2104    2.7218 H   0  0  0  0  0  0  0  0  0  0  0  0
    1.8281    3.1706    2.0127 H   0  0  0  0  0  0  0  0  0  0  0  0
    0.2223    3.1965    1.2969 H   0  0  0  0  0  0  0  0  0  0  0  0
    3.8036   -1.0960    1.5597 H   0  0  0  0  0  0  0  0  0  0  0  0
    2.3863   -1.3540    0.5811 H   0  0  0  0  0  0  0  0  0  0  0  0
    4.6264    0.6670    0.0067 H   0  0  0  0  0  0  0  0  0  0  0  0
   -4.0936    0.7590    1.8893 H   0  0  0  0  0  0  0  0  0  0  0  0
   -2.6316    1.7037    1.6497 H   0  0  0  0  0  0  0  0  0  0  0  0
   -3.9723    1.8660    0.5203 H   0  0  0  0  0  0  0  0  0  0  0  0
   -4.8630   -0.3278   -2.4477 H   0  0  0  0  0  0  0  0  0  0  0  0
   -4.8827   -2.8562   -1.7408 H   0  0  0  0  0  0  0  0  0  0  0  0
   -6.4622   -2.0878   -1.3682 H   0  0  0  0  0  0  0  0  0  0  0  0
   -5.8682   -3.4715   -0.4129 H   0  0  0  0  0  0  0  0  0  0  0  0
    5.4912   -3.2002   -2.0946 H   0  0  0  0  0  0  0  0  0  0  0  0
    4.2399   -3.6602   -0.8887 H   0  0  0  0  0  0  0  0  0  0  0  0
    5.9642   -3.8628   -0.5165 H   0  0  0  0  0  0  0  0  0  0  0  0
  1 15  2  0  0  0  0
  2 20  1  0  0  0  0
  2 26  1  0  0  0  0
  3 24  2  0  0  0  0
  4 26  2  0  0  0  0
  5  6  1  0  0  0  0
  5  9  1  0  0  0  0
  5 13  1  0  0  0  0
  5 18  1  0  0  0  0
  6  7  1  0  0  0  0
  6 15  1  0  0  0  0
  6 28  1  0  0  0  0
  7  8  1  0  0  0  0
  7 11  1  0  0  0  0
  7 29  1  0  0  0  0
  8 10  1  0  0  0  0
  8 17  1  0  0  0  0
  8 30  1  0  0  0  0
  9 12  1  0  0  0  0
  9 16  1  0  0  0  0
  9 31  1  0  0  0  0
 10 14  1  0  0  0  0
 10 21  1  0  0  0  0
 10 22  1  0  0  0  0
 11 12  1  0  0  0  0
 11 32  1  0  0  0  0
 11 33  1  0  0  0  0
 12 34  1  0  0  0  0
 12 35  1  0  0  0  0
 13 19  1  0  0  0  0
 13 36  1  0  0  0  0
 13 37  1  0  0  0  0
 14 15  1  0  0  0  0
 14 38  1  0  0  0  0
 14 39  1  0  0  0  0
 16 20  1  0  0  0  0
 16 40  1  0  0  0  0
 16 41  1  0  0  0  0
 17 23  1  0  0  0  0
 17 42  1  0  0  0  0
 17 43  1  0  0  0  0
 18 44  1  0  0  0  0
 18 45  1  0  0  0  0
 18 46  1  0  0  0  0
 19 20  1  0  0  0  0
 19 47  1  0  0  0  0
 19 48  1  0  0  0  0
 20 49  1  0  0  0  0
 21 23  2  0  0  0  0
 21 24  1  0  0  0  0
 22 50  1  0  0  0  0
 22 51  1  0  0  0  0
 22 52  1  0  0  0  0
 23 53  1  0  0  0  0
 24 25  1  0  0  0  0
 25 54  1  0  0  0  0
 25 55  1  0  0  0  0
 25 56  1  0  0  0  0
 26 27  1  0  0  0  0
 27 57  1  0  0  0  0
 27 58  1  0  0  0  0
 27 59  1  0  0  0  0
M  END
> <PUBCHEM_COMPOUND_CID>
247023

> <PUBCHEM_CONFORMER_RMSD>
0.8

> <PUBCHEM_CONFORMER_DIVERSEORDER>
1
5
7
3
2
4
6

> <PUBCHEM_MMFF94_PARTIAL_CHARGES>
17
1 -0.57
10 0.14
14 0.06
15 0.45
17 0.14
2 -0.43
20 0.28
21 -0.12
23 -0.29
24 0.49
25 0.06
26 0.66
27 0.06
3 -0.57
4 -0.57
53 0.15
6 0.06

> <PUBCHEM_EFFECTIVE_ROTOR_COUNT>
4.6

> <PUBCHEM_PHARMACOPHORE_FEATURES>
7
1 1 acceptor
1 3 acceptor
1 4 acceptor
5 8 10 17 21 23 rings
6 5 6 7 9 11 12 rings
6 5 9 13 16 19 20 rings
6 6 7 8 10 14 15 rings

> <PUBCHEM_HEAVY_ATOM_COUNT>
27

> <PUBCHEM_ATOM_DEF_STEREO_COUNT>
7

> <PUBCHEM_ATOM_UDEF_STEREO_COUNT>
0

> <PUBCHEM_BOND_DEF_STEREO_COUNT>
0

> <PUBCHEM_BOND_UDEF_STEREO_COUNT>
0

> <PUBCHEM_ISOTOPIC_ATOM_COUNT>
0

> <PUBCHEM_COMPONENT_COUNT>
1

> <PUBCHEM_CACTVS_TAUTO_COUNT>
15

> <PUBCHEM_CONFORMER_ID>
0003C4EF00000001

> <PUBCHEM_MMFF94_ENERGY>
86.2526

> <PUBCHEM_FEATURE_SELFOVERLAP>
35.658

> <PUBCHEM_SHAPE_FINGERPRINT>
10074138 170 16664297917259869608
10498660 4 15554171372142920381
10670039 82 15482679008586081558
11796584 16 18268439103859833654
11961588 58 15051729738321083204
12422481 6 14345785076176231078
12553582 1 17846498179358522688
12633257 1 4750864949330269402
12892183 10 15285915940018814286
13009979 54 18337098038500017481
13103583 49 16370733634013341030
13224815 77 15913341152182345897
13383661 66 18264193859459274502
13533116 47 18261673645642209243
13544653 18 18187649163004978668
13583140 156 16805612507164423065
13911987 19 17908681966376069660
14251751 18 18113901537410934463
14251764 30 18334858328897730286
14251764 38 10590673578800047295
14341114 328 15068631461238861814
14739800 52 9006792968236777975
14848178 5 18261675973625636982
15163728 17 11815892401027779180
15183329 4 14620797141694771802
15219462 58 17973708204448425617
15475509 35 17605277272745133839
15475509 8 18129942411686137125
15484559 13 14102834410313022058
16752209 62 16988297412355267125
17349148 13 17968087608059403079
17492 54 15267342928987635206
17980427 23 14129352770658598088
1813 80 17458620121112199128
19784866 240 18261107486899922318
20567600 247 18335423426361374839
20775438 99 17697609796268463186
20871999 31 17203609302227805860
21304303 282 16520458723698825081
21344244 181 18058168324445748563
21421861 104 16226322621327254336
21475661 188 9727627315386789294
221357 26 17775571914197493991
22182313 1 17130407009617791736
22393880 68 17417827135830465677
23379529 103 18128528272044807331
23559900 14 17917153784565196037
25222932 49 16664314040361623175
2838139 119 10663807573552121134
3027735 51 18052534671360985842
3286 77 18187647968371242921
3472631 163 10807944756007787023
3737641 26 17532928527369573222
392239 28 14851900174526520902
394222 165 15649317499157344376
46194498 28 17988078876988539222
463206 1 18335139804106926246
474 4 11815891267235514926
474113 269 17167871851070491391
484985 159 17684081770873238550
5104073 3 16588580895396393419
56616090 284 17846778533385282826
7064713 232 6050439336160866956
7970288 3 18186802478226490062

> <PUBCHEM_SHAPE_MULTIPOLES>
532.17
11.66
2.8
2.04
2.11
0.84
-0.41
12.72
2.49
1.93
0.7
-0.57
-0.61
0.77

> <PUBCHEM_SHAPE_SELFOVERLAP>
1137.123

> <PUBCHEM_SHAPE_VOLUME>
294.2

> <PUBCHEM_COORDINATE_TYPE>
2
5
10

$$$$

