6190
  -OEChem-06261201102D

 87 90  0     1  0  0  0  0  0999 V2000
   10.3820    2.0094    0.0000 N   0  3  0  0  0  0  0  0  0  0  0  0
    3.7320   -2.2982    0.0000 N   0  3  0  0  0  0  0  0  0  0  0  0
    9.1251    0.7541    0.0000 C   0  0  1  0  0  0  0  0  0  0  0  0
    9.1251   -0.2459    0.0000 C   0  0  3  0  0  0  0  0  0  0  0  0
    8.2591   -0.7459    0.0000 C   0  0  1  0  0  0  0  0  0  0  0  0
    7.3931   -0.2459    0.0000 C   0  0  3  0  0  0  0  0  0  0  0  0
    6.4831   -0.7527    0.0000 C   0  0  2  0  0  0  0  0  0  0  0  0
   10.0713    1.0589    0.0000 C   0  0  1  0  0  0  0  0  0  0  0  0
    6.4750   -1.7943    0.0000 C   0  0  3  0  0  0  0  0  0  0  0  0
    8.2591    1.2541    0.0000 C   0  0  0  0  0  0  0  0  0  0  0  0
    7.3931    0.7541    0.0000 C   0  0  0  0  0  0  0  0  0  0  0  0
   10.0713   -0.5506    0.0000 C   0  0  0  0  0  0  0  0  0  0  0  0
    8.2752   -1.7874    0.0000 C   0  0  0  0  0  0  0  0  0  0  0  0
   10.6550    0.2541    0.0000 C   0  0  0  0  0  0  0  0  0  0  0  0
    7.3771   -2.3151    0.0000 C   0  0  0  0  0  0  0  0  0  0  0  0
    5.5562   -0.1886    0.0000 C   0  0  0  0  0  0  0  0  0  0  0  0
    5.5396   -2.3440    0.0000 C   0  0  0  0  0  0  0  0  0  0  0  0
    9.1251    1.7541    0.0000 C   0  0  0  0  0  0  0  0  0  0  0  0
    4.6000   -1.8015    0.0000 C   0  0  1  0  0  0  0  0  0  0  0  0
    4.6084   -0.7166    0.0000 C   0  0  0  0  0  0  0  0  0  0  0  0
    6.4908    0.2473    0.0000 C   0  0  0  0  0  0  0  0  0  0  0  0
   10.6927    2.9599    0.0000 C   0  0  0  0  0  0  0  0  0  0  0  0
   11.3325    1.6987    0.0000 C   0  0  0  0  0  0  0  0  0  0  0  0
    9.4315    2.3201    0.0000 C   0  0  0  0  0  0  0  0  0  0  0  0
    2.8641   -2.7948    0.0000 C   0  0  0  0  0  0  0  0  0  0  0  0
    3.2354   -1.4302    0.0000 C   0  0  0  0  0  0  0  0  0  0  0  0
    4.2287   -3.1661    0.0000 C   0  0  0  0  0  0  0  0  0  0  0  0
   11.6712    3.1661    0.0000 C   0  0  0  0  0  0  0  0  0  0  0  0
   12.0768    2.3666    0.0000 C   0  0  0  0  0  0  0  0  0  0  0  0
    2.0000   -2.2915    0.0000 C   0  0  0  0  0  0  0  0  0  0  0  0
    2.2354   -1.4264    0.0000 C   0  0  0  0  0  0  0  0  0  0  0  0
    9.2151   -1.0911    0.0000 H   0  0  0  0  0  0  0  0  0  0  0  0
    8.9985   -1.1652    0.0000 H   0  0  0  0  0  0  0  0  0  0  0  0
    8.1292    0.1791    0.0000 H   0  0  0  0  0  0  0  0  0  0  0  0
   10.6838    1.1551    0.0000 H   0  0  0  0  0  0  0  0  0  0  0  0
    6.4783   -2.6443    0.0000 H   0  0  0  0  0  0  0  0  0  0  0  0
    8.6576    1.7291    0.0000 H   0  0  0  0  0  0  0  0  0  0  0  0
    7.8606    1.7291    0.0000 H   0  0  0  0  0  0  0  0  0  0  0  0
    7.1810    1.3368    0.0000 H   0  0  0  0  0  0  0  0  0  0  0  0
    6.7825    0.6465    0.0000 H   0  0  0  0  0  0  0  0  0  0  0  0
    9.8203   -1.1175    0.0000 H   0  0  0  0  0  0  0  0  0  0  0  0
   10.6087   -0.8598    0.0000 H   0  0  0  0  0  0  0  0  0  0  0  0
    8.4932   -2.3678    0.0000 H   0  0  0  0  0  0  0  0  0  0  0  0
    8.8843   -1.6719    0.0000 H   0  0  0  0  0  0  0  0  0  0  0  0
   11.1158   -0.1606    0.0000 H   0  0  0  0  0  0  0  0  0  0  0  0
   11.1158    0.6689    0.0000 H   0  0  0  0  0  0  0  0  0  0  0  0
    6.9798   -2.7911    0.0000 H   0  0  0  0  0  0  0  0  0  0  0  0
    7.7781   -2.7880    0.0000 H   0  0  0  0  0  0  0  0  0  0  0  0
    5.9644    0.2780    0.0000 H   0  0  0  0  0  0  0  0  0  0  0  0
    5.1663    0.2934    0.0000 H   0  0  0  0  0  0  0  0  0  0  0  0
    5.1423   -2.8200    0.0000 H   0  0  0  0  0  0  0  0  0  0  0  0
    5.9406   -2.8169    0.0000 H   0  0  0  0  0  0  0  0  0  0  0  0
    4.0648   -1.4884    0.0000 H   0  0  0  0  0  0  0  0  0  0  0  0
    9.7451    1.7541    0.0000 H   0  0  0  0  0  0  0  0  0  0  0  0
    9.1251    2.3741    0.0000 H   0  0  0  0  0  0  0  0  0  0  0  0
    8.5051    1.7541    0.0000 H   0  0  0  0  0  0  0  0  0  0  0  0
    4.4038   -0.1313    0.0000 H   0  0  0  0  0  0  0  0  0  0  0  0
    3.9967   -0.8179    0.0000 H   0  0  0  0  0  0  0  0  0  0  0  0
    7.1108    0.2425    0.0000 H   0  0  0  0  0  0  0  0  0  0  0  0
    6.4956    0.8672    0.0000 H   0  0  0  0  0  0  0  0  0  0  0  0
    5.8708    0.2520    0.0000 H   0  0  0  0  0  0  0  0  0  0  0  0
   10.6721    3.5796    0.0000 H   0  0  0  0  0  0  0  0  0  0  0  0
   10.0789    3.0473    0.0000 H   0  0  0  0  0  0  0  0  0  0  0  0
   11.0405    1.1518    0.0000 H   0  0  0  0  0  0  0  0  0  0  0  0
   11.8204    1.3162    0.0000 H   0  0  0  0  0  0  0  0  0  0  0  0
    9.6241    2.9094    0.0000 H   0  0  0  0  0  0  0  0  0  0  0  0
    8.8422    2.5127    0.0000 H   0  0  0  0  0  0  0  0  0  0  0  0
    9.2389    1.7307    0.0000 H   0  0  0  0  0  0  0  0  0  0  0  0
    2.4637   -3.2682    0.0000 H   0  0  0  0  0  0  0  0  0  0  0  0
    3.2608   -3.2713    0.0000 H   0  0  0  0  0  0  0  0  0  0  0  0
    3.8188   -1.2204    0.0000 H   0  0  0  0  0  0  0  0  0  0  0  0
    3.1301   -0.8193    0.0000 H   0  0  0  0  0  0  0  0  0  0  0  0
    3.6906   -3.4741    0.0000 H   0  0  0  0  0  0  0  0  0  0  0  0
    4.5366   -3.7043    0.0000 H   0  0  0  0  0  0  0  0  0  0  0  0
    4.7668   -2.8582    0.0000 H   0  0  0  0  0  0  0  0  0  0  0  0
   11.7990    2.5595    0.0000 H   0  0  0  0  0  0  0  0  0  0  0  0
   12.2778    3.2940    0.0000 H   0  0  0  0  0  0  0  0  0  0  0  0
   11.5433    3.7728    0.0000 H   0  0  0  0  0  0  0  0  0  0  0  0
   12.4909    1.9051    0.0000 H   0  0  0  0  0  0  0  0  0  0  0  0
   12.5383    2.7806    0.0000 H   0  0  0  0  0  0  0  0  0  0  0  0
   11.6628    2.8280    0.0000 H   0  0  0  0  0  0  0  0  0  0  0  0
    2.3121   -1.7558    0.0000 H   0  0  0  0  0  0  0  0  0  0  0  0
    1.4643   -1.9794    0.0000 H   0  0  0  0  0  0  0  0  0  0  0  0
    1.6879   -2.8272    0.0000 H   0  0  0  0  0  0  0  0  0  0  0  0
    2.2378   -0.8064    0.0000 H   0  0  0  0  0  0  0  0  0  0  0  0
    1.6154   -1.4240    0.0000 H   0  0  0  0  0  0  0  0  0  0  0  0
    2.2330   -2.0464    0.0000 H   0  0  0  0  0  0  0  0  0  0  0  0
  8  1  1  6  0  0  0
  1 22  1  0  0  0  0
  1 23  1  0  0  0  0
  1 24  1  0  0  0  0
 19  2  1  6  0  0  0
  2 25  1  0  0  0  0
  2 26  1  0  0  0  0
  2 27  1  0  0  0  0
  3  4  1  0  0  0  0
  3  8  1  0  0  0  0
  3 10  1  0  0  0  0
  3 18  1  1  0  0  0
  4  5  1  0  0  0  0
  4 12  1  0  0  0  0
  4 32  1  0  0  0  0
  5  6  1  0  0  0  0
  5 13  1  0  0  0  0
  5 33  1  1  0  0  0
  6  7  1  0  0  0  0
  6 11  1  0  0  0  0
  6 34  1  0  0  0  0
  7  9  1  0  0  0  0
  7 16  1  0  0  0  0
  7 21  1  1  0  0  0
  8 14  1  0  0  0  0
  8 35  1  0  0  0  0
  9 15  1  0  0  0  0
  9 17  1  0  0  0  0
  9 36  1  0  0  0  0
 10 11  1  0  0  0  0
 10 37  1  0  0  0  0
 10 38  1  0  0  0  0
 11 39  1  0  0  0  0
 11 40  1  0  0  0  0
 12 14  1  0  0  0  0
 12 41  1  0  0  0  0
 12 42  1  0  0  0  0
 13 15  1  0  0  0  0
 13 43  1  0  0  0  0
 13 44  1  0  0  0  0
 14 45  1  0  0  0  0
 14 46  1  0  0  0  0
 15 47  1  0  0  0  0
 15 48  1  0  0  0  0
 16 20  1  0  0  0  0
 16 49  1  0  0  0  0
 16 50  1  0  0  0  0
 17 19  1  0  0  0  0
 17 51  1  0  0  0  0
 17 52  1  0  0  0  0
 18 54  1  0  0  0  0
 18 55  1  0  0  0  0
 18 56  1  0  0  0  0
 19 20  1  0  0  0  0
 19 53  1  0  0  0  0
 20 57  1  0  0  0  0
 20 58  1  0  0  0  0
 21 59  1  0  0  0  0
 21 60  1  0  0  0  0
 21 61  1  0  0  0  0
 22 28  1  0  0  0  0
 22 62  1  0  0  0  0
 22 63  1  0  0  0  0
 23 29  1  0  0  0  0
 23 64  1  0  0  0  0
 23 65  1  0  0  0  0
 24 66  1  0  0  0  0
 24 67  1  0  0  0  0
 24 68  1  0  0  0  0
 25 30  1  0  0  0  0
 25 69  1  0  0  0  0
 25 70  1  0  0  0  0
 26 31  1  0  0  0  0
 26 71  1  0  0  0  0
 26 72  1  0  0  0  0
 27 73  1  0  0  0  0
 27 74  1  0  0  0  0
 27 75  1  0  0  0  0
 28 76  1  0  0  0  0
 28 77  1  0  0  0  0
 28 78  1  0  0  0  0
 29 79  1  0  0  0  0
 29 80  1  0  0  0  0
 29 81  1  0  0  0  0
 30 82  1  0  0  0  0
 30 83  1  0  0  0  0
 30 84  1  0  0  0  0
 31 85  1  0  0  0  0
 31 86  1  0  0  0  0
 31 87  1  0  0  0  0
M  CHG  2   1   1   2   1
M  END
> <PUBCHEM_COMPOUND_CID>
6190

> <PUBCHEM_COMPOUND_CANONICALIZED>
1

> <PUBCHEM_CACTVS_COMPLEXITY>
635

> <PUBCHEM_CACTVS_HBOND_ACCEPTOR>
0

> <PUBCHEM_CACTVS_HBOND_DONOR>
0

> <PUBCHEM_CACTVS_ROTATABLE_BOND>
6

> <PUBCHEM_CACTVS_SUBSKEYS>
AAADcfB7AAAAAAAAAAAAAAAAAAAAAYAAAAAwYMAAAAAAAGDAAAAAHAAAAAAADyjBAAQCAAMAAAAAAAAAAAAAAAAAAAAAAAAIAAAAAAIAgAAEAAAAAACAAAEQgMAPgAAAAAAAAACQAASAACAAACAACQAAAA==

> <PUBCHEM_IUPAC_OPENEYE_NAME>
[(3R,8R,10S,13S,17R)-3-[diethyl(methyl)ammonio]-10,13-dimethyl-2,3,4,5,6,7,8,9,11,12,14,15,16,17-tetradecahydro-1H-cyclopenta[a]phenanthren-17-yl]-diethyl-methyl-ammonium

> <PUBCHEM_IUPAC_CAS_NAME>
[(3R,8R,10S,13S,17R)-3-[diethyl(methyl)ammonio]-10,13-dimethyl-2,3,4,5,6,7,8,9,11,12,14,15,16,17-tetradecahydro-1H-cyclopenta[a]phenanthren-17-yl]-diethyl-methylammonium

> <PUBCHEM_IUPAC_NAME>
[(3R,8R,10S,13S,17R)-3-[diethyl(methyl)azaniumyl]-10,13-dimethyl-2,3,4,5,6,7,8,9,11,12,14,15,16,17-tetradecahydro-1H-cyclopenta[a]phenanthren-17-yl]-diethyl-methylazanium

> <PUBCHEM_IUPAC_SYSTEMATIC_NAME>
[(3R,8R,10S,13S,17R)-3-[diethyl(methyl)azaniumyl]-10,13-dimethyl-2,3,4,5,6,7,8,9,11,12,14,15,16,17-tetradecahydro-1H-cyclopenta[a]phenanthren-17-yl]-diethyl-methyl-azanium

> <PUBCHEM_IUPAC_TRADITIONAL_NAME>
[(3R,8R,10S,13S,17R)-3-[diethyl(methyl)ammonio]-10,13-dimethyl-2,3,4,5,6,7,8,9,11,12,14,15,16,17-tetradecahydro-1H-cyclopenta[a]phenanthren-17-yl]-diethyl-methyl-ammonium

> <PUBCHEM_IUPAC_INCHI>
InChI=1S/C29H56N2/c1-9-30(7,10-2)23-17-19-28(5)22(21-23)13-14-24-25-15-16-27(31(8,11-3)12-4)29(25,6)20-18-26(24)28/h22-27H,9-21H2,1-8H3/q+2/t22?,23-,24+,25?,26?,27-,28+,29+/m1/s1

> <PUBCHEM_IUPAC_INCHIKEY>
VLCKZLLREKLLBV-HKDOHRGLSA-N

> <PUBCHEM_XLOGP3>
7.1

> <PUBCHEM_EXACT_MASS>
432.44435

> <PUBCHEM_MOLECULAR_FORMULA>
C29H56N2+2

> <PUBCHEM_MOLECULAR_WEIGHT>
432.76834

> <PUBCHEM_OPENEYE_CAN_SMILES>
CC[N+](C)(CC)C1CCC2(C(C1)CCC3C2CCC4(C3CCC4[N+](C)(CC)CC)C)C

> <PUBCHEM_OPENEYE_ISO_SMILES>
CC[N+](C)(CC)[C@@H]1CC[C@]2(C(C1)CC[C@@H]3C2CC[C@]4(C3CC[C@H]4[N+](C)(CC)CC)C)C

> <PUBCHEM_CACTVS_TPSA>
0

> <PUBCHEM_MONOISOTOPIC_WEIGHT>
432.44435

> <PUBCHEM_TOTAL_CHARGE>
2

> <PUBCHEM_HEAVY_ATOM_COUNT>
31

> <PUBCHEM_ATOM_DEF_STEREO_COUNT>
5

> <PUBCHEM_ATOM_UDEF_STEREO_COUNT>
3

> <PUBCHEM_BOND_DEF_STEREO_COUNT>
0

> <PUBCHEM_BOND_UDEF_STEREO_COUNT>
0

> <PUBCHEM_ISOTOPIC_ATOM_COUNT>
0

> <PUBCHEM_COMPONENT_COUNT>
1

> <PUBCHEM_CACTVS_TAUTO_COUNT>
1

> <PUBCHEM_COORDINATE_TYPE>
1
5
255

> <PUBCHEM_BONDANNOTATIONS>
8  1  6
19  2  6
3  18  5
4  32  3
5  33  5
6  34  3
7  21  5
9  36  3

$$$$

