439278
  -OEChem-07051212443D

 18 17  0     1  0  0  0  0  0999 V2000
    1.7366   -0.0431   -0.0542 P   0  0  0  0  0  0  0  0  0  0  0  0
    0.3633   -0.8975   -0.0306 O   0  0  0  0  0  0  0  0  0  0  0  0
   -2.2786   -1.6397   -0.7381 O   0  0  0  0  0  0  0  0  0  0  0  0
    2.8137   -1.0638   -0.6971 O   0  0  0  0  0  0  0  0  0  0  0  0
    2.1558    0.0053    1.5069 O   0  0  0  0  0  0  0  0  0  0  0  0
   -1.6320    1.8547    0.8297 O   0  0  0  0  0  0  0  0  0  0  0  0
    1.6403    1.2953   -0.7264 O   0  0  0  0  0  0  0  0  0  0  0  0
   -0.9956    1.2017   -1.2542 O   0  0  0  0  0  0  0  0  0  0  0  0
   -0.7688   -0.3383    0.6193 C   0  0  2  0  0  0  0  0  0  0  0  0
   -1.9141   -1.3420    0.6053 C   0  0  0  0  0  0  0  0  0  0  0  0
   -1.1205    0.9674   -0.0606 C   0  0  0  0  0  0  0  0  0  0  0  0
   -0.4862   -0.1307    1.6577 H   0  0  0  0  0  0  0  0  0  0  0  0
   -1.6072   -2.2785    1.0817 H   0  0  0  0  0  0  0  0  0  0  0  0
   -2.7929   -0.9409    1.1198 H   0  0  0  0  0  0  0  0  0  0  0  0
   -3.0074   -2.2822   -0.6997 H   0  0  0  0  0  0  0  0  0  0  0  0
    3.7231   -0.7428   -0.8763 H   0  0  0  0  0  0  0  0  0  0  0  0
    2.9216    0.5561    1.7757 H   0  0  0  0  0  0  0  0  0  0  0  0
   -1.8784    2.7021    0.4012 H   0  0  0  0  0  0  0  0  0  0  0  0
  1  2  1  0  0  0  0
  1  4  1  0  0  0  0
  1  5  1  0  0  0  0
  1  7  2  0  0  0  0
  2  9  1  0  0  0  0
  3 10  1  0  0  0  0
  3 15  1  0  0  0  0
  4 16  1  0  0  0  0
  5 17  1  0  0  0  0
  6 11  1  0  0  0  0
  6 18  1  0  0  0  0
  8 11  2  0  0  0  0
  9 10  1  0  0  0  0
  9 11  1  0  0  0  0
  9 12  1  0  0  0  0
 10 13  1  0  0  0  0
 10 14  1  0  0  0  0
M  END
> <PUBCHEM_COMPOUND_CID>
439278

> <PUBCHEM_CONFORMER_RMSD>
0.6

> <PUBCHEM_CONFORMER_DIVERSEORDER>
1
4
8
3
11
2
7
9
10
6
5

> <PUBCHEM_MMFF94_PARTIAL_CHARGES>
15
1 1.51
10 0.28
11 0.66
15 0.4
16 0.5
17 0.5
18 0.5
2 -0.55
3 -0.68
4 -0.77
5 -0.77
6 -0.65
7 -0.7
8 -0.57
9 0.34

> <PUBCHEM_EFFECTIVE_ROTOR_COUNT>
4

> <PUBCHEM_PHARMACOPHORE_FEATURES>
9
1 3 acceptor
1 3 donor
1 4 acceptor
1 5 acceptor
1 6 acceptor
1 7 acceptor
1 8 acceptor
3 6 8 11 anion
4 1 4 5 7 anion

> <PUBCHEM_HEAVY_ATOM_COUNT>
11

> <PUBCHEM_ATOM_DEF_STEREO_COUNT>
1

> <PUBCHEM_ATOM_UDEF_STEREO_COUNT>
0

> <PUBCHEM_BOND_DEF_STEREO_COUNT>
0

> <PUBCHEM_BOND_UDEF_STEREO_COUNT>
0

> <PUBCHEM_ISOTOPIC_ATOM_COUNT>
0

> <PUBCHEM_COMPONENT_COUNT>
1

> <PUBCHEM_CACTVS_TAUTO_COUNT>
1

> <PUBCHEM_CONFORMER_ID>
0006B3EE00000001

> <PUBCHEM_MMFF94_ENERGY>
-16.2754

> <PUBCHEM_FEATURE_SELFOVERLAP>
45.77

> <PUBCHEM_SHAPE_FINGERPRINT>
16945 1 18200883971129812277
20711985 344 18201440302412055895
21040471 1 18124316270325459304
23235685 24 18122901194697620896
23552423 10 18272927198370480618
241688 4 18131624573865478812
24536 1 18408327708908555040
369184 2 17095529508245929482
5084963 1 18334287665383277930

> <PUBCHEM_SHAPE_MULTIPOLES>
189.14
3.43
1.74
1.11
1.38
0.31
0.13
-1.05
-0.13
-0.93
-0.15
0.14
0.1
-0.14

> <PUBCHEM_SHAPE_SELFOVERLAP>
350.809

> <PUBCHEM_SHAPE_VOLUME>
118.7

> <PUBCHEM_COORDINATE_TYPE>
2
5
10

$$$$

