25010747
  -OEChem-07051213103D

 19 18  0     0  0  0  0  0  0999 V2000
    2.9441    0.1193   -0.5941 S   0  0  0  0  0  0  0  0  0  0  0  0
   -2.9772    1.3919   -0.0219 O   0  0  0  0  0  0  0  0  0  0  0  0
   -2.3461    0.2321   -0.4777 N   0  0  0  0  0  0  0  0  0  0  0  0
    0.7098   -1.1856    0.3505 C   0  0  0  0  0  0  0  0  0  0  0  0
   -0.7876   -1.4777    0.2700 C   0  0  0  0  0  0  0  0  0  0  0  0
    1.1611   -0.2010   -0.7272 C   0  0  0  0  0  0  0  0  0  0  0  0
   -1.5955   -0.2244    0.4679 C   0  0  0  0  0  0  0  0  0  0  0  0
    2.8913    1.3455    0.7325 C   0  0  0  0  0  0  0  0  0  0  0  0
    1.2547   -2.1325    0.2495 H   0  0  0  0  0  0  0  0  0  0  0  0
    0.9333   -0.7874    1.3476 H   0  0  0  0  0  0  0  0  0  0  0  0
   -1.0670   -2.1815    1.0611 H   0  0  0  0  0  0  0  0  0  0  0  0
   -1.0388   -1.9318   -0.6948 H   0  0  0  0  0  0  0  0  0  0  0  0
    0.9742   -0.6305   -1.7173 H   0  0  0  0  0  0  0  0  0  0  0  0
    0.6209    0.7491   -0.6779 H   0  0  0  0  0  0  0  0  0  0  0  0
   -1.5133    0.2771    1.4490 H   0  0  0  0  0  0  0  0  0  0  0  0
    3.9054    1.7087    0.9211 H   0  0  0  0  0  0  0  0  0  0  0  0
    2.5100    0.9064    1.6574 H   0  0  0  0  0  0  0  0  0  0  0  0
    2.2706    2.1979    0.4444 H   0  0  0  0  0  0  0  0  0  0  0  0
   -3.5048    1.6452   -0.7981 H   0  0  0  0  0  0  0  0  0  0  0  0
  1  6  1  0  0  0  0
  1  8  1  0  0  0  0
  2  3  1  0  0  0  0
  2 19  1  0  0  0  0
  3  7  2  0  0  0  0
  4  5  1  0  0  0  0
  4  6  1  0  0  0  0
  4  9  1  0  0  0  0
  4 10  1  0  0  0  0
  5  7  1  0  0  0  0
  5 11  1  0  0  0  0
  5 12  1  0  0  0  0
  6 13  1  0  0  0  0
  6 14  1  0  0  0  0
  7 15  1  0  0  0  0
  8 16  1  0  0  0  0
  8 17  1  0  0  0  0
  8 18  1  0  0  0  0
M  END
> <PUBCHEM_COMPOUND_CID>
25010747

> <PUBCHEM_CONFORMER_RMSD>
0.6

> <PUBCHEM_CONFORMER_DIVERSEORDER>
7
26
31
2
32
16
8
33
13
30
34
1
35
10
11
24
3
23
21
15
17
29
4
14
18
27
5
22
9
12
20
25
6
28
19

> <PUBCHEM_MMFF94_PARTIAL_CHARGES>
9
1 -0.46
15 0.06
19 0.4
2 -0.34
3 -0.51
5 0.06
6 0.23
7 0.33
8 0.23

> <PUBCHEM_EFFECTIVE_ROTOR_COUNT>
4

> <PUBCHEM_PHARMACOPHORE_FEATURES>
4
1 2 anion
1 3 acceptor
1 8 hydrophobe
4 1 4 5 6 hydrophobe

> <PUBCHEM_HEAVY_ATOM_COUNT>
8

> <PUBCHEM_ATOM_DEF_STEREO_COUNT>
0

> <PUBCHEM_ATOM_UDEF_STEREO_COUNT>
0

> <PUBCHEM_BOND_DEF_STEREO_COUNT>
1

> <PUBCHEM_BOND_UDEF_STEREO_COUNT>
0

> <PUBCHEM_ISOTOPIC_ATOM_COUNT>
0

> <PUBCHEM_COMPONENT_COUNT>
1

> <PUBCHEM_CACTVS_TAUTO_COUNT>
2

> <PUBCHEM_CONFORMER_ID>
017DA23B00000007

> <PUBCHEM_MMFF94_ENERGY>
7.6863

> <PUBCHEM_FEATURE_SELFOVERLAP>
20.299

> <PUBCHEM_SHAPE_FINGERPRINT>
10149128 76 18261675874598620448
12897270 3 16226047790485524226
12932741 1 18042670742105119102
12932764 1 18189602870349987710
14128692 85 7276828004470477762
14390081 3 18409729555936901379
20653085 51 18186792586889627658
21028194 46 18411409609746574994
21040471 1 18201429277157511334
23211744 41 18262226708449455638
29004967 10 11959740322089879262

> <PUBCHEM_SHAPE_MULTIPOLES>
157.64
5.01
1.5
0.88
0.37
0.08
-0.01
2.68
-0.16
-0.37
0.25
0.36
0.04
0.5

> <PUBCHEM_SHAPE_SELFOVERLAP>
266.622

> <PUBCHEM_SHAPE_VOLUME>
107.7

> <PUBCHEM_COORDINATE_TYPE>
2
5
10

$$$$

