124
  -OEChem-07051212482D

 17 16  0     1  0  0  0  0  0999 V2000
    2.5369    0.2500    0.0000 O   0  0  0  0  0  0  0  0  0  0  0  0
    5.1350   -1.2500    0.0000 O   0  0  0  0  0  0  0  0  0  0  0  0
    6.8671   -0.2500    0.0000 O   0  0  0  0  0  0  0  0  0  0  0  0
    6.0010    1.2500    0.0000 O   0  0  0  0  0  0  0  0  0  0  0  0
    3.4030   -0.2500    0.0000 C   0  0  3  0  0  0  0  0  0  0  0  0
    4.2690    0.2500    0.0000 C   0  0  0  0  0  0  0  0  0  0  0  0
    3.4030   -1.2500    0.0000 C   0  0  0  0  0  0  0  0  0  0  0  0
    5.1350   -0.2500    0.0000 C   0  0  0  0  0  0  0  0  0  0  0  0
    6.0010    0.2500    0.0000 C   0  0  0  0  0  0  0  0  0  0  0  0
    3.4030    0.6000    0.0000 H   0  0  0  0  0  0  0  0  0  0  0  0
    4.6675    0.7249    0.0000 H   0  0  0  0  0  0  0  0  0  0  0  0
    3.8705    0.7249    0.0000 H   0  0  0  0  0  0  0  0  0  0  0  0
    2.7830   -1.2500    0.0000 H   0  0  0  0  0  0  0  0  0  0  0  0
    3.4030   -1.8700    0.0000 H   0  0  0  0  0  0  0  0  0  0  0  0
    4.0230   -1.2500    0.0000 H   0  0  0  0  0  0  0  0  0  0  0  0
    2.0000   -0.0600    0.0000 H   0  0  0  0  0  0  0  0  0  0  0  0
    7.4040    0.0600    0.0000 H   0  0  0  0  0  0  0  0  0  0  0  0
  1  5  1  0  0  0  0
  1 16  1  0  0  0  0
  2  8  2  0  0  0  0
  3  9  1  0  0  0  0
  3 17  1  0  0  0  0
  4  9  2  0  0  0  0
  5  6  1  0  0  0  0
  5  7  1  0  0  0  0
  5 10  1  0  0  0  0
  6  8  1  0  0  0  0
  6 11  1  0  0  0  0
  6 12  1  0  0  0  0
  7 13  1  0  0  0  0
  7 14  1  0  0  0  0
  7 15  1  0  0  0  0
  8  9  1  0  0  0  0
M  END
> <PUBCHEM_COMPOUND_CID>
124

> <PUBCHEM_COMPOUND_CANONICALIZED>
1

> <PUBCHEM_CACTVS_COMPLEXITY>
129

> <PUBCHEM_CACTVS_HBOND_ACCEPTOR>
4

> <PUBCHEM_CACTVS_HBOND_DONOR>
2

> <PUBCHEM_CACTVS_ROTATABLE_BOND>
3

> <PUBCHEM_CACTVS_SUBSKEYS>
AAADccBgOAAAAAAAAAAAAAAAAAAAAAAAAAAAAAAAAAAAAAAAAAAAGgAACAAACBSggAICCAAAAgAIAICQCAIAAAAAAAAAAAFAAAAAEBYAAAAAQAAEIAAAAADKAAAAAAAAAAAAAAAAAAAAAAAAAAAAAAAAAA==

> <PUBCHEM_IUPAC_OPENEYE_NAME>
4-hydroxy-2-oxo-pentanoic acid

> <PUBCHEM_IUPAC_CAS_NAME>
4-hydroxy-2-oxopentanoic acid

> <PUBCHEM_IUPAC_NAME>
4-hydroxy-2-oxopentanoic acid

> <PUBCHEM_IUPAC_SYSTEMATIC_NAME>
4-oxidanyl-2-oxidanylidene-pentanoic acid

> <PUBCHEM_IUPAC_TRADITIONAL_NAME>
4-hydroxy-2-keto-valeric acid

> <PUBCHEM_IUPAC_INCHI>
InChI=1S/C5H8O4/c1-3(6)2-4(7)5(8)9/h3,6H,2H2,1H3,(H,8,9)

> <PUBCHEM_IUPAC_INCHIKEY>
HFKQINMYQUXOCH-UHFFFAOYSA-N

> <PUBCHEM_XLOGP3_AA>
-0.6

> <PUBCHEM_EXACT_MASS>
132.042259

> <PUBCHEM_MOLECULAR_FORMULA>
C5H8O4

> <PUBCHEM_MOLECULAR_WEIGHT>
132.11462

> <PUBCHEM_OPENEYE_CAN_SMILES>
CC(CC(=O)C(=O)O)O

> <PUBCHEM_OPENEYE_ISO_SMILES>
CC(CC(=O)C(=O)O)O

> <PUBCHEM_CACTVS_TPSA>
74.6

> <PUBCHEM_MONOISOTOPIC_WEIGHT>
132.042259

> <PUBCHEM_TOTAL_CHARGE>
0

> <PUBCHEM_HEAVY_ATOM_COUNT>
9

> <PUBCHEM_ATOM_DEF_STEREO_COUNT>
0

> <PUBCHEM_ATOM_UDEF_STEREO_COUNT>
1

> <PUBCHEM_BOND_DEF_STEREO_COUNT>
0

> <PUBCHEM_BOND_UDEF_STEREO_COUNT>
0

> <PUBCHEM_ISOTOPIC_ATOM_COUNT>
0

> <PUBCHEM_COMPONENT_COUNT>
1

> <PUBCHEM_CACTVS_TAUTO_COUNT>
2

> <PUBCHEM_COORDINATE_TYPE>
1
5
255

> <PUBCHEM_BONDANNOTATIONS>
5  10  3

$$$$

