443323
  -OEChem-07051213023D

 66 69  0     1  0  0  0  0  0999 V2000
    0.1072    1.8811   -0.7687 O   0  0  0  0  0  0  0  0  0  0  0  0
   -5.7306    1.8122   -2.0120 O   0  0  0  0  0  0  0  0  0  0  0  0
    7.2937    1.0248    0.9631 O   0  0  0  0  0  0  0  0  0  0  0  0
    6.3911   -1.0099    0.5139 O   0  0  0  0  0  0  0  0  0  0  0  0
    0.9917   -0.1445    0.2660 C   0  0  1  0  0  0  0  0  0  0  0  0
    0.0125   -1.0816   -0.4933 C   0  0  2  0  0  0  0  0  0  0  0  0
   -1.9913    0.0679    0.4721 C   0  0  1  0  0  0  0  0  0  0  0  0
   -1.2855   -1.3183    0.2900 C   0  0  1  0  0  0  0  0  0  0  0  0
    2.1717   -0.1727   -0.7418 C   0  0  2  0  0  0  0  0  0  0  0  0
   -3.4254   -0.1042    1.0905 C   0  0  2  0  0  0  0  0  0  0  0  0
    0.3121    1.2254    0.4838 C   0  0  2  0  0  0  0  0  0  0  0  0
   -1.0568    1.0757    1.1902 C   0  0  0  0  0  0  0  0  0  0  0  0
    0.8858   -2.2763   -0.8728 C   0  0  0  0  0  0  0  0  0  0  0  0
    2.2688   -1.6605   -1.1532 C   0  0  0  0  0  0  0  0  0  0  0  0
   -4.2734   -0.9761    0.0932 C   0  0  2  0  0  0  0  0  0  0  0  0
    1.4409   -0.6964    1.6473 C   0  0  0  0  0  0  0  0  0  0  0  0
    3.4962    0.3945   -0.2517 C   0  0  1  0  0  0  0  0  0  0  0  0
   -4.1496    1.2470    1.3412 C   0  0  0  0  0  0  0  0  0  0  0  0
   -2.1988   -2.3390   -0.3382 C   0  0  0  0  0  0  0  0  0  0  0  0
   -3.5291   -2.1921   -0.4104 C   0  0  0  0  0  0  0  0  0  0  0  0
   -4.7592   -0.1968   -1.1466 C   0  0  0  0  0  0  0  0  0  0  0  0
   -3.3545   -0.8136    2.4692 C   0  0  0  0  0  0  0  0  0  0  0  0
   -4.5315    1.9894    0.0692 C   0  0  0  0  0  0  0  0  0  0  0  0
   -5.4330    1.1248   -0.8011 C   0  0  1  0  0  0  0  0  0  0  0  0
    4.5722    0.2547   -1.3480 C   0  0  0  0  0  0  0  0  0  0  0  0
    3.3125    1.8498    0.1912 C   0  0  0  0  0  0  0  0  0  0  0  0
    5.9224    0.8655   -0.9676 C   0  0  0  0  0  0  0  0  0  0  0  0
    6.5400    0.1691    0.2243 C   0  0  0  0  0  0  0  0  0  0  0  0
   -0.2718   -0.6058   -1.4465 H   0  0  0  0  0  0  0  0  0  0  0  0
   -2.1353    0.4848   -0.5351 H   0  0  0  0  0  0  0  0  0  0  0  0
   -1.0249   -1.7299    1.2711 H   0  0  0  0  0  0  0  0  0  0  0  0
    1.8789    0.3822   -1.6457 H   0  0  0  0  0  0  0  0  0  0  0  0
    0.9004    1.8976    1.1066 H   0  0  0  0  0  0  0  0  0  0  0  0
   -1.5337    2.0617    1.2054 H   0  0  0  0  0  0  0  0  0  0  0  0
   -0.9080    0.7757    2.2322 H   0  0  0  0  0  0  0  0  0  0  0  0
    0.5014   -2.8004   -1.7541 H   0  0  0  0  0  0  0  0  0  0  0  0
    0.9494   -3.0047   -0.0567 H   0  0  0  0  0  0  0  0  0  0  0  0
    3.0316   -2.2024   -0.5824 H   0  0  0  0  0  0  0  0  0  0  0  0
    2.5237   -1.7521   -2.2150 H   0  0  0  0  0  0  0  0  0  0  0  0
   -5.1638   -1.3313    0.6306 H   0  0  0  0  0  0  0  0  0  0  0  0
    1.9837   -1.6432    1.5662 H   0  0  0  0  0  0  0  0  0  0  0  0
    2.1006    0.0075    2.1645 H   0  0  0  0  0  0  0  0  0  0  0  0
    0.6016   -0.8743    2.3244 H   0  0  0  0  0  0  0  0  0  0  0  0
    3.8418   -0.1760    0.6181 H   0  0  0  0  0  0  0  0  0  0  0  0
   -3.5506    1.9012    1.9838 H   0  0  0  0  0  0  0  0  0  0  0  0
   -5.0747    1.0587    1.9045 H   0  0  0  0  0  0  0  0  0  0  0  0
   -1.7616   -3.2632   -0.7053 H   0  0  0  0  0  0  0  0  0  0  0  0
   -4.1190   -2.9837   -0.8656 H   0  0  0  0  0  0  0  0  0  0  0  0
   -3.9285   -0.0057   -1.8404 H   0  0  0  0  0  0  0  0  0  0  0  0
   -5.4641   -0.8126   -1.7226 H   0  0  0  0  0  0  0  0  0  0  0  0
   -2.9342   -1.8213    2.4127 H   0  0  0  0  0  0  0  0  0  0  0  0
   -2.7537   -0.2393    3.1818 H   0  0  0  0  0  0  0  0  0  0  0  0
   -4.3560   -0.9210    2.9031 H   0  0  0  0  0  0  0  0  0  0  0  0
   -5.0532    2.9196    0.3258 H   0  0  0  0  0  0  0  0  0  0  0  0
   -3.6401    2.2988   -0.4895 H   0  0  0  0  0  0  0  0  0  0  0  0
   -6.3814    0.9292   -0.2869 H   0  0  0  0  0  0  0  0  0  0  0  0
   -0.3084    2.7411   -0.5871 H   0  0  0  0  0  0  0  0  0  0  0  0
    4.7259   -0.8023   -1.5948 H   0  0  0  0  0  0  0  0  0  0  0  0
    4.2239    0.7438   -2.2667 H   0  0  0  0  0  0  0  0  0  0  0  0
    2.7505    2.4371   -0.5407 H   0  0  0  0  0  0  0  0  0  0  0  0
    2.8388    1.9096    1.1708 H   0  0  0  0  0  0  0  0  0  0  0  0
    4.2623    2.3640    0.3502 H   0  0  0  0  0  0  0  0  0  0  0  0
    6.6203    0.7309   -1.8030 H   0  0  0  0  0  0  0  0  0  0  0  0
    5.8582    1.9421   -0.7953 H   0  0  0  0  0  0  0  0  0  0  0  0
   -6.1642    2.6494   -1.7745 H   0  0  0  0  0  0  0  0  0  0  0  0
    7.6941    0.5807    1.7408 H   0  0  0  0  0  0  0  0  0  0  0  0
  1 11  1  0  0  0  0
  1 57  1  0  0  0  0
  2 24  1  0  0  0  0
  2 65  1  0  0  0  0
  3 28  1  0  0  0  0
  3 66  1  0  0  0  0
  4 28  2  0  0  0  0
  5  6  1  0  0  0  0
  5  9  1  0  0  0  0
  5 11  1  0  0  0  0
  5 16  1  0  0  0  0
  6  8  1  0  0  0  0
  6 13  1  0  0  0  0
  6 29  1  0  0  0  0
  7  8  1  0  0  0  0
  7 10  1  0  0  0  0
  7 12  1  0  0  0  0
  7 30  1  0  0  0  0
  8 19  1  0  0  0  0
  8 31  1  0  0  0  0
  9 14  1  0  0  0  0
  9 17  1  0  0  0  0
  9 32  1  0  0  0  0
 10 15  1  0  0  0  0
 10 18  1  0  0  0  0
 10 22  1  0  0  0  0
 11 12  1  0  0  0  0
 11 33  1  0  0  0  0
 12 34  1  0  0  0  0
 12 35  1  0  0  0  0
 13 14  1  0  0  0  0
 13 36  1  0  0  0  0
 13 37  1  0  0  0  0
 14 38  1  0  0  0  0
 14 39  1  0  0  0  0
 15 20  1  0  0  0  0
 15 21  1  0  0  0  0
 15 40  1  0  0  0  0
 16 41  1  0  0  0  0
 16 42  1  0  0  0  0
 16 43  1  0  0  0  0
 17 25  1  0  0  0  0
 17 26  1  0  0  0  0
 17 44  1  0  0  0  0
 18 23  1  0  0  0  0
 18 45  1  0  0  0  0
 18 46  1  0  0  0  0
 19 20  2  0  0  0  0
 19 47  1  0  0  0  0
 20 48  1  0  0  0  0
 21 24  1  0  0  0  0
 21 49  1  0  0  0  0
 21 50  1  0  0  0  0
 22 51  1  0  0  0  0
 22 52  1  0  0  0  0
 22 53  1  0  0  0  0
 23 24  1  0  0  0  0
 23 54  1  0  0  0  0
 23 55  1  0  0  0  0
 24 56  1  0  0  0  0
 25 27  1  0  0  0  0
 25 58  1  0  0  0  0
 25 59  1  0  0  0  0
 26 60  1  0  0  0  0
 26 61  1  0  0  0  0
 26 62  1  0  0  0  0
 27 28  1  0  0  0  0
 27 63  1  0  0  0  0
 27 64  1  0  0  0  0
M  END
> <PUBCHEM_COMPOUND_CID>
443323

> <PUBCHEM_CONFORMER_RMSD>
0.8

> <PUBCHEM_CONFORMER_DIVERSEORDER>
1
4
3
2

> <PUBCHEM_MMFF94_PARTIAL_CHARGES>
17
1 -0.68
11 0.28
15 0.14
19 -0.29
2 -0.68
20 -0.29
24 0.28
27 0.06
28 0.66
3 -0.65
4 -0.57
47 0.15
48 0.15
57 0.4
65 0.4
66 0.5
8 0.14

> <PUBCHEM_EFFECTIVE_ROTOR_COUNT>
5.8

> <PUBCHEM_PHARMACOPHORE_FEATURES>
12
1 1 acceptor
1 1 donor
1 2 acceptor
1 2 donor
1 26 hydrophobe
1 3 acceptor
1 4 acceptor
3 3 4 28 anion
5 5 6 9 13 14 rings
6 10 15 18 21 23 24 rings
6 5 6 7 8 11 12 rings
6 7 8 10 15 19 20 rings

> <PUBCHEM_HEAVY_ATOM_COUNT>
28

> <PUBCHEM_ATOM_DEF_STEREO_COUNT>
10

> <PUBCHEM_ATOM_UDEF_STEREO_COUNT>
0

> <PUBCHEM_BOND_DEF_STEREO_COUNT>
0

> <PUBCHEM_BOND_UDEF_STEREO_COUNT>
0

> <PUBCHEM_ISOTOPIC_ATOM_COUNT>
0

> <PUBCHEM_COMPONENT_COUNT>
1

> <PUBCHEM_CACTVS_TAUTO_COUNT>
1

> <PUBCHEM_CONFORMER_ID>
0006C3BB00000001

> <PUBCHEM_MMFF94_ENERGY>
93.8431

> <PUBCHEM_FEATURE_SELFOVERLAP>
61.068

> <PUBCHEM_SHAPE_FINGERPRINT>
10366900 7 17240485831423156347
10675989 125 17256520254452765033
11089746 13 18410298003712452588
11315181 36 18114178601693160816
12236239 1 18130788941313436194
12422481 6 17917991663954684916
12788726 201 18268436909211381193
13533116 47 17989208149563060506
13583140 156 17846211138240885465
13782708 43 15575258996363522892
13914758 101 17988930002573963758
14856354 85 15697991920983083475
15183329 4 18410851062688377420
15788980 27 18059852840044758218
1601671 61 18410008840765322772
17093844 174 18343305833979055952
17980427 23 16733250283970640145
18608769 82 18334853876024173787
18769570 83 17632296791412422061
20511986 3 18410303514371985526
21150785 3 15285363911940555100
21279426 13 18261664952755399470
21709351 56 18337105679177810716
21859007 373 18341348746632980708
22393880 68 18261399905838412239
23402539 116 18412261718747551078
23559900 14 17968383359544368304
23569914 152 16233344398798417308
2838139 119 18131636685763119885
32027 91 17607222527884460950
34934 24 18412822521048668739
350125 39 18262788568003189419
4015057 19 16805889485162338160
4169191 19 17969218941939145744
5104073 3 18263064647725971627
6086070 43 18337406962533290144
7226269 152 18412542111218676872
9981440 41 18410002230516073923

> <PUBCHEM_SHAPE_MULTIPOLES>
552.75
14.81
2.23
1.56
17.31
0.46
-0.32
-5.14
1.83
-1.5
0.43
-1.28
-0.16
0.68

> <PUBCHEM_SHAPE_SELFOVERLAP>
1164.262

> <PUBCHEM_SHAPE_VOLUME>
308.5

> <PUBCHEM_COORDINATE_TYPE>
2
5
10

$$$$

