9745
  -OEChem-06261204013D

 12 12  0     0  0  0  0  0  0999 V2000
    2.4409   -1.2324   -0.0001 F   0  0  0  0  0  0  0  0  0  0  0  0
   -0.1532    2.7300    0.0000 F   0  0  0  0  0  0  0  0  0  0  0  0
   -2.2878   -1.4976   -0.0001 F   0  0  0  0  0  0  0  0  0  0  0  0
    1.2451   -0.6286    0.0001 C   0  0  0  0  0  0  0  0  0  0  0  0
   -0.0781    1.3927    0.0000 C   0  0  0  0  0  0  0  0  0  0  0  0
   -1.1670   -0.7640    0.0000 C   0  0  0  0  0  0  0  0  0  0  0  0
    1.1671    0.7640   -0.0001 C   0  0  0  0  0  0  0  0  0  0  0  0
    0.0781   -1.3927    0.0002 C   0  0  0  0  0  0  0  0  0  0  0  0
   -1.2451    0.6286    0.0001 C   0  0  0  0  0  0  0  0  0  0  0  0
    2.0757    1.3588   -0.0001 H   0  0  0  0  0  0  0  0  0  0  0  0
    0.1389   -2.4768    0.0002 H   0  0  0  0  0  0  0  0  0  0  0  0
   -2.2144    1.1181    0.0001 H   0  0  0  0  0  0  0  0  0  0  0  0
  1  4  1  0  0  0  0
  2  5  1  0  0  0  0
  3  6  1  0  0  0  0
  4  7  2  0  0  0  0
  4  8  1  0  0  0  0
  5  7  1  0  0  0  0
  5  9  2  0  0  0  0
  6  8  2  0  0  0  0
  6  9  1  0  0  0  0
  7 10  1  0  0  0  0
  8 11  1  0  0  0  0
  9 12  1  0  0  0  0
M  END
> <PUBCHEM_COMPOUND_CID>
9745

> <PUBCHEM_CONFORMER_RMSD>
0.4

> <PUBCHEM_CONFORMER_DIVERSEORDER>
1

> <PUBCHEM_MMFF94_PARTIAL_CHARGES>
12
1 -0.19
10 0.15
11 0.15
12 0.15
2 -0.19
3 -0.19
4 0.19
5 0.19
6 0.19
7 -0.15
8 -0.15
9 -0.15

> <PUBCHEM_EFFECTIVE_ROTOR_COUNT>
0

> <PUBCHEM_PHARMACOPHORE_FEATURES>
1
6 4 5 6 7 8 9 rings

> <PUBCHEM_HEAVY_ATOM_COUNT>
9

> <PUBCHEM_ATOM_DEF_STEREO_COUNT>
0

> <PUBCHEM_ATOM_UDEF_STEREO_COUNT>
0

> <PUBCHEM_BOND_DEF_STEREO_COUNT>
0

> <PUBCHEM_BOND_UDEF_STEREO_COUNT>
0

> <PUBCHEM_ISOTOPIC_ATOM_COUNT>
0

> <PUBCHEM_COMPONENT_COUNT>
1

> <PUBCHEM_CACTVS_TAUTO_COUNT>
1

> <PUBCHEM_CONFORMER_ID>
0000261100000001

> <PUBCHEM_MMFF94_ENERGY>
13.3574

> <PUBCHEM_FEATURE_SELFOVERLAP>
5.074

> <PUBCHEM_SHAPE_FINGERPRINT>
12423570 1 8788954348596794343
16945 1 17978510836540668999
18185500 45 18410290268207281623
21040471 1 16681472885506628801
23552423 10 18272927267359125694
241688 4 18410575106137915800
2748010 2 18409733945388203268
29004967 10 18268991973150536243

> <PUBCHEM_SHAPE_MULTIPOLES>
163.39
2.23
2.23
0.58
1.06
0.66
0
-0.66
0
-1.06
0
0
0
0

> <PUBCHEM_SHAPE_SELFOVERLAP>
344.923

> <PUBCHEM_SHAPE_VOLUME>
92.5

> <PUBCHEM_COORDINATE_TYPE>
2
5
10

$$$$

