440587
  -OEChem-07051212503D

 46 50  0     1  0  0  0  0  0999 V2000
    0.1020   -3.7345   -0.2495 O   0  0  0  0  0  0  0  0  0  0  0  0
    4.5317   -1.1647   -0.1631 O   0  0  0  0  0  0  0  0  0  0  0  0
    5.8779    0.8058    0.1202 O   0  0  0  0  0  0  0  0  0  0  0  0
   -5.7795   -0.3618    0.4516 O   0  0  0  0  0  0  0  0  0  0  0  0
   -5.1036    1.9486    0.5469 O   0  0  0  0  0  0  0  0  0  0  0  0
   -0.1356    0.9132   -2.0410 O   0  0  0  0  0  0  0  0  0  0  0  0
    0.4791   -1.5365    0.6965 N   0  0  2  0  0  0  0  0  0  0  0  0
   -0.5020   -2.5027    0.1601 C   0  0  1  0  0  0  0  0  0  0  0  0
    1.6022   -1.2922   -0.2246 C   0  0  0  0  0  0  0  0  0  0  0  0
   -1.3316   -1.9455   -1.0199 C   0  0  0  0  0  0  0  0  0  0  0  0
    2.3703   -0.0068    0.0227 C   0  0  0  0  0  0  0  0  0  0  0  0
   -2.2850   -0.8378   -0.6333 C   0  0  0  0  0  0  0  0  0  0  0  0
    1.7714    1.2684    0.1882 C   0  0  0  0  0  0  0  0  0  0  0  0
    0.2761    1.4984    0.2781 C   0  0  0  0  0  0  0  0  0  0  0  0
   -1.9076    0.5258   -0.5666 C   0  0  0  0  0  0  0  0  0  0  0  0
    3.7653   -0.0464    0.0081 C   0  0  0  0  0  0  0  0  0  0  0  0
   -0.5327    0.9630   -0.8831 C   0  0  0  0  0  0  0  0  0  0  0  0
   -3.6040   -1.1871   -0.2882 C   0  0  0  0  0  0  0  0  0  0  0  0
    0.9613   -1.9599    2.0143 C   0  0  0  0  0  0  0  0  0  0  0  0
    4.5454    1.0774    0.1658 C   0  0  0  0  0  0  0  0  0  0  0  0
    2.5999    2.4107    0.3566 C   0  0  0  0  0  0  0  0  0  0  0  0
   -2.8126    1.5227   -0.1743 C   0  0  0  0  0  0  0  0  0  0  0  0
   -4.4783   -0.1878    0.0920 C   0  0  0  0  0  0  0  0  0  0  0  0
   -4.0933    1.1295    0.1468 C   0  0  0  0  0  0  0  0  0  0  0  0
    3.9917    2.3220    0.3432 C   0  0  0  0  0  0  0  0  0  0  0  0
    5.8613   -0.6181   -0.0864 C   0  0  0  0  0  0  0  0  0  0  0  0
   -6.1696    0.9965    0.7389 C   0  0  0  0  0  0  0  0  0  0  0  0
   -1.2179   -2.7586    0.9528 H   0  0  0  0  0  0  0  0  0  0  0  0
    1.2671   -1.2299   -1.2647 H   0  0  0  0  0  0  0  0  0  0  0  0
    2.2784   -2.1568   -0.2000 H   0  0  0  0  0  0  0  0  0  0  0  0
   -1.9146   -2.7749   -1.4468 H   0  0  0  0  0  0  0  0  0  0  0  0
   -0.7037   -1.6383   -1.8624 H   0  0  0  0  0  0  0  0  0  0  0  0
   -0.0792    1.0717    1.2234 H   0  0  0  0  0  0  0  0  0  0  0  0
    0.0621    2.5740    0.3241 H   0  0  0  0  0  0  0  0  0  0  0  0
   -3.9338   -2.2213   -0.3142 H   0  0  0  0  0  0  0  0  0  0  0  0
    0.1226   -2.1074    2.7038 H   0  0  0  0  0  0  0  0  0  0  0  0
    1.5909   -1.1847    2.4648 H   0  0  0  0  0  0  0  0  0  0  0  0
    1.5434   -2.8869    1.9747 H   0  0  0  0  0  0  0  0  0  0  0  0
    2.1503    3.3910    0.5043 H   0  0  0  0  0  0  0  0  0  0  0  0
   -2.5243    2.5672   -0.1239 H   0  0  0  0  0  0  0  0  0  0  0  0
    4.6066    3.2055    0.4701 H   0  0  0  0  0  0  0  0  0  0  0  0
    0.5095   -4.1353    0.5358 H   0  0  0  0  0  0  0  0  0  0  0  0
    6.3885   -0.8444   -1.0203 H   0  0  0  0  0  0  0  0  0  0  0  0
    6.3923   -1.1003    0.7423 H   0  0  0  0  0  0  0  0  0  0  0  0
   -6.5067    1.0522    1.7803 H   0  0  0  0  0  0  0  0  0  0  0  0
   -7.0050    1.2680    0.0835 H   0  0  0  0  0  0  0  0  0  0  0  0
  1  8  1  0  0  0  0
  1 42  1  0  0  0  0
  2 16  1  0  0  0  0
  2 26  1  0  0  0  0
  3 20  1  0  0  0  0
  3 26  1  0  0  0  0
  4 23  1  0  0  0  0
  4 27  1  0  0  0  0
  5 24  1  0  0  0  0
  5 27  1  0  0  0  0
  6 17  2  0  0  0  0
  7  8  1  0  0  0  0
  7  9  1  0  0  0  0
  7 19  1  0  0  0  0
  8 10  1  0  0  0  0
  8 28  1  0  0  0  0
  9 11  1  0  0  0  0
  9 29  1  0  0  0  0
  9 30  1  0  0  0  0
 10 12  1  0  0  0  0
 10 31  1  0  0  0  0
 10 32  1  0  0  0  0
 11 13  2  0  0  0  0
 11 16  1  0  0  0  0
 12 15  1  0  0  0  0
 12 18  2  0  0  0  0
 13 14  1  0  0  0  0
 13 21  1  0  0  0  0
 14 17  1  0  0  0  0
 14 33  1  0  0  0  0
 14 34  1  0  0  0  0
 15 17  1  0  0  0  0
 15 22  2  0  0  0  0
 16 20  2  0  0  0  0
 18 23  1  0  0  0  0
 18 35  1  0  0  0  0
 19 36  1  0  0  0  0
 19 37  1  0  0  0  0
 19 38  1  0  0  0  0
 20 25  1  0  0  0  0
 21 25  2  0  0  0  0
 21 39  1  0  0  0  0
 22 24  1  0  0  0  0
 22 40  1  0  0  0  0
 23 24  2  0  0  0  0
 25 41  1  0  0  0  0
 26 43  1  0  0  0  0
 26 44  1  0  0  0  0
 27 45  1  0  0  0  0
 27 46  1  0  0  0  0
M  END
> <PUBCHEM_COMPOUND_CID>
440587

> <PUBCHEM_CONFORMER_RMSD>
0.6

> <PUBCHEM_CONFORMER_DIVERSEORDER>
5
22
24
12
25
16
3
2
20
17
23
21
11
14
13
18
1
19
8
7
4
10
15
6
9

> <PUBCHEM_MMFF94_PARTIAL_CHARGES>
32
1 -0.68
10 0.14
11 -0.14
12 -0.14
13 -0.14
14 0.2
15 0.09
16 0.08
17 0.42
18 -0.15
19 0.27
2 -0.36
20 0.08
21 -0.15
22 -0.15
23 0.08
24 0.08
25 -0.15
26 0.56
27 0.56
3 -0.36
35 0.15
39 0.15
4 -0.36
40 0.15
41 0.15
42 0.4
5 -0.36
6 -0.57
7 -0.81
8 0.55
9 0.41

> <PUBCHEM_EFFECTIVE_ROTOR_COUNT>
2.2

> <PUBCHEM_PHARMACOPHORE_FEATURES>
12
1 1 acceptor
1 1 donor
1 2 acceptor
1 3 acceptor
1 4 acceptor
1 5 acceptor
1 6 acceptor
1 7 cation
5 2 3 16 20 26 rings
5 4 5 23 24 27 rings
6 11 13 16 20 21 25 rings
6 12 15 18 22 23 24 rings

> <PUBCHEM_HEAVY_ATOM_COUNT>
27

> <PUBCHEM_ATOM_DEF_STEREO_COUNT>
0

> <PUBCHEM_ATOM_UDEF_STEREO_COUNT>
1

> <PUBCHEM_BOND_DEF_STEREO_COUNT>
0

> <PUBCHEM_BOND_UDEF_STEREO_COUNT>
0

> <PUBCHEM_ISOTOPIC_ATOM_COUNT>
0

> <PUBCHEM_COMPONENT_COUNT>
1

> <PUBCHEM_CACTVS_TAUTO_COUNT>
2

> <PUBCHEM_CONFORMER_ID>
0006B90B00000005

> <PUBCHEM_MMFF94_ENERGY>
85.8858

> <PUBCHEM_FEATURE_SELFOVERLAP>
61.2

> <PUBCHEM_SHAPE_FINGERPRINT>
10382601 240 18131073774543206859
10493431 412 18410294683681542829
10674148 151 18335696170644745512
10906281 52 18335968789135401132
10930396 42 7420085441203627822
1100329 8 18337110064239290297
11036077 3 18411134744840590487
11421498 54 17241040028343862131
12107183 9 17686896529024746737
12236239 1 17967252000844842233
12422481 6 17985853607356607642
12467345 10 18260827115867145457
12633257 1 18410303492880850566
12788726 201 17531514447852056312
12838862 33 18337973250050918201
13402501 40 18411698798442143360
138480 1 17832987526368389359
14341114 176 18407755941261038260
14790565 3 18410570682417078741
14840074 17 17918273134372547405
14955137 171 17988634164942344037
15196674 1 18337111172308840324
15209289 33 18412831265564965238
1601671 61 18411139172793409187
1813 80 17275387590216360077
19591789 44 18411422812475835102
20691752 17 17703243810165959094
20832881 197 18407759248823505128
21033648 29 18340506511766975981
21133410 171 16891798633254093310
21267235 1 18410005537639923501
21279426 13 18263641930174630748
21403212 168 18335424607930626445
23558518 356 17766284176153232032
23559900 14 18261960622968372616
3009799 131 7132436804800694217
3178227 256 18342165683159865393
335352 9 18408603665300443310
338550 245 18341890758129795044
3411729 13 18338230600290766047
350125 39 18411418427383258924
3633792 109 18268731441230738781
3680242 22 18341337790112652746
38695281 34 18113899385832851095
392239 28 18200862999221517411
404807 14 16305668044997134534
4073 2 18199746956116626928
4340502 62 18408881845404546589
469060 322 16414370965397280399
5104073 3 18338806602423116248
5265222 85 18265884775551268196
6138700 20 18338231687007617494
9709674 26 18193561065191811134
9996256 80 18335702702588811455

> <PUBCHEM_SHAPE_MULTIPOLES>
515.45
12.3
2.85
1.05
1.9
1.4
0.03
-4.7
1.96
-0.45
0.28
0.19
0.24
-0.32

> <PUBCHEM_SHAPE_SELFOVERLAP>
1151.562

> <PUBCHEM_SHAPE_VOLUME>
272

> <PUBCHEM_COORDINATE_TYPE>
2
5
10

$$$$

