11953929
  -OEChem-07051212562D

101109  0     1  0  0  0  0  0999 V2000
   11.1457    0.4736    0.0000 O   0  0  0  0  0  0  0  0  0  0  0  0
    9.4139    1.2037    0.0000 O   0  0  0  0  0  0  0  0  0  0  0  0
    5.5639    0.6103    0.0000 O   0  0  0  0  0  0  0  0  0  0  0  0
    2.9937   -3.3004    0.0000 O   0  0  0  0  0  0  0  0  0  0  0  0
    2.7833   -1.9019    0.0000 O   0  0  0  0  0  0  0  0  0  0  0  0
   10.2342    3.8855    0.0000 N   0  0  3  0  0  0  0  0  0  0  0  0
    9.5982    0.7101    0.0000 N   0  0  0  0  0  0  0  0  0  0  0  0
    4.1861   -3.6040    0.0000 N   0  0  0  0  0  0  0  0  0  0  0  0
    8.1038   -1.8417    0.0000 N   0  0  0  0  0  0  0  0  0  0  0  0
   10.8577    3.1036    0.0000 C   0  0  2  0  0  0  0  0  0  0  0  0
   10.6352    2.1287    0.0000 C   0  0  1  0  0  0  0  0  0  0  0  0
   12.3854    1.7079    0.0000 C   0  0  2  0  0  0  0  0  0  0  0  0
   11.8482    3.4260    0.0000 C   0  0  2  0  0  0  0  0  0  0  0  0
   11.3877    1.4085    0.0000 C   0  0  0  0  0  0  0  0  0  0  0  0
   12.6172    2.7234    0.0000 C   0  0  0  0  0  0  0  0  0  0  0  0
   11.9384    3.4177    0.0000 C   0  0  0  0  0  0  0  0  0  0  0  0
    9.7342    1.6948    0.0000 C   0  0  0  0  0  0  0  0  0  0  0  0
    9.2342    3.8855    0.0000 C   0  0  0  0  0  0  0  0  0  0  0  0
   12.0594    4.4034    0.0000 C   0  0  0  0  0  0  0  0  0  0  0  0
    8.8332    2.1287    0.0000 C   0  0  0  0  0  0  0  0  0  0  0  0
   10.4127    1.1538    0.0000 C   0  0  0  0  0  0  0  0  0  0  0  0
    8.6107    3.1036    0.0000 C   0  0  0  0  0  0  0  0  0  0  0  0
    8.1481    1.4084    0.0000 C   0  0  0  0  0  0  0  0  0  0  0  0
    8.6200    0.5334    0.0000 C   0  0  0  0  0  0  0  0  0  0  0  0
   13.0115    4.7092    0.0000 C   0  0  0  0  0  0  0  0  0  0  0  0
    7.1137    1.4544    0.0000 C   0  0  0  0  0  0  0  0  0  0  0  0
    8.0900   -0.3561    0.0000 C   0  0  0  0  0  0  0  0  0  0  0  0
    7.0548   -0.3340    0.0000 C   0  0  0  0  0  0  0  0  0  0  0  0
    6.5332   -1.1872    0.0000 C   0  0  1  0  0  0  0  0  0  0  0  0
    6.5634    0.5774    0.0000 C   0  0  0  0  0  0  0  0  0  0  0  0
    4.7369   -1.6203    0.0000 C   0  0  2  0  0  0  0  0  0  0  0  0
    5.5453   -1.0317    0.0000 C   0  0  0  0  0  0  0  0  0  0  0  0
    4.5814   -2.6082    0.0000 C   0  0  3  0  0  0  0  0  0  0  0  0
   10.9232   -0.5013    0.0000 C   0  0  0  0  0  0  0  0  0  0  0  0
    5.1700   -3.4166    0.0000 C   0  0  1  0  0  0  0  0  0  0  0  0
    7.1217   -1.9956    0.0000 C   0  0  0  0  0  0  0  0  0  0  0  0
    6.1578   -3.5721    0.0000 C   0  0  0  0  0  0  0  0  0  0  0  0
    6.9663   -2.9835    0.0000 C   0  0  0  0  0  0  0  0  0  0  0  0
    3.7757   -1.9020    0.0000 C   0  0  0  0  0  0  0  0  0  0  0  0
    3.5077   -2.8670    0.0000 C   0  0  0  0  0  0  0  0  0  0  0  0
    7.8536   -3.4316    0.0000 C   0  0  0  0  0  0  0  0  0  0  0  0
    3.5877   -2.4958    0.0000 C   0  0  0  0  0  0  0  0  0  0  0  0
    8.5552   -2.7274    0.0000 C   0  0  0  0  0  0  0  0  0  0  0  0
    3.0636   -1.1999    0.0000 C   0  0  0  0  0  0  0  0  0  0  0  0
    5.0927    1.4923    0.0000 C   0  0  0  0  0  0  0  0  0  0  0  0
    8.1080   -4.4353    0.0000 C   0  0  0  0  0  0  0  0  0  0  0  0
    9.5599   -2.9781    0.0000 C   0  0  0  0  0  0  0  0  0  0  0  0
    3.3155   -0.2321    0.0000 C   0  0  0  0  0  0  0  0  0  0  0  0
    9.1066   -4.7092    0.0000 C   0  0  0  0  0  0  0  0  0  0  0  0
    9.8374   -3.9757    0.0000 C   0  0  0  0  0  0  0  0  0  0  0  0
    2.0000   -3.1881    0.0000 C   0  0  0  0  0  0  0  0  0  0  0  0
   11.0468    3.9323    0.0000 H   0  0  0  0  0  0  0  0  0  0  0  0
   12.6004    0.8855    0.0000 H   0  0  0  0  0  0  0  0  0  0  0  0
   12.4389    3.6144    0.0000 H   0  0  0  0  0  0  0  0  0  0  0  0
   10.8887    1.0406    0.0000 H   0  0  0  0  0  0  0  0  0  0  0  0
   11.6649    0.8539    0.0000 H   0  0  0  0  0  0  0  0  0  0  0  0
   13.1891    2.4840    0.0000 H   0  0  0  0  0  0  0  0  0  0  0  0
   12.9509    3.2459    0.0000 H   0  0  0  0  0  0  0  0  0  0  0  0
   12.5564    3.4680    0.0000 H   0  0  0  0  0  0  0  0  0  0  0  0
   11.9962    4.0350    0.0000 H   0  0  0  0  0  0  0  0  0  0  0  0
    9.3722    4.4899    0.0000 H   0  0  0  0  0  0  0  0  0  0  0  0
    8.6756    4.1545    0.0000 H   0  0  0  0  0  0  0  0  0  0  0  0
   11.9752    5.0177    0.0000 H   0  0  0  0  0  0  0  0  0  0  0  0
   11.4399    4.4272    0.0000 H   0  0  0  0  0  0  0  0  0  0  0  0
    8.2242    3.5884    0.0000 H   0  0  0  0  0  0  0  0  0  0  0  0
    8.0521    2.8346    0.0000 H   0  0  0  0  0  0  0  0  0  0  0  0
   10.0456    0.2809    0.0000 H   0  0  0  0  0  0  0  0  0  0  0  0
   13.2011    4.1189    0.0000 H   0  0  0  0  0  0  0  0  0  0  0  0
   13.6018    4.8988    0.0000 H   0  0  0  0  0  0  0  0  0  0  0  0
   12.8219    5.2995    0.0000 H   0  0  0  0  0  0  0  0  0  0  0  0
    6.8258    2.0035    0.0000 H   0  0  0  0  0  0  0  0  0  0  0  0
    8.3906   -0.8984    0.0000 H   0  0  0  0  0  0  0  0  0  0  0  0
    6.1765   -0.4156    0.0000 H   0  0  0  0  0  0  0  0  0  0  0  0
    4.3617   -0.8576    0.0000 H   0  0  0  0  0  0  0  0  0  0  0  0
    5.7969   -0.4651    0.0000 H   0  0  0  0  0  0  0  0  0  0  0  0
    5.0631   -0.6420    0.0000 H   0  0  0  0  0  0  0  0  0  0  0  0
    4.2696   -3.1440    0.0000 H   0  0  0  0  0  0  0  0  0  0  0  0
   10.3187   -0.3634    0.0000 H   0  0  0  0  0  0  0  0  0  0  0  0
   10.7852   -1.1058    0.0000 H   0  0  0  0  0  0  0  0  0  0  0  0
   11.5276   -0.6393    0.0000 H   0  0  0  0  0  0  0  0  0  0  0  0
    5.6703   -4.1038    0.0000 H   0  0  0  0  0  0  0  0  0  0  0  0
    5.9062   -4.1387    0.0000 H   0  0  0  0  0  0  0  0  0  0  0  0
    6.6400   -3.9618    0.0000 H   0  0  0  0  0  0  0  0  0  0  0  0
    3.9914   -4.1926    0.0000 H   0  0  0  0  0  0  0  0  0  0  0  0
    2.9511   -2.5939    0.0000 H   0  0  0  0  0  0  0  0  0  0  0  0
    3.1367   -3.3638    0.0000 H   0  0  0  0  0  0  0  0  0  0  0  0
    8.3857   -1.2895    0.0000 H   0  0  0  0  0  0  0  0  0  0  0  0
    2.4659   -1.3646    0.0000 H   0  0  0  0  0  0  0  0  0  0  0  0
    5.6395    1.7844    0.0000 H   0  0  0  0  0  0  0  0  0  0  0  0
    4.8005    2.0391    0.0000 H   0  0  0  0  0  0  0  0  0  0  0  0
    4.5458    1.2001    0.0000 H   0  0  0  0  0  0  0  0  0  0  0  0
    7.6654   -4.8695    0.0000 H   0  0  0  0  0  0  0  0  0  0  0  0
    9.9924   -2.5338    0.0000 H   0  0  0  0  0  0  0  0  0  0  0  0
    3.9155   -0.3884    0.0000 H   0  0  0  0  0  0  0  0  0  0  0  0
    3.4718    0.3679    0.0000 H   0  0  0  0  0  0  0  0  0  0  0  0
    2.7156   -0.0759    0.0000 H   0  0  0  0  0  0  0  0  0  0  0  0
    9.2659   -5.3084    0.0000 H   0  0  0  0  0  0  0  0  0  0  0  0
   10.4372   -4.1327    0.0000 H   0  0  0  0  0  0  0  0  0  0  0  0
    2.0696   -2.5720    0.0000 H   0  0  0  0  0  0  0  0  0  0  0  0
    1.3839   -3.1185    0.0000 H   0  0  0  0  0  0  0  0  0  0  0  0
    1.9304   -3.8042    0.0000 H   0  0  0  0  0  0  0  0  0  0  0  0
  1 21  1  0  0  0  0
  1 34  1  0  0  0  0
  2 21  2  0  0  0  0
  3 30  1  0  0  0  0
  3 45  1  0  0  0  0
  4 42  1  0  0  0  0
  4 51  1  0  0  0  0
  5 42  2  0  0  0  0
  6 10  1  0  0  0  0
  6 16  1  0  0  0  0
  6 18  1  0  0  0  0
  7 17  1  0  0  0  0
  7 24  1  0  0  0  0
  7 67  1  0  0  0  0
  8 35  1  0  0  0  0
  8 40  1  0  0  0  0
  8 84  1  0  0  0  0
  9 36  1  0  0  0  0
  9 43  1  0  0  0  0
  9 87  1  0  0  0  0
 10 11  1  0  0  0  0
 10 13  1  0  0  0  0
 10 52  1  6  0  0  0
 11 14  1  0  0  0  0
 11 17  1  0  0  0  0
 11 21  1  6  0  0  0
 12 14  1  0  0  0  0
 12 15  1  0  0  0  0
 12 16  1  0  0  0  0
 12 53  1  6  0  0  0
 13 15  1  0  0  0  0
 13 19  1  1  0  0  0
 13 54  1  0  0  0  0
 14 55  1  0  0  0  0
 14 56  1  0  0  0  0
 15 57  1  0  0  0  0
 15 58  1  0  0  0  0
 16 59  1  0  0  0  0
 16 60  1  0  0  0  0
 17 20  2  0  0  0  0
 18 22  1  0  0  0  0
 18 61  1  0  0  0  0
 18 62  1  0  0  0  0
 19 25  1  0  0  0  0
 19 63  1  0  0  0  0
 19 64  1  0  0  0  0
 20 22  1  0  0  0  0
 20 23  1  0  0  0  0
 22 65  1  0  0  0  0
 22 66  1  0  0  0  0
 23 24  1  0  0  0  0
 23 26  2  0  0  0  0
 24 27  2  0  0  0  0
 25 68  1  0  0  0  0
 25 69  1  0  0  0  0
 25 70  1  0  0  0  0
 26 30  1  0  0  0  0
 26 71  1  0  0  0  0
 27 28  1  0  0  0  0
 27 72  1  0  0  0  0
 28 29  1  0  0  0  0
 28 30  2  0  0  0  0
 29 32  1  0  0  0  0
 29 36  1  0  0  0  0
 29 73  1  1  0  0  0
 31 32  1  0  0  0  0
 31 33  1  0  0  0  0
 31 39  1  0  0  0  0
 31 74  1  1  0  0  0
 32 75  1  0  0  0  0
 32 76  1  0  0  0  0
 33 35  1  0  0  0  0
 33 42  1  0  0  0  0
 33 77  1  0  0  0  0
 34 78  1  0  0  0  0
 34 79  1  0  0  0  0
 34 80  1  0  0  0  0
 35 37  1  0  0  0  0
 35 81  1  6  0  0  0
 36 38  2  0  0  0  0
 37 38  1  0  0  0  0
 37 82  1  0  0  0  0
 37 83  1  0  0  0  0
 38 41  1  0  0  0  0
 39 40  1  0  0  0  0
 39 44  2  0  0  0  0
 40 85  1  0  0  0  0
 40 86  1  0  0  0  0
 41 43  1  0  0  0  0
 41 46  2  0  0  0  0
 43 47  2  0  0  0  0
 44 48  1  0  0  0  0
 44 88  1  0  0  0  0
 45 89  1  0  0  0  0
 45 90  1  0  0  0  0
 45 91  1  0  0  0  0
 46 49  1  0  0  0  0
 46 92  1  0  0  0  0
 47 50  1  0  0  0  0
 47 93  1  0  0  0  0
 48 94  1  0  0  0  0
 48 95  1  0  0  0  0
 48 96  1  0  0  0  0
 49 50  2  0  0  0  0
 49 97  1  0  0  0  0
 50 98  1  0  0  0  0
 51 99  1  0  0  0  0
 51100  1  0  0  0  0
 51101  1  0  0  0  0
M  END
> <PUBCHEM_COMPOUND_CID>
11953929

> <PUBCHEM_COMPOUND_CANONICALIZED>
1

> <PUBCHEM_CACTVS_COMPLEXITY>
1370

> <PUBCHEM_CACTVS_HBOND_ACCEPTOR>
7

> <PUBCHEM_CACTVS_HBOND_DONOR>
3

> <PUBCHEM_CACTVS_ROTATABLE_BOND>
7

> <PUBCHEM_CACTVS_SUBSKEYS>
AAADcfB/uAAAAAAAAAAAAAAAAAAAAWLAAAA8ePECBYAYAFix/gAAHgAQAAAADyzBngYyzvPJlACoAyTyTACCiCAhIiAImaE+bJgMJvrE9ZuEMChm0BHI6Ae42fOPwEABQAAKAACQgAaAABQAAAAAAAAAAA==

> <PUBCHEM_IUPAC_INCHI>
InChI=1S/C42H50N4O5/c1-6-23-14-22-19-42(41(48)51-5)38-26(12-13-46(21-22)39(23)42)28-18-35(49-3)29(16-33(28)45-38)30-15-27-24(7-2)20-43-34(36(27)40(47)50-4)17-31-25-10-8-9-11-32(25)44-37(30)31/h7-11,16,18,22-23,27,30,34,36,39,43-45H,6,12-15,17,19-21H2,1-5H3/b24-7-/t22-,23-,27-,30+,34+,36?,39-,42+/m0/s1

> <PUBCHEM_IUPAC_INCHIKEY>
XVSWNFDALFLWFM-WNZMBYOVSA-N

> <PUBCHEM_XLOGP3_AA>
5.6

> <PUBCHEM_EXACT_MASS>
690.378121

> <PUBCHEM_MOLECULAR_FORMULA>
C42H50N4O5

> <PUBCHEM_MOLECULAR_WEIGHT>
690.8702

> <PUBCHEM_OPENEYE_CAN_SMILES>
CCC1CC2CC3(C1N(C2)CCC4=C3NC5=CC(=C(C=C45)OC)C6CC7C(C(CC8=C6NC9=CC=CC=C89)NCC7=CC)C(=O)OC)C(=O)OC

> <PUBCHEM_OPENEYE_ISO_SMILES>
CC[C@H]1C[C@H]2C[C@@]3([C@H]1N(C2)CCC4=C3NC5=CC(=C(C=C45)OC)[C@H]6C[C@@H]\7C([C@@H](CC8=C6NC9=CC=CC=C89)NC/C7=C/C)C(=O)OC)C(=O)OC

> <PUBCHEM_CACTVS_TPSA>
109

> <PUBCHEM_MONOISOTOPIC_WEIGHT>
690.378121

> <PUBCHEM_TOTAL_CHARGE>
0

> <PUBCHEM_HEAVY_ATOM_COUNT>
51

> <PUBCHEM_ATOM_DEF_STEREO_COUNT>
7

> <PUBCHEM_ATOM_UDEF_STEREO_COUNT>
1

> <PUBCHEM_BOND_DEF_STEREO_COUNT>
1

> <PUBCHEM_BOND_UDEF_STEREO_COUNT>
0

> <PUBCHEM_ISOTOPIC_ATOM_COUNT>
0

> <PUBCHEM_COMPONENT_COUNT>
1

> <PUBCHEM_CACTVS_TAUTO_COUNT>
1

> <PUBCHEM_COORDINATE_TYPE>
1
5
255

> <PUBCHEM_BONDANNOTATIONS>
10  52  6
11  21  6
12  53  6
13  19  5
17  20  8
20  23  8
23  24  8
23  26  8
24  27  8
26  30  8
27  28  8
28  30  8
29  73  5
31  74  5
33  42  3
35  81  6
36  38  8
38  41  8
41  43  8
41  46  8
43  47  8
46  49  8
47  50  8
49  50  8
7  17  8
7  24  8
9  36  8
9  43  8

$$$$

