854147
  -OEChem-06241222473D

 20 20  0     0  0  0  0  0  0999 V2000
    2.0976    0.2659    0.1009 S   0  0  0  0  0  0  0  0  0  0  0  0
   -3.7781    0.1336   -0.0469 F   0  0  0  0  0  0  0  0  0  0  0  0
    2.4908    1.5348    0.6942 O   0  0  0  0  0  0  0  0  0  0  0  0
    2.5890   -0.9825    0.6637 O   0  0  0  0  0  0  0  0  0  0  0  0
    2.4605    0.2986   -1.5676 N   0  0  0  0  0  0  0  0  0  0  0  0
    0.3493    0.2005    0.0566 C   0  0  0  0  0  0  0  0  0  0  0  0
   -0.3278   -1.0185    0.0247 C   0  0  0  0  0  0  0  0  0  0  0  0
   -0.3678    1.3968    0.0534 C   0  0  0  0  0  0  0  0  0  0  0  0
   -1.7221   -1.0412   -0.0103 C   0  0  0  0  0  0  0  0  0  0  0  0
    0.4099   -2.3176    0.0263 C   0  0  0  0  0  0  0  0  0  0  0  0
   -1.7621    1.3743    0.0185 C   0  0  0  0  0  0  0  0  0  0  0  0
   -2.4392    0.1552   -0.0135 C   0  0  0  0  0  0  0  0  0  0  0  0
    0.1355    2.3594    0.0699 H   0  0  0  0  0  0  0  0  0  0  0  0
   -2.2668   -1.9813   -0.0340 H   0  0  0  0  0  0  0  0  0  0  0  0
    1.1748   -2.3577   -0.7551 H   0  0  0  0  0  0  0  0  0  0  0  0
    0.8230   -2.5391    1.0148 H   0  0  0  0  0  0  0  0  0  0  0  0
   -0.2726   -3.1455   -0.2050 H   0  0  0  0  0  0  0  0  0  0  0  0
   -2.3209    2.3055    0.0144 H   0  0  0  0  0  0  0  0  0  0  0  0
    2.8170    1.1779   -1.9613 H   0  0  0  0  0  0  0  0  0  0  0  0
    2.8811   -0.5426   -1.9809 H   0  0  0  0  0  0  0  0  0  0  0  0
  1  3  2  0  0  0  0
  1  4  2  0  0  0  0
  1  5  1  0  0  0  0
  1  6  1  0  0  0  0
  2 12  1  0  0  0  0
  5 19  1  0  0  0  0
  5 20  1  0  0  0  0
  6  7  2  0  0  0  0
  6  8  1  0  0  0  0
  7  9  1  0  0  0  0
  7 10  1  0  0  0  0
  8 11  2  0  0  0  0
  8 13  1  0  0  0  0
  9 12  2  0  0  0  0
  9 14  1  0  0  0  0
 10 15  1  0  0  0  0
 10 16  1  0  0  0  0
 10 17  1  0  0  0  0
 11 12  1  0  0  0  0
 11 18  1  0  0  0  0
M  END
> <PUBCHEM_COMPOUND_CID>
854147

> <PUBCHEM_CONFORMER_RMSD>
0.4

> <PUBCHEM_CONFORMER_DIVERSEORDER>
2
1

> <PUBCHEM_MMFF94_PARTIAL_CHARGES>
17
1 1.45
10 0.14
11 -0.15
12 0.19
13 0.15
14 0.15
18 0.15
19 0.42
2 -0.19
20 0.42
3 -0.65
4 -0.65
5 -0.98
6 -0.01
7 -0.14
8 -0.15
9 -0.15

> <PUBCHEM_EFFECTIVE_ROTOR_COUNT>
1

> <PUBCHEM_PHARMACOPHORE_FEATURES>
4
1 3 acceptor
1 4 acceptor
1 5 donor
6 6 7 8 9 11 12 rings

> <PUBCHEM_HEAVY_ATOM_COUNT>
12

> <PUBCHEM_ATOM_DEF_STEREO_COUNT>
0

> <PUBCHEM_ATOM_UDEF_STEREO_COUNT>
0

> <PUBCHEM_BOND_DEF_STEREO_COUNT>
0

> <PUBCHEM_BOND_UDEF_STEREO_COUNT>
0

> <PUBCHEM_ISOTOPIC_ATOM_COUNT>
0

> <PUBCHEM_COMPONENT_COUNT>
1

> <PUBCHEM_CACTVS_TAUTO_COUNT>
1

> <PUBCHEM_CONFORMER_ID>
000D088300000002

> <PUBCHEM_MMFF94_ENERGY>
13.9291

> <PUBCHEM_FEATURE_SELFOVERLAP>
20.315

> <PUBCHEM_SHAPE_FINGERPRINT>
12423570 1 13370166861295074374
12524768 44 18115582643434146404
12897270 3 18409728482395621981
14325111 11 18410296904158581353
15775835 57 18411981351687805976
16945 1 18335137630784045067
18186145 218 18261108578069743193
193761 8 17761776565020943849
20201158 50 17894905226843146796
20645464 45 18114466652175130752
20645476 183 17845360072969885094
20871998 184 17899976023788326950
21028194 46 18343586273662802737
21040471 1 18412261705641148490
21501502 16 18122904493448457281
23402655 69 18193296289554928269
23463225 33 18271248325645346946
23552423 10 18055065721115553771
23559900 14 18334564717477305268
2748010 2 18122344584337104245
369184 2 18408611339795240113
5084963 1 17846501482056088416
528886 8 18410300181213236643
7364860 26 18190463959410434158

> <PUBCHEM_SHAPE_MULTIPOLES>
226.81
4.3
1.86
0.82
1.02
0.6
-0.22
-0.77
-0.09
-0.25
0.16
-0.57
-0.07
-0.02

> <PUBCHEM_SHAPE_SELFOVERLAP>
461.681

> <PUBCHEM_SHAPE_VOLUME>
134.2

> <PUBCHEM_COORDINATE_TYPE>
2
5
10

$$$$

