443115
  -OEChem-07051213012D

 61 60  0     1  0  0  0  0  0999 V2000
    7.7331    1.3450    0.0000 S   0  0  0  0  0  0  0  0  0  0  0  0
    6.8671    1.8450    0.0000 O   0  0  0  0  0  0  0  0  0  0  0  0
    9.4651    4.3450    0.0000 O   0  0  0  0  0  0  0  0  0  0  0  0
    2.5369    3.3450    0.0000 O   0  0  0  0  0  0  0  0  0  0  0  0
    3.4030    1.8450    0.0000 O   0  0  0  0  0  0  0  0  0  0  0  0
   12.9292    3.3450    0.0000 O   0  0  0  0  0  0  0  0  0  0  0  0
   12.0632    1.8450    0.0000 O   0  0  0  0  0  0  0  0  0  0  0  0
    7.7331    3.3450    0.0000 N   0  0  0  0  0  0  0  0  0  0  0  0
   10.3312    2.8450    0.0000 N   0  0  0  0  0  0  0  0  0  0  0  0
    4.2690    4.3450    0.0000 N   0  0  0  0  0  0  0  0  0  0  0  0
    6.0010   -1.6550    0.0000 C   0  0  0  0  0  0  0  0  0  0  0  0
    6.8671   -1.1550    0.0000 C   0  0  0  0  0  0  0  0  0  0  0  0
    6.0010   -2.6550    0.0000 C   0  0  0  0  0  0  0  0  0  0  0  0
    6.8671   -0.1550    0.0000 C   0  0  0  0  0  0  0  0  0  0  0  0
    5.1350   -3.1550    0.0000 C   0  0  0  0  0  0  0  0  0  0  0  0
    7.7331    0.3450    0.0000 C   0  0  0  0  0  0  0  0  0  0  0  0
    8.5991    2.8450    0.0000 C   0  0  1  0  0  0  0  0  0  0  0  0
    5.1350   -4.1550    0.0000 C   0  0  0  0  0  0  0  0  0  0  0  0
    8.5991    1.8450    0.0000 C   0  0  0  0  0  0  0  0  0  0  0  0
    6.0010    3.3450    0.0000 C   0  0  0  0  0  0  0  0  0  0  0  0
    5.1350    2.8450    0.0000 C   0  0  0  0  0  0  0  0  0  0  0  0
    6.8671    2.8450    0.0000 C   0  0  0  0  0  0  0  0  0  0  0  0
    9.4651    3.3450    0.0000 C   0  0  0  0  0  0  0  0  0  0  0  0
    4.2690   -4.6550    0.0000 C   0  0  0  0  0  0  0  0  0  0  0  0
    4.2690    3.3450    0.0000 C   0  0  1  0  0  0  0  0  0  0  0  0
    3.4030    2.8450    0.0000 C   0  0  0  0  0  0  0  0  0  0  0  0
   11.1972    3.3450    0.0000 C   0  0  0  0  0  0  0  0  0  0  0  0
   12.0632    2.8450    0.0000 C   0  0  0  0  0  0  0  0  0  0  0  0
    5.7890   -1.0724    0.0000 H   0  0  0  0  0  0  0  0  0  0  0  0
    5.3905   -1.7627    0.0000 H   0  0  0  0  0  0  0  0  0  0  0  0
    7.0791   -1.7376    0.0000 H   0  0  0  0  0  0  0  0  0  0  0  0
    7.4776   -1.0473    0.0000 H   0  0  0  0  0  0  0  0  0  0  0  0
    6.2131   -3.2376    0.0000 H   0  0  0  0  0  0  0  0  0  0  0  0
    6.6116   -2.5473    0.0000 H   0  0  0  0  0  0  0  0  0  0  0  0
    6.6550    0.4276    0.0000 H   0  0  0  0  0  0  0  0  0  0  0  0
    6.2565   -0.2627    0.0000 H   0  0  0  0  0  0  0  0  0  0  0  0
    4.9230   -2.5724    0.0000 H   0  0  0  0  0  0  0  0  0  0  0  0
    4.5244   -3.2627    0.0000 H   0  0  0  0  0  0  0  0  0  0  0  0
    7.9451   -0.2376    0.0000 H   0  0  0  0  0  0  0  0  0  0  0  0
    8.3437    0.4527    0.0000 H   0  0  0  0  0  0  0  0  0  0  0  0
    8.5991    3.4650    0.0000 H   0  0  0  0  0  0  0  0  0  0  0  0
    5.3471   -4.7376    0.0000 H   0  0  0  0  0  0  0  0  0  0  0  0
    5.7456   -4.0473    0.0000 H   0  0  0  0  0  0  0  0  0  0  0  0
    8.8112    1.2624    0.0000 H   0  0  0  0  0  0  0  0  0  0  0  0
    9.2097    1.9527    0.0000 H   0  0  0  0  0  0  0  0  0  0  0  0
    7.7331    3.9650    0.0000 H   0  0  0  0  0  0  0  0  0  0  0  0
    6.3996    3.8200    0.0000 H   0  0  0  0  0  0  0  0  0  0  0  0
    5.6025    3.8200    0.0000 H   0  0  0  0  0  0  0  0  0  0  0  0
    4.7365    2.3700    0.0000 H   0  0  0  0  0  0  0  0  0  0  0  0
    5.5335    2.3700    0.0000 H   0  0  0  0  0  0  0  0  0  0  0  0
    3.9590   -4.1181    0.0000 H   0  0  0  0  0  0  0  0  0  0  0  0
    3.7320   -4.9650    0.0000 H   0  0  0  0  0  0  0  0  0  0  0  0
    4.5790   -5.1919    0.0000 H   0  0  0  0  0  0  0  0  0  0  0  0
    4.8059    3.6550    0.0000 H   0  0  0  0  0  0  0  0  0  0  0  0
   10.3312    2.2250    0.0000 H   0  0  0  0  0  0  0  0  0  0  0  0
    3.7320    4.6550    0.0000 H   0  0  0  0  0  0  0  0  0  0  0  0
    4.8059    4.6550    0.0000 H   0  0  0  0  0  0  0  0  0  0  0  0
   11.5957    3.8200    0.0000 H   0  0  0  0  0  0  0  0  0  0  0  0
   10.7987    3.8200    0.0000 H   0  0  0  0  0  0  0  0  0  0  0  0
    2.0000    3.0350    0.0000 H   0  0  0  0  0  0  0  0  0  0  0  0
   13.4662    3.0350    0.0000 H   0  0  0  0  0  0  0  0  0  0  0  0
  1 16  1  0  0  0  0
  1 19  1  0  0  0  0
  2 22  2  0  0  0  0
  3 23  2  0  0  0  0
  4 26  1  0  0  0  0
  4 60  1  0  0  0  0
  5 26  2  0  0  0  0
  6 28  1  0  0  0  0
  6 61  1  0  0  0  0
  7 28  2  0  0  0  0
 17  8  1  6  0  0  0
  8 22  1  0  0  0  0
  8 46  1  0  0  0  0
  9 23  1  0  0  0  0
  9 27  1  0  0  0  0
  9 55  1  0  0  0  0
 25 10  1  1  0  0  0
 10 56  1  0  0  0  0
 10 57  1  0  0  0  0
 11 12  1  0  0  0  0
 11 13  1  0  0  0  0
 11 29  1  0  0  0  0
 11 30  1  0  0  0  0
 12 14  1  0  0  0  0
 12 31  1  0  0  0  0
 12 32  1  0  0  0  0
 13 15  1  0  0  0  0
 13 33  1  0  0  0  0
 13 34  1  0  0  0  0
 14 16  1  0  0  0  0
 14 35  1  0  0  0  0
 14 36  1  0  0  0  0
 15 18  1  0  0  0  0
 15 37  1  0  0  0  0
 15 38  1  0  0  0  0
 16 39  1  0  0  0  0
 16 40  1  0  0  0  0
 17 19  1  0  0  0  0
 17 23  1  0  0  0  0
 17 41  1  0  0  0  0
 18 24  1  0  0  0  0
 18 42  1  0  0  0  0
 18 43  1  0  0  0  0
 19 44  1  0  0  0  0
 19 45  1  0  0  0  0
 20 21  1  0  0  0  0
 20 22  1  0  0  0  0
 20 47  1  0  0  0  0
 20 48  1  0  0  0  0
 21 25  1  0  0  0  0
 21 49  1  0  0  0  0
 21 50  1  0  0  0  0
 24 51  1  0  0  0  0
 24 52  1  0  0  0  0
 24 53  1  0  0  0  0
 25 26  1  0  0  0  0
 25 54  1  0  0  0  0
 27 28  1  0  0  0  0
 27 58  1  0  0  0  0
 27 59  1  0  0  0  0
M  END
> <PUBCHEM_COMPOUND_CID>
443115

> <PUBCHEM_COMPOUND_CANONICALIZED>
1

> <PUBCHEM_CACTVS_COMPLEXITY>
504

> <PUBCHEM_CACTVS_HBOND_ACCEPTOR>
8

> <PUBCHEM_CACTVS_HBOND_DONOR>
5

> <PUBCHEM_CACTVS_ROTATABLE_BOND>
17

> <PUBCHEM_CACTVS_SUBSKEYS>
AAADcfB7OABAAAAAAAAAAAAAAAAAAAAAAAAAAAAAAAAAAAAAAAAAHgQQCAAACCjFwASCCALAAggIAAGQGAAAAAAAABAAAIGIAAACQBIggCAUQAAEFgCwAAGcl4IAAAAAAAAAAAAAAAAAAAAAAAAAAAAAAA==

> <PUBCHEM_IUPAC_OPENEYE_NAME>
(2S)-2-amino-5-[[(1R)-2-(carboxymethylamino)-1-(octylsulfanylmethyl)-2-oxo-ethyl]amino]-5-oxo-pentanoic acid

> <PUBCHEM_IUPAC_CAS_NAME>
(2S)-2-amino-5-[[(2R)-1-(carboxymethylamino)-3-(octylthio)-1-oxopropan-2-yl]amino]-5-oxopentanoic acid

> <PUBCHEM_IUPAC_NAME>
(2S)-2-amino-5-[[(2R)-1-(carboxymethylamino)-3-octylsulfanyl-1-oxopropan-2-yl]amino]-5-oxopentanoic acid

> <PUBCHEM_IUPAC_SYSTEMATIC_NAME>
(2S)-2-azanyl-5-[[(2R)-1-(2-hydroxy-2-oxoethylamino)-3-octylsulfanyl-1-oxidanylidene-propan-2-yl]amino]-5-oxidanylidene-pentanoic acid

> <PUBCHEM_IUPAC_TRADITIONAL_NAME>
(2S)-2-amino-5-[[(1R)-2-(carboxymethylamino)-2-keto-1-[(octylthio)methyl]ethyl]amino]-5-keto-valeric acid

> <PUBCHEM_IUPAC_INCHI>
InChI=1S/C18H33N3O6S/c1-2-3-4-5-6-7-10-28-12-14(17(25)20-11-16(23)24)21-15(22)9-8-13(19)18(26)27/h13-14H,2-12,19H2,1H3,(H,20,25)(H,21,22)(H,23,24)(H,26,27)/t13-,14-/m0/s1

> <PUBCHEM_IUPAC_INCHIKEY>
MJWCZWAVSJZQNL-KBPBESRZSA-N

> <PUBCHEM_XLOGP3_AA>
-0.7

> <PUBCHEM_EXACT_MASS>
419.209007

> <PUBCHEM_MOLECULAR_FORMULA>
C18H33N3O6S

> <PUBCHEM_MOLECULAR_WEIGHT>
419.53612

> <PUBCHEM_OPENEYE_CAN_SMILES>
CCCCCCCCSCC(C(=O)NCC(=O)O)NC(=O)CCC(C(=O)O)N

> <PUBCHEM_OPENEYE_ISO_SMILES>
CCCCCCCCSC[C@@H](C(=O)NCC(=O)O)NC(=O)CC[C@@H](C(=O)O)N

> <PUBCHEM_CACTVS_TPSA>
184

> <PUBCHEM_MONOISOTOPIC_WEIGHT>
419.209007

> <PUBCHEM_TOTAL_CHARGE>
0

> <PUBCHEM_HEAVY_ATOM_COUNT>
28

> <PUBCHEM_ATOM_DEF_STEREO_COUNT>
2

> <PUBCHEM_ATOM_UDEF_STEREO_COUNT>
0

> <PUBCHEM_BOND_DEF_STEREO_COUNT>
0

> <PUBCHEM_BOND_UDEF_STEREO_COUNT>
0

> <PUBCHEM_ISOTOPIC_ATOM_COUNT>
0

> <PUBCHEM_COMPONENT_COUNT>
1

> <PUBCHEM_CACTVS_TAUTO_COUNT>
4

> <PUBCHEM_COORDINATE_TYPE>
1
5
255

> <PUBCHEM_BONDANNOTATIONS>
25  10  5
17  8  6

$$$$

