101771
  -OEChem-07051213043D

 58 61  0     1  0  0  0  0  0999 V2000
   -5.4210   -0.5974    1.6918 O   0  0  0  0  0  0  0  0  0  0  0  0
    5.2219    0.2446   -0.7680 O   0  0  0  0  0  0  0  0  0  0  0  0
    6.1711   -2.0580    0.2398 O   0  0  0  0  0  0  0  0  0  0  0  0
   -0.3047    1.0493   -0.2208 C   0  0  2  0  0  0  0  0  0  0  0  0
   -0.9505   -0.3258    0.1493 C   0  0  1  0  0  0  0  0  0  0  0  0
    1.0958    1.1132    0.3989 C   0  0  1  0  0  0  0  0  0  0  0  0
    2.0272   -0.0139   -0.0987 C   0  0  2  0  0  0  0  0  0  0  0  0
   -2.4183   -0.4536   -0.4052 C   0  0  2  0  0  0  0  0  0  0  0  0
   -3.2330    0.7582    0.1509 C   0  0  1  0  0  0  0  0  0  0  0  0
   -0.0228   -1.5169   -0.2073 C   0  0  0  0  0  0  0  0  0  0  0  0
    1.4120   -1.3540    0.3269 C   0  0  0  0  0  0  0  0  0  0  0  0
   -1.1803    2.2209    0.2464 C   0  0  0  0  0  0  0  0  0  0  0  0
    3.3171    0.3788    0.6548 C   0  0  2  0  0  0  0  0  0  0  0  0
    1.9326    2.3739    0.2100 C   0  0  0  0  0  0  0  0  0  0  0  0
   -2.6207    2.1061   -0.2477 C   0  0  0  0  0  0  0  0  0  0  0  0
   -3.0912   -1.7540    0.1189 C   0  0  0  0  0  0  0  0  0  0  0  0
    3.3633    1.9182    0.5482 C   0  0  0  0  0  0  0  0  0  0  0  0
   -4.7270    0.6931   -0.2098 C   0  0  0  0  0  0  0  0  0  0  0  0
    2.2591   -0.0057   -1.6328 C   0  0  0  0  0  0  0  0  0  0  0  0
   -2.4185   -0.4935   -1.9551 C   0  0  0  0  0  0  0  0  0  0  0  0
   -4.5892   -1.8423   -0.2004 C   0  0  0  0  0  0  0  0  0  0  0  0
   -5.3658   -0.6126    0.2654 C   0  0  1  0  0  0  0  0  0  0  0  0
    4.5686   -0.2643    0.1415 C   0  0  0  0  0  0  0  0  0  0  0  0
    4.9744   -1.5641    0.8032 C   0  0  0  0  0  0  0  0  0  0  0  0
   -0.2120    1.1324   -1.3083 H   0  0  0  0  0  0  0  0  0  0  0  0
   -1.0330   -0.3428    1.2479 H   0  0  0  0  0  0  0  0  0  0  0  0
    0.9627    0.9973    1.4880 H   0  0  0  0  0  0  0  0  0  0  0  0
   -3.1787    0.7113    1.2498 H   0  0  0  0  0  0  0  0  0  0  0  0
    0.0138   -1.6623   -1.2912 H   0  0  0  0  0  0  0  0  0  0  0  0
   -0.4282   -2.4435    0.2139 H   0  0  0  0  0  0  0  0  0  0  0  0
    1.3898   -1.4295    1.4217 H   0  0  0  0  0  0  0  0  0  0  0  0
    2.0195   -2.1924   -0.0315 H   0  0  0  0  0  0  0  0  0  0  0  0
   -0.7605    3.1696   -0.1080 H   0  0  0  0  0  0  0  0  0  0  0  0
   -1.1817    2.2679    1.3431 H   0  0  0  0  0  0  0  0  0  0  0  0
    3.2249    0.1277    1.7208 H   0  0  0  0  0  0  0  0  0  0  0  0
    1.6086    3.1864    0.8683 H   0  0  0  0  0  0  0  0  0  0  0  0
    1.8792    2.7410   -0.8209 H   0  0  0  0  0  0  0  0  0  0  0  0
   -3.2068    2.9243    0.1887 H   0  0  0  0  0  0  0  0  0  0  0  0
   -2.6571    2.2454   -1.3340 H   0  0  0  0  0  0  0  0  0  0  0  0
   -2.9597   -1.8207    1.2069 H   0  0  0  0  0  0  0  0  0  0  0  0
   -2.6028   -2.6387   -0.3065 H   0  0  0  0  0  0  0  0  0  0  0  0
    4.0598    2.2941   -0.2084 H   0  0  0  0  0  0  0  0  0  0  0  0
    3.6814    2.3451    1.5067 H   0  0  0  0  0  0  0  0  0  0  0  0
   -5.2420    1.5366    0.2677 H   0  0  0  0  0  0  0  0  0  0  0  0
   -4.8679    0.8069   -1.2902 H   0  0  0  0  0  0  0  0  0  0  0  0
    2.7495    0.9094   -1.9792 H   0  0  0  0  0  0  0  0  0  0  0  0
    2.8929   -0.8483   -1.9328 H   0  0  0  0  0  0  0  0  0  0  0  0
    1.3301   -0.0996   -2.2012 H   0  0  0  0  0  0  0  0  0  0  0  0
   -1.8978    0.3578   -2.4002 H   0  0  0  0  0  0  0  0  0  0  0  0
   -1.9343   -1.4021   -2.3281 H   0  0  0  0  0  0  0  0  0  0  0  0
   -3.4291   -0.4900   -2.3725 H   0  0  0  0  0  0  0  0  0  0  0  0
   -4.7306   -1.9777   -1.2784 H   0  0  0  0  0  0  0  0  0  0  0  0
   -4.9904   -2.7403    0.2849 H   0  0  0  0  0  0  0  0  0  0  0  0
   -6.3987   -0.6646   -0.0961 H   0  0  0  0  0  0  0  0  0  0  0  0
    4.1954   -2.3129    0.6526 H   0  0  0  0  0  0  0  0  0  0  0  0
    5.1272   -1.4026    1.8740 H   0  0  0  0  0  0  0  0  0  0  0  0
   -5.8551   -1.4193    1.9773 H   0  0  0  0  0  0  0  0  0  0  0  0
    6.8782   -1.4257    0.4540 H   0  0  0  0  0  0  0  0  0  0  0  0
  1 22  1  0  0  0  0
  1 57  1  0  0  0  0
  2 23  2  0  0  0  0
  3 24  1  0  0  0  0
  3 58  1  0  0  0  0
  4  5  1  0  0  0  0
  4  6  1  0  0  0  0
  4 12  1  0  0  0  0
  4 25  1  0  0  0  0
  5  8  1  0  0  0  0
  5 10  1  0  0  0  0
  5 26  1  0  0  0  0
  6  7  1  0  0  0  0
  6 14  1  0  0  0  0
  6 27  1  0  0  0  0
  7 11  1  0  0  0  0
  7 13  1  0  0  0  0
  7 19  1  0  0  0  0
  8  9  1  0  0  0  0
  8 16  1  0  0  0  0
  8 20  1  0  0  0  0
  9 15  1  0  0  0  0
  9 18  1  0  0  0  0
  9 28  1  0  0  0  0
 10 11  1  0  0  0  0
 10 29  1  0  0  0  0
 10 30  1  0  0  0  0
 11 31  1  0  0  0  0
 11 32  1  0  0  0  0
 12 15  1  0  0  0  0
 12 33  1  0  0  0  0
 12 34  1  0  0  0  0
 13 17  1  0  0  0  0
 13 23  1  0  0  0  0
 13 35  1  0  0  0  0
 14 17  1  0  0  0  0
 14 36  1  0  0  0  0
 14 37  1  0  0  0  0
 15 38  1  0  0  0  0
 15 39  1  0  0  0  0
 16 21  1  0  0  0  0
 16 40  1  0  0  0  0
 16 41  1  0  0  0  0
 17 42  1  0  0  0  0
 17 43  1  0  0  0  0
 18 22  1  0  0  0  0
 18 44  1  0  0  0  0
 18 45  1  0  0  0  0
 19 46  1  0  0  0  0
 19 47  1  0  0  0  0
 19 48  1  0  0  0  0
 20 49  1  0  0  0  0
 20 50  1  0  0  0  0
 20 51  1  0  0  0  0
 21 22  1  0  0  0  0
 21 52  1  0  0  0  0
 21 53  1  0  0  0  0
 22 54  1  0  0  0  0
 23 24  1  0  0  0  0
 24 55  1  0  0  0  0
 24 56  1  0  0  0  0
M  END
> <PUBCHEM_COMPOUND_CID>
101771

> <PUBCHEM_CONFORMER_RMSD>
0.8

> <PUBCHEM_CONFORMER_DIVERSEORDER>
1
3
2

> <PUBCHEM_MMFF94_PARTIAL_CHARGES>
9
1 -0.68
13 0.06
2 -0.57
22 0.28
23 0.45
24 0.34
3 -0.68
57 0.4
58 0.4

> <PUBCHEM_EFFECTIVE_ROTOR_COUNT>
4.2

> <PUBCHEM_PHARMACOPHORE_FEATURES>
9
1 1 acceptor
1 1 donor
1 2 acceptor
1 3 acceptor
1 3 donor
5 6 7 13 14 17 rings
6 4 5 6 7 10 11 rings
6 4 5 8 9 12 15 rings
6 8 9 16 18 21 22 rings

> <PUBCHEM_HEAVY_ATOM_COUNT>
24

> <PUBCHEM_ATOM_DEF_STEREO_COUNT>
8

> <PUBCHEM_ATOM_UDEF_STEREO_COUNT>
0

> <PUBCHEM_BOND_DEF_STEREO_COUNT>
0

> <PUBCHEM_BOND_UDEF_STEREO_COUNT>
0

> <PUBCHEM_ISOTOPIC_ATOM_COUNT>
0

> <PUBCHEM_COMPONENT_COUNT>
1

> <PUBCHEM_CACTVS_TAUTO_COUNT>
4

> <PUBCHEM_CONFORMER_ID>
00018D8B00000001

> <PUBCHEM_MMFF94_ENERGY>
74.9324

> <PUBCHEM_FEATURE_SELFOVERLAP>
45.767

> <PUBCHEM_SHAPE_FINGERPRINT>
10366900 7 13398630549931376525
11405975 8 18260268508025193267
11578080 2 16771279264581658439
12107183 9 17550115096311580138
12166972 35 17846775204675034588
12236239 1 17918272073636872700
12403259 226 18410582768534378872
12403259 415 18201166476635339436
12422481 6 17749103413336317071
12616971 3 17967820422391075725
12633257 1 16877943793677040289
12788726 201 18040423404430671672
13140716 1 18263926536024296347
13224815 77 18335703802073864077
13288520 33 18410857689226744444
13533116 47 18343021099549675882
13675066 3 18040722428463794513
13862211 1 18408608054319520327
14178342 30 17970338428799996968
14251764 18 18272655645559488690
14341114 176 18412261722805213048
15196674 1 18409733924029716585
15209289 33 18341896294178816787
15788980 27 18343584027621760275
17349148 13 18411140225060377194
17492 89 18338803295198519058
17844677 252 18411416206779639304
1813 80 17560807589004084525
18186145 218 18129957692741679084
18927931 339 18410290337369980759
19141452 34 17676767578980678567
19591789 44 18409735032057295994
200 152 18186524289157443793
20028762 73 18187090524561270502
20261772 1 18113903723554036703
21150785 3 16988551412874513478
21267235 1 18410851074987833594
21279426 13 18339929319590315508
21682296 61 18188204433156461326
221490 88 18411700946311101840
22182313 1 17677606639164212276
23402539 116 18334584537553819007
23522609 53 18122030239623308384
23557571 272 18113612417244503397
23559900 14 18411145701149467728
296302 2 7204776994738564909
3004659 81 18201438112865205066
3286 77 18413393120428508724
335352 9 18410015468058200709
350125 39 18410854369365133440
4214541 1 18410577318299540305
465052 167 18334574655604372958
5104073 3 18187645756626324251
542803 24 17561365075706026061
559249 180 18340211915363560210
7495541 125 18409167701680461416
9709674 26 18268431239436981027

> <PUBCHEM_SHAPE_MULTIPOLES>
476.3
12.05
2.31
1.09
2.85
0.56
-0.31
-5.17
2.07
0.54
0.26
-0.35
-0.15
-0.05

> <PUBCHEM_SHAPE_SELFOVERLAP>
1007.144

> <PUBCHEM_SHAPE_VOLUME>
264.5

> <PUBCHEM_COORDINATE_TYPE>
2
5
10

$$$$

