442998
  -OEChem-07051213003D

 36 38  0     1  0  0  0  0  0999 V2000
    4.1970    1.2057    0.4322 S   0  0  0  0  0  0  0  0  0  0  0  0
    5.1654   -0.5762    0.7299 S   0  0  0  0  0  0  0  0  0  0  0  0
    0.5695    0.7468   -0.7525 O   0  0  0  0  0  0  0  0  0  0  0  0
    1.5586    0.2673    1.2795 O   0  0  0  0  0  0  0  0  0  0  0  0
   -3.1311   -0.8664   -0.5378 N   0  0  0  0  0  0  0  0  0  0  0  0
   -2.4437   -0.9572    0.7643 C   0  0  2  0  0  0  0  0  0  0  0  0
   -3.1979    0.5890   -0.7690 C   0  0  1  0  0  0  0  0  0  0  0  0
   -3.0809    0.1492    1.6121 C   0  0  0  0  0  0  0  0  0  0  0  0
   -3.5821    1.1762    0.5937 C   0  0  0  0  0  0  0  0  0  0  0  0
   -0.9526   -0.6818    0.4866 C   0  0  0  0  0  0  0  0  0  0  0  0
   -1.7845    1.0235   -1.2044 C   0  0  0  0  0  0  0  0  0  0  0  0
   -0.7180    0.6963   -0.1499 C   0  0  0  0  0  0  0  0  0  0  0  0
   -4.4478   -1.4987   -0.5277 C   0  0  0  0  0  0  0  0  0  0  0  0
    1.6263    0.5120    0.0825 C   0  0  0  0  0  0  0  0  0  0  0  0
    2.9075    0.5962   -0.6836 C   0  0  2  0  0  0  0  0  0  0  0  0
    3.3480   -0.7613   -1.2275 C   0  0  0  0  0  0  0  0  0  0  0  0
    3.9663   -1.6205   -0.1284 C   0  0  0  0  0  0  0  0  0  0  0  0
   -2.5443   -1.9440    1.2302 H   0  0  0  0  0  0  0  0  0  0  0  0
   -3.9126    0.8634   -1.5530 H   0  0  0  0  0  0  0  0  0  0  0  0
   -3.9307   -0.2426    2.1836 H   0  0  0  0  0  0  0  0  0  0  0  0
   -2.3802    0.5924    2.3272 H   0  0  0  0  0  0  0  0  0  0  0  0
   -3.1488    2.1669    0.7660 H   0  0  0  0  0  0  0  0  0  0  0  0
   -4.6708    1.2737    0.6796 H   0  0  0  0  0  0  0  0  0  0  0  0
   -0.4275   -0.7781    1.4416 H   0  0  0  0  0  0  0  0  0  0  0  0
   -0.5461   -1.4685   -0.1638 H   0  0  0  0  0  0  0  0  0  0  0  0
   -1.5253    0.5370   -2.1549 H   0  0  0  0  0  0  0  0  0  0  0  0
   -1.7664    2.1009   -1.4121 H   0  0  0  0  0  0  0  0  0  0  0  0
   -0.7572    1.4713    0.6271 H   0  0  0  0  0  0  0  0  0  0  0  0
   -4.3460   -2.5735   -0.3414 H   0  0  0  0  0  0  0  0  0  0  0  0
   -4.9213   -1.3944   -1.5102 H   0  0  0  0  0  0  0  0  0  0  0  0
   -5.1320   -1.0890    0.2224 H   0  0  0  0  0  0  0  0  0  0  0  0
    2.7902    1.3242   -1.4935 H   0  0  0  0  0  0  0  0  0  0  0  0
    4.0800   -0.6140   -2.0337 H   0  0  0  0  0  0  0  0  0  0  0  0
    2.5011   -1.2950   -1.6757 H   0  0  0  0  0  0  0  0  0  0  0  0
    3.2085   -1.9652    0.5824 H   0  0  0  0  0  0  0  0  0  0  0  0
    4.4637   -2.4998   -0.5477 H   0  0  0  0  0  0  0  0  0  0  0  0
  1  2  1  0  0  0  0
  1 15  1  0  0  0  0
  2 17  1  0  0  0  0
  3 12  1  0  0  0  0
  3 14  1  0  0  0  0
  4 14  2  0  0  0  0
  5  6  1  0  0  0  0
  5  7  1  0  0  0  0
  5 13  1  0  0  0  0
  6  8  1  0  0  0  0
  6 10  1  0  0  0  0
  6 18  1  0  0  0  0
  7  9  1  0  0  0  0
  7 11  1  0  0  0  0
  7 19  1  0  0  0  0
  8  9  1  0  0  0  0
  8 20  1  0  0  0  0
  8 21  1  0  0  0  0
  9 22  1  0  0  0  0
  9 23  1  0  0  0  0
 10 12  1  0  0  0  0
 10 24  1  0  0  0  0
 10 25  1  0  0  0  0
 11 12  1  0  0  0  0
 11 26  1  0  0  0  0
 11 27  1  0  0  0  0
 12 28  1  0  0  0  0
 13 29  1  0  0  0  0
 13 30  1  0  0  0  0
 13 31  1  0  0  0  0
 14 15  1  0  0  0  0
 15 16  1  0  0  0  0
 15 32  1  0  0  0  0
 16 17  1  0  0  0  0
 16 33  1  0  0  0  0
 16 34  1  0  0  0  0
 17 35  1  0  0  0  0
 17 36  1  0  0  0  0
M  END
> <PUBCHEM_COMPOUND_CID>
442998

> <PUBCHEM_CONFORMER_RMSD>
0.6

> <PUBCHEM_CONFORMER_DIVERSEORDER>
1
62
75
72
49
60
76
6
77
2
70
17
39
78
37
54
71
18
50
48
35
34
68
23
63
53
22
3
74
14
57
41
7
55
59
44
69
25
52
32
80
66
47
65
79
24
15
31
30
33
27
28
61
40
5
58
67
26
56
42
46
45
73
13
29
8
19
36
51
12
16
20
43
21
4
11
64
9
10
38

> <PUBCHEM_MMFF94_PARTIAL_CHARGES>
12
1 -0.23
12 0.28
13 0.27
14 0.66
15 0.29
17 0.23
2 -0.23
3 -0.43
4 -0.57
5 -0.81
6 0.27
7 0.27

> <PUBCHEM_EFFECTIVE_ROTOR_COUNT>
5.2

> <PUBCHEM_PHARMACOPHORE_FEATURES>
4
1 4 acceptor
1 5 cation
5 1 2 15 16 17 rings
8 5 6 7 8 9 10 11 12 rings

> <PUBCHEM_HEAVY_ATOM_COUNT>
17

> <PUBCHEM_ATOM_DEF_STEREO_COUNT>
1

> <PUBCHEM_ATOM_UDEF_STEREO_COUNT>
2

> <PUBCHEM_BOND_DEF_STEREO_COUNT>
0

> <PUBCHEM_BOND_UDEF_STEREO_COUNT>
0

> <PUBCHEM_ISOTOPIC_ATOM_COUNT>
0

> <PUBCHEM_COMPONENT_COUNT>
1

> <PUBCHEM_CACTVS_TAUTO_COUNT>
1

> <PUBCHEM_CONFORMER_ID>
0006C27600000001

> <PUBCHEM_MMFF94_ENERGY>
32.9707

> <PUBCHEM_FEATURE_SELFOVERLAP>
20.297

> <PUBCHEM_SHAPE_FINGERPRINT>
10680689 15 17989487441499041709
11132069 177 17917713491433154204
12251169 10 15285360595888146972
124424 183 17240482554415889249
12507557 5 16443353069597198768
128620 24 16558744620493982684
12892183 10 16805600395461915982
12916754 54 18340769243632052477
13024252 1 16702304538561345861
13167823 11 18186803573579748222
13296908 3 18343582940958247660
13583140 156 16805614684564798314
13675066 3 17775283855073069128
13760787 5 17131827664181066732
14004511 7 18411978091570264473
14252887 29 17822006545523780718
14289901 80 18260547784158178160
15375358 24 18408324401978825054
15788980 27 17917714621394466964
16752209 62 17346051033801359013
17834072 33 18114184090582152584
18186145 218 18335693966698794692
19862831 5 15841551877366944290
1986462 14 18341894099671925215
200 152 18261398815043157215
20279233 1 18342738507522460086
20281475 54 18201147767894532148
20325693 3 14189575243500162891
20432913 95 18408322202950353202
20645477 70 18335420192783400190
22485316 2 18334575754619881566
22646028 1 18060139847160794694
22854114 59 5112289805979104560
23402539 116 18201446895318867276
23402655 69 12319743578849929318
23557571 272 17632308903568434364
23559900 14 18273500070247060044
26918003 58 18114185267587769192
2838139 119 17679019555110439729
3286 77 18041564646018106549
4175511 318 15267069129529094983
474 4 16227477079036138024
5104073 3 18334574642096836586
573450 72 18040716995456830739
633830 44 16845283960483611660
9709674 26 18342734118145414090

> <PUBCHEM_SHAPE_MULTIPOLES>
340.83
10.44
1.45
1.26
5.39
0.24
-0.12
2.19
-0.74
-0.02
0.11
-0.3
-0.05
0.07

> <PUBCHEM_SHAPE_SELFOVERLAP>
688.14

> <PUBCHEM_SHAPE_VOLUME>
203.6

> <PUBCHEM_COORDINATE_TYPE>
2
5
10

$$$$

