9360
  -OEChem-06261203382D

143144  0     1  0  0  0  0  0999 V2000
    4.2690    4.0010    0.0000 O   0  0  0  0  0  0  0  0  0  0  0  0
    4.2690    5.7331    0.0000 O   0  0  0  0  0  0  0  0  0  0  0  0
    6.0279    2.1691    0.0000 O   0  0  0  0  0  0  0  0  0  0  0  0
    4.2690    2.2690    0.0000 O   0  0  0  0  0  0  0  0  0  0  0  0
    4.2690    7.4651    0.0000 O   0  0  0  0  0  0  0  0  0  0  0  0
    7.2690    7.4651    0.0000 O   0  0  0  0  0  0  0  0  0  0  0  0
    1.4030    7.9651    0.0000 O   0  0  0  0  0  0  0  0  0  0  0  0
    2.2690    4.0010    0.0000 O   0  0  0  0  0  0  0  0  0  0  0  0
    2.2690    9.1972    0.0000 O   0  0  0  0  0  0  0  0  0  0  0  0
    9.7349    6.8579    0.0000 O   0  0  0  0  0  0  0  0  0  0  0  0
    7.5030    6.3759    0.0000 O   0  0  0  0  0  0  0  0  0  0  0  0
    8.7690    3.1350    0.0000 O   0  0  0  0  0  0  0  0  0  0  0  0
    7.2690    5.7331    0.0000 O   0  0  0  0  0  0  0  0  0  0  0  0
    5.6275   14.5441    0.0000 O   0  0  0  0  0  0  0  0  0  0  0  0
    4.7615   12.0441    0.0000 O   0  0  0  0  0  0  0  0  0  0  0  0
    6.4935   12.0441    0.0000 O   0  0  0  0  0  0  0  0  0  0  0  0
    3.8955   14.5441    0.0000 O   0  0  0  0  0  0  0  0  0  0  0  0
    8.2256   13.0441    0.0000 O   0  0  0  0  0  0  0  0  0  0  0  0
    2.1634   13.5441    0.0000 O   0  0  0  0  0  0  0  0  0  0  0  0
    3.0294   12.0441    0.0000 O   0  0  0  0  0  0  0  0  0  0  0  0
    1.2690    2.2690    0.0000 N   0  0  0  0  0  0  0  0  0  0  0  0
    5.2690    4.0010    0.0000 C   0  0  2  0  0  0  0  0  0  0  0  0
    5.7690    4.8671    0.0000 C   0  0  3  0  0  0  0  0  0  0  0  0
    5.7690    3.1350    0.0000 C   0  0  1  0  0  0  0  0  0  0  0  0
    5.2690    5.7331    0.0000 C   0  0  1  0  0  0  0  0  0  0  0  0
    6.7690    3.1350    0.0000 C   0  0  0  0  0  0  0  0  0  0  0  0
    5.7690    6.5991    0.0000 C   0  0  2  0  0  0  0  0  0  0  0  0
    7.2690    4.0010    0.0000 C   0  0  2  0  0  0  0  0  0  0  0  0
    3.7690    3.1350    0.0000 C   0  0  3  0  0  0  0  0  0  0  0  0
    3.7690    6.5991    0.0000 C   0  0  3  0  0  0  0  0  0  0  0  0
    2.2690    7.4651    0.0000 C   0  0  3  0  0  0  0  0  0  0  0  0
    6.7690    4.8671    0.0000 C   0  0  0  0  0  0  0  0  0  0  0  0
    2.7690    3.1350    0.0000 C   0  0  3  0  0  0  0  0  0  0  0  0
    2.2690    2.2690    0.0000 C   0  0  3  0  0  0  0  0  0  0  0  0
    2.7690    6.5991    0.0000 C   0  0  0  0  0  0  0  0  0  0  0  0
    5.0619    2.4279    0.0000 C   0  0  0  0  0  0  0  0  0  0  0  0
    2.7690    8.3312    0.0000 C   0  0  3  0  0  0  0  0  0  0  0  0
    8.7690    4.8671    0.0000 C   0  0  2  0  0  0  0  0  0  0  0  0
    2.7690    1.4030    0.0000 C   0  0  0  0  0  0  0  0  0  0  0  0
    8.7690    6.5991    0.0000 C   0  0  1  0  0  0  0  0  0  0  0  0
    8.2690    5.7331    0.0000 C   0  0  2  0  0  0  0  0  0  0  0  0
    3.7690    8.3312    0.0000 C   0  0  3  0  0  0  0  0  0  0  0  0
    8.2690    4.0010    0.0000 C   0  0  0  0  0  0  0  0  0  0  0  0
    3.7690    1.4030    0.0000 C   0  0  3  0  0  0  0  0  0  0  0  0
    8.2690    7.4651    0.0000 C   0  0  1  0  0  0  0  0  0  0  0  0
    6.7690    6.5991    0.0000 C   0  0  0  0  0  0  0  0  0  0  0  0
    5.2690    7.4651    0.0000 C   0  0  0  0  0  0  0  0  0  0  0  0
    6.2690    4.0010    0.0000 C   0  0  0  0  0  0  0  0  0  0  0  0
    1.4030    6.9651    0.0000 C   0  0  0  0  0  0  0  0  0  0  0  0
    9.7690    4.8671    0.0000 C   0  0  0  0  0  0  0  0  0  0  0  0
    9.5881    6.0255    0.0000 C   0  0  0  0  0  0  0  0  0  0  0  0
    8.7690    8.3312    0.0000 C   0  0  0  0  0  0  0  0  0  0  0  0
    4.2690    9.1972    0.0000 C   0  0  0  0  0  0  0  0  0  0  0  0
    4.2690    0.5369    0.0000 C   0  0  0  0  0  0  0  0  0  0  0  0
    0.7690    1.4030    0.0000 C   0  0  0  0  0  0  0  0  0  0  0  0
    0.7690    3.1350    0.0000 C   0  0  0  0  0  0  0  0  0  0  0  0
    8.2690    9.1972    0.0000 C   0  0  0  0  0  0  0  0  0  0  0  0
    0.5369    7.4651    0.0000 C   0  0  0  0  0  0  0  0  0  0  0  0
    5.6275   13.5441    0.0000 C   0  0  3  0  0  0  0  0  0  0  0  0
    4.7615   13.0441    0.0000 C   0  0  3  0  0  0  0  0  0  0  0  0
    6.4935   13.0441    0.0000 C   0  0  3  0  0  0  0  0  0  0  0  0
    3.8955   13.5441    0.0000 C   0  0  3  0  0  0  0  0  0  0  0  0
    7.3596   13.5441    0.0000 C   0  0  0  0  0  0  0  0  0  0  0  0
    3.0294   13.0441    0.0000 C   0  0  0  0  0  0  0  0  0  0  0  0
    4.9590    4.5380    0.0000 H   0  0  0  0  0  0  0  0  0  0  0  0
    6.1940    4.1309    0.0000 H   0  0  0  0  0  0  0  0  0  0  0  0
    4.9590    6.2700    0.0000 H   0  0  0  0  0  0  0  0  0  0  0  0
    6.6613    2.5244    0.0000 H   0  0  0  0  0  0  0  0  0  0  0  0
    7.3516    2.9230    0.0000 H   0  0  0  0  0  0  0  0  0  0  0  0
    5.1490    6.5991    0.0000 H   0  0  0  0  0  0  0  0  0  0  0  0
    7.2690    4.6210    0.0000 H   0  0  0  0  0  0  0  0  0  0  0  0
    3.3440    3.8711    0.0000 H   0  0  0  0  0  0  0  0  0  0  0  0
    3.3440    5.8630    0.0000 H   0  0  0  0  0  0  0  0  0  0  0  0
    6.7690    4.2471    0.0000 H   0  0  0  0  0  0  0  0  0  0  0  0
    7.3890    4.8671    0.0000 H   0  0  0  0  0  0  0  0  0  0  0  0
    6.7690    5.4871    0.0000 H   0  0  0  0  0  0  0  0  0  0  0  0
    1.9190    3.1350    0.0000 H   0  0  0  0  0  0  0  0  0  0  0  0
    1.8440    3.0051    0.0000 H   0  0  0  0  0  0  0  0  0  0  0  0
    2.1864    6.3871    0.0000 H   0  0  0  0  0  0  0  0  0  0  0  0
    2.8766    5.9885    0.0000 H   0  0  0  0  0  0  0  0  0  0  0  0
    4.6235    2.8663    0.0000 H   0  0  0  0  0  0  0  0  0  0  0  0
    4.6235    1.9895    0.0000 H   0  0  0  0  0  0  0  0  0  0  0  0
    5.5003    1.9895    0.0000 H   0  0  0  0  0  0  0  0  0  0  0  0
    1.9190    8.3312    0.0000 H   0  0  0  0  0  0  0  0  0  0  0  0
    9.0790    4.3301    0.0000 H   0  0  0  0  0  0  0  0  0  0  0  0
    2.1864    1.1909    0.0000 H   0  0  0  0  0  0  0  0  0  0  0  0
    2.8766    0.7924    0.0000 H   0  0  0  0  0  0  0  0  0  0  0  0
    7.7940    5.3346    0.0000 H   0  0  0  0  0  0  0  0  0  0  0  0
    4.6190    8.3312    0.0000 H   0  0  0  0  0  0  0  0  0  0  0  0
    4.6190    1.4030    0.0000 H   0  0  0  0  0  0  0  0  0  0  0  0
    7.9590    8.0021    0.0000 H   0  0  0  0  0  0  0  0  0  0  0  0
    6.6267    2.0086    0.0000 H   0  0  0  0  0  0  0  0  0  0  0  0
    5.8059    7.7751    0.0000 H   0  0  0  0  0  0  0  0  0  0  0  0
    4.9590    8.0021    0.0000 H   0  0  0  0  0  0  0  0  0  0  0  0
    4.7320    7.1551    0.0000 H   0  0  0  0  0  0  0  0  0  0  0  0
    6.2690    4.6210    0.0000 H   0  0  0  0  0  0  0  0  0  0  0  0
    5.6490    4.0010    0.0000 H   0  0  0  0  0  0  0  0  0  0  0  0
    6.2690    3.3810    0.0000 H   0  0  0  0  0  0  0  0  0  0  0  0
    1.0930    7.5021    0.0000 H   0  0  0  0  0  0  0  0  0  0  0  0
    0.8660    6.6551    0.0000 H   0  0  0  0  0  0  0  0  0  0  0  0
    1.7130    6.4282    0.0000 H   0  0  0  0  0  0  0  0  0  0  0  0
    9.7690    4.2471    0.0000 H   0  0  0  0  0  0  0  0  0  0  0  0
   10.3890    4.8671    0.0000 H   0  0  0  0  0  0  0  0  0  0  0  0
    9.7690    5.4871    0.0000 H   0  0  0  0  0  0  0  0  0  0  0  0
    9.2325    5.5177    0.0000 H   0  0  0  0  0  0  0  0  0  0  0  0
   10.0960    5.6699    0.0000 H   0  0  0  0  0  0  0  0  0  0  0  0
    9.9438    6.5334    0.0000 H   0  0  0  0  0  0  0  0  0  0  0  0
    9.2439    7.9326    0.0000 H   0  0  0  0  0  0  0  0  0  0  0  0
    9.2439    8.7297    0.0000 H   0  0  0  0  0  0  0  0  0  0  0  0
    4.8059    8.8872    0.0000 H   0  0  0  0  0  0  0  0  0  0  0  0
    4.5790    9.7341    0.0000 H   0  0  0  0  0  0  0  0  0  0  0  0
    3.7320    9.5072    0.0000 H   0  0  0  0  0  0  0  0  0  0  0  0
    3.7320    0.2269    0.0000 H   0  0  0  0  0  0  0  0  0  0  0  0
    4.5790    0.0000    0.0000 H   0  0  0  0  0  0  0  0  0  0  0  0
    4.8059    0.8469    0.0000 H   0  0  0  0  0  0  0  0  0  0  0  0
    1.6490    4.0010    0.0000 H   0  0  0  0  0  0  0  0  0  0  0  0
    2.5790    9.7341    0.0000 H   0  0  0  0  0  0  0  0  0  0  0  0
    9.8954    7.4568    0.0000 H   0  0  0  0  0  0  0  0  0  0  0  0
    7.9014    6.8509    0.0000 H   0  0  0  0  0  0  0  0  0  0  0  0
    0.2321    1.7130    0.0000 H   0  0  0  0  0  0  0  0  0  0  0  0
    0.4590    0.8660    0.0000 H   0  0  0  0  0  0  0  0  0  0  0  0
    1.3059    1.0930    0.0000 H   0  0  0  0  0  0  0  0  0  0  0  0
    1.3059    3.4450    0.0000 H   0  0  0  0  0  0  0  0  0  0  0  0
    0.4590    3.6720    0.0000 H   0  0  0  0  0  0  0  0  0  0  0  0
    0.2321    2.8250    0.0000 H   0  0  0  0  0  0  0  0  0  0  0  0
    8.8059    9.5072    0.0000 H   0  0  0  0  0  0  0  0  0  0  0  0
    7.9590    9.7341    0.0000 H   0  0  0  0  0  0  0  0  0  0  0  0
    7.7320    8.8872    0.0000 H   0  0  0  0  0  0  0  0  0  0  0  0
    0.2269    8.0021    0.0000 H   0  0  0  0  0  0  0  0  0  0  0  0
    0.0000    7.1551    0.0000 H   0  0  0  0  0  0  0  0  0  0  0  0
    0.8469    6.9282    0.0000 H   0  0  0  0  0  0  0  0  0  0  0  0
    6.3636   13.9691    0.0000 H   0  0  0  0  0  0  0  0  0  0  0  0
    4.0254   12.6191    0.0000 H   0  0  0  0  0  0  0  0  0  0  0  0
    7.2296   12.6191    0.0000 H   0  0  0  0  0  0  0  0  0  0  0  0
    4.6316   13.9691    0.0000 H   0  0  0  0  0  0  0  0  0  0  0  0
    7.7581   14.0191    0.0000 H   0  0  0  0  0  0  0  0  0  0  0  0
    6.9610   14.0191    0.0000 H   0  0  0  0  0  0  0  0  0  0  0  0
    6.1644   14.8541    0.0000 H   0  0  0  0  0  0  0  0  0  0  0  0
    4.2246   11.7341    0.0000 H   0  0  0  0  0  0  0  0  0  0  0  0
    7.0305   11.7341    0.0000 H   0  0  0  0  0  0  0  0  0  0  0  0
    3.3585   14.8541    0.0000 H   0  0  0  0  0  0  0  0  0  0  0  0
    8.7625   13.3541    0.0000 H   0  0  0  0  0  0  0  0  0  0  0  0
    1.6265   13.2341    0.0000 H   0  0  0  0  0  0  0  0  0  0  0  0
 22  1  1  6  0  0  0
  1 29  1  0  0  0  0
 25  2  1  6  0  0  0
  2 30  1  0  0  0  0
 24  3  1  1  0  0  0
  3 92  1  0  0  0  0
  4 29  1  0  0  0  0
  4 44  1  0  0  0  0
  5 30  1  0  0  0  0
  5 42  1  0  0  0  0
  6 45  1  0  0  0  0
  6 46  1  0  0  0  0
  7 31  1  0  0  0  0
  7 58  1  0  0  0  0
  8 33  1  0  0  0  0
  8116  1  0  0  0  0
  9 37  1  0  0  0  0
  9117  1  0  0  0  0
 40 10  1  1  0  0  0
 10118  1  0  0  0  0
 41 11  1  1  0  0  0
 11119  1  0  0  0  0
 12 43  2  0  0  0  0
 13 46  2  0  0  0  0
 14 59  1  0  0  0  0
 14138  1  0  0  0  0
 15 60  1  0  0  0  0
 15139  1  0  0  0  0
 16 61  1  0  0  0  0
 16140  1  0  0  0  0
 17 62  1  0  0  0  0
 17141  1  0  0  0  0
 18 63  1  0  0  0  0
 18142  1  0  0  0  0
 19 64  1  0  0  0  0
 19143  1  0  0  0  0
 20 64  2  0  0  0  0
 21 34  1  0  0  0  0
 21 55  1  0  0  0  0
 21 56  1  0  0  0  0
 22 23  1  0  0  0  0
 22 24  1  0  0  0  0
 22 65  1  0  0  0  0
 23 25  1  0  0  0  0
 23 32  1  0  0  0  0
 23 66  1  0  0  0  0
 24 26  1  0  0  0  0
 24 36  1  0  0  0  0
 25 27  1  0  0  0  0
 25 67  1  0  0  0  0
 26 28  1  0  0  0  0
 26 68  1  0  0  0  0
 26 69  1  0  0  0  0
 27 46  1  0  0  0  0
 27 47  1  1  0  0  0
 27 70  1  0  0  0  0
 28 43  1  0  0  0  0
 28 48  1  1  0  0  0
 28 71  1  0  0  0  0
 29 33  1  0  0  0  0
 29 72  1  0  0  0  0
 30 35  1  0  0  0  0
 30 73  1  0  0  0  0
 31 35  1  0  0  0  0
 31 37  1  0  0  0  0
 31 49  1  0  0  0  0
 32 74  1  0  0  0  0
 32 75  1  0  0  0  0
 32 76  1  0  0  0  0
 33 34  1  0  0  0  0
 33 77  1  0  0  0  0
 34 39  1  0  0  0  0
 34 78  1  0  0  0  0
 35 79  1  0  0  0  0
 35 80  1  0  0  0  0
 36 81  1  0  0  0  0
 36 82  1  0  0  0  0
 36 83  1  0  0  0  0
 37 42  1  0  0  0  0
 37 84  1  0  0  0  0
 38 41  1  0  0  0  0
 38 43  1  0  0  0  0
 38 50  1  1  0  0  0
 38 85  1  0  0  0  0
 39 44  1  0  0  0  0
 39 86  1  0  0  0  0
 39 87  1  0  0  0  0
 40 41  1  0  0  0  0
 40 45  1  0  0  0  0
 40 51  1  0  0  0  0
 41 88  1  0  0  0  0
 42 53  1  0  0  0  0
 42 89  1  0  0  0  0
 44 54  1  0  0  0  0
 44 90  1  0  0  0  0
 45 52  1  6  0  0  0
 45 91  1  0  0  0  0
 47 93  1  0  0  0  0
 47 94  1  0  0  0  0
 47 95  1  0  0  0  0
 48 96  1  0  0  0  0
 48 97  1  0  0  0  0
 48 98  1  0  0  0  0
 49 99  1  0  0  0  0
 49100  1  0  0  0  0
 49101  1  0  0  0  0
 50102  1  0  0  0  0
 50103  1  0  0  0  0
 50104  1  0  0  0  0
 51105  1  0  0  0  0
 51106  1  0  0  0  0
 51107  1  0  0  0  0
 52 57  1  0  0  0  0
 52108  1  0  0  0  0
 52109  1  0  0  0  0
 53110  1  0  0  0  0
 53111  1  0  0  0  0
 53112  1  0  0  0  0
 54113  1  0  0  0  0
 54114  1  0  0  0  0
 54115  1  0  0  0  0
 55120  1  0  0  0  0
 55121  1  0  0  0  0
 55122  1  0  0  0  0
 56123  1  0  0  0  0
 56124  1  0  0  0  0
 56125  1  0  0  0  0
 57126  1  0  0  0  0
 57127  1  0  0  0  0
 57128  1  0  0  0  0
 58129  1  0  0  0  0
 58130  1  0  0  0  0
 58131  1  0  0  0  0
 59 60  1  0  0  0  0
 59 61  1  0  0  0  0
 59132  1  0  0  0  0
 60 62  1  0  0  0  0
 60133  1  0  0  0  0
 61 63  1  0  0  0  0
 61134  1  0  0  0  0
 62 64  1  0  0  0  0
 62135  1  0  0  0  0
 63136  1  0  0  0  0
 63137  1  0  0  0  0
M  END
> <PUBCHEM_COMPOUND_CID>
9360

> <PUBCHEM_COMPOUND_CANONICALIZED>
1

> <PUBCHEM_CACTVS_COMPLEXITY>
1350

> <PUBCHEM_CACTVS_HBOND_ACCEPTOR>
21

> <PUBCHEM_CACTVS_HBOND_DONOR>
11

> <PUBCHEM_CACTVS_ROTATABLE_BOND>
12

> <PUBCHEM_CACTVS_SUBSKEYS>
AAADcfB+PgAAAAAAAAAAAAAAAAAAAAAAAAAkSAAAAAAAAAAAAAAAHgAACAAADXzxgAcCCAMABgAIAICQCAIAAAAAAAAAAAFIAAATEBYAgAAmQAAHIAAXAAHK7PzOAAAAAAAAAAAAAAAAAAAAAAAAAAAAAA==

> <PUBCHEM_IUPAC_OPENEYE_NAME>
(3R,4S,6R,7R,9R,11R,12R,13S,14R)-6-[4-(dimethylamino)-3-hydroxy-6-methyl-tetrahydropyran-2-yl]oxy-14-ethyl-7,12,13-trihydroxy-4-(5-hydroxy-4-methoxy-4,6-dimethyl-tetrahydropyran-2-yl)oxy-3,5,7,9,11,13-hexamethyl-oxacyclotetradecane-2,10-dione; 2,3,4,5,6-pentahydroxyhexanoic acid

> <PUBCHEM_IUPAC_CAS_NAME>
(3R,4S,6R,7R,9R,11R,12R,13S,14R)-6-[[4-(dimethylamino)-3-hydroxy-6-methyl-2-oxanyl]oxy]-14-ethyl-7,12,13-trihydroxy-4-[(5-hydroxy-4-methoxy-4,6-dimethyl-2-oxanyl)oxy]-3,5,7,9,11,13-hexamethyl-oxacyclotetradecane-2,10-dione; 2,3,4,5,6-pentahydroxyhexanoic acid

> <PUBCHEM_IUPAC_NAME>
(3R,4S,6R,7R,9R,11R,12R,13S,14R)-6-[4-(dimethylamino)-3-hydroxy-6-methyloxan-2-yl]oxy-14-ethyl-7,12,13-trihydroxy-4-(5-hydroxy-4-methoxy-4,6-dimethyloxan-2-yl)oxy-3,5,7,9,11,13-hexamethyl-oxacyclotetradecane-2,10-dione; 2,3,4,5,6-pentahydroxyhexanoic acid

> <PUBCHEM_IUPAC_SYSTEMATIC_NAME>
(3R,4S,6R,7R,9R,11R,12R,13S,14R)-6-[4-(dimethylamino)-6-methyl-3-oxidanyl-oxan-2-yl]oxy-14-ethyl-4-(4-methoxy-4,6-dimethyl-5-oxidanyl-oxan-2-yl)oxy-3,5,7,9,11,13-hexamethyl-7,12,13-tris(oxidanyl)-1-oxacyclotetradecane-2,10-dione; 2,3,4,5,6-pentakis(oxidanyl)hexanoic acid

> <PUBCHEM_IUPAC_TRADITIONAL_NAME>
(3R,4S,6R,7R,9R,11R,12R,13S,14R)-6-[4-(dimethylamino)-3-hydroxy-6-methyl-tetrahydropyran-2-yl]oxy-14-ethyl-7,12,13-trihydroxy-4-(5-hydroxy-4-methoxy-4,6-dimethyl-tetrahydropyran-2-yl)oxy-3,5,7,9,11,13-hexamethyl-oxacyclotetradecane-2,10-quinone; 2,3,4,5,6-pentahydroxyhexanoic acid

> <PUBCHEM_IUPAC_INCHI>
InChI=1S/C37H67NO13.C6H12O7/c1-14-25-37(10,45)30(41)20(4)27(39)18(2)16-35(8,44)32(51-34-28(40)24(38(11)12)15-19(3)47-34)21(5)29(22(6)33(43)49-25)50-26-17-36(9,46-13)31(42)23(7)48-26;7-1-2(8)3(9)4(10)5(11)6(12)13/h18-26,28-32,34,40-42,44-45H,14-17H2,1-13H3;2-5,7-11H,1H2,(H,12,13)/t18-,19?,20+,21?,22-,23?,24?,25-,26?,28?,29+,30-,31?,32-,34?,35-,36?,37-;/m1./s1

> <PUBCHEM_IUPAC_INCHIKEY>
MFSVWIWOIRXUOS-FPTAWXEOSA-N

> <PUBCHEM_EXACT_MASS>
929.519544

> <PUBCHEM_MOLECULAR_FORMULA>
C43H79NO20

> <PUBCHEM_MOLECULAR_WEIGHT>
930.08206

> <PUBCHEM_OPENEYE_CAN_SMILES>
CCC1C(C(C(C(=O)C(CC(C(C(C(C(C(=O)O1)C)OC2CC(C(C(O2)C)O)(C)OC)C)OC3C(C(CC(O3)C)N(C)C)O)(C)O)C)C)O)(C)O.C(C(C(C(C(C(=O)O)O)O)O)O)O

> <PUBCHEM_OPENEYE_ISO_SMILES>
CC[C@@H]1[C@@]([C@@H]([C@H](C(=O)[C@@H](C[C@@]([C@@H](C([C@@H]([C@H](C(=O)O1)C)OC2CC(C(C(O2)C)O)(C)OC)C)OC3C(C(CC(O3)C)N(C)C)O)(C)O)C)C)O)(C)O.C(C(C(C(C(C(=O)O)O)O)O)O)O

> <PUBCHEM_CACTVS_TPSA>
332

> <PUBCHEM_MONOISOTOPIC_WEIGHT>
929.519544

> <PUBCHEM_TOTAL_CHARGE>
0

> <PUBCHEM_HEAVY_ATOM_COUNT>
64

> <PUBCHEM_ATOM_DEF_STEREO_COUNT>
9

> <PUBCHEM_ATOM_UDEF_STEREO_COUNT>
13

> <PUBCHEM_BOND_DEF_STEREO_COUNT>
0

> <PUBCHEM_BOND_UDEF_STEREO_COUNT>
0

> <PUBCHEM_ISOTOPIC_ATOM_COUNT>
0

> <PUBCHEM_COMPONENT_COUNT>
2

> <PUBCHEM_CACTVS_TAUTO_COUNT>
6

> <PUBCHEM_COORDINATE_TYPE>
1
5
255

> <PUBCHEM_BONDANNOTATIONS>
22  1  6
40  10  5
41  11  5
25  2  6
23  66  3
27  47  5
28  48  5
29  72  3
24  3  5
30  73  3
31  49  3
33  77  3
34  78  3
37  84  3
38  50  5
42  89  3
44  90  3
45  52  6
59  132  3
60  133  3
61  134  3
62  135  3

$$$$

