51351713
  -OEChem-07051213153D

 82 86  0     1  0  0  0  0  0999 V2000
   -4.3506   -3.5527   -1.7939 O   0  0  0  0  0  0  0  0  0  0  0  0
   -3.5197   -1.6781   -2.7896 O   0  0  0  0  0  0  0  0  0  0  0  0
   -3.3012    2.3587    1.8625 O   0  0  0  0  0  0  0  0  0  0  0  0
   -1.2962    4.4840    1.5242 O   0  0  0  0  0  0  0  0  0  0  0  0
   -7.3968    1.6933   -0.0075 O   0  0  0  0  0  0  0  0  0  0  0  0
   -8.3950   -0.3131   -0.3776 O   0  0  0  0  0  0  0  0  0  0  0  0
    4.1373   -0.9316    3.3777 O   0  0  0  0  0  0  0  0  0  0  0  0
   -1.9999   -1.0914   -0.6513 N   0  0  0  0  0  0  0  0  0  0  0  0
    0.2249    1.0887   -1.1681 N   0  0  0  0  0  0  0  0  0  0  0  0
    3.2786   -0.4671   -1.6226 N   0  0  0  0  0  0  0  0  0  0  0  0
    4.6512   -2.3386    1.5793 N   0  0  0  0  0  0  0  0  0  0  0  0
   -3.7335   -0.4622    0.7929 C   0  0  1  0  0  0  0  0  0  0  0  0
   -3.7056   -2.0131    0.6524 C   0  0  1  0  0  0  0  0  0  0  0  0
   -2.7991   -2.2898   -0.5687 C   0  0  1  0  0  0  0  0  0  0  0  0
   -2.4440   -0.0456    0.1127 C   0  0  0  0  0  0  0  0  0  0  0  0
   -4.9540    0.1482    0.1037 C   0  0  0  0  0  0  0  0  0  0  0  0
   -1.8542    1.1432    0.2820 C   0  0  0  0  0  0  0  0  0  0  0  0
   -3.1178   -2.6639    1.9098 C   0  0  0  0  0  0  0  0  0  0  0  0
   -0.6677    1.6155   -0.3009 C   0  0  0  0  0  0  0  0  0  0  0  0
   -6.2647   -0.2656    0.7581 C   0  0  0  0  0  0  0  0  0  0  0  0
   -3.5730   -2.4433   -1.8384 C   0  0  0  0  0  0  0  0  0  0  0  0
   -0.2841    2.8830    0.0526 C   0  0  0  0  0  0  0  0  0  0  0  0
   -2.3251    2.2801    1.1566 C   0  0  0  0  0  0  0  0  0  0  0  0
    1.2054    2.0473   -1.3712 C   0  0  0  0  0  0  0  0  0  0  0  0
    0.9044    3.1768   -0.6178 C   0  0  0  0  0  0  0  0  0  0  0  0
   -1.2588    3.4045    0.9736 C   0  0  0  0  0  0  0  0  0  0  0  0
    2.3399    1.7766   -2.2775 C   0  0  0  0  0  0  0  0  0  0  0  0
    3.4257    0.8943   -1.6802 C   0  0  0  0  0  0  0  0  0  0  0  0
   -7.4571    0.3407    0.0609 C   0  0  0  0  0  0  0  0  0  0  0  0
    4.6493    1.2099   -1.1320 C   0  0  0  0  0  0  0  0  0  0  0  0
    4.3900   -1.0251   -1.0466 C   0  0  0  0  0  0  0  0  0  0  0  0
    1.6830    4.4263   -0.5440 C   0  0  0  0  0  0  0  0  0  0  0  0
    5.2593   -0.0044   -0.7310 C   0  0  0  0  0  0  0  0  0  0  0  0
    4.4995   -2.4845   -0.8595 C   0  0  0  0  0  0  0  0  0  0  0  0
    3.9432   -2.9566    0.4884 C   0  0  2  0  0  0  0  0  0  0  0  0
    5.2176    2.5666   -0.9906 C   0  0  0  0  0  0  0  0  0  0  0  0
    2.5395   -2.4953    0.7703 C   0  0  0  0  0  0  0  0  0  0  0  0
    6.5836   -0.1526   -0.0935 C   0  0  0  0  0  0  0  0  0  0  0  0
    2.4558   -1.6947    1.8451 C   0  0  0  0  0  0  0  0  0  0  0  0
    3.8289   -1.5771    2.3900 C   0  0  0  0  0  0  0  0  0  0  0  0
    5.1223    3.1049    0.4404 C   0  0  0  0  0  0  0  0  0  0  0  0
    1.4513   -2.9376   -0.0529 C   0  0  0  0  0  0  0  0  0  0  0  0
    1.3053   -1.0214    2.4953 C   0  0  0  0  0  0  0  0  0  0  0  0
    1.6026   -3.7375   -1.1131 C   0  0  0  0  0  0  0  0  0  0  0  0
   -3.7317   -0.1834    1.8533 H   0  0  0  0  0  0  0  0  0  0  0  0
   -4.6974   -2.4481    0.5092 H   0  0  0  0  0  0  0  0  0  0  0  0
   -2.1568   -3.1679   -0.4425 H   0  0  0  0  0  0  0  0  0  0  0  0
   -4.8769    1.2418    0.1132 H   0  0  0  0  0  0  0  0  0  0  0  0
   -4.9827   -0.1272   -0.9580 H   0  0  0  0  0  0  0  0  0  0  0  0
   -1.1629   -1.0458   -1.2114 H   0  0  0  0  0  0  0  0  0  0  0  0
   -3.7456   -2.4511    2.7815 H   0  0  0  0  0  0  0  0  0  0  0  0
   -3.0665   -3.7514    1.7916 H   0  0  0  0  0  0  0  0  0  0  0  0
   -2.1071   -2.2999    2.1231 H   0  0  0  0  0  0  0  0  0  0  0  0
   -6.4090   -1.3491    0.7365 H   0  0  0  0  0  0  0  0  0  0  0  0
   -6.2948    0.0437    1.8090 H   0  0  0  0  0  0  0  0  0  0  0  0
    0.2111    0.1761   -1.6009 H   0  0  0  0  0  0  0  0  0  0  0  0
    1.9643    1.2818   -3.1845 H   0  0  0  0  0  0  0  0  0  0  0  0
    2.7825    2.7112   -2.6371 H   0  0  0  0  0  0  0  0  0  0  0  0
    1.0642    5.2768   -0.8494 H   0  0  0  0  0  0  0  0  0  0  0  0
    2.5669    4.4167   -1.1857 H   0  0  0  0  0  0  0  0  0  0  0  0
    2.0180    4.6056    0.4829 H   0  0  0  0  0  0  0  0  0  0  0  0
    5.5590   -2.7702   -0.9073 H   0  0  0  0  0  0  0  0  0  0  0  0
    4.0542   -2.9923   -1.7174 H   0  0  0  0  0  0  0  0  0  0  0  0
    2.4762   -0.9787   -1.9632 H   0  0  0  0  0  0  0  0  0  0  0  0
    4.0493   -4.0415    0.5999 H   0  0  0  0  0  0  0  0  0  0  0  0
   -4.8693   -3.6697   -2.6183 H   0  0  0  0  0  0  0  0  0  0  0  0
    4.7207    3.2728   -1.6638 H   0  0  0  0  0  0  0  0  0  0  0  0
    6.2704    2.5625   -1.2977 H   0  0  0  0  0  0  0  0  0  0  0  0
    6.5106    0.0335    0.9829 H   0  0  0  0  0  0  0  0  0  0  0  0
    7.0025   -1.1529   -0.2358 H   0  0  0  0  0  0  0  0  0  0  0  0
    7.3061    0.5555   -0.5117 H   0  0  0  0  0  0  0  0  0  0  0  0
    5.6445   -2.4616    1.7497 H   0  0  0  0  0  0  0  0  0  0  0  0
   -8.1839    2.0731   -0.4531 H   0  0  0  0  0  0  0  0  0  0  0  0
    4.0862    3.1097    0.7932 H   0  0  0  0  0  0  0  0  0  0  0  0
    5.5062    4.1288    0.4846 H   0  0  0  0  0  0  0  0  0  0  0  0
    5.7081    2.4935    1.1343 H   0  0  0  0  0  0  0  0  0  0  0  0
    0.4590   -2.5557    0.1623 H   0  0  0  0  0  0  0  0  0  0  0  0
    1.4508    0.0637    2.4916 H   0  0  0  0  0  0  0  0  0  0  0  0
    0.3579   -1.2284    1.9910 H   0  0  0  0  0  0  0  0  0  0  0  0
    1.2074   -1.3519    3.5342 H   0  0  0  0  0  0  0  0  0  0  0  0
    0.7271   -3.9913   -1.7050 H   0  0  0  0  0  0  0  0  0  0  0  0
    2.5189   -4.2296   -1.4025 H   0  0  0  0  0  0  0  0  0  0  0  0
  1 21  1  0  0  0  0
  1 66  1  0  0  0  0
  2 21  2  0  0  0  0
  3 23  2  0  0  0  0
  4 26  2  0  0  0  0
  5 29  1  0  0  0  0
  5 73  1  0  0  0  0
  6 29  2  0  0  0  0
  7 40  2  0  0  0  0
  8 14  1  0  0  0  0
  8 15  1  0  0  0  0
  8 50  1  0  0  0  0
  9 19  1  0  0  0  0
  9 24  1  0  0  0  0
  9 56  1  0  0  0  0
 10 28  1  0  0  0  0
 10 31  1  0  0  0  0
 10 64  1  0  0  0  0
 11 35  1  0  0  0  0
 11 40  1  0  0  0  0
 11 72  1  0  0  0  0
 12 13  1  0  0  0  0
 12 15  1  0  0  0  0
 12 16  1  0  0  0  0
 12 45  1  0  0  0  0
 13 14  1  0  0  0  0
 13 18  1  0  0  0  0
 13 46  1  0  0  0  0
 14 21  1  0  0  0  0
 14 47  1  0  0  0  0
 15 17  2  0  0  0  0
 16 20  1  0  0  0  0
 16 48  1  0  0  0  0
 16 49  1  0  0  0  0
 17 19  1  0  0  0  0
 17 23  1  0  0  0  0
 18 51  1  0  0  0  0
 18 52  1  0  0  0  0
 18 53  1  0  0  0  0
 19 22  2  0  0  0  0
 20 29  1  0  0  0  0
 20 54  1  0  0  0  0
 20 55  1  0  0  0  0
 22 25  1  0  0  0  0
 22 26  1  0  0  0  0
 23 26  1  0  0  0  0
 24 25  2  0  0  0  0
 24 27  1  0  0  0  0
 25 32  1  0  0  0  0
 27 28  1  0  0  0  0
 27 57  1  0  0  0  0
 27 58  1  0  0  0  0
 28 30  2  0  0  0  0
 30 33  1  0  0  0  0
 30 36  1  0  0  0  0
 31 33  2  0  0  0  0
 31 34  1  0  0  0  0
 32 59  1  0  0  0  0
 32 60  1  0  0  0  0
 32 61  1  0  0  0  0
 33 38  1  0  0  0  0
 34 35  1  0  0  0  0
 34 62  1  0  0  0  0
 34 63  1  0  0  0  0
 35 37  1  0  0  0  0
 35 65  1  0  0  0  0
 36 41  1  0  0  0  0
 36 67  1  0  0  0  0
 36 68  1  0  0  0  0
 37 39  2  0  0  0  0
 37 42  1  0  0  0  0
 38 69  1  0  0  0  0
 38 70  1  0  0  0  0
 38 71  1  0  0  0  0
 39 40  1  0  0  0  0
 39 43  1  0  0  0  0
 41 74  1  0  0  0  0
 41 75  1  0  0  0  0
 41 76  1  0  0  0  0
 42 44  2  0  0  0  0
 42 77  1  0  0  0  0
 43 78  1  0  0  0  0
 43 79  1  0  0  0  0
 43 80  1  0  0  0  0
 44 81  1  0  0  0  0
 44 82  1  0  0  0  0
M  END
> <PUBCHEM_COMPOUND_CID>
51351713

> <PUBCHEM_CONFORMER_RMSD>
1.2

> <PUBCHEM_CONFORMER_DIVERSEORDER>
14
25
127
21
120
143
66
124
31
111
135
153
11
117
136
88
24
67
78
79
29
154
94
158
104
75
44
54
90
137
157
99
35
87
148
91
131
77
20
133
69
149
109
151
7
39
142
81
162
64
134
112
36
26
61
51
23
139
1
49
145
65
52
161
118
59
62
122
63
86
152
110
74
48
92
50
126
73
107
147
128
106
114
132
150
116
47
144
70
93
45
85
160
129
28
140
33
156
71
22
57
105
38
42
10
138
121
159
100
82
155
30
96
17
115
41
37
15
76
130
72
27
6
34
101
8
4
58
119
68
98
55
56
43
146
89
60
40
125
95
12
108
5
2
84
46
103
18
9
3
80
113
97
141
83
123
53
19
13
32
102
16

> <PUBCHEM_MMFF94_PARTIAL_CHARGES>
49
1 -0.65
10 0.03
11 -0.73
12 0.14
14 0.43
15 -0.04
17 0.06
19 -0.2
2 -0.57
20 0.06
21 0.66
22 -0.09
23 0.56
24 -0.33
25 -0.18
26 0.66
27 0.36
28 -0.33
29 0.66
3 -0.57
30 -0.18
31 -0.33
32 0.18
33 -0.18
34 0.18
35 0.44
36 0.18
37 -0.14
38 0.18
39 -0.12
4 -0.57
40 0.62
42 -0.15
43 0.14
44 -0.3
5 -0.65
50 0.4
56 0.27
6 -0.57
64 0.27
66 0.5
7 -0.57
72 0.37
73 0.5
77 0.15
8 -0.87
81 0.15
82 0.15
9 0.03

> <PUBCHEM_EFFECTIVE_ROTOR_COUNT>
11.2

> <PUBCHEM_PHARMACOPHORE_FEATURES>
23
1 1 acceptor
1 10 cation
1 10 donor
1 11 donor
1 2 acceptor
1 3 acceptor
1 4 acceptor
1 41 hydrophobe
1 44 hydrophobe
1 5 acceptor
1 6 acceptor
1 7 acceptor
1 8 cation
1 8 donor
1 9 cation
1 9 donor
3 1 2 21 anion
3 5 6 29 anion
5 10 28 30 31 33 rings
5 11 35 37 39 40 rings
5 17 19 22 23 26 rings
5 8 12 13 14 15 rings
5 9 19 22 24 25 rings

> <PUBCHEM_HEAVY_ATOM_COUNT>
44

> <PUBCHEM_ATOM_DEF_STEREO_COUNT>
3

> <PUBCHEM_ATOM_UDEF_STEREO_COUNT>
1

> <PUBCHEM_BOND_DEF_STEREO_COUNT>
1

> <PUBCHEM_BOND_UDEF_STEREO_COUNT>
0

> <PUBCHEM_ISOTOPIC_ATOM_COUNT>
0

> <PUBCHEM_COMPONENT_COUNT>
1

> <PUBCHEM_CACTVS_TAUTO_COUNT>
1001

> <PUBCHEM_CONFORMER_ID>
030F90A10000000E

> <PUBCHEM_MMFF94_ENERGY>
93.0445

> <PUBCHEM_FEATURE_SELFOVERLAP>
117.086

> <PUBCHEM_SHAPE_MULTIPOLES>
844.49
15.49
5.39
2.29
17.94
2.23
-0.64
-2
0.92
-2.19
-0.24
-1.07
-1.05
-3.11

> <PUBCHEM_SHAPE_SELFOVERLAP>
1839.057

> <PUBCHEM_SHAPE_VOLUME>
463.9

> <PUBCHEM_COORDINATE_TYPE>
2
5
10

$$$$

