2348
  -OEChem-07051213032D

 38 40  0     1  0  0  0  0  0999 V2000
    8.1282    0.0979    0.0000 Cl  0  0  0  0  0  0  0  0  0  0  0  0
    4.5981   -1.9263    0.0000 S   0  0  0  0  0  0  0  0  0  0  0  0
    8.1282   -1.9504    0.0000 S   0  0  0  0  0  0  0  0  0  0  0  0
    4.0981   -2.7923    0.0000 O   0  0  0  0  0  0  0  0  0  0  0  0
    5.0981   -2.7923    0.0000 O   0  0  0  0  0  0  0  0  0  0  0  0
    7.6249   -2.8145    0.0000 O   0  0  0  0  0  0  0  0  0  0  0  0
    8.6315   -1.0863    0.0000 O   0  0  0  0  0  0  0  0  0  0  0  0
    3.7320   -1.4263    0.0000 N   0  0  0  0  0  0  0  0  0  0  0  0
    4.5981    0.0737    0.0000 N   0  0  0  0  0  0  0  0  0  0  0  0
    8.9923   -2.4537    0.0000 N   0  0  0  0  0  0  0  0  0  0  0  0
    3.7320   -0.4263    0.0000 C   0  0  3  0  0  0  0  0  0  0  0  0
    5.4641   -1.4263    0.0000 C   0  0  0  0  0  0  0  0  0  0  0  0
    2.8660    0.0737    0.0000 C   0  0  0  0  0  0  0  0  0  0  0  0
    5.4641   -0.4263    0.0000 C   0  0  0  0  0  0  0  0  0  0  0  0
    6.3580   -1.9609    0.0000 C   0  0  0  0  0  0  0  0  0  0  0  0
    2.8660    1.0737    0.0000 C   0  0  0  0  0  0  0  0  0  0  0  0
    6.3580    0.1084    0.0000 C   0  0  0  0  0  0  0  0  0  0  0  0
    7.2641   -1.4471    0.0000 C   0  0  0  0  0  0  0  0  0  0  0  0
    7.2641   -0.4054    0.0000 C   0  0  0  0  0  0  0  0  0  0  0  0
    3.7320    1.5737    0.0000 C   0  0  0  0  0  0  0  0  0  0  0  0
    2.0000    1.5737    0.0000 C   0  0  0  0  0  0  0  0  0  0  0  0
    3.7320    2.5737    0.0000 C   0  0  0  0  0  0  0  0  0  0  0  0
    2.0000    2.5737    0.0000 C   0  0  0  0  0  0  0  0  0  0  0  0
    2.8660    3.0737    0.0000 C   0  0  0  0  0  0  0  0  0  0  0  0
    3.7320    0.1937    0.0000 H   0  0  0  0  0  0  0  0  0  0  0  0
    2.2554    0.1814    0.0000 H   0  0  0  0  0  0  0  0  0  0  0  0
    2.6540   -0.5089    0.0000 H   0  0  0  0  0  0  0  0  0  0  0  0
    3.1951   -1.7363    0.0000 H   0  0  0  0  0  0  0  0  0  0  0  0
    4.5981    0.6937    0.0000 H   0  0  0  0  0  0  0  0  0  0  0  0
    6.3509   -2.5809    0.0000 H   0  0  0  0  0  0  0  0  0  0  0  0
    6.3509    0.7284    0.0000 H   0  0  0  0  0  0  0  0  0  0  0  0
    4.2690    1.2637    0.0000 H   0  0  0  0  0  0  0  0  0  0  0  0
    1.4631    1.2637    0.0000 H   0  0  0  0  0  0  0  0  0  0  0  0
    4.2690    2.8837    0.0000 H   0  0  0  0  0  0  0  0  0  0  0  0
    1.4631    2.8837    0.0000 H   0  0  0  0  0  0  0  0  0  0  0  0
    2.8660    3.6937    0.0000 H   0  0  0  0  0  0  0  0  0  0  0  0
    9.5304   -2.1458    0.0000 H   0  0  0  0  0  0  0  0  0  0  0  0
    8.9899   -3.0737    0.0000 H   0  0  0  0  0  0  0  0  0  0  0  0
  1 19  1  0  0  0  0
  2  4  2  0  0  0  0
  2  5  2  0  0  0  0
  2  8  1  0  0  0  0
  2 12  1  0  0  0  0
  3  6  2  0  0  0  0
  3  7  2  0  0  0  0
  3 10  1  0  0  0  0
  3 18  1  0  0  0  0
  8 11  1  0  0  0  0
  8 28  1  0  0  0  0
  9 11  1  0  0  0  0
  9 14  1  0  0  0  0
  9 29  1  0  0  0  0
 10 37  1  0  0  0  0
 10 38  1  0  0  0  0
 11 13  1  0  0  0  0
 11 25  1  0  0  0  0
 12 14  1  0  0  0  0
 12 15  2  0  0  0  0
 13 16  1  0  0  0  0
 13 26  1  0  0  0  0
 13 27  1  0  0  0  0
 14 17  2  0  0  0  0
 15 18  1  0  0  0  0
 15 30  1  0  0  0  0
 16 20  2  0  0  0  0
 16 21  1  0  0  0  0
 17 19  1  0  0  0  0
 17 31  1  0  0  0  0
 18 19  2  0  0  0  0
 20 22  1  0  0  0  0
 20 32  1  0  0  0  0
 21 23  2  0  0  0  0
 21 33  1  0  0  0  0
 22 24  2  0  0  0  0
 22 34  1  0  0  0  0
 23 24  1  0  0  0  0
 23 35  1  0  0  0  0
 24 36  1  0  0  0  0
M  END
> <PUBCHEM_COMPOUND_CID>
2348

> <PUBCHEM_COMPOUND_CANONICALIZED>
1

> <PUBCHEM_CACTVS_COMPLEXITY>
653

> <PUBCHEM_CACTVS_HBOND_ACCEPTOR>
7

> <PUBCHEM_CACTVS_HBOND_DONOR>
3

> <PUBCHEM_CACTVS_ROTATABLE_BOND>
3

> <PUBCHEM_CACTVS_SUBSKEYS>
AAADccBzOABkAAAAAAAAAAAAAAAAAAAAAAA8YIAAAAAAAACxQAAAHAYQQAAADArBWCQxwYLAAAKAAiRCQHDCABAhBwAIiJwIZoiIICLBk5GEIAhgkALIyCcQgIAOAAYAAEIAAYAADAAAhAADAAAAAAAAAA==

> <PUBCHEM_IUPAC_OPENEYE_NAME>
3-benzyl-6-chloro-1,1-dioxo-3,4-dihydro-2H-1$l^{6},2,4-benzothiadiazine-7-sulfonamide

> <PUBCHEM_IUPAC_CAS_NAME>
6-chloro-1,1-dioxo-3-(phenylmethyl)-3,4-dihydro-2H-1$l^{6},2,4-benzothiadiazine-7-sulfonamide

> <PUBCHEM_IUPAC_NAME>
3-benzyl-6-chloro-1,1-dioxo-3,4-dihydro-2H-1$l^{6},2,4-benzothiadiazine-7-sulfonamide

> <PUBCHEM_IUPAC_SYSTEMATIC_NAME>
6-chloranyl-1,1-bis(oxidanylidene)-3-(phenylmethyl)-3,4-dihydro-2H-1$l^{6},2,4-benzothiadiazine-7-sulfonamide

> <PUBCHEM_IUPAC_TRADITIONAL_NAME>
3-benzyl-6-chloro-1,1-diketo-3,4-dihydro-2H-1$l^{6},2,4-benzothiadiazine-7-sulfonamide

> <PUBCHEM_IUPAC_INCHI>
InChI=1S/C14H14ClN3O4S2/c15-10-7-11-13(8-12(10)23(16,19)20)24(21,22)18-14(17-11)6-9-4-2-1-3-5-9/h1-5,7-8,14,17-18H,6H2,(H2,16,19,20)

> <PUBCHEM_IUPAC_INCHIKEY>
BWSSMIJUDVUASQ-UHFFFAOYSA-N

> <PUBCHEM_XLOGP3>
0.9

> <PUBCHEM_EXACT_MASS>
387.011426

> <PUBCHEM_MOLECULAR_FORMULA>
C14H14ClN3O4S2

> <PUBCHEM_MOLECULAR_WEIGHT>
387.86166

> <PUBCHEM_OPENEYE_CAN_SMILES>
C1=CC=C(C=C1)CC2NC3=CC(=C(C=C3S(=O)(=O)N2)S(=O)(=O)N)Cl

> <PUBCHEM_OPENEYE_ISO_SMILES>
C1=CC=C(C=C1)CC2NC3=CC(=C(C=C3S(=O)(=O)N2)S(=O)(=O)N)Cl

> <PUBCHEM_CACTVS_TPSA>
135

> <PUBCHEM_MONOISOTOPIC_WEIGHT>
387.011426

> <PUBCHEM_TOTAL_CHARGE>
0

> <PUBCHEM_HEAVY_ATOM_COUNT>
24

> <PUBCHEM_ATOM_DEF_STEREO_COUNT>
0

> <PUBCHEM_ATOM_UDEF_STEREO_COUNT>
1

> <PUBCHEM_BOND_DEF_STEREO_COUNT>
0

> <PUBCHEM_BOND_UDEF_STEREO_COUNT>
0

> <PUBCHEM_ISOTOPIC_ATOM_COUNT>
0

> <PUBCHEM_COMPONENT_COUNT>
1

> <PUBCHEM_CACTVS_TAUTO_COUNT>
1

> <PUBCHEM_COORDINATE_TYPE>
1
5
255

> <PUBCHEM_BONDANNOTATIONS>
11  13  3
12  14  8
12  15  8
14  17  8
15  18  8
16  20  8
16  21  8
17  19  8
18  19  8
20  22  8
21  23  8
22  24  8
23  24  8

$$$$

