586274
  -OEChem-06241222463D

 56 58  0     1  0  0  0  0  0999 V2000
    0.2990    2.0373    0.2163 O   0  0  0  0  0  0  0  0  0  0  0  0
   -1.9864    1.4730    0.4773 O   0  0  0  0  0  0  0  0  0  0  0  0
   -4.4104    1.9018   -0.8536 O   0  0  0  0  0  0  0  0  0  0  0  0
    3.1633    0.0054    0.6381 N   0  0  0  0  0  0  0  0  0  0  0  0
    2.1446    0.3721   -0.3580 C   0  0  1  0  0  0  0  0  0  0  0  0
    1.5190   -0.9140   -0.9627 C   0  0  1  0  0  0  0  0  0  0  0  0
    0.7809    0.6805    0.2979 C   0  0  2  0  0  0  0  0  0  0  0  0
    0.1184   -0.3521   -0.6283 C   0  0  2  0  0  0  0  0  0  0  0  0
    2.6261    1.1825   -1.5684 C   0  0  0  0  0  0  0  0  0  0  0  0
    1.8817   -0.9164   -2.3922 C   0  0  0  0  0  0  0  0  0  0  0  0
    2.4793    0.2339   -2.7197 C   0  0  0  0  0  0  0  0  0  0  0  0
   -0.9050   -1.3354   -0.0253 C   0  0  0  0  0  0  0  0  0  0  0  0
    4.1906   -0.8299    0.0001 C   0  0  0  0  0  0  0  0  0  0  0  0
    3.7837    1.2123    1.2026 C   0  0  0  0  0  0  0  0  0  0  0  0
   -0.9917   -1.4979    1.3574 C   0  0  0  0  0  0  0  0  0  0  0  0
   -1.7457   -2.0637   -0.8672 C   0  0  0  0  0  0  0  0  0  0  0  0
   -0.9116    2.3005    0.9198 C   0  0  0  0  0  0  0  0  0  0  0  0
    5.2659   -1.2331    0.9948 C   0  0  0  0  0  0  0  0  0  0  0  0
    2.7505    2.0929    1.8846 C   0  0  0  0  0  0  0  0  0  0  0  0
   -1.9193   -2.3885    1.8981 C   0  0  0  0  0  0  0  0  0  0  0  0
   -2.6733   -2.9541   -0.3264 C   0  0  0  0  0  0  0  0  0  0  0  0
   -2.7600   -3.1165    1.0561 C   0  0  0  0  0  0  0  0  0  0  0  0
   -3.1869    1.7229    1.1963 C   0  0  0  0  0  0  0  0  0  0  0  0
   -4.3634    1.2102    0.3884 C   0  0  0  0  0  0  0  0  0  0  0  0
   -5.1494    1.1762   -1.8260 C   0  0  0  0  0  0  0  0  0  0  0  0
    1.7104   -1.8693   -0.4603 H   0  0  0  0  0  0  0  0  0  0  0  0
    0.7948    0.3803    1.3471 H   0  0  0  0  0  0  0  0  0  0  0  0
   -0.3282    0.1708   -1.4916 H   0  0  0  0  0  0  0  0  0  0  0  0
    3.6633    1.5208   -1.5091 H   0  0  0  0  0  0  0  0  0  0  0  0
    2.0026    2.0659   -1.7415 H   0  0  0  0  0  0  0  0  0  0  0  0
    1.6812   -1.7285   -3.0751 H   0  0  0  0  0  0  0  0  0  0  0  0
    2.8240    0.4657   -3.7178 H   0  0  0  0  0  0  0  0  0  0  0  0
    3.7767   -1.7710   -0.3722 H   0  0  0  0  0  0  0  0  0  0  0  0
    4.6853   -0.3363   -0.8441 H   0  0  0  0  0  0  0  0  0  0  0  0
    4.4787    0.9285    2.0005 H   0  0  0  0  0  0  0  0  0  0  0  0
    4.3610    1.7975    0.4788 H   0  0  0  0  0  0  0  0  0  0  0  0
   -0.3596   -0.9768    2.0636 H   0  0  0  0  0  0  0  0  0  0  0  0
   -1.6855   -1.9442   -1.9455 H   0  0  0  0  0  0  0  0  0  0  0  0
   -1.1644    3.3512    0.7443 H   0  0  0  0  0  0  0  0  0  0  0  0
   -0.7396    2.1523    1.9922 H   0  0  0  0  0  0  0  0  0  0  0  0
    5.8803   -2.0331    0.5658 H   0  0  0  0  0  0  0  0  0  0  0  0
    4.8347   -1.6193    1.9249 H   0  0  0  0  0  0  0  0  0  0  0  0
    5.9494   -0.4117    1.2310 H   0  0  0  0  0  0  0  0  0  0  0  0
    3.2811    2.7860    2.5511 H   0  0  0  0  0  0  0  0  0  0  0  0
    2.0638    1.5427    2.5322 H   0  0  0  0  0  0  0  0  0  0  0  0
    2.2304    2.7398    1.1797 H   0  0  0  0  0  0  0  0  0  0  0  0
   -1.9856   -2.5181    2.9745 H   0  0  0  0  0  0  0  0  0  0  0  0
   -3.3281   -3.5207   -0.9819 H   0  0  0  0  0  0  0  0  0  0  0  0
   -3.4818   -3.8102    1.4771 H   0  0  0  0  0  0  0  0  0  0  0  0
   -3.1351    1.2207    2.1677 H   0  0  0  0  0  0  0  0  0  0  0  0
   -3.3069    2.8013    1.3556 H   0  0  0  0  0  0  0  0  0  0  0  0
   -4.2323    0.1357    0.2126 H   0  0  0  0  0  0  0  0  0  0  0  0
   -5.3032    1.3726    0.9261 H   0  0  0  0  0  0  0  0  0  0  0  0
   -4.6492    0.2314   -2.0606 H   0  0  0  0  0  0  0  0  0  0  0  0
   -6.1677    0.9877   -1.4725 H   0  0  0  0  0  0  0  0  0  0  0  0
   -5.2007    1.7769   -2.7380 H   0  0  0  0  0  0  0  0  0  0  0  0
  1  7  1  0  0  0  0
  1 17  1  0  0  0  0
  2 17  1  0  0  0  0
  2 23  1  0  0  0  0
  3 24  1  0  0  0  0
  3 25  1  0  0  0  0
  4  5  1  0  0  0  0
  4 13  1  0  0  0  0
  4 14  1  0  0  0  0
  5  6  1  0  0  0  0
  5  7  1  0  0  0  0
  5  9  1  0  0  0  0
  6  8  1  0  0  0  0
  6 10  1  0  0  0  0
  6 26  1  0  0  0  0
  7  8  1  0  0  0  0
  7 27  1  0  0  0  0
  8 12  1  0  0  0  0
  8 28  1  0  0  0  0
  9 11  1  0  0  0  0
  9 29  1  0  0  0  0
  9 30  1  0  0  0  0
 10 11  2  0  0  0  0
 10 31  1  0  0  0  0
 11 32  1  0  0  0  0
 12 15  2  0  0  0  0
 12 16  1  0  0  0  0
 13 18  1  0  0  0  0
 13 33  1  0  0  0  0
 13 34  1  0  0  0  0
 14 19  1  0  0  0  0
 14 35  1  0  0  0  0
 14 36  1  0  0  0  0
 15 20  1  0  0  0  0
 15 37  1  0  0  0  0
 16 21  2  0  0  0  0
 16 38  1  0  0  0  0
 17 39  1  0  0  0  0
 17 40  1  0  0  0  0
 18 41  1  0  0  0  0
 18 42  1  0  0  0  0
 18 43  1  0  0  0  0
 19 44  1  0  0  0  0
 19 45  1  0  0  0  0
 19 46  1  0  0  0  0
 20 22  2  0  0  0  0
 20 47  1  0  0  0  0
 21 22  1  0  0  0  0
 21 48  1  0  0  0  0
 22 49  1  0  0  0  0
 23 24  1  0  0  0  0
 23 50  1  0  0  0  0
 23 51  1  0  0  0  0
 24 52  1  0  0  0  0
 24 53  1  0  0  0  0
 25 54  1  0  0  0  0
 25 55  1  0  0  0  0
 25 56  1  0  0  0  0
M  END
> <PUBCHEM_COMPOUND_CID>
586274

> <PUBCHEM_CONFORMER_RMSD>
1

> <PUBCHEM_CONFORMER_DIVERSEORDER>
4
70
184
180
90
35
61
52
88
38
24
194
105
158
79
76
91
26
191
99
151
138
100
33
155
192
160
14
66
179
36
25
78
64
132
92
57
193
72
124
8
80
186
168
41
1
73
67
176
188
34
15
135
69
81
109
182
51
84
173
171
10
147
77
185
178
53
39
5
165
122
170
32
19
195
143
130
87
40
60
172
56
63
181
13
119
45
46
30
187
174
43
136
139
153
83
47
6
95
175
7
108
93
62
96
149
141
22
44
133
101
23
85
189
126
49
145
190
3
118
177
116
183
31
137
54
86
82
164
12
134
127
156
55
48
115
112
142
103
18
97
28
107
167
11
162
98
42
114
150
9
163
113
102
120
148
16
104
129
121
37
117
110
58
27
50
59
2
68
75
65
29
161
125
131
21
71
74
20
140
94
106
17
111
146
128
157
123
144
89
169
166
154
152
159

> <PUBCHEM_MMFF94_PARTIAL_CHARGES>
30
1 -0.54
10 -0.27
11 -0.29
12 -0.11
13 0.27
14 0.27
15 -0.15
16 -0.15
17 0.56
2 -0.56
20 -0.15
21 -0.15
22 -0.15
23 0.28
24 0.28
25 0.28
3 -0.56
31 0.15
32 0.15
37 0.15
38 0.15
4 -0.75
47 0.15
48 0.15
49 0.15
5 0.21
6 0.12
7 0.26
8 0.11
9 0.14

> <PUBCHEM_EFFECTIVE_ROTOR_COUNT>
10.6

> <PUBCHEM_PHARMACOPHORE_FEATURES>
7
1 1 acceptor
1 2 acceptor
1 3 acceptor
1 4 cation
4 5 6 7 8 rings
6 12 15 16 20 21 22 rings
7 5 6 7 8 9 10 11 rings

> <PUBCHEM_HEAVY_ATOM_COUNT>
25

> <PUBCHEM_ATOM_DEF_STEREO_COUNT>
0

> <PUBCHEM_ATOM_UDEF_STEREO_COUNT>
4

> <PUBCHEM_BOND_DEF_STEREO_COUNT>
0

> <PUBCHEM_BOND_UDEF_STEREO_COUNT>
0

> <PUBCHEM_ISOTOPIC_ATOM_COUNT>
0

> <PUBCHEM_COMPONENT_COUNT>
1

> <PUBCHEM_CACTVS_TAUTO_COUNT>
1

> <PUBCHEM_CONFORMER_ID>
0008F22200000004

> <PUBCHEM_MMFF94_ENERGY>
75.3215

> <PUBCHEM_FEATURE_SELFOVERLAP>
39.804

> <PUBCHEM_SHAPE_FINGERPRINT>
108634 29 18334014973825392111
10906281 52 18040425620797287392
11421498 54 16981776032507001218
11578080 2 17460291313987181793
12160290 23 18269252618100298931
12293681 25 17823398543681005974
12553582 1 17975956683878025590
12788726 201 18055893425996712475
13140716 1 18333727988152764528
13149001 5 18336827503216303721
13538477 17 18129924737710733516
13583140 156 18187649059635788634
15849732 13 17417528137402913694
16752209 62 18271516486213260779
16945 1 17980444027459739068
17349148 13 18261111906474205825
17357779 13 18118109278817175495
20600515 1 18335974359275870216
20691752 17 18192139615226214369
22182313 1 17968924293431853581
23419403 2 17242468126713683043
23557571 272 18261383391430650578
23559900 14 18262779857645684558
2748010 2 18042385976734962837
3052486 1 18201447934922453425
6786 2 5249578259950680139
7226269 152 18338523035454550817
7615 1 17773865416089971878
81228 2 18266157479714019827
9709674 26 17821722862179622773

> <PUBCHEM_SHAPE_MULTIPOLES>
491.9
8.78
3.21
2.16
0.89
1.02
-0.94
-1.71
-0.06
3.44
1.17
-0.76
-0.04
1.22

> <PUBCHEM_SHAPE_SELFOVERLAP>
1020.938

> <PUBCHEM_SHAPE_VOLUME>
283.1

> <PUBCHEM_COORDINATE_TYPE>
2
5
10

$$$$

