241352
  -OEChem-07051213062D

 60 62  0     1  0  0  0  0  0999 V2000
   10.2229    3.6181    0.0000 Cl  0  0  0  0  0  0  0  0  0  0  0  0
    4.4641    2.2500    0.0000 O   0  0  0  0  0  0  0  0  0  0  0  0
    5.4641   -1.7500    0.0000 O   0  0  0  0  0  0  0  0  0  0  0  0
    3.7320   -3.7500    0.0000 N   0  0  0  0  0  0  0  0  0  0  0  0
    5.4641    2.2500    0.0000 C   0  0  3  0  0  0  0  0  0  0  0  0
    6.4641    2.2500    0.0000 C   0  0  0  0  0  0  0  0  0  0  0  0
    5.4641    1.2500    0.0000 C   0  0  0  0  0  0  0  0  0  0  0  0
    5.4641    3.2500    0.0000 C   0  0  0  0  0  0  0  0  0  0  0  0
    7.4038    2.5920    0.0000 C   0  0  0  0  0  0  0  0  0  0  0  0
    4.5981    0.7500    0.0000 C   0  0  0  0  0  0  0  0  0  0  0  0
    6.3301    0.7500    0.0000 C   0  0  0  0  0  0  0  0  0  0  0  0
    6.3301    3.7500    0.0000 C   0  0  0  0  0  0  0  0  0  0  0  0
    4.5981    3.7500    0.0000 C   0  0  0  0  0  0  0  0  0  0  0  0
    4.5981   -3.2500    0.0000 C   0  0  0  0  0  0  0  0  0  0  0  0
    5.4641   -0.7500    0.0000 C   0  0  0  0  0  0  0  0  0  0  0  0
    4.5981   -0.2500    0.0000 C   0  0  0  0  0  0  0  0  0  0  0  0
    6.3301   -0.2500    0.0000 C   0  0  0  0  0  0  0  0  0  0  0  0
    4.5981   -2.2500    0.0000 C   0  0  0  0  0  0  0  0  0  0  0  0
    8.1698    1.9492    0.0000 C   0  0  0  0  0  0  0  0  0  0  0  0
    7.5774    3.5768    0.0000 C   0  0  0  0  0  0  0  0  0  0  0  0
    3.7320   -4.7500    0.0000 C   0  0  0  0  0  0  0  0  0  0  0  0
    2.8660   -3.2500    0.0000 C   0  0  0  0  0  0  0  0  0  0  0  0
    6.3301    4.7500    0.0000 C   0  0  0  0  0  0  0  0  0  0  0  0
    4.5981    4.7500    0.0000 C   0  0  0  0  0  0  0  0  0  0  0  0
    5.4641    5.2500    0.0000 C   0  0  0  0  0  0  0  0  0  0  0  0
    9.1095    2.2912    0.0000 C   0  0  0  0  0  0  0  0  0  0  0  0
    8.5171    3.9188    0.0000 C   0  0  0  0  0  0  0  0  0  0  0  0
    2.0000   -3.7500    0.0000 C   0  0  0  0  0  0  0  0  0  0  0  0
    2.8660   -5.2500    0.0000 C   0  0  0  0  0  0  0  0  0  0  0  0
    9.2832    3.2761    0.0000 C   0  0  0  0  0  0  0  0  0  0  0  0
    6.2185    1.6807    0.0000 H   0  0  0  0  0  0  0  0  0  0  0  0
    6.3564    2.8606    0.0000 H   0  0  0  0  0  0  0  0  0  0  0  0
    4.0611    1.0600    0.0000 H   0  0  0  0  0  0  0  0  0  0  0  0
    6.8671    1.0600    0.0000 H   0  0  0  0  0  0  0  0  0  0  0  0
    4.1541    1.7131    0.0000 H   0  0  0  0  0  0  0  0  0  0  0  0
    6.8671    3.4400    0.0000 H   0  0  0  0  0  0  0  0  0  0  0  0
    4.0611    3.4400    0.0000 H   0  0  0  0  0  0  0  0  0  0  0  0
    4.8101   -3.8326    0.0000 H   0  0  0  0  0  0  0  0  0  0  0  0
    5.2087   -3.1423    0.0000 H   0  0  0  0  0  0  0  0  0  0  0  0
    4.0611   -0.5600    0.0000 H   0  0  0  0  0  0  0  0  0  0  0  0
    6.8671   -0.5600    0.0000 H   0  0  0  0  0  0  0  0  0  0  0  0
    4.3860   -1.6674    0.0000 H   0  0  0  0  0  0  0  0  0  0  0  0
    3.9875   -2.3577    0.0000 H   0  0  0  0  0  0  0  0  0  0  0  0
    8.0622    1.3386    0.0000 H   0  0  0  0  0  0  0  0  0  0  0  0
    7.1025    3.9754    0.0000 H   0  0  0  0  0  0  0  0  0  0  0  0
    3.9441   -5.3326    0.0000 H   0  0  0  0  0  0  0  0  0  0  0  0
    4.3426   -4.6423    0.0000 H   0  0  0  0  0  0  0  0  0  0  0  0
    3.2646   -2.7750    0.0000 H   0  0  0  0  0  0  0  0  0  0  0  0
    2.4675   -2.7750    0.0000 H   0  0  0  0  0  0  0  0  0  0  0  0
    6.8671    5.0600    0.0000 H   0  0  0  0  0  0  0  0  0  0  0  0
    4.0611    5.0600    0.0000 H   0  0  0  0  0  0  0  0  0  0  0  0
    5.4641    5.8700    0.0000 H   0  0  0  0  0  0  0  0  0  0  0  0
    9.5845    1.8927    0.0000 H   0  0  0  0  0  0  0  0  0  0  0  0
    8.6248    4.5294    0.0000 H   0  0  0  0  0  0  0  0  0  0  0  0
    1.6900   -3.2131    0.0000 H   0  0  0  0  0  0  0  0  0  0  0  0
    1.4631   -4.0600    0.0000 H   0  0  0  0  0  0  0  0  0  0  0  0
    2.3100   -4.2869    0.0000 H   0  0  0  0  0  0  0  0  0  0  0  0
    2.5560   -4.7131    0.0000 H   0  0  0  0  0  0  0  0  0  0  0  0
    2.3291   -5.5600    0.0000 H   0  0  0  0  0  0  0  0  0  0  0  0
    3.1760   -5.7869    0.0000 H   0  0  0  0  0  0  0  0  0  0  0  0
  1 30  1  0  0  0  0
  2  5  1  0  0  0  0
  2 35  1  0  0  0  0
  3 15  1  0  0  0  0
  3 18  1  0  0  0  0
  4 14  1  0  0  0  0
  4 21  1  0  0  0  0
  4 22  1  0  0  0  0
  5  6  1  0  0  0  0
  5  7  1  0  0  0  0
  5  8  1  0  0  0  0
  6  9  1  0  0  0  0
  6 31  1  0  0  0  0
  6 32  1  0  0  0  0
  7 10  2  0  0  0  0
  7 11  1  0  0  0  0
  8 12  2  0  0  0  0
  8 13  1  0  0  0  0
  9 19  2  0  0  0  0
  9 20  1  0  0  0  0
 10 16  1  0  0  0  0
 10 33  1  0  0  0  0
 11 17  2  0  0  0  0
 11 34  1  0  0  0  0
 12 23  1  0  0  0  0
 12 36  1  0  0  0  0
 13 24  2  0  0  0  0
 13 37  1  0  0  0  0
 14 18  1  0  0  0  0
 14 38  1  0  0  0  0
 14 39  1  0  0  0  0
 15 16  2  0  0  0  0
 15 17  1  0  0  0  0
 16 40  1  0  0  0  0
 17 41  1  0  0  0  0
 18 42  1  0  0  0  0
 18 43  1  0  0  0  0
 19 26  1  0  0  0  0
 19 44  1  0  0  0  0
 20 27  2  0  0  0  0
 20 45  1  0  0  0  0
 21 29  1  0  0  0  0
 21 46  1  0  0  0  0
 21 47  1  0  0  0  0
 22 28  1  0  0  0  0
 22 48  1  0  0  0  0
 22 49  1  0  0  0  0
 23 25  2  0  0  0  0
 23 50  1  0  0  0  0
 24 25  1  0  0  0  0
 24 51  1  0  0  0  0
 25 52  1  0  0  0  0
 26 30  2  0  0  0  0
 26 53  1  0  0  0  0
 27 30  1  0  0  0  0
 27 54  1  0  0  0  0
 28 55  1  0  0  0  0
 28 56  1  0  0  0  0
 28 57  1  0  0  0  0
 29 58  1  0  0  0  0
 29 59  1  0  0  0  0
 29 60  1  0  0  0  0
M  END
> <PUBCHEM_COMPOUND_CID>
241352

> <PUBCHEM_COMPOUND_CANONICALIZED>
1

> <PUBCHEM_CACTVS_COMPLEXITY>
464

> <PUBCHEM_CACTVS_HBOND_ACCEPTOR>
3

> <PUBCHEM_CACTVS_HBOND_DONOR>
1

> <PUBCHEM_CACTVS_ROTATABLE_BOND>
10

> <PUBCHEM_CACTVS_SUBSKEYS>
AAADceB6MAAEAAAAAAAAAAAAAAAAAAAAAAAwYMAAAAAAAAABUAAAHgIACAAADEbhmCYyBoMABgCAAiBCAAACCAAgJQAIiAAOCogOJiKFMxqDeCCkwBGYuAeA4PwOpAAAAAAAAABIAAAAAAAAAAAAAAAAAA==

> <PUBCHEM_IUPAC_OPENEYE_NAME>
2-(4-chlorophenyl)-1-[4-[2-(diethylamino)ethoxy]phenyl]-1-phenyl-ethanol

> <PUBCHEM_IUPAC_CAS_NAME>
2-(4-chlorophenyl)-1-[4-[2-(diethylamino)ethoxy]phenyl]-1-phenylethanol

> <PUBCHEM_IUPAC_NAME>
2-(4-chlorophenyl)-1-[4-[2-(diethylamino)ethoxy]phenyl]-1-phenylethanol

> <PUBCHEM_IUPAC_SYSTEMATIC_NAME>
2-(4-chlorophenyl)-1-[4-[2-(diethylamino)ethoxy]phenyl]-1-phenyl-ethanol

> <PUBCHEM_IUPAC_TRADITIONAL_NAME>
2-(4-chlorophenyl)-1-[4-[2-(diethylamino)ethoxy]phenyl]-1-phenyl-ethanol

> <PUBCHEM_IUPAC_INCHI>
InChI=1S/C26H30ClNO2/c1-3-28(4-2)18-19-30-25-16-12-23(13-17-25)26(29,22-8-6-5-7-9-22)20-21-10-14-24(27)15-11-21/h5-17,29H,3-4,18-20H2,1-2H3

> <PUBCHEM_IUPAC_INCHIKEY>
JGLROVOJKXIJKB-UHFFFAOYSA-N

> <PUBCHEM_XLOGP3_AA>
5.9

> <PUBCHEM_EXACT_MASS>
423.196507

> <PUBCHEM_MOLECULAR_FORMULA>
C26H30ClNO2

> <PUBCHEM_MOLECULAR_WEIGHT>
423.9749

> <PUBCHEM_OPENEYE_CAN_SMILES>
CCN(CC)CCOC1=CC=C(C=C1)C(CC2=CC=C(C=C2)Cl)(C3=CC=CC=C3)O

> <PUBCHEM_OPENEYE_ISO_SMILES>
CCN(CC)CCOC1=CC=C(C=C1)C(CC2=CC=C(C=C2)Cl)(C3=CC=CC=C3)O

> <PUBCHEM_CACTVS_TPSA>
32.7

> <PUBCHEM_MONOISOTOPIC_WEIGHT>
423.196507

> <PUBCHEM_TOTAL_CHARGE>
0

> <PUBCHEM_HEAVY_ATOM_COUNT>
30

> <PUBCHEM_ATOM_DEF_STEREO_COUNT>
0

> <PUBCHEM_ATOM_UDEF_STEREO_COUNT>
1

> <PUBCHEM_BOND_DEF_STEREO_COUNT>
0

> <PUBCHEM_BOND_UDEF_STEREO_COUNT>
0

> <PUBCHEM_ISOTOPIC_ATOM_COUNT>
0

> <PUBCHEM_COMPONENT_COUNT>
1

> <PUBCHEM_CACTVS_TAUTO_COUNT>
1

> <PUBCHEM_COORDINATE_TYPE>
1
5
255

> <PUBCHEM_BONDANNOTATIONS>
10  16  8
11  17  8
12  23  8
13  24  8
15  16  8
15  17  8
19  26  8
5  2  3
20  27  8
23  25  8
24  25  8
26  30  8
27  30  8
7  10  8
7  11  8
8  12  8
8  13  8
9  19  8
9  20  8

$$$$

