5282240
  -OEChem-07051213043D

 31 32  0     0  0  0  0  0  0999 V2000
   -5.9908   -0.0006   -0.4967 O   0  0  0  0  0  0  0  0  0  0  0  0
    6.0323   -0.0004    0.0431 O   0  0  0  0  0  0  0  0  0  0  0  0
   -0.4722   -0.0001    0.4835 C   0  0  0  0  0  0  0  0  0  0  0  0
   -1.9276   -0.0005    0.2255 C   0  0  0  0  0  0  0  0  0  0  0  0
    0.4545   -0.0006   -0.5085 C   0  0  0  0  0  0  0  0  0  0  0  0
    1.9018   -0.0004   -0.3649 C   0  0  0  0  0  0  0  0  0  0  0  0
   -2.5911   -1.2084    0.1088 C   0  0  0  0  0  0  0  0  0  0  0  0
   -2.5907    1.2075    0.1065 C   0  0  0  0  0  0  0  0  0  0  0  0
   -0.0741    0.0074    1.9348 C   0  0  0  0  0  0  0  0  0  0  0  0
    2.5960    1.2076   -0.2984 C   0  0  0  0  0  0  0  0  0  0  0  0
    2.5956   -1.2084   -0.2942 C   0  0  0  0  0  0  0  0  0  0  0  0
   -3.9645   -1.2084   -0.1353 C   0  0  0  0  0  0  0  0  0  0  0  0
   -3.9642    1.2075   -0.1374 C   0  0  0  0  0  0  0  0  0  0  0  0
   -4.6510   -0.0003   -0.2583 C   0  0  0  0  0  0  0  0  0  0  0  0
    3.9842    1.2074   -0.1612 C   0  0  0  0  0  0  0  0  0  0  0  0
    3.9837   -1.2085   -0.1569 C   0  0  0  0  0  0  0  0  0  0  0  0
    4.6781   -0.0007   -0.0904 C   0  0  0  0  0  0  0  0  0  0  0  0
    0.1153   -0.0035   -1.5435 H   0  0  0  0  0  0  0  0  0  0  0  0
   -2.0668   -2.1556    0.2031 H   0  0  0  0  0  0  0  0  0  0  0  0
   -2.0663    2.1548    0.1990 H   0  0  0  0  0  0  0  0  0  0  0  0
   -0.4728   -0.8780    2.4425 H   0  0  0  0  0  0  0  0  0  0  0  0
   -0.4758    0.8961    2.4345 H   0  0  0  0  0  0  0  0  0  0  0  0
    1.0071    0.0099    2.0978 H   0  0  0  0  0  0  0  0  0  0  0  0
    2.0693    2.1574   -0.3522 H   0  0  0  0  0  0  0  0  0  0  0  0
    2.0685   -2.1583   -0.3447 H   0  0  0  0  0  0  0  0  0  0  0  0
   -4.4880   -2.1562   -0.2274 H   0  0  0  0  0  0  0  0  0  0  0  0
   -4.4934    2.1518   -0.2324 H   0  0  0  0  0  0  0  0  0  0  0  0
    4.5134    2.1552   -0.1106 H   0  0  0  0  0  0  0  0  0  0  0  0
    4.5186   -2.1528   -0.1024 H   0  0  0  0  0  0  0  0  0  0  0  0
   -6.3010   -0.9209   -0.5510 H   0  0  0  0  0  0  0  0  0  0  0  0
    6.3459    0.9199    0.0725 H   0  0  0  0  0  0  0  0  0  0  0  0
  1 14  1  0  0  0  0
  1 30  1  0  0  0  0
  2 17  1  0  0  0  0
  2 31  1  0  0  0  0
  3  4  1  0  0  0  0
  3  5  2  0  0  0  0
  3  9  1  0  0  0  0
  4  7  2  0  0  0  0
  4  8  1  0  0  0  0
  5  6  1  0  0  0  0
  5 18  1  0  0  0  0
  6 10  2  0  0  0  0
  6 11  1  0  0  0  0
  7 12  1  0  0  0  0
  7 19  1  0  0  0  0
  8 13  2  0  0  0  0
  8 20  1  0  0  0  0
  9 21  1  0  0  0  0
  9 22  1  0  0  0  0
  9 23  1  0  0  0  0
 10 15  1  0  0  0  0
 10 24  1  0  0  0  0
 11 16  2  0  0  0  0
 11 25  1  0  0  0  0
 12 14  2  0  0  0  0
 12 26  1  0  0  0  0
 13 14  1  0  0  0  0
 13 27  1  0  0  0  0
 15 17  2  0  0  0  0
 15 28  1  0  0  0  0
 16 17  1  0  0  0  0
 16 29  1  0  0  0  0
M  END
> <PUBCHEM_COMPOUND_CID>
5282240

> <PUBCHEM_CONFORMER_RMSD>
0.6

> <PUBCHEM_CONFORMER_DIVERSEORDER>
1
2

> <PUBCHEM_MMFF94_PARTIAL_CHARGES>
28
1 -0.53
10 -0.15
11 -0.15
12 -0.15
13 -0.15
14 0.08
15 -0.15
16 -0.15
17 0.08
18 0.15
19 0.15
2 -0.53
20 0.15
24 0.15
25 0.15
26 0.15
27 0.15
28 0.15
29 0.15
3 -0.17
30 0.45
31 0.45
4 0.03
5 -0.18
6 0.03
7 -0.15
8 -0.15
9 0.14

> <PUBCHEM_EFFECTIVE_ROTOR_COUNT>
2

> <PUBCHEM_PHARMACOPHORE_FEATURES>
5
1 1 donor
1 2 donor
1 9 hydrophobe
6 4 7 8 12 13 14 rings
6 6 10 11 15 16 17 rings

> <PUBCHEM_HEAVY_ATOM_COUNT>
17

> <PUBCHEM_ATOM_DEF_STEREO_COUNT>
0

> <PUBCHEM_ATOM_UDEF_STEREO_COUNT>
0

> <PUBCHEM_BOND_DEF_STEREO_COUNT>
1

> <PUBCHEM_BOND_UDEF_STEREO_COUNT>
0

> <PUBCHEM_ISOTOPIC_ATOM_COUNT>
0

> <PUBCHEM_COMPONENT_COUNT>
1

> <PUBCHEM_CACTVS_TAUTO_COUNT>
4

> <PUBCHEM_CONFORMER_ID>
005099C000000001

> <PUBCHEM_MMFF94_ENERGY>
55.4758

> <PUBCHEM_FEATURE_SELFOVERLAP>
25.371

> <PUBCHEM_SHAPE_FINGERPRINT>
11287383 113 18341891866241523379
11315181 36 18260263036352948120
11370993 70 18410855460160466534
11401426 45 17846498131833898038
12107183 9 17689998263957948818
12236239 1 17749388183043306902
128620 24 16298382470196775052
12916748 109 18060133254491561937
13167823 11 18410294713546113718
13533116 47 17168422770519952406
14123238 8 18408040718993200925
15788980 27 18410291397783609018
17834072 33 18410292489032272092
18186145 218 17203612553544351277
18222031 100 14996286920013784481
19489759 90 18408041818467996465
200 152 18040152928780075336
20279233 1 18130777967397759826
20645477 56 18272651251380546957
20645477 70 18335699507201903710
21267235 1 18410283714102979799
23402539 116 18343024371908287711
23402655 69 18412543227867754812
23536379 177 18411138060613124971
23557571 272 18260544558490299069
23559900 14 18336551520969651184
26918003 58 18333731308172910018
29717793 49 17894623773441616540
300161 21 18411987961410339910
34797466 226 17822000978803339396
351380 180 18343584031832545924
3545911 37 18411698785551992829
4214541 1 18410855481840615573
42788 4 18411136935115474052
474 4 17560514002172087156
5104073 3 18410571794718131091
542803 24 17418371389601187196
633830 44 17203326684842470591
69090 78 18343582936462904627
7495541 125 17677054538429931995
77779 3 18410853265426253917
9709674 26 18410283714140474758
9971528 1 17775283859547391436

> <PUBCHEM_SHAPE_MULTIPOLES>
338.11
12.35
1.32
0.91
0.46
0
-0.43
0.01
2.01
0.01
0.09
-0.08
0
0

> <PUBCHEM_SHAPE_SELFOVERLAP>
727.99

> <PUBCHEM_SHAPE_VOLUME>
187.1

> <PUBCHEM_COORDINATE_TYPE>
2
5
10

$$$$

