13809
  -OEChem-06241222402D

 67 71  0     1  0  0  0  0  0999 V2000
   11.4077    0.0003    0.0000 P   0  0  0  0  0  0  0  0  0  0  0  0
    5.9499    1.6551    0.0000 F   0  0  0  0  0  0  0  0  0  0  0  0
    9.0594   -1.0583    0.0000 O   0  0  0  0  0  0  0  0  0  0  0  0
    8.4073   -2.5194    0.0000 O   0  0  0  0  0  0  0  0  0  0  0  0
    6.4739    2.2154    0.0000 O   0  0  0  0  0  0  0  0  0  0  0  0
    8.8428    0.7646    0.0000 O   0  0  0  0  0  0  0  0  0  0  0  0
   10.4376    0.2431    0.0000 O   0  0  0  0  0  0  0  0  0  0  0  0
    2.0000    2.8598    0.0000 O   0  0  0  0  0  0  0  0  0  0  0  0
   12.3778   -0.2424    0.0000 O   0  0  0  0  0  0  0  0  0  0  0  0
   11.6504    0.9704    0.0000 O   0  0  0  0  0  0  0  0  0  0  0  0
   11.1649   -0.9698    0.0000 O   0  0  0  0  0  0  0  0  0  0  0  0
    7.3399   -0.2845    0.0000 C   0  0  1  0  0  0  0  0  0  0  0  0
    6.4739   -0.7845    0.0000 C   0  0  2  0  0  0  0  0  0  0  0  0
    5.6079   -0.2845    0.0000 C   0  0  1  0  0  0  0  0  0  0  0  0
    8.0770   -0.9516    0.0000 C   0  0  1  0  0  0  0  0  0  0  0  0
    5.6079    0.7155    0.0000 C   0  0  1  0  0  0  0  0  0  0  0  0
    7.6718   -1.8594    0.0000 C   0  0  1  0  0  0  0  0  0  0  0  0
    6.6831   -1.7564    0.0000 C   0  0  0  0  0  0  0  0  0  0  0  0
    7.3399    0.7155    0.0000 C   0  0  0  0  0  0  0  0  0  0  0  0
    6.4739    1.2154    0.0000 C   0  0  2  0  0  0  0  0  0  0  0  0
    4.7140    1.2501    0.0000 C   0  0  1  0  0  0  0  0  0  0  0  0
    4.7140   -0.8192    0.0000 C   0  0  0  0  0  0  0  0  0  0  0  0
    7.9827    0.4815    0.0000 C   0  0  0  0  0  0  0  0  0  0  0  0
    8.7722   -0.2329    0.0000 C   0  0  0  0  0  0  0  0  0  0  0  0
    3.8079   -0.3054    0.0000 C   0  0  0  0  0  0  0  0  0  0  0  0
    9.2632   -2.0253    0.0000 C   0  0  0  0  0  0  0  0  0  0  0  0
    3.8079    0.7363    0.0000 C   0  0  0  0  0  0  0  0  0  0  0  0
    5.3626    2.0112    0.0000 C   0  0  0  0  0  0  0  0  0  0  0  0
    4.7390    2.3348    0.0000 C   0  0  0  0  0  0  0  0  0  0  0  0
    9.7423   -0.4757    0.0000 C   0  0  0  0  0  0  0  0  0  0  0  0
    9.7624   -2.8917    0.0000 C   0  0  0  0  0  0  0  0  0  0  0  0
   10.2415   -1.8182    0.0000 C   0  0  0  0  0  0  0  0  0  0  0  0
    2.8641    1.2715    0.0000 C   0  0  0  0  0  0  0  0  0  0  0  0
    3.8079    2.8917    0.0000 C   0  0  0  0  0  0  0  0  0  0  0  0
    2.8641    2.3565    0.0000 C   0  0  0  0  0  0  0  0  0  0  0  0
    5.7869   -1.2851    0.0000 H   0  0  0  0  0  0  0  0  0  0  0  0
    5.6144   -1.1345    0.0000 H   0  0  0  0  0  0  0  0  0  0  0  0
    7.3271   -2.6364    0.0000 H   0  0  0  0  0  0  0  0  0  0  0  0
    6.0666   -1.8224    0.0000 H   0  0  0  0  0  0  0  0  0  0  0  0
    6.6840   -2.3764    0.0000 H   0  0  0  0  0  0  0  0  0  0  0  0
    7.9505    0.6078    0.0000 H   0  0  0  0  0  0  0  0  0  0  0  0
    7.5520    1.2981    0.0000 H   0  0  0  0  0  0  0  0  0  0  0  0
    7.0108    1.5254    0.0000 H   0  0  0  0  0  0  0  0  0  0  0  0
    4.3203   -1.2982    0.0000 H   0  0  0  0  0  0  0  0  0  0  0  0
    5.1185   -1.2890    0.0000 H   0  0  0  0  0  0  0  0  0  0  0  0
    8.4577    0.0830    0.0000 H   0  0  0  0  0  0  0  0  0  0  0  0
    8.3812    0.9564    0.0000 H   0  0  0  0  0  0  0  0  0  0  0  0
    7.5078    0.8800    0.0000 H   0  0  0  0  0  0  0  0  0  0  0  0
    3.1970   -0.1993    0.0000 H   0  0  0  0  0  0  0  0  0  0  0  0
    3.5988   -0.8891    0.0000 H   0  0  0  0  0  0  0  0  0  0  0  0
    5.8345    1.6090    0.0000 H   0  0  0  0  0  0  0  0  0  0  0  0
    5.7648    2.4830    0.0000 H   0  0  0  0  0  0  0  0  0  0  0  0
    4.8908    2.4134    0.0000 H   0  0  0  0  0  0  0  0  0  0  0  0
    5.2819    2.6344    0.0000 H   0  0  0  0  0  0  0  0  0  0  0  0
    7.0108    2.5255    0.0000 H   0  0  0  0  0  0  0  0  0  0  0  0
    9.4896   -1.0418    0.0000 H   0  0  0  0  0  0  0  0  0  0  0  0
   10.2560   -0.8228    0.0000 H   0  0  0  0  0  0  0  0  0  0  0  0
    9.2252   -3.2013    0.0000 H   0  0  0  0  0  0  0  0  0  0  0  0
   10.0719   -3.4289    0.0000 H   0  0  0  0  0  0  0  0  0  0  0  0
   10.2996   -2.5822    0.0000 H   0  0  0  0  0  0  0  0  0  0  0  0
   10.3699   -2.4248    0.0000 H   0  0  0  0  0  0  0  0  0  0  0  0
   10.8480   -1.6898    0.0000 H   0  0  0  0  0  0  0  0  0  0  0  0
   10.1131   -1.2116    0.0000 H   0  0  0  0  0  0  0  0  0  0  0  0
    2.3284    0.9594    0.0000 H   0  0  0  0  0  0  0  0  0  0  0  0
    3.8150    3.5117    0.0000 H   0  0  0  0  0  0  0  0  0  0  0  0
   12.8088    0.2032    0.0000 H   0  0  0  0  0  0  0  0  0  0  0  0
   12.2466    1.1408    0.0000 H   0  0  0  0  0  0  0  0  0  0  0  0
  1  7  1  0  0  0  0
  1  9  1  0  0  0  0
  1 10  1  0  0  0  0
  1 11  2  0  0  0  0
 16  2  1  6  0  0  0
  3 15  1  0  0  0  0
  3 26  1  0  0  0  0
  4 17  1  0  0  0  0
  4 26  1  0  0  0  0
 20  5  1  1  0  0  0
  5 55  1  0  0  0  0
  6 24  2  0  0  0  0
  7 30  1  0  0  0  0
  8 35  2  0  0  0  0
  9 66  1  0  0  0  0
 10 67  1  0  0  0  0
 12 13  1  0  0  0  0
 12 15  1  0  0  0  0
 12 19  1  0  0  0  0
 12 23  1  1  0  0  0
 13 14  1  0  0  0  0
 13 18  1  0  0  0  0
 13 36  1  6  0  0  0
 14 16  1  0  0  0  0
 14 22  1  0  0  0  0
 14 37  1  1  0  0  0
 15 17  1  0  0  0  0
 15 24  1  1  0  0  0
 16 20  1  0  0  0  0
 16 21  1  0  0  0  0
 17 18  1  0  0  0  0
 17 38  1  1  0  0  0
 18 39  1  0  0  0  0
 18 40  1  0  0  0  0
 19 20  1  0  0  0  0
 19 41  1  0  0  0  0
 19 42  1  0  0  0  0
 20 43  1  0  0  0  0
 21 27  1  0  0  0  0
 21 28  1  1  0  0  0
 21 29  1  0  0  0  0
 22 25  1  0  0  0  0
 22 44  1  0  0  0  0
 22 45  1  0  0  0  0
 23 46  1  0  0  0  0
 23 47  1  0  0  0  0
 23 48  1  0  0  0  0
 24 30  1  0  0  0  0
 25 27  1  0  0  0  0
 25 49  1  0  0  0  0
 25 50  1  0  0  0  0
 26 31  1  0  0  0  0
 26 32  1  0  0  0  0
 27 33  2  0  0  0  0
 28 51  1  0  0  0  0
 28 52  1  0  0  0  0
 28 53  1  0  0  0  0
 29 34  2  0  0  0  0
 29 54  1  0  0  0  0
 30 56  1  0  0  0  0
 30 57  1  0  0  0  0
 31 58  1  0  0  0  0
 31 59  1  0  0  0  0
 31 60  1  0  0  0  0
 32 61  1  0  0  0  0
 32 62  1  0  0  0  0
 32 63  1  0  0  0  0
 33 35  1  0  0  0  0
 33 64  1  0  0  0  0
 34 35  1  0  0  0  0
 34 65  1  0  0  0  0
M  END
> <PUBCHEM_COMPOUND_CID>
13809

> <PUBCHEM_COMPOUND_CANONICALIZED>
1

> <PUBCHEM_CACTVS_COMPLEXITY>
1100

> <PUBCHEM_CACTVS_HBOND_ACCEPTOR>
10

> <PUBCHEM_CACTVS_HBOND_DONOR>
3

> <PUBCHEM_CACTVS_ROTATABLE_BOND>
4

> <PUBCHEM_CACTVS_SUBSKEYS>
AAADcfB4PQIAAAAAAAAAAAAAAAAAAaIAAAAwYIAAAAASAGDAAAAAGwAACCAAD1SggAICCAAABxCIQqBSAIIAAAAgAAAICAFAAEgREBYAAQQiQAAFoAAOAYPI7PzPgAAAAAAAAADAAAYAADAAAYAADCAAAA==

> <PUBCHEM_IUPAC_INCHI>
InChI=1S/C24H32FO9P/c1-20(2)33-19-10-16-15-6-5-13-9-14(26)7-8-21(13,3)23(15,25)17(27)11-22(16,4)24(19,34-20)18(28)12-32-35(29,30)31/h7-9,15-17,19,27H,5-6,10-12H2,1-4H3,(H2,29,30,31)/t15-,16-,17-,19+,21-,22-,23-,24+/m0/s1

> <PUBCHEM_IUPAC_INCHIKEY>
NXLTXRVPGUCAHF-JNQJZLCISA-N

> <PUBCHEM_XLOGP3>
1.4

> <PUBCHEM_EXACT_MASS>
514.176797

> <PUBCHEM_MOLECULAR_FORMULA>
C24H32FO9P

> <PUBCHEM_MOLECULAR_WEIGHT>
514.477645

> <PUBCHEM_OPENEYE_CAN_SMILES>
CC1(OC2CC3C4CCC5=CC(=O)C=CC5(C4(C(CC3(C2(O1)C(=O)COP(=O)(O)O)C)O)F)C)C

> <PUBCHEM_OPENEYE_ISO_SMILES>
C[C@]12C[C@@H]([C@]3([C@H]([C@@H]1C[C@@H]4[C@]2(OC(O4)(C)C)C(=O)COP(=O)(O)O)CCC5=CC(=O)C=C[C@@]53C)F)O

> <PUBCHEM_CACTVS_TPSA>
140

> <PUBCHEM_MONOISOTOPIC_WEIGHT>
514.176797

> <PUBCHEM_TOTAL_CHARGE>
0

> <PUBCHEM_HEAVY_ATOM_COUNT>
35

> <PUBCHEM_ATOM_DEF_STEREO_COUNT>
8

> <PUBCHEM_ATOM_UDEF_STEREO_COUNT>
0

> <PUBCHEM_BOND_DEF_STEREO_COUNT>
0

> <PUBCHEM_BOND_UDEF_STEREO_COUNT>
0

> <PUBCHEM_ISOTOPIC_ATOM_COUNT>
0

> <PUBCHEM_COMPONENT_COUNT>
1

> <PUBCHEM_CACTVS_TAUTO_COUNT>
6

> <PUBCHEM_COORDINATE_TYPE>
1
5
255

> <PUBCHEM_BONDANNOTATIONS>
12  23  5
13  36  6
14  37  5
15  24  5
17  38  5
16  2  6
21  28  5
20  5  5

$$$$

