11682
  -OEChem-06261205593D

 48 49  0     1  0  0  0  0  0999 V2000
    0.1232   -2.3955   -0.4058 O   0  0  0  0  0  0  0  0  0  0  0  0
    1.4046    0.0283   -0.2443 N   0  3  0  0  0  0  0  0  0  0  0  0
   -2.3376    0.9251    0.0470 N   0  3  0  0  0  0  0  0  0  0  0  0
    0.0194   -0.1217    0.3949 C   0  0  1  0  0  0  0  0  0  0  0  0
   -0.8068    1.0578   -0.1329 C   0  0  0  0  0  0  0  0  0  0  0  0
   -2.8122   -0.4274   -0.5506 C   0  0  1  0  0  0  0  0  0  0  0  0
    2.2979   -1.1375    0.2261 C   0  0  0  0  0  0  0  0  0  0  0  0
    1.9728    1.3869    0.1726 C   0  0  0  0  0  0  0  0  0  0  0  0
   -0.5755   -1.4486   -0.0429 C   0  0  0  0  0  0  0  0  0  0  0  0
   -2.0694   -1.6001    0.0907 C   0  0  0  0  0  0  0  0  0  0  0  0
    0.2596   -0.1220    1.9046 C   0  0  0  0  0  0  0  0  0  0  0  0
    1.2148   -0.0279   -1.7627 C   0  0  0  0  0  0  0  0  0  0  0  0
    3.6925   -0.6815    0.6451 C   0  0  0  0  0  0  0  0  0  0  0  0
    3.3807    1.6025   -0.3730 C   0  0  0  0  0  0  0  0  0  0  0  0
    4.2691    0.3648   -0.2919 C   0  0  0  0  0  0  0  0  0  0  0  0
   -2.9527    2.0917   -0.7590 C   0  0  0  0  0  0  0  0  0  0  0  0
   -2.7566    1.1311    1.5010 C   0  0  0  0  0  0  0  0  0  0  0  0
   -4.3237   -0.6258   -0.4189 C   0  0  0  0  0  0  0  0  0  0  0  0
   -0.5556    1.9957    0.3747 H   0  0  0  0  0  0  0  0  0  0  0  0
   -0.7071    1.2195   -1.2058 H   0  0  0  0  0  0  0  0  0  0  0  0
   -2.5511   -0.3829   -1.6164 H   0  0  0  0  0  0  0  0  0  0  0  0
    2.4189   -1.8166   -0.6278 H   0  0  0  0  0  0  0  0  0  0  0  0
    1.8541   -1.7309    1.0300 H   0  0  0  0  0  0  0  0  0  0  0  0
    1.9997    1.4582    1.2634 H   0  0  0  0  0  0  0  0  0  0  0  0
    1.3515    2.1954   -0.2206 H   0  0  0  0  0  0  0  0  0  0  0  0
   -2.3576   -2.5298   -0.4154 H   0  0  0  0  0  0  0  0  0  0  0  0
   -2.3173   -1.7240    1.1493 H   0  0  0  0  0  0  0  0  0  0  0  0
   -0.3987   -0.8420    2.4058 H   0  0  0  0  0  0  0  0  0  0  0  0
    1.2614   -0.3412    2.2790 H   0  0  0  0  0  0  0  0  0  0  0  0
    0.0104    0.8566    2.3342 H   0  0  0  0  0  0  0  0  0  0  0  0
    2.1658   -0.3365   -2.2100 H   0  0  0  0  0  0  0  0  0  0  0  0
    0.4438   -0.7320   -2.0769 H   0  0  0  0  0  0  0  0  0  0  0  0
    1.0064    0.9739   -2.1512 H   0  0  0  0  0  0  0  0  0  0  0  0
    4.3594   -1.5511    0.6808 H   0  0  0  0  0  0  0  0  0  0  0  0
    3.6607   -0.2804    1.6657 H   0  0  0  0  0  0  0  0  0  0  0  0
    3.8469    2.4250    0.1836 H   0  0  0  0  0  0  0  0  0  0  0  0
    3.3363    1.9406   -1.4157 H   0  0  0  0  0  0  0  0  0  0  0  0
    5.2746    0.6522    0.0363 H   0  0  0  0  0  0  0  0  0  0  0  0
    4.3868   -0.0685   -1.2926 H   0  0  0  0  0  0  0  0  0  0  0  0
   -2.4882    3.0241   -0.4227 H   0  0  0  0  0  0  0  0  0  0  0  0
   -2.7567    1.9255   -1.8224 H   0  0  0  0  0  0  0  0  0  0  0  0
   -4.0279    2.1299   -0.5679 H   0  0  0  0  0  0  0  0  0  0  0  0
   -3.8444    1.2313    1.5473 H   0  0  0  0  0  0  0  0  0  0  0  0
   -2.4371    0.2776    2.0980 H   0  0  0  0  0  0  0  0  0  0  0  0
   -2.2901    2.0500    1.8688 H   0  0  0  0  0  0  0  0  0  0  0  0
   -4.8911    0.1665   -0.9137 H   0  0  0  0  0  0  0  0  0  0  0  0
   -4.6183   -1.5671   -0.8973 H   0  0  0  0  0  0  0  0  0  0  0  0
   -4.6439   -0.6847    0.6258 H   0  0  0  0  0  0  0  0  0  0  0  0
  1  9  2  0  0  0  0
  2  4  1  0  0  0  0
  2  7  1  0  0  0  0
  2  8  1  0  0  0  0
  2 12  1  0  0  0  0
  3  5  1  0  0  0  0
  3  6  1  0  0  0  0
  3 16  1  0  0  0  0
  3 17  1  0  0  0  0
  4  5  1  0  0  0  0
  4  9  1  0  0  0  0
  4 11  1  0  0  0  0
  5 19  1  0  0  0  0
  5 20  1  0  0  0  0
  6 10  1  0  0  0  0
  6 18  1  0  0  0  0
  6 21  1  0  0  0  0
  7 13  1  0  0  0  0
  7 22  1  0  0  0  0
  7 23  1  0  0  0  0
  8 14  1  0  0  0  0
  8 24  1  0  0  0  0
  8 25  1  0  0  0  0
  9 10  1  0  0  0  0
 10 26  1  0  0  0  0
 10 27  1  0  0  0  0
 11 28  1  0  0  0  0
 11 29  1  0  0  0  0
 11 30  1  0  0  0  0
 12 31  1  0  0  0  0
 12 32  1  0  0  0  0
 12 33  1  0  0  0  0
 13 15  1  0  0  0  0
 13 34  1  0  0  0  0
 13 35  1  0  0  0  0
 14 15  1  0  0  0  0
 14 36  1  0  0  0  0
 14 37  1  0  0  0  0
 15 38  1  0  0  0  0
 15 39  1  0  0  0  0
 16 40  1  0  0  0  0
 16 41  1  0  0  0  0
 16 42  1  0  0  0  0
 17 43  1  0  0  0  0
 17 44  1  0  0  0  0
 17 45  1  0  0  0  0
 18 46  1  0  0  0  0
 18 47  1  0  0  0  0
 18 48  1  0  0  0  0
M  CHG  2   2   1   3   1
M  END
> <PUBCHEM_COMPOUND_CID>
11682

> <PUBCHEM_CONFORMER_RMSD>
0.6

> <PUBCHEM_CONFORMER_DIVERSEORDER>
1
6
2
9
5
3
4
8
10
7

> <PUBCHEM_MMFF94_PARTIAL_CHARGES>
13
1 -0.57
10 0.06
12 0.5
16 0.5
17 0.5
2 -1.01
3 -1.01
4 0.56
5 0.5
6 0.5
7 0.5
8 0.5
9 0.45

> <PUBCHEM_EFFECTIVE_ROTOR_COUNT>
3.2

> <PUBCHEM_PHARMACOPHORE_FEATURES>
5
1 1 acceptor
1 2 cation
1 3 cation
6 2 7 8 13 14 15 rings
6 3 4 5 6 9 10 rings

> <PUBCHEM_HEAVY_ATOM_COUNT>
18

> <PUBCHEM_ATOM_DEF_STEREO_COUNT>
0

> <PUBCHEM_ATOM_UDEF_STEREO_COUNT>
2

> <PUBCHEM_BOND_DEF_STEREO_COUNT>
0

> <PUBCHEM_BOND_UDEF_STEREO_COUNT>
0

> <PUBCHEM_ISOTOPIC_ATOM_COUNT>
0

> <PUBCHEM_COMPONENT_COUNT>
1

> <PUBCHEM_CACTVS_TAUTO_COUNT>
2

> <PUBCHEM_CONFORMER_ID>
00002DA200000001

> <PUBCHEM_MMFF94_ENERGY>
96.5075

> <PUBCHEM_FEATURE_SELFOVERLAP>
25.371

> <PUBCHEM_SHAPE_FINGERPRINT>
10062212 137 18337403736891408154
10608611 8 18410859824137136164
10863032 1 18410296925543578134
10948715 1 18342741827215623332
10980938 120 18343866636828481360
11132069 177 18339087081004369288
12403814 3 18341888602546601857
12491281 212 18341888584944577088
12592029 89 18341894129526193706
12670546 56 18342185453226488336
13380535 76 18409729547590066694
13581323 91 18412545400989311718
13583140 156 17203890747134587936
14144814 61 18412546500748826896
14614273 12 18411982490233908757
14993402 34 18413672400597666798
15309172 13 18411975888257238522
15442244 35 18341055236972530210
15775835 57 18343299288206368393
16945 1 18193271025422610158
17802600 8 18410581664579597029
18186145 218 18187919642374788092
200 152 17894915104983097343
20510252 161 18333448738021717633
21267235 1 18412538804220485202
21501502 16 18410011014013382704
21524375 3 18410573980935916939
22344851 262 18059293150219343630
23402539 116 18260556580382874575
23463225 33 18341054098658510122
23557571 272 18040991847636233781
23559900 14 18115025324942713326
2748010 2 18409160013208706838
296302 2 18408601461766026664
305870 269 18201158874558887147
474 4 17345188905338137532
5104073 3 18412266142521792232
633830 44 17346031285594408040
69090 78 18411984637147902750
6992083 37 18131631170908566788
7364860 26 18191585465502442646
9709674 26 18409726266171963542
9981440 41 17193474837794955008

> <PUBCHEM_SHAPE_MULTIPOLES>
354.6
6.86
1.95
1.25
1.07
0.05
-0.25
-1.23
0.54
-0.56
0.21
-0.15
-0.13
-0.34

> <PUBCHEM_SHAPE_SELFOVERLAP>
713.98

> <PUBCHEM_SHAPE_VOLUME>
207.6

> <PUBCHEM_COORDINATE_TYPE>
2
5
10

$$$$

