3028956
  -OEChem-07051213092D

 30 31  0     0  0  0  0  0  0999 V2000
    7.1279   -0.5784    0.0000 Br  0  0  0  0  0  0  0  0  0  0  0  0
    2.0000    0.4216    0.0000 Br  0  0  0  0  0  0  0  0  0  0  0  0
    2.0000   -1.5784    0.0000 Br  0  0  0  0  0  0  0  0  0  0  0  0
    5.5443   -1.3831    0.0000 N   0  0  0  0  0  0  0  0  0  0  0  0
    6.8335    1.3831    0.0000 N   0  0  0  0  0  0  0  0  0  0  0  0
    5.5443    0.2264    0.0000 C   0  0  0  0  0  0  0  0  0  0  0  0
    4.5981   -0.0784    0.0000 C   0  0  0  0  0  0  0  0  0  0  0  0
    4.5981   -1.0784    0.0000 C   0  0  0  0  0  0  0  0  0  0  0  0
    5.8550    1.1769    0.0000 C   0  0  0  0  0  0  0  0  0  0  0  0
    6.1279   -0.5784    0.0000 C   0  0  0  0  0  0  0  0  0  0  0  0
    3.7320    0.4216    0.0000 C   0  0  0  0  0  0  0  0  0  0  0  0
    3.7320   -1.5784    0.0000 C   0  0  0  0  0  0  0  0  0  0  0  0
    5.8550   -2.3336    0.0000 C   0  0  0  0  0  0  0  0  0  0  0  0
    2.8660   -0.0784    0.0000 C   0  0  0  0  0  0  0  0  0  0  0  0
    2.8660   -1.0784    0.0000 C   0  0  0  0  0  0  0  0  0  0  0  0
    7.1441    2.3336    0.0000 C   0  0  0  0  0  0  0  0  0  0  0  0
    7.5013    0.6388    0.0000 C   0  0  0  0  0  0  0  0  0  0  0  0
    5.8344    1.7965    0.0000 H   0  0  0  0  0  0  0  0  0  0  0  0
    5.2411    1.2642    0.0000 H   0  0  0  0  0  0  0  0  0  0  0  0
    3.7320    1.0416    0.0000 H   0  0  0  0  0  0  0  0  0  0  0  0
    3.7320   -2.1984    0.0000 H   0  0  0  0  0  0  0  0  0  0  0  0
    5.2656   -2.5262    0.0000 H   0  0  0  0  0  0  0  0  0  0  0  0
    6.0476   -2.9229    0.0000 H   0  0  0  0  0  0  0  0  0  0  0  0
    6.4443   -2.1410    0.0000 H   0  0  0  0  0  0  0  0  0  0  0  0
    7.7334    2.1410    0.0000 H   0  0  0  0  0  0  0  0  0  0  0  0
    7.3367    2.9229    0.0000 H   0  0  0  0  0  0  0  0  0  0  0  0
    6.5548    2.5262    0.0000 H   0  0  0  0  0  0  0  0  0  0  0  0
    7.0398    0.2247    0.0000 H   0  0  0  0  0  0  0  0  0  0  0  0
    7.9154    0.1773    0.0000 H   0  0  0  0  0  0  0  0  0  0  0  0
    7.9628    1.0529    0.0000 H   0  0  0  0  0  0  0  0  0  0  0  0
  1 10  1  0  0  0  0
  2 14  1  0  0  0  0
  3 15  1  0  0  0  0
  4  8  1  0  0  0  0
  4 10  1  0  0  0  0
  4 13  1  0  0  0  0
  5  9  1  0  0  0  0
  5 16  1  0  0  0  0
  5 17  1  0  0  0  0
  6  7  1  0  0  0  0
  6  9  1  0  0  0  0
  6 10  2  0  0  0  0
  7  8  1  0  0  0  0
  7 11  2  0  0  0  0
  8 12  2  0  0  0  0
  9 18  1  0  0  0  0
  9 19  1  0  0  0  0
 11 14  1  0  0  0  0
 11 20  1  0  0  0  0
 12 15  1  0  0  0  0
 12 21  1  0  0  0  0
 13 22  1  0  0  0  0
 13 23  1  0  0  0  0
 13 24  1  0  0  0  0
 14 15  2  0  0  0  0
 16 25  1  0  0  0  0
 16 26  1  0  0  0  0
 16 27  1  0  0  0  0
 17 28  1  0  0  0  0
 17 29  1  0  0  0  0
 17 30  1  0  0  0  0
M  END
> <PUBCHEM_COMPOUND_CID>
3028956

> <PUBCHEM_COMPOUND_CANONICALIZED>
1

> <PUBCHEM_CACTVS_COMPLEXITY>
275

> <PUBCHEM_CACTVS_HBOND_ACCEPTOR>
1

> <PUBCHEM_CACTVS_HBOND_DONOR>
0

> <PUBCHEM_CACTVS_ROTATABLE_BOND>
2

> <PUBCHEM_CACTVS_SUBSKEYS>
AAADccBzAAAAGAAAAAAAAAAAAAAAAWAAAAAwAAAAAAAAAFgB8AAAHABAAAABvAjBHgQywPMMEACgAyRiRACCgCAhAiQA2CA4ZLgIIOLA0JGEIAhggADIyhcQgMAOggAgEAECAAEEAEAgAgQAAgAAAAAAAA==

> <PUBCHEM_IUPAC_OPENEYE_NAME>
N,N-dimethyl-1-(2,5,6-tribromo-1-methyl-indol-3-yl)methanamine

> <PUBCHEM_IUPAC_CAS_NAME>
N,N-dimethyl-1-(2,5,6-tribromo-1-methyl-3-indolyl)methanamine

> <PUBCHEM_IUPAC_NAME>
N,N-dimethyl-1-(2,5,6-tribromo-1-methylindol-3-yl)methanamine

> <PUBCHEM_IUPAC_SYSTEMATIC_NAME>
N,N-dimethyl-1-[2,5,6-tris(bromanyl)-1-methyl-indol-3-yl]methanamine

> <PUBCHEM_IUPAC_TRADITIONAL_NAME>
dimethyl-[(2,5,6-tribromo-1-methyl-indol-3-yl)methyl]amine

> <PUBCHEM_IUPAC_INCHI>
InChI=1S/C12H13Br3N2/c1-16(2)6-8-7-4-9(13)10(14)5-11(7)17(3)12(8)15/h4-5H,6H2,1-3H3

> <PUBCHEM_IUPAC_INCHIKEY>
GVVFGMXXWWCHIS-UHFFFAOYSA-N

> <PUBCHEM_XLOGP3_AA>
4.2

> <PUBCHEM_EXACT_MASS>
423.860838

> <PUBCHEM_MOLECULAR_FORMULA>
C12H13Br3N2

> <PUBCHEM_MOLECULAR_WEIGHT>
424.95702

> <PUBCHEM_OPENEYE_CAN_SMILES>
CN1C2=CC(=C(C=C2C(=C1Br)CN(C)C)Br)Br

> <PUBCHEM_OPENEYE_ISO_SMILES>
CN1C2=CC(=C(C=C2C(=C1Br)CN(C)C)Br)Br

> <PUBCHEM_CACTVS_TPSA>
8.2

> <PUBCHEM_MONOISOTOPIC_WEIGHT>
421.862885

> <PUBCHEM_TOTAL_CHARGE>
0

> <PUBCHEM_HEAVY_ATOM_COUNT>
17

> <PUBCHEM_ATOM_DEF_STEREO_COUNT>
0

> <PUBCHEM_ATOM_UDEF_STEREO_COUNT>
0

> <PUBCHEM_BOND_DEF_STEREO_COUNT>
0

> <PUBCHEM_BOND_UDEF_STEREO_COUNT>
0

> <PUBCHEM_ISOTOPIC_ATOM_COUNT>
0

> <PUBCHEM_COMPONENT_COUNT>
1

> <PUBCHEM_CACTVS_TAUTO_COUNT>
1

> <PUBCHEM_COORDINATE_TYPE>
1
5
255

> <PUBCHEM_BONDANNOTATIONS>
11  14  8
12  15  8
14  15  8
4  10  8
4  8  8
6  10  8
6  7  8
7  11  8
7  8  8
8  12  8

$$$$

