238386
  -OEChem-07051213073D

 60 63  0     1  0  0  0  0  0999 V2000
    3.8098    0.6024    0.1430 O   0  0  0  0  0  0  0  0  0  0  0  0
    5.2780   -0.6617   -1.1103 O   0  0  0  0  0  0  0  0  0  0  0  0
   -1.6014    0.3996   -0.2865 C   0  0  1  0  0  0  0  0  0  0  0  0
   -0.9214   -0.8805    0.3009 C   0  0  2  0  0  0  0  0  0  0  0  0
    0.5221   -0.9424   -0.2096 C   0  0  1  0  0  0  0  0  0  0  0  0
   -3.1112    0.5130    0.1452 C   0  0  2  0  0  0  0  0  0  0  0  0
    1.3540    0.2858    0.2093 C   0  0  2  0  0  0  0  0  0  0  0  0
   -3.8243   -0.8037   -0.3023 C   0  0  1  0  0  0  0  0  0  0  0  0
   -0.7608    1.6776   -0.0239 C   0  0  0  0  0  0  0  0  0  0  0  0
    0.7187    1.5302   -0.4247 C   0  0  0  0  0  0  0  0  0  0  0  0
   -1.7033   -2.1486   -0.0702 C   0  0  0  0  0  0  0  0  0  0  0  0
    2.7157   -0.1195   -0.3886 C   0  0  2  0  0  0  0  0  0  0  0  0
    1.4031   -2.1230    0.1905 C   0  0  0  0  0  0  0  0  0  0  0  0
   -3.1801   -2.0542    0.3065 C   0  0  0  0  0  0  0  0  0  0  0  0
   -3.8037    1.6962   -0.5889 C   0  0  0  0  0  0  0  0  0  0  0  0
    2.8362   -1.6203   -0.0613 C   0  0  0  0  0  0  0  0  0  0  0  0
   -5.3392   -0.7780   -0.0558 C   0  0  0  0  0  0  0  0  0  0  0  0
   -3.2297    0.7489    1.6730 C   0  0  0  0  0  0  0  0  0  0  0  0
    1.4784    0.4918    1.7405 C   0  0  0  0  0  0  0  0  0  0  0  0
   -5.3225    1.7343   -0.3965 C   0  0  0  0  0  0  0  0  0  0  0  0
   -5.9878    0.4119   -0.7580 C   0  0  0  0  0  0  0  0  0  0  0  0
    5.0543    0.2301   -0.3035 C   0  0  0  0  0  0  0  0  0  0  0  0
    6.1053    1.0927    0.3550 C   0  0  0  0  0  0  0  0  0  0  0  0
    7.5099    0.7175   -0.0840 C   0  0  0  0  0  0  0  0  0  0  0  0
   -1.6019    0.2743   -1.3812 H   0  0  0  0  0  0  0  0  0  0  0  0
   -0.9051   -0.8204    1.3940 H   0  0  0  0  0  0  0  0  0  0  0  0
    0.4669   -0.9658   -1.3111 H   0  0  0  0  0  0  0  0  0  0  0  0
   -3.6965   -0.8898   -1.3930 H   0  0  0  0  0  0  0  0  0  0  0  0
   -0.8171    1.9624    1.0310 H   0  0  0  0  0  0  0  0  0  0  0  0
   -1.1745    2.5182   -0.5919 H   0  0  0  0  0  0  0  0  0  0  0  0
    0.7773    1.4663   -1.5191 H   0  0  0  0  0  0  0  0  0  0  0  0
    1.2702    2.4341   -0.1392 H   0  0  0  0  0  0  0  0  0  0  0  0
   -1.2664   -3.0206    0.4303 H   0  0  0  0  0  0  0  0  0  0  0  0
   -1.6212   -2.3317   -1.1494 H   0  0  0  0  0  0  0  0  0  0  0  0
    2.6969    0.0203   -1.4787 H   0  0  0  0  0  0  0  0  0  0  0  0
    1.1842   -3.0174   -0.4016 H   0  0  0  0  0  0  0  0  0  0  0  0
    1.2696   -2.3834    1.2463 H   0  0  0  0  0  0  0  0  0  0  0  0
   -3.6929   -2.9523   -0.0593 H   0  0  0  0  0  0  0  0  0  0  0  0
   -3.2902   -2.0582    1.3969 H   0  0  0  0  0  0  0  0  0  0  0  0
   -3.5925    1.6310   -1.6645 H   0  0  0  0  0  0  0  0  0  0  0  0
   -3.3938    2.6545   -0.2490 H   0  0  0  0  0  0  0  0  0  0  0  0
    3.4667   -1.8153    0.8137 H   0  0  0  0  0  0  0  0  0  0  0  0
    3.2728   -2.1661   -0.9052 H   0  0  0  0  0  0  0  0  0  0  0  0
   -5.5617   -0.7485    1.0166 H   0  0  0  0  0  0  0  0  0  0  0  0
   -5.7926   -1.7009   -0.4380 H   0  0  0  0  0  0  0  0  0  0  0  0
   -2.8165    1.7224    1.9571 H   0  0  0  0  0  0  0  0  0  0  0  0
   -4.2679    0.7441    2.0166 H   0  0  0  0  0  0  0  0  0  0  0  0
   -2.7062   -0.0097    2.2597 H   0  0  0  0  0  0  0  0  0  0  0  0
    2.0750    1.3848    1.9608 H   0  0  0  0  0  0  0  0  0  0  0  0
    0.5106    0.6285    2.2299 H   0  0  0  0  0  0  0  0  0  0  0  0
    1.9689   -0.3514    2.2370 H   0  0  0  0  0  0  0  0  0  0  0  0
   -5.7448    2.5335   -1.0173 H   0  0  0  0  0  0  0  0  0  0  0  0
   -5.5628    1.9941    0.6407 H   0  0  0  0  0  0  0  0  0  0  0  0
   -7.0535    0.4531   -0.5060 H   0  0  0  0  0  0  0  0  0  0  0  0
   -5.9266    0.2652   -1.8438 H   0  0  0  0  0  0  0  0  0  0  0  0
    5.9090    2.1376    0.0927 H   0  0  0  0  0  0  0  0  0  0  0  0
    6.0205    0.9729    1.4402 H   0  0  0  0  0  0  0  0  0  0  0  0
    7.6274    0.8326   -1.1667 H   0  0  0  0  0  0  0  0  0  0  0  0
    8.2475    1.3573    0.4102 H   0  0  0  0  0  0  0  0  0  0  0  0
    7.7357   -0.3239    0.1684 H   0  0  0  0  0  0  0  0  0  0  0  0
  1 12  1  0  0  0  0
  1 22  1  0  0  0  0
  2 22  2  0  0  0  0
  3  4  1  0  0  0  0
  3  6  1  0  0  0  0
  3  9  1  0  0  0  0
  3 25  1  0  0  0  0
  4  5  1  0  0  0  0
  4 11  1  0  0  0  0
  4 26  1  0  0  0  0
  5  7  1  0  0  0  0
  5 13  1  0  0  0  0
  5 27  1  0  0  0  0
  6  8  1  0  0  0  0
  6 15  1  0  0  0  0
  6 18  1  0  0  0  0
  7 10  1  0  0  0  0
  7 12  1  0  0  0  0
  7 19  1  0  0  0  0
  8 14  1  0  0  0  0
  8 17  1  0  0  0  0
  8 28  1  0  0  0  0
  9 10  1  0  0  0  0
  9 29  1  0  0  0  0
  9 30  1  0  0  0  0
 10 31  1  0  0  0  0
 10 32  1  0  0  0  0
 11 14  1  0  0  0  0
 11 33  1  0  0  0  0
 11 34  1  0  0  0  0
 12 16  1  0  0  0  0
 12 35  1  0  0  0  0
 13 16  1  0  0  0  0
 13 36  1  0  0  0  0
 13 37  1  0  0  0  0
 14 38  1  0  0  0  0
 14 39  1  0  0  0  0
 15 20  1  0  0  0  0
 15 40  1  0  0  0  0
 15 41  1  0  0  0  0
 16 42  1  0  0  0  0
 16 43  1  0  0  0  0
 17 21  1  0  0  0  0
 17 44  1  0  0  0  0
 17 45  1  0  0  0  0
 18 46  1  0  0  0  0
 18 47  1  0  0  0  0
 18 48  1  0  0  0  0
 19 49  1  0  0  0  0
 19 50  1  0  0  0  0
 19 51  1  0  0  0  0
 20 21  1  0  0  0  0
 20 52  1  0  0  0  0
 20 53  1  0  0  0  0
 21 54  1  0  0  0  0
 21 55  1  0  0  0  0
 22 23  1  0  0  0  0
 23 24  1  0  0  0  0
 23 56  1  0  0  0  0
 23 57  1  0  0  0  0
 24 58  1  0  0  0  0
 24 59  1  0  0  0  0
 24 60  1  0  0  0  0
M  END
> <PUBCHEM_COMPOUND_CID>
238386

> <PUBCHEM_CONFORMER_RMSD>
0.8

> <PUBCHEM_CONFORMER_DIVERSEORDER>
1
2

> <PUBCHEM_MMFF94_PARTIAL_CHARGES>
5
1 -0.43
12 0.28
2 -0.57
22 0.66
23 0.06

> <PUBCHEM_EFFECTIVE_ROTOR_COUNT>
5.2

> <PUBCHEM_PHARMACOPHORE_FEATURES>
6
1 2 acceptor
1 24 hydrophobe
5 5 7 12 13 16 rings
6 3 4 5 7 9 10 rings
6 3 4 6 8 11 14 rings
6 6 8 15 17 20 21 rings

> <PUBCHEM_HEAVY_ATOM_COUNT>
24

> <PUBCHEM_ATOM_DEF_STEREO_COUNT>
7

> <PUBCHEM_ATOM_UDEF_STEREO_COUNT>
0

> <PUBCHEM_BOND_DEF_STEREO_COUNT>
0

> <PUBCHEM_BOND_UDEF_STEREO_COUNT>
0

> <PUBCHEM_ISOTOPIC_ATOM_COUNT>
0

> <PUBCHEM_COMPONENT_COUNT>
1

> <PUBCHEM_CACTVS_TAUTO_COUNT>
1

> <PUBCHEM_CONFORMER_ID>
0003A33200000001

> <PUBCHEM_MMFF94_ENERGY>
71.9949

> <PUBCHEM_FEATURE_SELFOVERLAP>
30.537

> <PUBCHEM_SHAPE_FINGERPRINT>
10 15 18202281373416114400
10366900 7 17531252776800151003
10411042 1 17836363744921779787
10906281 52 18271791441360504998
10968037 39 18334858307802162741
11045977 3 18187650159189647064
11315181 36 17967248676360755264
11578080 2 16987178216654685687
11719270 70 18186805812165447686
12011746 2 18334297573972757837
12236239 1 17632863018673432698
12403259 415 18260839193853226081
12516196 113 18113901550364304104
12788726 201 17822855419607703545
12838862 33 18340505408096835933
13631057 29 18263647277805052879
14790565 3 17760642964417802241
15048467 5 18342740719462337636
15183329 4 18334570287712310078
15196674 1 18339924913122895527
15788980 27 18060696199886193806
1601671 61 18341897402375344132
17980427 23 17703784774419124350
18608769 82 18340483366783907739
18681886 176 18337679611246602144
200 152 16443063906824148211
20681677 155 18272653450124149939
21033648 29 18041010509221493809
21150785 3 14923948925405815936
21236236 1 18409448050964251342
21267235 1 18339637846504953807
21279426 13 18337105782547228166
21421861 104 17630902688299683906
21521721 280 17968094188481771392
23402539 116 18131635560818745660
23559900 14 18260838055228073705
300161 21 18343023310750782470
3004659 81 18270679891762896294
335352 9 18411984632900493141
34797466 226 17530677685143190116
34934 24 18342179989643180291
350125 39 18408882919758034123
3545911 37 18409448081392824355
4073 2 18060414674024510554
4325135 7 18273215292345377948
5104073 3 18271240633411784979
542803 24 17060336327379523108

> <PUBCHEM_SHAPE_MULTIPOLES>
482.17
14.71
2.05
0.99
14.88
0.6
-0.35
-4.51
2.34
-1.19
0.07
-0.15
-0.17
0.46

> <PUBCHEM_SHAPE_SELFOVERLAP>
1011.804

> <PUBCHEM_SHAPE_VOLUME>
269.2

> <PUBCHEM_COORDINATE_TYPE>
2
5
10

$$$$

