13075
  -OEChem-06261207432D

 36 36  0     0  0  0  0  0  0999 V2000
    4.5000    0.2500    0.0000 Si  0  0  0  0  0  0  0  0  0  0  0  0
    4.5000    1.2500    0.0000 O   0  0  0  0  0  0  0  0  0  0  0  0
    5.5000    0.2500    0.0000 O   0  0  0  0  0  0  0  0  0  0  0  0
    3.5000    0.2500    0.0000 O   0  0  0  0  0  0  0  0  0  0  0  0
    4.5000   -0.7500    0.0000 C   0  0  0  0  0  0  0  0  0  0  0  0
    3.6340   -1.2500    0.0000 C   0  0  0  0  0  0  0  0  0  0  0  0
    5.3660   -1.2500    0.0000 C   0  0  0  0  0  0  0  0  0  0  0  0
    5.3660    1.7500    0.0000 C   0  0  0  0  0  0  0  0  0  0  0  0
    6.0000    1.1160    0.0000 C   0  0  0  0  0  0  0  0  0  0  0  0
    3.0000    1.1160    0.0000 C   0  0  0  0  0  0  0  0  0  0  0  0
    3.6340   -2.2500    0.0000 C   0  0  0  0  0  0  0  0  0  0  0  0
    5.3660   -2.2500    0.0000 C   0  0  0  0  0  0  0  0  0  0  0  0
    4.5000   -2.7500    0.0000 C   0  0  0  0  0  0  0  0  0  0  0  0
    2.0000    1.1160    0.0000 C   0  0  0  0  0  0  0  0  0  0  0  0
    7.0000    1.1160    0.0000 C   0  0  0  0  0  0  0  0  0  0  0  0
    5.3660    2.7500    0.0000 C   0  0  0  0  0  0  0  0  0  0  0  0
    3.0970   -0.9400    0.0000 H   0  0  0  0  0  0  0  0  0  0  0  0
    5.9030   -0.9400    0.0000 H   0  0  0  0  0  0  0  0  0  0  0  0
    5.5781    1.1674    0.0000 H   0  0  0  0  0  0  0  0  0  0  0  0
    5.9766    1.8577    0.0000 H   0  0  0  0  0  0  0  0  0  0  0  0
    6.1077    1.7266    0.0000 H   0  0  0  0  0  0  0  0  0  0  0  0
    5.4174    1.3281    0.0000 H   0  0  0  0  0  0  0  0  0  0  0  0
    3.5826    1.3281    0.0000 H   0  0  0  0  0  0  0  0  0  0  0  0
    2.8923    1.7266    0.0000 H   0  0  0  0  0  0  0  0  0  0  0  0
    3.0970   -2.5600    0.0000 H   0  0  0  0  0  0  0  0  0  0  0  0
    5.9030   -2.5600    0.0000 H   0  0  0  0  0  0  0  0  0  0  0  0
    4.5000   -3.3700    0.0000 H   0  0  0  0  0  0  0  0  0  0  0  0
    2.0000    1.7360    0.0000 H   0  0  0  0  0  0  0  0  0  0  0  0
    1.3800    1.1160    0.0000 H   0  0  0  0  0  0  0  0  0  0  0  0
    2.0000    0.4960    0.0000 H   0  0  0  0  0  0  0  0  0  0  0  0
    7.0000    0.4960    0.0000 H   0  0  0  0  0  0  0  0  0  0  0  0
    7.6200    1.1160    0.0000 H   0  0  0  0  0  0  0  0  0  0  0  0
    7.0000    1.7360    0.0000 H   0  0  0  0  0  0  0  0  0  0  0  0
    5.9860    2.7500    0.0000 H   0  0  0  0  0  0  0  0  0  0  0  0
    5.3660    3.3700    0.0000 H   0  0  0  0  0  0  0  0  0  0  0  0
    4.7460    2.7500    0.0000 H   0  0  0  0  0  0  0  0  0  0  0  0
  1  2  1  0  0  0  0
  1  3  1  0  0  0  0
  1  4  1  0  0  0  0
  1  5  1  0  0  0  0
  2  8  1  0  0  0  0
  3  9  1  0  0  0  0
  4 10  1  0  0  0  0
  5  6  2  0  0  0  0
  5  7  1  0  0  0  0
  6 11  1  0  0  0  0
  6 17  1  0  0  0  0
  7 12  2  0  0  0  0
  7 18  1  0  0  0  0
  8 16  1  0  0  0  0
  8 19  1  0  0  0  0
  8 20  1  0  0  0  0
  9 15  1  0  0  0  0
  9 21  1  0  0  0  0
  9 22  1  0  0  0  0
 10 14  1  0  0  0  0
 10 23  1  0  0  0  0
 10 24  1  0  0  0  0
 11 13  2  0  0  0  0
 11 25  1  0  0  0  0
 12 13  1  0  0  0  0
 12 26  1  0  0  0  0
 13 27  1  0  0  0  0
 14 28  1  0  0  0  0
 14 29  1  0  0  0  0
 14 30  1  0  0  0  0
 15 31  1  0  0  0  0
 15 32  1  0  0  0  0
 15 33  1  0  0  0  0
 16 34  1  0  0  0  0
 16 35  1  0  0  0  0
 16 36  1  0  0  0  0
M  END
> <PUBCHEM_COMPOUND_CID>
13075

> <PUBCHEM_COMPOUND_CANONICALIZED>
1

> <PUBCHEM_CACTVS_COMPLEXITY>
164

> <PUBCHEM_CACTVS_HBOND_ACCEPTOR>
3

> <PUBCHEM_CACTVS_HBOND_DONOR>
0

> <PUBCHEM_CACTVS_ROTATABLE_BOND>
7

> <PUBCHEM_CACTVS_SUBSKEYS>
AAADceBwMAgAAAAAAAAAAAAAAAAAAAAAAAAwAAAAAAAAAAABAAAAGhAAAEAACACgsAIyAIAAAACAACBCAAACAAAgAAAIiAAAAIgIICKAERCAIAAggAAIiAcAAAAAAAAAAAAAAAAAAAAAAAAAAAAAAAAAAA==

> <PUBCHEM_IUPAC_OPENEYE_NAME>
triethoxy(phenyl)silane

> <PUBCHEM_IUPAC_CAS_NAME>
triethoxy(phenyl)silane

> <PUBCHEM_IUPAC_NAME>
triethoxy(phenyl)silane

> <PUBCHEM_IUPAC_SYSTEMATIC_NAME>
triethoxy(phenyl)silane

> <PUBCHEM_IUPAC_TRADITIONAL_NAME>
triethoxy(phenyl)silane

> <PUBCHEM_IUPAC_INCHI>
InChI=1S/C12H20O3Si/c1-4-13-16(14-5-2,15-6-3)12-10-8-7-9-11-12/h7-11H,4-6H2,1-3H3

> <PUBCHEM_IUPAC_INCHIKEY>
JCVQKRGIASEUKR-UHFFFAOYSA-N

> <PUBCHEM_EXACT_MASS>
240.118171

> <PUBCHEM_MOLECULAR_FORMULA>
C12H20O3Si

> <PUBCHEM_MOLECULAR_WEIGHT>
240.3709

> <PUBCHEM_OPENEYE_CAN_SMILES>
CCO[Si](C1=CC=CC=C1)(OCC)OCC

> <PUBCHEM_OPENEYE_ISO_SMILES>
CCO[Si](C1=CC=CC=C1)(OCC)OCC

> <PUBCHEM_CACTVS_TPSA>
27.7

> <PUBCHEM_MONOISOTOPIC_WEIGHT>
240.118171

> <PUBCHEM_TOTAL_CHARGE>
0

> <PUBCHEM_HEAVY_ATOM_COUNT>
16

> <PUBCHEM_ATOM_DEF_STEREO_COUNT>
0

> <PUBCHEM_ATOM_UDEF_STEREO_COUNT>
0

> <PUBCHEM_BOND_DEF_STEREO_COUNT>
0

> <PUBCHEM_BOND_UDEF_STEREO_COUNT>
0

> <PUBCHEM_ISOTOPIC_ATOM_COUNT>
0

> <PUBCHEM_COMPONENT_COUNT>
1

> <PUBCHEM_CACTVS_TAUTO_COUNT>
1

> <PUBCHEM_COORDINATE_TYPE>
1
5
255

> <PUBCHEM_BONDANNOTATIONS>
11  13  8
12  13  8
5  6  8
5  7  8
6  11  8
7  12  8

$$$$

