5281097
  -OEChem-07051212543D

 28 28  0     0  0  0  0  0  0999 V2000
   -1.0460    2.0617   -0.5984 O   0  0  0  0  0  0  0  0  0  0  0  0
    4.0095    1.4103   -0.3290 O   0  0  0  0  0  0  0  0  0  0  0  0
    6.0842   -0.0654    0.0469 O   0  0  0  0  0  0  0  0  0  0  0  0
    4.7681   -1.8982    0.3997 O   0  0  0  0  0  0  0  0  0  0  0  0
   -2.5994    0.6377    2.1600 N   0  0  0  0  0  0  0  0  0  0  0  0
   -2.4795    0.1356   -0.2311 C   0  0  0  0  0  0  0  0  0  0  0  0
   -3.1635    0.1140    0.9744 C   0  0  0  0  0  0  0  0  0  0  0  0
   -3.0455   -0.3795   -1.3877 C   0  0  0  0  0  0  0  0  0  0  0  0
   -1.1240    0.7091   -0.3242 C   0  0  0  0  0  0  0  0  0  0  0  0
   -4.4442   -0.4361    1.0253 C   0  0  0  0  0  0  0  0  0  0  0  0
   -4.3264   -0.9296   -1.3367 C   0  0  0  0  0  0  0  0  0  0  0  0
   -5.0258   -0.9579   -0.1304 C   0  0  0  0  0  0  0  0  0  0  0  0
   -0.0256   -0.0424   -0.1321 C   0  0  0  0  0  0  0  0  0  0  0  0
    1.3341    0.4541   -0.2007 C   0  0  0  0  0  0  0  0  0  0  0  0
    2.4004   -0.3329   -0.0019 C   0  0  0  0  0  0  0  0  0  0  0  0
    3.7672    0.2383   -0.0861 C   0  0  0  0  0  0  0  0  0  0  0  0
    4.9163   -0.7187    0.1520 C   0  0  0  0  0  0  0  0  0  0  0  0
   -2.5132   -0.3636   -2.3353 H   0  0  0  0  0  0  0  0  0  0  0  0
   -5.0011   -0.4645    1.9585 H   0  0  0  0  0  0  0  0  0  0  0  0
   -4.7793   -1.3356   -2.2365 H   0  0  0  0  0  0  0  0  0  0  0  0
   -6.0232   -1.3860   -0.0909 H   0  0  0  0  0  0  0  0  0  0  0  0
   -0.1410   -1.1020    0.0903 H   0  0  0  0  0  0  0  0  0  0  0  0
   -3.1267    0.6038    3.0227 H   0  0  0  0  0  0  0  0  0  0  0  0
   -1.6768    1.0498    2.1583 H   0  0  0  0  0  0  0  0  0  0  0  0
    1.4661    1.5093   -0.4235 H   0  0  0  0  0  0  0  0  0  0  0  0
    2.2937   -1.3886    0.2216 H   0  0  0  0  0  0  0  0  0  0  0  0
   -1.9514    2.4057   -0.6897 H   0  0  0  0  0  0  0  0  0  0  0  0
    6.8538   -0.6552    0.1956 H   0  0  0  0  0  0  0  0  0  0  0  0
  1  9  1  0  0  0  0
  1 27  1  0  0  0  0
  2 16  2  0  0  0  0
  3 17  1  0  0  0  0
  3 28  1  0  0  0  0
  4 17  2  0  0  0  0
  5  7  1  0  0  0  0
  5 23  1  0  0  0  0
  5 24  1  0  0  0  0
  6  7  1  0  0  0  0
  6  8  2  0  0  0  0
  6  9  1  0  0  0  0
  7 10  2  0  0  0  0
  8 11  1  0  0  0  0
  8 18  1  0  0  0  0
  9 13  2  0  0  0  0
 10 12  1  0  0  0  0
 10 19  1  0  0  0  0
 11 12  2  0  0  0  0
 11 20  1  0  0  0  0
 12 21  1  0  0  0  0
 13 14  1  0  0  0  0
 13 22  1  0  0  0  0
 14 15  2  0  0  0  0
 14 25  1  0  0  0  0
 15 16  1  0  0  0  0
 15 26  1  0  0  0  0
 16 17  1  0  0  0  0
M  END
> <PUBCHEM_COMPOUND_CID>
5281097

> <PUBCHEM_CONFORMER_RMSD>
0.6

> <PUBCHEM_CONFORMER_DIVERSEORDER>
2
9
23
13
8
24
3
21
11
19
17
22
5
15
25
10
14
12
7
20
1
26
4
6
18
16

> <PUBCHEM_MMFF94_PARTIAL_CHARGES>
28
1 -0.53
10 -0.15
11 -0.15
12 -0.15
13 -0.15
14 -0.15
15 -0.14
16 0.56
17 0.72
18 0.15
19 0.15
2 -0.57
20 0.15
21 0.15
22 0.15
23 0.4
24 0.4
25 0.15
26 0.15
27 0.45
28 0.5
3 -0.65
4 -0.57
5 -0.9
6 0.03
7 0.1
8 -0.15
9 0.05

> <PUBCHEM_EFFECTIVE_ROTOR_COUNT>
4

> <PUBCHEM_PHARMACOPHORE_FEATURES>
8
1 1 donor
1 2 acceptor
1 3 acceptor
1 4 acceptor
1 5 cation
1 5 donor
3 3 4 17 anion
6 6 7 8 10 11 12 rings

> <PUBCHEM_HEAVY_ATOM_COUNT>
17

> <PUBCHEM_ATOM_DEF_STEREO_COUNT>
0

> <PUBCHEM_ATOM_UDEF_STEREO_COUNT>
0

> <PUBCHEM_BOND_DEF_STEREO_COUNT>
2

> <PUBCHEM_BOND_UDEF_STEREO_COUNT>
0

> <PUBCHEM_ISOTOPIC_ATOM_COUNT>
0

> <PUBCHEM_COMPONENT_COUNT>
1

> <PUBCHEM_CACTVS_TAUTO_COUNT>
15

> <PUBCHEM_CONFORMER_ID>
0050954900000002

> <PUBCHEM_MMFF94_ENERGY>
52.9451

> <PUBCHEM_FEATURE_SELFOVERLAP>
40.663

> <PUBCHEM_SHAPE_FINGERPRINT>
10680689 15 14764341648116288069
10803635 8 15554452894121671979
10912923 1 17967811630935918536
11315181 36 17822013085935903153
12107183 9 16955888405030580402
12236239 1 18113898247307203801
12596602 18 17530967982083038354
13167823 11 18114183051210960934
13288520 33 18334858320396953287
13760787 5 18412261709851849980
1420 363 18060135436208393126
14251718 22 16343981399634272942
14528608 73 13110954315267014046
14573314 32 16200156520898058386
14848160 23 17489591151694882874
15242439 84 16486977288756498540
17834072 33 17895194363899263904
17844677 252 18201716262804175020
17870717 6 16343980334239946451
1813 80 18337094726884807028
19050596 39 17458062646819664821
19489759 90 15913334588976185719
200 152 18272374178323282565
20325693 3 14836405831140268315
20432913 95 18341609343503912618
20645477 70 18131355232762236082
20871999 31 15195291915345980895
22646028 1 18334297578294176758
22849339 104 14907599212832774275
2297311 6 15913606177381370663
23175994 123 17704069573737685261
23402539 116 18341897410896693973
23402655 69 11959734867191074390
23466295 7 17629190516920613539
23557571 272 16486978431038685647
23559900 14 16415478203697257884
23596394 208 16773524377336939874
2916195 48 6122495800649107446
34797466 226 16056586652035113974
351380 3 18334016094806899838
5104073 3 18267593579824360208
542803 24 15791735196388865896
573450 72 17675925421271000083
5924683 9 13985243054829805781

> <PUBCHEM_SHAPE_MULTIPOLES>
321.39
13.12
1.29
1.22
13.18
0.05
0.21
-4.19
1.91
-0.08
-0.05
-1.14
0.19
-1.35

> <PUBCHEM_SHAPE_SELFOVERLAP>
672.417

> <PUBCHEM_SHAPE_VOLUME>
180.2

> <PUBCHEM_COORDINATE_TYPE>
2
5
10

$$$$

