17395497
  -OEChem-06241222502D

 36 38  0     0  0  0  0  0  0999 V2000
    8.0622    0.3861    0.0000 S   0  0  0  0  0  0  0  0  0  0  0  0
    7.2532    1.9739    0.0000 S   0  0  0  0  0  0  0  0  0  0  0  0
    2.0000   -1.1139    0.0000 F   0  0  0  0  0  0  0  0  0  0  0  0
    5.4641   -3.1139    0.0000 N   0  0  0  0  0  0  0  0  0  0  0  0
    6.3301   -1.6139    0.0000 N   0  0  0  0  0  0  0  0  0  0  0  0
    8.0622   -1.6139    0.0000 N   0  0  0  0  0  0  0  0  0  0  0  0
    7.1962   -3.1139    0.0000 N   0  0  0  0  0  0  0  0  0  0  0  0
    8.8712    1.9739    0.0000 N   0  0  0  0  0  0  0  0  0  0  0  0
    8.9282   -3.1139    0.0000 N   0  0  0  0  0  0  0  0  0  0  0  0
    4.5981   -2.6139    0.0000 C   0  0  0  0  0  0  0  0  0  0  0  0
    7.1962   -0.1139    0.0000 C   0  0  0  0  0  0  0  0  0  0  0  0
    7.1962   -1.1139    0.0000 C   0  0  0  0  0  0  0  0  0  0  0  0
    6.3301   -2.6139    0.0000 C   0  0  0  0  0  0  0  0  0  0  0  0
    4.5981   -1.6139    0.0000 C   0  0  0  0  0  0  0  0  0  0  0  0
    3.7320   -3.1139    0.0000 C   0  0  0  0  0  0  0  0  0  0  0  0
    8.0622    1.3861    0.0000 C   0  0  0  0  0  0  0  0  0  0  0  0
    8.0622   -2.6139    0.0000 C   0  0  0  0  0  0  0  0  0  0  0  0
    3.7320   -1.1139    0.0000 C   0  0  0  0  0  0  0  0  0  0  0  0
    2.8660   -2.6139    0.0000 C   0  0  0  0  0  0  0  0  0  0  0  0
    8.5622    2.9249    0.0000 C   0  0  0  0  0  0  0  0  0  0  0  0
    2.8660   -1.6139    0.0000 C   0  0  0  0  0  0  0  0  0  0  0  0
    7.5622    2.9249    0.0000 C   0  0  0  0  0  0  0  0  0  0  0  0
    9.1500    3.7339    0.0000 C   0  0  0  0  0  0  0  0  0  0  0  0
    6.9841    0.4687    0.0000 H   0  0  0  0  0  0  0  0  0  0  0  0
    6.5856   -0.2216    0.0000 H   0  0  0  0  0  0  0  0  0  0  0  0
    5.4641   -3.7339    0.0000 H   0  0  0  0  0  0  0  0  0  0  0  0
    5.1350   -1.3039    0.0000 H   0  0  0  0  0  0  0  0  0  0  0  0
    3.7320   -3.7339    0.0000 H   0  0  0  0  0  0  0  0  0  0  0  0
    3.7320   -0.4939    0.0000 H   0  0  0  0  0  0  0  0  0  0  0  0
    2.3291   -2.9239    0.0000 H   0  0  0  0  0  0  0  0  0  0  0  0
    7.1978    3.4265    0.0000 H   0  0  0  0  0  0  0  0  0  0  0  0
    9.6516    3.3695    0.0000 H   0  0  0  0  0  0  0  0  0  0  0  0
    9.5144    4.2355    0.0000 H   0  0  0  0  0  0  0  0  0  0  0  0
    8.6484    4.0984    0.0000 H   0  0  0  0  0  0  0  0  0  0  0  0
    9.4651   -2.8039    0.0000 H   0  0  0  0  0  0  0  0  0  0  0  0
    8.9282   -3.7339    0.0000 H   0  0  0  0  0  0  0  0  0  0  0  0
  1 11  1  0  0  0  0
  1 16  1  0  0  0  0
  2 16  1  0  0  0  0
  2 22  1  0  0  0  0
  3 21  1  0  0  0  0
  4 10  1  0  0  0  0
  4 13  1  0  0  0  0
  4 26  1  0  0  0  0
  5 12  1  0  0  0  0
  5 13  2  0  0  0  0
  6 12  2  0  0  0  0
  6 17  1  0  0  0  0
  7 13  1  0  0  0  0
  7 17  2  0  0  0  0
  8 16  2  0  0  0  0
  8 20  1  0  0  0  0
  9 17  1  0  0  0  0
  9 35  1  0  0  0  0
  9 36  1  0  0  0  0
 10 14  2  0  0  0  0
 10 15  1  0  0  0  0
 11 12  1  0  0  0  0
 11 24  1  0  0  0  0
 11 25  1  0  0  0  0
 14 18  1  0  0  0  0
 14 27  1  0  0  0  0
 15 19  2  0  0  0  0
 15 28  1  0  0  0  0
 18 21  2  0  0  0  0
 18 29  1  0  0  0  0
 19 21  1  0  0  0  0
 19 30  1  0  0  0  0
 20 22  2  0  0  0  0
 20 23  1  0  0  0  0
 22 31  1  0  0  0  0
 23 32  1  0  0  0  0
 23 33  1  0  0  0  0
 23 34  1  0  0  0  0
M  END
> <PUBCHEM_COMPOUND_CID>
17395497

> <PUBCHEM_COMPOUND_CANONICALIZED>
1

> <PUBCHEM_CACTVS_COMPLEXITY>
371

> <PUBCHEM_CACTVS_HBOND_ACCEPTOR>
9

> <PUBCHEM_CACTVS_HBOND_DONOR>
2

> <PUBCHEM_CACTVS_ROTATABLE_BOND>
5

> <PUBCHEM_CACTVS_SUBSKEYS>
AAADccBzgQBgAAAAAAAAAAAAAAAAAWAAAAA8QAAAAAAAAAAB8AAAHQQQAAAACAiFVwiz0ZbIEAikASZiZACC8alhCrgJiBQQZIiIKCLgmZGEIAhokAJIyCcQAAAAAAAAAAAAAAAAAAAAAAAAAAAAAAAAAA==

> <PUBCHEM_IUPAC_OPENEYE_NAME>
N2-(4-fluorophenyl)-6-[(4-methylthiazol-2-yl)sulfanylmethyl]-1,3,5-triazine-2,4-diamine

> <PUBCHEM_IUPAC_CAS_NAME>
N2-(4-fluorophenyl)-6-[[(4-methyl-2-thiazolyl)thio]methyl]-1,3,5-triazine-2,4-diamine

> <PUBCHEM_IUPAC_NAME>
2-N-(4-fluorophenyl)-6-[(4-methyl-1,3-thiazol-2-yl)sulfanylmethyl]-1,3,5-triazine-2,4-diamine

> <PUBCHEM_IUPAC_SYSTEMATIC_NAME>
N2-(4-fluorophenyl)-6-[(4-methyl-1,3-thiazol-2-yl)sulfanylmethyl]-1,3,5-triazine-2,4-diamine

> <PUBCHEM_IUPAC_TRADITIONAL_NAME>
[4-amino-6-[[(4-methylthiazol-2-yl)thio]methyl]-s-triazin-2-yl]-(4-fluorophenyl)amine

> <PUBCHEM_IUPAC_INCHI>
InChI=1S/C14H13FN6S2/c1-8-6-22-14(17-8)23-7-11-19-12(16)21-13(20-11)18-10-4-2-9(15)3-5-10/h2-6H,7H2,1H3,(H3,16,18,19,20,21)

> <PUBCHEM_IUPAC_INCHIKEY>
RPEQBXBQXSTGSU-UHFFFAOYSA-N

> <PUBCHEM_XLOGP3_AA>
3.4

> <PUBCHEM_EXACT_MASS>
348.062715

> <PUBCHEM_MOLECULAR_FORMULA>
C14H13FN6S2

> <PUBCHEM_MOLECULAR_WEIGHT>
348.421623

> <PUBCHEM_OPENEYE_CAN_SMILES>
CC1=CSC(=N1)SCC2=NC(=NC(=N2)NC3=CC=C(C=C3)F)N

> <PUBCHEM_OPENEYE_ISO_SMILES>
CC1=CSC(=N1)SCC2=NC(=NC(=N2)NC3=CC=C(C=C3)F)N

> <PUBCHEM_CACTVS_TPSA>
143

> <PUBCHEM_MONOISOTOPIC_WEIGHT>
348.062715

> <PUBCHEM_TOTAL_CHARGE>
0

> <PUBCHEM_HEAVY_ATOM_COUNT>
23

> <PUBCHEM_ATOM_DEF_STEREO_COUNT>
0

> <PUBCHEM_ATOM_UDEF_STEREO_COUNT>
0

> <PUBCHEM_BOND_DEF_STEREO_COUNT>
0

> <PUBCHEM_BOND_UDEF_STEREO_COUNT>
0

> <PUBCHEM_ISOTOPIC_ATOM_COUNT>
0

> <PUBCHEM_COMPONENT_COUNT>
1

> <PUBCHEM_CACTVS_TAUTO_COUNT>
9

> <PUBCHEM_COORDINATE_TYPE>
1
5
255

> <PUBCHEM_BONDANNOTATIONS>
10  14  8
10  15  8
14  18  8
15  19  8
18  21  8
19  21  8
2  16  8
2  22  8
20  22  8
5  12  8
5  13  8
6  12  8
6  17  8
7  13  8
7  17  8
8  16  8
8  20  8

$$$$

