108052
  -OEChem-07051212563D

 51 55  0     1  0  0  0  0  0999 V2000
   -4.5215   -1.3455    0.4926 O   0  0  0  0  0  0  0  0  0  0  0  0
   -5.2905    0.0812   -1.7033 O   0  0  0  0  0  0  0  0  0  0  0  0
    5.1630    0.4345   -0.1101 O   0  0  0  0  0  0  0  0  0  0  0  0
   -1.2807   -0.7511   -0.0465 C   0  0  1  0  0  0  0  0  0  0  0  0
   -0.5244    0.5810   -0.4102 C   0  0  2  0  0  0  0  0  0  0  0  0
    0.9909    0.6610    0.0407 C   0  0  1  0  0  0  0  0  0  0  0  0
   -2.9440    0.2916    1.2866 C   0  0  2  0  0  0  0  0  0  0  0  0
   -1.8143   -0.7311    1.3945 C   0  0  0  0  0  0  0  0  0  0  0  0
   -2.6188   -0.8159   -0.8642 C   0  0  0  0  0  0  0  0  0  0  0  0
   -3.7116   -0.2387    0.0606 C   0  0  1  0  0  0  0  0  0  0  0  0
   -0.4332   -2.0024   -0.3283 C   0  0  0  0  0  0  0  0  0  0  0  0
   -1.3742    1.8303   -0.0654 C   0  0  0  0  0  0  0  0  0  0  0  0
    1.6844   -0.6873   -0.4019 C   0  0  2  0  0  0  0  0  0  0  0  0
   -2.3206    1.6833    1.1309 C   0  0  0  0  0  0  0  0  0  0  0  0
    0.9997   -1.9155    0.1913 C   0  0  0  0  0  0  0  0  0  0  0  0
    1.7285    1.8344   -0.7277 C   0  0  0  0  0  0  0  0  0  0  0  0
    1.1437    0.9261    1.5588 C   0  0  0  0  0  0  0  0  0  0  0  0
    3.1644   -0.6155   -0.2085 C   0  0  0  0  0  0  0  0  0  0  0  0
   -4.6490    0.7442   -0.6282 C   0  0  0  0  0  0  0  0  0  0  0  0
    3.2525    1.9378   -0.4590 C   0  0  0  0  0  0  0  0  0  0  0  0
    3.8298    0.5879   -0.2856 C   0  0  0  0  0  0  0  0  0  0  0  0
    4.1654   -1.5888    0.0140 C   0  0  0  0  0  0  0  0  0  0  0  0
    5.3604   -0.9015    0.0689 C   0  0  0  0  0  0  0  0  0  0  0  0
   -0.4604    0.5817   -1.5108 H   0  0  0  0  0  0  0  0  0  0  0  0
   -3.5646    0.2626    2.1897 H   0  0  0  0  0  0  0  0  0  0  0  0
   -1.0861   -0.4449    2.1498 H   0  0  0  0  0  0  0  0  0  0  0  0
   -2.1902   -1.7145    1.7003 H   0  0  0  0  0  0  0  0  0  0  0  0
   -2.5286   -0.2495   -1.7981 H   0  0  0  0  0  0  0  0  0  0  0  0
   -2.8534   -1.8505   -1.1460 H   0  0  0  0  0  0  0  0  0  0  0  0
   -0.3943   -2.1694   -1.4136 H   0  0  0  0  0  0  0  0  0  0  0  0
   -0.9135   -2.8938    0.0946 H   0  0  0  0  0  0  0  0  0  0  0  0
   -1.9810    2.0650   -0.9487 H   0  0  0  0  0  0  0  0  0  0  0  0
   -0.7587    2.7222    0.0818 H   0  0  0  0  0  0  0  0  0  0  0  0
    1.5605   -0.7646   -1.4951 H   0  0  0  0  0  0  0  0  0  0  0  0
   -1.7642    1.9154    2.0477 H   0  0  0  0  0  0  0  0  0  0  0  0
   -3.1082    2.4431    1.0635 H   0  0  0  0  0  0  0  0  0  0  0  0
    1.0176   -1.9046    1.2859 H   0  0  0  0  0  0  0  0  0  0  0  0
    1.5276   -2.8282   -0.1118 H   0  0  0  0  0  0  0  0  0  0  0  0
    1.2808    2.8061   -0.4944 H   0  0  0  0  0  0  0  0  0  0  0  0
    1.5851    1.6842   -1.8068 H   0  0  0  0  0  0  0  0  0  0  0  0
    0.5898    1.8173    1.8670 H   0  0  0  0  0  0  0  0  0  0  0  0
    0.8147    0.0892    2.1727 H   0  0  0  0  0  0  0  0  0  0  0  0
    2.1832    1.0992    1.8532 H   0  0  0  0  0  0  0  0  0  0  0  0
   -4.1337    1.6158   -1.0351 H   0  0  0  0  0  0  0  0  0  0  0  0
   -5.4265    1.0934    0.0595 H   0  0  0  0  0  0  0  0  0  0  0  0
    3.4273    2.5264    0.4487 H   0  0  0  0  0  0  0  0  0  0  0  0
    3.7385    2.4646   -1.2871 H   0  0  0  0  0  0  0  0  0  0  0  0
   -3.9519   -2.0832    0.7635 H   0  0  0  0  0  0  0  0  0  0  0  0
    4.0442   -2.6573    0.1180 H   0  0  0  0  0  0  0  0  0  0  0  0
   -5.7603   -0.6874   -1.3370 H   0  0  0  0  0  0  0  0  0  0  0  0
    6.3869   -1.2031    0.2186 H   0  0  0  0  0  0  0  0  0  0  0  0
  1 10  1  0  0  0  0
  1 48  1  0  0  0  0
  2 19  1  0  0  0  0
  2 50  1  0  0  0  0
  3 21  1  0  0  0  0
  3 23  1  0  0  0  0
  4  5  1  0  0  0  0
  4  8  1  0  0  0  0
  4  9  1  0  0  0  0
  4 11  1  0  0  0  0
  5  6  1  0  0  0  0
  5 12  1  0  0  0  0
  5 24  1  0  0  0  0
  6 13  1  0  0  0  0
  6 16  1  0  0  0  0
  6 17  1  0  0  0  0
  7  8  1  0  0  0  0
  7 10  1  0  0  0  0
  7 14  1  0  0  0  0
  7 25  1  0  0  0  0
  8 26  1  0  0  0  0
  8 27  1  0  0  0  0
  9 10  1  0  0  0  0
  9 28  1  0  0  0  0
  9 29  1  0  0  0  0
 10 19  1  0  0  0  0
 11 15  1  0  0  0  0
 11 30  1  0  0  0  0
 11 31  1  0  0  0  0
 12 14  1  0  0  0  0
 12 32  1  0  0  0  0
 12 33  1  0  0  0  0
 13 15  1  0  0  0  0
 13 18  1  0  0  0  0
 13 34  1  0  0  0  0
 14 35  1  0  0  0  0
 14 36  1  0  0  0  0
 15 37  1  0  0  0  0
 15 38  1  0  0  0  0
 16 20  1  0  0  0  0
 16 39  1  0  0  0  0
 16 40  1  0  0  0  0
 17 41  1  0  0  0  0
 17 42  1  0  0  0  0
 17 43  1  0  0  0  0
 18 21  2  0  0  0  0
 18 22  1  0  0  0  0
 19 44  1  0  0  0  0
 19 45  1  0  0  0  0
 20 21  1  0  0  0  0
 20 46  1  0  0  0  0
 20 47  1  0  0  0  0
 22 23  2  0  0  0  0
 22 49  1  0  0  0  0
 23 51  1  0  0  0  0
M  END
> <PUBCHEM_COMPOUND_CID>
108052

> <PUBCHEM_CONFORMER_RMSD>
0.6

> <PUBCHEM_CONFORMER_DIVERSEORDER>
1
2

> <PUBCHEM_MMFF94_PARTIAL_CHARGES>
15
1 -0.68
10 0.28
13 0.18
18 -0.18
19 0.28
2 -0.68
20 0.18
21 -0.04
22 -0.15
23 -0.01
3 -0.28
48 0.4
49 0.15
50 0.4
51 0.15

> <PUBCHEM_EFFECTIVE_ROTOR_COUNT>
2.8

> <PUBCHEM_PHARMACOPHORE_FEATURES>
9
1 1 acceptor
1 1 donor
1 2 acceptor
1 2 donor
1 3 acceptor
5 3 18 21 22 23 rings
6 4 5 6 11 13 15 rings
6 6 13 16 18 20 21 rings
8 4 5 7 8 9 10 12 14 rings

> <PUBCHEM_HEAVY_ATOM_COUNT>
23

> <PUBCHEM_ATOM_DEF_STEREO_COUNT>
6

> <PUBCHEM_ATOM_UDEF_STEREO_COUNT>
0

> <PUBCHEM_BOND_DEF_STEREO_COUNT>
0

> <PUBCHEM_BOND_UDEF_STEREO_COUNT>
0

> <PUBCHEM_ISOTOPIC_ATOM_COUNT>
0

> <PUBCHEM_COMPONENT_COUNT>
1

> <PUBCHEM_CACTVS_TAUTO_COUNT>
1

> <PUBCHEM_CONFORMER_ID>
0001A61400000001

> <PUBCHEM_MMFF94_ENERGY>
90.3344

> <PUBCHEM_FEATURE_SELFOVERLAP>
45.801

> <PUBCHEM_SHAPE_FINGERPRINT>
10062212 137 18259984894160154163
10863032 1 18268139873082022370
11315181 36 18413103966393112048
11471102 20 18412544314779317302
11578080 2 17969808386891772984
12011746 2 18342176695561396558
12107183 9 17614836744584886506
12166972 35 18272088249887674413
12236239 1 17967534583785711935
12403260 363 18334296487161766360
12403814 3 18413385457916766992
12507557 5 18341892987185724579
12633257 1 16660636315774336459
12670546 56 18113338613480225712
12788726 201 17968921051127846768
128620 24 7637402921519855344
13140716 1 18265606585512622490
13224815 77 18335692840974270904
13583140 156 17561358457193058858
14787075 74 17894351073035514856
15099037 51 18341897397990615206
15196674 1 18411979143889940996
15209289 33 18260827102982139538
15788980 27 17918270956818794506
15848702 151 18114735048966161622
16752209 62 18334018332046900745
16945 1 18268127885791557723
17349148 13 18040712567313822006
17802600 8 18333452053583508680
1813 80 17561357414328239894
192875 21 18259987067382093849
19862831 5 17632577153881761137
200 152 18259707809035548501
20645477 70 18342173363020261086
21033648 29 17561092379700796325
21033650 10 16806979170411608944
21267235 1 18337660984548432694
21682296 61 18043803402391342774
23402539 116 18113902667197797285
23493267 7 17775290447874138585
23557571 272 14345791656398535731
23559900 14 18340771455435065736
296302 2 17275385417247192003
3286 77 17531253846004641857
335352 9 18412544340058563006
350125 39 18408600383360457585
351380 180 18341893000176167010
474 4 18341890771220100066
5104073 3 18410286999784578112
5283173 99 18059303170426180925
542803 24 12967128324001777558
633830 44 16415197815473568148
69090 78 18334574642307988278
9709674 26 18337378426986970222

> <PUBCHEM_SHAPE_MULTIPOLES>
455.72
9.98
2
1.15
1.62
0.12
0.18
-0.93
-1.73
0.65
-0.03
-1.03
0.17
-0.27

> <PUBCHEM_SHAPE_SELFOVERLAP>
1003.767

> <PUBCHEM_SHAPE_VOLUME>
245.8

> <PUBCHEM_COORDINATE_TYPE>
2
5
10

$$$$

