145729
  -OEChem-07051212453D

 38 39  0     1  0  0  0  0  0999 V2000
   -3.0234    0.8849    0.8440 P   0  0  2  0  0  0  0  0  0  0  0  0
   -3.7578   -1.4854   -0.7359 P   0  0  0  0  0  0  0  0  0  0  0  0
    1.2160    1.6748    0.9472 O   0  0  0  0  0  0  0  0  0  0  0  0
    2.1407    4.1411   -0.6132 O   0  0  0  0  0  0  0  0  0  0  0  0
   -1.5857    1.6153    0.9712 O   0  0  0  0  0  0  0  0  0  0  0  0
    4.7389   -0.2095    0.0162 O   0  0  0  0  0  0  0  0  0  0  0  0
   -2.7453   -0.3999   -0.0971 O   0  0  0  0  0  0  0  0  0  0  0  0
   -3.8903    1.8625   -0.1100 O   0  0  0  0  0  0  0  0  0  0  0  0
   -3.6793    0.5573    2.1541 O   0  0  0  0  0  0  0  0  0  0  0  0
    2.5066   -4.2386    0.1875 O   0  0  0  0  0  0  0  0  0  0  0  0
   -4.3343   -2.2572    0.5618 O   0  0  0  0  0  0  0  0  0  0  0  0
   -2.7663   -2.5687   -1.4108 O   0  0  0  0  0  0  0  0  0  0  0  0
   -4.7970   -0.9091   -1.6517 O   0  0  0  0  0  0  0  0  0  0  0  0
    2.4071   -0.1774    0.1562 N   0  0  0  0  0  0  0  0  0  0  0  0
    3.6254   -2.2149    0.1009 N   0  0  0  0  0  0  0  0  0  0  0  0
    1.2920    3.0552   -0.9789 C   0  0  2  0  0  0  0  0  0  0  0  0
    0.4394    2.6402    0.2120 C   0  0  1  0  0  0  0  0  0  0  0  0
    2.1269    1.8245   -1.2475 C   0  0  0  0  0  0  0  0  0  0  0  0
    2.3299    1.2542    0.1468 C   0  0  1  0  0  0  0  0  0  0  0  0
   -0.8680    1.9748   -0.1982 C   0  0  0  0  0  0  0  0  0  0  0  0
    3.6668   -0.8144    0.0856 C   0  0  0  0  0  0  0  0  0  0  0  0
    1.2438   -0.9319    0.2345 C   0  0  0  0  0  0  0  0  0  0  0  0
    1.2204   -2.2663    0.2481 C   0  0  0  0  0  0  0  0  0  0  0  0
    2.4934   -3.0113    0.1773 C   0  0  0  0  0  0  0  0  0  0  0  0
    0.7008    3.3752   -1.8420 H   0  0  0  0  0  0  0  0  0  0  0  0
    0.2403    3.4753    0.8928 H   0  0  0  0  0  0  0  0  0  0  0  0
    1.5640    1.1277   -1.8803 H   0  0  0  0  0  0  0  0  0  0  0  0
    3.0823    2.0298   -1.7405 H   0  0  0  0  0  0  0  0  0  0  0  0
    3.2319    1.6815    0.6006 H   0  0  0  0  0  0  0  0  0  0  0  0
   -0.7082    1.0883   -0.8163 H   0  0  0  0  0  0  0  0  0  0  0  0
   -1.4728    2.6823   -0.7752 H   0  0  0  0  0  0  0  0  0  0  0  0
    2.7082    4.3370   -1.3783 H   0  0  0  0  0  0  0  0  0  0  0  0
    0.3026   -0.4089    0.2962 H   0  0  0  0  0  0  0  0  0  0  0  0
    4.5193   -2.6956    0.0510 H   0  0  0  0  0  0  0  0  0  0  0  0
    0.2935   -2.8231    0.3129 H   0  0  0  0  0  0  0  0  0  0  0  0
   -4.3039    2.6615    0.2806 H   0  0  0  0  0  0  0  0  0  0  0  0
   -5.0469   -2.9206    0.4422 H   0  0  0  0  0  0  0  0  0  0  0  0
   -3.1508   -3.3000   -1.9396 H   0  0  0  0  0  0  0  0  0  0  0  0
  1  5  1  0  0  0  0
  1  7  1  0  0  0  0
  1  8  1  0  0  0  0
  1  9  2  0  0  0  0
  2  7  1  0  0  0  0
  2 11  1  0  0  0  0
  2 12  1  0  0  0  0
  2 13  2  0  0  0  0
  3 17  1  0  0  0  0
  3 19  1  0  0  0  0
  4 16  1  0  0  0  0
  4 32  1  0  0  0  0
  5 20  1  0  0  0  0
  6 21  2  0  0  0  0
  8 36  1  0  0  0  0
 10 24  2  0  0  0  0
 11 37  1  0  0  0  0
 12 38  1  0  0  0  0
 14 19  1  0  0  0  0
 14 21  1  0  0  0  0
 14 22  1  0  0  0  0
 15 21  1  0  0  0  0
 15 24  1  0  0  0  0
 15 34  1  0  0  0  0
 16 17  1  0  0  0  0
 16 18  1  0  0  0  0
 16 25  1  0  0  0  0
 17 20  1  0  0  0  0
 17 26  1  0  0  0  0
 18 19  1  0  0  0  0
 18 27  1  0  0  0  0
 18 28  1  0  0  0  0
 19 29  1  0  0  0  0
 20 30  1  0  0  0  0
 20 31  1  0  0  0  0
 22 23  2  0  0  0  0
 22 33  1  0  0  0  0
 23 24  1  0  0  0  0
 23 35  1  0  0  0  0
M  END
> <PUBCHEM_COMPOUND_CID>
145729

> <PUBCHEM_CONFORMER_RMSD>
0.8

> <PUBCHEM_CONFORMER_DIVERSEORDER>
1
94
127
145
167
61
178
196
199
19
158
29
103
38
8
208
55
42
152
164
75
203
109
56
229
16
73
172
128
69
194
200
210
114
107
129
147
190
63
185
9
226
155
27
217
81
168
213
144
89
161
192
23
173
186
134
153
99
211
201
95
142
224
124
86
204
225
24
98
138
115
111
54
141
189
39
193
130
79
181
176
177
17
162
146
43
59
30
197
100
165
191
110
76
78
37
148
87
214
6
151
80
209
154
188
206
88
35
122
22
112
175
195
223
139
182
41
150
198
126
187
33
93
82
65
102
106
14
84
219
121
140
21
32
116
49
71
25
180
156
179
104
97
66
160
62
108
31
74
83
184
11
216
136
212
117
123
125
85
157
120
202
13
15
50
133
96
10
46
64
159
132
34
169
118
57
20
91
58
5
220
12
67
143
131
60
218
70
163
170
113
227
183
92
166
45
205
40
207
52
135
174
26
28
48
72
3
2
149
77
105
119
18
7
222
53
44
215
228
51
90
221
171
36
137
101
4
68
47

> <PUBCHEM_MMFF94_PARTIAL_CHARGES>
30
1 1.51
10 -0.57
11 -0.77
12 -0.77
13 -0.7
14 -0.47
15 -0.49
16 0.28
17 0.28
19 0.58
2 1.51
20 0.28
21 0.69
22 -0.04
23 -0.14
24 0.62
3 -0.56
32 0.4
33 0.15
34 0.37
35 0.15
36 0.5
37 0.5
38 0.5
4 -0.68
5 -0.55
6 -0.57
7 -0.54
8 -0.77
9 -0.7

> <PUBCHEM_EFFECTIVE_ROTOR_COUNT>
7

> <PUBCHEM_PHARMACOPHORE_FEATURES>
14
1 10 acceptor
1 11 acceptor
1 12 acceptor
1 13 acceptor
1 15 donor
1 3 acceptor
1 4 acceptor
1 4 donor
1 6 acceptor
1 8 acceptor
1 9 acceptor
4 2 11 12 13 anion
5 3 16 17 18 19 rings
6 14 15 21 22 23 24 rings

> <PUBCHEM_HEAVY_ATOM_COUNT>
24

> <PUBCHEM_ATOM_DEF_STEREO_COUNT>
3

> <PUBCHEM_ATOM_UDEF_STEREO_COUNT>
0

> <PUBCHEM_BOND_DEF_STEREO_COUNT>
0

> <PUBCHEM_BOND_UDEF_STEREO_COUNT>
0

> <PUBCHEM_ISOTOPIC_ATOM_COUNT>
0

> <PUBCHEM_COMPONENT_COUNT>
1

> <PUBCHEM_CACTVS_TAUTO_COUNT>
3

> <PUBCHEM_CONFORMER_ID>
0002394100000001

> <PUBCHEM_MMFF94_ENERGY>
-0.8654

> <PUBCHEM_FEATURE_SELFOVERLAP>
71.089

> <PUBCHEM_SHAPE_FINGERPRINT>
11069576 57 18189635868420225927
12553582 1 18340760550370403498
12596599 1 17968645129200302039
12633257 1 17680145467379275147
13004483 165 17909834575860858992
138480 1 18411982468321436516
14251757 17 17913804796948689583
14251757 5 17471272424572554278
14790565 3 18268702823843182412
15537594 2 18265876111837340546
20291156 8 18337670935401848283
20645477 70 18129667379091791769
21634736 98 18337107869621518590
23559900 14 18339092501363749689
238 59 18127404549358543713
46194498 28 17774731861639346909
463206 1 18341326798726748467
7097593 13 18335695078952880011

> <PUBCHEM_SHAPE_MULTIPOLES>
427.08
8.53
4.85
1.19
6.36
0.44
0.04
4.63
-0.49
-3.25
-0.76
1.33
-0.18
-1.65

> <PUBCHEM_SHAPE_SELFOVERLAP>
856.493

> <PUBCHEM_SHAPE_VOLUME>
252.3

> <PUBCHEM_COORDINATE_TYPE>
2
5
10

$$$$

