10947
  -OEChem-06261205093D

 47 47  0     1  0  0  0  0  0999 V2000
    0.4324   -2.4188    1.3710 O   0  0  0  0  0  0  0  0  0  0  0  0
    2.4244   -0.8994    0.0379 C   0  0  1  0  0  0  0  0  0  0  0  0
    3.0890    0.2643   -0.7315 C   0  0  0  0  0  0  0  0  0  0  0  0
    2.2445    1.5397   -0.8689 C   0  0  0  0  0  0  0  0  0  0  0  0
    1.9769    2.2402    0.4679 C   0  0  0  0  0  0  0  0  0  0  0  0
    1.0605    3.4618    0.3210 C   0  0  0  0  0  0  0  0  0  0  0  0
   -0.3947    3.2034    0.7318 C   0  0  0  0  0  0  0  0  0  0  0  0
    1.2136   -1.4754   -0.7182 C   0  0  0  0  0  0  0  0  0  0  0  0
   -1.1182    2.1774   -0.1419 C   0  0  0  0  0  0  0  0  0  0  0  0
   -2.5680    1.9877    0.3118 C   0  0  0  0  0  0  0  0  0  0  0  0
   -3.3849    1.0703   -0.6043 C   0  0  0  0  0  0  0  0  0  0  0  0
   -2.8224   -0.3391   -0.8210 C   0  0  0  0  0  0  0  0  0  0  0  0
   -2.6295   -1.1267    0.4772 C   0  0  0  0  0  0  0  0  0  0  0  0
   -2.2644   -2.6004    0.2515 C   0  0  0  0  0  0  0  0  0  0  0  0
   -0.9723   -2.8324   -0.5299 C   0  0  0  0  0  0  0  0  0  0  0  0
    0.2466   -2.2517    0.1665 C   0  0  0  0  0  0  0  0  0  0  0  0
    3.4665   -2.0008    0.2791 C   0  0  0  0  0  0  0  0  0  0  0  0
    2.1069   -0.5377    1.0217 H   0  0  0  0  0  0  0  0  0  0  0  0
    3.3564   -0.0812   -1.7387 H   0  0  0  0  0  0  0  0  0  0  0  0
    4.0326    0.5316   -0.2382 H   0  0  0  0  0  0  0  0  0  0  0  0
    1.3088    1.3253   -1.3908 H   0  0  0  0  0  0  0  0  0  0  0  0
    2.7920    2.2361   -1.5176 H   0  0  0  0  0  0  0  0  0  0  0  0
    2.9417    2.5759    0.8690 H   0  0  0  0  0  0  0  0  0  0  0  0
    1.5580    1.5499    1.2061 H   0  0  0  0  0  0  0  0  0  0  0  0
    1.0990    3.8625   -0.6987 H   0  0  0  0  0  0  0  0  0  0  0  0
    1.4439    4.2530    0.9781 H   0  0  0  0  0  0  0  0  0  0  0  0
   -0.9362    4.1567    0.6882 H   0  0  0  0  0  0  0  0  0  0  0  0
   -0.4214    2.8774    1.7790 H   0  0  0  0  0  0  0  0  0  0  0  0
    1.5453   -2.1374   -1.5264 H   0  0  0  0  0  0  0  0  0  0  0  0
    0.6230   -0.6727   -1.1668 H   0  0  0  0  0  0  0  0  0  0  0  0
   -0.5974    1.2179   -0.0803 H   0  0  0  0  0  0  0  0  0  0  0  0
   -1.0952    2.5029   -1.1884 H   0  0  0  0  0  0  0  0  0  0  0  0
   -3.0672    2.9643    0.3446 H   0  0  0  0  0  0  0  0  0  0  0  0
   -2.5855    1.5999    1.3372 H   0  0  0  0  0  0  0  0  0  0  0  0
   -3.4891    1.5526   -1.5844 H   0  0  0  0  0  0  0  0  0  0  0  0
   -4.3992    0.9879   -0.1941 H   0  0  0  0  0  0  0  0  0  0  0  0
   -1.8764   -0.2688   -1.3677 H   0  0  0  0  0  0  0  0  0  0  0  0
   -3.5157   -0.8850   -1.4730 H   0  0  0  0  0  0  0  0  0  0  0  0
   -3.5591   -1.0924    1.0589 H   0  0  0  0  0  0  0  0  0  0  0  0
   -1.8584   -0.6527    1.0941 H   0  0  0  0  0  0  0  0  0  0  0  0
   -3.0874   -3.0944   -0.2794 H   0  0  0  0  0  0  0  0  0  0  0  0
   -2.1896   -3.0890    1.2309 H   0  0  0  0  0  0  0  0  0  0  0  0
   -1.0555   -2.4116   -1.5369 H   0  0  0  0  0  0  0  0  0  0  0  0
   -0.7950   -3.9072   -0.6505 H   0  0  0  0  0  0  0  0  0  0  0  0
    3.0405   -2.8372    0.8418 H   0  0  0  0  0  0  0  0  0  0  0  0
    3.8559   -2.3932   -0.6666 H   0  0  0  0  0  0  0  0  0  0  0  0
    4.3126   -1.6126    0.8564 H   0  0  0  0  0  0  0  0  0  0  0  0
  1 16  2  0  0  0  0
  2  3  1  0  0  0  0
  2  8  1  0  0  0  0
  2 17  1  0  0  0  0
  2 18  1  0  0  0  0
  3  4  1  0  0  0  0
  3 19  1  0  0  0  0
  3 20  1  0  0  0  0
  4  5  1  0  0  0  0
  4 21  1  0  0  0  0
  4 22  1  0  0  0  0
  5  6  1  0  0  0  0
  5 23  1  0  0  0  0
  5 24  1  0  0  0  0
  6  7  1  0  0  0  0
  6 25  1  0  0  0  0
  6 26  1  0  0  0  0
  7  9  1  0  0  0  0
  7 27  1  0  0  0  0
  7 28  1  0  0  0  0
  8 16  1  0  0  0  0
  8 29  1  0  0  0  0
  8 30  1  0  0  0  0
  9 10  1  0  0  0  0
  9 31  1  0  0  0  0
  9 32  1  0  0  0  0
 10 11  1  0  0  0  0
 10 33  1  0  0  0  0
 10 34  1  0  0  0  0
 11 12  1  0  0  0  0
 11 35  1  0  0  0  0
 11 36  1  0  0  0  0
 12 13  1  0  0  0  0
 12 37  1  0  0  0  0
 12 38  1  0  0  0  0
 13 14  1  0  0  0  0
 13 39  1  0  0  0  0
 13 40  1  0  0  0  0
 14 15  1  0  0  0  0
 14 41  1  0  0  0  0
 14 42  1  0  0  0  0
 15 16  1  0  0  0  0
 15 43  1  0  0  0  0
 15 44  1  0  0  0  0
 17 45  1  0  0  0  0
 17 46  1  0  0  0  0
 17 47  1  0  0  0  0
M  END
> <PUBCHEM_COMPOUND_CID>
10947

> <PUBCHEM_CONFORMER_RMSD>
0.6

> <PUBCHEM_CONFORMER_DIVERSEORDER>
16
83
112
143
88
2
8
80
67
111
52
85
101
151
37
124
103
138
70
94
78
109
128
95
24
60
118
123
21
66
139
57
145
77
68
129
69
72
119
36
58
79
65
122
149
132
19
148
99
113
28
39
61
92
51
62
44
152
136
147
121
114
75
63
41
56
105
50
74
102
135
140
98
106
25
90
7
64
130
144
125
137
133
97
108
9
96
12
43
141
115
26
4
17
46
116
53
11
35
86
100
13
82
81
89
40
48
22
38
5
31
29
104
71
15
76
32
27
59
127
55
91
10
107
47
14
3
131
146
142
110
23
20
126
84
33
42
73
30
45
150
120
34
6
1
134
18
49
87
54
93
117

> <PUBCHEM_MMFF94_PARTIAL_CHARGES>
4
1 -0.57
15 0.06
16 0.45
8 0.06

> <PUBCHEM_EFFECTIVE_ROTOR_COUNT>
2.8

> <PUBCHEM_PHARMACOPHORE_FEATURES>
1
1 1 acceptor

> <PUBCHEM_HEAVY_ATOM_COUNT>
17

> <PUBCHEM_ATOM_DEF_STEREO_COUNT>
0

> <PUBCHEM_ATOM_UDEF_STEREO_COUNT>
1

> <PUBCHEM_BOND_DEF_STEREO_COUNT>
0

> <PUBCHEM_BOND_UDEF_STEREO_COUNT>
0

> <PUBCHEM_ISOTOPIC_ATOM_COUNT>
0

> <PUBCHEM_COMPONENT_COUNT>
1

> <PUBCHEM_CACTVS_TAUTO_COUNT>
3

> <PUBCHEM_CONFORMER_ID>
00002AC300000010

> <PUBCHEM_MMFF94_ENERGY>
14.6974

> <PUBCHEM_FEATURE_SELFOVERLAP>
5.074

> <PUBCHEM_SHAPE_FINGERPRINT>
10967382 1 18410291449386526645
1100329 8 18338799043027538425
12038231 1 16680908376427175653
12539773 59 17315927838579687193
12553582 1 18263637544776170468
13122387 1 16752968165251621993
13140716 1 18410569625902252721
13402501 40 17400921899455599009
1420 336 18410289198770786042
14251705 54 18050846624385137129
14251711 518 17474384059610640081
14251740 79 17765109971150392316
14251745 187 18335989730768247632
14931854 50 18411136943726716397
15006816 218 17616533960977963437
15256400 18 17545328930976508386
192875 21 18265914599076190495
19930381 70 17040920858809197766
20621476 13 17183631988074455453
20905425 154 18192990422266199631
21141583 151 18262512714568788124
2334 1 18410570643767323085
238 59 17757578268869889909
3014063 31 18121780535093789775
3524813 1 17832981650736544652
44154327 71 17760082217850681761
539174 4 17829295052984215443
6438718 38 17750794535218391157

> <PUBCHEM_SHAPE_MULTIPOLES>
343.98
5.37
4.91
0.96
0.14
1.54
-0.02
-0.6
0.72
-0.1
-1
-0.04
-0.1
-0.02

> <PUBCHEM_SHAPE_SELFOVERLAP>
648.42

> <PUBCHEM_SHAPE_VOLUME>
211.7

> <PUBCHEM_COORDINATE_TYPE>
2
5
10

$$$$

