105074
  -OEChem-07051213113D

 59 62  0     1  0  0  0  0  0999 V2000
   -6.2536    0.4313    0.1770 S   0  0  0  0  0  0  0  0  0  0  0  0
   -5.2302   -0.8332    0.0295 O   0  0  0  0  0  0  0  0  0  0  0  0
    6.6542    0.0668   -0.7967 O   0  0  0  0  0  0  0  0  0  0  0  0
   -7.7124   -0.2146   -0.1638 O   0  0  0  0  0  0  0  0  0  0  0  0
   -6.2644    0.8217    1.5746 O   0  0  0  0  0  0  0  0  0  0  0  0
   -5.9473    1.4089   -0.8506 O   0  0  0  0  0  0  0  0  0  0  0  0
    3.4865   -0.1769   -0.0197 C   0  0  2  0  0  0  0  0  0  0  0  0
    2.5406    0.9801    0.3588 C   0  0  2  0  0  0  0  0  0  0  0  0
    1.1312    0.8254   -0.2213 C   0  0  1  0  0  0  0  0  0  0  0  0
    0.5134   -0.5182    0.2643 C   0  0  1  0  0  0  0  0  0  0  0  0
   -0.9299   -0.7435   -0.3414 C   0  0  2  0  0  0  0  0  0  0  0  0
    2.9049   -1.4633    0.5824 C   0  0  0  0  0  0  0  0  0  0  0  0
    4.7812    0.3259    0.6564 C   0  0  2  0  0  0  0  0  0  0  0  0
    1.4751   -1.7242    0.0780 C   0  0  0  0  0  0  0  0  0  0  0  0
    3.3458    2.2273    0.0107 C   0  0  0  0  0  0  0  0  0  0  0  0
    4.7899    1.8445    0.3813 C   0  0  0  0  0  0  0  0  0  0  0  0
    0.2373    2.0010    0.2008 C   0  0  0  0  0  0  0  0  0  0  0  0
   -1.7618    0.5444   -0.2623 C   0  0  0  0  0  0  0  0  0  0  0  0
    3.6855   -0.3486   -1.5479 C   0  0  0  0  0  0  0  0  0  0  0  0
   -1.6373   -1.8589    0.4848 C   0  0  0  0  0  0  0  0  0  0  0  0
   -1.2217    1.7486   -0.0062 C   0  0  0  0  0  0  0  0  0  0  0  0
   -0.8562   -1.1745   -1.8261 C   0  0  0  0  0  0  0  0  0  0  0  0
   -3.2520    0.4174   -0.4792 C   0  0  0  0  0  0  0  0  0  0  0  0
   -3.1313   -2.0038    0.1983 C   0  0  0  0  0  0  0  0  0  0  0  0
    6.0296   -0.3483    0.1783 C   0  0  0  0  0  0  0  0  0  0  0  0
   -3.8613   -0.6782    0.3898 C   0  0  2  0  0  0  0  0  0  0  0  0
    6.4842   -1.5572    0.9504 C   0  0  0  0  0  0  0  0  0  0  0  0
    2.4288    0.9861    1.4565 H   0  0  0  0  0  0  0  0  0  0  0  0
    1.1877    0.8285   -1.3157 H   0  0  0  0  0  0  0  0  0  0  0  0
    0.3890   -0.4133    1.3547 H   0  0  0  0  0  0  0  0  0  0  0  0
    2.8855   -1.3959    1.6777 H   0  0  0  0  0  0  0  0  0  0  0  0
    3.5312   -2.3271    0.3342 H   0  0  0  0  0  0  0  0  0  0  0  0
    4.7202    0.1902    1.7451 H   0  0  0  0  0  0  0  0  0  0  0  0
    1.5303   -2.0131   -0.9754 H   0  0  0  0  0  0  0  0  0  0  0  0
    1.0823   -2.5958    0.6137 H   0  0  0  0  0  0  0  0  0  0  0  0
    3.0102    3.1054    0.5715 H   0  0  0  0  0  0  0  0  0  0  0  0
    3.2731    2.4673   -1.0559 H   0  0  0  0  0  0  0  0  0  0  0  0
    5.4717    2.1514   -0.4186 H   0  0  0  0  0  0  0  0  0  0  0  0
    5.1043    2.3810    1.2845 H   0  0  0  0  0  0  0  0  0  0  0  0
    0.5245    2.8918   -0.3710 H   0  0  0  0  0  0  0  0  0  0  0  0
    0.3899    2.2422    1.2602 H   0  0  0  0  0  0  0  0  0  0  0  0
    4.3169   -1.2188   -1.7614 H   0  0  0  0  0  0  0  0  0  0  0  0
    2.7449   -0.5081   -2.0815 H   0  0  0  0  0  0  0  0  0  0  0  0
    4.1635    0.5217   -2.0087 H   0  0  0  0  0  0  0  0  0  0  0  0
   -1.5197   -1.6517    1.5572 H   0  0  0  0  0  0  0  0  0  0  0  0
   -1.1591   -2.8290    0.3042 H   0  0  0  0  0  0  0  0  0  0  0  0
   -1.8631    2.6243    0.0587 H   0  0  0  0  0  0  0  0  0  0  0  0
   -0.4072   -2.1667   -1.9378 H   0  0  0  0  0  0  0  0  0  0  0  0
   -1.8461   -1.2355   -2.2909 H   0  0  0  0  0  0  0  0  0  0  0  0
   -0.2698   -0.4705   -2.4255 H   0  0  0  0  0  0  0  0  0  0  0  0
   -3.7093    1.3823   -0.2421 H   0  0  0  0  0  0  0  0  0  0  0  0
   -3.4616    0.2312   -1.5395 H   0  0  0  0  0  0  0  0  0  0  0  0
   -3.2962   -2.3828   -0.8178 H   0  0  0  0  0  0  0  0  0  0  0  0
   -3.5660   -2.7598    0.8638 H   0  0  0  0  0  0  0  0  0  0  0  0
   -3.8087   -0.3937    1.4486 H   0  0  0  0  0  0  0  0  0  0  0  0
    6.5969   -1.3017    2.0070 H   0  0  0  0  0  0  0  0  0  0  0  0
    5.7686   -2.3721    0.8325 H   0  0  0  0  0  0  0  0  0  0  0  0
    7.4555   -1.8870    0.5703 H   0  0  0  0  0  0  0  0  0  0  0  0
   -7.7464   -0.7737   -0.9751 H   0  0  0  0  0  0  0  0  0  0  0  0
  1  2  1  0  0  0  0
  1  4  1  0  0  0  0
  1  5  2  0  0  0  0
  1  6  2  0  0  0  0
  2 26  1  0  0  0  0
  3 25  2  0  0  0  0
  4 59  1  0  0  0  0
  7  8  1  0  0  0  0
  7 12  1  0  0  0  0
  7 13  1  0  0  0  0
  7 19  1  0  0  0  0
  8  9  1  0  0  0  0
  8 15  1  0  0  0  0
  8 28  1  0  0  0  0
  9 10  1  0  0  0  0
  9 17  1  0  0  0  0
  9 29  1  0  0  0  0
 10 11  1  0  0  0  0
 10 14  1  0  0  0  0
 10 30  1  0  0  0  0
 11 18  1  0  0  0  0
 11 20  1  0  0  0  0
 11 22  1  0  0  0  0
 12 14  1  0  0  0  0
 12 31  1  0  0  0  0
 12 32  1  0  0  0  0
 13 16  1  0  0  0  0
 13 25  1  0  0  0  0
 13 33  1  0  0  0  0
 14 34  1  0  0  0  0
 14 35  1  0  0  0  0
 15 16  1  0  0  0  0
 15 36  1  0  0  0  0
 15 37  1  0  0  0  0
 16 38  1  0  0  0  0
 16 39  1  0  0  0  0
 17 21  1  0  0  0  0
 17 40  1  0  0  0  0
 17 41  1  0  0  0  0
 18 21  2  0  0  0  0
 18 23  1  0  0  0  0
 19 42  1  0  0  0  0
 19 43  1  0  0  0  0
 19 44  1  0  0  0  0
 20 24  1  0  0  0  0
 20 45  1  0  0  0  0
 20 46  1  0  0  0  0
 21 47  1  0  0  0  0
 22 48  1  0  0  0  0
 22 49  1  0  0  0  0
 22 50  1  0  0  0  0
 23 26  1  0  0  0  0
 23 51  1  0  0  0  0
 23 52  1  0  0  0  0
 24 26  1  0  0  0  0
 24 53  1  0  0  0  0
 24 54  1  0  0  0  0
 25 27  1  0  0  0  0
 26 55  1  0  0  0  0
 27 56  1  0  0  0  0
 27 57  1  0  0  0  0
 27 58  1  0  0  0  0
M  END
> <PUBCHEM_COMPOUND_CID>
105074

> <PUBCHEM_CONFORMER_RMSD>
0.8

> <PUBCHEM_CONFORMER_DIVERSEORDER>
1
5
3
4
2
6

> <PUBCHEM_MMFF94_PARTIAL_CHARGES>
17
1 1.67
11 0.14
13 0.06
17 0.14
18 -0.28
2 -0.46
21 -0.29
23 0.14
25 0.45
26 0.28
27 0.06
3 -0.57
4 -0.68
47 0.15
5 -0.65
59 0.5
6 -0.65

> <PUBCHEM_EFFECTIVE_ROTOR_COUNT>
5

> <PUBCHEM_PHARMACOPHORE_FEATURES>
9
1 3 acceptor
1 4 acceptor
1 5 acceptor
1 6 acceptor
4 1 4 5 6 anion
5 7 8 13 15 16 rings
6 11 18 20 23 24 26 rings
6 7 8 9 10 12 14 rings
6 9 10 11 17 18 21 rings

> <PUBCHEM_HEAVY_ATOM_COUNT>
27

> <PUBCHEM_ATOM_DEF_STEREO_COUNT>
7

> <PUBCHEM_ATOM_UDEF_STEREO_COUNT>
0

> <PUBCHEM_BOND_DEF_STEREO_COUNT>
0

> <PUBCHEM_BOND_UDEF_STEREO_COUNT>
0

> <PUBCHEM_ISOTOPIC_ATOM_COUNT>
0

> <PUBCHEM_COMPONENT_COUNT>
1

> <PUBCHEM_CACTVS_TAUTO_COUNT>
3

> <PUBCHEM_CONFORMER_ID>
00019A7200000001

> <PUBCHEM_MMFF94_ENERGY>
74.5698

> <PUBCHEM_FEATURE_SELFOVERLAP>
45.824

> <PUBCHEM_SHAPE_FINGERPRINT>
10906281 52 18337372895047610659
11089746 13 17313108535930677033
11578080 2 13685143420338442100
12011746 2 18408322190023071405
12166972 35 17703789224126821876
12236239 1 18040718034764972131
12403259 415 18131362890525388428
12516196 113 17894352176689453833
12788726 201 18115028627271502097
12838862 33 18339098032780622952
13140716 1 18265616485359121896
13533116 47 17917438665525046738
14251764 18 18409167697569941443
14341114 176 18343584032238500472
14790565 3 18409727322939393105
14856354 85 14764340549332518003
15142383 8 17489596679064598469
15183329 4 18410293618814405809
15196674 1 18339362950916720954
15238133 3 18272080587143551485
15849732 13 17603587413403278357
19141452 34 17822294539612091430
21033648 29 17822304426637343570
21130935 74 18335704914418198866
21150785 3 6194835977933866827
21267235 1 18411135870702069362
21279426 13 18267586995438885621
21421861 104 18059589017579021610
21781051 124 17773856684332327858
21792934 111 18337403706853219081
23402539 116 18260274022810713119
23522609 53 18197751397799155836
23559900 14 18340493266161136008
2838139 119 18260553325140827965
3004659 81 18273498961834287184
335352 9 18411419492455585542
34934 24 18336833000272944927
350125 39 18413390955744002708
3545911 37 18342459252790672886
3633792 109 16298936667054352567
3680242 22 18342459257201652794
4073 2 17988359248327810802
4093350 32 16878216575724632695
4340502 62 17346599681545366179
5104073 3 18338800000741871290
7226269 152 18409166623807272089

> <PUBCHEM_SHAPE_MULTIPOLES>
530.15
16.78
2.09
1.05
10.87
0.24
0.25
0.54
-2.19
-0.7
-0.21
-0.05
-0.17
-0.19

> <PUBCHEM_SHAPE_SELFOVERLAP>
1113.349

> <PUBCHEM_SHAPE_VOLUME>
302.8

> <PUBCHEM_COORDINATE_TYPE>
2
5
10

$$$$

