129
  -OEChem-07051212473D

 19 18  0     0  0  0  0  0  0999 V2000
    2.6987   -0.7371   -0.4010 O   0  0  0  0  0  0  0  0  0  0  0  0
   -1.5325   -0.0074    0.3249 C   0  0  0  0  0  0  0  0  0  0  0  0
   -0.0645   -0.4020    0.0816 C   0  0  0  0  0  0  0  0  0  0  0  0
    0.9267    0.7119    0.4123 C   0  0  0  0  0  0  0  0  0  0  0  0
   -1.8771    1.2405   -0.4918 C   0  0  0  0  0  0  0  0  0  0  0  0
   -2.5048   -1.1357   -0.0218 C   0  0  0  0  0  0  0  0  0  0  0  0
    2.3535    0.3297    0.0958 C   0  0  0  0  0  0  0  0  0  0  0  0
   -1.6605    0.2315    1.3882 H   0  0  0  0  0  0  0  0  0  0  0  0
    0.1740   -1.2880    0.6841 H   0  0  0  0  0  0  0  0  0  0  0  0
    0.0624   -0.7047   -0.9664 H   0  0  0  0  0  0  0  0  0  0  0  0
    0.7295    1.6162   -0.1702 H   0  0  0  0  0  0  0  0  0  0  0  0
    0.8746    0.9665    1.4759 H   0  0  0  0  0  0  0  0  0  0  0  0
   -1.6156    1.1150   -1.5480 H   0  0  0  0  0  0  0  0  0  0  0  0
   -2.9511    1.4516   -0.4375 H   0  0  0  0  0  0  0  0  0  0  0  0
   -1.3682    2.1302   -0.1093 H   0  0  0  0  0  0  0  0  0  0  0  0
   -2.2798   -2.0319    0.5658 H   0  0  0  0  0  0  0  0  0  0  0  0
   -3.5376   -0.8434    0.1953 H   0  0  0  0  0  0  0  0  0  0  0  0
   -2.4415   -1.4016   -1.0823 H   0  0  0  0  0  0  0  0  0  0  0  0
    3.1055    1.0994    0.3415 H   0  0  0  0  0  0  0  0  0  0  0  0
  1  7  2  0  0  0  0
  2  3  1  0  0  0  0
  2  5  1  0  0  0  0
  2  6  1  0  0  0  0
  2  8  1  0  0  0  0
  3  4  1  0  0  0  0
  3  9  1  0  0  0  0
  3 10  1  0  0  0  0
  4  7  1  0  0  0  0
  4 11  1  0  0  0  0
  4 12  1  0  0  0  0
  5 13  1  0  0  0  0
  5 14  1  0  0  0  0
  5 15  1  0  0  0  0
  6 16  1  0  0  0  0
  6 17  1  0  0  0  0
  6 18  1  0  0  0  0
  7 19  1  0  0  0  0
M  END
> <PUBCHEM_COMPOUND_CID>
129

> <PUBCHEM_CONFORMER_RMSD>
0.4

> <PUBCHEM_CONFORMER_DIVERSEORDER>
1
5
4
7
8
3
2
6

> <PUBCHEM_MMFF94_PARTIAL_CHARGES>
4
1 -0.57
19 0.06
4 0.06
7 0.45

> <PUBCHEM_EFFECTIVE_ROTOR_COUNT>
3

> <PUBCHEM_PHARMACOPHORE_FEATURES>
2
1 1 acceptor
3 2 5 6 hydrophobe

> <PUBCHEM_HEAVY_ATOM_COUNT>
7

> <PUBCHEM_ATOM_DEF_STEREO_COUNT>
0

> <PUBCHEM_ATOM_UDEF_STEREO_COUNT>
0

> <PUBCHEM_BOND_DEF_STEREO_COUNT>
0

> <PUBCHEM_BOND_UDEF_STEREO_COUNT>
0

> <PUBCHEM_ISOTOPIC_ATOM_COUNT>
0

> <PUBCHEM_COMPONENT_COUNT>
1

> <PUBCHEM_CACTVS_TAUTO_COUNT>
2

> <PUBCHEM_CONFORMER_ID>
0000008100000001

> <PUBCHEM_MMFF94_ENERGY>
4.4384

> <PUBCHEM_FEATURE_SELFOVERLAP>
10.148

> <PUBCHEM_SHAPE_FINGERPRINT>
12897270 3 18271812293590374327
12932741 1 18261685817099666576
12932764 1 18343299288364396792
14390081 3 18273501177741960740
15310529 11 18336264557145886564
16714656 1 18342739602686301545
21040471 1 18055086598972704657
23552423 10 18273213105748062114
29004967 10 17458341940185065330
5084963 1 18409165480744292185
5460574 1 9727642699853498738

> <PUBCHEM_SHAPE_MULTIPOLES>
138.19
4.13
1.19
0.7
1.31
0.11
0.01
-0.76
-0.41
-0.6
-0.12
-0.02
0.04
0.3

> <PUBCHEM_SHAPE_SELFOVERLAP>
243.925

> <PUBCHEM_SHAPE_VOLUME>
90.9

> <PUBCHEM_COORDINATE_TYPE>
2
5
10

$$$$

