442764
  -OEChem-07051212592D

 49 51  0     1  0  0  0  0  0999 V2000
    3.7127    0.1857    0.0000 O   0  0  0  0  0  0  0  0  0  0  0  0
    6.2527   -0.3031    0.0000 O   0  0  0  0  0  0  0  0  0  0  0  0
    5.6649   -2.7355    0.0000 O   0  0  0  0  0  0  0  0  0  0  0  0
    2.0000    0.1969    0.0000 O   0  0  0  0  0  0  0  0  0  0  0  0
    7.1188   -1.7808    0.0000 O   0  0  0  0  0  0  0  0  0  0  0  0
    4.5594    2.6299    0.0000 N   0  0  3  0  0  0  0  0  0  0  0  0
    4.5594    1.6522    0.0000 C   0  0  1  0  0  0  0  0  0  0  0  0
    3.7127    1.1634    0.0000 C   0  0  1  0  0  0  0  0  0  0  0  0
    3.0181    2.0922    0.0000 C   0  0  0  0  0  0  0  0  0  0  0  0
    3.5395    2.8743    0.0000 C   0  0  0  0  0  0  0  0  0  0  0  0
    5.4061    1.1634    0.0000 C   0  0  0  0  0  0  0  0  0  0  0  0
    5.4949    2.8960    0.0000 C   0  0  0  0  0  0  0  0  0  0  0  0
    6.1032    2.0922    0.0000 C   0  0  0  0  0  0  0  0  0  0  0  0
    5.4061    0.1857    0.0000 C   0  0  0  0  0  0  0  0  0  0  0  0
    4.5594   -1.2808    0.0000 C   0  0  2  0  0  0  0  0  0  0  0  0
    3.7127   -1.7696    0.0000 C   0  0  2  0  0  0  0  0  0  0  0  0
    5.4061   -1.7696    0.0000 C   0  0  2  0  0  0  0  0  0  0  0  0
    2.8660   -1.2808    0.0000 C   0  0  0  0  0  0  0  0  0  0  0  0
    2.8660   -0.3031    0.0000 C   0  0  0  0  0  0  0  0  0  0  0  0
    6.2527   -1.2808    0.0000 C   0  0  0  0  0  0  0  0  0  0  0  0
    4.5594   -0.2808    0.0000 C   0  0  0  0  0  0  0  0  0  0  0  0
    3.7127   -2.7696    0.0000 C   0  0  0  0  0  0  0  0  0  0  0  0
    4.8326   -2.5888    0.0000 C   0  0  0  0  0  0  0  0  0  0  0  0
    2.0000   -1.7808    0.0000 C   0  0  0  0  0  0  0  0  0  0  0  0
    4.5594    0.8022    0.0000 H   0  0  0  0  0  0  0  0  0  0  0  0
    2.9061    0.8952    0.0000 H   0  0  0  0  0  0  0  0  0  0  0  0
    2.5446    2.4923    0.0000 H   0  0  0  0  0  0  0  0  0  0  0  0
    2.5669    1.6670    0.0000 H   0  0  0  0  0  0  0  0  0  0  0  0
    3.7538    3.4561    0.0000 H   0  0  0  0  0  0  0  0  0  0  0  0
    2.9869    3.1553    0.0000 H   0  0  0  0  0  0  0  0  0  0  0  0
    6.0316    3.2064    0.0000 H   0  0  0  0  0  0  0  0  0  0  0  0
    5.2530    3.4669    0.0000 H   0  0  0  0  0  0  0  0  0  0  0  0
    6.7232    2.0934    0.0000 H   0  0  0  0  0  0  0  0  0  0  0  0
    4.7955    0.2934    0.0000 H   0  0  0  0  0  0  0  0  0  0  0  0
    5.1940   -0.3969    0.0000 H   0  0  0  0  0  0  0  0  0  0  0  0
    5.0964   -0.9708    0.0000 H   0  0  0  0  0  0  0  0  0  0  0  0
    3.1757   -2.0796    0.0000 H   0  0  0  0  0  0  0  0  0  0  0  0
    5.1794   -0.2808    0.0000 H   0  0  0  0  0  0  0  0  0  0  0  0
    4.5594    0.3392    0.0000 H   0  0  0  0  0  0  0  0  0  0  0  0
    3.9394   -0.2808    0.0000 H   0  0  0  0  0  0  0  0  0  0  0  0
    3.0927   -2.7696    0.0000 H   0  0  0  0  0  0  0  0  0  0  0  0
    3.7127   -3.3896    0.0000 H   0  0  0  0  0  0  0  0  0  0  0  0
    4.3327   -2.7696    0.0000 H   0  0  0  0  0  0  0  0  0  0  0  0
    4.3247   -2.2332    0.0000 H   0  0  0  0  0  0  0  0  0  0  0  0
    4.4770   -3.0967    0.0000 H   0  0  0  0  0  0  0  0  0  0  0  0
    5.3405   -2.9444    0.0000 H   0  0  0  0  0  0  0  0  0  0  0  0
    6.2638   -2.8960    0.0000 H   0  0  0  0  0  0  0  0  0  0  0  0
    1.4631   -1.4708    0.0000 H   0  0  0  0  0  0  0  0  0  0  0  0
    2.0000   -2.4008    0.0000 H   0  0  0  0  0  0  0  0  0  0  0  0
  1  8  1  0  0  0  0
  1 19  1  0  0  0  0
  2 14  1  0  0  0  0
  2 20  1  0  0  0  0
 17  3  1  6  0  0  0
  3 47  1  0  0  0  0
  4 19  2  0  0  0  0
  5 20  2  0  0  0  0
  6  7  1  0  0  0  0
  6 10  1  0  0  0  0
  6 12  1  0  0  0  0
  7  8  1  0  0  0  0
  7 11  1  0  0  0  0
  7 25  1  1  0  0  0
  8  9  1  0  0  0  0
  8 26  1  1  0  0  0
  9 10  1  0  0  0  0
  9 27  1  0  0  0  0
  9 28  1  0  0  0  0
 10 29  1  0  0  0  0
 10 30  1  0  0  0  0
 11 13  2  0  0  0  0
 11 14  1  0  0  0  0
 12 13  1  0  0  0  0
 12 31  1  0  0  0  0
 12 32  1  0  0  0  0
 13 33  1  0  0  0  0
 14 34  1  0  0  0  0
 14 35  1  0  0  0  0
 15 16  1  0  0  0  0
 15 17  1  0  0  0  0
 15 21  1  1  0  0  0
 15 36  1  0  0  0  0
 16 18  1  0  0  0  0
 16 22  1  1  0  0  0
 16 37  1  0  0  0  0
 17 20  1  0  0  0  0
 17 23  1  0  0  0  0
 18 19  1  0  0  0  0
 18 24  2  0  0  0  0
 21 38  1  0  0  0  0
 21 39  1  0  0  0  0
 21 40  1  0  0  0  0
 22 41  1  0  0  0  0
 22 42  1  0  0  0  0
 22 43  1  0  0  0  0
 23 44  1  0  0  0  0
 23 45  1  0  0  0  0
 23 46  1  0  0  0  0
 24 48  1  0  0  0  0
 24 49  1  0  0  0  0
M  END
> <PUBCHEM_COMPOUND_CID>
442764

> <PUBCHEM_COMPOUND_CANONICALIZED>
1

> <PUBCHEM_CACTVS_COMPLEXITY>
613

> <PUBCHEM_CACTVS_HBOND_ACCEPTOR>
6

> <PUBCHEM_CACTVS_HBOND_DONOR>
1

> <PUBCHEM_CACTVS_ROTATABLE_BOND>
0

> <PUBCHEM_CACTVS_SUBSKEYS>
AAADceB6OAAAAAAAAAAAAAAAAAAAAWIAAAAAAAAAAAAQAAAAAAAAHgAACAAADXzhgAYCCAMABgCIAiDSCAKAAAAgAAAACAFIAEgDBBIAoQAHUAAGwACbIIPYbBxOgAAAAAAAAAAAAAAAAAAAAAAAAAAAAA==

> <PUBCHEM_IUPAC_INCHI>
InChI=1S/C18H25NO5/c1-10-11(2)16(20)24-14-6-8-19-7-5-13(15(14)19)9-23-17(21)18(4,22)12(10)3/h5,10,12,14-15,22H,2,6-9H2,1,3-4H3/t10-,12+,14+,15+,18+/m0/s1

> <PUBCHEM_IUPAC_INCHIKEY>
FLUOSFVUPTUYEX-QHOAOGIMSA-N

> <PUBCHEM_XLOGP3_AA>
1.2

> <PUBCHEM_EXACT_MASS>
335.173273

> <PUBCHEM_MOLECULAR_FORMULA>
C18H25NO5

> <PUBCHEM_MOLECULAR_WEIGHT>
335.3948

> <PUBCHEM_OPENEYE_CAN_SMILES>
CC1C(C(C(=O)OCC2=CCN3C2C(CC3)OC(=O)C1=C)(C)O)C

> <PUBCHEM_OPENEYE_ISO_SMILES>
C[C@@H]1[C@H]([C@@](C(=O)OCC2=CCN3[C@H]2[C@@H](CC3)OC(=O)C1=C)(C)O)C

> <PUBCHEM_CACTVS_TPSA>
76.1

> <PUBCHEM_MONOISOTOPIC_WEIGHT>
335.173273

> <PUBCHEM_TOTAL_CHARGE>
0

> <PUBCHEM_HEAVY_ATOM_COUNT>
24

> <PUBCHEM_ATOM_DEF_STEREO_COUNT>
5

> <PUBCHEM_ATOM_UDEF_STEREO_COUNT>
0

> <PUBCHEM_BOND_DEF_STEREO_COUNT>
0

> <PUBCHEM_BOND_UDEF_STEREO_COUNT>
0

> <PUBCHEM_ISOTOPIC_ATOM_COUNT>
0

> <PUBCHEM_COMPONENT_COUNT>
1

> <PUBCHEM_CACTVS_TAUTO_COUNT>
1

> <PUBCHEM_COORDINATE_TYPE>
1
5
255

> <PUBCHEM_BONDANNOTATIONS>
15  21  5
16  22  5
17  3  6
7  25  5
8  26  5

$$$$

