12649
  -OEChem-07051212582D

 24 24  0     0  0  0  0  0  0999 V2000
    2.0463   -0.7196    0.0000 O   0  0  0  0  0  0  0  0  0  0  0  0
    2.0463    1.1482    0.0000 O   0  0  0  0  0  0  0  0  0  0  0  0
    6.1379    0.2143    0.0000 C   0  0  0  0  0  0  0  0  0  0  0  0
    5.1379    0.2143    0.0000 C   0  0  0  0  0  0  0  0  0  0  0  0
    6.6379   -0.6517    0.0000 C   0  0  0  0  0  0  0  0  0  0  0  0
    6.6379    1.0804    0.0000 C   0  0  0  0  0  0  0  0  0  0  0  0
    4.7041   -0.6866    0.0000 C   0  0  0  0  0  0  0  0  0  0  0  0
    4.7041    1.1153    0.0000 C   0  0  0  0  0  0  0  0  0  0  0  0
    3.7291   -0.9092    0.0000 C   0  0  0  0  0  0  0  0  0  0  0  0
    3.7291    1.3378    0.0000 C   0  0  0  0  0  0  0  0  0  0  0  0
    2.9473   -0.2857    0.0000 C   0  0  0  0  0  0  0  0  0  0  0  0
    2.9473    0.7143    0.0000 C   0  0  0  0  0  0  0  0  0  0  0  0
    5.8279   -0.3226    0.0000 H   0  0  0  0  0  0  0  0  0  0  0  0
    6.1010   -0.9617    0.0000 H   0  0  0  0  0  0  0  0  0  0  0  0
    6.9479   -1.1886    0.0000 H   0  0  0  0  0  0  0  0  0  0  0  0
    7.1749   -0.3417    0.0000 H   0  0  0  0  0  0  0  0  0  0  0  0
    7.1749    0.7704    0.0000 H   0  0  0  0  0  0  0  0  0  0  0  0
    6.9479    1.6173    0.0000 H   0  0  0  0  0  0  0  0  0  0  0  0
    6.1010    1.3904    0.0000 H   0  0  0  0  0  0  0  0  0  0  0  0
    5.0906   -1.1714    0.0000 H   0  0  0  0  0  0  0  0  0  0  0  0
    5.0906    1.6000    0.0000 H   0  0  0  0  0  0  0  0  0  0  0  0
    3.5912   -1.5136    0.0000 H   0  0  0  0  0  0  0  0  0  0  0  0
    3.5912    1.9423    0.0000 H   0  0  0  0  0  0  0  0  0  0  0  0
    2.0000   -1.3378    0.0000 H   0  0  0  0  0  0  0  0  0  0  0  0
  1 11  1  0  0  0  0
  1 24  1  0  0  0  0
  2 12  2  0  0  0  0
  3  4  1  0  0  0  0
  3  5  1  0  0  0  0
  3  6  1  0  0  0  0
  3 13  1  0  0  0  0
  4  7  2  0  0  0  0
  4  8  1  0  0  0  0
  5 14  1  0  0  0  0
  5 15  1  0  0  0  0
  5 16  1  0  0  0  0
  6 17  1  0  0  0  0
  6 18  1  0  0  0  0
  6 19  1  0  0  0  0
  7  9  1  0  0  0  0
  7 20  1  0  0  0  0
  8 10  2  0  0  0  0
  8 21  1  0  0  0  0
  9 11  2  0  0  0  0
  9 22  1  0  0  0  0
 10 12  1  0  0  0  0
 10 23  1  0  0  0  0
 11 12  1  0  0  0  0
M  END
> <PUBCHEM_COMPOUND_CID>
12649

> <PUBCHEM_COMPOUND_CANONICALIZED>
1

> <PUBCHEM_CACTVS_COMPLEXITY>
280

> <PUBCHEM_CACTVS_HBOND_ACCEPTOR>
2

> <PUBCHEM_CACTVS_HBOND_DONOR>
1

> <PUBCHEM_CACTVS_ROTATABLE_BOND>
1

> <PUBCHEM_CACTVS_SUBSKEYS>
AAADccBwMAAAAAAAAAAAAAAAAAAAAAAAAAAAAAAABAAAAAAAAAAAGgAACAAADQSAgAACAAAAAgCIAqBSAAIAAAAgIAAICABAAEgIAAAAAQAAQAAAwAAIgYIAAAAIAAAAAAAAAAAAAAAAAAAAAAAAAAAAAA==

> <PUBCHEM_IUPAC_OPENEYE_NAME>
2-hydroxy-5-isopropyl-cyclohepta-2,4,6-trien-1-one

> <PUBCHEM_IUPAC_CAS_NAME>
2-hydroxy-5-propan-2-yl-1-cyclohepta-2,4,6-trienone

> <PUBCHEM_IUPAC_NAME>
2-hydroxy-5-propan-2-ylcyclohepta-2,4,6-trien-1-one

> <PUBCHEM_IUPAC_SYSTEMATIC_NAME>
2-oxidanyl-5-propan-2-yl-cyclohepta-2,4,6-trien-1-one

> <PUBCHEM_IUPAC_TRADITIONAL_NAME>
2-hydroxy-5-isopropyl-cyclohepta-2,4,6-trien-1-one

> <PUBCHEM_IUPAC_INCHI>
InChI=1S/C10H12O2/c1-7(2)8-3-5-9(11)10(12)6-4-8/h3-7H,1-2H3,(H,11,12)

> <PUBCHEM_IUPAC_INCHIKEY>
WKEWHSLZDDZONF-UHFFFAOYSA-N

> <PUBCHEM_XLOGP3>
1.9

> <PUBCHEM_EXACT_MASS>
164.08373

> <PUBCHEM_MOLECULAR_FORMULA>
C10H12O2

> <PUBCHEM_MOLECULAR_WEIGHT>
164.20108

> <PUBCHEM_OPENEYE_CAN_SMILES>
CC(C)C1=CC=C(C(=O)C=C1)O

> <PUBCHEM_OPENEYE_ISO_SMILES>
CC(C)C1=CC=C(C(=O)C=C1)O

> <PUBCHEM_CACTVS_TPSA>
37.3

> <PUBCHEM_MONOISOTOPIC_WEIGHT>
164.08373

> <PUBCHEM_TOTAL_CHARGE>
0

> <PUBCHEM_HEAVY_ATOM_COUNT>
12

> <PUBCHEM_ATOM_DEF_STEREO_COUNT>
0

> <PUBCHEM_ATOM_UDEF_STEREO_COUNT>
0

> <PUBCHEM_BOND_DEF_STEREO_COUNT>
0

> <PUBCHEM_BOND_UDEF_STEREO_COUNT>
0

> <PUBCHEM_ISOTOPIC_ATOM_COUNT>
0

> <PUBCHEM_COMPONENT_COUNT>
1

> <PUBCHEM_CACTVS_TAUTO_COUNT>
19

> <PUBCHEM_COORDINATE_TYPE>
1
5
255

> <PUBCHEM_BONDANNOTATIONS>
10  12  8
11  12  8
4  7  8
4  8  8
7  9  8
8  10  8
9  11  8

$$$$

