10595
  -OEChem-06261204443D

 78 81  0     1  0  0  0  0  0999 V2000
    3.6385   -3.4058    0.5914 S   0  0  0  0  0  0  0  0  0  0  0  0
   -3.5521   -4.0755    1.6999 O   0  0  0  0  0  0  0  0  0  0  0  0
    4.3759    0.6831   -1.7664 O   0  0  0  0  0  0  0  0  0  0  0  0
    3.2282   -4.7837   -0.1788 O   0  0  0  0  0  0  0  0  0  0  0  0
    2.4463   -2.5971    0.7687 O   0  0  0  0  0  0  0  0  0  0  0  0
    4.5050   -3.7362    1.7081 O   0  0  0  0  0  0  0  0  0  0  0  0
    4.6083   -0.4396    0.2548 N   0  0  0  0  0  0  0  0  0  0  0  0
   -0.3018    2.2790   -0.2386 C   0  0  1  0  0  0  0  0  0  0  0  0
   -1.4870    2.0675    0.7280 C   0  0  2  0  0  0  0  0  0  0  0  0
   -2.6837    1.3776    0.0633 C   0  0  1  0  0  0  0  0  0  0  0  0
   -2.2261   -0.0217   -0.4623 C   0  0  1  0  0  0  0  0  0  0  0  0
   -3.4123   -0.8192   -1.1243 C   0  0  2  0  0  0  0  0  0  0  0  0
    0.6653    3.0214    0.7157 C   0  0  2  0  0  0  0  0  0  0  0  0
    0.1810    0.8964   -0.6969 C   0  0  0  0  0  0  0  0  0  0  0  0
   -4.6037   -0.9155   -0.1119 C   0  0  2  0  0  0  0  0  0  0  0  0
   -0.9536    0.0826   -1.3462 C   0  0  0  0  0  0  0  0  0  0  0  0
   -1.6808    3.4408    1.3640 C   0  0  0  0  0  0  0  0  0  0  0  0
   -3.8651    1.2497    1.0334 C   0  0  0  0  0  0  0  0  0  0  0  0
   -0.2537    4.0098    1.4713 C   0  0  0  0  0  0  0  0  0  0  0  0
   -5.0233    0.4616    0.4289 C   0  0  0  0  0  0  0  0  0  0  0  0
   -2.9991   -2.2611   -1.5418 C   0  0  0  0  0  0  0  0  0  0  0  0
   -0.6404    3.1481   -1.4758 C   0  0  0  0  0  0  0  0  0  0  0  0
    1.8670    3.7015    0.0756 C   0  0  2  0  0  0  0  0  0  0  0  0
   -4.3162   -1.8806    1.0579 C   0  0  0  0  0  0  0  0  0  0  0  0
   -3.8972   -0.1204   -2.4214 C   0  0  0  0  0  0  0  0  0  0  0  0
   -2.6973   -3.1841   -0.3680 C   0  0  0  0  0  0  0  0  0  0  0  0
   -3.8878   -3.2641    0.5789 C   0  0  1  0  0  0  0  0  0  0  0  0
    2.7811    2.7114   -0.6745 C   0  0  0  0  0  0  0  0  0  0  0  0
    2.6801    4.4420    1.1437 C   0  0  0  0  0  0  0  0  0  0  0  0
    3.3035    1.5793    0.2106 C   0  0  0  0  0  0  0  0  0  0  0  0
    4.1441    0.5789   -0.5649 C   0  0  0  0  0  0  0  0  0  0  0  0
    5.4385   -1.5214   -0.2230 C   0  0  0  0  0  0  0  0  0  0  0  0
    4.6182   -2.7048   -0.6995 C   0  0  0  0  0  0  0  0  0  0  0  0
   -1.1563    1.4018    1.5432 H   0  0  0  0  0  0  0  0  0  0  0  0
   -3.0233    1.9931   -0.7757 H   0  0  0  0  0  0  0  0  0  0  0  0
   -1.9081   -0.5880    0.4241 H   0  0  0  0  0  0  0  0  0  0  0  0
    1.0183    2.3113    1.4767 H   0  0  0  0  0  0  0  0  0  0  0  0
    0.9853    0.9362   -1.4292 H   0  0  0  0  0  0  0  0  0  0  0  0
    0.5461    0.3193    0.1608 H   0  0  0  0  0  0  0  0  0  0  0  0
   -5.4725   -1.3277   -0.6457 H   0  0  0  0  0  0  0  0  0  0  0  0
   -0.5600   -0.9192   -1.5503 H   0  0  0  0  0  0  0  0  0  0  0  0
   -1.1984    0.5223   -2.3179 H   0  0  0  0  0  0  0  0  0  0  0  0
   -2.3049    4.0889    0.7386 H   0  0  0  0  0  0  0  0  0  0  0  0
   -2.1557    3.3729    2.3482 H   0  0  0  0  0  0  0  0  0  0  0  0
   -3.5375    0.7744    1.9655 H   0  0  0  0  0  0  0  0  0  0  0  0
   -4.2297    2.2464    1.3099 H   0  0  0  0  0  0  0  0  0  0  0  0
   -0.2314    5.0152    1.0355 H   0  0  0  0  0  0  0  0  0  0  0  0
    0.0510    4.0981    2.5202 H   0  0  0  0  0  0  0  0  0  0  0  0
   -5.4717    1.0513   -0.3798 H   0  0  0  0  0  0  0  0  0  0  0  0
   -5.8111    0.3433    1.1831 H   0  0  0  0  0  0  0  0  0  0  0  0
   -2.1409   -2.2445   -2.2222 H   0  0  0  0  0  0  0  0  0  0  0  0
   -3.8176   -2.7137   -2.1197 H   0  0  0  0  0  0  0  0  0  0  0  0
   -1.4655    2.7391   -2.0650 H   0  0  0  0  0  0  0  0  0  0  0  0
    0.2144    3.2205   -2.1561 H   0  0  0  0  0  0  0  0  0  0  0  0
   -0.9251    4.1695   -1.2041 H   0  0  0  0  0  0  0  0  0  0  0  0
    1.5377    4.4589   -0.6464 H   0  0  0  0  0  0  0  0  0  0  0  0
   -5.2132   -1.9814    1.6830 H   0  0  0  0  0  0  0  0  0  0  0  0
   -3.5468   -1.4819    1.7295 H   0  0  0  0  0  0  0  0  0  0  0  0
   -3.1304   -0.1465   -3.2026 H   0  0  0  0  0  0  0  0  0  0  0  0
   -4.1734    0.9252   -2.2666 H   0  0  0  0  0  0  0  0  0  0  0  0
   -4.7809   -0.6263   -2.8283 H   0  0  0  0  0  0  0  0  0  0  0  0
   -1.8017   -2.8537    0.1714 H   0  0  0  0  0  0  0  0  0  0  0  0
   -2.4581   -4.1890   -0.7375 H   0  0  0  0  0  0  0  0  0  0  0  0
   -4.7257   -3.7499    0.0642 H   0  0  0  0  0  0  0  0  0  0  0  0
    2.3083    2.3455   -1.5864 H   0  0  0  0  0  0  0  0  0  0  0  0
    3.6506    3.2702   -1.0507 H   0  0  0  0  0  0  0  0  0  0  0  0
    2.1269    5.3013    1.5367 H   0  0  0  0  0  0  0  0  0  0  0  0
    3.6139    4.8333    0.7251 H   0  0  0  0  0  0  0  0  0  0  0  0
    2.9324    3.7973    1.9920 H   0  0  0  0  0  0  0  0  0  0  0  0
   -4.3329   -4.1150    2.2780 H   0  0  0  0  0  0  0  0  0  0  0  0
    3.9447    1.9879    1.0006 H   0  0  0  0  0  0  0  0  0  0  0  0
    2.5075    1.0174    0.6994 H   0  0  0  0  0  0  0  0  0  0  0  0
    4.3553   -0.4380    1.2388 H   0  0  0  0  0  0  0  0  0  0  0  0
    6.0992   -1.8066    0.6021 H   0  0  0  0  0  0  0  0  0  0  0  0
    6.0643   -1.1527   -1.0429 H   0  0  0  0  0  0  0  0  0  0  0  0
    3.9405   -2.4234   -1.5118 H   0  0  0  0  0  0  0  0  0  0  0  0
    5.2937   -3.4880   -1.0586 H   0  0  0  0  0  0  0  0  0  0  0  0
    3.9529   -5.4445   -0.2818 H   0  0  0  0  0  0  0  0  0  0  0  0
  1  4  1  0  0  0  0
  1  5  2  0  0  0  0
  1  6  2  0  0  0  0
  1 33  1  0  0  0  0
  2 27  1  0  0  0  0
  2 70  1  0  0  0  0
  3 31  2  0  0  0  0
  4 78  1  0  0  0  0
  7 31  1  0  0  0  0
  7 32  1  0  0  0  0
  7 73  1  0  0  0  0
  8  9  1  0  0  0  0
  8 13  1  0  0  0  0
  8 14  1  0  0  0  0
  8 22  1  0  0  0  0
  9 10  1  0  0  0  0
  9 17  1  0  0  0  0
  9 34  1  0  0  0  0
 10 11  1  0  0  0  0
 10 18  1  0  0  0  0
 10 35  1  0  0  0  0
 11 12  1  0  0  0  0
 11 16  1  0  0  0  0
 11 36  1  0  0  0  0
 12 15  1  0  0  0  0
 12 21  1  0  0  0  0
 12 25  1  0  0  0  0
 13 19  1  0  0  0  0
 13 23  1  0  0  0  0
 13 37  1  0  0  0  0
 14 16  1  0  0  0  0
 14 38  1  0  0  0  0
 14 39  1  0  0  0  0
 15 20  1  0  0  0  0
 15 24  1  0  0  0  0
 15 40  1  0  0  0  0
 16 41  1  0  0  0  0
 16 42  1  0  0  0  0
 17 19  1  0  0  0  0
 17 43  1  0  0  0  0
 17 44  1  0  0  0  0
 18 20  1  0  0  0  0
 18 45  1  0  0  0  0
 18 46  1  0  0  0  0
 19 47  1  0  0  0  0
 19 48  1  0  0  0  0
 20 49  1  0  0  0  0
 20 50  1  0  0  0  0
 21 26  1  0  0  0  0
 21 51  1  0  0  0  0
 21 52  1  0  0  0  0
 22 53  1  0  0  0  0
 22 54  1  0  0  0  0
 22 55  1  0  0  0  0
 23 28  1  0  0  0  0
 23 29  1  0  0  0  0
 23 56  1  0  0  0  0
 24 27  1  0  0  0  0
 24 57  1  0  0  0  0
 24 58  1  0  0  0  0
 25 59  1  0  0  0  0
 25 60  1  0  0  0  0
 25 61  1  0  0  0  0
 26 27  1  0  0  0  0
 26 62  1  0  0  0  0
 26 63  1  0  0  0  0
 27 64  1  0  0  0  0
 28 30  1  0  0  0  0
 28 65  1  0  0  0  0
 28 66  1  0  0  0  0
 29 67  1  0  0  0  0
 29 68  1  0  0  0  0
 29 69  1  0  0  0  0
 30 31  1  0  0  0  0
 30 71  1  0  0  0  0
 30 72  1  0  0  0  0
 32 33  1  0  0  0  0
 32 74  1  0  0  0  0
 32 75  1  0  0  0  0
 33 76  1  0  0  0  0
 33 77  1  0  0  0  0
M  END
> <PUBCHEM_COMPOUND_CID>
10595

> <PUBCHEM_CONFORMER_RMSD>
1

> <PUBCHEM_CONFORMER_DIVERSEORDER>
1
151
197
210
116
15
102
213
37
104
19
56
122
215
129
81
12
223
60
136
9
111
105
173
22
68
127
91
77
137
55
217
8
131
27
150
63
125
35
198
140
219
10
87
157
21
57
148
203
58
89
2
94
50
154
152
24
221
75
209
11
153
206
121
79
78
185
103
189
14
172
133
212
95
107
33
49
106
30
71
195
48
83
179
177
74
25
62
191
31
126
53
175
117
163
90
65
156
183
73
144
167
61
138
110
113
32
176
46
142
222
112
13
123
158
43
93
115
146
145
52
118
66
184
44
161
187
36
98
99
67
114
76
51
216
41
143
109
92
181
34
84
155
149
72
85
17
164
141
80
23
82
180
20
166
207
160
38
134
54
190
186
108
132
16
178
26
5
208
159
192
96
124
128
3
214
64
168
196
69
119
205
18
220
6
193
135
139
199
201
97
4
194
7
171
88
40
200
169
218
29
59
39
188
202
130
170
182
120
174
100
204
211
165
162
147
45
28
47
70
42
86
101

> <PUBCHEM_MMFF94_PARTIAL_CHARGES>
15
1 1.38
2 -0.68
27 0.28
3 -0.57
30 0.06
31 0.57
32 0.3
33 0.11
4 -0.68
5 -0.65
6 -0.65
7 -0.73
70 0.4
73 0.37
78 0.5

> <PUBCHEM_EFFECTIVE_ROTOR_COUNT>
10.2

> <PUBCHEM_PHARMACOPHORE_FEATURES>
13
1 2 acceptor
1 2 donor
1 29 hydrophobe
1 3 acceptor
1 4 acceptor
1 5 acceptor
1 6 acceptor
1 7 donor
4 1 4 5 6 anion
5 8 9 13 17 19 rings
6 10 11 12 15 18 20 rings
6 12 15 21 24 26 27 rings
6 8 9 10 11 14 16 rings

> <PUBCHEM_HEAVY_ATOM_COUNT>
33

> <PUBCHEM_ATOM_DEF_STEREO_COUNT>
8

> <PUBCHEM_ATOM_UDEF_STEREO_COUNT>
1

> <PUBCHEM_BOND_DEF_STEREO_COUNT>
0

> <PUBCHEM_BOND_UDEF_STEREO_COUNT>
0

> <PUBCHEM_ISOTOPIC_ATOM_COUNT>
0

> <PUBCHEM_COMPONENT_COUNT>
1

> <PUBCHEM_CACTVS_TAUTO_COUNT>
2

> <PUBCHEM_CONFORMER_ID>
0000296300000001

> <PUBCHEM_MMFF94_ENERGY>
92.5534

> <PUBCHEM_FEATURE_SELFOVERLAP>
66.15

> <PUBCHEM_SHAPE_FINGERPRINT>
10305334 12 17397266508603384439
10928967 22 18117267065040671374
1100329 8 18264766735139340041
11285246 1 18131062766673889986
12107183 9 18188760760513120097
12422481 6 17168683298482042685
13140716 1 18261949639914226157
13383661 66 17409347500230817635
15001296 14 18341893017461940482
15320294 125 16904115800304180506
15320467 1 18337669711716737018
16628084 112 18266743661694658445
16728300 4 17695051598062131689
19319366 153 17615124386934856196
20764821 26 17259624742755195006
20775530 9 18338523057514703044
21458453 9 17975456540217286066
23559900 14 18410864226230636376
325973 47 18338513037066611178
3737641 26 18338791213365454882
4394409 98 17267252509982981703
44880168 125 16951690392663788278
463206 1 18339920515155285018
50080093 196 17107638155447778102
5104073 3 17969490516588776465
5309563 4 18336263449181974382
6422251 121 18196368118024829779
86090 222 17697031436035531810

> <PUBCHEM_SHAPE_MULTIPOLES>
648.65
11.24
7.01
1.62
4.53
1.78
0.33
10.49
-0.2
5.29
-3.02
-0.85
0.05
-0.41

> <PUBCHEM_SHAPE_SELFOVERLAP>
1332.538

> <PUBCHEM_SHAPE_VOLUME>
377.2

> <PUBCHEM_COORDINATE_TYPE>
2
5
10

$$$$

