13939876
  -OEChem-07051213083D

 76 79  0     1  0  0  0  0  0999 V2000
    0.2039    0.8177    1.2532 O   0  0  0  0  0  0  0  0  0  0  0  0
    4.9634   -1.8225    2.0593 O   0  0  0  0  0  0  0  0  0  0  0  0
    6.8498    2.0955    0.0196 O   0  0  0  0  0  0  0  0  0  0  0  0
   -5.1928   -1.9755   -1.1962 O   0  0  0  0  0  0  0  0  0  0  0  0
   -8.2204    1.4050    0.8670 O   0  0  0  0  0  0  0  0  0  0  0  0
   -0.3126   -0.8634   -0.4749 C   0  0  1  0  0  0  0  0  0  0  0  0
    0.4573   -0.5429    0.8347 C   0  0  1  0  0  0  0  0  0  0  0  0
   -1.7792   -0.8069    0.0234 C   0  0  2  0  0  0  0  0  0  0  0  0
    2.4608    0.2880   -0.5389 C   0  0  2  0  0  0  0  0  0  0  0  0
    3.9830    0.0438   -0.8825 C   0  0  2  0  0  0  0  0  0  0  0  0
    0.0369    0.2068   -1.5216 C   0  0  0  0  0  0  0  0  0  0  0  0
    1.9548   -0.5898    0.6189 C   0  0  0  0  0  0  0  0  0  0  0  0
   -0.2380   -1.4604    1.8544 C   0  0  0  0  0  0  0  0  0  0  0  0
    1.5481    0.2280   -1.8036 C   0  0  0  0  0  0  0  0  0  0  0  0
   -1.7193   -1.4820    1.4136 C   0  0  0  0  0  0  0  0  0  0  0  0
    4.8123   -0.0669    0.4249 C   0  0  1  0  0  0  0  0  0  0  0  0
   -2.8335   -1.4243   -0.8866 C   0  0  1  0  0  0  0  0  0  0  0  0
    0.0164   -2.2741   -1.0396 C   0  0  0  0  0  0  0  0  0  0  0  0
    4.5718    1.2009   -1.7390 C   0  0  0  0  0  0  0  0  0  0  0  0
    2.7695   -1.2677    1.4416 C   0  0  0  0  0  0  0  0  0  0  0  0
    4.9282    1.2627    1.1891 C   0  0  0  0  0  0  0  0  0  0  0  0
    4.1836   -1.2660   -1.6935 C   0  0  0  0  0  0  0  0  0  0  0  0
    4.2402   -1.1288    1.3457 C   0  0  0  0  0  0  0  0  0  0  0  0
    4.6972    2.5294   -0.9887 C   0  0  0  0  0  0  0  0  0  0  0  0
    5.4833    2.3830    0.3125 C   0  0  2  0  0  0  0  0  0  0  0  0
   -4.2722   -1.3232   -0.3180 C   0  0  1  0  0  0  0  0  0  0  0  0
   -2.7562   -0.7738   -2.2765 C   0  0  0  0  0  0  0  0  0  0  0  0
   -4.7975    0.1080   -0.1137 C   0  0  0  0  0  0  0  0  0  0  0  0
   -6.2439    0.1678    0.3836 C   0  0  0  0  0  0  0  0  0  0  0  0
   -6.8369    1.5840    0.5330 C   0  0  0  0  0  0  0  0  0  0  0  0
   -6.7735    2.3776   -0.7738 C   0  0  0  0  0  0  0  0  0  0  0  0
   -6.1847    2.3698    1.6727 C   0  0  0  0  0  0  0  0  0  0  0  0
   -2.0335    0.2498    0.1833 H   0  0  0  0  0  0  0  0  0  0  0  0
    2.3615    1.3147   -0.1621 H   0  0  0  0  0  0  0  0  0  0  0  0
   -0.2784    1.2019   -1.1848 H   0  0  0  0  0  0  0  0  0  0  0  0
   -0.4398    0.0476   -2.4872 H   0  0  0  0  0  0  0  0  0  0  0  0
   -0.1538   -1.0924    2.8827 H   0  0  0  0  0  0  0  0  0  0  0  0
    0.1593   -2.4814    1.8260 H   0  0  0  0  0  0  0  0  0  0  0  0
    1.7789   -0.6555   -2.4058 H   0  0  0  0  0  0  0  0  0  0  0  0
    1.7603    1.0920   -2.4443 H   0  0  0  0  0  0  0  0  0  0  0  0
   -2.0771   -2.5176    1.3913 H   0  0  0  0  0  0  0  0  0  0  0  0
   -2.3434   -0.9345    2.1289 H   0  0  0  0  0  0  0  0  0  0  0  0
    5.8274   -0.3999    0.1645 H   0  0  0  0  0  0  0  0  0  0  0  0
   -2.6365   -2.4948   -1.0283 H   0  0  0  0  0  0  0  0  0  0  0  0
    1.0937   -2.4430   -1.1308 H   0  0  0  0  0  0  0  0  0  0  0  0
   -0.3664   -3.0774   -0.4016 H   0  0  0  0  0  0  0  0  0  0  0  0
   -0.4039   -2.4266   -2.0373 H   0  0  0  0  0  0  0  0  0  0  0  0
    3.9775    1.3562   -2.6462 H   0  0  0  0  0  0  0  0  0  0  0  0
    5.5729    0.9135   -2.0896 H   0  0  0  0  0  0  0  0  0  0  0  0
    2.3992   -1.8727    2.2610 H   0  0  0  0  0  0  0  0  0  0  0  0
    3.9524    1.5638    1.5889 H   0  0  0  0  0  0  0  0  0  0  0  0
    5.5825    1.1138    2.0580 H   0  0  0  0  0  0  0  0  0  0  0  0
    5.2465   -1.5270   -1.7621 H   0  0  0  0  0  0  0  0  0  0  0  0
    3.6667   -2.1177   -1.2409 H   0  0  0  0  0  0  0  0  0  0  0  0
    3.8268   -1.1645   -2.7237 H   0  0  0  0  0  0  0  0  0  0  0  0
    0.6142    0.9426    2.1264 H   0  0  0  0  0  0  0  0  0  0  0  0
    5.2068    3.2463   -1.6441 H   0  0  0  0  0  0  0  0  0  0  0  0
    3.7037    2.9399   -0.7793 H   0  0  0  0  0  0  0  0  0  0  0  0
    5.4617    3.3322    0.8591 H   0  0  0  0  0  0  0  0  0  0  0  0
   -4.3274   -1.8547    0.6389 H   0  0  0  0  0  0  0  0  0  0  0  0
   -2.6523    0.3145   -2.2227 H   0  0  0  0  0  0  0  0  0  0  0  0
   -3.6680   -0.9695   -2.8526 H   0  0  0  0  0  0  0  0  0  0  0  0
   -1.9590   -1.2020   -2.8859 H   0  0  0  0  0  0  0  0  0  0  0  0
   -4.7410    0.6372   -1.0702 H   0  0  0  0  0  0  0  0  0  0  0  0
   -4.1548    0.6387    0.5948 H   0  0  0  0  0  0  0  0  0  0  0  0
    7.3275    2.0445    0.8650 H   0  0  0  0  0  0  0  0  0  0  0  0
   -4.8983   -2.8968   -1.2962 H   0  0  0  0  0  0  0  0  0  0  0  0
   -6.3200   -0.3587    1.3446 H   0  0  0  0  0  0  0  0  0  0  0  0
   -6.8918   -0.3980   -0.2991 H   0  0  0  0  0  0  0  0  0  0  0  0
   -7.3505    3.3063   -0.6926 H   0  0  0  0  0  0  0  0  0  0  0  0
   -7.2213    1.8089   -1.5965 H   0  0  0  0  0  0  0  0  0  0  0  0
   -5.7487    2.6447   -1.0484 H   0  0  0  0  0  0  0  0  0  0  0  0
   -5.1292    2.5794    1.4753 H   0  0  0  0  0  0  0  0  0  0  0  0
   -6.6975    3.3256    1.8312 H   0  0  0  0  0  0  0  0  0  0  0  0
   -6.2601    1.8190    2.6171 H   0  0  0  0  0  0  0  0  0  0  0  0
   -8.6217    2.2845    0.9722 H   0  0  0  0  0  0  0  0  0  0  0  0
  1  7  1  0  0  0  0
  1 56  1  0  0  0  0
  2 23  2  0  0  0  0
  3 25  1  0  0  0  0
  3 66  1  0  0  0  0
  4 26  1  0  0  0  0
  4 67  1  0  0  0  0
  5 30  1  0  0  0  0
  5 76  1  0  0  0  0
  6  7  1  0  0  0  0
  6  8  1  0  0  0  0
  6 11  1  0  0  0  0
  6 18  1  0  0  0  0
  7 12  1  0  0  0  0
  7 13  1  0  0  0  0
  8 15  1  0  0  0  0
  8 17  1  0  0  0  0
  8 33  1  0  0  0  0
  9 10  1  0  0  0  0
  9 12  1  0  0  0  0
  9 14  1  0  0  0  0
  9 34  1  0  0  0  0
 10 16  1  0  0  0  0
 10 19  1  0  0  0  0
 10 22  1  0  0  0  0
 11 14  1  0  0  0  0
 11 35  1  0  0  0  0
 11 36  1  0  0  0  0
 12 20  2  0  0  0  0
 13 15  1  0  0  0  0
 13 37  1  0  0  0  0
 13 38  1  0  0  0  0
 14 39  1  0  0  0  0
 14 40  1  0  0  0  0
 15 41  1  0  0  0  0
 15 42  1  0  0  0  0
 16 21  1  0  0  0  0
 16 23  1  0  0  0  0
 16 43  1  0  0  0  0
 17 26  1  0  0  0  0
 17 27  1  0  0  0  0
 17 44  1  0  0  0  0
 18 45  1  0  0  0  0
 18 46  1  0  0  0  0
 18 47  1  0  0  0  0
 19 24  1  0  0  0  0
 19 48  1  0  0  0  0
 19 49  1  0  0  0  0
 20 23  1  0  0  0  0
 20 50  1  0  0  0  0
 21 25  1  0  0  0  0
 21 51  1  0  0  0  0
 21 52  1  0  0  0  0
 22 53  1  0  0  0  0
 22 54  1  0  0  0  0
 22 55  1  0  0  0  0
 24 25  1  0  0  0  0
 24 57  1  0  0  0  0
 24 58  1  0  0  0  0
 25 59  1  0  0  0  0
 26 28  1  0  0  0  0
 26 60  1  0  0  0  0
 27 61  1  0  0  0  0
 27 62  1  0  0  0  0
 27 63  1  0  0  0  0
 28 29  1  0  0  0  0
 28 64  1  0  0  0  0
 28 65  1  0  0  0  0
 29 30  1  0  0  0  0
 29 68  1  0  0  0  0
 29 69  1  0  0  0  0
 30 31  1  0  0  0  0
 30 32  1  0  0  0  0
 31 70  1  0  0  0  0
 31 71  1  0  0  0  0
 31 72  1  0  0  0  0
 32 73  1  0  0  0  0
 32 74  1  0  0  0  0
 32 75  1  0  0  0  0
M  END
> <PUBCHEM_COMPOUND_CID>
13939876

> <PUBCHEM_CONFORMER_RMSD>
0.8

> <PUBCHEM_CONFORMER_DIVERSEORDER>
1
11
6
4
13
5
14
15
10
3
16
12
17
9
7
2
8

> <PUBCHEM_MMFF94_PARTIAL_CHARGES>
19
1 -0.68
12 -0.28
16 0.06
2 -0.57
20 -0.14
23 0.49
25 0.28
26 0.28
3 -0.68
30 0.28
4 -0.68
5 -0.68
50 0.15
56 0.4
66 0.4
67 0.4
7 0.42
76 0.4
9 0.14

> <PUBCHEM_EFFECTIVE_ROTOR_COUNT>
6.8

> <PUBCHEM_PHARMACOPHORE_FEATURES>
15
1 1 acceptor
1 1 donor
1 2 acceptor
1 27 hydrophobe
1 3 acceptor
1 3 donor
1 4 acceptor
1 4 donor
1 5 acceptor
1 5 donor
3 30 31 32 hydrophobe
5 6 7 8 13 15 rings
6 10 16 19 21 24 25 rings
6 6 7 9 11 12 14 rings
6 9 10 12 16 20 23 rings

> <PUBCHEM_HEAVY_ATOM_COUNT>
32

> <PUBCHEM_ATOM_DEF_STEREO_COUNT>
9

> <PUBCHEM_ATOM_UDEF_STEREO_COUNT>
0

> <PUBCHEM_BOND_DEF_STEREO_COUNT>
0

> <PUBCHEM_BOND_UDEF_STEREO_COUNT>
0

> <PUBCHEM_ISOTOPIC_ATOM_COUNT>
0

> <PUBCHEM_COMPONENT_COUNT>
1

> <PUBCHEM_CACTVS_TAUTO_COUNT>
5

> <PUBCHEM_CONFORMER_ID>
00D4B4A400000001

> <PUBCHEM_MMFF94_ENERGY>
111.8038

> <PUBCHEM_FEATURE_SELFOVERLAP>
76.248

> <PUBCHEM_SHAPE_FINGERPRINT>
10 15 18409725154581840899
10554248 39 18115600373402218319
10693767 8 6194574264218373260
10906281 52 17203037475304815254
11456790 92 17846227678440141208
11475781 23 16226334814765749425
11578080 2 17915169127359193976
11646440 116 16773801380967787428
11963148 33 11887953237935731273
12011746 2 15140951808670405030
12035758 1 16056602031996112785
12236239 1 18411986840413683435
12422481 6 17131831001892778535
12788726 201 17967529073527418112
13533116 47 17989212568562441386
13690498 29 16878795860113895039
13782708 43 12751236987311850441
14849402 71 17988073388627567965
15081414 286 17132115727811689838
15082195 135 17022895744788784184
15183329 4 17385720309936385449
15188451 53 10807937046657275481
15238133 3 18261116278777183163
15475509 35 11959739239690049028
1577012 14 18411420605490399023
15840311 113 18272369806531962997
16994733 274 18189058599388971024
17913733 40 17060342942040661579
17980427 23 18342739585875698293
18222031 100 6194845869011609646
19958102 18 15791723135804187589
20281389 69 18343582967260944165
20511986 3 17530969051329252870
21033648 29 18261119517367153800
21130935 74 17917994975380154147
21424621 283 18412261727316321955
21521239 73 6266894663062370989
21792934 111 16773809120946844981
22122407 14 18339351964385779105
22149856 69 16773790438023762097
2215653 11 14273731833066638190
23081809 10 18411708664430850463
23559900 14 14201679689817326370
23569914 152 4674635623799407769
23569943 247 17487358150816832427
24771293 8 18059013865787328436
2748736 6 18187367675191189525
3633792 109 17822280315239537254
3663271 9 18273215270849604987
3680242 22 16917078724319737480
3918712 181 18114463452873772081
392239 28 16271925970296668679
394071 54 17489872601002205124
4093350 32 18410007750149831542
4098825 35 18259981587367490190
4340502 62 17275106115508271618
465052 167 12679464179406427566
5104073 3 17489590021849628379
5385378 56 17632581569408828946
6328613 192 18407760335503023857

> <PUBCHEM_SHAPE_MULTIPOLES>
629.2
18.39
2.55
1.99
23.01
1.08
0.13
14.15
-2.95
0.22
-0.19
-0.67
-0.43
-2.14

> <PUBCHEM_SHAPE_SELFOVERLAP>
1323.402

> <PUBCHEM_SHAPE_VOLUME>
352.3

> <PUBCHEM_COORDINATE_TYPE>
2
5
10

$$$$

