23724707
  -OEChem-07051213082D

 96101  0     1  0  0  0  0  0999 V2000
    7.7331   -3.2197    0.0000 O   0  0  0  0  0  0  0  0  0  0  0  0
   12.0795   -2.7743    0.0000 O   0  0  0  0  0  0  0  0  0  0  0  0
    4.2690    2.7803    0.0000 O   0  0  0  0  0  0  0  0  0  0  0  0
    6.8671   -1.7197    0.0000 O   0  0  0  0  0  0  0  0  0  0  0  0
   10.3475   -2.7543    0.0000 O   0  0  0  0  0  0  0  0  0  0  0  0
    5.1350   -4.7197    0.0000 O   0  0  0  0  0  0  0  0  0  0  0  0
    6.8671   -5.7197    0.0000 O   0  0  0  0  0  0  0  0  0  0  0  0
    6.0010    2.7803    0.0000 O   0  0  0  0  0  0  0  0  0  0  0  0
   12.0448   -5.7741    0.0000 O   0  0  0  0  0  0  0  0  0  0  0  0
   13.7883   -4.7942    0.0000 O   0  0  0  0  0  0  0  0  0  0  0  0
    5.1350   -2.7197    0.0000 O   0  0  0  0  0  0  0  0  0  0  0  0
   10.3244   -4.7542    0.0000 O   0  0  0  0  0  0  0  0  0  0  0  0
    4.2690    5.7803    0.0000 O   0  0  0  0  0  0  0  0  0  0  0  0
    2.5369    4.7803    0.0000 O   0  0  0  0  0  0  0  0  0  0  0  0
    6.0010    4.7803    0.0000 O   0  0  0  0  0  0  0  0  0  0  0  0
    8.5991   -5.7197    0.0000 O   0  0  0  0  0  0  0  0  0  0  0  0
   14.6716   -3.3043    0.0000 O   0  0  0  0  0  0  0  0  0  0  0  0
    8.5991    0.2803    0.0000 O   0  3  0  0  0  0  0  0  0  0  0  0
    2.5369    1.7803    0.0000 O   0  0  0  0  0  0  0  0  0  0  0  0
    4.2690    1.7803    0.0000 O   0  0  0  0  0  0  0  0  0  0  0  0
   12.1292    0.3045    0.0000 O   0  0  0  0  0  0  0  0  0  0  0  0
    4.2690   -0.2197    0.0000 O   0  0  0  0  0  0  0  0  0  0  0  0
    6.0010   -4.2197    0.0000 C   0  0  1  0  0  0  0  0  0  0  0  0
    6.8671   -4.7197    0.0000 C   0  0  1  0  0  0  0  0  0  0  0  0
   12.0563   -4.7742    0.0000 C   0  0  1  0  0  0  0  0  0  0  0  0
   12.9281   -4.2842    0.0000 C   0  0  1  0  0  0  0  0  0  0  0  0
    6.0010   -3.2197    0.0000 C   0  0  2  0  0  0  0  0  0  0  0  0
    7.7331   -4.2197    0.0000 C   0  0  1  0  0  0  0  0  0  0  0  0
   11.1961   -4.2642    0.0000 C   0  0  2  0  0  0  0  0  0  0  0  0
   12.9396   -3.2843    0.0000 C   0  0  1  0  0  0  0  0  0  0  0  0
    4.2690    4.7803    0.0000 C   0  0  1  0  0  0  0  0  0  0  0  0
    3.4030    4.2803    0.0000 C   0  0  1  0  0  0  0  0  0  0  0  0
    6.8671   -2.7197    0.0000 C   0  0  1  0  0  0  0  0  0  0  0  0
    5.1350    4.2803    0.0000 C   0  0  2  0  0  0  0  0  0  0  0  0
    3.4030    3.2803    0.0000 C   0  0  1  0  0  0  0  0  0  0  0  0
   11.2077   -3.2643    0.0000 C   0  0  1  0  0  0  0  0  0  0  0  0
    5.1350    3.2803    0.0000 C   0  0  1  0  0  0  0  0  0  0  0  0
    8.5991   -4.7197    0.0000 C   0  0  0  0  0  0  0  0  0  0  0  0
   13.8114   -2.7944    0.0000 C   0  0  0  0  0  0  0  0  0  0  0  0
    2.5369    2.7803    0.0000 C   0  0  0  0  0  0  0  0  0  0  0  0
    7.7331   -1.2197    0.0000 C   0  0  0  0  0  0  0  0  0  0  0  0
   10.3591   -1.7544    0.0000 C   0  0  0  0  0  0  0  0  0  0  0  0
    9.4651   -1.2197    0.0000 C   0  0  0  0  0  0  0  0  0  0  0  0
    7.7331   -0.2197    0.0000 C   0  0  0  0  0  0  0  0  0  0  0  0
    8.5991   -1.7197    0.0000 C   0  0  0  0  0  0  0  0  0  0  0  0
    6.0010    1.7803    0.0000 C   0  0  0  0  0  0  0  0  0  0  0  0
    9.4651   -0.2197    0.0000 C   0  0  0  0  0  0  0  0  0  0  0  0
    6.8671    0.2803    0.0000 C   0  0  0  0  0  0  0  0  0  0  0  0
    6.8671    1.2803    0.0000 C   0  0  0  0  0  0  0  0  0  0  0  0
   11.2651   -1.2405    0.0000 C   0  0  0  0  0  0  0  0  0  0  0  0
    5.1350    1.2803    0.0000 C   0  0  0  0  0  0  0  0  0  0  0  0
   10.3591    0.3150    0.0000 C   0  0  0  0  0  0  0  0  0  0  0  0
    6.0010   -0.2197    0.0000 C   0  0  0  0  0  0  0  0  0  0  0  0
   11.2651   -0.1989    0.0000 C   0  0  0  0  0  0  0  0  0  0  0  0
    5.1350    0.2803    0.0000 C   0  0  0  0  0  0  0  0  0  0  0  0
    5.4641   -3.9097    0.0000 H   0  0  0  0  0  0  0  0  0  0  0  0
    6.3301   -5.0297    0.0000 H   0  0  0  0  0  0  0  0  0  0  0  0
   12.5896   -5.0904    0.0000 H   0  0  0  0  0  0  0  0  0  0  0  0
   12.9209   -4.9042    0.0000 H   0  0  0  0  0  0  0  0  0  0  0  0
    5.4641   -3.5297    0.0000 H   0  0  0  0  0  0  0  0  0  0  0  0
    8.2700   -3.9097    0.0000 H   0  0  0  0  0  0  0  0  0  0  0  0
   10.6628   -3.9480    0.0000 H   0  0  0  0  0  0  0  0  0  0  0  0
   12.9468   -2.6643    0.0000 H   0  0  0  0  0  0  0  0  0  0  0  0
    4.8059    5.0903    0.0000 H   0  0  0  0  0  0  0  0  0  0  0  0
    3.4030    4.9003    0.0000 H   0  0  0  0  0  0  0  0  0  0  0  0
    6.3301   -2.4097    0.0000 H   0  0  0  0  0  0  0  0  0  0  0  0
    5.1350    4.9003    0.0000 H   0  0  0  0  0  0  0  0  0  0  0  0
    3.4030    2.6603    0.0000 H   0  0  0  0  0  0  0  0  0  0  0  0
   10.6672   -3.5680    0.0000 H   0  0  0  0  0  0  0  0  0  0  0  0
    5.1350    2.6603    0.0000 H   0  0  0  0  0  0  0  0  0  0  0  0
    9.2097   -4.8274    0.0000 H   0  0  0  0  0  0  0  0  0  0  0  0
    8.8112   -4.1371    0.0000 H   0  0  0  0  0  0  0  0  0  0  0  0
   14.2154   -2.3240    0.0000 H   0  0  0  0  0  0  0  0  0  0  0  0
   13.4184   -2.3148    0.0000 H   0  0  0  0  0  0  0  0  0  0  0  0
    2.3249    3.3629    0.0000 H   0  0  0  0  0  0  0  0  0  0  0  0
    1.9264    2.6726    0.0000 H   0  0  0  0  0  0  0  0  0  0  0  0
    5.1350   -5.3397    0.0000 H   0  0  0  0  0  0  0  0  0  0  0  0
    6.3301   -6.0297    0.0000 H   0  0  0  0  0  0  0  0  0  0  0  0
   12.5781   -6.0903    0.0000 H   0  0  0  0  0  0  0  0  0  0  0  0
   13.7811   -5.4142    0.0000 H   0  0  0  0  0  0  0  0  0  0  0  0
    4.5981   -3.0297    0.0000 H   0  0  0  0  0  0  0  0  0  0  0  0
   10.3172   -5.3741    0.0000 H   0  0  0  0  0  0  0  0  0  0  0  0
    3.7320    6.0903    0.0000 H   0  0  0  0  0  0  0  0  0  0  0  0
    2.0000    4.4703    0.0000 H   0  0  0  0  0  0  0  0  0  0  0  0
    6.0010    5.4003    0.0000 H   0  0  0  0  0  0  0  0  0  0  0  0
    8.5991   -2.3397    0.0000 H   0  0  0  0  0  0  0  0  0  0  0  0
    7.4040    1.5903    0.0000 H   0  0  0  0  0  0  0  0  0  0  0  0
   11.8009   -1.5526    0.0000 H   0  0  0  0  0  0  0  0  0  0  0  0
    9.1360   -6.0297    0.0000 H   0  0  0  0  0  0  0  0  0  0  0  0
   15.2121   -3.0006    0.0000 H   0  0  0  0  0  0  0  0  0  0  0  0
    2.0000    1.4703    0.0000 H   0  0  0  0  0  0  0  0  0  0  0  0
   10.3519    0.9349    0.0000 H   0  0  0  0  0  0  0  0  0  0  0  0
    6.0010   -0.8397    0.0000 H   0  0  0  0  0  0  0  0  0  0  0  0
    3.7320    1.4703    0.0000 H   0  0  0  0  0  0  0  0  0  0  0  0
   12.1269    0.9244    0.0000 H   0  0  0  0  0  0  0  0  0  0  0  0
    4.2690   -0.8397    0.0000 H   0  0  0  0  0  0  0  0  0  0  0  0
  1 28  1  0  0  0  0
  1 33  1  0  0  0  0
  2 30  1  0  0  0  0
  2 36  1  0  0  0  0
  3 35  1  0  0  0  0
  3 37  1  0  0  0  0
 33  4  1  6  0  0  0
  4 41  1  0  0  0  0
 36  5  1  6  0  0  0
  5 42  1  0  0  0  0
 23  6  1  6  0  0  0
  6 77  1  0  0  0  0
 24  7  1  1  0  0  0
  7 78  1  0  0  0  0
 37  8  1  6  0  0  0
  8 46  1  0  0  0  0
 25  9  1  6  0  0  0
  9 79  1  0  0  0  0
 26 10  1  1  0  0  0
 10 80  1  0  0  0  0
 27 11  1  1  0  0  0
 11 81  1  0  0  0  0
 29 12  1  1  0  0  0
 12 82  1  0  0  0  0
 31 13  1  6  0  0  0
 13 83  1  0  0  0  0
 32 14  1  1  0  0  0
 14 84  1  0  0  0  0
 34 15  1  1  0  0  0
 15 85  1  0  0  0  0
 16 38  1  0  0  0  0
 16 89  1  0  0  0  0
 17 39  1  0  0  0  0
 17 90  1  0  0  0  0
 18 44  1  0  0  0  0
 18 47  2  0  0  0  0
 19 40  1  0  0  0  0
 19 91  1  0  0  0  0
 20 51  1  0  0  0  0
 20 94  1  0  0  0  0
 21 54  1  0  0  0  0
 21 95  1  0  0  0  0
 22 55  1  0  0  0  0
 22 96  1  0  0  0  0
 23 24  1  0  0  0  0
 23 27  1  0  0  0  0
 23 56  1  0  0  0  0
 24 28  1  0  0  0  0
 24 57  1  0  0  0  0
 25 26  1  0  0  0  0
 25 29  1  0  0  0  0
 25 58  1  0  0  0  0
 26 30  1  0  0  0  0
 26 59  1  0  0  0  0
 27 33  1  0  0  0  0
 27 60  1  0  0  0  0
 28 38  1  6  0  0  0
 28 61  1  0  0  0  0
 29 36  1  0  0  0  0
 29 62  1  0  0  0  0
 30 39  1  6  0  0  0
 30 63  1  0  0  0  0
 31 32  1  0  0  0  0
 31 34  1  0  0  0  0
 31 64  1  0  0  0  0
 32 35  1  0  0  0  0
 32 65  1  0  0  0  0
 33 66  1  0  0  0  0
 34 37  1  0  0  0  0
 34 67  1  0  0  0  0
 35 40  1  6  0  0  0
 35 68  1  0  0  0  0
 36 69  1  0  0  0  0
 37 70  1  0  0  0  0
 38 71  1  0  0  0  0
 38 72  1  0  0  0  0
 39 73  1  0  0  0  0
 39 74  1  0  0  0  0
 40 75  1  0  0  0  0
 40 76  1  0  0  0  0
 41 44  2  0  0  0  0
 41 45  1  0  0  0  0
 42 43  1  0  0  0  0
 42 50  2  0  0  0  0
 43 45  2  0  0  0  0
 43 47  1  0  0  0  0
 44 48  1  0  0  0  0
 45 86  1  0  0  0  0
 46 49  2  0  0  0  0
 46 51  1  0  0  0  0
 47 52  1  0  0  0  0
 48 49  1  0  0  0  0
 48 53  2  0  0  0  0
 49 87  1  0  0  0  0
 50 54  1  0  0  0  0
 50 88  1  0  0  0  0
 51 55  2  0  0  0  0
 52 54  2  0  0  0  0
 52 92  1  0  0  0  0
 53 55  1  0  0  0  0
 53 93  1  0  0  0  0
M  CHG  1  18   1
M  END
> <PUBCHEM_COMPOUND_CID>
23724707

> <PUBCHEM_COMPOUND_CANONICALIZED>
1

> <PUBCHEM_CACTVS_COMPLEXITY>
1220

> <PUBCHEM_CACTVS_HBOND_ACCEPTOR>
21

> <PUBCHEM_CACTVS_HBOND_DONOR>
15

> <PUBCHEM_CACTVS_ROTATABLE_BOND>
10

> <PUBCHEM_CACTVS_SUBSKEYS>
AAADcfB8PgAAAAAAAAAAAAAAAAAAAAAAAAA0aJEiAAAAAACR9AAAGgAACAAADBSwmAMwDsAABkCIAqBSAAICCAAkIAAAiAFGiMgdNzaGNR6ieWOl4BUPuYfK7PzOIAABCAAIQABAAAIQABCAAAAAAAAAAA==

> <PUBCHEM_IUPAC_OPENEYE_NAME>
(2S,3R,4S,5S,6R)-2-[2,3-dihydroxy-5-[7-hydroxy-3,5-bis[[(2S,3R,4S,5S,6R)-3,4,5-trihydroxy-6-(hydroxymethyl)tetrahydropyran-2-yl]oxy]chromenylium-2-yl]phenoxy]-6-(hydroxymethyl)tetrahydropyran-3,4,5-triol

> <PUBCHEM_IUPAC_CAS_NAME>
(2S,3R,4S,5S,6R)-2-[2,3-dihydroxy-5-[7-hydroxy-3,5-bis[[(2S,3R,4S,5S,6R)-3,4,5-trihydroxy-6-(hydroxymethyl)-2-oxanyl]oxy]-1-benzopyrylium-2-yl]phenoxy]-6-(hydroxymethyl)oxane-3,4,5-triol

> <PUBCHEM_IUPAC_NAME>
(2S,3R,4S,5S,6R)-2-[2,3-dihydroxy-5-[7-hydroxy-3,5-bis[[(2S,3R,4S,5S,6R)-3,4,5-trihydroxy-6-(hydroxymethyl)oxan-2-yl]oxy]chromenylium-2-yl]phenoxy]-6-(hydroxymethyl)oxane-3,4,5-triol

> <PUBCHEM_IUPAC_SYSTEMATIC_NAME>
(2S,3R,4S,5S,6R)-2-[5-[3,5-bis[[(2S,3R,4S,5S,6R)-6-(hydroxymethyl)-3,4,5-tris(oxidanyl)oxan-2-yl]oxy]-7-oxidanyl-chromenylium-2-yl]-2,3-bis(oxidanyl)phenoxy]-6-(hydroxymethyl)oxane-3,4,5-triol

> <PUBCHEM_IUPAC_TRADITIONAL_NAME>
(2S,3R,4S,5S,6R)-2-[2,3-dihydroxy-5-[7-hydroxy-3,5-bis[[(2S,3R,4S,5S,6R)-3,4,5-trihydroxy-6-methylol-tetrahydropyran-2-yl]oxy]-1-benzopyrylium-2-yl]phenoxy]-6-methylol-tetrahydropyran-3,4,5-triol

> <PUBCHEM_IUPAC_INCHI>
InChI=1S/C33H40O22/c34-6-17-21(40)24(43)27(46)31(53-17)50-14-4-10(37)3-13-11(14)5-16(52-33-29(48)26(45)23(42)19(8-36)55-33)30(49-13)9-1-12(38)20(39)15(2-9)51-32-28(47)25(44)22(41)18(7-35)54-32/h1-5,17-19,21-29,31-36,40-48H,6-8H2,(H2-,37,38,39)/p+1/t17-,18-,19-,21-,22-,23-,24+,25+,26+,27-,28-,29-,31-,32-,33-/m1/s1

> <PUBCHEM_IUPAC_INCHIKEY>
YDAVXGXZAIUFTB-KCRRSQHJSA-O

> <PUBCHEM_EXACT_MASS>
789.208948

> <PUBCHEM_MOLECULAR_FORMULA>
C33H41O22+

> <PUBCHEM_MOLECULAR_WEIGHT>
789.66544

> <PUBCHEM_OPENEYE_CAN_SMILES>
C1=C(C=C(C(=C1O)O)OC2C(C(C(C(O2)CO)O)O)O)C3=C(C=C4C(=CC(=CC4=[O+]3)O)OC5C(C(C(C(O5)CO)O)O)O)OC6C(C(C(C(O6)CO)O)O)O

> <PUBCHEM_OPENEYE_ISO_SMILES>
C1=C(C=C(C(=C1O)O)O[C@H]2[C@@H]([C@H]([C@@H]([C@H](O2)CO)O)O)O)C3=C(C=C4C(=CC(=CC4=[O+]3)O)O[C@H]5[C@@H]([C@H]([C@@H]([C@H](O5)CO)O)O)O)O[C@H]6[C@@H]([C@H]([C@@H]([C@H](O6)CO)O)O)O

> <PUBCHEM_CACTVS_TPSA>
360

> <PUBCHEM_MONOISOTOPIC_WEIGHT>
789.208948

> <PUBCHEM_TOTAL_CHARGE>
1

> <PUBCHEM_HEAVY_ATOM_COUNT>
55

> <PUBCHEM_ATOM_DEF_STEREO_COUNT>
15

> <PUBCHEM_ATOM_UDEF_STEREO_COUNT>
0

> <PUBCHEM_BOND_DEF_STEREO_COUNT>
0

> <PUBCHEM_BOND_UDEF_STEREO_COUNT>
0

> <PUBCHEM_ISOTOPIC_ATOM_COUNT>
0

> <PUBCHEM_COMPONENT_COUNT>
1

> <PUBCHEM_CACTVS_TAUTO_COUNT>
75

> <PUBCHEM_COORDINATE_TYPE>
1
5
255

> <PUBCHEM_BONDANNOTATIONS>
26  10  5
27  11  5
29  12  5
31  13  6
32  14  5
34  15  5
18  44  8
18  47  8
28  38  6
30  39  6
35  40  6
33  4  6
41  44  8
41  45  8
42  43  8
42  50  8
43  45  8
43  47  8
46  49  8
46  51  8
47  52  8
48  49  8
48  53  8
36  5  6
50  54  8
51  55  8
52  54  8
53  55  8
23  6  6
24  7  5
37  8  6
25  9  6

$$$$

