17395836
  -OEChem-06241222523D

 46 49  0     1  0  0  0  0  0999 V2000
    4.3719    1.7763    0.5629 S   0  0  0  0  0  0  0  0  0  0  0  0
   -2.3733    0.3003    2.0586 O   0  0  0  0  0  0  0  0  0  0  0  0
   -2.0614    1.6289   -2.3374 O   0  0  0  0  0  0  0  0  0  0  0  0
    0.3313   -0.4088   -0.3312 O   0  0  0  0  0  0  0  0  0  0  0  0
   -3.6776    0.4350   -1.1579 N   0  0  0  0  0  0  0  0  0  0  0  0
   -1.8671    1.1303   -0.0611 N   0  0  0  0  0  0  0  0  0  0  0  0
    1.7693    1.3502    0.2664 N   0  0  0  0  0  0  0  0  0  0  0  0
    3.3420   -0.4801   -0.1440 N   0  0  0  0  0  0  0  0  0  0  0  0
   -3.9194   -0.0253    0.1956 C   0  0  2  0  0  0  0  0  0  0  0  0
   -4.0628   -1.5608    0.2972 C   0  0  1  0  0  0  0  0  0  0  0  0
   -5.1220    0.7046    0.8132 C   0  0  0  0  0  0  0  0  0  0  0  0
   -5.4140   -2.0307   -0.2697 C   0  0  0  0  0  0  0  0  0  0  0  0
   -6.4518    0.2133    0.2457 C   0  0  0  0  0  0  0  0  0  0  0  0
   -6.5889   -1.2992    0.3732 C   0  0  0  0  0  0  0  0  0  0  0  0
   -2.6355    0.4714    0.8745 C   0  0  0  0  0  0  0  0  0  0  0  0
   -2.9234   -2.3340   -0.3785 C   0  0  0  0  0  0  0  0  0  0  0  0
   -2.4755    1.1285   -1.2997 C   0  0  0  0  0  0  0  0  0  0  0  0
   -0.5864    1.7480    0.2199 C   0  0  0  0  0  0  0  0  0  0  0  0
    0.5388    0.7505    0.0116 C   0  0  0  0  0  0  0  0  0  0  0  0
    3.0514    0.7565    0.1863 C   0  0  0  0  0  0  0  0  0  0  0  0
    5.4545    0.4676    0.2658 C   0  0  0  0  0  0  0  0  0  0  0  0
    4.7167   -0.6615   -0.1024 C   0  0  0  0  0  0  0  0  0  0  0  0
    6.8558    0.4418    0.3528 C   0  0  0  0  0  0  0  0  0  0  0  0
    5.4084   -1.8577   -0.3930 C   0  0  0  0  0  0  0  0  0  0  0  0
    7.5157   -0.7544    0.0598 C   0  0  0  0  0  0  0  0  0  0  0  0
    6.8033   -1.8905   -0.3083 C   0  0  0  0  0  0  0  0  0  0  0  0
   -4.0409   -1.8324    1.3624 H   0  0  0  0  0  0  0  0  0  0  0  0
   -5.0418    1.7882    0.6571 H   0  0  0  0  0  0  0  0  0  0  0  0
   -5.1267    0.5520    1.9008 H   0  0  0  0  0  0  0  0  0  0  0  0
   -5.5320   -3.1085   -0.1040 H   0  0  0  0  0  0  0  0  0  0  0  0
   -5.4411   -1.8753   -1.3557 H   0  0  0  0  0  0  0  0  0  0  0  0
   -6.5351    0.5023   -0.8089 H   0  0  0  0  0  0  0  0  0  0  0  0
   -7.2783    0.7026    0.7736 H   0  0  0  0  0  0  0  0  0  0  0  0
   -6.6518   -1.5723    1.4338 H   0  0  0  0  0  0  0  0  0  0  0  0
   -7.5248   -1.6242   -0.0952 H   0  0  0  0  0  0  0  0  0  0  0  0
   -4.3246    0.2888   -1.9265 H   0  0  0  0  0  0  0  0  0  0  0  0
   -2.8857   -2.1442   -1.4561 H   0  0  0  0  0  0  0  0  0  0  0  0
   -1.9533   -2.0683    0.0517 H   0  0  0  0  0  0  0  0  0  0  0  0
   -3.0569   -3.4122   -0.2373 H   0  0  0  0  0  0  0  0  0  0  0  0
   -0.4392    2.5976   -0.4552 H   0  0  0  0  0  0  0  0  0  0  0  0
   -0.5703    2.0897    1.2601 H   0  0  0  0  0  0  0  0  0  0  0  0
    1.7851    2.3284    0.5446 H   0  0  0  0  0  0  0  0  0  0  0  0
    7.4186    1.3248    0.6398 H   0  0  0  0  0  0  0  0  0  0  0  0
    4.8618   -2.7510   -0.6817 H   0  0  0  0  0  0  0  0  0  0  0  0
    8.6000   -0.7958    0.1211 H   0  0  0  0  0  0  0  0  0  0  0  0
    7.3336   -2.8120   -0.5324 H   0  0  0  0  0  0  0  0  0  0  0  0
  1 20  1  0  0  0  0
  1 21  1  0  0  0  0
  2 15  2  0  0  0  0
  3 17  2  0  0  0  0
  4 19  2  0  0  0  0
  5  9  1  0  0  0  0
  5 17  1  0  0  0  0
  5 36  1  0  0  0  0
  6 15  1  0  0  0  0
  6 17  1  0  0  0  0
  6 18  1  0  0  0  0
  7 19  1  0  0  0  0
  7 20  1  0  0  0  0
  7 42  1  0  0  0  0
  8 20  2  0  0  0  0
  8 22  1  0  0  0  0
  9 10  1  0  0  0  0
  9 11  1  0  0  0  0
  9 15  1  0  0  0  0
 10 12  1  0  0  0  0
 10 16  1  0  0  0  0
 10 27  1  0  0  0  0
 11 13  1  0  0  0  0
 11 28  1  0  0  0  0
 11 29  1  0  0  0  0
 12 14  1  0  0  0  0
 12 30  1  0  0  0  0
 12 31  1  0  0  0  0
 13 14  1  0  0  0  0
 13 32  1  0  0  0  0
 13 33  1  0  0  0  0
 14 34  1  0  0  0  0
 14 35  1  0  0  0  0
 16 37  1  0  0  0  0
 16 38  1  0  0  0  0
 16 39  1  0  0  0  0
 18 19  1  0  0  0  0
 18 40  1  0  0  0  0
 18 41  1  0  0  0  0
 21 22  1  0  0  0  0
 21 23  2  0  0  0  0
 22 24  2  0  0  0  0
 23 25  1  0  0  0  0
 23 43  1  0  0  0  0
 24 26  1  0  0  0  0
 24 44  1  0  0  0  0
 25 26  2  0  0  0  0
 25 45  1  0  0  0  0
 26 46  1  0  0  0  0
M  END
> <PUBCHEM_COMPOUND_CID>
17395836

> <PUBCHEM_CONFORMER_RMSD>
0.8

> <PUBCHEM_CONFORMER_DIVERSEORDER>
1
71
126
130
111
25
147
132
83
118
34
149
7
142
86
122
69
141
18
44
59
153
35
139
128
84
108
40
41
62
51
42
138
115
85
45
143
91
67
4
127
19
124
151
136
2
109
68
131
107
104
36
137
129
92
53
96
22
90
97
70
23
76
140
37
77
75
95
29
21
110
116
27
66
133
102
17
89
30
112
117
54
13
20
55
3
145
82
114
78
135
64
38
123
81
93
74
58
57
8
61
148
125
26
63
120
113
16
39
106
32
152
144
80
88
12
105
72
9
24
101
121
98
33
48
14
146
10
134
87
100
50
79
6
28
15
52
47
56
103
150
60
65
119
49
73
11
31
5
94
43
46
99

> <PUBCHEM_MMFF94_PARTIAL_CHARGES>
26
1 -0.08
15 0.57
17 0.69
18 0.36
19 0.57
2 -0.57
20 0.44
21 0.04
22 0.23
23 -0.15
24 -0.15
25 -0.15
26 -0.15
3 -0.57
36 0.37
4 -0.57
42 0.37
43 0.15
44 0.15
45 0.15
46 0.15
5 -0.73
6 -0.42
7 -0.49
8 -0.57
9 0.36

> <PUBCHEM_EFFECTIVE_ROTOR_COUNT>
5.4

> <PUBCHEM_PHARMACOPHORE_FEATURES>
9
1 2 acceptor
1 3 acceptor
1 4 acceptor
1 5 donor
1 7 donor
5 1 8 20 21 22 rings
5 5 6 9 15 17 rings
6 21 22 23 24 25 26 rings
6 9 10 11 12 13 14 rings

> <PUBCHEM_HEAVY_ATOM_COUNT>
26

> <PUBCHEM_ATOM_DEF_STEREO_COUNT>
0

> <PUBCHEM_ATOM_UDEF_STEREO_COUNT>
2

> <PUBCHEM_BOND_DEF_STEREO_COUNT>
0

> <PUBCHEM_BOND_UDEF_STEREO_COUNT>
0

> <PUBCHEM_ISOTOPIC_ATOM_COUNT>
0

> <PUBCHEM_COMPONENT_COUNT>
1

> <PUBCHEM_CACTVS_TAUTO_COUNT>
6

> <PUBCHEM_CONFORMER_ID>
0109707C00000001

> <PUBCHEM_MMFF94_ENERGY>
48.5188

> <PUBCHEM_FEATURE_SELFOVERLAP>
45.746

> <PUBCHEM_SHAPE_FINGERPRINT>
10 15 16443063894160948760
10299344 5 18408880728929048154
10670039 82 15985108552370054524
11315181 36 18186798063410767409
11524674 6 17240202118953419623
12166972 35 18413105044351392608
12236239 1 17676487254596390520
12516196 113 18334858316513799984
12596602 18 17967813838765497434
13288520 33 18411700972418320633
13402501 40 18409446981596892662
13533116 47 18187646869308040944
13668630 136 18409727383263984170
13673619 4 18343019982262300677
13685833 64 18408602574262783208
13782708 43 18202569492680598370
13885169 127 18409730699052817105
14251764 18 18040154002859548462
14294032 229 16485862496200223709
14347332 77 17917159402134401784
14420673 8 18410289199435846643
14556957 393 15339114684235960974
14849402 71 16371586787108446472
15183329 4 14620796007131958084
15352257 5 18409448085740896422
15361156 5 18130779010847829564
15716309 27 18259423018201615006
17780758 139 17966969430814663777
17844677 252 18412259558590666932
17857418 61 18408039611424648394
18643901 69 18273210919588746215
18927931 339 17131828764199077265
19489759 90 17132115770961939052
20028762 73 18259983782418428030
20281389 69 7276837866042352610
21150785 3 13110960916220083553
21267235 1 18411695482743208746
21424621 283 7276565208554379487
21623969 137 18040150734621870006
22393880 68 18130799996432610016
2297311 6 17632576071666248765
23035841 295 18411981364330010947
23522609 53 18123155057652124932
23559900 14 18189342282020816609
3004659 81 18272653433150093472
3383291 50 18129940071066657099
34797466 226 17489300868036011348
4073 2 18270678646085010082
4325135 7 18343579617196827796
465052 167 18114179757656379612
497634 4 18408601487182863881
5104073 3 17968382350981168120
531348 171 17773325736533026198
559249 180 18408321086596427443
999808 66 18130495350371498059

> <PUBCHEM_SHAPE_MULTIPOLES>
501.39
20.64
2.11
1.11
17.52
0.75
0.27
8.88
-1.88
0.09
0.23
-1.16
-0.44
0.76

> <PUBCHEM_SHAPE_SELFOVERLAP>
1074.163

> <PUBCHEM_SHAPE_VOLUME>
279.9

> <PUBCHEM_COORDINATE_TYPE>
2
5
10

$$$$

