122087
  -OEChem-07051213133D

 36 36  0     1  0  0  0  0  0999 V2000
    4.2467    3.0339   -0.6665 Cl  0  0  0  0  0  0  0  0  0  0  0  0
   -2.8828    3.1292    0.4194 Cl  0  0  0  0  0  0  0  0  0  0  0  0
   -4.8528   -1.8318   -0.6919 Cl  0  0  0  0  0  0  0  0  0  0  0  0
    4.7406    0.3319    0.1241 O   0  0  0  0  0  0  0  0  0  0  0  0
    0.2524   -2.2402    0.8077 O   0  0  0  0  0  0  0  0  0  0  0  0
    1.1691   -0.2051    0.2311 N   0  0  0  0  0  0  0  0  0  0  0  0
    2.5470   -0.6330    0.3581 C   0  0  2  0  0  0  0  0  0  0  0  0
    2.8253   -1.8263   -0.5832 C   0  0  0  0  0  0  0  0  0  0  0  0
    2.7864   -1.0575    1.8133 C   0  0  0  0  0  0  0  0  0  0  0  0
    3.5234    0.5182    0.0337 C   0  0  0  0  0  0  0  0  0  0  0  0
    2.6290   -1.5164   -2.0647 C   0  0  0  0  0  0  0  0  0  0  0  0
    0.1063   -1.0653    0.4723 C   0  0  0  0  0  0  0  0  0  0  0  0
    2.9493    1.8583   -0.3840 C   0  0  0  0  0  0  0  0  0  0  0  0
   -1.2301   -0.4892    0.2684 C   0  0  0  0  0  0  0  0  0  0  0  0
   -2.2870   -1.3206   -0.0730 C   0  0  0  0  0  0  0  0  0  0  0  0
   -1.4146    0.8776    0.4199 C   0  0  0  0  0  0  0  0  0  0  0  0
   -3.7535    0.5990   -0.1178 C   0  0  0  0  0  0  0  0  0  0  0  0
   -2.6830    1.4248    0.2258 C   0  0  0  0  0  0  0  0  0  0  0  0
   -3.5555   -0.7737   -0.2671 C   0  0  0  0  0  0  0  0  0  0  0  0
   -5.1163    1.1862   -0.3254 C   0  0  0  0  0  0  0  0  0  0  0  0
    3.8687   -2.1454   -0.4540 H   0  0  0  0  0  0  0  0  0  0  0  0
    2.2262   -2.7063   -0.3306 H   0  0  0  0  0  0  0  0  0  0  0  0
    2.2247   -1.9487    2.1069 H   0  0  0  0  0  0  0  0  0  0  0  0
    3.8446   -1.2849    1.9897 H   0  0  0  0  0  0  0  0  0  0  0  0
    2.5140   -0.2514    2.5057 H   0  0  0  0  0  0  0  0  0  0  0  0
    0.9712    0.7037   -0.1656 H   0  0  0  0  0  0  0  0  0  0  0  0
    2.8608   -2.4031   -2.6640 H   0  0  0  0  0  0  0  0  0  0  0  0
    3.2887   -0.7102   -2.3994 H   0  0  0  0  0  0  0  0  0  0  0  0
    1.5952   -1.2304   -2.2806 H   0  0  0  0  0  0  0  0  0  0  0  0
    2.3179    2.2614    0.4111 H   0  0  0  0  0  0  0  0  0  0  0  0
    2.3959    1.7551   -1.3201 H   0  0  0  0  0  0  0  0  0  0  0  0
   -2.1328   -2.3902   -0.1942 H   0  0  0  0  0  0  0  0  0  0  0  0
   -0.6085    1.5391    0.7250 H   0  0  0  0  0  0  0  0  0  0  0  0
   -5.6714    1.1852    0.6183 H   0  0  0  0  0  0  0  0  0  0  0  0
   -5.0819    2.2100   -0.7098 H   0  0  0  0  0  0  0  0  0  0  0  0
   -5.6991    0.6430   -1.0754 H   0  0  0  0  0  0  0  0  0  0  0  0
  1 13  1  0  0  0  0
  2 18  1  0  0  0  0
  3 19  1  0  0  0  0
  4 10  2  0  0  0  0
  5 12  2  0  0  0  0
  6  7  1  0  0  0  0
  6 12  1  0  0  0  0
  6 26  1  0  0  0  0
  7  8  1  0  0  0  0
  7  9  1  0  0  0  0
  7 10  1  0  0  0  0
  8 11  1  0  0  0  0
  8 21  1  0  0  0  0
  8 22  1  0  0  0  0
  9 23  1  0  0  0  0
  9 24  1  0  0  0  0
  9 25  1  0  0  0  0
 10 13  1  0  0  0  0
 11 27  1  0  0  0  0
 11 28  1  0  0  0  0
 11 29  1  0  0  0  0
 12 14  1  0  0  0  0
 13 30  1  0  0  0  0
 13 31  1  0  0  0  0
 14 15  2  0  0  0  0
 14 16  1  0  0  0  0
 15 19  1  0  0  0  0
 15 32  1  0  0  0  0
 16 18  2  0  0  0  0
 16 33  1  0  0  0  0
 17 18  1  0  0  0  0
 17 19  2  0  0  0  0
 17 20  1  0  0  0  0
 20 34  1  0  0  0  0
 20 35  1  0  0  0  0
 20 36  1  0  0  0  0
M  END
> <PUBCHEM_COMPOUND_CID>
122087

> <PUBCHEM_CONFORMER_RMSD>
0.8

> <PUBCHEM_CONFORMER_DIVERSEORDER>
1
45
30
21
14
9
24
6
36
53
41
29
35
4
42
54
12
51
44
19
49
55
33
46
26
38
56
28
15
39
48
25
18
16
27
52
8
31
2
34
50
20
47
40
37
3
22
7
57
43
10
5
32
17
11
23
13

> <PUBCHEM_MMFF94_PARTIAL_CHARGES>
20
1 -0.29
10 0.45
12 0.54
13 0.35
14 0.09
15 -0.15
16 -0.15
17 -0.14
18 0.18
19 0.18
2 -0.18
20 0.14
26 0.37
3 -0.18
32 0.15
33 0.15
4 -0.57
5 -0.57
6 -0.73
7 0.36

> <PUBCHEM_EFFECTIVE_ROTOR_COUNT>
6

> <PUBCHEM_PHARMACOPHORE_FEATURES>
5
1 11 hydrophobe
1 4 acceptor
1 5 acceptor
1 6 donor
6 14 15 16 17 18 19 rings

> <PUBCHEM_HEAVY_ATOM_COUNT>
20

> <PUBCHEM_ATOM_DEF_STEREO_COUNT>
0

> <PUBCHEM_ATOM_UDEF_STEREO_COUNT>
1

> <PUBCHEM_BOND_DEF_STEREO_COUNT>
0

> <PUBCHEM_BOND_UDEF_STEREO_COUNT>
0

> <PUBCHEM_ISOTOPIC_ATOM_COUNT>
0

> <PUBCHEM_COMPONENT_COUNT>
1

> <PUBCHEM_CACTVS_TAUTO_COUNT>
4

> <PUBCHEM_CONFORMER_ID>
0001DCE700000001

> <PUBCHEM_MMFF94_ENERGY>
56.0966

> <PUBCHEM_FEATURE_SELFOVERLAP>
25.371

> <PUBCHEM_SHAPE_FINGERPRINT>
10498660 4 18412265060211092821
10670039 82 18271231726299005148
11759241 127 18408888399524361559
12173636 292 18189627201502834271
12403259 327 11743847945168423542
12403260 363 18413116056451652842
12616999 72 17894628128470012574
12633257 1 17917161528707754712
12670546 177 18334013882618868781
13224815 77 18412821404415148795
13583140 156 16630249117159717699
14251764 38 18410289241810831524
14289901 80 18335421291904663667
14739800 52 18194139438563366408
14787075 74 18268432335060018211
14790565 3 18118959433471745841
15196674 1 18340487776908023469
15961568 22 18342455898669921212
17492 89 18409449210759032223
17980427 23 18118435928238631224
18186145 218 18342458187565021383
18681886 176 18261117340403972288
20715895 44 18125736822686336605
21033648 29 16128393561516104484
21864079 5 18342171215135842457
23227448 37 18410858797935325933
23352939 185 18114458938883430985
23402539 116 18409739443009847078
23557571 272 18259983752073497303
23559900 14 18187365492683074166
245318 6 17127878064181259468
2838139 119 18195246616649690828
3472631 163 18411420648361236869
4280585 95 17682661163491320406
46194498 28 18042107877845244598
474 4 18201718457289577504
5104073 3 18343022198818275995
5281201 14 18114172081742927462
5895379 119 18189333649036389648
6333272 397 18342175583017121923
633830 44 18411982494270711959
9709674 26 18408878533979733582
9981440 41 18126849300888107112

> <PUBCHEM_SHAPE_MULTIPOLES>
400.48
10.4
3.03
1.15
2.59
2.03
0.11
2.89
2
-0.4
0.36
-1.06
-0.54
-0.85

> <PUBCHEM_SHAPE_SELFOVERLAP>
799.49

> <PUBCHEM_SHAPE_VOLUME>
240.6

> <PUBCHEM_COORDINATE_TYPE>
2
5
10

$$$$

