5495
  -OEChem-06261200423D

 42 43  0     0  0  0  0  0  0999 V2000
   -0.1074    0.7260   -1.7664 S   0  0  0  0  0  0  0  0  0  0  0  0
    2.7820    1.2772   -0.0180 O   0  0  0  0  0  0  0  0  0  0  0  0
   -0.9741   -3.4541    1.0048 O   0  0  0  0  0  0  0  0  0  0  0  0
    3.3367   -1.9726    0.7621 O   0  0  0  0  0  0  0  0  0  0  0  0
    1.7048   -0.7691   -0.4056 N   0  0  0  0  0  0  0  0  0  0  0  0
    1.1770   -2.6822    0.8692 N   0  0  0  0  0  0  0  0  0  0  0  0
   -2.0735   -1.4753   -0.5830 C   0  0  0  0  0  0  0  0  0  0  0  0
   -0.5941   -1.4862   -0.2859 C   0  0  0  0  0  0  0  0  0  0  0  0
    0.3478   -0.6310   -0.7456 C   0  0  0  0  0  0  0  0  0  0  0  0
   -2.4718   -2.7678   -1.2808 C   0  0  0  0  0  0  0  0  0  0  0  0
   -2.8713   -1.2698    0.6977 C   0  0  0  0  0  0  0  0  0  0  0  0
   -0.1686   -2.6296    0.5780 C   0  0  0  0  0  0  0  0  0  0  0  0
    2.6731    0.1977   -0.9335 C   0  0  0  0  0  0  0  0  0  0  0  0
    2.1609   -1.8078    0.4262 C   0  0  0  0  0  0  0  0  0  0  0  0
   -1.2009    1.5404   -0.6239 C   0  0  0  0  0  0  0  0  0  0  0  0
    3.6839    2.2701   -0.4879 C   0  0  0  0  0  0  0  0  0  0  0  0
   -0.7220    1.9825    0.6113 C   0  0  0  0  0  0  0  0  0  0  0  0
   -2.5418    1.7406   -0.9591 C   0  0  0  0  0  0  0  0  0  0  0  0
    3.7569    3.3903    0.5277 C   0  0  0  0  0  0  0  0  0  0  0  0
   -1.5796    2.6213    1.5069 C   0  0  0  0  0  0  0  0  0  0  0  0
   -3.3995    2.3795   -0.0637 C   0  0  0  0  0  0  0  0  0  0  0  0
   -2.9183    2.8199    1.1694 C   0  0  0  0  0  0  0  0  0  0  0  0
   -2.3449   -0.7080   -1.3005 H   0  0  0  0  0  0  0  0  0  0  0  0
   -2.5820   -3.6295   -0.6174 H   0  0  0  0  0  0  0  0  0  0  0  0
   -1.7686   -3.0326   -2.0790 H   0  0  0  0  0  0  0  0  0  0  0  0
   -3.4534   -2.6371   -1.7541 H   0  0  0  0  0  0  0  0  0  0  0  0
   -2.4566   -0.4725    1.3218 H   0  0  0  0  0  0  0  0  0  0  0  0
   -2.9476   -2.1689    1.3163 H   0  0  0  0  0  0  0  0  0  0  0  0
   -3.9007   -0.9869    0.4478 H   0  0  0  0  0  0  0  0  0  0  0  0
    2.4496    0.5240   -1.9539 H   0  0  0  0  0  0  0  0  0  0  0  0
    3.6505   -0.2982   -0.9858 H   0  0  0  0  0  0  0  0  0  0  0  0
    1.4842   -3.4451    1.4659 H   0  0  0  0  0  0  0  0  0  0  0  0
    4.6784    1.8316   -0.6269 H   0  0  0  0  0  0  0  0  0  0  0  0
    3.3317    2.6656   -1.4471 H   0  0  0  0  0  0  0  0  0  0  0  0
    0.3165    1.8475    0.8994 H   0  0  0  0  0  0  0  0  0  0  0  0
   -2.9355    1.4228   -1.9216 H   0  0  0  0  0  0  0  0  0  0  0  0
    4.4430    4.1747    0.1964 H   0  0  0  0  0  0  0  0  0  0  0  0
    2.7669    3.8304    0.6874 H   0  0  0  0  0  0  0  0  0  0  0  0
    4.0957    3.0102    1.4971 H   0  0  0  0  0  0  0  0  0  0  0  0
   -1.2048    2.9654    2.4664 H   0  0  0  0  0  0  0  0  0  0  0  0
   -4.4411    2.5374   -0.3277 H   0  0  0  0  0  0  0  0  0  0  0  0
   -3.5859    3.3181    1.8663 H   0  0  0  0  0  0  0  0  0  0  0  0
  1  9  1  0  0  0  0
  1 15  1  0  0  0  0
  2 13  1  0  0  0  0
  2 16  1  0  0  0  0
  3 12  2  0  0  0  0
  4 14  2  0  0  0  0
  5  9  1  0  0  0  0
  5 13  1  0  0  0  0
  5 14  1  0  0  0  0
  6 12  1  0  0  0  0
  6 14  1  0  0  0  0
  6 32  1  0  0  0  0
  7  8  1  0  0  0  0
  7 10  1  0  0  0  0
  7 11  1  0  0  0  0
  7 23  1  0  0  0  0
  8  9  2  0  0  0  0
  8 12  1  0  0  0  0
 10 24  1  0  0  0  0
 10 25  1  0  0  0  0
 10 26  1  0  0  0  0
 11 27  1  0  0  0  0
 11 28  1  0  0  0  0
 11 29  1  0  0  0  0
 13 30  1  0  0  0  0
 13 31  1  0  0  0  0
 15 17  2  0  0  0  0
 15 18  1  0  0  0  0
 16 19  1  0  0  0  0
 16 33  1  0  0  0  0
 16 34  1  0  0  0  0
 17 20  1  0  0  0  0
 17 35  1  0  0  0  0
 18 21  2  0  0  0  0
 18 36  1  0  0  0  0
 19 37  1  0  0  0  0
 19 38  1  0  0  0  0
 19 39  1  0  0  0  0
 20 22  2  0  0  0  0
 20 40  1  0  0  0  0
 21 22  1  0  0  0  0
 21 41  1  0  0  0  0
 22 42  1  0  0  0  0
M  END
> <PUBCHEM_COMPOUND_CID>
5495

> <PUBCHEM_CONFORMER_RMSD>
0.8

> <PUBCHEM_CONFORMER_DIVERSEORDER>
1
15
4
8
2
17
13
11
7
6
20
16
18
9
21
14
10
19
3
12
5

> <PUBCHEM_MMFF94_PARTIAL_CHARGES>
25
1 -0.2
12 0.62
13 0.58
14 0.69
15 0.1
16 0.28
17 -0.15
18 -0.15
2 -0.56
20 -0.15
21 -0.15
22 -0.15
3 -0.57
32 0.37
35 0.15
36 0.15
4 -0.57
40 0.15
41 0.15
42 0.15
5 -0.47
6 -0.49
7 0.14
8 -0.12
9 0.21

> <PUBCHEM_EFFECTIVE_ROTOR_COUNT>
6

> <PUBCHEM_PHARMACOPHORE_FEATURES>
7
1 2 acceptor
1 3 acceptor
1 4 acceptor
1 6 donor
3 7 10 11 hydrophobe
6 15 17 18 20 21 22 rings
6 5 6 8 9 12 14 rings

> <PUBCHEM_HEAVY_ATOM_COUNT>
22

> <PUBCHEM_ATOM_DEF_STEREO_COUNT>
0

> <PUBCHEM_ATOM_UDEF_STEREO_COUNT>
0

> <PUBCHEM_BOND_DEF_STEREO_COUNT>
0

> <PUBCHEM_BOND_UDEF_STEREO_COUNT>
0

> <PUBCHEM_ISOTOPIC_ATOM_COUNT>
0

> <PUBCHEM_COMPONENT_COUNT>
1

> <PUBCHEM_CACTVS_TAUTO_COUNT>
3

> <PUBCHEM_CONFORMER_ID>
0000157700000001

> <PUBCHEM_MMFF94_ENERGY>
63.7356

> <PUBCHEM_FEATURE_SELFOVERLAP>
35.52

> <PUBCHEM_SHAPE_FINGERPRINT>
10006869 2 18408318878787948115
10930396 42 16966368525029127264
1100329 8 18339082725991732360
11582403 64 15981774832814451733
12507560 14 17619636116749817670
12633257 1 17553465282292339737
12788726 201 17977386036557541104
13027679 85 17834114139465961477
13140716 1 18341893055746978224
13965767 371 17685724234991838787
14081887 123 18264492771680504952
14787075 74 18046914779373221645
14955137 171 17908409604818268194
16945 1 17914896435226639486
20510252 161 18194403290624187268
20600515 1 17621591718644994212
2334 1 18342737416337140062
23419403 2 15749324816033047159
23558518 356 18337944589607519356
283562 15 18123188996461663564
350125 39 18341608226838574876
469060 322 17843667890615925889
474 4 17902793299286392761
5845 1 10972720884107985973
81228 2 18195787597022044724

> <PUBCHEM_SHAPE_MULTIPOLES>
429.03
5.73
4.89
1.36
4.41
0.04
0.15
-3.69
-0.22
-0.98
-1.71
-0.42
-0.13
-0.87

> <PUBCHEM_SHAPE_SELFOVERLAP>
882.646

> <PUBCHEM_SHAPE_VOLUME>
247

> <PUBCHEM_COORDINATE_TYPE>
2
5
10

$$$$

