108104
  -OEChem-07051213113D

 24 26  0     0  0  0  0  0  0999 V2000
    2.6135    1.3665   -0.1186 O   0  0  0  0  0  0  0  0  0  0  0  0
   -2.0617    0.9367    0.0960 O   0  0  0  0  0  0  0  0  0  0  0  0
    2.9584   -1.5254   -0.3449 O   0  0  0  0  0  0  0  0  0  0  0  0
   -4.3403    0.7358    0.2033 O   0  0  0  0  0  0  0  0  0  0  0  0
    0.3714    1.1096   -0.0197 C   0  0  0  0  0  0  0  0  0  0  0  0
   -0.7916    0.3217   -0.0152 C   0  0  0  0  0  0  0  0  0  0  0  0
    1.5961    0.4599   -0.1311 C   0  0  0  0  0  0  0  0  0  0  0  0
   -0.6960   -1.0712   -0.1208 C   0  0  0  0  0  0  0  0  0  0  0  0
    1.7395   -0.9227   -0.2382 C   0  0  0  0  0  0  0  0  0  0  0  0
    0.5606   -1.6795   -0.2308 C   0  0  0  0  0  0  0  0  0  0  0  0
    0.6745    2.4939    0.0645 C   0  0  0  0  0  0  0  0  0  0  0  0
   -1.9202   -1.8579   -0.1131 C   0  0  0  0  0  0  0  0  0  0  0  0
    2.0450    2.5950    0.0002 C   0  0  0  0  0  0  0  0  0  0  0  0
   -3.1098   -1.2616   -0.0071 C   0  0  0  0  0  0  0  0  0  0  0  0
   -3.2414    0.2014    0.1055 C   0  0  0  0  0  0  0  0  0  0  0  0
    3.6019   -1.9021    0.8700 C   0  0  0  0  0  0  0  0  0  0  0  0
    0.6338   -2.7629   -0.3132 H   0  0  0  0  0  0  0  0  0  0  0  0
   -0.0200    3.3164    0.1606 H   0  0  0  0  0  0  0  0  0  0  0  0
   -1.8506   -2.9373   -0.1946 H   0  0  0  0  0  0  0  0  0  0  0  0
    2.7337    3.4267    0.0245 H   0  0  0  0  0  0  0  0  0  0  0  0
   -4.0227   -1.8471   -0.0010 H   0  0  0  0  0  0  0  0  0  0  0  0
    2.9934   -2.6295    1.4166 H   0  0  0  0  0  0  0  0  0  0  0  0
    3.7881   -1.0225    1.4943 H   0  0  0  0  0  0  0  0  0  0  0  0
    4.5611   -2.3644    0.6215 H   0  0  0  0  0  0  0  0  0  0  0  0
  1  7  1  0  0  0  0
  1 13  1  0  0  0  0
  2  6  1  0  0  0  0
  2 15  1  0  0  0  0
  3  9  1  0  0  0  0
  3 16  1  0  0  0  0
  4 15  2  0  0  0  0
  5  6  2  0  0  0  0
  5  7  1  0  0  0  0
  5 11  1  0  0  0  0
  6  8  1  0  0  0  0
  7  9  2  0  0  0  0
  8 10  2  0  0  0  0
  8 12  1  0  0  0  0
  9 10  1  0  0  0  0
 10 17  1  0  0  0  0
 11 13  2  0  0  0  0
 11 18  1  0  0  0  0
 12 14  2  0  0  0  0
 12 19  1  0  0  0  0
 13 20  1  0  0  0  0
 14 15  1  0  0  0  0
 14 21  1  0  0  0  0
 16 22  1  0  0  0  0
 16 23  1  0  0  0  0
 16 24  1  0  0  0  0
M  END
> <PUBCHEM_COMPOUND_CID>
108104

> <PUBCHEM_CONFORMER_RMSD>
0.6

> <PUBCHEM_CONFORMER_DIVERSEORDER>
1

> <PUBCHEM_MMFF94_PARTIAL_CHARGES>
20
1 -0.28
10 -0.15
11 -0.15
12 -0.18
13 -0.01
14 -0.14
15 0.71
16 0.28
17 0.15
18 0.15
19 0.15
2 -0.23
20 0.15
21 0.15
3 -0.36
4 -0.57
6 0.08
7 0.14
8 0.03
9 0.08

> <PUBCHEM_EFFECTIVE_ROTOR_COUNT>
1

> <PUBCHEM_PHARMACOPHORE_FEATURES>
6
1 1 acceptor
1 3 acceptor
1 4 acceptor
5 1 5 7 11 13 rings
6 2 6 8 12 14 15 rings
6 5 6 7 8 9 10 rings

> <PUBCHEM_HEAVY_ATOM_COUNT>
16

> <PUBCHEM_ATOM_DEF_STEREO_COUNT>
0

> <PUBCHEM_ATOM_UDEF_STEREO_COUNT>
0

> <PUBCHEM_BOND_DEF_STEREO_COUNT>
0

> <PUBCHEM_BOND_UDEF_STEREO_COUNT>
0

> <PUBCHEM_ISOTOPIC_ATOM_COUNT>
0

> <PUBCHEM_COMPONENT_COUNT>
1

> <PUBCHEM_CACTVS_TAUTO_COUNT>
1

> <PUBCHEM_CONFORMER_ID>
0001A64800000001

> <PUBCHEM_MMFF94_ENERGY>
49.935

> <PUBCHEM_FEATURE_SELFOVERLAP>
30.574

> <PUBCHEM_SHAPE_FINGERPRINT>
10130415 120 18342176712662306722
10608611 8 18339360765000127725
10967382 1 18337670798021014453
10980938 120 18336823074518932948
11471102 20 18410295822053533285
11578080 2 17273438238469141212
11680986 33 18339075995319212538
12553582 1 18267589181245410158
12644460 14 18342727499368436512
13140716 1 18410011035372350339
13380535 21 18268137674269776269
13380535 76 18123473778220183794
13897977 150 18337954480995965741
14648413 74 18339638941077834859
15042514 8 17691691503718270770
15196674 1 18410291394068851455
15219456 202 18340482271118366875
15375462 189 17988083421180385714
15442244 35 18409448106919944121
15475509 35 17203603809434140483
15490181 7 17684650930911266436
15536298 74 18261391122566799798
16945 1 18264762336596677375
17990270 104 18410575041824383666
193761 8 18265895744127712246
19591789 44 16317506602129305204
20510252 161 17902519516896504034
20511035 2 18114751416870105662
20645477 70 18409451367148619471
20871998 22 18118398673365452758
21267235 1 18337662100654581543
21501502 16 18336829684790327087
21524375 3 17612305252047694716
22094290 62 18409164411545329155
221490 88 18340760434369766003
2297311 6 18192145126407960806
2334 1 18337670802257946535
23366157 5 18059295357890653332
23402539 116 18117855514304898335
23463225 33 18411138034795906774
23559900 14 18047755081920960102
2748010 2 18410291380624748118
305870 269 18194685860812192560
3071541 12 18337950078522780900
3071541 158 18342737450723291180
335352 9 18338516468834430615
43471831 8 17907584623035896778
5104073 3 18410006616446991891
53812653 166 18262236591047793552
5902787 121 18342179981290869554
7364860 26 18335420110878074472
74978 22 18410573963993444111
7832392 63 18335700511991576981
81228 2 17903622322484588538
8809292 202 18272364291535732451
90316 7 18053393381346699594
9709674 26 18267299833683290735

> <PUBCHEM_SHAPE_MULTIPOLES>
305.8
5.73
2.74
0.66
3.07
0.78
-0.04
-1.09
-0.72
-1.98
-0.12
-0.18
-0.12
-0.39

> <PUBCHEM_SHAPE_SELFOVERLAP>
685.167

> <PUBCHEM_SHAPE_VOLUME>
163.4

> <PUBCHEM_COORDINATE_TYPE>
2
5
10

$$$$

