12341793
  -OEChem-07051213092D

 51 52  0     1  0  0  0  0  0999 V2000
    6.7884   -0.8660    0.0000 O   0  0  0  0  0  0  0  0  0  0  0  0
    8.2884    0.0000    0.0000 O   0  0  0  0  0  0  0  0  0  0  0  0
    2.5826   -0.3008    0.0000 N   0  0  0  0  0  0  0  0  0  0  0  0
    5.2884    0.0000    0.0000 C   0  0  0  0  0  0  0  0  0  0  0  0
    6.2884    0.0000    0.0000 C   0  0  2  0  0  0  0  0  0  0  0  0
    4.2884    0.0000    0.0000 C   0  0  0  0  0  0  0  0  0  0  0  0
    5.2884   -1.0000    0.0000 C   0  0  0  0  0  0  0  0  0  0  0  0
    5.2884    1.0000    0.0000 C   0  0  0  0  0  0  0  0  0  0  0  0
    3.3486    0.3420    0.0000 C   0  0  2  0  0  0  0  0  0  0  0  0
    6.7884    0.8660    0.0000 C   0  0  0  0  0  0  0  0  0  0  0  0
    3.1750    1.3268    0.0000 C   0  0  0  0  0  0  0  0  0  0  0  0
    6.1544    1.5000    0.0000 C   0  0  0  0  0  0  0  0  0  0  0  0
    4.4223   -1.5000    0.0000 C   0  0  0  0  0  0  0  0  0  0  0  0
    4.4223    1.5000    0.0000 C   0  0  0  0  0  0  0  0  0  0  0  0
    6.1544   -1.5000    0.0000 C   0  0  0  0  0  0  0  0  0  0  0  0
    7.7884    0.8660    0.0000 C   0  0  0  0  0  0  0  0  0  0  0  0
    6.1544    2.5000    0.0000 C   0  0  0  0  0  0  0  0  0  0  0  0
    4.4223   -2.5000    0.0000 C   0  0  0  0  0  0  0  0  0  0  0  0
    4.4223    2.5000    0.0000 C   0  0  0  0  0  0  0  0  0  0  0  0
    6.1544   -2.5000    0.0000 C   0  0  0  0  0  0  0  0  0  0  0  0
    7.7884   -0.8660    0.0000 C   0  0  0  0  0  0  0  0  0  0  0  0
    5.2884    3.0000    0.0000 C   0  0  0  0  0  0  0  0  0  0  0  0
    5.2884   -3.0000    0.0000 C   0  0  0  0  0  0  0  0  0  0  0  0
    8.2884   -1.7320    0.0000 C   0  0  0  0  0  0  0  0  0  0  0  0
    5.9784   -0.5369    0.0000 H   0  0  0  0  0  0  0  0  0  0  0  0
    3.8629   -0.4510    0.0000 H   0  0  0  0  0  0  0  0  0  0  0  0
    4.3960    0.6106    0.0000 H   0  0  0  0  0  0  0  0  0  0  0  0
    2.7660    0.5541    0.0000 H   0  0  0  0  0  0  0  0  0  0  0  0
    6.8960    1.4766    0.0000 H   0  0  0  0  0  0  0  0  0  0  0  0
    6.2057    1.0781    0.0000 H   0  0  0  0  0  0  0  0  0  0  0  0
    3.7856    1.4345    0.0000 H   0  0  0  0  0  0  0  0  0  0  0  0
    3.0673    1.9374    0.0000 H   0  0  0  0  0  0  0  0  0  0  0  0
    2.5644    1.2192    0.0000 H   0  0  0  0  0  0  0  0  0  0  0  0
    6.6913    1.1900    0.0000 H   0  0  0  0  0  0  0  0  0  0  0  0
    3.8854   -1.1900    0.0000 H   0  0  0  0  0  0  0  0  0  0  0  0
    3.8854    1.1900    0.0000 H   0  0  0  0  0  0  0  0  0  0  0  0
    6.6913   -1.1900    0.0000 H   0  0  0  0  0  0  0  0  0  0  0  0
    7.7884    0.2460    0.0000 H   0  0  0  0  0  0  0  0  0  0  0  0
    8.4084    0.8660    0.0000 H   0  0  0  0  0  0  0  0  0  0  0  0
    7.7884    1.4860    0.0000 H   0  0  0  0  0  0  0  0  0  0  0  0
    2.0000   -0.0887    0.0000 H   0  0  0  0  0  0  0  0  0  0  0  0
    2.6903   -0.9113    0.0000 H   0  0  0  0  0  0  0  0  0  0  0  0
    6.6913    2.8100    0.0000 H   0  0  0  0  0  0  0  0  0  0  0  0
    3.8854   -2.8100    0.0000 H   0  0  0  0  0  0  0  0  0  0  0  0
    3.8854    2.8100    0.0000 H   0  0  0  0  0  0  0  0  0  0  0  0
    6.6913   -2.8100    0.0000 H   0  0  0  0  0  0  0  0  0  0  0  0
    5.2884    3.6200    0.0000 H   0  0  0  0  0  0  0  0  0  0  0  0
    5.2884   -3.6200    0.0000 H   0  0  0  0  0  0  0  0  0  0  0  0
    7.7514   -2.0420    0.0000 H   0  0  0  0  0  0  0  0  0  0  0  0
    8.5984   -2.2690    0.0000 H   0  0  0  0  0  0  0  0  0  0  0  0
    8.8253   -1.4220    0.0000 H   0  0  0  0  0  0  0  0  0  0  0  0
  5  1  1  6  0  0  0
  1 21  1  0  0  0  0
  2 21  2  0  0  0  0
  9  3  1  1  0  0  0
  3 41  1  0  0  0  0
  3 42  1  0  0  0  0
  4  5  1  0  0  0  0
  4  6  1  0  0  0  0
  4  7  1  0  0  0  0
  4  8  1  0  0  0  0
  5 10  1  0  0  0  0
  5 25  1  0  0  0  0
  6  9  1  0  0  0  0
  6 26  1  0  0  0  0
  6 27  1  0  0  0  0
  7 13  2  0  0  0  0
  7 15  1  0  0  0  0
  8 12  2  0  0  0  0
  8 14  1  0  0  0  0
  9 11  1  0  0  0  0
  9 28  1  0  0  0  0
 10 16  1  0  0  0  0
 10 29  1  0  0  0  0
 10 30  1  0  0  0  0
 11 31  1  0  0  0  0
 11 32  1  0  0  0  0
 11 33  1  0  0  0  0
 12 17  1  0  0  0  0
 12 34  1  0  0  0  0
 13 18  1  0  0  0  0
 13 35  1  0  0  0  0
 14 19  2  0  0  0  0
 14 36  1  0  0  0  0
 15 20  2  0  0  0  0
 15 37  1  0  0  0  0
 16 38  1  0  0  0  0
 16 39  1  0  0  0  0
 16 40  1  0  0  0  0
 17 22  2  0  0  0  0
 17 43  1  0  0  0  0
 18 23  2  0  0  0  0
 18 44  1  0  0  0  0
 19 22  1  0  0  0  0
 19 45  1  0  0  0  0
 20 23  1  0  0  0  0
 20 46  1  0  0  0  0
 21 24  1  0  0  0  0
 22 47  1  0  0  0  0
 23 48  1  0  0  0  0
 24 49  1  0  0  0  0
 24 50  1  0  0  0  0
 24 51  1  0  0  0  0
M  END
> <PUBCHEM_COMPOUND_CID>
12341793

> <PUBCHEM_COMPOUND_CANONICALIZED>
1

> <PUBCHEM_CACTVS_COMPLEXITY>
365

> <PUBCHEM_CACTVS_HBOND_ACCEPTOR>
3

> <PUBCHEM_CACTVS_HBOND_DONOR>
1

> <PUBCHEM_CACTVS_ROTATABLE_BOND>
8

> <PUBCHEM_CACTVS_SUBSKEYS>
AAADceB6MAAAAAAAAAAAAAAAAAAAAAAAAAAwYAAAAAAAAAABQAAAHgAQAAAADjzhmAYyCIBABACIAiDSCAACAAAgAAAIiIAAAIgIICKAkRCCIAAk0AEIiAewwOAPgAAAAAAAAAAAAAAAAAAAAAAAAAAAAA==

> <PUBCHEM_IUPAC_OPENEYE_NAME>
[(1S,4S)-4-amino-1-ethyl-2,2-diphenyl-pentyl] acetate

> <PUBCHEM_IUPAC_CAS_NAME>
acetic acid [(3S,6S)-6-amino-4,4-diphenylheptan-3-yl] ester

> <PUBCHEM_IUPAC_NAME>
[(3S,6S)-6-amino-4,4-diphenylheptan-3-yl] acetate

> <PUBCHEM_IUPAC_SYSTEMATIC_NAME>
[(3S,6S)-6-azanyl-4,4-diphenyl-heptan-3-yl] ethanoate

> <PUBCHEM_IUPAC_TRADITIONAL_NAME>
acetic acid [(1S,4S)-4-amino-1-ethyl-2,2-diphenyl-pentyl] ester

> <PUBCHEM_IUPAC_INCHI>
InChI=1S/C21H27NO2/c1-4-20(24-17(3)23)21(15-16(2)22,18-11-7-5-8-12-18)19-13-9-6-10-14-19/h5-14,16,20H,4,15,22H2,1-3H3/t16-,20-/m0/s1

> <PUBCHEM_IUPAC_INCHIKEY>
FYQILXMAOLDNOY-JXFKEZNVSA-N

> <PUBCHEM_XLOGP3>
3.3

> <PUBCHEM_EXACT_MASS>
325.204179

> <PUBCHEM_MOLECULAR_FORMULA>
C21H27NO2

> <PUBCHEM_MOLECULAR_WEIGHT>
325.44458

> <PUBCHEM_OPENEYE_CAN_SMILES>
CCC(C(CC(C)N)(C1=CC=CC=C1)C2=CC=CC=C2)OC(=O)C

> <PUBCHEM_OPENEYE_ISO_SMILES>
CC[C@@H](C(C[C@H](C)N)(C1=CC=CC=C1)C2=CC=CC=C2)OC(=O)C

> <PUBCHEM_CACTVS_TPSA>
52.3

> <PUBCHEM_MONOISOTOPIC_WEIGHT>
325.204179

> <PUBCHEM_TOTAL_CHARGE>
0

> <PUBCHEM_HEAVY_ATOM_COUNT>
24

> <PUBCHEM_ATOM_DEF_STEREO_COUNT>
2

> <PUBCHEM_ATOM_UDEF_STEREO_COUNT>
0

> <PUBCHEM_BOND_DEF_STEREO_COUNT>
0

> <PUBCHEM_BOND_UDEF_STEREO_COUNT>
0

> <PUBCHEM_ISOTOPIC_ATOM_COUNT>
0

> <PUBCHEM_COMPONENT_COUNT>
1

> <PUBCHEM_CACTVS_TAUTO_COUNT>
1

> <PUBCHEM_COORDINATE_TYPE>
1
5
255

> <PUBCHEM_BONDANNOTATIONS>
5  1  6
12  17  8
13  18  8
14  19  8
15  20  8
17  22  8
18  23  8
19  22  8
20  23  8
9  3  5
7  13  8
7  15  8
8  12  8
8  14  8

$$$$

