194859
  -OEChem-07051213123D

 21 22  0     0  0  0  0  0  0999 V2000
   -2.1418    2.1144    0.0007 O   0  0  0  0  0  0  0  0  0  0  0  0
   -2.6694   -2.0504   -0.0006 O   0  0  0  0  0  0  0  0  0  0  0  0
   -3.7119   -0.0306   -0.0007 O   0  0  0  0  0  0  0  0  0  0  0  0
   -0.3287   -1.0544    0.0006 N   0  0  0  0  0  0  0  0  0  0  0  0
    1.2577    0.7597   -0.0002 C   0  0  0  0  0  0  0  0  0  0  0  0
    0.9443   -0.6158    0.0002 C   0  0  0  0  0  0  0  0  0  0  0  0
    0.1987    1.6776   -0.0003 C   0  0  0  0  0  0  0  0  0  0  0  0
   -1.1140    1.2286    0.0000 C   0  0  0  0  0  0  0  0  0  0  0  0
    2.5978    1.1821   -0.0005 C   0  0  0  0  0  0  0  0  0  0  0  0
   -1.3217   -0.1358    0.0005 C   0  0  0  0  0  0  0  0  0  0  0  0
    1.9967   -1.5272    0.0004 C   0  0  0  0  0  0  0  0  0  0  0  0
    3.6305    0.2488   -0.0003 C   0  0  0  0  0  0  0  0  0  0  0  0
    3.3291   -1.1075    0.0000 C   0  0  0  0  0  0  0  0  0  0  0  0
   -2.6672   -0.6894    0.0001 C   0  0  0  0  0  0  0  0  0  0  0  0
    0.4053    2.7460   -0.0004 H   0  0  0  0  0  0  0  0  0  0  0  0
    2.8449    2.2415   -0.0009 H   0  0  0  0  0  0  0  0  0  0  0  0
    1.7870   -2.5953    0.0007 H   0  0  0  0  0  0  0  0  0  0  0  0
    4.6648    0.5789   -0.0005 H   0  0  0  0  0  0  0  0  0  0  0  0
    4.1286   -1.8426    0.0002 H   0  0  0  0  0  0  0  0  0  0  0  0
   -1.7817    3.0180    0.0004 H   0  0  0  0  0  0  0  0  0  0  0  0
   -3.5806   -2.4140   -0.0015 H   0  0  0  0  0  0  0  0  0  0  0  0
  1  8  1  0  0  0  0
  1 20  1  0  0  0  0
  2 14  1  0  0  0  0
  2 21  1  0  0  0  0
  3 14  2  0  0  0  0
  4  6  1  0  0  0  0
  4 10  2  0  0  0  0
  5  6  1  0  0  0  0
  5  7  1  0  0  0  0
  5  9  2  0  0  0  0
  6 11  2  0  0  0  0
  7  8  2  0  0  0  0
  7 15  1  0  0  0  0
  8 10  1  0  0  0  0
  9 12  1  0  0  0  0
  9 16  1  0  0  0  0
 10 14  1  0  0  0  0
 11 13  1  0  0  0  0
 11 17  1  0  0  0  0
 12 13  2  0  0  0  0
 12 18  1  0  0  0  0
 13 19  1  0  0  0  0
M  END
> <PUBCHEM_COMPOUND_CID>
194859

> <PUBCHEM_CONFORMER_RMSD>
0.4

> <PUBCHEM_CONFORMER_DIVERSEORDER>
1
2

> <PUBCHEM_MMFF94_PARTIAL_CHARGES>
20
1 -0.53
10 0.4
11 -0.15
12 -0.15
13 -0.15
14 0.63
15 0.15
16 0.15
17 0.15
18 0.15
19 0.15
2 -0.65
20 0.45
21 0.5
3 -0.57
4 -0.62
6 0.31
7 -0.15
8 0.08
9 -0.15

> <PUBCHEM_EFFECTIVE_ROTOR_COUNT>
1

> <PUBCHEM_PHARMACOPHORE_FEATURES>
7
1 1 donor
1 2 acceptor
1 3 acceptor
1 4 acceptor
3 2 3 14 anion
6 4 5 6 7 8 10 rings
6 5 6 9 11 12 13 rings

> <PUBCHEM_HEAVY_ATOM_COUNT>
14

> <PUBCHEM_ATOM_DEF_STEREO_COUNT>
0

> <PUBCHEM_ATOM_UDEF_STEREO_COUNT>
0

> <PUBCHEM_BOND_DEF_STEREO_COUNT>
0

> <PUBCHEM_BOND_UDEF_STEREO_COUNT>
0

> <PUBCHEM_ISOTOPIC_ATOM_COUNT>
0

> <PUBCHEM_COMPONENT_COUNT>
1

> <PUBCHEM_CACTVS_TAUTO_COUNT>
4

> <PUBCHEM_CONFORMER_ID>
0002F92B00000001

> <PUBCHEM_MMFF94_ENERGY>
41.1611

> <PUBCHEM_FEATURE_SELFOVERLAP>
35.625

> <PUBCHEM_SHAPE_FINGERPRINT>
10608611 8 18409735083787093408
10967382 1 18410574002389524486
11132069 177 18409172090767513066
11471102 20 18411142415498973093
11769659 78 18412549816410968242
12032990 46 18410849941195653578
12932764 1 17488744630767904372
13380535 76 18191590967523938093
14144814 61 18410011056767864002
14325111 11 18410014364066975908
15442244 35 18194965373120698370
15536298 74 18334294271359230348
16945 1 18338798905662353472
17844478 74 18273207591046938345
193761 8 17978510067709978438
200 152 18113629988261367821
20201158 50 18412545400926222562
20510252 161 18188208805111142720
20645477 70 18409171025721651511
20871998 184 18187083983298762791
21267235 1 18410846672672962698
21501502 16 18339640143832272880
21501925 9 18340498836918017010
2334 1 18410856585599607844
23402539 116 18339372885144720534
23463225 33 18412262848192081084
23552423 10 18272086123678142492
23559900 14 18191026910276296670
25610 137 18340482257779777781
2748010 2 18337956791456301444
3312278 4 18412261701335677267
5104073 3 18410573993741393224
528886 8 18409735032073120370
7364860 26 18264206916085435944
8809292 202 18272366443050649187

> <PUBCHEM_SHAPE_MULTIPOLES>
265.52
5.66
1.97
0.59
0.17
0.15
0
-1.15
0
0.53
0
-0.07
0.01
0

> <PUBCHEM_SHAPE_SELFOVERLAP>
588.974

> <PUBCHEM_SHAPE_VOLUME>
141.1

> <PUBCHEM_COORDINATE_TYPE>
2
5
10

$$$$

