51090905
  -OEChem-06241223002D

 44 47  0     0  0  0  0  0  0999 V2000
    4.4487   -3.0818    0.0000 S   0  0  0  0  0  0  0  0  0  0  0  0
    6.1808    0.9182    0.0000 O   0  0  0  0  0  0  0  0  0  0  0  0
    4.4487    0.9182    0.0000 N   0  0  0  0  0  0  0  0  0  0  0  0
    2.6691   -3.1751    0.0000 N   0  0  0  0  0  0  0  0  0  0  0  0
    3.4782   -4.5763    0.0000 N   0  0  0  0  0  0  0  0  0  0  0  0
    2.5000   -4.7842    0.0000 N   0  0  0  0  0  0  0  0  0  0  0  0
    6.1808    3.9182    0.0000 C   0  0  0  0  0  0  0  0  0  0  0  0
    7.0468    2.4182    0.0000 C   0  0  0  0  0  0  0  0  0  0  0  0
    6.6808    4.7842    0.0000 C   0  0  0  0  0  0  0  0  0  0  0  0
    5.6808    4.7842    0.0000 C   0  0  0  0  0  0  0  0  0  0  0  0
    7.5468    1.5522    0.0000 C   0  0  0  0  0  0  0  0  0  0  0  0
    8.0468    2.4182    0.0000 C   0  0  0  0  0  0  0  0  0  0  0  0
    6.1808    2.9182    0.0000 C   0  0  0  0  0  0  0  0  0  0  0  0
    5.3147    2.4182    0.0000 C   0  0  0  0  0  0  0  0  0  0  0  0
    5.3147    1.4182    0.0000 C   0  0  0  0  0  0  0  0  0  0  0  0
    4.4487   -0.0818    0.0000 C   0  0  0  0  0  0  0  0  0  0  0  0
    3.5827   -0.5818    0.0000 C   0  0  0  0  0  0  0  0  0  0  0  0
    5.3147   -0.5818    0.0000 C   0  0  0  0  0  0  0  0  0  0  0  0
    3.5827   -1.5818    0.0000 C   0  0  0  0  0  0  0  0  0  0  0  0
    5.3147   -1.5818    0.0000 C   0  0  0  0  0  0  0  0  0  0  0  0
    4.4487   -2.0818    0.0000 C   0  0  0  0  0  0  0  0  0  0  0  0
    3.5827   -3.5818    0.0000 C   0  0  0  0  0  0  0  0  0  0  0  0
    2.4612   -2.1969    0.0000 C   0  0  0  0  0  0  0  0  0  0  0  0
    2.0000   -3.9182    0.0000 C   0  0  0  0  0  0  0  0  0  0  0  0
    6.7796    3.7577    0.0000 H   0  0  0  0  0  0  0  0  0  0  0  0
    7.2072    3.0171    0.0000 H   0  0  0  0  0  0  0  0  0  0  0  0
    7.2634    4.5722    0.0000 H   0  0  0  0  0  0  0  0  0  0  0  0
    6.7884    5.3948    0.0000 H   0  0  0  0  0  0  0  0  0  0  0  0
    5.5731    5.3948    0.0000 H   0  0  0  0  0  0  0  0  0  0  0  0
    5.0981    4.5722    0.0000 H   0  0  0  0  0  0  0  0  0  0  0  0
    7.0718    1.1536    0.0000 H   0  0  0  0  0  0  0  0  0  0  0  0
    8.0217    1.1536    0.0000 H   0  0  0  0  0  0  0  0  0  0  0  0
    8.6294    2.2062    0.0000 H   0  0  0  0  0  0  0  0  0  0  0  0
    8.1544    3.0288    0.0000 H   0  0  0  0  0  0  0  0  0  0  0  0
    4.7778    2.7282    0.0000 H   0  0  0  0  0  0  0  0  0  0  0  0
    3.9118    1.2282    0.0000 H   0  0  0  0  0  0  0  0  0  0  0  0
    3.0457   -0.2718    0.0000 H   0  0  0  0  0  0  0  0  0  0  0  0
    5.8517   -0.2718    0.0000 H   0  0  0  0  0  0  0  0  0  0  0  0
    3.0457   -1.8918    0.0000 H   0  0  0  0  0  0  0  0  0  0  0  0
    5.8517   -1.8918    0.0000 H   0  0  0  0  0  0  0  0  0  0  0  0
    3.0677   -2.0680    0.0000 H   0  0  0  0  0  0  0  0  0  0  0  0
    2.3323   -1.5905    0.0000 H   0  0  0  0  0  0  0  0  0  0  0  0
    1.8548   -2.3258    0.0000 H   0  0  0  0  0  0  0  0  0  0  0  0
    1.3834   -3.8534    0.0000 H   0  0  0  0  0  0  0  0  0  0  0  0
  1 21  1  0  0  0  0
  1 22  1  0  0  0  0
  2 15  2  0  0  0  0
  3 15  1  0  0  0  0
  3 16  1  0  0  0  0
  3 36  1  0  0  0  0
  4 22  1  0  0  0  0
  4 23  1  0  0  0  0
  4 24  1  0  0  0  0
  5  6  1  0  0  0  0
  5 22  2  0  0  0  0
  6 24  2  0  0  0  0
  7  9  1  0  0  0  0
  7 10  1  0  0  0  0
  7 13  1  0  0  0  0
  7 25  1  0  0  0  0
  8 11  1  0  0  0  0
  8 12  1  0  0  0  0
  8 13  1  0  0  0  0
  8 26  1  0  0  0  0
  9 10  1  0  0  0  0
  9 27  1  0  0  0  0
  9 28  1  0  0  0  0
 10 29  1  0  0  0  0
 10 30  1  0  0  0  0
 11 12  1  0  0  0  0
 11 31  1  0  0  0  0
 11 32  1  0  0  0  0
 12 33  1  0  0  0  0
 12 34  1  0  0  0  0
 13 14  2  0  0  0  0
 14 15  1  0  0  0  0
 14 35  1  0  0  0  0
 16 17  2  0  0  0  0
 16 18  1  0  0  0  0
 17 19  1  0  0  0  0
 17 37  1  0  0  0  0
 18 20  2  0  0  0  0
 18 38  1  0  0  0  0
 19 21  2  0  0  0  0
 19 39  1  0  0  0  0
 20 21  1  0  0  0  0
 20 40  1  0  0  0  0
 23 41  1  0  0  0  0
 23 42  1  0  0  0  0
 23 43  1  0  0  0  0
 24 44  1  0  0  0  0
M  END
> <PUBCHEM_COMPOUND_CID>
51090905

> <PUBCHEM_COMPOUND_CANONICALIZED>
1

> <PUBCHEM_CACTVS_COMPLEXITY>
481

> <PUBCHEM_CACTVS_HBOND_ACCEPTOR>
4

> <PUBCHEM_CACTVS_HBOND_DONOR>
1

> <PUBCHEM_CACTVS_ROTATABLE_BOND>
6

> <PUBCHEM_CACTVS_SUBSKEYS>
AAADceB7oABAAAAAAAAAAAAAGDAAAWAAAAAwAAAAAAAAAAABwAAAHgQYAAAADQiB0AQ30YfMEAiqAiVTdACSUAtxipANyBgIZMiIKCLgkZGEIAhglADIyQcQgAAMAAQAAAAAAAAACAAAAAAAAAAAAAAAAA==

> <PUBCHEM_IUPAC_OPENEYE_NAME>
3,3-dicyclopropyl-N-[4-[(4-methyl-1,2,4-triazol-3-yl)sulfanyl]phenyl]prop-2-enamide

> <PUBCHEM_IUPAC_CAS_NAME>
3,3-dicyclopropyl-N-[4-[(4-methyl-1,2,4-triazol-3-yl)thio]phenyl]-2-propenamide

> <PUBCHEM_IUPAC_NAME>
3,3-dicyclopropyl-N-[4-[(4-methyl-1,2,4-triazol-3-yl)sulfanyl]phenyl]prop-2-enamide

> <PUBCHEM_IUPAC_SYSTEMATIC_NAME>
3,3-dicyclopropyl-N-[4-[(4-methyl-1,2,4-triazol-3-yl)sulfanyl]phenyl]prop-2-enamide

> <PUBCHEM_IUPAC_TRADITIONAL_NAME>
3,3-dicyclopropyl-N-[4-[(4-methyl-1,2,4-triazol-3-yl)thio]phenyl]acrylamide

> <PUBCHEM_IUPAC_INCHI>
InChI=1S/C18H20N4OS/c1-22-11-19-21-18(22)24-15-8-6-14(7-9-15)20-17(23)10-16(12-2-3-12)13-4-5-13/h6-13H,2-5H2,1H3,(H,20,23)

> <PUBCHEM_IUPAC_INCHIKEY>
ORFQYJCBLCBJFX-UHFFFAOYSA-N

> <PUBCHEM_XLOGP3_AA>
3.5

> <PUBCHEM_EXACT_MASS>
340.135782

> <PUBCHEM_MOLECULAR_FORMULA>
C18H20N4OS

> <PUBCHEM_MOLECULAR_WEIGHT>
340.4426

> <PUBCHEM_OPENEYE_CAN_SMILES>
CN1C=NN=C1SC2=CC=C(C=C2)NC(=O)C=C(C3CC3)C4CC4

> <PUBCHEM_OPENEYE_ISO_SMILES>
CN1C=NN=C1SC2=CC=C(C=C2)NC(=O)C=C(C3CC3)C4CC4

> <PUBCHEM_CACTVS_TPSA>
85.1

> <PUBCHEM_MONOISOTOPIC_WEIGHT>
340.135782

> <PUBCHEM_TOTAL_CHARGE>
0

> <PUBCHEM_HEAVY_ATOM_COUNT>
24

> <PUBCHEM_ATOM_DEF_STEREO_COUNT>
0

> <PUBCHEM_ATOM_UDEF_STEREO_COUNT>
0

> <PUBCHEM_BOND_DEF_STEREO_COUNT>
0

> <PUBCHEM_BOND_UDEF_STEREO_COUNT>
0

> <PUBCHEM_ISOTOPIC_ATOM_COUNT>
0

> <PUBCHEM_COMPONENT_COUNT>
1

> <PUBCHEM_CACTVS_TAUTO_COUNT>
2

> <PUBCHEM_COORDINATE_TYPE>
1
5
255

> <PUBCHEM_BONDANNOTATIONS>
16  17  8
16  18  8
17  19  8
18  20  8
19  21  8
20  21  8
4  22  8
4  24  8
5  22  8
5  6  8
6  24  8

$$$$

