443722
  -OEChem-07051213033D

 39 42  0     1  0  0  0  0  0999 V2000
   -1.5232    1.0763    0.8412 O   0  0  0  0  0  0  0  0  0  0  0  0
   -3.8315    0.1019   -0.7412 O   0  0  0  0  0  0  0  0  0  0  0  0
   -0.6538    3.7746    0.4982 O   0  0  0  0  0  0  0  0  0  0  0  0
    2.8494   -1.7090   -0.0794 N   0  0  1  0  0  0  0  0  0  0  0  0
   -0.2960   -0.9368    0.1936 C   0  0  1  0  0  0  0  0  0  0  0  0
   -1.3640   -0.3303    1.1598 C   0  0  2  0  0  0  0  0  0  0  0  0
    0.4733    0.3237   -0.0541 C   0  0  0  0  0  0  0  0  0  0  0  0
    0.5122   -2.0274    0.9268 C   0  0  0  0  0  0  0  0  0  0  0  0
   -2.7214   -1.0356    1.0960 C   0  0  0  0  0  0  0  0  0  0  0  0
   -0.9096   -1.4563   -1.0929 C   0  0  0  0  0  0  0  0  0  0  0  0
   -0.3033    1.4188    0.3148 C   0  0  0  0  0  0  0  0  0  0  0  0
    1.7227   -2.6056    0.1767 C   0  0  0  0  0  0  0  0  0  0  0  0
    1.7369    0.5027   -0.6038 C   0  0  0  0  0  0  0  0  0  0  0  0
   -3.2702   -1.1412   -0.3294 C   0  0  2  0  0  0  0  0  0  0  0  0
    2.5894   -0.6527   -1.0597 C   0  0  0  0  0  0  0  0  0  0  0  0
   -2.2271   -1.5267   -1.3283 C   0  0  0  0  0  0  0  0  0  0  0  0
    0.1217    2.7208    0.1414 C   0  0  0  0  0  0  0  0  0  0  0  0
    2.1843    1.8246   -0.7766 C   0  0  0  0  0  0  0  0  0  0  0  0
    1.3857    2.9200   -0.4078 C   0  0  0  0  0  0  0  0  0  0  0  0
    3.5245   -1.2419    1.1248 C   0  0  0  0  0  0  0  0  0  0  0  0
   -1.0152   -0.3620    2.2029 H   0  0  0  0  0  0  0  0  0  0  0  0
   -0.1606   -2.8652    1.1584 H   0  0  0  0  0  0  0  0  0  0  0  0
    0.8527   -1.6524    1.9011 H   0  0  0  0  0  0  0  0  0  0  0  0
   -3.4404   -0.4878    1.7173 H   0  0  0  0  0  0  0  0  0  0  0  0
   -2.6118   -2.0441    1.5137 H   0  0  0  0  0  0  0  0  0  0  0  0
   -0.2387   -1.7671   -1.8900 H   0  0  0  0  0  0  0  0  0  0  0  0
    2.0975   -3.4568    0.7611 H   0  0  0  0  0  0  0  0  0  0  0  0
    1.3973   -3.0539   -0.7699 H   0  0  0  0  0  0  0  0  0  0  0  0
   -4.0772   -1.8825   -0.3354 H   0  0  0  0  0  0  0  0  0  0  0  0
    2.1416   -1.0823   -1.9651 H   0  0  0  0  0  0  0  0  0  0  0  0
    3.5632   -0.2709   -1.3944 H   0  0  0  0  0  0  0  0  0  0  0  0
   -2.5681   -1.8828   -2.2967 H   0  0  0  0  0  0  0  0  0  0  0  0
    3.1624    2.0181   -1.2118 H   0  0  0  0  0  0  0  0  0  0  0  0
    1.7689    3.9256   -0.5621 H   0  0  0  0  0  0  0  0  0  0  0  0
    2.9071   -0.5717    1.7313 H   0  0  0  0  0  0  0  0  0  0  0  0
    4.4471   -0.7104    0.8653 H   0  0  0  0  0  0  0  0  0  0  0  0
    3.8221   -2.0895    1.7522 H   0  0  0  0  0  0  0  0  0  0  0  0
   -4.2262   -0.0256   -1.6210 H   0  0  0  0  0  0  0  0  0  0  0  0
   -0.1764    4.5983    0.2984 H   0  0  0  0  0  0  0  0  0  0  0  0
  1  6  1  0  0  0  0
  1 11  1  0  0  0  0
  2 14  1  0  0  0  0
  2 38  1  0  0  0  0
  3 17  1  0  0  0  0
  3 39  1  0  0  0  0
  4 12  1  0  0  0  0
  4 15  1  0  0  0  0
  4 20  1  0  0  0  0
  5  6  1  0  0  0  0
  5  7  1  0  0  0  0
  5  8  1  0  0  0  0
  5 10  1  0  0  0  0
  6  9  1  0  0  0  0
  6 21  1  0  0  0  0
  7 11  1  0  0  0  0
  7 13  2  0  0  0  0
  8 12  1  0  0  0  0
  8 22  1  0  0  0  0
  8 23  1  0  0  0  0
  9 14  1  0  0  0  0
  9 24  1  0  0  0  0
  9 25  1  0  0  0  0
 10 16  2  0  0  0  0
 10 26  1  0  0  0  0
 11 17  2  0  0  0  0
 12 27  1  0  0  0  0
 12 28  1  0  0  0  0
 13 15  1  0  0  0  0
 13 18  1  0  0  0  0
 14 16  1  0  0  0  0
 14 29  1  0  0  0  0
 15 30  1  0  0  0  0
 15 31  1  0  0  0  0
 16 32  1  0  0  0  0
 17 19  1  0  0  0  0
 18 19  2  0  0  0  0
 18 33  1  0  0  0  0
 19 34  1  0  0  0  0
 20 35  1  0  0  0  0
 20 36  1  0  0  0  0
 20 37  1  0  0  0  0
M  END
> <PUBCHEM_COMPOUND_CID>
443722

> <PUBCHEM_CONFORMER_RMSD>
0.6

> <PUBCHEM_CONFORMER_DIVERSEORDER>
1
3
2

> <PUBCHEM_MMFF94_PARTIAL_CHARGES>
24
1 -0.36
10 -0.29
11 0.08
12 0.27
13 -0.14
14 0.42
15 0.41
16 -0.29
17 0.08
18 -0.15
19 -0.15
2 -0.68
20 0.27
26 0.15
3 -0.53
32 0.15
33 0.15
34 0.15
38 0.4
39 0.45
4 -0.81
5 0.28
6 0.28
7 -0.14

> <PUBCHEM_EFFECTIVE_ROTOR_COUNT>
1.4

> <PUBCHEM_PHARMACOPHORE_FEATURES>
9
1 1 acceptor
1 2 acceptor
1 2 donor
1 3 donor
1 4 cation
5 1 5 6 7 11 rings
6 5 6 9 10 14 16 rings
6 7 11 13 17 18 19 rings
7 4 5 7 8 12 13 15 rings

> <PUBCHEM_HEAVY_ATOM_COUNT>
20

> <PUBCHEM_ATOM_DEF_STEREO_COUNT>
3

> <PUBCHEM_ATOM_UDEF_STEREO_COUNT>
0

> <PUBCHEM_BOND_DEF_STEREO_COUNT>
0

> <PUBCHEM_BOND_UDEF_STEREO_COUNT>
0

> <PUBCHEM_ISOTOPIC_ATOM_COUNT>
0

> <PUBCHEM_COMPONENT_COUNT>
1

> <PUBCHEM_CACTVS_TAUTO_COUNT>
3

> <PUBCHEM_CONFORMER_ID>
0006C54A00000001

> <PUBCHEM_MMFF94_ENERGY>
58.3452

> <PUBCHEM_FEATURE_SELFOVERLAP>
46.077

> <PUBCHEM_SHAPE_FINGERPRINT>
10165383 225 17482245146868960605
104564 63 18193267714055514190
10871710 139 18268409400066435708
10967382 1 18194671575666479144
11578080 2 17749973123003061353
12423570 1 17826769715003549795
12553582 1 18339625837222532370
12730499 353 17909266884933617995
13004483 165 18123213430230307002
13132413 78 18335433351935187540
13140716 1 18338786905365817712
14181834 199 18199761240956534502
15490181 7 17475792052964397754
16945 1 18124858299535288970
18981168 100 16699805378321727487
19049666 15 18059008355164399891
20511035 2 17117742095880547194
21041028 32 18411972585838883545
21197605 99 17761187201694828193
21524375 3 17472413257953168092
22112679 90 18259977184640967387
22802520 49 17988932145567524429
2334 1 18338503158404063624
23388829 49 18410577305525226370
23419403 2 17840911526676393892
23559900 14 17326327136137294062
238 59 17833849170006819863
25 1 18124873452269664469
2748010 2 18339067229380794440
3286 77 18059864900418959671
34934 24 18334571296243660628
350125 39 16972504851751153740
5845 1 8209985773373760282
6338986 31 18409735092271227710
7364860 26 18266465308246035498
7471813 234 18263662739227902263
81228 2 18124879220415901002

> <PUBCHEM_SHAPE_MULTIPOLES>
389
4.68
3.52
1.19
1.87
2.57
0.03
-1.79
0.51
-1.98
-0.42
0.24
-0.34
-0.69

> <PUBCHEM_SHAPE_SELFOVERLAP>
861.35

> <PUBCHEM_SHAPE_VOLUME>
205

> <PUBCHEM_COORDINATE_TYPE>
2
5
10

$$$$

