9607
  -OEChem-06261203513D

 43 42  0     0  0  0  0  0  0999 V2000
    9.8157   -0.3140    0.1188 F   0  0  0  0  0  0  0  0  0  0  0  0
   -2.7109   -1.5023   -0.0295 O   0  0  0  0  0  0  0  0  0  0  0  0
   -6.3425    0.6243    0.0557 O   0  0  0  0  0  0  0  0  0  0  0  0
   -5.3862   -1.4728    0.0270 O   0  0  0  0  0  0  0  0  0  0  0  0
    2.3941   -0.2575   -0.0287 C   0  0  0  0  0  0  0  0  0  0  0  0
    3.6956    0.5504   -0.0187 C   0  0  0  0  0  0  0  0  0  0  0  0
    1.1028    0.5579   -0.1502 C   0  0  0  0  0  0  0  0  0  0  0  0
    4.9536   -0.3195    0.0177 C   0  0  0  0  0  0  0  0  0  0  0  0
   -0.1657   -0.3001   -0.0962 C   0  0  0  0  0  0  0  0  0  0  0  0
    6.2208    0.5383    0.0048 C   0  0  0  0  0  0  0  0  0  0  0  0
   -1.4391    0.5452   -0.1272 C   0  0  0  0  0  0  0  0  0  0  0  0
    7.4770   -0.3266    0.0752 C   0  0  0  0  0  0  0  0  0  0  0  0
   -2.7224   -0.2739   -0.0807 C   0  0  0  0  0  0  0  0  0  0  0  0
    8.7405    0.5137    0.0267 C   0  0  0  0  0  0  0  0  0  0  0  0
   -4.0079    0.5320   -0.0372 C   0  0  0  0  0  0  0  0  0  0  0  0
   -5.2948   -0.2534    0.0248 C   0  0  0  0  0  0  0  0  0  0  0  0
   -7.6442    0.0303    0.0934 C   0  0  0  0  0  0  0  0  0  0  0  0
   -8.6864    1.1280    0.1242 C   0  0  0  0  0  0  0  0  0  0  0  0
    2.3497   -0.8550    0.8909 H   0  0  0  0  0  0  0  0  0  0  0  0
    2.4304   -0.9734   -0.8598 H   0  0  0  0  0  0  0  0  0  0  0  0
    3.7234    1.1861   -0.9124 H   0  0  0  0  0  0  0  0  0  0  0  0
    3.6902    1.2233    0.8475 H   0  0  0  0  0  0  0  0  0  0  0  0
    1.1201    1.1232   -1.0899 H   0  0  0  0  0  0  0  0  0  0  0  0
    1.0739    1.2945    0.6622 H   0  0  0  0  0  0  0  0  0  0  0  0
    4.9384   -0.9443    0.9188 H   0  0  0  0  0  0  0  0  0  0  0  0
    4.9578   -0.9959   -0.8455 H   0  0  0  0  0  0  0  0  0  0  0  0
   -0.1673   -1.0021   -0.9392 H   0  0  0  0  0  0  0  0  0  0  0  0
   -0.1572   -0.9085    0.8168 H   0  0  0  0  0  0  0  0  0  0  0  0
    6.2057    1.2317    0.8545 H   0  0  0  0  0  0  0  0  0  0  0  0
    6.2424    1.1460   -0.9080 H   0  0  0  0  0  0  0  0  0  0  0  0
   -1.4614    1.1453   -1.0438 H   0  0  0  0  0  0  0  0  0  0  0  0
   -1.4467    1.2256    0.7318 H   0  0  0  0  0  0  0  0  0  0  0  0
    7.4935   -1.0441   -0.7539 H   0  0  0  0  0  0  0  0  0  0  0  0
    7.4773   -0.9228    0.9954 H   0  0  0  0  0  0  0  0  0  0  0  0
    8.8204    1.0673   -0.9133 H   0  0  0  0  0  0  0  0  0  0  0  0
    8.7872    1.2190    0.8615 H   0  0  0  0  0  0  0  0  0  0  0  0
   -4.0356    1.1508   -0.9407 H   0  0  0  0  0  0  0  0  0  0  0  0
   -3.9636    1.1709    0.8515 H   0  0  0  0  0  0  0  0  0  0  0  0
   -7.7877   -0.5914   -0.7974 H   0  0  0  0  0  0  0  0  0  0  0  0
   -7.7357   -0.5922    0.9904 H   0  0  0  0  0  0  0  0  0  0  0  0
   -8.5446    1.7695    1.0003 H   0  0  0  0  0  0  0  0  0  0  0  0
   -8.5958    1.7703   -0.7580 H   0  0  0  0  0  0  0  0  0  0  0  0
   -9.6958    0.7083    0.1534 H   0  0  0  0  0  0  0  0  0  0  0  0
  1 14  1  0  0  0  0
  2 13  2  0  0  0  0
  3 16  1  0  0  0  0
  3 17  1  0  0  0  0
  4 16  2  0  0  0  0
  5  6  1  0  0  0  0
  5  7  1  0  0  0  0
  5 19  1  0  0  0  0
  5 20  1  0  0  0  0
  6  8  1  0  0  0  0
  6 21  1  0  0  0  0
  6 22  1  0  0  0  0
  7  9  1  0  0  0  0
  7 23  1  0  0  0  0
  7 24  1  0  0  0  0
  8 10  1  0  0  0  0
  8 25  1  0  0  0  0
  8 26  1  0  0  0  0
  9 11  1  0  0  0  0
  9 27  1  0  0  0  0
  9 28  1  0  0  0  0
 10 12  1  0  0  0  0
 10 29  1  0  0  0  0
 10 30  1  0  0  0  0
 11 13  1  0  0  0  0
 11 31  1  0  0  0  0
 11 32  1  0  0  0  0
 12 14  1  0  0  0  0
 12 33  1  0  0  0  0
 12 34  1  0  0  0  0
 13 15  1  0  0  0  0
 14 35  1  0  0  0  0
 14 36  1  0  0  0  0
 15 16  1  0  0  0  0
 15 37  1  0  0  0  0
 15 38  1  0  0  0  0
 17 18  1  0  0  0  0
 17 39  1  0  0  0  0
 17 40  1  0  0  0  0
 18 41  1  0  0  0  0
 18 42  1  0  0  0  0
 18 43  1  0  0  0  0
M  END
> <PUBCHEM_COMPOUND_CID>
9607

> <PUBCHEM_CONFORMER_RMSD>
1

> <PUBCHEM_CONFORMER_DIVERSEORDER>
1
78
47
30
17
11
113
81
39
116
49
102
42
67
57
100
66
101
31
35
44
63
20
5
15
46
83
89
68
103
13
107
25
59
40
96
38
65
27
19
18
111
21
109
3
87
52
84
75
97
94
92
43
70
72
60
6
98
95
76
88
2
110
16
82
48
79
115
93
28
24
51
61
22
41
33
85
10
99
36
91
108
53
37
71
77
32
55
104
90
56
73
9
106
50
114
69
74
23
7
45
117
14
26
29
4
54
86
62
64
34
8
12
80
105
112
58

> <PUBCHEM_MMFF94_PARTIAL_CHARGES>
10
1 -0.34
11 0.06
13 0.45
14 0.34
15 0.12
16 0.66
17 0.28
2 -0.57
3 -0.43
4 -0.57

> <PUBCHEM_EFFECTIVE_ROTOR_COUNT>
13

> <PUBCHEM_PHARMACOPHORE_FEATURES>
3
1 15 anion
1 2 acceptor
1 4 acceptor

> <PUBCHEM_HEAVY_ATOM_COUNT>
18

> <PUBCHEM_ATOM_DEF_STEREO_COUNT>
0

> <PUBCHEM_ATOM_UDEF_STEREO_COUNT>
0

> <PUBCHEM_BOND_DEF_STEREO_COUNT>
0

> <PUBCHEM_BOND_UDEF_STEREO_COUNT>
0

> <PUBCHEM_ISOTOPIC_ATOM_COUNT>
0

> <PUBCHEM_COMPONENT_COUNT>
1

> <PUBCHEM_CACTVS_TAUTO_COUNT>
5

> <PUBCHEM_CONFORMER_ID>
0000258700000001

> <PUBCHEM_MMFF94_ENERGY>
5.7716

> <PUBCHEM_FEATURE_SELFOVERLAP>
15.231

> <PUBCHEM_SHAPE_FINGERPRINT>
10299344 5 18060139838665903258
11315181 36 18040712550313197227
12091667 2 17060340721368430669
13533116 47 14056991776051801887
13885169 127 18408039636709220368
14123256 10 14979958073357216576
14251764 18 18201723955470124138
14251764 46 18410573989446424928
14428016 248 17060330830185706460
15510794 2 18113050536891179887
155225 1 18334011736201422225
18006028 8 17530684307539843944
18335252 98 11167944670940506616
20621476 8 18272934929174372628
21095086 128 10664103350485071232
21150785 3 10447929473317884316
21304253 13 18411699872828442405
22224240 67 15213021548923286772
23035841 295 18202003218464726754
232437 2 18413107255710482178
23402539 116 18187369805679039357
23521765 1 18335421266329772148
23581129 1 18411981364330095148
246663 6 13039184814444204261
28498 318 18186518826264868614
33684 2 18410575093253020001
4325135 7 18202001032326243300
5283156 175 18060137657249641756
67123 10 18410575076078425580
8209 1 18333450945587343772

> <PUBCHEM_SHAPE_MULTIPOLES>
345.55
31.6
1.01
0.6
24.93
0.16
0
-3.89
-1.89
-1.16
0
0.01
-0.02
-0.09

> <PUBCHEM_SHAPE_SELFOVERLAP>
641.582

> <PUBCHEM_SHAPE_VOLUME>
216.1

> <PUBCHEM_COORDINATE_TYPE>
2
5
10

$$$$

