441168
  -OEChem-07051212522D

 51 55  0     1  0  0  0  0  0999 V2000
    2.5405   -0.1655    0.0000 O   0  0  0  0  0  0  0  0  0  0  0  0
    2.5247   -2.2138    0.0000 O   0  0  0  0  0  0  0  0  0  0  0  0
    3.4446    1.3313    0.0000 O   0  0  0  0  0  0  0  0  0  0  0  0
    6.9088   -0.6687    0.0000 O   0  0  0  0  0  0  0  0  0  0  0  0
    7.0009   -1.7142    0.0000 O   0  0  0  0  0  0  0  0  0  0  0  0
    4.2889    2.8628    0.0000 O   0  0  0  0  0  0  0  0  0  0  0  0
    7.8129    0.8282    0.0000 O   0  0  0  0  0  0  0  0  0  0  0  0
    5.1702    4.4754    0.0000 O   0  0  0  0  0  0  0  0  0  0  0  0
    7.0447   -4.8056    0.0000 O   0  0  0  0  0  0  0  0  0  0  0  0
    7.8934   -3.2956    0.0000 O   0  0  0  0  0  0  0  0  0  0  0  0
    8.7850    4.4893    0.0000 O   0  0  0  0  0  0  0  0  0  0  0  0
    3.4007   -0.6755    0.0000 C   0  0  2  0  0  0  0  0  0  0  0  0
    3.3926   -1.7171    0.0000 C   0  0  2  0  0  0  0  0  0  0  0  0
    4.3107   -0.1687    0.0000 C   0  0  0  0  0  0  0  0  0  0  0  0
    5.1767   -0.6687    0.0000 C   0  0  0  0  0  0  0  0  0  0  0  0
    4.2947   -2.2379    0.0000 C   0  0  0  0  0  0  0  0  0  0  0  0
    5.1928   -1.7102    0.0000 C   0  0  0  0  0  0  0  0  0  0  0  0
    4.3107    0.8313    0.0000 C   0  0  0  0  0  0  0  0  0  0  0  0
    6.0427   -0.1687    0.0000 C   0  0  0  0  0  0  0  0  0  0  0  0
    5.1767    1.3313    0.0000 C   0  0  0  0  0  0  0  0  0  0  0  0
    6.0427    0.8313    0.0000 C   0  0  0  0  0  0  0  0  0  0  0  0
    6.1447   -2.2308    0.0000 C   0  0  0  0  0  0  0  0  0  0  0  0
    4.2864   -3.3229    0.0000 C   0  0  0  0  0  0  0  0  0  0  0  0
    5.2260   -3.8654    0.0000 C   0  0  0  0  0  0  0  0  0  0  0  0
    6.1614   -3.3157    0.0000 C   0  0  0  0  0  0  0  0  0  0  0  0
    5.1606    2.3728    0.0000 C   0  0  0  0  0  0  0  0  0  0  0  0
    6.9527    1.3382    0.0000 C   0  0  0  0  0  0  0  0  0  0  0  0
    6.0587    2.9006    0.0000 C   0  0  0  0  0  0  0  0  0  0  0  0
    6.9608    2.3798    0.0000 C   0  0  0  0  0  0  0  0  0  0  0  0
    5.2298   -4.8654    0.0000 C   0  0  0  0  0  0  0  0  0  0  0  0
    6.0420    3.9854    0.0000 C   0  0  0  0  0  0  0  0  0  0  0  0
    7.9086    2.9077    0.0000 C   0  0  0  0  0  0  0  0  0  0  0  0
    7.0332   -3.8056    0.0000 C   0  0  0  0  0  0  0  0  0  0  0  0
    7.9170    3.9927    0.0000 C   0  0  0  0  0  0  0  0  0  0  0  0
    6.9774    4.5352    0.0000 C   0  0  0  0  0  0  0  0  0  0  0  0
    3.4090   -0.0556    0.0000 H   0  0  0  0  0  0  0  0  0  0  0  0
    3.3914   -2.3371    0.0000 H   0  0  0  0  0  0  0  0  0  0  0  0
    3.7482   -3.6308    0.0000 H   0  0  0  0  0  0  0  0  0  0  0  0
    2.0000   -0.4693    0.0000 H   0  0  0  0  0  0  0  0  0  0  0  0
    2.5223   -2.8338    0.0000 H   0  0  0  0  0  0  0  0  0  0  0  0
    4.6098   -4.8678    0.0000 H   0  0  0  0  0  0  0  0  0  0  0  0
    5.2322   -5.4854    0.0000 H   0  0  0  0  0  0  0  0  0  0  0  0
    5.8498   -4.8630    0.0000 H   0  0  0  0  0  0  0  0  0  0  0  0
    2.9077    1.0213    0.0000 H   0  0  0  0  0  0  0  0  0  0  0  0
    7.4457   -0.3587    0.0000 H   0  0  0  0  0  0  0  0  0  0  0  0
    8.4420    2.5915    0.0000 H   0  0  0  0  0  0  0  0  0  0  0  0
    7.5437   -2.0138    0.0000 H   0  0  0  0  0  0  0  0  0  0  0  0
    6.9750    5.1552    0.0000 H   0  0  0  0  0  0  0  0  0  0  0  0
    5.1630    5.0954    0.0000 H   0  0  0  0  0  0  0  0  0  0  0  0
    7.5852   -5.1093    0.0000 H   0  0  0  0  0  0  0  0  0  0  0  0
    8.7873    5.1093    0.0000 H   0  0  0  0  0  0  0  0  0  0  0  0
 12  1  1  1  0  0  0
  1 39  1  0  0  0  0
 13  2  1  6  0  0  0
  2 40  1  0  0  0  0
  3 18  1  0  0  0  0
  3 44  1  0  0  0  0
  4 19  1  0  0  0  0
  4 45  1  0  0  0  0
  5 22  1  0  0  0  0
  5 47  1  0  0  0  0
  6 26  2  0  0  0  0
  7 27  2  0  0  0  0
  8 31  1  0  0  0  0
  8 49  1  0  0  0  0
  9 33  1  0  0  0  0
  9 50  1  0  0  0  0
 10 33  2  0  0  0  0
 11 34  1  0  0  0  0
 11 51  1  0  0  0  0
 12 13  1  0  0  0  0
 12 14  1  0  0  0  0
 12 36  1  0  0  0  0
 13 16  1  0  0  0  0
 13 37  1  0  0  0  0
 14 15  2  0  0  0  0
 14 18  1  0  0  0  0
 15 17  1  0  0  0  0
 15 19  1  0  0  0  0
 16 17  1  0  0  0  0
 16 23  2  0  0  0  0
 17 22  2  0  0  0  0
 18 20  2  0  0  0  0
 19 21  2  0  0  0  0
 20 21  1  0  0  0  0
 20 26  1  0  0  0  0
 21 27  1  0  0  0  0
 22 25  1  0  0  0  0
 23 24  1  0  0  0  0
 23 38  1  0  0  0  0
 24 25  2  0  0  0  0
 24 30  1  0  0  0  0
 25 33  1  0  0  0  0
 26 28  1  0  0  0  0
 27 29  1  0  0  0  0
 28 29  1  0  0  0  0
 28 31  2  0  0  0  0
 29 32  2  0  0  0  0
 30 41  1  0  0  0  0
 30 42  1  0  0  0  0
 30 43  1  0  0  0  0
 31 35  1  0  0  0  0
 32 34  1  0  0  0  0
 32 46  1  0  0  0  0
 34 35  2  0  0  0  0
 35 48  1  0  0  0  0
M  END
> <PUBCHEM_COMPOUND_CID>
441168

> <PUBCHEM_COMPOUND_CANONICALIZED>
1

> <PUBCHEM_CACTVS_COMPLEXITY>
908

> <PUBCHEM_CACTVS_HBOND_ACCEPTOR>
11

> <PUBCHEM_CACTVS_HBOND_DONOR>
8

> <PUBCHEM_CACTVS_ROTATABLE_BOND>
1

> <PUBCHEM_CACTVS_SUBSKEYS>
AAADceB4PAAAAAAAAAAAAAAAAAAAAAAAAAAwYMGDAAAAAADBUAAAGgAACAAADBSgmAIyDoAAAgCIAqDSCAACAAAkIAAAiAEGCMgJNzaCFRKAcUAl4BUJmYfL7PTO4QADCAAYAADCAAYQADCAAAAAAAAAAA==

> <PUBCHEM_IUPAC_OPENEYE_NAME>
(5S,6S)-1,5,6,7,9,11,14-heptahydroxy-3-methyl-8,13-dioxo-5,6-dihydrobenzo[a]tetracene-2-carboxylic acid

> <PUBCHEM_IUPAC_CAS_NAME>
(5S,6S)-1,5,6,7,9,11,14-heptahydroxy-3-methyl-8,13-dioxo-5,6-dihydrobenzo[a]tetracene-2-carboxylic acid

> <PUBCHEM_IUPAC_NAME>
(5S,6S)-1,5,6,7,9,11,14-heptahydroxy-3-methyl-8,13-dioxo-5,6-dihydrobenzo[a]tetracene-2-carboxylic acid

> <PUBCHEM_IUPAC_SYSTEMATIC_NAME>
(5S,6S)-3-methyl-1,5,6,7,9,11,14-heptakis(oxidanyl)-8,13-bis(oxidanylidene)-5,6-dihydrobenzo[a]tetracene-2-carboxylic acid

> <PUBCHEM_IUPAC_TRADITIONAL_NAME>
(5S,6S)-1,5,6,7,9,11,14-heptahydroxy-8,13-diketo-3-methyl-5,6-dihydrobenzo[a]tetracene-2-carboxylic acid

> <PUBCHEM_IUPAC_INCHI>
InChI=1S/C24H16O11/c1-5-2-7-12(19(29)10(5)24(34)35)13-14(23(33)18(7)28)22(32)16-15(21(13)31)17(27)8-3-6(25)4-9(26)11(8)20(16)30/h2-4,18,23,25-26,28-29,31-33H,1H3,(H,34,35)/t18-,23-/m0/s1

> <PUBCHEM_IUPAC_INCHIKEY>
WPQNJCYILUYTQH-MBSDFSHPSA-N

> <PUBCHEM_XLOGP3_AA>
2.3

> <PUBCHEM_EXACT_MASS>
480.069261

> <PUBCHEM_MOLECULAR_FORMULA>
C24H16O11

> <PUBCHEM_MOLECULAR_WEIGHT>
480.37724

> <PUBCHEM_OPENEYE_CAN_SMILES>
CC1=C(C(=C2C(=C1)C(C(C3=C2C(=C4C(=C3O)C(=O)C5=C(C=C(C=C5C4=O)O)O)O)O)O)O)C(=O)O

> <PUBCHEM_OPENEYE_ISO_SMILES>
CC1=C(C(=C2C(=C1)[C@@H]([C@H](C3=C2C(=C4C(=C3O)C(=O)C5=C(C=C(C=C5C4=O)O)O)O)O)O)O)C(=O)O

> <PUBCHEM_CACTVS_TPSA>
213

> <PUBCHEM_MONOISOTOPIC_WEIGHT>
480.069261

> <PUBCHEM_TOTAL_CHARGE>
0

> <PUBCHEM_HEAVY_ATOM_COUNT>
35

> <PUBCHEM_ATOM_DEF_STEREO_COUNT>
2

> <PUBCHEM_ATOM_UDEF_STEREO_COUNT>
0

> <PUBCHEM_BOND_DEF_STEREO_COUNT>
0

> <PUBCHEM_BOND_UDEF_STEREO_COUNT>
0

> <PUBCHEM_ISOTOPIC_ATOM_COUNT>
0

> <PUBCHEM_COMPONENT_COUNT>
1

> <PUBCHEM_CACTVS_TAUTO_COUNT>
994

> <PUBCHEM_COORDINATE_TYPE>
1
5
255

> <PUBCHEM_BONDANNOTATIONS>
12  1  5
14  15  8
14  18  8
15  19  8
16  17  8
16  23  8
17  22  8
18  20  8
19  21  8
13  2  6
20  21  8
22  25  8
23  24  8
24  25  8
28  29  8
28  31  8
29  32  8
31  35  8
32  34  8
34  35  8

$$$$

