8832
  -OEChem-06261203093D

 22 21  0     0  0  0  0  0  0999 V2000
    2.9046   -0.6572   -0.4476 O   0  0  0  0  0  0  0  0  0  0  0  0
   -2.9079   -0.6495   -0.4637 O   0  0  0  0  0  0  0  0  0  0  0  0
   -0.0065   -0.1467    1.3366 O   0  0  0  0  0  0  0  0  0  0  0  0
    1.1502    0.8762   -0.3960 N   0  0  0  0  0  0  0  0  0  0  0  0
   -1.1492    0.8795   -0.4032 N   0  0  0  0  0  0  0  0  0  0  0  0
    2.4826    0.5898    0.0913 C   0  0  0  0  0  0  0  0  0  0  0  0
   -2.4851    0.5966    0.0764 C   0  0  0  0  0  0  0  0  0  0  0  0
   -0.0021    0.4792    0.2774 C   0  0  0  0  0  0  0  0  0  0  0  0
    4.2294   -0.9775   -0.0455 C   0  0  0  0  0  0  0  0  0  0  0  0
   -4.2161   -0.9905   -0.0257 C   0  0  0  0  0  0  0  0  0  0  0  0
    3.1397    1.3950   -0.2523 H   0  0  0  0  0  0  0  0  0  0  0  0
    2.4751    0.5471    1.1855 H   0  0  0  0  0  0  0  0  0  0  0  0
   -2.4826    0.5563    1.1708 H   0  0  0  0  0  0  0  0  0  0  0  0
   -3.1396    1.4021   -0.2715 H   0  0  0  0  0  0  0  0  0  0  0  0
    1.0559    1.3626   -1.2820 H   0  0  0  0  0  0  0  0  0  0  0  0
   -1.0482    1.3658   -1.2886 H   0  0  0  0  0  0  0  0  0  0  0  0
    4.9327   -0.2203   -0.4054 H   0  0  0  0  0  0  0  0  0  0  0  0
    4.4993   -1.9417   -0.4844 H   0  0  0  0  0  0  0  0  0  0  0  0
    4.2895   -1.0601    1.0440 H   0  0  0  0  0  0  0  0  0  0  0  0
   -4.2406   -1.0927    1.0636 H   0  0  0  0  0  0  0  0  0  0  0  0
   -4.4901   -1.9498   -0.4728 H   0  0  0  0  0  0  0  0  0  0  0  0
   -4.9378   -0.2345   -0.3499 H   0  0  0  0  0  0  0  0  0  0  0  0
  1  6  1  0  0  0  0
  1  9  1  0  0  0  0
  2  7  1  0  0  0  0
  2 10  1  0  0  0  0
  3  8  2  0  0  0  0
  4  6  1  0  0  0  0
  4  8  1  0  0  0  0
  4 15  1  0  0  0  0
  5  7  1  0  0  0  0
  5  8  1  0  0  0  0
  5 16  1  0  0  0  0
  6 11  1  0  0  0  0
  6 12  1  0  0  0  0
  7 13  1  0  0  0  0
  7 14  1  0  0  0  0
  9 17  1  0  0  0  0
  9 18  1  0  0  0  0
  9 19  1  0  0  0  0
 10 20  1  0  0  0  0
 10 21  1  0  0  0  0
 10 22  1  0  0  0  0
M  END
> <PUBCHEM_COMPOUND_CID>
8832

> <PUBCHEM_CONFORMER_RMSD>
0.6

> <PUBCHEM_CONFORMER_DIVERSEORDER>
1
15
52
2
44
30
7
43
10
42
51
55
33
34
22
4
46
39
16
12
56
54
37
35
21
3
18
27
48
11
8
19
25
40
5
50
14
17
45
47
6
13
29
20
36
31
24
32
49
53
38
9
41
28
26
23

> <PUBCHEM_MMFF94_PARTIAL_CHARGES>
12
1 -0.56
10 0.28
15 0.37
16 0.37
2 -0.56
3 -0.57
4 -0.73
5 -0.73
6 0.58
7 0.58
8 0.69
9 0.28

> <PUBCHEM_EFFECTIVE_ROTOR_COUNT>
6

> <PUBCHEM_PHARMACOPHORE_FEATURES>
5
1 1 acceptor
1 2 acceptor
1 3 acceptor
1 4 donor
1 5 donor

> <PUBCHEM_HEAVY_ATOM_COUNT>
10

> <PUBCHEM_ATOM_DEF_STEREO_COUNT>
0

> <PUBCHEM_ATOM_UDEF_STEREO_COUNT>
0

> <PUBCHEM_BOND_DEF_STEREO_COUNT>
0

> <PUBCHEM_BOND_UDEF_STEREO_COUNT>
0

> <PUBCHEM_ISOTOPIC_ATOM_COUNT>
0

> <PUBCHEM_COMPONENT_COUNT>
1

> <PUBCHEM_CACTVS_TAUTO_COUNT>
2

> <PUBCHEM_CONFORMER_ID>
0000228000000001

> <PUBCHEM_MMFF94_ENERGY>
14.0514

> <PUBCHEM_FEATURE_SELFOVERLAP>
25.423

> <PUBCHEM_SHAPE_FINGERPRINT>
11062470 55 8718830890164850509
14251710 61 18187075196017676030
14325111 11 18410293609702478396
14390081 3 10231756690797925213
14993402 34 15267339617488800022
15477762 27 18412824668711522004
177051 138 18186800283682005862
21293036 1 16487253261753515420
22485316 2 18113623344057724063
23402539 116 17632301219903161268

> <PUBCHEM_SHAPE_MULTIPOLES>
178.23
7.74
1.11
0.79
0.06
0.09
-0.18
3.92
0.73
-0.01
0.08
0
0.01
0.01

> <PUBCHEM_SHAPE_SELFOVERLAP>
322.916

> <PUBCHEM_SHAPE_VOLUME>
115

> <PUBCHEM_COORDINATE_TYPE>
2
5
10

$$$$

