5352710
  -OEChem-07051213102D

 45 44  0     0  0  0  0  0  0999 V2000
    3.7320    0.3100    0.0000 C   0  0  0  0  0  0  0  0  0  0  0  0
    3.7320   -0.6900    0.0000 C   0  0  0  0  0  0  0  0  0  0  0  0
    2.8660    0.8100    0.0000 C   0  0  0  0  0  0  0  0  0  0  0  0
    4.5981   -1.1900    0.0000 C   0  0  0  0  0  0  0  0  0  0  0  0
    2.8660    1.8100    0.0000 C   0  0  0  0  0  0  0  0  0  0  0  0
    4.5981   -2.1900    0.0000 C   0  0  0  0  0  0  0  0  0  0  0  0
    5.4641   -2.6900    0.0000 C   0  0  0  0  0  0  0  0  0  0  0  0
    2.0000    2.3100    0.0000 C   0  0  0  0  0  0  0  0  0  0  0  0
    6.3301   -2.1900    0.0000 C   0  0  0  0  0  0  0  0  0  0  0  0
    7.1962   -2.6900    0.0000 C   0  0  0  0  0  0  0  0  0  0  0  0
    8.0622   -1.1900    0.0000 C   0  0  0  0  0  0  0  0  0  0  0  0
    8.0622   -2.1900    0.0000 C   0  0  0  0  0  0  0  0  0  0  0  0
    2.0000    3.3100    0.0000 C   0  0  0  0  0  0  0  0  0  0  0  0
    8.9282   -0.6900    0.0000 C   0  0  0  0  0  0  0  0  0  0  0  0
    8.0622    0.8100    0.0000 C   0  0  0  0  0  0  0  0  0  0  0  0
    8.9282    0.3100    0.0000 C   0  0  0  0  0  0  0  0  0  0  0  0
    8.0622    1.8100    0.0000 C   0  0  0  0  0  0  0  0  0  0  0  0
    4.3426    0.2023    0.0000 H   0  0  0  0  0  0  0  0  0  0  0  0
    3.9441    0.8926    0.0000 H   0  0  0  0  0  0  0  0  0  0  0  0
    3.1215   -0.5823    0.0000 H   0  0  0  0  0  0  0  0  0  0  0  0
    3.5200   -1.2726    0.0000 H   0  0  0  0  0  0  0  0  0  0  0  0
    2.2554    0.9177    0.0000 H   0  0  0  0  0  0  0  0  0  0  0  0
    2.6540    0.2274    0.0000 H   0  0  0  0  0  0  0  0  0  0  0  0
    5.2087   -1.2977    0.0000 H   0  0  0  0  0  0  0  0  0  0  0  0
    4.8101   -0.6074    0.0000 H   0  0  0  0  0  0  0  0  0  0  0  0
    3.4766    1.7023    0.0000 H   0  0  0  0  0  0  0  0  0  0  0  0
    3.0781    2.3926    0.0000 H   0  0  0  0  0  0  0  0  0  0  0  0
    4.0611   -2.5000    0.0000 H   0  0  0  0  0  0  0  0  0  0  0  0
    5.4641   -3.3100    0.0000 H   0  0  0  0  0  0  0  0  0  0  0  0
    1.4631    2.0000    0.0000 H   0  0  0  0  0  0  0  0  0  0  0  0
    6.7287   -1.7150    0.0000 H   0  0  0  0  0  0  0  0  0  0  0  0
    5.9316   -1.7150    0.0000 H   0  0  0  0  0  0  0  0  0  0  0  0
    7.1962   -3.3100    0.0000 H   0  0  0  0  0  0  0  0  0  0  0  0
    7.8501   -0.6074    0.0000 H   0  0  0  0  0  0  0  0  0  0  0  0
    7.4516   -1.2977    0.0000 H   0  0  0  0  0  0  0  0  0  0  0  0
    8.5991   -2.5000    0.0000 H   0  0  0  0  0  0  0  0  0  0  0  0
    2.5369    3.6200    0.0000 H   0  0  0  0  0  0  0  0  0  0  0  0
    1.4631    3.6200    0.0000 H   0  0  0  0  0  0  0  0  0  0  0  0
    9.4651   -1.0000    0.0000 H   0  0  0  0  0  0  0  0  0  0  0  0
    7.4516    0.9177    0.0000 H   0  0  0  0  0  0  0  0  0  0  0  0
    7.8501    0.2274    0.0000 H   0  0  0  0  0  0  0  0  0  0  0  0
    9.4651    0.6200    0.0000 H   0  0  0  0  0  0  0  0  0  0  0  0
    8.6822    1.8100    0.0000 H   0  0  0  0  0  0  0  0  0  0  0  0
    8.0622    2.4300    0.0000 H   0  0  0  0  0  0  0  0  0  0  0  0
    7.4422    1.8100    0.0000 H   0  0  0  0  0  0  0  0  0  0  0  0
  1  2  1  0  0  0  0
  1  3  1  0  0  0  0
  1 18  1  0  0  0  0
  1 19  1  0  0  0  0
  2  4  1  0  0  0  0
  2 20  1  0  0  0  0
  2 21  1  0  0  0  0
  3  5  1  0  0  0  0
  3 22  1  0  0  0  0
  3 23  1  0  0  0  0
  4  6  1  0  0  0  0
  4 24  1  0  0  0  0
  4 25  1  0  0  0  0
  5  8  1  0  0  0  0
  5 26  1  0  0  0  0
  5 27  1  0  0  0  0
  6  7  2  0  0  0  0
  6 28  1  0  0  0  0
  7  9  1  0  0  0  0
  7 29  1  0  0  0  0
  8 13  2  0  0  0  0
  8 30  1  0  0  0  0
  9 10  1  0  0  0  0
  9 31  1  0  0  0  0
  9 32  1  0  0  0  0
 10 12  2  0  0  0  0
 10 33  1  0  0  0  0
 11 12  1  0  0  0  0
 11 14  1  0  0  0  0
 11 34  1  0  0  0  0
 11 35  1  0  0  0  0
 12 36  1  0  0  0  0
 13 37  1  0  0  0  0
 13 38  1  0  0  0  0
 14 16  2  0  0  0  0
 14 39  1  0  0  0  0
 15 16  1  0  0  0  0
 15 17  1  0  0  0  0
 15 40  1  0  0  0  0
 15 41  1  0  0  0  0
 16 42  1  0  0  0  0
 17 43  1  0  0  0  0
 17 44  1  0  0  0  0
 17 45  1  0  0  0  0
M  END
> <PUBCHEM_COMPOUND_CID>
5352710

> <PUBCHEM_COMPOUND_CANONICALIZED>
1

> <PUBCHEM_CACTVS_COMPLEXITY>
230

> <PUBCHEM_CACTVS_HBOND_ACCEPTOR>
0

> <PUBCHEM_CACTVS_HBOND_DONOR>
0

> <PUBCHEM_CACTVS_ROTATABLE_BOND>
11

> <PUBCHEM_CACTVS_SUBSKEYS>
AAADceB4AAAAAAAAAAAAAAAAAAAAAAAAAAAAAAAAAAAAAAAAAAAAGAAAAAAACACAAAACAAAAAACAACBCAAAAAAAgAAAICAAAAAgAAAIAAQAAAAAAgAAIAAMAgAAAAAAAAAAAAAAAAAAAAAAAAAAAAAAAAA==

> <PUBCHEM_IUPAC_OPENEYE_NAME>
(8Z,11Z,14Z)-heptadeca-1,8,11,14-tetraene

> <PUBCHEM_IUPAC_CAS_NAME>
(8Z,11Z,14Z)-heptadeca-1,8,11,14-tetraene

> <PUBCHEM_IUPAC_NAME>
(8Z,11Z,14Z)-heptadeca-1,8,11,14-tetraene

> <PUBCHEM_IUPAC_SYSTEMATIC_NAME>
(8Z,11Z,14Z)-heptadeca-1,8,11,14-tetraene

> <PUBCHEM_IUPAC_TRADITIONAL_NAME>
(8Z,11Z,14Z)-heptadeca-1,8,11,14-tetraene

> <PUBCHEM_IUPAC_INCHI>
InChI=1S/C17H28/c1-3-5-7-9-11-13-15-17-16-14-12-10-8-6-4-2/h3,6,8,12,14-15,17H,1,4-5,7,9-11,13,16H2,2H3/b8-6-,14-12-,17-15-

> <PUBCHEM_IUPAC_INCHIKEY>
JXRNMQDTJAQLAQ-UTZXOHNXSA-N

> <PUBCHEM_XLOGP3_AA>
6.6

> <PUBCHEM_EXACT_MASS>
232.219101

> <PUBCHEM_MOLECULAR_FORMULA>
C17H28

> <PUBCHEM_MOLECULAR_WEIGHT>
232.40422

> <PUBCHEM_OPENEYE_CAN_SMILES>
CCC=CCC=CCC=CCCCCCC=C

> <PUBCHEM_OPENEYE_ISO_SMILES>
CC/C=C\C/C=C\C/C=C\CCCCCC=C

> <PUBCHEM_CACTVS_TPSA>
0

> <PUBCHEM_MONOISOTOPIC_WEIGHT>
232.219101

> <PUBCHEM_TOTAL_CHARGE>
0

> <PUBCHEM_HEAVY_ATOM_COUNT>
17

> <PUBCHEM_ATOM_DEF_STEREO_COUNT>
0

> <PUBCHEM_ATOM_UDEF_STEREO_COUNT>
0

> <PUBCHEM_BOND_DEF_STEREO_COUNT>
3

> <PUBCHEM_BOND_UDEF_STEREO_COUNT>
0

> <PUBCHEM_ISOTOPIC_ATOM_COUNT>
0

> <PUBCHEM_COMPONENT_COUNT>
1

> <PUBCHEM_CACTVS_TAUTO_COUNT>
1

> <PUBCHEM_COORDINATE_TYPE>
1
5
255

$$$$

