9047
  -OEChem-07051213033D

 31 32  0     0  0  0  0  0  0999 V2000
    0.2332   -2.2967    0.2862 S   0  0  0  0  0  0  0  0  0  0  0  0
    0.8320   -3.0929    1.3510 O   0  0  0  0  0  0  0  0  0  0  0  0
   -0.0770   -2.9420   -0.9837 O   0  0  0  0  0  0  0  0  0  0  0  0
   -1.2073    1.1296    1.8336 O   0  0  0  0  0  0  0  0  0  0  0  0
   -1.1853   -1.5460    0.9129 N   0  0  0  0  0  0  0  0  0  0  0  0
   -2.3183   -0.8144   -1.0229 N   0  0  0  0  0  0  0  0  0  0  0  0
    3.8203    2.3297   -0.7555 N   0  0  0  0  0  0  0  0  0  0  0  0
   -2.3220    1.8245   -0.0728 N   0  0  0  0  0  0  0  0  0  0  0  0
    1.2870   -0.9386   -0.0196 C   0  0  0  0  0  0  0  0  0  0  0  0
    2.1530   -0.4896    0.9773 C   0  0  0  0  0  0  0  0  0  0  0  0
    1.2619   -0.3018   -1.2604 C   0  0  0  0  0  0  0  0  0  0  0  0
   -1.7741   -0.4738    0.1566 C   0  0  0  0  0  0  0  0  0  0  0  0
    2.9691    1.2329   -0.5075 C   0  0  0  0  0  0  0  0  0  0  0  0
    2.9939    0.5963    0.7334 C   0  0  0  0  0  0  0  0  0  0  0  0
    2.1029    0.7839   -1.5044 C   0  0  0  0  0  0  0  0  0  0  0  0
   -1.7714    0.8142    0.6291 C   0  0  0  0  0  0  0  0  0  0  0  0
   -2.8687    0.1961   -1.7249 C   0  0  0  0  0  0  0  0  0  0  0  0
   -2.8704    1.4921   -1.2583 C   0  0  0  0  0  0  0  0  0  0  0  0
   -1.2587    2.4964    2.2299 C   0  0  0  0  0  0  0  0  0  0  0  0
   -1.1759   -1.3814    1.9286 H   0  0  0  0  0  0  0  0  0  0  0  0
    2.1839   -0.9645    1.9538 H   0  0  0  0  0  0  0  0  0  0  0  0
    0.5954   -0.6334   -2.0515 H   0  0  0  0  0  0  0  0  0  0  0  0
    3.6631    0.9382    1.5189 H   0  0  0  0  0  0  0  0  0  0  0  0
    2.0737    1.2718   -2.4753 H   0  0  0  0  0  0  0  0  0  0  0  0
    4.4470    2.6576   -0.0326 H   0  0  0  0  0  0  0  0  0  0  0  0
    3.8006    2.7927   -1.6544 H   0  0  0  0  0  0  0  0  0  0  0  0
   -3.3089   -0.0702   -2.6778 H   0  0  0  0  0  0  0  0  0  0  0  0
   -3.3123    2.3036   -1.8231 H   0  0  0  0  0  0  0  0  0  0  0  0
   -2.2945    2.8349    2.3385 H   0  0  0  0  0  0  0  0  0  0  0  0
   -0.7123    3.1298    1.5231 H   0  0  0  0  0  0  0  0  0  0  0  0
   -0.7713    2.5817    3.2056 H   0  0  0  0  0  0  0  0  0  0  0  0
  1  2  2  0  0  0  0
  1  3  2  0  0  0  0
  1  5  1  0  0  0  0
  1  9  1  0  0  0  0
  4 16  1  0  0  0  0
  4 19  1  0  0  0  0
  5 12  1  0  0  0  0
  5 20  1  0  0  0  0
  6 12  2  0  0  0  0
  6 17  1  0  0  0  0
  7 13  1  0  0  0  0
  7 25  1  0  0  0  0
  7 26  1  0  0  0  0
  8 16  2  0  0  0  0
  8 18  1  0  0  0  0
  9 10  2  0  0  0  0
  9 11  1  0  0  0  0
 10 14  1  0  0  0  0
 10 21  1  0  0  0  0
 11 15  2  0  0  0  0
 11 22  1  0  0  0  0
 12 16  1  0  0  0  0
 13 14  2  0  0  0  0
 13 15  1  0  0  0  0
 14 23  1  0  0  0  0
 15 24  1  0  0  0  0
 17 18  2  0  0  0  0
 17 27  1  0  0  0  0
 18 28  1  0  0  0  0
 19 29  1  0  0  0  0
 19 30  1  0  0  0  0
 19 31  1  0  0  0  0
M  END
> <PUBCHEM_COMPOUND_CID>
9047

> <PUBCHEM_CONFORMER_RMSD>
0.6

> <PUBCHEM_CONFORMER_DIVERSEORDER>
1
20
24
2
9
18
10
3
25
4
12
21
11
30
7
13
8
29
31
15
19
14
22
6
23
17
16
28
5
27
26

> <PUBCHEM_MMFF94_PARTIAL_CHARGES>
28
1 1.45
10 -0.15
11 -0.15
12 0.51
13 0.1
14 -0.15
15 -0.15
16 0.39
17 0.16
18 0.16
19 0.28
2 -0.65
20 0.42
21 0.15
22 0.15
23 0.15
24 0.15
25 0.4
26 0.4
27 0.15
28 0.15
3 -0.65
4 -0.36
5 -0.76
6 -0.62
7 -0.9
8 -0.62
9 -0.01

> <PUBCHEM_EFFECTIVE_ROTOR_COUNT>
4

> <PUBCHEM_PHARMACOPHORE_FEATURES>
8
1 2 acceptor
1 3 acceptor
1 5 donor
1 6 acceptor
1 7 cation
1 7 donor
6 6 8 12 16 17 18 rings
6 9 10 11 13 14 15 rings

> <PUBCHEM_HEAVY_ATOM_COUNT>
19

> <PUBCHEM_ATOM_DEF_STEREO_COUNT>
0

> <PUBCHEM_ATOM_UDEF_STEREO_COUNT>
0

> <PUBCHEM_BOND_DEF_STEREO_COUNT>
0

> <PUBCHEM_BOND_UDEF_STEREO_COUNT>
0

> <PUBCHEM_ISOTOPIC_ATOM_COUNT>
0

> <PUBCHEM_COMPONENT_COUNT>
1

> <PUBCHEM_CACTVS_TAUTO_COUNT>
2

> <PUBCHEM_CONFORMER_ID>
0000235700000001

> <PUBCHEM_MMFF94_ENERGY>
58.4726

> <PUBCHEM_FEATURE_SELFOVERLAP>
40.614

> <PUBCHEM_SHAPE_FINGERPRINT>
11640471 11 18336551636960245677
12633257 1 14045468808462590420
128993 33 17972287841277741904
13132413 78 17687167009096000118
13134695 92 17554343787841056694
13299463 15 15574718022955641277
13693222 7 18264198291489964081
15276787 5 15051744134824716484
15775835 57 18273213071404336556
16945 1 17840870676978658254
17357990 137 17248913785745051529
17492 54 16449023117902406804
18981168 100 18127384930016584975
192875 21 18263097624732529720
19765921 60 18410303531477547009
20291156 8 7709466060387072756
20510252 161 18124870162425137290
20600515 1 17332487230543835554
21524375 3 18412546500611982214
21731516 1 9295277331389466808
23419403 2 17108189006250939923
23557571 272 17757811352724272310
31174 14 17623819703086374297
430814 3 17830133103977209609
5262128 65 17095525067408455872
6992083 37 16963238734856817331
81228 2 17765405687816525858

> <PUBCHEM_SHAPE_MULTIPOLES>
357.33
4.98
3.02
1.85
1.3
1.34
-0.34
-3.43
1.67
0.45
-0.86
-0.66
-0.69
-0.97

> <PUBCHEM_SHAPE_SELFOVERLAP>
747.283

> <PUBCHEM_SHAPE_VOLUME>
203.3

> <PUBCHEM_COORDINATE_TYPE>
2
5
10

$$$$

