4871
  -OEChem-07051212593D

 55 58  0     0  0  0  0  0  0999 V2000
   -3.9139   -0.7642   -0.2723 O   0  0  0  0  0  0  0  0  0  0  0  0
    0.7045   -2.0232    0.3488 O   0  0  0  0  0  0  0  0  0  0  0  0
   -0.5393    2.3853   -1.1937 O   0  0  0  0  0  0  0  0  0  0  0  0
    1.9353    1.6641   -0.8695 O   0  0  0  0  0  0  0  0  0  0  0  0
    6.5608    0.9718    2.1898 O   0  0  0  0  0  0  0  0  0  0  0  0
    8.0622    0.4051   -0.0795 O   0  0  0  0  0  0  0  0  0  0  0  0
   -4.3877   -2.0637    0.1355 C   0  0  0  0  0  0  0  0  0  0  0  0
   -2.5697   -0.5172   -0.2996 C   0  0  0  0  0  0  0  0  0  0  0  0
   -1.5949   -1.4546    0.0588 C   0  0  0  0  0  0  0  0  0  0  0  0
   -2.2003    0.7651   -0.7169 C   0  0  0  0  0  0  0  0  0  0  0  0
   -0.2389   -1.0880   -0.0069 C   0  0  0  0  0  0  0  0  0  0  0  0
   -3.3230   -3.0588    0.5231 C   0  0  0  0  0  0  0  0  0  0  0  0
    0.1234    0.1955   -0.4259 C   0  0  0  0  0  0  0  0  0  0  0  0
   -2.0183   -2.7808    0.4897 C   0  0  0  0  0  0  0  0  0  0  0  0
   -0.8559    1.1241   -0.7818 C   0  0  0  0  0  0  0  0  0  0  0  0
   -5.3211   -1.8292    1.3290 C   0  0  0  0  0  0  0  0  0  0  0  0
   -5.1945   -2.6179   -1.0446 C   0  0  0  0  0  0  0  0  0  0  0  0
   -3.2518    1.7612   -1.0990 C   0  0  0  0  0  0  0  0  0  0  0  0
    1.5504    0.5640   -0.4942 C   0  0  0  0  0  0  0  0  0  0  0  0
    2.5258   -0.4774   -0.0763 C   0  0  0  0  0  0  0  0  0  0  0  0
   -3.7172    2.5928    0.0680 C   0  0  0  0  0  0  0  0  0  0  0  0
    2.0276   -1.6620    0.3045 C   0  0  0  0  0  0  0  0  0  0  0  0
    3.9589   -0.2480   -0.0735 C   0  0  0  0  0  0  0  0  0  0  0  0
   -4.9566    2.6706    0.5892 C   0  0  0  0  0  0  0  0  0  0  0  0
    4.5855    0.2576    1.0674 C   0  0  0  0  0  0  0  0  0  0  0  0
    4.7156   -0.5314   -1.2125 C   0  0  0  0  0  0  0  0  0  0  0  0
   -5.3536    3.5246    1.7598 C   0  0  0  0  0  0  0  0  0  0  0  0
   -6.0849    1.8712   -0.0066 C   0  0  0  0  0  0  0  0  0  0  0  0
    5.9628    0.4788    1.0693 C   0  0  0  0  0  0  0  0  0  0  0  0
    6.0927   -0.3102   -1.2106 C   0  0  0  0  0  0  0  0  0  0  0  0
    6.7163    0.1947   -0.0696 C   0  0  0  0  0  0  0  0  0  0  0  0
   -3.6391   -4.0488    0.8430 H   0  0  0  0  0  0  0  0  0  0  0  0
   -1.2856   -3.5255    0.7760 H   0  0  0  0  0  0  0  0  0  0  0  0
   -6.1266   -1.1345    1.0653 H   0  0  0  0  0  0  0  0  0  0  0  0
   -5.7758   -2.7605    1.6845 H   0  0  0  0  0  0  0  0  0  0  0  0
   -4.7789   -1.3695    2.1641 H   0  0  0  0  0  0  0  0  0  0  0  0
   -5.9824   -1.9161   -1.3428 H   0  0  0  0  0  0  0  0  0  0  0  0
   -4.5549   -2.7537   -1.9251 H   0  0  0  0  0  0  0  0  0  0  0  0
   -5.6619   -3.5800   -0.8074 H   0  0  0  0  0  0  0  0  0  0  0  0
   -2.8550    2.4548   -1.8528 H   0  0  0  0  0  0  0  0  0  0  0  0
   -4.0578    1.2645   -1.6445 H   0  0  0  0  0  0  0  0  0  0  0  0
   -2.9443    3.2058    0.5311 H   0  0  0  0  0  0  0  0  0  0  0  0
    2.6382   -2.4965    0.6273 H   0  0  0  0  0  0  0  0  0  0  0  0
    0.4188    2.5272   -1.1713 H   0  0  0  0  0  0  0  0  0  0  0  0
    4.0064    0.4833    1.9604 H   0  0  0  0  0  0  0  0  0  0  0  0
    4.2447   -0.9244   -2.1105 H   0  0  0  0  0  0  0  0  0  0  0  0
   -6.1332    4.2351    1.4671 H   0  0  0  0  0  0  0  0  0  0  0  0
   -5.7341    2.9021    2.5759 H   0  0  0  0  0  0  0  0  0  0  0  0
   -4.5048    4.0990    2.1451 H   0  0  0  0  0  0  0  0  0  0  0  0
   -6.7905    2.5450   -0.5048 H   0  0  0  0  0  0  0  0  0  0  0  0
   -5.7989    1.1037   -0.7238 H   0  0  0  0  0  0  0  0  0  0  0  0
   -6.6273    1.3518    0.7917 H   0  0  0  0  0  0  0  0  0  0  0  0
    6.6678   -0.5357   -2.1046 H   0  0  0  0  0  0  0  0  0  0  0  0
    7.5135    1.0616    2.0137 H   0  0  0  0  0  0  0  0  0  0  0  0
    8.4158    0.1524   -0.9496 H   0  0  0  0  0  0  0  0  0  0  0  0
  1  7  1  0  0  0  0
  1  8  1  0  0  0  0
  2 11  1  0  0  0  0
  2 22  1  0  0  0  0
  3 15  1  0  0  0  0
  3 44  1  0  0  0  0
  4 19  2  0  0  0  0
  5 29  1  0  0  0  0
  5 54  1  0  0  0  0
  6 31  1  0  0  0  0
  6 55  1  0  0  0  0
  7 12  1  0  0  0  0
  7 16  1  0  0  0  0
  7 17  1  0  0  0  0
  8  9  1  0  0  0  0
  8 10  2  0  0  0  0
  9 11  2  0  0  0  0
  9 14  1  0  0  0  0
 10 15  1  0  0  0  0
 10 18  1  0  0  0  0
 11 13  1  0  0  0  0
 12 14  2  0  0  0  0
 12 32  1  0  0  0  0
 13 15  2  0  0  0  0
 13 19  1  0  0  0  0
 14 33  1  0  0  0  0
 16 34  1  0  0  0  0
 16 35  1  0  0  0  0
 16 36  1  0  0  0  0
 17 37  1  0  0  0  0
 17 38  1  0  0  0  0
 17 39  1  0  0  0  0
 18 21  1  0  0  0  0
 18 40  1  0  0  0  0
 18 41  1  0  0  0  0
 19 20  1  0  0  0  0
 20 22  2  0  0  0  0
 20 23  1  0  0  0  0
 21 24  2  0  0  0  0
 21 42  1  0  0  0  0
 22 43  1  0  0  0  0
 23 25  2  0  0  0  0
 23 26  1  0  0  0  0
 24 27  1  0  0  0  0
 24 28  1  0  0  0  0
 25 29  1  0  0  0  0
 25 45  1  0  0  0  0
 26 30  2  0  0  0  0
 26 46  1  0  0  0  0
 27 47  1  0  0  0  0
 27 48  1  0  0  0  0
 27 49  1  0  0  0  0
 28 50  1  0  0  0  0
 28 51  1  0  0  0  0
 28 52  1  0  0  0  0
 29 31  2  0  0  0  0
 30 31  1  0  0  0  0
 30 53  1  0  0  0  0
M  END
> <PUBCHEM_COMPOUND_CID>
4871

> <PUBCHEM_CONFORMER_RMSD>
0.8

> <PUBCHEM_CONFORMER_DIVERSEORDER>
1
17
5
13
18
15
7
19
3
14
9
8
2
6
12
4
11
10
16

> <PUBCHEM_MMFF94_PARTIAL_CHARGES>
39
1 -0.36
10 -0.14
11 0.08
12 -0.29
13 0.09
14 -0.18
15 0.08
18 0.28
19 0.47
2 -0.16
20 -0.01
21 -0.29
22 -0.07
23 0.03
24 -0.28
25 -0.15
26 -0.15
27 0.14
28 0.14
29 0.08
3 -0.53
30 -0.15
31 0.08
32 0.15
33 0.15
4 -0.57
42 0.15
43 0.15
44 0.45
45 0.15
46 0.15
5 -0.53
53 0.15
54 0.45
55 0.45
6 -0.53
7 0.42
8 0.08
9 0.03

> <PUBCHEM_EFFECTIVE_ROTOR_COUNT>
3.4

> <PUBCHEM_PHARMACOPHORE_FEATURES>
12
1 1 acceptor
1 2 acceptor
1 3 donor
1 4 acceptor
1 5 donor
1 6 donor
3 24 27 28 hydrophobe
3 7 16 17 hydrophobe
6 1 7 8 9 12 14 rings
6 2 11 13 19 20 22 rings
6 23 25 26 29 30 31 rings
6 8 9 10 11 13 15 rings

> <PUBCHEM_HEAVY_ATOM_COUNT>
31

> <PUBCHEM_ATOM_DEF_STEREO_COUNT>
0

> <PUBCHEM_ATOM_UDEF_STEREO_COUNT>
0

> <PUBCHEM_BOND_DEF_STEREO_COUNT>
0

> <PUBCHEM_BOND_UDEF_STEREO_COUNT>
0

> <PUBCHEM_ISOTOPIC_ATOM_COUNT>
0

> <PUBCHEM_COMPONENT_COUNT>
1

> <PUBCHEM_CACTVS_TAUTO_COUNT>
43

> <PUBCHEM_CONFORMER_ID>
0000130700000001

> <PUBCHEM_MMFF94_ENERGY>
96.2071

> <PUBCHEM_FEATURE_SELFOVERLAP>
60.953

> <PUBCHEM_SHAPE_FINGERPRINT>
10 15 17846212301924438172
10319926 262 18337116678789658792
10411042 1 17979351963770465323
10493431 412 18267862960046615973
10906281 52 18059841875246718918
1100329 8 18411974776346811005
11135609 187 18126579032067199101
11315181 36 17917430882669551502
11445158 3 15359111339539180273
11963148 33 18130233632155639602
12236239 1 17060347310201943862
12390115 104 18336539516873519483
12403259 415 18113902637486505994
12616971 3 17203601601810361164
12788726 201 18060427901695399362
12838862 33 18271258209357203349
13140716 1 18342176635284668052
13540713 5 17986937575318872181
13782708 43 18113616777406981766
14068700 675 18267309734004531455
14294032 229 18059009613653719396
14790565 3 17762895867847957741
15021287 119 17132106949014945093
15131766 46 15480383120822242975
15183329 4 17846503595539064702
1577012 14 17918269862461847756
16087824 20 18272093834205132453
17844677 252 18337950095987415208
17980427 23 17917986166227656526
18603816 31 14764052438710989817
19377110 9 17704072910563082586
20642791 13 18410012139659227183
21033648 29 17822589239241226592
21130935 74 18410296926372429074
21236236 1 18412544310320923679
21267235 1 18201433623606574486
21424621 283 18116428339764931705
21756936 100 18188211009204851237
21792961 116 17967808363531319246
23522609 53 17773288250111910228
23559900 14 17984426243500125029
23569914 2 16881930713213642592
24771293 8 18130222663272720260
25147074 1 17917417688640950916
2747138 104 18268423542951182099
335352 9 18272938181240361967
3383291 50 18271242721425845235
350125 39 18342736278207749245
4073 2 18408600383914072702
484985 159 16630235914994590475
5104073 3 18341900744028978922
5171179 24 17969512502658077473
5758199 1 18263921210998553065
5969126 39 18187939313942468631
9896288 288 18341323444975261795

> <PUBCHEM_SHAPE_MULTIPOLES>
602.75
17.66
3.47
1.28
24.23
0.31
0.32
4.95
3.89
-8.68
0.77
0.47
0.45
-0.15

> <PUBCHEM_SHAPE_SELFOVERLAP>
1330.472

> <PUBCHEM_SHAPE_VOLUME>
325.5

> <PUBCHEM_COORDINATE_TYPE>
2
5
10

$$$$

