243354
  -OEChem-07051213062D

 55 58  0     1  0  0  0  0  0999 V2000
    9.1493    2.2976    0.0000 O   0  0  0  0  0  0  0  0  0  0  0  0
    2.0000   -1.6459    0.0000 O   0  0  0  0  0  0  0  0  0  0  0  0
    7.3931    1.4065    0.0000 C   0  0  1  0  0  0  0  0  0  0  0  0
    7.3931    0.4065    0.0000 C   0  0  2  0  0  0  0  0  0  0  0  0
    6.5271   -0.0935    0.0000 C   0  0  1  0  0  0  0  0  0  0  0  0
    5.6610    0.4065    0.0000 C   0  0  1  0  0  0  0  0  0  0  0  0
    8.3393    1.7112    0.0000 C   0  0  2  0  0  0  0  0  0  0  0  0
    4.7510   -0.1004    0.0000 C   0  0  2  0  0  0  0  0  0  0  0  0
    6.5271    1.9065    0.0000 C   0  0  0  0  0  0  0  0  0  0  0  0
    5.6610    1.4065    0.0000 C   0  0  0  0  0  0  0  0  0  0  0  0
    8.3393    0.1017    0.0000 C   0  0  0  0  0  0  0  0  0  0  0  0
    6.5431   -1.1350    0.0000 C   0  0  0  0  0  0  0  0  0  0  0  0
    8.9229    0.9065    0.0000 C   0  0  0  0  0  0  0  0  0  0  0  0
    5.6451   -1.6628    0.0000 C   0  0  1  0  0  0  0  0  0  0  0  0
    4.7430   -1.1420    0.0000 C   0  0  0  0  0  0  0  0  0  0  0  0
    7.3931    2.4065    0.0000 C   0  0  0  0  0  0  0  0  0  0  0  0
    3.8242    0.4637    0.0000 C   0  0  0  0  0  0  0  0  0  0  0  0
    8.0319    2.6628    0.0000 C   0  0  0  0  0  0  0  0  0  0  0  0
    4.7587    0.8996    0.0000 C   0  0  0  0  0  0  0  0  0  0  0  0
    2.8763   -0.0642    0.0000 C   0  0  0  0  0  0  0  0  0  0  0  0
    3.8076   -1.6917    0.0000 C   0  0  0  0  0  0  0  0  0  0  0  0
    5.6489   -2.6628    0.0000 C   0  0  0  0  0  0  0  0  0  0  0  0
    2.8680   -1.1492    0.0000 C   0  0  0  0  0  0  0  0  0  0  0  0
    7.4830   -0.4388    0.0000 H   0  0  0  0  0  0  0  0  0  0  0  0
    7.2664   -0.5128    0.0000 H   0  0  0  0  0  0  0  0  0  0  0  0
    6.3972    0.8315    0.0000 H   0  0  0  0  0  0  0  0  0  0  0  0
    6.9256    2.3814    0.0000 H   0  0  0  0  0  0  0  0  0  0  0  0
    6.1285    2.3814    0.0000 H   0  0  0  0  0  0  0  0  0  0  0  0
    5.4490    1.9891    0.0000 H   0  0  0  0  0  0  0  0  0  0  0  0
    5.0504    1.2988    0.0000 H   0  0  0  0  0  0  0  0  0  0  0  0
    8.0883   -0.4652    0.0000 H   0  0  0  0  0  0  0  0  0  0  0  0
    8.8767   -0.2075    0.0000 H   0  0  0  0  0  0  0  0  0  0  0  0
    6.7612   -1.7154    0.0000 H   0  0  0  0  0  0  0  0  0  0  0  0
    7.1523   -1.0195    0.0000 H   0  0  0  0  0  0  0  0  0  0  0  0
    9.3838    0.4917    0.0000 H   0  0  0  0  0  0  0  0  0  0  0  0
    9.3838    1.3212    0.0000 H   0  0  0  0  0  0  0  0  0  0  0  0
    5.1087   -1.9738    0.0000 H   0  0  0  0  0  0  0  0  0  0  0  0
    8.0131    2.4065    0.0000 H   0  0  0  0  0  0  0  0  0  0  0  0
    7.3931    3.0265    0.0000 H   0  0  0  0  0  0  0  0  0  0  0  0
    6.7731    2.4065    0.0000 H   0  0  0  0  0  0  0  0  0  0  0  0
    4.2324    0.9304    0.0000 H   0  0  0  0  0  0  0  0  0  0  0  0
    3.4343    0.9457    0.0000 H   0  0  0  0  0  0  0  0  0  0  0  0
    8.6219    2.8534    0.0000 H   0  0  0  0  0  0  0  0  0  0  0  0
    7.8414    3.2528    0.0000 H   0  0  0  0  0  0  0  0  0  0  0  0
    7.4420    2.4722    0.0000 H   0  0  0  0  0  0  0  0  0  0  0  0
    5.3787    0.8948    0.0000 H   0  0  0  0  0  0  0  0  0  0  0  0
    4.7635    1.5196    0.0000 H   0  0  0  0  0  0  0  0  0  0  0  0
    4.1388    0.9044    0.0000 H   0  0  0  0  0  0  0  0  0  0  0  0
    9.7153    2.0444    0.0000 H   0  0  0  0  0  0  0  0  0  0  0  0
    2.6718    0.5210    0.0000 H   0  0  0  0  0  0  0  0  0  0  0  0
    2.2647   -0.1656    0.0000 H   0  0  0  0  0  0  0  0  0  0  0  0
    3.8100   -2.3117    0.0000 H   0  0  0  0  0  0  0  0  0  0  0  0
    5.0289   -2.6652    0.0000 H   0  0  0  0  0  0  0  0  0  0  0  0
    5.6513   -3.2828    0.0000 H   0  0  0  0  0  0  0  0  0  0  0  0
    6.2689   -2.6604    0.0000 H   0  0  0  0  0  0  0  0  0  0  0  0
  7  1  1  1  0  0  0
  1 49  1  0  0  0  0
  2 23  2  0  0  0  0
  3  4  1  0  0  0  0
  3  7  1  0  0  0  0
  3  9  1  0  0  0  0
  3 16  1  1  0  0  0
  4  5  1  0  0  0  0
  4 11  1  0  0  0  0
  4 24  1  6  0  0  0
  5  6  1  0  0  0  0
  5 12  1  0  0  0  0
  5 25  1  1  0  0  0
  6  8  1  0  0  0  0
  6 10  1  0  0  0  0
  6 26  1  6  0  0  0
  7 13  1  0  0  0  0
  7 18  1  0  0  0  0
  8 15  1  0  0  0  0
  8 17  1  0  0  0  0
  8 19  1  1  0  0  0
  9 10  1  0  0  0  0
  9 27  1  0  0  0  0
  9 28  1  0  0  0  0
 10 29  1  0  0  0  0
 10 30  1  0  0  0  0
 11 13  1  0  0  0  0
 11 31  1  0  0  0  0
 11 32  1  0  0  0  0
 12 14  1  0  0  0  0
 12 33  1  0  0  0  0
 12 34  1  0  0  0  0
 13 35  1  0  0  0  0
 13 36  1  0  0  0  0
 14 15  1  0  0  0  0
 14 22  1  6  0  0  0
 14 37  1  0  0  0  0
 15 21  2  0  0  0  0
 16 38  1  0  0  0  0
 16 39  1  0  0  0  0
 16 40  1  0  0  0  0
 17 20  1  0  0  0  0
 17 41  1  0  0  0  0
 17 42  1  0  0  0  0
 18 43  1  0  0  0  0
 18 44  1  0  0  0  0
 18 45  1  0  0  0  0
 19 46  1  0  0  0  0
 19 47  1  0  0  0  0
 19 48  1  0  0  0  0
 20 23  1  0  0  0  0
 20 50  1  0  0  0  0
 20 51  1  0  0  0  0
 21 23  1  0  0  0  0
 21 52  1  0  0  0  0
 22 53  1  0  0  0  0
 22 54  1  0  0  0  0
 22 55  1  0  0  0  0
M  END
> <PUBCHEM_COMPOUND_CID>
243354

> <PUBCHEM_COMPOUND_CANONICALIZED>
1

> <PUBCHEM_CACTVS_COMPLEXITY>
578

> <PUBCHEM_CACTVS_HBOND_ACCEPTOR>
2

> <PUBCHEM_CACTVS_HBOND_DONOR>
1

> <PUBCHEM_CACTVS_ROTATABLE_BOND>
0

> <PUBCHEM_CACTVS_SUBSKEYS>
AAADcfB4MAAAAAAAAAAAAAAAAAAAAYAAAAAwYIAAAAAAAGDAAAAAGgAACAAAD0SAgAACAAAAAgCIAqBSAAAAAAAgAAAACAEAAEgAABIAAQAAQAAEgAAIAQOIyPCPgAAAAAAAAACAAAQAACAAAYAADAAAAA==

> <PUBCHEM_IUPAC_OPENEYE_NAME>
(6S,8R,9S,10R,13S,14S,17S)-17-hydroxy-6,10,13,17-tetramethyl-2,6,7,8,9,11,12,14,15,16-decahydro-1H-cyclopenta[a]phenanthren-3-one

> <PUBCHEM_IUPAC_CAS_NAME>
(6S,8R,9S,10R,13S,14S,17S)-17-hydroxy-6,10,13,17-tetramethyl-2,6,7,8,9,11,12,14,15,16-decahydro-1H-cyclopenta[a]phenanthren-3-one

> <PUBCHEM_IUPAC_NAME>
(6S,8R,9S,10R,13S,14S,17S)-17-hydroxy-6,10,13,17-tetramethyl-2,6,7,8,9,11,12,14,15,16-decahydro-1H-cyclopenta[a]phenanthren-3-one

> <PUBCHEM_IUPAC_SYSTEMATIC_NAME>
(6S,8R,9S,10R,13S,14S,17S)-6,10,13,17-tetramethyl-17-oxidanyl-2,6,7,8,9,11,12,14,15,16-decahydro-1H-cyclopenta[a]phenanthren-3-one

> <PUBCHEM_IUPAC_TRADITIONAL_NAME>
(6S,8R,9S,10R,13S,14S,17S)-17-hydroxy-6,10,13,17-tetramethyl-2,6,7,8,9,11,12,14,15,16-decahydro-1H-cyclopenta[a]phenanthren-3-one

> <PUBCHEM_IUPAC_INCHI>
InChI=1S/C21H32O2/c1-13-11-15-16(19(2)8-5-14(22)12-18(13)19)6-9-20(3)17(15)7-10-21(20,4)23/h12-13,15-17,23H,5-11H2,1-4H3/t13-,15+,16-,17-,19+,20-,21-/m0/s1

> <PUBCHEM_IUPAC_INCHIKEY>
VIOHBAKRYSSFFE-YQVBJQERSA-N

> <PUBCHEM_XLOGP3>
3.7

> <PUBCHEM_EXACT_MASS>
316.24023

> <PUBCHEM_MOLECULAR_FORMULA>
C21H32O2

> <PUBCHEM_MOLECULAR_WEIGHT>
316.47758

> <PUBCHEM_OPENEYE_CAN_SMILES>
CC1CC2C(CCC3(C2CCC3(C)O)C)C4(C1=CC(=O)CC4)C

> <PUBCHEM_OPENEYE_ISO_SMILES>
C[C@H]1C[C@@H]2[C@H](CC[C@]3([C@H]2CC[C@]3(C)O)C)[C@@]4(C1=CC(=O)CC4)C

> <PUBCHEM_CACTVS_TPSA>
37.3

> <PUBCHEM_MONOISOTOPIC_WEIGHT>
316.24023

> <PUBCHEM_TOTAL_CHARGE>
0

> <PUBCHEM_HEAVY_ATOM_COUNT>
23

> <PUBCHEM_ATOM_DEF_STEREO_COUNT>
7

> <PUBCHEM_ATOM_UDEF_STEREO_COUNT>
0

> <PUBCHEM_BOND_DEF_STEREO_COUNT>
0

> <PUBCHEM_BOND_UDEF_STEREO_COUNT>
0

> <PUBCHEM_ISOTOPIC_ATOM_COUNT>
0

> <PUBCHEM_COMPONENT_COUNT>
1

> <PUBCHEM_CACTVS_TAUTO_COUNT>
5

> <PUBCHEM_COORDINATE_TYPE>
1
5
255

> <PUBCHEM_BONDANNOTATIONS>
7  1  5
14  22  6
3  16  5
4  24  6
5  25  5
6  26  6
8  19  5

$$$$

