76852
  -OEChem-07051213083D

 14 14  0     0  0  0  0  0  0999 V2000
    1.2838   -2.8725   -0.0002 Br  0  0  0  0  0  0  0  0  0  0  0  0
    1.2856    2.8719   -0.0002 Br  0  0  0  0  0  0  0  0  0  0  0  0
    2.4387   -0.0007   -0.0002 O   0  0  0  0  0  0  0  0  0  0  0  0
   -3.0778    0.0009   -0.0004 O   0  0  0  0  0  0  0  0  0  0  0  0
    1.0733   -0.0004    0.0002 C   0  0  0  0  0  0  0  0  0  0  0  0
   -1.7166    0.0005    0.0002 C   0  0  0  0  0  0  0  0  0  0  0  0
    0.3754   -1.2081    0.0001 C   0  0  0  0  0  0  0  0  0  0  0  0
    0.3761    1.2079    0.0002 C   0  0  0  0  0  0  0  0  0  0  0  0
   -1.0196   -1.2076    0.0001 C   0  0  0  0  0  0  0  0  0  0  0  0
   -1.0188    1.2082    0.0002 C   0  0  0  0  0  0  0  0  0  0  0  0
   -1.5686   -2.1465    0.0000 H   0  0  0  0  0  0  0  0  0  0  0  0
   -1.5737    2.1436   -0.0001 H   0  0  0  0  0  0  0  0  0  0  0  0
    2.7470    0.9219   -0.0002 H   0  0  0  0  0  0  0  0  0  0  0  0
   -3.3940   -0.9190   -0.0005 H   0  0  0  0  0  0  0  0  0  0  0  0
  1  7  1  0  0  0  0
  2  8  1  0  0  0  0
  3  5  1  0  0  0  0
  3 13  1  0  0  0  0
  4  6  1  0  0  0  0
  4 14  1  0  0  0  0
  5  7  2  0  0  0  0
  5  8  1  0  0  0  0
  6  9  2  0  0  0  0
  6 10  1  0  0  0  0
  7  9  1  0  0  0  0
  8 10  2  0  0  0  0
  9 11  1  0  0  0  0
 10 12  1  0  0  0  0
M  END
> <PUBCHEM_COMPOUND_CID>
76852

> <PUBCHEM_CONFORMER_RMSD>
0.4

> <PUBCHEM_CONFORMER_DIVERSEORDER>
1

> <PUBCHEM_MMFF94_PARTIAL_CHARGES>
14
1 -0.11
10 -0.15
11 0.15
12 0.15
13 0.45
14 0.45
2 -0.11
3 -0.53
4 -0.53
5 0.08
6 0.08
7 0.11
8 0.11
9 -0.15

> <PUBCHEM_EFFECTIVE_ROTOR_COUNT>
0

> <PUBCHEM_PHARMACOPHORE_FEATURES>
5
1 1 hydrophobe
1 2 hydrophobe
1 3 donor
1 4 donor
6 5 6 7 8 9 10 rings

> <PUBCHEM_HEAVY_ATOM_COUNT>
10

> <PUBCHEM_ATOM_DEF_STEREO_COUNT>
0

> <PUBCHEM_ATOM_UDEF_STEREO_COUNT>
0

> <PUBCHEM_BOND_DEF_STEREO_COUNT>
0

> <PUBCHEM_BOND_UDEF_STEREO_COUNT>
0

> <PUBCHEM_ISOTOPIC_ATOM_COUNT>
0

> <PUBCHEM_COMPONENT_COUNT>
1

> <PUBCHEM_CACTVS_TAUTO_COUNT>
4

> <PUBCHEM_CONFORMER_ID>
00012C3400000001

> <PUBCHEM_MMFF94_ENERGY>
20.9863

> <PUBCHEM_FEATURE_SELFOVERLAP>
25.371

> <PUBCHEM_SHAPE_FINGERPRINT>
1 1 18339081488729960327
13380535 76 17831867849879201380
16945 1 18410575089147937285
18185500 45 18337391642337128159
193761 8 17762055845279863724
20871998 184 16459656306097204596
21040471 1 17906171750356983557
2334 1 17978510828061465223
23552423 10 17983285221087571822
23559900 14 17758378696878994780
241688 4 17906450278969993473
2748010 2 18052534378938836063
5084963 1 18114179675086753577

> <PUBCHEM_SHAPE_MULTIPOLES>
205.94
3.34
2.79
0.63
0
1.56
0
-2.33
0
0
0
0
-0.04
0

> <PUBCHEM_SHAPE_SELFOVERLAP>
403.152

> <PUBCHEM_SHAPE_VOLUME>
129.4

> <PUBCHEM_COORDINATE_TYPE>
2
5
10

$$$$

