440752
  -OEChem-07051212502D

 22 23  0     0  0  0  0  0  0999 V2000
    5.1350    2.0000    0.0000 O   0  0  0  0  0  0  0  0  0  0  0  0
    8.6651    1.0241    0.0000 O   0  0  0  0  0  0  0  0  0  0  0  0
    2.5369   -0.5000    0.0000 O   0  0  0  0  0  0  0  0  0  0  0  0
    3.4030   -2.0000    0.0000 O   0  0  0  0  0  0  0  0  0  0  0  0
    5.1350   -1.0000    0.0000 N   0  0  0  0  0  0  0  0  0  0  0  0
    6.0010   -0.5000    0.0000 C   0  0  0  0  0  0  0  0  0  0  0  0
    6.0010    0.5000    0.0000 C   0  0  0  0  0  0  0  0  0  0  0  0
    5.1350    1.0000    0.0000 C   0  0  0  0  0  0  0  0  0  0  0  0
    4.2690   -0.5000    0.0000 C   0  0  0  0  0  0  0  0  0  0  0  0
    6.8950    1.0347    0.0000 C   0  0  0  0  0  0  0  0  0  0  0  0
    6.8950   -1.0347    0.0000 C   0  0  0  0  0  0  0  0  0  0  0  0
    4.2690    0.5000    0.0000 C   0  0  0  0  0  0  0  0  0  0  0  0
    7.8010    0.5208    0.0000 C   0  0  0  0  0  0  0  0  0  0  0  0
    7.8010   -0.5208    0.0000 C   0  0  0  0  0  0  0  0  0  0  0  0
    3.4030   -1.0000    0.0000 C   0  0  0  0  0  0  0  0  0  0  0  0
    5.1350   -1.6200    0.0000 H   0  0  0  0  0  0  0  0  0  0  0  0
    6.8878    1.6546    0.0000 H   0  0  0  0  0  0  0  0  0  0  0  0
    6.8878   -1.6546    0.0000 H   0  0  0  0  0  0  0  0  0  0  0  0
    3.7320    0.8100    0.0000 H   0  0  0  0  0  0  0  0  0  0  0  0
    8.3368   -0.8329    0.0000 H   0  0  0  0  0  0  0  0  0  0  0  0
    9.2033    0.7162    0.0000 H   0  0  0  0  0  0  0  0  0  0  0  0
    2.0000   -0.8100    0.0000 H   0  0  0  0  0  0  0  0  0  0  0  0
  1  8  2  0  0  0  0
  2 13  1  0  0  0  0
  2 21  1  0  0  0  0
  3 15  1  0  0  0  0
  3 22  1  0  0  0  0
  4 15  2  0  0  0  0
  5  6  1  0  0  0  0
  5  9  1  0  0  0  0
  5 16  1  0  0  0  0
  6  7  2  0  0  0  0
  6 11  1  0  0  0  0
  7  8  1  0  0  0  0
  7 10  1  0  0  0  0
  8 12  1  0  0  0  0
  9 12  2  0  0  0  0
  9 15  1  0  0  0  0
 10 13  2  0  0  0  0
 10 17  1  0  0  0  0
 11 14  2  0  0  0  0
 11 18  1  0  0  0  0
 12 19  1  0  0  0  0
 13 14  1  0  0  0  0
 14 20  1  0  0  0  0
M  END
> <PUBCHEM_COMPOUND_CID>
440752

> <PUBCHEM_COMPOUND_CANONICALIZED>
1

> <PUBCHEM_CACTVS_COMPLEXITY>
336

> <PUBCHEM_CACTVS_HBOND_ACCEPTOR>
5

> <PUBCHEM_CACTVS_HBOND_DONOR>
3

> <PUBCHEM_CACTVS_ROTATABLE_BOND>
1

> <PUBCHEM_CACTVS_SUBSKEYS>
AAADcYByOAAAAAAAAAAAAAAAAAAAAAAAAAAwQAAAAAAAAACBAAAAHgAQCAAADAyBmAAwzoLAAgCIAqTSSACCAAAlIgAIiAGGbMgKJjrClbOEcYhk0BHY2ce6yLCOAEABAAACAAAAgAIAAAQAAAAAAAAAAA==

> <PUBCHEM_IUPAC_OPENEYE_NAME>
6-hydroxy-4-oxo-1H-quinoline-2-carboxylic acid

> <PUBCHEM_IUPAC_CAS_NAME>
6-hydroxy-4-oxo-1H-quinoline-2-carboxylic acid

> <PUBCHEM_IUPAC_NAME>
6-hydroxy-4-oxo-1H-quinoline-2-carboxylic acid

> <PUBCHEM_IUPAC_SYSTEMATIC_NAME>
6-oxidanyl-4-oxidanylidene-1H-quinoline-2-carboxylic acid

> <PUBCHEM_IUPAC_TRADITIONAL_NAME>
6-hydroxy-4-keto-1H-quinoline-2-carboxylic acid

> <PUBCHEM_IUPAC_INCHI>
InChI=1S/C10H7NO4/c12-5-1-2-7-6(3-5)9(13)4-8(11-7)10(14)15/h1-4,12H,(H,11,13)(H,14,15)

> <PUBCHEM_IUPAC_INCHIKEY>
CQUUHDQRJWXDPY-UHFFFAOYSA-N

> <PUBCHEM_XLOGP3_AA>
0.9

> <PUBCHEM_EXACT_MASS>
205.037508

> <PUBCHEM_MOLECULAR_FORMULA>
C10H7NO4

> <PUBCHEM_MOLECULAR_WEIGHT>
205.16688

> <PUBCHEM_OPENEYE_CAN_SMILES>
C1=CC2=C(C=C1O)C(=O)C=C(N2)C(=O)O

> <PUBCHEM_OPENEYE_ISO_SMILES>
C1=CC2=C(C=C1O)C(=O)C=C(N2)C(=O)O

> <PUBCHEM_CACTVS_TPSA>
86.6

> <PUBCHEM_MONOISOTOPIC_WEIGHT>
205.037508

> <PUBCHEM_TOTAL_CHARGE>
0

> <PUBCHEM_HEAVY_ATOM_COUNT>
15

> <PUBCHEM_ATOM_DEF_STEREO_COUNT>
0

> <PUBCHEM_ATOM_UDEF_STEREO_COUNT>
0

> <PUBCHEM_BOND_DEF_STEREO_COUNT>
0

> <PUBCHEM_BOND_UDEF_STEREO_COUNT>
0

> <PUBCHEM_ISOTOPIC_ATOM_COUNT>
0

> <PUBCHEM_COMPONENT_COUNT>
1

> <PUBCHEM_CACTVS_TAUTO_COUNT>
13

> <PUBCHEM_COORDINATE_TYPE>
1
5
255

> <PUBCHEM_BONDANNOTATIONS>
10  13  8
11  14  8
13  14  8
5  6  8
5  9  8
6  11  8
6  7  8
7  10  8
7  8  8
8  12  8
9  12  8

$$$$

