4637
  -OEChem-06261200152D

 51 54  0     1  0  0  0  0  0999 V2000
    8.1301    1.2061    0.0000 O   0  0  0  0  0  0  0  0  0  0  0  0
    7.2762   -2.3631    0.0000 O   0  0  0  0  0  0  0  0  0  0  0  0
    4.6497   -0.8285    0.0000 O   0  0  0  0  0  0  0  0  0  0  0  0
    2.8680    0.1820    0.0000 O   0  0  0  0  0  0  0  0  0  0  0  0
    6.8422    1.6970    0.0000 N   0  0  3  0  0  0  0  0  0  0  0  0
    6.3981    0.2061    0.0000 C   0  0  3  0  0  0  0  0  0  0  0  0
    7.2641    0.7061    0.0000 C   0  0  3  0  0  0  0  0  0  0  0  0
    7.2641    1.7061    0.0000 C   0  0  3  0  0  0  0  0  0  0  0  0
    6.3820   -0.8354    0.0000 C   0  0  0  0  0  0  0  0  0  0  0  0
    6.1950    0.5760    0.0000 C   0  0  0  0  0  0  0  0  0  0  0  0
    8.1741    0.1993    0.0000 C   0  0  0  0  0  0  0  0  0  0  0  0
    5.5320    0.7061    0.0000 C   0  0  0  0  0  0  0  0  0  0  0  0
    6.3981    2.2061    0.0000 C   0  0  0  0  0  0  0  0  0  0  0  0
    7.2800   -1.3631    0.0000 C   0  0  3  0  0  0  0  0  0  0  0  0
    6.1114    1.3717    0.0000 C   0  0  0  0  0  0  0  0  0  0  0  0
    8.1821   -0.8423    0.0000 C   0  0  0  0  0  0  0  0  0  0  0  0
    5.5320    1.7061    0.0000 C   0  0  0  0  0  0  0  0  0  0  0  0
    4.6381    0.1715    0.0000 C   0  0  0  0  0  0  0  0  0  0  0  0
    7.0501    2.6752    0.0000 C   0  0  0  0  0  0  0  0  0  0  0  0
    4.6381    2.2408    0.0000 C   0  0  0  0  0  0  0  0  0  0  0  0
    3.7320    0.6853    0.0000 C   0  0  0  0  0  0  0  0  0  0  0  0
    3.7320    1.7269    0.0000 C   0  0  0  0  0  0  0  0  0  0  0  0
    3.7895   -1.3384    0.0000 C   0  0  0  0  0  0  0  0  0  0  0  0
    2.0000    0.6786    0.0000 C   0  0  0  0  0  0  0  0  0  0  0  0
    8.0002    2.1311    0.0000 H   0  0  0  0  0  0  0  0  0  0  0  0
    5.7729   -0.7199    0.0000 H   0  0  0  0  0  0  0  0  0  0  0  0
    6.1640   -1.4158    0.0000 H   0  0  0  0  0  0  0  0  0  0  0  0
    5.6002    0.7512    0.0000 H   0  0  0  0  0  0  0  0  0  0  0  0
    6.7867    0.7613    0.0000 H   0  0  0  0  0  0  0  0  0  0  0  0
    8.7858    0.0979    0.0000 H   0  0  0  0  0  0  0  0  0  0  0  0
    8.3786    0.7846    0.0000 H   0  0  0  0  0  0  0  0  0  0  0  0
    6.7966    2.6811    0.0000 H   0  0  0  0  0  0  0  0  0  0  0  0
    5.9995    2.6811    0.0000 H   0  0  0  0  0  0  0  0  0  0  0  0
    6.5415   -1.7839    0.0000 H   0  0  0  0  0  0  0  0  0  0  0  0
    5.9198    1.9613    0.0000 H   0  0  0  0  0  0  0  0  0  0  0  0
    5.5049    1.2428    0.0000 H   0  0  0  0  0  0  0  0  0  0  0  0
    8.3957   -1.4244    0.0000 H   0  0  0  0  0  0  0  0  0  0  0  0
    8.7922   -0.7315    0.0000 H   0  0  0  0  0  0  0  0  0  0  0  0
    8.6671    0.8961    0.0000 H   0  0  0  0  0  0  0  0  0  0  0  0
    7.6566    2.5463    0.0000 H   0  0  0  0  0  0  0  0  0  0  0  0
    7.1790    3.2816    0.0000 H   0  0  0  0  0  0  0  0  0  0  0  0
    6.4436    2.8041    0.0000 H   0  0  0  0  0  0  0  0  0  0  0  0
    4.6453    2.8607    0.0000 H   0  0  0  0  0  0  0  0  0  0  0  0
    7.8119   -2.6752    0.0000 H   0  0  0  0  0  0  0  0  0  0  0  0
    3.1963    2.0390    0.0000 H   0  0  0  0  0  0  0  0  0  0  0  0
    3.4733   -0.8051    0.0000 H   0  0  0  0  0  0  0  0  0  0  0  0
    3.2562   -1.6546    0.0000 H   0  0  0  0  0  0  0  0  0  0  0  0
    4.1057   -1.8718    0.0000 H   0  0  0  0  0  0  0  0  0  0  0  0
    2.3079    1.2168    0.0000 H   0  0  0  0  0  0  0  0  0  0  0  0
    1.4619    0.9866    0.0000 H   0  0  0  0  0  0  0  0  0  0  0  0
    1.6921    0.1405    0.0000 H   0  0  0  0  0  0  0  0  0  0  0  0
  1  7  1  0  0  0  0
  1 39  1  0  0  0  0
  2 14  1  0  0  0  0
  2 44  1  0  0  0  0
  3 18  1  0  0  0  0
  3 23  1  0  0  0  0
  4 21  1  0  0  0  0
  4 24  1  0  0  0  0
  5  8  1  0  0  0  0
  5 15  1  0  0  0  0
  5 19  1  0  0  0  0
  6  7  1  0  0  0  0
  6  9  1  0  0  0  0
  6 10  1  0  0  0  0
  6 12  1  0  0  0  0
  7  8  1  0  0  0  0
  7 11  1  0  0  0  0
  8 13  1  0  0  0  0
  8 25  1  0  0  0  0
  9 14  1  0  0  0  0
  9 26  1  0  0  0  0
  9 27  1  0  0  0  0
 10 15  1  0  0  0  0
 10 28  1  0  0  0  0
 10 29  1  0  0  0  0
 11 16  1  0  0  0  0
 11 30  1  0  0  0  0
 11 31  1  0  0  0  0
 12 17  2  0  0  0  0
 12 18  1  0  0  0  0
 13 17  1  0  0  0  0
 13 32  1  0  0  0  0
 13 33  1  0  0  0  0
 14 16  1  0  0  0  0
 14 34  1  0  0  0  0
 15 35  1  0  0  0  0
 15 36  1  0  0  0  0
 16 37  1  0  0  0  0
 16 38  1  0  0  0  0
 17 20  1  0  0  0  0
 18 21  2  0  0  0  0
 19 40  1  0  0  0  0
 19 41  1  0  0  0  0
 19 42  1  0  0  0  0
 20 22  2  0  0  0  0
 20 43  1  0  0  0  0
 21 22  1  0  0  0  0
 22 45  1  0  0  0  0
 23 46  1  0  0  0  0
 23 47  1  0  0  0  0
 23 48  1  0  0  0  0
 24 49  1  0  0  0  0
 24 50  1  0  0  0  0
 24 51  1  0  0  0  0
M  END
> <PUBCHEM_COMPOUND_CID>
4637

> <PUBCHEM_COMPOUND_CANONICALIZED>
1

> <PUBCHEM_CACTVS_COMPLEXITY>
488

> <PUBCHEM_CACTVS_HBOND_ACCEPTOR>
5

> <PUBCHEM_CACTVS_HBOND_DONOR>
2

> <PUBCHEM_CACTVS_ROTATABLE_BOND>
2

> <PUBCHEM_CACTVS_SUBSKEYS>
AAADceB6OAAAAAAAAAAAAAAAAAAAAAAAAAA8YMEAAAAWAADxAAAAHgAACAAADnzhmAYyBoMABgCAAiBCAAACCAAgIAAIiAAOiIgPNiKEsRuEcCIkwBGaqAfw8P8PoAABAAAYQADSAAaAADSgAAAAAAAAAA==

> <PUBCHEM_IUPAC_INCHI>
InChI=1S/C19H27NO4/c1-20-9-8-18-11-13(21)6-7-19(18,22)15(20)10-12-4-5-14(23-2)17(24-3)16(12)18/h4-5,13,15,21-22H,6-11H2,1-3H3

> <PUBCHEM_IUPAC_INCHIKEY>
LCAHPIFLPICNRW-UHFFFAOYSA-N

> <PUBCHEM_XLOGP3_AA>
1.6

> <PUBCHEM_EXACT_MASS>
333.194008

> <PUBCHEM_MOLECULAR_FORMULA>
C19H27NO4

> <PUBCHEM_MOLECULAR_WEIGHT>
333.42198

> <PUBCHEM_OPENEYE_CAN_SMILES>
CN1CCC23CC(CCC2(C1CC4=C3C(=C(C=C4)OC)OC)O)O

> <PUBCHEM_OPENEYE_ISO_SMILES>
CN1CCC23CC(CCC2(C1CC4=C3C(=C(C=C4)OC)OC)O)O

> <PUBCHEM_CACTVS_TPSA>
62.2

> <PUBCHEM_MONOISOTOPIC_WEIGHT>
333.194008

> <PUBCHEM_TOTAL_CHARGE>
0

> <PUBCHEM_HEAVY_ATOM_COUNT>
24

> <PUBCHEM_ATOM_DEF_STEREO_COUNT>
0

> <PUBCHEM_ATOM_UDEF_STEREO_COUNT>
4

> <PUBCHEM_BOND_DEF_STEREO_COUNT>
0

> <PUBCHEM_BOND_UDEF_STEREO_COUNT>
0

> <PUBCHEM_ISOTOPIC_ATOM_COUNT>
0

> <PUBCHEM_COMPONENT_COUNT>
1

> <PUBCHEM_CACTVS_TAUTO_COUNT>
1

> <PUBCHEM_COORDINATE_TYPE>
1
5
255

> <PUBCHEM_BONDANNOTATIONS>
7  1  3
12  17  8
12  18  8
14  34  3
17  20  8
18  21  8
20  22  8
21  22  8
6  10  3
8  25  3

$$$$

