4616
  -OEChem-06261200153D

 31 33  0     1  0  0  0  0  0999 V2000
   -0.1439    4.4764   -1.0800 Cl  0  0  0  0  0  0  0  0  0  0  0  0
    2.0677   -3.1800   -1.3667 O   0  0  0  0  0  0  0  0  0  0  0  0
    2.9712   -2.6678    1.0456 O   0  0  0  0  0  0  0  0  0  0  0  0
    2.4790   -0.4398    0.9569 N   0  0  0  0  0  0  0  0  0  0  0  0
    0.2518   -1.7970   -0.5518 N   0  0  0  0  0  0  0  0  0  0  0  0
    0.5409    0.6254   -0.1840 C   0  0  0  0  0  0  0  0  0  0  0  0
   -0.2462   -0.6403   -0.2772 C   0  0  0  0  0  0  0  0  0  0  0  0
    1.7747    0.6859    0.4829 C   0  0  0  0  0  0  0  0  0  0  0  0
   -1.7114   -0.5938   -0.0029 C   0  0  0  0  0  0  0  0  0  0  0  0
    1.6704   -1.9165   -0.8383 C   0  0  1  0  0  0  0  0  0  0  0  0
   -0.0366    1.8043   -0.6836 C   0  0  0  0  0  0  0  0  0  0  0  0
    2.3563    1.9383    0.7308 C   0  0  0  0  0  0  0  0  0  0  0  0
    2.4037   -1.7318    0.4791 C   0  0  0  0  0  0  0  0  0  0  0  0
    0.5789    3.0375   -0.4725 C   0  0  0  0  0  0  0  0  0  0  0  0
    1.7655    3.1065    0.2493 C   0  0  0  0  0  0  0  0  0  0  0  0
   -2.2128    0.3472    0.8874 C   0  0  0  0  0  0  0  0  0  0  0  0
   -2.5575   -1.4916   -0.6414 C   0  0  0  0  0  0  0  0  0  0  0  0
   -3.5832    0.3910    1.1439 C   0  0  0  0  0  0  0  0  0  0  0  0
   -3.9280   -1.4476   -0.3849 C   0  0  0  0  0  0  0  0  0  0  0  0
   -4.4407   -0.5063    0.5077 C   0  0  0  0  0  0  0  0  0  0  0  0
    1.9970   -1.1685   -1.5703 H   0  0  0  0  0  0  0  0  0  0  0  0
    3.1643   -0.2697    1.6887 H   0  0  0  0  0  0  0  0  0  0  0  0
   -0.9713    1.7688   -1.2398 H   0  0  0  0  0  0  0  0  0  0  0  0
    3.2959    2.0136    1.2741 H   0  0  0  0  0  0  0  0  0  0  0  0
    2.2495    4.0614    0.4373 H   0  0  0  0  0  0  0  0  0  0  0  0
   -1.5735    1.0342    1.4337 H   0  0  0  0  0  0  0  0  0  0  0  0
   -2.1826   -2.2273   -1.3475 H   0  0  0  0  0  0  0  0  0  0  0  0
   -3.9817    1.1175    1.8460 H   0  0  0  0  0  0  0  0  0  0  0  0
   -4.5962   -2.1451   -0.8814 H   0  0  0  0  0  0  0  0  0  0  0  0
   -5.5075   -0.4732    0.7086 H   0  0  0  0  0  0  0  0  0  0  0  0
    3.0132   -3.1203   -1.5871 H   0  0  0  0  0  0  0  0  0  0  0  0
  1 14  1  0  0  0  0
  2 10  1  0  0  0  0
  2 31  1  0  0  0  0
  3 13  2  0  0  0  0
  4  8  1  0  0  0  0
  4 13  1  0  0  0  0
  4 22  1  0  0  0  0
  5  7  2  0  0  0  0
  5 10  1  0  0  0  0
  6  7  1  0  0  0  0
  6  8  2  0  0  0  0
  6 11  1  0  0  0  0
  7  9  1  0  0  0  0
  8 12  1  0  0  0  0
  9 16  2  0  0  0  0
  9 17  1  0  0  0  0
 10 13  1  0  0  0  0
 10 21  1  0  0  0  0
 11 14  2  0  0  0  0
 11 23  1  0  0  0  0
 12 15  2  0  0  0  0
 12 24  1  0  0  0  0
 14 15  1  0  0  0  0
 15 25  1  0  0  0  0
 16 18  1  0  0  0  0
 16 26  1  0  0  0  0
 17 19  2  0  0  0  0
 17 27  1  0  0  0  0
 18 20  2  0  0  0  0
 18 28  1  0  0  0  0
 19 20  1  0  0  0  0
 19 29  1  0  0  0  0
 20 30  1  0  0  0  0
M  END
> <PUBCHEM_COMPOUND_CID>
4616

> <PUBCHEM_CONFORMER_RMSD>
0.6

> <PUBCHEM_CONFORMER_DIVERSEORDER>
1
2

> <PUBCHEM_MMFF94_PARTIAL_CHARGES>
30
1 -0.18
10 0.59
11 -0.15
12 -0.15
13 0.57
14 0.18
15 -0.15
16 -0.15
17 -0.15
18 -0.15
19 -0.15
2 -0.68
20 -0.15
22 0.37
23 0.15
24 0.15
25 0.15
26 0.15
27 0.15
28 0.15
29 0.15
3 -0.57
30 0.15
31 0.4
4 -0.55
5 -0.7
6 0.09
7 0.28
8 0.12
9 0.09

> <PUBCHEM_EFFECTIVE_ROTOR_COUNT>
1.4

> <PUBCHEM_PHARMACOPHORE_FEATURES>
8
1 2 acceptor
1 2 donor
1 3 acceptor
1 4 donor
1 5 acceptor
6 6 8 11 12 14 15 rings
6 9 16 17 18 19 20 rings
7 4 5 6 7 8 10 13 rings

> <PUBCHEM_HEAVY_ATOM_COUNT>
20

> <PUBCHEM_ATOM_DEF_STEREO_COUNT>
0

> <PUBCHEM_ATOM_UDEF_STEREO_COUNT>
1

> <PUBCHEM_BOND_DEF_STEREO_COUNT>
0

> <PUBCHEM_BOND_UDEF_STEREO_COUNT>
0

> <PUBCHEM_ISOTOPIC_ATOM_COUNT>
0

> <PUBCHEM_COMPONENT_COUNT>
1

> <PUBCHEM_CACTVS_TAUTO_COUNT>
3

> <PUBCHEM_CONFORMER_ID>
0000120800000001

> <PUBCHEM_MMFF94_ENERGY>
73.6694

> <PUBCHEM_FEATURE_SELFOVERLAP>
40.644

> <PUBCHEM_SHAPE_FINGERPRINT>
10090160 65 17834405514611762967
10382601 240 18411697652050022096
108634 29 17690294019716892261
11578080 2 17417262059815440220
11640471 11 17897996950545932737
116883 192 18194970870547176445
12035758 1 17905892831218455345
12553582 1 18338799025921886022
12716301 132 17621051188351974312
12788726 201 17911221038717628418
12954195 1 16181277528493230204
13134695 92 18272097092940201205
13140716 1 17907298754096834313
13681431 1 18269253759970599804
14178342 30 18121511154238537323
14790565 3 18196929968598823116
14844126 61 17550409752469816490
15420108 30 18115320968409599058
15490181 8 18049715218272218335
16945 1 18128544755843848417
17357779 13 18120386611609945029
17492 89 18334572413584660191
1813 80 18337942514821816910
19591789 44 18339364042244979324
20559304 39 18335976480920512465
20645476 183 17403171504551695261
20739085 24 18411702041438227816
21452121 99 17405150015949237418
21524375 3 17832139424998583781
22182313 1 17609508472941128734
2255824 54 18194956353425697621
23419403 2 17915207739056766892
23559900 14 17895185619588806399
2748010 2 17829624099155871822
3060560 45 18123751959210524084
3091708 16 9142259401979445146
352729 6 17472137276181723566
4409770 3 17402319868429164231
474 4 18124033425686853817
5283268 108 18267295620177572153
5312544 6 17691129236622341063
6992083 37 18117262869348142561
7097593 13 18335698339012548939
7364860 26 18262511503155843439
81228 2 17836638995756466673
8272917 22 18338795598885584791
90316 7 18122907800378382435

> <PUBCHEM_SHAPE_MULTIPOLES>
391.76
5.76
4.51
1.11
7.47
1.73
0.01
-0.46
-1.49
-4.84
1.55
-0.08
-0.11
-0.64

> <PUBCHEM_SHAPE_SELFOVERLAP>
854.282

> <PUBCHEM_SHAPE_VOLUME>
211.6

> <PUBCHEM_COORDINATE_TYPE>
2
5
10

$$$$

