47205133
  -OEChem-06241222583D

 41 41  0     1  0  0  0  0  0999 V2000
   -3.4432    1.7254    1.9652 F   0  0  0  0  0  0  0  0  0  0  0  0
    3.9447   -0.3311   -0.0368 O   0  0  0  0  0  0  0  0  0  0  0  0
    1.6853   -1.4467   -1.2160 O   0  0  0  0  0  0  0  0  0  0  0  0
   -1.2899   -1.9196   -0.8206 O   0  0  0  0  0  0  0  0  0  0  0  0
   -0.0572   -1.5137    1.0934 N   0  0  0  0  0  0  0  0  0  0  0  0
   -1.9721   -0.2928    0.7281 N   0  0  0  0  0  0  0  0  0  0  0  0
    5.7865    1.2076   -0.3249 C   0  0  0  0  0  0  0  0  0  0  0  0
    2.1474   -1.9186    0.0501 C   0  0  1  0  0  0  0  0  0  0  0  0
    4.6334    0.7509    0.5730 C   0  0  0  0  0  0  0  0  0  0  0  0
    2.8537   -0.7717    0.7657 C   0  0  0  0  0  0  0  0  0  0  0  0
    0.9719   -2.4872    0.8428 C   0  0  0  0  0  0  0  0  0  0  0  0
    5.2786    1.6711   -1.6919 C   0  0  0  0  0  0  0  0  0  0  0  0
    6.5799    2.3228    0.3526 C   0  0  0  0  0  0  0  0  0  0  0  0
   -1.1368   -1.2947    0.2263 C   0  0  0  0  0  0  0  0  0  0  0  0
   -3.1595    0.2166    0.1525 C   0  0  0  0  0  0  0  0  0  0  0  0
   -3.8731    1.2271    0.7971 C   0  0  0  0  0  0  0  0  0  0  0  0
   -3.6168   -0.2941   -1.0625 C   0  0  0  0  0  0  0  0  0  0  0  0
   -5.0440    1.7268    0.2268 C   0  0  0  0  0  0  0  0  0  0  0  0
   -4.7875    0.2059   -1.6328 C   0  0  0  0  0  0  0  0  0  0  0  0
   -5.5013    1.2162   -0.9880 C   0  0  0  0  0  0  0  0  0  0  0  0
    6.4541    0.3535   -0.4959 H   0  0  0  0  0  0  0  0  0  0  0  0
    2.8737   -2.7136   -0.1555 H   0  0  0  0  0  0  0  0  0  0  0  0
    5.0273    0.4253    1.5435 H   0  0  0  0  0  0  0  0  0  0  0  0
    3.9367    1.5811    0.7433 H   0  0  0  0  0  0  0  0  0  0  0  0
    3.2231   -1.1035    1.7427 H   0  0  0  0  0  0  0  0  0  0  0  0
    2.1667    0.0712    0.9054 H   0  0  0  0  0  0  0  0  0  0  0  0
    0.5256   -3.3234    0.2929 H   0  0  0  0  0  0  0  0  0  0  0  0
    1.3115   -2.8621    1.8139 H   0  0  0  0  0  0  0  0  0  0  0  0
    6.9797    1.9862    1.3149 H   0  0  0  0  0  0  0  0  0  0  0  0
    7.4259    2.6320   -0.2703 H   0  0  0  0  0  0  0  0  0  0  0  0
    6.1110    1.9998   -2.3233 H   0  0  0  0  0  0  0  0  0  0  0  0
    4.7647    0.8609   -2.2194 H   0  0  0  0  0  0  0  0  0  0  0  0
    4.5791    2.5081   -1.5920 H   0  0  0  0  0  0  0  0  0  0  0  0
    5.9539    3.2030    0.5346 H   0  0  0  0  0  0  0  0  0  0  0  0
    0.0079   -0.9541    1.9380 H   0  0  0  0  0  0  0  0  0  0  0  0
    1.2578   -2.1937   -1.6687 H   0  0  0  0  0  0  0  0  0  0  0  0
   -1.7023    0.1282    1.6136 H   0  0  0  0  0  0  0  0  0  0  0  0
   -3.1215   -1.0750   -1.6217 H   0  0  0  0  0  0  0  0  0  0  0  0
   -5.5994    2.5134    0.7289 H   0  0  0  0  0  0  0  0  0  0  0  0
   -5.1447   -0.1908   -2.5788 H   0  0  0  0  0  0  0  0  0  0  0  0
   -6.4129    1.6053   -1.4320 H   0  0  0  0  0  0  0  0  0  0  0  0
  1 16  1  0  0  0  0
  2  9  1  0  0  0  0
  2 10  1  0  0  0  0
  3  8  1  0  0  0  0
  3 36  1  0  0  0  0
  4 14  2  0  0  0  0
  5 11  1  0  0  0  0
  5 14  1  0  0  0  0
  5 35  1  0  0  0  0
  6 14  1  0  0  0  0
  6 15  1  0  0  0  0
  6 37  1  0  0  0  0
  7  9  1  0  0  0  0
  7 12  1  0  0  0  0
  7 13  1  0  0  0  0
  7 21  1  0  0  0  0
  8 10  1  0  0  0  0
  8 11  1  0  0  0  0
  8 22  1  0  0  0  0
  9 23  1  0  0  0  0
  9 24  1  0  0  0  0
 10 25  1  0  0  0  0
 10 26  1  0  0  0  0
 11 27  1  0  0  0  0
 11 28  1  0  0  0  0
 12 31  1  0  0  0  0
 12 32  1  0  0  0  0
 12 33  1  0  0  0  0
 13 29  1  0  0  0  0
 13 30  1  0  0  0  0
 13 34  1  0  0  0  0
 15 16  1  0  0  0  0
 15 17  2  0  0  0  0
 16 18  2  0  0  0  0
 17 19  1  0  0  0  0
 17 38  1  0  0  0  0
 18 20  1  0  0  0  0
 18 39  1  0  0  0  0
 19 20  2  0  0  0  0
 19 40  1  0  0  0  0
 20 41  1  0  0  0  0
M  END
> <PUBCHEM_COMPOUND_CID>
47205133

> <PUBCHEM_CONFORMER_RMSD>
1

> <PUBCHEM_CONFORMER_DIVERSEORDER>
1
78
33
113
48
36
57
111
46
44
110
116
104
94
49
55
107
114
100
43
88
53
10
59
91
80
92
109
105
40
23
17
85
30
64
108
66
56
9
115
82
11
95
16
97
50
84
34
102
87
12
61
86
79
96
90
106
99
72
76
65
60
103
37
47
4
93
29
28
89
83
58
75
24
63
32
81
38
101
22
15
73
5
68
112
21
26
70
25
31
7
13
98
51
52
2
42
54
39
14
69
62
19
41
71
3
45
67
35
27
77
18
20
6
8
74

> <PUBCHEM_MMFF94_PARTIAL_CHARGES>
24
1 -0.19
10 0.28
11 0.3
14 0.69
15 0.12
16 0.19
17 -0.15
18 -0.15
19 -0.15
2 -0.56
20 -0.15
3 -0.68
35 0.37
36 0.4
37 0.37
38 0.15
39 0.15
4 -0.57
40 0.15
41 0.15
5 -0.73
6 -0.55
8 0.28
9 0.28

> <PUBCHEM_EFFECTIVE_ROTOR_COUNT>
9

> <PUBCHEM_PHARMACOPHORE_FEATURES>
8
1 2 acceptor
1 3 acceptor
1 3 donor
1 4 acceptor
1 5 donor
1 6 donor
3 7 12 13 hydrophobe
6 15 16 17 18 19 20 rings

> <PUBCHEM_HEAVY_ATOM_COUNT>
20

> <PUBCHEM_ATOM_DEF_STEREO_COUNT>
0

> <PUBCHEM_ATOM_UDEF_STEREO_COUNT>
1

> <PUBCHEM_BOND_DEF_STEREO_COUNT>
0

> <PUBCHEM_BOND_UDEF_STEREO_COUNT>
0

> <PUBCHEM_ISOTOPIC_ATOM_COUNT>
0

> <PUBCHEM_COMPONENT_COUNT>
1

> <PUBCHEM_CACTVS_TAUTO_COUNT>
3

> <PUBCHEM_CONFORMER_ID>
02D04B0D00000001

> <PUBCHEM_MMFF94_ENERGY>
39.4097

> <PUBCHEM_FEATURE_SELFOVERLAP>
40.653

> <PUBCHEM_SHAPE_FINGERPRINT>
10319926 262 14620513475414022491
10753850 27 7348889966542627022
12523318 42 16056583340905375721
12596602 18 13901906696379095420
12633257 1 13254790256868506410
12760667 363 8502658112214230213
13103583 49 12679465304598292414
13955234 65 17844533424862516730
14123255 352 18272370854319249762
14123256 34 8646496245362627000
14251732 14 17240777151024046247
14528608 73 18113343007078691076
14774955 27 18341898514734956882
15163728 17 18114451327700495230
15183329 4 17531239587345883940
15188451 53 13182728209524512505
15342168 16 18273216400125433662
15348495 7 15339114611706799328
17780758 139 12175632771234527158
17834072 32 18270960146767921668
17870717 6 15357704097978974101
193927 3 6916257446775826406
19784866 240 7493006296890184770
20621476 21 14057583193518076557
20645477 70 6121917453211699299
21033648 29 16844728767710573535
21401589 2 18130781231314351674
22765269 38 17988654011932919189
22849339 104 16371306436838024359
23559900 14 16300923592167143695
270888 7 18342178847709374152
2748736 6 18341900649914451940
2767999 5 18343026575379705556
2838139 119 18334297569852084600
312425 54 13039190286444016948
312425 83 17315340668888751269
3472631 163 18410293609770888206
34797466 226 15864368912359155747
351380 3 8790887393402683844
4259306 186 5906053647087364766
474 4 18343022202712588674
5104073 3 17775566463589084227
543368 44 18408045117688844325
633830 44 18191584362176012211
7970288 3 7853563621764684861

> <PUBCHEM_SHAPE_MULTIPOLES>
376.75
16.04
2.58
1.43
11.68
0.55
0.12
-15.27
2.41
1.91
-0.25
-0.8
-0.38
-0.95

> <PUBCHEM_SHAPE_SELFOVERLAP>
753.996

> <PUBCHEM_SHAPE_VOLUME>
221.8

> <PUBCHEM_COORDINATE_TYPE>
2
5
10

$$$$

