5320438
  -OEChem-07051213113D

 37 39  0     0  0  0  0  0  0999 V2000
    0.1649    0.6358    0.0204 O   0  0  0  0  0  0  0  0  0  0  0  0
   -5.3495    0.3710   -0.1704 O   0  0  0  0  0  0  0  0  0  0  0  0
   -3.9183   -1.9513   -0.2603 O   0  0  0  0  0  0  0  0  0  0  0  0
   -4.0512    2.8051    0.0150 O   0  0  0  0  0  0  0  0  0  0  0  0
   -1.5508   -3.0497   -0.2478 O   0  0  0  0  0  0  0  0  0  0  0  0
    6.4798    0.3935    0.2236 O   0  0  0  0  0  0  0  0  0  0  0  0
   -1.8525   -0.7093   -0.1236 C   0  0  0  0  0  0  0  0  0  0  0  0
   -1.2011    0.5194   -0.0303 C   0  0  0  0  0  0  0  0  0  0  0  0
    0.9287   -0.5203   -0.0317 C   0  0  0  0  0  0  0  0  0  0  0  0
   -3.2473   -0.7677   -0.1714 C   0  0  0  0  0  0  0  0  0  0  0  0
   -1.0458   -1.9384   -0.1693 C   0  0  0  0  0  0  0  0  0  0  0  0
    2.3844   -0.2811    0.0348 C   0  0  0  0  0  0  0  0  0  0  0  0
    0.4192   -1.7595   -0.1149 C   0  0  0  0  0  0  0  0  0  0  0  0
   -1.9428    1.7000    0.0162 C   0  0  0  0  0  0  0  0  0  0  0  0
   -3.9867    0.4147   -0.1252 C   0  0  0  0  0  0  0  0  0  0  0  0
   -3.3361    1.6460   -0.0315 C   0  0  0  0  0  0  0  0  0  0  0  0
    3.2255   -1.2294    0.6221 C   0  0  0  0  0  0  0  0  0  0  0  0
    2.9267    0.8951   -0.4889 C   0  0  0  0  0  0  0  0  0  0  0  0
    4.6004   -1.0028    0.6854 C   0  0  0  0  0  0  0  0  0  0  0  0
    4.3016    1.1215   -0.4257 C   0  0  0  0  0  0  0  0  0  0  0  0
    5.1384    0.1726    0.1615 C   0  0  0  0  0  0  0  0  0  0  0  0
   -6.0509    0.9187    0.9431 C   0  0  0  0  0  0  0  0  0  0  0  0
    6.9632    1.6161   -0.3311 C   0  0  0  0  0  0  0  0  0  0  0  0
    1.0186   -2.6608   -0.1680 H   0  0  0  0  0  0  0  0  0  0  0  0
   -1.4312    2.6565    0.0894 H   0  0  0  0  0  0  0  0  0  0  0  0
    2.8434   -2.1471    1.0611 H   0  0  0  0  0  0  0  0  0  0  0  0
    2.2980    1.6474   -0.9593 H   0  0  0  0  0  0  0  0  0  0  0  0
    5.2471   -1.7432    1.1483 H   0  0  0  0  0  0  0  0  0  0  0  0
    4.6531    2.0543   -0.8533 H   0  0  0  0  0  0  0  0  0  0  0  0
   -3.2993   -2.6965   -0.2854 H   0  0  0  0  0  0  0  0  0  0  0  0
   -3.4357    3.5552    0.0810 H   0  0  0  0  0  0  0  0  0  0  0  0
   -5.4627    0.8743    1.8665 H   0  0  0  0  0  0  0  0  0  0  0  0
   -6.9606    0.3292    1.0908 H   0  0  0  0  0  0  0  0  0  0  0  0
   -6.3478    1.9493    0.7294 H   0  0  0  0  0  0  0  0  0  0  0  0
    6.5663    2.4855    0.2040 H   0  0  0  0  0  0  0  0  0  0  0  0
    6.7757    1.6707   -1.4088 H   0  0  0  0  0  0  0  0  0  0  0  0
    8.0495    1.6255   -0.1949 H   0  0  0  0  0  0  0  0  0  0  0  0
  1  8  1  0  0  0  0
  1  9  1  0  0  0  0
  2 15  1  0  0  0  0
  2 22  1  0  0  0  0
  3 10  1  0  0  0  0
  3 30  1  0  0  0  0
  4 16  1  0  0  0  0
  4 31  1  0  0  0  0
  5 11  2  0  0  0  0
  6 21  1  0  0  0  0
  6 23  1  0  0  0  0
  7  8  2  0  0  0  0
  7 10  1  0  0  0  0
  7 11  1  0  0  0  0
  8 14  1  0  0  0  0
  9 12  1  0  0  0  0
  9 13  2  0  0  0  0
 10 15  2  0  0  0  0
 11 13  1  0  0  0  0
 12 17  2  0  0  0  0
 12 18  1  0  0  0  0
 13 24  1  0  0  0  0
 14 16  2  0  0  0  0
 14 25  1  0  0  0  0
 15 16  1  0  0  0  0
 17 19  1  0  0  0  0
 17 26  1  0  0  0  0
 18 20  2  0  0  0  0
 18 27  1  0  0  0  0
 19 21  2  0  0  0  0
 19 28  1  0  0  0  0
 20 21  1  0  0  0  0
 20 29  1  0  0  0  0
 22 32  1  0  0  0  0
 22 33  1  0  0  0  0
 22 34  1  0  0  0  0
 23 35  1  0  0  0  0
 23 36  1  0  0  0  0
 23 37  1  0  0  0  0
M  END
> <PUBCHEM_COMPOUND_CID>
5320438

> <PUBCHEM_CONFORMER_RMSD>
0.6

> <PUBCHEM_CONFORMER_DIVERSEORDER>
1
3
5
2
4
6

> <PUBCHEM_MMFF94_PARTIAL_CHARGES>
31
1 -0.16
10 0.08
11 0.47
12 0.03
13 -0.14
14 -0.15
15 0.08
16 0.08
17 -0.15
18 -0.15
19 -0.15
2 -0.36
20 -0.15
21 0.08
22 0.28
23 0.28
24 0.15
25 0.15
26 0.15
27 0.15
28 0.15
29 0.15
3 -0.53
30 0.45
31 0.45
4 -0.53
5 -0.57
6 -0.36
7 0.09
8 0.08
9 0.05

> <PUBCHEM_EFFECTIVE_ROTOR_COUNT>
3

> <PUBCHEM_PHARMACOPHORE_FEATURES>
9
1 1 acceptor
1 2 acceptor
1 3 donor
1 4 donor
1 5 acceptor
1 6 acceptor
6 1 7 8 9 11 13 rings
6 12 17 18 19 20 21 rings
6 7 8 10 14 15 16 rings

> <PUBCHEM_HEAVY_ATOM_COUNT>
23

> <PUBCHEM_ATOM_DEF_STEREO_COUNT>
0

> <PUBCHEM_ATOM_UDEF_STEREO_COUNT>
0

> <PUBCHEM_BOND_DEF_STEREO_COUNT>
0

> <PUBCHEM_BOND_UDEF_STEREO_COUNT>
0

> <PUBCHEM_ISOTOPIC_ATOM_COUNT>
0

> <PUBCHEM_COMPONENT_COUNT>
1

> <PUBCHEM_CACTVS_TAUTO_COUNT>
12

> <PUBCHEM_CONFORMER_ID>
00512EF600000001

> <PUBCHEM_MMFF94_ENERGY>
90.2632

> <PUBCHEM_FEATURE_SELFOVERLAP>
45.697

> <PUBCHEM_SHAPE_FINGERPRINT>
10 15 18272082812490635193
10411042 1 17761494690850677975
10493431 412 18335976567315737041
10595046 47 18341334414178517746
106641 1 18411971452700695473
10730089 173 18408884023401189668
10906281 52 18260815003906058307
11578080 2 4821839460190990441
12107183 9 17909558586042610930
12236239 1 18201723929758290490
12390115 104 18115576184004157273
12403814 3 17917997200125187997
12596602 18 17489590077626122328
12788726 201 17677046962060637000
12916748 109 18410288146498556236
13140716 1 18337948983965237281
13533116 47 17822010977740483158
13785724 45 17619072076434970586
14251764 18 18411700963453989115
14341114 176 18343579681041107698
14790565 3 18410289250374255881
15042514 8 18339921490408896755
15196674 1 18411420639649884994
17980427 23 18340485577789583012
1813 80 16558745767519523566
20281389 69 18413673517795955648
20645477 56 18408605859348281602
20645477 70 16515954969905675726
21065198 48 18343872121512560234
21236236 1 18335422327318972415
21267235 1 18341324573923321370
22224240 67 18408880755437350139
23402539 116 18334863792058863447
23559900 14 18260835839299190488
3004659 81 18411417358954396762
335352 9 18409450254899633533
34797466 226 17894623735029913124
350125 39 18411138021790062409
3545911 37 18410011044405214364
4073 2 17988355984817239090
4214541 1 18411420605253041524
474 4 17560798776411349916
474229 33 18410574007280571243
5104073 3 18343871026316791578
542803 24 18187367636230099980
6327066 14 18198350743922505333
9709674 26 18409162212580856126
9981440 41 18341610434283675147

> <PUBCHEM_SHAPE_MULTIPOLES>
438.11
14.63
2.37
0.71
11.49
0.49
-0.06
-7.1
-1.33
-1.69
0.16
0.02
0
-0.93

> <PUBCHEM_SHAPE_SELFOVERLAP>
969.028

> <PUBCHEM_SHAPE_VOLUME>
234.9

> <PUBCHEM_COORDINATE_TYPE>
2
5
10

$$$$

