47205278
  -OEChem-06241222583D

 36 37  0     0  0  0  0  0  0999 V2000
   -4.3357   -1.0777    0.0066 S   0  0  0  0  0  0  0  0  0  0  0  0
   -5.1275   -1.7671   -0.9928 O   0  0  0  0  0  0  0  0  0  0  0  0
   -4.6116   -1.2389    1.4207 O   0  0  0  0  0  0  0  0  0  0  0  0
    0.3951    1.3655   -1.4603 O   0  0  0  0  0  0  0  0  0  0  0  0
   -1.9051    0.8987   -0.0165 N   0  0  0  0  0  0  0  0  0  0  0  0
    1.5325    1.8199    0.5129 N   0  0  0  0  0  0  0  0  0  0  0  0
    3.4822   -0.2886   -1.1725 N   0  0  0  0  0  0  0  0  0  0  0  0
   -2.6260   -1.4679   -0.2791 C   0  0  0  0  0  0  0  0  0  0  0  0
   -4.3556    0.6574   -0.3750 C   0  0  0  0  0  0  0  0  0  0  0  0
   -3.2403    1.4033    0.3480 C   0  0  0  0  0  0  0  0  0  0  0  0
   -1.7008   -0.4888    0.4337 C   0  0  0  0  0  0  0  0  0  0  0  0
   -0.8721    1.7653    0.5571 C   0  0  0  0  0  0  0  0  0  0  0  0
    0.3967    1.6148   -0.2569 C   0  0  0  0  0  0  0  0  0  0  0  0
    2.8740    1.7630   -0.0223 C   0  0  0  0  0  0  0  0  0  0  0  0
    3.4322    0.3696    0.0073 C   0  0  0  0  0  0  0  0  0  0  0  0
    3.8605   -0.1642    1.2121 C   0  0  0  0  0  0  0  0  0  0  0  0
    4.3734   -1.4565    1.2055 C   0  0  0  0  0  0  0  0  0  0  0  0
    3.9868   -1.5424   -1.1397 C   0  0  0  0  0  0  0  0  0  0  0  0
    4.4413   -2.1656    0.0113 C   0  0  0  0  0  0  0  0  0  0  0  0
   -4.2560    0.7565   -1.4612 H   0  0  0  0  0  0  0  0  0  0  0  0
   -5.3364    1.0434   -0.0809 H   0  0  0  0  0  0  0  0  0  0  0  0
   -2.4622   -2.4891    0.0785 H   0  0  0  0  0  0  0  0  0  0  0  0
   -2.4602   -1.4494   -1.3616 H   0  0  0  0  0  0  0  0  0  0  0  0
   -1.8398   -0.5665    1.5201 H   0  0  0  0  0  0  0  0  0  0  0  0
   -0.6728   -0.8070    0.2212 H   0  0  0  0  0  0  0  0  0  0  0  0
   -3.3251    2.4593    0.0629 H   0  0  0  0  0  0  0  0  0  0  0  0
   -3.3892    1.3498    1.4344 H   0  0  0  0  0  0  0  0  0  0  0  0
   -0.7051    1.5597    1.6211 H   0  0  0  0  0  0  0  0  0  0  0  0
   -1.1465    2.8243    0.4657 H   0  0  0  0  0  0  0  0  0  0  0  0
    1.4329    2.0165    1.5045 H   0  0  0  0  0  0  0  0  0  0  0  0
    3.5019    2.4380    0.5695 H   0  0  0  0  0  0  0  0  0  0  0  0
    2.8623    2.1416   -1.0510 H   0  0  0  0  0  0  0  0  0  0  0  0
    3.8034    0.3975    2.1384 H   0  0  0  0  0  0  0  0  0  0  0  0
    4.7196   -1.9104    2.1292 H   0  0  0  0  0  0  0  0  0  0  0  0
    4.0178   -2.0526   -2.0968 H   0  0  0  0  0  0  0  0  0  0  0  0
    4.8372   -3.1742   -0.0175 H   0  0  0  0  0  0  0  0  0  0  0  0
  1  2  2  0  0  0  0
  1  3  2  0  0  0  0
  1  8  1  0  0  0  0
  1  9  1  0  0  0  0
  4 13  2  0  0  0  0
  5 10  1  0  0  0  0
  5 11  1  0  0  0  0
  5 12  1  0  0  0  0
  6 13  1  0  0  0  0
  6 14  1  0  0  0  0
  6 30  1  0  0  0  0
  7 15  1  0  0  0  0
  7 18  2  0  0  0  0
  8 11  1  0  0  0  0
  8 22  1  0  0  0  0
  8 23  1  0  0  0  0
  9 10  1  0  0  0  0
  9 20  1  0  0  0  0
  9 21  1  0  0  0  0
 10 26  1  0  0  0  0
 10 27  1  0  0  0  0
 11 24  1  0  0  0  0
 11 25  1  0  0  0  0
 12 13  1  0  0  0  0
 12 28  1  0  0  0  0
 12 29  1  0  0  0  0
 14 15  1  0  0  0  0
 14 31  1  0  0  0  0
 14 32  1  0  0  0  0
 15 16  2  0  0  0  0
 16 17  1  0  0  0  0
 16 33  1  0  0  0  0
 17 19  2  0  0  0  0
 17 34  1  0  0  0  0
 18 19  1  0  0  0  0
 18 35  1  0  0  0  0
 19 36  1  0  0  0  0
M  END
> <PUBCHEM_COMPOUND_CID>
47205278

> <PUBCHEM_CONFORMER_RMSD>
0.8

> <PUBCHEM_CONFORMER_DIVERSEORDER>
1
13
48
103
36
139
127
135
46
171
134
86
6
148
111
141
34
162
138
122
91
3
77
66
14
121
145
25
39
95
35
153
61
119
49
105
128
123
9
8
118
142
116
99
73
29
160
21
165
159
42
26
170
130
168
104
90
115
154
30
112
7
71
152
167
143
63
58
136
57
133
16
64
56
92
40
164
38
101
2
151
155
55
107
156
82
140
76
10
108
20
70
129
137
163
4
23
81
102
84
146
17
75
65
54
45
18
109
106
88
50
24
100
161
78
80
147
27
149
110
125
52
28
173
97
87
41
37
113
93
22
157
79
114
33
126
12
172
120
89
96
44
98
5
131
53
51
47
43
166
19
68
59
31
169
15
94
174
83
124
32
132
72
69
67
11
158
85
62
60
150
117
144
74

> <PUBCHEM_MMFF94_PARTIAL_CHARGES>
24
1 1.09
10 0.27
11 0.27
12 0.33
13 0.57
14 0.44
15 0.17
16 -0.15
17 -0.15
18 0.16
19 -0.15
2 -0.65
3 -0.65
30 0.37
33 0.15
34 0.15
35 0.15
36 0.15
4 -0.57
5 -0.81
6 -0.73
7 -0.62
8 0.11
9 0.11

> <PUBCHEM_EFFECTIVE_ROTOR_COUNT>
6

> <PUBCHEM_PHARMACOPHORE_FEATURES>
8
1 2 acceptor
1 3 acceptor
1 4 acceptor
1 5 cation
1 6 donor
1 7 acceptor
6 1 5 8 9 10 11 rings
6 7 15 16 17 18 19 rings

> <PUBCHEM_HEAVY_ATOM_COUNT>
19

> <PUBCHEM_ATOM_DEF_STEREO_COUNT>
0

> <PUBCHEM_ATOM_UDEF_STEREO_COUNT>
0

> <PUBCHEM_BOND_DEF_STEREO_COUNT>
0

> <PUBCHEM_BOND_UDEF_STEREO_COUNT>
0

> <PUBCHEM_ISOTOPIC_ATOM_COUNT>
0

> <PUBCHEM_COMPONENT_COUNT>
1

> <PUBCHEM_CACTVS_TAUTO_COUNT>
2

> <PUBCHEM_CONFORMER_ID>
02D04B9E00000001

> <PUBCHEM_MMFF94_ENERGY>
30.9463

> <PUBCHEM_FEATURE_SELFOVERLAP>
40.612

> <PUBCHEM_SHAPE_FINGERPRINT>
10062212 137 18411138043749812307
10670039 82 9007063504290520810
11796584 16 18411704321975957321
12410352 35 18412268354124045626
12422481 6 18043787949288298787
12596599 1 18188762963651475058
12596602 18 16588306042715823706
12633257 1 18188761881092934392
12839892 36 17240765043342622591
12892183 10 17240769518640405360
13167823 11 18412262826638298753
13255334 9 18411415085808862914
13533116 47 18335702676918844785
13551218 46 18335135367827241251
1420 369 18407759235389814251
14251740 57 17821723918921192446
14251751 18 18130516335338586362
14251758 9 18336537309603370337
14341114 328 5256108125968254022
14528608 73 10879992445755860315
14848178 5 18410582789934888159
14848178 96 9295291633720304698
15196674 1 18409730668333444056
15342816 4 18202844374903640932
15352361 1 18409450327634437362
15422964 175 17970912387292427740
17349148 13 18113893849666848909
17857418 61 18334300838179700695
17959699 21 9871483018834079855
1798214 55 9295282837943689786
1813 80 17846778503094074660
18186145 218 13254790265817338636
193927 3 18413101762510432411
20281475 54 18411415141970693220
20374829 77 18272374212841276512
20403669 9 18410011052415166639
20621476 51 17896051952957426015
20621476 91 13985236410968982055
20645477 70 18340770355928537156
21250096 35 18407760317742561537
22620623 9 17273991300817373781
235170 7 14692563338489939938
23559900 14 18334295379239727336
3004659 81 18272369789262280036
316301 35 18046911752123267750
38570 142 14130205915437627106
44062 13 18271247235045452701
4463277 69 18341615897339130796
5104073 3 18334292071956563833
5207 123 18412268362676881853
559249 180 18269844271203965177
7064713 232 16805316691450257951
76465 3 18409735062100948589
88748 71 18271802484001472482
8988823 20 17168439168077022681
960060 61 17632854231085955758
9709674 26 18341047415457165737

> <PUBCHEM_SHAPE_MULTIPOLES>
362.31
11.95
2.42
1.16
2.62
0
0
-7.48
-0.54
-0.38
0.08
-0.53
-0.24
-0.11

> <PUBCHEM_SHAPE_SELFOVERLAP>
732.966

> <PUBCHEM_SHAPE_VOLUME>
211.6

> <PUBCHEM_COORDINATE_TYPE>
2
5
10

$$$$

