9567
  -OEChem-06261203493D

 30 32  0     0  0  0  0  0  0999 V2000
    1.7118    0.0061   -2.5364 Cl  0  0  0  0  0  0  0  0  0  0  0  0
   -0.1228   -2.0658    0.2071 O   0  0  0  0  0  0  0  0  0  0  0  0
    0.3772    0.2362    0.2002 N   0  0  0  0  0  0  0  0  0  0  0  0
   -1.4116    1.7993    0.0674 N   0  0  0  0  0  0  0  0  0  0  0  0
   -1.9204   -0.5907    0.1165 C   0  0  0  0  0  0  0  0  0  0  0  0
   -0.1459    1.5311    0.1666 C   0  0  0  0  0  0  0  0  0  0  0  0
   -0.4750   -0.8885    0.1990 C   0  0  0  0  0  0  0  0  0  0  0  0
    1.7919   -0.0168    0.1918 C   0  0  0  0  0  0  0  0  0  0  0  0
   -2.3252    0.7412    0.0293 C   0  0  0  0  0  0  0  0  0  0  0  0
   -2.8623   -1.6263    0.1002 C   0  0  0  0  0  0  0  0  0  0  0  0
   -3.6911    1.0288   -0.0745 C   0  0  0  0  0  0  0  0  0  0  0  0
    0.7723    2.7278    0.3087 C   0  0  0  0  0  0  0  0  0  0  0  0
    2.4935   -0.1386   -1.0026 C   0  0  0  0  0  0  0  0  0  0  0  0
    2.4469   -0.1386    1.4129 C   0  0  0  0  0  0  0  0  0  0  0  0
   -4.2197   -1.3262   -0.0030 C   0  0  0  0  0  0  0  0  0  0  0  0
   -4.6345    0.0005   -0.0915 C   0  0  0  0  0  0  0  0  0  0  0  0
    3.8661   -0.3855   -0.9761 C   0  0  0  0  0  0  0  0  0  0  0  0
    3.8194   -0.3852    1.4394 C   0  0  0  0  0  0  0  0  0  0  0  0
    4.5291   -0.5088    0.2450 C   0  0  0  0  0  0  0  0  0  0  0  0
   -2.5596   -2.6678    0.1640 H   0  0  0  0  0  0  0  0  0  0  0  0
    1.5038    2.7357   -0.5037 H   0  0  0  0  0  0  0  0  0  0  0  0
    1.3024    2.6742    1.2636 H   0  0  0  0  0  0  0  0  0  0  0  0
    0.2019    3.6607    0.2748 H   0  0  0  0  0  0  0  0  0  0  0  0
   -4.0297    2.0603   -0.1394 H   0  0  0  0  0  0  0  0  0  0  0  0
    1.9038   -0.0442    2.3495 H   0  0  0  0  0  0  0  0  0  0  0  0
   -4.9535   -2.1267   -0.0160 H   0  0  0  0  0  0  0  0  0  0  0  0
   -5.6919    0.2353   -0.1718 H   0  0  0  0  0  0  0  0  0  0  0  0
    4.4339   -0.4845   -1.8978 H   0  0  0  0  0  0  0  0  0  0  0  0
    4.3357   -0.4811    2.3900 H   0  0  0  0  0  0  0  0  0  0  0  0
    5.5978   -0.7009    0.2659 H   0  0  0  0  0  0  0  0  0  0  0  0
  1 13  1  0  0  0  0
  2  7  2  0  0  0  0
  3  6  1  0  0  0  0
  3  7  1  0  0  0  0
  3  8  1  0  0  0  0
  4  6  2  0  0  0  0
  4  9  1  0  0  0  0
  5  7  1  0  0  0  0
  5  9  1  0  0  0  0
  5 10  2  0  0  0  0
  6 12  1  0  0  0  0
  8 13  1  0  0  0  0
  8 14  2  0  0  0  0
  9 11  2  0  0  0  0
 10 15  1  0  0  0  0
 10 20  1  0  0  0  0
 11 16  1  0  0  0  0
 11 24  1  0  0  0  0
 12 21  1  0  0  0  0
 12 22  1  0  0  0  0
 12 23  1  0  0  0  0
 13 17  2  0  0  0  0
 14 18  1  0  0  0  0
 14 25  1  0  0  0  0
 15 16  2  0  0  0  0
 15 26  1  0  0  0  0
 16 27  1  0  0  0  0
 17 19  1  0  0  0  0
 17 28  1  0  0  0  0
 18 19  2  0  0  0  0
 18 29  1  0  0  0  0
 19 30  1  0  0  0  0
M  END
> <PUBCHEM_COMPOUND_CID>
9567

> <PUBCHEM_CONFORMER_RMSD>
0.6

> <PUBCHEM_CONFORMER_DIVERSEORDER>
1
2

> <PUBCHEM_MMFF94_PARTIAL_CHARGES>
27
1 -0.18
10 -0.15
11 -0.15
12 0.06
13 0.18
14 -0.15
15 -0.15
16 -0.15
17 -0.15
18 -0.15
19 -0.15
2 -0.57
20 0.15
24 0.15
25 0.15
26 0.15
27 0.15
28 0.15
29 0.15
3 -0.24
30 0.15
4 -0.63
5 0.09
6 0.45
7 0.54
8 0.12
9 0.18

> <PUBCHEM_EFFECTIVE_ROTOR_COUNT>
1

> <PUBCHEM_PHARMACOPHORE_FEATURES>
4
1 2 acceptor
6 3 4 5 6 7 9 rings
6 5 9 10 11 15 16 rings
6 8 13 14 17 18 19 rings

> <PUBCHEM_HEAVY_ATOM_COUNT>
19

> <PUBCHEM_ATOM_DEF_STEREO_COUNT>
0

> <PUBCHEM_ATOM_UDEF_STEREO_COUNT>
0

> <PUBCHEM_BOND_DEF_STEREO_COUNT>
0

> <PUBCHEM_BOND_UDEF_STEREO_COUNT>
0

> <PUBCHEM_ISOTOPIC_ATOM_COUNT>
0

> <PUBCHEM_COMPONENT_COUNT>
1

> <PUBCHEM_CACTVS_TAUTO_COUNT>
1

> <PUBCHEM_CONFORMER_ID>
0000255F00000001

> <PUBCHEM_MMFF94_ENERGY>
78.7338

> <PUBCHEM_FEATURE_SELFOVERLAP>
20.326

> <PUBCHEM_SHAPE_FINGERPRINT>
10062212 137 18202003226917699723
11132069 177 18409168835366892915
11543360 7 15913044266657106067
12236239 1 17775566464047603522
12403814 3 17489870479478148109
12553582 1 18412542124351284137
13134695 92 15769774663205274150
13140716 1 18338514124067221097
13538477 17 17989201512889191026
13862211 1 18410863144384317363
14115302 16 17918269822783969539
14252887 29 17603578642842754246
14289901 80 15502376750828651035
14386348 63 17967247615482558743
15196674 1 18410858716135566841
15375358 24 17894633677419825597
15536298 74 18263366897506711961
15848700 24 18261116257212487357
16752209 62 18343022215607923147
16945 1 18410007767297798785
17804303 29 18411420588162888729
19141452 34 17676206836714514711
19862831 5 17989199348072563022
200 152 16773800315831429392
20028762 73 18042967563296417159
20233049 118 18272087192929898468
20279233 1 17749388174047437359
20344682 1 17676204689167335724
204376 136 15792024329012748926
20600515 1 18335703827664566864
20645476 183 17489014972999902099
20905425 154 18046343303883421742
21033648 29 17023198144624192683
21267235 1 18411413991241068491
22854114 59 16298390158182823722
232386 152 18341332218922702429
2334 1 18122627150473157873
23366157 5 17914337874745962740
23402539 116 18334021600654156534
23532345 42 18333455326496196832
23557571 272 18114454677806543396
23559900 14 18334571395702973046
2748010 2 18195531394260637793
296302 2 15574716876278520435
3286 77 18271814454270108815
335352 9 18410577301657702589
4340502 62 14996284687100438751
43471831 8 18270406121182217474
474 4 4822056162971670970
5104073 3 18265048047239194411
5902787 121 18411140190732462913
69090 78 17312830359336070295
7364860 26 18117276943592656496
7495541 125 17774710958202029481
77492 1 17703785955440112912
81228 2 18043791290029446144
8272917 22 14562798988958989181
9709674 26 18122628249868604795

> <PUBCHEM_SHAPE_MULTIPOLES>
377.05
8.32
1.86
1.34
1.76
0.86
0.72
-2.25
-0.41
0.94
-0.22
-1.7
-0.09
0.02

> <PUBCHEM_SHAPE_SELFOVERLAP>
823.943

> <PUBCHEM_SHAPE_VOLUME>
204.9

> <PUBCHEM_COORDINATE_TYPE>
2
5
10

$$$$

