72343
  -OEChem-07051212572D

 92 98  0     1  0  0  0  0  0999 V2000
    7.2066    1.2758    0.0000 O   0  0  0  0  0  0  0  0  0  0  0  0
   10.6999    3.2906    0.0000 O   0  0  0  0  0  0  0  0  0  0  0  0
    7.7556    3.7303    0.0000 O   0  0  0  0  0  0  0  0  0  0  0  0
    8.9657    4.2918    0.0000 O   0  0  0  0  0  0  0  0  0  0  0  0
    6.6743    3.7214    0.0000 O   0  0  0  0  0  0  0  0  0  0  0  0
    5.9340   -2.9296    0.0000 O   0  0  0  0  0  0  0  0  0  0  0  0
    7.5064   -4.1713    0.0000 O   0  0  0  0  0  0  0  0  0  0  0  0
    9.8338   -0.2166    0.0000 N   0  0  3  0  0  0  0  0  0  0  0  0
    2.8660    1.7770    0.0000 N   0  0  3  0  0  0  0  0  0  0  0  0
    8.9657    0.2846    0.0000 C   0  0  2  0  0  0  0  0  0  0  0  0
    8.9657    1.2870    0.0000 C   0  0  0  0  0  0  0  0  0  0  0  0
    3.7341    1.2758    0.0000 C   0  0  2  0  0  0  0  0  0  0  0  0
    9.8338    1.7882    0.0000 C   0  0  0  0  0  0  0  0  0  0  0  0
   10.7020    0.2846    0.0000 C   0  0  0  0  0  0  0  0  0  0  0  0
   10.7020    1.2870    0.0000 C   0  0  0  0  0  0  0  0  0  0  0  0
    8.0976   -0.2166    0.0000 C   0  0  0  0  0  0  0  0  0  0  0  0
    4.6022    1.7770    0.0000 C   0  0  0  0  0  0  0  0  0  0  0  0
    2.8660    2.7795    0.0000 C   0  0  0  0  0  0  0  0  0  0  0  0
    4.6022    2.7795    0.0000 C   0  0  0  0  0  0  0  0  0  0  0  0
    3.7341    3.2807    0.0000 C   0  0  0  0  0  0  0  0  0  0  0  0
    8.0976    1.7882    0.0000 C   0  0  0  0  0  0  0  0  0  0  0  0
    3.7341    0.2734    0.0000 C   0  0  0  0  0  0  0  0  0  0  0  0
    9.8338    2.7906    0.0000 C   0  0  0  0  0  0  0  0  0  0  0  0
    9.8338   -1.2166    0.0000 C   0  0  0  0  0  0  0  0  0  0  0  0
    5.4704    1.2758    0.0000 C   0  0  0  0  0  0  0  0  0  0  0  0
    7.9431   -1.1983    0.0000 C   0  0  0  0  0  0  0  0  0  0  0  0
    8.0976    2.7906    0.0000 C   0  0  0  0  0  0  0  0  0  0  0  0
    6.3385    1.7770    0.0000 C   0  0  0  0  0  0  0  0  0  0  0  0
    8.9657    3.2918    0.0000 C   0  0  0  0  0  0  0  0  0  0  0  0
    5.4704    3.2807    0.0000 C   0  0  0  0  0  0  0  0  0  0  0  0
    2.0000    1.2770    0.0000 C   0  0  0  0  0  0  0  0  0  0  0  0
    6.3385    2.7795    0.0000 C   0  0  0  0  0  0  0  0  0  0  0  0
    4.2424   -0.5074    0.0000 C   0  0  0  0  0  0  0  0  0  0  0  0
    7.0114   -1.5681    0.0000 C   0  0  0  0  0  0  0  0  0  0  0  0
    8.7292   -1.8204    0.0000 C   0  0  0  0  0  0  0  0  0  0  0  0
    5.2438   -0.4635    0.0000 C   0  0  0  0  0  0  0  0  0  0  0  0
    3.7797   -1.3966    0.0000 C   0  0  0  0  0  0  0  0  0  0  0  0
    6.8657   -2.5598    0.0000 C   0  0  0  0  0  0  0  0  0  0  0  0
    8.5835   -2.8121    0.0000 C   0  0  0  0  0  0  0  0  0  0  0  0
    7.6518   -3.1819    0.0000 C   0  0  0  0  0  0  0  0  0  0  0  0
    5.3198   -2.1981    0.0000 C   0  0  0  0  0  0  0  0  0  0  0  0
    5.7826   -1.3088    0.0000 C   0  0  0  0  0  0  0  0  0  0  0  0
    4.3184   -2.2419    0.0000 C   0  0  0  0  0  0  0  0  0  0  0  0
   10.6999    4.2906    0.0000 C   0  0  0  0  0  0  0  0  0  0  0  0
    8.3984    4.4963    0.0000 C   0  0  0  0  0  0  0  0  0  0  0  0
    9.8318    4.7918    0.0000 C   0  0  0  0  0  0  0  0  0  0  0  0
    6.0264    4.4832    0.0000 C   0  0  0  0  0  0  0  0  0  0  0  0
    8.2906   -4.7918    0.0000 C   0  0  0  0  0  0  0  0  0  0  0  0
    8.9657   -0.5654    0.0000 H   0  0  0  0  0  0  0  0  0  0  0  0
    2.9980    0.8508    0.0000 H   0  0  0  0  0  0  0  0  0  0  0  0
   10.9140   -0.2980    0.0000 H   0  0  0  0  0  0  0  0  0  0  0  0
   11.3125    0.3922    0.0000 H   0  0  0  0  0  0  0  0  0  0  0  0
   11.3125    1.1793    0.0000 H   0  0  0  0  0  0  0  0  0  0  0  0
   10.9140    1.8696    0.0000 H   0  0  0  0  0  0  0  0  0  0  0  0
    7.9162    0.3762    0.0000 H   0  0  0  0  0  0  0  0  0  0  0  0
    7.4792   -0.2603    0.0000 H   0  0  0  0  0  0  0  0  0  0  0  0
    2.6540    3.3621    0.0000 H   0  0  0  0  0  0  0  0  0  0  0  0
    2.2554    2.6718    0.0000 H   0  0  0  0  0  0  0  0  0  0  0  0
    4.1327    3.7556    0.0000 H   0  0  0  0  0  0  0  0  0  0  0  0
    3.3356    3.7556    0.0000 H   0  0  0  0  0  0  0  0  0  0  0  0
    3.1478    0.4751    0.0000 H   0  0  0  0  0  0  0  0  0  0  0  0
    4.3285    0.4498    0.0000 H   0  0  0  0  0  0  0  0  0  0  0  0
    9.2139   -1.2166    0.0000 H   0  0  0  0  0  0  0  0  0  0  0  0
    9.8338   -1.8366    0.0000 H   0  0  0  0  0  0  0  0  0  0  0  0
   10.4538   -1.2166    0.0000 H   0  0  0  0  0  0  0  0  0  0  0  0
    5.4704    0.6558    0.0000 H   0  0  0  0  0  0  0  0  0  0  0  0
    5.4704    3.9007    0.0000 H   0  0  0  0  0  0  0  0  0  0  0  0
    1.6900    1.8140    0.0000 H   0  0  0  0  0  0  0  0  0  0  0  0
    1.4631    0.9671    0.0000 H   0  0  0  0  0  0  0  0  0  0  0  0
    2.3100    0.7401    0.0000 H   0  0  0  0  0  0  0  0  0  0  0  0
    6.5252   -1.1833    0.0000 H   0  0  0  0  0  0  0  0  0  0  0  0
    9.3054   -1.5917    0.0000 H   0  0  0  0  0  0  0  0  0  0  0  0
    5.5301    0.0865    0.0000 H   0  0  0  0  0  0  0  0  0  0  0  0
    3.1602   -1.4237    0.0000 H   0  0  0  0  0  0  0  0  0  0  0  0
    9.0697   -3.1969    0.0000 H   0  0  0  0  0  0  0  0  0  0  0  0
    6.4020   -1.2817    0.0000 H   0  0  0  0  0  0  0  0  0  0  0  0
    4.0321   -2.7919    0.0000 H   0  0  0  0  0  0  0  0  0  0  0  0
   11.3199    4.2906    0.0000 H   0  0  0  0  0  0  0  0  0  0  0  0
   10.6999    4.9106    0.0000 H   0  0  0  0  0  0  0  0  0  0  0  0
   10.0799    4.2906    0.0000 H   0  0  0  0  0  0  0  0  0  0  0  0
    8.8734    4.0978    0.0000 H   0  0  0  0  0  0  0  0  0  0  0  0
    8.7969    4.9713    0.0000 H   0  0  0  0  0  0  0  0  0  0  0  0
    7.9234    4.8949    0.0000 H   0  0  0  0  0  0  0  0  0  0  0  0
   10.1418    4.2549    0.0000 H   0  0  0  0  0  0  0  0  0  0  0  0
   10.3687    5.1018    0.0000 H   0  0  0  0  0  0  0  0  0  0  0  0
    9.5218    5.3287    0.0000 H   0  0  0  0  0  0  0  0  0  0  0  0
    6.4987    4.8848    0.0000 H   0  0  0  0  0  0  0  0  0  0  0  0
    5.6247    4.9555    0.0000 H   0  0  0  0  0  0  0  0  0  0  0  0
    5.5541    4.0815    0.0000 H   0  0  0  0  0  0  0  0  0  0  0  0
    7.9059   -5.2780    0.0000 H   0  0  0  0  0  0  0  0  0  0  0  0
    8.7768   -5.1765    0.0000 H   0  0  0  0  0  0  0  0  0  0  0  0
    8.6754   -4.3056    0.0000 H   0  0  0  0  0  0  0  0  0  0  0  0
  1 21  1  0  0  0  0
  1 28  1  0  0  0  0
  2 23  1  0  0  0  0
  2 44  1  0  0  0  0
  3 27  1  0  0  0  0
  3 45  1  0  0  0  0
  4 29  1  0  0  0  0
  4 46  1  0  0  0  0
  5 32  1  0  0  0  0
  5 47  1  0  0  0  0
  6 38  1  0  0  0  0
  6 41  1  0  0  0  0
  7 40  1  0  0  0  0
  7 48  1  0  0  0  0
  8 10  1  0  0  0  0
  8 14  1  0  0  0  0
  8 24  1  0  0  0  0
  9 12  1  0  0  0  0
  9 18  1  0  0  0  0
  9 31  1  0  0  0  0
 10 11  1  0  0  0  0
 10 16  1  0  0  0  0
 10 49  1  6  0  0  0
 11 13  2  0  0  0  0
 11 21  1  0  0  0  0
 12 17  1  0  0  0  0
 12 22  1  0  0  0  0
 12 50  1  1  0  0  0
 13 15  1  0  0  0  0
 13 23  1  0  0  0  0
 14 15  1  0  0  0  0
 14 51  1  0  0  0  0
 14 52  1  0  0  0  0
 15 53  1  0  0  0  0
 15 54  1  0  0  0  0
 16 26  1  0  0  0  0
 16 55  1  0  0  0  0
 16 56  1  0  0  0  0
 17 19  1  0  0  0  0
 17 25  2  0  0  0  0
 18 20  1  0  0  0  0
 18 57  1  0  0  0  0
 18 58  1  0  0  0  0
 19 20  1  0  0  0  0
 19 30  2  0  0  0  0
 20 59  1  0  0  0  0
 20 60  1  0  0  0  0
 21 27  2  0  0  0  0
 22 33  1  0  0  0  0
 22 61  1  0  0  0  0
 22 62  1  0  0  0  0
 23 29  2  0  0  0  0
 24 63  1  0  0  0  0
 24 64  1  0  0  0  0
 24 65  1  0  0  0  0
 25 28  1  0  0  0  0
 25 66  1  0  0  0  0
 26 34  2  0  0  0  0
 26 35  1  0  0  0  0
 27 29  1  0  0  0  0
 28 32  2  0  0  0  0
 30 32  1  0  0  0  0
 30 67  1  0  0  0  0
 31 68  1  0  0  0  0
 31 69  1  0  0  0  0
 31 70  1  0  0  0  0
 33 36  2  0  0  0  0
 33 37  1  0  0  0  0
 34 38  1  0  0  0  0
 34 71  1  0  0  0  0
 35 39  2  0  0  0  0
 35 72  1  0  0  0  0
 36 42  1  0  0  0  0
 36 73  1  0  0  0  0
 37 43  2  0  0  0  0
 37 74  1  0  0  0  0
 38 40  2  0  0  0  0
 39 40  1  0  0  0  0
 39 75  1  0  0  0  0
 41 42  2  0  0  0  0
 41 43  1  0  0  0  0
 42 76  1  0  0  0  0
 43 77  1  0  0  0  0
 44 78  1  0  0  0  0
 44 79  1  0  0  0  0
 44 80  1  0  0  0  0
 45 81  1  0  0  0  0
 45 82  1  0  0  0  0
 45 83  1  0  0  0  0
 46 84  1  0  0  0  0
 46 85  1  0  0  0  0
 46 86  1  0  0  0  0
 47 87  1  0  0  0  0
 47 88  1  0  0  0  0
 47 89  1  0  0  0  0
 48 90  1  0  0  0  0
 48 91  1  0  0  0  0
 48 92  1  0  0  0  0
M  END
> <PUBCHEM_COMPOUND_CID>
72343

> <PUBCHEM_COMPOUND_CANONICALIZED>
1

> <PUBCHEM_CACTVS_COMPLEXITY>
1030

> <PUBCHEM_CACTVS_HBOND_ACCEPTOR>
9

> <PUBCHEM_CACTVS_HBOND_DONOR>
0

> <PUBCHEM_CACTVS_ROTATABLE_BOND>
5

> <PUBCHEM_CACTVS_SUBSKEYS>
AAADcfB/OAAAAAAAAAAAAAAAAAAAAAAAAAA8eMGCAAAAAACxVAAAHgAAAAAADCzBmAYyBoMABACAAiBCAACCCAAgIAAIiAAOjIgNJyKEsRuGOCrnwBWKqAfw8P8OoQABCAAYQABCAAIQADCAAAAAAAAAAA==

> <PUBCHEM_IUPAC_INCHI>
InChI=1S/C39H44N2O7/c1-40-16-14-25-21-32(43-4)34-22-28(25)29(40)18-23-8-11-26(12-9-23)47-33-20-24(10-13-31(33)42-3)19-30-35-27(15-17-41(30)2)36(44-5)38(45-6)39(46-7)37(35)48-34/h8-13,20-22,29-30H,14-19H2,1-7H3/t29-,30-/m0/s1

> <PUBCHEM_IUPAC_INCHIKEY>
FUZMQNZACIFDBL-KYJUHHDHSA-N

> <PUBCHEM_XLOGP3_AA>
6.4

> <PUBCHEM_EXACT_MASS>
652.314852

> <PUBCHEM_MOLECULAR_FORMULA>
C39H44N2O7

> <PUBCHEM_MOLECULAR_WEIGHT>
652.77586

> <PUBCHEM_OPENEYE_CAN_SMILES>
CN1CCC2=CC(=C3C=C2C1CC4=CC=C(C=C4)OC5=C(C=CC(=C5)CC6C7=C(CCN6C)C(=C(C(=C7O3)OC)OC)OC)OC)OC

> <PUBCHEM_OPENEYE_ISO_SMILES>
CN1CCC2=CC(=C3C=C2[C@@H]1CC4=CC=C(C=C4)OC5=C(C=CC(=C5)C[C@H]6C7=C(CCN6C)C(=C(C(=C7O3)OC)OC)OC)OC)OC

> <PUBCHEM_CACTVS_TPSA>
71.1

> <PUBCHEM_MONOISOTOPIC_WEIGHT>
652.314852

> <PUBCHEM_TOTAL_CHARGE>
0

> <PUBCHEM_HEAVY_ATOM_COUNT>
48

> <PUBCHEM_ATOM_DEF_STEREO_COUNT>
2

> <PUBCHEM_ATOM_UDEF_STEREO_COUNT>
0

> <PUBCHEM_BOND_DEF_STEREO_COUNT>
0

> <PUBCHEM_BOND_UDEF_STEREO_COUNT>
0

> <PUBCHEM_ISOTOPIC_ATOM_COUNT>
0

> <PUBCHEM_COMPONENT_COUNT>
1

> <PUBCHEM_CACTVS_TAUTO_COUNT>
1

> <PUBCHEM_COORDINATE_TYPE>
1
5
255

> <PUBCHEM_BONDANNOTATIONS>
10  49  6
11  13  8
11  21  8
12  50  5
13  23  8
17  19  8
17  25  8
19  30  8
21  27  8
23  29  8
25  28  8
26  34  8
26  35  8
27  29  8
28  32  8
30  32  8
33  36  8
33  37  8
34  38  8
35  39  8
36  42  8
37  43  8
38  40  8
39  40  8
41  42  8
41  43  8

$$$$

