47205622
  -OEChem-06241222593D

 39 40  0     1  0  0  0  0  0999 V2000
    5.0406   -0.5111    0.1355 S   0  0  0  0  0  0  0  0  0  0  0  0
   -3.2589    2.0126    0.8041 O   0  0  0  0  0  0  0  0  0  0  0  0
   -1.4666    1.1964   -0.4240 N   0  0  0  0  0  0  0  0  0  0  0  0
   -2.3699   -1.8026    0.0802 N   0  0  0  0  0  0  0  0  0  0  0  0
   -1.7553   -2.3699   -0.9718 N   0  0  0  0  0  0  0  0  0  0  0  0
   -0.4639    2.0838    0.1178 C   0  0  1  0  0  0  0  0  0  0  0  0
    0.9045    1.4371    0.1226 C   0  0  0  0  0  0  0  0  0  0  0  0
   -3.6385    0.2220   -0.7844 C   0  0  0  0  0  0  0  0  0  0  0  0
   -3.7170   -1.1457   -0.1029 C   0  0  0  0  0  0  0  0  0  0  0  0
   -0.4805    3.4149   -0.6308 C   0  0  0  0  0  0  0  0  0  0  0  0
   -2.7958    1.2381   -0.0287 C   0  0  0  0  0  0  0  0  0  0  0  0
    1.5534    1.1859    1.3316 C   0  0  0  0  0  0  0  0  0  0  0  0
    1.5172    1.0937   -1.0824 C   0  0  0  0  0  0  0  0  0  0  0  0
    2.8151    0.5912    1.3355 C   0  0  0  0  0  0  0  0  0  0  0  0
    2.7789    0.4989   -1.0786 C   0  0  0  0  0  0  0  0  0  0  0  0
    3.4279    0.2478    0.1303 C   0  0  0  0  0  0  0  0  0  0  0  0
   -1.6660   -1.8944    1.2450 C   0  0  0  0  0  0  0  0  0  0  0  0
   -0.5109   -2.5690    0.9332 C   0  0  0  0  0  0  0  0  0  0  0  0
   -0.6202   -2.8362   -0.4446 C   0  0  0  0  0  0  0  0  0  0  0  0
    4.7059   -2.0937   -0.6877 C   0  0  0  0  0  0  0  0  0  0  0  0
   -0.7513    2.2997    1.1552 H   0  0  0  0  0  0  0  0  0  0  0  0
   -1.1904    0.5429   -1.1515 H   0  0  0  0  0  0  0  0  0  0  0  0
   -4.6483    0.6375   -0.8819 H   0  0  0  0  0  0  0  0  0  0  0  0
   -3.2474    0.1128   -1.8033 H   0  0  0  0  0  0  0  0  0  0  0  0
   -4.1417   -1.0645    0.9038 H   0  0  0  0  0  0  0  0  0  0  0  0
   -4.3130   -1.8552   -0.6865 H   0  0  0  0  0  0  0  0  0  0  0  0
   -0.2931    3.2857   -1.7028 H   0  0  0  0  0  0  0  0  0  0  0  0
   -1.4553    3.9058   -0.5329 H   0  0  0  0  0  0  0  0  0  0  0  0
    0.2801    4.0977   -0.2364 H   0  0  0  0  0  0  0  0  0  0  0  0
    1.0888    1.4468    2.2786 H   0  0  0  0  0  0  0  0  0  0  0  0
    1.0267    1.2784   -2.0342 H   0  0  0  0  0  0  0  0  0  0  0  0
    3.3052    0.4026    2.2875 H   0  0  0  0  0  0  0  0  0  0  0  0
    3.2395    0.2454   -2.0300 H   0  0  0  0  0  0  0  0  0  0  0  0
   -2.0331   -1.4808    2.1739 H   0  0  0  0  0  0  0  0  0  0  0  0
    0.2941   -2.8262    1.6056 H   0  0  0  0  0  0  0  0  0  0  0  0
    0.0810   -3.3498   -1.0865 H   0  0  0  0  0  0  0  0  0  0  0  0
    5.6104   -2.7072   -0.6648 H   0  0  0  0  0  0  0  0  0  0  0  0
    4.4211   -1.9352   -1.7309 H   0  0  0  0  0  0  0  0  0  0  0  0
    3.9062   -2.6302   -0.1697 H   0  0  0  0  0  0  0  0  0  0  0  0
  1 16  1  0  0  0  0
  1 20  1  0  0  0  0
  2 11  2  0  0  0  0
  3  6  1  0  0  0  0
  3 11  1  0  0  0  0
  3 22  1  0  0  0  0
  4  5  1  0  0  0  0
  4  9  1  0  0  0  0
  4 17  1  0  0  0  0
  5 19  2  0  0  0  0
  6  7  1  0  0  0  0
  6 10  1  0  0  0  0
  6 21  1  0  0  0  0
  7 12  2  0  0  0  0
  7 13  1  0  0  0  0
  8  9  1  0  0  0  0
  8 11  1  0  0  0  0
  8 23  1  0  0  0  0
  8 24  1  0  0  0  0
  9 25  1  0  0  0  0
  9 26  1  0  0  0  0
 10 27  1  0  0  0  0
 10 28  1  0  0  0  0
 10 29  1  0  0  0  0
 12 14  1  0  0  0  0
 12 30  1  0  0  0  0
 13 15  2  0  0  0  0
 13 31  1  0  0  0  0
 14 16  2  0  0  0  0
 14 32  1  0  0  0  0
 15 16  1  0  0  0  0
 15 33  1  0  0  0  0
 17 18  2  0  0  0  0
 17 34  1  0  0  0  0
 18 19  1  0  0  0  0
 18 35  1  0  0  0  0
 19 36  1  0  0  0  0
 20 37  1  0  0  0  0
 20 38  1  0  0  0  0
 20 39  1  0  0  0  0
M  END
> <PUBCHEM_COMPOUND_CID>
47205622

> <PUBCHEM_CONFORMER_RMSD>
0.8

> <PUBCHEM_CONFORMER_DIVERSEORDER>
1
268
52
8
269
256
202
258
6
189
101
195
56
239
199
155
215
31
103
113
107
122
120
138
128
12
62
7
58
121
295
245
209
149
97
9
98
243
294
146
85
246
296
213
236
61
206
292
200
244
73
86
274
212
83
4
194
35
237
255
161
264
110
92
21
45
223
219
267
159
232
130
133
53
153
203
220
166
177
99
283
23
287
247
90
230
106
126
137
226
22
123
221
19
115
68
266
167
225
154
129
173
95
60
112
108
293
165
186
204
279
143
162
5
71
250
26
134
118
93
281
15
59
79
119
135
89
11
18
235
40
242
163
75
273
253
51
278
36
74
147
78
175
28
262
285
111
216
42
127
282
30
286
13
217
275
91
150
160
276
263
182
2
24
260
125
33
197
3
117
191
233
218
96
190
94
63
184
238
84
180
170
136
289
141
100
171
265
291
124
183
210
234
105
27
139
88
156
187
158
44
196
214
10
172
151
142
148
192
77
104
50
181
198
205
140
48
257
174
231
102
211
249
55
131
67
65
20
132
272
248
229
66
168
188
176
81
57
70
288
25
277
76
144
145
54
185
254
290
49
179
46
38
252
14
280
80
114
39
41
224
29
251
201
222
178
157
32
164
270
64
69
152
16
169
72
87
82
227
207
193
271
43
259
240
284
34
116
37
17
228
109
47
241
208
261

> <PUBCHEM_MMFF94_PARTIAL_CHARGES>
27
1 -0.33
11 0.57
12 -0.15
13 -0.15
14 -0.15
15 -0.15
16 0.1
17 -0.3
18 -0.15
19 0.14
2 -0.57
20 0.23
22 0.37
3 -0.73
30 0.15
31 0.15
32 0.15
33 0.15
34 0.15
35 0.15
36 0.15
4 0.31
5 -0.71
6 0.44
7 -0.14
8 0.06
9 0.26

> <PUBCHEM_EFFECTIVE_ROTOR_COUNT>
7

> <PUBCHEM_PHARMACOPHORE_FEATURES>
6
1 2 acceptor
1 20 hydrophobe
1 3 donor
1 5 acceptor
5 4 5 17 18 19 rings
6 7 12 13 14 15 16 rings

> <PUBCHEM_HEAVY_ATOM_COUNT>
20

> <PUBCHEM_ATOM_DEF_STEREO_COUNT>
0

> <PUBCHEM_ATOM_UDEF_STEREO_COUNT>
1

> <PUBCHEM_BOND_DEF_STEREO_COUNT>
0

> <PUBCHEM_BOND_UDEF_STEREO_COUNT>
0

> <PUBCHEM_ISOTOPIC_ATOM_COUNT>
0

> <PUBCHEM_COMPONENT_COUNT>
1

> <PUBCHEM_CACTVS_TAUTO_COUNT>
2

> <PUBCHEM_CONFORMER_ID>
02D04CF600000001

> <PUBCHEM_MMFF94_ENERGY>
34.5369

> <PUBCHEM_FEATURE_SELFOVERLAP>
30.446

> <PUBCHEM_SHAPE_FINGERPRINT>
10759866 29 18057310696510939076
11458722 379 18340770428663523298
12553582 1 18051687737705436958
13402501 40 18261954149888116254
14081887 123 17901962845658190744
1420 336 18124602981231209739
14251740 79 18266732674893787682
14251745 187 18335988648631654690
14251751 93 18127977610050069006
14251757 5 18272073990759885838
15209289 33 18261674877844350480
16752209 62 18270697372020710987
17977361 122 18343311378613198762
18981168 100 7996325306852788713
20600515 1 18335975445755150044
20645476 183 17418381276811107459
20905425 154 18192997247111982543
21634736 98 18058446509102339804
23184049 29 17978796705538046289
232386 152 18198628739458188908
23559900 14 18408609145900772000
23598291 2 17775275050116098524
465052 167 17773571864430142489
574716 61 17130686328742063670
602551 16 18410017663039650928
6138700 20 18411703222686096655
81228 2 18268438936002772289
8809292 202 18335702767039532220

> <PUBCHEM_SHAPE_MULTIPOLES>
394.63
7.87
3.62
1.2
5.94
0.43
-0.17
2.51
0.72
-1.81
0.22
0.33
0.05
0.37

> <PUBCHEM_SHAPE_SELFOVERLAP>
801.274

> <PUBCHEM_SHAPE_VOLUME>
232.4

> <PUBCHEM_COORDINATE_TYPE>
2
5
10

$$$$

