28598
  -OEChem-07051213053D

 33 37  0     0  0  0  0  0  0999 V2000
   -5.2765    1.6198    0.0000 O   0  0  0  0  0  0  0  0  0  0  0  0
    0.5831   -0.2649   -0.0001 C   0  0  0  0  0  0  0  0  0  0  0  0
    1.9549    0.1153   -0.0001 C   0  0  0  0  0  0  0  0  0  0  0  0
   -0.4470    0.7131   -0.0001 C   0  0  0  0  0  0  0  0  0  0  0  0
    0.2575   -1.6385   -0.0001 C   0  0  0  0  0  0  0  0  0  0  0  0
   -1.8226    0.2929   -0.0001 C   0  0  0  0  0  0  0  0  0  0  0  0
    2.3136    1.4806   -0.0001 C   0  0  0  0  0  0  0  0  0  0  0  0
    2.9738   -0.8685    0.0001 C   0  0  0  0  0  0  0  0  0  0  0  0
   -2.1208   -1.0924   -0.0002 C   0  0  0  0  0  0  0  0  0  0  0  0
   -1.0839   -2.0310   -0.0002 C   0  0  0  0  0  0  0  0  0  0  0  0
   -0.0402    2.0670    0.0000 C   0  0  0  0  0  0  0  0  0  0  0  0
    1.2777   -2.5993    0.0002 C   0  0  0  0  0  0  0  0  0  0  0  0
    1.3053    2.4438   -0.0001 C   0  0  0  0  0  0  0  0  0  0  0  0
    2.6186   -2.2202    0.0002 C   0  0  0  0  0  0  0  0  0  0  0  0
    3.6680    1.8466    0.0000 C   0  0  0  0  0  0  0  0  0  0  0  0
    4.3202   -0.4755    0.0001 C   0  0  0  0  0  0  0  0  0  0  0  0
   -2.9283    1.1812    0.0001 C   0  0  0  0  0  0  0  0  0  0  0  0
   -3.4547   -1.5368   -0.0001 C   0  0  0  0  0  0  0  0  0  0  0  0
    4.6641    0.8739    0.0001 C   0  0  0  0  0  0  0  0  0  0  0  0
   -4.2497    0.7266    0.0003 C   0  0  0  0  0  0  0  0  0  0  0  0
   -4.5131   -0.6338    0.0002 C   0  0  0  0  0  0  0  0  0  0  0  0
   -1.3261   -3.0944   -0.0002 H   0  0  0  0  0  0  0  0  0  0  0  0
   -0.7686    2.8740    0.0000 H   0  0  0  0  0  0  0  0  0  0  0  0
    1.0383   -3.6611    0.0003 H   0  0  0  0  0  0  0  0  0  0  0  0
    1.5501    3.5041    0.0000 H   0  0  0  0  0  0  0  0  0  0  0  0
    3.3819   -2.9955    0.0002 H   0  0  0  0  0  0  0  0  0  0  0  0
    3.9589    2.8950    0.0000 H   0  0  0  0  0  0  0  0  0  0  0  0
    5.1148   -1.2187    0.0002 H   0  0  0  0  0  0  0  0  0  0  0  0
   -2.7772    2.2581    0.0001 H   0  0  0  0  0  0  0  0  0  0  0  0
   -3.6827   -2.6013   -0.0002 H   0  0  0  0  0  0  0  0  0  0  0  0
    5.7098    1.1675    0.0001 H   0  0  0  0  0  0  0  0  0  0  0  0
   -5.5334   -1.0065    0.0002 H   0  0  0  0  0  0  0  0  0  0  0  0
   -6.1185    1.1329    0.0000 H   0  0  0  0  0  0  0  0  0  0  0  0
  1 20  1  0  0  0  0
  1 33  1  0  0  0  0
  2  3  1  0  0  0  0
  2  4  1  0  0  0  0
  2  5  2  0  0  0  0
  3  7  1  0  0  0  0
  3  8  2  0  0  0  0
  4  6  2  0  0  0  0
  4 11  1  0  0  0  0
  5 10  1  0  0  0  0
  5 12  1  0  0  0  0
  6  9  1  0  0  0  0
  6 17  1  0  0  0  0
  7 13  1  0  0  0  0
  7 15  2  0  0  0  0
  8 14  1  0  0  0  0
  8 16  1  0  0  0  0
  9 10  2  0  0  0  0
  9 18  1  0  0  0  0
 10 22  1  0  0  0  0
 11 13  2  0  0  0  0
 11 23  1  0  0  0  0
 12 14  2  0  0  0  0
 12 24  1  0  0  0  0
 13 25  1  0  0  0  0
 14 26  1  0  0  0  0
 15 19  1  0  0  0  0
 15 27  1  0  0  0  0
 16 19  2  0  0  0  0
 16 28  1  0  0  0  0
 17 20  2  0  0  0  0
 17 29  1  0  0  0  0
 18 21  2  0  0  0  0
 18 30  1  0  0  0  0
 19 31  1  0  0  0  0
 20 21  1  0  0  0  0
 21 32  1  0  0  0  0
M  END
> <PUBCHEM_COMPOUND_CID>
28598

> <PUBCHEM_CONFORMER_RMSD>
0.6

> <PUBCHEM_CONFORMER_DIVERSEORDER>
1

> <PUBCHEM_MMFF94_PARTIAL_CHARGES>
25
1 -0.53
10 -0.15
11 -0.15
12 -0.15
13 -0.15
14 -0.15
15 -0.15
16 -0.15
17 -0.15
18 -0.15
19 -0.15
20 0.08
21 -0.15
22 0.15
23 0.15
24 0.15
25 0.15
26 0.15
27 0.15
28 0.15
29 0.15
30 0.15
31 0.15
32 0.15
33 0.45

> <PUBCHEM_EFFECTIVE_ROTOR_COUNT>
0

> <PUBCHEM_PHARMACOPHORE_FEATURES>
6
1 1 donor
6 2 3 4 7 11 13 rings
6 2 3 5 8 12 14 rings
6 2 4 5 6 9 10 rings
6 3 7 8 15 16 19 rings
6 6 9 17 18 20 21 rings

> <PUBCHEM_HEAVY_ATOM_COUNT>
21

> <PUBCHEM_ATOM_DEF_STEREO_COUNT>
0

> <PUBCHEM_ATOM_UDEF_STEREO_COUNT>
0

> <PUBCHEM_BOND_DEF_STEREO_COUNT>
0

> <PUBCHEM_BOND_UDEF_STEREO_COUNT>
0

> <PUBCHEM_ISOTOPIC_ATOM_COUNT>
0

> <PUBCHEM_COMPONENT_COUNT>
1

> <PUBCHEM_CACTVS_TAUTO_COUNT>
3

> <PUBCHEM_CONFORMER_ID>
00006FB600000001

> <PUBCHEM_MMFF94_ENERGY>
76.4154

> <PUBCHEM_FEATURE_SELFOVERLAP>
30.598

> <PUBCHEM_SHAPE_FINGERPRINT>
10411042 1 17473825512173731879
10616163 171 18337952268871881199
10906281 52 18270101466852046168
10967382 1 18410574002653138662
11471102 20 18410577296602897982
11578080 2 13828121743508780724
12011746 2 18409725188435216102
12107183 9 17687178004106653601
12236239 1 17749391490284305673
12644460 14 18272086153447670978
12838862 33 18338254712142707456
13132413 78 18408603647471928837
13140716 1 18339369569735617994
138480 1 18050286174129588518
13862211 1 18410860966756672954
14178342 30 17832162527959809730
14790565 3 18196646303199061748
15196674 1 18410856546776064646
15442244 35 18265331888057192531
15536298 74 18334575750193194862
1601671 61 18411418414635234124
16945 1 18266742574503118082
17492 89 18408885114234167151
1813 80 17132113545736383132
19591789 44 18338516309535830166
19784866 9 18411139147060515976
200 152 18041001717845359927
20645477 70 18333730247194753367
20691752 17 17704078386440747139
20905425 154 18264768942683627262
21267235 1 18410283705608230990
21279426 13 18337951302503772276
21421861 104 17915748776045021474
21452121 103 18261684671108322512
221490 88 18412818075668171475
23227448 37 18335702689508867567
2334 1 18266458707356055210
23402539 116 18261681397989522502
23559900 14 18335703883899951158
25 1 18413111649403867286
2748010 2 18338794495084335950
335352 9 18410856598811577278
34934 24 18409735070796436638
350125 39 18411983585703932416
3545911 37 18410854361107274353
3680242 22 18270684285034016082
4214541 1 18410573976999567809
474 4 18202281364240344317
495365 180 17458920249115831632
5104073 3 18411982446740930499
543358 83 18337387248538033731
6138700 20 18411133680427406750
7364860 26 18336263526427822294
7832392 63 18336551529580723598
8272917 22 18335979869422953175
9709674 26 18410849941259385887
9981440 41 17187570438351473640

> <PUBCHEM_SHAPE_MULTIPOLES>
426.3
8.84
2.76
0.61
4.35
0.32
0
-2.12
0
-0.78
0
-0.02
0.01
0

> <PUBCHEM_SHAPE_SELFOVERLAP>
1004.684

> <PUBCHEM_SHAPE_VOLUME>
216

> <PUBCHEM_COORDINATE_TYPE>
2
5
10

$$$$

