443590
  -OEChem-07051213023D

 56 64  0     1  0  0  0  0  0999 V2000
   -1.3251    6.0103   -0.5926 S   0  0  0  0  0  0  0  0  0  0  0  0
   -4.7494    2.8586    0.2833 O   0  0  0  0  0  0  0  0  0  0  0  0
   -5.1384   -1.4602   -0.0840 O   0  0  0  0  0  0  0  0  0  0  0  0
    3.1359    4.9855   -0.3127 O   0  0  0  0  0  0  0  0  0  0  0  0
   -2.4831   -4.9583   -0.1672 O   0  0  0  0  0  0  0  0  0  0  0  0
    5.7989    1.5606   -0.0437 O   0  0  0  0  0  0  0  0  0  0  0  0
    1.8963   -5.5610   -0.0644 O   0  0  0  0  0  0  0  0  0  0  0  0
    5.3545   -2.8074    0.0323 O   0  0  0  0  0  0  0  0  0  0  0  0
   -1.1499    3.6636    0.5264 N   0  0  0  0  0  0  0  0  0  0  0  0
   -2.9363    1.5154    0.1878 N   0  0  0  0  0  0  0  0  0  0  0  0
   -2.8978   -1.2809    0.0047 N   0  0  0  0  0  0  0  0  0  0  0  0
    1.6327    3.3857    0.1778 N   0  0  0  0  0  0  0  0  0  0  0  0
   -1.0038   -3.2729   -0.0174 N   0  0  0  0  0  0  0  0  0  0  0  0
    3.5650    1.3505    0.1487 N   0  0  0  0  0  0  0  0  0  0  0  0
    1.7042   -3.3259    0.0686 N   0  0  0  0  0  0  0  0  0  0  0  0
    3.6055   -1.3977    0.1441 N   0  0  0  0  0  0  0  0  0  0  0  0
   -2.5959    4.0007    0.4881 C   0  0  1  0  0  0  0  0  0  0  0  0
   -2.8368    5.0160   -0.6278 C   0  0  0  0  0  0  0  0  0  0  0  0
   -3.3826    2.7496    0.3001 C   0  0  0  0  0  0  0  0  0  0  0  0
   -0.4629    4.6432    0.0392 C   0  0  0  0  0  0  0  0  0  0  0  0
   -4.0779    0.7577    0.1007 C   0  0  0  0  0  0  0  0  0  0  0  0
   -5.1837    1.5684    0.1487 C   0  0  0  0  0  0  0  0  0  0  0  0
   -4.0438   -0.6290    0.0034 C   0  0  0  0  0  0  0  0  0  0  0  0
    0.9679    4.5724   -0.0363 C   0  0  0  0  0  0  0  0  0  0  0  0
   -3.2462   -2.6047   -0.0774 C   0  0  0  0  0  0  0  0  0  0  0  0
   -6.6368    1.3653    0.1050 C   0  0  0  0  0  0  0  0  0  0  0  0
   -4.6094   -2.7236   -0.1352 C   0  0  0  0  0  0  0  0  0  0  0  0
    1.8927    5.5486   -0.3283 C   0  0  0  0  0  0  0  0  0  0  0  0
   -2.2774   -3.5998   -0.0885 C   0  0  0  0  0  0  0  0  0  0  0  0
    2.9090    3.6638   -0.0192 C   0  0  0  0  0  0  0  0  0  0  0  0
   -5.5629   -3.8351   -0.2297 C   0  0  0  0  0  0  0  0  0  0  0  0
    3.8843    2.6740    0.0245 C   0  0  0  0  0  0  0  0  0  0  0  0
   -0.3283   -4.4621   -0.0551 C   0  0  0  0  0  0  0  0  0  0  0  0
    1.0591   -4.4713   -0.0134 C   0  0  0  0  0  0  0  0  0  0  0  0
    4.7219    0.7160    0.0826 C   0  0  0  0  0  0  0  0  0  0  0  0
   -1.2195   -5.4982   -0.1453 C   0  0  0  0  0  0  0  0  0  0  0  0
    4.7610   -0.6724    0.0989 C   0  0  0  0  0  0  0  0  0  0  0  0
    3.0283   -3.6592    0.0530 C   0  0  0  0  0  0  0  0  0  0  0  0
    5.2446    2.8132   -0.0842 C   0  0  0  0  0  0  0  0  0  0  0  0
    3.9894   -2.6581    0.0858 C   0  0  0  0  0  0  0  0  0  0  0  0
    3.1606   -5.0209   -0.0215 C   0  0  0  0  0  0  0  0  0  0  0  0
    5.8364   -1.5207    0.0400 C   0  0  0  0  0  0  0  0  0  0  0  0
   -2.8687    4.4320    1.4610 H   0  0  0  0  0  0  0  0  0  0  0  0
   -2.9226    4.5381   -1.6098 H   0  0  0  0  0  0  0  0  0  0  0  0
   -3.7280    5.6252   -0.4517 H   0  0  0  0  0  0  0  0  0  0  0  0
   -7.1764    2.3166    0.1478 H   0  0  0  0  0  0  0  0  0  0  0  0
   -6.9267    0.8564   -0.8195 H   0  0  0  0  0  0  0  0  0  0  0  0
   -6.9651    0.7540    0.9514 H   0  0  0  0  0  0  0  0  0  0  0  0
    1.8541    6.6026   -0.5603 H   0  0  0  0  0  0  0  0  0  0  0  0
   -6.5964   -3.4758   -0.2595 H   0  0  0  0  0  0  0  0  0  0  0  0
   -5.3837   -4.4193   -1.1376 H   0  0  0  0  0  0  0  0  0  0  0  0
   -5.4631   -4.5014    0.6326 H   0  0  0  0  0  0  0  0  0  0  0  0
   -1.1597   -6.5749   -0.2029 H   0  0  0  0  0  0  0  0  0  0  0  0
    5.9339    3.6363   -0.2015 H   0  0  0  0  0  0  0  0  0  0  0  0
    3.9801   -5.7229   -0.0619 H   0  0  0  0  0  0  0  0  0  0  0  0
    6.9097   -1.4138   -0.0127 H   0  0  0  0  0  0  0  0  0  0  0  0
  1 18  1  0  0  0  0
  1 20  1  0  0  0  0
  2 19  1  0  0  0  0
  2 22  1  0  0  0  0
  3 23  1  0  0  0  0
  3 27  1  0  0  0  0
  4 28  1  0  0  0  0
  4 30  1  0  0  0  0
  5 29  1  0  0  0  0
  5 36  1  0  0  0  0
  6 35  1  0  0  0  0
  6 39  1  0  0  0  0
  7 34  1  0  0  0  0
  7 41  1  0  0  0  0
  8 40  1  0  0  0  0
  8 42  1  0  0  0  0
  9 17  1  0  0  0  0
  9 20  2  0  0  0  0
 10 19  2  0  0  0  0
 10 21  1  0  0  0  0
 11 23  2  0  0  0  0
 11 25  1  0  0  0  0
 12 24  1  0  0  0  0
 12 30  2  0  0  0  0
 13 29  2  0  0  0  0
 13 33  1  0  0  0  0
 14 32  1  0  0  0  0
 14 35  2  0  0  0  0
 15 34  2  0  0  0  0
 15 38  1  0  0  0  0
 16 37  1  0  0  0  0
 16 40  2  0  0  0  0
 17 18  1  0  0  0  0
 17 19  1  0  0  0  0
 17 43  1  0  0  0  0
 18 44  1  0  0  0  0
 18 45  1  0  0  0  0
 20 24  1  0  0  0  0
 21 22  2  0  0  0  0
 21 23  1  0  0  0  0
 22 26  1  0  0  0  0
 24 28  2  0  0  0  0
 25 27  2  0  0  0  0
 25 29  1  0  0  0  0
 26 46  1  0  0  0  0
 26 47  1  0  0  0  0
 26 48  1  0  0  0  0
 27 31  1  0  0  0  0
 28 49  1  0  0  0  0
 30 32  1  0  0  0  0
 31 50  1  0  0  0  0
 31 51  1  0  0  0  0
 31 52  1  0  0  0  0
 32 39  2  0  0  0  0
 33 34  1  0  0  0  0
 33 36  2  0  0  0  0
 35 37  1  0  0  0  0
 36 53  1  0  0  0  0
 37 42  2  0  0  0  0
 38 40  1  0  0  0  0
 38 41  2  0  0  0  0
 39 54  1  0  0  0  0
 41 55  1  0  0  0  0
 42 56  1  0  0  0  0
M  END
> <PUBCHEM_COMPOUND_CID>
443590

> <PUBCHEM_CONFORMER_RMSD>
0.8

> <PUBCHEM_CONFORMER_DIVERSEORDER>
1

> <PUBCHEM_MMFF94_PARTIAL_CHARGES>
47
1 -0.37
10 -0.57
11 -0.57
12 -0.57
13 -0.57
14 -0.57
15 -0.57
16 -0.57
17 0.43
18 0.23
19 0.3
2 -0.28
20 0.68
21 0.23
22 -0.04
23 0.48
24 0.14
25 0.23
26 0.18
27 -0.04
28 -0.01
29 0.48
3 -0.28
30 0.48
31 0.18
32 0.23
33 0.23
34 0.48
35 0.48
36 -0.01
37 0.23
38 0.23
39 -0.01
4 -0.28
40 0.48
41 -0.01
42 -0.01
49 0.15
5 -0.28
53 0.15
54 0.15
55 0.15
56 0.15
6 -0.28
7 -0.28
8 -0.28
9 -0.7

> <PUBCHEM_EFFECTIVE_ROTOR_COUNT>
0.4

> <PUBCHEM_PHARMACOPHORE_FEATURES>
9
1 9 acceptor
5 1 9 17 18 20 rings
5 2 10 19 21 22 rings
5 3 11 23 25 27 rings
5 4 12 24 28 30 rings
5 5 13 29 33 36 rings
5 6 14 32 35 39 rings
5 7 15 34 38 41 rings
5 8 16 37 40 42 rings

> <PUBCHEM_HEAVY_ATOM_COUNT>
42

> <PUBCHEM_ATOM_DEF_STEREO_COUNT>
0

> <PUBCHEM_ATOM_UDEF_STEREO_COUNT>
1

> <PUBCHEM_BOND_DEF_STEREO_COUNT>
0

> <PUBCHEM_BOND_UDEF_STEREO_COUNT>
0

> <PUBCHEM_ISOTOPIC_ATOM_COUNT>
0

> <PUBCHEM_COMPONENT_COUNT>
1

> <PUBCHEM_CACTVS_TAUTO_COUNT>
1

> <PUBCHEM_CONFORMER_ID>
0006C4C600000001

> <PUBCHEM_MMFF94_ENERGY>
37.8597

> <PUBCHEM_FEATURE_SELFOVERLAP>
45.67

> <PUBCHEM_SHAPE_FINGERPRINT>
10075450 59 18117252836395002223
10439779 11 18338526214468750466
10677394 353 18053395568298398562
10908659 184 18198061584784305977
11146346 40 17685813175644551647
11331860 1 18194401087179097344
12173638 102 16623491797832326221
12173638 105 17903336137074669011
12173638 108 17176600655030990503
13347071 3 17831866016466840530
1361 2 18410575127903149488
13617811 41 18193573185521702259
144659 178 18411695478828290164
14615647 1 18337942477179455150
15001296 14 18412546543498092034
15320291 9 18265903638366954802
15320467 1 18410573967976856704
15569901 51 18410292510454451891
15721738 15 17399270472009266015
15781502 409 18265317569374654934
19301676 85 18411987996635254789
325973 47 18338796698038523018
54131252 217 17108821492210273189

> <PUBCHEM_SHAPE_MULTIPOLES>
787.26
13.78
12.94
0.64
0.59
1.47
-0.01
-1.52
0.38
0.24
-1.34
-0.12
0.2
-0.44

> <PUBCHEM_SHAPE_SELFOVERLAP>
1817.122

> <PUBCHEM_SHAPE_VOLUME>
409.9

> <PUBCHEM_COORDINATE_TYPE>
2
5
10

$$$$

