5315468
  -OEChem-07051213153D

 39 39  0     1  0  0  0  0  0999 V2000
    1.3091    0.6460   -0.4321 C   0  0  1  0  0  0  0  0  0  0  0  0
    2.1586    1.0634    0.7738 C   0  0  0  0  0  0  0  0  0  0  0  0
    1.4354   -0.8681   -0.6706 C   0  0  0  0  0  0  0  0  0  0  0  0
    3.6344    0.7099    0.5629 C   0  0  0  0  0  0  0  0  0  0  0  0
   -0.1254    1.0408   -0.2495 C   0  0  0  0  0  0  0  0  0  0  0  0
    3.8506   -0.6644   -0.0181 C   0  0  0  0  0  0  0  0  0  0  0  0
    2.8446   -1.3731   -0.5580 C   0  0  0  0  0  0  0  0  0  0  0  0
   -0.8435    0.5382    0.7730 C   0  0  0  0  0  0  0  0  0  0  0  0
   -0.6325    2.0109   -1.2781 C   0  0  0  0  0  0  0  0  0  0  0  0
    5.2530   -1.1938    0.0391 C   0  0  0  0  0  0  0  0  0  0  0  0
   -2.2832    0.8002    1.1159 C   0  0  0  0  0  0  0  0  0  0  0  0
   -3.1233   -0.4325    0.9319 C   0  0  0  0  0  0  0  0  0  0  0  0
   -4.0949   -0.6494    0.0249 C   0  0  0  0  0  0  0  0  0  0  0  0
   -4.8191   -1.9693   -0.0127 C   0  0  0  0  0  0  0  0  0  0  0  0
   -4.5638    0.3411   -1.0025 C   0  0  0  0  0  0  0  0  0  0  0  0
    1.7184    1.1582   -1.3151 H   0  0  0  0  0  0  0  0  0  0  0  0
    1.8143    0.5644    1.6892 H   0  0  0  0  0  0  0  0  0  0  0  0
    2.0707    2.1423    0.9541 H   0  0  0  0  0  0  0  0  0  0  0  0
    1.0613   -1.0991   -1.6764 H   0  0  0  0  0  0  0  0  0  0  0  0
    0.8276   -1.4553    0.0276 H   0  0  0  0  0  0  0  0  0  0  0  0
    4.1507    0.7928    1.5268 H   0  0  0  0  0  0  0  0  0  0  0  0
    4.0911    1.4463   -0.1103 H   0  0  0  0  0  0  0  0  0  0  0  0
    3.0344   -2.3691   -0.9499 H   0  0  0  0  0  0  0  0  0  0  0  0
   -0.3573   -0.1508    1.4628 H   0  0  0  0  0  0  0  0  0  0  0  0
   -1.6835    2.2754   -1.1503 H   0  0  0  0  0  0  0  0  0  0  0  0
   -0.0543    2.9402   -1.2365 H   0  0  0  0  0  0  0  0  0  0  0  0
   -0.5286    1.5835   -2.2812 H   0  0  0  0  0  0  0  0  0  0  0  0
    5.3388   -2.1868   -0.4146 H   0  0  0  0  0  0  0  0  0  0  0  0
    5.5875   -1.2721    1.0786 H   0  0  0  0  0  0  0  0  0  0  0  0
    5.9331   -0.5231   -0.4959 H   0  0  0  0  0  0  0  0  0  0  0  0
   -2.3299    1.0831    2.1756 H   0  0  0  0  0  0  0  0  0  0  0  0
   -2.6865    1.6614    0.5826 H   0  0  0  0  0  0  0  0  0  0  0  0
   -2.8899   -1.2390    1.6273 H   0  0  0  0  0  0  0  0  0  0  0  0
   -4.4582   -2.6665    0.7509 H   0  0  0  0  0  0  0  0  0  0  0  0
   -5.8905   -1.8186    0.1558 H   0  0  0  0  0  0  0  0  0  0  0  0
   -4.6841   -2.4476   -0.9884 H   0  0  0  0  0  0  0  0  0  0  0  0
   -4.4547   -0.0815   -2.0071 H   0  0  0  0  0  0  0  0  0  0  0  0
   -4.0130    1.2829   -0.9893 H   0  0  0  0  0  0  0  0  0  0  0  0
   -5.6212    0.5764   -0.8420 H   0  0  0  0  0  0  0  0  0  0  0  0
  1  2  1  0  0  0  0
  1  3  1  0  0  0  0
  1  5  1  0  0  0  0
  1 16  1  0  0  0  0
  2  4  1  0  0  0  0
  2 17  1  0  0  0  0
  2 18  1  0  0  0  0
  3  7  1  0  0  0  0
  3 19  1  0  0  0  0
  3 20  1  0  0  0  0
  4  6  1  0  0  0  0
  4 21  1  0  0  0  0
  4 22  1  0  0  0  0
  5  8  2  0  0  0  0
  5  9  1  0  0  0  0
  6  7  2  0  0  0  0
  6 10  1  0  0  0  0
  7 23  1  0  0  0  0
  8 11  1  0  0  0  0
  8 24  1  0  0  0  0
  9 25  1  0  0  0  0
  9 26  1  0  0  0  0
  9 27  1  0  0  0  0
 10 28  1  0  0  0  0
 10 29  1  0  0  0  0
 10 30  1  0  0  0  0
 11 12  1  0  0  0  0
 11 31  1  0  0  0  0
 11 32  1  0  0  0  0
 12 13  2  0  0  0  0
 12 33  1  0  0  0  0
 13 14  1  0  0  0  0
 13 15  1  0  0  0  0
 14 34  1  0  0  0  0
 14 35  1  0  0  0  0
 14 36  1  0  0  0  0
 15 37  1  0  0  0  0
 15 38  1  0  0  0  0
 15 39  1  0  0  0  0
M  END
> <PUBCHEM_COMPOUND_CID>
5315468

> <PUBCHEM_CONFORMER_RMSD>
0.6

> <PUBCHEM_CONFORMER_DIVERSEORDER>
5
43
170
144
27
196
137
187
36
65
164
82
173
121
200
148
19
194
89
37
190
142
159
113
31
120
101
28
178
134
169
10
122
147
60
14
38
17
177
15
162
140
193
179
78
91
42
88
58
95
115
149
24
53
50
23
4
64
132
85
119
80
16
161
191
44
129
141
165
72
118
13
139
74
207
30
172
151
51
117
29
125
154
143
124
180
35
175
183
75
150
111
166
102
76
202
71
87
93
112
182
73
33
198
77
81
126
34
96
203
52
156
46
68
108
49
152
127
21
163
48
107
56
110
99
12
158
25
174
204
45
86
109
39
153
167
105
32
189
6
205
106
100
92
130
114
47
7
128
11
184
26
185
188
192
70
133
138
98
83
195
69
208
63
57
55
155
103
136
131
8
199
20
2
157
123
3
181
59
94
197
61
146
97
41
18
79
1
206
201
67
176
160
104
9
90
171
186
40
66
145
22
116
135
168
84
62
54

> <PUBCHEM_MMFF94_PARTIAL_CHARGES>
17
1 0.14
10 0.14
11 0.28
12 -0.29
13 -0.28
14 0.14
15 0.14
23 0.15
24 0.15
3 0.14
33 0.15
4 0.14
5 -0.28
6 -0.28
7 -0.29
8 -0.29
9 0.14

> <PUBCHEM_EFFECTIVE_ROTOR_COUNT>
3.8

> <PUBCHEM_PHARMACOPHORE_FEATURES>
3
1 9 hydrophobe
3 13 14 15 hydrophobe
6 1 2 3 4 6 7 rings

> <PUBCHEM_HEAVY_ATOM_COUNT>
15

> <PUBCHEM_ATOM_DEF_STEREO_COUNT>
0

> <PUBCHEM_ATOM_UDEF_STEREO_COUNT>
1

> <PUBCHEM_BOND_DEF_STEREO_COUNT>
1

> <PUBCHEM_BOND_UDEF_STEREO_COUNT>
0

> <PUBCHEM_ISOTOPIC_ATOM_COUNT>
0

> <PUBCHEM_COMPONENT_COUNT>
1

> <PUBCHEM_CACTVS_TAUTO_COUNT>
1

> <PUBCHEM_CONFORMER_ID>
00511B8C00000005

> <PUBCHEM_MMFF94_ENERGY>
14.651

> <PUBCHEM_FEATURE_SELFOVERLAP>
15.223

> <PUBCHEM_SHAPE_FINGERPRINT>
100836 57 9079113367033621282
10922049 32 8790886293769886261
11046707 91 18410570716718281730
11806522 49 18335135371441421379
122479 349 8430306944134384880
12251169 10 17675926503845260862
12633257 1 15502654858851974195
12670543 26 11671780507867235490
13583140 156 16516255157274185841
14178000 29 18271804588308373213
1420 369 18261384512818320851
14341114 328 16081361917447215051
14943859 89 10087640398947252593
15239154 128 11167941355362748099
15848700 24 18060422395552431276
16752209 62 16845300465858567185
17834072 14 18272934903631441525
17862501 102 17894630361499500682
18186145 218 15410890726319750397
18222031 100 18343019982625855684
19050596 39 17530955895765232633
193927 3 18336249177047737331
19862831 5 15626218022377428656
200 152 18041003959586342233
20112054 13 7709461628070363963
20281475 54 18411690006728653396
20374829 77 18273218616206881715
20645477 56 6483060839542697368
20645477 70 18342175527166625178
20671657 53 18342168939161968981
20871999 31 17346313851561598356
21501925 9 18259982682341557128
21503847 285 9511196143681843299
22079108 93 17313678057706118866
22485316 2 18413389851800017259
231179 274 9511191724276462395
23402539 116 17632576088877305084
23500284 214 7637394125268713988
23557571 272 18271810184614129108
23559900 14 18335146362426639273
25 1 9583519798074667776
251288 83 18113330903913553118
26918003 58 18113618997577161819
276578 36 5472865830988198220
2871803 45 18201720695331581050
2916195 48 9223221932222485918
31174 14 18260274014659057184
3286 77 18187364329026401536
4047638 21 7853856092331874472
5104073 3 17894909650385350754
5283173 99 17845663658549363061
6442390 28 6916258572273834949
76465 3 18272375321217392634
81228 2 17702657907765526421
9882013 296 15647051568969384741

> <PUBCHEM_SHAPE_MULTIPOLES>
308.69
10.55
1.76
1.1
2.04
0.1
-0.02
5.91
-0.04
0.37
-0.33
0.5
-0.32
0.51

> <PUBCHEM_SHAPE_SELFOVERLAP>
603.82

> <PUBCHEM_SHAPE_VOLUME>
185

> <PUBCHEM_COORDINATE_TYPE>
2
5
10

$$$$

