10834
  -OEChem-07051213003D

 37 39  0     1  0  0  0  0  0999 V2000
    0.4045    0.2370    0.4444 O   0  0  0  0  0  0  0  0  0  0  0  0
    0.9540   -1.8517   -0.3525 O   0  0  0  0  0  0  0  0  0  0  0  0
   -3.4390    0.8284   -0.6604 N   0  0  0  0  0  0  0  0  0  0  0  0
   -3.0121   -0.5501   -0.9665 C   0  0  2  0  0  0  0  0  0  0  0  0
   -3.2905    0.8964    0.8057 C   0  0  1  0  0  0  0  0  0  0  0  0
   -3.6557   -1.4035    0.1318 C   0  0  0  0  0  0  0  0  0  0  0  0
   -3.8408   -0.4427    1.3090 C   0  0  0  0  0  0  0  0  0  0  0  0
   -1.4735   -0.5576   -0.8728 C   0  0  0  0  0  0  0  0  0  0  0  0
   -1.7806    1.0378    1.0818 C   0  0  0  0  0  0  0  0  0  0  0  0
   -0.9670   -0.1337    0.5139 C   0  0  0  0  0  0  0  0  0  0  0  0
   -4.8016    1.1106   -1.1048 C   0  0  0  0  0  0  0  0  0  0  0  0
    1.2598   -0.7208   -0.0077 C   0  0  0  0  0  0  0  0  0  0  0  0
    2.6543   -0.2114   -0.0314 C   0  0  0  0  0  0  0  0  0  0  0  0
    3.6922   -1.1002    0.1600 C   0  0  0  0  0  0  0  0  0  0  0  0
    2.8690    1.1350   -0.2446 C   0  0  0  0  0  0  0  0  0  0  0  0
    5.0023   -0.6218    0.1374 C   0  0  0  0  0  0  0  0  0  0  0  0
    4.1791    1.6132   -0.2671 C   0  0  0  0  0  0  0  0  0  0  0  0
    5.2457    0.7348   -0.0762 C   0  0  0  0  0  0  0  0  0  0  0  0
   -3.3108   -0.8746   -1.9697 H   0  0  0  0  0  0  0  0  0  0  0  0
   -3.8153    1.7507    1.2479 H   0  0  0  0  0  0  0  0  0  0  0  0
   -3.0474   -2.2716    0.4057 H   0  0  0  0  0  0  0  0  0  0  0  0
   -4.6346   -1.7765   -0.1920 H   0  0  0  0  0  0  0  0  0  0  0  0
   -4.9079   -0.3576    1.5460 H   0  0  0  0  0  0  0  0  0  0  0  0
   -3.3313   -0.7986    2.2105 H   0  0  0  0  0  0  0  0  0  0  0  0
   -1.1430   -1.5686   -1.1292 H   0  0  0  0  0  0  0  0  0  0  0  0
   -1.0533    0.1038   -1.6429 H   0  0  0  0  0  0  0  0  0  0  0  0
   -1.4142    1.9821    0.6560 H   0  0  0  0  0  0  0  0  0  0  0  0
   -1.5980    1.1127    2.1613 H   0  0  0  0  0  0  0  0  0  0  0  0
   -1.0532   -0.9782    1.2104 H   0  0  0  0  0  0  0  0  0  0  0  0
   -4.8628    1.0363   -2.1962 H   0  0  0  0  0  0  0  0  0  0  0  0
   -5.0752    2.1391   -0.8448 H   0  0  0  0  0  0  0  0  0  0  0  0
   -5.5560    0.4420   -0.6777 H   0  0  0  0  0  0  0  0  0  0  0  0
    3.5153   -2.1580    0.3304 H   0  0  0  0  0  0  0  0  0  0  0  0
    2.0570    1.8369   -0.4095 H   0  0  0  0  0  0  0  0  0  0  0  0
    5.8328   -1.3055    0.2868 H   0  0  0  0  0  0  0  0  0  0  0  0
    4.3693    2.6691   -0.4366 H   0  0  0  0  0  0  0  0  0  0  0  0
    6.2657    1.1072   -0.0944 H   0  0  0  0  0  0  0  0  0  0  0  0
  1 10  1  0  0  0  0
  1 12  1  0  0  0  0
  2 12  2  0  0  0  0
  3  4  1  0  0  0  0
  3  5  1  0  0  0  0
  3 11  1  0  0  0  0
  4  6  1  0  0  0  0
  4  8  1  0  0  0  0
  4 19  1  0  0  0  0
  5  7  1  0  0  0  0
  5  9  1  0  0  0  0
  5 20  1  0  0  0  0
  6  7  1  0  0  0  0
  6 21  1  0  0  0  0
  6 22  1  0  0  0  0
  7 23  1  0  0  0  0
  7 24  1  0  0  0  0
  8 10  1  0  0  0  0
  8 25  1  0  0  0  0
  8 26  1  0  0  0  0
  9 10  1  0  0  0  0
  9 27  1  0  0  0  0
  9 28  1  0  0  0  0
 10 29  1  0  0  0  0
 11 30  1  0  0  0  0
 11 31  1  0  0  0  0
 11 32  1  0  0  0  0
 12 13  1  0  0  0  0
 13 14  2  0  0  0  0
 13 15  1  0  0  0  0
 14 16  1  0  0  0  0
 14 33  1  0  0  0  0
 15 17  2  0  0  0  0
 15 34  1  0  0  0  0
 16 18  2  0  0  0  0
 16 35  1  0  0  0  0
 17 18  1  0  0  0  0
 17 36  1  0  0  0  0
 18 37  1  0  0  0  0
M  END
> <PUBCHEM_COMPOUND_CID>
10834

> <PUBCHEM_CONFORMER_RMSD>
0.6

> <PUBCHEM_CONFORMER_DIVERSEORDER>
1
16
5
8
4
19
13
20
23
17
18
12
15
14
10
11
3
21
22
9
7
2
6

> <PUBCHEM_MMFF94_PARTIAL_CHARGES>
19
1 -0.43
10 0.28
11 0.27
12 0.63
13 0.09
14 -0.15
15 -0.15
16 -0.15
17 -0.15
18 -0.15
2 -0.57
3 -0.81
33 0.15
34 0.15
35 0.15
36 0.15
37 0.15
4 0.27
5 0.27

> <PUBCHEM_EFFECTIVE_ROTOR_COUNT>
4.2

> <PUBCHEM_PHARMACOPHORE_FEATURES>
4
1 2 acceptor
1 3 cation
6 13 14 15 16 17 18 rings
8 3 4 5 6 7 8 9 10 rings

> <PUBCHEM_HEAVY_ATOM_COUNT>
18

> <PUBCHEM_ATOM_DEF_STEREO_COUNT>
0

> <PUBCHEM_ATOM_UDEF_STEREO_COUNT>
2

> <PUBCHEM_BOND_DEF_STEREO_COUNT>
0

> <PUBCHEM_BOND_UDEF_STEREO_COUNT>
0

> <PUBCHEM_ISOTOPIC_ATOM_COUNT>
0

> <PUBCHEM_COMPONENT_COUNT>
1

> <PUBCHEM_CACTVS_TAUTO_COUNT>
1

> <PUBCHEM_CONFORMER_ID>
00002A5200000001

> <PUBCHEM_MMFF94_ENERGY>
49.5854

> <PUBCHEM_FEATURE_SELFOVERLAP>
20.297

> <PUBCHEM_SHAPE_FINGERPRINT>
10014705 185 18202005443157637365
10366900 7 17023190430715417283
10680689 15 17775281664402234899
12107183 9 17688305003398478026
12236239 1 18113901571622401486
12403259 415 18131627876816486308
12507557 5 18343021077520977152
128620 24 18113334210769267586
13167823 11 18408603660747415514
13214271 11 18131914858241743199
13224815 77 18261106365992482002
13583140 156 17988924470213234939
13675066 3 17917707998359711294
13760787 5 18113897173591721168
14252887 29 11671789290785224560
15196674 1 18411138017758540388
15239154 128 18408602543887035500
15788980 27 18273215300629253218
17844677 252 18131063827420165172
18186145 218 18410849971524071390
19050596 39 18259980487534095794
19489759 90 16343989091403748345
200 152 18187652409662527309
20300324 65 17313106341102083721
20325693 3 15285350726480562225
20645477 56 17703792574253878005
20645477 70 18410857706913548622
21033648 29 17775574113115858556
21709351 56 18342740706503446628
22094290 60 14923939059306599107
22646028 1 17967813855734233096
22854114 59 18059855056500960550
23402539 116 17704076191743912598
23402655 69 18334857225481135452
23557571 272 17418085538300728071
23559900 14 18337111280248077418
2838139 119 17986408891242474341
29717793 49 17676767660579743348
300161 21 18334584533717715864
3268164 11 16298389097342089937
351380 180 17988927768996063804
3545911 37 18411697690330012030
4214541 1 18413952775820110926
474 4 18413386523490513168
5104073 3 18412825785213070160
542803 24 17676482844028655920
602551 16 15482380968278914016
633830 44 17632581543596618590
77779 3 18413106152098857974
90127 26 17775280565043724200

> <PUBCHEM_SHAPE_MULTIPOLES>
353.71
11.52
1.5
1.04
6.1
0.03
-0.05
-2
0.73
0.27
0.1
-1.24
-0.1
0.03

> <PUBCHEM_SHAPE_SELFOVERLAP>
759.882

> <PUBCHEM_SHAPE_VOLUME>
195.9

> <PUBCHEM_COORDINATE_TYPE>
2
5
10

$$$$

