4695
  -OEChem-06261200173D

 70 72  0     0  0  0  0  0  0999 V2000
   -0.2212   -1.0617   -3.0435 S   0  0  0  0  0  0  0  0  0  0  0  0
   -0.9877   -4.9457    1.8420 S   0  0  0  0  0  0  0  0  0  0  0  0
    1.3746   -1.1201   -3.3854 O   0  0  0  0  0  0  0  0  0  0  0  0
   -0.9222   -1.6651   -4.1649 O   0  0  0  0  0  0  0  0  0  0  0  0
   -0.5428    0.2831   -2.5981 O   0  0  0  0  0  0  0  0  0  0  0  0
    0.5056   -5.5261    2.1679 O   0  0  0  0  0  0  0  0  0  0  0  0
   -1.3986   -4.1593    2.9958 O   0  0  0  0  0  0  0  0  0  0  0  0
   -1.8072   -6.0495    1.3665 O   0  0  0  0  0  0  0  0  0  0  0  0
   -4.2541    3.1933    0.4604 N   0  3  0  0  0  0  0  0  0  0  0  0
    5.1859    1.8303    0.5374 N   0  0  0  0  0  0  0  0  0  0  0  0
   -0.0434   -0.2356   -0.0637 C   0  0  0  0  0  0  0  0  0  0  0  0
   -0.3318   -1.6643   -0.3558 C   0  0  0  0  0  0  0  0  0  0  0  0
   -1.0803    0.6088    0.0649 C   0  0  0  0  0  0  0  0  0  0  0  0
    1.3315    0.3073    0.0942 C   0  0  0  0  0  0  0  0  0  0  0  0
   -0.4268   -2.1139   -1.6567 C   0  0  0  0  0  0  0  0  0  0  0  0
   -3.2630    2.3863    0.3374 C   0  0  0  0  0  0  0  0  0  0  0  0
    3.8817    1.3146    0.3874 C   0  0  0  0  0  0  0  0  0  0  0  0
   -0.4986   -2.5070    0.7260 C   0  0  0  0  0  0  0  0  0  0  0  0
   -2.4435    0.1214   -0.0816 C   0  0  0  0  0  0  0  0  0  0  0  0
   -0.8466    2.0160    0.3518 C   0  0  0  0  0  0  0  0  0  0  0  0
    1.9906    0.7835   -1.0195 C   0  0  0  0  0  0  0  0  0  0  0  0
    1.9026    0.3170    1.3493 C   0  0  0  0  0  0  0  0  0  0  0  0
   -3.4917    0.9467    0.0437 C   0  0  0  0  0  0  0  0  0  0  0  0
   -1.8666    2.8749    0.4852 C   0  0  0  0  0  0  0  0  0  0  0  0
    3.2807    1.2930   -0.8712 C   0  0  0  0  0  0  0  0  0  0  0  0
    3.1926    0.8266    1.4977 C   0  0  0  0  0  0  0  0  0  0  0  0
   -0.7718   -3.8553    0.4953 C   0  0  0  0  0  0  0  0  0  0  0  0
   -5.6573    2.7276    0.3159 C   0  0  0  0  0  0  0  0  0  0  0  0
   -4.0496    4.6352    0.7536 C   0  0  0  0  0  0  0  0  0  0  0  0
    6.2489    0.9963    1.0624 C   0  0  0  0  0  0  0  0  0  0  0  0
    5.4769    3.2048    0.1819 C   0  0  0  0  0  0  0  0  0  0  0  0
   -0.6999   -3.4622   -1.8874 C   0  0  0  0  0  0  0  0  0  0  0  0
   -0.8725   -4.3329   -0.8113 C   0  0  0  0  0  0  0  0  0  0  0  0
   -6.1731    2.2705    1.6635 C   0  0  0  0  0  0  0  0  0  0  0  0
   -3.9042    5.3938   -0.5481 C   0  0  0  0  0  0  0  0  0  0  0  0
    6.9372    0.2548   -0.0674 C   0  0  0  0  0  0  0  0  0  0  0  0
    5.2457    4.1129    1.3744 C   0  0  0  0  0  0  0  0  0  0  0  0
   -0.4121   -2.1286    1.7410 H   0  0  0  0  0  0  0  0  0  0  0  0
   -2.6713   -0.9182   -0.2854 H   0  0  0  0  0  0  0  0  0  0  0  0
    0.1489    2.4308    0.4577 H   0  0  0  0  0  0  0  0  0  0  0  0
    1.5648    0.8526   -2.0048 H   0  0  0  0  0  0  0  0  0  0  0  0
    1.3745   -0.0576    2.2216 H   0  0  0  0  0  0  0  0  0  0  0  0
   -4.4787    0.5150   -0.0511 H   0  0  0  0  0  0  0  0  0  0  0  0
   -1.6225    3.9118    0.6717 H   0  0  0  0  0  0  0  0  0  0  0  0
    3.8027    1.6717   -1.7462 H   0  0  0  0  0  0  0  0  0  0  0  0
    3.6409    0.8461    2.4877 H   0  0  0  0  0  0  0  0  0  0  0  0
   -5.7550    1.9791   -0.4741 H   0  0  0  0  0  0  0  0  0  0  0  0
   -6.2524    3.5828   -0.0272 H   0  0  0  0  0  0  0  0  0  0  0  0
   -4.9424    4.9919    1.2815 H   0  0  0  0  0  0  0  0  0  0  0  0
   -3.2251    4.7919    1.4533 H   0  0  0  0  0  0  0  0  0  0  0  0
    5.8762    0.2760    1.7995 H   0  0  0  0  0  0  0  0  0  0  0  0
    6.9887    1.6120    1.5882 H   0  0  0  0  0  0  0  0  0  0  0  0
    4.8659    3.5457   -0.6618 H   0  0  0  0  0  0  0  0  0  0  0  0
    6.5204    3.2986   -0.1425 H   0  0  0  0  0  0  0  0  0  0  0  0
   -0.7733   -3.8632   -2.8943 H   0  0  0  0  0  0  0  0  0  0  0  0
   -1.0748   -5.3805   -1.0156 H   0  0  0  0  0  0  0  0  0  0  0  0
   -7.2197    1.9606    1.5774 H   0  0  0  0  0  0  0  0  0  0  0  0
   -6.1249    3.0718    2.4093 H   0  0  0  0  0  0  0  0  0  0  0  0
   -5.6058    1.4197    2.0552 H   0  0  0  0  0  0  0  0  0  0  0  0
   -3.7911    6.4640   -0.3462 H   0  0  0  0  0  0  0  0  0  0  0  0
   -4.7830    5.2687   -1.1906 H   0  0  0  0  0  0  0  0  0  0  0  0
   -3.0282    5.0690   -1.1190 H   0  0  0  0  0  0  0  0  0  0  0  0
    6.2392   -0.4069   -0.5911 H   0  0  0  0  0  0  0  0  0  0  0  0
    7.3551    0.9496   -0.8035 H   0  0  0  0  0  0  0  0  0  0  0  0
    7.7555   -0.3579    0.3234 H   0  0  0  0  0  0  0  0  0  0  0  0
    4.2011    4.0800    1.7017 H   0  0  0  0  0  0  0  0  0  0  0  0
    5.8715    3.8220    2.2246 H   0  0  0  0  0  0  0  0  0  0  0  0
    5.4864    5.1487    1.1152 H   0  0  0  0  0  0  0  0  0  0  0  0
    1.7239   -2.0101   -3.6264 H   0  0  0  0  0  0  0  0  0  0  0  0
    1.1720   -4.8510    2.4374 H   0  0  0  0  0  0  0  0  0  0  0  0
  1  3  1  0  0  0  0
  1  4  2  0  0  0  0
  1  5  2  0  0  0  0
  1 15  1  0  0  0  0
  2  6  1  0  0  0  0
  2  7  2  0  0  0  0
  2  8  2  0  0  0  0
  2 27  1  0  0  0  0
  3 69  1  0  0  0  0
  6 70  1  0  0  0  0
  9 16  2  0  0  0  0
  9 28  1  0  0  0  0
  9 29  1  0  0  0  0
 10 17  1  0  0  0  0
 10 30  1  0  0  0  0
 10 31  1  0  0  0  0
 11 12  1  0  0  0  0
 11 13  2  0  0  0  0
 11 14  1  0  0  0  0
 12 15  2  0  0  0  0
 12 18  1  0  0  0  0
 13 19  1  0  0  0  0
 13 20  1  0  0  0  0
 14 21  2  0  0  0  0
 14 22  1  0  0  0  0
 15 32  1  0  0  0  0
 16 23  1  0  0  0  0
 16 24  1  0  0  0  0
 17 25  2  0  0  0  0
 17 26  1  0  0  0  0
 18 27  2  0  0  0  0
 18 38  1  0  0  0  0
 19 23  2  0  0  0  0
 19 39  1  0  0  0  0
 20 24  2  0  0  0  0
 20 40  1  0  0  0  0
 21 25  1  0  0  0  0
 21 41  1  0  0  0  0
 22 26  2  0  0  0  0
 22 42  1  0  0  0  0
 23 43  1  0  0  0  0
 24 44  1  0  0  0  0
 25 45  1  0  0  0  0
 26 46  1  0  0  0  0
 27 33  1  0  0  0  0
 28 34  1  0  0  0  0
 28 47  1  0  0  0  0
 28 48  1  0  0  0  0
 29 35  1  0  0  0  0
 29 49  1  0  0  0  0
 29 50  1  0  0  0  0
 30 36  1  0  0  0  0
 30 51  1  0  0  0  0
 30 52  1  0  0  0  0
 31 37  1  0  0  0  0
 31 53  1  0  0  0  0
 31 54  1  0  0  0  0
 32 33  2  0  0  0  0
 32 55  1  0  0  0  0
 33 56  1  0  0  0  0
 34 57  1  0  0  0  0
 34 58  1  0  0  0  0
 34 59  1  0  0  0  0
 35 60  1  0  0  0  0
 35 61  1  0  0  0  0
 35 62  1  0  0  0  0
 36 63  1  0  0  0  0
 36 64  1  0  0  0  0
 36 65  1  0  0  0  0
 37 66  1  0  0  0  0
 37 67  1  0  0  0  0
 37 68  1  0  0  0  0
M  CHG  1   9   1
M  END
> <PUBCHEM_COMPOUND_CID>
4695

> <PUBCHEM_CONFORMER_RMSD>
1

> <PUBCHEM_CONFORMER_DIVERSEORDER>
1
2

> <PUBCHEM_MMFF94_PARTIAL_CHARGES>
45
1 1.49
10 -0.84
11 -0.06
12 0.03
14 0.03
15 -0.01
16 0.37
17 0.1
18 -0.15
19 -0.15
2 1.49
20 -0.15
21 -0.15
22 -0.15
23 -0.14
24 -0.14
25 -0.15
26 -0.15
27 -0.01
28 0.35
29 0.35
3 -0.68
30 0.37
31 0.37
32 -0.15
33 -0.15
38 0.15
39 0.15
4 -0.65
40 0.15
41 0.15
42 0.15
43 0.15
44 0.15
45 0.15
46 0.15
5 -0.65
55 0.15
56 0.15
6 -0.68
69 0.5
7 -0.65
70 0.5
8 -0.65
9 -0.09

> <PUBCHEM_EFFECTIVE_ROTOR_COUNT>
9

> <PUBCHEM_PHARMACOPHORE_FEATURES>
12
1 10 cation
1 3 acceptor
1 4 acceptor
1 5 acceptor
1 6 acceptor
1 7 acceptor
1 8 acceptor
4 1 3 4 5 anion
4 2 6 7 8 anion
6 12 15 18 27 32 33 rings
6 13 16 19 20 23 24 rings
6 14 17 21 22 25 26 rings

> <PUBCHEM_HEAVY_ATOM_COUNT>
37

> <PUBCHEM_ATOM_DEF_STEREO_COUNT>
0

> <PUBCHEM_ATOM_UDEF_STEREO_COUNT>
0

> <PUBCHEM_BOND_DEF_STEREO_COUNT>
0

> <PUBCHEM_BOND_UDEF_STEREO_COUNT>
0

> <PUBCHEM_ISOTOPIC_ATOM_COUNT>
0

> <PUBCHEM_COMPONENT_COUNT>
1

> <PUBCHEM_CACTVS_TAUTO_COUNT>
1

> <PUBCHEM_CONFORMER_ID>
0000125700000001

> <PUBCHEM_MMFF94_ENERGY>
132.8707

> <PUBCHEM_FEATURE_SELFOVERLAP>
61.006

> <PUBCHEM_SHAPE_FINGERPRINT>
10074138 170 18339367335825415577
10169797 241 17979047691328322675
10721379 63 17614268296910133321
107951 10 18408039632746471750
11115154 58 17395890590630182967
11443803 9 17677355886035828149
11445158 3 17628655329630005234
11763715 3 17407935723010396892
11991303 11 18410004416980786364
12058002 1 18340483353149712759
12788726 201 18193857945636412171
15200665 1 18335140839114033714
15219462 58 17975720306964739128
15324884 4 17679835199231976108
15878777 1 4884589013678588775
15927050 60 18409169943384988250
16090146 7 18059585632886595535
16114785 44 18116157657908556250
17980427 26 18124046881487187151
18393751 57 18341607118959533417
19319366 153 18337401550948357097
20101258 96 17758398465847592464
20587220 46 14231682234880871968
21133665 82 18189052161744014782
21703447 108 17980756362346391873
21716022 299 14203364377479410238
23559900 14 17545037564979901497
249057 3 18260266383087799216
3418910 222 17549544007939750488
3552219 110 17125916488228744612
376196 1 18187362189726584093
4058900 60 18265327498411414056
4408954 64 17268319774886219226
497634 4 17700422386499521486
513202 73 17972028151224372390
5219985 13 18335143119526409376
563151 97 18268162001424068269
6086070 43 16685703334574905629
6669772 16 18041839648616265894
6673363 416 17403161610008322964
9841814 1 17325201222869600193
9896288 288 18342452634193550442
9981440 41 18342169016492584009

> <PUBCHEM_SHAPE_MULTIPOLES>
723.96
11.11
8.52
2.68
10.55
8.19
2.34
-20.71
-4.85
-7.28
-4.86
-0.37
3.59
0.79

> <PUBCHEM_SHAPE_SELFOVERLAP>
1519.386

> <PUBCHEM_SHAPE_VOLUME>
410.3

> <PUBCHEM_COORDINATE_TYPE>
2
5
10

$$$$

