585206
  -OEChem-06241222453D

 64 64  0     1  0  0  0  0  0999 V2000
    2.9045   -1.3808   -0.0030 Si  0  0  0  0  0  0  0  0  0  0  0  0
    2.4016    0.1005    0.5818 O   0  0  0  0  0  0  0  0  0  0  0  0
    3.2762    1.2265    0.4839 C   0  0  1  0  0  0  0  0  0  0  0  0
    2.4187    2.4995    0.5323 C   0  0  0  0  0  0  0  0  0  0  0  0
    1.3386    2.5531   -0.5498 C   0  0  0  0  0  0  0  0  0  0  0  0
    0.4355    3.7874   -0.4477 C   0  0  0  0  0  0  0  0  0  0  0  0
   -0.6142    3.9442   -1.5531 C   0  0  0  0  0  0  0  0  0  0  0  0
   -1.5871    2.7718   -1.7155 C   0  0  0  0  0  0  0  0  0  0  0  0
    4.2987    1.1417    1.6226 C   0  0  0  0  0  0  0  0  0  0  0  0
   -2.4689    2.5440   -0.4851 C   0  0  0  0  0  0  0  0  0  0  0  0
   -3.4462    1.3758   -0.6497 C   0  0  0  0  0  0  0  0  0  0  0  0
   -4.3447    1.1612    0.5704 C   0  0  0  0  0  0  0  0  0  0  0  0
    1.3260   -2.4050   -0.2738 C   0  0  0  0  0  0  0  0  0  0  0  0
    3.8011   -1.2173   -1.6420 C   0  0  0  0  0  0  0  0  0  0  0  0
    3.9992   -2.2812    1.2253 C   0  0  0  0  0  0  0  0  0  0  0  0
    5.2798    2.3081    1.6087 C   0  0  0  0  0  0  0  0  0  0  0  0
   -5.3077   -0.0076    0.3504 C   0  0  0  0  0  0  0  0  0  0  0  0
   -6.2281   -0.2034    1.5550 C   0  0  0  0  0  0  0  0  0  0  0  0
    1.4152   -3.7049   -0.7719 C   0  0  0  0  0  0  0  0  0  0  0  0
    0.0787   -1.8567    0.0252 C   0  0  0  0  0  0  0  0  0  0  0  0
   -7.1649   -1.3839    1.3537 C   0  0  0  0  0  0  0  0  0  0  0  0
    0.2571   -4.4564   -0.9713 C   0  0  0  0  0  0  0  0  0  0  0  0
   -1.0793   -2.6084   -0.1741 C   0  0  0  0  0  0  0  0  0  0  0  0
   -0.9900   -3.9082   -0.6724 C   0  0  0  0  0  0  0  0  0  0  0  0
    3.7993    1.2335   -0.4815 H   0  0  0  0  0  0  0  0  0  0  0  0
    3.0518    3.3881    0.4348 H   0  0  0  0  0  0  0  0  0  0  0  0
    1.9246    2.5578    1.5108 H   0  0  0  0  0  0  0  0  0  0  0  0
    0.7145    1.6558   -0.4815 H   0  0  0  0  0  0  0  0  0  0  0  0
    1.8162    2.5349   -1.5369 H   0  0  0  0  0  0  0  0  0  0  0  0
    1.0693    4.6836   -0.4617 H   0  0  0  0  0  0  0  0  0  0  0  0
   -0.0612    3.7893    0.5299 H   0  0  0  0  0  0  0  0  0  0  0  0
   -1.1844    4.8630   -1.3691 H   0  0  0  0  0  0  0  0  0  0  0  0
   -0.0930    4.0901   -2.5075 H   0  0  0  0  0  0  0  0  0  0  0  0
   -1.0375    1.8549   -1.9568 H   0  0  0  0  0  0  0  0  0  0  0  0
   -2.2326    2.9786   -2.5783 H   0  0  0  0  0  0  0  0  0  0  0  0
    3.7866    1.0964    2.5916 H   0  0  0  0  0  0  0  0  0  0  0  0
    4.8923    0.2291    1.5516 H   0  0  0  0  0  0  0  0  0  0  0  0
   -1.8405    2.3441    0.3902 H   0  0  0  0  0  0  0  0  0  0  0  0
   -3.0330    3.4599   -0.2705 H   0  0  0  0  0  0  0  0  0  0  0  0
   -2.8774    0.4586   -0.8471 H   0  0  0  0  0  0  0  0  0  0  0  0
   -4.0726    1.5563   -1.5322 H   0  0  0  0  0  0  0  0  0  0  0  0
   -3.7238    0.9675    1.4533 H   0  0  0  0  0  0  0  0  0  0  0  0
   -4.9147    2.0767    0.7693 H   0  0  0  0  0  0  0  0  0  0  0  0
    4.7555   -0.6976   -1.5164 H   0  0  0  0  0  0  0  0  0  0  0  0
    4.0116   -2.2024   -2.0691 H   0  0  0  0  0  0  0  0  0  0  0  0
    3.1958   -0.6564   -2.3605 H   0  0  0  0  0  0  0  0  0  0  0  0
    5.0288   -1.9158    1.1898 H   0  0  0  0  0  0  0  0  0  0  0  0
    3.6205   -2.1589    2.2444 H   0  0  0  0  0  0  0  0  0  0  0  0
    4.0291   -3.3523    1.0019 H   0  0  0  0  0  0  0  0  0  0  0  0
    5.7568    2.4125    0.6291 H   0  0  0  0  0  0  0  0  0  0  0  0
    6.0672    2.1412    2.3511 H   0  0  0  0  0  0  0  0  0  0  0  0
    4.7892    3.2519    1.8634 H   0  0  0  0  0  0  0  0  0  0  0  0
   -5.9122    0.1759   -0.5462 H   0  0  0  0  0  0  0  0  0  0  0  0
   -4.7343   -0.9254    0.1712 H   0  0  0  0  0  0  0  0  0  0  0  0
   -5.6293   -0.3708    2.4579 H   0  0  0  0  0  0  0  0  0  0  0  0
   -6.8210    0.7033    1.7220 H   0  0  0  0  0  0  0  0  0  0  0  0
    2.3750   -4.1553   -1.0132 H   0  0  0  0  0  0  0  0  0  0  0  0
   -0.0271   -0.8471    0.4139 H   0  0  0  0  0  0  0  0  0  0  0  0
   -6.6019   -2.3128    1.2174 H   0  0  0  0  0  0  0  0  0  0  0  0
   -7.8144   -1.5053    2.2263 H   0  0  0  0  0  0  0  0  0  0  0  0
   -7.8004   -1.2348    0.4750 H   0  0  0  0  0  0  0  0  0  0  0  0
    0.3264   -5.4684   -1.3594 H   0  0  0  0  0  0  0  0  0  0  0  0
   -2.0508   -2.1814    0.0579 H   0  0  0  0  0  0  0  0  0  0  0  0
   -1.8917   -4.4932   -0.8278 H   0  0  0  0  0  0  0  0  0  0  0  0
  1  2  1  0  0  0  0
  1 13  1  0  0  0  0
  1 14  1  0  0  0  0
  1 15  1  0  0  0  0
  2  3  1  0  0  0  0
  3  4  1  0  0  0  0
  3  9  1  0  0  0  0
  3 25  1  0  0  0  0
  4  5  1  0  0  0  0
  4 26  1  0  0  0  0
  4 27  1  0  0  0  0
  5  6  1  0  0  0  0
  5 28  1  0  0  0  0
  5 29  1  0  0  0  0
  6  7  1  0  0  0  0
  6 30  1  0  0  0  0
  6 31  1  0  0  0  0
  7  8  1  0  0  0  0
  7 32  1  0  0  0  0
  7 33  1  0  0  0  0
  8 10  1  0  0  0  0
  8 34  1  0  0  0  0
  8 35  1  0  0  0  0
  9 16  1  0  0  0  0
  9 36  1  0  0  0  0
  9 37  1  0  0  0  0
 10 11  1  0  0  0  0
 10 38  1  0  0  0  0
 10 39  1  0  0  0  0
 11 12  1  0  0  0  0
 11 40  1  0  0  0  0
 11 41  1  0  0  0  0
 12 17  1  0  0  0  0
 12 42  1  0  0  0  0
 12 43  1  0  0  0  0
 13 19  2  0  0  0  0
 13 20  1  0  0  0  0
 14 44  1  0  0  0  0
 14 45  1  0  0  0  0
 14 46  1  0  0  0  0
 15 47  1  0  0  0  0
 15 48  1  0  0  0  0
 15 49  1  0  0  0  0
 16 50  1  0  0  0  0
 16 51  1  0  0  0  0
 16 52  1  0  0  0  0
 17 18  1  0  0  0  0
 17 53  1  0  0  0  0
 17 54  1  0  0  0  0
 18 21  1  0  0  0  0
 18 55  1  0  0  0  0
 18 56  1  0  0  0  0
 19 22  1  0  0  0  0
 19 57  1  0  0  0  0
 20 23  2  0  0  0  0
 20 58  1  0  0  0  0
 21 59  1  0  0  0  0
 21 60  1  0  0  0  0
 21 61  1  0  0  0  0
 22 24  2  0  0  0  0
 22 62  1  0  0  0  0
 23 24  1  0  0  0  0
 23 63  1  0  0  0  0
 24 64  1  0  0  0  0
M  END
> <PUBCHEM_COMPOUND_CID>
585206

> <PUBCHEM_CONFORMER_RMSD>
1.2

> <PUBCHEM_CONFORMER_DIVERSEORDER>
1
305
38
120
15
184
192
68
207
45
6
55
83
3
127
111
95
152
307
105
72
170
194
78
200
63
219
250
14
34
296
210
154
108
303
261
155
306
139
159
197
257
50
91
101
228
226
32
126
263
245
92
10
65
187
247
73
244
23
259
86
162
277
5
177
144
175
199
258
150
66
284
178
202
235
253
18
56
121
275
169
33
44
212
201
310
89
48
280
274
225
160
128
140
70
218
153
42
171
94
135
308
110
203
133
289
215
282
64
243
119
134
206
255
76
37
251
26
75
312
191
8
97
276
80
236
182
43
166
11
248
304
242
98
222
294
62
190
96
74
82
28
213
100
230
131
16
287
9
229
180
107
136
224
240
174
311
176
168
172
233
220
300
188
173
31
189
185
265
29
118
87
231
216
223
141
254
221
267
186
137
164
158
241
272
77
295
130
114
2
149
266
67
129
36
46
262
204
99
249
196
102
39
117
123
183
25
217
214
30
292
124
156
103
57
41
27
35
211
143
209
145
205
285
157
51
146
132
13
239
40
7
90
278
281
24
302
286
179
138
88
49
22
260
232
293
234
151
167
47
71
106
116
61
208
148
81
283
270
125
269
193
60
301
85
104
290
19
268
237
163
53
109
161
264
142
238
273
58
181
84
279
113
93
54
69
112
291
256
21
227
59
122
288
298
271
165
79
252
309
115
4
12
17
52
20
297
147
198
299
246
195

> <PUBCHEM_MMFF94_PARTIAL_CHARGES>
16
1 0.68
13 -0.22
14 -0.08
15 -0.08
19 -0.15
2 -0.58
20 -0.15
22 -0.15
23 -0.15
24 -0.15
3 0.28
57 0.15
58 0.15
62 0.15
63 0.15
64 0.15

> <PUBCHEM_EFFECTIVE_ROTOR_COUNT>
14

> <PUBCHEM_PHARMACOPHORE_FEATURES>
3
1 16 hydrophobe
1 21 hydrophobe
6 13 19 20 22 23 24 rings

> <PUBCHEM_HEAVY_ATOM_COUNT>
24

> <PUBCHEM_ATOM_DEF_STEREO_COUNT>
0

> <PUBCHEM_ATOM_UDEF_STEREO_COUNT>
1

> <PUBCHEM_BOND_DEF_STEREO_COUNT>
0

> <PUBCHEM_BOND_UDEF_STEREO_COUNT>
0

> <PUBCHEM_ISOTOPIC_ATOM_COUNT>
0

> <PUBCHEM_COMPONENT_COUNT>
1

> <PUBCHEM_CACTVS_TAUTO_COUNT>
1

> <PUBCHEM_CONFORMER_ID>
0008EDF600000001

> <PUBCHEM_MMFF94_ENERGY>
23.53

> <PUBCHEM_FEATURE_SELFOVERLAP>
15.223

> <PUBCHEM_SHAPE_FINGERPRINT>
10838868 158 17767109183357546987
13383661 66 17754427347823527742
13402501 40 18341613780004734145
1361 2 18410849924669808483
19734167 9 17827102630930425616
1979834 28 18411407402813945137
21133410 38 17968662610429717559
21315759 227 17911804887770428524
21585482 310 17559941161900266907
373842 8 17909540659229503547
437795 96 18197504137417609197
445580 102 17979074117285674247
484989 97 18265891557531591822
5309563 4 18341608265694123925
653340 110 17326059446950224321
7399639 24 18339085985656008977

> <PUBCHEM_SHAPE_MULTIPOLES>
506.25
11.99
6.54
1.59
20.59
1.21
0.08
-0.22
8.54
-1.76
-2.77
-0.25
-0.54
2.72

> <PUBCHEM_SHAPE_SELFOVERLAP>
958.215

> <PUBCHEM_SHAPE_VOLUME>
313.5

> <PUBCHEM_COORDINATE_TYPE>
2
5
10

$$$$

