246207
  -OEChem-07051213063D

 59 62  0     1  0  0  0  0  0999 V2000
   -5.2007   -0.9357    0.3028 O   0  0  0  0  0  0  0  0  0  0  0  0
    5.9946   -0.5266   -0.2544 O   0  0  0  0  0  0  0  0  0  0  0  0
   -0.5073    0.6963    0.3057 C   0  0  2  0  0  0  0  0  0  0  0  0
    0.2299   -0.5713   -0.2255 C   0  0  1  0  0  0  0  0  0  0  0  0
   -1.9506    0.6880   -0.2190 C   0  0  1  0  0  0  0  0  0  0  0  0
   -2.7479   -0.5597    0.2211 C   0  0  1  0  0  0  0  0  0  0  0  0
    1.7352   -0.6110    0.2339 C   0  0  2  0  0  0  0  0  0  0  0  0
    2.4222    0.7179   -0.2488 C   0  0  1  0  0  0  0  0  0  0  0  0
   -0.5654   -1.8719    0.0674 C   0  0  0  0  0  0  0  0  0  0  0  0
    0.2296    1.9763   -0.1098 C   0  0  0  0  0  0  0  0  0  0  0  0
   -4.1596   -0.2142   -0.3524 C   0  0  2  0  0  0  0  0  0  0  0  0
   -2.0420   -1.7942   -0.3640 C   0  0  0  0  0  0  0  0  0  0  0  0
    1.7101    1.9776    0.3086 C   0  0  2  0  0  0  0  0  0  0  0  0
   -2.8688    1.8478    0.1550 C   0  0  0  0  0  0  0  0  0  0  0  0
   -4.2928    1.3097   -0.0803 C   0  0  0  0  0  0  0  0  0  0  0  0
    2.4670   -1.8073   -0.4411 C   0  0  0  0  0  0  0  0  0  0  0  0
    3.9399    0.7123    0.0118 C   0  0  0  0  0  0  0  0  0  0  0  0
   -2.8328   -0.7229    1.7666 C   0  0  0  0  0  0  0  0  0  0  0  0
    1.8366   -0.7869    1.7718 C   0  0  0  0  0  0  0  0  0  0  0  0
    3.9769   -1.8111   -0.2112 C   0  0  0  0  0  0  0  0  0  0  0  0
    4.6208   -0.4971   -0.6285 C   0  0  2  0  0  0  0  0  0  0  0  0
   -4.3462   -0.5046   -1.8471 C   0  0  0  0  0  0  0  0  0  0  0  0
    2.3510    3.2886   -0.1625 C   0  0  0  0  0  0  0  0  0  0  0  0
   -0.5312    0.6817    1.3997 H   0  0  0  0  0  0  0  0  0  0  0  0
    0.2450   -0.4832   -1.3237 H   0  0  0  0  0  0  0  0  0  0  0  0
   -1.8765    0.6951   -1.3171 H   0  0  0  0  0  0  0  0  0  0  0  0
    2.3086    0.7565   -1.3441 H   0  0  0  0  0  0  0  0  0  0  0  0
   -0.5130   -2.1247    1.1303 H   0  0  0  0  0  0  0  0  0  0  0  0
   -0.1131   -2.7132   -0.4695 H   0  0  0  0  0  0  0  0  0  0  0  0
    0.1576    2.1043   -1.1983 H   0  0  0  0  0  0  0  0  0  0  0  0
   -0.2684    2.8444    0.3396 H   0  0  0  0  0  0  0  0  0  0  0  0
   -2.0604   -1.7678   -1.4599 H   0  0  0  0  0  0  0  0  0  0  0  0
   -2.5620   -2.7125   -0.0661 H   0  0  0  0  0  0  0  0  0  0  0  0
    1.7634    1.9719    1.4041 H   0  0  0  0  0  0  0  0  0  0  0  0
   -2.6762    2.7346   -0.4577 H   0  0  0  0  0  0  0  0  0  0  0  0
   -2.7410    2.1384    1.2038 H   0  0  0  0  0  0  0  0  0  0  0  0
   -4.9188    1.5069    0.7979 H   0  0  0  0  0  0  0  0  0  0  0  0
   -4.7614    1.8313   -0.9228 H   0  0  0  0  0  0  0  0  0  0  0  0
    2.2793   -1.7863   -1.5228 H   0  0  0  0  0  0  0  0  0  0  0  0
    2.0693   -2.7607   -0.0742 H   0  0  0  0  0  0  0  0  0  0  0  0
    4.4077    1.6099   -0.4090 H   0  0  0  0  0  0  0  0  0  0  0  0
    4.1587    0.7524    1.0855 H   0  0  0  0  0  0  0  0  0  0  0  0
   -3.3725   -1.6414    2.0256 H   0  0  0  0  0  0  0  0  0  0  0  0
   -1.8544   -0.7880    2.2486 H   0  0  0  0  0  0  0  0  0  0  0  0
   -3.3651    0.1065    2.2432 H   0  0  0  0  0  0  0  0  0  0  0  0
    1.4602   -1.7664    2.0846 H   0  0  0  0  0  0  0  0  0  0  0  0
    2.8676   -0.7244    2.1308 H   0  0  0  0  0  0  0  0  0  0  0  0
    1.2710   -0.0323    2.3232 H   0  0  0  0  0  0  0  0  0  0  0  0
    4.2073   -2.0271    0.8392 H   0  0  0  0  0  0  0  0  0  0  0  0
    4.4327   -2.6345   -0.7755 H   0  0  0  0  0  0  0  0  0  0  0  0
    4.5778   -0.4067   -1.7208 H   0  0  0  0  0  0  0  0  0  0  0  0
   -4.2928   -1.5796   -2.0520 H   0  0  0  0  0  0  0  0  0  0  0  0
   -5.3452   -0.1906   -2.1736 H   0  0  0  0  0  0  0  0  0  0  0  0
   -3.6140    0.0079   -2.4768 H   0  0  0  0  0  0  0  0  0  0  0  0
    3.3463    3.4240    0.2711 H   0  0  0  0  0  0  0  0  0  0  0  0
    2.4416    3.3178   -1.2535 H   0  0  0  0  0  0  0  0  0  0  0  0
    1.7504    4.1501    0.1497 H   0  0  0  0  0  0  0  0  0  0  0  0
   -5.0264   -1.8847    0.1809 H   0  0  0  0  0  0  0  0  0  0  0  0
    6.3946    0.3121   -0.5408 H   0  0  0  0  0  0  0  0  0  0  0  0
  1 11  1  0  0  0  0
  1 58  1  0  0  0  0
  2 21  1  0  0  0  0
  2 59  1  0  0  0  0
  3  4  1  0  0  0  0
  3  5  1  0  0  0  0
  3 10  1  0  0  0  0
  3 24  1  0  0  0  0
  4  7  1  0  0  0  0
  4  9  1  0  0  0  0
  4 25  1  0  0  0  0
  5  6  1  0  0  0  0
  5 14  1  0  0  0  0
  5 26  1  0  0  0  0
  6 11  1  0  0  0  0
  6 12  1  0  0  0  0
  6 18  1  0  0  0  0
  7  8  1  0  0  0  0
  7 16  1  0  0  0  0
  7 19  1  0  0  0  0
  8 13  1  0  0  0  0
  8 17  1  0  0  0  0
  8 27  1  0  0  0  0
  9 12  1  0  0  0  0
  9 28  1  0  0  0  0
  9 29  1  0  0  0  0
 10 13  1  0  0  0  0
 10 30  1  0  0  0  0
 10 31  1  0  0  0  0
 11 15  1  0  0  0  0
 11 22  1  0  0  0  0
 12 32  1  0  0  0  0
 12 33  1  0  0  0  0
 13 23  1  0  0  0  0
 13 34  1  0  0  0  0
 14 15  1  0  0  0  0
 14 35  1  0  0  0  0
 14 36  1  0  0  0  0
 15 37  1  0  0  0  0
 15 38  1  0  0  0  0
 16 20  1  0  0  0  0
 16 39  1  0  0  0  0
 16 40  1  0  0  0  0
 17 21  1  0  0  0  0
 17 41  1  0  0  0  0
 17 42  1  0  0  0  0
 18 43  1  0  0  0  0
 18 44  1  0  0  0  0
 18 45  1  0  0  0  0
 19 46  1  0  0  0  0
 19 47  1  0  0  0  0
 19 48  1  0  0  0  0
 20 21  1  0  0  0  0
 20 49  1  0  0  0  0
 20 50  1  0  0  0  0
 21 51  1  0  0  0  0
 22 52  1  0  0  0  0
 22 53  1  0  0  0  0
 22 54  1  0  0  0  0
 23 55  1  0  0  0  0
 23 56  1  0  0  0  0
 23 57  1  0  0  0  0
M  END
> <PUBCHEM_COMPOUND_CID>
246207

> <PUBCHEM_CONFORMER_RMSD>
0.6

> <PUBCHEM_CONFORMER_DIVERSEORDER>
1

> <PUBCHEM_MMFF94_PARTIAL_CHARGES>
6
1 -0.68
11 0.28
2 -0.68
21 0.28
58 0.4
59 0.4

> <PUBCHEM_EFFECTIVE_ROTOR_COUNT>
2.2

> <PUBCHEM_PHARMACOPHORE_FEATURES>
8
1 1 acceptor
1 1 donor
1 2 acceptor
1 2 donor
5 5 6 11 14 15 rings
6 3 4 5 6 9 12 rings
6 3 4 7 8 10 13 rings
6 7 8 16 17 20 21 rings

> <PUBCHEM_HEAVY_ATOM_COUNT>
23

> <PUBCHEM_ATOM_DEF_STEREO_COUNT>
9

> <PUBCHEM_ATOM_UDEF_STEREO_COUNT>
0

> <PUBCHEM_BOND_DEF_STEREO_COUNT>
0

> <PUBCHEM_BOND_UDEF_STEREO_COUNT>
0

> <PUBCHEM_ISOTOPIC_ATOM_COUNT>
0

> <PUBCHEM_COMPONENT_COUNT>
1

> <PUBCHEM_CACTVS_TAUTO_COUNT>
1

> <PUBCHEM_CONFORMER_ID>
0003C1BF00000001

> <PUBCHEM_MMFF94_ENERGY>
90.0082

> <PUBCHEM_FEATURE_SELFOVERLAP>
40.68

> <PUBCHEM_SHAPE_FINGERPRINT>
10366900 7 17704072889019557241
10967382 1 18410012104671286292
11471102 20 18410576163137739716
11578080 2 14402893633657654692
12011746 2 18341898510608619605
12166972 35 18040436568367712025
12236239 1 17917992806547827522
12403259 226 18411423908067522709
12553582 1 18340215162459062776
12788726 201 18119812666540798352
13140716 1 18193551173270283378
13221675 6 18413388726476400722
13224815 77 18059859454368117169
13533116 47 18115590340342776737
13583140 156 17489315165802492739
13862211 1 18410014364467909102
14223421 5 18125997170354323803
14790565 3 17400353946114068240
15099037 51 18410573998046961175
15196674 1 18410292544539792636
15536298 74 18334579010147375000
15788980 27 18410291423563838878
15848702 151 18113612425929247422
1601671 61 18410011082912304940
16752209 62 18338807809155893017
16945 1 18337104562380623528
17349148 13 17894914026962247327
17357779 13 18271537462907193133
17492 89 18265616468222184735
1813 80 18042106791323993868
18186145 218 17917436440773710397
18681886 176 18260836968996551202
19591789 44 18266740366837297382
19862831 5 18272370875493451398
200 152 18113901571749060459
20645477 70 18340772528870824069
20775438 99 16960178321856634063
21029758 11 18335702766881315688
21033648 29 17489601056090187877
21033650 10 15648705212988005208
21267235 1 18410002234847229974
21279426 13 18196371639580786854
221357 26 18411422821472127165
221490 88 18268703931242527074
22393880 68 18200889417343581167
23402539 116 18334298712218303614
23558518 356 17625823764891653490
23559900 14 18335147470316990368
3004659 81 18201433749131226054
312423 11 18335409150248460537
335352 9 18410009961498690132
34934 24 18411140260042757178
350125 39 18410288138573779609
4214541 1 18409728482480128421
474 4 17559953221398735492
5104073 3 18409729594591627473
633830 44 17846218800462612500
7364860 26 18335703784957493352
9709674 26 18340769234984160563
9981440 41 17475235696213615824

> <PUBCHEM_SHAPE_MULTIPOLES>
461.59
10.04
2.5
1.11
1.08
1.46
0.21
-1.79
-1.89
1.24
-0.1
-0.7
-0.32
0.05

> <PUBCHEM_SHAPE_SELFOVERLAP>
973.667

> <PUBCHEM_SHAPE_VOLUME>
258.6

> <PUBCHEM_COORDINATE_TYPE>
2
5
10

$$$$

