5282287
  -OEChem-07051213042D

129129  0     1  0  0  0  0  0999 V2000
    4.2690   -4.6550    0.0000 O   0  0  0  0  0  0  0  0  0  0  0  0
    6.0010   -4.6550    0.0000 O   0  0  0  0  0  0  0  0  0  0  0  0
    4.2690   -7.6550    0.0000 O   0  0  0  0  0  0  0  0  0  0  0  0
    2.5369   -6.6550    0.0000 O   0  0  0  0  0  0  0  0  0  0  0  0
    6.0010   -6.6550    0.0000 O   0  0  0  0  0  0  0  0  0  0  0  0
    2.5369   -3.6550    0.0000 O   0  0  0  0  0  0  0  0  0  0  0  0
    6.8671   -2.1550    0.0000 O   0  0  0  0  0  0  0  0  0  0  0  0
    8.5991   -3.1550    0.0000 O   0  0  0  0  0  0  0  0  0  0  0  0
    8.5991   -2.1550    0.0000 O   0  0  0  0  0  0  0  0  0  0  0  0
    9.4651   -4.6550    0.0000 O   0  0  0  0  0  0  0  0  0  0  0  0
    4.2690   -6.6550    0.0000 C   0  0  1  0  0  0  0  0  0  0  0  0
    3.4030   -6.1550    0.0000 C   0  0  2  0  0  0  0  0  0  0  0  0
    5.1350   -6.1550    0.0000 C   0  0  2  0  0  0  0  0  0  0  0  0
    3.4030   -5.1550    0.0000 C   0  0  1  0  0  0  0  0  0  0  0  0
    5.1350   -5.1550    0.0000 C   0  0  1  0  0  0  0  0  0  0  0  0
    2.5369   -4.6550    0.0000 C   0  0  0  0  0  0  0  0  0  0  0  0
    6.0010   -3.6550    0.0000 C   0  0  0  0  0  0  0  0  0  0  0  0
    6.8671   -3.1550    0.0000 C   0  0  3  0  0  0  0  0  0  0  0  0
    7.7331   -3.6550    0.0000 C   0  0  0  0  0  0  0  0  0  0  0  0
    7.7331   -0.6550    0.0000 C   0  0  0  0  0  0  0  0  0  0  0  0
    7.7331   -1.6550    0.0000 C   0  0  0  0  0  0  0  0  0  0  0  0
    8.5991   -0.1550    0.0000 C   0  0  0  0  0  0  0  0  0  0  0  0
    8.5991    0.8450    0.0000 C   0  0  0  0  0  0  0  0  0  0  0  0
    9.4651    1.3450    0.0000 C   0  0  0  0  0  0  0  0  0  0  0  0
   11.1972   -3.6550    0.0000 C   0  0  0  0  0  0  0  0  0  0  0  0
   12.0632   -3.1550    0.0000 C   0  0  0  0  0  0  0  0  0  0  0  0
    9.4651    2.3450    0.0000 C   0  0  0  0  0  0  0  0  0  0  0  0
   10.3312   -3.1550    0.0000 C   0  0  0  0  0  0  0  0  0  0  0  0
   12.9292   -3.6550    0.0000 C   0  0  0  0  0  0  0  0  0  0  0  0
    9.4651   -3.6550    0.0000 C   0  0  0  0  0  0  0  0  0  0  0  0
   13.7953   -3.1550    0.0000 C   0  0  0  0  0  0  0  0  0  0  0  0
   10.3312    2.8450    0.0000 C   0  0  0  0  0  0  0  0  0  0  0  0
   14.6613   -3.6550    0.0000 C   0  0  0  0  0  0  0  0  0  0  0  0
   10.3312    3.8450    0.0000 C   0  0  0  0  0  0  0  0  0  0  0  0
   15.5273   -3.1550    0.0000 C   0  0  0  0  0  0  0  0  0  0  0  0
   11.1972    4.3450    0.0000 C   0  0  0  0  0  0  0  0  0  0  0  0
   16.3933   -3.6550    0.0000 C   0  0  0  0  0  0  0  0  0  0  0  0
   11.1972    5.3450    0.0000 C   0  0  0  0  0  0  0  0  0  0  0  0
   17.2594   -3.1550    0.0000 C   0  0  0  0  0  0  0  0  0  0  0  0
   10.3312    5.8450    0.0000 C   0  0  0  0  0  0  0  0  0  0  0  0
   17.2594   -2.1550    0.0000 C   0  0  0  0  0  0  0  0  0  0  0  0
   10.3312    6.8450    0.0000 C   0  0  0  0  0  0  0  0  0  0  0  0
   18.1254   -1.6550    0.0000 C   0  0  0  0  0  0  0  0  0  0  0  0
    9.4651    7.3450    0.0000 C   0  0  0  0  0  0  0  0  0  0  0  0
   18.1254   -0.6550    0.0000 C   0  0  0  0  0  0  0  0  0  0  0  0
    8.5991    6.8450    0.0000 C   0  0  0  0  0  0  0  0  0  0  0  0
   17.2594   -0.1550    0.0000 C   0  0  0  0  0  0  0  0  0  0  0  0
    7.7331    7.3450    0.0000 C   0  0  0  0  0  0  0  0  0  0  0  0
   17.2594    0.8450    0.0000 C   0  0  0  0  0  0  0  0  0  0  0  0
    6.8671    6.8450    0.0000 C   0  0  0  0  0  0  0  0  0  0  0  0
   16.3933    1.3450    0.0000 C   0  0  0  0  0  0  0  0  0  0  0  0
    6.8671    5.8450    0.0000 C   0  0  0  0  0  0  0  0  0  0  0  0
   15.5273    0.8450    0.0000 C   0  0  0  0  0  0  0  0  0  0  0  0
    6.0010    5.3450    0.0000 C   0  0  0  0  0  0  0  0  0  0  0  0
   14.6613    1.3450    0.0000 C   0  0  0  0  0  0  0  0  0  0  0  0
    4.8059   -6.9650    0.0000 H   0  0  0  0  0  0  0  0  0  0  0  0
    3.4030   -6.7750    0.0000 H   0  0  0  0  0  0  0  0  0  0  0  0
    5.1350   -6.7750    0.0000 H   0  0  0  0  0  0  0  0  0  0  0  0
    3.4030   -4.5350    0.0000 H   0  0  0  0  0  0  0  0  0  0  0  0
    5.1350   -4.5350    0.0000 H   0  0  0  0  0  0  0  0  0  0  0  0
    1.9264   -4.5473    0.0000 H   0  0  0  0  0  0  0  0  0  0  0  0
    2.3249   -5.2376    0.0000 H   0  0  0  0  0  0  0  0  0  0  0  0
    3.7320   -7.9650    0.0000 H   0  0  0  0  0  0  0  0  0  0  0  0
    2.0000   -6.3450    0.0000 H   0  0  0  0  0  0  0  0  0  0  0  0
    6.5380   -6.3450    0.0000 H   0  0  0  0  0  0  0  0  0  0  0  0
    5.7890   -3.0724    0.0000 H   0  0  0  0  0  0  0  0  0  0  0  0
    5.3905   -3.7627    0.0000 H   0  0  0  0  0  0  0  0  0  0  0  0
    6.1309   -2.7300    0.0000 H   0  0  0  0  0  0  0  0  0  0  0  0
    2.0000   -3.3450    0.0000 H   0  0  0  0  0  0  0  0  0  0  0  0
    7.3346   -4.1300    0.0000 H   0  0  0  0  0  0  0  0  0  0  0  0
    8.1316   -4.1300    0.0000 H   0  0  0  0  0  0  0  0  0  0  0  0
    7.5210   -0.0724    0.0000 H   0  0  0  0  0  0  0  0  0  0  0  0
    7.1225   -0.7627    0.0000 H   0  0  0  0  0  0  0  0  0  0  0  0
    8.8112   -0.7376    0.0000 H   0  0  0  0  0  0  0  0  0  0  0  0
    9.2097   -0.0473    0.0000 H   0  0  0  0  0  0  0  0  0  0  0  0
    8.3871    1.4276    0.0000 H   0  0  0  0  0  0  0  0  0  0  0  0
    7.9885    0.7373    0.0000 H   0  0  0  0  0  0  0  0  0  0  0  0
    9.6772    0.7624    0.0000 H   0  0  0  0  0  0  0  0  0  0  0  0
   10.0757    1.4527    0.0000 H   0  0  0  0  0  0  0  0  0  0  0  0
   10.7987   -4.1300    0.0000 H   0  0  0  0  0  0  0  0  0  0  0  0
   11.5957   -4.1300    0.0000 H   0  0  0  0  0  0  0  0  0  0  0  0
   12.4617   -2.6800    0.0000 H   0  0  0  0  0  0  0  0  0  0  0  0
   11.6647   -2.6800    0.0000 H   0  0  0  0  0  0  0  0  0  0  0  0
    9.2531    2.9276    0.0000 H   0  0  0  0  0  0  0  0  0  0  0  0
    8.8546    2.2373    0.0000 H   0  0  0  0  0  0  0  0  0  0  0  0
   10.7297   -2.6800    0.0000 H   0  0  0  0  0  0  0  0  0  0  0  0
    9.9326   -2.6800    0.0000 H   0  0  0  0  0  0  0  0  0  0  0  0
   12.5307   -4.1300    0.0000 H   0  0  0  0  0  0  0  0  0  0  0  0
   13.3278   -4.1300    0.0000 H   0  0  0  0  0  0  0  0  0  0  0  0
   14.1938   -2.6800    0.0000 H   0  0  0  0  0  0  0  0  0  0  0  0
   13.3967   -2.6800    0.0000 H   0  0  0  0  0  0  0  0  0  0  0  0
   10.5432    2.2624    0.0000 H   0  0  0  0  0  0  0  0  0  0  0  0
   10.9417    2.9527    0.0000 H   0  0  0  0  0  0  0  0  0  0  0  0
   14.2628   -4.1300    0.0000 H   0  0  0  0  0  0  0  0  0  0  0  0
   15.0598   -4.1300    0.0000 H   0  0  0  0  0  0  0  0  0  0  0  0
   10.1191    4.4276    0.0000 H   0  0  0  0  0  0  0  0  0  0  0  0
    9.7206    3.7373    0.0000 H   0  0  0  0  0  0  0  0  0  0  0  0
   15.9258   -2.6800    0.0000 H   0  0  0  0  0  0  0  0  0  0  0  0
   15.1288   -2.6800    0.0000 H   0  0  0  0  0  0  0  0  0  0  0  0
   11.7341    4.0350    0.0000 H   0  0  0  0  0  0  0  0  0  0  0  0
   16.3933   -4.2750    0.0000 H   0  0  0  0  0  0  0  0  0  0  0  0
   11.7341    5.6550    0.0000 H   0  0  0  0  0  0  0  0  0  0  0  0
   17.7963   -3.4650    0.0000 H   0  0  0  0  0  0  0  0  0  0  0  0
    9.7206    5.9527    0.0000 H   0  0  0  0  0  0  0  0  0  0  0  0
   10.1191    5.2624    0.0000 H   0  0  0  0  0  0  0  0  0  0  0  0
   17.0473   -1.5724    0.0000 H   0  0  0  0  0  0  0  0  0  0  0  0
   16.6488   -2.2627    0.0000 H   0  0  0  0  0  0  0  0  0  0  0  0
   10.8681    7.1550    0.0000 H   0  0  0  0  0  0  0  0  0  0  0  0
   18.6623   -1.9650    0.0000 H   0  0  0  0  0  0  0  0  0  0  0  0
    9.4651    7.9650    0.0000 H   0  0  0  0  0  0  0  0  0  0  0  0
   18.6623   -0.3450    0.0000 H   0  0  0  0  0  0  0  0  0  0  0  0
    8.2006    6.3700    0.0000 H   0  0  0  0  0  0  0  0  0  0  0  0
    8.9976    6.3700    0.0000 H   0  0  0  0  0  0  0  0  0  0  0  0
   16.6488   -0.0473    0.0000 H   0  0  0  0  0  0  0  0  0  0  0  0
   17.0473   -0.7376    0.0000 H   0  0  0  0  0  0  0  0  0  0  0  0
    7.7331    7.9650    0.0000 H   0  0  0  0  0  0  0  0  0  0  0  0
   17.7963    1.1550    0.0000 H   0  0  0  0  0  0  0  0  0  0  0  0
    6.3301    7.1550    0.0000 H   0  0  0  0  0  0  0  0  0  0  0  0
   16.3933    1.9650    0.0000 H   0  0  0  0  0  0  0  0  0  0  0  0
    7.0791    5.2624    0.0000 H   0  0  0  0  0  0  0  0  0  0  0  0
    7.4776    5.9527    0.0000 H   0  0  0  0  0  0  0  0  0  0  0  0
   15.1288    0.3701    0.0000 H   0  0  0  0  0  0  0  0  0  0  0  0
   15.9258    0.3701    0.0000 H   0  0  0  0  0  0  0  0  0  0  0  0
    5.6910    5.8819    0.0000 H   0  0  0  0  0  0  0  0  0  0  0  0
    5.4641    5.0350    0.0000 H   0  0  0  0  0  0  0  0  0  0  0  0
    6.3110    4.8081    0.0000 H   0  0  0  0  0  0  0  0  0  0  0  0
   14.9713    1.8819    0.0000 H   0  0  0  0  0  0  0  0  0  0  0  0
   14.1244    1.6550    0.0000 H   0  0  0  0  0  0  0  0  0  0  0  0
   14.3513    0.8081    0.0000 H   0  0  0  0  0  0  0  0  0  0  0  0
  1 14  1  0  0  0  0
  1 15  1  0  0  0  0
 15  2  1  1  0  0  0
  2 17  1  0  0  0  0
 11  3  1  1  0  0  0
  3 63  1  0  0  0  0
 12  4  1  1  0  0  0
  4 64  1  0  0  0  0
 13  5  1  6  0  0  0
  5 65  1  0  0  0  0
  6 16  1  0  0  0  0
  6 69  1  0  0  0  0
  7 18  1  0  0  0  0
  7 21  1  0  0  0  0
  8 19  1  0  0  0  0
  8 30  1  0  0  0  0
  9 21  2  0  0  0  0
 10 30  2  0  0  0  0
 11 12  1  0  0  0  0
 11 13  1  0  0  0  0
 11 56  1  0  0  0  0
 12 14  1  0  0  0  0
 12 57  1  0  0  0  0
 13 15  1  0  0  0  0
 13 58  1  0  0  0  0
 14 16  1  1  0  0  0
 14 59  1  0  0  0  0
 15 60  1  0  0  0  0
 16 61  1  0  0  0  0
 16 62  1  0  0  0  0
 17 18  1  0  0  0  0
 17 66  1  0  0  0  0
 17 67  1  0  0  0  0
 18 19  1  0  0  0  0
 18 68  1  0  0  0  0
 19 70  1  0  0  0  0
 19 71  1  0  0  0  0
 20 21  1  0  0  0  0
 20 22  1  0  0  0  0
 20 72  1  0  0  0  0
 20 73  1  0  0  0  0
 22 23  1  0  0  0  0
 22 74  1  0  0  0  0
 22 75  1  0  0  0  0
 23 24  1  0  0  0  0
 23 76  1  0  0  0  0
 23 77  1  0  0  0  0
 24 27  1  0  0  0  0
 24 78  1  0  0  0  0
 24 79  1  0  0  0  0
 25 26  1  0  0  0  0
 25 28  1  0  0  0  0
 25 80  1  0  0  0  0
 25 81  1  0  0  0  0
 26 29  1  0  0  0  0
 26 82  1  0  0  0  0
 26 83  1  0  0  0  0
 27 32  1  0  0  0  0
 27 84  1  0  0  0  0
 27 85  1  0  0  0  0
 28 30  1  0  0  0  0
 28 86  1  0  0  0  0
 28 87  1  0  0  0  0
 29 31  1  0  0  0  0
 29 88  1  0  0  0  0
 29 89  1  0  0  0  0
 31 33  1  0  0  0  0
 31 90  1  0  0  0  0
 31 91  1  0  0  0  0
 32 34  1  0  0  0  0
 32 92  1  0  0  0  0
 32 93  1  0  0  0  0
 33 35  1  0  0  0  0
 33 94  1  0  0  0  0
 33 95  1  0  0  0  0
 34 36  1  0  0  0  0
 34 96  1  0  0  0  0
 34 97  1  0  0  0  0
 35 37  1  0  0  0  0
 35 98  1  0  0  0  0
 35 99  1  0  0  0  0
 36 38  2  0  0  0  0
 36100  1  0  0  0  0
 37 39  2  0  0  0  0
 37101  1  0  0  0  0
 38 40  1  0  0  0  0
 38102  1  0  0  0  0
 39 41  1  0  0  0  0
 39103  1  0  0  0  0
 40 42  1  0  0  0  0
 40104  1  0  0  0  0
 40105  1  0  0  0  0
 41 43  1  0  0  0  0
 41106  1  0  0  0  0
 41107  1  0  0  0  0
 42 44  2  0  0  0  0
 42108  1  0  0  0  0
 43 45  2  0  0  0  0
 43109  1  0  0  0  0
 44 46  1  0  0  0  0
 44110  1  0  0  0  0
 45 47  1  0  0  0  0
 45111  1  0  0  0  0
 46 48  1  0  0  0  0
 46112  1  0  0  0  0
 46113  1  0  0  0  0
 47 49  1  0  0  0  0
 47114  1  0  0  0  0
 47115  1  0  0  0  0
 48 50  2  0  0  0  0
 48116  1  0  0  0  0
 49 51  2  0  0  0  0
 49117  1  0  0  0  0
 50 52  1  0  0  0  0
 50118  1  0  0  0  0
 51 53  1  0  0  0  0
 51119  1  0  0  0  0
 52 54  1  0  0  0  0
 52120  1  0  0  0  0
 52121  1  0  0  0  0
 53 55  1  0  0  0  0
 53122  1  0  0  0  0
 53123  1  0  0  0  0
 54124  1  0  0  0  0
 54125  1  0  0  0  0
 54126  1  0  0  0  0
 55127  1  0  0  0  0
 55128  1  0  0  0  0
 55129  1  0  0  0  0
M  END
> <PUBCHEM_COMPOUND_CID>
5282287

> <PUBCHEM_COMPOUND_CANONICALIZED>
1

> <PUBCHEM_CACTVS_COMPLEXITY>
1130

> <PUBCHEM_CACTVS_HBOND_ACCEPTOR>
10

> <PUBCHEM_CACTVS_HBOND_DONOR>
4

> <PUBCHEM_CACTVS_ROTATABLE_BOND>
35

> <PUBCHEM_CACTVS_SUBSKEYS>
AAADcfB8PAAAAAAAAAAAAAAAAAAAAAAAAAAkAAAAAAAAAAAAAAAAGgAACAAACBSwgAMCCAAABgCIACDSCAAAAAAgAAAICAEAAAgREBIAAQAiQAAFgAAPAAPI6KyAAAAAAAAAAAAAAAAAAAAAAAAAAAAAAA==

> <PUBCHEM_IUPAC_OPENEYE_NAME>
[2-[(9Z,12Z,15Z)-octadeca-9,12,15-trienoyl]oxy-3-[(2R,3R,4S,5R,6R)-3,4,5-trihydroxy-6-(hydroxymethyl)tetrahydropyran-2-yl]oxy-propyl] (9Z,12Z,15Z)-octadeca-9,12,15-trienoate

> <PUBCHEM_IUPAC_CAS_NAME>
(9Z,12Z,15Z)-octadeca-9,12,15-trienoic acid [2-[(9Z,12Z,15Z)-1-oxooctadeca-9,12,15-trienoxy]-3-[[(2R,3R,4S,5R,6R)-3,4,5-trihydroxy-6-(hydroxymethyl)-2-oxanyl]oxy]propyl] ester

> <PUBCHEM_IUPAC_NAME>
[2-[(9Z,12Z,15Z)-octadeca-9,12,15-trienoyl]oxy-3-[(2R,3R,4S,5R,6R)-3,4,5-trihydroxy-6-(hydroxymethyl)oxan-2-yl]oxypropyl] (9Z,12Z,15Z)-octadeca-9,12,15-trienoate

> <PUBCHEM_IUPAC_SYSTEMATIC_NAME>
[3-[(2R,3R,4S,5R,6R)-6-(hydroxymethyl)-3,4,5-tris(oxidanyl)oxan-2-yl]oxy-2-[(9Z,12Z,15Z)-octadeca-9,12,15-trienoyl]oxy-propyl] (9Z,12Z,15Z)-octadeca-9,12,15-trienoate

> <PUBCHEM_IUPAC_TRADITIONAL_NAME>
(9Z,12Z,15Z)-octadeca-9,12,15-trienoic acid [2-[(9Z,12Z,15Z)-octadeca-9,12,15-trienoyl]oxy-3-[(2R,3R,4S,5R,6R)-3,4,5-trihydroxy-6-methylol-tetrahydropyran-2-yl]oxy-propyl] ester

> <PUBCHEM_IUPAC_INCHI>
InChI=1S/C45H74O10/c1-3-5-7-9-11-13-15-17-19-21-23-25-27-29-31-33-40(47)52-36-38(37-53-45-44(51)43(50)42(49)39(35-46)55-45)54-41(48)34-32-30-28-26-24-22-20-18-16-14-12-10-8-6-4-2/h5-8,11-14,17-20,38-39,42-46,49-51H,3-4,9-10,15-16,21-37H2,1-2H3/b7-5-,8-6-,13-11-,14-12-,19-17-,20-18-/t38?,39-,42+,43+,44-,45-/m1/s1

> <PUBCHEM_IUPAC_INCHIKEY>
QUZHZFAQJATMCA-VLTMIGNISA-N

> <PUBCHEM_XLOGP3_AA>
10

> <PUBCHEM_EXACT_MASS>
774.528199

> <PUBCHEM_MOLECULAR_FORMULA>
C45H74O10

> <PUBCHEM_MOLECULAR_WEIGHT>
775.06306

> <PUBCHEM_OPENEYE_CAN_SMILES>
CCC=CCC=CCC=CCCCCCCCC(=O)OCC(COC1C(C(C(C(O1)CO)O)O)O)OC(=O)CCCCCCCC=CCC=CCC=CCC

> <PUBCHEM_OPENEYE_ISO_SMILES>
CC/C=C\C/C=C\C/C=C\CCCCCCCC(=O)OCC(CO[C@H]1[C@@H]([C@H]([C@H]([C@H](O1)CO)O)O)O)OC(=O)CCCCCCC/C=C\C/C=C\C/C=C\CC

> <PUBCHEM_CACTVS_TPSA>
152

> <PUBCHEM_MONOISOTOPIC_WEIGHT>
774.528199

> <PUBCHEM_TOTAL_CHARGE>
0

> <PUBCHEM_HEAVY_ATOM_COUNT>
55

> <PUBCHEM_ATOM_DEF_STEREO_COUNT>
5

> <PUBCHEM_ATOM_UDEF_STEREO_COUNT>
1

> <PUBCHEM_BOND_DEF_STEREO_COUNT>
6

> <PUBCHEM_BOND_UDEF_STEREO_COUNT>
0

> <PUBCHEM_ISOTOPIC_ATOM_COUNT>
0

> <PUBCHEM_COMPONENT_COUNT>
1

> <PUBCHEM_CACTVS_TAUTO_COUNT>
1

> <PUBCHEM_COORDINATE_TYPE>
1
5
255

> <PUBCHEM_BONDANNOTATIONS>
14  16  5
18  68  3
15  2  5
11  3  5
12  4  5
13  5  6

$$$$

