656688
  -OEChem-07051213033D

 33 34  0     0  0  0  0  0  0999 V2000
   -2.9895   -2.6315   -1.4301 Br  0  0  0  0  0  0  0  0  0  0  0  0
   -4.6075   -1.1267    0.7739 O   0  0  0  0  0  0  0  0  0  0  0  0
    4.7549   -1.8263    0.5942 O   0  0  0  0  0  0  0  0  0  0  0  0
    0.2738    1.4583   -0.3861 C   0  0  0  0  0  0  0  0  0  0  0  0
   -1.0779    0.7344   -0.0716 C   0  0  0  0  0  0  0  0  0  0  0  0
    1.4580    0.5901   -0.1272 C   0  0  0  0  0  0  0  0  0  0  0  0
    0.1146    1.9690   -1.8680 C   0  0  0  0  0  0  0  0  0  0  0  0
    0.4338    2.7806    0.4437 C   0  0  0  0  0  0  0  0  0  0  0  0
   -1.3547   -0.4005   -0.7670 C   0  0  0  0  0  0  0  0  0  0  0  0
   -1.8781    1.2927    0.8751 C   0  0  0  0  0  0  0  0  0  0  0  0
    1.6872    0.0870    1.1533 C   0  0  0  0  0  0  0  0  0  0  0  0
    2.3367    0.2812   -1.1656 C   0  0  0  0  0  0  0  0  0  0  0  0
   -2.5593   -1.0453   -0.4859 C   0  0  0  0  0  0  0  0  0  0  0  0
   -3.0825    0.6480    1.1562 C   0  0  0  0  0  0  0  0  0  0  0  0
    2.7951   -0.7250    1.3956 C   0  0  0  0  0  0  0  0  0  0  0  0
    3.4447   -0.5309   -0.9234 C   0  0  0  0  0  0  0  0  0  0  0  0
   -3.4231   -0.5210    0.4759 C   0  0  0  0  0  0  0  0  0  0  0  0
    3.6739   -1.0341    0.3572 C   0  0  0  0  0  0  0  0  0  0  0  0
    0.9676    2.5900   -2.1682 H   0  0  0  0  0  0  0  0  0  0  0  0
    0.0292    1.1511   -2.5927 H   0  0  0  0  0  0  0  0  0  0  0  0
   -0.7867    2.5861   -1.9770 H   0  0  0  0  0  0  0  0  0  0  0  0
    1.3767    3.2783    0.1802 H   0  0  0  0  0  0  0  0  0  0  0  0
   -0.3665    3.5021    0.2379 H   0  0  0  0  0  0  0  0  0  0  0  0
    0.4746    2.6052    1.5251 H   0  0  0  0  0  0  0  0  0  0  0  0
   -0.6769   -0.8080   -1.5097 H   0  0  0  0  0  0  0  0  0  0  0  0
   -1.6684    2.1914    1.4377 H   0  0  0  0  0  0  0  0  0  0  0  0
    1.0151    0.3104    1.9774 H   0  0  0  0  0  0  0  0  0  0  0  0
    2.2058    0.6465   -2.1782 H   0  0  0  0  0  0  0  0  0  0  0  0
   -3.7509    1.0609    1.9071 H   0  0  0  0  0  0  0  0  0  0  0  0
    2.9621   -1.1115    2.3974 H   0  0  0  0  0  0  0  0  0  0  0  0
    4.1262   -0.7683   -1.7358 H   0  0  0  0  0  0  0  0  0  0  0  0
   -4.6921   -1.9201    0.2174 H   0  0  0  0  0  0  0  0  0  0  0  0
    4.7575   -2.0834    1.5323 H   0  0  0  0  0  0  0  0  0  0  0  0
  1 13  1  0  0  0  0
  2 17  1  0  0  0  0
  2 32  1  0  0  0  0
  3 18  1  0  0  0  0
  3 33  1  0  0  0  0
  4  5  1  0  0  0  0
  4  6  1  0  0  0  0
  4  7  1  0  0  0  0
  4  8  1  0  0  0  0
  5  9  2  0  0  0  0
  5 10  1  0  0  0  0
  6 11  2  0  0  0  0
  6 12  1  0  0  0  0
  7 19  1  0  0  0  0
  7 20  1  0  0  0  0
  7 21  1  0  0  0  0
  8 22  1  0  0  0  0
  8 23  1  0  0  0  0
  8 24  1  0  0  0  0
  9 13  1  0  0  0  0
  9 25  1  0  0  0  0
 10 14  2  0  0  0  0
 10 26  1  0  0  0  0
 11 15  1  0  0  0  0
 11 27  1  0  0  0  0
 12 16  2  0  0  0  0
 12 28  1  0  0  0  0
 13 17  2  0  0  0  0
 14 17  1  0  0  0  0
 14 29  1  0  0  0  0
 15 18  2  0  0  0  0
 15 30  1  0  0  0  0
 16 18  1  0  0  0  0
 16 31  1  0  0  0  0
M  END
> <PUBCHEM_COMPOUND_CID>
656688

> <PUBCHEM_CONFORMER_RMSD>
0.6

> <PUBCHEM_CONFORMER_DIVERSEORDER>
1
4
7
2
3
8
6
5

> <PUBCHEM_MMFF94_PARTIAL_CHARGES>
25
1 -0.11
10 -0.15
11 -0.15
12 -0.15
13 0.11
14 -0.15
15 -0.15
16 -0.15
17 0.08
18 0.08
2 -0.53
25 0.15
26 0.15
27 0.15
28 0.15
29 0.15
3 -0.53
30 0.15
31 0.15
32 0.45
33 0.45
4 0.29
5 -0.14
6 -0.14
9 -0.15

> <PUBCHEM_EFFECTIVE_ROTOR_COUNT>
2

> <PUBCHEM_PHARMACOPHORE_FEATURES>
6
1 1 hydrophobe
1 2 donor
1 3 donor
3 4 7 8 hydrophobe
6 5 9 10 13 14 17 rings
6 6 11 12 15 16 18 rings

> <PUBCHEM_HEAVY_ATOM_COUNT>
18

> <PUBCHEM_ATOM_DEF_STEREO_COUNT>
0

> <PUBCHEM_ATOM_UDEF_STEREO_COUNT>
0

> <PUBCHEM_BOND_DEF_STEREO_COUNT>
0

> <PUBCHEM_BOND_UDEF_STEREO_COUNT>
0

> <PUBCHEM_ISOTOPIC_ATOM_COUNT>
0

> <PUBCHEM_COMPONENT_COUNT>
1

> <PUBCHEM_CACTVS_TAUTO_COUNT>
6

> <PUBCHEM_CONFORMER_ID>
000A053000000001

> <PUBCHEM_MMFF94_ENERGY>
65.4475

> <PUBCHEM_FEATURE_SELFOVERLAP>
30.446

> <PUBCHEM_SHAPE_FINGERPRINT>
10366900 7 16660366965157882443
10618630 7 18342738559051511658
11046707 91 18341613771514805514
11578080 2 18271262546246057109
12251169 10 17676207969978861768
12346177 29 18040725761954463487
12403259 327 16877942741452517299
12553582 1 18410293592533230366
12633257 1 17022904540443878219
12714826 92 18200319934302018332
12892183 10 16588581023606829018
13764800 53 8357966827300791701
13911987 19 16412627131839940956
14178342 30 17894625959432621375
15375462 189 18340199704987951868
15534591 1 10159702434049780669
15653759 3 17095240336735271274
16752209 62 18339091483540909565
16945 1 18187926226486014213
17349148 13 17749108847319038679
17804303 29 17967523593011835097
1813 80 18200580484345509374
18186145 218 14261344769512475676
19049666 15 16372674391979003276
19422 9 18272639177826661656
200 152 16988838423641698592
20291156 8 18413671300822437771
20361792 2 18131355197753417565
20600515 1 17531235167577162641
21421861 104 17612031473942814607
21650355 55 18114466742174479633
21713013 43 16200147664712528131
21731516 1 18342182137158203999
22112679 90 18339349833876031180
2255824 54 18056189172632581676
22646028 28 18342457045135466722
23184049 29 18042407924365926887
232386 152 18334288743282743885
23402539 116 17846217817184250570
23419403 2 17105152326928348777
23559900 14 17386271117432029868
23598288 3 17913503607803096376
25222932 49 16383117124445877807
465052 167 18199452313013357883
568465 68 16732989730080119750
7364860 26 18044369431266459832
7970288 3 18272367572675157835
83771 10 18343862234054603072

> <PUBCHEM_SHAPE_MULTIPOLES>
364.64
7.45
2.45
1.5
0.89
0.06
-0.29
-5.71
1.94
-0.72
-0.57
0.15
0.09
-1.27

> <PUBCHEM_SHAPE_SELFOVERLAP>
773.298

> <PUBCHEM_SHAPE_VOLUME>
212.3

> <PUBCHEM_COORDINATE_TYPE>
2
5
10

$$$$

