9838356
  -OEChem-07051213053D

 32 34  0     1  0  0  0  0  0999 V2000
    1.2586    2.0927   -0.1219 O   0  0  0  0  0  0  0  0  0  0  0  0
   -0.1596   -1.7463   -0.4770 O   0  0  0  0  0  0  0  0  0  0  0  0
    2.2301   -2.6686   -0.1068 O   0  0  0  0  0  0  0  0  0  0  0  0
    5.7043    0.5259    0.3864 O   0  0  0  0  0  0  0  0  0  0  0  0
   -6.0871   -0.4078    0.5846 O   0  0  0  0  0  0  0  0  0  0  0  0
   -0.6412    0.6260   -0.5764 C   0  0  1  0  0  0  0  0  0  0  0  0
   -0.0817    1.7725    0.2662 C   0  0  0  0  0  0  0  0  0  0  0  0
    0.2426   -0.5925   -0.3788 C   0  0  0  0  0  0  0  0  0  0  0  0
   -2.0972    0.3498   -0.2662 C   0  0  0  0  0  0  0  0  0  0  0  0
    1.6732   -0.3110   -0.1286 C   0  0  0  0  0  0  0  0  0  0  0  0
    2.1029    1.0164   -0.0349 C   0  0  0  0  0  0  0  0  0  0  0  0
    2.5935   -1.3579   -0.0284 C   0  0  0  0  0  0  0  0  0  0  0  0
   -3.0552    0.4520   -1.2738 C   0  0  0  0  0  0  0  0  0  0  0  0
   -2.4777   -0.0066    1.0268 C   0  0  0  0  0  0  0  0  0  0  0  0
    3.4608    1.2967    0.1245 C   0  0  0  0  0  0  0  0  0  0  0  0
    3.9473   -1.0717    0.1511 C   0  0  0  0  0  0  0  0  0  0  0  0
    4.3808    0.2525    0.2224 C   0  0  0  0  0  0  0  0  0  0  0  0
   -4.3966    0.1977   -0.9877 C   0  0  0  0  0  0  0  0  0  0  0  0
   -3.8190   -0.2610    1.3129 C   0  0  0  0  0  0  0  0  0  0  0  0
   -4.7785   -0.1588    0.3056 C   0  0  0  0  0  0  0  0  0  0  0  0
   -0.5361    0.8891   -1.6386 H   0  0  0  0  0  0  0  0  0  0  0  0
   -0.6822    2.6777    0.1176 H   0  0  0  0  0  0  0  0  0  0  0  0
   -0.0927    1.5582    1.3433 H   0  0  0  0  0  0  0  0  0  0  0  0
   -2.7729    0.7286   -2.2860 H   0  0  0  0  0  0  0  0  0  0  0  0
   -1.7446   -0.0989    1.8233 H   0  0  0  0  0  0  0  0  0  0  0  0
    3.7960    2.3296    0.1814 H   0  0  0  0  0  0  0  0  0  0  0  0
    4.6762   -1.8750    0.2291 H   0  0  0  0  0  0  0  0  0  0  0  0
   -5.1344    0.2805   -1.7813 H   0  0  0  0  0  0  0  0  0  0  0  0
   -4.1102   -0.5401    2.3218 H   0  0  0  0  0  0  0  0  0  0  0  0
    3.0185   -3.2304   -0.0154 H   0  0  0  0  0  0  0  0  0  0  0  0
    5.8260    1.4906    0.4144 H   0  0  0  0  0  0  0  0  0  0  0  0
   -6.6102   -0.2905   -0.2271 H   0  0  0  0  0  0  0  0  0  0  0  0
  1  7  1  0  0  0  0
  1 11  1  0  0  0  0
  2  8  2  0  0  0  0
  3 12  1  0  0  0  0
  3 30  1  0  0  0  0
  4 17  1  0  0  0  0
  4 31  1  0  0  0  0
  5 20  1  0  0  0  0
  5 32  1  0  0  0  0
  6  7  1  0  0  0  0
  6  8  1  0  0  0  0
  6  9  1  0  0  0  0
  6 21  1  0  0  0  0
  7 22  1  0  0  0  0
  7 23  1  0  0  0  0
  8 10  1  0  0  0  0
  9 13  2  0  0  0  0
  9 14  1  0  0  0  0
 10 11  1  0  0  0  0
 10 12  2  0  0  0  0
 11 15  2  0  0  0  0
 12 16  1  0  0  0  0
 13 18  1  0  0  0  0
 13 24  1  0  0  0  0
 14 19  2  0  0  0  0
 14 25  1  0  0  0  0
 15 17  1  0  0  0  0
 15 26  1  0  0  0  0
 16 17  2  0  0  0  0
 16 27  1  0  0  0  0
 18 20  2  0  0  0  0
 18 28  1  0  0  0  0
 19 20  1  0  0  0  0
 19 29  1  0  0  0  0
M  END
> <PUBCHEM_COMPOUND_CID>
9838356

> <PUBCHEM_CONFORMER_RMSD>
0.6

> <PUBCHEM_CONFORMER_DIVERSEORDER>
1
4
2
3
5

> <PUBCHEM_MMFF94_PARTIAL_CHARGES>
29
1 -0.36
10 0.09
11 0.08
12 0.08
13 -0.15
14 -0.15
15 -0.15
16 -0.15
17 0.08
18 -0.15
19 -0.15
2 -0.57
20 0.08
24 0.15
25 0.15
26 0.15
27 0.15
28 0.15
29 0.15
3 -0.53
30 0.45
31 0.45
32 0.45
4 -0.53
5 -0.53
6 0.2
7 0.28
8 0.42
9 -0.14

> <PUBCHEM_EFFECTIVE_ROTOR_COUNT>
1.6

> <PUBCHEM_PHARMACOPHORE_FEATURES>
8
1 1 acceptor
1 2 acceptor
1 3 donor
1 4 donor
1 5 donor
6 1 6 7 8 10 11 rings
6 10 11 12 15 16 17 rings
6 9 13 14 18 19 20 rings

> <PUBCHEM_HEAVY_ATOM_COUNT>
20

> <PUBCHEM_ATOM_DEF_STEREO_COUNT>
0

> <PUBCHEM_ATOM_UDEF_STEREO_COUNT>
1

> <PUBCHEM_BOND_DEF_STEREO_COUNT>
0

> <PUBCHEM_BOND_UDEF_STEREO_COUNT>
0

> <PUBCHEM_ISOTOPIC_ATOM_COUNT>
0

> <PUBCHEM_COMPONENT_COUNT>
1

> <PUBCHEM_CACTVS_TAUTO_COUNT>
66

> <PUBCHEM_CONFORMER_ID>
00961F1400000001

> <PUBCHEM_MMFF94_ENERGY>
58.6085

> <PUBCHEM_FEATURE_SELFOVERLAP>
40.624

> <PUBCHEM_SHAPE_FINGERPRINT>
10 15 18130515124633108528
11471102 20 18410296912991037636
11578080 2 13110135088620170151
11796584 16 16630811027504226434
12011746 2 18411975871393938782
12107183 9 17467338359283014075
12236239 1 17458344148056737717
12251169 10 18335417954656792359
12596602 18 17240768332991885795
13140716 1 18192435165068866176
13583140 156 16844752866334325238
13862211 1 18409455803897185342
14252887 29 18187640345104771670
14386348 63 18060416924048822379
14863182 85 18409158935847506566
15196674 1 18337674234242816564
15375358 24 18131351920661689650
15375462 189 18040158430570066505
16945 1 18409168814150720692
18785283 64 18056756533655020724
19141452 34 18272364236281341379
19489759 90 16558754524746596021
19862831 5 13039181503135052421
200 152 18261116279230753133
20279233 1 17989201555780679251
20645477 70 18340490057514565278
21033648 29 18270982183765680229
21267235 1 18337387236418250214
21641784 216 18129364025684077716
22224240 67 18335427824971602402
22854114 59 18410293613981335561
23184049 59 18334573551095962990
23402539 116 14345799340105681333
23557571 272 17274826878315166901
23559900 14 17346038990744962874
26918003 58 18343300358011811121
2748010 2 18048886479042576140
33824 294 18412828010217521546
34797466 226 16558735824158569166
42630746 31 18334573542580050374
465052 167 17917991659501162696
5104073 3 18266186208898164144
542803 24 17095243618185204749
602551 16 16558744581533406899
7495541 125 17560512915592749381
77492 1 17458346338505999997

> <PUBCHEM_SHAPE_MULTIPOLES>
382.24
10.94
1.72
0.95
4.21
0.36
0.02
0.68
1.72
-1.7
-0.07
1.05
-0.01
0.42

> <PUBCHEM_SHAPE_SELFOVERLAP>
850.125

> <PUBCHEM_SHAPE_VOLUME>
202

> <PUBCHEM_COORDINATE_TYPE>
2
5
10

$$$$

