6525
  -OEChem-06261201223D

 21 21  0     0  0  0  0  0  0999 V2000
    1.4561    1.6921    0.0005 O   0  0  0  0  0  0  0  0  0  0  0  0
    0.5892    0.5567    0.0001 C   0  0  0  0  0  0  0  0  0  0  0  0
   -0.2800    0.6091   -1.2665 C   0  0  0  0  0  0  0  0  0  0  0  0
   -0.2798    0.6083    1.2668 C   0  0  0  0  0  0  0  0  0  0  0  0
   -1.4028   -0.4284   -1.2637 C   0  0  0  0  0  0  0  0  0  0  0  0
   -1.4027   -0.4292    1.2634 C   0  0  0  0  0  0  0  0  0  0  0  0
   -2.2527   -0.3331    0.0000 C   0  0  0  0  0  0  0  0  0  0  0  0
    1.4398   -0.6476   -0.0003 C   0  0  0  0  0  0  0  0  0  0  0  0
    2.1327   -1.6279   -0.0004 C   0  0  0  0  0  0  0  0  0  0  0  0
    0.3376    0.4786   -2.1650 H   0  0  0  0  0  0  0  0  0  0  0  0
   -0.7200    1.6116   -1.3587 H   0  0  0  0  0  0  0  0  0  0  0  0
   -0.7199    1.6107    1.3592 H   0  0  0  0  0  0  0  0  0  0  0  0
    0.3395    0.4787    2.1641 H   0  0  0  0  0  0  0  0  0  0  0  0
   -0.9804   -1.4369   -1.3467 H   0  0  0  0  0  0  0  0  0  0  0  0
   -2.0386   -0.2804   -2.1441 H   0  0  0  0  0  0  0  0  0  0  0  0
   -2.0383   -0.2817    2.1440 H   0  0  0  0  0  0  0  0  0  0  0  0
   -0.9804   -1.4378    1.3458 H   0  0  0  0  0  0  0  0  0  0  0  0
   -2.7980    0.6188    0.0003 H   0  0  0  0  0  0  0  0  0  0  0  0
   -3.0042   -1.1306   -0.0002 H   0  0  0  0  0  0  0  0  0  0  0  0
    1.9445    1.7024   -0.8407 H   0  0  0  0  0  0  0  0  0  0  0  0
    2.7469   -2.4979   -0.0004 H   0  0  0  0  0  0  0  0  0  0  0  0
  1  2  1  0  0  0  0
  1 20  1  0  0  0  0
  2  3  1  0  0  0  0
  2  4  1  0  0  0  0
  2  8  1  0  0  0  0
  3  5  1  0  0  0  0
  3 10  1  0  0  0  0
  3 11  1  0  0  0  0
  4  6  1  0  0  0  0
  4 12  1  0  0  0  0
  4 13  1  0  0  0  0
  5  7  1  0  0  0  0
  5 14  1  0  0  0  0
  5 15  1  0  0  0  0
  6  7  1  0  0  0  0
  6 16  1  0  0  0  0
  6 17  1  0  0  0  0
  7 18  1  0  0  0  0
  7 19  1  0  0  0  0
  8  9  3  0  0  0  0
  9 21  1  0  0  0  0
M  END
> <PUBCHEM_COMPOUND_CID>
6525

> <PUBCHEM_CONFORMER_RMSD>
0.4

> <PUBCHEM_CONFORMER_DIVERSEORDER>
1
2
4
3

> <PUBCHEM_MMFF94_PARTIAL_CHARGES>
6
1 -0.68
2 0.48
20 0.4
21 0.18
8 -0.2
9 -0.18

> <PUBCHEM_EFFECTIVE_ROTOR_COUNT>
1.2

> <PUBCHEM_PHARMACOPHORE_FEATURES>
4
1 1 acceptor
1 1 donor
1 9 hydrophobe
6 2 3 4 5 6 7 rings

> <PUBCHEM_HEAVY_ATOM_COUNT>
9

> <PUBCHEM_ATOM_DEF_STEREO_COUNT>
0

> <PUBCHEM_ATOM_UDEF_STEREO_COUNT>
0

> <PUBCHEM_BOND_DEF_STEREO_COUNT>
0

> <PUBCHEM_BOND_UDEF_STEREO_COUNT>
0

> <PUBCHEM_ISOTOPIC_ATOM_COUNT>
0

> <PUBCHEM_COMPONENT_COUNT>
1

> <PUBCHEM_CACTVS_TAUTO_COUNT>
1

> <PUBCHEM_CONFORMER_ID>
0000197D00000001

> <PUBCHEM_MMFF94_ENERGY>
7.5538

> <PUBCHEM_FEATURE_SELFOVERLAP>
20.297

> <PUBCHEM_SHAPE_FINGERPRINT>
12423570 1 4707331173502247084
13024252 1 17055533828088061482
137420 1 17123449407062734588
16945 1 18338517439090818181
18185500 45 17531257114427157655
19837323 101 15122088766966336118
20653091 64 16446473350669111887
21922407 69 18042116579243289699
23552333 60 17895480215352619151
29004967 10 18413394249851803146
369184 2 15142395617302847638
5084963 1 15575813153885580357
54338 74 14493052551256643223

> <PUBCHEM_SHAPE_MULTIPOLES>
179.35
2.63
1.36
1.34
0.23
0.17
0
-1.09
0
0.84
0
-0.6
0.05
0

> <PUBCHEM_SHAPE_SELFOVERLAP>
353.256

> <PUBCHEM_SHAPE_VOLUME>
105.8

> <PUBCHEM_COORDINATE_TYPE>
2
5
10

$$$$

