23724609
  -OEChem-07051213082D

124125  0     1  0  0  0  0  0999 V2000
    5.4641   -0.6550    0.0000 O   0  0  0  0  0  0  0  0  0  0  0  0
    4.5981    0.8450    0.0000 O   0  0  0  0  0  0  0  0  0  0  0  0
    4.5981   -3.1550    0.0000 O   0  0  0  0  0  0  0  0  0  0  0  0
    2.8660   -0.1550    0.0000 O   0  0  0  0  0  0  0  0  0  0  0  0
    2.8660   -2.1550    0.0000 O   0  0  0  0  0  0  0  0  0  0  0  0
    5.4641    3.3450    0.0000 O   0  0  0  0  0  0  0  0  0  0  0  0
   25.3827   -0.1550    0.0000 C   0  0  0  0  0  0  0  0  0  0  0  0
   26.2487   -0.6550    0.0000 C   0  0  0  0  0  0  0  0  0  0  0  0
   27.1147   -0.1550    0.0000 C   0  0  0  0  0  0  0  0  0  0  0  0
   25.3827    0.8450    0.0000 C   0  0  0  0  0  0  0  0  0  0  0  0
    3.7320   -1.6550    0.0000 C   0  0  2  0  0  0  0  0  0  0  0  0
    4.5981   -2.1550    0.0000 C   0  0  1  0  0  0  0  0  0  0  0  0
    3.7320   -0.6550    0.0000 C   0  0  1  0  0  0  0  0  0  0  0  0
   27.1147    0.8450    0.0000 C   0  0  0  0  0  0  0  0  0  0  0  0
   26.2487    1.3450    0.0000 C   0  0  0  0  0  0  0  0  0  0  0  0
    5.4641   -1.6550    0.0000 C   0  0  2  0  0  0  0  0  0  0  0  0
    4.5981   -0.1550    0.0000 C   0  0  1  0  0  0  0  0  0  0  0  0
   24.8827   -1.0210    0.0000 C   0  0  0  0  0  0  0  0  0  0  0  0
   24.3827   -0.1550    0.0000 C   0  0  0  0  0  0  0  0  0  0  0  0
   24.5167    1.3450    0.0000 C   0  0  0  0  0  0  0  0  0  0  0  0
   26.2487    2.3450    0.0000 C   0  0  0  0  0  0  0  0  0  0  0  0
    6.3301   -2.1550    0.0000 C   0  0  0  0  0  0  0  0  0  0  0  0
    5.4641    1.3450    0.0000 C   0  0  2  0  0  0  0  0  0  0  0  0
    5.4641    2.3450    0.0000 C   0  0  0  0  0  0  0  0  0  0  0  0
   23.6506    0.8450    0.0000 C   0  0  0  0  0  0  0  0  0  0  0  0
    6.3301    0.8450    0.0000 C   0  0  0  0  0  0  0  0  0  0  0  0
    6.4641    2.3450    0.0000 C   0  0  0  0  0  0  0  0  0  0  0  0
    4.4641    2.3450    0.0000 C   0  0  0  0  0  0  0  0  0  0  0  0
    5.4641   -3.6550    0.0000 C   0  0  0  0  0  0  0  0  0  0  0  0
    2.0000   -0.6550    0.0000 C   0  0  0  0  0  0  0  0  0  0  0  0
   22.7846    1.3450    0.0000 C   0  0  0  0  0  0  0  0  0  0  0  0
    7.1962    1.3450    0.0000 C   0  0  0  0  0  0  0  0  0  0  0  0
   22.7846    2.3450    0.0000 C   0  0  0  0  0  0  0  0  0  0  0  0
   21.9186    0.8450    0.0000 C   0  0  0  0  0  0  0  0  0  0  0  0
    8.0622    0.8450    0.0000 C   0  0  0  0  0  0  0  0  0  0  0  0
    8.0622   -0.1550    0.0000 C   0  0  0  0  0  0  0  0  0  0  0  0
    8.9282    1.3450    0.0000 C   0  0  0  0  0  0  0  0  0  0  0  0
   21.0526    1.3450    0.0000 C   0  0  0  0  0  0  0  0  0  0  0  0
   20.1865    0.8450    0.0000 C   0  0  0  0  0  0  0  0  0  0  0  0
    9.7942    0.8450    0.0000 C   0  0  0  0  0  0  0  0  0  0  0  0
   19.3205    1.3450    0.0000 C   0  0  0  0  0  0  0  0  0  0  0  0
   10.6603    1.3450    0.0000 C   0  0  0  0  0  0  0  0  0  0  0  0
   19.3205    2.3450    0.0000 C   0  0  0  0  0  0  0  0  0  0  0  0
   11.5263    0.8450    0.0000 C   0  0  0  0  0  0  0  0  0  0  0  0
   18.4545    0.8450    0.0000 C   0  0  0  0  0  0  0  0  0  0  0  0
   11.5263   -0.1550    0.0000 C   0  0  0  0  0  0  0  0  0  0  0  0
   12.3923    1.3450    0.0000 C   0  0  0  0  0  0  0  0  0  0  0  0
   17.5885    1.3450    0.0000 C   0  0  0  0  0  0  0  0  0  0  0  0
   13.2583    0.8450    0.0000 C   0  0  0  0  0  0  0  0  0  0  0  0
   16.7224    0.8450    0.0000 C   0  0  0  0  0  0  0  0  0  0  0  0
   14.1244    1.3450    0.0000 C   0  0  0  0  0  0  0  0  0  0  0  0
   15.8564    1.3450    0.0000 C   0  0  0  0  0  0  0  0  0  0  0  0
   14.9904    0.8450    0.0000 C   0  0  0  0  0  0  0  0  0  0  0  0
   14.9904   -0.1550    0.0000 C   0  0  0  0  0  0  0  0  0  0  0  0
   25.8502   -1.1300    0.0000 H   0  0  0  0  0  0  0  0  0  0  0  0
   26.6472   -1.1300    0.0000 H   0  0  0  0  0  0  0  0  0  0  0  0
   27.3268   -0.7376    0.0000 H   0  0  0  0  0  0  0  0  0  0  0  0
   27.7253   -0.0473    0.0000 H   0  0  0  0  0  0  0  0  0  0  0  0
    3.7320   -2.2750    0.0000 H   0  0  0  0  0  0  0  0  0  0  0  0
    5.1350   -2.4650    0.0000 H   0  0  0  0  0  0  0  0  0  0  0  0
    3.7320   -0.0350    0.0000 H   0  0  0  0  0  0  0  0  0  0  0  0
   27.7253    0.7373    0.0000 H   0  0  0  0  0  0  0  0  0  0  0  0
   27.3268    1.4276    0.0000 H   0  0  0  0  0  0  0  0  0  0  0  0
    6.0010   -1.3450    0.0000 H   0  0  0  0  0  0  0  0  0  0  0  0
    4.0611    0.1550    0.0000 H   0  0  0  0  0  0  0  0  0  0  0  0
   24.3827    0.4650    0.0000 H   0  0  0  0  0  0  0  0  0  0  0  0
   23.7627   -0.1550    0.0000 H   0  0  0  0  0  0  0  0  0  0  0  0
   24.3458   -0.7110    0.0000 H   0  0  0  0  0  0  0  0  0  0  0  0
   24.3827   -0.7750    0.0000 H   0  0  0  0  0  0  0  0  0  0  0  0
   24.5727   -1.5580    0.0000 H   0  0  0  0  0  0  0  0  0  0  0  0
   25.4196   -1.3310    0.0000 H   0  0  0  0  0  0  0  0  0  0  0  0
   24.5167    1.9650    0.0000 H   0  0  0  0  0  0  0  0  0  0  0  0
   26.8687    2.3450    0.0000 H   0  0  0  0  0  0  0  0  0  0  0  0
   26.2487    2.9650    0.0000 H   0  0  0  0  0  0  0  0  0  0  0  0
   25.6287    2.3450    0.0000 H   0  0  0  0  0  0  0  0  0  0  0  0
    6.0201   -2.6919    0.0000 H   0  0  0  0  0  0  0  0  0  0  0  0
    6.8671   -2.4650    0.0000 H   0  0  0  0  0  0  0  0  0  0  0  0
    6.6401   -1.6181    0.0000 H   0  0  0  0  0  0  0  0  0  0  0  0
    5.4641    0.7250    0.0000 H   0  0  0  0  0  0  0  0  0  0  0  0
    2.8660   -2.7750    0.0000 H   0  0  0  0  0  0  0  0  0  0  0  0
   23.6506    0.2250    0.0000 H   0  0  0  0  0  0  0  0  0  0  0  0
    6.3301    0.2250    0.0000 H   0  0  0  0  0  0  0  0  0  0  0  0
    4.4641    2.9650    0.0000 H   0  0  0  0  0  0  0  0  0  0  0  0
    3.8441    2.3450    0.0000 H   0  0  0  0  0  0  0  0  0  0  0  0
    4.4641    1.7250    0.0000 H   0  0  0  0  0  0  0  0  0  0  0  0
    6.4641    1.7250    0.0000 H   0  0  0  0  0  0  0  0  0  0  0  0
    7.0841    2.3450    0.0000 H   0  0  0  0  0  0  0  0  0  0  0  0
    6.4641    2.9650    0.0000 H   0  0  0  0  0  0  0  0  0  0  0  0
    5.1541   -4.1919    0.0000 H   0  0  0  0  0  0  0  0  0  0  0  0
    6.0010   -3.9650    0.0000 H   0  0  0  0  0  0  0  0  0  0  0  0
    5.7741   -3.1181    0.0000 H   0  0  0  0  0  0  0  0  0  0  0  0
    1.6900   -0.1181    0.0000 H   0  0  0  0  0  0  0  0  0  0  0  0
    1.4631   -0.9650    0.0000 H   0  0  0  0  0  0  0  0  0  0  0  0
    2.3100   -1.1919    0.0000 H   0  0  0  0  0  0  0  0  0  0  0  0
    4.9272    3.6550    0.0000 H   0  0  0  0  0  0  0  0  0  0  0  0
    7.1962    1.9650    0.0000 H   0  0  0  0  0  0  0  0  0  0  0  0
   23.4046    2.3450    0.0000 H   0  0  0  0  0  0  0  0  0  0  0  0
   22.7846    2.9650    0.0000 H   0  0  0  0  0  0  0  0  0  0  0  0
   22.1646    2.3450    0.0000 H   0  0  0  0  0  0  0  0  0  0  0  0
   21.9186    0.2250    0.0000 H   0  0  0  0  0  0  0  0  0  0  0  0
    7.4422   -0.1550    0.0000 H   0  0  0  0  0  0  0  0  0  0  0  0
    8.0622   -0.7750    0.0000 H   0  0  0  0  0  0  0  0  0  0  0  0
    8.6822   -0.1550    0.0000 H   0  0  0  0  0  0  0  0  0  0  0  0
    8.9282    1.9650    0.0000 H   0  0  0  0  0  0  0  0  0  0  0  0
   21.0526    1.9650    0.0000 H   0  0  0  0  0  0  0  0  0  0  0  0
   20.1865    0.2250    0.0000 H   0  0  0  0  0  0  0  0  0  0  0  0
    9.7942    0.2250    0.0000 H   0  0  0  0  0  0  0  0  0  0  0  0
   10.6603    1.9650    0.0000 H   0  0  0  0  0  0  0  0  0  0  0  0
   19.9405    2.3450    0.0000 H   0  0  0  0  0  0  0  0  0  0  0  0
   19.3205    2.9650    0.0000 H   0  0  0  0  0  0  0  0  0  0  0  0
   18.7005    2.3450    0.0000 H   0  0  0  0  0  0  0  0  0  0  0  0
   18.4545    0.2250    0.0000 H   0  0  0  0  0  0  0  0  0  0  0  0
   10.9063   -0.1550    0.0000 H   0  0  0  0  0  0  0  0  0  0  0  0
   11.5263   -0.7750    0.0000 H   0  0  0  0  0  0  0  0  0  0  0  0
   12.1463   -0.1550    0.0000 H   0  0  0  0  0  0  0  0  0  0  0  0
   12.3923    1.9650    0.0000 H   0  0  0  0  0  0  0  0  0  0  0  0
   17.5885    1.9650    0.0000 H   0  0  0  0  0  0  0  0  0  0  0  0
   13.2583    0.2250    0.0000 H   0  0  0  0  0  0  0  0  0  0  0  0
   16.7224    0.2250    0.0000 H   0  0  0  0  0  0  0  0  0  0  0  0
   14.1244    1.9650    0.0000 H   0  0  0  0  0  0  0  0  0  0  0  0
   15.8564    1.9650    0.0000 H   0  0  0  0  0  0  0  0  0  0  0  0
   14.3704   -0.1550    0.0000 H   0  0  0  0  0  0  0  0  0  0  0  0
   14.9904   -0.7750    0.0000 H   0  0  0  0  0  0  0  0  0  0  0  0
   15.6104   -0.1550    0.0000 H   0  0  0  0  0  0  0  0  0  0  0  0
  1 16  1  0  0  0  0
  1 17  1  0  0  0  0
 17  2  1  6  0  0  0
 23  2  1  6  0  0  0
 12  3  1  1  0  0  0
  3 29  1  0  0  0  0
 13  4  1  6  0  0  0
  4 30  1  0  0  0  0
 11  5  1  1  0  0  0
  5 80  1  0  0  0  0
  6 24  1  0  0  0  0
  6 95  1  0  0  0  0
  7  8  1  0  0  0  0
  7 10  1  0  0  0  0
  7 18  1  0  0  0  0
  7 19  1  0  0  0  0
  8  9  1  0  0  0  0
  8 55  1  0  0  0  0
  8 56  1  0  0  0  0
  9 14  1  0  0  0  0
  9 57  1  0  0  0  0
  9 58  1  0  0  0  0
 10 15  2  0  0  0  0
 10 20  1  0  0  0  0
 11 12  1  0  0  0  0
 11 13  1  0  0  0  0
 11 59  1  0  0  0  0
 12 16  1  0  0  0  0
 12 60  1  0  0  0  0
 13 17  1  0  0  0  0
 13 61  1  0  0  0  0
 14 15  1  0  0  0  0
 14 62  1  0  0  0  0
 14 63  1  0  0  0  0
 15 21  1  0  0  0  0
 16 22  1  1  0  0  0
 16 64  1  0  0  0  0
 17 65  1  0  0  0  0
 18 68  1  0  0  0  0
 18 70  1  0  0  0  0
 18 71  1  0  0  0  0
 19 66  1  0  0  0  0
 19 67  1  0  0  0  0
 19 69  1  0  0  0  0
 20 25  2  0  0  0  0
 20 72  1  0  0  0  0
 21 73  1  0  0  0  0
 21 74  1  0  0  0  0
 21 75  1  0  0  0  0
 22 76  1  0  0  0  0
 22 77  1  0  0  0  0
 22 78  1  0  0  0  0
 23 24  1  0  0  0  0
 23 26  1  0  0  0  0
 23 79  1  0  0  0  0
 24 27  1  0  0  0  0
 24 28  1  0  0  0  0
 25 31  1  0  0  0  0
 25 81  1  0  0  0  0
 26 32  2  0  0  0  0
 26 82  1  0  0  0  0
 27 86  1  0  0  0  0
 27 87  1  0  0  0  0
 27 88  1  0  0  0  0
 28 83  1  0  0  0  0
 28 84  1  0  0  0  0
 28 85  1  0  0  0  0
 29 89  1  0  0  0  0
 29 90  1  0  0  0  0
 29 91  1  0  0  0  0
 30 92  1  0  0  0  0
 30 93  1  0  0  0  0
 30 94  1  0  0  0  0
 31 33  1  0  0  0  0
 31 34  2  0  0  0  0
 32 35  1  0  0  0  0
 32 96  1  0  0  0  0
 33 97  1  0  0  0  0
 33 98  1  0  0  0  0
 33 99  1  0  0  0  0
 34 38  1  0  0  0  0
 34100  1  0  0  0  0
 35 36  1  0  0  0  0
 35 37  2  0  0  0  0
 36101  1  0  0  0  0
 36102  1  0  0  0  0
 36103  1  0  0  0  0
 37 40  1  0  0  0  0
 37104  1  0  0  0  0
 38 39  2  0  0  0  0
 38105  1  0  0  0  0
 39 41  1  0  0  0  0
 39106  1  0  0  0  0
 40 42  2  0  0  0  0
 40107  1  0  0  0  0
 41 43  1  0  0  0  0
 41 45  2  0  0  0  0
 42 44  1  0  0  0  0
 42108  1  0  0  0  0
 43109  1  0  0  0  0
 43110  1  0  0  0  0
 43111  1  0  0  0  0
 44 46  1  0  0  0  0
 44 47  2  0  0  0  0
 45 48  1  0  0  0  0
 45112  1  0  0  0  0
 46113  1  0  0  0  0
 46114  1  0  0  0  0
 46115  1  0  0  0  0
 47 49  1  0  0  0  0
 47116  1  0  0  0  0
 48 50  2  0  0  0  0
 48117  1  0  0  0  0
 49 51  2  0  0  0  0
 49118  1  0  0  0  0
 50 52  1  0  0  0  0
 50119  1  0  0  0  0
 51 53  1  0  0  0  0
 51120  1  0  0  0  0
 52 53  2  0  0  0  0
 52121  1  0  0  0  0
 53 54  1  0  0  0  0
 54122  1  0  0  0  0
 54123  1  0  0  0  0
 54124  1  0  0  0  0
M  END
> <PUBCHEM_COMPOUND_CID>
23724609

> <PUBCHEM_COMPOUND_CANONICALIZED>
1

> <PUBCHEM_CACTVS_COMPLEXITY>
1580

> <PUBCHEM_CACTVS_HBOND_ACCEPTOR>
6

> <PUBCHEM_CACTVS_HBOND_DONOR>
2

> <PUBCHEM_CACTVS_ROTATABLE_BOND>
17

> <PUBCHEM_CACTVS_SUBSKEYS>
AAADcfB8OAAAAAAAAAAAAAAAAAAAAAAAAAAkQAAAAAAAAAAAAAAAGgAACAAADlSwgAMCCAAABgCAAiBCAAAAAAAgAAAICAAAAAgZFAIAIQAiUAAFwAAPoAPA4MwPAAAAAAAAAAAAAAAAAAAAAAAAAAAAAA==

> <PUBCHEM_IUPAC_OPENEYE_NAME>
(2S,3S,4R,5S,6S)-2-[(1S,2E,4E,6E,8E,10E,12E,14E,16E,18E,20E,22E)-1-(1-hydroxy-1-methyl-ethyl)-4,8,12,17,21-pentamethyl-23-(2,6,6-trimethylcyclohexen-1-yl)tricosa-2,4,6,8,10,12,14,16,18,20,22-undecaenoxy]-3,5-dimethoxy-6-methyl-tetrahydropyran-4-ol

> <PUBCHEM_IUPAC_CAS_NAME>
(2S,3S,4R,5S,6S)-2-[(3S,4E,6E,8E,10E,12E,14E,16E,18E,20E,22E,24E)-2-hydroxy-2,6,10,14,19,23-hexamethyl-25-(2,6,6-trimethyl-1-cyclohexenyl)pentacosa-4,6,8,10,12,14,16,18,20,22,24-undecaen-3-yl]oxy-3,5-dimethoxy-6-methyl-4-oxanol

> <PUBCHEM_IUPAC_NAME>
(2S,3S,4R,5S,6S)-2-[(3S,4E,6E,8E,10E,12E,14E,16E,18E,20E,22E,24E)-2-hydroxy-2,6,10,14,19,23-hexamethyl-25-(2,6,6-trimethylcyclohexen-1-yl)pentacosa-4,6,8,10,12,14,16,18,20,22,24-undecaen-3-yl]oxy-3,5-dimethoxy-6-methyloxan-4-ol

> <PUBCHEM_IUPAC_SYSTEMATIC_NAME>
(2S,3S,4R,5S,6S)-2-[(3S,4E,6E,8E,10E,12E,14E,16E,18E,20E,22E,24E)-2,6,10,14,19,23-hexamethyl-2-oxidanyl-25-(2,6,6-trimethylcyclohexen-1-yl)pentacosa-4,6,8,10,12,14,16,18,20,22,24-undecaen-3-yl]oxy-3,5-dimethoxy-6-methyl-oxan-4-ol

> <PUBCHEM_IUPAC_TRADITIONAL_NAME>
(2S,3S,4R,5S,6S)-2-[(1S,2E,4E,6E,8E,10E,12E,14E,16E,18E,20E,22E)-1-(1-hydroxy-1-methyl-ethyl)-4,8,12,17,21-pentamethyl-23-(2,6,6-trimethylcyclohexen-1-yl)tricosa-2,4,6,8,10,12,14,16,18,20,22-undecaenoxy]-3,5-dimethoxy-6-methyl-tetrahydropyran-4-ol

> <PUBCHEM_IUPAC_INCHI>
InChI=1S/C48H70O6/c1-34(20-14-15-21-35(2)23-17-26-37(4)29-31-41-39(6)28-19-33-47(41,8)9)22-16-24-36(3)25-18-27-38(5)30-32-42(48(10,11)50)54-46-45(52-13)43(49)44(51-12)40(7)53-46/h14-18,20-27,29-32,40,42-46,49-50H,19,28,33H2,1-13H3/b15-14+,22-16+,23-17+,25-18+,31-29+,32-30+,34-20+,35-21+,36-24+,37-26+,38-27+/t40-,42-,43+,44+,45-,46-/m0/s1

> <PUBCHEM_IUPAC_INCHIKEY>
BLYISYDKTSMYSK-GKZFAFHHSA-N

> <PUBCHEM_XLOGP3_AA>
12.1

> <PUBCHEM_EXACT_MASS>
742.51724

> <PUBCHEM_MOLECULAR_FORMULA>
C48H70O6

> <PUBCHEM_MOLECULAR_WEIGHT>
743.0658

> <PUBCHEM_OPENEYE_CAN_SMILES>
CC1C(C(C(C(O1)OC(C=CC(=CC=CC(=CC=CC(=CC=CC=C(C)C=CC=C(C)C=CC2=C(CCCC2(C)C)C)C)C)C)C(C)(C)O)OC)O)OC

> <PUBCHEM_OPENEYE_ISO_SMILES>
C[C@H]1[C@H]([C@H]([C@@H]([C@@H](O1)O[C@@H](/C=C/C(=C/C=C/C(=C/C=C/C(=C/C=C/C=C(\C)/C=C/C=C(\C)/C=C/C2=C(CCCC2(C)C)C)/C)/C)/C)C(C)(C)O)OC)O)OC

> <PUBCHEM_CACTVS_TPSA>
77.4

> <PUBCHEM_MONOISOTOPIC_WEIGHT>
742.51724

> <PUBCHEM_TOTAL_CHARGE>
0

> <PUBCHEM_HEAVY_ATOM_COUNT>
54

> <PUBCHEM_ATOM_DEF_STEREO_COUNT>
6

> <PUBCHEM_ATOM_UDEF_STEREO_COUNT>
0

> <PUBCHEM_BOND_DEF_STEREO_COUNT>
11

> <PUBCHEM_BOND_UDEF_STEREO_COUNT>
0

> <PUBCHEM_ISOTOPIC_ATOM_COUNT>
0

> <PUBCHEM_COMPONENT_COUNT>
1

> <PUBCHEM_CACTVS_TAUTO_COUNT>
1

> <PUBCHEM_COORDINATE_TYPE>
1
5
255

> <PUBCHEM_BONDANNOTATIONS>
16  22  5
17  2  6
23  2  6
12  3  5
13  4  6
11  5  5

$$$$

