443473
  -OEChem-07051213023D

 52 54  0     1  0  0  0  0  0999 V2000
   -1.1235    0.6280    0.3239 C   0  0  2  0  0  0  0  0  0  0  0  0
   -1.9828   -0.5532   -0.2507 C   0  0  2  0  0  0  0  0  0  0  0  0
   -3.5380   -0.3952   -0.0732 C   0  0  0  0  0  0  0  0  0  0  0  0
   -1.5609    1.9350   -0.4037 C   0  0  0  0  0  0  0  0  0  0  0  0
   -1.4344   -1.9141    0.2070 C   0  0  0  0  0  0  0  0  0  0  0  0
   -3.9514    1.0997   -0.0748 C   0  0  0  0  0  0  0  0  0  0  0  0
    0.3825    0.3553    0.1016 C   0  0  0  0  0  0  0  0  0  0  0  0
   -3.0105    1.9625   -0.9017 C   0  0  0  0  0  0  0  0  0  0  0  0
    0.0032   -2.1102   -0.2710 C   0  0  0  0  0  0  0  0  0  0  0  0
   -1.2937    0.8023    1.8536 C   0  0  0  0  0  0  0  0  0  0  0  0
    0.8629   -0.8793   -0.1668 C   0  0  0  0  0  0  0  0  0  0  0  0
   -4.2366   -1.0902   -1.2718 C   0  0  0  0  0  0  0  0  0  0  0  0
   -4.0939   -1.0626    1.2021 C   0  0  0  0  0  0  0  0  0  0  0  0
    1.3451    1.5300    0.1884 C   0  0  0  0  0  0  0  0  0  0  0  0
    2.8023    1.1492    0.4918 C   0  0  0  0  0  0  0  0  0  0  0  0
    2.2811   -1.0975   -0.3994 C   0  0  0  0  0  0  0  0  0  0  0  0
    3.2084   -0.1778   -0.0880 C   0  0  0  0  0  0  0  0  0  0  0  0
    4.6756   -0.4182   -0.2717 C   0  0  0  0  0  0  0  0  0  0  0  0
    5.2567    0.5867   -1.2614 C   0  0  0  0  0  0  0  0  0  0  0  0
    5.4077   -0.3506    1.0660 C   0  0  0  0  0  0  0  0  0  0  0  0
   -1.8069   -0.5268   -1.3399 H   0  0  0  0  0  0  0  0  0  0  0  0
   -0.9292    2.1182   -1.2826 H   0  0  0  0  0  0  0  0  0  0  0  0
   -1.4014    2.7969    0.2579 H   0  0  0  0  0  0  0  0  0  0  0  0
   -2.0418   -2.7355   -0.1891 H   0  0  0  0  0  0  0  0  0  0  0  0
   -1.4689   -2.0014    1.2988 H   0  0  0  0  0  0  0  0  0  0  0  0
   -3.9895    1.4989    0.9448 H   0  0  0  0  0  0  0  0  0  0  0  0
   -4.9728    1.2116   -0.4610 H   0  0  0  0  0  0  0  0  0  0  0  0
   -3.3681    2.9990   -0.9115 H   0  0  0  0  0  0  0  0  0  0  0  0
   -3.0367    1.6259   -1.9458 H   0  0  0  0  0  0  0  0  0  0  0  0
   -0.0152   -2.4311   -1.3211 H   0  0  0  0  0  0  0  0  0  0  0  0
    0.4462   -2.9333    0.3039 H   0  0  0  0  0  0  0  0  0  0  0  0
   -0.6506    1.5989    2.2454 H   0  0  0  0  0  0  0  0  0  0  0  0
   -2.3080    1.0808    2.1404 H   0  0  0  0  0  0  0  0  0  0  0  0
   -1.0315   -0.1089    2.4016 H   0  0  0  0  0  0  0  0  0  0  0  0
   -3.9876   -2.1555   -1.3206 H   0  0  0  0  0  0  0  0  0  0  0  0
   -5.3274   -1.0136   -1.1935 H   0  0  0  0  0  0  0  0  0  0  0  0
   -3.9443   -0.6363   -2.2251 H   0  0  0  0  0  0  0  0  0  0  0  0
   -3.6067   -0.6971    2.1088 H   0  0  0  0  0  0  0  0  0  0  0  0
   -5.1672   -0.8639    1.3080 H   0  0  0  0  0  0  0  0  0  0  0  0
   -3.9732   -2.1510    1.1775 H   0  0  0  0  0  0  0  0  0  0  0  0
    1.3180    2.0618   -0.7715 H   0  0  0  0  0  0  0  0  0  0  0  0
    1.0225    2.2478    0.9499 H   0  0  0  0  0  0  0  0  0  0  0  0
    2.9359    1.1042    1.5806 H   0  0  0  0  0  0  0  0  0  0  0  0
    3.4340    1.9677    0.1343 H   0  0  0  0  0  0  0  0  0  0  0  0
    2.5774   -2.0569   -0.8140 H   0  0  0  0  0  0  0  0  0  0  0  0
    4.8345   -1.4222   -0.6871 H   0  0  0  0  0  0  0  0  0  0  0  0
    5.3210    1.6000   -0.8520 H   0  0  0  0  0  0  0  0  0  0  0  0
    4.6692    0.6254   -2.1856 H   0  0  0  0  0  0  0  0  0  0  0  0
    6.2768    0.2932   -1.5352 H   0  0  0  0  0  0  0  0  0  0  0  0
    4.9751   -1.0509    1.7893 H   0  0  0  0  0  0  0  0  0  0  0  0
    5.3787    0.6525    1.5055 H   0  0  0  0  0  0  0  0  0  0  0  0
    6.4621   -0.6190    0.9361 H   0  0  0  0  0  0  0  0  0  0  0  0
  1  2  1  0  0  0  0
  1  4  1  0  0  0  0
  1  7  1  0  0  0  0
  1 10  1  0  0  0  0
  2  3  1  0  0  0  0
  2  5  1  0  0  0  0
  2 21  1  0  0  0  0
  3  6  1  0  0  0  0
  3 12  1  0  0  0  0
  3 13  1  0  0  0  0
  4  8  1  0  0  0  0
  4 22  1  0  0  0  0
  4 23  1  0  0  0  0
  5  9  1  0  0  0  0
  5 24  1  0  0  0  0
  5 25  1  0  0  0  0
  6  8  1  0  0  0  0
  6 26  1  0  0  0  0
  6 27  1  0  0  0  0
  7 11  2  0  0  0  0
  7 14  1  0  0  0  0
  8 28  1  0  0  0  0
  8 29  1  0  0  0  0
  9 11  1  0  0  0  0
  9 30  1  0  0  0  0
  9 31  1  0  0  0  0
 10 32  1  0  0  0  0
 10 33  1  0  0  0  0
 10 34  1  0  0  0  0
 11 16  1  0  0  0  0
 12 35  1  0  0  0  0
 12 36  1  0  0  0  0
 12 37  1  0  0  0  0
 13 38  1  0  0  0  0
 13 39  1  0  0  0  0
 13 40  1  0  0  0  0
 14 15  1  0  0  0  0
 14 41  1  0  0  0  0
 14 42  1  0  0  0  0
 15 17  1  0  0  0  0
 15 43  1  0  0  0  0
 15 44  1  0  0  0  0
 16 17  2  0  0  0  0
 16 45  1  0  0  0  0
 17 18  1  0  0  0  0
 18 19  1  0  0  0  0
 18 20  1  0  0  0  0
 18 46  1  0  0  0  0
 19 47  1  0  0  0  0
 19 48  1  0  0  0  0
 19 49  1  0  0  0  0
 20 50  1  0  0  0  0
 20 51  1  0  0  0  0
 20 52  1  0  0  0  0
M  END
> <PUBCHEM_COMPOUND_CID>
443473

> <PUBCHEM_CONFORMER_RMSD>
0.6

> <PUBCHEM_CONFORMER_DIVERSEORDER>
1
2

> <PUBCHEM_MMFF94_PARTIAL_CHARGES>
10
1 0.14
11 -0.14
14 0.14
15 0.14
16 -0.15
17 -0.28
18 0.14
45 0.15
7 -0.28
9 0.14

> <PUBCHEM_EFFECTIVE_ROTOR_COUNT>
2.6

> <PUBCHEM_PHARMACOPHORE_FEATURES>
5
3 18 19 20 hydrophobe
3 3 12 13 hydrophobe
6 1 2 3 4 6 8 rings
6 1 2 5 7 9 11 rings
6 7 11 14 15 16 17 rings

> <PUBCHEM_HEAVY_ATOM_COUNT>
20

> <PUBCHEM_ATOM_DEF_STEREO_COUNT>
2

> <PUBCHEM_ATOM_UDEF_STEREO_COUNT>
0

> <PUBCHEM_BOND_DEF_STEREO_COUNT>
0

> <PUBCHEM_BOND_UDEF_STEREO_COUNT>
0

> <PUBCHEM_ISOTOPIC_ATOM_COUNT>
0

> <PUBCHEM_COMPONENT_COUNT>
1

> <PUBCHEM_CACTVS_TAUTO_COUNT>
1

> <PUBCHEM_CONFORMER_ID>
0006C45100000001

> <PUBCHEM_MMFF94_ENERGY>
59.4947

> <PUBCHEM_FEATURE_SELFOVERLAP>
25.407

> <PUBCHEM_SHAPE_FINGERPRINT>
10759866 29 18131067164957777170
11132069 177 18186241718742623970
11315181 36 17894629271411140416
12011746 2 18410575084731670614
12107183 9 17197435725406855816
12236239 1 17060620001221253077
12390115 104 18189318234113920921
12403259 226 18336836294576437417
12403259 415 18335141977185934512
12403260 363 18411145722734833556
12403814 3 18412543211072851435
12592029 89 18343300409361774690
12670546 56 16558756736823734004
13140716 1 18192708943042429723
13583140 156 16702304520642900993
13862211 1 18408891711050108974
14142880 1 18189324835758269065
15042514 8 18267863891575095011
15196674 1 18410012177981272446
15209289 33 18260263040626803315
15788980 27 18131349747993618370
16752209 62 18338811060330247458
16945 1 18340492175355246835
17349148 13 18187365428606308394
17802600 8 18408609145256810344
17804303 29 18409729534636430536
17980427 23 17632284700984473597
18186145 218 18040437685043325905
19489759 90 17775007907518678408
200 152 17748831816926616677
20645477 70 17022893589258306246
20871999 31 18341890788394772668
21029758 27 18272924986467669581
21267235 1 18335976485268532567
21637258 2 15647348390228274143
22182313 1 18263349451323091055
23366157 5 17771340057141262298
23402539 116 18408612465023813917
23493267 7 18060424616446000179
23557571 272 18187637020436107373
23559900 14 18191870239694570526
2748010 2 18410579504696291973
296302 2 16773793697286806738
3004659 81 18271241721046104734
3286 77 17096094558854966577
34934 24 18267871760392232101
350125 39 18410567375439973433
474 4 16485833707134281572
5104073 3 18338799030358850258
542803 24 17560799935725374748
559249 180 18200039576750144610
69090 78 18187651275559370958
9709674 26 18408036325405733310

> <PUBCHEM_SHAPE_MULTIPOLES>
411.59
10.02
1.98
1.17
8.98
0.05
0.22
-0.31
-0.97
-1.29
-0.22
-0.21
0.09
0.1

> <PUBCHEM_SHAPE_SELFOVERLAP>
858.085

> <PUBCHEM_SHAPE_VOLUME>
232.5

> <PUBCHEM_COORDINATE_TYPE>
2
5
10

$$$$

