441721
  -OEChem-07051212552D

 58 63  0     1  0  0  0  0  0999 V2000
    3.4578    1.3739    0.0000 O   0  0  0  0  0  0  0  0  0  0  0  0
    8.1667   -0.2085    0.0000 O   0  0  0  0  0  0  0  0  0  0  0  0
    2.8412   -0.2625    0.0000 N   0  0  3  0  0  0  0  0  0  0  0  0
    4.7134   -0.1584    0.0000 C   0  0  2  0  0  0  0  0  0  0  0  0
    5.5830    0.4150    0.0000 C   0  0  1  0  0  0  0  0  0  0  0  0
    4.7832   -1.1977    0.0000 C   0  0  1  0  0  0  0  0  0  0  0  0
    6.4839   -0.0189    0.0000 C   0  0  1  0  0  0  0  0  0  0  0  0
    3.8915   -1.8158    0.0000 C   0  0  2  0  0  0  0  0  0  0  0  0
    3.7470    0.3348    0.0000 C   0  0  2  0  0  0  0  0  0  0  0  0
    5.7217   -1.6496    0.0000 C   0  0  0  0  0  0  0  0  0  0  0  0
    6.5778   -1.0562    0.0000 C   0  0  0  0  0  0  0  0  0  0  0  0
    6.1940   -0.5188    0.0000 C   0  0  0  0  0  0  0  0  0  0  0  0
    6.3771    1.1579    0.0000 C   0  0  0  0  0  0  0  0  0  0  0  0
    5.3604    1.3900    0.0000 C   0  0  0  0  0  0  0  0  0  0  0  0
    6.9839    2.1718    0.0000 C   0  0  2  0  0  0  0  0  0  0  0  0
    2.9139   -1.3450    0.0000 C   0  0  0  0  0  0  0  0  0  0  0  0
    5.0745   -2.7762    0.0000 C   0  0  0  0  0  0  0  0  0  0  0  0
    7.3849    0.4150    0.0000 C   0  0  0  0  0  0  0  0  0  0  0  0
    5.9839    2.1718    0.0000 C   0  0  0  0  0  0  0  0  0  0  0  0
    7.6074    1.3900    0.0000 C   0  0  2  0  0  0  0  0  0  0  0  0
    6.4022   -2.0284    0.0000 C   0  0  0  0  0  0  0  0  0  0  0  0
    3.3558   -2.6602    0.0000 C   0  0  0  0  0  0  0  0  0  0  0  0
    2.0000    0.4126    0.0000 C   0  0  0  0  0  0  0  0  0  0  0  0
    2.3803    1.4219    0.0000 C   0  0  0  0  0  0  0  0  0  0  0  0
    8.5824    1.6125    0.0000 C   0  0  0  0  0  0  0  0  0  0  0  0
    4.8171    0.7838    0.0000 H   0  0  0  0  0  0  0  0  0  0  0  0
    4.8402   -2.0458    0.0000 H   0  0  0  0  0  0  0  0  0  0  0  0
    4.4566    0.8028    0.0000 H   0  0  0  0  0  0  0  0  0  0  0  0
    5.3611   -2.1540    0.0000 H   0  0  0  0  0  0  0  0  0  0  0  0
    6.1569   -2.0912    0.0000 H   0  0  0  0  0  0  0  0  0  0  0  0
    6.8386   -1.6187    0.0000 H   0  0  0  0  0  0  0  0  0  0  0  0
    7.1766   -0.8956    0.0000 H   0  0  0  0  0  0  0  0  0  0  0  0
    6.8139   -0.5115    0.0000 H   0  0  0  0  0  0  0  0  0  0  0  0
    6.2642    0.0972    0.0000 H   0  0  0  0  0  0  0  0  0  0  0  0
    5.9693    1.6249    0.0000 H   0  0  0  0  0  0  0  0  0  0  0  0
    5.8070    0.9141    0.0000 H   0  0  0  0  0  0  0  0  0  0  0  0
    4.9739    1.8747    0.0000 H   0  0  0  0  0  0  0  0  0  0  0  0
    4.8018    1.1209    0.0000 H   0  0  0  0  0  0  0  0  0  0  0  0
    7.1731    3.0005    0.0000 H   0  0  0  0  0  0  0  0  0  0  0  0
    2.2973   -1.2801    0.0000 H   0  0  0  0  0  0  0  0  0  0  0  0
    2.7445   -1.9414    0.0000 H   0  0  0  0  0  0  0  0  0  0  0  0
    4.6267   -3.2050    0.0000 H   0  0  0  0  0  0  0  0  0  0  0  0
    5.4439   -3.2742    0.0000 H   0  0  0  0  0  0  0  0  0  0  0  0
    6.1219    2.7762    0.0000 H   0  0  0  0  0  0  0  0  0  0  0  0
    5.4253    2.4408    0.0000 H   0  0  0  0  0  0  0  0  0  0  0  0
    7.8122    1.9752    0.0000 H   0  0  0  0  0  0  0  0  0  0  0  0
    6.6366   -2.6024    0.0000 H   0  0  0  0  0  0  0  0  0  0  0  0
    7.0010   -1.8676    0.0000 H   0  0  0  0  0  0  0  0  0  0  0  0
    2.8322   -2.3280    0.0000 H   0  0  0  0  0  0  0  0  0  0  0  0
    3.0236   -3.1837    0.0000 H   0  0  0  0  0  0  0  0  0  0  0  0
    3.8793   -2.9923    0.0000 H   0  0  0  0  0  0  0  0  0  0  0  0
    1.4460    0.6910    0.0000 H   0  0  0  0  0  0  0  0  0  0  0  0
    1.6649   -0.1091    0.0000 H   0  0  0  0  0  0  0  0  0  0  0  0
    2.4728    2.0349    0.0000 H   0  0  0  0  0  0  0  0  0  0  0  0
    1.7804    1.5783    0.0000 H   0  0  0  0  0  0  0  0  0  0  0  0
    8.7203    1.0080    0.0000 H   0  0  0  0  0  0  0  0  0  0  0  0
    9.1868    1.7504    0.0000 H   0  0  0  0  0  0  0  0  0  0  0  0
    8.4444    2.2169    0.0000 H   0  0  0  0  0  0  0  0  0  0  0  0
  1  9  1  0  0  0  0
  1 24  1  0  0  0  0
  2 18  2  0  0  0  0
  3  9  1  0  0  0  0
  3 16  1  0  0  0  0
  3 23  1  0  0  0  0
  4  5  1  0  0  0  0
  4  6  1  0  0  0  0
  4  9  1  0  0  0  0
  4 12  1  1  0  0  0
  5  7  1  0  0  0  0
  5 14  1  0  0  0  0
  5 26  1  1  0  0  0
  6  8  1  0  0  0  0
  6 10  1  0  0  0  0
  6 27  1  1  0  0  0
  7 11  1  6  0  0  0
  7 13  1  0  0  0  0
  7 18  1  0  0  0  0
  8 16  1  0  0  0  0
  8 17  1  0  0  0  0
  8 22  1  6  0  0  0
  9 28  1  6  0  0  0
 10 11  1  0  0  0  0
 10 29  1  0  0  0  0
 10 30  1  0  0  0  0
 11 31  1  0  0  0  0
 11 32  1  0  0  0  0
 12 21  1  0  0  0  0
 12 33  1  0  0  0  0
 12 34  1  0  0  0  0
 13 15  1  0  0  0  0
 13 35  1  0  0  0  0
 13 36  1  0  0  0  0
 14 19  1  0  0  0  0
 14 37  1  0  0  0  0
 14 38  1  0  0  0  0
 15 19  1  0  0  0  0
 15 20  1  0  0  0  0
 15 39  1  1  0  0  0
 16 40  1  0  0  0  0
 16 41  1  0  0  0  0
 17 21  1  0  0  0  0
 17 42  1  0  0  0  0
 17 43  1  0  0  0  0
 18 20  1  0  0  0  0
 19 44  1  0  0  0  0
 19 45  1  0  0  0  0
 20 25  1  1  0  0  0
 20 46  1  0  0  0  0
 21 47  1  0  0  0  0
 21 48  1  0  0  0  0
 22 49  1  0  0  0  0
 22 50  1  0  0  0  0
 22 51  1  0  0  0  0
 23 24  1  0  0  0  0
 23 52  1  0  0  0  0
 23 53  1  0  0  0  0
 24 54  1  0  0  0  0
 24 55  1  0  0  0  0
 25 56  1  0  0  0  0
 25 57  1  0  0  0  0
 25 58  1  0  0  0  0
M  END
> <PUBCHEM_COMPOUND_CID>
441721

> <PUBCHEM_COMPOUND_CANONICALIZED>
1

> <PUBCHEM_CACTVS_COMPLEXITY>
634

> <PUBCHEM_CACTVS_HBOND_ACCEPTOR>
3

> <PUBCHEM_CACTVS_HBOND_DONOR>
0

> <PUBCHEM_CACTVS_ROTATABLE_BOND>
0

> <PUBCHEM_CACTVS_SUBSKEYS>
AAADcfB6MAAAAAAAAAAAAAAAAAAAAeIAAAA8YMEABgAWAFjwAAAAHgAAAAAADwThgAYCAAMABAAIAIAQAAAAAAAAAAAAAAEIAAACABIAgAAPAAAEAACQAAGY3eKPgAAAAAAAAACAAAQAACAAAQAACAAAAA==

> <PUBCHEM_IUPAC_INCHI>
InChI=1S/C22H33NO2/c1-14-15-4-5-17-21(12-15,18(14)24)9-6-16-20(2)7-3-8-22(16,17)19-23(13-20)10-11-25-19/h14-17,19H,3-13H2,1-2H3/t14-,15+,16-,17-,19+,20+,21-,22+/m1/s1

> <PUBCHEM_IUPAC_INCHIKEY>
BGZNEAVTIQGRHL-SHOKWQLJSA-N

> <PUBCHEM_XLOGP3_AA>
4.2

> <PUBCHEM_EXACT_MASS>
343.251129

> <PUBCHEM_MOLECULAR_FORMULA>
C22H33NO2

> <PUBCHEM_MOLECULAR_WEIGHT>
343.50292

> <PUBCHEM_OPENEYE_CAN_SMILES>
CC1C2CCC3C(C2)(C1=O)CCC4C35CCCC4(CN6C5OCC6)C

> <PUBCHEM_OPENEYE_ISO_SMILES>
C[C@@H]1[C@H]2CC[C@@H]3[C@@](C2)(C1=O)CC[C@H]4[C@@]35CCC[C@]4(CN6[C@H]5OCC6)C

> <PUBCHEM_CACTVS_TPSA>
29.5

> <PUBCHEM_MONOISOTOPIC_WEIGHT>
343.251129

> <PUBCHEM_TOTAL_CHARGE>
0

> <PUBCHEM_HEAVY_ATOM_COUNT>
25

> <PUBCHEM_ATOM_DEF_STEREO_COUNT>
8

> <PUBCHEM_ATOM_UDEF_STEREO_COUNT>
0

> <PUBCHEM_BOND_DEF_STEREO_COUNT>
0

> <PUBCHEM_BOND_UDEF_STEREO_COUNT>
0

> <PUBCHEM_ISOTOPIC_ATOM_COUNT>
0

> <PUBCHEM_COMPONENT_COUNT>
1

> <PUBCHEM_CACTVS_TAUTO_COUNT>
2

> <PUBCHEM_COORDINATE_TYPE>
1
5
255

> <PUBCHEM_BONDANNOTATIONS>
15  39  5
20  25  5
4  12  5
5  26  5
6  27  5
7  11  6
8  22  6
9  28  6

$$$$

