2764
  -OEChem-07051212503D

 42 45  0     0  0  0  0  0  0999 V2000
   -2.2164    2.7826    0.3610 F   0  0  0  0  0  0  0  0  0  0  0  0
    2.8091    2.5240    0.2325 O   0  0  0  0  0  0  0  0  0  0  0  0
    5.1624    1.4595    0.6808 O   0  0  0  0  0  0  0  0  0  0  0  0
    5.5985   -0.2899   -0.7262 O   0  0  0  0  0  0  0  0  0  0  0  0
    1.5285   -1.3112   -0.2906 N   0  0  0  0  0  0  0  0  0  0  0  0
   -3.1274    0.1877    0.0112 N   0  0  0  0  0  0  0  0  0  0  0  0
   -5.8815   -0.5181   -0.2456 N   0  0  0  0  0  0  0  0  0  0  0  0
    1.1463   -2.7265   -0.4863 C   0  0  0  0  0  0  0  0  0  0  0  0
    1.6920   -3.7953    0.4013 C   0  0  0  0  0  0  0  0  0  0  0  0
    0.2424   -3.4159    0.4810 C   0  0  0  0  0  0  0  0  0  0  0  0
    0.5507   -0.2889   -0.1261 C   0  0  0  0  0  0  0  0  0  0  0  0
    2.8698   -0.9817   -0.2685 C   0  0  0  0  0  0  0  0  0  0  0  0
    0.9660    1.0479    0.0569 C   0  0  0  0  0  0  0  0  0  0  0  0
   -0.8289   -0.5519   -0.1380 C   0  0  0  0  0  0  0  0  0  0  0  0
   -1.7586    0.4786    0.0260 C   0  0  0  0  0  0  0  0  0  0  0  0
   -3.9592    0.8291   -1.0161 C   0  0  0  0  0  0  0  0  0  0  0  0
   -3.5988   -1.1171    0.4878 C   0  0  0  0  0  0  0  0  0  0  0  0
    3.3692    0.2493   -0.1019 C   0  0  0  0  0  0  0  0  0  0  0  0
    2.4163    1.3744    0.0768 C   0  0  0  0  0  0  0  0  0  0  0  0
   -5.4277    0.8278   -0.5931 C   0  0  0  0  0  0  0  0  0  0  0  0
   -5.0808   -1.0498    0.8559 C   0  0  0  0  0  0  0  0  0  0  0  0
    0.0335    2.0797    0.2209 C   0  0  0  0  0  0  0  0  0  0  0  0
   -1.3285    1.7904    0.2047 C   0  0  0  0  0  0  0  0  0  0  0  0
    4.8232    0.4153   -0.1046 C   0  0  0  0  0  0  0  0  0  0  0  0
    1.0251   -2.9710   -1.5368 H   0  0  0  0  0  0  0  0  0  0  0  0
    2.3236   -3.5196    1.2368 H   0  0  0  0  0  0  0  0  0  0  0  0
    1.9395   -4.7488   -0.0491 H   0  0  0  0  0  0  0  0  0  0  0  0
   -0.4833   -4.1162    0.0853 H   0  0  0  0  0  0  0  0  0  0  0  0
   -0.0718   -2.9133    1.3877 H   0  0  0  0  0  0  0  0  0  0  0  0
    3.5217   -1.8387   -0.4086 H   0  0  0  0  0  0  0  0  0  0  0  0
   -1.1885   -1.5547   -0.3363 H   0  0  0  0  0  0  0  0  0  0  0  0
   -3.8410    0.2839   -1.9617 H   0  0  0  0  0  0  0  0  0  0  0  0
   -3.6590    1.8648   -1.2071 H   0  0  0  0  0  0  0  0  0  0  0  0
   -3.0401   -1.4308    1.3784 H   0  0  0  0  0  0  0  0  0  0  0  0
   -3.4515   -1.8755   -0.2918 H   0  0  0  0  0  0  0  0  0  0  0  0
   -5.5769    1.5043    0.2579 H   0  0  0  0  0  0  0  0  0  0  0  0
   -6.0399    1.2092   -1.4175 H   0  0  0  0  0  0  0  0  0  0  0  0
   -5.4362   -2.0558    1.1042 H   0  0  0  0  0  0  0  0  0  0  0  0
   -5.2201   -0.4304    1.7510 H   0  0  0  0  0  0  0  0  0  0  0  0
    0.3487    3.1098    0.3616 H   0  0  0  0  0  0  0  0  0  0  0  0
   -6.8602   -0.4802    0.0377 H   0  0  0  0  0  0  0  0  0  0  0  0
    6.1325    1.6030    0.7045 H   0  0  0  0  0  0  0  0  0  0  0  0
  1 23  1  0  0  0  0
  2 19  2  0  0  0  0
  3 24  1  0  0  0  0
  3 42  1  0  0  0  0
  4 24  2  0  0  0  0
  5  8  1  0  0  0  0
  5 11  1  0  0  0  0
  5 12  1  0  0  0  0
  6 15  1  0  0  0  0
  6 16  1  0  0  0  0
  6 17  1  0  0  0  0
  7 20  1  0  0  0  0
  7 21  1  0  0  0  0
  7 41  1  0  0  0  0
  8  9  1  0  0  0  0
  8 10  1  0  0  0  0
  8 25  1  0  0  0  0
  9 10  1  0  0  0  0
  9 26  1  0  0  0  0
  9 27  1  0  0  0  0
 10 28  1  0  0  0  0
 10 29  1  0  0  0  0
 11 13  1  0  0  0  0
 11 14  2  0  0  0  0
 12 18  2  0  0  0  0
 12 30  1  0  0  0  0
 13 19  1  0  0  0  0
 13 22  2  0  0  0  0
 14 15  1  0  0  0  0
 14 31  1  0  0  0  0
 15 23  2  0  0  0  0
 16 20  1  0  0  0  0
 16 32  1  0  0  0  0
 16 33  1  0  0  0  0
 17 21  1  0  0  0  0
 17 34  1  0  0  0  0
 17 35  1  0  0  0  0
 18 19  1  0  0  0  0
 18 24  1  0  0  0  0
 20 36  1  0  0  0  0
 20 37  1  0  0  0  0
 21 38  1  0  0  0  0
 21 39  1  0  0  0  0
 22 23  1  0  0  0  0
 22 40  1  0  0  0  0
M  END
> <PUBCHEM_COMPOUND_CID>
2764

> <PUBCHEM_CONFORMER_RMSD>
0.8

> <PUBCHEM_CONFORMER_DIVERSEORDER>
1
2
3
5
4

> <PUBCHEM_MMFF94_PARTIAL_CHARGES>
34
1 -0.19
10 -0.2
11 0.1
12 -0.05
13 0.09
14 -0.15
15 0.1
16 0.37
17 0.37
18 0.03
19 0.47
2 -0.57
20 0.27
21 0.27
22 -0.15
23 0.19
24 0.71
25 0.1
26 0.1
27 0.1
28 0.1
29 0.1
3 -0.65
30 0.15
31 0.15
4 -0.57
40 0.15
41 0.36
42 0.5
5 -0.37
6 -0.84
7 -0.9
8 0.07
9 -0.2

> <PUBCHEM_EFFECTIVE_ROTOR_COUNT>
4.8

> <PUBCHEM_PHARMACOPHORE_FEATURES>
12
1 18 anion
1 2 acceptor
1 3 acceptor
1 4 acceptor
1 5 cation
1 6 cation
1 7 cation
1 7 donor
3 3 4 24 anion
6 11 13 14 15 22 23 rings
6 5 11 12 13 18 19 rings
6 6 7 16 17 20 21 rings

> <PUBCHEM_HEAVY_ATOM_COUNT>
24

> <PUBCHEM_ATOM_DEF_STEREO_COUNT>
0

> <PUBCHEM_ATOM_UDEF_STEREO_COUNT>
0

> <PUBCHEM_BOND_DEF_STEREO_COUNT>
0

> <PUBCHEM_BOND_UDEF_STEREO_COUNT>
0

> <PUBCHEM_ISOTOPIC_ATOM_COUNT>
0

> <PUBCHEM_COMPONENT_COUNT>
1

> <PUBCHEM_CACTVS_TAUTO_COUNT>
1

> <PUBCHEM_CONFORMER_ID>
00000ACC00000001

> <PUBCHEM_MMFF94_ENERGY>
76.708

> <PUBCHEM_FEATURE_SELFOVERLAP>
61.317

> <PUBCHEM_SHAPE_FINGERPRINT>
10090160 65 18413112740520687535
10411042 1 17761776564969177230
10693767 8 18041847336629552614
10906281 52 18200010920211289921
10967382 1 18410009940150395266
1100329 8 18265616477027695458
11421498 54 16878213255656975067
11488393 25 17460578454242677030
11578080 2 17272580687549169111
11719270 70 18412272747907517394
11963148 33 18271250422001916259
12011746 2 18411412913109039382
12236239 1 17312819364514963901
12592029 89 18411420631007281298
12596602 18 16950845808925107219
12788726 201 17531810306974713641
12838862 33 18337128790349279373
12839892 36 18340221781404878842
13140716 1 18192431870364616059
13402501 40 18341889650397465283
138480 1 17906454685886663274
13862211 1 18408608045571232766
14178342 30 18192438686926400336
14223421 5 18267867366150045431
14787075 74 18113901533231621904
14790565 3 18338229371376946001
14844126 61 16182702091703780210
15196674 1 18336826506292981860
16728300 4 17485398826007683410
18681886 176 18342459188746406800
19591789 44 18194119616539928819
200 152 18113058242352424841
20028762 73 18187647933922360502
20567600 347 18202564003428038442
20645477 70 18261114123152052255
21033650 10 15768082639163672989
21197605 99 18048307856717484139
21267235 1 18335974315993348581
21421861 104 18199186381085175547
21521721 280 18262513693636897552
221490 88 18267298927207736535
22393880 68 18193269917589982766
22956985 138 17770795803433864242
23366157 5 17842268452874211450
23402539 116 18335708199772059959
23557571 272 17418379125322772821
23558518 356 18125989701685920249
23559900 14 17978522149685383123
23569914 152 16671061107751138077
266924 87 18268152127014465205
283562 15 18334852870416459376
2871803 45 18408884074465939774
3178227 256 18339350890432289432
335352 9 18409729535416860454
33824 294 18411139159956350322
3383291 50 18410858802689930842
34934 24 18335425681693647007
350125 39 18410853235773602052
43471831 8 18339924921902649826
474229 33 18411417289316970298
5104073 3 18263082274503382352
5486654 2 18410569548629771046
6138700 20 18411134784123212558
6669772 16 18114176446036979430
9709674 26 18267582588744657607
9999458 23 18411420579499127396

> <PUBCHEM_SHAPE_MULTIPOLES>
454.08
10.98
3.4
0.78
5.32
2.72
-0.03
-1.96
-0.73
-1.74
0.57
0.26
0.05
0.72

> <PUBCHEM_SHAPE_SELFOVERLAP>
988.02

> <PUBCHEM_SHAPE_VOLUME>
248

> <PUBCHEM_COORDINATE_TYPE>
2
5
10

$$$$

