163695
  -OEChem-07051212583D

 40 41  0     1  0  0  0  0  0999 V2000
   -0.2106   -2.7208    0.1725 O   0  0  0  0  0  0  0  0  0  0  0  0
   -3.0969   -0.5630    1.8044 O   0  0  0  0  0  0  0  0  0  0  0  0
   -4.0022   -0.0325   -1.5509 O   0  0  0  0  0  0  0  0  0  0  0  0
    1.0938    0.8782   -0.1814 C   0  0  2  0  0  0  0  0  0  0  0  0
    0.8539   -0.6387   -0.4336 C   0  0  1  0  0  0  0  0  0  0  0  0
    3.2667   -0.2288   -0.1840 C   0  0  0  0  0  0  0  0  0  0  0  0
    2.5090    0.9592    0.4184 C   0  0  0  0  0  0  0  0  0  0  0  0
    2.2021   -1.3272   -0.1094 C   0  0  0  0  0  0  0  0  0  0  0  0
    0.0252    1.6140    0.6520 C   0  0  2  0  0  0  0  0  0  0  0  0
   -0.3090   -1.2948    0.3342 C   0  0  1  0  0  0  0  0  0  0  0  0
   -1.7174   -0.8898   -0.1431 C   0  0  2  0  0  0  0  0  0  0  0  0
    3.6992    0.0386   -1.6343 C   0  0  0  0  0  0  0  0  0  0  0  0
    4.5016   -0.5829    0.6489 C   0  0  0  0  0  0  0  0  0  0  0  0
   -1.2918    1.6353   -0.0848 C   0  0  0  0  0  0  0  0  0  0  0  0
   -2.0174    0.5562   -0.4143 C   0  0  0  0  0  0  0  0  0  0  0  0
    0.4446    3.0564    0.9757 C   0  0  0  0  0  0  0  0  0  0  0  0
   -2.7072   -1.3069    0.9104 C   0  0  0  0  0  0  0  0  0  0  0  0
   -3.2437    0.8474   -1.1807 C   0  0  0  0  0  0  0  0  0  0  0  0
    1.1360    1.3647   -1.1679 H   0  0  0  0  0  0  0  0  0  0  0  0
    0.6711   -0.7829   -1.5082 H   0  0  0  0  0  0  0  0  0  0  0  0
    2.9941    1.9145    0.1897 H   0  0  0  0  0  0  0  0  0  0  0  0
    2.4572    0.8640    1.5110 H   0  0  0  0  0  0  0  0  0  0  0  0
    2.1805   -1.7407    0.9073 H   0  0  0  0  0  0  0  0  0  0  0  0
    2.4060   -2.1566   -0.7959 H   0  0  0  0  0  0  0  0  0  0  0  0
   -0.1172    1.1144    1.6181 H   0  0  0  0  0  0  0  0  0  0  0  0
   -0.2029   -1.1065    1.4102 H   0  0  0  0  0  0  0  0  0  0  0  0
   -1.9526   -1.4709   -1.0454 H   0  0  0  0  0  0  0  0  0  0  0  0
    4.3895    0.8881   -1.6848 H   0  0  0  0  0  0  0  0  0  0  0  0
    4.2129   -0.8339   -2.0539 H   0  0  0  0  0  0  0  0  0  0  0  0
    2.8532    0.2621   -2.2914 H   0  0  0  0  0  0  0  0  0  0  0  0
    4.2392   -0.7780    1.6947 H   0  0  0  0  0  0  0  0  0  0  0  0
    4.9947   -1.4802    0.2590 H   0  0  0  0  0  0  0  0  0  0  0  0
    5.2299    0.2356    0.6385 H   0  0  0  0  0  0  0  0  0  0  0  0
   -1.6502    2.6216   -0.3773 H   0  0  0  0  0  0  0  0  0  0  0  0
    1.3248    3.0782    1.6261 H   0  0  0  0  0  0  0  0  0  0  0  0
    0.6809    3.6188    0.0653 H   0  0  0  0  0  0  0  0  0  0  0  0
   -0.3553    3.5893    1.5031 H   0  0  0  0  0  0  0  0  0  0  0  0
    0.4746   -3.0457    0.7801 H   0  0  0  0  0  0  0  0  0  0  0  0
   -3.0370   -2.3595    0.8690 H   0  0  0  0  0  0  0  0  0  0  0  0
   -3.4494    1.9079   -1.4036 H   0  0  0  0  0  0  0  0  0  0  0  0
  1 10  1  0  0  0  0
  1 38  1  0  0  0  0
  2 17  2  0  0  0  0
  3 18  2  0  0  0  0
  4  5  1  0  0  0  0
  4  7  1  0  0  0  0
  4  9  1  0  0  0  0
  4 19  1  0  0  0  0
  5  8  1  0  0  0  0
  5 10  1  0  0  0  0
  5 20  1  0  0  0  0
  6  7  1  0  0  0  0
  6  8  1  0  0  0  0
  6 12  1  0  0  0  0
  6 13  1  0  0  0  0
  7 21  1  0  0  0  0
  7 22  1  0  0  0  0
  8 23  1  0  0  0  0
  8 24  1  0  0  0  0
  9 14  1  0  0  0  0
  9 16  1  0  0  0  0
  9 25  1  0  0  0  0
 10 11  1  0  0  0  0
 10 26  1  0  0  0  0
 11 15  1  0  0  0  0
 11 17  1  0  0  0  0
 11 27  1  0  0  0  0
 12 28  1  0  0  0  0
 12 29  1  0  0  0  0
 12 30  1  0  0  0  0
 13 31  1  0  0  0  0
 13 32  1  0  0  0  0
 13 33  1  0  0  0  0
 14 15  2  0  0  0  0
 14 34  1  0  0  0  0
 15 18  1  0  0  0  0
 16 35  1  0  0  0  0
 16 36  1  0  0  0  0
 16 37  1  0  0  0  0
 17 39  1  0  0  0  0
 18 40  1  0  0  0  0
M  END
> <PUBCHEM_COMPOUND_CID>
163695

> <PUBCHEM_CONFORMER_RMSD>
0.6

> <PUBCHEM_CONFORMER_DIVERSEORDER>
1
5
8
6
4
7
2
3

> <PUBCHEM_MMFF94_PARTIAL_CHARGES>
14
1 -0.68
10 0.28
11 0.2
14 -0.29
15 -0.12
17 0.45
18 0.5
2 -0.57
3 -0.57
34 0.15
38 0.4
39 0.06
40 0.06
9 0.14

> <PUBCHEM_EFFECTIVE_ROTOR_COUNT>
3.2

> <PUBCHEM_PHARMACOPHORE_FEATURES>
7
1 1 acceptor
1 1 donor
1 2 acceptor
1 3 acceptor
3 6 12 13 hydrophobe
5 4 5 6 7 8 rings
7 4 5 9 10 11 14 15 rings

> <PUBCHEM_HEAVY_ATOM_COUNT>
18

> <PUBCHEM_ATOM_DEF_STEREO_COUNT>
5

> <PUBCHEM_ATOM_UDEF_STEREO_COUNT>
0

> <PUBCHEM_BOND_DEF_STEREO_COUNT>
0

> <PUBCHEM_BOND_UDEF_STEREO_COUNT>
0

> <PUBCHEM_ISOTOPIC_ATOM_COUNT>
0

> <PUBCHEM_COMPONENT_COUNT>
1

> <PUBCHEM_CACTVS_TAUTO_COUNT>
3

> <PUBCHEM_CONFORMER_ID>
00027F6F00000001

> <PUBCHEM_MMFF94_ENERGY>
52.4229

> <PUBCHEM_FEATURE_SELFOVERLAP>
35.541

> <PUBCHEM_SHAPE_FINGERPRINT>
104564 63 18116702109448617000
10759866 29 17846769707591707350
108231 29 18335979787945188192
10863032 1 16774079583010301298
10967382 1 18409451422655899494
11132069 177 18259989266769066830
11315181 36 18201716285127888874
11543360 7 16630234827824538132
11680986 33 18118980091462124968
124424 183 18343591749857030842
12553582 1 18261943094620800764
12596599 1 17603582989307447191
12714826 92 18058997411424303227
13140716 1 18192144898230842754
14115302 16 18273215313788416526
15309172 13 18335133193893359515
15653759 3 17988640761826916139
15848700 24 18113341907720089828
16752209 62 18338802333283489606
16945 1 18335135393148242902
17844478 74 18130774621449307819
18186145 218 18261385629187759058
18534176 82 17847061095157543965
19010151 120 17749401359707812325
19026448 5 16056598742409944502
19422 9 16773793680286473990
200 152 17822021908025530647
20201158 50 18409735079296531694
20233049 118 18343028787308734620
20510252 161 18334850658576347432
20645476 183 17203616990251011987
21029758 11 18260559913003605088
21061003 4 18336533946232494857
21501502 16 17975409114286341626
22182313 1 18055086363150183245
22721475 48 18339912723715312352
22802520 49 17680689708623732950
2334 1 17760366591650508434
23402539 116 18115039596559576508
23493267 7 17561085829922791777
23558518 356 17831575749396077988
23559900 14 18410015438552312648
25 1 18198637712156488917
2748010 2 18049726221819986676
3286 77 18192138309935503547
353137 74 18194687187798876976
598444 67 18129938975559137459
81228 2 18116422838069957568
9709674 26 18263645237447271470

> <PUBCHEM_SHAPE_MULTIPOLES>
352.82
6.59
2.32
1.27
1.99
0.81
-0.14
-1.22
-1.27
-0.26
0.76
-0.56
0.06
0.56

> <PUBCHEM_SHAPE_SELFOVERLAP>
732.908

> <PUBCHEM_SHAPE_VOLUME>
201.3

> <PUBCHEM_COORDINATE_TYPE>
2
5
10

$$$$

