5447130
  -OEChem-07051212543D

 20 20  0     0  0  0  0  0  0999 V2000
    1.5244   -0.6432    0.0001 O   0  0  0  0  0  0  0  0  0  0  0  0
    4.8863    0.3196   -0.0009 O   0  5  0  0  0  0  0  0  0  0  0  0
    3.9355   -1.6591    0.0004 O   0  0  0  0  0  0  0  0  0  0  0  0
   -4.5258    1.1551    0.0000 O   0  0  0  0  0  0  0  0  0  0  0  0
    3.8414   -0.3960   -0.0001 N   0  3  0  0  0  0  0  0  0  0  0  0
   -1.9713    0.1294    0.0000 N   0  0  0  0  0  0  0  0  0  0  0  0
   -3.0726   -0.6547   -0.0003 N   0  0  0  0  0  0  0  0  0  0  0  0
   -5.3430   -0.9912    0.0002 N   0  0  0  0  0  0  0  0  0  0  0  0
    0.4320    0.1416    0.0001 C   0  0  0  0  0  0  0  0  0  0  0  0
    0.7377    1.4623    0.0001 C   0  0  0  0  0  0  0  0  0  0  0  0
    2.5830    0.2086    0.0004 C   0  0  0  0  0  0  0  0  0  0  0  0
    2.1520    1.5149    0.0004 C   0  0  0  0  0  0  0  0  0  0  0  0
   -0.8571   -0.5293   -0.0001 C   0  0  0  0  0  0  0  0  0  0  0  0
   -4.3225   -0.0582   -0.0003 C   0  0  0  0  0  0  0  0  0  0  0  0
    0.0518    2.2974    0.0000 H   0  0  0  0  0  0  0  0  0  0  0  0
    2.7738    2.3991    0.0005 H   0  0  0  0  0  0  0  0  0  0  0  0
   -0.8316   -1.6350   -0.0003 H   0  0  0  0  0  0  0  0  0  0  0  0
   -2.9552   -1.6628   -0.0005 H   0  0  0  0  0  0  0  0  0  0  0  0
   -6.3165   -0.7059    0.0005 H   0  0  0  0  0  0  0  0  0  0  0  0
   -5.1520   -1.9876    0.0000 H   0  0  0  0  0  0  0  0  0  0  0  0
  1  9  1  0  0  0  0
  1 11  1  0  0  0  0
  2  5  1  0  0  0  0
  3  5  2  0  0  0  0
  4 14  2  0  0  0  0
  5 11  1  0  0  0  0
  6  7  1  0  0  0  0
  6 13  2  0  0  0  0
  7 14  1  0  0  0  0
  7 18  1  0  0  0  0
  8 14  1  0  0  0  0
  8 19  1  0  0  0  0
  8 20  1  0  0  0  0
  9 10  2  0  0  0  0
  9 13  1  0  0  0  0
 10 12  1  0  0  0  0
 10 15  1  0  0  0  0
 11 12  2  0  0  0  0
 12 16  1  0  0  0  0
 13 17  1  0  0  0  0
M  CHG  2   2  -1   5   1
M  END
> <PUBCHEM_COMPOUND_CID>
5447130

> <PUBCHEM_CONFORMER_RMSD>
0.6

> <PUBCHEM_CONFORMER_DIVERSEORDER>
1
2
6
4
3
5

> <PUBCHEM_MMFF94_PARTIAL_CHARGES>
20
1 -0.28
10 -0.15
11 0.22
12 -0.15
13 0.47
14 0.69
15 0.15
16 0.15
17 0.06
18 0.37
19 0.37
2 -0.52
20 0.37
3 -0.52
4 -0.57
5 0.96
6 -0.51
7 -0.37
8 -0.8
9 0.05

> <PUBCHEM_EFFECTIVE_ROTOR_COUNT>
4

> <PUBCHEM_PHARMACOPHORE_FEATURES>
9
1 1 acceptor
1 2 acceptor
1 2 anion
1 3 acceptor
1 4 acceptor
1 6 acceptor
1 7 donor
1 8 donor
5 1 9 10 11 12 rings

> <PUBCHEM_HEAVY_ATOM_COUNT>
14

> <PUBCHEM_ATOM_DEF_STEREO_COUNT>
0

> <PUBCHEM_ATOM_UDEF_STEREO_COUNT>
0

> <PUBCHEM_BOND_DEF_STEREO_COUNT>
1

> <PUBCHEM_BOND_UDEF_STEREO_COUNT>
0

> <PUBCHEM_ISOTOPIC_ATOM_COUNT>
0

> <PUBCHEM_COMPONENT_COUNT>
1

> <PUBCHEM_CACTVS_TAUTO_COUNT>
3

> <PUBCHEM_CONFORMER_ID>
00531DDA00000001

> <PUBCHEM_MMFF94_ENERGY>
20.3254

> <PUBCHEM_FEATURE_SELFOVERLAP>
45.819

> <PUBCHEM_SHAPE_FINGERPRINT>
11062470 55 6627753288207747845
11401426 45 18334017185258880024
11471102 20 18412545401195046524
13167823 11 18408608028803138575
13675066 3 18187088338516874467
13690532 89 18408885148239555051
13922767 16 18260268533737098024
14123238 8 18261111863640265623
14252887 29 18113611313923185550
15242439 84 17988928860191823207
17834072 33 18337108964737997756
18186145 218 17846225431960734737
18522853 276 18261110781166420169
200 152 18186522103240532329
20645477 70 18410291436781582966
20871998 22 18188484817416791518
22485316 2 18409451379658786278
23402539 116 17603591837494133397
23402655 69 18409169926336318821
42 15 18410573998046902535
4214541 1 18410573985842547585
42788 4 18410856555350103524
4463277 17 18409728461480136564
5104073 3 18409448068566043121
522135 26 18343019978235819540
77779 3 18412261710236724693

> <PUBCHEM_SHAPE_MULTIPOLES>
244.71
10.55
1.33
0.56
7.56
0.17
0
-2.06
0
-0.57
0
0
0.02
0

> <PUBCHEM_SHAPE_SELFOVERLAP>
508.962

> <PUBCHEM_SHAPE_VOLUME>
139.8

> <PUBCHEM_COORDINATE_TYPE>
2
5
10

$$$$

