12967404
  -OEChem-07051213032D

 60 64  0     1  0  0  0  0  0999 V2000
    4.2625   -0.0289    0.0000 O   0  0  0  0  0  0  0  0  0  0  0  0
   11.3266   -0.0223    0.0000 O   0  0  0  0  0  0  0  0  0  0  0  0
   10.6306    2.5471    0.0000 O   0  0  0  0  0  0  0  0  0  0  0  0
    2.5381   -2.0356    0.0000 O   0  0  0  0  0  0  0  0  0  0  0  0
    6.9121   -1.5360    0.0000 O   0  0  0  0  0  0  0  0  0  0  0  0
    8.6605    2.4985    0.0000 O   0  0  0  0  0  0  0  0  0  0  0  0
    8.6605   -1.5015    0.0000 O   0  0  0  0  0  0  0  0  0  0  0  0
   12.1529    3.5323    0.0000 O   0  0  0  0  0  0  0  0  0  0  0  0
    4.2740   -3.0289    0.0000 N   0  0  0  0  0  0  0  0  0  0  0  0
    4.2702   -2.0289    0.0000 C   0  0  2  0  0  0  0  0  0  0  0  0
    5.1343   -1.5256    0.0000 C   0  0  0  0  0  0  0  0  0  0  0  0
    5.1304   -0.5256    0.0000 C   0  0  2  0  0  0  0  0  0  0  0  0
    3.4022   -1.5323    0.0000 C   0  0  1  0  0  0  0  0  0  0  0  0
    3.3984   -0.5323    0.0000 C   0  0  1  0  0  0  0  0  0  0  0  0
   10.4205    1.5332    0.0000 C   0  0  1  0  0  0  0  0  0  0  0  0
   11.3266    1.0194    0.0000 C   0  0  1  0  0  0  0  0  0  0  0  0
    9.5266    0.9985    0.0000 C   0  0  0  0  0  0  0  0  0  0  0  0
    5.9945   -0.0223    0.0000 C   0  0  0  0  0  0  0  0  0  0  0  0
    9.5266   -0.0015    0.0000 C   0  0  0  0  0  0  0  0  0  0  0  0
   10.4205   -0.5361    0.0000 C   0  0  1  0  0  0  0  0  0  0  0  0
   12.0889    1.7201    0.0000 C   0  0  0  0  0  0  0  0  0  0  0  0
    7.7945   -0.0015    0.0000 C   0  0  0  0  0  0  0  0  0  0  0  0
    7.7945    0.9985    0.0000 C   0  0  0  0  0  0  0  0  0  0  0  0
    6.9006   -0.5361    0.0000 C   0  0  0  0  0  0  0  0  0  0  0  0
    8.6605    1.4985    0.0000 C   0  0  0  0  0  0  0  0  0  0  0  0
    8.6605   -0.5015    0.0000 C   0  0  0  0  0  0  0  0  0  0  0  0
    2.5304   -0.0356    0.0000 C   0  0  0  0  0  0  0  0  0  0  0  0
    5.9945    1.0194    0.0000 C   0  0  0  0  0  0  0  0  0  0  0  0
   11.6596    2.6624    0.0000 C   0  0  0  0  0  0  0  0  0  0  0  0
    6.9006    1.5332    0.0000 C   0  0  0  0  0  0  0  0  0  0  0  0
   10.4089   -1.5360    0.0000 C   0  0  0  0  0  0  0  0  0  0  0  0
    3.4099   -3.5323    0.0000 C   0  0  0  0  0  0  0  0  0  0  0  0
    5.1420   -3.5256    0.0000 C   0  0  0  0  0  0  0  0  0  0  0  0
    3.7344   -2.3410    0.0000 H   0  0  0  0  0  0  0  0  0  0  0  0
    5.3486   -2.1074    0.0000 H   0  0  0  0  0  0  0  0  0  0  0  0
    5.7444   -1.4156    0.0000 H   0  0  0  0  0  0  0  0  0  0  0  0
    5.1271    0.3244    0.0000 H   0  0  0  0  0  0  0  0  0  0  0  0
    3.4046   -2.1523    0.0000 H   0  0  0  0  0  0  0  0  0  0  0  0
    3.3960    0.0877    0.0000 H   0  0  0  0  0  0  0  0  0  0  0  0
    9.7277    2.0257    0.0000 H   0  0  0  0  0  0  0  0  0  0  0  0
   12.1048    0.6776    0.0000 H   0  0  0  0  0  0  0  0  0  0  0  0
   10.9544   -0.8513    0.0000 H   0  0  0  0  0  0  0  0  0  0  0  0
   12.4582    1.2221    0.0000 H   0  0  0  0  0  0  0  0  0  0  0  0
   12.6230    2.0350    0.0000 H   0  0  0  0  0  0  0  0  0  0  0  0
    2.8384    0.5025    0.0000 H   0  0  0  0  0  0  0  0  0  0  0  0
    1.9923    0.2723    0.0000 H   0  0  0  0  0  0  0  0  0  0  0  0
    2.2225   -0.5738    0.0000 H   0  0  0  0  0  0  0  0  0  0  0  0
    5.4588    1.3314    0.0000 H   0  0  0  0  0  0  0  0  0  0  0  0
    6.9077    2.1532    0.0000 H   0  0  0  0  0  0  0  0  0  0  0  0
    2.0000   -1.7277    0.0000 H   0  0  0  0  0  0  0  0  0  0  0  0
    9.7890   -1.5289    0.0000 H   0  0  0  0  0  0  0  0  0  0  0  0
   10.4018   -2.1560    0.0000 H   0  0  0  0  0  0  0  0  0  0  0  0
   11.0289   -1.5432    0.0000 H   0  0  0  0  0  0  0  0  0  0  0  0
    3.0979   -2.9965    0.0000 H   0  0  0  0  0  0  0  0  0  0  0  0
    2.8742   -3.8443    0.0000 H   0  0  0  0  0  0  0  0  0  0  0  0
    3.7220   -4.0680    0.0000 H   0  0  0  0  0  0  0  0  0  0  0  0
    4.8340   -4.0637    0.0000 H   0  0  0  0  0  0  0  0  0  0  0  0
    5.6801   -3.8335    0.0000 H   0  0  0  0  0  0  0  0  0  0  0  0
    5.4499   -2.9875    0.0000 H   0  0  0  0  0  0  0  0  0  0  0  0
    7.4526   -1.8398    0.0000 H   0  0  0  0  0  0  0  0  0  0  0  0
  1 12  1  0  0  0  0
  1 14  1  0  0  0  0
  2 16  1  0  0  0  0
  2 20  1  0  0  0  0
  3 15  1  0  0  0  0
  3 29  1  0  0  0  0
 13  4  1  6  0  0  0
  4 50  1  0  0  0  0
  5 24  1  0  0  0  0
  5 60  1  0  0  0  0
  6 25  2  0  0  0  0
  7 26  2  0  0  0  0
  8 29  2  0  0  0  0
 10  9  1  1  0  0  0
  9 32  1  0  0  0  0
  9 33  1  0  0  0  0
 10 11  1  0  0  0  0
 10 13  1  0  0  0  0
 10 34  1  0  0  0  0
 11 12  1  0  0  0  0
 11 35  1  0  0  0  0
 11 36  1  0  0  0  0
 12 18  1  0  0  0  0
 12 37  1  6  0  0  0
 13 14  1  0  0  0  0
 13 38  1  0  0  0  0
 14 27  1  1  0  0  0
 14 39  1  0  0  0  0
 15 16  1  0  0  0  0
 15 17  1  0  0  0  0
 15 40  1  6  0  0  0
 16 21  1  0  0  0  0
 16 41  1  6  0  0  0
 17 19  2  0  0  0  0
 17 25  1  0  0  0  0
 18 24  2  0  0  0  0
 18 28  1  0  0  0  0
 19 20  1  0  0  0  0
 19 26  1  0  0  0  0
 20 31  1  6  0  0  0
 20 42  1  0  0  0  0
 21 29  1  0  0  0  0
 21 43  1  0  0  0  0
 21 44  1  0  0  0  0
 22 23  2  0  0  0  0
 22 24  1  0  0  0  0
 22 26  1  0  0  0  0
 23 25  1  0  0  0  0
 23 30  1  0  0  0  0
 27 45  1  0  0  0  0
 27 46  1  0  0  0  0
 27 47  1  0  0  0  0
 28 30  2  0  0  0  0
 28 48  1  0  0  0  0
 30 49  1  0  0  0  0
 31 51  1  0  0  0  0
 31 52  1  0  0  0  0
 31 53  1  0  0  0  0
 32 54  1  0  0  0  0
 32 55  1  0  0  0  0
 32 56  1  0  0  0  0
 33 57  1  0  0  0  0
 33 58  1  0  0  0  0
 33 59  1  0  0  0  0
M  END
> <PUBCHEM_COMPOUND_CID>
12967404

> <PUBCHEM_COMPOUND_CANONICALIZED>
1

> <PUBCHEM_CACTVS_COMPLEXITY>
899

> <PUBCHEM_CACTVS_HBOND_ACCEPTOR>
9

> <PUBCHEM_CACTVS_HBOND_DONOR>
2

> <PUBCHEM_CACTVS_ROTATABLE_BOND>
2

> <PUBCHEM_CACTVS_SUBSKEYS>
AAADceB6PAAAAAAAAAAAAAAAAAAAASAAAAA0QIEAAAAAAECRAAAAHgAACAAADDzhmAYyDoMABgCIAqDSCAACAAAkIAAIiAEMCMgLNzaCtRqGcUAn4BEbuYfb/P/OwAADAAAYAACAAAYAADAAAAAAAAAAAA==

> <PUBCHEM_IUPAC_INCHI>
InChI=1S/C24H27NO8/c1-9-17-19(24-15(31-9)8-16(26)33-24)22(29)12-6-5-11(21(28)18(12)23(17)30)14-7-13(25(3)4)20(27)10(2)32-14/h5-6,9-10,13-15,20,24,27-28H,7-8H2,1-4H3/t9-,10-,13-,14-,15-,20-,24+/m1/s1

> <PUBCHEM_IUPAC_INCHIKEY>
NYJGMJFBEVSQNN-CNRHASOASA-N

> <PUBCHEM_XLOGP3_AA>
0.7

> <PUBCHEM_EXACT_MASS>
457.173667

> <PUBCHEM_MOLECULAR_FORMULA>
C24H27NO8

> <PUBCHEM_MOLECULAR_WEIGHT>
457.47308

> <PUBCHEM_OPENEYE_CAN_SMILES>
CC1C(C(CC(O1)C2=C(C3=C(C=C2)C(=O)C4=C(C3=O)C(OC5C4OC(=O)C5)C)O)N(C)C)O

> <PUBCHEM_OPENEYE_ISO_SMILES>
C[C@@H]1[C@H]([C@@H](C[C@@H](O1)C2=C(C3=C(C=C2)C(=O)C4=C(C3=O)[C@H](O[C@H]5[C@@H]4OC(=O)C5)C)O)N(C)C)O

> <PUBCHEM_CACTVS_TPSA>
123

> <PUBCHEM_MONOISOTOPIC_WEIGHT>
457.173667

> <PUBCHEM_TOTAL_CHARGE>
0

> <PUBCHEM_HEAVY_ATOM_COUNT>
33

> <PUBCHEM_ATOM_DEF_STEREO_COUNT>
7

> <PUBCHEM_ATOM_UDEF_STEREO_COUNT>
0

> <PUBCHEM_BOND_DEF_STEREO_COUNT>
0

> <PUBCHEM_BOND_UDEF_STEREO_COUNT>
0

> <PUBCHEM_ISOTOPIC_ATOM_COUNT>
0

> <PUBCHEM_COMPONENT_COUNT>
1

> <PUBCHEM_CACTVS_TAUTO_COUNT>
10

> <PUBCHEM_COORDINATE_TYPE>
1
5
255

> <PUBCHEM_BONDANNOTATIONS>
12  37  6
14  27  5
15  40  6
16  41  6
18  24  8
18  28  8
20  31  6
22  23  8
22  24  8
23  30  8
28  30  8
13  4  6
10  9  5

$$$$

