193886
  -OEChem-07051212513D

 29 28  0     1  0  0  0  0  0999 V2000
    3.6378   -0.5656    0.1066 P   0  0  0  0  0  0  0  0  0  0  0  0
    0.5330    2.3226    1.0729 O   0  0  0  0  0  0  0  0  0  0  0  0
   -0.9770    2.0338   -1.3136 O   0  0  0  0  0  0  0  0  0  0  0  0
    2.3322    0.1724    0.7158 O   0  0  0  0  0  0  0  0  0  0  0  0
   -2.8813   -2.2026   -0.1909 O   0  0  0  0  0  0  0  0  0  0  0  0
   -2.0300   -0.3126   -1.8166 O   0  0  0  0  0  0  0  0  0  0  0  0
   -4.6343   -0.1317    0.5350 O   0  0  0  0  0  0  0  0  0  0  0  0
    3.9457    0.2576   -1.2510 O   0  0  0  0  0  0  0  0  0  0  0  0
    3.0398   -1.9669   -0.4357 O   0  0  0  0  0  0  0  0  0  0  0  0
    4.7936   -0.6944    1.0550 O   0  0  0  0  0  0  0  0  0  0  0  0
    0.0718    1.0490    0.6328 C   0  0  1  0  0  0  0  0  0  0  0  0
   -1.2304    1.2420   -0.1580 C   0  0  2  0  0  0  0  0  0  0  0  0
    1.1966    0.3337   -0.1175 C   0  0  0  0  0  0  0  0  0  0  0  0
   -1.9001   -0.0561   -0.6171 C   0  0  0  0  0  0  0  0  0  0  0  0
   -2.3986   -1.0291    0.4512 C   0  0  1  0  0  0  0  0  0  0  0  0
   -3.4989   -0.4523    1.3311 C   0  0  0  0  0  0  0  0  0  0  0  0
   -0.1364    0.4766    1.5445 H   0  0  0  0  0  0  0  0  0  0  0  0
   -1.9583    1.8043    0.4362 H   0  0  0  0  0  0  0  0  0  0  0  0
    1.4926    0.9276   -0.9884 H   0  0  0  0  0  0  0  0  0  0  0  0
    0.8571   -0.6486   -0.4592 H   0  0  0  0  0  0  0  0  0  0  0  0
   -1.5435   -1.3314    1.0625 H   0  0  0  0  0  0  0  0  0  0  0  0
   -3.8247   -1.1975    2.0636 H   0  0  0  0  0  0  0  0  0  0  0  0
   -3.1796    0.4447    1.8690 H   0  0  0  0  0  0  0  0  0  0  0  0
   -0.1751    2.7270    1.6027 H   0  0  0  0  0  0  0  0  0  0  0  0
   -0.5885    2.8731   -1.0127 H   0  0  0  0  0  0  0  0  0  0  0  0
   -3.6893   -1.9640   -0.6769 H   0  0  0  0  0  0  0  0  0  0  0  0
   -4.3844    0.5985   -0.0560 H   0  0  0  0  0  0  0  0  0  0  0  0
    4.7471    0.0337   -1.7702 H   0  0  0  0  0  0  0  0  0  0  0  0
    3.6590   -2.6467   -0.7770 H   0  0  0  0  0  0  0  0  0  0  0  0
  1  4  1  0  0  0  0
  1  8  1  0  0  0  0
  1  9  1  0  0  0  0
  1 10  2  0  0  0  0
  2 11  1  0  0  0  0
  2 24  1  0  0  0  0
  3 12  1  0  0  0  0
  3 25  1  0  0  0  0
  4 13  1  0  0  0  0
  5 15  1  0  0  0  0
  5 26  1  0  0  0  0
  6 14  2  0  0  0  0
  7 16  1  0  0  0  0
  7 27  1  0  0  0  0
  8 28  1  0  0  0  0
  9 29  1  0  0  0  0
 11 12  1  0  0  0  0
 11 13  1  0  0  0  0
 11 17  1  0  0  0  0
 12 14  1  0  0  0  0
 12 18  1  0  0  0  0
 13 19  1  0  0  0  0
 13 20  1  0  0  0  0
 14 15  1  0  0  0  0
 15 16  1  0  0  0  0
 15 21  1  0  0  0  0
 16 22  1  0  0  0  0
 16 23  1  0  0  0  0
M  END
> <PUBCHEM_COMPOUND_CID>
193886

> <PUBCHEM_CONFORMER_RMSD>
0.8

> <PUBCHEM_CONFORMER_DIVERSEORDER>
1
200
158
174
89
261
305
118
23
162
192
114
273
161
185
58
5
269
260
231
294
71
297
182
90
73
150
63
225
170
212
250
295
167
308
29
288
100
272
127
270
111
46
243
2
228
169
216
214
49
198
287
91
24
131
218
205
201
28
84
21
18
124
87
285
232
177
95
75
206
67
52
40
191
176
86
68
282
154
115
283
165
140
55
291
106
74
151
112
60
233
175
202
129
14
56
41
203
85
42
105
36
229
253
236
222
304
9
101
168
27
152
251
107
180
25
59
35
116
271
7
242
303
281
207
146
33
264
142
3
139
103
289
16
244
248
99
254
108
193
184
32
93
69
10
149
123
54
190
237
82
277
183
301
119
275
96
204
226
300
15
290
187
213
126
128
143
57
94
12
252
121
196
83
280
113
125
79
163
238
227
268
78
147
186
194
51
62
220
117
136
265
70
92
274
307
97
221
30
256
293
138
64
133
132
266
45
258
98
37
102
171
249
34
209
189
276
257
72
178
20
298
22
66
219
153
31
157
81
76
137
259
77
255
61
4
144
44
234
13
267
299
50
181
48
6
197
278
188
145
26
130
195
208
19
135
80
120
223
179
155
8
122
279
148
224
141
246
262
302
172
306
39
156
38
211
110
11
240
65
284
210
296
217
53
47
235
239
159
134
263
166
88
247
241
309
286
17
160
199
109
43
292
164
104
215
245
173
230

> <PUBCHEM_MMFF94_PARTIAL_CHARGES>
22
1 1.51
10 -0.7
11 0.28
12 0.34
13 0.28
14 0.45
15 0.34
16 0.28
2 -0.68
24 0.4
25 0.4
26 0.4
27 0.4
28 0.5
29 0.5
3 -0.68
4 -0.55
5 -0.68
6 -0.57
7 -0.68
8 -0.77
9 -0.77

> <PUBCHEM_EFFECTIVE_ROTOR_COUNT>
7

> <PUBCHEM_PHARMACOPHORE_FEATURES>
13
1 10 acceptor
1 2 acceptor
1 2 donor
1 3 acceptor
1 3 donor
1 5 acceptor
1 5 donor
1 6 acceptor
1 7 acceptor
1 7 donor
1 8 acceptor
1 9 acceptor
4 1 8 9 10 anion

> <PUBCHEM_HEAVY_ATOM_COUNT>
16

> <PUBCHEM_ATOM_DEF_STEREO_COUNT>
3

> <PUBCHEM_ATOM_UDEF_STEREO_COUNT>
0

> <PUBCHEM_BOND_DEF_STEREO_COUNT>
0

> <PUBCHEM_BOND_UDEF_STEREO_COUNT>
0

> <PUBCHEM_ISOTOPIC_ATOM_COUNT>
0

> <PUBCHEM_COMPONENT_COUNT>
1

> <PUBCHEM_CACTVS_TAUTO_COUNT>
10

> <PUBCHEM_CONFORMER_ID>
0002F55E00000001

> <PUBCHEM_MMFF94_ENERGY>
-10.7821

> <PUBCHEM_FEATURE_SELFOVERLAP>
66.037

> <PUBCHEM_SHAPE_FINGERPRINT>
10618630 7 18410851075182992834
12251169 10 16660364770529860120
12553582 1 18333449837564902838
14251764 30 16845277316575445947
15061688 2 4678552221761208779
15276787 5 15574707002064369352
15375462 189 18411981355930240434
17804303 29 18335976485494996153
18186145 218 12679184946555606680
18511873 20 17749102271381216993
19766037 51 18412261709825320152
200 152 17131833174908911512
20281407 28 18410854343468326425
20281475 54 18410856512395175331
20671657 53 17346594171123398220
20871999 31 17418102018158866869
21061003 4 18041287603389837768
22485316 2 18410290281107871499
228727 97 14476967783059312333
23402539 116 16773521053079380796
23557571 272 17561084726337931356
351380 180 8718550471555214642
83771 10 18272086076333327529

> <PUBCHEM_SHAPE_MULTIPOLES>
280.3
8.16
1.88
1.29
4.48
0.24
-0.24
-3.96
1.33
-0.29
-0.05
-0.25
0.19
0.18

> <PUBCHEM_SHAPE_SELFOVERLAP>
527.06

> <PUBCHEM_SHAPE_VOLUME>
173.9

> <PUBCHEM_COORDINATE_TYPE>
2
5
10

$$$$

