443587
  -OEChem-07051213023D

 32 32  0     1  0  0  0  0  0999 V2000
    5.4958   -0.5709   -0.4944 O   0  0  0  0  0  0  0  0  0  0  0  0
    3.3826   -0.9259    1.3731 O   0  0  0  0  0  0  0  0  0  0  0  0
   -2.6826   -1.7690   -0.5322 O   0  0  0  0  0  0  0  0  0  0  0  0
   -4.7458   -1.3870    0.3239 O   0  0  0  0  0  0  0  0  0  0  0  0
   -4.8064    0.9937   -1.0624 N   0  0  0  0  0  0  0  0  0  0  0  0
    4.5579    0.4410   -0.1441 C   0  0  1  0  0  0  0  0  0  0  0  0
    0.8622    0.3550    0.8311 C   0  0  0  0  0  0  0  0  0  0  0  0
   -0.4391    0.8192    0.1749 C   0  0  0  0  0  0  0  0  0  0  0  0
    4.8803    0.1521   -1.5682 C   0  0  0  0  0  0  0  0  0  0  0  0
    2.0199    0.3684   -0.1657 C   0  0  0  0  0  0  0  0  0  0  0  0
   -1.6390    0.8204    1.1278 C   0  0  0  0  0  0  0  0  0  0  0  0
    3.3116   -0.1241    0.4506 C   0  0  0  0  0  0  0  0  0  0  0  0
   -2.9646    1.3151    0.5340 C   0  0  0  0  0  0  0  0  0  0  0  0
   -3.5026    0.4771   -0.6328 C   0  0  1  0  0  0  0  0  0  0  0  0
   -3.7301   -0.9651   -0.2154 C   0  0  0  0  0  0  0  0  0  0  0  0
    4.9445    1.3446    0.3087 H   0  0  0  0  0  0  0  0  0  0  0  0
    1.1021    1.0014    1.6841 H   0  0  0  0  0  0  0  0  0  0  0  0
    0.7266   -0.6573    1.2314 H   0  0  0  0  0  0  0  0  0  0  0  0
   -0.3022    1.8322   -0.2235 H   0  0  0  0  0  0  0  0  0  0  0  0
   -0.6511    0.1699   -0.6818 H   0  0  0  0  0  0  0  0  0  0  0  0
    4.1638   -0.3801   -2.1802 H   0  0  0  0  0  0  0  0  0  0  0  0
    5.4941    0.8621   -2.1075 H   0  0  0  0  0  0  0  0  0  0  0  0
    2.1713    1.3893   -0.5346 H   0  0  0  0  0  0  0  0  0  0  0  0
    1.7942   -0.2748   -1.0236 H   0  0  0  0  0  0  0  0  0  0  0  0
   -1.7725   -0.1849    1.5448 H   0  0  0  0  0  0  0  0  0  0  0  0
   -1.3970    1.4664    1.9819 H   0  0  0  0  0  0  0  0  0  0  0  0
   -2.8377    2.3553    0.2072 H   0  0  0  0  0  0  0  0  0  0  0  0
   -3.7027    1.3318    1.3475 H   0  0  0  0  0  0  0  0  0  0  0  0
   -2.8283    0.5027   -1.4946 H   0  0  0  0  0  0  0  0  0  0  0  0
   -5.4461    1.0221   -0.2685 H   0  0  0  0  0  0  0  0  0  0  0  0
   -4.7019    1.9610   -1.3676 H   0  0  0  0  0  0  0  0  0  0  0  0
   -2.8432   -2.7001   -0.2686 H   0  0  0  0  0  0  0  0  0  0  0  0
  1  6  1  0  0  0  0
  1  9  1  0  0  0  0
  2 12  2  0  0  0  0
  3 15  1  0  0  0  0
  3 32  1  0  0  0  0
  4 15  2  0  0  0  0
  5 14  1  0  0  0  0
  5 30  1  0  0  0  0
  5 31  1  0  0  0  0
  6  9  1  0  0  0  0
  6 12  1  0  0  0  0
  6 16  1  0  0  0  0
  7  8  1  0  0  0  0
  7 10  1  0  0  0  0
  7 17  1  0  0  0  0
  7 18  1  0  0  0  0
  8 11  1  0  0  0  0
  8 19  1  0  0  0  0
  8 20  1  0  0  0  0
  9 21  1  0  0  0  0
  9 22  1  0  0  0  0
 10 12  1  0  0  0  0
 10 23  1  0  0  0  0
 10 24  1  0  0  0  0
 11 13  1  0  0  0  0
 11 25  1  0  0  0  0
 11 26  1  0  0  0  0
 13 14  1  0  0  0  0
 13 27  1  0  0  0  0
 13 28  1  0  0  0  0
 14 15  1  0  0  0  0
 14 29  1  0  0  0  0
M  END
> <PUBCHEM_COMPOUND_CID>
443587

> <PUBCHEM_CONFORMER_RMSD>
0.8

> <PUBCHEM_CONFORMER_DIVERSEORDER>
1
261
19
42
163
447
137
415
151
3
471
472
454
368
459
5
420
366
315
75
445
125
153
431
109
214
150
20
333
362
478
127
298
34
155
369
469
139
273
37
379
48
51
4
212
204
371
54
299
234
448
82
152
76
58
455
278
33
331
12
373
18
479
105
69
157
399
26
235
322
119
2
430
194
337
79
434
98
476
52
145
440
165
24
81
248
481
83
128
90
326
417
438
292
240
432
258
140
103
7
123
465
168
23
192
9
112
305
224
232
149
11
143
16
271
265
275
226
433
435
377
464
85
356
260
161
21
483
44
461
238
219
272
302
414
10
456
14
347
285
77
86
309
398
202
116
27
179
463
426
30
284
195
395
462
394
25
189
242
304
332
117
375
115
467
154
416
436
264
370
444
428
174
250
355
259
35
62
186
470
262
203
408
227
280
323
308
101
60
47
340
45
339
172
28
349
142
217
257
480
71
74
223
66
321
207
185
88
328
89
405
220
46
130
218
253
164
199
268
244
196
400
246
360
327
392
182
22
374
126
380
237
38
111
190
198
32
381
474
270
36
84
288
160
344
325
63
167
391
94
211
104
72
283
171
173
385
423
8
229
252
64
200
437
410
148
113
407
141
477
279
294
17
336
68
358
451
114
146
221
180
317
124
158
120
453
267
100
31
382
6
342
409
236
418
319
41
263
245
406
222
291
184
49
230
73
419
388
166
216
169
121
314
320
56
201
338
206
460
13
122
427
50
383
213
345
233
87
443
57
413
389
110
208
402
274
390
363
187
361
59
178
67
353
197
40
135
378
330
255
334
243
215
404
396
43
156
452
193
131
269
191
450
228
183
357
311
61
341
209
346
468
287
343
352
96
177
254
118
136
376
175
393
313
129
318
411
307
93
296
282
144
286
108
65
372
401
422
39
439
147
290
231
107
429
29
251
386
295
256
95
449
301
354
210
424
138
300
359
442
293
277
316
387
335
351
53
364
102
159
78
205
446
70
15
97
312
106
162
249
276
365
329
80
412
225
134
289
133
170
466
306
421
425
132
367
92
188
176
473
458
475
281
55
266
457
247
403
348
239
241
99
324
397
350
91
310
384
303
181
441
297
482

> <PUBCHEM_MMFF94_PARTIAL_CHARGES>
17
1 -0.3
10 0.06
12 0.51
14 0.33
15 0.66
16 0.1
2 -0.57
21 0.1
22 0.1
3 -0.65
30 0.36
31 0.36
32 0.5
4 -0.57
5 -0.99
6 0.05
9 -0.05

> <PUBCHEM_EFFECTIVE_ROTOR_COUNT>
8.6

> <PUBCHEM_PHARMACOPHORE_FEATURES>
8
1 1 acceptor
1 2 acceptor
1 3 acceptor
1 4 acceptor
1 5 cation
1 5 donor
3 3 4 15 anion
5 7 8 10 11 13 hydrophobe

> <PUBCHEM_HEAVY_ATOM_COUNT>
15

> <PUBCHEM_ATOM_DEF_STEREO_COUNT>
1

> <PUBCHEM_ATOM_UDEF_STEREO_COUNT>
1

> <PUBCHEM_BOND_DEF_STEREO_COUNT>
0

> <PUBCHEM_BOND_UDEF_STEREO_COUNT>
0

> <PUBCHEM_ISOTOPIC_ATOM_COUNT>
0

> <PUBCHEM_COMPONENT_COUNT>
1

> <PUBCHEM_CACTVS_TAUTO_COUNT>
3

> <PUBCHEM_CONFORMER_ID>
0006C4C300000001

> <PUBCHEM_MMFF94_ENERGY>
12.543

> <PUBCHEM_FEATURE_SELFOVERLAP>
40.657

> <PUBCHEM_SHAPE_FINGERPRINT>
10014705 185 13326569627314808441
10680689 15 18409440414533673785
11046707 91 18333448746416531817
11089746 13 16630527311303802652
11128504 68 17988920042370874092
11543360 7 18202565068479466888
13167823 11 18413390955749160658
14251718 22 18411134710902793268
14251758 9 11311791553010865624
14252887 29 14056995062408742308
14455015 7 16588014736885701532
14528608 73 17846775183585248276
17834072 33 18202280282256888316
17844677 252 16008746918406481304
17870717 6 18259697913362229525
200 152 18060700589443211520
20325693 3 18412829092886610941
20432913 95 15140676994892584540
20621476 21 17749934597214974894
20645477 70 15647054897996606180
20767249 213 10375874061170822123
20871999 31 18202289095777660457
21054139 6 18271810086568424378
23402539 116 17561084717668855700
23402655 69 17846502577225594508
23557571 272 17677043671852339680
23559900 14 18114473270524893280
300161 21 18059863878142474432
351380 3 18408603630513871907
42 15 13984660360800869648
90127 26 17022626385603299752

> <PUBCHEM_SHAPE_MULTIPOLES>
280.23
12.83
1.31
1.17
5.72
0.29
0.09
2.75
3.47
-1.66
-0.11
0.6
-0.02
0.21

> <PUBCHEM_SHAPE_SELFOVERLAP>
540.907

> <PUBCHEM_SHAPE_VOLUME>
170.4

> <PUBCHEM_COORDINATE_TYPE>
2
5
10

$$$$

