443347
  -OEChem-07051213023D

 75 77  0     1  0  0  0  0  0999 V2000
   -1.9459   -0.8166   -1.9666 O   0  0  0  0  0  0  0  0  0  0  0  0
   -0.7033   -0.4777    0.0113 O   0  0  0  0  0  0  0  0  0  0  0  0
    1.5252   -1.1328    0.2316 O   0  0  0  0  0  0  0  0  0  0  0  0
   -4.9316    1.2424    0.8657 O   0  0  0  0  0  0  0  0  0  0  0  0
    0.1559    2.0848   -0.8277 O   0  0  0  0  0  0  0  0  0  0  0  0
    2.8043    2.7698    0.2667 O   0  0  0  0  0  0  0  0  0  0  0  0
    4.6928    0.6425   -0.2469 O   0  0  0  0  0  0  0  0  0  0  0  0
    3.2021   -3.3050    0.0715 O   0  0  0  0  0  0  0  0  0  0  0  0
   -6.9670    2.2923    0.5623 O   0  0  0  0  0  0  0  0  0  0  0  0
   -1.4727    2.0179    0.8093 O   0  0  0  0  0  0  0  0  0  0  0  0
    2.2037    3.8915   -1.6615 O   0  0  0  0  0  0  0  0  0  0  0  0
    5.1513    2.0308    1.5418 O   0  0  0  0  0  0  0  0  0  0  0  0
    4.7945   -4.3956    1.3413 O   0  0  0  0  0  0  0  0  0  0  0  0
   -2.3432   -2.2337    0.0180 C   0  0  1  0  0  0  0  0  0  0  0  0
   -3.5878   -1.3959    0.3986 C   0  0  2  0  0  0  0  0  0  0  0  0
   -2.9300   -3.4730   -0.6750 C   0  0  2  0  0  0  0  0  0  0  0  0
   -4.7329   -2.4257    0.5198 C   0  0  0  0  0  0  0  0  0  0  0  0
   -4.1226   -3.7915    0.2205 C   0  0  0  0  0  0  0  0  0  0  0  0
   -1.3439   -1.4420   -0.8279 C   0  0  1  0  0  0  0  0  0  0  0  0
   -3.8863   -0.3116   -0.6132 C   0  0  0  0  0  0  0  0  0  0  0  0
   -1.9587   -4.6398   -0.7776 C   0  0  0  0  0  0  0  0  0  0  0  0
   -3.1003   -0.1357   -1.6867 C   0  0  0  0  0  0  0  0  0  0  0  0
    0.6353   -0.2264   -0.4157 C   0  0  2  0  0  0  0  0  0  0  0  0
   -5.0796    0.5659   -0.3690 C   0  0  0  0  0  0  0  0  0  0  0  0
    0.9823    1.2172   -0.0519 C   0  0  1  0  0  0  0  0  0  0  0  0
    2.4518    1.5252   -0.3392 C   0  0  2  0  0  0  0  0  0  0  0  0
    3.3666    0.4436    0.2357 C   0  0  1  0  0  0  0  0  0  0  0  0
    2.8832   -0.9500   -0.1727 C   0  0  1  0  0  0  0  0  0  0  0  0
    3.7108   -2.0499    0.4847 C   0  0  0  0  0  0  0  0  0  0  0  0
   -5.9548    2.0830    1.2172 C   0  0  0  0  0  0  0  0  0  0  0  0
   -1.0496    2.4035   -0.2721 C   0  0  0  0  0  0  0  0  0  0  0  0
    2.6278    3.8751   -0.5139 C   0  0  0  0  0  0  0  0  0  0  0  0
    5.4804    1.4638    0.5086 C   0  0  0  0  0  0  0  0  0  0  0  0
   -5.6630    2.7255    2.5394 C   0  0  0  0  0  0  0  0  0  0  0  0
   -1.8040    3.3150   -1.1919 C   0  0  0  0  0  0  0  0  0  0  0  0
    3.0353    5.0997    0.2479 C   0  0  0  0  0  0  0  0  0  0  0  0
    3.8394   -4.4077    0.5765 C   0  0  0  0  0  0  0  0  0  0  0  0
    6.8381    1.5788   -0.1157 C   0  0  0  0  0  0  0  0  0  0  0  0
    3.1963   -5.6575    0.0567 C   0  0  0  0  0  0  0  0  0  0  0  0
   -1.8486   -2.5447    0.9502 H   0  0  0  0  0  0  0  0  0  0  0  0
   -3.4083   -0.9196    1.3710 H   0  0  0  0  0  0  0  0  0  0  0  0
   -3.2886   -3.2211   -1.6814 H   0  0  0  0  0  0  0  0  0  0  0  0
   -5.1769   -2.4100    1.5211 H   0  0  0  0  0  0  0  0  0  0  0  0
   -5.5409   -2.2339   -0.1951 H   0  0  0  0  0  0  0  0  0  0  0  0
   -3.7976   -4.2658    1.1549 H   0  0  0  0  0  0  0  0  0  0  0  0
   -4.8394   -4.4622   -0.2635 H   0  0  0  0  0  0  0  0  0  0  0  0
   -0.5931   -2.1453   -1.2082 H   0  0  0  0  0  0  0  0  0  0  0  0
   -1.1233   -4.3999   -1.4422 H   0  0  0  0  0  0  0  0  0  0  0  0
   -2.4626   -5.5243   -1.1813 H   0  0  0  0  0  0  0  0  0  0  0  0
   -1.5456   -4.9057    0.2013 H   0  0  0  0  0  0  0  0  0  0  0  0
   -3.3077    0.5775   -2.4730 H   0  0  0  0  0  0  0  0  0  0  0  0
    0.7064   -0.3472   -1.5064 H   0  0  0  0  0  0  0  0  0  0  0  0
   -5.1815    1.3089   -1.1702 H   0  0  0  0  0  0  0  0  0  0  0  0
   -5.9958   -0.0347   -0.3553 H   0  0  0  0  0  0  0  0  0  0  0  0
    0.8086    1.3899    1.0197 H   0  0  0  0  0  0  0  0  0  0  0  0
    2.6249    1.5797   -1.4231 H   0  0  0  0  0  0  0  0  0  0  0  0
    3.3424    0.5046    1.3334 H   0  0  0  0  0  0  0  0  0  0  0  0
    2.9459   -1.0835   -1.2613 H   0  0  0  0  0  0  0  0  0  0  0  0
    4.7643   -1.9665    0.1946 H   0  0  0  0  0  0  0  0  0  0  0  0
    3.6272   -1.9800    1.5762 H   0  0  0  0  0  0  0  0  0  0  0  0
   -1.8575    2.8768   -2.1918 H   0  0  0  0  0  0  0  0  0  0  0  0
   -2.8244    3.4419   -0.8189 H   0  0  0  0  0  0  0  0  0  0  0  0
   -1.3133    4.2905   -1.2269 H   0  0  0  0  0  0  0  0  0  0  0  0
   -4.7406    3.3079    2.4718 H   0  0  0  0  0  0  0  0  0  0  0  0
   -6.4824    3.3996    2.8045 H   0  0  0  0  0  0  0  0  0  0  0  0
   -5.5781    1.9580    3.3127 H   0  0  0  0  0  0  0  0  0  0  0  0
    4.0913    5.0315    0.5212 H   0  0  0  0  0  0  0  0  0  0  0  0
    2.8946    5.9825   -0.3823 H   0  0  0  0  0  0  0  0  0  0  0  0
    2.4123    5.2053    1.1396 H   0  0  0  0  0  0  0  0  0  0  0  0
    7.3080    0.5933   -0.1645 H   0  0  0  0  0  0  0  0  0  0  0  0
    7.4645    2.2340    0.4964 H   0  0  0  0  0  0  0  0  0  0  0  0
    6.7502    2.0141   -1.1143 H   0  0  0  0  0  0  0  0  0  0  0  0
    2.1469   -5.6877    0.3606 H   0  0  0  0  0  0  0  0  0  0  0  0
    3.7058   -6.5297    0.4762 H   0  0  0  0  0  0  0  0  0  0  0  0
    3.2829   -5.6927   -1.0321 H   0  0  0  0  0  0  0  0  0  0  0  0
  1 19  1  0  0  0  0
  1 22  1  0  0  0  0
  2 19  1  0  0  0  0
  2 23  1  0  0  0  0
  3 23  1  0  0  0  0
  3 28  1  0  0  0  0
  4 24  1  0  0  0  0
  4 30  1  0  0  0  0
  5 25  1  0  0  0  0
  5 31  1  0  0  0  0
  6 26  1  0  0  0  0
  6 32  1  0  0  0  0
  7 27  1  0  0  0  0
  7 33  1  0  0  0  0
  8 29  1  0  0  0  0
  8 37  1  0  0  0  0
  9 30  2  0  0  0  0
 10 31  2  0  0  0  0
 11 32  2  0  0  0  0
 12 33  2  0  0  0  0
 13 37  2  0  0  0  0
 14 15  1  0  0  0  0
 14 16  1  0  0  0  0
 14 19  1  0  0  0  0
 14 40  1  0  0  0  0
 15 17  1  0  0  0  0
 15 20  1  0  0  0  0
 15 41  1  0  0  0  0
 16 18  1  0  0  0  0
 16 21  1  0  0  0  0
 16 42  1  0  0  0  0
 17 18  1  0  0  0  0
 17 43  1  0  0  0  0
 17 44  1  0  0  0  0
 18 45  1  0  0  0  0
 18 46  1  0  0  0  0
 19 47  1  0  0  0  0
 20 22  2  0  0  0  0
 20 24  1  0  0  0  0
 21 48  1  0  0  0  0
 21 49  1  0  0  0  0
 21 50  1  0  0  0  0
 22 51  1  0  0  0  0
 23 25  1  0  0  0  0
 23 52  1  0  0  0  0
 24 53  1  0  0  0  0
 24 54  1  0  0  0  0
 25 26  1  0  0  0  0
 25 55  1  0  0  0  0
 26 27  1  0  0  0  0
 26 56  1  0  0  0  0
 27 28  1  0  0  0  0
 27 57  1  0  0  0  0
 28 29  1  0  0  0  0
 28 58  1  0  0  0  0
 29 59  1  0  0  0  0
 29 60  1  0  0  0  0
 30 34  1  0  0  0  0
 31 35  1  0  0  0  0
 32 36  1  0  0  0  0
 33 38  1  0  0  0  0
 34 64  1  0  0  0  0
 34 65  1  0  0  0  0
 34 66  1  0  0  0  0
 35 61  1  0  0  0  0
 35 62  1  0  0  0  0
 35 63  1  0  0  0  0
 36 67  1  0  0  0  0
 36 68  1  0  0  0  0
 36 69  1  0  0  0  0
 37 39  1  0  0  0  0
 38 70  1  0  0  0  0
 38 71  1  0  0  0  0
 38 72  1  0  0  0  0
 39 73  1  0  0  0  0
 39 74  1  0  0  0  0
 39 75  1  0  0  0  0
M  END
> <PUBCHEM_COMPOUND_CID>
443347

> <PUBCHEM_CONFORMER_RMSD>
1.4

> <PUBCHEM_CONFORMER_DIVERSEORDER>
1
7
2
8
3
6
5
4

> <PUBCHEM_MMFF94_PARTIAL_CHARGES>
35
1 -0.36
10 -0.57
11 -0.57
12 -0.57
13 -0.57
15 0.14
19 0.56
2 -0.56
20 -0.28
22 -0.07
23 0.56
24 0.42
25 0.28
26 0.28
27 0.28
28 0.28
29 0.28
3 -0.56
30 0.66
31 0.66
32 0.66
33 0.66
34 0.06
35 0.06
36 0.06
37 0.66
38 0.06
39 0.06
4 -0.43
5 -0.43
51 0.15
6 -0.43
7 -0.43
8 -0.43
9 -0.57

> <PUBCHEM_EFFECTIVE_ROTOR_COUNT>
16.2

> <PUBCHEM_PHARMACOPHORE_FEATURES>
11
1 1 acceptor
1 10 acceptor
1 11 acceptor
1 12 acceptor
1 13 acceptor
1 2 acceptor
1 3 acceptor
1 9 acceptor
5 14 15 16 17 18 rings
6 1 14 15 19 20 22 rings
6 3 23 25 26 27 28 rings

> <PUBCHEM_HEAVY_ATOM_COUNT>
39

> <PUBCHEM_ATOM_DEF_STEREO_COUNT>
9

> <PUBCHEM_ATOM_UDEF_STEREO_COUNT>
0

> <PUBCHEM_BOND_DEF_STEREO_COUNT>
0

> <PUBCHEM_BOND_UDEF_STEREO_COUNT>
0

> <PUBCHEM_ISOTOPIC_ATOM_COUNT>
0

> <PUBCHEM_COMPONENT_COUNT>
1

> <PUBCHEM_CACTVS_TAUTO_COUNT>
1

> <PUBCHEM_CONFORMER_ID>
0006C3D300000001

> <PUBCHEM_MMFF94_ENERGY>
81.1943

> <PUBCHEM_FEATURE_SELFOVERLAP>
56.081

> <PUBCHEM_SHAPE_FINGERPRINT>
11135926 11 18341621412678486702
12107183 9 18265331896937816995
12422481 6 18336543820125437932
13140716 1 18194688055730612436
14790565 3 18122623843237635068
15001296 14 18269557298353404035
15064986 96 17968365827746705743
15320467 1 18340209562091572062
16112460 7 18262795302026691177
20028762 73 18119532025520900830
21421861 104 18200883971457185242
22311459 1 18411420613965140004
23559900 14 18410865330369176918
5104073 3 18413390947101678515

> <PUBCHEM_SHAPE_MULTIPOLES>
726.3
14.16
7.71
1.32
1.91
5.7
0.17
-4.44
5.38
-5.1
0.66
1.28
-0.75
-2.95

> <PUBCHEM_SHAPE_SELFOVERLAP>
1502.214

> <PUBCHEM_SHAPE_VOLUME>
407.9

> <PUBCHEM_COORDINATE_TYPE>
2
5
10

$$$$

