441100
  -OEChem-07051213023D

 58 60  0     1  0  0  0  0  0999 V2000
   -0.3873   -3.5839   -0.6972 P   0  0  2  0  0  0  0  0  0  0  0  0
   -2.5808   -1.7652   -1.4309 P   0  0  1  0  0  0  0  0  0  0  0  0
    3.1650   -1.4288    0.4613 O   0  0  0  0  0  0  0  0  0  0  0  0
    3.8251   -1.5116    3.4495 O   0  0  0  0  0  0  0  0  0  0  0  0
    1.0394   -3.1866   -0.0464 O   0  0  0  0  0  0  0  0  0  0  0  0
   -1.6344    0.8360    0.8875 O   0  0  0  0  0  0  0  0  0  0  0  0
   -2.8509   -0.2985   -0.8117 O   0  0  0  0  0  0  0  0  0  0  0  0
   -1.0888   -2.1480   -0.9401 O   0  0  0  0  0  0  0  0  0  0  0  0
   -5.4581    2.1842    1.7301 O   0  0  0  0  0  0  0  0  0  0  0  0
    4.6188    2.4317    0.2408 O   0  0  0  0  0  0  0  0  0  0  0  0
   -1.2256   -4.1925    0.5452 O   0  0  0  0  0  0  0  0  0  0  0  0
   -3.2602    3.7553    1.6859 O   0  0  0  0  0  0  0  0  0  0  0  0
   -0.3267   -4.4629   -1.9122 O   0  0  0  0  0  0  0  0  0  0  0  0
    1.6545    3.2008   -3.1898 O   0  0  0  0  0  0  0  0  0  0  0  0
   -3.5218   -2.7534   -0.5617 O   0  0  0  0  0  0  0  0  0  0  0  0
   -2.7846   -1.8629   -2.9151 O   0  0  0  0  0  0  0  0  0  0  0  0
    2.9912    0.8133   -0.1852 N   0  0  0  0  0  0  0  0  0  0  0  0
    3.1334    2.8030   -1.4667 N   0  0  0  0  0  0  0  0  0  0  0  0
    2.6104   -1.2300    2.7577 C   0  0  2  0  0  0  0  0  0  0  0  0
    2.4941   -2.1233    1.5305 C   0  0  1  0  0  0  0  0  0  0  0  0
    2.6719    0.1589    2.1655 C   0  0  0  0  0  0  0  0  0  0  0  0
    3.4138   -0.0731    0.8593 C   0  0  1  0  0  0  0  0  0  0  0  0
    1.0512   -2.3584    1.1032 C   0  0  0  0  0  0  0  0  0  0  0  0
    1.9083    0.4412   -0.9715 C   0  0  0  0  0  0  0  0  0  0  0  0
    3.6528    2.0383   -0.4162 C   0  0  0  0  0  0  0  0  0  0  0  0
   -3.9947    0.3457    1.2616 C   0  0  0  0  0  0  0  0  0  0  0  0
   -2.6905   -0.0801    0.5862 C   0  0  2  0  0  0  0  0  0  0  0  0
   -4.3852    1.7758    0.9053 C   0  0  2  0  0  0  0  0  0  0  0  0
   -1.8895    2.1716    0.4683 C   0  0  1  0  0  0  0  0  0  0  0  0
    1.4138    1.1752   -1.9760 C   0  0  0  0  0  0  0  0  0  0  0  0
   -3.1790    2.6736    1.1077 C   0  0  0  0  0  0  0  0  0  0  0  0
    2.0586    2.4801   -2.2812 C   0  0  0  0  0  0  0  0  0  0  0  0
   -0.6909    3.0186    0.8672 C   0  0  0  0  0  0  0  0  0  0  0  0
    0.2465    0.7561   -2.8106 C   0  0  0  0  0  0  0  0  0  0  0  0
    1.7893   -1.3502    3.4707 H   0  0  0  0  0  0  0  0  0  0  0  0
    3.0083   -3.0822    1.6588 H   0  0  0  0  0  0  0  0  0  0  0  0
    3.1885    0.8885    2.7969 H   0  0  0  0  0  0  0  0  0  0  0  0
    1.6557    0.5289    1.9824 H   0  0  0  0  0  0  0  0  0  0  0  0
    4.4944    0.0275    1.0161 H   0  0  0  0  0  0  0  0  0  0  0  0
    0.5219   -1.4252    0.8974 H   0  0  0  0  0  0  0  0  0  0  0  0
    0.5256   -2.8707    1.9152 H   0  0  0  0  0  0  0  0  0  0  0  0
    3.7689   -2.4267    3.7738 H   0  0  0  0  0  0  0  0  0  0  0  0
    1.4381   -0.5059   -0.7615 H   0  0  0  0  0  0  0  0  0  0  0  0
   -4.8119   -0.3335    0.9917 H   0  0  0  0  0  0  0  0  0  0  0  0
   -3.8710    0.2795    2.3508 H   0  0  0  0  0  0  0  0  0  0  0  0
   -2.3880   -1.0257    1.0496 H   0  0  0  0  0  0  0  0  0  0  0  0
   -4.6981    1.8443   -0.1422 H   0  0  0  0  0  0  0  0  0  0  0  0
   -2.0058    2.2045   -0.6210 H   0  0  0  0  0  0  0  0  0  0  0  0
    3.5942    3.6896   -1.6517 H   0  0  0  0  0  0  0  0  0  0  0  0
   -0.5556    3.0176    1.9548 H   0  0  0  0  0  0  0  0  0  0  0  0
   -0.8075    4.0559    0.5381 H   0  0  0  0  0  0  0  0  0  0  0  0
    0.2301    2.6163    0.4365 H   0  0  0  0  0  0  0  0  0  0  0  0
    0.5174    0.7481   -3.8714 H   0  0  0  0  0  0  0  0  0  0  0  0
   -0.0988   -0.2493   -2.5554 H   0  0  0  0  0  0  0  0  0  0  0  0
   -0.5913    1.4463   -2.6710 H   0  0  0  0  0  0  0  0  0  0  0  0
   -5.7331    3.0691    1.4352 H   0  0  0  0  0  0  0  0  0  0  0  0
   -1.4139   -3.6302    1.3261 H   0  0  0  0  0  0  0  0  0  0  0  0
   -3.6201   -3.6868   -0.8468 H   0  0  0  0  0  0  0  0  0  0  0  0
  1  5  1  0  0  0  0
  1  8  1  0  0  0  0
  1 11  1  0  0  0  0
  1 13  2  0  0  0  0
  2  7  1  0  0  0  0
  2  8  1  0  0  0  0
  2 15  1  0  0  0  0
  2 16  2  0  0  0  0
  3 20  1  0  0  0  0
  3 22  1  0  0  0  0
  4 19  1  0  0  0  0
  4 42  1  0  0  0  0
  5 23  1  0  0  0  0
  6 27  1  0  0  0  0
  6 29  1  0  0  0  0
  7 27  1  0  0  0  0
  9 28  1  0  0  0  0
  9 56  1  0  0  0  0
 10 25  2  0  0  0  0
 11 57  1  0  0  0  0
 12 31  2  0  0  0  0
 14 32  2  0  0  0  0
 15 58  1  0  0  0  0
 17 22  1  0  0  0  0
 17 24  1  0  0  0  0
 17 25  1  0  0  0  0
 18 25  1  0  0  0  0
 18 32  1  0  0  0  0
 18 49  1  0  0  0  0
 19 20  1  0  0  0  0
 19 21  1  0  0  0  0
 19 35  1  0  0  0  0
 20 23  1  0  0  0  0
 20 36  1  0  0  0  0
 21 22  1  0  0  0  0
 21 37  1  0  0  0  0
 21 38  1  0  0  0  0
 22 39  1  0  0  0  0
 23 40  1  0  0  0  0
 23 41  1  0  0  0  0
 24 30  2  0  0  0  0
 24 43  1  0  0  0  0
 26 27  1  0  0  0  0
 26 28  1  0  0  0  0
 26 44  1  0  0  0  0
 26 45  1  0  0  0  0
 27 46  1  0  0  0  0
 28 31  1  0  0  0  0
 28 47  1  0  0  0  0
 29 31  1  0  0  0  0
 29 33  1  0  0  0  0
 29 48  1  0  0  0  0
 30 32  1  0  0  0  0
 30 34  1  0  0  0  0
 33 50  1  0  0  0  0
 33 51  1  0  0  0  0
 33 52  1  0  0  0  0
 34 53  1  0  0  0  0
 34 54  1  0  0  0  0
 34 55  1  0  0  0  0
M  END
> <PUBCHEM_COMPOUND_CID>
441100

> <PUBCHEM_CONFORMER_RMSD>
1.6

> <PUBCHEM_CONFORMER_DIVERSEORDER>
1
90
83
95
45
97
82
74
52
17
87
22
114
53
7
103
65
37
34
23
119
54
2
77
123
56
31
76
105
117
59
91
47
32
109
99
113
104
57
29
89
55
93
48
92
120
21
13
94
96
41
100
118
124
66
88
121
24
20
58
62
18
70
14
30
27
110
46
15
78
107
4
38
101
85
40
33
98
84
43
73
116
9
67
49
26
122
39
115
16
6
50
64
111
42
72
108
28
81
61
106
35
68
63
102
71
19
51
112
11
3
79
75
5
60
36
44
80
12
86
10
69
25
8

> <PUBCHEM_MMFF94_PARTIAL_CHARGES>
37
1 1.51
10 -0.57
11 -0.77
12 -0.57
13 -0.7
14 -0.57
15 -0.77
16 -0.7
17 -0.47
18 -0.49
19 0.28
2 1.51
20 0.28
22 0.58
23 0.28
24 -0.04
25 0.69
27 0.56
28 0.34
29 0.34
3 -0.56
30 -0.12
31 0.45
32 0.62
34 0.14
4 -0.68
42 0.4
43 0.15
49 0.37
5 -0.55
56 0.4
57 0.5
58 0.5
6 -0.56
7 -0.55
8 -0.54
9 -0.68

> <PUBCHEM_EFFECTIVE_ROTOR_COUNT>
10

> <PUBCHEM_PHARMACOPHORE_FEATURES>
17
1 10 acceptor
1 11 acceptor
1 12 acceptor
1 13 acceptor
1 14 acceptor
1 15 acceptor
1 16 acceptor
1 18 donor
1 3 acceptor
1 4 acceptor
1 4 donor
1 6 acceptor
1 9 acceptor
1 9 donor
5 3 19 20 21 22 rings
6 17 18 24 25 30 32 rings
6 6 26 27 28 29 31 rings

> <PUBCHEM_HEAVY_ATOM_COUNT>
34

> <PUBCHEM_ATOM_DEF_STEREO_COUNT>
6

> <PUBCHEM_ATOM_UDEF_STEREO_COUNT>
0

> <PUBCHEM_BOND_DEF_STEREO_COUNT>
0

> <PUBCHEM_BOND_UDEF_STEREO_COUNT>
0

> <PUBCHEM_ISOTOPIC_ATOM_COUNT>
0

> <PUBCHEM_COMPONENT_COUNT>
1

> <PUBCHEM_CACTVS_TAUTO_COUNT>
15

> <PUBCHEM_CONFORMER_ID>
0006BB0C00000001

> <PUBCHEM_MMFF94_ENERGY>
28.866

> <PUBCHEM_FEATURE_SELFOVERLAP>
86.296

> <PUBCHEM_SHAPE_FINGERPRINT>
10032420 55 17831576479235596213
11513181 2 18113902684452299558
12539773 59 18051707541932118934
12788726 201 17834091075597135559
13009979 54 18052003353984553554
13965767 371 18343017821972631956
150020 26 17540240369634771787
15274700 34 18129387163226521829
15297060 5 18113888373441355858
15420108 30 18341337777370493520
16067690 210 17827355471286469700
19319366 153 17842549648298013035
20511986 3 18341332214929396357
21860390 5 17842819273359571017
22149856 69 18042952355396535905
23559900 14 17686602955499741505
35225 105 17676777508390964182
50150288 127 16397960634251998925
513202 73 8879949003537289183
5951187 136 15937543756477468393
6287921 2 18337950202771104770

> <PUBCHEM_SHAPE_MULTIPOLES>
615.27
8.06
5.51
3.09
3.78
2.83
-0.65
-4.84
4.46
1.11
-1.53
-1.52
-0.31
-4.97

> <PUBCHEM_SHAPE_SELFOVERLAP>
1253.949

> <PUBCHEM_SHAPE_VOLUME>
358.2

> <PUBCHEM_COORDINATE_TYPE>
2
5
10

$$$$

