47205537
  -OEChem-06241222593D

 40 40  0     1  0  0  0  0  0999 V2000
    3.6317    1.0095   -0.4366 S   0  0  0  0  0  0  0  0  0  0  0  0
    4.4318    2.0784    0.1327 O   0  0  0  0  0  0  0  0  0  0  0  0
    4.2405   -0.0124   -1.2686 O   0  0  0  0  0  0  0  0  0  0  0  0
    2.1590   -1.8307   -0.2733 O   0  0  0  0  0  0  0  0  0  0  0  0
    0.4820   -0.5048    0.6277 N   0  0  0  0  0  0  0  0  0  0  0  0
   -0.6317   -1.3220    0.2058 C   0  0  2  0  0  0  0  0  0  0  0  0
    2.7751    0.2018    0.8854 C   0  0  1  0  0  0  0  0  0  0  0  0
   -1.8689   -0.4842   -0.0350 C   0  0  0  0  0  0  0  0  0  0  0  0
    1.8008   -0.8331    0.3485 C   0  0  0  0  0  0  0  0  0  0  0  0
   -2.4289   -0.3816   -1.3085 C   0  0  0  0  0  0  0  0  0  0  0  0
   -0.8773   -2.4531    1.2024 C   0  0  0  0  0  0  0  0  0  0  0  0
    3.7643   -0.4434    1.8428 C   0  0  0  0  0  0  0  0  0  0  0  0
   -2.4498    0.1905    1.0389 C   0  0  0  0  0  0  0  0  0  0  0  0
   -3.5908    0.9679    0.8392 C   0  0  0  0  0  0  0  0  0  0  0  0
    2.3196    1.7571   -1.3732 C   0  0  0  0  0  0  0  0  0  0  0  0
   -3.5699    0.3957   -1.5081 C   0  0  0  0  0  0  0  0  0  0  0  0
   -4.1510    1.0702   -0.4342 C   0  0  0  0  0  0  0  0  0  0  0  0
   -1.8244   -1.0947   -2.4732 C   0  0  0  0  0  0  0  0  0  0  0  0
   -4.2121    1.6890    1.9872 C   0  0  0  0  0  0  0  0  0  0  0  0
   -0.3125   -1.8163   -0.7154 H   0  0  0  0  0  0  0  0  0  0  0  0
    2.2432    0.9932    1.4258 H   0  0  0  0  0  0  0  0  0  0  0  0
    0.2864    0.3245    1.1808 H   0  0  0  0  0  0  0  0  0  0  0  0
    0.0045   -3.0986    1.2846 H   0  0  0  0  0  0  0  0  0  0  0  0
   -1.7219   -3.0770    0.8897 H   0  0  0  0  0  0  0  0  0  0  0  0
   -1.0905   -2.0762    2.2089 H   0  0  0  0  0  0  0  0  0  0  0  0
    4.3787   -1.1987    1.3401 H   0  0  0  0  0  0  0  0  0  0  0  0
    4.4414    0.3006    2.2753 H   0  0  0  0  0  0  0  0  0  0  0  0
    3.2388   -0.9411    2.6650 H   0  0  0  0  0  0  0  0  0  0  0  0
   -2.0194    0.1195    2.0348 H   0  0  0  0  0  0  0  0  0  0  0  0
    1.7436    2.4107   -0.7157 H   0  0  0  0  0  0  0  0  0  0  0  0
    1.6872    0.9778   -1.8010 H   0  0  0  0  0  0  0  0  0  0  0  0
    2.7715    2.3444   -2.1756 H   0  0  0  0  0  0  0  0  0  0  0  0
   -4.0195    0.4862   -2.4934 H   0  0  0  0  0  0  0  0  0  0  0  0
   -5.0409    1.6708   -0.6024 H   0  0  0  0  0  0  0  0  0  0  0  0
   -0.7962   -0.7590   -2.6453 H   0  0  0  0  0  0  0  0  0  0  0  0
   -1.8460   -2.1788   -2.3205 H   0  0  0  0  0  0  0  0  0  0  0  0
   -2.3791   -0.8948   -3.3971 H   0  0  0  0  0  0  0  0  0  0  0  0
   -4.9069    1.0277    2.5145 H   0  0  0  0  0  0  0  0  0  0  0  0
   -3.4492    2.0343    2.6932 H   0  0  0  0  0  0  0  0  0  0  0  0
   -4.7610    2.5750    1.6506 H   0  0  0  0  0  0  0  0  0  0  0  0
  1  2  2  0  0  0  0
  1  3  2  0  0  0  0
  1  7  1  0  0  0  0
  1 15  1  0  0  0  0
  4  9  2  0  0  0  0
  5  6  1  0  0  0  0
  5  9  1  0  0  0  0
  5 22  1  0  0  0  0
  6  8  1  0  0  0  0
  6 11  1  0  0  0  0
  6 20  1  0  0  0  0
  7  9  1  0  0  0  0
  7 12  1  0  0  0  0
  7 21  1  0  0  0  0
  8 10  2  0  0  0  0
  8 13  1  0  0  0  0
 10 16  1  0  0  0  0
 10 18  1  0  0  0  0
 11 23  1  0  0  0  0
 11 24  1  0  0  0  0
 11 25  1  0  0  0  0
 12 26  1  0  0  0  0
 12 27  1  0  0  0  0
 12 28  1  0  0  0  0
 13 14  2  0  0  0  0
 13 29  1  0  0  0  0
 14 17  1  0  0  0  0
 14 19  1  0  0  0  0
 15 30  1  0  0  0  0
 15 31  1  0  0  0  0
 15 32  1  0  0  0  0
 16 17  2  0  0  0  0
 16 33  1  0  0  0  0
 17 34  1  0  0  0  0
 18 35  1  0  0  0  0
 18 36  1  0  0  0  0
 18 37  1  0  0  0  0
 19 38  1  0  0  0  0
 19 39  1  0  0  0  0
 19 40  1  0  0  0  0
M  END
> <PUBCHEM_COMPOUND_CID>
47205537

> <PUBCHEM_CONFORMER_RMSD>
0.6

> <PUBCHEM_CONFORMER_DIVERSEORDER>
6
237
96
130
198
137
215
288
263
265
40
290
182
75
54
165
80
273
275
278
289
253
180
287
185
44
234
220
139
72
251
258
60
5
211
260
240
122
41
125
94
229
279
248
272
230
155
33
268
123
84
103
71
104
232
236
64
166
238
167
110
296
105
102
208
297
217
226
113
163
252
164
63
259
143
99
10
14
85
241
8
127
216
247
160
257
83
151
175
46
109
92
77
28
200
231
204
45
270
293
9
52
114
35
43
281
19
209
221
191
244
108
205
66
156
74
225
47
178
292
295
245
246
121
243
78
129
218
177
203
131
112
119
31
266
48
219
27
62
194
262
65
233
223
147
2
197
157
214
207
196
285
76
126
294
117
181
16
282
124
274
111
133
149
4
172
249
159
277
93
135
86
1
138
79
69
280
101
227
271
107
170
59
224
49
120
210
89
17
132
51
87
144
199
162
176
140
100
267
24
190
98
202
23
3
255
179
53
286
29
239
212
15
67
141
37
145
254
26
192
261
13
68
228
148
213
42
201
73
283
128
11
136
82
206
25
20
34
173
186
116
95
183
158
142
184
187
284
18
81
56
12
61
36
152
189
38
171
58
32
193
195
70
153
269
256
168
161
22
39
222
50
242
174
134
264
57
88
276
146
150
235
169
90
97
188
154
7
55
115
21
118
91
106
291
30
250

> <PUBCHEM_MMFF94_PARTIAL_CHARGES>
21
1 1.09
10 -0.14
13 -0.15
14 -0.14
15 0.11
16 -0.15
17 -0.15
18 0.14
19 0.14
2 -0.65
22 0.37
29 0.15
3 -0.65
33 0.15
34 0.15
4 -0.57
5 -0.73
6 0.44
7 0.17
8 -0.14
9 0.57

> <PUBCHEM_EFFECTIVE_ROTOR_COUNT>
5

> <PUBCHEM_PHARMACOPHORE_FEATURES>
5
1 2 acceptor
1 3 acceptor
1 4 acceptor
1 5 donor
6 8 10 13 14 16 17 rings

> <PUBCHEM_HEAVY_ATOM_COUNT>
19

> <PUBCHEM_ATOM_DEF_STEREO_COUNT>
0

> <PUBCHEM_ATOM_UDEF_STEREO_COUNT>
2

> <PUBCHEM_BOND_DEF_STEREO_COUNT>
0

> <PUBCHEM_BOND_UDEF_STEREO_COUNT>
0

> <PUBCHEM_ISOTOPIC_ATOM_COUNT>
0

> <PUBCHEM_COMPONENT_COUNT>
1

> <PUBCHEM_CACTVS_TAUTO_COUNT>
2

> <PUBCHEM_CONFORMER_ID>
02D04CA100000006

> <PUBCHEM_MMFF94_ENERGY>
38.9902

> <PUBCHEM_FEATURE_SELFOVERLAP>
25.39

> <PUBCHEM_SHAPE_MULTIPOLES>
372.27
9.27
2.02
1.99
3.08
0.22
-0.12
-2.91
-4.45
1.02
0.35
-1.73
-0.11
0.9

> <PUBCHEM_SHAPE_SELFOVERLAP>
745.282

> <PUBCHEM_SHAPE_VOLUME>
222.7

> <PUBCHEM_COORDINATE_TYPE>
2
5
10

$$$$

