5462506
  -OEChem-07051213022D

 46 50  0     1  0  0  0  0  0999 V2000
    3.0974    0.4928    0.0000 O   0  0  0  0  0  0  0  0  0  0  0  0
    2.8660   -1.9622    0.0000 O   0  0  0  0  0  0  0  0  0  0  0  0
    2.8660    2.8422    0.0000 O   0  0  0  0  0  0  0  0  0  0  0  0
    7.0267   -0.5111    0.0000 N   0  0  3  0  0  0  0  0  0  0  0  0
    4.5557   -0.0355    0.0000 C   0  0  1  0  0  0  0  0  0  0  0  0
    5.3794   -0.5111    0.0000 C   0  0  2  0  0  0  0  0  0  0  0  0
    6.2030   -0.0355    0.0000 C   0  0  1  0  0  0  0  0  0  0  0  0
    3.7320   -0.5111    0.0000 C   0  0  2  0  0  0  0  0  0  0  0  0
    5.1052    0.6619    0.0000 C   0  0  0  0  0  0  0  0  0  0  0  0
    4.5557    0.9155    0.0000 C   0  0  0  0  0  0  0  0  0  0  0  0
    6.2030    0.9155    0.0000 C   0  0  0  0  0  0  0  0  0  0  0  0
    6.4579    0.6619    0.0000 C   0  0  0  0  0  0  0  0  0  0  0  0
    3.7320   -1.4622    0.0000 C   0  0  2  0  0  0  0  0  0  0  0  0
    5.3794    1.3911    0.0000 C   0  0  0  0  0  0  0  0  0  0  0  0
    5.3794   -1.4622    0.0000 C   0  0  0  0  0  0  0  0  0  0  0  0
    3.7320    1.3911    0.0000 C   0  0  0  0  0  0  0  0  0  0  0  0
    4.5557   -1.9377    0.0000 C   0  0  0  0  0  0  0  0  0  0  0  0
    7.7078   -1.2432    0.0000 C   0  0  0  0  0  0  0  0  0  0  0  0
    5.3794    2.3422    0.0000 C   0  0  0  0  0  0  0  0  0  0  0  0
    3.7320    2.3422    0.0000 C   0  0  0  0  0  0  0  0  0  0  0  0
    4.5557    2.8177    0.0000 C   0  0  0  0  0  0  0  0  0  0  0  0
    2.8660   -2.9622    0.0000 C   0  0  0  0  0  0  0  0  0  0  0  0
    2.0000   -3.4622    0.0000 C   0  0  0  0  0  0  0  0  0  0  0  0
    5.9257   -1.1622    0.0000 H   0  0  0  0  0  0  0  0  0  0  0  0
    6.4944   -0.8340    0.0000 H   0  0  0  0  0  0  0  0  0  0  0  0
    2.9156   -0.7475    0.0000 H   0  0  0  0  0  0  0  0  0  0  0  0
    5.2420    1.2666    0.0000 H   0  0  0  0  0  0  0  0  0  0  0  0
    4.5456    0.9287    0.0000 H   0  0  0  0  0  0  0  0  0  0  0  0
    6.8136    0.8079    0.0000 H   0  0  0  0  0  0  0  0  0  0  0  0
    6.4151    1.4981    0.0000 H   0  0  0  0  0  0  0  0  0  0  0  0
    7.0500    0.8457    0.0000 H   0  0  0  0  0  0  0  0  0  0  0  0
    6.3649    1.2749    0.0000 H   0  0  0  0  0  0  0  0  0  0  0  0
    3.7320   -2.0822    0.0000 H   0  0  0  0  0  0  0  0  0  0  0  0
    5.9163   -1.7722    0.0000 H   0  0  0  0  0  0  0  0  0  0  0  0
    4.5557   -2.5577    0.0000 H   0  0  0  0  0  0  0  0  0  0  0  0
    7.2539   -1.6655    0.0000 H   0  0  0  0  0  0  0  0  0  0  0  0
    8.1302   -1.6971    0.0000 H   0  0  0  0  0  0  0  0  0  0  0  0
    8.1618   -0.8209    0.0000 H   0  0  0  0  0  0  0  0  0  0  0  0
    5.9163    2.6521    0.0000 H   0  0  0  0  0  0  0  0  0  0  0  0
    4.5557    3.4377    0.0000 H   0  0  0  0  0  0  0  0  0  0  0  0
    3.0781   -3.5448    0.0000 H   0  0  0  0  0  0  0  0  0  0  0  0
    3.4766   -2.8545    0.0000 H   0  0  0  0  0  0  0  0  0  0  0  0
    2.8660    3.4622    0.0000 H   0  0  0  0  0  0  0  0  0  0  0  0
    1.6900   -2.9252    0.0000 H   0  0  0  0  0  0  0  0  0  0  0  0
    1.4631   -3.7722    0.0000 H   0  0  0  0  0  0  0  0  0  0  0  0
    2.3100   -3.9991    0.0000 H   0  0  0  0  0  0  0  0  0  0  0  0
  1  8  1  0  0  0  0
  1 16  1  0  0  0  0
 13  2  1  6  0  0  0
  2 22  1  0  0  0  0
  3 20  1  0  0  0  0
  3 43  1  0  0  0  0
  4  7  1  0  0  0  0
  4 12  1  0  0  0  0
  4 18  1  0  0  0  0
  5  6  1  0  0  0  0
  5  8  1  0  0  0  0
  5  9  1  1  0  0  0
  5 10  1  0  0  0  0
  6  7  1  0  0  0  0
  6 15  1  0  0  0  0
  6 24  1  1  0  0  0
  7 11  1  0  0  0  0
  7 25  1  6  0  0  0
  8 13  1  0  0  0  0
  8 26  1  1  0  0  0
  9 12  1  0  0  0  0
  9 27  1  0  0  0  0
  9 28  1  0  0  0  0
 10 14  2  0  0  0  0
 10 16  1  0  0  0  0
 11 14  1  0  0  0  0
 11 29  1  0  0  0  0
 11 30  1  0  0  0  0
 12 31  1  0  0  0  0
 12 32  1  0  0  0  0
 13 17  1  0  0  0  0
 13 33  1  0  0  0  0
 14 19  1  0  0  0  0
 15 17  2  0  0  0  0
 15 34  1  0  0  0  0
 16 20  2  0  0  0  0
 17 35  1  0  0  0  0
 18 36  1  0  0  0  0
 18 37  1  0  0  0  0
 18 38  1  0  0  0  0
 19 21  2  0  0  0  0
 19 39  1  0  0  0  0
 20 21  1  0  0  0  0
 21 40  1  0  0  0  0
 22 23  1  0  0  0  0
 22 41  1  0  0  0  0
 22 42  1  0  0  0  0
 23 44  1  0  0  0  0
 23 45  1  0  0  0  0
 23 46  1  0  0  0  0
M  END
> <PUBCHEM_COMPOUND_CID>
5462506

> <PUBCHEM_COMPOUND_CANONICALIZED>
1

> <PUBCHEM_CACTVS_COMPLEXITY>
523

> <PUBCHEM_CACTVS_HBOND_ACCEPTOR>
4

> <PUBCHEM_CACTVS_HBOND_DONOR>
1

> <PUBCHEM_CACTVS_ROTATABLE_BOND>
2

> <PUBCHEM_CACTVS_SUBSKEYS>
AAADceB6MAAAAAAAAAAAAAAAAAAAASAAAAA8YIEAAAAWAEjBAAAAHgAACAAADzzhmAYyBoMABgCAAiBCAAACCAAgIAAIiAAOiIgNJiKGsRuGeCOkwBGLuAew8P8PoAABAAAYQADQAAaAADSAAAAAAAAAAA==

> <PUBCHEM_IUPAC_OPENEYE_NAME>
(4R,4aR,7S,7aR,12bS)-7-ethoxy-3-methyl-2,4,4a,7,7a,13-hexahydro-1H-4,12-methanobenzofuro[3,2-e]isoquinoline-9-ol

> <PUBCHEM_IUPAC_CAS_NAME>
(4R,4aR,7S,7aR,12bS)-7-ethoxy-3-methyl-2,4,4a,7,7a,13-hexahydro-1H-4,12-methanobenzofuro[3,2-e]isoquinoline-9-ol

> <PUBCHEM_IUPAC_NAME>
(4R,4aR,7S,7aR,12bS)-7-ethoxy-3-methyl-2,4,4a,7,7a,13-hexahydro-1H-4,12-methanobenzofuro[3,2-e]isoquinoline-9-ol

> <PUBCHEM_IUPAC_SYSTEMATIC_NAME>
(4R,4aR,7S,7aR,12bS)-7-ethoxy-3-methyl-2,4,4a,7,7a,13-hexahydro-1H-4,12-methanobenzofuro[3,2-e]isoquinoline-9-ol

> <PUBCHEM_IUPAC_TRADITIONAL_NAME>
(4R,4aR,7S,7aR,12bS)-7-ethoxy-3-methyl-2,4,4a,7,7a,13-hexahydro-1H-4,12-methanobenzofuro[3,2-e]isoquinoline-9-ol

> <PUBCHEM_IUPAC_INCHI>
InChI=1S/C19H23NO3/c1-3-22-15-7-5-12-13-10-11-4-6-14(21)17-16(11)19(12,18(15)23-17)8-9-20(13)2/h4-7,12-13,15,18,21H,3,8-10H2,1-2H3/t12-,13+,15-,18-,19-/m0/s1

> <PUBCHEM_IUPAC_INCHIKEY>
SWYNUDMXTNTERF-SSTWWWIQSA-N

> <PUBCHEM_XLOGP3>
1.7

> <PUBCHEM_EXACT_MASS>
313.167794

> <PUBCHEM_MOLECULAR_FORMULA>
C19H23NO3

> <PUBCHEM_MOLECULAR_WEIGHT>
313.39082

> <PUBCHEM_OPENEYE_CAN_SMILES>
CCOC1C=CC2C3CC4=C5C2(C1OC5=C(C=C4)O)CCN3C

> <PUBCHEM_OPENEYE_ISO_SMILES>
CCO[C@H]1C=C[C@H]2[C@H]3CC4=C5[C@]2([C@H]1OC5=C(C=C4)O)CCN3C

> <PUBCHEM_CACTVS_TPSA>
41.9

> <PUBCHEM_MONOISOTOPIC_WEIGHT>
313.167794

> <PUBCHEM_TOTAL_CHARGE>
0

> <PUBCHEM_HEAVY_ATOM_COUNT>
23

> <PUBCHEM_ATOM_DEF_STEREO_COUNT>
5

> <PUBCHEM_ATOM_UDEF_STEREO_COUNT>
0

> <PUBCHEM_BOND_DEF_STEREO_COUNT>
0

> <PUBCHEM_BOND_UDEF_STEREO_COUNT>
0

> <PUBCHEM_ISOTOPIC_ATOM_COUNT>
0

> <PUBCHEM_COMPONENT_COUNT>
1

> <PUBCHEM_CACTVS_TAUTO_COUNT>
2

> <PUBCHEM_COORDINATE_TYPE>
1
5
255

> <PUBCHEM_BONDANNOTATIONS>
10  14  8
10  16  8
14  19  8
16  20  8
19  21  8
13  2  6
20  21  8
5  9  5
6  24  5
7  25  6
8  26  5

$$$$

