440732
  -OEChem-07051212503D

 26 26  0     0  0  0  0  0  0999 V2000
   -1.2086    1.3801   -1.2580 O   0  0  0  0  0  0  0  0  0  0  0  0
    4.5876   -1.4884   -0.5090 O   0  0  0  0  0  0  0  0  0  0  0  0
   -2.4823   -1.6831    0.1112 O   0  0  0  0  0  0  0  0  0  0  0  0
   -4.6072   -1.5016   -0.6630 O   0  0  0  0  0  0  0  0  0  0  0  0
   -2.2436    0.8388    0.7482 N   0  0  0  0  0  0  0  0  0  0  0  0
    0.0481    1.5954    0.8006 C   0  0  0  0  0  0  0  0  0  0  0  0
    1.2477    0.7802    0.4543 C   0  0  0  0  0  0  0  0  0  0  0  0
   -1.1814    1.2675   -0.0352 C   0  0  0  0  0  0  0  0  0  0  0  0
    1.4790   -0.4317    1.1047 C   0  0  0  0  0  0  0  0  0  0  0  0
    2.1389    1.2302   -0.5199 C   0  0  0  0  0  0  0  0  0  0  0  0
    2.6017   -1.1937    0.7811 C   0  0  0  0  0  0  0  0  0  0  0  0
    3.2614    0.4682   -0.8435 C   0  0  0  0  0  0  0  0  0  0  0  0
   -3.5237    0.4715    0.1895 C   0  0  0  0  0  0  0  0  0  0  0  0
    3.4929   -0.7437   -0.1931 C   0  0  0  0  0  0  0  0  0  0  0  0
   -3.6105   -0.9898   -0.1681 C   0  0  0  0  0  0  0  0  0  0  0  0
   -0.1662    1.4951    1.8719 H   0  0  0  0  0  0  0  0  0  0  0  0
    0.2598    2.6628    0.6541 H   0  0  0  0  0  0  0  0  0  0  0  0
    0.7906   -0.7939    1.8637 H   0  0  0  0  0  0  0  0  0  0  0  0
    1.9691    2.1719   -1.0353 H   0  0  0  0  0  0  0  0  0  0  0  0
   -2.1278    0.7511    1.7533 H   0  0  0  0  0  0  0  0  0  0  0  0
   -3.7078    1.0627   -0.7126 H   0  0  0  0  0  0  0  0  0  0  0  0
   -4.2822    0.6913    0.9460 H   0  0  0  0  0  0  0  0  0  0  0  0
    2.7701   -2.1364    1.2947 H   0  0  0  0  0  0  0  0  0  0  0  0
    3.9517    0.8237   -1.6038 H   0  0  0  0  0  0  0  0  0  0  0  0
    4.5892   -2.2935    0.0369 H   0  0  0  0  0  0  0  0  0  0  0  0
   -2.5638   -2.6304   -0.1300 H   0  0  0  0  0  0  0  0  0  0  0  0
  1  8  2  0  0  0  0
  2 14  1  0  0  0  0
  2 25  1  0  0  0  0
  3 15  1  0  0  0  0
  3 26  1  0  0  0  0
  4 15  2  0  0  0  0
  5  8  1  0  0  0  0
  5 13  1  0  0  0  0
  5 20  1  0  0  0  0
  6  7  1  0  0  0  0
  6  8  1  0  0  0  0
  6 16  1  0  0  0  0
  6 17  1  0  0  0  0
  7  9  2  0  0  0  0
  7 10  1  0  0  0  0
  9 11  1  0  0  0  0
  9 18  1  0  0  0  0
 10 12  2  0  0  0  0
 10 19  1  0  0  0  0
 11 14  2  0  0  0  0
 11 23  1  0  0  0  0
 12 14  1  0  0  0  0
 12 24  1  0  0  0  0
 13 15  1  0  0  0  0
 13 21  1  0  0  0  0
 13 22  1  0  0  0  0
M  END
> <PUBCHEM_COMPOUND_CID>
440732

> <PUBCHEM_CONFORMER_RMSD>
0.6

> <PUBCHEM_CONFORMER_DIVERSEORDER>
1
8
33
3
14
28
5
25
22
2
31
29
16
17
30
15
7
11
32
27
6
9
21
12
4
23
13
10
19
24
18
20
26

> <PUBCHEM_MMFF94_PARTIAL_CHARGES>
22
1 -0.57
10 -0.15
11 -0.15
12 -0.15
13 0.36
14 0.08
15 0.66
18 0.15
19 0.15
2 -0.53
20 0.37
23 0.15
24 0.15
25 0.45
26 0.5
3 -0.65
4 -0.57
5 -0.73
6 0.2
7 -0.14
8 0.57
9 -0.15

> <PUBCHEM_EFFECTIVE_ROTOR_COUNT>
5

> <PUBCHEM_PHARMACOPHORE_FEATURES>
7
1 1 acceptor
1 2 donor
1 3 acceptor
1 4 acceptor
1 5 donor
3 3 4 15 anion
6 7 9 10 11 12 14 rings

> <PUBCHEM_HEAVY_ATOM_COUNT>
15

> <PUBCHEM_ATOM_DEF_STEREO_COUNT>
0

> <PUBCHEM_ATOM_UDEF_STEREO_COUNT>
0

> <PUBCHEM_BOND_DEF_STEREO_COUNT>
0

> <PUBCHEM_BOND_UDEF_STEREO_COUNT>
0

> <PUBCHEM_ISOTOPIC_ATOM_COUNT>
0

> <PUBCHEM_COMPONENT_COUNT>
1

> <PUBCHEM_CACTVS_TAUTO_COUNT>
4

> <PUBCHEM_CONFORMER_ID>
0006B99C00000001

> <PUBCHEM_MMFF94_ENERGY>
27.6835

> <PUBCHEM_FEATURE_SELFOVERLAP>
35.579

> <PUBCHEM_SHAPE_FINGERPRINT>
11046707 91 18335701662953147947
11769659 78 18410011043840978320
11806522 49 18411981369347846520
12006461 19 18259704484482895995
12400797 292 18201995487233664492
14123255 352 9655578487308306699
14123260 362 12103567523833929191
14576447 43 18343582967071105138
15239191 94 18335138695841001911
15375462 189 18341043090483166761
1798214 55 10447937186847273243
18186145 218 15482665767165042517
18915474 69 18412259519439530414
19422 9 18335130994833050729
200 152 18273492399002790248
20281475 54 18407757040856808865
20645477 70 18266748991384575623
20671657 53 18335137549396295129
20871999 31 17846224375509589005
21634736 98 18342736269797130050
21713013 43 18131074831131451111
221490 88 18270389491384669698
22485316 2 18408041814241880185
22646028 28 18408323289250011955
23379529 103 18335406951151910918
23402539 116 16630242619201337116
23402655 69 17774439511504852732
23503958 8 17676763279217300691
23598291 2 18342443863918005612
2871803 45 18202007611773288763
465052 167 18042401344798283455
568465 68 16588020212536590982
76465 3 17822582599258924471
94968 8 18339364058907552555

> <PUBCHEM_SHAPE_MULTIPOLES>
280.23
8.23
1.83
1.01
2.81
0.18
0.02
4.74
-1.85
0.39
-0.08
-0.23
-0.12
-0.44

> <PUBCHEM_SHAPE_SELFOVERLAP>
577.331

> <PUBCHEM_SHAPE_VOLUME>
160.1

> <PUBCHEM_COORDINATE_TYPE>
2
5
10

$$$$

