5459797
  -OEChem-07051212492D

 45 45  0     1  0  0  0  0  0999 V2000
    9.8100    2.9151    0.0000 O   0  0  0  0  0  0  0  0  0  0  0  0
    2.3100   -2.4151    0.0000 O   0  0  0  0  0  0  0  0  0  0  0  0
    3.8100   -3.2811    0.0000 O   0  0  0  0  0  0  0  0  0  0  0  0
   10.6760    2.4151    0.0000 C   0  0  2  0  0  0  0  0  0  0  0  0
    9.8100    1.9151    0.0000 C   0  0  1  0  0  0  0  0  0  0  0  0
    9.3100    1.0490    0.0000 C   0  0  0  0  0  0  0  0  0  0  0  0
   11.1760    1.5490    0.0000 C   0  0  0  0  0  0  0  0  0  0  0  0
   11.1760    3.2811    0.0000 C   0  0  0  0  0  0  0  0  0  0  0  0
    8.3100    1.0490    0.0000 C   0  0  0  0  0  0  0  0  0  0  0  0
   12.1760    1.5490    0.0000 C   0  0  0  0  0  0  0  0  0  0  0  0
    7.8100    0.1830    0.0000 C   0  0  0  0  0  0  0  0  0  0  0  0
    6.8100    0.1830    0.0000 C   0  0  0  0  0  0  0  0  0  0  0  0
    8.3100   -0.6830    0.0000 C   0  0  0  0  0  0  0  0  0  0  0  0
    6.3100   -0.6830    0.0000 C   0  0  0  0  0  0  0  0  0  0  0  0
    5.3100   -0.6830    0.0000 C   0  0  0  0  0  0  0  0  0  0  0  0
    4.8100   -1.5490    0.0000 C   0  0  0  0  0  0  0  0  0  0  0  0
    5.3100   -2.4151    0.0000 C   0  0  0  0  0  0  0  0  0  0  0  0
    3.8100   -1.5490    0.0000 C   0  0  0  0  0  0  0  0  0  0  0  0
    3.3100   -2.4151    0.0000 C   0  0  0  0  0  0  0  0  0  0  0  0
    9.2111    2.0755    0.0000 H   0  0  0  0  0  0  0  0  0  0  0  0
    9.2023    0.4385    0.0000 H   0  0  0  0  0  0  0  0  0  0  0  0
    9.8926    0.8370    0.0000 H   0  0  0  0  0  0  0  0  0  0  0  0
   10.5934    1.3370    0.0000 H   0  0  0  0  0  0  0  0  0  0  0  0
   11.2837    0.9385    0.0000 H   0  0  0  0  0  0  0  0  0  0  0  0
   11.7130    2.9711    0.0000 H   0  0  0  0  0  0  0  0  0  0  0  0
   11.4860    3.8180    0.0000 H   0  0  0  0  0  0  0  0  0  0  0  0
   10.6391    3.5911    0.0000 H   0  0  0  0  0  0  0  0  0  0  0  0
    8.4177    1.6596    0.0000 H   0  0  0  0  0  0  0  0  0  0  0  0
    7.7274    1.2611    0.0000 H   0  0  0  0  0  0  0  0  0  0  0  0
   12.1760    0.9290    0.0000 H   0  0  0  0  0  0  0  0  0  0  0  0
   12.7960    1.5490    0.0000 H   0  0  0  0  0  0  0  0  0  0  0  0
   12.1760    2.1690    0.0000 H   0  0  0  0  0  0  0  0  0  0  0  0
    6.5000    0.7199    0.0000 H   0  0  0  0  0  0  0  0  0  0  0  0
    7.7731   -0.9930    0.0000 H   0  0  0  0  0  0  0  0  0  0  0  0
    8.6200   -1.2200    0.0000 H   0  0  0  0  0  0  0  0  0  0  0  0
    8.8469   -0.3730    0.0000 H   0  0  0  0  0  0  0  0  0  0  0  0
    6.2023   -1.2936    0.0000 H   0  0  0  0  0  0  0  0  0  0  0  0
    6.8926   -0.8951    0.0000 H   0  0  0  0  0  0  0  0  0  0  0  0
    5.4177   -0.0724    0.0000 H   0  0  0  0  0  0  0  0  0  0  0  0
    4.7274   -0.4710    0.0000 H   0  0  0  0  0  0  0  0  0  0  0  0
    4.7731   -2.7251    0.0000 H   0  0  0  0  0  0  0  0  0  0  0  0
    5.6200   -2.9520    0.0000 H   0  0  0  0  0  0  0  0  0  0  0  0
    5.8469   -2.1051    0.0000 H   0  0  0  0  0  0  0  0  0  0  0  0
    3.5000   -1.0121    0.0000 H   0  0  0  0  0  0  0  0  0  0  0  0
    2.0000   -2.9520    0.0000 H   0  0  0  0  0  0  0  0  0  0  0  0
  1  4  1  0  0  0  0
  1  5  1  0  0  0  0
  2 19  1  0  0  0  0
  2 45  1  0  0  0  0
  3 19  2  0  0  0  0
  4  5  1  0  0  0  0
  4  7  1  0  0  0  0
  4  8  1  6  0  0  0
  5  6  1  1  0  0  0
  5 20  1  0  0  0  0
  6  9  1  0  0  0  0
  6 21  1  0  0  0  0
  6 22  1  0  0  0  0
  7 10  1  0  0  0  0
  7 23  1  0  0  0  0
  7 24  1  0  0  0  0
  8 25  1  0  0  0  0
  8 26  1  0  0  0  0
  8 27  1  0  0  0  0
  9 11  1  0  0  0  0
  9 28  1  0  0  0  0
  9 29  1  0  0  0  0
 10 30  1  0  0  0  0
 10 31  1  0  0  0  0
 10 32  1  0  0  0  0
 11 12  2  0  0  0  0
 11 13  1  0  0  0  0
 12 14  1  0  0  0  0
 12 33  1  0  0  0  0
 13 34  1  0  0  0  0
 13 35  1  0  0  0  0
 13 36  1  0  0  0  0
 14 15  1  0  0  0  0
 14 37  1  0  0  0  0
 14 38  1  0  0  0  0
 15 16  1  0  0  0  0
 15 39  1  0  0  0  0
 15 40  1  0  0  0  0
 16 17  1  0  0  0  0
 16 18  2  0  0  0  0
 17 41  1  0  0  0  0
 17 42  1  0  0  0  0
 17 43  1  0  0  0  0
 18 19  1  0  0  0  0
 18 44  1  0  0  0  0
M  END
> <PUBCHEM_COMPOUND_CID>
5459797

> <PUBCHEM_COMPOUND_CANONICALIZED>
1

> <PUBCHEM_CACTVS_COMPLEXITY>
382

> <PUBCHEM_CACTVS_HBOND_ACCEPTOR>
3

> <PUBCHEM_CACTVS_HBOND_DONOR>
1

> <PUBCHEM_CACTVS_ROTATABLE_BOND>
8

> <PUBCHEM_CACTVS_SUBSKEYS>
AAADceB4MAAAAAAAAAAAAAAAEgAAAAAAAAAAAAAAAAAAAAAAAAAAGgAACAAADFSggAICCAAABgCIAiDSCAAAAAAgAAAACAAAAEgABAIAAQACEAAEgAAIEQOAwMAOAAAAAAAAAAAAAAAAAAAAAAAAAAAAAA==

> <PUBCHEM_IUPAC_OPENEYE_NAME>
(2E,6E)-9-[(2R,3S)-3-ethyl-3-methyl-oxiran-2-yl]-3,7-dimethyl-nona-2,6-dienoic acid

> <PUBCHEM_IUPAC_CAS_NAME>
(2E,6E)-9-[(2R,3S)-3-ethyl-3-methyl-2-oxiranyl]-3,7-dimethylnona-2,6-dienoic acid

> <PUBCHEM_IUPAC_NAME>
(2E,6E)-9-[(2R,3S)-3-ethyl-3-methyloxiran-2-yl]-3,7-dimethylnona-2,6-dienoic acid

> <PUBCHEM_IUPAC_SYSTEMATIC_NAME>
(2E,6E)-9-[(2R,3S)-3-ethyl-3-methyl-oxiran-2-yl]-3,7-dimethyl-nona-2,6-dienoic acid

> <PUBCHEM_IUPAC_TRADITIONAL_NAME>
(2E,6E)-9-[(2R,3S)-3-ethyl-3-methyl-oxiran-2-yl]-3,7-dimethyl-nona-2,6-dienoic acid

> <PUBCHEM_IUPAC_INCHI>
InChI=1S/C16H26O3/c1-5-16(4)14(19-16)10-9-12(2)7-6-8-13(3)11-15(17)18/h7,11,14H,5-6,8-10H2,1-4H3,(H,17,18)/b12-7+,13-11+/t14-,16+/m1/s1

> <PUBCHEM_IUPAC_INCHIKEY>
CZRJNVJQSPMQTQ-XKLQKUTNSA-N

> <PUBCHEM_XLOGP3_AA>
4.2

> <PUBCHEM_EXACT_MASS>
266.188195

> <PUBCHEM_MOLECULAR_FORMULA>
C16H26O3

> <PUBCHEM_MOLECULAR_WEIGHT>
266.37584

> <PUBCHEM_OPENEYE_CAN_SMILES>
CCC1(C(O1)CCC(=CCCC(=CC(=O)O)C)C)C

> <PUBCHEM_OPENEYE_ISO_SMILES>
CC[C@]1([C@H](O1)CC/C(=C/CC/C(=C/C(=O)O)/C)/C)C

> <PUBCHEM_CACTVS_TPSA>
49.8

> <PUBCHEM_MONOISOTOPIC_WEIGHT>
266.188195

> <PUBCHEM_TOTAL_CHARGE>
0

> <PUBCHEM_HEAVY_ATOM_COUNT>
19

> <PUBCHEM_ATOM_DEF_STEREO_COUNT>
2

> <PUBCHEM_ATOM_UDEF_STEREO_COUNT>
0

> <PUBCHEM_BOND_DEF_STEREO_COUNT>
2

> <PUBCHEM_BOND_UDEF_STEREO_COUNT>
0

> <PUBCHEM_ISOTOPIC_ATOM_COUNT>
0

> <PUBCHEM_COMPONENT_COUNT>
1

> <PUBCHEM_CACTVS_TAUTO_COUNT>
1

> <PUBCHEM_COORDINATE_TYPE>
1
5
255

> <PUBCHEM_BONDANNOTATIONS>
4  8  6
5  6  5

$$$$

