46173817
  -OEChem-07051213093D

 64 69  0     1  0  0  0  0  0999 V2000
   -2.2021    0.1184   -1.5818 O   0  0  0  0  0  0  0  0  0  0  0  0
   -2.8281    0.1516    0.6916 O   0  0  0  0  0  0  0  0  0  0  0  0
   -4.9211    0.9526    0.0638 O   0  0  0  0  0  0  0  0  0  0  0  0
    0.7799   -2.8346   -1.9732 O   0  0  0  0  0  0  0  0  0  0  0  0
   -4.0563   -2.2275    1.6687 O   0  0  0  0  0  0  0  0  0  0  0  0
   -6.8112   -1.7742    2.4885 O   0  0  0  0  0  0  0  0  0  0  0  0
   -8.2966   -0.4521    0.4165 O   0  0  0  0  0  0  0  0  0  0  0  0
   -6.1874    2.5454   -1.7725 O   0  0  0  0  0  0  0  0  0  0  0  0
    2.2734   -1.3074   -1.0734 N   0  0  0  0  0  0  0  0  0  0  0  0
    4.6437    0.9747    0.4494 N   0  0  0  0  0  0  0  0  0  0  0  0
    0.0986    0.0194    0.2397 C   0  0  1  0  0  0  0  0  0  0  0  0
    2.5125    0.0346   -0.5236 C   0  0  1  0  0  0  0  0  0  0  0  0
    1.5666    0.2820    0.6416 C   0  0  0  0  0  0  0  0  0  0  0  0
   -0.7739    1.2939    0.0991 C   0  0  2  0  0  0  0  0  0  0  0  0
   -0.0685   -0.8391   -0.9905 C   0  0  0  0  0  0  0  0  0  0  0  0
   -2.1919    0.8774   -0.3620 C   0  0  1  0  0  0  0  0  0  0  0  0
    3.9723   -0.0145   -0.1618 C   0  0  0  0  0  0  0  0  0  0  0  0
    3.5084   -2.0773   -1.2427 C   0  0  0  0  0  0  0  0  0  0  0  0
    1.0173   -1.7689   -1.4129 C   0  0  0  0  0  0  0  0  0  0  0  0
    4.5302   -1.2105   -0.5931 C   0  0  0  0  0  0  0  0  0  0  0  0
   -1.1496   -0.7372   -1.7746 C   0  0  0  0  0  0  0  0  0  0  0  0
   -4.1512   -0.2160    0.3366 C   0  0  2  0  0  0  0  0  0  0  0  0
   -0.1912    2.3348   -0.8140 C   0  0  0  0  0  0  0  0  0  0  0  0
   -4.7519   -0.9919    1.5087 C   0  0  1  0  0  0  0  0  0  0  0  0
   -6.2305   -1.2999    1.2723 C   0  0  2  0  0  0  0  0  0  0  0  0
   -6.9915   -0.0513    0.8261 C   0  0  1  0  0  0  0  0  0  0  0  0
   -6.2619    0.6473   -0.3237 C   0  0  1  0  0  0  0  0  0  0  0  0
    5.8717   -1.4293   -0.3818 C   0  0  0  0  0  0  0  0  0  0  0  0
    6.6166   -0.4289    0.2617 C   0  0  0  0  0  0  0  0  0  0  0  0
    5.9584    0.7655    0.6635 C   0  0  0  0  0  0  0  0  0  0  0  0
   -6.9279    1.9628   -0.7156 C   0  0  0  0  0  0  0  0  0  0  0  0
    0.1421    3.5700   -0.4246 C   0  0  0  0  0  0  0  0  0  0  0  0
    7.9888   -0.5949    0.5078 C   0  0  0  0  0  0  0  0  0  0  0  0
    6.7149    1.7452    1.2984 C   0  0  0  0  0  0  0  0  0  0  0  0
    8.7173    0.4049    1.1463 C   0  0  0  0  0  0  0  0  0  0  0  0
    8.0801    1.5749    1.5411 C   0  0  0  0  0  0  0  0  0  0  0  0
   -0.3310   -0.5598    1.0717 H   0  0  0  0  0  0  0  0  0  0  0  0
    2.3582    0.7604   -1.3308 H   0  0  0  0  0  0  0  0  0  0  0  0
    1.7031    1.2867    1.0580 H   0  0  0  0  0  0  0  0  0  0  0  0
    1.8203   -0.4084    1.4596 H   0  0  0  0  0  0  0  0  0  0  0  0
   -0.8670    1.7234    1.1075 H   0  0  0  0  0  0  0  0  0  0  0  0
   -2.7659    1.7933   -0.5515 H   0  0  0  0  0  0  0  0  0  0  0  0
    3.3963   -3.0466   -0.7487 H   0  0  0  0  0  0  0  0  0  0  0  0
    3.6960   -2.2096   -2.3122 H   0  0  0  0  0  0  0  0  0  0  0  0
   -1.2976   -1.2980   -2.6878 H   0  0  0  0  0  0  0  0  0  0  0  0
   -4.1240   -0.8626   -0.5502 H   0  0  0  0  0  0  0  0  0  0  0  0
   -0.0318    2.0709   -1.8565 H   0  0  0  0  0  0  0  0  0  0  0  0
   -4.6218   -0.4335    2.4434 H   0  0  0  0  0  0  0  0  0  0  0  0
   -6.3488   -2.1101    0.5429 H   0  0  0  0  0  0  0  0  0  0  0  0
   -7.1101    0.6319    1.6758 H   0  0  0  0  0  0  0  0  0  0  0  0
   -6.2294    0.0063   -1.2153 H   0  0  0  0  0  0  0  0  0  0  0  0
    6.3338   -2.3563   -0.7081 H   0  0  0  0  0  0  0  0  0  0  0  0
   -7.9575    1.8051   -1.0508 H   0  0  0  0  0  0  0  0  0  0  0  0
   -6.9237    2.6671    0.1230 H   0  0  0  0  0  0  0  0  0  0  0  0
    0.5588    4.2758   -1.1348 H   0  0  0  0  0  0  0  0  0  0  0  0
    0.0087    3.8982    0.6002 H   0  0  0  0  0  0  0  0  0  0  0  0
   -4.1347   -2.7275    0.8384 H   0  0  0  0  0  0  0  0  0  0  0  0
   -6.7147   -1.0782    3.1608 H   0  0  0  0  0  0  0  0  0  0  0  0
   -8.2039   -1.0259   -0.3631 H   0  0  0  0  0  0  0  0  0  0  0  0
    8.5004   -1.5055    0.2037 H   0  0  0  0  0  0  0  0  0  0  0  0
    6.2416    2.6718    1.6184 H   0  0  0  0  0  0  0  0  0  0  0  0
    9.7783    0.2710    1.3342 H   0  0  0  0  0  0  0  0  0  0  0  0
    8.6431    2.3589    2.0394 H   0  0  0  0  0  0  0  0  0  0  0  0
   -6.6261    3.3820   -2.0032 H   0  0  0  0  0  0  0  0  0  0  0  0
  1 16  1  0  0  0  0
  1 21  1  0  0  0  0
  2 16  1  0  0  0  0
  2 22  1  0  0  0  0
  3 22  1  0  0  0  0
  3 27  1  0  0  0  0
  4 19  2  0  0  0  0
  5 24  1  0  0  0  0
  5 57  1  0  0  0  0
  6 25  1  0  0  0  0
  6 58  1  0  0  0  0
  7 26  1  0  0  0  0
  7 59  1  0  0  0  0
  8 31  1  0  0  0  0
  8 64  1  0  0  0  0
  9 12  1  0  0  0  0
  9 18  1  0  0  0  0
  9 19  1  0  0  0  0
 10 17  2  0  0  0  0
 10 30  1  0  0  0  0
 11 13  1  0  0  0  0
 11 14  1  0  0  0  0
 11 15  1  0  0  0  0
 11 37  1  0  0  0  0
 12 13  1  0  0  0  0
 12 17  1  0  0  0  0
 12 38  1  0  0  0  0
 13 39  1  0  0  0  0
 13 40  1  0  0  0  0
 14 16  1  0  0  0  0
 14 23  1  0  0  0  0
 14 41  1  0  0  0  0
 15 19  1  0  0  0  0
 15 21  2  0  0  0  0
 16 42  1  0  0  0  0
 17 20  1  0  0  0  0
 18 20  1  0  0  0  0
 18 43  1  0  0  0  0
 18 44  1  0  0  0  0
 20 28  2  0  0  0  0
 21 45  1  0  0  0  0
 22 24  1  0  0  0  0
 22 46  1  0  0  0  0
 23 32  2  0  0  0  0
 23 47  1  0  0  0  0
 24 25  1  0  0  0  0
 24 48  1  0  0  0  0
 25 26  1  0  0  0  0
 25 49  1  0  0  0  0
 26 27  1  0  0  0  0
 26 50  1  0  0  0  0
 27 31  1  0  0  0  0
 27 51  1  0  0  0  0
 28 29  1  0  0  0  0
 28 52  1  0  0  0  0
 29 30  1  0  0  0  0
 29 33  2  0  0  0  0
 30 34  2  0  0  0  0
 31 53  1  0  0  0  0
 31 54  1  0  0  0  0
 32 55  1  0  0  0  0
 32 56  1  0  0  0  0
 33 35  1  0  0  0  0
 33 60  1  0  0  0  0
 34 36  1  0  0  0  0
 34 61  1  0  0  0  0
 35 36  2  0  0  0  0
 35 62  1  0  0  0  0
 36 63  1  0  0  0  0
M  END
> <PUBCHEM_COMPOUND_CID>
46173817

> <PUBCHEM_CONFORMER_RMSD>
1

> <PUBCHEM_CONFORMER_DIVERSEORDER>
1
5
6
3
7
2
4

> <PUBCHEM_MMFF94_PARTIAL_CHARGES>
47
1 -0.36
10 -0.62
11 0.14
12 0.44
14 0.14
15 -0.12
16 0.56
17 0.17
18 0.44
19 0.62
2 -0.56
20 -0.14
21 -0.07
22 0.56
23 -0.29
24 0.28
25 0.28
26 0.28
27 0.28
28 -0.15
3 -0.56
30 0.31
31 0.28
32 -0.3
33 -0.15
34 -0.15
35 -0.15
36 -0.15
4 -0.57
45 0.15
47 0.15
5 -0.68
52 0.15
55 0.15
56 0.15
57 0.4
58 0.4
59 0.4
6 -0.68
60 0.15
61 0.15
62 0.15
63 0.15
64 0.4
7 -0.68
8 -0.68
9 -0.66

> <PUBCHEM_EFFECTIVE_ROTOR_COUNT>
6.2

> <PUBCHEM_PHARMACOPHORE_FEATURES>
20
1 1 acceptor
1 10 acceptor
1 2 acceptor
1 3 acceptor
1 32 hydrophobe
1 4 acceptor
1 5 acceptor
1 5 donor
1 6 acceptor
1 6 donor
1 7 acceptor
1 7 donor
1 8 acceptor
1 8 donor
5 9 12 17 18 20 rings
6 1 11 14 15 16 21 rings
6 10 17 20 28 29 30 rings
6 29 30 33 34 35 36 rings
6 3 22 24 25 26 27 rings
6 9 11 12 13 15 19 rings

> <PUBCHEM_HEAVY_ATOM_COUNT>
36

> <PUBCHEM_ATOM_DEF_STEREO_COUNT>
9

> <PUBCHEM_ATOM_UDEF_STEREO_COUNT>
0

> <PUBCHEM_BOND_DEF_STEREO_COUNT>
0

> <PUBCHEM_BOND_UDEF_STEREO_COUNT>
0

> <PUBCHEM_ISOTOPIC_ATOM_COUNT>
0

> <PUBCHEM_COMPONENT_COUNT>
1

> <PUBCHEM_CACTVS_TAUTO_COUNT>
1

> <PUBCHEM_CONFORMER_ID>
02C08E7900000001

> <PUBCHEM_MMFF94_ENERGY>
108.512

> <PUBCHEM_FEATURE_SELFOVERLAP>
101.845

> <PUBCHEM_SHAPE_FINGERPRINT>
10 15 18408323276829327306
10165383 225 17749111076380678272
10653451 467 18410862048898910813
106641 1 17822008688580728779
10835480 77 18335703905485693973
11135926 11 16702029686118699491
11456790 92 17968101949994045634
12120059 9 18202570575097714515
12202916 173 18341610404482810323
12838862 33 17822875142461445200
13540713 4 18046623679701556228
13811026 1 18411701002066581328
14068700 675 16200148776892299685
14251764 18 15719395031508824400
14747282 305 16055777493793600474
14849402 71 17022903415130493488
15183329 4 12175623966646372722
15392192 104 16515401859237325175
15419008 91 18272382974522566724
1577012 14 15140956287978565779
15849732 13 18335140881874140204
16090146 7 6338679655589130724
18393751 57 18334016077917343462
18603816 31 16415197815663999371
19303781 99 17629473091899653323
19611394 137 18342173358382740488
19841028 212 17417258770588247858
21521721 280 17821445759785684970
21623969 137 18260260867236441846
21703447 108 18050001387548600095
21792934 111 18411984658691863156
21792965 169 10663536080438291194
22224240 67 18040433287034101774
23559900 14 18129936764405418641
23576562 1 6771279159468015186
24771293 8 17966967218743443645
249057 3 12751232593233311552
25019877 29 17530683204144595908
2747138 104 18410846673078956288
3092352 35 15430036556448023124
3178227 256 18259980453443454392
3383291 50 17917139508310806443
397830 11 18341609270178128202
4093350 32 15357971288200316452
4169191 19 17603866723822090145
4340502 62 18273496784692322922
4403749 210 18260834752514689727
474113 269 6987779554379695396
5080951 261 17703803496477518535
5104073 3 18263640835258572746
5219985 9 14836406930335600062
54039377 194 13830128378542159195
5758199 1 16950279607017031570
6009941 240 18131070472135433573
6691757 9 16443064955213160359

> <PUBCHEM_SHAPE_MULTIPOLES>
683.95
24.98
2.57
1.67
3.46
0.86
0.2
3.47
12.3
-0.32
-0.79
-1.69
-0.57
4.31

> <PUBCHEM_SHAPE_SELFOVERLAP>
1507.766

> <PUBCHEM_SHAPE_VOLUME>
359.9

> <PUBCHEM_COORDINATE_TYPE>
2
5
10

$$$$

