441094
  -OEChem-07051212512D

 14 14  0     1  0  0  0  0  0999 V2000
    3.7320    2.0000    0.0000 Cl  0  0  0  0  0  0  0  0  0  0  0  0
    3.7320   -2.0000    0.0000 Cl  0  0  0  0  0  0  0  0  0  0  0  0
    2.0000    1.0000    0.0000 Cl  0  0  0  0  0  0  0  0  0  0  0  0
    5.4641   -1.0000    0.0000 Cl  0  0  0  0  0  0  0  0  0  0  0  0
    3.7320    1.0000    0.0000 C   0  0  1  0  0  0  0  0  0  0  0  0
    3.7320   -1.0000    0.0000 C   0  0  1  0  0  0  0  0  0  0  0  0
    2.8660    0.5000    0.0000 C   0  0  0  0  0  0  0  0  0  0  0  0
    4.5981   -0.5000    0.0000 C   0  0  0  0  0  0  0  0  0  0  0  0
    4.5981    0.5000    0.0000 C   0  0  0  0  0  0  0  0  0  0  0  0
    2.8660   -0.5000    0.0000 C   0  0  0  0  0  0  0  0  0  0  0  0
    4.2690    1.3100    0.0000 H   0  0  0  0  0  0  0  0  0  0  0  0
    4.2690   -1.3100    0.0000 H   0  0  0  0  0  0  0  0  0  0  0  0
    5.1350    0.8100    0.0000 H   0  0  0  0  0  0  0  0  0  0  0  0
    2.3291   -0.8100    0.0000 H   0  0  0  0  0  0  0  0  0  0  0  0
  5  1  1  6  0  0  0
  6  2  1  6  0  0  0
  3  7  1  0  0  0  0
  4  8  1  0  0  0  0
  5  7  1  0  0  0  0
  5  9  1  0  0  0  0
  5 11  1  0  0  0  0
  6  8  1  0  0  0  0
  6 10  1  0  0  0  0
  6 12  1  0  0  0  0
  7 10  2  0  0  0  0
  8  9  2  0  0  0  0
  9 13  1  0  0  0  0
 10 14  1  0  0  0  0
M  END
> <PUBCHEM_COMPOUND_CID>
441094

> <PUBCHEM_COMPOUND_CANONICALIZED>
1

> <PUBCHEM_CACTVS_COMPLEXITY>
172

> <PUBCHEM_CACTVS_HBOND_ACCEPTOR>
0

> <PUBCHEM_CACTVS_HBOND_DONOR>
0

> <PUBCHEM_CACTVS_ROTATABLE_BOND>
0

> <PUBCHEM_CACTVS_SUBSKEYS>
AAADcYBgAAAHAAAAAAAAAAAAAAAAAAAAAAAgAAAAAAAAAAAAAAAAGAIAAAAACAOAAEAAAAAAAACAACBCAAAAAAAgAAAACEAAAggAAAAAAQAAAAAAAAAIAAIAAAAAAAAAAAAAAAAAAAAAAAAAAAAAAAAAAA==

> <PUBCHEM_IUPAC_OPENEYE_NAME>
(3R,6R)-1,3,4,6-tetrachlorocyclohexa-1,4-diene

> <PUBCHEM_IUPAC_CAS_NAME>
(3R,6R)-1,3,4,6-tetrachlorocyclohexa-1,4-diene

> <PUBCHEM_IUPAC_NAME>
(3R,6R)-1,3,4,6-tetrachlorocyclohexa-1,4-diene

> <PUBCHEM_IUPAC_SYSTEMATIC_NAME>
(3R,6R)-1,3,4,6-tetrakis(chloranyl)cyclohexa-1,4-diene

> <PUBCHEM_IUPAC_TRADITIONAL_NAME>
(3R,6R)-1,3,4,6-tetrachlorocyclohexa-1,4-diene

> <PUBCHEM_IUPAC_INCHI>
InChI=1S/C6H4Cl4/c7-3-1-4(8)6(10)2-5(3)9/h1-3,6H/t3-,6-/m1/s1

> <PUBCHEM_IUPAC_INCHIKEY>
HKAJKOBDBFGGIU-AWFVSMACSA-N

> <PUBCHEM_XLOGP3_AA>
3.2

> <PUBCHEM_EXACT_MASS>
217.903761

> <PUBCHEM_MOLECULAR_FORMULA>
C6H4Cl4

> <PUBCHEM_MOLECULAR_WEIGHT>
217.90796

> <PUBCHEM_OPENEYE_CAN_SMILES>
C1=C(C(C=C(C1Cl)Cl)Cl)Cl

> <PUBCHEM_OPENEYE_ISO_SMILES>
C1=C([C@@H](C=C([C@@H]1Cl)Cl)Cl)Cl

> <PUBCHEM_CACTVS_TPSA>
0

> <PUBCHEM_MONOISOTOPIC_WEIGHT>
215.906711

> <PUBCHEM_TOTAL_CHARGE>
0

> <PUBCHEM_HEAVY_ATOM_COUNT>
10

> <PUBCHEM_ATOM_DEF_STEREO_COUNT>
2

> <PUBCHEM_ATOM_UDEF_STEREO_COUNT>
0

> <PUBCHEM_BOND_DEF_STEREO_COUNT>
0

> <PUBCHEM_BOND_UDEF_STEREO_COUNT>
0

> <PUBCHEM_ISOTOPIC_ATOM_COUNT>
0

> <PUBCHEM_COMPONENT_COUNT>
1

> <PUBCHEM_CACTVS_TAUTO_COUNT>
1

> <PUBCHEM_COORDINATE_TYPE>
1
5
255

> <PUBCHEM_BONDANNOTATIONS>
5  1  6
6  2  6

$$$$

