11969548
  -OEChem-07051213092D

 67 70  0     1  0  0  0  0  0999 V2000
    2.8660    1.5487    0.0000 O   0  0  0  0  0  0  0  0  0  0  0  0
    8.2886    0.3902    0.0000 O   0  0  0  0  0  0  0  0  0  0  0  0
    8.4314   -0.8945    0.0000 O   0  0  0  0  0  0  0  0  0  0  0  0
    4.8710   -1.9107    0.0000 O   0  0  0  0  0  0  0  0  0  0  0  0
    2.8660    3.5487    0.0000 O   0  0  0  0  0  0  0  0  0  0  0  0
    7.7305    3.0420    0.0000 O   0  0  0  0  0  0  0  0  0  0  0  0
    6.1998   -2.5654    0.0000 O   0  0  0  0  0  0  0  0  0  0  0  0
    3.3150   -1.0539    0.0000 O   0  0  0  0  0  0  0  0  0  0  0  0
    6.2104    3.9612    0.0000 O   0  0  0  0  0  0  0  0  0  0  0  0
    8.8996    1.7046    0.0000 O   0  0  0  0  0  0  0  0  0  0  0  0
    2.0000    5.0487    0.0000 O   0  0  0  0  0  0  0  0  0  0  0  0
    4.5981    1.5487    0.0000 C   0  0  2  0  0  0  0  0  0  0  0  0
    6.8038   -0.3022    0.0000 C   0  0  2  0  0  0  0  0  0  0  0  0
    4.4244    0.5639    0.0000 C   0  0  0  0  0  0  0  0  0  0  0  0
    3.7320    2.0487    0.0000 C   0  0  1  0  0  0  0  0  0  0  0  0
    5.3641    2.1915    0.0000 C   0  0  0  0  0  0  0  0  0  0  0  0
    7.3038    0.5639    0.0000 C   0  0  2  0  0  0  0  0  0  0  0  0
    7.4466   -1.0682    0.0000 C   0  0  1  0  0  0  0  0  0  0  0  0
    5.8641   -0.6442    0.0000 C   0  0  0  0  0  0  0  0  0  0  0  0
    4.9244   -0.3022    0.0000 C   0  0  0  0  0  0  0  0  0  0  0  0
    6.3641    2.1915    0.0000 C   0  0  0  0  0  0  0  0  0  0  0  0
    7.1302    1.5487    0.0000 C   0  0  0  0  0  0  0  0  0  0  0  0
    3.7320    3.0487    0.0000 C   0  0  2  0  0  0  0  0  0  0  0  0
    7.6203   -2.0530    0.0000 C   0  0  0  0  0  0  0  0  0  0  0  0
    8.5599   -2.3950    0.0000 C   0  0  0  0  0  0  0  0  0  0  0  0
    5.8268   -1.6376    0.0000 C   0  0  0  0  0  0  0  0  0  0  0  0
    4.3144   -1.0871    0.0000 C   0  0  0  0  0  0  0  0  0  0  0  0
    4.5981    3.5487    0.0000 C   0  0  0  0  0  0  0  0  0  0  0  0
    6.7389    3.1122    0.0000 C   0  0  0  0  0  0  0  0  0  0  0  0
    7.9718    2.0777    0.0000 C   0  0  0  0  0  0  0  0  0  0  0  0
    8.7337   -3.3798    0.0000 C   0  0  0  0  0  0  0  0  0  0  0  0
    4.5981    4.5487    0.0000 C   0  0  0  0  0  0  0  0  0  0  0  0
    9.6733   -3.7218    0.0000 C   0  0  0  0  0  0  0  0  0  0  0  0
    2.8660    4.5487    0.0000 C   0  0  0  0  0  0  0  0  0  0  0  0
    3.7320    5.0487    0.0000 C   0  0  0  0  0  0  0  0  0  0  0  0
    9.8469   -4.7067    0.0000 C   0  0  0  0  0  0  0  0  0  0  0  0
   10.7866   -5.0487    0.0000 C   0  0  0  0  0  0  0  0  0  0  0  0
    4.5240    2.3954    0.0000 H   0  0  0  0  0  0  0  0  0  0  0  0
    6.5838   -1.1232    0.0000 H   0  0  0  0  0  0  0  0  0  0  0  0
    3.8704    0.8421    0.0000 H   0  0  0  0  0  0  0  0  0  0  0  0
    3.9990    0.1129    0.0000 H   0  0  0  0  0  0  0  0  0  0  0  0
    3.7320    1.4287    0.0000 H   0  0  0  0  0  0  0  0  0  0  0  0
    5.5419    2.7854    0.0000 H   0  0  0  0  0  0  0  0  0  0  0  0
    4.8461    2.5322    0.0000 H   0  0  0  0  0  0  0  0  0  0  0  0
    7.7422    1.0023    0.0000 H   0  0  0  0  0  0  0  0  0  0  0  0
    7.6586   -0.4856    0.0000 H   0  0  0  0  0  0  0  0  0  0  0  0
    2.9959    2.6237    0.0000 H   0  0  0  0  0  0  0  0  0  0  0  0
    7.0003   -2.0530    0.0000 H   0  0  0  0  0  0  0  0  0  0  0  0
    7.5126   -2.6636    0.0000 H   0  0  0  0  0  0  0  0  0  0  0  0
    9.1799   -2.3950    0.0000 H   0  0  0  0  0  0  0  0  0  0  0  0
    8.6676   -1.7844    0.0000 H   0  0  0  0  0  0  0  0  0  0  0  0
    4.8101    2.9661    0.0000 H   0  0  0  0  0  0  0  0  0  0  0  0
    5.2087    3.6563    0.0000 H   0  0  0  0  0  0  0  0  0  0  0  0
    2.3291    1.8587    0.0000 H   0  0  0  0  0  0  0  0  0  0  0  0
    8.1137   -3.3798    0.0000 H   0  0  0  0  0  0  0  0  0  0  0  0
    8.6260   -3.9904    0.0000 H   0  0  0  0  0  0  0  0  0  0  0  0
    8.6872    0.8652    0.0000 H   0  0  0  0  0  0  0  0  0  0  0  0
    8.8299   -1.3695    0.0000 H   0  0  0  0  0  0  0  0  0  0  0  0
    5.1350    4.8587    0.0000 H   0  0  0  0  0  0  0  0  0  0  0  0
   10.2933   -3.7219    0.0000 H   0  0  0  0  0  0  0  0  0  0  0  0
    9.7810   -3.1113    0.0000 H   0  0  0  0  0  0  0  0  0  0  0  0
    3.7320    5.6687    0.0000 H   0  0  0  0  0  0  0  0  0  0  0  0
    9.2269   -4.7067    0.0000 H   0  0  0  0  0  0  0  0  0  0  0  0
    9.7393   -5.3172    0.0000 H   0  0  0  0  0  0  0  0  0  0  0  0
   10.5746   -5.6313    0.0000 H   0  0  0  0  0  0  0  0  0  0  0  0
   11.3692   -5.2607    0.0000 H   0  0  0  0  0  0  0  0  0  0  0  0
   10.9987   -4.4661    0.0000 H   0  0  0  0  0  0  0  0  0  0  0  0
 15  1  1  6  0  0  0
  1 54  1  0  0  0  0
 17  2  1  6  0  0  0
  2 57  1  0  0  0  0
 18  3  1  6  0  0  0
  3 58  1  0  0  0  0
  4 26  1  0  0  0  0
  4 27  1  0  0  0  0
  5 23  1  0  0  0  0
  5 34  1  0  0  0  0
  6 29  1  0  0  0  0
  6 30  1  0  0  0  0
  7 26  2  0  0  0  0
  8 27  2  0  0  0  0
  9 29  2  0  0  0  0
 10 30  2  0  0  0  0
 11 34  2  0  0  0  0
 12 14  1  0  0  0  0
 12 15  1  0  0  0  0
 12 16  1  0  0  0  0
 12 38  1  1  0  0  0
 13 17  1  0  0  0  0
 13 18  1  0  0  0  0
 13 19  1  0  0  0  0
 13 39  1  1  0  0  0
 14 20  1  0  0  0  0
 14 40  1  0  0  0  0
 14 41  1  0  0  0  0
 15 23  1  0  0  0  0
 15 42  1  0  0  0  0
 16 21  1  0  0  0  0
 16 43  1  0  0  0  0
 16 44  1  0  0  0  0
 17 22  1  0  0  0  0
 17 45  1  0  0  0  0
 18 24  1  0  0  0  0
 18 46  1  0  0  0  0
 19 20  2  0  0  0  0
 19 26  1  0  0  0  0
 20 27  1  0  0  0  0
 21 22  2  0  0  0  0
 21 29  1  0  0  0  0
 22 30  1  0  0  0  0
 23 28  1  0  0  0  0
 23 47  1  6  0  0  0
 24 25  1  0  0  0  0
 24 48  1  0  0  0  0
 24 49  1  0  0  0  0
 25 31  1  0  0  0  0
 25 50  1  0  0  0  0
 25 51  1  0  0  0  0
 28 32  1  0  0  0  0
 28 52  1  0  0  0  0
 28 53  1  0  0  0  0
 31 33  1  0  0  0  0
 31 55  1  0  0  0  0
 31 56  1  0  0  0  0
 32 35  2  0  0  0  0
 32 59  1  0  0  0  0
 33 36  1  0  0  0  0
 33 60  1  0  0  0  0
 33 61  1  0  0  0  0
 34 35  1  0  0  0  0
 35 62  1  0  0  0  0
 36 37  1  0  0  0  0
 36 63  1  0  0  0  0
 36 64  1  0  0  0  0
 37 65  1  0  0  0  0
 37 66  1  0  0  0  0
 37 67  1  0  0  0  0
M  END
> <PUBCHEM_COMPOUND_CID>
11969548

> <PUBCHEM_COMPOUND_CANONICALIZED>
1

> <PUBCHEM_CACTVS_COMPLEXITY>
1100

> <PUBCHEM_CACTVS_HBOND_ACCEPTOR>
11

> <PUBCHEM_CACTVS_HBOND_DONOR>
3

> <PUBCHEM_CACTVS_ROTATABLE_BOND>
8

> <PUBCHEM_CACTVS_SUBSKEYS>
AAADceB4PAAAAAAAAAAAAAAAAAAAAQIAAAAgAAAAAAAAAEAAAAAAGgAACAAADRSggAICCAAABgCIAiDSCAAAAAAgAAAICAEAAEgBFBYAIQACUAAF4AALMYPK7OzOAAAAAAAAAAAAAAAAAAAAAAAAAAAAAA==

> <PUBCHEM_IUPAC_INCHI>
InChI=1S/C26H30O11/c1-2-3-4-5-7-15(27)20-18-13(23(31)36-25(18)33)10-12(21(29)16-8-6-9-17(28)35-16)11-14-19(22(20)30)26(34)37-24(14)32/h6,9,12,15-16,20-22,27,29-30H,2-5,7-8,10-11H2,1H3/t12-,15+,16-,20+,21-,22-/m0/s1

> <PUBCHEM_IUPAC_INCHIKEY>
ZJTBTDVZNGBSNG-RETZLTROSA-N

> <PUBCHEM_XLOGP3_AA>
2

> <PUBCHEM_EXACT_MASS>
518.178812

> <PUBCHEM_MOLECULAR_FORMULA>
C26H30O11

> <PUBCHEM_MOLECULAR_WEIGHT>
518.5098

> <PUBCHEM_OPENEYE_CAN_SMILES>
CCCCCCC(C1C(C2=C(CC(CC3=C1C(=O)OC3=O)C(C4CC=CC(=O)O4)O)C(=O)OC2=O)O)O

> <PUBCHEM_OPENEYE_ISO_SMILES>
CCCCCC[C@H]([C@H]1[C@H](C2=C(C[C@H](CC3=C1C(=O)OC3=O)[C@@H]([C@@H]4CC=CC(=O)O4)O)C(=O)OC2=O)O)O

> <PUBCHEM_CACTVS_TPSA>
174

> <PUBCHEM_MONOISOTOPIC_WEIGHT>
518.178812

> <PUBCHEM_TOTAL_CHARGE>
0

> <PUBCHEM_HEAVY_ATOM_COUNT>
37

> <PUBCHEM_ATOM_DEF_STEREO_COUNT>
6

> <PUBCHEM_ATOM_UDEF_STEREO_COUNT>
0

> <PUBCHEM_BOND_DEF_STEREO_COUNT>
0

> <PUBCHEM_BOND_UDEF_STEREO_COUNT>
0

> <PUBCHEM_ISOTOPIC_ATOM_COUNT>
0

> <PUBCHEM_COMPONENT_COUNT>
1

> <PUBCHEM_CACTVS_TAUTO_COUNT>
1

> <PUBCHEM_COORDINATE_TYPE>
1
5
255

> <PUBCHEM_BONDANNOTATIONS>
15  1  6
12  38  5
13  39  5
17  2  6
23  47  6
18  3  6

$$$$

