13455
  -OEChem-06261214233D

 21 21  0     0  0  0  0  0  0999 V2000
    1.2966   -2.7036   -0.1969 Cl  0  0  0  0  0  0  0  0  0  0  0  0
    1.2983    2.7026   -0.1964 Cl  0  0  0  0  0  0  0  0  0  0  0  0
   -1.8698   -2.7027    0.0092 Cl  0  0  0  0  0  0  0  0  0  0  0  0
   -1.8683    2.7035    0.0085 Cl  0  0  0  0  0  0  0  0  0  0  0  0
    3.1424   -0.0002    0.9586 O   0  0  0  0  0  0  0  0  0  0  0  0
   -3.5672   -0.0002    1.3794 O   0  0  0  0  0  0  0  0  0  0  0  0
    3.1896   -0.0008   -1.3430 O   0  0  0  0  0  0  0  0  0  0  0  0
   -3.9087    0.0009   -0.8678 O   0  0  0  0  0  0  0  0  0  0  0  0
    1.1062   -0.0004   -0.1836 C   0  0  0  0  0  0  0  0  0  0  0  0
   -1.6778    0.0003   -0.0034 C   0  0  0  0  0  0  0  0  0  0  0  0
    0.4099   -1.2082   -0.1384 C   0  0  0  0  0  0  0  0  0  0  0  0
    0.4105    1.2077   -0.1387 C   0  0  0  0  0  0  0  0  0  0  0  0
   -0.9821   -1.2078   -0.0484 C   0  0  0  0  0  0  0  0  0  0  0  0
   -0.9814    1.2081   -0.0487 C   0  0  0  0  0  0  0  0  0  0  0  0
    2.5671   -0.0008   -0.2790 C   0  0  0  0  0  0  0  0  0  0  0  0
   -3.1387    0.0008    0.0911 C   0  0  0  0  0  0  0  0  0  0  0  0
    4.5735    0.0009    0.9974 C   0  0  0  0  0  0  0  0  0  0  0  0
    4.9632    0.9010    0.5128 H   0  0  0  0  0  0  0  0  0  0  0  0
    4.9645   -0.8991    0.5137 H   0  0  0  0  0  0  0  0  0  0  0  0
    4.8855    0.0016    2.0451 H   0  0  0  0  0  0  0  0  0  0  0  0
   -4.5464   -0.0004    1.4394 H   0  0  0  0  0  0  0  0  0  0  0  0
  1 11  1  0  0  0  0
  2 12  1  0  0  0  0
  3 13  1  0  0  0  0
  4 14  1  0  0  0  0
  5 15  1  0  0  0  0
  5 17  1  0  0  0  0
  6 16  1  0  0  0  0
  6 21  1  0  0  0  0
  7 15  2  0  0  0  0
  8 16  2  0  0  0  0
  9 11  2  0  0  0  0
  9 12  1  0  0  0  0
  9 15  1  0  0  0  0
 10 13  2  0  0  0  0
 10 14  1  0  0  0  0
 10 16  1  0  0  0  0
 11 13  1  0  0  0  0
 12 14  2  0  0  0  0
 17 18  1  0  0  0  0
 17 19  1  0  0  0  0
 17 20  1  0  0  0  0
M  END
> <PUBCHEM_COMPOUND_CID>
13455

> <PUBCHEM_CONFORMER_RMSD>
0.6

> <PUBCHEM_CONFORMER_DIVERSEORDER>
1

> <PUBCHEM_MMFF94_PARTIAL_CHARGES>
18
1 -0.18
10 0.09
11 0.18
12 0.18
13 0.18
14 0.18
15 0.63
16 0.63
17 0.28
2 -0.18
21 0.5
3 -0.18
4 -0.18
5 -0.43
6 -0.65
7 -0.57
8 -0.57
9 0.09

> <PUBCHEM_EFFECTIVE_ROTOR_COUNT>
3

> <PUBCHEM_PHARMACOPHORE_FEATURES>
5
1 6 acceptor
1 7 acceptor
1 8 acceptor
3 6 8 16 anion
6 9 10 11 12 13 14 rings

> <PUBCHEM_HEAVY_ATOM_COUNT>
17

> <PUBCHEM_ATOM_DEF_STEREO_COUNT>
0

> <PUBCHEM_ATOM_UDEF_STEREO_COUNT>
0

> <PUBCHEM_BOND_DEF_STEREO_COUNT>
0

> <PUBCHEM_BOND_UDEF_STEREO_COUNT>
0

> <PUBCHEM_ISOTOPIC_ATOM_COUNT>
0

> <PUBCHEM_COMPONENT_COUNT>
1

> <PUBCHEM_CACTVS_TAUTO_COUNT>
1

> <PUBCHEM_CONFORMER_ID>
0000348F00000001

> <PUBCHEM_MMFF94_ENERGY>
56.5877

> <PUBCHEM_FEATURE_SELFOVERLAP>
25.429

> <PUBCHEM_SHAPE_FINGERPRINT>
10967382 1 18410571786186250463
11132069 177 18410295800320344186
11206711 2 18339920515044911757
12236239 1 17704352169995882188
12251169 10 18412831270018240192
12382932 28 18409448068117883339
124424 183 17775012279853375451
12553582 1 18411128134854091589
13140716 1 18266456503763500161
13172582 1 18411136909371998562
13221675 6 18411415111647114983
13380535 76 18410579487115983279
13538477 17 18201999881101129422
14614273 12 18200319955808555453
14787075 74 17749686077363914632
14790565 3 18266432413256072189
15042514 8 18339643334735115210
15209294 21 17822566226405826937
15309172 13 18409725175418620643
15375462 189 17988651765897099706
16945 1 18410569591558150023
1813 80 16987441009447174938
193761 8 17762617695605515357
20510252 161 18260832652080100576
20588541 1 18410007745374647319
20645476 183 17559659660473679150
20739085 24 17905859798640396577
21501502 16 18122341268290081381
22182313 1 18195241354702186957
2334 1 17978226054586794597
23402539 116 18336000721415179477
23419403 2 15316969600939780952
23463225 33 18341895134606056036
23557571 272 18259981609306874732
23559900 14 18262223449265097596
2748010 2 18050843613560055535
34934 24 18410583893757417887
350125 39 17977655734300714210
4072396 5 18270135606993051347
43471831 8 18269840985390895282
53812653 166 18261115162228085034
7364860 26 18044377355903166118
74978 22 18267866090433917295
81228 2 18335972168552132496

> <PUBCHEM_SHAPE_MULTIPOLES>
333.85
6.11
2.93
0.92
2.12
0
-0.07
0
-1.18
-0.69
0.2
0.23
0
0

> <PUBCHEM_SHAPE_SELFOVERLAP>
672.848

> <PUBCHEM_SHAPE_VOLUME>
199.5

> <PUBCHEM_COORDINATE_TYPE>
2
5
10

$$$$

