46174026
  -OEChem-07051213113D

 66 67  0     1  0  0  0  0  0999 V2000
    1.6098    0.0722    0.0976 O   0  0  0  0  0  0  0  0  0  0  0  0
   -1.5470    3.0722    1.7260 O   0  0  0  0  0  0  0  0  0  0  0  0
   -0.9265    1.3485   -2.2017 O   0  0  0  0  0  0  0  0  0  0  0  0
    3.3169   -1.1380   -0.9941 O   0  0  0  0  0  0  0  0  0  0  0  0
   -2.7223   -1.1718    0.7855 O   0  0  0  0  0  0  0  0  0  0  0  0
   -5.0391   -2.6301   -1.5855 O   0  0  0  0  0  0  0  0  0  0  0  0
   -2.6603    1.0153   -0.0162 N   0  0  0  0  0  0  0  0  0  0  0  0
    1.2169    3.3003   -1.6610 N   0  0  0  0  0  0  0  0  0  0  0  0
    0.4886   -2.3636    1.0925 N   0  0  0  0  0  0  0  0  0  0  0  0
    6.7388   -0.6588    0.2828 N   0  0  0  0  0  0  0  0  0  0  0  0
   -5.3339   -1.5020    0.4283 N   0  0  0  0  0  0  0  0  0  0  0  0
   -5.9745   -3.7070    0.2134 N   0  0  0  0  0  0  0  0  0  0  0  0
   -1.2404    1.2145    0.1920 C   0  0  1  0  0  0  0  0  0  0  0  0
    1.0642    0.9564   -0.8831 C   0  0  1  0  0  0  0  0  0  0  0  0
   -0.4454    0.7017   -1.0226 C   0  0  2  0  0  0  0  0  0  0  0  0
    1.4150    2.4115   -0.5142 C   0  0  2  0  0  0  0  0  0  0  0  0
   -0.9259    2.6868    0.4993 C   0  0  2  0  0  0  0  0  0  0  0  0
    0.5804    2.9068    0.6736 C   0  0  0  0  0  0  0  0  0  0  0  0
    1.9799   -1.1687   -0.4801 C   0  0  1  0  0  0  0  0  0  0  0  0
    1.8387   -2.3090    0.5387 C   0  0  1  0  0  0  0  0  0  0  0  0
    2.8681   -2.1623    1.6621 C   0  0  0  0  0  0  0  0  0  0  0  0
    4.3119   -0.9247    0.0139 C   0  0  1  0  0  0  0  0  0  0  0  0
    4.2676   -2.0349    1.0657 C   0  0  0  0  0  0  0  0  0  0  0  0
   -3.3830    2.1535   -0.5836 C   0  0  0  0  0  0  0  0  0  0  0  0
   -3.3020   -0.1937    0.3061 C   0  0  0  0  0  0  0  0  0  0  0  0
    5.6680   -0.8831   -0.6782 C   0  0  0  0  0  0  0  0  0  0  0  0
   -1.6916    4.4810    1.8098 C   0  0  0  0  0  0  0  0  0  0  0  0
   -4.7941   -0.2344    0.0273 C   0  0  0  0  0  0  0  0  0  0  0  0
    8.0361   -0.6296   -0.3795 C   0  0  0  0  0  0  0  0  0  0  0  0
   -5.4150   -2.6088   -0.4148 C   0  0  0  0  0  0  0  0  0  0  0  0
   -0.9579    0.6107    1.0649 H   0  0  0  0  0  0  0  0  0  0  0  0
    1.5535    0.7562   -1.8482 H   0  0  0  0  0  0  0  0  0  0  0  0
   -0.6498   -0.3677   -1.1454 H   0  0  0  0  0  0  0  0  0  0  0  0
    2.4727    2.4600   -0.2262 H   0  0  0  0  0  0  0  0  0  0  0  0
   -1.2517    3.3465   -0.3125 H   0  0  0  0  0  0  0  0  0  0  0  0
    0.9119    2.3868    1.5835 H   0  0  0  0  0  0  0  0  0  0  0  0
    0.8086    3.9631    0.8586 H   0  0  0  0  0  0  0  0  0  0  0  0
    1.3304   -1.4124   -1.3307 H   0  0  0  0  0  0  0  0  0  0  0  0
    2.0424   -3.2567    0.0228 H   0  0  0  0  0  0  0  0  0  0  0  0
    2.6504   -1.2761    2.2722 H   0  0  0  0  0  0  0  0  0  0  0  0
    2.8325   -3.0293    2.3328 H   0  0  0  0  0  0  0  0  0  0  0  0
    1.5005    4.2477   -1.4147 H   0  0  0  0  0  0  0  0  0  0  0  0
    1.8210    3.0100   -2.4287 H   0  0  0  0  0  0  0  0  0  0  0  0
    4.1244    0.0475    0.4887 H   0  0  0  0  0  0  0  0  0  0  0  0
    4.5326   -2.9942    0.6025 H   0  0  0  0  0  0  0  0  0  0  0  0
    4.9843   -1.8511    1.8735 H   0  0  0  0  0  0  0  0  0  0  0  0
   -0.4406    0.9780   -2.9580 H   0  0  0  0  0  0  0  0  0  0  0  0
   -3.5799    2.8880    0.2009 H   0  0  0  0  0  0  0  0  0  0  0  0
   -4.3532    1.8756   -0.9955 H   0  0  0  0  0  0  0  0  0  0  0  0
   -2.8375    2.6067   -1.4136 H   0  0  0  0  0  0  0  0  0  0  0  0
    5.8279   -1.8240   -1.2210 H   0  0  0  0  0  0  0  0  0  0  0  0
    5.6565   -0.0895   -1.4367 H   0  0  0  0  0  0  0  0  0  0  0  0
   -0.1853   -2.5088    0.3420 H   0  0  0  0  0  0  0  0  0  0  0  0
    0.4044   -3.1650    1.7163 H   0  0  0  0  0  0  0  0  0  0  0  0
   -0.7273    4.9810    1.9274 H   0  0  0  0  0  0  0  0  0  0  0  0
   -2.2257    4.8825    0.9429 H   0  0  0  0  0  0  0  0  0  0  0  0
   -2.2864    4.7026    2.7009 H   0  0  0  0  0  0  0  0  0  0  0  0
   -4.9759   -0.1078   -1.0438 H   0  0  0  0  0  0  0  0  0  0  0  0
   -5.3068    0.5392    0.6055 H   0  0  0  0  0  0  0  0  0  0  0  0
    6.5857    0.2254    0.7669 H   0  0  0  0  0  0  0  0  0  0  0  0
   -5.6542   -1.6052    1.3864 H   0  0  0  0  0  0  0  0  0  0  0  0
    8.2478   -1.5807   -0.8789 H   0  0  0  0  0  0  0  0  0  0  0  0
    8.8214   -0.4678    0.3654 H   0  0  0  0  0  0  0  0  0  0  0  0
    8.0950    0.1816   -1.1124 H   0  0  0  0  0  0  0  0  0  0  0  0
   -6.0976   -4.5865   -0.2770 H   0  0  0  0  0  0  0  0  0  0  0  0
   -6.2789   -3.6698    1.1803 H   0  0  0  0  0  0  0  0  0  0  0  0
  1 14  1  0  0  0  0
  1 19  1  0  0  0  0
  2 17  1  0  0  0  0
  2 27  1  0  0  0  0
  3 15  1  0  0  0  0
  3 47  1  0  0  0  0
  4 19  1  0  0  0  0
  4 22  1  0  0  0  0
  5 25  2  0  0  0  0
  6 30  2  0  0  0  0
  7 13  1  0  0  0  0
  7 24  1  0  0  0  0
  7 25  1  0  0  0  0
  8 16  1  0  0  0  0
  8 42  1  0  0  0  0
  8 43  1  0  0  0  0
  9 20  1  0  0  0  0
  9 53  1  0  0  0  0
  9 54  1  0  0  0  0
 10 26  1  0  0  0  0
 10 29  1  0  0  0  0
 10 60  1  0  0  0  0
 11 28  1  0  0  0  0
 11 30  1  0  0  0  0
 11 61  1  0  0  0  0
 12 30  1  0  0  0  0
 12 65  1  0  0  0  0
 12 66  1  0  0  0  0
 13 15  1  0  0  0  0
 13 17  1  0  0  0  0
 13 31  1  0  0  0  0
 14 15  1  0  0  0  0
 14 16  1  0  0  0  0
 14 32  1  0  0  0  0
 15 33  1  0  0  0  0
 16 18  1  0  0  0  0
 16 34  1  0  0  0  0
 17 18  1  0  0  0  0
 17 35  1  0  0  0  0
 18 36  1  0  0  0  0
 18 37  1  0  0  0  0
 19 20  1  0  0  0  0
 19 38  1  0  0  0  0
 20 21  1  0  0  0  0
 20 39  1  0  0  0  0
 21 23  1  0  0  0  0
 21 40  1  0  0  0  0
 21 41  1  0  0  0  0
 22 23  1  0  0  0  0
 22 26  1  0  0  0  0
 22 44  1  0  0  0  0
 23 45  1  0  0  0  0
 23 46  1  0  0  0  0
 24 48  1  0  0  0  0
 24 49  1  0  0  0  0
 24 50  1  0  0  0  0
 25 28  1  0  0  0  0
 26 51  1  0  0  0  0
 26 52  1  0  0  0  0
 27 55  1  0  0  0  0
 27 56  1  0  0  0  0
 27 57  1  0  0  0  0
 28 58  1  0  0  0  0
 28 59  1  0  0  0  0
 29 62  1  0  0  0  0
 29 63  1  0  0  0  0
 29 64  1  0  0  0  0
M  END
> <PUBCHEM_COMPOUND_CID>
46174026

> <PUBCHEM_CONFORMER_RMSD>
1.2

> <PUBCHEM_CONFORMER_DIVERSEORDER>
1
14
16
2
22
20
19
9
21
24
26
23
4
17
25
7
6
18
10
12
3
15
13
5
8
11

> <PUBCHEM_MMFF94_PARTIAL_CHARGES>
36
1 -0.56
10 -0.9
11 -0.73
12 -0.8
13 0.3
14 0.28
15 0.28
16 0.27
17 0.28
19 0.56
2 -0.56
20 0.27
22 0.28
24 0.3
25 0.57
26 0.27
27 0.28
28 0.36
29 0.27
3 -0.68
30 0.69
4 -0.56
42 0.36
43 0.36
47 0.4
5 -0.57
53 0.36
54 0.36
6 -0.57
60 0.36
61 0.37
65 0.37
66 0.37
7 -0.66
8 -0.99
9 -0.99

> <PUBCHEM_EFFECTIVE_ROTOR_COUNT>
12.4

> <PUBCHEM_PHARMACOPHORE_FEATURES>
17
1 1 acceptor
1 10 cation
1 10 donor
1 11 donor
1 12 donor
1 2 acceptor
1 3 acceptor
1 3 donor
1 4 acceptor
1 5 acceptor
1 6 acceptor
1 8 cation
1 8 donor
1 9 cation
1 9 donor
6 13 14 15 16 17 18 rings
6 4 19 20 21 22 23 rings

> <PUBCHEM_HEAVY_ATOM_COUNT>
30

> <PUBCHEM_ATOM_DEF_STEREO_COUNT>
8

> <PUBCHEM_ATOM_UDEF_STEREO_COUNT>
0

> <PUBCHEM_BOND_DEF_STEREO_COUNT>
0

> <PUBCHEM_BOND_UDEF_STEREO_COUNT>
0

> <PUBCHEM_ISOTOPIC_ATOM_COUNT>
0

> <PUBCHEM_COMPONENT_COUNT>
1

> <PUBCHEM_CACTVS_TAUTO_COUNT>
3

> <PUBCHEM_CONFORMER_ID>
02C08F4A00000001

> <PUBCHEM_MMFF94_ENERGY>
67.5661

> <PUBCHEM_FEATURE_SELFOVERLAP>
86.354

> <PUBCHEM_SHAPE_FINGERPRINT>
11552529 35 18192153917292762738
12788726 201 18337388369941229875
13631057 29 18411981377615878282
14068700 675 18410854343484365089
14341114 328 18195806508607022232
14784336 7 18337662011125426492
14787075 74 18343299263027291566
15927050 60 17759802542612837996
18336668 15 18272088266861893247
20028762 73 18335700512171906246
20567600 70 18411420579325326515
20681651 13 17913778485620564848
20775438 99 17617681860072566291
20775530 9 18341619196417229051
208703 8 18117004286695910871
21796203 349 18121189036477389451
23559900 14 18342466924172450077
23622692 118 18411138005089812709
2747138 104 18259706688381328936
3380486 145 17558538356208704508
392239 28 18410285948097942872
463206 1 18266455417606896139
469060 322 18059286690852820124
9896288 288 18042399312887959192

> <PUBCHEM_SHAPE_MULTIPOLES>
552.28
13.91
4.82
1.45
12.71
2.45
-0.04
-14.29
-1.25
-6.04
1.45
-0.12
0.67
-1.87

> <PUBCHEM_SHAPE_SELFOVERLAP>
1112.67

> <PUBCHEM_SHAPE_VOLUME>
320.2

> <PUBCHEM_COORDINATE_TYPE>
2
5
10

$$$$

