95222
  -OEChem-07051212493D

 21 21  0     0  0  0  0  0  0999 V2000
   -2.1842    1.7697   -0.1245 O   0  0  0  0  0  0  0  0  0  0  0  0
    2.9189   -1.2151   -0.5153 O   0  0  0  0  0  0  0  0  0  0  0  0
    2.9465    0.8195    0.4766 O   0  0  0  0  0  0  0  0  0  0  0  0
    0.5750    2.1459   -0.1290 N   0  0  0  0  0  0  0  0  0  0  0  0
   -1.9135   -0.5966    0.0354 C   0  0  0  0  0  0  0  0  0  0  0  0
    0.0221    0.8468   -0.0456 C   0  0  0  0  0  0  0  0  0  0  0  0
   -1.3630    0.6824   -0.0462 C   0  0  0  0  0  0  0  0  0  0  0  0
    0.8567   -0.2678    0.0366 C   0  0  0  0  0  0  0  0  0  0  0  0
   -1.0789   -1.7113    0.1177 C   0  0  0  0  0  0  0  0  0  0  0  0
    0.3061   -1.5469    0.1182 C   0  0  0  0  0  0  0  0  0  0  0  0
   -3.3937   -0.7942    0.0365 C   0  0  0  0  0  0  0  0  0  0  0  0
    2.3079   -0.1323    0.0396 C   0  0  0  0  0  0  0  0  0  0  0  0
   -1.4918   -2.7144    0.1852 H   0  0  0  0  0  0  0  0  0  0  0  0
    0.9271   -2.4353    0.1980 H   0  0  0  0  0  0  0  0  0  0  0  0
   -3.8499   -0.2940    0.8973 H   0  0  0  0  0  0  0  0  0  0  0  0
   -3.8355   -0.4121   -0.8898 H   0  0  0  0  0  0  0  0  0  0  0  0
   -3.6593   -1.8551    0.1045 H   0  0  0  0  0  0  0  0  0  0  0  0
    1.5756    2.2863   -0.1404 H   0  0  0  0  0  0  0  0  0  0  0  0
   -0.0420    2.9454   -0.1894 H   0  0  0  0  0  0  0  0  0  0  0  0
   -3.1182    1.5104   -0.1144 H   0  0  0  0  0  0  0  0  0  0  0  0
    3.8957   -1.1240   -0.5128 H   0  0  0  0  0  0  0  0  0  0  0  0
  1  7  1  0  0  0  0
  1 20  1  0  0  0  0
  2 12  1  0  0  0  0
  2 21  1  0  0  0  0
  3 12  2  0  0  0  0
  4  6  1  0  0  0  0
  4 18  1  0  0  0  0
  4 19  1  0  0  0  0
  5  7  2  0  0  0  0
  5  9  1  0  0  0  0
  5 11  1  0  0  0  0
  6  7  1  0  0  0  0
  6  8  2  0  0  0  0
  8 10  1  0  0  0  0
  8 12  1  0  0  0  0
  9 10  2  0  0  0  0
  9 13  1  0  0  0  0
 10 14  1  0  0  0  0
 11 15  1  0  0  0  0
 11 16  1  0  0  0  0
 11 17  1  0  0  0  0
M  END
> <PUBCHEM_COMPOUND_CID>
95222

> <PUBCHEM_CONFORMER_RMSD>
0.4

> <PUBCHEM_CONFORMER_DIVERSEORDER>
2
3
1

> <PUBCHEM_MMFF94_PARTIAL_CHARGES>
18
1 -0.53
10 -0.15
11 0.14
12 0.63
13 0.15
14 0.15
18 0.4
19 0.4
2 -0.65
20 0.45
21 0.5
3 -0.57
4 -0.9
5 -0.14
6 0.1
7 0.08
8 0.09
9 -0.15

> <PUBCHEM_EFFECTIVE_ROTOR_COUNT>
1

> <PUBCHEM_PHARMACOPHORE_FEATURES>
7
1 1 donor
1 2 acceptor
1 3 acceptor
1 4 cation
1 4 donor
3 2 3 12 anion
6 5 6 7 8 9 10 rings

> <PUBCHEM_HEAVY_ATOM_COUNT>
12

> <PUBCHEM_ATOM_DEF_STEREO_COUNT>
0

> <PUBCHEM_ATOM_UDEF_STEREO_COUNT>
0

> <PUBCHEM_BOND_DEF_STEREO_COUNT>
0

> <PUBCHEM_BOND_UDEF_STEREO_COUNT>
0

> <PUBCHEM_ISOTOPIC_ATOM_COUNT>
0

> <PUBCHEM_COMPONENT_COUNT>
1

> <PUBCHEM_CACTVS_TAUTO_COUNT>
10

> <PUBCHEM_CONFORMER_ID>
000173F600000002

> <PUBCHEM_MMFF94_ENERGY>
47.1035

> <PUBCHEM_FEATURE_SELFOVERLAP>
35.584

> <PUBCHEM_SHAPE_FINGERPRINT>
10857977 72 18411429383781072928
11206711 2 18342179985754096493
12032990 46 18411129247208825891
12423570 1 10934709483045913259
12524768 44 18266463105022901130
14325111 11 18410293639777532600
15219456 202 18187649128439427342
16945 1 18339640027636060287
193761 8 17402893319672692939
20201158 50 18337674109472545594
20871998 184 18188205390881232551
21040471 1 18340206422110912034
22802520 49 18043802306746894558
2334 1 18339644550363307971
23402539 116 18335999591860217366
23402655 69 18266198286989811141
23463225 33 18342460399694861378
23552423 10 18272646878898267158
23559900 14 18190739937857758358
241688 4 18338794636327640056
2748010 2 18338518650282184303
369184 2 18113620079497645538
5084963 1 18259982656592891363
528886 8 18267027339234763137
53812653 166 18336271231567451057
6333449 129 18337676411522132325

> <PUBCHEM_SHAPE_MULTIPOLES>
224.37
4.27
1.94
0.62
0.28
0.47
0
-0.54
0.01
-0.2
-0.06
0.06
-0.04
0.24

> <PUBCHEM_SHAPE_SELFOVERLAP>
476.082

> <PUBCHEM_SHAPE_VOLUME>
126.5

> <PUBCHEM_COORDINATE_TYPE>
2
5
10

$$$$

