42295
  -OEChem-07051212573D

 42 44  0     1  0  0  0  0  0999 V2000
    3.2063   -1.3396   -0.3266 O   0  0  0  0  0  0  0  0  0  0  0  0
   -3.1495    1.1185   -0.1315 O   0  0  0  0  0  0  0  0  0  0  0  0
    1.3824   -2.2667    0.8618 O   0  0  0  0  0  0  0  0  0  0  0  0
    4.9327   -0.0702    0.6050 O   0  0  0  0  0  0  0  0  0  0  0  0
   -4.9360   -0.3197   -0.2535 O   0  0  0  0  0  0  0  0  0  0  0  0
    0.9379   -0.4324   -0.7851 C   0  0  2  0  0  0  0  0  0  0  0  0
    1.2566    0.7743    0.1710 C   0  0  2  0  0  0  0  0  0  0  0  0
    0.5321    2.1141   -0.1583 C   0  0  1  0  0  0  0  0  0  0  0  0
   -0.5671   -0.8682   -0.7879 C   0  0  0  0  0  0  0  0  0  0  0  0
   -1.3996   -0.4028    0.4168 C   0  0  1  0  0  0  0  0  0  0  0  0
   -1.7938    1.0743    0.3729 C   0  0  1  0  0  0  0  0  0  0  0  0
   -0.9546    1.9808   -0.5279 C   0  0  0  0  0  0  0  0  0  0  0  0
    2.7852    0.9885    0.2693 C   0  0  0  0  0  0  0  0  0  0  0  0
    1.8127   -1.6580   -0.3545 C   0  0  1  0  0  0  0  0  0  0  0  0
    1.3343   -0.0951   -2.2485 C   0  0  0  0  0  0  0  0  0  0  0  0
    3.5260   -0.3060    0.5972 C   0  0  1  0  0  0  0  0  0  0  0  0
    0.6659    3.1186    1.0011 C   0  0  0  0  0  0  0  0  0  0  0  0
   -2.7455   -1.0445    0.4437 C   0  0  0  0  0  0  0  0  0  0  0  0
   -3.7657   -0.0878   -0.0113 C   0  0  0  0  0  0  0  0  0  0  0  0
   -3.0604   -2.2781    0.8465 C   0  0  0  0  0  0  0  0  0  0  0  0
    0.9510    0.4815    1.1843 H   0  0  0  0  0  0  0  0  0  0  0  0
    1.0298    2.5730   -1.0234 H   0  0  0  0  0  0  0  0  0  0  0  0
   -0.6166   -1.9641   -0.8577 H   0  0  0  0  0  0  0  0  0  0  0  0
   -1.0571   -0.5298   -1.7114 H   0  0  0  0  0  0  0  0  0  0  0  0
   -0.8712   -0.6306    1.3492 H   0  0  0  0  0  0  0  0  0  0  0  0
   -1.8258    1.4902    1.3879 H   0  0  0  0  0  0  0  0  0  0  0  0
   -1.4192    2.9771   -0.5433 H   0  0  0  0  0  0  0  0  0  0  0  0
   -1.0502    1.6561   -1.5708 H   0  0  0  0  0  0  0  0  0  0  0  0
    3.1707    1.4042   -0.6697 H   0  0  0  0  0  0  0  0  0  0  0  0
    3.0357    1.7245    1.0408 H   0  0  0  0  0  0  0  0  0  0  0  0
    1.7059   -2.4321   -1.1253 H   0  0  0  0  0  0  0  0  0  0  0  0
    2.4010    0.1235   -2.3548 H   0  0  0  0  0  0  0  0  0  0  0  0
    1.1140   -0.9394   -2.9129 H   0  0  0  0  0  0  0  0  0  0  0  0
    0.7831    0.7677   -2.6331 H   0  0  0  0  0  0  0  0  0  0  0  0
    3.2528   -0.6326    1.6084 H   0  0  0  0  0  0  0  0  0  0  0  0
    0.2807    2.7017    1.9373 H   0  0  0  0  0  0  0  0  0  0  0  0
    1.7065    3.4135    1.1618 H   0  0  0  0  0  0  0  0  0  0  0  0
    0.1111    4.0392    0.7884 H   0  0  0  0  0  0  0  0  0  0  0  0
    1.5981   -3.2128    0.8037 H   0  0  0  0  0  0  0  0  0  0  0  0
   -2.2905   -2.9587    1.1947 H   0  0  0  0  0  0  0  0  0  0  0  0
   -4.0830   -2.6397    0.8407 H   0  0  0  0  0  0  0  0  0  0  0  0
    5.3302   -0.7299    1.1984 H   0  0  0  0  0  0  0  0  0  0  0  0
  1 14  1  0  0  0  0
  1 16  1  0  0  0  0
  2 11  1  0  0  0  0
  2 19  1  0  0  0  0
  3 14  1  0  0  0  0
  3 39  1  0  0  0  0
  4 16  1  0  0  0  0
  4 42  1  0  0  0  0
  5 19  2  0  0  0  0
  6  7  1  0  0  0  0
  6  9  1  0  0  0  0
  6 14  1  0  0  0  0
  6 15  1  0  0  0  0
  7  8  1  0  0  0  0
  7 13  1  0  0  0  0
  7 21  1  0  0  0  0
  8 12  1  0  0  0  0
  8 17  1  0  0  0  0
  8 22  1  0  0  0  0
  9 10  1  0  0  0  0
  9 23  1  0  0  0  0
  9 24  1  0  0  0  0
 10 11  1  0  0  0  0
 10 18  1  0  0  0  0
 10 25  1  0  0  0  0
 11 12  1  0  0  0  0
 11 26  1  0  0  0  0
 12 27  1  0  0  0  0
 12 28  1  0  0  0  0
 13 16  1  0  0  0  0
 13 29  1  0  0  0  0
 13 30  1  0  0  0  0
 14 31  1  0  0  0  0
 15 32  1  0  0  0  0
 15 33  1  0  0  0  0
 15 34  1  0  0  0  0
 16 35  1  0  0  0  0
 17 36  1  0  0  0  0
 17 37  1  0  0  0  0
 17 38  1  0  0  0  0
 18 19  1  0  0  0  0
 18 20  2  0  0  0  0
 20 40  1  0  0  0  0
 20 41  1  0  0  0  0
M  END
> <PUBCHEM_COMPOUND_CID>
42295

> <PUBCHEM_CONFORMER_RMSD>
0.6

> <PUBCHEM_CONFORMER_DIVERSEORDER>
1
2
3

> <PUBCHEM_MMFF94_PARTIAL_CHARGES>
16
1 -0.56
10 0.14
11 0.28
14 0.56
16 0.56
18 -0.12
19 0.71
2 -0.43
20 -0.3
3 -0.68
39 0.4
4 -0.68
40 0.15
41 0.15
42 0.4
5 -0.57

> <PUBCHEM_EFFECTIVE_ROTOR_COUNT>
1.6

> <PUBCHEM_PHARMACOPHORE_FEATURES>
9
1 1 acceptor
1 3 acceptor
1 3 donor
1 4 acceptor
1 4 donor
1 5 acceptor
5 2 10 11 18 19 rings
6 1 6 7 13 14 16 rings
7 6 7 8 9 10 11 12 rings

> <PUBCHEM_HEAVY_ATOM_COUNT>
20

> <PUBCHEM_ATOM_DEF_STEREO_COUNT>
7

> <PUBCHEM_ATOM_UDEF_STEREO_COUNT>
0

> <PUBCHEM_BOND_DEF_STEREO_COUNT>
0

> <PUBCHEM_BOND_UDEF_STEREO_COUNT>
0

> <PUBCHEM_ISOTOPIC_ATOM_COUNT>
0

> <PUBCHEM_COMPONENT_COUNT>
1

> <PUBCHEM_CACTVS_TAUTO_COUNT>
1

> <PUBCHEM_CONFORMER_ID>
0000A53700000001

> <PUBCHEM_MMFF94_ENERGY>
64.7712

> <PUBCHEM_FEATURE_SELFOVERLAP>
45.793

> <PUBCHEM_SHAPE_FINGERPRINT>
10863032 1 18270397179144235144
10906281 52 18262502789036919733
10967382 1 18410011026618657747
11132069 177 18409730668539302394
11578080 2 17345499044721016204
12011746 2 18408326592042874588
12251169 10 18187649076393339758
12382932 28 18409447024530163370
12553582 1 18266998674871033785
12633257 1 18410570678221884145
13132413 78 18409730638564332124
13140716 1 18266171730600267177
14115302 16 17917703591860526207
14223421 5 18409448085334292354
14252887 29 17895183428743716902
14787075 74 18341331098532330560
14790565 3 17834954170566636352
15196674 1 18337392754796967880
15375462 478 18410014346976537380
16945 1 18129648815905281589
17834072 14 18411985775535743341
1813 80 17060054904338429310
19591789 44 17546157507244949492
200 152 17967821539678664999
20510252 161 18192151722606906273
20600515 1 18340758321193083165
20626108 58 17274544200383642091
21029758 11 18335708277646278713
21267235 1 18410566297228887907
21421861 104 17844533420598359890
21524375 3 17105648051805934613
23184049 29 18121777489513440936
232386 152 18342450435254514895
2334 1 18337386170823229589
23402539 116 18334586754236829231
23419403 2 18197805273910829413
23557571 272 18189325930679114396
23559900 14 18267586995439138582
2748010 2 18187919646416600053
3286 77 18127976304127141119
34934 24 18410581716356568415
5104073 3 18336266859206283410
5939293 188 18261673658184635536
7364860 26 18263081028825878185
81228 2 17974826660971085081
8809292 202 18272930488510569531
9709674 26 18337668715057107311

> <PUBCHEM_SHAPE_MULTIPOLES>
382.24
6.87
2.58
1.15
1.63
1.05
0.5
-2.18
-1.23
-0.14
-0.69
-0.44
-0.09
0.51

> <PUBCHEM_SHAPE_SELFOVERLAP>
806.671

> <PUBCHEM_SHAPE_VOLUME>
209.9

> <PUBCHEM_COORDINATE_TYPE>
2
5
10

$$$$

