667476
  -OEChem-07051212543D

 38 39  0     0  0  0  0  0  0999 V2000
   -3.9398    2.9039   -0.4351 O   0  0  0  0  0  0  0  0  0  0  0  0
    3.9398    2.9039    0.4349 O   0  0  0  0  0  0  0  0  0  0  0  0
   -0.6861   -1.6066    0.2607 C   0  0  0  0  0  0  0  0  0  0  0  0
    0.6862   -1.6066   -0.2607 C   0  0  0  0  0  0  0  0  0  0  0  0
   -1.5460   -0.4135    0.0767 C   0  0  0  0  0  0  0  0  0  0  0  0
    1.5461   -0.4135   -0.0767 C   0  0  0  0  0  0  0  0  0  0  0  0
   -1.2476   -2.6639    0.8858 C   0  0  0  0  0  0  0  0  0  0  0  0
    1.2473   -2.6642   -0.8856 C   0  0  0  0  0  0  0  0  0  0  0  0
   -1.5629    0.5579    1.0583 C   0  0  0  0  0  0  0  0  0  0  0  0
    1.5631    0.5578   -1.0583 C   0  0  0  0  0  0  0  0  0  0  0  0
   -2.3066   -0.3072   -1.0714 C   0  0  0  0  0  0  0  0  0  0  0  0
    2.3067   -0.3072    1.0714 C   0  0  0  0  0  0  0  0  0  0  0  0
   -2.3729    1.6803    0.8851 C   0  0  0  0  0  0  0  0  0  0  0  0
    2.3730    1.6802   -0.8851 C   0  0  0  0  0  0  0  0  0  0  0  0
   -3.1164    0.8152   -1.2446 C   0  0  0  0  0  0  0  0  0  0  0  0
    3.1164    0.8153    1.2446 C   0  0  0  0  0  0  0  0  0  0  0  0
   -3.1496    1.8090   -0.2664 C   0  0  0  0  0  0  0  0  0  0  0  0
    3.1497    1.8090    0.2664 C   0  0  0  0  0  0  0  0  0  0  0  0
   -2.6428   -2.7746    1.4177 C   0  0  0  0  0  0  0  0  0  0  0  0
    2.6426   -2.7751   -1.4176 C   0  0  0  0  0  0  0  0  0  0  0  0
   -0.6470   -3.5591    1.0420 H   0  0  0  0  0  0  0  0  0  0  0  0
    0.6466   -3.5594   -1.0416 H   0  0  0  0  0  0  0  0  0  0  0  0
   -0.9641    0.4685    1.9606 H   0  0  0  0  0  0  0  0  0  0  0  0
    0.9643    0.4684   -1.9606 H   0  0  0  0  0  0  0  0  0  0  0  0
   -2.2882   -1.0745   -1.8404 H   0  0  0  0  0  0  0  0  0  0  0  0
    2.2884   -1.0745    1.8404 H   0  0  0  0  0  0  0  0  0  0  0  0
   -2.3900    2.4472    1.6547 H   0  0  0  0  0  0  0  0  0  0  0  0
    2.3900    2.4471   -1.6548 H   0  0  0  0  0  0  0  0  0  0  0  0
   -3.7191    0.9098   -2.1438 H   0  0  0  0  0  0  0  0  0  0  0  0
    3.7190    0.9100    2.1438 H   0  0  0  0  0  0  0  0  0  0  0  0
   -2.6059   -2.9796    2.4925 H   0  0  0  0  0  0  0  0  0  0  0  0
   -3.2630   -1.8880    1.2727 H   0  0  0  0  0  0  0  0  0  0  0  0
   -3.1500   -3.6151    0.9328 H   0  0  0  0  0  0  0  0  0  0  0  0
    3.1498   -3.6154   -0.9325 H   0  0  0  0  0  0  0  0  0  0  0  0
    2.6056   -2.9804   -2.4924 H   0  0  0  0  0  0  0  0  0  0  0  0
    3.2628   -1.8885   -1.2729 H   0  0  0  0  0  0  0  0  0  0  0  0
   -3.8394    3.4870    0.3370 H   0  0  0  0  0  0  0  0  0  0  0  0
    3.8394    3.4869   -0.3372 H   0  0  0  0  0  0  0  0  0  0  0  0
  1 17  1  0  0  0  0
  1 37  1  0  0  0  0
  2 18  1  0  0  0  0
  2 38  1  0  0  0  0
  3  4  1  0  0  0  0
  3  5  1  0  0  0  0
  3  7  2  0  0  0  0
  4  6  1  0  0  0  0
  4  8  2  0  0  0  0
  5  9  2  0  0  0  0
  5 11  1  0  0  0  0
  6 10  2  0  0  0  0
  6 12  1  0  0  0  0
  7 19  1  0  0  0  0
  7 21  1  0  0  0  0
  8 20  1  0  0  0  0
  8 22  1  0  0  0  0
  9 13  1  0  0  0  0
  9 23  1  0  0  0  0
 10 14  1  0  0  0  0
 10 24  1  0  0  0  0
 11 15  2  0  0  0  0
 11 25  1  0  0  0  0
 12 16  2  0  0  0  0
 12 26  1  0  0  0  0
 13 17  2  0  0  0  0
 13 27  1  0  0  0  0
 14 18  2  0  0  0  0
 14 28  1  0  0  0  0
 15 17  1  0  0  0  0
 15 29  1  0  0  0  0
 16 18  1  0  0  0  0
 16 30  1  0  0  0  0
 19 31  1  0  0  0  0
 19 32  1  0  0  0  0
 19 33  1  0  0  0  0
 20 34  1  0  0  0  0
 20 35  1  0  0  0  0
 20 36  1  0  0  0  0
M  END
> <PUBCHEM_COMPOUND_CID>
667476

> <PUBCHEM_CONFORMER_RMSD>
0.6

> <PUBCHEM_CONFORMER_DIVERSEORDER>
1
3
2

> <PUBCHEM_MMFF94_PARTIAL_CHARGES>
32
1 -0.53
10 -0.15
11 -0.15
12 -0.15
13 -0.15
14 -0.15
15 -0.15
16 -0.15
17 0.08
18 0.08
19 0.14
2 -0.53
20 0.14
21 0.15
22 0.15
23 0.15
24 0.15
25 0.15
26 0.15
27 0.15
28 0.15
29 0.15
3 -0.03
30 0.15
37 0.45
38 0.45
4 -0.03
5 0.03
6 0.03
7 -0.29
8 -0.29
9 -0.15

> <PUBCHEM_EFFECTIVE_ROTOR_COUNT>
3

> <PUBCHEM_PHARMACOPHORE_FEATURES>
6
1 1 donor
1 19 hydrophobe
1 2 donor
1 20 hydrophobe
6 5 9 11 13 15 17 rings
6 6 10 12 14 16 18 rings

> <PUBCHEM_HEAVY_ATOM_COUNT>
20

> <PUBCHEM_ATOM_DEF_STEREO_COUNT>
0

> <PUBCHEM_ATOM_UDEF_STEREO_COUNT>
0

> <PUBCHEM_BOND_DEF_STEREO_COUNT>
2

> <PUBCHEM_BOND_UDEF_STEREO_COUNT>
0

> <PUBCHEM_ISOTOPIC_ATOM_COUNT>
0

> <PUBCHEM_COMPONENT_COUNT>
1

> <PUBCHEM_CACTVS_TAUTO_COUNT>
3

> <PUBCHEM_CONFORMER_ID>
000A2F5400000001

> <PUBCHEM_MMFF94_ENERGY>
64.5628

> <PUBCHEM_FEATURE_SELFOVERLAP>
30.446

> <PUBCHEM_SHAPE_FINGERPRINT>
10162869 55 17760341325572672571
10165383 225 17762568015529203725
11221954 11 18410858758663077603
11640471 11 18338813259258667744
12633257 1 17986694721109514946
13134695 92 17904202881688041686
13140716 1 18413105082551989170
13149001 5 18121476197463389455
13294875 104 17914617399918200226
13464514 151 18263353841164373534
13764800 53 18337383829886530067
14223421 5 18339913823195668435
14250199 8 18044377355749607173
14614273 12 18264758862047535667
14713325 29 16907722885548084310
14787075 74 18335991887590643433
15295992 7 18197202862171775955
15490181 8 18410578396083162950
15852999 172 18339659883238286139
16945 1 18193269930169429186
17980427 23 17901706878644802938
18186145 218 18125162877663233341
18981168 100 18338497703711032679
19765921 60 18264506120865979689
20510252 161 18122904231212878826
20600515 1 17909247415752264590
21041028 32 16540452372071490387
21524375 3 18338532883787978819
22907989 373 18053665763535065237
23557571 272 17986377911289822503
23558518 356 18273210876787077995
23559900 14 18188216506635973882
2748010 2 18338502088957336950
3060560 45 17907584975413359567
3250762 1 18338780282494903555
350125 39 18266718273309541282
4340502 62 18271528684895781685
474 4 18338526364354905065
49207404 50 18199164339650791417
6049 1 18266718286115347815
633830 44 18193001637180462781
7097593 13 17774459242779646938
7364860 26 18042690683421853670
81228 2 17915437455646993395
84936 182 18189345717393370289
90316 7 17690561883926677170
9709674 26 18408886252173082103
9981440 41 18189074026494240794

> <PUBCHEM_SHAPE_MULTIPOLES>
399.85
6.32
3.76
1.4
0
0.88
0
-4.75
0
0
0
0
0.38
1.77

> <PUBCHEM_SHAPE_SELFOVERLAP>
858.185

> <PUBCHEM_SHAPE_VOLUME>
222.6

> <PUBCHEM_COORDINATE_TYPE>
2
5
10

$$$$

