3607071
  -OEChem-07051213132D

 23 24  0     0  0  0  0  0  0999 V2000
    5.6974    1.0920    0.0000 S   0  0  0  0  0  0  0  0  0  0  0  0
    8.7665    0.4197    0.0000 O   0  0  0  0  0  0  0  0  0  0  0  0
   11.2697   -0.5282    0.0000 O   0  5  0  0  0  0  0  0  0  0  0  0
   10.7345    1.1191    0.0000 O   0  0  0  0  0  0  0  0  0  0  0  0
    2.0000    0.8612    0.0000 O   0  0  0  0  0  0  0  0  0  0  0  0
    6.1974   -0.4468    0.0000 N   0  0  0  0  0  0  0  0  0  0  0  0
    4.4374   -0.1681    0.0000 N   0  0  0  0  0  0  0  0  0  0  0  0
   10.5266    0.1410    0.0000 N   0  3  0  0  0  0  0  0  0  0  0  0
    3.6942    0.5011    0.0000 N   0  0  0  0  0  0  0  0  0  0  0  0
    7.9575   -0.1681    0.0000 C   0  0  0  0  0  0  0  0  0  0  0  0
    7.0064    0.1410    0.0000 C   0  0  0  0  0  0  0  0  0  0  0  0
    8.2665   -1.1191    0.0000 C   0  0  0  0  0  0  0  0  0  0  0  0
    9.5755   -0.1681    0.0000 C   0  0  0  0  0  0  0  0  0  0  0  0
    9.2665   -1.1191    0.0000 C   0  0  0  0  0  0  0  0  0  0  0  0
    6.6974    1.0920    0.0000 C   0  0  0  0  0  0  0  0  0  0  0  0
    5.3884    0.1410    0.0000 C   0  0  0  0  0  0  0  0  0  0  0  0
    2.7431    0.1921    0.0000 C   0  0  0  0  0  0  0  0  0  0  0  0
    7.9021   -1.6207    0.0000 H   0  0  0  0  0  0  0  0  0  0  0  0
    7.0618    1.5936    0.0000 H   0  0  0  0  0  0  0  0  0  0  0  0
    9.6309   -1.6207    0.0000 H   0  0  0  0  0  0  0  0  0  0  0  0
    4.3084   -0.7745    0.0000 H   0  0  0  0  0  0  0  0  0  0  0  0
    3.8231    1.1075    0.0000 H   0  0  0  0  0  0  0  0  0  0  0  0
    2.6142   -0.4144    0.0000 H   0  0  0  0  0  0  0  0  0  0  0  0
  1 15  1  0  0  0  0
  1 16  1  0  0  0  0
  2 10  1  0  0  0  0
  2 13  1  0  0  0  0
  3  8  1  0  0  0  0
  4  8  2  0  0  0  0
  5 17  2  0  0  0  0
  6 11  1  0  0  0  0
  6 16  2  0  0  0  0
  7  9  1  0  0  0  0
  7 16  1  0  0  0  0
  7 21  1  0  0  0  0
  8 13  1  0  0  0  0
  9 17  1  0  0  0  0
  9 22  1  0  0  0  0
 10 11  1  0  0  0  0
 10 12  2  0  0  0  0
 11 15  2  0  0  0  0
 12 14  1  0  0  0  0
 12 18  1  0  0  0  0
 13 14  2  0  0  0  0
 14 20  1  0  0  0  0
 15 19  1  0  0  0  0
 17 23  1  0  0  0  0
M  CHG  2   3  -1   8   1
M  END
> <PUBCHEM_COMPOUND_CID>
3607071

> <PUBCHEM_COMPOUND_CANONICALIZED>
1

> <PUBCHEM_CACTVS_COMPLEXITY>
300

> <PUBCHEM_CACTVS_HBOND_ACCEPTOR>
7

> <PUBCHEM_CACTVS_HBOND_DONOR>
2

> <PUBCHEM_CACTVS_ROTATABLE_BOND>
3

> <PUBCHEM_CACTVS_SUBSKEYS>
AAADcYBzuABAAAAAAAAAAAAAAAAAAWJAAAAAAAAAAAAAAAAB4AAAHgQcAAAACAyF1gaxlZJ6VEitAaVy9wSC+KlvKjsuqLW2bNqOJrKktLuPOSjkwBMY6ae8WQMQAAAAAAAAAAAAAAAAAAAAAAAAAAAAAA==

> <PUBCHEM_IUPAC_OPENEYE_NAME>
N-[[4-(5-nitro-2-furyl)thiazol-2-yl]amino]formamide

> <PUBCHEM_IUPAC_CAS_NAME>
N-[[4-(5-nitro-2-furanyl)-2-thiazolyl]amino]formamide

> <PUBCHEM_IUPAC_NAME>
N-[[4-(5-nitrofuran-2-yl)-1,3-thiazol-2-yl]amino]formamide

> <PUBCHEM_IUPAC_SYSTEMATIC_NAME>
N-[[4-(5-nitrofuran-2-yl)-1,3-thiazol-2-yl]amino]methanamide

> <PUBCHEM_IUPAC_TRADITIONAL_NAME>
N-[[4-(5-nitro-2-furyl)thiazol-2-yl]amino]formamide

> <PUBCHEM_IUPAC_INCHI>
InChI=1S/C8H6N4O4S/c13-4-9-11-8-10-5(3-17-8)6-1-2-7(16-6)12(14)15/h1-4H,(H,9,13)(H,10,11)

> <PUBCHEM_IUPAC_INCHIKEY>
DUWYZHLZDVCZIO-UHFFFAOYSA-N

> <PUBCHEM_XLOGP3_AA>
1.7

> <PUBCHEM_EXACT_MASS>
254.010976

> <PUBCHEM_MOLECULAR_FORMULA>
C8H6N4O4S

> <PUBCHEM_MOLECULAR_WEIGHT>
254.22264

> <PUBCHEM_OPENEYE_CAN_SMILES>
C1=C(OC(=C1)[N+](=O)[O-])C2=CSC(=N2)NNC=O

> <PUBCHEM_OPENEYE_ISO_SMILES>
C1=C(OC(=C1)[N+](=O)[O-])C2=CSC(=N2)NNC=O

> <PUBCHEM_CACTVS_TPSA>
141

> <PUBCHEM_MONOISOTOPIC_WEIGHT>
254.010976

> <PUBCHEM_TOTAL_CHARGE>
0

> <PUBCHEM_HEAVY_ATOM_COUNT>
17

> <PUBCHEM_ATOM_DEF_STEREO_COUNT>
0

> <PUBCHEM_ATOM_UDEF_STEREO_COUNT>
0

> <PUBCHEM_BOND_DEF_STEREO_COUNT>
0

> <PUBCHEM_BOND_UDEF_STEREO_COUNT>
0

> <PUBCHEM_ISOTOPIC_ATOM_COUNT>
0

> <PUBCHEM_COMPONENT_COUNT>
1

> <PUBCHEM_CACTVS_TAUTO_COUNT>
4

> <PUBCHEM_COORDINATE_TYPE>
1
5
255

> <PUBCHEM_BONDANNOTATIONS>
1  15  8
1  16  8
10  12  8
11  15  8
12  14  8
13  14  8
2  10  8
2  13  8
6  11  8
6  16  8

$$$$

