9595
  -OEChem-06261203513D

 22 22  0     0  0  0  0  0  0999 V2000
   -3.8336   -0.3959    0.0000 F   0  0  0  0  0  0  0  0  0  0  0  0
   -3.0143    1.2948    1.0835 F   0  0  0  0  0  0  0  0  0  0  0  0
   -2.9933    1.2871   -1.0909 F   0  0  0  0  0  0  0  0  0  0  0  0
    3.8592   -0.7838   -0.0021 O   0  0  0  0  0  0  0  0  0  0  0  0
    2.1119    0.7989    0.0011 N   0  0  0  0  0  0  0  0  0  0  0  0
   -1.4531   -0.1583    0.0010 C   0  0  0  0  0  0  0  0  0  0  0  0
    0.9566    0.0166    0.0010 C   0  0  0  0  0  0  0  0  0  0  0  0
   -0.2988    0.6249    0.0011 C   0  0  0  0  0  0  0  0  0  0  0  0
   -1.3521   -1.5496    0.0009 C   0  0  0  0  0  0  0  0  0  0  0  0
    1.0574   -1.3747    0.0009 C   0  0  0  0  0  0  0  0  0  0  0  0
   -0.0969   -2.1578    0.0008 C   0  0  0  0  0  0  0  0  0  0  0  0
   -2.7955    0.4918    0.0006 C   0  0  0  0  0  0  0  0  0  0  0  0
    3.4463    0.3713    0.0011 C   0  0  0  0  0  0  0  0  0  0  0  0
    4.4061    1.5345    0.0011 C   0  0  0  0  0  0  0  0  0  0  0  0
   -0.3824    1.7094    0.0012 H   0  0  0  0  0  0  0  0  0  0  0  0
   -2.2395   -2.1764    0.0007 H   0  0  0  0  0  0  0  0  0  0  0  0
    1.9922   -1.9175    0.0011 H   0  0  0  0  0  0  0  0  0  0  0  0
   -0.0194   -3.2412    0.0007 H   0  0  0  0  0  0  0  0  0  0  0  0
    1.9552    1.8048    0.0013 H   0  0  0  0  0  0  0  0  0  0  0  0
    4.2658    2.1292   -0.9058 H   0  0  0  0  0  0  0  0  0  0  0  0
    5.4353    1.1659    0.0291 H   0  0  0  0  0  0  0  0  0  0  0  0
    4.2303    2.1609    0.8802 H   0  0  0  0  0  0  0  0  0  0  0  0
  1 12  1  0  0  0  0
  2 12  1  0  0  0  0
  3 12  1  0  0  0  0
  4 13  2  0  0  0  0
  5  7  1  0  0  0  0
  5 13  1  0  0  0  0
  5 19  1  0  0  0  0
  6  8  2  0  0  0  0
  6  9  1  0  0  0  0
  6 12  1  0  0  0  0
  7  8  1  0  0  0  0
  7 10  2  0  0  0  0
  8 15  1  0  0  0  0
  9 11  2  0  0  0  0
  9 16  1  0  0  0  0
 10 11  1  0  0  0  0
 10 17  1  0  0  0  0
 11 18  1  0  0  0  0
 13 14  1  0  0  0  0
 14 20  1  0  0  0  0
 14 21  1  0  0  0  0
 14 22  1  0  0  0  0
M  END
> <PUBCHEM_COMPOUND_CID>
9595

> <PUBCHEM_CONFORMER_RMSD>
0.6

> <PUBCHEM_CONFORMER_DIVERSEORDER>
2
3
1
4

> <PUBCHEM_MMFF94_PARTIAL_CHARGES>
19
1 -0.34
10 -0.15
11 -0.15
12 1.16
13 0.57
14 0.06
15 0.15
16 0.15
17 0.15
18 0.15
19 0.37
2 -0.34
3 -0.34
4 -0.57
5 -0.55
6 -0.14
7 0.12
8 -0.15
9 -0.15

> <PUBCHEM_EFFECTIVE_ROTOR_COUNT>
3

> <PUBCHEM_PHARMACOPHORE_FEATURES>
3
1 4 acceptor
1 5 donor
6 6 7 8 9 10 11 rings

> <PUBCHEM_HEAVY_ATOM_COUNT>
14

> <PUBCHEM_ATOM_DEF_STEREO_COUNT>
0

> <PUBCHEM_ATOM_UDEF_STEREO_COUNT>
0

> <PUBCHEM_BOND_DEF_STEREO_COUNT>
0

> <PUBCHEM_BOND_UDEF_STEREO_COUNT>
0

> <PUBCHEM_ISOTOPIC_ATOM_COUNT>
0

> <PUBCHEM_COMPONENT_COUNT>
1

> <PUBCHEM_CACTVS_TAUTO_COUNT>
2

> <PUBCHEM_CONFORMER_ID>
0000257B00000002

> <PUBCHEM_MMFF94_ENERGY>
30.269

> <PUBCHEM_FEATURE_SELFOVERLAP>
15.223

> <PUBCHEM_SHAPE_FINGERPRINT>
10219947 1 18202843270706707788
10608611 8 18264210210478014568
11543360 7 15792023233601130436
12346645 44 18408038537165697393
12500047 106 18336271124651918514
12932764 1 17418106399104564718
13380535 76 18409729564580148694
14144814 61 18412546513591576288
14325111 11 18410856547118871554
14897335 6 18410296895700567470
15775835 57 18342175544789553994
16945 1 17978511167601628711
18186145 218 18335133228606201020
20281407 28 10664101151313771796
20510252 161 18262795138543562298
20645477 56 18339079272848861608
20645477 70 17748816437324197486
21499 59 18409736178945374599
21524375 3 18410857650567127782
23402539 116 18187371999827163325
23402655 69 18263659505803317781
23463225 33 18342741844844093290
23559900 14 18187643580001148376
25 1 18334293201516715306
2748010 2 18339066164155318495
3071541 12 18119804974238312390
366044 4 18410856542502436787
6333449 129 18336266738836376422
633830 44 18114173189855130276
6430166 295 18341619230629228704
69090 78 18335706005144284142
7364860 26 18119245309998390534
81228 2 17834690300470253651

> <PUBCHEM_SHAPE_MULTIPOLES>
255.44
7.04
1.8
0.7
3.92
0.62
0
-3.29
0
-0.09
0
-0.34
-0.16
0

> <PUBCHEM_SHAPE_SELFOVERLAP>
533.414

> <PUBCHEM_SHAPE_VOLUME>
145.4

> <PUBCHEM_COORDINATE_TYPE>
2
5
10

$$$$

