5282033
  -OEChem-07051213023D

 76 77  0     1  0  0  0  0  0999 V2000
    1.5185    0.0460    0.6280 O   0  0  0  0  0  0  0  0  0  0  0  0
    2.8436   -0.1641   -1.2809 O   0  0  0  0  0  0  0  0  0  0  0  0
    3.7397    1.0662    2.0428 O   0  0  0  0  0  0  0  0  0  0  0  0
   -2.9737    1.2271    0.4350 O   0  0  0  0  0  0  0  0  0  0  0  0
   -1.8097    1.8788   -1.4493 O   0  0  0  0  0  0  0  0  0  0  0  0
   -3.1194   -3.6905   -1.0962 O   0  0  0  0  0  0  0  0  0  0  0  0
   -6.2090    2.6133   -0.5493 O   0  0  0  0  0  0  0  0  0  0  0  0
    6.3555    0.1635    0.9652 N   0  0  0  0  0  0  0  0  0  0  0  0
    5.2071    0.5983    0.1690 C   0  0  2  0  0  0  0  0  0  0  0  0
    0.3514    0.2533   -0.1684 C   0  0  1  0  0  0  0  0  0  0  0  0
    3.8904    0.2549    0.8788 C   0  0  2  0  0  0  0  0  0  0  0  0
    2.6902    0.5172   -0.0373 C   0  0  2  0  0  0  0  0  0  0  0  0
   -0.2588   -1.1351   -0.5254 C   0  0  2  0  0  0  0  0  0  0  0  0
    5.2601   -0.0639   -1.2100 C   0  0  0  0  0  0  0  0  0  0  0  0
    3.9971    0.2686   -2.0057 C   0  0  1  0  0  0  0  0  0  0  0  0
   -0.6196    1.2126    0.5589 C   0  0  1  0  0  0  0  0  0  0  0  0
   -0.5191   -2.0116    0.7265 C   0  0  0  0  0  0  0  0  0  0  0  0
   -1.3235   -3.3038    0.4612 C   0  0  1  0  0  0  0  0  0  0  0  0
    0.6792   -1.8644   -1.5011 C   0  0  0  0  0  0  0  0  0  0  0  0
    3.9942   -0.4428   -3.3516 C   0  0  0  0  0  0  0  0  0  0  0  0
    0.0265    2.5584    0.8971 C   0  0  0  0  0  0  0  0  0  0  0  0
   -1.8489    1.4904   -0.2891 C   0  0  0  0  0  0  0  0  0  0  0  0
    6.3239    0.7855    2.2880 C   0  0  0  0  0  0  0  0  0  0  0  0
    7.6046    0.4865    0.2772 C   0  0  0  0  0  0  0  0  0  0  0  0
   -4.2501    1.2557   -0.2499 C   0  0  1  0  0  0  0  0  0  0  0  0
   -1.4644   -4.1309    1.7390 C   0  0  0  0  0  0  0  0  0  0  0  0
   -2.7092   -3.0472   -0.1315 C   0  0  0  0  0  0  0  0  0  0  0  0
   -5.0697    0.0190    0.1999 C   0  0  1  0  0  0  0  0  0  0  0  0
   -4.9261    2.5848    0.0663 C   0  0  1  0  0  0  0  0  0  0  0  0
   -3.5468   -1.9942    0.5037 C   0  0  0  0  0  0  0  0  0  0  0  0
   -4.3306   -1.2241   -0.2633 C   0  0  0  0  0  0  0  0  0  0  0  0
   -5.3970    0.0267    1.6993 C   0  0  0  0  0  0  0  0  0  0  0  0
   -4.1062    3.7658   -0.4269 C   0  0  0  0  0  0  0  0  0  0  0  0
    5.2503    1.6897    0.0333 H   0  0  0  0  0  0  0  0  0  0  0  0
    0.6056    0.7450   -1.1194 H   0  0  0  0  0  0  0  0  0  0  0  0
    3.8895   -0.7963    1.1965 H   0  0  0  0  0  0  0  0  0  0  0  0
    2.5787    1.5956   -0.2129 H   0  0  0  0  0  0  0  0  0  0  0  0
   -1.2016   -0.9664   -1.0569 H   0  0  0  0  0  0  0  0  0  0  0  0
    6.1177    0.2783   -1.7988 H   0  0  0  0  0  0  0  0  0  0  0  0
    5.3405   -1.1531   -1.0918 H   0  0  0  0  0  0  0  0  0  0  0  0
    3.9243    1.3497   -2.1796 H   0  0  0  0  0  0  0  0  0  0  0  0
   -0.9269    0.7632    1.5102 H   0  0  0  0  0  0  0  0  0  0  0  0
   -1.0389   -1.4196    1.4868 H   0  0  0  0  0  0  0  0  0  0  0  0
    0.4439   -2.2903    1.1746 H   0  0  0  0  0  0  0  0  0  0  0  0
   -0.7762   -3.9157   -0.2657 H   0  0  0  0  0  0  0  0  0  0  0  0
    0.9270   -1.2352   -2.3614 H   0  0  0  0  0  0  0  0  0  0  0  0
    1.5922   -2.2166   -1.0125 H   0  0  0  0  0  0  0  0  0  0  0  0
    0.1817   -2.7484   -1.9145 H   0  0  0  0  0  0  0  0  0  0  0  0
    4.8538   -0.1479   -3.9609 H   0  0  0  0  0  0  0  0  0  0  0  0
    4.0103   -1.5306   -3.2217 H   0  0  0  0  0  0  0  0  0  0  0  0
    3.0778   -0.2073   -3.9038 H   0  0  0  0  0  0  0  0  0  0  0  0
   -0.7027    3.2347    1.3573 H   0  0  0  0  0  0  0  0  0  0  0  0
    0.8551    2.4340    1.6012 H   0  0  0  0  0  0  0  0  0  0  0  0
    0.4104    3.0530   -0.0019 H   0  0  0  0  0  0  0  0  0  0  0  0
    2.8892    0.8324    2.4525 H   0  0  0  0  0  0  0  0  0  0  0  0
   -4.1043    1.1743   -1.3367 H   0  0  0  0  0  0  0  0  0  0  0  0
    7.2946    0.6627    2.7866 H   0  0  0  0  0  0  0  0  0  0  0  0
    5.6318    0.2728    2.9626 H   0  0  0  0  0  0  0  0  0  0  0  0
    6.1264    1.8632    2.2576 H   0  0  0  0  0  0  0  0  0  0  0  0
    7.7730   -0.1549   -0.5933 H   0  0  0  0  0  0  0  0  0  0  0  0
    8.4647    0.2897    0.9293 H   0  0  0  0  0  0  0  0  0  0  0  0
    7.6573    1.5377   -0.0288 H   0  0  0  0  0  0  0  0  0  0  0  0
   -2.0531   -5.0362    1.5545 H   0  0  0  0  0  0  0  0  0  0  0  0
   -0.4815   -4.4372    2.1122 H   0  0  0  0  0  0  0  0  0  0  0  0
   -1.9660   -3.5674    2.5330 H   0  0  0  0  0  0  0  0  0  0  0  0
   -6.0307    0.0175   -0.3315 H   0  0  0  0  0  0  0  0  0  0  0  0
   -5.0663    2.7091    1.1452 H   0  0  0  0  0  0  0  0  0  0  0  0
   -3.3885   -1.7913    1.5552 H   0  0  0  0  0  0  0  0  0  0  0  0
   -4.3969   -1.4263   -1.3310 H   0  0  0  0  0  0  0  0  0  0  0  0
   -6.1003    0.8303    1.9410 H   0  0  0  0  0  0  0  0  0  0  0  0
   -5.8746   -0.9126    2.0006 H   0  0  0  0  0  0  0  0  0  0  0  0
   -4.5048    0.1679    2.3182 H   0  0  0  0  0  0  0  0  0  0  0  0
   -4.6706    4.6955   -0.2906 H   0  0  0  0  0  0  0  0  0  0  0  0
   -3.1612    3.8696    0.1129 H   0  0  0  0  0  0  0  0  0  0  0  0
   -3.9016    3.6885   -1.5001 H   0  0  0  0  0  0  0  0  0  0  0  0
   -6.0818    2.5364   -1.5104 H   0  0  0  0  0  0  0  0  0  0  0  0
  1 10  1  0  0  0  0
  1 12  1  0  0  0  0
  2 12  1  0  0  0  0
  2 15  1  0  0  0  0
  3 11  1  0  0  0  0
  3 55  1  0  0  0  0
  4 22  1  0  0  0  0
  4 25  1  0  0  0  0
  5 22  2  0  0  0  0
  6 27  2  0  0  0  0
  7 29  1  0  0  0  0
  7 76  1  0  0  0  0
  8  9  1  0  0  0  0
  8 23  1  0  0  0  0
  8 24  1  0  0  0  0
  9 11  1  0  0  0  0
  9 14  1  0  0  0  0
  9 34  1  0  0  0  0
 10 13  1  0  0  0  0
 10 16  1  0  0  0  0
 10 35  1  0  0  0  0
 11 12  1  0  0  0  0
 11 36  1  0  0  0  0
 12 37  1  0  0  0  0
 13 17  1  0  0  0  0
 13 19  1  0  0  0  0
 13 38  1  0  0  0  0
 14 15  1  0  0  0  0
 14 39  1  0  0  0  0
 14 40  1  0  0  0  0
 15 20  1  0  0  0  0
 15 41  1  0  0  0  0
 16 21  1  0  0  0  0
 16 22  1  0  0  0  0
 16 42  1  0  0  0  0
 17 18  1  0  0  0  0
 17 43  1  0  0  0  0
 17 44  1  0  0  0  0
 18 26  1  0  0  0  0
 18 27  1  0  0  0  0
 18 45  1  0  0  0  0
 19 46  1  0  0  0  0
 19 47  1  0  0  0  0
 19 48  1  0  0  0  0
 20 49  1  0  0  0  0
 20 50  1  0  0  0  0
 20 51  1  0  0  0  0
 21 52  1  0  0  0  0
 21 53  1  0  0  0  0
 21 54  1  0  0  0  0
 23 57  1  0  0  0  0
 23 58  1  0  0  0  0
 23 59  1  0  0  0  0
 24 60  1  0  0  0  0
 24 61  1  0  0  0  0
 24 62  1  0  0  0  0
 25 28  1  0  0  0  0
 25 29  1  0  0  0  0
 25 56  1  0  0  0  0
 26 63  1  0  0  0  0
 26 64  1  0  0  0  0
 26 65  1  0  0  0  0
 27 30  1  0  0  0  0
 28 31  1  0  0  0  0
 28 32  1  0  0  0  0
 28 66  1  0  0  0  0
 29 33  1  0  0  0  0
 29 67  1  0  0  0  0
 30 31  2  0  0  0  0
 30 68  1  0  0  0  0
 31 69  1  0  0  0  0
 32 70  1  0  0  0  0
 32 71  1  0  0  0  0
 32 72  1  0  0  0  0
 33 73  1  0  0  0  0
 33 74  1  0  0  0  0
 33 75  1  0  0  0  0
M  END
> <PUBCHEM_COMPOUND_CID>
5282033

> <PUBCHEM_CONFORMER_RMSD>
1

> <PUBCHEM_CONFORMER_DIVERSEORDER>
2
4
3
5
1
6

> <PUBCHEM_MMFF94_PARTIAL_CHARGES>
28
1 -0.56
10 0.28
11 0.28
12 0.56
15 0.28
16 0.06
18 0.06
2 -0.56
22 0.66
23 0.27
24 0.27
25 0.28
27 0.49
28 0.14
29 0.28
3 -0.68
30 -0.14
31 -0.29
4 -0.43
5 -0.57
55 0.4
6 -0.57
68 0.15
69 0.15
7 -0.68
76 0.4
8 -0.81
9 0.27

> <PUBCHEM_EFFECTIVE_ROTOR_COUNT>
6.8

> <PUBCHEM_PHARMACOPHORE_FEATURES>
10
1 1 acceptor
1 2 acceptor
1 3 acceptor
1 3 donor
1 5 acceptor
1 6 acceptor
1 7 acceptor
1 7 donor
1 8 cation
6 2 9 11 12 14 15 rings

> <PUBCHEM_HEAVY_ATOM_COUNT>
33

> <PUBCHEM_ATOM_DEF_STEREO_COUNT>
11

> <PUBCHEM_ATOM_UDEF_STEREO_COUNT>
0

> <PUBCHEM_BOND_DEF_STEREO_COUNT>
1

> <PUBCHEM_BOND_UDEF_STEREO_COUNT>
0

> <PUBCHEM_ISOTOPIC_ATOM_COUNT>
0

> <PUBCHEM_COMPONENT_COUNT>
1

> <PUBCHEM_CACTVS_TAUTO_COUNT>
5

> <PUBCHEM_CONFORMER_ID>
005098F100000002

> <PUBCHEM_MMFF94_ENERGY>
94.3342

> <PUBCHEM_FEATURE_SELFOVERLAP>
50.791

> <PUBCHEM_SHAPE_FINGERPRINT>
10411042 1 17979075977767123315
10675989 125 17331405784266243037
11112241 14 17168153316744824401
12035758 1 18262225638981201619
12236239 1 17561081406444327096
12422481 6 17274263979711494247
12597179 24 18261394493805358895
12616971 3 17060334128414530356
12788726 201 18056745547207395806
12838862 33 18339654403920339037
13140716 1 18124310498643885155
13402501 40 18040434382746257656
13726171 33 17979322332421487588
14251757 5 18197761246417069639
14294032 229 18059578056749051404
14725015 67 18193281789249659267
14790565 3 18268988851152501413
15021287 119 16630531734840231284
15328829 1 17561363968279657852
15361156 5 18192430775712308542
17980427 23 17060042779587659261
20511986 3 17489595553804733428
21033648 29 18337380647632599413
21236236 1 18335705996596508499
21279426 13 18262229040437343094
22182313 1 17894900811838475230
23557571 272 18261667096033367148
23559900 14 18189037816094421222
3383291 50 18264203626573465467
338550 245 18130787897415265978
4015057 19 17095249090195398577
508706 21 18335421231980765423
5171179 24 17825962415855101489
5283173 99 18335983090796183160
7226269 152 18335138682834846184
9981440 41 18201714090009639987

> <PUBCHEM_SHAPE_MULTIPOLES>
633.06
15.53
4.01
1.95
16.36
2.26
0.71
-7.35
-2.6
-8.08
-0.43
3.22
0.32
1.5

> <PUBCHEM_SHAPE_SELFOVERLAP>
1275.424

> <PUBCHEM_SHAPE_VOLUME>
368.1

> <PUBCHEM_COORDINATE_TYPE>
2
5
10

$$$$

