25244626
  -OEChem-07051213113D

 38 40  0     1  0  0  0  0  0999 V2000
    2.3658    0.5891   -0.7263 O   0  0  0  0  0  0  0  0  0  0  0  0
    1.3645    2.0254    0.8500 O   0  0  0  0  0  0  0  0  0  0  0  0
   -1.5220    2.1603    0.2897 O   0  0  0  0  0  0  0  0  0  0  0  0
   -4.0604    1.9682    0.2592 O   0  0  0  0  0  0  0  0  0  0  0  0
    6.2487   -0.9295    0.0571 O   0  0  0  0  0  0  0  0  0  0  0  0
    4.8926    0.5075    1.1869 O   0  0  0  0  0  0  0  0  0  0  0  0
    0.1039   -0.9707   -0.2041 C   0  0  0  0  0  0  0  0  0  0  0  0
    1.4673   -1.5977   -0.3520 C   0  0  0  0  0  0  0  0  0  0  0  0
    2.5668   -0.6065    0.0232 C   0  0  1  0  0  0  0  0  0  0  0  0
    1.1650    1.3009   -0.3660 C   0  0  2  0  0  0  0  0  0  0  0  0
   -0.0263    0.3689   -0.1770 C   0  0  0  0  0  0  0  0  0  0  0  0
   -1.0333   -1.9434   -0.0786 C   0  0  0  0  0  0  0  0  0  0  0  0
   -2.3929   -1.3153    0.0031 C   0  0  0  0  0  0  0  0  0  0  0  0
   -1.3767    0.9609    0.0790 C   0  0  0  0  0  0  0  0  0  0  0  0
    3.9441   -1.1554   -0.3214 C   0  0  0  0  0  0  0  0  0  0  0  0
   -2.5564    0.0693    0.0877 C   0  0  0  0  0  0  0  0  0  0  0  0
    0.9460    2.2877   -1.5203 C   0  0  0  0  0  0  0  0  0  0  0  0
   -3.5295   -2.1380    0.0183 C   0  0  0  0  0  0  0  0  0  0  0  0
   -3.8395    0.6246    0.1841 C   0  0  0  0  0  0  0  0  0  0  0  0
    5.0395   -0.4169    0.4017 C   0  0  0  0  0  0  0  0  0  0  0  0
   -4.8065   -1.5853    0.1114 C   0  0  0  0  0  0  0  0  0  0  0  0
   -4.9609   -0.2044    0.1944 C   0  0  0  0  0  0  0  0  0  0  0  0
    1.5499   -2.4833    0.2894 H   0  0  0  0  0  0  0  0  0  0  0  0
    1.5796   -1.9256   -1.3931 H   0  0  0  0  0  0  0  0  0  0  0  0
    2.5112   -0.3777    1.0963 H   0  0  0  0  0  0  0  0  0  0  0  0
   -0.8799   -2.5523    0.8212 H   0  0  0  0  0  0  0  0  0  0  0  0
   -1.0143   -2.6120   -0.9488 H   0  0  0  0  0  0  0  0  0  0  0  0
    4.0149   -2.2064   -0.0182 H   0  0  0  0  0  0  0  0  0  0  0  0
    4.1325   -1.0712   -1.3979 H   0  0  0  0  0  0  0  0  0  0  0  0
    1.8591    2.8687   -1.7006 H   0  0  0  0  0  0  0  0  0  0  0  0
    0.1539    3.0130   -1.3142 H   0  0  0  0  0  0  0  0  0  0  0  0
    0.7162    1.7622   -2.4541 H   0  0  0  0  0  0  0  0  0  0  0  0
   -3.4227   -3.2185   -0.0412 H   0  0  0  0  0  0  0  0  0  0  0  0
    1.7352    2.8968    0.6320 H   0  0  0  0  0  0  0  0  0  0  0  0
   -5.6789   -2.2320    0.1209 H   0  0  0  0  0  0  0  0  0  0  0  0
   -5.9588    0.2199    0.2661 H   0  0  0  0  0  0  0  0  0  0  0  0
   -3.2395    2.4587    0.1027 H   0  0  0  0  0  0  0  0  0  0  0  0
    6.9847   -0.4685    0.5133 H   0  0  0  0  0  0  0  0  0  0  0  0
  1  9  1  0  0  0  0
  1 10  1  0  0  0  0
  2 10  1  0  0  0  0
  2 34  1  0  0  0  0
  3 14  2  0  0  0  0
  4 19  1  0  0  0  0
  4 37  1  0  0  0  0
  5 20  1  0  0  0  0
  5 38  1  0  0  0  0
  6 20  2  0  0  0  0
  7  8  1  0  0  0  0
  7 11  2  0  0  0  0
  7 12  1  0  0  0  0
  8  9  1  0  0  0  0
  8 23  1  0  0  0  0
  8 24  1  0  0  0  0
  9 15  1  0  0  0  0
  9 25  1  0  0  0  0
 10 11  1  0  0  0  0
 10 17  1  0  0  0  0
 11 14  1  0  0  0  0
 12 13  1  0  0  0  0
 12 26  1  0  0  0  0
 12 27  1  0  0  0  0
 13 16  2  0  0  0  0
 13 18  1  0  0  0  0
 14 16  1  0  0  0  0
 15 20  1  0  0  0  0
 15 28  1  0  0  0  0
 15 29  1  0  0  0  0
 16 19  1  0  0  0  0
 17 30  1  0  0  0  0
 17 31  1  0  0  0  0
 17 32  1  0  0  0  0
 18 21  2  0  0  0  0
 18 33  1  0  0  0  0
 19 22  2  0  0  0  0
 21 22  1  0  0  0  0
 21 35  1  0  0  0  0
 22 36  1  0  0  0  0
M  END
> <PUBCHEM_COMPOUND_CID>
25244626

> <PUBCHEM_CONFORMER_RMSD>
0.6

> <PUBCHEM_CONFORMER_DIVERSEORDER>
1
8
7
2
11
6
9
5
10
4
3

> <PUBCHEM_MMFF94_PARTIAL_CHARGES>
27
1 -0.56
10 0.7
11 -0.12
12 0.28
13 -0.14
14 0.47
15 0.06
16 0.09
18 -0.15
19 0.08
2 -0.68
20 0.66
21 -0.15
22 -0.15
3 -0.57
33 0.15
34 0.4
35 0.15
36 0.15
37 0.45
38 0.5
4 -0.53
5 -0.65
6 -0.57
7 -0.28
8 0.14
9 0.28

> <PUBCHEM_EFFECTIVE_ROTOR_COUNT>
3

> <PUBCHEM_PHARMACOPHORE_FEATURES>
11
1 1 acceptor
1 2 acceptor
1 2 donor
1 3 acceptor
1 4 donor
1 5 acceptor
1 6 acceptor
3 5 6 20 anion
6 1 7 8 9 10 11 rings
6 13 16 18 19 21 22 rings
6 7 11 12 13 14 16 rings

> <PUBCHEM_HEAVY_ATOM_COUNT>
22

> <PUBCHEM_ATOM_DEF_STEREO_COUNT>
1

> <PUBCHEM_ATOM_UDEF_STEREO_COUNT>
1

> <PUBCHEM_BOND_DEF_STEREO_COUNT>
0

> <PUBCHEM_BOND_UDEF_STEREO_COUNT>
0

> <PUBCHEM_ISOTOPIC_ATOM_COUNT>
0

> <PUBCHEM_COMPONENT_COUNT>
1

> <PUBCHEM_CACTVS_TAUTO_COUNT>
41

> <PUBCHEM_CONFORMER_ID>
018133D200000001

> <PUBCHEM_MMFF94_ENERGY>
45.7672

> <PUBCHEM_FEATURE_SELFOVERLAP>
55.954

> <PUBCHEM_SHAPE_FINGERPRINT>
10 15 18188224117840243002
10062212 137 18410856534302885847
10319926 262 18191041169457034802
10906281 52 18269815597897003390
10967382 1 18049437042405092103
11045977 3 18041005046381854128
11132069 177 18410007771081050158
11806522 49 18411418405971284118
12011746 2 18409735092170942582
12236239 1 17989203768221729454
12403259 226 18264492793677665345
12403260 363 18337671910923796999
12507557 5 18342739607282020759
13140716 1 18337947870983430963
13288520 33 18409446990123114503
13583140 156 15719686389226655198
13675066 3 18187082845137892174
13862211 1 18411420596241549063
15196674 1 18410572859885850388
15209289 33 18202562865235207611
15442244 35 18412821365786660869
15536298 74 18335136445293898117
1601671 61 18410291441065669374
16945 1 18264473139722306293
17349148 13 18413387613932158446
17492 89 18054504699671546531
17804303 29 18408321073125962984
1813 80 17561368379052867732
18522853 276 18408603660325220962
200 152 18113621175226086951
20028762 73 18189334568028288815
21033648 29 17458923603189962530
21267235 1 18412254017855793763
221490 88 18199176292196544587
2297311 6 18261100903442999582
2334 1 18338228246780647647
23366157 5 17844244013118214140
23402539 116 18411423924835727503
23463225 33 18339918230353957319
23557571 272 18186514419143418350
23559900 14 18337116661536001329
23622692 118 18042978571149299663
2748010 2 18410006603530330279
296302 2 4967618269377955895
3004659 81 18201996621495115750
335352 9 18411136935927851151
34797466 226 17531235116290541420
34934 24 18269840976747972579
350125 39 18411695466138521333
3886686 26 16973674183058748370
4214541 1 18410574002637398873
4409770 3 17629498650210269116
5104073 3 18338229371402735961
559249 180 18343304799023936123
9709674 26 18126280840381238339
9981440 41 17190938255441832904

> <PUBCHEM_SHAPE_MULTIPOLES>
417.53
10.72
2.38
0.84
6.75
0.63
-0.08
-3.44
2.03
-1.06
-0.25
0.48
0.32
-0.17

> <PUBCHEM_SHAPE_SELFOVERLAP>
912.61

> <PUBCHEM_SHAPE_VOLUME>
223.3

> <PUBCHEM_COORDINATE_TYPE>
2
5
10

$$$$

