7199
  -OEChem-06261201533D

 26 26  0     1  0  0  0  0  0999 V2000
   -0.0093    2.1245    0.6620 O   0  0  0  0  0  0  0  0  0  0  0  0
    0.0484   -0.2691    0.8588 C   0  0  1  0  0  0  0  0  0  0  0  0
   -1.1277   -1.2419    0.9875 C   0  0  0  0  0  0  0  0  0  0  0  0
   -1.9387   -1.3805   -0.2997 C   0  0  0  0  0  0  0  0  0  0  0  0
    1.2066   -0.8448    0.0502 C   0  0  0  0  0  0  0  0  0  0  0  0
   -2.4352   -0.0194   -0.7779 C   0  0  0  0  0  0  0  0  0  0  0  0
   -1.2881    0.9563   -0.9928 C   0  0  0  0  0  0  0  0  0  0  0  0
   -0.4123    1.0408    0.2388 C   0  0  0  0  0  0  0  0  0  0  0  0
    2.4059    0.0979    0.0506 C   0  0  0  0  0  0  0  0  0  0  0  0
    3.5505   -0.4638   -0.7774 C   0  0  0  0  0  0  0  0  0  0  0  0
    0.4005   -0.0463    1.8748 H   0  0  0  0  0  0  0  0  0  0  0  0
   -1.7976   -0.8804    1.7790 H   0  0  0  0  0  0  0  0  0  0  0  0
   -0.7721   -2.2283    1.3076 H   0  0  0  0  0  0  0  0  0  0  0  0
   -2.7963   -2.0389   -0.1204 H   0  0  0  0  0  0  0  0  0  0  0  0
   -1.3333   -1.8538   -1.0812 H   0  0  0  0  0  0  0  0  0  0  0  0
    0.9022   -1.0374   -0.9854 H   0  0  0  0  0  0  0  0  0  0  0  0
    1.5067   -1.8101    0.4767 H   0  0  0  0  0  0  0  0  0  0  0  0
   -3.1297    0.3913   -0.0341 H   0  0  0  0  0  0  0  0  0  0  0  0
   -2.9980   -0.1378   -1.7106 H   0  0  0  0  0  0  0  0  0  0  0  0
   -1.6878    1.9520   -1.2129 H   0  0  0  0  0  0  0  0  0  0  0  0
   -0.6652    0.6494   -1.8393 H   0  0  0  0  0  0  0  0  0  0  0  0
    2.7513    0.2660    1.0773 H   0  0  0  0  0  0  0  0  0  0  0  0
    2.1417    1.0737   -0.3692 H   0  0  0  0  0  0  0  0  0  0  0  0
    3.8849   -1.4280   -0.3815 H   0  0  0  0  0  0  0  0  0  0  0  0
    3.2486   -0.6060   -1.8201 H   0  0  0  0  0  0  0  0  0  0  0  0
    4.4026    0.2230   -0.7616 H   0  0  0  0  0  0  0  0  0  0  0  0
  1  8  2  0  0  0  0
  2  3  1  0  0  0  0
  2  5  1  0  0  0  0
  2  8  1  0  0  0  0
  2 11  1  0  0  0  0
  3  4  1  0  0  0  0
  3 12  1  0  0  0  0
  3 13  1  0  0  0  0
  4  6  1  0  0  0  0
  4 14  1  0  0  0  0
  4 15  1  0  0  0  0
  5  9  1  0  0  0  0
  5 16  1  0  0  0  0
  5 17  1  0  0  0  0
  6  7  1  0  0  0  0
  6 18  1  0  0  0  0
  6 19  1  0  0  0  0
  7  8  1  0  0  0  0
  7 20  1  0  0  0  0
  7 21  1  0  0  0  0
  9 10  1  0  0  0  0
  9 22  1  0  0  0  0
  9 23  1  0  0  0  0
 10 24  1  0  0  0  0
 10 25  1  0  0  0  0
 10 26  1  0  0  0  0
M  END
> <PUBCHEM_COMPOUND_CID>
7199

> <PUBCHEM_CONFORMER_RMSD>
0.6

> <PUBCHEM_CONFORMER_DIVERSEORDER>
1
4
6
5
11
7
9
10
2
3
8

> <PUBCHEM_MMFF94_PARTIAL_CHARGES>
4
1 -0.57
2 0.06
7 0.06
8 0.45

> <PUBCHEM_EFFECTIVE_ROTOR_COUNT>
3

> <PUBCHEM_PHARMACOPHORE_FEATURES>
3
1 1 acceptor
1 10 hydrophobe
6 2 3 4 6 7 8 rings

> <PUBCHEM_HEAVY_ATOM_COUNT>
10

> <PUBCHEM_ATOM_DEF_STEREO_COUNT>
0

> <PUBCHEM_ATOM_UDEF_STEREO_COUNT>
1

> <PUBCHEM_BOND_DEF_STEREO_COUNT>
0

> <PUBCHEM_BOND_UDEF_STEREO_COUNT>
0

> <PUBCHEM_ISOTOPIC_ATOM_COUNT>
0

> <PUBCHEM_COMPONENT_COUNT>
1

> <PUBCHEM_CACTVS_TAUTO_COUNT>
3

> <PUBCHEM_CONFORMER_ID>
00001C1F00000001

> <PUBCHEM_MMFF94_ENERGY>
5.7615

> <PUBCHEM_FEATURE_SELFOVERLAP>
15.223

> <PUBCHEM_SHAPE_FINGERPRINT>
12423570 1 13033626718788844723
12716758 59 18271817846967289978
12897270 3 18408606980667237310
13024252 1 17988630926278007051
14128692 85 18264770956574941575
15775835 57 17417811811313111942
161256 15 17982175517681458155
16945 1 18059584580619009847
20201158 50 18410296904179732438
20653085 51 16486971855638842846
21061003 4 18187915132606451426
23211744 25 18130525079559665617
2748010 2 17840039446346178727
29004967 10 18040725722719502331
369184 2 12967126099303696126

> <PUBCHEM_SHAPE_MULTIPOLES>
199.93
3.97
1.6
1.05
3.61
0.43
0
-0.89
-1.61
-0.6
0.29
-0.15
0.03
0.27

> <PUBCHEM_SHAPE_SELFOVERLAP>
386.707

> <PUBCHEM_SHAPE_VOLUME>
121

> <PUBCHEM_COORDINATE_TYPE>
2
5
10

$$$$

