51090919
  -OEChem-06241223002D

 41 42  0     0  0  0  0  0  0999 V2000
    4.5981    3.5427    0.0000 F   0  0  0  0  0  0  0  0  0  0  0  0
    8.0901    1.5080    0.0000 O   0  0  0  0  0  0  0  0  0  0  0  0
    8.9962    3.0635    0.0000 O   0  0  0  0  0  0  0  0  0  0  0  0
    3.7320   -0.9573    0.0000 O   0  0  0  0  0  0  0  0  0  0  0  0
    5.4641   -0.9573    0.0000 N   0  0  0  0  0  0  0  0  0  0  0  0
    6.3301    1.5427    0.0000 C   0  0  0  0  0  0  0  0  0  0  0  0
    6.3301    0.5427    0.0000 C   0  0  0  0  0  0  0  0  0  0  0  0
    7.1962    2.0427    0.0000 C   0  0  0  0  0  0  0  0  0  0  0  0
    7.1962    3.0427    0.0000 C   0  0  0  0  0  0  0  0  0  0  0  0
    5.4641    0.0427    0.0000 C   0  0  0  0  0  0  0  0  0  0  0  0
    8.0901    3.5773    0.0000 C   0  0  0  0  0  0  0  0  0  0  0  0
    5.4641    2.0427    0.0000 C   0  0  0  0  0  0  0  0  0  0  0  0
    6.3301    3.5427    0.0000 C   0  0  0  0  0  0  0  0  0  0  0  0
    5.4641    3.0427    0.0000 C   0  0  0  0  0  0  0  0  0  0  0  0
    8.9962    2.0218    0.0000 C   0  0  0  0  0  0  0  0  0  0  0  0
    4.5981   -1.4573    0.0000 C   0  0  0  0  0  0  0  0  0  0  0  0
    4.5981   -2.4573    0.0000 C   0  0  0  0  0  0  0  0  0  0  0  0
    3.7320   -2.9573    0.0000 C   0  0  0  0  0  0  0  0  0  0  0  0
    2.8660   -2.4573    0.0000 C   0  0  0  0  0  0  0  0  0  0  0  0
    5.4641   -2.9573    0.0000 C   0  0  0  0  0  0  0  0  0  0  0  0
    2.0000   -2.9573    0.0000 C   0  0  0  0  0  0  0  0  0  0  0  0
    6.5422   -0.0399    0.0000 H   0  0  0  0  0  0  0  0  0  0  0  0
    6.9407    0.6503    0.0000 H   0  0  0  0  0  0  0  0  0  0  0  0
    5.2520    0.6253    0.0000 H   0  0  0  0  0  0  0  0  0  0  0  0
    4.8535   -0.0650    0.0000 H   0  0  0  0  0  0  0  0  0  0  0  0
    8.4837    4.0564    0.0000 H   0  0  0  0  0  0  0  0  0  0  0  0
    7.6855    4.0471    0.0000 H   0  0  0  0  0  0  0  0  0  0  0  0
    4.9272    1.7327    0.0000 H   0  0  0  0  0  0  0  0  0  0  0  0
    6.3301    4.1627    0.0000 H   0  0  0  0  0  0  0  0  0  0  0  0
    9.2052    1.4382    0.0000 H   0  0  0  0  0  0  0  0  0  0  0  0
    9.6070    2.1279    0.0000 H   0  0  0  0  0  0  0  0  0  0  0  0
    6.0010   -1.2673    0.0000 H   0  0  0  0  0  0  0  0  0  0  0  0
    3.7320   -3.5773    0.0000 H   0  0  0  0  0  0  0  0  0  0  0  0
    3.2646   -1.9824    0.0000 H   0  0  0  0  0  0  0  0  0  0  0  0
    2.4675   -1.9824    0.0000 H   0  0  0  0  0  0  0  0  0  0  0  0
    5.1541   -3.4943    0.0000 H   0  0  0  0  0  0  0  0  0  0  0  0
    6.0010   -3.2673    0.0000 H   0  0  0  0  0  0  0  0  0  0  0  0
    5.7741   -2.4204    0.0000 H   0  0  0  0  0  0  0  0  0  0  0  0
    1.6900   -2.4204    0.0000 H   0  0  0  0  0  0  0  0  0  0  0  0
    1.4631   -3.2673    0.0000 H   0  0  0  0  0  0  0  0  0  0  0  0
    2.3100   -3.4943    0.0000 H   0  0  0  0  0  0  0  0  0  0  0  0
  1 14  1  0  0  0  0
  2  8  1  0  0  0  0
  2 15  1  0  0  0  0
  3 11  1  0  0  0  0
  3 15  1  0  0  0  0
  4 16  2  0  0  0  0
  5 10  1  0  0  0  0
  5 16  1  0  0  0  0
  5 32  1  0  0  0  0
  6  7  1  0  0  0  0
  6  8  1  0  0  0  0
  6 12  2  0  0  0  0
  7 10  1  0  0  0  0
  7 22  1  0  0  0  0
  7 23  1  0  0  0  0
  8  9  2  0  0  0  0
  9 11  1  0  0  0  0
  9 13  1  0  0  0  0
 10 24  1  0  0  0  0
 10 25  1  0  0  0  0
 11 26  1  0  0  0  0
 11 27  1  0  0  0  0
 12 14  1  0  0  0  0
 12 28  1  0  0  0  0
 13 14  2  0  0  0  0
 13 29  1  0  0  0  0
 15 30  1  0  0  0  0
 15 31  1  0  0  0  0
 16 17  1  0  0  0  0
 17 18  2  0  0  0  0
 17 20  1  0  0  0  0
 18 19  1  0  0  0  0
 18 33  1  0  0  0  0
 19 21  1  0  0  0  0
 19 34  1  0  0  0  0
 19 35  1  0  0  0  0
 20 36  1  0  0  0  0
 20 37  1  0  0  0  0
 20 38  1  0  0  0  0
 21 39  1  0  0  0  0
 21 40  1  0  0  0  0
 21 41  1  0  0  0  0
M  END
> <PUBCHEM_COMPOUND_CID>
51090919

> <PUBCHEM_COMPOUND_CANONICALIZED>
1

> <PUBCHEM_CACTVS_COMPLEXITY>
386

> <PUBCHEM_CACTVS_HBOND_ACCEPTOR>
4

> <PUBCHEM_CACTVS_HBOND_DONOR>
1

> <PUBCHEM_CACTVS_ROTATABLE_BOND>
5

> <PUBCHEM_CACTVS_SUBSKEYS>
AAADceB6MQAAAAAAAAAAAAAAAAAAAAAAAAA0QAAAAAAAAACRAAAAHwAQAAAADAThmA8yDoLABACIAiFSEACCCAAgIAAAiIEMCMgcJyKEsRukMCAl1hGMqYewwOAOAAACAAAIAAAAAAQAABAAAAAAAAAAAA==

> <PUBCHEM_IUPAC_OPENEYE_NAME>
(Z)-N-[2-(6-fluoro-4H-1,3-benzodioxin-8-yl)ethyl]-2-methyl-pent-2-enamide

> <PUBCHEM_IUPAC_CAS_NAME>
(Z)-N-[2-(6-fluoro-4H-1,3-benzodioxin-8-yl)ethyl]-2-methyl-2-pentenamide

> <PUBCHEM_IUPAC_NAME>
(Z)-N-[2-(6-fluoro-4H-1,3-benzodioxin-8-yl)ethyl]-2-methylpent-2-enamide

> <PUBCHEM_IUPAC_SYSTEMATIC_NAME>
(Z)-N-[2-(6-fluoranyl-4H-1,3-benzodioxin-8-yl)ethyl]-2-methyl-pent-2-enamide

> <PUBCHEM_IUPAC_TRADITIONAL_NAME>
(Z)-N-[2-(6-fluoro-4H-1,3-benzodioxin-8-yl)ethyl]-2-methyl-pent-2-enamide

> <PUBCHEM_IUPAC_INCHI>
InChI=1S/C16H20FNO3/c1-3-4-11(2)16(19)18-6-5-12-7-14(17)8-13-9-20-10-21-15(12)13/h4,7-8H,3,5-6,9-10H2,1-2H3,(H,18,19)/b11-4-

> <PUBCHEM_IUPAC_INCHIKEY>
JARNRQTVKMXUSA-WCIBSUBMSA-N

> <PUBCHEM_XLOGP3_AA>
2.7

> <PUBCHEM_EXACT_MASS>
293.142722

> <PUBCHEM_MOLECULAR_FORMULA>
C16H20FNO3

> <PUBCHEM_MOLECULAR_WEIGHT>
293.333303

> <PUBCHEM_OPENEYE_CAN_SMILES>
CCC=C(C)C(=O)NCCC1=C2C(=CC(=C1)F)COCO2

> <PUBCHEM_OPENEYE_ISO_SMILES>
CC/C=C(/C)\C(=O)NCCC1=C2C(=CC(=C1)F)COCO2

> <PUBCHEM_CACTVS_TPSA>
47.6

> <PUBCHEM_MONOISOTOPIC_WEIGHT>
293.142722

> <PUBCHEM_TOTAL_CHARGE>
0

> <PUBCHEM_HEAVY_ATOM_COUNT>
21

> <PUBCHEM_ATOM_DEF_STEREO_COUNT>
0

> <PUBCHEM_ATOM_UDEF_STEREO_COUNT>
0

> <PUBCHEM_BOND_DEF_STEREO_COUNT>
1

> <PUBCHEM_BOND_UDEF_STEREO_COUNT>
0

> <PUBCHEM_ISOTOPIC_ATOM_COUNT>
0

> <PUBCHEM_COMPONENT_COUNT>
1

> <PUBCHEM_CACTVS_TAUTO_COUNT>
2

> <PUBCHEM_COORDINATE_TYPE>
1
5
255

> <PUBCHEM_BONDANNOTATIONS>
12  14  8
13  14  8
6  12  8
6  8  8
8  9  8
9  13  8

$$$$

