443065
  -OEChem-07051213013D

 19 19  0     1  0  0  0  0  0999 V2000
   -1.8044   -1.3886   -0.3718 S   0  0  0  0  0  0  0  0  0  0  0  0
    2.9847   -0.3058    0.9063 O   0  0  0  0  0  0  0  0  0  0  0  0
    2.2353    0.9107   -0.8655 O   0  0  0  0  0  0  0  0  0  0  0  0
   -0.3801   -0.2546   -0.4644 C   0  0  1  0  0  0  0  0  0  0  0  0
   -0.7887    0.9432    0.3879 C   0  0  0  0  0  0  0  0  0  0  0  0
   -2.2685    1.1743    0.1217 C   0  0  0  0  0  0  0  0  0  0  0  0
   -2.9547   -0.1665    0.3175 C   0  0  0  0  0  0  0  0  0  0  0  0
    0.8946   -0.9186    0.0269 C   0  0  0  0  0  0  0  0  0  0  0  0
    2.0818    0.0060   -0.0586 C   0  0  0  0  0  0  0  0  0  0  0  0
   -0.2728    0.0551   -1.5107 H   0  0  0  0  0  0  0  0  0  0  0  0
   -0.2071    1.8346    0.1299 H   0  0  0  0  0  0  0  0  0  0  0  0
   -0.6273    0.7488    1.4565 H   0  0  0  0  0  0  0  0  0  0  0  0
   -2.6832    1.9302    0.7964 H   0  0  0  0  0  0  0  0  0  0  0  0
   -2.4180    1.5353   -0.9039 H   0  0  0  0  0  0  0  0  0  0  0  0
   -3.1016   -0.3819    1.3804 H   0  0  0  0  0  0  0  0  0  0  0  0
   -3.9235   -0.2081   -0.1874 H   0  0  0  0  0  0  0  0  0  0  0  0
    0.7745   -1.2369    1.0705 H   0  0  0  0  0  0  0  0  0  0  0  0
    1.1311   -1.8054   -0.5728 H   0  0  0  0  0  0  0  0  0  0  0  0
    3.7700    0.2813    0.8758 H   0  0  0  0  0  0  0  0  0  0  0  0
  1  4  1  0  0  0  0
  1  7  1  0  0  0  0
  2  9  1  0  0  0  0
  2 19  1  0  0  0  0
  3  9  2  0  0  0  0
  4  5  1  0  0  0  0
  4  8  1  0  0  0  0
  4 10  1  0  0  0  0
  5  6  1  0  0  0  0
  5 11  1  0  0  0  0
  5 12  1  0  0  0  0
  6  7  1  0  0  0  0
  6 13  1  0  0  0  0
  6 14  1  0  0  0  0
  7 15  1  0  0  0  0
  7 16  1  0  0  0  0
  8  9  1  0  0  0  0
  8 17  1  0  0  0  0
  8 18  1  0  0  0  0
M  END
> <PUBCHEM_COMPOUND_CID>
443065

> <PUBCHEM_CONFORMER_RMSD>
0.6

> <PUBCHEM_CONFORMER_DIVERSEORDER>
1
4
6
2
8
5
7
3

> <PUBCHEM_MMFF94_PARTIAL_CHARGES>
8
1 -0.46
19 0.5
2 -0.65
3 -0.57
4 0.23
7 0.23
8 0.06
9 0.66

> <PUBCHEM_EFFECTIVE_ROTOR_COUNT>
3

> <PUBCHEM_PHARMACOPHORE_FEATURES>
4
1 2 acceptor
1 3 acceptor
3 2 3 9 anion
5 1 4 5 6 7 rings

> <PUBCHEM_HEAVY_ATOM_COUNT>
9

> <PUBCHEM_ATOM_DEF_STEREO_COUNT>
0

> <PUBCHEM_ATOM_UDEF_STEREO_COUNT>
1

> <PUBCHEM_BOND_DEF_STEREO_COUNT>
0

> <PUBCHEM_BOND_UDEF_STEREO_COUNT>
0

> <PUBCHEM_ISOTOPIC_ATOM_COUNT>
0

> <PUBCHEM_COMPONENT_COUNT>
1

> <PUBCHEM_CACTVS_TAUTO_COUNT>
1

> <PUBCHEM_CONFORMER_ID>
0006C2B900000001

> <PUBCHEM_MMFF94_ENERGY>
8.2711

> <PUBCHEM_FEATURE_SELFOVERLAP>
20.354

> <PUBCHEM_SHAPE_FINGERPRINT>
10857977 72 18187089412306242803
12897270 3 18333726905662457733
12932741 1 16877657950639325454
12932764 1 17060620009795493414
14325111 11 18409165540826341888
14390081 3 17821731666920445921
15310529 11 17775564221784602605
15775835 57 18341886372973356412
16714656 1 18259700090900137791
20645464 45 17095529491050307450
20871998 184 17968093063116411567
21028194 46 18041277772045926263
21040471 1 18261108638045973295
23552423 10 18340482369502103871
29004967 10 15913606168311310079
3248919 1 18411420617774096071
369184 2 17132114641216514177
5084963 1 18262791994621979578

> <PUBCHEM_SHAPE_MULTIPOLES>
177.33
4.46
1.32
0.81
1.27
0.09
0.01
-0.27
-0.54
-0.66
0.08
0.28
-0.02
-0.32

> <PUBCHEM_SHAPE_SELFOVERLAP>
334.077

> <PUBCHEM_SHAPE_VOLUME>
111.2

> <PUBCHEM_COORDINATE_TYPE>
2
5
10

$$$$

