175902
  -OEChem-07051212573D

 85 91  0     1  0  0  0  0  0999 V2000
   -1.1721   -0.3598    0.3422 O   0  0  0  0  0  0  0  0  0  0  0  0
   -1.2585   -1.5321   -2.2657 O   0  0  0  0  0  0  0  0  0  0  0  0
   -2.2759   -3.0442    0.4600 O   0  0  0  0  0  0  0  0  0  0  0  0
   -3.5683   -1.4672   -3.6945 O   0  0  0  0  0  0  0  0  0  0  0  0
    2.2256    3.3792   -0.8735 O   0  0  0  0  0  0  0  0  0  0  0  0
    4.4914    4.1795    0.4662 O   0  0  0  0  0  0  0  0  0  0  0  0
   -4.7255    0.8923    2.1065 N   0  0  2  0  0  0  0  0  0  0  0  0
    4.1764   -3.4513    0.3563 N   0  0  2  0  0  0  0  0  0  0  0  0
   -3.4280    1.0573    1.4081 C   0  0  1  0  0  0  0  0  0  0  0  0
    3.3844   -2.1865    0.4040 C   0  0  2  0  0  0  0  0  0  0  0  0
   -3.4611    0.2764    0.0955 C   0  0  0  0  0  0  0  0  0  0  0  0
    1.8622   -2.4086    0.4327 C   0  0  0  0  0  0  0  0  0  0  0  0
   -5.8411    1.4179    1.3148 C   0  0  0  0  0  0  0  0  0  0  0  0
   -4.6644    0.2236   -0.6352 C   0  0  0  0  0  0  0  0  0  0  0  0
   -5.9638    0.7038   -0.0363 C   0  0  0  0  0  0  0  0  0  0  0  0
    3.5685   -4.5235    1.1528 C   0  0  0  0  0  0  0  0  0  0  0  0
    1.3147   -3.7015    0.4992 C   0  0  0  0  0  0  0  0  0  0  0  0
   -3.0348    2.5461    1.1485 C   0  0  0  0  0  0  0  0  0  0  0  0
    2.2175   -4.8987    0.5580 C   0  0  0  0  0  0  0  0  0  0  0  0
    3.7888   -1.3143   -0.8308 C   0  0  0  0  0  0  0  0  0  0  0  0
   -2.3177   -0.3592   -0.4270 C   0  0  0  0  0  0  0  0  0  0  0  0
    0.9762   -1.3199    0.4378 C   0  0  0  0  0  0  0  0  0  0  0  0
   -0.4085   -1.5055    0.3916 C   0  0  0  0  0  0  0  0  0  0  0  0
   -4.7300    1.4398    3.4596 C   0  0  0  0  0  0  0  0  0  0  0  0
   -4.6829   -0.3696   -1.9057 C   0  0  0  0  0  0  0  0  0  0  0  0
   -0.0773   -3.8852    0.4994 C   0  0  0  0  0  0  0  0  0  0  0  0
    5.5547   -3.2412    0.8201 C   0  0  0  0  0  0  0  0  0  0  0  0
   -1.6308    2.7656    0.6297 C   0  0  0  0  0  0  0  0  0  0  0  0
   -2.3404   -0.9097   -1.7148 C   0  0  0  0  0  0  0  0  0  0  0  0
    3.9806    0.1538   -0.5117 C   0  0  0  0  0  0  0  0  0  0  0  0
   -0.9392   -2.7918    0.4505 C   0  0  0  0  0  0  0  0  0  0  0  0
   -3.5218   -0.9114   -2.4510 C   0  0  0  0  0  0  0  0  0  0  0  0
    3.0418    1.1057   -0.9277 C   0  0  0  0  0  0  0  0  0  0  0  0
   -1.4127    3.0900   -0.7180 C   0  0  0  0  0  0  0  0  0  0  0  0
   -0.5301    2.6578    1.4894 C   0  0  0  0  0  0  0  0  0  0  0  0
    5.0986    0.5843    0.2183 C   0  0  0  0  0  0  0  0  0  0  0  0
    3.1835    2.4445   -0.5487 C   0  0  0  0  0  0  0  0  0  0  0  0
    0.9709    3.1548   -0.3421 C   0  0  0  0  0  0  0  0  0  0  0  0
   -0.1186    3.2901   -1.2015 C   0  0  0  0  0  0  0  0  0  0  0  0
    0.7657    2.8577    1.0094 C   0  0  0  0  0  0  0  0  0  0  0  0
    5.2683    1.9345    0.5358 C   0  0  0  0  0  0  0  0  0  0  0  0
    4.3098    2.8694    0.1529 C   0  0  0  0  0  0  0  0  0  0  0  0
   -0.3547   -0.7178   -3.0065 C   0  0  0  0  0  0  0  0  0  0  0  0
   -2.9159   -3.1058    1.7329 C   0  0  0  0  0  0  0  0  0  0  0  0
    5.1944    4.9806   -0.4814 C   0  0  0  0  0  0  0  0  0  0  0  0
   -2.6698    0.5937    2.0523 H   0  0  0  0  0  0  0  0  0  0  0  0
    3.6200   -1.6698    1.3456 H   0  0  0  0  0  0  0  0  0  0  0  0
   -5.7427    2.4988    1.1566 H   0  0  0  0  0  0  0  0  0  0  0  0
   -6.7882    1.2817    1.8528 H   0  0  0  0  0  0  0  0  0  0  0  0
   -6.4719    1.3682   -0.7457 H   0  0  0  0  0  0  0  0  0  0  0  0
   -6.6000   -0.1807    0.1012 H   0  0  0  0  0  0  0  0  0  0  0  0
    3.4616   -4.2219    2.2037 H   0  0  0  0  0  0  0  0  0  0  0  0
    4.2024   -5.4189    1.1327 H   0  0  0  0  0  0  0  0  0  0  0  0
   -3.1182    3.1293    2.0736 H   0  0  0  0  0  0  0  0  0  0  0  0
   -3.7346    3.0133    0.4437 H   0  0  0  0  0  0  0  0  0  0  0  0
    1.7661   -5.6818    1.1790 H   0  0  0  0  0  0  0  0  0  0  0  0
    2.3400   -5.3033   -0.4544 H   0  0  0  0  0  0  0  0  0  0  0  0
    3.0587   -1.4315   -1.6437 H   0  0  0  0  0  0  0  0  0  0  0  0
    4.7342   -1.6523   -1.2748 H   0  0  0  0  0  0  0  0  0  0  0  0
    1.3554   -0.3063    0.4725 H   0  0  0  0  0  0  0  0  0  0  0  0
   -3.8825    1.0567    4.0384 H   0  0  0  0  0  0  0  0  0  0  0  0
   -5.6358    1.1237    3.9893 H   0  0  0  0  0  0  0  0  0  0  0  0
   -4.6989    2.5339    3.4784 H   0  0  0  0  0  0  0  0  0  0  0  0
   -5.6125   -0.4132   -2.4693 H   0  0  0  0  0  0  0  0  0  0  0  0
   -0.4877   -4.8921    0.5415 H   0  0  0  0  0  0  0  0  0  0  0  0
    6.1279   -4.1729    0.7504 H   0  0  0  0  0  0  0  0  0  0  0  0
    5.5902   -2.8958    1.8598 H   0  0  0  0  0  0  0  0  0  0  0  0
    6.0879   -2.5168    0.1985 H   0  0  0  0  0  0  0  0  0  0  0  0
    2.1801    0.7985   -1.5141 H   0  0  0  0  0  0  0  0  0  0  0  0
   -2.2519    3.1853   -1.4028 H   0  0  0  0  0  0  0  0  0  0  0  0
   -0.6765    2.4183    2.5397 H   0  0  0  0  0  0  0  0  0  0  0  0
    5.8499   -0.1296    0.5446 H   0  0  0  0  0  0  0  0  0  0  0  0
    0.0312    3.5391   -2.2484 H   0  0  0  0  0  0  0  0  0  0  0  0
    1.5993    2.7809    1.7016 H   0  0  0  0  0  0  0  0  0  0  0  0
    6.1486    2.2462    1.0917 H   0  0  0  0  0  0  0  0  0  0  0  0
   -2.6986   -1.8538   -3.8942 H   0  0  0  0  0  0  0  0  0  0  0  0
   -0.0387    0.1506   -2.4206 H   0  0  0  0  0  0  0  0  0  0  0  0
   -0.8187   -0.3849   -3.9399 H   0  0  0  0  0  0  0  0  0  0  0  0
    0.5280   -1.3163   -3.2479 H   0  0  0  0  0  0  0  0  0  0  0  0
   -2.5649   -3.9790    2.2917 H   0  0  0  0  0  0  0  0  0  0  0  0
   -3.9928   -3.2029    1.5704 H   0  0  0  0  0  0  0  0  0  0  0  0
   -2.7301   -2.1934    2.3086 H   0  0  0  0  0  0  0  0  0  0  0  0
    5.2483    6.0016   -0.0938 H   0  0  0  0  0  0  0  0  0  0  0  0
    4.6656    4.9977   -1.4397 H   0  0  0  0  0  0  0  0  0  0  0  0
    6.2130    4.6048   -0.6207 H   0  0  0  0  0  0  0  0  0  0  0  0
  1 21  1  0  0  0  0
  1 23  1  0  0  0  0
  2 29  1  0  0  0  0
  2 43  1  0  0  0  0
  3 31  1  0  0  0  0
  3 44  1  0  0  0  0
  4 32  1  0  0  0  0
  4 76  1  0  0  0  0
  5 37  1  0  0  0  0
  5 38  1  0  0  0  0
  6 42  1  0  0  0  0
  6 45  1  0  0  0  0
  7  9  1  0  0  0  0
  7 13  1  0  0  0  0
  7 24  1  0  0  0  0
  8 10  1  0  0  0  0
  8 16  1  0  0  0  0
  8 27  1  0  0  0  0
  9 11  1  0  0  0  0
  9 18  1  0  0  0  0
  9 46  1  0  0  0  0
 10 12  1  0  0  0  0
 10 20  1  0  0  0  0
 10 47  1  0  0  0  0
 11 14  1  0  0  0  0
 11 21  2  0  0  0  0
 12 17  1  0  0  0  0
 12 22  2  0  0  0  0
 13 15  1  0  0  0  0
 13 48  1  0  0  0  0
 13 49  1  0  0  0  0
 14 15  1  0  0  0  0
 14 25  2  0  0  0  0
 15 50  1  0  0  0  0
 15 51  1  0  0  0  0
 16 19  1  0  0  0  0
 16 52  1  0  0  0  0
 16 53  1  0  0  0  0
 17 19  1  0  0  0  0
 17 26  2  0  0  0  0
 18 28  1  0  0  0  0
 18 54  1  0  0  0  0
 18 55  1  0  0  0  0
 19 56  1  0  0  0  0
 19 57  1  0  0  0  0
 20 30  1  0  0  0  0
 20 58  1  0  0  0  0
 20 59  1  0  0  0  0
 21 29  1  0  0  0  0
 22 23  1  0  0  0  0
 22 60  1  0  0  0  0
 23 31  2  0  0  0  0
 24 61  1  0  0  0  0
 24 62  1  0  0  0  0
 24 63  1  0  0  0  0
 25 32  1  0  0  0  0
 25 64  1  0  0  0  0
 26 31  1  0  0  0  0
 26 65  1  0  0  0  0
 27 66  1  0  0  0  0
 27 67  1  0  0  0  0
 27 68  1  0  0  0  0
 28 34  2  0  0  0  0
 28 35  1  0  0  0  0
 29 32  2  0  0  0  0
 30 33  2  0  0  0  0
 30 36  1  0  0  0  0
 33 37  1  0  0  0  0
 33 69  1  0  0  0  0
 34 39  1  0  0  0  0
 34 70  1  0  0  0  0
 35 40  2  0  0  0  0
 35 71  1  0  0  0  0
 36 41  2  0  0  0  0
 36 72  1  0  0  0  0
 37 42  2  0  0  0  0
 38 39  2  0  0  0  0
 38 40  1  0  0  0  0
 39 73  1  0  0  0  0
 40 74  1  0  0  0  0
 41 42  1  0  0  0  0
 41 75  1  0  0  0  0
 43 77  1  0  0  0  0
 43 78  1  0  0  0  0
 43 79  1  0  0  0  0
 44 80  1  0  0  0  0
 44 81  1  0  0  0  0
 44 82  1  0  0  0  0
 45 83  1  0  0  0  0
 45 84  1  0  0  0  0
 45 85  1  0  0  0  0
M  END
> <PUBCHEM_COMPOUND_CID>
175902

> <PUBCHEM_CONFORMER_RMSD>
1

> <PUBCHEM_CONFORMER_DIVERSEORDER>
1
4
6
2
3
5

> <PUBCHEM_MMFF94_PARTIAL_CHARGES>
56
1 -0.17
10 0.41
11 -0.14
12 -0.14
13 0.27
14 -0.14
15 0.14
16 0.27
17 -0.14
18 0.14
19 0.14
2 -0.36
20 0.14
21 0.08
22 -0.15
23 0.08
24 0.27
25 -0.15
26 -0.15
27 0.27
28 -0.14
29 0.08
3 -0.36
30 -0.14
31 0.08
32 0.08
33 -0.15
34 -0.15
35 -0.15
36 -0.15
37 0.08
38 0.08
39 -0.15
4 -0.53
40 -0.15
41 -0.15
42 0.08
43 0.28
44 0.28
45 0.28
5 -0.17
6 -0.36
60 0.15
64 0.15
65 0.15
69 0.15
7 -0.81
70 0.15
71 0.15
72 0.15
73 0.15
74 0.15
75 0.15
76 0.45
8 -0.81
9 0.41

> <PUBCHEM_EFFECTIVE_ROTOR_COUNT>
5

> <PUBCHEM_PHARMACOPHORE_FEATURES>
14
1 1 acceptor
1 2 acceptor
1 3 acceptor
1 4 donor
1 5 acceptor
1 6 acceptor
1 7 cation
1 8 cation
6 11 14 21 25 29 32 rings
6 12 17 22 23 26 31 rings
6 28 34 35 38 39 40 rings
6 30 33 36 37 41 42 rings
6 7 9 11 13 14 15 rings
6 8 10 12 16 17 19 rings

> <PUBCHEM_HEAVY_ATOM_COUNT>
45

> <PUBCHEM_ATOM_DEF_STEREO_COUNT>
2

> <PUBCHEM_ATOM_UDEF_STEREO_COUNT>
0

> <PUBCHEM_BOND_DEF_STEREO_COUNT>
0

> <PUBCHEM_BOND_UDEF_STEREO_COUNT>
0

> <PUBCHEM_ISOTOPIC_ATOM_COUNT>
0

> <PUBCHEM_COMPONENT_COUNT>
1

> <PUBCHEM_CACTVS_TAUTO_COUNT>
9

> <PUBCHEM_CONFORMER_ID>
0002AF1E00000001

> <PUBCHEM_MMFF94_ENERGY>
191.526

> <PUBCHEM_FEATURE_SELFOVERLAP>
71.094

> <PUBCHEM_SHAPE_FINGERPRINT>
10290309 65 18053662470081047690
10675989 125 18411989040027750136
11135926 11 18272367513352230084
11285246 1 17254307543088013687
11513181 2 18040712580668287998
12422481 6 17827346989042116449
12786520 15 17110398401615434624
14394314 77 18334572460497108561
15001296 14 18410573985156732416
15021287 119 18120378910660379490
15320467 1 18412261770450825504
15351339 4 18191881019676874737
15361156 5 18042667426554728980
15439362 3 18413112766876703129
19319366 153 18335981982636806344
20511986 3 17895484643480472805
20764821 26 18269549447252562152
21033648 29 17275109474320546295
21133410 38 18260544506871193625
22122407 14 18195804305220467809
24771293 8 18189633769157527730
392239 28 18197483233600939435
45266715 3 17612343786294028829
463206 1 18335420114957290216
469060 322 18122640606289270067
50150288 127 17387104577416228784
9961470 85 18410860940965491392

> <PUBCHEM_SHAPE_MULTIPOLES>
880.9
11.96
6.9
2.28
0.26
0.61
-0.98
-3.49
2.43
-10.2
1.65
4.04
0.35
-2.74

> <PUBCHEM_SHAPE_SELFOVERLAP>
1942.7

> <PUBCHEM_SHAPE_VOLUME>
473.4

> <PUBCHEM_COORDINATE_TYPE>
2
5
10

$$$$

