5462254
  -OEChem-07051212483D

 19 18  0     1  0  0  0  0  0999 V2000
    2.7594    1.2193   -0.6082 O   0  0  0  0  0  0  0  0  0  0  0  0
    1.5317    1.0103    1.2794 O   0  0  0  0  0  0  0  0  0  0  0  0
   -3.2191    1.0725   -0.3861 O   0  0  0  0  0  0  0  0  0  0  0  0
   -2.7326   -0.9135    0.6049 O   0  0  0  0  0  0  0  0  0  0  0  0
   -0.1396   -0.8282   -0.0617 N   0  0  0  0  0  0  0  0  0  0  0  0
    1.2370   -0.6570   -0.4458 C   0  0  2  0  0  0  0  0  0  0  0  0
    2.0486   -1.8856   -0.0635 C   0  0  0  0  0  0  0  0  0  0  0  0
   -0.9595    0.3103   -0.4763 C   0  0  0  0  0  0  0  0  0  0  0  0
    1.8457    0.5917    0.1702 C   0  0  0  0  0  0  0  0  0  0  0  0
   -2.3715    0.0802   -0.0129 C   0  0  0  0  0  0  0  0  0  0  0  0
    1.2888   -0.5438   -1.5370 H   0  0  0  0  0  0  0  0  0  0  0  0
   -0.5122   -1.6825   -0.4762 H   0  0  0  0  0  0  0  0  0  0  0  0
    2.0367   -2.0520    1.0200 H   0  0  0  0  0  0  0  0  0  0  0  0
    1.6622   -2.7867   -0.5522 H   0  0  0  0  0  0  0  0  0  0  0  0
    3.0964   -1.7660   -0.3611 H   0  0  0  0  0  0  0  0  0  0  0  0
   -0.9675    0.4003   -1.5679 H   0  0  0  0  0  0  0  0  0  0  0  0
   -0.6304    1.2512   -0.0262 H   0  0  0  0  0  0  0  0  0  0  0  0
    3.1215    2.0213   -0.1746 H   0  0  0  0  0  0  0  0  0  0  0  0
   -4.1386    0.8981   -0.0921 H   0  0  0  0  0  0  0  0  0  0  0  0
  1  9  1  0  0  0  0
  1 18  1  0  0  0  0
  2  9  2  0  0  0  0
  3 10  1  0  0  0  0
  3 19  1  0  0  0  0
  4 10  2  0  0  0  0
  5  6  1  0  0  0  0
  5  8  1  0  0  0  0
  5 12  1  0  0  0  0
  6  7  1  0  0  0  0
  6  9  1  0  0  0  0
  6 11  1  0  0  0  0
  7 13  1  0  0  0  0
  7 14  1  0  0  0  0
  7 15  1  0  0  0  0
  8 10  1  0  0  0  0
  8 16  1  0  0  0  0
  8 17  1  0  0  0  0
M  END
> <PUBCHEM_COMPOUND_CID>
5462254

> <PUBCHEM_CONFORMER_RMSD>
0.6

> <PUBCHEM_CONFORMER_DIVERSEORDER>
1
15
6
2
8
17
7
14
10
5
11
4
13
3
9
16
12

> <PUBCHEM_MMFF94_PARTIAL_CHARGES>
12
1 -0.65
10 0.66
12 0.36
18 0.5
19 0.5
2 -0.57
3 -0.65
4 -0.57
5 -0.9
6 0.33
8 0.33
9 0.66

> <PUBCHEM_EFFECTIVE_ROTOR_COUNT>
4

> <PUBCHEM_PHARMACOPHORE_FEATURES>
8
1 1 acceptor
1 2 acceptor
1 3 acceptor
1 4 acceptor
1 5 cation
1 5 donor
3 1 2 9 anion
3 3 4 10 anion

> <PUBCHEM_HEAVY_ATOM_COUNT>
10

> <PUBCHEM_ATOM_DEF_STEREO_COUNT>
1

> <PUBCHEM_ATOM_UDEF_STEREO_COUNT>
0

> <PUBCHEM_BOND_DEF_STEREO_COUNT>
0

> <PUBCHEM_BOND_UDEF_STEREO_COUNT>
0

> <PUBCHEM_ISOTOPIC_ATOM_COUNT>
0

> <PUBCHEM_COMPONENT_COUNT>
1

> <PUBCHEM_CACTVS_TAUTO_COUNT>
1

> <PUBCHEM_CONFORMER_ID>
005358EE00000001

> <PUBCHEM_MMFF94_ENERGY>
10.1499

> <PUBCHEM_FEATURE_SELFOVERLAP>
40.713

> <PUBCHEM_SHAPE_FINGERPRINT>
10857977 72 18129944473180274227
12932741 1 18271525389959683015
12932764 1 17968097495390356679
14325111 11 18413106160646555679
14390081 3 18261116261855770097
19973954 147 18340484564404257517
20653091 64 18339358690451770234
21040471 1 18263651658386260606
230 275 17676499310690714992
23235685 24 18341335487630431908
23552423 10 18271525381179935111
3248919 1 18272662237706313133

> <PUBCHEM_SHAPE_MULTIPOLES>
177.34
4.69
1.51
0.83
2.88
0.34
0.13
-0.64
-0.12
-0.97
0.04
-0.17
-0.16
0.32

> <PUBCHEM_SHAPE_SELFOVERLAP>
336.97

> <PUBCHEM_SHAPE_VOLUME>
109

> <PUBCHEM_COORDINATE_TYPE>
2
5
10

$$$$

