17395941
  -OEChem-06241222532D

 38 40  0     0  0  0  0  0  0999 V2000
   10.7564   -1.1122    0.0000 S   0  0  0  0  0  0  0  0  0  0  0  0
    4.6783    2.3951    0.0000 S   0  0  0  0  0  0  0  0  0  0  0  0
    8.2619    1.5904    0.0000 O   0  0  0  0  0  0  0  0  0  0  0  0
    8.2619   -0.1417    0.0000 N   0  0  0  0  0  0  0  0  0  0  0  0
    4.6783    0.7856    0.0000 N   0  0  0  0  0  0  0  0  0  0  0  0
    9.2619   -0.1417    0.0000 C   0  0  0  0  0  0  0  0  0  0  0  0
    7.7619   -1.0077    0.0000 C   0  0  0  0  0  0  0  0  0  0  0  0
    9.7619   -1.0077    0.0000 C   0  0  0  0  0  0  0  0  0  0  0  0
    7.7619    0.7244    0.0000 C   0  0  0  0  0  0  0  0  0  0  0  0
    8.2619   -1.8737    0.0000 C   0  0  0  0  0  0  0  0  0  0  0  0
    9.3551   -1.9212    0.0000 C   0  0  0  0  0  0  0  0  0  0  0  0
    6.7619    0.7244    0.0000 C   0  0  0  0  0  0  0  0  0  0  0  0
    3.7320    2.0904    0.0000 C   0  0  0  0  0  0  0  0  0  0  0  0
    3.7320    1.0904    0.0000 C   0  0  0  0  0  0  0  0  0  0  0  0
    5.2619    1.5904    0.0000 C   0  0  0  0  0  0  0  0  0  0  0  0
    6.2619    1.5904    0.0000 C   0  0  0  0  0  0  0  0  0  0  0  0
   10.0983   -2.5904    0.0000 C   0  0  0  0  0  0  0  0  0  0  0  0
   10.9643   -2.0904    0.0000 C   0  0  0  0  0  0  0  0  0  0  0  0
    2.8660    2.5904    0.0000 C   0  0  0  0  0  0  0  0  0  0  0  0
    2.8660    0.5904    0.0000 C   0  0  0  0  0  0  0  0  0  0  0  0
    2.0000    2.0904    0.0000 C   0  0  0  0  0  0  0  0  0  0  0  0
    2.0000    1.0904    0.0000 C   0  0  0  0  0  0  0  0  0  0  0  0
    9.8445    0.0704    0.0000 H   0  0  0  0  0  0  0  0  0  0  0  0
    9.1542    0.4689    0.0000 H   0  0  0  0  0  0  0  0  0  0  0  0
    7.2869   -0.6092    0.0000 H   0  0  0  0  0  0  0  0  0  0  0  0
    7.2869   -1.4062    0.0000 H   0  0  0  0  0  0  0  0  0  0  0  0
    7.7249   -2.1837    0.0000 H   0  0  0  0  0  0  0  0  0  0  0  0
    8.5719   -2.4107    0.0000 H   0  0  0  0  0  0  0  0  0  0  0  0
    8.7988   -1.5637    0.0000 H   0  0  0  0  0  0  0  0  0  0  0  0
    8.7487   -2.0502    0.0000 H   0  0  0  0  0  0  0  0  0  0  0  0
    6.4519    0.1874    0.0000 H   0  0  0  0  0  0  0  0  0  0  0  0
    6.5719    2.1273    0.0000 H   0  0  0  0  0  0  0  0  0  0  0  0
   10.0335   -3.2070    0.0000 H   0  0  0  0  0  0  0  0  0  0  0  0
   11.5307   -2.3426    0.0000 H   0  0  0  0  0  0  0  0  0  0  0  0
    2.8660    3.2104    0.0000 H   0  0  0  0  0  0  0  0  0  0  0  0
    2.8660   -0.0296    0.0000 H   0  0  0  0  0  0  0  0  0  0  0  0
    1.4631    2.4004    0.0000 H   0  0  0  0  0  0  0  0  0  0  0  0
    1.4631    0.7804    0.0000 H   0  0  0  0  0  0  0  0  0  0  0  0
  1  8  1  0  0  0  0
  1 18  1  0  0  0  0
  2 13  1  0  0  0  0
  2 15  1  0  0  0  0
  3  9  2  0  0  0  0
  4  6  1  0  0  0  0
  4  7  1  0  0  0  0
  4  9  1  0  0  0  0
  5 14  1  0  0  0  0
  5 15  2  0  0  0  0
  6  8  1  0  0  0  0
  6 23  1  0  0  0  0
  6 24  1  0  0  0  0
  7 10  1  0  0  0  0
  7 25  1  0  0  0  0
  7 26  1  0  0  0  0
  8 11  2  0  0  0  0
  9 12  1  0  0  0  0
 10 27  1  0  0  0  0
 10 28  1  0  0  0  0
 10 29  1  0  0  0  0
 11 17  1  0  0  0  0
 11 30  1  0  0  0  0
 12 16  2  0  0  0  0
 12 31  1  0  0  0  0
 13 14  1  0  0  0  0
 13 19  2  0  0  0  0
 14 20  2  0  0  0  0
 15 16  1  0  0  0  0
 16 32  1  0  0  0  0
 17 18  2  0  0  0  0
 17 33  1  0  0  0  0
 18 34  1  0  0  0  0
 19 21  1  0  0  0  0
 19 35  1  0  0  0  0
 20 22  1  0  0  0  0
 20 36  1  0  0  0  0
 21 22  2  0  0  0  0
 21 37  1  0  0  0  0
 22 38  1  0  0  0  0
M  END
> <PUBCHEM_COMPOUND_CID>
17395941

> <PUBCHEM_COMPOUND_CANONICALIZED>
1

> <PUBCHEM_CACTVS_COMPLEXITY>
416

> <PUBCHEM_CACTVS_HBOND_ACCEPTOR>
4

> <PUBCHEM_CACTVS_HBOND_DONOR>
0

> <PUBCHEM_CACTVS_ROTATABLE_BOND>
5

> <PUBCHEM_CACTVS_SUBSKEYS>
AAADceB7IABgAAAAAAAAAAAAAAAAAWJAAAAwAAAAAAAAAFgB/AAAHgQAAAAACAjF1gSywbMIEAisASVyVACD8KBhCjhImDw4ZNgIIKLgkZGEIAhghgDoyYcQAAAAAAAAAAAAAQAAAAAAAAACAAAAAAAAAA==

> <PUBCHEM_IUPAC_OPENEYE_NAME>
(E)-3-(1,3-benzothiazol-2-yl)-N-ethyl-N-(2-thienylmethyl)prop-2-enamide

> <PUBCHEM_IUPAC_CAS_NAME>
(E)-3-(1,3-benzothiazol-2-yl)-N-ethyl-N-(thiophen-2-ylmethyl)-2-propenamide

> <PUBCHEM_IUPAC_NAME>
(E)-3-(1,3-benzothiazol-2-yl)-N-ethyl-N-(thiophen-2-ylmethyl)prop-2-enamide

> <PUBCHEM_IUPAC_SYSTEMATIC_NAME>
(E)-3-(1,3-benzothiazol-2-yl)-N-ethyl-N-(thiophen-2-ylmethyl)prop-2-enamide

> <PUBCHEM_IUPAC_TRADITIONAL_NAME>
(E)-3-(1,3-benzothiazol-2-yl)-N-ethyl-N-(2-thenyl)acrylamide

> <PUBCHEM_IUPAC_INCHI>
InChI=1S/C17H16N2OS2/c1-2-19(12-13-6-5-11-21-13)17(20)10-9-16-18-14-7-3-4-8-15(14)22-16/h3-11H,2,12H2,1H3/b10-9+

> <PUBCHEM_IUPAC_INCHIKEY>
ZOUDPSFQONLBHJ-MDZDMXLPSA-N

> <PUBCHEM_XLOGP3_AA>
3.9

> <PUBCHEM_EXACT_MASS>
328.070405

> <PUBCHEM_MOLECULAR_FORMULA>
C17H16N2OS2

> <PUBCHEM_MOLECULAR_WEIGHT>
328.45174

> <PUBCHEM_OPENEYE_CAN_SMILES>
CCN(CC1=CC=CS1)C(=O)C=CC2=NC3=CC=CC=C3S2

> <PUBCHEM_OPENEYE_ISO_SMILES>
CCN(CC1=CC=CS1)C(=O)/C=C/C2=NC3=CC=CC=C3S2

> <PUBCHEM_CACTVS_TPSA>
89.7

> <PUBCHEM_MONOISOTOPIC_WEIGHT>
328.070405

> <PUBCHEM_TOTAL_CHARGE>
0

> <PUBCHEM_HEAVY_ATOM_COUNT>
22

> <PUBCHEM_ATOM_DEF_STEREO_COUNT>
0

> <PUBCHEM_ATOM_UDEF_STEREO_COUNT>
0

> <PUBCHEM_BOND_DEF_STEREO_COUNT>
1

> <PUBCHEM_BOND_UDEF_STEREO_COUNT>
0

> <PUBCHEM_ISOTOPIC_ATOM_COUNT>
0

> <PUBCHEM_COMPONENT_COUNT>
1

> <PUBCHEM_CACTVS_TAUTO_COUNT>
1

> <PUBCHEM_COORDINATE_TYPE>
1
5
255

> <PUBCHEM_BONDANNOTATIONS>
1  18  8
1  8  8
11  17  8
13  14  8
13  19  8
14  20  8
17  18  8
19  21  8
2  13  8
2  15  8
20  22  8
21  22  8
5  14  8
5  15  8
8  11  8

$$$$

