90540
  -OEChem-07051212453D

 26 25  0     1  0  0  0  0  0999 V2000
    0.1991    1.4078    1.3371 O   0  0  0  0  0  0  0  0  0  0  0  0
   -0.1910   -1.4251    1.3177 O   0  0  0  0  0  0  0  0  0  0  0  0
    2.7547    1.3978    0.2234 O   0  0  0  0  0  0  0  0  0  0  0  0
   -2.7555   -1.4010    0.2153 O   0  0  0  0  0  0  0  0  0  0  0  0
    3.8018   -0.8759   -0.9201 O   0  0  0  0  0  0  0  0  0  0  0  0
   -3.8069    0.8907   -0.9206 O   0  0  0  0  0  0  0  0  0  0  0  0
    0.4811    0.5987    0.1956 C   0  0  2  0  0  0  0  0  0  0  0  0
   -0.4802   -0.6017    0.1885 C   0  0  2  0  0  0  0  0  0  0  0  0
    1.9702    0.1984    0.1992 C   0  0  1  0  0  0  0  0  0  0  0  0
   -1.9695   -0.2025    0.2044 C   0  0  1  0  0  0  0  0  0  0  0  0
    2.4081   -0.5972   -1.0286 C   0  0  0  0  0  0  0  0  0  0  0  0
   -2.4120    0.6101   -1.0118 C   0  0  0  0  0  0  0  0  0  0  0  0
    0.3010    1.2339   -0.6782 H   0  0  0  0  0  0  0  0  0  0  0  0
   -0.2968   -1.2189   -0.6983 H   0  0  0  0  0  0  0  0  0  0  0  0
    2.2312   -0.3448    1.1148 H   0  0  0  0  0  0  0  0  0  0  0  0
   -2.2227    0.3210    1.1327 H   0  0  0  0  0  0  0  0  0  0  0  0
    2.2525   -0.0301   -1.9520 H   0  0  0  0  0  0  0  0  0  0  0  0
    1.8855   -1.5535   -1.1044 H   0  0  0  0  0  0  0  0  0  0  0  0
   -2.2559    0.0487   -1.9384 H   0  0  0  0  0  0  0  0  0  0  0  0
   -1.8832    1.5638   -1.0854 H   0  0  0  0  0  0  0  0  0  0  0  0
    0.3535    0.8637    2.1284 H   0  0  0  0  0  0  0  0  0  0  0  0
   -0.8125   -2.1727    1.2997 H   0  0  0  0  0  0  0  0  0  0  0  0
    2.4812    1.9073    1.0054 H   0  0  0  0  0  0  0  0  0  0  0  0
   -2.5487   -1.9014   -0.5927 H   0  0  0  0  0  0  0  0  0  0  0  0
    4.2644   -0.0233   -0.8502 H   0  0  0  0  0  0  0  0  0  0  0  0
   -3.9488    1.4002   -0.1046 H   0  0  0  0  0  0  0  0  0  0  0  0
  1  7  1  0  0  0  0
  1 21  1  0  0  0  0
  2  8  1  0  0  0  0
  2 22  1  0  0  0  0
  3  9  1  0  0  0  0
  3 23  1  0  0  0  0
  4 10  1  0  0  0  0
  4 24  1  0  0  0  0
  5 11  1  0  0  0  0
  5 25  1  0  0  0  0
  6 12  1  0  0  0  0
  6 26  1  0  0  0  0
  7  8  1  0  0  0  0
  7  9  1  0  0  0  0
  7 13  1  0  0  0  0
  8 10  1  0  0  0  0
  8 14  1  0  0  0  0
  9 11  1  0  0  0  0
  9 15  1  0  0  0  0
 10 12  1  0  0  0  0
 10 16  1  0  0  0  0
 11 17  1  0  0  0  0
 11 18  1  0  0  0  0
 12 19  1  0  0  0  0
 12 20  1  0  0  0  0
M  END
> <PUBCHEM_COMPOUND_CID>
90540

> <PUBCHEM_CONFORMER_RMSD>
0.6

> <PUBCHEM_CONFORMER_DIVERSEORDER>
1
2
11
6
10
13
21
4
16
14
19
9
3
12
8
20
15
18
7
17
5

> <PUBCHEM_MMFF94_PARTIAL_CHARGES>
18
1 -0.68
10 0.28
11 0.28
12 0.28
2 -0.68
21 0.4
22 0.4
23 0.4
24 0.4
25 0.4
26 0.4
3 -0.68
4 -0.68
5 -0.68
6 -0.68
7 0.28
8 0.28
9 0.28

> <PUBCHEM_EFFECTIVE_ROTOR_COUNT>
5

> <PUBCHEM_PHARMACOPHORE_FEATURES>
12
1 1 acceptor
1 1 donor
1 2 acceptor
1 2 donor
1 3 acceptor
1 3 donor
1 4 acceptor
1 4 donor
1 5 acceptor
1 5 donor
1 6 acceptor
1 6 donor

> <PUBCHEM_HEAVY_ATOM_COUNT>
12

> <PUBCHEM_ATOM_DEF_STEREO_COUNT>
4

> <PUBCHEM_ATOM_UDEF_STEREO_COUNT>
0

> <PUBCHEM_BOND_DEF_STEREO_COUNT>
0

> <PUBCHEM_BOND_UDEF_STEREO_COUNT>
0

> <PUBCHEM_ISOTOPIC_ATOM_COUNT>
0

> <PUBCHEM_COMPONENT_COUNT>
1

> <PUBCHEM_CACTVS_TAUTO_COUNT>
1

> <PUBCHEM_CONFORMER_ID>
000161AC00000001

> <PUBCHEM_MMFF94_ENERGY>
27.1154

> <PUBCHEM_FEATURE_SELFOVERLAP>
60.935

> <PUBCHEM_SHAPE_FINGERPRINT>
12716758 59 18272368659237624707
12932764 1 18130785655025151419
13705890 14 17531259330735634759
14325111 11 18130512954772043385
15219456 202 18336265648078194116
15775835 57 15769772472302344245
16945 1 18338515364616339666
17834072 14 18114468946056801994
18186145 218 18413105073830055576
20201158 50 18261107512970497686
20645477 70 17894910741238575694
20653085 51 17346302791804500708
20671657 53 18188475974237150748
20711983 171 17203610401808103127
20711985 327 15213022652371185514
20711985 344 17898568932530799464
22802520 49 18410853278401067029
23526113 38 18264485096674089922
23557571 272 18200875045897971741
23559900 14 18412546527236139850
29004967 10 17749385923510727178
3248919 1 18040155106259929280
5084963 1 18269835324665696875

> <PUBCHEM_SHAPE_MULTIPOLES>
211.74
5.56
1.37
1.15
0.02
0.01
0.04
-0.02
-2.46
0.01
0.31
-0.01
0
0.88

> <PUBCHEM_SHAPE_SELFOVERLAP>
397.168

> <PUBCHEM_SHAPE_VOLUME>
131.3

> <PUBCHEM_COORDINATE_TYPE>
2
5
10

$$$$

