443436
  -OEChem-07051213023D

 28 27  0     1  0  0  0  0  0999 V2000
   -2.7166    2.8910    0.4201 O   0  0  0  0  0  0  0  0  0  0  0  0
   -1.6387   -1.9492    1.2381 O   0  0  0  0  0  0  0  0  0  0  0  0
    1.5060    0.0822   -1.6688 O   0  0  0  0  0  0  0  0  0  0  0  0
   -3.1345   -1.6812   -0.4367 O   0  0  0  0  0  0  0  0  0  0  0  0
    0.1664   -0.3305    0.1817 N   0  0  0  0  0  0  0  0  0  0  0  0
   -1.0874   -0.3921   -0.5315 C   0  0  2  0  0  0  0  0  0  0  0  0
   -1.7181    0.9971   -0.6555 C   0  0  0  0  0  0  0  0  0  0  0  0
    2.5340   -0.0779    0.5174 C   0  0  0  0  0  0  0  0  0  0  0  0
   -2.1274    1.6219    0.6759 C   0  0  0  0  0  0  0  0  0  0  0  0
    1.3731   -0.0948   -0.4607 C   0  0  0  0  0  0  0  0  0  0  0  0
    3.8716    0.1802   -0.1699 C   0  0  0  0  0  0  0  0  0  0  0  0
   -2.0504   -1.4068    0.0667 C   0  0  0  0  0  0  0  0  0  0  0  0
    5.0220    0.1600    0.8232 C   0  0  0  0  0  0  0  0  0  0  0  0
   -0.8645   -0.7620   -1.5406 H   0  0  0  0  0  0  0  0  0  0  0  0
   -2.6043    0.9385   -1.3012 H   0  0  0  0  0  0  0  0  0  0  0  0
   -1.0284    1.6795   -1.1694 H   0  0  0  0  0  0  0  0  0  0  0  0
    0.1539   -0.4515    1.1905 H   0  0  0  0  0  0  0  0  0  0  0  0
    2.3412    0.6999    1.2660 H   0  0  0  0  0  0  0  0  0  0  0  0
    2.5587   -1.0448    1.0342 H   0  0  0  0  0  0  0  0  0  0  0  0
   -2.8564    1.0063    1.2113 H   0  0  0  0  0  0  0  0  0  0  0  0
   -1.2609    1.7782    1.3250 H   0  0  0  0  0  0  0  0  0  0  0  0
    3.8487    1.1510   -0.6794 H   0  0  0  0  0  0  0  0  0  0  0  0
    4.0486   -0.5784   -0.9417 H   0  0  0  0  0  0  0  0  0  0  0  0
    4.8920    0.9308    1.5895 H   0  0  0  0  0  0  0  0  0  0  0  0
    5.0932   -0.8120    1.3217 H   0  0  0  0  0  0  0  0  0  0  0  0
    5.9699    0.3483    0.3093 H   0  0  0  0  0  0  0  0  0  0  0  0
   -3.5086    2.7427   -0.1243 H   0  0  0  0  0  0  0  0  0  0  0  0
   -2.2978   -2.5774    1.6029 H   0  0  0  0  0  0  0  0  0  0  0  0
  1  9  1  0  0  0  0
  1 27  1  0  0  0  0
  2 12  1  0  0  0  0
  2 28  1  0  0  0  0
  3 10  2  0  0  0  0
  4 12  2  0  0  0  0
  5  6  1  0  0  0  0
  5 10  1  0  0  0  0
  5 17  1  0  0  0  0
  6  7  1  0  0  0  0
  6 12  1  0  0  0  0
  6 14  1  0  0  0  0
  7  9  1  0  0  0  0
  7 15  1  0  0  0  0
  7 16  1  0  0  0  0
  8 10  1  0  0  0  0
  8 11  1  0  0  0  0
  8 18  1  0  0  0  0
  8 19  1  0  0  0  0
  9 20  1  0  0  0  0
  9 21  1  0  0  0  0
 11 13  1  0  0  0  0
 11 22  1  0  0  0  0
 11 23  1  0  0  0  0
 13 24  1  0  0  0  0
 13 25  1  0  0  0  0
 13 26  1  0  0  0  0
M  END
> <PUBCHEM_COMPOUND_CID>
443436

> <PUBCHEM_CONFORMER_RMSD>
0.8

> <PUBCHEM_CONFORMER_DIVERSEORDER>
1
69
72
96
85
48
77
94
83
65
10
44
88
92
82
73
75
32
49
68
86
79
89
21
76
34
31
55
70
64
56
87
37
13
40
51
93
52
80
14
57
7
90
81
66
84
67
17
74
78
36
18
29
15
47
27
95
12
35
63
53
3
4
50
26
54
58
42
46
43
62
28
11
16
25
45
41
24
38
30
91
22
60
71
39
20
61
8
19
59
23
5
6
9
33
2

> <PUBCHEM_MMFF94_PARTIAL_CHARGES>
13
1 -0.68
10 0.57
12 0.66
17 0.37
2 -0.65
27 0.4
28 0.5
3 -0.57
4 -0.57
5 -0.73
6 0.36
8 0.06
9 0.28

> <PUBCHEM_EFFECTIVE_ROTOR_COUNT>
7

> <PUBCHEM_PHARMACOPHORE_FEATURES>
8
1 1 acceptor
1 1 donor
1 13 hydrophobe
1 2 acceptor
1 3 acceptor
1 4 acceptor
1 5 donor
3 2 4 12 anion

> <PUBCHEM_HEAVY_ATOM_COUNT>
13

> <PUBCHEM_ATOM_DEF_STEREO_COUNT>
0

> <PUBCHEM_ATOM_UDEF_STEREO_COUNT>
1

> <PUBCHEM_BOND_DEF_STEREO_COUNT>
0

> <PUBCHEM_BOND_UDEF_STEREO_COUNT>
0

> <PUBCHEM_ISOTOPIC_ATOM_COUNT>
0

> <PUBCHEM_COMPONENT_COUNT>
1

> <PUBCHEM_CACTVS_TAUTO_COUNT>
2

> <PUBCHEM_CONFORMER_ID>
0006C42C00000001

> <PUBCHEM_MMFF94_ENERGY>
12.4078

> <PUBCHEM_FEATURE_SELFOVERLAP>
40.655

> <PUBCHEM_SHAPE_FINGERPRINT>
10680689 15 18040437655685378134
12932764 1 17240771657634228326
13296909 8 18411421708806591556
13764800 53 18187915227011446329
15219456 202 17821721780243366862
15279308 16 17894911866757234220
1741750 31 18189051065398784768
20645477 56 18334571395070184352
20645477 70 14979413823939446074
21524375 3 18047755081345719597
2306618 200 17917723400096799253
23380061 127 18408610249105570974
23402539 116 18335713706326562335
23500284 214 18042117816188895249
23557571 272 18115010966376393604
305870 269 17909548702932582545
3086196 2 18340208492364438898
3248919 1 18202557367851005598
81228 2 18338782460622830881
88987 49 18338497733934033940

> <PUBCHEM_SHAPE_MULTIPOLES>
239.08
7.21
2.01
1.07
9.58
0.86
-0.14
0.79
1.5
-3.44
0.56
0.18
-0.08
-0.13

> <PUBCHEM_SHAPE_SELFOVERLAP>
450.892

> <PUBCHEM_SHAPE_VOLUME>
147.7

> <PUBCHEM_COORDINATE_TYPE>
2
5
10

$$$$

