5462495
  -OEChem-07051213013D

 46 49  0     0  0  0  0  0  0999 V2000
    2.9354    1.0642    0.0721 O   0  0  0  0  0  0  0  0  0  0  0  0
   -3.8444    0.0274   -1.0018 O   0  0  0  0  0  0  0  0  0  0  0  0
    4.3271   -2.9314    0.1675 O   0  0  0  0  0  0  0  0  0  0  0  0
   -1.1566   -0.0311   -1.1007 O   0  0  0  0  0  0  0  0  0  0  0  0
    4.7823   -0.2903    0.1190 N   0  0  0  0  0  0  0  0  0  0  0  0
   -1.0627   -2.0302    0.0949 N   0  0  0  0  0  0  0  0  0  0  0  0
    3.4080   -0.2700    0.1043 C   0  0  0  0  0  0  0  0  0  0  0  0
    2.5591   -1.3020    0.1168 C   0  0  0  0  0  0  0  0  0  0  0  0
    5.2099    1.0232    0.0969 C   0  0  0  0  0  0  0  0  0  0  0  0
    4.0776    1.8495    0.0680 C   0  0  0  0  0  0  0  0  0  0  0  0
    1.1197   -1.1294    0.0983 C   0  0  0  0  0  0  0  0  0  0  0  0
    0.2939   -2.1879    0.1117 C   0  0  0  0  0  0  0  0  0  0  0  0
    3.1255   -2.6894    0.1514 C   0  0  0  0  0  0  0  0  0  0  0  0
    6.4747    1.5632    0.0990 C   0  0  0  0  0  0  0  0  0  0  0  0
    4.1525    3.2222    0.0411 C   0  0  0  0  0  0  0  0  0  0  0  0
    0.8192   -3.5367    0.1447 C   0  0  0  0  0  0  0  0  0  0  0  0
    2.1330   -3.7983    0.1636 C   0  0  0  0  0  0  0  0  0  0  0  0
    6.5812    2.9588    0.0716 C   0  0  0  0  0  0  0  0  0  0  0  0
    5.4331    3.7787    0.0431 C   0  0  0  0  0  0  0  0  0  0  0  0
   -1.7036   -0.9598   -0.5114 C   0  0  0  0  0  0  0  0  0  0  0  0
   -3.2077   -1.0590   -0.3634 C   0  0  0  0  0  0  0  0  0  0  0  0
   -5.0555    0.4327   -0.4924 C   0  0  0  0  0  0  0  0  0  0  0  0
   -7.5004    1.2498    0.5370 C   0  0  0  0  0  0  0  0  0  0  0  0
   -5.8838   -0.4966    0.1214 C   0  0  0  0  0  0  0  0  0  0  0  0
   -5.4312    1.7646   -0.5992 C   0  0  0  0  0  0  0  0  0  0  0  0
   -7.1124   -0.0860    0.6385 C   0  0  0  0  0  0  0  0  0  0  0  0
   -6.6599    2.1752   -0.0818 C   0  0  0  0  0  0  0  0  0  0  0  0
   -8.8138    1.6888    1.0901 C   0  0  0  0  0  0  0  0  0  0  0  0
    5.3525   -1.1172    0.1427 H   0  0  0  0  0  0  0  0  0  0  0  0
    0.7553   -0.1094    0.1327 H   0  0  0  0  0  0  0  0  0  0  0  0
    7.3611    0.9396    0.1210 H   0  0  0  0  0  0  0  0  0  0  0  0
    3.2672    3.8454    0.0192 H   0  0  0  0  0  0  0  0  0  0  0  0
    0.1149   -4.3636    0.1528 H   0  0  0  0  0  0  0  0  0  0  0  0
    2.5073   -4.8152    0.1876 H   0  0  0  0  0  0  0  0  0  0  0  0
   -1.6272   -2.8377    0.3486 H   0  0  0  0  0  0  0  0  0  0  0  0
    7.5650    3.4214    0.0723 H   0  0  0  0  0  0  0  0  0  0  0  0
    5.5505    4.8590    0.0223 H   0  0  0  0  0  0  0  0  0  0  0  0
   -3.4083   -1.0761    0.7163 H   0  0  0  0  0  0  0  0  0  0  0  0
   -3.5401   -1.9974   -0.8222 H   0  0  0  0  0  0  0  0  0  0  0  0
   -5.6296   -1.5493    0.1968 H   0  0  0  0  0  0  0  0  0  0  0  0
   -4.7785    2.4875   -1.0798 H   0  0  0  0  0  0  0  0  0  0  0  0
   -7.7607   -0.8168    1.1150 H   0  0  0  0  0  0  0  0  0  0  0  0
   -6.9502    3.2192   -0.1654 H   0  0  0  0  0  0  0  0  0  0  0  0
   -9.5529    0.8819    1.0412 H   0  0  0  0  0  0  0  0  0  0  0  0
   -8.6980    1.9955    2.1344 H   0  0  0  0  0  0  0  0  0  0  0  0
   -9.2212    2.5307    0.5202 H   0  0  0  0  0  0  0  0  0  0  0  0
  1  7  1  0  0  0  0
  1 10  1  0  0  0  0
  2 21  1  0  0  0  0
  2 22  1  0  0  0  0
  3 13  2  0  0  0  0
  4 20  2  0  0  0  0
  5  7  1  0  0  0  0
  5  9  1  0  0  0  0
  5 29  1  0  0  0  0
  6 12  1  0  0  0  0
  6 20  1  0  0  0  0
  6 35  1  0  0  0  0
  7  8  2  0  0  0  0
  8 11  1  0  0  0  0
  8 13  1  0  0  0  0
  9 10  1  0  0  0  0
  9 14  2  0  0  0  0
 10 15  2  0  0  0  0
 11 12  2  0  0  0  0
 11 30  1  0  0  0  0
 12 16  1  0  0  0  0
 13 17  1  0  0  0  0
 14 18  1  0  0  0  0
 14 31  1  0  0  0  0
 15 19  1  0  0  0  0
 15 32  1  0  0  0  0
 16 17  2  0  0  0  0
 16 33  1  0  0  0  0
 17 34  1  0  0  0  0
 18 19  2  0  0  0  0
 18 36  1  0  0  0  0
 19 37  1  0  0  0  0
 20 21  1  0  0  0  0
 21 38  1  0  0  0  0
 21 39  1  0  0  0  0
 22 24  2  0  0  0  0
 22 25  1  0  0  0  0
 23 26  2  0  0  0  0
 23 27  1  0  0  0  0
 23 28  1  0  0  0  0
 24 26  1  0  0  0  0
 24 40  1  0  0  0  0
 25 27  2  0  0  0  0
 25 41  1  0  0  0  0
 26 42  1  0  0  0  0
 27 43  1  0  0  0  0
 28 44  1  0  0  0  0
 28 45  1  0  0  0  0
 28 46  1  0  0  0  0
M  END
> <PUBCHEM_COMPOUND_CID>
5462495

> <PUBCHEM_CONFORMER_RMSD>
0.8

> <PUBCHEM_CONFORMER_DIVERSEORDER>
1
22
52
55
44
17
51
8
30
7
33
20
10
39
27
35
43
53
36
49
59
23
19
11
18
12
56
40
13
46
6
45
9
57
3
42
15
38
58
16
31
54
2
41
21
48
32
50
28
24
29
34
25
4
26
47
14
5
37

> <PUBCHEM_MMFF94_PARTIAL_CHARGES>
41
1 -0.16
10 0.08
11 -0.15
12 0.11
13 0.54
14 -0.15
15 -0.15
16 -0.15
17 -0.14
18 -0.15
19 -0.15
2 -0.36
20 0.57
21 0.34
22 0.08
23 -0.14
24 -0.15
25 -0.15
26 -0.15
27 -0.15
28 0.14
29 0.4
3 -0.57
30 0.15
31 0.15
32 0.15
33 0.15
34 0.15
35 0.37
36 0.15
37 0.15
4 -0.57
40 0.15
41 0.15
42 0.15
43 0.15
5 -0.6
6 -0.54
7 0.18
8 0.01
9 0.1

> <PUBCHEM_EFFECTIVE_ROTOR_COUNT>
5.4

> <PUBCHEM_PHARMACOPHORE_FEATURES>
11
1 1 acceptor
1 2 acceptor
1 3 acceptor
1 4 acceptor
1 5 cation
1 5 donor
1 6 donor
5 1 5 7 9 10 rings
6 22 23 24 25 26 27 rings
6 8 11 12 13 16 17 rings
6 9 10 14 15 18 19 rings

> <PUBCHEM_HEAVY_ATOM_COUNT>
28

> <PUBCHEM_ATOM_DEF_STEREO_COUNT>
0

> <PUBCHEM_ATOM_UDEF_STEREO_COUNT>
0

> <PUBCHEM_BOND_DEF_STEREO_COUNT>
1

> <PUBCHEM_BOND_UDEF_STEREO_COUNT>
0

> <PUBCHEM_ISOTOPIC_ATOM_COUNT>
0

> <PUBCHEM_COMPONENT_COUNT>
1

> <PUBCHEM_CACTVS_TAUTO_COUNT>
6

> <PUBCHEM_CONFORMER_ID>
005359DF00000001

> <PUBCHEM_MMFF94_ENERGY>
105.4176

> <PUBCHEM_FEATURE_SELFOVERLAP>
55.937

> <PUBCHEM_SHAPE_FINGERPRINT>
10 15 18131631188784800457
10050765 1 18411139099943684218
10411042 1 17906453587045520162
10673678 19 18335415768376397203
10675989 125 18409169905288873816
10835480 77 18270406109251974157
1200032 147 18272651212926353776
12677640 9 17978229353527912095
12788726 201 17313381275139145353
12925494 130 18267026059192357120
13248334 5 18266741458076437122
13944108 23 18335419110314770672
13955234 65 18200037377073359146
14202776 33 17751085709044146983
14251764 75 18408886200448403502
14294032 229 18118682119416251562
14394314 77 18408036313328459569
14565420 104 18272373070216900642
14790565 3 18267868268209436660
14933364 13 18339640140017418431
15183329 4 15140678094704846969
15419008 145 18128267859904104192
15419008 91 17774729775081955933
15439362 3 18408603631342157550
15475509 35 16271095967877897202
15519825 34 16056311705877951929
155225 6 18269270171321083292
1577012 14 18187088360624739855
15840311 113 18410851110207389421
16087824 20 18411418402584451172
16126227 98 18338517409121395485
16760501 71 18413388731114239917
16993089 31 5472572361091009773
17899979 129 18261385663843059470
19302320 297 18343585114581523208
19304671 126 17822562833793671516
19427546 62 18411699885112009266
19438510 23 18202005378379603290
20691028 202 18265897943330796568
20715895 44 18337956689047129312
21033648 29 18193848042143415328
21033650 10 14707473816270712051
21298829 104 18337391547874819084
21585482 111 18341613776037652877
22122407 14 18263071262629195937
23522609 53 17749660892572327545
23569914 152 17897698000234032076
23845131 108 18271805687978964938
3178227 256 18270687579728138602
3411729 13 18410573993794497223
34797466 226 18114176493286504183
397830 11 18272078397728745027
4073 2 18343579625813766355
4169191 19 18410295822549801749
5104073 3 18059861648991638587
5109719 28 18411128126591328435
5364581 5 18343298151015637009
5385378 56 18342182167956477458
5718773 13 9295299334570448556
5911458 16 17967806172444605041
5951187 136 18261103085117678894
6697151 62 17337341983014614263
9849439 229 18271239405462315270

> <PUBCHEM_SHAPE_MULTIPOLES>
542.79
23.01
4.66
0.77
36.73
1.02
-0.02
-23.92
4.1
-8.2
0.36
0.85
-0.1
-0.52

> <PUBCHEM_SHAPE_SELFOVERLAP>
1198.967

> <PUBCHEM_SHAPE_VOLUME>
288.9

> <PUBCHEM_COORDINATE_TYPE>
2
5
10

$$$$

