11954096
  -OEChem-07051213062D

 74 80  0     1  0  0  0  0  0999 V2000
    2.0000   -2.0687    0.0000 O   0  0  0  0  0  0  0  0  0  0  0  0
    5.5025   -0.0714    0.0000 O   0  0  0  0  0  0  0  0  0  0  0  0
    2.9370   -3.7222    0.0000 O   0  0  0  0  0  0  0  0  0  0  0  0
    4.5550   -3.7284    0.0000 O   0  0  0  0  0  0  0  0  0  0  0  0
    4.5827    4.6783    0.0000 O   0  0  0  0  0  0  0  0  0  0  0  0
    4.9341    3.0989    0.0000 O   0  0  0  0  0  0  0  0  0  0  0  0
    6.3858    1.4185    0.0000 O   0  0  0  0  0  0  0  0  0  0  0  0
    2.8663   -1.5683    0.0000 C   0  0  2  0  0  0  0  0  0  0  0  0
    3.7323   -1.0683    0.0000 C   0  0  1  0  0  0  0  0  0  0  0  0
    3.7323   -0.0683    0.0000 C   0  0  2  0  0  0  0  0  0  0  0  0
    2.8663    0.4317    0.0000 C   0  0  2  0  0  0  0  0  0  0  0  0
    2.0003   -1.0683    0.0000 C   0  0  2  0  0  0  0  0  0  0  0  0
    2.8502    1.4732    0.0000 C   0  0  1  0  0  0  0  0  0  0  0  0
    3.7483    2.0010    0.0000 C   0  0  2  0  0  0  0  0  0  0  0  0
    2.0003   -0.0683    0.0000 C   0  0  0  0  0  0  0  0  0  0  0  0
    4.6423    0.4386    0.0000 C   0  0  1  0  0  0  0  0  0  0  0  0
    2.8502   -2.6098    0.0000 C   0  0  0  0  0  0  0  0  0  0  0  0
    4.6423   -1.5751    0.0000 C   0  0  0  0  0  0  0  0  0  0  0  0
    4.6503    1.4802    0.0000 C   0  0  0  0  0  0  0  0  0  0  0  0
    3.5226    3.0115    0.0000 C   0  0  2  0  0  0  0  0  0  0  0  0
    2.0772    2.1621    0.0000 C   0  0  0  0  0  0  0  0  0  0  0  0
    3.7483   -3.1376    0.0000 C   0  0  0  0  0  0  0  0  0  0  0  0
    4.5983   -0.5683    0.0000 C   0  0  0  0  0  0  0  0  0  0  0  0
    2.4919    3.1109    0.0000 C   0  0  0  0  0  0  0  0  0  0  0  0
    4.6503   -2.6167    0.0000 C   0  0  0  0  0  0  0  0  0  0  0  0
    4.6104    2.5076    0.0000 C   0  0  0  0  0  0  0  0  0  0  0  0
    4.1846    3.7610    0.0000 C   0  0  0  0  0  0  0  0  0  0  0  0
    3.2673    4.1591    0.0000 C   0  0  0  0  0  0  0  0  0  0  0  0
    3.2423   -4.6744    0.0000 C   0  0  0  0  0  0  0  0  0  0  0  0
    4.2423   -4.6783    0.0000 C   0  0  0  0  0  0  0  0  0  0  0  0
    6.3742    0.4185    0.0000 C   0  0  0  0  0  0  0  0  0  0  0  0
    5.5782    4.5832    0.0000 C   0  0  0  0  0  0  0  0  0  0  0  0
    5.7953    3.6070    0.0000 C   0  0  0  0  0  0  0  0  0  0  0  0
    7.2344   -0.0915    0.0000 C   0  0  0  0  0  0  0  0  0  0  0  0
    4.4651   -0.4990    0.0000 H   0  0  0  0  0  0  0  0  0  0  0  0
    2.1269    0.8510    0.0000 H   0  0  0  0  0  0  0  0  0  0  0  0
    1.1503   -1.0682    0.0000 H   0  0  0  0  0  0  0  0  0  0  0  0
    2.0773    1.1195    0.0000 H   0  0  0  0  0  0  0  0  0  0  0  0
    1.7882    0.5143    0.0000 H   0  0  0  0  0  0  0  0  0  0  0  0
    1.3897   -0.1760    0.0000 H   0  0  0  0  0  0  0  0  0  0  0  0
    4.6339   -0.1814    0.0000 H   0  0  0  0  0  0  0  0  0  0  0  0
    2.2411   -2.4943    0.0000 H   0  0  0  0  0  0  0  0  0  0  0  0
    2.6322   -3.1902    0.0000 H   0  0  0  0  0  0  0  0  0  0  0  0
    5.2540   -1.6765    0.0000 H   0  0  0  0  0  0  0  0  0  0  0  0
    4.8469   -0.9898    0.0000 H   0  0  0  0  0  0  0  0  0  0  0  0
    5.2604    1.3694    0.0000 H   0  0  0  0  0  0  0  0  0  0  0  0
    4.8639    2.0622    0.0000 H   0  0  0  0  0  0  0  0  0  0  0  0
    3.2108    3.8023    0.0000 H   0  0  0  0  0  0  0  0  0  0  0  0
    1.5383    2.4688    0.0000 H   0  0  0  0  0  0  0  0  0  0  0  0
    1.7156    1.6585    0.0000 H   0  0  0  0  0  0  0  0  0  0  0  0
    4.9083   -1.1052    0.0000 H   0  0  0  0  0  0  0  0  0  0  0  0
    5.1353   -0.2583    0.0000 H   0  0  0  0  0  0  0  0  0  0  0  0
    4.2883   -0.0314    0.0000 H   0  0  0  0  0  0  0  0  0  0  0  0
    2.6159    3.7184    0.0000 H   0  0  0  0  0  0  0  0  0  0  0  0
    1.9008    3.2982    0.0000 H   0  0  0  0  0  0  0  0  0  0  0  0
    4.8639   -3.1988    0.0000 H   0  0  0  0  0  0  0  0  0  0  0  0
    5.2604   -2.5059    0.0000 H   0  0  0  0  0  0  0  0  0  0  0  0
    4.9245    1.9731    0.0000 H   0  0  0  0  0  0  0  0  0  0  0  0
    5.1449    2.8218    0.0000 H   0  0  0  0  0  0  0  0  0  0  0  0
    4.2963    3.0422    0.0000 H   0  0  0  0  0  0  0  0  0  0  0  0
    3.5141    4.7278    0.0000 H   0  0  0  0  0  0  0  0  0  0  0  0
    2.6985    4.4059    0.0000 H   0  0  0  0  0  0  0  0  0  0  0  0
    3.0205    3.5903    0.0000 H   0  0  0  0  0  0  0  0  0  0  0  0
    2.6354   -4.8010    0.0000 H   0  0  0  0  0  0  0  0  0  0  0  0
    3.3048   -5.2913    0.0000 H   0  0  0  0  0  0  0  0  0  0  0  0
    4.1751   -5.2947    0.0000 H   0  0  0  0  0  0  0  0  0  0  0  0
    4.8483   -4.8096    0.0000 H   0  0  0  0  0  0  0  0  0  0  0  0
    6.1942    4.6538    0.0000 H   0  0  0  0  0  0  0  0  0  0  0  0
    5.5723    5.2031    0.0000 H   0  0  0  0  0  0  0  0  0  0  0  0
    6.0528    3.0430    0.0000 H   0  0  0  0  0  0  0  0  0  0  0  0
    6.3832    3.8042    0.0000 H   0  0  0  0  0  0  0  0  0  0  0  0
    6.9182   -0.6248    0.0000 H   0  0  0  0  0  0  0  0  0  0  0  0
    7.7677   -0.4076    0.0000 H   0  0  0  0  0  0  0  0  0  0  0  0
    7.5506    0.4419    0.0000 H   0  0  0  0  0  0  0  0  0  0  0  0
  8  1  1  1  0  0  0
  1 12  1  0  0  0  0
 16  2  1  1  0  0  0
  2 31  1  0  0  0  0
  3 22  1  0  0  0  0
  3 29  1  0  0  0  0
  4 22  1  0  0  0  0
  4 30  1  0  0  0  0
  5 27  1  0  0  0  0
  5 32  1  0  0  0  0
  6 27  1  0  0  0  0
  6 33  1  0  0  0  0
  7 31  2  0  0  0  0
  8  9  1  0  0  0  0
  8 12  1  0  0  0  0
  8 17  1  0  0  0  0
  9 10  1  0  0  0  0
  9 18  1  0  0  0  0
  9 23  1  6  0  0  0
 10 11  1  0  0  0  0
 10 16  1  0  0  0  0
 10 35  1  1  0  0  0
 11 13  1  0  0  0  0
 11 15  1  0  0  0  0
 11 36  1  6  0  0  0
 12 15  1  0  0  0  0
 12 37  1  6  0  0  0
 13 14  1  0  0  0  0
 13 21  1  0  0  0  0
 13 38  1  1  0  0  0
 14 19  1  0  0  0  0
 14 20  1  0  0  0  0
 14 26  1  6  0  0  0
 15 39  1  0  0  0  0
 15 40  1  0  0  0  0
 16 19  1  0  0  0  0
 16 41  1  0  0  0  0
 17 22  1  0  0  0  0
 17 42  1  0  0  0  0
 17 43  1  0  0  0  0
 18 25  1  0  0  0  0
 18 44  1  0  0  0  0
 18 45  1  0  0  0  0
 19 46  1  0  0  0  0
 19 47  1  0  0  0  0
 20 24  1  0  0  0  0
 20 27  1  0  0  0  0
 20 48  1  1  0  0  0
 21 24  1  0  0  0  0
 21 49  1  0  0  0  0
 21 50  1  0  0  0  0
 22 25  1  0  0  0  0
 23 51  1  0  0  0  0
 23 52  1  0  0  0  0
 23 53  1  0  0  0  0
 24 54  1  0  0  0  0
 24 55  1  0  0  0  0
 25 56  1  0  0  0  0
 25 57  1  0  0  0  0
 26 58  1  0  0  0  0
 26 59  1  0  0  0  0
 26 60  1  0  0  0  0
 27 28  1  0  0  0  0
 28 61  1  0  0  0  0
 28 62  1  0  0  0  0
 28 63  1  0  0  0  0
 29 30  1  0  0  0  0
 29 64  1  0  0  0  0
 29 65  1  0  0  0  0
 30 66  1  0  0  0  0
 30 67  1  0  0  0  0
 31 34  1  0  0  0  0
 32 33  1  0  0  0  0
 32 68  1  0  0  0  0
 32 69  1  0  0  0  0
 33 70  1  0  0  0  0
 33 71  1  0  0  0  0
 34 72  1  0  0  0  0
 34 73  1  0  0  0  0
 34 74  1  0  0  0  0
M  END
> <PUBCHEM_COMPOUND_CID>
11954096

> <PUBCHEM_COMPOUND_CANONICALIZED>
1

> <PUBCHEM_CACTVS_COMPLEXITY>
878

> <PUBCHEM_CACTVS_HBOND_ACCEPTOR>
7

> <PUBCHEM_CACTVS_HBOND_DONOR>
0

> <PUBCHEM_CACTVS_ROTATABLE_BOND>
3

> <PUBCHEM_CACTVS_SUBSKEYS>
AAADcfB4OAAAAAAAAAAAAAAAEgAAAaJEAAAwYMAABIAAAGDAAAAAGgAAAAAAD1SggAICCAAABAAIAACQCAAAAAAAAAAAAAAAAAARAAIAAAAiAAAFAAAGAAHA4PwPgAAAAAAAAADAAAYQADAAAQAACAAAAA==

> <PUBCHEM_IUPAC_INCHI>
InChI=1S/C27H40O7/c1-16(28)33-19-14-23(2)18(5-6-20(23)25(4)29-9-10-30-25)17-13-21-27(34-21)15-26(31-11-12-32-26)8-7-24(27,3)22(17)19/h17-22H,5-15H2,1-4H3/t17-,18-,19+,20-,21-,22+,23-,24+,27-/m0/s1

> <PUBCHEM_IUPAC_INCHIKEY>
RIHYEPXTXIUQGL-IMCUMJJXSA-N

> <PUBCHEM_XLOGP3_AA>
3.2

> <PUBCHEM_EXACT_MASS>
476.277404

> <PUBCHEM_MOLECULAR_FORMULA>
C27H40O7

> <PUBCHEM_MOLECULAR_WEIGHT>
476.6023

> <PUBCHEM_OPENEYE_CAN_SMILES>
CC(=O)OC1CC2(C(CCC2C3(OCCO3)C)C4C1C5(CCC6(CC57C(C4)O7)OCCO6)C)C

> <PUBCHEM_OPENEYE_ISO_SMILES>
CC(=O)O[C@@H]1C[C@]2([C@@H](CC[C@@H]2C3(OCCO3)C)[C@H]4[C@H]1[C@]5(CCC6(C[C@]57[C@H](C4)O7)OCCO6)C)C

> <PUBCHEM_CACTVS_TPSA>
75.8

> <PUBCHEM_MONOISOTOPIC_WEIGHT>
476.277404

> <PUBCHEM_TOTAL_CHARGE>
0

> <PUBCHEM_HEAVY_ATOM_COUNT>
34

> <PUBCHEM_ATOM_DEF_STEREO_COUNT>
9

> <PUBCHEM_ATOM_UDEF_STEREO_COUNT>
0

> <PUBCHEM_BOND_DEF_STEREO_COUNT>
0

> <PUBCHEM_BOND_UDEF_STEREO_COUNT>
0

> <PUBCHEM_ISOTOPIC_ATOM_COUNT>
0

> <PUBCHEM_COMPONENT_COUNT>
1

> <PUBCHEM_CACTVS_TAUTO_COUNT>
1

> <PUBCHEM_COORDINATE_TYPE>
1
5
255

> <PUBCHEM_BONDANNOTATIONS>
8  1  5
10  35  5
11  36  6
12  37  6
13  38  5
14  26  6
16  2  5
20  48  5
9  23  6

$$$$

