854053
  -OEChem-06241222472D

 30 30  0     0  0  0  0  0  0999 V2000
    5.4641    1.4050    0.0000 O   0  0  0  0  0  0  0  0  0  0  0  0
    3.7320    0.4050    0.0000 O   0  0  0  0  0  0  0  0  0  0  0  0
    7.1962   -2.5950    0.0000 O   0  0  0  0  0  0  0  0  0  0  0  0
    5.4641    0.4050    0.0000 C   0  0  0  0  0  0  0  0  0  0  0  0
    6.3301   -1.0950    0.0000 C   0  0  0  0  0  0  0  0  0  0  0  0
    4.5981   -0.0950    0.0000 C   0  0  0  0  0  0  0  0  0  0  0  0
    6.3301   -0.0950    0.0000 C   0  0  0  0  0  0  0  0  0  0  0  0
    5.4641   -1.5950    0.0000 C   0  0  0  0  0  0  0  0  0  0  0  0
    4.5981   -1.0950    0.0000 C   0  0  0  0  0  0  0  0  0  0  0  0
    7.1962   -1.5950    0.0000 C   0  0  0  0  0  0  0  0  0  0  0  0
    6.3301    1.9050    0.0000 C   0  0  0  0  0  0  0  0  0  0  0  0
    2.8660   -0.0950    0.0000 C   0  0  0  0  0  0  0  0  0  0  0  0
    6.3301    2.9050    0.0000 C   0  0  0  0  0  0  0  0  0  0  0  0
    2.0000    0.4050    0.0000 C   0  0  0  0  0  0  0  0  0  0  0  0
    6.8671    0.2150    0.0000 H   0  0  0  0  0  0  0  0  0  0  0  0
    5.4641   -2.2150    0.0000 H   0  0  0  0  0  0  0  0  0  0  0  0
    4.0611   -1.4050    0.0000 H   0  0  0  0  0  0  0  0  0  0  0  0
    7.8067   -1.7027    0.0000 H   0  0  0  0  0  0  0  0  0  0  0  0
    7.4082   -1.0124    0.0000 H   0  0  0  0  0  0  0  0  0  0  0  0
    6.5422    1.3224    0.0000 H   0  0  0  0  0  0  0  0  0  0  0  0
    6.9407    2.0127    0.0000 H   0  0  0  0  0  0  0  0  0  0  0  0
    2.4675   -0.5699    0.0000 H   0  0  0  0  0  0  0  0  0  0  0  0
    3.2646   -0.5699    0.0000 H   0  0  0  0  0  0  0  0  0  0  0  0
    6.9501    2.9050    0.0000 H   0  0  0  0  0  0  0  0  0  0  0  0
    6.3301    3.5250    0.0000 H   0  0  0  0  0  0  0  0  0  0  0  0
    5.7101    2.9050    0.0000 H   0  0  0  0  0  0  0  0  0  0  0  0
    2.3100    0.9419    0.0000 H   0  0  0  0  0  0  0  0  0  0  0  0
    1.4631    0.7150    0.0000 H   0  0  0  0  0  0  0  0  0  0  0  0
    1.6900   -0.1319    0.0000 H   0  0  0  0  0  0  0  0  0  0  0  0
    7.7331   -2.9050    0.0000 H   0  0  0  0  0  0  0  0  0  0  0  0
  1  4  1  0  0  0  0
  1 11  1  0  0  0  0
  2  6  1  0  0  0  0
  2 12  1  0  0  0  0
  3 10  1  0  0  0  0
  3 30  1  0  0  0  0
  4  6  2  0  0  0  0
  4  7  1  0  0  0  0
  5  7  2  0  0  0  0
  5  8  1  0  0  0  0
  5 10  1  0  0  0  0
  6  9  1  0  0  0  0
  7 15  1  0  0  0  0
  8  9  2  0  0  0  0
  8 16  1  0  0  0  0
  9 17  1  0  0  0  0
 10 18  1  0  0  0  0
 10 19  1  0  0  0  0
 11 13  1  0  0  0  0
 11 20  1  0  0  0  0
 11 21  1  0  0  0  0
 12 14  1  0  0  0  0
 12 22  1  0  0  0  0
 12 23  1  0  0  0  0
 13 24  1  0  0  0  0
 13 25  1  0  0  0  0
 13 26  1  0  0  0  0
 14 27  1  0  0  0  0
 14 28  1  0  0  0  0
 14 29  1  0  0  0  0
M  END
> <PUBCHEM_COMPOUND_CID>
854053

> <PUBCHEM_COMPOUND_CANONICALIZED>
1

> <PUBCHEM_CACTVS_COMPLEXITY>
150

> <PUBCHEM_CACTVS_HBOND_ACCEPTOR>
3

> <PUBCHEM_CACTVS_HBOND_DONOR>
1

> <PUBCHEM_CACTVS_ROTATABLE_BOND>
5

> <PUBCHEM_CACTVS_SUBSKEYS>
AAADceBwMAAAAAAAAAAAAAAAAAAAAAAAAAAwAAAAAAAAAAABAAAAGgAACAAADASgmAIyBoAABgCAAiBCAAACCAAgIAAIiAAGiIgNNiKEMRqCeCKkwBEKuAfA4DwOIAABAAAAQABAAAIAAACAAAAAAAAAAA==

> <PUBCHEM_IUPAC_OPENEYE_NAME>
(3,4-diethoxyphenyl)methanol

> <PUBCHEM_IUPAC_CAS_NAME>
(3,4-diethoxyphenyl)methanol

> <PUBCHEM_IUPAC_NAME>
(3,4-diethoxyphenyl)methanol

> <PUBCHEM_IUPAC_SYSTEMATIC_NAME>
(3,4-diethoxyphenyl)methanol

> <PUBCHEM_IUPAC_TRADITIONAL_NAME>
(3,4-diethoxyphenyl)methanol

> <PUBCHEM_IUPAC_INCHI>
InChI=1S/C11H16O3/c1-3-13-10-6-5-9(8-12)7-11(10)14-4-2/h5-7,12H,3-4,8H2,1-2H3

> <PUBCHEM_IUPAC_INCHIKEY>
ZOLYZUOLHFXYQD-UHFFFAOYSA-N

> <PUBCHEM_XLOGP3>
1.3

> <PUBCHEM_EXACT_MASS>
196.109944

> <PUBCHEM_MOLECULAR_FORMULA>
C11H16O3

> <PUBCHEM_MOLECULAR_WEIGHT>
196.24294

> <PUBCHEM_OPENEYE_CAN_SMILES>
CCOC1=C(C=C(C=C1)CO)OCC

> <PUBCHEM_OPENEYE_ISO_SMILES>
CCOC1=C(C=C(C=C1)CO)OCC

> <PUBCHEM_CACTVS_TPSA>
38.7

> <PUBCHEM_MONOISOTOPIC_WEIGHT>
196.109944

> <PUBCHEM_TOTAL_CHARGE>
0

> <PUBCHEM_HEAVY_ATOM_COUNT>
14

> <PUBCHEM_ATOM_DEF_STEREO_COUNT>
0

> <PUBCHEM_ATOM_UDEF_STEREO_COUNT>
0

> <PUBCHEM_BOND_DEF_STEREO_COUNT>
0

> <PUBCHEM_BOND_UDEF_STEREO_COUNT>
0

> <PUBCHEM_ISOTOPIC_ATOM_COUNT>
0

> <PUBCHEM_COMPONENT_COUNT>
1

> <PUBCHEM_CACTVS_TAUTO_COUNT>
1

> <PUBCHEM_COORDINATE_TYPE>
1
5
255

> <PUBCHEM_BONDANNOTATIONS>
4  6  8
4  7  8
5  7  8
5  8  8
6  9  8
8  9  8

$$$$

