23724595
  -OEChem-07051213083D

 83 86  0     1  0  0  0  0  0999 V2000
   -4.9907    3.0965   -0.2334 O   0  0  0  0  0  0  0  0  0  0  0  0
   -6.5098   -3.1298    0.5689 O   0  0  0  0  0  0  0  0  0  0  0  0
   -6.8779   -0.5482    1.6072 O   0  0  0  0  0  0  0  0  0  0  0  0
    4.0415    0.5353    2.4780 O   0  0  0  0  0  0  0  0  0  0  0  0
    6.6062    0.4359    1.7667 O   0  0  0  0  0  0  0  0  0  0  0  0
    0.5334    0.0986   -0.1114 C   0  0  1  0  0  0  0  0  0  0  0  0
   -0.4518    1.2440    0.2078 C   0  0  2  0  0  0  0  0  0  0  0  0
   -1.8302    1.0411   -0.4312 C   0  0  1  0  0  0  0  0  0  0  0  0
   -2.4373   -0.2936    0.1094 C   0  0  1  0  0  0  0  0  0  0  0  0
   -3.8827   -0.5542   -0.4575 C   0  0  2  0  0  0  0  0  0  0  0  0
    1.7875    0.6424    0.6160 C   0  0  2  0  0  0  0  0  0  0  0  0
   -4.7634    0.6878   -0.0904 C   0  0  1  0  0  0  0  0  0  0  0  0
   -0.0436   -1.1953    0.4795 C   0  0  0  0  0  0  0  0  0  0  0  0
   -1.4575   -1.4855   -0.0569 C   0  0  0  0  0  0  0  0  0  0  0  0
    0.3422    2.5038   -0.1242 C   0  0  0  0  0  0  0  0  0  0  0  0
   -2.7600    2.2268   -0.1491 C   0  0  0  0  0  0  0  0  0  0  0  0
    1.7896    2.1487    0.2642 C   0  0  0  0  0  0  0  0  0  0  0  0
   -4.1852    1.9967   -0.6561 C   0  0  2  0  0  0  0  0  0  0  0  0
   -4.5142   -1.8064    0.2154 C   0  0  0  0  0  0  0  0  0  0  0  0
    0.8078   -0.0978   -1.6238 C   0  0  0  0  0  0  0  0  0  0  0  0
    3.1099   -0.0416    0.2997 C   0  0  1  0  0  0  0  0  0  0  0  0
   -6.2530    0.4970   -0.4554 C   0  0  0  0  0  0  0  0  0  0  0  0
   -3.8348   -0.7945   -1.9890 C   0  0  0  0  0  0  0  0  0  0  0  0
   -5.9975   -1.9962   -0.1277 C   0  0  2  0  0  0  0  0  0  0  0  0
   -6.8364   -0.7598    0.1947 C   0  0  1  0  0  0  0  0  0  0  0  0
    4.3189    0.5492    1.0707 C   0  0  2  0  0  0  0  0  0  0  0  0
    2.9862   -1.5485    0.5764 C   0  0  0  0  0  0  0  0  0  0  0  0
    5.6766   -0.1616    0.8572 C   0  0  1  0  0  0  0  0  0  0  0  0
    6.2351   -0.1323   -0.5939 C   0  0  2  0  0  0  0  0  0  0  0  0
    7.5355   -0.9903   -0.7206 C   0  0  0  0  0  0  0  0  0  0  0  0
    6.4011    1.2948   -1.1338 C   0  0  0  0  0  0  0  0  0  0  0  0
    8.0194   -1.0439   -2.1773 C   0  0  0  0  0  0  0  0  0  0  0  0
    7.4352   -2.4193   -0.1801 C   0  0  0  0  0  0  0  0  0  0  0  0
   -0.6137    1.2685    1.2988 H   0  0  0  0  0  0  0  0  0  0  0  0
   -1.7090    0.9809   -1.5171 H   0  0  0  0  0  0  0  0  0  0  0  0
   -2.5521   -0.1637    1.1976 H   0  0  0  0  0  0  0  0  0  0  0  0
    1.6077    0.5650    1.6990 H   0  0  0  0  0  0  0  0  0  0  0  0
   -4.7346    0.8007    1.0038 H   0  0  0  0  0  0  0  0  0  0  0  0
    0.5456   -2.0824    0.2535 H   0  0  0  0  0  0  0  0  0  0  0  0
   -0.0937   -1.1213    1.5735 H   0  0  0  0  0  0  0  0  0  0  0  0
   -1.8416   -2.3593    0.4813 H   0  0  0  0  0  0  0  0  0  0  0  0
   -1.3879   -1.7781   -1.1092 H   0  0  0  0  0  0  0  0  0  0  0  0
    0.2815    2.7477   -1.1907 H   0  0  0  0  0  0  0  0  0  0  0  0
   -0.0166    3.3737    0.4355 H   0  0  0  0  0  0  0  0  0  0  0  0
   -2.3651    3.1408   -0.6104 H   0  0  0  0  0  0  0  0  0  0  0  0
   -2.7848    2.4349    0.9294 H   0  0  0  0  0  0  0  0  0  0  0  0
    2.4610    2.3792   -0.5708 H   0  0  0  0  0  0  0  0  0  0  0  0
    2.1187    2.7431    1.1237 H   0  0  0  0  0  0  0  0  0  0  0  0
   -4.2021    1.9913   -1.7506 H   0  0  0  0  0  0  0  0  0  0  0  0
   -4.3863   -1.7613    1.3045 H   0  0  0  0  0  0  0  0  0  0  0  0
   -3.9795   -2.7150   -0.0902 H   0  0  0  0  0  0  0  0  0  0  0  0
    1.2871    0.7760   -2.0767 H   0  0  0  0  0  0  0  0  0  0  0  0
    1.4590   -0.9553   -1.8141 H   0  0  0  0  0  0  0  0  0  0  0  0
   -0.1063   -0.2816   -2.1947 H   0  0  0  0  0  0  0  0  0  0  0  0
    3.3347    0.0790   -0.7667 H   0  0  0  0  0  0  0  0  0  0  0  0
   -6.3794    0.4520   -1.5425 H   0  0  0  0  0  0  0  0  0  0  0  0
   -6.8247    1.3650   -0.1047 H   0  0  0  0  0  0  0  0  0  0  0  0
   -4.8318   -0.8770   -2.4301 H   0  0  0  0  0  0  0  0  0  0  0  0
   -3.3272    0.0089   -2.5280 H   0  0  0  0  0  0  0  0  0  0  0  0
   -3.3123   -1.7267   -2.2281 H   0  0  0  0  0  0  0  0  0  0  0  0
   -6.1022   -2.2206   -1.1950 H   0  0  0  0  0  0  0  0  0  0  0  0
   -7.8722   -0.9104   -0.1269 H   0  0  0  0  0  0  0  0  0  0  0  0
    4.4283    1.6101    0.8269 H   0  0  0  0  0  0  0  0  0  0  0  0
    2.4387   -2.0540   -0.2194 H   0  0  0  0  0  0  0  0  0  0  0  0
    2.5212   -1.7556    1.5453 H   0  0  0  0  0  0  0  0  0  0  0  0
    3.9466   -2.0659    0.5648 H   0  0  0  0  0  0  0  0  0  0  0  0
   -4.9982    3.1085    0.7390 H   0  0  0  0  0  0  0  0  0  0  0  0
    5.5869   -1.1881    1.2147 H   0  0  0  0  0  0  0  0  0  0  0  0
   -5.9665   -3.8973    0.3210 H   0  0  0  0  0  0  0  0  0  0  0  0
   -5.9775   -0.5610    1.9669 H   0  0  0  0  0  0  0  0  0  0  0  0
    5.4841   -0.6197   -1.2304 H   0  0  0  0  0  0  0  0  0  0  0  0
    4.0121   -0.3916    2.7694 H   0  0  0  0  0  0  0  0  0  0  0  0
    8.3306   -0.4899   -0.1519 H   0  0  0  0  0  0  0  0  0  0  0  0
    7.3997   -0.1238    1.7967 H   0  0  0  0  0  0  0  0  0  0  0  0
    6.6694    1.2963   -2.1940 H   0  0  0  0  0  0  0  0  0  0  0  0
    7.1782    1.8356   -0.5841 H   0  0  0  0  0  0  0  0  0  0  0  0
    5.4711    1.8652   -1.0605 H   0  0  0  0  0  0  0  0  0  0  0  0
    8.8900   -1.7018   -2.2764 H   0  0  0  0  0  0  0  0  0  0  0  0
    7.2350   -1.4230   -2.8409 H   0  0  0  0  0  0  0  0  0  0  0  0
    8.3333   -0.0596   -2.5364 H   0  0  0  0  0  0  0  0  0  0  0  0
    8.3417   -2.9912   -0.4068 H   0  0  0  0  0  0  0  0  0  0  0  0
    6.5836   -2.9467   -0.6227 H   0  0  0  0  0  0  0  0  0  0  0  0
    7.3228   -2.4325    0.9077 H   0  0  0  0  0  0  0  0  0  0  0  0
  1 18  1  0  0  0  0
  1 67  1  0  0  0  0
  2 24  1  0  0  0  0
  2 69  1  0  0  0  0
  3 25  1  0  0  0  0
  3 70  1  0  0  0  0
  4 26  1  0  0  0  0
  4 72  1  0  0  0  0
  5 28  1  0  0  0  0
  5 74  1  0  0  0  0
  6  7  1  0  0  0  0
  6 11  1  0  0  0  0
  6 13  1  0  0  0  0
  6 20  1  0  0  0  0
  7  8  1  0  0  0  0
  7 15  1  0  0  0  0
  7 34  1  0  0  0  0
  8  9  1  0  0  0  0
  8 16  1  0  0  0  0
  8 35  1  0  0  0  0
  9 10  1  0  0  0  0
  9 14  1  0  0  0  0
  9 36  1  0  0  0  0
 10 12  1  0  0  0  0
 10 19  1  0  0  0  0
 10 23  1  0  0  0  0
 11 17  1  0  0  0  0
 11 21  1  0  0  0  0
 11 37  1  0  0  0  0
 12 18  1  0  0  0  0
 12 22  1  0  0  0  0
 12 38  1  0  0  0  0
 13 14  1  0  0  0  0
 13 39  1  0  0  0  0
 13 40  1  0  0  0  0
 14 41  1  0  0  0  0
 14 42  1  0  0  0  0
 15 17  1  0  0  0  0
 15 43  1  0  0  0  0
 15 44  1  0  0  0  0
 16 18  1  0  0  0  0
 16 45  1  0  0  0  0
 16 46  1  0  0  0  0
 17 47  1  0  0  0  0
 17 48  1  0  0  0  0
 18 49  1  0  0  0  0
 19 24  1  0  0  0  0
 19 50  1  0  0  0  0
 19 51  1  0  0  0  0
 20 52  1  0  0  0  0
 20 53  1  0  0  0  0
 20 54  1  0  0  0  0
 21 26  1  0  0  0  0
 21 27  1  0  0  0  0
 21 55  1  0  0  0  0
 22 25  1  0  0  0  0
 22 56  1  0  0  0  0
 22 57  1  0  0  0  0
 23 58  1  0  0  0  0
 23 59  1  0  0  0  0
 23 60  1  0  0  0  0
 24 25  1  0  0  0  0
 24 61  1  0  0  0  0
 25 62  1  0  0  0  0
 26 28  1  0  0  0  0
 26 63  1  0  0  0  0
 27 64  1  0  0  0  0
 27 65  1  0  0  0  0
 27 66  1  0  0  0  0
 28 29  1  0  0  0  0
 28 68  1  0  0  0  0
 29 30  1  0  0  0  0
 29 31  1  0  0  0  0
 29 71  1  0  0  0  0
 30 32  1  0  0  0  0
 30 33  1  0  0  0  0
 30 73  1  0  0  0  0
 31 75  1  0  0  0  0
 31 76  1  0  0  0  0
 31 77  1  0  0  0  0
 32 78  1  0  0  0  0
 32 79  1  0  0  0  0
 32 80  1  0  0  0  0
 33 81  1  0  0  0  0
 33 82  1  0  0  0  0
 33 83  1  0  0  0  0
M  END
> <PUBCHEM_COMPOUND_CID>
23724595

> <PUBCHEM_CONFORMER_RMSD>
1

> <PUBCHEM_CONFORMER_DIVERSEORDER>
1
8
2
3
5
4
6
7

> <PUBCHEM_MMFF94_PARTIAL_CHARGES>
15
1 -0.68
18 0.28
2 -0.68
24 0.28
25 0.28
26 0.28
28 0.28
3 -0.68
4 -0.68
5 -0.68
67 0.4
69 0.4
70 0.4
72 0.4
74 0.4

> <PUBCHEM_EFFECTIVE_ROTOR_COUNT>
7.2

> <PUBCHEM_PHARMACOPHORE_FEATURES>
17
1 1 acceptor
1 1 donor
1 2 acceptor
1 2 donor
1 27 hydrophobe
1 3 acceptor
1 3 donor
1 31 hydrophobe
1 4 acceptor
1 4 donor
1 5 acceptor
1 5 donor
3 30 32 33 hydrophobe
5 6 7 11 15 17 rings
6 10 12 19 22 24 25 rings
6 6 7 8 9 13 14 rings
6 8 9 10 12 16 18 rings

> <PUBCHEM_HEAVY_ATOM_COUNT>
33

> <PUBCHEM_ATOM_DEF_STEREO_COUNT>
13

> <PUBCHEM_ATOM_UDEF_STEREO_COUNT>
1

> <PUBCHEM_BOND_DEF_STEREO_COUNT>
0

> <PUBCHEM_BOND_UDEF_STEREO_COUNT>
0

> <PUBCHEM_ISOTOPIC_ATOM_COUNT>
0

> <PUBCHEM_COMPONENT_COUNT>
1

> <PUBCHEM_CACTVS_TAUTO_COUNT>
1

> <PUBCHEM_CONFORMER_ID>
016A023300000001

> <PUBCHEM_MMFF94_ENERGY>
126.5367

> <PUBCHEM_FEATURE_SELFOVERLAP>
86.379

> <PUBCHEM_SHAPE_FINGERPRINT>
10076449 9 18187076261717840408
10299344 5 18060701706308690874
10319926 262 18337121098495564329
11007060 377 17632292350358371521
11315181 36 13110963133109069039
11524674 6 16588025697326172367
11578080 2 16843345616611583007
117089 54 17914043202152761171
11963148 33 18341622503100065698
12166972 35 17489309638127082461
12236239 1 17561086916502220008
12516196 113 18410296900011378672
13673619 4 17967250923530685672
13690498 29 18272091603967105781
13782708 43 17676497133511671230
13811026 1 18408891740977294758
13914758 101 15502367950245476498
14251764 18 17489872622065487323
14849402 71 18198341753944180389
14856354 85 18343299237452939463
14955137 171 18113339682795590456
15021287 119 14634870829793900027
15183329 4 17561082514640523494
15301273 46 17967532376425631866
15328829 1 17489583442001850614
15352257 5 18261109699309499766
15361156 5 18270675351449766447
15419008 47 18040720272733786040
1577012 14 17775567576486571572
18608769 82 18411135810114065523
18927931 339 18411143515828310967
20105231 36 18411693279515507755
2026 5 17897438622880234294
21033648 29 17677354752027403728
21130935 74 18041563520647361779
21150785 3 16272207479227078470
21267235 1 18411979144296174857
21781051 124 18260542338852069958
2303208 19 17967536770483273600
23081809 10 17060063678845806208
23522609 53 17631155545915011076
23559900 14 18338241448861788856
23569917 315 18042123168594613039
23569943 247 18190738842119417258
2747138 104 18411699842161408002
3004659 81 18202565064590648932
335352 9 18341619222751645989
3383291 50 18342743974715953826
34797466 226 18334853884545471772
350125 39 18341897368379849397
4107672 100 18201439245845443965
4258327 124 15625641835983985534
49967989 163 17703496697645955611
5104073 3 18336559324977846267
5265222 85 18336544920032061870
5381727 24 16081085975438187207
54039377 194 18059564764531761771
9831232 110 18335980987037967398
9896288 288 18041554862731868913
999808 66 18272081687293813979

> <PUBCHEM_SHAPE_MULTIPOLES>
649.78
22.43
2.59
1.44
18.31
0.29
-0.04
-10.11
-2.22
-2.62
-0.04
1.94
-0.12
1.39

> <PUBCHEM_SHAPE_SELFOVERLAP>
1345.141

> <PUBCHEM_SHAPE_VOLUME>
371

> <PUBCHEM_COORDINATE_TYPE>
2
5
10

$$$$

