5281366
  -OEChem-07051212563D

 82 89  0     1  0  0  0  0  0999 V2000
    1.3124    2.2660   -1.8804 O   0  0  0  0  0  0  0  0  0  0  0  0
    2.4818    0.5106    0.5211 O   0  0  0  0  0  0  0  0  0  0  0  0
    2.7716   -0.6426   -1.5317 O   0  0  0  0  0  0  0  0  0  0  0  0
    2.8562   -1.8296    0.3968 O   0  0  0  0  0  0  0  0  0  0  0  0
   -0.7355   -2.4039    0.2262 O   0  0  0  0  0  0  0  0  0  0  0  0
   -1.7656    1.2092    0.3803 O   0  0  0  0  0  0  0  0  0  0  0  0
   -2.1762    3.3294   -1.3363 O   0  0  0  0  0  0  0  0  0  0  0  0
   -1.2427    2.1106   -4.1560 O   0  0  0  0  0  0  0  0  0  0  0  0
   -2.3672    3.7878    1.5877 O   0  0  0  0  0  0  0  0  0  0  0  0
   -1.7920   -2.6142    2.2700 O   0  0  0  0  0  0  0  0  0  0  0  0
    0.5736    0.0356   -0.9720 C   0  0  1  0  0  0  0  0  0  0  0  0
    1.0243    0.4456    0.4760 C   0  0  2  0  0  0  0  0  0  0  0  0
    0.5923    1.0562   -2.0846 C   0  0  1  0  0  0  0  0  0  0  0  0
   -0.1147    2.3980   -2.0698 C   0  0  1  0  0  0  0  0  0  0  0  0
    1.4465   -1.1729   -1.3860 C   0  0  2  0  0  0  0  0  0  0  0  0
    0.5669    1.8896    0.8567 C   0  0  1  0  0  0  0  0  0  0  0  0
    0.5056   -0.6904    1.4746 C   0  0  1  0  0  0  0  0  0  0  0  0
    1.6260   -2.2076   -0.2545 C   0  0  2  0  0  0  0  0  0  0  0  0
   -0.8508    2.2937    0.4017 C   0  0  1  0  0  0  0  0  0  0  0  0
   -0.8320    3.0563   -0.9253 C   0  0  2  0  0  0  0  0  0  0  0  0
    0.5334   -2.1133    0.8153 C   0  0  2  0  0  0  0  0  0  0  0  0
    3.1738   -0.5537   -0.1617 C   0  0  2  0  0  0  0  0  0  0  0  0
   -0.4120    2.9969   -3.4122 C   0  0  0  0  0  0  0  0  0  0  0  0
    0.6135    2.3100    2.2999 C   0  0  0  0  0  0  0  0  0  0  0  0
    1.2555   -0.7654    2.8187 C   0  0  0  0  0  0  0  0  0  0  0  0
   -1.3350    3.1327    1.5683 C   0  0  0  0  0  0  0  0  0  0  0  0
    1.7993   -3.5987   -0.7795 C   0  0  0  0  0  0  0  0  0  0  0  0
   -0.4306    3.0248    2.7252 C   0  0  0  0  0  0  0  0  0  0  0  0
    4.6548   -0.2634   -0.0649 C   0  0  0  0  0  0  0  0  0  0  0  0
    3.0827   -4.2865   -0.4195 C   0  0  0  0  0  0  0  0  0  0  0  0
    0.8605   -4.1959   -1.5285 C   0  0  0  0  0  0  0  0  0  0  0  0
   -0.6809    3.6562    4.0375 C   0  0  0  0  0  0  0  0  0  0  0  0
    5.2961    0.4701   -1.0682 C   0  0  0  0  0  0  0  0  0  0  0  0
    5.3937   -0.7258    1.0288 C   0  0  0  0  0  0  0  0  0  0  0  0
   -1.7992   -2.3641    1.0751 C   0  0  0  0  0  0  0  0  0  0  0  0
    6.6620    0.7382   -0.9790 C   0  0  0  0  0  0  0  0  0  0  0  0
    6.7597   -0.4576    1.1180 C   0  0  0  0  0  0  0  0  0  0  0  0
   -2.9869   -1.9603    0.2889 C   0  0  0  0  0  0  0  0  0  0  0  0
    7.3937    0.2745    0.1140 C   0  0  0  0  0  0  0  0  0  0  0  0
   -4.1729   -1.8346    0.9012 C   0  0  0  0  0  0  0  0  0  0  0  0
   -5.4216   -1.4304    0.2315 C   0  0  0  0  0  0  0  0  0  0  0  0
   -5.3559   -0.7627   -0.9807 C   0  0  0  0  0  0  0  0  0  0  0  0
   -6.6373   -1.7258    0.8270 C   0  0  0  0  0  0  0  0  0  0  0  0
   -6.5379   -0.3798   -1.6147 C   0  0  0  0  0  0  0  0  0  0  0  0
   -7.8194   -1.3429    0.1928 C   0  0  0  0  0  0  0  0  0  0  0  0
   -7.7695   -0.6699   -1.0280 C   0  0  0  0  0  0  0  0  0  0  0  0
   -0.4662   -0.3035   -0.9453 H   0  0  0  0  0  0  0  0  0  0  0  0
    0.6762    0.5789   -3.0564 H   0  0  0  0  0  0  0  0  0  0  0  0
    1.1164   -1.5865   -2.3444 H   0  0  0  0  0  0  0  0  0  0  0  0
    1.2961    2.5863    0.4173 H   0  0  0  0  0  0  0  0  0  0  0  0
   -0.5251   -0.4314    1.7299 H   0  0  0  0  0  0  0  0  0  0  0  0
   -0.3564    4.0321   -0.7526 H   0  0  0  0  0  0  0  0  0  0  0  0
    0.7214   -2.8790    1.5811 H   0  0  0  0  0  0  0  0  0  0  0  0
    0.5097    3.1376   -3.9898 H   0  0  0  0  0  0  0  0  0  0  0  0
   -0.8960    3.9765   -3.3561 H   0  0  0  0  0  0  0  0  0  0  0  0
    1.4858    2.1370    2.9171 H   0  0  0  0  0  0  0  0  0  0  0  0
    2.3395   -0.8279    2.6977 H   0  0  0  0  0  0  0  0  0  0  0  0
    0.9370   -1.6458    3.3890 H   0  0  0  0  0  0  0  0  0  0  0  0
    1.0346    0.0857    3.4624 H   0  0  0  0  0  0  0  0  0  0  0  0
   -2.6124    1.5361    0.0311 H   0  0  0  0  0  0  0  0  0  0  0  0
   -2.2048    4.2379   -1.6812 H   0  0  0  0  0  0  0  0  0  0  0  0
    3.1152   -5.3095   -0.8110 H   0  0  0  0  0  0  0  0  0  0  0  0
    3.9439   -3.7565   -0.8397 H   0  0  0  0  0  0  0  0  0  0  0  0
    3.1972   -4.3572    0.6674 H   0  0  0  0  0  0  0  0  0  0  0  0
   -1.3951    2.5232   -5.0233 H   0  0  0  0  0  0  0  0  0  0  0  0
   -0.0624   -3.7026   -1.8106 H   0  0  0  0  0  0  0  0  0  0  0  0
    1.0026   -5.2060   -1.8994 H   0  0  0  0  0  0  0  0  0  0  0  0
   -1.5938    3.2537    4.4876 H   0  0  0  0  0  0  0  0  0  0  0  0
    0.1454    3.4753    4.7325 H   0  0  0  0  0  0  0  0  0  0  0  0
   -0.7978    4.7389    3.9276 H   0  0  0  0  0  0  0  0  0  0  0  0
    4.7459    0.8526   -1.9238 H   0  0  0  0  0  0  0  0  0  0  0  0
    4.9181   -1.2905    1.8262 H   0  0  0  0  0  0  0  0  0  0  0  0
    7.1554    1.3106   -1.7591 H   0  0  0  0  0  0  0  0  0  0  0  0
    7.3293   -0.8167    1.9701 H   0  0  0  0  0  0  0  0  0  0  0  0
   -2.8403   -1.7928   -0.7717 H   0  0  0  0  0  0  0  0  0  0  0  0
    8.4571    0.4843    0.1842 H   0  0  0  0  0  0  0  0  0  0  0  0
   -4.2618   -2.0388    1.9659 H   0  0  0  0  0  0  0  0  0  0  0  0
   -4.4204   -0.4959   -1.4622 H   0  0  0  0  0  0  0  0  0  0  0  0
   -6.6925   -2.2505    1.7770 H   0  0  0  0  0  0  0  0  0  0  0  0
   -6.4997    0.1491   -2.5626 H   0  0  0  0  0  0  0  0  0  0  0  0
   -8.7786   -1.5686    0.6495 H   0  0  0  0  0  0  0  0  0  0  0  0
   -8.6898   -0.3706   -1.5210 H   0  0  0  0  0  0  0  0  0  0  0  0
  1 13  1  0  0  0  0
  1 14  1  0  0  0  0
  2 12  1  0  0  0  0
  2 22  1  0  0  0  0
  3 15  1  0  0  0  0
  3 22  1  0  0  0  0
  4 18  1  0  0  0  0
  4 22  1  0  0  0  0
  5 21  1  0  0  0  0
  5 35  1  0  0  0  0
  6 19  1  0  0  0  0
  6 60  1  0  0  0  0
  7 20  1  0  0  0  0
  7 61  1  0  0  0  0
  8 23  1  0  0  0  0
  8 65  1  0  0  0  0
  9 26  2  0  0  0  0
 10 35  2  0  0  0  0
 11 12  1  0  0  0  0
 11 13  1  0  0  0  0
 11 15  1  0  0  0  0
 11 47  1  0  0  0  0
 12 16  1  0  0  0  0
 12 17  1  0  0  0  0
 13 14  1  0  0  0  0
 13 48  1  0  0  0  0
 14 20  1  0  0  0  0
 14 23  1  0  0  0  0
 15 18  1  0  0  0  0
 15 49  1  0  0  0  0
 16 19  1  0  0  0  0
 16 24  1  0  0  0  0
 16 50  1  0  0  0  0
 17 21  1  0  0  0  0
 17 25  1  0  0  0  0
 17 51  1  0  0  0  0
 18 21  1  0  0  0  0
 18 27  1  0  0  0  0
 19 20  1  0  0  0  0
 19 26  1  0  0  0  0
 20 52  1  0  0  0  0
 21 53  1  0  0  0  0
 22 29  1  0  0  0  0
 23 54  1  0  0  0  0
 23 55  1  0  0  0  0
 24 28  2  0  0  0  0
 24 56  1  0  0  0  0
 25 57  1  0  0  0  0
 25 58  1  0  0  0  0
 25 59  1  0  0  0  0
 26 28  1  0  0  0  0
 27 30  1  0  0  0  0
 27 31  2  0  0  0  0
 28 32  1  0  0  0  0
 29 33  2  0  0  0  0
 29 34  1  0  0  0  0
 30 62  1  0  0  0  0
 30 63  1  0  0  0  0
 30 64  1  0  0  0  0
 31 66  1  0  0  0  0
 31 67  1  0  0  0  0
 32 68  1  0  0  0  0
 32 69  1  0  0  0  0
 32 70  1  0  0  0  0
 33 36  1  0  0  0  0
 33 71  1  0  0  0  0
 34 37  2  0  0  0  0
 34 72  1  0  0  0  0
 35 38  1  0  0  0  0
 36 39  2  0  0  0  0
 36 73  1  0  0  0  0
 37 39  1  0  0  0  0
 37 74  1  0  0  0  0
 38 40  2  0  0  0  0
 38 75  1  0  0  0  0
 39 76  1  0  0  0  0
 40 41  1  0  0  0  0
 40 77  1  0  0  0  0
 41 42  2  0  0  0  0
 41 43  1  0  0  0  0
 42 44  1  0  0  0  0
 42 78  1  0  0  0  0
 43 45  2  0  0  0  0
 43 79  1  0  0  0  0
 44 46  2  0  0  0  0
 44 80  1  0  0  0  0
 45 46  1  0  0  0  0
 45 81  1  0  0  0  0
 46 82  1  0  0  0  0
M  END
> <PUBCHEM_COMPOUND_CID>
5281366

> <PUBCHEM_CONFORMER_RMSD>
1.2

> <PUBCHEM_CONFORMER_DIVERSEORDER>
1
3
2

> <PUBCHEM_MMFF94_PARTIAL_CHARGES>
63
1 -0.3
10 -0.57
11 0.09
12 0.28
13 -0.05
14 -0.04
15 0.28
16 0.14
18 0.42
19 0.34
2 -0.56
20 0.38
21 0.28
22 0.98
23 0.38
24 -0.29
26 0.49
27 -0.28
28 -0.12
29 -0.14
3 -0.56
30 0.14
31 -0.3
32 0.14
33 -0.15
34 -0.15
35 0.71
36 -0.15
37 -0.15
38 -0.14
39 -0.15
4 -0.56
40 -0.18
41 0.03
42 -0.15
43 -0.15
44 -0.15
45 -0.15
46 -0.15
48 0.1
5 -0.43
56 0.15
6 -0.68
60 0.4
61 0.4
65 0.4
66 0.15
67 0.15
7 -0.68
71 0.15
72 0.15
73 0.15
74 0.15
75 0.15
76 0.15
77 0.15
78 0.15
79 0.15
8 -0.68
80 0.15
81 0.15
82 0.15
9 -0.57

> <PUBCHEM_EFFECTIVE_ROTOR_COUNT>
8.4

> <PUBCHEM_PHARMACOPHORE_FEATURES>
17
1 1 acceptor
1 10 acceptor
1 2 acceptor
1 3 acceptor
1 4 acceptor
1 6 acceptor
1 6 donor
1 7 acceptor
1 7 donor
1 8 acceptor
1 8 donor
1 9 acceptor
10 2 3 4 11 12 15 17 18 21 22 rings
5 16 19 24 26 28 rings
6 29 33 34 36 37 39 rings
6 41 42 43 44 45 46 rings
7 11 12 13 14 16 19 20 rings

> <PUBCHEM_HEAVY_ATOM_COUNT>
46

> <PUBCHEM_ATOM_DEF_STEREO_COUNT>
11

> <PUBCHEM_ATOM_UDEF_STEREO_COUNT>
1

> <PUBCHEM_BOND_DEF_STEREO_COUNT>
1

> <PUBCHEM_BOND_UDEF_STEREO_COUNT>
0

> <PUBCHEM_ISOTOPIC_ATOM_COUNT>
0

> <PUBCHEM_COMPONENT_COUNT>
1

> <PUBCHEM_CACTVS_TAUTO_COUNT>
3

> <PUBCHEM_CONFORMER_ID>
0050965600000001

> <PUBCHEM_MMFF94_ENERGY>
168.2751

> <PUBCHEM_FEATURE_SELFOVERLAP>
86.443

> <PUBCHEM_SHAPE_FINGERPRINT>
10258939 38 17632027428238165844
10930396 42 18042708126117662410
11115154 58 17968088734358531027
11513181 2 17897991667831448663
11578080 2 17899389142973237578
12664476 115 18271808996279584387
12788726 201 18408040732147557610
13636023 20 17988652934386854999
13726171 33 16557646273235290605
140371 6 18271225167271669355
14068700 675 18410289177470581557
150020 26 18197208141151157011
15131766 46 15432029851645706208
15219462 58 17679603374077018392
15439362 3 17609222255840463145
15975801 100 15051195449222733015
20642791 13 18337945800729936635
22223350 30 17903921058697757915
24893992 56 17917713445349596459
469060 322 18059846307563323956
46939830 39 17489021548752861469
5912855 24 17824255132195494105
6004065 56 18041843900713509939

> <PUBCHEM_SHAPE_MULTIPOLES>
887.97
14.2
5.08
3.05
10.43
0.71
0.51
-7.93
1.59
0.96
-0.91
0.77
3.61
0.36

> <PUBCHEM_SHAPE_SELFOVERLAP>
1986.265

> <PUBCHEM_SHAPE_VOLUME>
460.8

> <PUBCHEM_COORDINATE_TYPE>
2
5
10

$$$$

