583075
  -OEChem-06241222442D

 55 56  0     0  0  0  0  0  0999 V2000
   14.1244    0.5000    0.0000 C   0  0  0  0  0  0  0  0  0  0  0  0
   15.0706    0.8047    0.0000 C   0  0  0  0  0  0  0  0  0  0  0  0
   15.6542    0.0000    0.0000 C   0  0  0  0  0  0  0  0  0  0  0  0
   15.0706   -0.8047    0.0000 C   0  0  0  0  0  0  0  0  0  0  0  0
   14.1244   -0.5000    0.0000 C   0  0  0  0  0  0  0  0  0  0  0  0
    8.9282    0.5000    0.0000 C   0  0  0  0  0  0  0  0  0  0  0  0
    8.0622    1.0000    0.0000 C   0  0  0  0  0  0  0  0  0  0  0  0
    9.7942    1.0000    0.0000 C   0  0  0  0  0  0  0  0  0  0  0  0
   10.6603    0.5000    0.0000 C   0  0  0  0  0  0  0  0  0  0  0  0
    7.1962    0.5000    0.0000 C   0  0  0  0  0  0  0  0  0  0  0  0
   11.5263    1.0000    0.0000 C   0  0  0  0  0  0  0  0  0  0  0  0
    6.3301    1.0000    0.0000 C   0  0  0  0  0  0  0  0  0  0  0  0
   12.3923    0.5000    0.0000 C   0  0  0  0  0  0  0  0  0  0  0  0
   13.2583    1.0000    0.0000 C   0  0  0  0  0  0  0  0  0  0  0  0
    5.4641    0.5000    0.0000 C   0  0  0  0  0  0  0  0  0  0  0  0
   13.2583   -1.0000    0.0000 C   0  0  0  0  0  0  0  0  0  0  0  0
    4.5981    1.0000    0.0000 C   0  0  0  0  0  0  0  0  0  0  0  0
   12.3923   -0.5000    0.0000 C   0  0  0  0  0  0  0  0  0  0  0  0
    3.7320    0.5000    0.0000 C   0  0  0  0  0  0  0  0  0  0  0  0
    2.8660    1.0000    0.0000 C   0  0  0  0  0  0  0  0  0  0  0  0
    2.0000    0.5000    0.0000 C   0  0  0  0  0  0  0  0  0  0  0  0
   15.6080    1.1140    0.0000 H   0  0  0  0  0  0  0  0  0  0  0  0
   14.8195    1.3716    0.0000 H   0  0  0  0  0  0  0  0  0  0  0  0
   16.1151   -0.4147    0.0000 H   0  0  0  0  0  0  0  0  0  0  0  0
   16.1151    0.4147    0.0000 H   0  0  0  0  0  0  0  0  0  0  0  0
   14.8195   -1.3716    0.0000 H   0  0  0  0  0  0  0  0  0  0  0  0
   15.6080   -1.1140    0.0000 H   0  0  0  0  0  0  0  0  0  0  0  0
    8.5297    0.0251    0.0000 H   0  0  0  0  0  0  0  0  0  0  0  0
    9.3267    0.0251    0.0000 H   0  0  0  0  0  0  0  0  0  0  0  0
    8.4607    1.4750    0.0000 H   0  0  0  0  0  0  0  0  0  0  0  0
    7.6636    1.4750    0.0000 H   0  0  0  0  0  0  0  0  0  0  0  0
   10.1928    1.4750    0.0000 H   0  0  0  0  0  0  0  0  0  0  0  0
    9.3957    1.4750    0.0000 H   0  0  0  0  0  0  0  0  0  0  0  0
   10.2617    0.0251    0.0000 H   0  0  0  0  0  0  0  0  0  0  0  0
   11.0588    0.0251    0.0000 H   0  0  0  0  0  0  0  0  0  0  0  0
    6.7976    0.0251    0.0000 H   0  0  0  0  0  0  0  0  0  0  0  0
    7.5947    0.0251    0.0000 H   0  0  0  0  0  0  0  0  0  0  0  0
   11.9248    1.4750    0.0000 H   0  0  0  0  0  0  0  0  0  0  0  0
   11.1278    1.4750    0.0000 H   0  0  0  0  0  0  0  0  0  0  0  0
    6.7287    1.4750    0.0000 H   0  0  0  0  0  0  0  0  0  0  0  0
    5.9316    1.4750    0.0000 H   0  0  0  0  0  0  0  0  0  0  0  0
    5.0656    0.0251    0.0000 H   0  0  0  0  0  0  0  0  0  0  0  0
    5.8626    0.0251    0.0000 H   0  0  0  0  0  0  0  0  0  0  0  0
   13.2583    1.6200    0.0000 H   0  0  0  0  0  0  0  0  0  0  0  0
    4.9966    1.4750    0.0000 H   0  0  0  0  0  0  0  0  0  0  0  0
    4.1996    1.4750    0.0000 H   0  0  0  0  0  0  0  0  0  0  0  0
   13.2583   -1.6200    0.0000 H   0  0  0  0  0  0  0  0  0  0  0  0
   11.8554   -0.8100    0.0000 H   0  0  0  0  0  0  0  0  0  0  0  0
    3.3335    0.0251    0.0000 H   0  0  0  0  0  0  0  0  0  0  0  0
    4.1306    0.0251    0.0000 H   0  0  0  0  0  0  0  0  0  0  0  0
    3.2646    1.4750    0.0000 H   0  0  0  0  0  0  0  0  0  0  0  0
    2.4675    1.4750    0.0000 H   0  0  0  0  0  0  0  0  0  0  0  0
    1.6900    1.0369    0.0000 H   0  0  0  0  0  0  0  0  0  0  0  0
    1.4631    0.1900    0.0000 H   0  0  0  0  0  0  0  0  0  0  0  0
    2.3100   -0.0369    0.0000 H   0  0  0  0  0  0  0  0  0  0  0  0
  1  2  1  0  0  0  0
  1  5  2  0  0  0  0
  1 14  1  0  0  0  0
  2  3  1  0  0  0  0
  2 22  1  0  0  0  0
  2 23  1  0  0  0  0
  3  4  1  0  0  0  0
  3 24  1  0  0  0  0
  3 25  1  0  0  0  0
  4  5  1  0  0  0  0
  4 26  1  0  0  0  0
  4 27  1  0  0  0  0
  5 16  1  0  0  0  0
  6  7  1  0  0  0  0
  6  8  1  0  0  0  0
  6 28  1  0  0  0  0
  6 29  1  0  0  0  0
  7 10  1  0  0  0  0
  7 30  1  0  0  0  0
  7 31  1  0  0  0  0
  8  9  1  0  0  0  0
  8 32  1  0  0  0  0
  8 33  1  0  0  0  0
  9 11  1  0  0  0  0
  9 34  1  0  0  0  0
  9 35  1  0  0  0  0
 10 12  1  0  0  0  0
 10 36  1  0  0  0  0
 10 37  1  0  0  0  0
 11 13  1  0  0  0  0
 11 38  1  0  0  0  0
 11 39  1  0  0  0  0
 12 15  1  0  0  0  0
 12 40  1  0  0  0  0
 12 41  1  0  0  0  0
 13 14  2  0  0  0  0
 13 18  1  0  0  0  0
 14 44  1  0  0  0  0
 15 17  1  0  0  0  0
 15 42  1  0  0  0  0
 15 43  1  0  0  0  0
 16 18  2  0  0  0  0
 16 47  1  0  0  0  0
 17 19  1  0  0  0  0
 17 45  1  0  0  0  0
 17 46  1  0  0  0  0
 18 48  1  0  0  0  0
 19 20  1  0  0  0  0
 19 49  1  0  0  0  0
 19 50  1  0  0  0  0
 20 21  1  0  0  0  0
 20 51  1  0  0  0  0
 20 52  1  0  0  0  0
 21 53  1  0  0  0  0
 21 54  1  0  0  0  0
 21 55  1  0  0  0  0
M  END
> <PUBCHEM_COMPOUND_CID>
583075

> <PUBCHEM_COMPOUND_CANONICALIZED>
1

> <PUBCHEM_CACTVS_COMPLEXITY>
244

> <PUBCHEM_CACTVS_HBOND_ACCEPTOR>
0

> <PUBCHEM_CACTVS_HBOND_DONOR>
0

> <PUBCHEM_CACTVS_ROTATABLE_BOND>
11

> <PUBCHEM_CACTVS_SUBSKEYS>
AAADcfB4AAAAAAAAAAAAAAAAAAAAAYAAAAAwAAAAAAAAAGABAAAAGAAAAAAADACAGAAyAIAAAACAAiBCAAACAAAgAAAIiAAAAIgIICKAERCAIAAggAAIiAcAgMAOwAACAAAQAACAAAQAACAAAAAACAAAAA==

> <PUBCHEM_IUPAC_OPENEYE_NAME>
5-dodecylindane

> <PUBCHEM_IUPAC_CAS_NAME>
5-dodecyl-2,3-dihydro-1H-indene

> <PUBCHEM_IUPAC_NAME>
5-dodecyl-2,3-dihydro-1H-indene

> <PUBCHEM_IUPAC_SYSTEMATIC_NAME>
5-dodecyl-2,3-dihydro-1H-indene

> <PUBCHEM_IUPAC_TRADITIONAL_NAME>
5-laurylindane

> <PUBCHEM_IUPAC_INCHI>
InChI=1S/C21H34/c1-2-3-4-5-6-7-8-9-10-11-13-19-16-17-20-14-12-15-21(20)18-19/h16-18H,2-15H2,1H3

> <PUBCHEM_IUPAC_INCHIKEY>
FLRMYFFQWQWQRN-UHFFFAOYSA-N

> <PUBCHEM_XLOGP3_AA>
9

> <PUBCHEM_EXACT_MASS>
286.266051

> <PUBCHEM_MOLECULAR_FORMULA>
C21H34

> <PUBCHEM_MOLECULAR_WEIGHT>
286.49466

> <PUBCHEM_OPENEYE_CAN_SMILES>
CCCCCCCCCCCCC1=CC2=C(CCC2)C=C1

> <PUBCHEM_OPENEYE_ISO_SMILES>
CCCCCCCCCCCCC1=CC2=C(CCC2)C=C1

> <PUBCHEM_CACTVS_TPSA>
0

> <PUBCHEM_MONOISOTOPIC_WEIGHT>
286.266051

> <PUBCHEM_TOTAL_CHARGE>
0

> <PUBCHEM_HEAVY_ATOM_COUNT>
21

> <PUBCHEM_ATOM_DEF_STEREO_COUNT>
0

> <PUBCHEM_ATOM_UDEF_STEREO_COUNT>
0

> <PUBCHEM_BOND_DEF_STEREO_COUNT>
0

> <PUBCHEM_BOND_UDEF_STEREO_COUNT>
0

> <PUBCHEM_ISOTOPIC_ATOM_COUNT>
0

> <PUBCHEM_COMPONENT_COUNT>
1

> <PUBCHEM_CACTVS_TAUTO_COUNT>
1

> <PUBCHEM_COORDINATE_TYPE>
1
5
255

> <PUBCHEM_BONDANNOTATIONS>
1  14  8
1  5  8
13  14  8
13  18  8
16  18  8
5  16  8

$$$$

