439336
  -OEChem-07051212453D

 66 68  0     1  0  0  0  0  0999 V2000
    0.0207    1.9554   -1.2825 O   0  0  0  0  0  0  0  0  0  0  0  0
   -3.4481    0.8028   -0.9126 O   0  0  0  0  0  0  0  0  0  0  0  0
    1.2672    1.8167    0.7015 O   0  0  0  0  0  0  0  0  0  0  0  0
   -1.5015   -1.1740   -0.6812 O   0  0  0  0  0  0  0  0  0  0  0  0
   -0.2116   -3.0025   -1.4516 O   0  0  0  0  0  0  0  0  0  0  0  0
   -0.9734    3.5990    0.8756 O   0  0  0  0  0  0  0  0  0  0  0  0
   -3.1523    2.0246    1.6195 O   0  0  0  0  0  0  0  0  0  0  0  0
    2.5631    3.0613   -1.4809 O   0  0  0  0  0  0  0  0  0  0  0  0
    4.8049    1.4031   -1.4088 O   0  0  0  0  0  0  0  0  0  0  0  0
    4.6836    0.6463    1.3769 O   0  0  0  0  0  0  0  0  0  0  0  0
   -5.3650    1.8500   -0.0535 O   0  0  0  0  0  0  0  0  0  0  0  0
   -3.0395   -2.8644    0.8802 O   0  0  0  0  0  0  0  0  0  0  0  0
   -0.9682   -4.0301    2.5013 O   0  0  0  0  0  0  0  0  0  0  0  0
    0.6626   -4.9823    0.4682 O   0  0  0  0  0  0  0  0  0  0  0  0
    1.0515    1.4669    3.4094 O   0  0  0  0  0  0  0  0  0  0  0  0
    2.5329   -2.2152   -2.1675 O   0  0  0  0  0  0  0  0  0  0  0  0
   -1.1973    1.6979   -0.5886 C   0  0  2  0  0  0  0  0  0  0  0  0
   -2.1641    0.9602   -1.5254 C   0  0  1  0  0  0  0  0  0  0  0  0
   -1.8079    3.0233   -0.1257 C   0  0  1  0  0  0  0  0  0  0  0  0
    1.1285    1.3347   -0.6372 C   0  0  2  0  0  0  0  0  0  0  0  0
   -3.2176    2.8099    0.4250 C   0  0  1  0  0  0  0  0  0  0  0  0
    2.3954    1.6408   -1.4353 C   0  0  2  0  0  0  0  0  0  0  0  0
    3.6051    1.0037   -0.7519 C   0  0  2  0  0  0  0  0  0  0  0  0
    3.6774    1.4140    0.7212 C   0  0  1  0  0  0  0  0  0  0  0  0
   -1.6502   -0.4320   -1.8780 C   0  0  0  0  0  0  0  0  0  0  0  0
   -4.0646    2.0536   -0.5980 C   0  0  1  0  0  0  0  0  0  0  0  0
    2.3284    1.1708    1.4124 C   0  0  1  0  0  0  0  0  0  0  0  0
   -1.4740   -2.5788   -0.9304 C   0  0  1  0  0  0  0  0  0  0  0  0
   -1.8101   -3.3483    0.3494 C   0  0  1  0  0  0  0  0  0  0  0  0
   -0.6908   -3.1964    1.3795 C   0  0  2  0  0  0  0  0  0  0  0  0
    0.6550   -3.5825    0.7593 C   0  0  2  0  0  0  0  0  0  0  0  0
    0.8828   -2.8041   -0.5430 C   0  0  1  0  0  0  0  0  0  0  0  0
    2.3231    1.7140    2.8377 C   0  0  0  0  0  0  0  0  0  0  0  0
    2.1539   -3.2385   -1.2649 C   0  0  0  0  0  0  0  0  0  0  0  0
   -1.0208    1.0836    0.3051 H   0  0  0  0  0  0  0  0  0  0  0  0
   -2.2832    1.5185   -2.4636 H   0  0  0  0  0  0  0  0  0  0  0  0
   -1.8322    3.7277   -0.9662 H   0  0  0  0  0  0  0  0  0  0  0  0
    0.9590    0.2582   -0.6208 H   0  0  0  0  0  0  0  0  0  0  0  0
   -3.6809    3.7612    0.7059 H   0  0  0  0  0  0  0  0  0  0  0  0
    2.3057    1.3064   -2.4740 H   0  0  0  0  0  0  0  0  0  0  0  0
    3.5498   -0.0883   -0.8251 H   0  0  0  0  0  0  0  0  0  0  0  0
    3.9745    2.4662    0.8006 H   0  0  0  0  0  0  0  0  0  0  0  0
   -0.6924   -0.3881   -2.4068 H   0  0  0  0  0  0  0  0  0  0  0  0
   -2.3884   -0.9098   -2.5338 H   0  0  0  0  0  0  0  0  0  0  0  0
   -4.1750    2.6467   -1.5144 H   0  0  0  0  0  0  0  0  0  0  0  0
    2.1022    0.0966    1.4596 H   0  0  0  0  0  0  0  0  0  0  0  0
   -2.2421   -2.8300   -1.6722 H   0  0  0  0  0  0  0  0  0  0  0  0
   -1.9546   -4.4122    0.1261 H   0  0  0  0  0  0  0  0  0  0  0  0
   -0.6613   -2.1634    1.7473 H   0  0  0  0  0  0  0  0  0  0  0  0
    1.4654   -3.4043    1.4740 H   0  0  0  0  0  0  0  0  0  0  0  0
    0.9526   -1.7408   -0.3103 H   0  0  0  0  0  0  0  0  0  0  0  0
    3.0871    1.2313    3.4545 H   0  0  0  0  0  0  0  0  0  0  0  0
    2.4849    2.7971    2.8418 H   0  0  0  0  0  0  0  0  0  0  0  0
   -1.3877    4.4324    1.1576 H   0  0  0  0  0  0  0  0  0  0  0  0
    2.0017   -4.1604   -1.8355 H   0  0  0  0  0  0  0  0  0  0  0  0
    2.9779   -3.3770   -0.5580 H   0  0  0  0  0  0  0  0  0  0  0  0
   -2.9583    1.1047    1.3726 H   0  0  0  0  0  0  0  0  0  0  0  0
    2.4492    3.4122   -0.5816 H   0  0  0  0  0  0  0  0  0  0  0  0
    4.7288    1.1392   -2.3416 H   0  0  0  0  0  0  0  0  0  0  0  0
    4.4313   -0.2911    1.3202 H   0  0  0  0  0  0  0  0  0  0  0  0
   -5.9750    1.7431   -0.8030 H   0  0  0  0  0  0  0  0  0  0  0  0
   -3.7195   -2.9747    0.1939 H   0  0  0  0  0  0  0  0  0  0  0  0
   -0.2339   -3.9268    3.1303 H   0  0  0  0  0  0  0  0  0  0  0  0
    0.0909   -5.1387   -0.3021 H   0  0  0  0  0  0  0  0  0  0  0  0
    1.0688    1.8246    4.3135 H   0  0  0  0  0  0  0  0  0  0  0  0
    3.3503   -2.5066   -2.6059 H   0  0  0  0  0  0  0  0  0  0  0  0
  1 17  1  0  0  0  0
  1 20  1  0  0  0  0
  2 18  1  0  0  0  0
  2 26  1  0  0  0  0
  3 20  1  0  0  0  0
  3 27  1  0  0  0  0
  4 25  1  0  0  0  0
  4 28  1  0  0  0  0
  5 28  1  0  0  0  0
  5 32  1  0  0  0  0
  6 19  1  0  0  0  0
  6 54  1  0  0  0  0
  7 21  1  0  0  0  0
  7 57  1  0  0  0  0
  8 22  1  0  0  0  0
  8 58  1  0  0  0  0
  9 23  1  0  0  0  0
  9 59  1  0  0  0  0
 10 24  1  0  0  0  0
 10 60  1  0  0  0  0
 11 26  1  0  0  0  0
 11 61  1  0  0  0  0
 12 29  1  0  0  0  0
 12 62  1  0  0  0  0
 13 30  1  0  0  0  0
 13 63  1  0  0  0  0
 14 31  1  0  0  0  0
 14 64  1  0  0  0  0
 15 33  1  0  0  0  0
 15 65  1  0  0  0  0
 16 34  1  0  0  0  0
 16 66  1  0  0  0  0
 17 18  1  0  0  0  0
 17 19  1  0  0  0  0
 17 35  1  0  0  0  0
 18 25  1  0  0  0  0
 18 36  1  0  0  0  0
 19 21  1  0  0  0  0
 19 37  1  0  0  0  0
 20 22  1  0  0  0  0
 20 38  1  0  0  0  0
 21 26  1  0  0  0  0
 21 39  1  0  0  0  0
 22 23  1  0  0  0  0
 22 40  1  0  0  0  0
 23 24  1  0  0  0  0
 23 41  1  0  0  0  0
 24 27  1  0  0  0  0
 24 42  1  0  0  0  0
 25 43  1  0  0  0  0
 25 44  1  0  0  0  0
 26 45  1  0  0  0  0
 27 33  1  0  0  0  0
 27 46  1  0  0  0  0
 28 29  1  0  0  0  0
 28 47  1  0  0  0  0
 29 30  1  0  0  0  0
 29 48  1  0  0  0  0
 30 31  1  0  0  0  0
 30 49  1  0  0  0  0
 31 32  1  0  0  0  0
 31 50  1  0  0  0  0
 32 34  1  0  0  0  0
 32 51  1  0  0  0  0
 33 52  1  0  0  0  0
 33 53  1  0  0  0  0
 34 55  1  0  0  0  0
 34 56  1  0  0  0  0
M  END
> <PUBCHEM_COMPOUND_CID>
439336

> <PUBCHEM_CONFORMER_RMSD>
1

> <PUBCHEM_CONFORMER_DIVERSEORDER>
2
20
28
6
92
53
21
87
112
65
108
19
96
15
85
27
39
83
10
48
36
74
109
103
31
16
89
30
32
64
17
62
57
111
50
54
66
37
38
84
47
69
95
41
80
104
100
107
82
8
18
86
94
29
76
61
110
60
22
90
91
40
106
13
24
34
58
77
105
12
7
26
73
81
11
42
5
71
25
68
3
59
23
52
78
43
45
101
79
14
97
55
75
88
113
33
63
9
67
44
51
98
1
56
70
49
102
99
72
46
93
4
35

> <PUBCHEM_MMFF94_PARTIAL_CHARGES>
45
1 -0.56
10 -0.68
11 -0.68
12 -0.68
13 -0.68
14 -0.68
15 -0.68
16 -0.68
17 0.28
18 0.28
19 0.28
2 -0.56
20 0.56
21 0.28
22 0.28
23 0.28
24 0.28
25 0.28
26 0.56
27 0.28
28 0.56
29 0.28
3 -0.56
30 0.28
31 0.28
32 0.28
33 0.28
34 0.28
4 -0.56
5 -0.56
54 0.4
57 0.4
58 0.4
59 0.4
6 -0.68
60 0.4
61 0.4
62 0.4
63 0.4
64 0.4
65 0.4
66 0.4
7 -0.68
8 -0.68
9 -0.68

> <PUBCHEM_EFFECTIVE_ROTOR_COUNT>
10.6

> <PUBCHEM_PHARMACOPHORE_FEATURES>
30
1 1 acceptor
1 10 acceptor
1 10 donor
1 11 acceptor
1 11 donor
1 12 acceptor
1 12 donor
1 13 acceptor
1 13 donor
1 14 acceptor
1 14 donor
1 15 acceptor
1 15 donor
1 16 acceptor
1 16 donor
1 2 acceptor
1 3 acceptor
1 4 acceptor
1 5 acceptor
1 6 acceptor
1 6 donor
1 7 acceptor
1 7 donor
1 8 acceptor
1 8 donor
1 9 acceptor
1 9 donor
6 2 17 18 19 21 26 rings
6 3 20 22 23 24 27 rings
6 5 28 29 30 31 32 rings

> <PUBCHEM_HEAVY_ATOM_COUNT>
34

> <PUBCHEM_ATOM_DEF_STEREO_COUNT>
15

> <PUBCHEM_ATOM_UDEF_STEREO_COUNT>
0

> <PUBCHEM_BOND_DEF_STEREO_COUNT>
0

> <PUBCHEM_BOND_UDEF_STEREO_COUNT>
0

> <PUBCHEM_ISOTOPIC_ATOM_COUNT>
0

> <PUBCHEM_COMPONENT_COUNT>
1

> <PUBCHEM_CACTVS_TAUTO_COUNT>
1

> <PUBCHEM_CONFORMER_ID>
0006B42800000002

> <PUBCHEM_MMFF94_ENERGY>
100.566

> <PUBCHEM_FEATURE_SELFOVERLAP>
152.437

> <PUBCHEM_SHAPE_FINGERPRINT>
10305334 12 16888708034162099193
12156800 1 16197857407497703363
12160290 23 17980787963887308173
12539773 59 16754736931674066219
12553582 1 17474111994748961430
12788726 201 18051693235537817869
13140716 1 18411145752715332182
133893 2 17835553743747343453
13726171 33 18054767517547752772
14251757 5 17983006756777076812
14787075 74 17763724882572328695
14955137 171 17173768741829308197
15927050 60 18409725197152095863
20764821 26 18342736346848383798
22956985 138 17840879791215986387
23559900 14 17838337737702685565
238918 7 18334576789665373546
3027735 51 18337394825377769807
35225 105 18042388158784097337
392239 28 18268418221940038323
5265222 85 18336548227647879684
6287921 2 17975432500668195939

> <PUBCHEM_SHAPE_MULTIPOLES>
605.8
6.85
6.43
2.38
2.06
7.23
1.41
-6.12
-0.55
-0.58
1.56
-1.39
-0.24
0.6

> <PUBCHEM_SHAPE_SELFOVERLAP>
1253.213

> <PUBCHEM_SHAPE_VOLUME>
337.7

> <PUBCHEM_COORDINATE_TYPE>
2
5
10

$$$$

