60751
  -OEChem-07051213022D

 84 92  0     0  0  0  0  0  0999 V2000
    4.8102    5.0675    0.0000 O   0  0  0  0  0  0  0  0  0  0  0  0
   12.6313    2.4760    0.0000 O   0  0  0  0  0  0  0  0  0  0  0  0
    2.4158   -2.7880    0.0000 O   0  0  0  0  0  0  0  0  0  0  0  0
   10.1809   -5.0710    0.0000 O   0  0  0  0  0  0  0  0  0  0  0  0
    7.4488    1.3475    0.0000 N   0  0  0  0  0  0  0  0  0  0  0  0
    5.9789   -0.0220    0.0000 N   0  0  0  0  0  0  0  0  0  0  0  0
    8.9841   -0.0220    0.0000 N   0  0  0  0  0  0  0  0  0  0  0  0
    7.4823   -1.3915    0.0000 N   0  0  0  0  0  0  0  0  0  0  0  0
    6.9483    2.9497    0.0000 C   0  0  0  0  0  0  0  0  0  0  0  0
    7.9494    2.9497    0.0000 C   0  0  0  0  0  0  0  0  0  0  0  0
    6.6469    1.9820    0.0000 C   0  0  0  0  0  0  0  0  0  0  0  0
    8.2843    2.0155    0.0000 C   0  0  0  0  0  0  0  0  0  0  0  0
    5.6792    1.7142    0.0000 C   0  0  0  0  0  0  0  0  0  0  0  0
    9.2520    1.7142    0.0000 C   0  0  0  0  0  0  0  0  0  0  0  0
    5.4113    0.7465    0.0000 C   0  0  0  0  0  0  0  0  0  0  0  0
    9.5516    0.7800    0.0000 C   0  0  0  0  0  0  0  0  0  0  0  0
    4.9780    2.4271    0.0000 C   0  0  0  0  0  0  0  0  0  0  0  0
    9.9868    2.3924    0.0000 C   0  0  0  0  0  0  0  0  0  0  0  0
    5.4113   -0.7904    0.0000 C   0  0  0  0  0  0  0  0  0  0  0  0
    9.5851   -0.7569    0.0000 C   0  0  0  0  0  0  0  0  0  0  0  0
    5.7127   -1.7246    0.0000 C   0  0  0  0  0  0  0  0  0  0  0  0
    9.2854   -1.7246    0.0000 C   0  0  0  0  0  0  0  0  0  0  0  0
    4.4436    0.4786    0.0000 C   0  0  0  0  0  0  0  0  0  0  0  0
   10.5210    0.5121    0.0000 C   0  0  0  0  0  0  0  0  0  0  0  0
    4.4436   -0.5225    0.0000 C   0  0  0  0  0  0  0  0  0  0  0  0
   10.5210   -0.4891    0.0000 C   0  0  0  0  0  0  0  0  0  0  0  0
    6.6804   -2.0260    0.0000 C   0  0  0  0  0  0  0  0  0  0  0  0
    8.2843   -1.9925    0.0000 C   0  0  0  0  0  0  0  0  0  0  0  0
    5.0420   -2.4663    0.0000 C   0  0  0  0  0  0  0  0  0  0  0  0
    9.9923   -2.4320    0.0000 C   0  0  0  0  0  0  0  0  0  0  0  0
    5.2447    3.3909    0.0000 C   0  0  0  0  0  0  0  0  0  0  0  0
   10.9416    2.0951    0.0000 C   0  0  0  0  0  0  0  0  0  0  0  0
    4.0099    2.1762    0.0000 C   0  0  0  0  0  0  0  0  0  0  0  0
    9.7669    3.3679    0.0000 C   0  0  0  0  0  0  0  0  0  0  0  0
    6.9817   -2.9602    0.0000 C   0  0  0  0  0  0  0  0  0  0  0  0
    7.9829   -2.9602    0.0000 C   0  0  0  0  0  0  0  0  0  0  0  0
    4.5435    4.1038    0.0000 C   0  0  0  0  0  0  0  0  0  0  0  0
   11.6765    2.7733    0.0000 C   0  0  0  0  0  0  0  0  0  0  0  0
    3.3087    2.8892    0.0000 C   0  0  0  0  0  0  0  0  0  0  0  0
   10.5018    4.0461    0.0000 C   0  0  0  0  0  0  0  0  0  0  0  0
    4.0643   -2.2563    0.0000 C   0  0  0  0  0  0  0  0  0  0  0  0
    9.7332   -3.3978    0.0000 C   0  0  0  0  0  0  0  0  0  0  0  0
    5.3490   -3.4180    0.0000 C   0  0  0  0  0  0  0  0  0  0  0  0
   10.9583   -2.1735    0.0000 C   0  0  0  0  0  0  0  0  0  0  0  0
    3.5754    3.8529    0.0000 C   0  0  0  0  0  0  0  0  0  0  0  0
   11.4566    3.7488    0.0000 C   0  0  0  0  0  0  0  0  0  0  0  0
    3.3936   -2.9980    0.0000 C   0  0  0  0  0  0  0  0  0  0  0  0
   10.4401   -4.1051    0.0000 C   0  0  0  0  0  0  0  0  0  0  0  0
    4.6782   -4.1598    0.0000 C   0  0  0  0  0  0  0  0  0  0  0  0
   11.6652   -2.8808    0.0000 C   0  0  0  0  0  0  0  0  0  0  0  0
    3.7005   -3.9498    0.0000 C   0  0  0  0  0  0  0  0  0  0  0  0
   11.4061   -3.8466    0.0000 C   0  0  0  0  0  0  0  0  0  0  0  0
    7.0105    3.5666    0.0000 H   0  0  0  0  0  0  0  0  0  0  0  0
    6.3408    3.0737    0.0000 H   0  0  0  0  0  0  0  0  0  0  0  0
    8.5532    3.0908    0.0000 H   0  0  0  0  0  0  0  0  0  0  0  0
    7.8785    3.5657    0.0000 H   0  0  0  0  0  0  0  0  0  0  0  0
    6.5989   -0.0220    0.0000 H   0  0  0  0  0  0  0  0  0  0  0  0
    8.3644   -0.0435    0.0000 H   0  0  0  0  0  0  0  0  0  0  0  0
    3.9502    0.8540    0.0000 H   0  0  0  0  0  0  0  0  0  0  0  0
   11.0143    0.8876    0.0000 H   0  0  0  0  0  0  0  0  0  0  0  0
    3.9502   -0.8979    0.0000 H   0  0  0  0  0  0  0  0  0  0  0  0
   11.0161   -0.8623    0.0000 H   0  0  0  0  0  0  0  0  0  0  0  0
    5.8449    3.5464    0.0000 H   0  0  0  0  0  0  0  0  0  0  0  0
   11.0780    1.4903    0.0000 H   0  0  0  0  0  0  0  0  0  0  0  0
    3.8445    1.5787    0.0000 H   0  0  0  0  0  0  0  0  0  0  0  0
    9.1750    3.5522    0.0000 H   0  0  0  0  0  0  0  0  0  0  0  0
    6.6168   -3.4614    0.0000 H   0  0  0  0  0  0  0  0  0  0  0  0
    8.3504   -3.4595    0.0000 H   0  0  0  0  0  0  0  0  0  0  0  0
    2.7085    2.7336    0.0000 H   0  0  0  0  0  0  0  0  0  0  0  0
   10.3654    4.6509    0.0000 H   0  0  0  0  0  0  0  0  0  0  0  0
    3.8739   -1.6663    0.0000 H   0  0  0  0  0  0  0  0  0  0  0  0
    9.1342   -3.5581    0.0000 H   0  0  0  0  0  0  0  0  0  0  0  0
    5.9551   -3.5483    0.0000 H   0  0  0  0  0  0  0  0  0  0  0  0
   11.1190   -1.5746    0.0000 H   0  0  0  0  0  0  0  0  0  0  0  0
    3.1407    4.2949    0.0000 H   0  0  0  0  0  0  0  0  0  0  0  0
   11.9122    4.1693    0.0000 H   0  0  0  0  0  0  0  0  0  0  0  0
    4.8686   -4.7498    0.0000 H   0  0  0  0  0  0  0  0  0  0  0  0
   12.2641   -2.7205    0.0000 H   0  0  0  0  0  0  0  0  0  0  0  0
    3.2847   -4.4096    0.0000 H   0  0  0  0  0  0  0  0  0  0  0  0
   11.8443   -4.2852    0.0000 H   0  0  0  0  0  0  0  0  0  0  0  0
    4.3755    5.5095    0.0000 H   0  0  0  0  0  0  0  0  0  0  0  0
   13.0869    2.8965    0.0000 H   0  0  0  0  0  0  0  0  0  0  0  0
    2.0000   -3.2479    0.0000 H   0  0  0  0  0  0  0  0  0  0  0  0
   10.6192   -5.5095    0.0000 H   0  0  0  0  0  0  0  0  0  0  0  0
  1 37  1  0  0  0  0
  1 81  1  0  0  0  0
  2 38  1  0  0  0  0
  2 82  1  0  0  0  0
  3 47  1  0  0  0  0
  3 83  1  0  0  0  0
  4 48  1  0  0  0  0
  4 84  1  0  0  0  0
  5 11  2  0  0  0  0
  5 12  1  0  0  0  0
  6 15  1  0  0  0  0
  6 19  1  0  0  0  0
  6 57  1  0  0  0  0
  7 16  1  0  0  0  0
  7 20  1  0  0  0  0
  7 58  1  0  0  0  0
  8 27  2  0  0  0  0
  8 28  1  0  0  0  0
  9 10  1  0  0  0  0
  9 11  1  0  0  0  0
  9 53  1  0  0  0  0
  9 54  1  0  0  0  0
 10 12  1  0  0  0  0
 10 55  1  0  0  0  0
 10 56  1  0  0  0  0
 11 13  1  0  0  0  0
 12 14  2  0  0  0  0
 13 15  2  0  0  0  0
 13 17  1  0  0  0  0
 14 16  1  0  0  0  0
 14 18  1  0  0  0  0
 15 23  1  0  0  0  0
 16 24  2  0  0  0  0
 17 31  2  0  0  0  0
 17 33  1  0  0  0  0
 18 32  2  0  0  0  0
 18 34  1  0  0  0  0
 19 21  2  0  0  0  0
 19 25  1  0  0  0  0
 20 22  1  0  0  0  0
 20 26  2  0  0  0  0
 21 27  1  0  0  0  0
 21 29  1  0  0  0  0
 22 28  2  0  0  0  0
 22 30  1  0  0  0  0
 23 25  2  0  0  0  0
 23 59  1  0  0  0  0
 24 26  1  0  0  0  0
 24 60  1  0  0  0  0
 25 61  1  0  0  0  0
 26 62  1  0  0  0  0
 27 35  1  0  0  0  0
 28 36  1  0  0  0  0
 29 41  2  0  0  0  0
 29 43  1  0  0  0  0
 30 42  2  0  0  0  0
 30 44  1  0  0  0  0
 31 37  1  0  0  0  0
 31 63  1  0  0  0  0
 32 38  1  0  0  0  0
 32 64  1  0  0  0  0
 33 39  2  0  0  0  0
 33 65  1  0  0  0  0
 34 40  2  0  0  0  0
 34 66  1  0  0  0  0
 35 36  2  0  0  0  0
 35 67  1  0  0  0  0
 36 68  1  0  0  0  0
 37 45  2  0  0  0  0
 38 46  2  0  0  0  0
 39 45  1  0  0  0  0
 39 69  1  0  0  0  0
 40 46  1  0  0  0  0
 40 70  1  0  0  0  0
 41 47  1  0  0  0  0
 41 71  1  0  0  0  0
 42 48  1  0  0  0  0
 42 72  1  0  0  0  0
 43 49  2  0  0  0  0
 43 73  1  0  0  0  0
 44 50  2  0  0  0  0
 44 74  1  0  0  0  0
 45 75  1  0  0  0  0
 46 76  1  0  0  0  0
 47 51  2  0  0  0  0
 48 52  2  0  0  0  0
 49 51  1  0  0  0  0
 49 77  1  0  0  0  0
 50 52  1  0  0  0  0
 50 78  1  0  0  0  0
 51 79  1  0  0  0  0
 52 80  1  0  0  0  0
M  END
> <PUBCHEM_COMPOUND_CID>
60751

> <PUBCHEM_COMPOUND_CANONICALIZED>
1

> <PUBCHEM_CACTVS_COMPLEXITY>
1090

> <PUBCHEM_CACTVS_HBOND_ACCEPTOR>
6

> <PUBCHEM_CACTVS_HBOND_DONOR>
6

> <PUBCHEM_CACTVS_ROTATABLE_BOND>
4

> <PUBCHEM_CACTVS_SUBSKEYS>
AAADcfB/uAAAAAAAAAAAAAAAAAAAAWLFiwAwYMGAAAAAAAAB/gAAHgAQCAAADAyBngAwxrLJkgCgAyRiRACCgCAhIiAImSA2bJgIJuLC0dOEdAhk0BHI2AeQ0PMOgAABAAAAAAAAAAIAAAAAAAAAAAAAAA==

> <PUBCHEM_IUPAC_OPENEYE_NAME>
3-[10,15,20-tris(3-hydroxyphenyl)-2,3,22,24-tetrahydroporphyrin-5-yl]phenol

> <PUBCHEM_IUPAC_CAS_NAME>
3-[10,15,20-tris(3-hydroxyphenyl)-2,3,22,24-tetrahydroporphyrin-5-yl]phenol

> <PUBCHEM_IUPAC_NAME>
3-[10,15,20-tris(3-hydroxyphenyl)-2,3,22,24-tetrahydroporphyrin-5-yl]phenol

> <PUBCHEM_IUPAC_SYSTEMATIC_NAME>
3-[10,15,20-tris(3-hydroxyphenyl)-2,3,22,24-tetrahydroporphyrin-5-yl]phenol

> <PUBCHEM_IUPAC_TRADITIONAL_NAME>
3-[10,15,20-tris(3-hydroxyphenyl)-2,3,22,24-tetrahydroporphin-5-yl]phenol

> <PUBCHEM_IUPAC_INCHI>
InChI=1S/C44H32N4O4/c49-29-9-1-5-25(21-29)41-33-13-15-35(45-33)42(26-6-2-10-30(50)22-26)37-17-19-39(47-37)44(28-8-4-12-32(52)24-28)40-20-18-38(48-40)43(36-16-14-34(41)46-36)27-7-3-11-31(51)23-27/h1-17,19,21-24,46-47,49-52H,18,20H2

> <PUBCHEM_IUPAC_INCHIKEY>
LYPFDBRUNKHDGX-UHFFFAOYSA-N

> <PUBCHEM_XLOGP3_AA>
8.8

> <PUBCHEM_EXACT_MASS>
680.242356

> <PUBCHEM_MOLECULAR_FORMULA>
C44H32N4O4

> <PUBCHEM_MOLECULAR_WEIGHT>
680.74928

> <PUBCHEM_OPENEYE_CAN_SMILES>
C1CC2=NC1=C(C3=CC=C(N3)C(=C4C=CC(=N4)C(=C5C=CC(=C2C6=CC(=CC=C6)O)N5)C7=CC(=CC=C7)O)C8=CC(=CC=C8)O)C9=CC(=CC=C9)O

> <PUBCHEM_OPENEYE_ISO_SMILES>
C1CC2=NC1=C(C3=CC=C(N3)C(=C4C=CC(=N4)C(=C5C=CC(=C2C6=CC(=CC=C6)O)N5)C7=CC(=CC=C7)O)C8=CC(=CC=C8)O)C9=CC(=CC=C9)O

> <PUBCHEM_CACTVS_TPSA>
138

> <PUBCHEM_MONOISOTOPIC_WEIGHT>
680.242356

> <PUBCHEM_TOTAL_CHARGE>
0

> <PUBCHEM_HEAVY_ATOM_COUNT>
52

> <PUBCHEM_ATOM_DEF_STEREO_COUNT>
0

> <PUBCHEM_ATOM_UDEF_STEREO_COUNT>
0

> <PUBCHEM_BOND_DEF_STEREO_COUNT>
0

> <PUBCHEM_BOND_UDEF_STEREO_COUNT>
0

> <PUBCHEM_ISOTOPIC_ATOM_COUNT>
0

> <PUBCHEM_COMPONENT_COUNT>
1

> <PUBCHEM_CACTVS_TAUTO_COUNT>
986

> <PUBCHEM_COORDINATE_TYPE>
1
5
255

> <PUBCHEM_BONDANNOTATIONS>
11  13  8
12  14  8
13  15  8
14  16  8
15  23  8
16  24  8
17  31  8
17  33  8
18  32  8
18  34  8
19  21  8
19  25  8
20  22  8
20  26  8
21  27  8
22  28  8
23  25  8
24  26  8
29  41  8
29  43  8
30  42  8
30  44  8
31  37  8
32  38  8
33  39  8
34  40  8
37  45  8
38  46  8
39  45  8
40  46  8
41  47  8
42  48  8
43  49  8
44  50  8
47  51  8
48  52  8
49  51  8
5  11  8
5  12  8
50  52  8
6  15  8
6  19  8
7  16  8
7  20  8
8  27  8
8  28  8

$$$$

