442486
  -OEChem-07051212582D

 45 48  0     1  0  0  0  0  0999 V2000
    7.4749   -2.2230    0.0000 O   0  0  0  0  0  0  0  0  0  0  0  0
    5.1277    2.1572    0.0000 O   0  0  0  0  0  0  0  0  0  0  0  0
    7.2252    2.2230    0.0000 N   0  0  3  0  0  0  0  0  0  0  0  0
    5.7855   -0.2706    0.0000 C   0  0  1  0  0  0  0  0  0  0  0  0
    6.7252   -0.6126    0.0000 C   0  0  2  0  0  0  0  0  0  0  0  0
    5.1755   -1.0555    0.0000 C   0  0  2  0  0  0  0  0  0  0  0  0
    5.2855    0.5954    0.0000 C   0  0  0  0  0  0  0  0  0  0  0  0
    6.6147    0.8688    0.0000 C   0  0  0  0  0  0  0  0  0  0  0  0
    5.7321   -1.8792    0.0000 C   0  0  0  0  0  0  0  0  0  0  0  0
    7.6649   -0.2706    0.0000 C   0  0  0  0  0  0  0  0  0  0  0  0
    6.6879   -1.6060    0.0000 C   0  0  0  0  0  0  0  0  0  0  0  0
    3.6598   -1.0531    0.0000 C   0  0  0  0  0  0  0  0  0  0  0  0
    5.4088    1.1976    0.0000 C   0  0  0  0  0  0  0  0  0  0  0  0
    2.9947    0.3089    0.0000 C   0  0  2  0  0  0  0  0  0  0  0  0
    5.4592    1.5802    0.0000 C   0  0  0  0  0  0  0  0  0  0  0  0
    3.9248    1.5057    0.0000 C   0  0  0  0  0  0  0  0  0  0  0  0
    8.1649    0.5954    0.0000 C   0  0  0  0  0  0  0  0  0  0  0  0
    6.2252    2.2230    0.0000 C   0  0  0  0  0  0  0  0  0  0  0  0
    7.9912    1.5802    0.0000 C   0  0  0  0  0  0  0  0  0  0  0  0
    2.0000    0.4119    0.0000 C   0  0  0  0  0  0  0  0  0  0  0  0
    4.7762   -1.8059    0.0000 H   0  0  0  0  0  0  0  0  0  0  0  0
    4.7315    0.8737    0.0000 H   0  0  0  0  0  0  0  0  0  0  0  0
    4.8600    0.1445    0.0000 H   0  0  0  0  0  0  0  0  0  0  0  0
    6.1745    1.3053    0.0000 H   0  0  0  0  0  0  0  0  0  0  0  0
    7.2253    0.7611    0.0000 H   0  0  0  0  0  0  0  0  0  0  0  0
    5.1848   -2.1704    0.0000 H   0  0  0  0  0  0  0  0  0  0  0  0
    5.9642   -2.4541    0.0000 H   0  0  0  0  0  0  0  0  0  0  0  0
    7.7009   -0.8895    0.0000 H   0  0  0  0  0  0  0  0  0  0  0  0
    8.2682   -0.4136    0.0000 H   0  0  0  0  0  0  0  0  0  0  0  0
    3.0679   -1.2377    0.0000 H   0  0  0  0  0  0  0  0  0  0  0  0
    3.7527   -1.6661    0.0000 H   0  0  0  0  0  0  0  0  0  0  0  0
    2.7513    0.8791    0.0000 H   0  0  0  0  0  0  0  0  0  0  0  0
    5.2136    2.1495    0.0000 H   0  0  0  0  0  0  0  0  0  0  0  0
    4.8434    1.5083    0.0000 H   0  0  0  0  0  0  0  0  0  0  0  0
    4.1412    2.0867    0.0000 H   0  0  0  0  0  0  0  0  0  0  0  0
    3.3832    1.8077    0.0000 H   0  0  0  0  0  0  0  0  0  0  0  0
    8.5904    0.1445    0.0000 H   0  0  0  0  0  0  0  0  0  0  0  0
    8.7190    0.8737    0.0000 H   0  0  0  0  0  0  0  0  0  0  0  0
    6.4030    2.8170    0.0000 H   0  0  0  0  0  0  0  0  0  0  0  0
    5.7072    2.5637    0.0000 H   0  0  0  0  0  0  0  0  0  0  0  0
    8.6070    1.5083    0.0000 H   0  0  0  0  0  0  0  0  0  0  0  0
    8.2368    2.1495    0.0000 H   0  0  0  0  0  0  0  0  0  0  0  0
    2.0639    1.0286    0.0000 H   0  0  0  0  0  0  0  0  0  0  0  0
    1.3833    0.4758    0.0000 H   0  0  0  0  0  0  0  0  0  0  0  0
    1.9361   -0.2048    0.0000 H   0  0  0  0  0  0  0  0  0  0  0  0
  1 11  2  0  0  0  0
  2 13  2  0  0  0  0
  3  8  1  0  0  0  0
  3 18  1  0  0  0  0
  3 19  1  0  0  0  0
  4  5  1  0  0  0  0
  4  6  1  0  0  0  0
  4  7  1  0  0  0  0
  4 13  1  6  0  0  0
  5  8  1  0  0  0  0
  5 10  1  0  0  0  0
  5 11  1  1  0  0  0
  6  9  1  0  0  0  0
  6 12  1  0  0  0  0
  6 21  1  1  0  0  0
  7 15  1  0  0  0  0
  7 22  1  0  0  0  0
  7 23  1  0  0  0  0
  8 24  1  0  0  0  0
  8 25  1  0  0  0  0
  9 11  1  0  0  0  0
  9 26  1  0  0  0  0
  9 27  1  0  0  0  0
 10 17  1  0  0  0  0
 10 28  1  0  0  0  0
 10 29  1  0  0  0  0
 12 14  1  0  0  0  0
 12 30  1  0  0  0  0
 12 31  1  0  0  0  0
 13 16  1  0  0  0  0
 14 16  1  0  0  0  0
 14 20  1  1  0  0  0
 14 32  1  0  0  0  0
 15 18  1  0  0  0  0
 15 33  1  0  0  0  0
 15 34  1  0  0  0  0
 16 35  1  0  0  0  0
 16 36  1  0  0  0  0
 17 19  1  0  0  0  0
 17 37  1  0  0  0  0
 17 38  1  0  0  0  0
 18 39  1  0  0  0  0
 18 40  1  0  0  0  0
 19 41  1  0  0  0  0
 19 42  1  0  0  0  0
 20 43  1  0  0  0  0
 20 44  1  0  0  0  0
 20 45  1  0  0  0  0
M  END
> <PUBCHEM_COMPOUND_CID>
442486

> <PUBCHEM_COMPOUND_CANONICALIZED>
1

> <PUBCHEM_CACTVS_COMPLEXITY>
474

> <PUBCHEM_CACTVS_HBOND_ACCEPTOR>
3

> <PUBCHEM_CACTVS_HBOND_DONOR>
0

> <PUBCHEM_CACTVS_ROTATABLE_BOND>
0

> <PUBCHEM_CACTVS_SUBSKEYS>
AAADceB6MAAAAAAAAAAAAAAAAAAAAYAAAAA8QAAABYAAAHiwAAAAHgAAAAAADwTBgAQCAAMAAAAIAIAQAAAAAAAAAAAAAAEIAAAAABoAgAAEAAAAAACAAAEdi8CvgAAAAAAAAACAAAQAACAAAQAACAAAAA==

> <PUBCHEM_IUPAC_INCHI>
InChI=1S/C17H25NO2/c1-12-8-13-10-14(19)16-4-2-6-18(11-16)7-3-5-17(13,16)15(20)9-12/h12-13H,2-11H2,1H3/t12-,13+,16+,17-/m1/s1

> <PUBCHEM_IUPAC_INCHIKEY>
SJIMDGIDDDGXLI-OSRSDYAFSA-N

> <PUBCHEM_XLOGP3_AA>
1.5

> <PUBCHEM_EXACT_MASS>
275.188529

> <PUBCHEM_MOLECULAR_FORMULA>
C17H25NO2

> <PUBCHEM_MOLECULAR_WEIGHT>
275.3859

> <PUBCHEM_OPENEYE_CAN_SMILES>
CC1CC2CC(=O)C34C2(CCCN(C3)CCC4)C(=O)C1

> <PUBCHEM_OPENEYE_ISO_SMILES>
C[C@@H]1C[C@H]2CC(=O)[C@@]34[C@@]2(CCCN(C3)CCC4)C(=O)C1

> <PUBCHEM_CACTVS_TPSA>
37.4

> <PUBCHEM_MONOISOTOPIC_WEIGHT>
275.188529

> <PUBCHEM_TOTAL_CHARGE>
0

> <PUBCHEM_HEAVY_ATOM_COUNT>
20

> <PUBCHEM_ATOM_DEF_STEREO_COUNT>
4

> <PUBCHEM_ATOM_UDEF_STEREO_COUNT>
0

> <PUBCHEM_BOND_DEF_STEREO_COUNT>
0

> <PUBCHEM_BOND_UDEF_STEREO_COUNT>
0

> <PUBCHEM_ISOTOPIC_ATOM_COUNT>
0

> <PUBCHEM_COMPONENT_COUNT>
1

> <PUBCHEM_CACTVS_TAUTO_COUNT>
4

> <PUBCHEM_COORDINATE_TYPE>
1
5
255

> <PUBCHEM_BONDANNOTATIONS>
14  20  5
4  13  6
5  11  5
6  21  5

$$$$

