442008
  -OEChem-07051212562D

 88 92  0     1  0  0  0  0  0999 V2000
    3.4789   -0.8000    0.0000 O   0  0  0  0  0  0  0  0  0  0  0  0
    3.2611    2.2682    0.0000 O   0  0  0  0  0  0  0  0  0  0  0  0
    6.8093   -1.4150    0.0000 O   0  0  0  0  0  0  0  0  0  0  0  0
    5.1865    4.3729    0.0000 O   0  0  0  0  0  0  0  0  0  0  0  0
    4.3630    5.3561    0.0000 O   0  0  0  0  0  0  0  0  0  0  0  0
    4.4656   -2.2236    0.0000 O   0  0  0  0  0  0  0  0  0  0  0  0
    7.8416    2.2987    0.0000 O   0  0  0  0  0  0  0  0  0  0  0  0
    8.2328   -0.4283    0.0000 O   0  0  0  0  0  0  0  0  0  0  0  0
    9.1113    3.4768    0.0000 O   0  0  0  0  0  0  0  0  0  0  0  0
    5.1569    0.3630    0.0000 C   0  0  1  0  0  0  0  0  0  0  0  0
    4.3008   -0.2304    0.0000 C   0  0  1  0  0  0  0  0  0  0  0  0
    5.2430   -0.6755    0.0000 C   0  0  2  0  0  0  0  0  0  0  0  0
    5.0630    1.4004    0.0000 C   0  0  1  0  0  0  0  0  0  0  0  0
    4.1621    1.8343    0.0000 C   0  0  1  0  0  0  0  0  0  0  0  0
    3.3623    0.2216    0.0000 C   0  0  0  0  0  0  0  0  0  0  0  0
    3.2925    1.2609    0.0000 C   0  0  1  0  0  0  0  0  0  0  0  0
    6.2396   -0.5931    0.0000 C   0  0  0  0  0  0  0  0  0  0  0  0
    4.8161   -1.5798    0.0000 C   0  0  0  0  0  0  0  0  0  0  0  0
    3.9395    2.8092    0.0000 C   0  0  1  0  0  0  0  0  0  0  0  0
    5.9640    1.8343    0.0000 C   0  0  0  0  0  0  0  0  0  0  0  0
    4.5630    3.5911    0.0000 C   0  0  1  0  0  0  0  0  0  0  0  0
    2.2945    1.1977    0.0000 C   0  0  0  0  0  0  0  0  0  0  0  0
    6.1865    2.8092    0.0000 C   0  0  0  0  0  0  0  0  0  0  0  0
    5.5630    3.5911    0.0000 C   0  0  0  0  0  0  0  0  0  0  0  0
    3.0098    3.1609    0.0000 C   0  0  0  0  0  0  0  0  0  0  0  0
    4.0132    4.4193    0.0000 C   0  0  0  0  0  0  0  0  0  0  0  0
    3.5613   -1.7966    0.0000 C   0  0  0  0  0  0  0  0  0  0  0  0
    3.0552    4.1540    0.0000 C   0  0  0  0  0  0  0  0  0  0  0  0
    7.1614    3.0318    0.0000 C   0  0  0  0  0  0  0  0  0  0  0  0
    2.7395   -2.3663    0.0000 C   0  0  0  0  0  0  0  0  0  0  0  0
    7.8059   -1.3325    0.0000 C   0  0  0  0  0  0  0  0  0  0  0  0
    2.2734    4.7775    0.0000 C   0  0  0  0  0  0  0  0  0  0  0  0
    8.3756   -2.1544    0.0000 C   0  0  3  0  0  0  0  0  0  0  0  0
    2.8219   -3.3629    0.0000 C   0  0  0  0  0  0  0  0  0  0  0  0
    9.3722   -2.0720    0.0000 C   0  0  0  0  0  0  0  0  0  0  0  0
    7.9486   -3.0587    0.0000 C   0  0  0  0  0  0  0  0  0  0  0  0
    8.8165    2.5212    0.0000 C   0  0  0  0  0  0  0  0  0  0  0  0
    2.0000   -3.9326    0.0000 C   0  0  0  0  0  0  0  0  0  0  0  0
    3.7262   -3.7898    0.0000 C   0  0  0  0  0  0  0  0  0  0  0  0
    9.9418   -2.8939    0.0000 C   0  0  0  0  0  0  0  0  0  0  0  0
    9.4967    1.7882    0.0000 C   0  0  0  0  0  0  0  0  0  0  0  0
    2.0824   -4.9292    0.0000 C   0  0  0  0  0  0  0  0  0  0  0  0
    3.8086   -4.7864    0.0000 C   0  0  0  0  0  0  0  0  0  0  0  0
    2.9867   -5.3561    0.0000 C   0  0  0  0  0  0  0  0  0  0  0  0
    6.0037    0.4364    0.0000 H   0  0  0  0  0  0  0  0  0  0  0  0
    5.8024    0.9811    0.0000 H   0  0  0  0  0  0  0  0  0  0  0  0
    2.7457    0.2865    0.0000 H   0  0  0  0  0  0  0  0  0  0  0  0
    3.1928   -0.3748    0.0000 H   0  0  0  0  0  0  0  0  0  0  0  0
    3.0956    1.8488    0.0000 H   0  0  0  0  0  0  0  0  0  0  0  0
    6.8028   -0.3337    0.0000 H   0  0  0  0  0  0  0  0  0  0  0  0
    6.0820    0.0065    0.0000 H   0  0  0  0  0  0  0  0  0  0  0  0
    4.2554   -1.3151    0.0000 H   0  0  0  0  0  0  0  0  0  0  0  0
    4.5514   -2.1404    0.0000 H   0  0  0  0  0  0  0  0  0  0  0  0
    5.3768   -1.8445    0.0000 H   0  0  0  0  0  0  0  0  0  0  0  0
    3.2987    2.2508    0.0000 H   0  0  0  0  0  0  0  0  0  0  0  0
    6.4487    1.4477    0.0000 H   0  0  0  0  0  0  0  0  0  0  0  0
    2.2553    1.8164    0.0000 H   0  0  0  0  0  0  0  0  0  0  0  0
    1.6757    1.1585    0.0000 H   0  0  0  0  0  0  0  0  0  0  0  0
    2.3336    0.5789    0.0000 H   0  0  0  0  0  0  0  0  0  0  0  0
    2.6428    2.2219    0.0000 H   0  0  0  0  0  0  0  0  0  0  0  0
    6.1216    3.8601    0.0000 H   0  0  0  0  0  0  0  0  0  0  0  0
    5.4251    4.1955    0.0000 H   0  0  0  0  0  0  0  0  0  0  0  0
    2.4917    2.8203    0.0000 H   0  0  0  0  0  0  0  0  0  0  0  0
    5.7996    4.2805    0.0000 H   0  0  0  0  0  0  0  0  0  0  0  0
    7.6823    3.3681    0.0000 H   0  0  0  0  0  0  0  0  0  0  0  0
    6.9206    3.6031    0.0000 H   0  0  0  0  0  0  0  0  0  0  0  0
    2.4801   -1.8032    0.0000 H   0  0  0  0  0  0  0  0  0  0  0  0
    2.1398   -2.5239    0.0000 H   0  0  0  0  0  0  0  0  0  0  0  0
    2.6599    5.2622    0.0000 H   0  0  0  0  0  0  0  0  0  0  0  0
    1.7886    5.1640    0.0000 H   0  0  0  0  0  0  0  0  0  0  0  0
    1.8868    4.2927    0.0000 H   0  0  0  0  0  0  0  0  0  0  0  0
    7.5284   -2.2245    0.0000 H   0  0  0  0  0  0  0  0  0  0  0  0
    9.9353   -1.8127    0.0000 H   0  0  0  0  0  0  0  0  0  0  0  0
    9.2145   -1.4724    0.0000 H   0  0  0  0  0  0  0  0  0  0  0  0
    7.3880   -2.7940    0.0000 H   0  0  0  0  0  0  0  0  0  0  0  0
    7.6839   -3.6194    0.0000 H   0  0  0  0  0  0  0  0  0  0  0  0
    8.5093   -3.3234    0.0000 H   0  0  0  0  0  0  0  0  0  0  0  0
    1.4393   -3.6679    0.0000 H   0  0  0  0  0  0  0  0  0  0  0  0
    4.2357   -3.4366    0.0000 H   0  0  0  0  0  0  0  0  0  0  0  0
    9.4323   -3.2471    0.0000 H   0  0  0  0  0  0  0  0  0  0  0  0
   10.2950   -3.4034    0.0000 H   0  0  0  0  0  0  0  0  0  0  0  0
   10.4514   -2.5407    0.0000 H   0  0  0  0  0  0  0  0  0  0  0  0
    9.0422    1.3665    0.0000 H   0  0  0  0  0  0  0  0  0  0  0  0
    9.9184    1.3337    0.0000 H   0  0  0  0  0  0  0  0  0  0  0  0
    9.9512    2.2099    0.0000 H   0  0  0  0  0  0  0  0  0  0  0  0
    1.5728   -5.2824    0.0000 H   0  0  0  0  0  0  0  0  0  0  0  0
    4.3692   -5.0511    0.0000 H   0  0  0  0  0  0  0  0  0  0  0  0
    3.0378   -5.9740    0.0000 H   0  0  0  0  0  0  0  0  0  0  0  0
 11  1  1  1  0  0  0
  1 27  1  0  0  0  0
 14  2  1  1  0  0  0
  2 60  1  0  0  0  0
  3 17  1  0  0  0  0
  3 31  1  0  0  0  0
 21  4  1  6  0  0  0
  4 64  1  0  0  0  0
  5 26  2  0  0  0  0
  6 27  2  0  0  0  0
  7 29  1  0  0  0  0
  7 37  1  0  0  0  0
  8 31  2  0  0  0  0
  9 37  2  0  0  0  0
 10 11  1  0  0  0  0
 10 12  1  0  0  0  0
 10 13  1  0  0  0  0
 10 45  1  1  0  0  0
 11 12  1  0  0  0  0
 11 15  1  0  0  0  0
 12 17  1  0  0  0  0
 12 18  1  6  0  0  0
 13 14  1  0  0  0  0
 13 20  1  0  0  0  0
 13 46  1  6  0  0  0
 14 16  1  0  0  0  0
 14 19  1  0  0  0  0
 15 16  1  0  0  0  0
 15 47  1  0  0  0  0
 15 48  1  0  0  0  0
 16 22  1  1  0  0  0
 16 49  1  0  0  0  0
 17 50  1  0  0  0  0
 17 51  1  0  0  0  0
 18 52  1  0  0  0  0
 18 53  1  0  0  0  0
 18 54  1  0  0  0  0
 19 21  1  0  0  0  0
 19 25  1  0  0  0  0
 19 55  1  1  0  0  0
 20 23  2  0  0  0  0
 20 56  1  0  0  0  0
 21 24  1  0  0  0  0
 21 26  1  0  0  0  0
 22 57  1  0  0  0  0
 22 58  1  0  0  0  0
 22 59  1  0  0  0  0
 23 24  1  0  0  0  0
 23 29  1  0  0  0  0
 24 61  1  0  0  0  0
 24 62  1  0  0  0  0
 25 28  2  0  0  0  0
 25 63  1  0  0  0  0
 26 28  1  0  0  0  0
 27 30  1  0  0  0  0
 28 32  1  0  0  0  0
 29 65  1  0  0  0  0
 29 66  1  0  0  0  0
 30 34  1  0  0  0  0
 30 67  1  0  0  0  0
 30 68  1  0  0  0  0
 31 33  1  0  0  0  0
 32 69  1  0  0  0  0
 32 70  1  0  0  0  0
 32 71  1  0  0  0  0
 33 35  1  0  0  0  0
 33 36  1  0  0  0  0
 33 72  1  0  0  0  0
 34 38  2  0  0  0  0
 34 39  1  0  0  0  0
 35 40  1  0  0  0  0
 35 73  1  0  0  0  0
 35 74  1  0  0  0  0
 36 75  1  0  0  0  0
 36 76  1  0  0  0  0
 36 77  1  0  0  0  0
 37 41  1  0  0  0  0
 38 42  1  0  0  0  0
 38 78  1  0  0  0  0
 39 43  2  0  0  0  0
 39 79  1  0  0  0  0
 40 80  1  0  0  0  0
 40 81  1  0  0  0  0
 40 82  1  0  0  0  0
 41 83  1  0  0  0  0
 41 84  1  0  0  0  0
 41 85  1  0  0  0  0
 42 44  2  0  0  0  0
 42 86  1  0  0  0  0
 43 44  1  0  0  0  0
 43 87  1  0  0  0  0
 44 88  1  0  0  0  0
M  END
> <PUBCHEM_COMPOUND_CID>
442008

> <PUBCHEM_COMPOUND_CANONICALIZED>
1

> <PUBCHEM_CACTVS_COMPLEXITY>
1260

> <PUBCHEM_CACTVS_HBOND_ACCEPTOR>
9

> <PUBCHEM_CACTVS_HBOND_DONOR>
2

> <PUBCHEM_CACTVS_ROTATABLE_BOND>
12

> <PUBCHEM_CACTVS_SUBSKEYS>
AAADcfB8PAAAAAAAAAAAAAAAGAAAAQAAAAAwYAAABggAAACBAAAAGgAACAAAD0SgmAIyCIAABgCIAqDSCAICAAAgAAAIiAFAAMgIJDKANRCCcAAlwAEIqYfK7PyPgAAAAAAAAADCAAYAADAAAAAAAAAAAA==

> <PUBCHEM_IUPAC_INCHI>
InChI=1S/C35H44O9/c1-7-20(2)31(39)43-19-32(6)29-26-14-25(18-42-23(5)36)17-33(40)27(13-21(3)30(33)38)35(26,41)22(4)16-34(29,32)44-28(37)15-24-11-9-8-10-12-24/h8-14,20,22,26-27,29,40-41H,7,15-19H2,1-6H3/t20?,22-,26+,27-,29-,32-,33-,34+,35-/m1/s1

> <PUBCHEM_IUPAC_INCHIKEY>
RWBRLONUEAWHRE-HBLGUWCISA-N

> <PUBCHEM_XLOGP3_AA>
3.6

> <PUBCHEM_EXACT_MASS>
608.298533

> <PUBCHEM_MOLECULAR_FORMULA>
C35H44O9

> <PUBCHEM_MOLECULAR_WEIGHT>
608.71846

> <PUBCHEM_OPENEYE_CAN_SMILES>
CCC(C)C(=O)OCC1(C2C1(CC(C3(C2C=C(CC4(C3C=C(C4=O)C)O)COC(=O)C)O)C)OC(=O)CC5=CC=CC=C5)C

> <PUBCHEM_OPENEYE_ISO_SMILES>
CCC(C)C(=O)OC[C@@]1([C@@H]2[C@]1(C[C@H]([C@]3([C@H]2C=C(C[C@]4([C@H]3C=C(C4=O)C)O)COC(=O)C)O)C)OC(=O)CC5=CC=CC=C5)C

> <PUBCHEM_CACTVS_TPSA>
136

> <PUBCHEM_MONOISOTOPIC_WEIGHT>
608.298533

> <PUBCHEM_TOTAL_CHARGE>
0

> <PUBCHEM_HEAVY_ATOM_COUNT>
44

> <PUBCHEM_ATOM_DEF_STEREO_COUNT>
8

> <PUBCHEM_ATOM_UDEF_STEREO_COUNT>
1

> <PUBCHEM_BOND_DEF_STEREO_COUNT>
0

> <PUBCHEM_BOND_UDEF_STEREO_COUNT>
0

> <PUBCHEM_ISOTOPIC_ATOM_COUNT>
0

> <PUBCHEM_COMPONENT_COUNT>
1

> <PUBCHEM_CACTVS_TAUTO_COUNT>
3

> <PUBCHEM_COORDINATE_TYPE>
1
5
255

> <PUBCHEM_BONDANNOTATIONS>
11  1  5
10  45  5
12  18  6
13  46  6
16  22  5
19  55  5
14  2  5
33  72  3
34  38  8
34  39  8
38  42  8
39  43  8
21  4  6
42  44  8
43  44  8

$$$$

