13363
  -OEChem-06261209212D

 24 22  0     0  0  0  0  0  0999 V2000
    4.8671    2.5369    0.0000 Cl  0  0  0  0  0  0  0  0  0  0  0  0
    1.9335    5.0119    0.0000 Cl  0  0  0  0  0  0  0  0  0  0  0  0
    2.2690    2.0369    0.0000 N   0  0  0  0  0  0  0  0  0  0  0  0
    3.1350    2.5369    0.0000 C   0  0  0  0  0  0  0  0  0  0  0  0
    1.4030    2.5369    0.0000 C   0  0  0  0  0  0  0  0  0  0  0  0
    2.2690    1.0369    0.0000 C   0  0  0  0  0  0  0  0  0  0  0  0
    4.0010    2.0369    0.0000 C   0  0  0  0  0  0  0  0  0  0  0  0
    1.4030    0.5369    0.0000 C   0  0  0  0  0  0  0  0  0  0  0  0
    0.5369    2.0369    0.0000 C   0  0  0  0  0  0  0  0  0  0  0  0
    3.5335    3.0119    0.0000 H   0  0  0  0  0  0  0  0  0  0  0  0
    2.7365    3.0119    0.0000 H   0  0  0  0  0  0  0  0  0  0  0  0
    2.4810    0.4543    0.0000 H   0  0  0  0  0  0  0  0  0  0  0  0
    2.8796    1.1446    0.0000 H   0  0  0  0  0  0  0  0  0  0  0  0
    1.8015    3.0119    0.0000 H   0  0  0  0  0  0  0  0  0  0  0  0
    1.0044    3.0119    0.0000 H   0  0  0  0  0  0  0  0  0  0  0  0
    3.6025    1.5620    0.0000 H   0  0  0  0  0  0  0  0  0  0  0  0
    4.3996    1.5620    0.0000 H   0  0  0  0  0  0  0  0  0  0  0  0
    1.0930    1.0739    0.0000 H   0  0  0  0  0  0  0  0  0  0  0  0
    0.8660    0.2269    0.0000 H   0  0  0  0  0  0  0  0  0  0  0  0
    1.7130    0.0000    0.0000 H   0  0  0  0  0  0  0  0  0  0  0  0
    0.2269    2.5739    0.0000 H   0  0  0  0  0  0  0  0  0  0  0  0
    0.0000    1.7269    0.0000 H   0  0  0  0  0  0  0  0  0  0  0  0
    0.8469    1.5000    0.0000 H   0  0  0  0  0  0  0  0  0  0  0  0
    2.9335    5.0119    0.0000 H   0  0  0  0  0  0  0  0  0  0  0  0
  1  7  1  0  0  0  0
  2 24  1  0  0  0  0
  3  4  1  0  0  0  0
  3  5  1  0  0  0  0
  3  6  1  0  0  0  0
  4  7  1  0  0  0  0
  4 10  1  0  0  0  0
  4 11  1  0  0  0  0
  5  9  1  0  0  0  0
  5 14  1  0  0  0  0
  5 15  1  0  0  0  0
  6  8  1  0  0  0  0
  6 12  1  0  0  0  0
  6 13  1  0  0  0  0
  7 16  1  0  0  0  0
  7 17  1  0  0  0  0
  8 18  1  0  0  0  0
  8 19  1  0  0  0  0
  8 20  1  0  0  0  0
  9 21  1  0  0  0  0
  9 22  1  0  0  0  0
  9 23  1  0  0  0  0
M  END
> <PUBCHEM_COMPOUND_CID>
13363

> <PUBCHEM_COMPOUND_CANONICALIZED>
1

> <PUBCHEM_CACTVS_COMPLEXITY>
43.8

> <PUBCHEM_CACTVS_HBOND_ACCEPTOR>
1

> <PUBCHEM_CACTVS_HBOND_DONOR>
1

> <PUBCHEM_CACTVS_ROTATABLE_BOND>
4

> <PUBCHEM_CACTVS_SUBSKEYS>
AAADccBiAAAGAAAAAAAAAAAAAAAAAAAAAAAAAAAAAAAAAAAAAAAAHAIAAAAAAAPBAEQCAAMAAAAAAAAAAAAAAAAAAAAAAAAIAAAAAAAAAABAAAAAAACAAAAAAAAAAAAAAAAAAAAAAAAAAAAAAAAAAAAAAA==

> <PUBCHEM_IUPAC_OPENEYE_NAME>
2-chloro-N,N-diethyl-ethanamine hydrochloride

> <PUBCHEM_IUPAC_CAS_NAME>
2-chloro-N,N-diethylethanamine hydrochloride

> <PUBCHEM_IUPAC_NAME>
2-chloro-N,N-diethylethanamine hydrochloride

> <PUBCHEM_IUPAC_SYSTEMATIC_NAME>
2-chloranyl-N,N-diethyl-ethanamine hydrochloride

> <PUBCHEM_IUPAC_TRADITIONAL_NAME>
2-chloroethyl(diethyl)amine hydrochloride

> <PUBCHEM_IUPAC_INCHI>
InChI=1S/C6H14ClN.ClH/c1-3-8(4-2)6-5-7;/h3-6H2,1-2H3;1H

> <PUBCHEM_IUPAC_INCHIKEY>
RAGSWDIQBBZLLL-UHFFFAOYSA-N

> <PUBCHEM_EXACT_MASS>
171.058155

> <PUBCHEM_MOLECULAR_FORMULA>
C6H15Cl2N

> <PUBCHEM_MOLECULAR_WEIGHT>
172.096

> <PUBCHEM_OPENEYE_CAN_SMILES>
CCN(CC)CCCl.Cl

> <PUBCHEM_OPENEYE_ISO_SMILES>
CCN(CC)CCCl.Cl

> <PUBCHEM_CACTVS_TPSA>
3.2

> <PUBCHEM_MONOISOTOPIC_WEIGHT>
171.058155

> <PUBCHEM_TOTAL_CHARGE>
0

> <PUBCHEM_HEAVY_ATOM_COUNT>
9

> <PUBCHEM_ATOM_DEF_STEREO_COUNT>
0

> <PUBCHEM_ATOM_UDEF_STEREO_COUNT>
0

> <PUBCHEM_BOND_DEF_STEREO_COUNT>
0

> <PUBCHEM_BOND_UDEF_STEREO_COUNT>
0

> <PUBCHEM_ISOTOPIC_ATOM_COUNT>
0

> <PUBCHEM_COMPONENT_COUNT>
2

> <PUBCHEM_CACTVS_TAUTO_COUNT>
1

> <PUBCHEM_COORDINATE_TYPE>
1
5
255

$$$$

