5281618
  -OEChem-07051212583D

 33 35  0     0  0  0  0  0  0999 V2000
   -0.6944    0.4624   -0.2444 O   0  0  0  0  0  0  0  0  0  0  0  0
    4.0555    2.0090    0.2903 O   0  0  0  0  0  0  0  0  0  0  0  0
   -2.5615   -3.0287    0.7175 O   0  0  0  0  0  0  0  0  0  0  0  0
   -4.8198    2.7967   -0.5154 O   0  0  0  0  0  0  0  0  0  0  0  0
    5.5953   -0.1397   -0.5689 O   0  0  0  0  0  0  0  0  0  0  0  0
    0.0188   -0.7030   -0.0079 C   0  0  0  0  0  0  0  0  0  0  0  0
   -2.7633   -0.7346    0.1876 C   0  0  0  0  0  0  0  0  0  0  0  0
    1.4805   -0.5520   -0.1538 C   0  0  0  0  0  0  0  0  0  0  0  0
   -2.0617    0.4246   -0.1390 C   0  0  0  0  0  0  0  0  0  0  0  0
   -0.5419   -1.8815    0.3069 C   0  0  0  0  0  0  0  0  0  0  0  0
   -2.0108   -1.9749    0.4302 C   0  0  0  0  0  0  0  0  0  0  0  0
    2.0927    0.6692    0.1389 C   0  0  0  0  0  0  0  0  0  0  0  0
   -4.1567   -0.7147    0.2802 C   0  0  0  0  0  0  0  0  0  0  0  0
    2.2577   -1.6297   -0.5858 C   0  0  0  0  0  0  0  0  0  0  0  0
   -2.7516    1.6138   -0.3757 C   0  0  0  0  0  0  0  0  0  0  0  0
    3.4733    0.8118    0.0009 C   0  0  0  0  0  0  0  0  0  0  0  0
   -4.1435    1.6380   -0.2839 C   0  0  0  0  0  0  0  0  0  0  0  0
   -4.8443    0.4763    0.0434 C   0  0  0  0  0  0  0  0  0  0  0  0
    4.2461   -0.2662   -0.4304 C   0  0  0  0  0  0  0  0  0  0  0  0
    3.6383   -1.4871   -0.7239 C   0  0  0  0  0  0  0  0  0  0  0  0
    4.4912    2.2101    1.6333 C   0  0  0  0  0  0  0  0  0  0  0  0
    0.0185   -2.7880    0.5034 H   0  0  0  0  0  0  0  0  0  0  0  0
    1.5089    1.5200    0.4838 H   0  0  0  0  0  0  0  0  0  0  0  0
    1.8200   -2.5899   -0.8452 H   0  0  0  0  0  0  0  0  0  0  0  0
   -4.7190   -1.6089    0.5334 H   0  0  0  0  0  0  0  0  0  0  0  0
   -2.2081    2.5199   -0.6311 H   0  0  0  0  0  0  0  0  0  0  0  0
   -5.9287    0.4859    0.1167 H   0  0  0  0  0  0  0  0  0  0  0  0
    4.2283   -2.3335   -1.0654 H   0  0  0  0  0  0  0  0  0  0  0  0
   -5.7726    2.6321   -0.4094 H   0  0  0  0  0  0  0  0  0  0  0  0
    5.9632   -0.9864   -0.8749 H   0  0  0  0  0  0  0  0  0  0  0  0
    5.2452    1.4664    1.9098 H   0  0  0  0  0  0  0  0  0  0  0  0
    3.6427    2.1596    2.3231 H   0  0  0  0  0  0  0  0  0  0  0  0
    4.9395    3.2049    1.7028 H   0  0  0  0  0  0  0  0  0  0  0  0
  1  6  1  0  0  0  0
  1  9  1  0  0  0  0
  2 16  1  0  0  0  0
  2 21  1  0  0  0  0
  3 11  2  0  0  0  0
  4 17  1  0  0  0  0
  4 29  1  0  0  0  0
  5 19  1  0  0  0  0
  5 30  1  0  0  0  0
  6  8  1  0  0  0  0
  6 10  2  0  0  0  0
  7  9  2  0  0  0  0
  7 11  1  0  0  0  0
  7 13  1  0  0  0  0
  8 12  2  0  0  0  0
  8 14  1  0  0  0  0
  9 15  1  0  0  0  0
 10 11  1  0  0  0  0
 10 22  1  0  0  0  0
 12 16  1  0  0  0  0
 12 23  1  0  0  0  0
 13 18  2  0  0  0  0
 13 25  1  0  0  0  0
 14 20  2  0  0  0  0
 14 24  1  0  0  0  0
 15 17  2  0  0  0  0
 15 26  1  0  0  0  0
 16 19  2  0  0  0  0
 17 18  1  0  0  0  0
 18 27  1  0  0  0  0
 19 20  1  0  0  0  0
 20 28  1  0  0  0  0
 21 31  1  0  0  0  0
 21 32  1  0  0  0  0
 21 33  1  0  0  0  0
M  END
> <PUBCHEM_COMPOUND_CID>
5281618

> <PUBCHEM_CONFORMER_RMSD>
0.6

> <PUBCHEM_CONFORMER_DIVERSEORDER>
1
2
6
4
3
5

> <PUBCHEM_MMFF94_PARTIAL_CHARGES>
30
1 -0.16
10 -0.14
11 0.47
12 -0.15
13 -0.15
14 -0.15
15 -0.15
16 0.08
17 0.08
18 -0.15
19 0.08
2 -0.36
20 -0.15
21 0.28
22 0.15
23 0.15
24 0.15
25 0.15
26 0.15
27 0.15
28 0.15
29 0.45
3 -0.57
30 0.45
4 -0.53
5 -0.53
6 0.05
7 0.09
8 0.03
9 0.08

> <PUBCHEM_EFFECTIVE_ROTOR_COUNT>
2

> <PUBCHEM_PHARMACOPHORE_FEATURES>
8
1 1 acceptor
1 2 acceptor
1 3 acceptor
1 4 donor
1 5 donor
6 1 6 7 9 10 11 rings
6 7 9 13 15 17 18 rings
6 8 12 14 16 19 20 rings

> <PUBCHEM_HEAVY_ATOM_COUNT>
21

> <PUBCHEM_ATOM_DEF_STEREO_COUNT>
0

> <PUBCHEM_ATOM_UDEF_STEREO_COUNT>
0

> <PUBCHEM_BOND_DEF_STEREO_COUNT>
0

> <PUBCHEM_BOND_UDEF_STEREO_COUNT>
0

> <PUBCHEM_ISOTOPIC_ATOM_COUNT>
0

> <PUBCHEM_COMPONENT_COUNT>
1

> <PUBCHEM_CACTVS_TAUTO_COUNT>
15

> <PUBCHEM_CONFORMER_ID>
0050975200000001

> <PUBCHEM_MMFF94_ENERGY>
72.6852

> <PUBCHEM_FEATURE_SELFOVERLAP>
40.623

> <PUBCHEM_SHAPE_FINGERPRINT>
10319926 262 18341343214846284258
10411042 1 17909821038805177603
10498660 4 18270967954892242133
10608611 8 18409448064081034390
10646746 165 18413388713897505838
11405975 8 18412265030257189250
11595378 159 16916795114464939980
12173636 292 18413390925758522175
12236239 1 16845569803605728974
12390115 104 18265317577769890433
12403259 415 18408601457038744160
12500047 106 18412824702654847223
12507560 40 18335983061010830878
12596602 18 15769479963697490300
13402501 40 18409169913193330648
13544592 145 18266166400282420670
14178342 30 18059859407081883298
14866123 147 16676957818865775822
15042514 8 18127681644408265435
15196674 1 18411698807121748885
15375358 24 18408604759857999790
200 152 17240481433265933503
20510252 161 18409444800280384209
20645477 56 18341609334840027391
20645477 70 17458336447217377718
21033648 29 18343025527323698441
21065198 57 18411417298086278926
21065201 7 18272932696250529034
21279426 13 18194396925287443598
21421861 104 17488473060450360010
21452121 103 18334304154274216112
21859007 373 17485953000709896412
23227448 37 18337955593244718141
23402539 116 18410015459141049639
23402655 69 18260548973658111646
23557571 272 18339631261634222150
23559900 14 18334574698427666070
3004659 81 18128527349402279350
335352 9 18268709592289440086
3545911 37 18410288112307584030
4028521 119 18410011074269499421
4214541 1 18411978070105944998
495365 180 17821740433360251202
5104073 3 18412543232131223755
633830 44 18191032394522051797
69090 78 18408885139903152983
77779 3 18410008849107246527
9709674 26 18408315596874421039

> <PUBCHEM_SHAPE_MULTIPOLES>
402.82
11.46
2.69
0.86
3.04
0.12
0.18
5.6
-0.24
-1.12
0.45
0.59
0.17
2.13

> <PUBCHEM_SHAPE_SELFOVERLAP>
893.508

> <PUBCHEM_SHAPE_VOLUME>
215.2

> <PUBCHEM_COORDINATE_TYPE>
2
5
10

$$$$

