93541
  -OEChem-07051213122D

 41 42  0     1  0  0  0  0  0999 V2000
    2.0000    1.8170    0.0000 Cl  0  0  0  0  0  0  0  0  0  0  0  0
    4.0981    4.1830    0.0000 F   0  0  0  0  0  0  0  0  0  0  0  0
    5.0981    2.4510    0.0000 F   0  0  0  0  0  0  0  0  0  0  0  0
    6.3301    3.3170    0.0000 F   0  0  0  0  0  0  0  0  0  0  0  0
    3.7320   -4.1830    0.0000 F   0  0  0  0  0  0  0  0  0  0  0  0
    7.1962   -4.1830    0.0000 F   0  0  0  0  0  0  0  0  0  0  0  0
    7.1962    5.8170    0.0000 F   0  0  0  0  0  0  0  0  0  0  0  0
    5.8301    6.1830    0.0000 F   0  0  0  0  0  0  0  0  0  0  0  0
    6.8301    4.4510    0.0000 F   0  0  0  0  0  0  0  0  0  0  0  0
    3.7320    2.8170    0.0000 O   0  0  0  0  0  0  0  0  0  0  0  0
    5.4641    4.8170    0.0000 O   0  0  0  0  0  0  0  0  0  0  0  0
    5.4641   -1.1830    0.0000 O   0  0  0  0  0  0  0  0  0  0  0  0
    6.3301   -2.6830    0.0000 O   0  0  0  0  0  0  0  0  0  0  0  0
    3.7320   -1.1830    0.0000 N   0  0  0  0  0  0  0  0  0  0  0  0
    4.5981   -2.6830    0.0000 N   0  0  0  0  0  0  0  0  0  0  0  0
    3.7320    1.8170    0.0000 C   0  0  0  0  0  0  0  0  0  0  0  0
    3.7320   -0.1830    0.0000 C   0  0  0  0  0  0  0  0  0  0  0  0
    4.5981    3.3170    0.0000 C   0  0  0  0  0  0  0  0  0  0  0  0
    2.8660    1.3170    0.0000 C   0  0  0  0  0  0  0  0  0  0  0  0
    4.5981    1.3170    0.0000 C   0  0  0  0  0  0  0  0  0  0  0  0
    2.8660    0.3170    0.0000 C   0  0  0  0  0  0  0  0  0  0  0  0
    4.5981    0.3170    0.0000 C   0  0  0  0  0  0  0  0  0  0  0  0
    5.4641    3.8170    0.0000 C   0  0  3  0  0  0  0  0  0  0  0  0
    5.4641   -4.1830    0.0000 C   0  0  0  0  0  0  0  0  0  0  0  0
    4.5981   -1.6830    0.0000 C   0  0  0  0  0  0  0  0  0  0  0  0
    5.4641   -3.1830    0.0000 C   0  0  0  0  0  0  0  0  0  0  0  0
    4.5981   -4.6830    0.0000 C   0  0  0  0  0  0  0  0  0  0  0  0
    6.3301   -4.6830    0.0000 C   0  0  0  0  0  0  0  0  0  0  0  0
    4.5981   -5.6830    0.0000 C   0  0  0  0  0  0  0  0  0  0  0  0
    6.3301   -5.6830    0.0000 C   0  0  0  0  0  0  0  0  0  0  0  0
    5.4641   -6.1830    0.0000 C   0  0  0  0  0  0  0  0  0  0  0  0
    6.3301    5.3170    0.0000 C   0  0  0  0  0  0  0  0  0  0  0  0
    5.1350    1.6270    0.0000 H   0  0  0  0  0  0  0  0  0  0  0  0
    2.3291    0.0070    0.0000 H   0  0  0  0  0  0  0  0  0  0  0  0
    5.1350    0.0070    0.0000 H   0  0  0  0  0  0  0  0  0  0  0  0
    4.7280    4.2420    0.0000 H   0  0  0  0  0  0  0  0  0  0  0  0
    3.1951   -1.4930    0.0000 H   0  0  0  0  0  0  0  0  0  0  0  0
    4.0611   -2.9930    0.0000 H   0  0  0  0  0  0  0  0  0  0  0  0
    4.0611   -5.9930    0.0000 H   0  0  0  0  0  0  0  0  0  0  0  0
    6.8671   -5.9930    0.0000 H   0  0  0  0  0  0  0  0  0  0  0  0
    5.4641   -6.8030    0.0000 H   0  0  0  0  0  0  0  0  0  0  0  0
  1 19  1  0  0  0  0
  2 18  1  0  0  0  0
  3 18  1  0  0  0  0
  4 23  1  0  0  0  0
  5 27  1  0  0  0  0
  6 28  1  0  0  0  0
  7 32  1  0  0  0  0
  8 32  1  0  0  0  0
  9 32  1  0  0  0  0
 10 16  1  0  0  0  0
 10 18  1  0  0  0  0
 11 23  1  0  0  0  0
 11 32  1  0  0  0  0
 12 25  2  0  0  0  0
 13 26  2  0  0  0  0
 14 17  1  0  0  0  0
 14 25  1  0  0  0  0
 14 37  1  0  0  0  0
 15 25  1  0  0  0  0
 15 26  1  0  0  0  0
 15 38  1  0  0  0  0
 16 19  2  0  0  0  0
 16 20  1  0  0  0  0
 17 21  2  0  0  0  0
 17 22  1  0  0  0  0
 18 23  1  0  0  0  0
 19 21  1  0  0  0  0
 20 22  2  0  0  0  0
 20 33  1  0  0  0  0
 21 34  1  0  0  0  0
 22 35  1  0  0  0  0
 23 36  1  0  0  0  0
 24 26  1  0  0  0  0
 24 27  2  0  0  0  0
 24 28  1  0  0  0  0
 27 29  1  0  0  0  0
 28 30  2  0  0  0  0
 29 31  2  0  0  0  0
 29 39  1  0  0  0  0
 30 31  1  0  0  0  0
 30 40  1  0  0  0  0
 31 41  1  0  0  0  0
M  END
> <PUBCHEM_COMPOUND_CID>
93541

> <PUBCHEM_COMPOUND_CANONICALIZED>
1

> <PUBCHEM_CACTVS_COMPLEXITY>
661

> <PUBCHEM_CACTVS_HBOND_ACCEPTOR>
12

> <PUBCHEM_CACTVS_HBOND_DONOR>
2

> <PUBCHEM_CACTVS_ROTATABLE_BOND>
6

> <PUBCHEM_CACTVS_SUBSKEYS>
AAADccB7OcAEAAAAAAAAAAAAAAAAAAAAAAAwYAAAAAAAAAABQAAAHwIQAAAADA6hmDoxxoLABACIAiVSUACCCAAlJ0AIiAEGb8iNJjPFt5uGOSjs1TNK6Se4yACOAEAAAAIACAAAgAAABAAQAAAAAAAAAA==

> <PUBCHEM_IUPAC_OPENEYE_NAME>
N-[[3-chloro-4-[1,1,2-trifluoro-2-(trifluoromethoxy)ethoxy]phenyl]carbamoyl]-2,6-difluoro-benzamide

> <PUBCHEM_IUPAC_CAS_NAME>
N-[[3-chloro-4-[1,1,2-trifluoro-2-(trifluoromethoxy)ethoxy]anilino]-oxomethyl]-2,6-difluorobenzamide

> <PUBCHEM_IUPAC_NAME>
N-[[3-chloro-4-[1,1,2-trifluoro-2-(trifluoromethoxy)ethoxy]phenyl]carbamoyl]-2,6-difluorobenzamide

> <PUBCHEM_IUPAC_SYSTEMATIC_NAME>
N-[[3-chloranyl-4-[1,1,2-tris(fluoranyl)-2-(trifluoromethyloxy)ethoxy]phenyl]carbamoyl]-2,6-bis(fluoranyl)benzamide

> <PUBCHEM_IUPAC_TRADITIONAL_NAME>
N-[[3-chloro-4-[1,1,2-trifluoro-2-(trifluoromethoxy)ethoxy]phenyl]carbamoyl]-2,6-difluoro-benzamide

> <PUBCHEM_IUPAC_INCHI>
InChI=1S/C17H9ClF8N2O4/c18-8-6-7(4-5-11(8)31-16(22,23)14(21)32-17(24,25)26)27-15(30)28-13(29)12-9(19)2-1-3-10(12)20/h1-6,14H,(H2,27,28,29,30)

> <PUBCHEM_IUPAC_INCHIKEY>
NJPPVKZQTLUDBO-UHFFFAOYSA-N

> <PUBCHEM_XLOGP3>
5.8

> <PUBCHEM_EXACT_MASS>
492.01231

> <PUBCHEM_MOLECULAR_FORMULA>
C17H9ClF8N2O4

> <PUBCHEM_MOLECULAR_WEIGHT>
492.704586

> <PUBCHEM_OPENEYE_CAN_SMILES>
C1=CC(=C(C(=C1)F)C(=O)NC(=O)NC2=CC(=C(C=C2)OC(C(OC(F)(F)F)F)(F)F)Cl)F

> <PUBCHEM_OPENEYE_ISO_SMILES>
C1=CC(=C(C(=C1)F)C(=O)NC(=O)NC2=CC(=C(C=C2)OC(C(OC(F)(F)F)F)(F)F)Cl)F

> <PUBCHEM_CACTVS_TPSA>
76.7

> <PUBCHEM_MONOISOTOPIC_WEIGHT>
492.01231

> <PUBCHEM_TOTAL_CHARGE>
0

> <PUBCHEM_HEAVY_ATOM_COUNT>
32

> <PUBCHEM_ATOM_DEF_STEREO_COUNT>
0

> <PUBCHEM_ATOM_UDEF_STEREO_COUNT>
1

> <PUBCHEM_BOND_DEF_STEREO_COUNT>
0

> <PUBCHEM_BOND_UDEF_STEREO_COUNT>
0

> <PUBCHEM_ISOTOPIC_ATOM_COUNT>
0

> <PUBCHEM_COMPONENT_COUNT>
1

> <PUBCHEM_CACTVS_TAUTO_COUNT>
5

> <PUBCHEM_COORDINATE_TYPE>
1
5
255

> <PUBCHEM_BONDANNOTATIONS>
16  19  8
16  20  8
17  21  8
17  22  8
19  21  8
20  22  8
23  36  3
24  27  8
24  28  8
27  29  8
28  30  8
29  31  8
30  31  8

$$$$

