152639
  -OEChem-07051213122D

 95100  0     1  0  0  0  0  0999 V2000
    7.1380   -0.3884    0.0000 O   0  0  0  0  0  0  0  0  0  0  0  0
    6.2894    1.1215    0.0000 O   0  0  0  0  0  0  0  0  0  0  0  0
    3.6972    1.6516    0.0000 O   0  0  0  0  0  0  0  0  0  0  0  0
    5.2204   -2.9476    0.0000 O   0  0  0  0  0  0  0  0  0  0  0  0
    2.8486    3.1615    0.0000 O   0  0  0  0  0  0  0  0  0  0  0  0
    6.2778   -4.9675    0.0000 O   0  0  0  0  0  0  0  0  0  0  0  0
    8.8864   -0.4230    0.0000 O   0  0  0  0  0  0  0  0  0  0  0  0
    8.0097   -4.9475    0.0000 O   0  0  0  0  0  0  0  0  0  0  0  0
    5.4639    4.6313    0.0000 O   0  0  0  0  0  0  0  0  0  0  0  0
    3.7435    5.6513    0.0000 O   0  0  0  0  0  0  0  0  0  0  0  0
   10.6348   -0.3884    0.0000 O   0  0  0  0  0  0  0  0  0  0  0  0
   10.6348   -4.4576    0.0000 O   0  0  0  0  0  0  0  0  0  0  0  0
   12.4720   -0.3453    0.0000 O   0  0  0  0  0  0  0  0  0  0  0  0
    3.6741   -0.3483    0.0000 N   0  0  0  0  0  0  0  0  0  0  0  0
    6.2204   -2.9438    0.0000 C   0  0  2  0  0  0  0  0  0  0  0  0
    7.1264   -1.3883    0.0000 C   0  0  1  0  0  0  0  0  0  0  0  0
    6.2204   -1.9022    0.0000 C   0  0  0  0  0  0  0  0  0  0  0  0
    7.1264   -3.4576    0.0000 C   0  0  1  0  0  0  0  0  0  0  0  0
    4.5459    0.1416    0.0000 C   0  0  2  0  0  0  0  0  0  0  0  0
    4.5574    1.1416    0.0000 C   0  0  1  0  0  0  0  0  0  0  0  0
    6.2778    0.1216    0.0000 C   0  0  2  0  0  0  0  0  0  0  0  0
    8.0204   -1.9230    0.0000 C   0  0  0  0  0  0  0  0  0  0  0  0
    5.4060   -0.3683    0.0000 C   0  0  0  0  0  0  0  0  0  0  0  0
    8.0204   -2.9230    0.0000 C   0  0  0  0  0  0  0  0  0  0  0  0
    5.4292    1.6315    0.0000 C   0  0  2  0  0  0  0  0  0  0  0  0
    5.7237   -3.8117    0.0000 C   0  0  0  0  0  0  0  0  0  0  0  0
    8.8864   -1.4230    0.0000 C   0  0  0  0  0  0  0  0  0  0  0  0
    8.8864   -3.4230    0.0000 C   0  0  0  0  0  0  0  0  0  0  0  0
    7.1380   -4.4576    0.0000 C   0  0  0  0  0  0  0  0  0  0  0  0
    3.7088    2.6515    0.0000 C   0  0  2  0  0  0  0  0  0  0  0  0
    5.4407    2.6315    0.0000 C   0  0  0  0  0  0  0  0  0  0  0  0
    9.7524   -1.9230    0.0000 C   0  0  0  0  0  0  0  0  0  0  0  0
    4.7237   -3.8156    0.0000 C   0  0  0  0  0  0  0  0  0  0  0  0
    9.7524   -2.9230    0.0000 C   0  0  0  0  0  0  0  0  0  0  0  0
    4.5806    3.1414    0.0000 C   0  0  0  0  0  0  0  0  0  0  0  0
    4.5921    4.1414    0.0000 C   0  0  1  0  0  0  0  0  0  0  0  0
    3.7319    4.6514    0.0000 C   0  0  1  0  0  0  0  0  0  0  0  0
    2.8602    4.1614    0.0000 C   0  0  2  0  0  0  0  0  0  0  0  0
    2.8139    0.1617    0.0000 C   0  0  0  0  0  0  0  0  0  0  0  0
    3.6626   -1.3482    0.0000 C   0  0  0  0  0  0  0  0  0  0  0  0
   10.6464   -1.3883    0.0000 C   0  0  0  0  0  0  0  0  0  0  0  0
   10.6464   -3.4576    0.0000 C   0  0  0  0  0  0  0  0  0  0  0  0
    2.0000    4.6714    0.0000 C   0  0  0  0  0  0  0  0  0  0  0  0
   11.5524   -1.9022    0.0000 C   0  0  0  0  0  0  0  0  0  0  0  0
   11.5524   -2.9438    0.0000 C   0  0  0  0  0  0  0  0  0  0  0  0
    6.2894   -5.9675    0.0000 C   0  0  0  0  0  0  0  0  0  0  0  0
   12.4836   -1.3452    0.0000 C   0  0  0  0  0  0  0  0  0  0  0  0
   12.4836   -3.5007    0.0000 C   0  0  0  0  0  0  0  0  0  0  0  0
   13.4274   -1.8805    0.0000 C   0  0  0  0  0  0  0  0  0  0  0  0
   13.4274   -2.9655    0.0000 C   0  0  0  0  0  0  0  0  0  0  0  0
    6.5925   -1.0731    0.0000 H   0  0  0  0  0  0  0  0  0  0  0  0
    6.0113   -1.3185    0.0000 H   0  0  0  0  0  0  0  0  0  0  0  0
    5.6095   -2.0082    0.0000 H   0  0  0  0  0  0  0  0  0  0  0  0
    6.5925   -3.7728    0.0000 H   0  0  0  0  0  0  0  0  0  0  0  0
    4.5387   -0.4783    0.0000 H   0  0  0  0  0  0  0  0  0  0  0  0
    4.5646    1.7615    0.0000 H   0  0  0  0  0  0  0  0  0  0  0  0
    6.2706   -0.4983    0.0000 H   0  0  0  0  0  0  0  0  0  0  0  0
    5.0021   -0.8386    0.0000 H   0  0  0  0  0  0  0  0  0  0  0  0
    5.7991   -0.8479    0.0000 H   0  0  0  0  0  0  0  0  0  0  0  0
    5.9697    1.9353    0.0000 H   0  0  0  0  0  0  0  0  0  0  0  0
    5.6184   -4.4227    0.0000 H   0  0  0  0  0  0  0  0  0  0  0  0
    6.3071   -4.0215    0.0000 H   0  0  0  0  0  0  0  0  0  0  0  0
    8.8864   -4.0430    0.0000 H   0  0  0  0  0  0  0  0  0  0  0  0
    4.2421    2.3353    0.0000 H   0  0  0  0  0  0  0  0  0  0  0  0
    4.9083   -2.4119    0.0000 H   0  0  0  0  0  0  0  0  0  0  0  0
    6.0607    2.6243    0.0000 H   0  0  0  0  0  0  0  0  0  0  0  0
    5.4479    3.2514    0.0000 H   0  0  0  0  0  0  0  0  0  0  0  0
    4.8208    2.6386    0.0000 H   0  0  0  0  0  0  0  0  0  0  0  0
    4.7213   -3.1956    0.0000 H   0  0  0  0  0  0  0  0  0  0  0  0
    4.1037   -3.8180    0.0000 H   0  0  0  0  0  0  0  0  0  0  0  0
    4.7261   -4.4356    0.0000 H   0  0  0  0  0  0  0  0  0  0  0  0
    4.7859    2.5564    0.0000 H   0  0  0  0  0  0  0  0  0  0  0  0
    5.1923    3.2420    0.0000 H   0  0  0  0  0  0  0  0  0  0  0  0
    5.1254    3.8252    0.0000 H   0  0  0  0  0  0  0  0  0  0  0  0
    4.2724    4.9551    0.0000 H   0  0  0  0  0  0  0  0  0  0  0  0
    2.3197    3.8576    0.0000 H   0  0  0  0  0  0  0  0  0  0  0  0
    3.1301    0.6950    0.0000 H   0  0  0  0  0  0  0  0  0  0  0  0
    2.2806    0.4779    0.0000 H   0  0  0  0  0  0  0  0  0  0  0  0
    2.4977   -0.3716    0.0000 H   0  0  0  0  0  0  0  0  0  0  0  0
    3.0426   -1.3411    0.0000 H   0  0  0  0  0  0  0  0  0  0  0  0
    3.6554   -1.9682    0.0000 H   0  0  0  0  0  0  0  0  0  0  0  0
    4.2825   -1.3554    0.0000 H   0  0  0  0  0  0  0  0  0  0  0  0
    9.4233   -0.1130    0.0000 H   0  0  0  0  0  0  0  0  0  0  0  0
    2.3162    5.2047    0.0000 H   0  0  0  0  0  0  0  0  0  0  0  0
    1.4667    4.9876    0.0000 H   0  0  0  0  0  0  0  0  0  0  0  0
    1.6838    4.1381    0.0000 H   0  0  0  0  0  0  0  0  0  0  0  0
    5.4710    5.2513    0.0000 H   0  0  0  0  0  0  0  0  0  0  0  0
    3.2102    5.9675    0.0000 H   0  0  0  0  0  0  0  0  0  0  0  0
    5.6694   -5.9746    0.0000 H   0  0  0  0  0  0  0  0  0  0  0  0
    6.2965   -6.5874    0.0000 H   0  0  0  0  0  0  0  0  0  0  0  0
    6.9093   -5.9603    0.0000 H   0  0  0  0  0  0  0  0  0  0  0  0
   12.4764   -4.1207    0.0000 H   0  0  0  0  0  0  0  0  0  0  0  0
   13.9631   -1.5684    0.0000 H   0  0  0  0  0  0  0  0  0  0  0  0
   13.9631   -3.2775    0.0000 H   0  0  0  0  0  0  0  0  0  0  0  0
   13.0053   -0.0291    0.0000 H   0  0  0  0  0  0  0  0  0  0  0  0
 16  1  1  6  0  0  0
 21  1  1  1  0  0  0
  2 21  1  0  0  0  0
  2 25  1  0  0  0  0
 20  3  1  6  0  0  0
 30  3  1  6  0  0  0
 15  4  1  6  0  0  0
  4 65  1  0  0  0  0
  5 30  1  0  0  0  0
  5 38  1  0  0  0  0
  6 29  1  0  0  0  0
  6 46  1  0  0  0  0
  7 27  1  0  0  0  0
  7 83  1  0  0  0  0
  8 29  2  0  0  0  0
 36  9  1  1  0  0  0
  9 87  1  0  0  0  0
 37 10  1  1  0  0  0
 10 88  1  0  0  0  0
 11 41  2  0  0  0  0
 12 42  2  0  0  0  0
 13 47  1  0  0  0  0
 13 95  1  0  0  0  0
 19 14  1  6  0  0  0
 14 39  1  0  0  0  0
 14 40  1  0  0  0  0
 15 17  1  0  0  0  0
 15 18  1  0  0  0  0
 15 26  1  0  0  0  0
 16 17  1  0  0  0  0
 16 22  1  0  0  0  0
 16 51  1  0  0  0  0
 17 52  1  0  0  0  0
 17 53  1  0  0  0  0
 18 24  1  0  0  0  0
 18 29  1  1  0  0  0
 18 54  1  0  0  0  0
 19 20  1  0  0  0  0
 19 23  1  0  0  0  0
 19 55  1  0  0  0  0
 20 25  1  0  0  0  0
 20 56  1  0  0  0  0
 21 23  1  0  0  0  0
 21 57  1  0  0  0  0
 22 24  1  0  0  0  0
 22 27  2  0  0  0  0
 23 58  1  0  0  0  0
 23 59  1  0  0  0  0
 24 28  2  0  0  0  0
 25 31  1  6  0  0  0
 25 60  1  0  0  0  0
 26 33  1  0  0  0  0
 26 61  1  0  0  0  0
 26 62  1  0  0  0  0
 27 32  1  0  0  0  0
 28 34  1  0  0  0  0
 28 63  1  0  0  0  0
 30 35  1  0  0  0  0
 30 64  1  0  0  0  0
 31 66  1  0  0  0  0
 31 67  1  0  0  0  0
 31 68  1  0  0  0  0
 32 34  2  0  0  0  0
 32 41  1  0  0  0  0
 33 69  1  0  0  0  0
 33 70  1  0  0  0  0
 33 71  1  0  0  0  0
 34 42  1  0  0  0  0
 35 36  1  0  0  0  0
 35 72  1  0  0  0  0
 35 73  1  0  0  0  0
 36 37  1  0  0  0  0
 36 74  1  0  0  0  0
 37 38  1  0  0  0  0
 37 75  1  0  0  0  0
 38 43  1  1  0  0  0
 38 76  1  0  0  0  0
 39 77  1  0  0  0  0
 39 78  1  0  0  0  0
 39 79  1  0  0  0  0
 40 80  1  0  0  0  0
 40 81  1  0  0  0  0
 40 82  1  0  0  0  0
 41 44  1  0  0  0  0
 42 45  1  0  0  0  0
 43 84  1  0  0  0  0
 43 85  1  0  0  0  0
 43 86  1  0  0  0  0
 44 45  2  0  0  0  0
 44 47  1  0  0  0  0
 45 48  1  0  0  0  0
 46 89  1  0  0  0  0
 46 90  1  0  0  0  0
 46 91  1  0  0  0  0
 47 49  2  0  0  0  0
 48 50  2  0  0  0  0
 48 92  1  0  0  0  0
 49 50  1  0  0  0  0
 49 93  1  0  0  0  0
 50 94  1  0  0  0  0
M  END
> <PUBCHEM_COMPOUND_CID>
152639

> <PUBCHEM_COMPOUND_CANONICALIZED>
1

> <PUBCHEM_CACTVS_COMPLEXITY>
1270

> <PUBCHEM_CACTVS_HBOND_ACCEPTOR>
14

> <PUBCHEM_CACTVS_HBOND_DONOR>
5

> <PUBCHEM_CACTVS_ROTATABLE_BOND>
8

> <PUBCHEM_CACTVS_SUBSKEYS>
AAADcfB+PAAAAAAAAAAAAAAAAAAAAAAAAAA0aMGCAAAAAADBQAAAHgAACAAADXzxmAcyDoMABgCIAqDSCAACAAAkIAAIiAEOCMgbNzaCtRqncUAn4BEfuYfL7PzOwAADAAAYAADAAAYQADAAAAAAAAAAAA==

> <PUBCHEM_IUPAC_OPENEYE_NAME>
methyl (1R,2R,4S)-4-[(2R,4S,5S,6S)-5-[(2S,4S,5S,6S)-4,5-dihydroxy-6-methyl-tetrahydropyran-2-yl]oxy-4-(dimethylamino)-6-methyl-tetrahydropyran-2-yl]oxy-2-ethyl-2,5,7-trihydroxy-6,11-dioxo-3,4-dihydro-1H-tetracene-1-carboxylate

> <PUBCHEM_IUPAC_CAS_NAME>
(1R,2R,4S)-4-[[(2R,4S,5S,6S)-5-[[(2S,4S,5S,6S)-4,5-dihydroxy-6-methyl-2-oxanyl]oxy]-4-(dimethylamino)-6-methyl-2-oxanyl]oxy]-2-ethyl-2,5,7-trihydroxy-6,11-dioxo-3,4-dihydro-1H-tetracene-1-carboxylic acid methyl ester

> <PUBCHEM_IUPAC_NAME>
methyl (1R,2R,4S)-4-[(2R,4S,5S,6S)-5-[(2S,4S,5S,6S)-4,5-dihydroxy-6-methyloxan-2-yl]oxy-4-(dimethylamino)-6-methyloxan-2-yl]oxy-2-ethyl-2,5,7-trihydroxy-6,11-dioxo-3,4-dihydro-1H-tetracene-1-carboxylate

> <PUBCHEM_IUPAC_SYSTEMATIC_NAME>
methyl (1R,2R,4S)-4-[(2R,4S,5S,6S)-4-(dimethylamino)-6-methyl-5-[(2S,4S,5S,6S)-6-methyl-4,5-bis(oxidanyl)oxan-2-yl]oxy-oxan-2-yl]oxy-2-ethyl-2,5,7-tris(oxidanyl)-6,11-bis(oxidanylidene)-3,4-dihydro-1H-tetracene-1-carboxylate

> <PUBCHEM_IUPAC_TRADITIONAL_NAME>
(1R,2R,4S)-4-[(2R,4S,5S,6S)-5-[(2S,4S,5S,6S)-4,5-dihydroxy-6-methyl-tetrahydropyran-2-yl]oxy-4-(dimethylamino)-6-methyl-tetrahydropyran-2-yl]oxy-2-ethyl-2,5,7-trihydroxy-6,11-diketo-3,4-dihydro-1H-tetracene-1-carboxylic acid methyl ester

> <PUBCHEM_IUPAC_INCHI>
InChI=1S/C36H45NO13/c1-7-36(45)14-23(49-24-12-20(37(4)5)34(16(3)48-24)50-25-13-22(39)30(40)15(2)47-25)27-18(29(36)35(44)46-6)11-19-28(33(27)43)32(42)26-17(31(19)41)9-8-10-21(26)38/h8-11,15-16,20,22-25,29-30,34,38-40,43,45H,7,12-14H2,1-6H3/t15-,16-,20-,22-,23-,24-,25-,29-,30+,34+,36+/m0/s1

> <PUBCHEM_IUPAC_INCHIKEY>
DNZPQXXGAMXDHH-FCNQEGBTSA-N

> <PUBCHEM_XLOGP3_AA>
2.9

> <PUBCHEM_EXACT_MASS>
699.289091

> <PUBCHEM_MOLECULAR_FORMULA>
C36H45NO13

> <PUBCHEM_MOLECULAR_WEIGHT>
699.7414

> <PUBCHEM_OPENEYE_CAN_SMILES>
CCC1(CC(C2=C(C1C(=O)OC)C=C3C(=C2O)C(=O)C4=C(C3=O)C=CC=C4O)OC5CC(C(C(O5)C)OC6CC(C(C(O6)C)O)O)N(C)C)O

> <PUBCHEM_OPENEYE_ISO_SMILES>
CC[C@]1(C[C@@H](C2=C([C@H]1C(=O)OC)C=C3C(=C2O)C(=O)C4=C(C3=O)C=CC=C4O)O[C@H]5C[C@@H]([C@@H]([C@@H](O5)C)O[C@H]6C[C@@H]([C@@H]([C@@H](O6)C)O)O)N(C)C)O

> <PUBCHEM_CACTVS_TPSA>
202

> <PUBCHEM_MONOISOTOPIC_WEIGHT>
699.289091

> <PUBCHEM_TOTAL_CHARGE>
0

> <PUBCHEM_HEAVY_ATOM_COUNT>
50

> <PUBCHEM_ATOM_DEF_STEREO_COUNT>
11

> <PUBCHEM_ATOM_UDEF_STEREO_COUNT>
0

> <PUBCHEM_BOND_DEF_STEREO_COUNT>
0

> <PUBCHEM_BOND_UDEF_STEREO_COUNT>
0

> <PUBCHEM_ISOTOPIC_ATOM_COUNT>
0

> <PUBCHEM_COMPONENT_COUNT>
1

> <PUBCHEM_CACTVS_TAUTO_COUNT>
81

> <PUBCHEM_COORDINATE_TYPE>
1
5
255

> <PUBCHEM_BONDANNOTATIONS>
16  1  6
21  1  5
37  10  5
19  14  6
18  29  5
22  24  8
22  27  8
24  28  8
25  31  6
27  32  8
28  34  8
20  3  6
30  3  6
32  34  8
38  43  5
15  4  6
44  45  8
44  47  8
45  48  8
47  49  8
48  50  8
49  50  8
36  9  5

$$$$

