6459
  -OEChem-06261201202D

 38 39  0     0  0  0  0  0  0999 V2000
    4.7406    0.2342    0.0000 Sn  0  0  0  0  0  0  0  0  0  0  0  0
    5.6917   -0.0748    0.0000 O   0  0  0  0  0  0  0  0  0  0  0  0
    5.3284    1.0432    0.0000 C   0  0  0  0  0  0  0  0  0  0  0  0
    4.7406   -0.7658    0.0000 C   0  0  0  0  0  0  0  0  0  0  0  0
    3.8271    0.6409    0.0000 C   0  0  0  0  0  0  0  0  0  0  0  0
    4.9217    1.9568    0.0000 C   0  0  0  0  0  0  0  0  0  0  0  0
    5.6067   -1.2658    0.0000 C   0  0  0  0  0  0  0  0  0  0  0  0
    3.0181    0.0532    0.0000 C   0  0  0  0  0  0  0  0  0  0  0  0
    6.3229    0.9387    0.0000 C   0  0  0  0  0  0  0  0  0  0  0  0
    3.8746   -1.2658    0.0000 C   0  0  0  0  0  0  0  0  0  0  0  0
    3.7226    1.6355    0.0000 C   0  0  0  0  0  0  0  0  0  0  0  0
    5.5095    2.7658    0.0000 C   0  0  0  0  0  0  0  0  0  0  0  0
    5.6067   -2.2658    0.0000 C   0  0  0  0  0  0  0  0  0  0  0  0
    2.1045    0.4599    0.0000 C   0  0  0  0  0  0  0  0  0  0  0  0
    6.9107    1.7477    0.0000 C   0  0  0  0  0  0  0  0  0  0  0  0
    3.8746   -2.2658    0.0000 C   0  0  0  0  0  0  0  0  0  0  0  0
    2.8090    2.0422    0.0000 C   0  0  0  0  0  0  0  0  0  0  0  0
    6.5040    2.6613    0.0000 C   0  0  0  0  0  0  0  0  0  0  0  0
    4.7406   -2.7658    0.0000 C   0  0  0  0  0  0  0  0  0  0  0  0
    2.0000    1.4544    0.0000 C   0  0  0  0  0  0  0  0  0  0  0  0
    4.1510    0.0426    0.0000 H   0  0  0  0  0  0  0  0  0  0  0  0
    5.8833    0.5148    0.0000 H   0  0  0  0  0  0  0  0  0  0  0  0
    5.5001   -0.6645    0.0000 H   0  0  0  0  0  0  0  0  0  0  0  0
    4.3051    2.0216    0.0000 H   0  0  0  0  0  0  0  0  0  0  0  0
    6.1436   -0.9558    0.0000 H   0  0  0  0  0  0  0  0  0  0  0  0
    3.0829   -0.5634    0.0000 H   0  0  0  0  0  0  0  0  0  0  0  0
    6.5751    0.3723    0.0000 H   0  0  0  0  0  0  0  0  0  0  0  0
    3.3377   -0.9558    0.0000 H   0  0  0  0  0  0  0  0  0  0  0  0
    4.2242    1.9999    0.0000 H   0  0  0  0  0  0  0  0  0  0  0  0
    5.2573    3.3322    0.0000 H   0  0  0  0  0  0  0  0  0  0  0  0
    6.1436   -2.5758    0.0000 H   0  0  0  0  0  0  0  0  0  0  0  0
    1.6029    0.0955    0.0000 H   0  0  0  0  0  0  0  0  0  0  0  0
    7.5273    1.6829    0.0000 H   0  0  0  0  0  0  0  0  0  0  0  0
    3.3377   -2.5758    0.0000 H   0  0  0  0  0  0  0  0  0  0  0  0
    2.7442    2.6588    0.0000 H   0  0  0  0  0  0  0  0  0  0  0  0
    6.8684    3.1629    0.0000 H   0  0  0  0  0  0  0  0  0  0  0  0
    4.7406   -3.3858    0.0000 H   0  0  0  0  0  0  0  0  0  0  0  0
    1.4336    1.7066    0.0000 H   0  0  0  0  0  0  0  0  0  0  0  0
  1  3  1  0  0  0  0
  1  4  1  0  0  0  0
  1  5  1  0  0  0  0
  1 21  1  0  0  0  0
  2 22  1  0  0  0  0
  2 23  1  0  0  0  0
  3  6  2  0  0  0  0
  3  9  1  0  0  0  0
  4  7  2  0  0  0  0
  4 10  1  0  0  0  0
  5  8  2  0  0  0  0
  5 11  1  0  0  0  0
  6 12  1  0  0  0  0
  6 24  1  0  0  0  0
  7 13  1  0  0  0  0
  7 25  1  0  0  0  0
  8 14  1  0  0  0  0
  8 26  1  0  0  0  0
  9 15  2  0  0  0  0
  9 27  1  0  0  0  0
 10 16  2  0  0  0  0
 10 28  1  0  0  0  0
 11 17  2  0  0  0  0
 11 29  1  0  0  0  0
 12 18  2  0  0  0  0
 12 30  1  0  0  0  0
 13 19  2  0  0  0  0
 13 31  1  0  0  0  0
 14 20  2  0  0  0  0
 14 32  1  0  0  0  0
 15 18  1  0  0  0  0
 15 33  1  0  0  0  0
 16 19  1  0  0  0  0
 16 34  1  0  0  0  0
 17 20  1  0  0  0  0
 17 35  1  0  0  0  0
 18 36  1  0  0  0  0
 19 37  1  0  0  0  0
 20 38  1  0  0  0  0
M  END
> <PUBCHEM_COMPOUND_CID>
6459

> <PUBCHEM_COMPOUND_CANONICALIZED>
1

> <PUBCHEM_CACTVS_COMPLEXITY>
207

> <PUBCHEM_CACTVS_HBOND_ACCEPTOR>
1

> <PUBCHEM_CACTVS_HBOND_DONOR>
1

> <PUBCHEM_CACTVS_ROTATABLE_BOND>
3

> <PUBCHEM_CACTVS_SUBSKEYS>
AAADceB4IAAAAAAAAACAAAAAAAAAAAAAAAAwYMAAAAAAAAABUAAAGAAACAAACACAEAAwAIAAAACAACBCAAACAAAgAAAIiAAAAIgIICKAERCAIAAggAAIiAcAAAAAAAAAAAAAAAAAAAAAAAAAAAAAAAAAAA==

> <PUBCHEM_IUPAC_OPENEYE_NAME>
triphenylstannane hydrate

> <PUBCHEM_IUPAC_CAS_NAME>
triphenylstannane hydrate

> <PUBCHEM_IUPAC_NAME>
triphenylstannane hydrate

> <PUBCHEM_IUPAC_SYSTEMATIC_NAME>
triphenylstannane hydrate

> <PUBCHEM_IUPAC_TRADITIONAL_NAME>
triphenylstannane hydrate

> <PUBCHEM_IUPAC_INCHI>
InChI=1S/3C6H5.H2O.Sn.H/c3*1-2-4-6-5-3-1;;;/h3*1-5H;1H2;;

> <PUBCHEM_IUPAC_INCHIKEY>
ZJIGGMIMCKZRRB-UHFFFAOYSA-N

> <PUBCHEM_EXACT_MASS>
370.03796

> <PUBCHEM_MOLECULAR_FORMULA>
C18H18OSn

> <PUBCHEM_MOLECULAR_WEIGHT>
369.04492

> <PUBCHEM_OPENEYE_CAN_SMILES>
C1=CC=C(C=C1)[SnH](C2=CC=CC=C2)C3=CC=CC=C3.O

> <PUBCHEM_OPENEYE_ISO_SMILES>
C1=CC=C(C=C1)[SnH](C2=CC=CC=C2)C3=CC=CC=C3.O

> <PUBCHEM_CACTVS_TPSA>
1

> <PUBCHEM_MONOISOTOPIC_WEIGHT>
370.03796

> <PUBCHEM_TOTAL_CHARGE>
0

> <PUBCHEM_HEAVY_ATOM_COUNT>
20

> <PUBCHEM_ATOM_DEF_STEREO_COUNT>
0

> <PUBCHEM_ATOM_UDEF_STEREO_COUNT>
0

> <PUBCHEM_BOND_DEF_STEREO_COUNT>
0

> <PUBCHEM_BOND_UDEF_STEREO_COUNT>
0

> <PUBCHEM_ISOTOPIC_ATOM_COUNT>
0

> <PUBCHEM_COMPONENT_COUNT>
2

> <PUBCHEM_CACTVS_TAUTO_COUNT>
1

> <PUBCHEM_NONSTANDARDBOND>
1  2  6

> <PUBCHEM_COORDINATE_TYPE>
1
5
255

> <PUBCHEM_BONDANNOTATIONS>
1  2  4
10  16  8
11  17  8
12  18  8
13  19  8
14  20  8
15  18  8
16  19  8
17  20  8
3  6  8
3  9  8
4  10  8
4  7  8
5  11  8
5  8  8
6  12  8
7  13  8
8  14  8
9  15  8

$$$$

