159587
  -OEChem-07051213083D

 81 84  0     1  0  0  0  0  0999 V2000
    0.7633    2.8747    0.7912 O   0  0  0  0  0  0  0  0  0  0  0  0
    2.1967   -1.4465    1.2324 O   0  0  0  0  0  0  0  0  0  0  0  0
   -3.5218   -1.1687    1.1070 O   0  0  0  0  0  0  0  0  0  0  0  0
    2.1313    0.4438   -2.0222 O   0  0  0  0  0  0  0  0  0  0  0  0
   -1.8042    1.9188    1.4669 O   0  0  0  0  0  0  0  0  0  0  0  0
   -0.0632   -2.0861   -1.6873 O   0  0  0  0  0  0  0  0  0  0  0  0
   -1.8616    2.5173   -0.7814 N   0  0  0  0  0  0  0  0  0  0  0  0
    3.6468    0.2788   -0.2743 N   0  0  0  0  0  0  0  0  0  0  0  0
   -1.4271   -2.9526   -0.0243 N   0  0  0  0  0  0  0  0  0  0  0  0
    1.3801    2.9254   -1.4060 N   0  0  0  0  0  0  0  0  0  0  0  0
   -2.9729   -0.1652   -0.8709 N   0  0  0  0  0  0  0  0  0  0  0  0
    2.1941   -2.8828   -0.5466 N   0  0  0  0  0  0  0  0  0  0  0  0
   -0.9119    3.6241   -0.7814 C   0  0  1  0  0  0  0  0  0  0  0  0
    3.9356   -1.1378   -0.4317 C   0  0  1  0  0  0  0  0  0  0  0  0
   -2.6916   -2.6111   -0.6506 C   0  0  1  0  0  0  0  0  0  0  0  0
    2.5319    2.3999   -0.6518 C   0  0  1  0  0  0  0  0  0  0  0  0
   -3.4582    0.8939    0.0279 C   0  0  1  0  0  0  0  0  0  0  0  0
    0.9732   -3.1490    0.2296 C   0  0  1  0  0  0  0  0  0  0  0  0
    2.1553    2.5801    0.8178 C   0  0  1  0  0  0  0  0  0  0  0  0
    1.1449   -2.3627    1.5240 C   0  0  1  0  0  0  0  0  0  0  0  0
   -4.0252    0.1575    1.2387 C   0  0  1  0  0  0  0  0  0  0  0  0
   -1.3179    4.7711    0.1354 C   0  0  0  0  0  0  0  0  0  0  0  0
    5.1792   -1.5507    0.3366 C   0  0  0  0  0  0  0  0  0  0  0  0
   -3.7654   -3.6432   -0.3414 C   0  0  0  0  0  0  0  0  0  0  0  0
    0.4746    3.1228   -0.5024 C   0  0  0  0  0  0  0  0  0  0  0  0
    2.7349   -1.8827    0.0722 C   0  0  0  0  0  0  0  0  0  0  0  0
   -3.0669   -1.2443   -0.1619 C   0  0  0  0  0  0  0  0  0  0  0  0
    2.7241    0.9470   -1.0694 C   0  0  0  0  0  0  0  0  0  0  0  0
   -2.2777    1.8076    0.3395 C   0  0  0  0  0  0  0  0  0  0  0  0
   -0.2030   -2.6570   -0.6073 C   0  0  0  0  0  0  0  0  0  0  0  0
    2.8892    3.7431    1.4708 C   0  0  0  0  0  0  0  0  0  0  0  0
    1.5686   -3.2403    2.6931 C   0  0  0  0  0  0  0  0  0  0  0  0
   -5.5481    0.1018    1.2295 C   0  0  0  0  0  0  0  0  0  0  0  0
   -0.3491    5.9479   -0.0004 C   0  0  0  0  0  0  0  0  0  0  0  0
   -2.7486    5.2266   -0.1605 C   0  0  0  0  0  0  0  0  0  0  0  0
    6.4015   -0.7696   -0.1481 C   0  0  0  0  0  0  0  0  0  0  0  0
    5.4235   -3.0547    0.2068 C   0  0  0  0  0  0  0  0  0  0  0  0
   -5.0971   -3.2466   -0.9786 C   0  0  0  0  0  0  0  0  0  0  0  0
   -3.3373   -5.0303   -0.8207 C   0  0  0  0  0  0  0  0  0  0  0  0
   -0.9089    3.9898   -1.8175 H   0  0  0  0  0  0  0  0  0  0  0  0
    4.0446   -1.3411   -1.5044 H   0  0  0  0  0  0  0  0  0  0  0  0
   -2.5371   -2.5483   -1.7354 H   0  0  0  0  0  0  0  0  0  0  0  0
    3.4456    2.9434   -0.9186 H   0  0  0  0  0  0  0  0  0  0  0  0
   -4.2266    1.4988   -0.4689 H   0  0  0  0  0  0  0  0  0  0  0  0
    0.8494   -4.2244    0.4008 H   0  0  0  0  0  0  0  0  0  0  0  0
    2.2943    1.6780    1.4212 H   0  0  0  0  0  0  0  0  0  0  0  0
    0.2525   -1.7900    1.7982 H   0  0  0  0  0  0  0  0  0  0  0  0
   -3.6885    0.5666    2.1962 H   0  0  0  0  0  0  0  0  0  0  0  0
   -1.2901    4.4507    1.1844 H   0  0  0  0  0  0  0  0  0  0  0  0
    5.0479   -1.3280    1.4044 H   0  0  0  0  0  0  0  0  0  0  0  0
   -3.9224   -3.7100    0.7436 H   0  0  0  0  0  0  0  0  0  0  0  0
   -2.3152    2.3112   -1.6670 H   0  0  0  0  0  0  0  0  0  0  0  0
    4.1044    0.7811    0.4806 H   0  0  0  0  0  0  0  0  0  0  0  0
   -1.4467   -3.3701    0.9021 H   0  0  0  0  0  0  0  0  0  0  0  0
    3.9624    3.5405    1.5373 H   0  0  0  0  0  0  0  0  0  0  0  0
    2.7455    4.6731    0.9111 H   0  0  0  0  0  0  0  0  0  0  0  0
    2.5020    3.9197    2.4799 H   0  0  0  0  0  0  0  0  0  0  0  0
    1.7686   -2.6244    3.5764 H   0  0  0  0  0  0  0  0  0  0  0  0
   -5.9115   -0.5742    2.0107 H   0  0  0  0  0  0  0  0  0  0  0  0
    2.4961   -3.7795    2.4712 H   0  0  0  0  0  0  0  0  0  0  0  0
   -5.9334   -0.2750    0.2772 H   0  0  0  0  0  0  0  0  0  0  0  0
    0.7900   -3.9675    2.9422 H   0  0  0  0  0  0  0  0  0  0  0  0
   -5.9736    1.0957    1.3991 H   0  0  0  0  0  0  0  0  0  0  0  0
   -0.3070    6.3101   -1.0334 H   0  0  0  0  0  0  0  0  0  0  0  0
   -0.6668    6.7833    0.6332 H   0  0  0  0  0  0  0  0  0  0  0  0
    0.6647    5.6795    0.3071 H   0  0  0  0  0  0  0  0  0  0  0  0
   -3.4800    4.4401    0.0495 H   0  0  0  0  0  0  0  0  0  0  0  0
   -3.0158    6.0866    0.4635 H   0  0  0  0  0  0  0  0  0  0  0  0
   -2.8611    5.5272   -1.2080 H   0  0  0  0  0  0  0  0  0  0  0  0
    6.5720   -0.9249   -1.2190 H   0  0  0  0  0  0  0  0  0  0  0  0
    7.3025   -1.0940    0.3842 H   0  0  0  0  0  0  0  0  0  0  0  0
    6.2939    0.3054    0.0269 H   0  0  0  0  0  0  0  0  0  0  0  0
    4.6329   -3.6388    0.6877 H   0  0  0  0  0  0  0  0  0  0  0  0
    6.3647   -3.3352    0.6927 H   0  0  0  0  0  0  0  0  0  0  0  0
    5.4871   -3.3594   -0.8435 H   0  0  0  0  0  0  0  0  0  0  0  0
   -4.9977   -3.1241   -2.0627 H   0  0  0  0  0  0  0  0  0  0  0  0
   -5.8539   -4.0185   -0.7993 H   0  0  0  0  0  0  0  0  0  0  0  0
   -5.4887   -2.3154   -0.5662 H   0  0  0  0  0  0  0  0  0  0  0  0
   -3.1310   -5.0331   -1.8966 H   0  0  0  0  0  0  0  0  0  0  0  0
   -4.1266   -5.7657   -0.6297 H   0  0  0  0  0  0  0  0  0  0  0  0
   -2.4391   -5.3788   -0.3008 H   0  0  0  0  0  0  0  0  0  0  0  0
  1 19  1  0  0  0  0
  1 25  1  0  0  0  0
  2 20  1  0  0  0  0
  2 26  1  0  0  0  0
  3 21  1  0  0  0  0
  3 27  1  0  0  0  0
  4 28  2  0  0  0  0
  5 29  2  0  0  0  0
  6 30  2  0  0  0  0
  7 13  1  0  0  0  0
  7 29  1  0  0  0  0
  7 52  1  0  0  0  0
  8 14  1  0  0  0  0
  8 28  1  0  0  0  0
  8 53  1  0  0  0  0
  9 15  1  0  0  0  0
  9 30  1  0  0  0  0
  9 54  1  0  0  0  0
 10 16  1  0  0  0  0
 10 25  2  0  0  0  0
 11 17  1  0  0  0  0
 11 27  2  0  0  0  0
 12 18  1  0  0  0  0
 12 26  2  0  0  0  0
 13 22  1  0  0  0  0
 13 25  1  0  0  0  0
 13 40  1  0  0  0  0
 14 23  1  0  0  0  0
 14 26  1  0  0  0  0
 14 41  1  0  0  0  0
 15 24  1  0  0  0  0
 15 27  1  0  0  0  0
 15 42  1  0  0  0  0
 16 19  1  0  0  0  0
 16 28  1  0  0  0  0
 16 43  1  0  0  0  0
 17 21  1  0  0  0  0
 17 29  1  0  0  0  0
 17 44  1  0  0  0  0
 18 20  1  0  0  0  0
 18 30  1  0  0  0  0
 18 45  1  0  0  0  0
 19 31  1  0  0  0  0
 19 46  1  0  0  0  0
 20 32  1  0  0  0  0
 20 47  1  0  0  0  0
 21 33  1  0  0  0  0
 21 48  1  0  0  0  0
 22 34  1  0  0  0  0
 22 35  1  0  0  0  0
 22 49  1  0  0  0  0
 23 36  1  0  0  0  0
 23 37  1  0  0  0  0
 23 50  1  0  0  0  0
 24 38  1  0  0  0  0
 24 39  1  0  0  0  0
 24 51  1  0  0  0  0
 31 55  1  0  0  0  0
 31 56  1  0  0  0  0
 31 57  1  0  0  0  0
 32 58  1  0  0  0  0
 32 60  1  0  0  0  0
 32 62  1  0  0  0  0
 33 59  1  0  0  0  0
 33 61  1  0  0  0  0
 33 63  1  0  0  0  0
 34 64  1  0  0  0  0
 34 65  1  0  0  0  0
 34 66  1  0  0  0  0
 35 67  1  0  0  0  0
 35 68  1  0  0  0  0
 35 69  1  0  0  0  0
 36 70  1  0  0  0  0
 36 71  1  0  0  0  0
 36 72  1  0  0  0  0
 37 73  1  0  0  0  0
 37 74  1  0  0  0  0
 37 75  1  0  0  0  0
 38 76  1  0  0  0  0
 38 77  1  0  0  0  0
 38 78  1  0  0  0  0
 39 79  1  0  0  0  0
 39 80  1  0  0  0  0
 39 81  1  0  0  0  0
M  END
> <PUBCHEM_COMPOUND_CID>
159587

> <PUBCHEM_CONFORMER_RMSD>
1

> <PUBCHEM_CONFORMER_DIVERSEORDER>
1
8
9
7
5
6
12
10
4
11
3
2

> <PUBCHEM_MMFF94_PARTIAL_CHARGES>
30
1 -0.43
10 -0.7
11 -0.7
12 -0.7
13 0.36
14 0.36
15 0.36
16 0.31
17 0.31
18 0.31
19 0.28
2 -0.43
20 0.28
21 0.28
25 0.54
26 0.54
27 0.54
28 0.57
29 0.57
3 -0.43
30 0.57
4 -0.57
5 -0.57
52 0.37
53 0.37
54 0.37
6 -0.57
7 -0.73
8 -0.73
9 -0.73

> <PUBCHEM_EFFECTIVE_ROTOR_COUNT>
5.4

> <PUBCHEM_PHARMACOPHORE_FEATURES>
12
1 4 acceptor
1 5 acceptor
1 6 acceptor
1 7 donor
1 8 donor
1 9 donor
3 22 34 35 hydrophobe
3 23 36 37 hydrophobe
3 24 38 39 hydrophobe
5 1 10 16 19 25 rings
5 2 12 18 20 26 rings
5 3 11 17 21 27 rings

> <PUBCHEM_HEAVY_ATOM_COUNT>
39

> <PUBCHEM_ATOM_DEF_STEREO_COUNT>
9

> <PUBCHEM_ATOM_UDEF_STEREO_COUNT>
0

> <PUBCHEM_BOND_DEF_STEREO_COUNT>
0

> <PUBCHEM_BOND_UDEF_STEREO_COUNT>
0

> <PUBCHEM_ISOTOPIC_ATOM_COUNT>
0

> <PUBCHEM_COMPONENT_COUNT>
1

> <PUBCHEM_CACTVS_TAUTO_COUNT>
4

> <PUBCHEM_CONFORMER_ID>
00026F6300000001

> <PUBCHEM_MMFF94_ENERGY>
69.3124

> <PUBCHEM_FEATURE_SELFOVERLAP>
60.892

> <PUBCHEM_SHAPE_FINGERPRINT>
10290309 65 17832698346388855975
10675989 125 17545327376629973901
1100329 8 18410289203208606899
11014199 57 18410575050472600470
12156800 1 6040538500277789037
13122387 1 17691686010001113009
13140716 1 18335980866029328679
14028597 1 17703244987715324178
14040221 299 17042333207771489870
14117953 113 18264485256099563159
14394314 77 18338226072815838392
14395042 24 18335130974518998227
14725015 67 18340767156219957265
15264996 163 18343582975423598093
15320467 1 18338236097268649844
15400415 2 17617662494223004932
15968369 26 17401511255342917875
19311894 1 18410572898747180982
19930381 70 17690281508609501639
20764821 26 18197487446462286944
463206 1 18341605976212479817
469060 322 16700317853983159262
5309563 4 18341323449143257929
5776283 40 17260172308225868644
9961470 85 18262527991999867681

> <PUBCHEM_SHAPE_MULTIPOLES>
737.5
10.04
8.57
1.5
3.82
7.58
0.49
-8.35
0.48
-4.32
-0.32
0.18
-0.52
-1.39

> <PUBCHEM_SHAPE_SELFOVERLAP>
1547.5

> <PUBCHEM_SHAPE_VOLUME>
416.9

> <PUBCHEM_COORDINATE_TYPE>
2
5
10

$$$$

