440729
  -OEChem-07051212502D

 23 23  0     1  0  0  0  0  0999 V2000
    2.8660   -1.5950    0.0000 O   0  0  0  0  0  0  0  0  0  0  0  0
    3.7320    1.9050    0.0000 O   0  0  0  0  0  0  0  0  0  0  0  0
    4.5981   -2.5950    0.0000 O   0  0  0  0  0  0  0  0  0  0  0  0
    5.4641    2.9050    0.0000 O   0  0  0  0  0  0  0  0  0  0  0  0
    4.5981    0.4050    0.0000 C   0  0  0  0  0  0  0  0  0  0  0  0
    4.5981    1.4050    0.0000 C   0  0  3  0  0  0  0  0  0  0  0  0
    3.7320   -0.0950    0.0000 C   0  0  0  0  0  0  0  0  0  0  0  0
    5.4641   -0.0950    0.0000 C   0  0  0  0  0  0  0  0  0  0  0  0
    3.7320   -1.0950    0.0000 C   0  0  0  0  0  0  0  0  0  0  0  0
    4.5981   -1.5950    0.0000 C   0  0  0  0  0  0  0  0  0  0  0  0
    5.4641   -1.0950    0.0000 C   0  0  0  0  0  0  0  0  0  0  0  0
    5.4641    1.9050    0.0000 C   0  0  0  0  0  0  0  0  0  0  0  0
    2.0000   -1.0950    0.0000 C   0  0  0  0  0  0  0  0  0  0  0  0
    4.5981    2.0250    0.0000 H   0  0  0  0  0  0  0  0  0  0  0  0
    3.1951    0.2150    0.0000 H   0  0  0  0  0  0  0  0  0  0  0  0
    6.0010    0.2150    0.0000 H   0  0  0  0  0  0  0  0  0  0  0  0
    6.0010   -1.4050    0.0000 H   0  0  0  0  0  0  0  0  0  0  0  0
    6.0010    1.5950    0.0000 H   0  0  0  0  0  0  0  0  0  0  0  0
    3.7320    2.5250    0.0000 H   0  0  0  0  0  0  0  0  0  0  0  0
    2.3100   -0.5581    0.0000 H   0  0  0  0  0  0  0  0  0  0  0  0
    1.4631   -0.7850    0.0000 H   0  0  0  0  0  0  0  0  0  0  0  0
    1.6900   -1.6319    0.0000 H   0  0  0  0  0  0  0  0  0  0  0  0
    5.1350   -2.9050    0.0000 H   0  0  0  0  0  0  0  0  0  0  0  0
  1  9  1  0  0  0  0
  1 13  1  0  0  0  0
  2  6  1  0  0  0  0
  2 19  1  0  0  0  0
  3 10  1  0  0  0  0
  3 23  1  0  0  0  0
  4 12  2  0  0  0  0
  5  6  1  0  0  0  0
  5  7  2  0  0  0  0
  5  8  1  0  0  0  0
  6 12  1  0  0  0  0
  6 14  1  0  0  0  0
  7  9  1  0  0  0  0
  7 15  1  0  0  0  0
  8 11  2  0  0  0  0
  8 16  1  0  0  0  0
  9 10  2  0  0  0  0
 10 11  1  0  0  0  0
 11 17  1  0  0  0  0
 12 18  1  0  0  0  0
 13 20  1  0  0  0  0
 13 21  1  0  0  0  0
 13 22  1  0  0  0  0
M  END
> <PUBCHEM_COMPOUND_CID>
440729

> <PUBCHEM_COMPOUND_CANONICALIZED>
1

> <PUBCHEM_CACTVS_COMPLEXITY>
171

> <PUBCHEM_CACTVS_HBOND_ACCEPTOR>
4

> <PUBCHEM_CACTVS_HBOND_DONOR>
2

> <PUBCHEM_CACTVS_ROTATABLE_BOND>
3

> <PUBCHEM_CACTVS_SUBSKEYS>
AAADccBwOAAAAAAAAAAAAAAAAAAAAAAAAAAwAAAAAAAAAAABAAAAGgAACAAADBSgmAIyBoAABgCIAihSgAICCAAgIAAIiAFGiIgNNjKGNRqAcCMkwBELuAfI7LTOIAABAAAAQABAAAIAAACAAAAAAAAAAA==

> <PUBCHEM_IUPAC_OPENEYE_NAME>
2-hydroxy-2-(4-hydroxy-3-methoxy-phenyl)acetaldehyde

> <PUBCHEM_IUPAC_CAS_NAME>
2-hydroxy-2-(4-hydroxy-3-methoxyphenyl)acetaldehyde

> <PUBCHEM_IUPAC_NAME>
2-hydroxy-2-(4-hydroxy-3-methoxyphenyl)acetaldehyde

> <PUBCHEM_IUPAC_SYSTEMATIC_NAME>
2-(3-methoxy-4-oxidanyl-phenyl)-2-oxidanyl-ethanal

> <PUBCHEM_IUPAC_TRADITIONAL_NAME>
2-hydroxy-2-(4-hydroxy-3-methoxy-phenyl)acetaldehyde

> <PUBCHEM_IUPAC_INCHI>
InChI=1S/C9H10O4/c1-13-9-4-6(8(12)5-10)2-3-7(9)11/h2-5,8,11-12H,1H3

> <PUBCHEM_IUPAC_INCHIKEY>
VISAJVAPYPFKCL-UHFFFAOYSA-N

> <PUBCHEM_XLOGP3>
-0.3

> <PUBCHEM_EXACT_MASS>
182.057909

> <PUBCHEM_MOLECULAR_FORMULA>
C9H10O4

> <PUBCHEM_MOLECULAR_WEIGHT>
182.1733

> <PUBCHEM_OPENEYE_CAN_SMILES>
COC1=C(C=CC(=C1)C(C=O)O)O

> <PUBCHEM_OPENEYE_ISO_SMILES>
COC1=C(C=CC(=C1)C(C=O)O)O

> <PUBCHEM_CACTVS_TPSA>
66.8

> <PUBCHEM_MONOISOTOPIC_WEIGHT>
182.057909

> <PUBCHEM_TOTAL_CHARGE>
0

> <PUBCHEM_HEAVY_ATOM_COUNT>
13

> <PUBCHEM_ATOM_DEF_STEREO_COUNT>
0

> <PUBCHEM_ATOM_UDEF_STEREO_COUNT>
1

> <PUBCHEM_BOND_DEF_STEREO_COUNT>
0

> <PUBCHEM_BOND_UDEF_STEREO_COUNT>
0

> <PUBCHEM_ISOTOPIC_ATOM_COUNT>
0

> <PUBCHEM_COMPONENT_COUNT>
1

> <PUBCHEM_CACTVS_TAUTO_COUNT>
27

> <PUBCHEM_COORDINATE_TYPE>
1
5
255

> <PUBCHEM_BONDANNOTATIONS>
10  11  8
6  2  3
5  7  8
5  8  8
7  9  8
8  11  8
9  10  8

$$$$

