11261
  -OEChem-06261205273D

 21 20  0     1  0  0  0  0  0999 V2000
    0.9140    0.8695   -1.2278 O   0  0  0  0  0  0  0  0  0  0  0  0
   -0.2095   -0.5814    0.3674 C   0  0  1  0  0  0  0  0  0  0  0  0
    0.7557    0.6095    0.1650 C   0  0  1  0  0  0  0  0  0  0  0  0
   -1.6132   -0.3102   -0.2199 C   0  0  0  0  0  0  0  0  0  0  0  0
    0.3283   -1.8819   -0.2471 C   0  0  0  0  0  0  0  0  0  0  0  0
    2.1322    0.3890    0.7845 C   0  0  0  0  0  0  0  0  0  0  0  0
   -2.3075    0.9054    0.3779 C   0  0  0  0  0  0  0  0  0  0  0  0
   -0.3224   -0.7471    1.4471 H   0  0  0  0  0  0  0  0  0  0  0  0
    0.3277    1.5081    0.6217 H   0  0  0  0  0  0  0  0  0  0  0  0
   -1.5556   -0.1900   -1.3085 H   0  0  0  0  0  0  0  0  0  0  0  0
   -2.2488   -1.1859   -0.0369 H   0  0  0  0  0  0  0  0  0  0  0  0
    1.2678   -2.1865    0.2237 H   0  0  0  0  0  0  0  0  0  0  0  0
    0.5017   -1.7777   -1.3232 H   0  0  0  0  0  0  0  0  0  0  0  0
   -0.3831   -2.7022   -0.1004 H   0  0  0  0  0  0  0  0  0  0  0  0
    2.7279    1.3059    0.7114 H   0  0  0  0  0  0  0  0  0  0  0  0
    2.0551    0.1131    1.8403 H   0  0  0  0  0  0  0  0  0  0  0  0
    2.6971   -0.3819    0.2508 H   0  0  0  0  0  0  0  0  0  0  0  0
   -3.3443    0.9523    0.0288 H   0  0  0  0  0  0  0  0  0  0  0  0
   -2.3210    0.8540    1.4710 H   0  0  0  0  0  0  0  0  0  0  0  0
   -1.8205    1.8372    0.0768 H   0  0  0  0  0  0  0  0  0  0  0  0
    1.4998    1.6404   -1.3185 H   0  0  0  0  0  0  0  0  0  0  0  0
  1  3  1  0  0  0  0
  1 21  1  0  0  0  0
  2  3  1  0  0  0  0
  2  4  1  0  0  0  0
  2  5  1  0  0  0  0
  2  8  1  0  0  0  0
  3  6  1  0  0  0  0
  3  9  1  0  0  0  0
  4  7  1  0  0  0  0
  4 10  1  0  0  0  0
  4 11  1  0  0  0  0
  5 12  1  0  0  0  0
  5 13  1  0  0  0  0
  5 14  1  0  0  0  0
  6 15  1  0  0  0  0
  6 16  1  0  0  0  0
  6 17  1  0  0  0  0
  7 18  1  0  0  0  0
  7 19  1  0  0  0  0
  7 20  1  0  0  0  0
M  END
> <PUBCHEM_COMPOUND_CID>
11261

> <PUBCHEM_CONFORMER_RMSD>
0.4

> <PUBCHEM_CONFORMER_DIVERSEORDER>
5
19
4
18
12
27
23
16
13
15
25
7
26
6
8
1
24
20
21
2
11
3
14
22
9
17
10

> <PUBCHEM_MMFF94_PARTIAL_CHARGES>
3
1 -0.68
21 0.4
3 0.28

> <PUBCHEM_EFFECTIVE_ROTOR_COUNT>
2

> <PUBCHEM_PHARMACOPHORE_FEATURES>
4
1 1 acceptor
1 1 donor
1 5 hydrophobe
1 7 hydrophobe

> <PUBCHEM_HEAVY_ATOM_COUNT>
7

> <PUBCHEM_ATOM_DEF_STEREO_COUNT>
0

> <PUBCHEM_ATOM_UDEF_STEREO_COUNT>
2

> <PUBCHEM_BOND_DEF_STEREO_COUNT>
0

> <PUBCHEM_BOND_UDEF_STEREO_COUNT>
0

> <PUBCHEM_ISOTOPIC_ATOM_COUNT>
0

> <PUBCHEM_COMPONENT_COUNT>
1

> <PUBCHEM_CACTVS_TAUTO_COUNT>
1

> <PUBCHEM_CONFORMER_ID>
00002BFD00000005

> <PUBCHEM_MMFF94_ENERGY>
7.4912

> <PUBCHEM_FEATURE_SELFOVERLAP>
20.297

> <PUBCHEM_SHAPE_FINGERPRINT>
137420 1 10514623924012534331
20096714 4 18341610386954027625
21040471 1 18336823108873468059
23211744 41 17386577851063610632
23552449 1 17467645801167687576
24536 1 18202273723878594657
29004967 10 15984838037912701144
5084963 1 17916880010227249099
5943 1 12514917977758366350

> <PUBCHEM_SHAPE_MULTIPOLES>
138.19
2.66
1.48
0.91
0.7
0.77
-0.18
-1.04
0.51
-0.1
-0.08
-0.25
-0.18
-0.08

> <PUBCHEM_SHAPE_SELFOVERLAP>
242.502

> <PUBCHEM_SHAPE_VOLUME>
92.5

> <PUBCHEM_COORDINATE_TYPE>
2
5
10

$$$$

