443423
  -OEChem-07051213023D

 39 41  0     1  0  0  0  0  0999 V2000
   -0.4754   -2.5915    0.5454 O   0  0  0  0  0  0  0  0  0  0  0  0
   -3.2388   -0.3544   -0.4679 O   0  0  0  0  0  0  0  0  0  0  0  0
   -1.2965    2.7597   -1.8546 O   0  0  0  0  0  0  0  0  0  0  0  0
   -0.9976    1.5025    0.1132 N   0  0  0  0  0  0  0  0  0  0  0  0
    5.0440    1.1484   -0.4843 N   0  0  0  0  0  0  0  0  0  0  0  0
   -0.8787    0.1622   -0.4188 C   0  0  2  0  0  0  0  0  0  0  0  0
   -2.0036   -0.7100    0.1495 C   0  0  2  0  0  0  0  0  0  0  0  0
   -1.7222   -2.2104   -0.0642 C   0  0  0  0  0  0  0  0  0  0  0  0
    0.4731   -0.4403   -0.1281 C   0  0  0  0  0  0  0  0  0  0  0  0
   -1.0387    1.7510    1.5347 C   0  0  0  0  0  0  0  0  0  0  0  0
   -0.8057    3.2456    1.6294 C   0  0  0  0  0  0  0  0  0  0  0  0
    0.5901   -1.7575    0.3339 C   0  0  0  0  0  0  0  0  0  0  0  0
   -1.2152    2.6538   -0.6400 C   0  0  0  0  0  0  0  0  0  0  0  0
   -1.4003    3.7914    0.3367 C   0  0  0  0  0  0  0  0  0  0  0  0
   -1.7124   -2.6313   -1.5451 C   0  0  0  0  0  0  0  0  0  0  0  0
   -2.8009   -3.0417    0.6526 C   0  0  0  0  0  0  0  0  0  0  0  0
    1.6473    0.2980   -0.3523 C   0  0  0  0  0  0  0  0  0  0  0  0
    1.8467   -2.3001    0.6224 C   0  0  0  0  0  0  0  0  0  0  0  0
    2.9013   -0.2500   -0.0776 C   0  0  0  0  0  0  0  0  0  0  0  0
    3.0004   -1.5468    0.4171 C   0  0  0  0  0  0  0  0  0  0  0  0
    4.0832    0.5213   -0.3019 C   0  0  0  0  0  0  0  0  0  0  0  0
   -0.9870    0.2283   -1.5093 H   0  0  0  0  0  0  0  0  0  0  0  0
   -2.1149   -0.5561    1.2293 H   0  0  0  0  0  0  0  0  0  0  0  0
   -0.2745    1.1824    2.0709 H   0  0  0  0  0  0  0  0  0  0  0  0
   -2.0339    1.5004    1.9156 H   0  0  0  0  0  0  0  0  0  0  0  0
    0.2720    3.4513    1.6487 H   0  0  0  0  0  0  0  0  0  0  0  0
   -1.2486    3.6907    2.5246 H   0  0  0  0  0  0  0  0  0  0  0  0
   -0.8796    4.6896   -0.0034 H   0  0  0  0  0  0  0  0  0  0  0  0
   -2.4708    3.9931    0.4425 H   0  0  0  0  0  0  0  0  0  0  0  0
   -1.4919   -3.7012   -1.6387 H   0  0  0  0  0  0  0  0  0  0  0  0
   -2.6747   -2.4364   -2.0294 H   0  0  0  0  0  0  0  0  0  0  0  0
   -0.9336   -2.1140   -2.1144 H   0  0  0  0  0  0  0  0  0  0  0  0
   -3.8000   -2.8613    0.2431 H   0  0  0  0  0  0  0  0  0  0  0  0
   -2.5843   -4.1135    0.5718 H   0  0  0  0  0  0  0  0  0  0  0  0
   -2.8187   -2.8145    1.7249 H   0  0  0  0  0  0  0  0  0  0  0  0
    1.5803    1.3120   -0.7428 H   0  0  0  0  0  0  0  0  0  0  0  0
   -3.3859    0.5919   -0.2992 H   0  0  0  0  0  0  0  0  0  0  0  0
    1.9329   -3.3172    0.9963 H   0  0  0  0  0  0  0  0  0  0  0  0
    3.9686   -1.9881    0.6401 H   0  0  0  0  0  0  0  0  0  0  0  0
  1  8  1  0  0  0  0
  1 12  1  0  0  0  0
  2  7  1  0  0  0  0
  2 37  1  0  0  0  0
  3 13  2  0  0  0  0
  4  6  1  0  0  0  0
  4 10  1  0  0  0  0
  4 13  1  0  0  0  0
  5 21  3  0  0  0  0
  6  7  1  0  0  0  0
  6  9  1  0  0  0  0
  6 22  1  0  0  0  0
  7  8  1  0  0  0  0
  7 23  1  0  0  0  0
  8 15  1  0  0  0  0
  8 16  1  0  0  0  0
  9 12  2  0  0  0  0
  9 17  1  0  0  0  0
 10 11  1  0  0  0  0
 10 24  1  0  0  0  0
 10 25  1  0  0  0  0
 11 14  1  0  0  0  0
 11 26  1  0  0  0  0
 11 27  1  0  0  0  0
 12 18  1  0  0  0  0
 13 14  1  0  0  0  0
 14 28  1  0  0  0  0
 14 29  1  0  0  0  0
 15 30  1  0  0  0  0
 15 31  1  0  0  0  0
 15 32  1  0  0  0  0
 16 33  1  0  0  0  0
 16 34  1  0  0  0  0
 16 35  1  0  0  0  0
 17 19  2  0  0  0  0
 17 36  1  0  0  0  0
 18 20  2  0  0  0  0
 18 38  1  0  0  0  0
 19 20  1  0  0  0  0
 19 21  1  0  0  0  0
 20 39  1  0  0  0  0
M  END
> <PUBCHEM_COMPOUND_CID>
443423

> <PUBCHEM_CONFORMER_RMSD>
0.6

> <PUBCHEM_CONFORMER_DIVERSEORDER>
1
8
2
10
5
7
11
4
9
12
3
6

> <PUBCHEM_MMFF94_PARTIAL_CHARGES>
22
1 -0.36
10 0.3
12 0.08
13 0.57
14 0.06
17 -0.15
18 -0.15
19 0.07
2 -0.68
20 -0.15
21 0.48
3 -0.57
36 0.15
37 0.4
38 0.15
39 0.15
4 -0.66
5 -0.56
6 0.44
7 0.28
8 0.28
9 -0.14

> <PUBCHEM_EFFECTIVE_ROTOR_COUNT>
2.6

> <PUBCHEM_PHARMACOPHORE_FEATURES>
9
1 1 acceptor
1 2 acceptor
1 2 donor
1 3 acceptor
1 5 acceptor
3 8 15 16 hydrophobe
5 4 10 11 13 14 rings
6 1 6 7 8 9 12 rings
6 9 12 17 18 19 20 rings

> <PUBCHEM_HEAVY_ATOM_COUNT>
21

> <PUBCHEM_ATOM_DEF_STEREO_COUNT>
0

> <PUBCHEM_ATOM_UDEF_STEREO_COUNT>
2

> <PUBCHEM_BOND_DEF_STEREO_COUNT>
0

> <PUBCHEM_BOND_UDEF_STEREO_COUNT>
0

> <PUBCHEM_ISOTOPIC_ATOM_COUNT>
0

> <PUBCHEM_COMPONENT_COUNT>
1

> <PUBCHEM_CACTVS_TAUTO_COUNT>
2

> <PUBCHEM_CONFORMER_ID>
0006C41F00000001

> <PUBCHEM_MMFF94_ENERGY>
55.7695

> <PUBCHEM_FEATURE_SELFOVERLAP>
45.697

> <PUBCHEM_SHAPE_FINGERPRINT>
10670039 82 18126267664197567604
108231 29 18051408462005468962
10871710 139 18200011964147130932
1100329 8 18265883666954008729
11112241 14 15077889065762382232
11582403 64 15981467111266253469
11640471 11 16380594324473723481
11680986 33 17259061792516963138
12173636 292 18044940318461868976
12788726 201 18336275625186950483
12954195 1 18263625386577759062
13027679 85 18264769866001381857
13132413 78 18194113028186379111
13140716 1 18339080363411592642
13583140 156 16983486163909092465
14081887 123 18262816089863322712
14955137 171 17903328464959499099
15490181 8 17758117385902156999
16945 1 18269835474731680451
18219364 16 17406268214568618916
18785283 64 17118879557776131883
19868273 325 18263366884516392854
20510252 161 18409730689892670218
20600515 1 17752180826096977582
21029758 11 18121219779330820271
21041028 32 18047173164837565139
21524375 3 17831870418195609411
21639500 275 17188418707392846933
21731228 192 17904757031079049170
2334 1 18050851009425277642
23402539 116 18265335006678502126
23419403 2 15176529848318370122
23557571 272 18263349322927596910
23558518 356 18048884288177186399
238 59 16834060386105431676
2748010 2 17977966599860061139
283562 15 18340485565548342994
34934 24 18411703153760988823
350125 39 18122899004195455426
352729 6 17975421531041926307
532947 4 17398677800808536280
7364860 26 17471008082071829659
81228 2 18410562994356592490

> <PUBCHEM_SHAPE_MULTIPOLES>
404.6
5.35
4.72
1.23
7.6
1.77
-0.09
0.12
-0.64
-4.02
0.52
-0.61
0.53
-0.56

> <PUBCHEM_SHAPE_SELFOVERLAP>
873.362

> <PUBCHEM_SHAPE_VOLUME>
221.1

> <PUBCHEM_COORDINATE_TYPE>
2
5
10

$$$$

