159846
  -OEChem-07051213092D

 26 27  0     0  0  0  0  0  0999 V2000
    2.8660    1.3916    0.0000 O   0  0  0  0  0  0  0  0  0  0  0  0
    2.8660   -1.6084    0.0000 O   0  0  0  0  0  0  0  0  0  0  0  0
    6.8335    2.8531    0.0000 O   0  0  0  0  0  0  0  0  0  0  0  0
    3.7320   -3.1084    0.0000 O   0  0  0  0  0  0  0  0  0  0  0  0
    4.5981    0.3916    0.0000 C   0  0  0  0  0  0  0  0  0  0  0  0
    4.5981    1.3916    0.0000 C   0  0  0  0  0  0  0  0  0  0  0  0
    3.7320   -0.1084    0.0000 C   0  0  0  0  0  0  0  0  0  0  0  0
    5.5443    1.6964    0.0000 C   0  0  0  0  0  0  0  0  0  0  0  0
    5.5443    0.0869    0.0000 C   0  0  0  0  0  0  0  0  0  0  0  0
    3.7320   -1.1084    0.0000 C   0  0  0  0  0  0  0  0  0  0  0  0
    6.1279    0.8916    0.0000 C   0  0  0  0  0  0  0  0  0  0  0  0
    3.7320    1.8916    0.0000 C   0  0  0  0  0  0  0  0  0  0  0  0
    2.8660    0.3916    0.0000 C   0  0  0  0  0  0  0  0  0  0  0  0
    5.8550    2.6469    0.0000 C   0  0  0  0  0  0  0  0  0  0  0  0
    2.8660   -2.6084    0.0000 C   0  0  0  0  0  0  0  0  0  0  0  0
    2.0000   -3.1084    0.0000 C   0  0  0  0  0  0  0  0  0  0  0  0
    5.7369   -0.5024    0.0000 H   0  0  0  0  0  0  0  0  0  0  0  0
    3.9441   -1.6910    0.0000 H   0  0  0  0  0  0  0  0  0  0  0  0
    4.3426   -1.0007    0.0000 H   0  0  0  0  0  0  0  0  0  0  0  0
    6.7479    0.8916    0.0000 H   0  0  0  0  0  0  0  0  0  0  0  0
    3.7320    2.5116    0.0000 H   0  0  0  0  0  0  0  0  0  0  0  0
    2.3291    0.0816    0.0000 H   0  0  0  0  0  0  0  0  0  0  0  0
    5.4409    3.1084    0.0000 H   0  0  0  0  0  0  0  0  0  0  0  0
    1.6900   -2.5714    0.0000 H   0  0  0  0  0  0  0  0  0  0  0  0
    1.4631   -3.4184    0.0000 H   0  0  0  0  0  0  0  0  0  0  0  0
    2.3100   -3.6453    0.0000 H   0  0  0  0  0  0  0  0  0  0  0  0
  1 12  1  0  0  0  0
  1 13  1  0  0  0  0
  2 10  1  0  0  0  0
  2 15  1  0  0  0  0
  3 14  2  0  0  0  0
  4 15  2  0  0  0  0
  5  6  1  0  0  0  0
  5  7  1  0  0  0  0
  5  9  2  0  0  0  0
  6  8  1  0  0  0  0
  6 12  2  0  0  0  0
  7 10  1  0  0  0  0
  7 13  2  0  0  0  0
  8 11  2  0  0  0  0
  8 14  1  0  0  0  0
  9 11  1  0  0  0  0
  9 17  1  0  0  0  0
 10 18  1  0  0  0  0
 10 19  1  0  0  0  0
 11 20  1  0  0  0  0
 12 21  1  0  0  0  0
 13 22  1  0  0  0  0
 14 23  1  0  0  0  0
 15 16  1  0  0  0  0
 16 24  1  0  0  0  0
 16 25  1  0  0  0  0
 16 26  1  0  0  0  0
M  END
> <PUBCHEM_COMPOUND_CID>
159846

> <PUBCHEM_COMPOUND_CANONICALIZED>
1

> <PUBCHEM_CACTVS_COMPLEXITY>
276

> <PUBCHEM_CACTVS_HBOND_ACCEPTOR>
4

> <PUBCHEM_CACTVS_HBOND_DONOR>
0

> <PUBCHEM_CACTVS_ROTATABLE_BOND>
4

> <PUBCHEM_CACTVS_SUBSKEYS>
AAADccBwOAAAAAAAAAAAAAAAAAAAAYAAAAAkAAAAAAAAAEgBgAAAGgAAAAAADACgmAIyDMAABECIAijSiAACCAAkIAAIiAEECMgMJzaENRqCOSCl4BEIqYeL7PiOgAAAAAAAAAAAAAAAAAAAAQAACAAAAA==

> <PUBCHEM_IUPAC_OPENEYE_NAME>
(7-formylcyclopenta[c]pyran-4-yl)methyl acetate

> <PUBCHEM_IUPAC_CAS_NAME>
acetic acid (7-formyl-4-cyclopenta[c]pyranyl)methyl ester

> <PUBCHEM_IUPAC_NAME>
(7-formylcyclopenta[c]pyran-4-yl)methyl acetate

> <PUBCHEM_IUPAC_SYSTEMATIC_NAME>
(7-methanoylcyclopenta[c]pyran-4-yl)methyl ethanoate

> <PUBCHEM_IUPAC_TRADITIONAL_NAME>
acetic acid (7-formylcyclopenta[c]pyran-4-yl)methyl ester

> <PUBCHEM_IUPAC_INCHI>
InChI=1S/C12H10O4/c1-8(14)16-6-10-5-15-7-12-9(4-13)2-3-11(10)12/h2-5,7H,6H2,1H3

> <PUBCHEM_IUPAC_INCHIKEY>
QIUOVIRIFZOCLL-UHFFFAOYSA-N

> <PUBCHEM_XLOGP3_AA>
1.1

> <PUBCHEM_EXACT_MASS>
218.057909

> <PUBCHEM_MOLECULAR_FORMULA>
C12H10O4

> <PUBCHEM_MOLECULAR_WEIGHT>
218.2054

> <PUBCHEM_OPENEYE_CAN_SMILES>
CC(=O)OCC1=COC=C2C1=CC=C2C=O

> <PUBCHEM_OPENEYE_ISO_SMILES>
CC(=O)OCC1=COC=C2C1=CC=C2C=O

> <PUBCHEM_CACTVS_TPSA>
56.5

> <PUBCHEM_MONOISOTOPIC_WEIGHT>
218.057909

> <PUBCHEM_TOTAL_CHARGE>
0

> <PUBCHEM_HEAVY_ATOM_COUNT>
16

> <PUBCHEM_ATOM_DEF_STEREO_COUNT>
0

> <PUBCHEM_ATOM_UDEF_STEREO_COUNT>
0

> <PUBCHEM_BOND_DEF_STEREO_COUNT>
0

> <PUBCHEM_BOND_UDEF_STEREO_COUNT>
0

> <PUBCHEM_ISOTOPIC_ATOM_COUNT>
0

> <PUBCHEM_COMPONENT_COUNT>
1

> <PUBCHEM_CACTVS_TAUTO_COUNT>
1

> <PUBCHEM_COORDINATE_TYPE>
1
5
255

> <PUBCHEM_BONDANNOTATIONS>
1  12  8
1  13  8
5  7  8
5  9  8
6  12  8
6  8  8
7  13  8
8  11  8
9  11  8

$$$$

