17396159
  -OEChem-06241222542D

 32 34  0     0  0  0  0  0  0999 V2000
    2.0000    2.5696    0.0000 Br  0  0  0  0  0  0  0  0  0  0  0  0
    8.9851   -2.5653    0.0000 S   0  0  0  0  0  0  0  0  0  0  0  0
    5.5000   -0.0285    0.0000 O   0  0  0  0  0  0  0  0  0  0  0  0
    8.0388   -1.2606    0.0000 N   0  0  0  0  0  0  0  0  0  0  0  0
    7.0878   -2.5696    0.0000 N   0  0  0  0  0  0  0  0  0  0  0  0
    4.0000   -0.8945    0.0000 N   0  0  0  0  0  0  0  0  0  0  0  0
    6.5000   -1.7606    0.0000 C   0  0  0  0  0  0  0  0  0  0  0  0
    5.5000   -1.7606    0.0000 C   0  0  0  0  0  0  0  0  0  0  0  0
    7.0878   -0.9515    0.0000 C   0  0  0  0  0  0  0  0  0  0  0  0
    8.0388   -2.2606    0.0000 C   0  0  0  0  0  0  0  0  0  0  0  0
    3.5000   -0.0285    0.0000 C   0  0  0  0  0  0  0  0  0  0  0  0
    5.0000   -0.8945    0.0000 C   0  0  0  0  0  0  0  0  0  0  0  0
    4.0000    0.8375    0.0000 C   0  0  0  0  0  0  0  0  0  0  0  0
    8.9851   -0.9558    0.0000 C   0  0  0  0  0  0  0  0  0  0  0  0
    2.5000   -0.0285    0.0000 C   0  0  0  0  0  0  0  0  0  0  0  0
    9.5687   -1.7606    0.0000 C   0  0  0  0  0  0  0  0  0  0  0  0
    3.5000    1.7036    0.0000 C   0  0  0  0  0  0  0  0  0  0  0  0
    5.0000    0.8375    0.0000 C   0  0  0  0  0  0  0  0  0  0  0  0
    2.0000    0.8375    0.0000 C   0  0  0  0  0  0  0  0  0  0  0  0
    2.5000    1.7036    0.0000 C   0  0  0  0  0  0  0  0  0  0  0  0
    4.9174   -1.9726    0.0000 H   0  0  0  0  0  0  0  0  0  0  0  0
    5.6077   -2.3711    0.0000 H   0  0  0  0  0  0  0  0  0  0  0  0
    6.8962   -0.3619    0.0000 H   0  0  0  0  0  0  0  0  0  0  0  0
    3.6900   -1.4315    0.0000 H   0  0  0  0  0  0  0  0  0  0  0  0
    9.1777   -0.3665    0.0000 H   0  0  0  0  0  0  0  0  0  0  0  0
    2.1900   -0.5654    0.0000 H   0  0  0  0  0  0  0  0  0  0  0  0
   10.1887   -1.7606    0.0000 H   0  0  0  0  0  0  0  0  0  0  0  0
    3.8100    2.2405    0.0000 H   0  0  0  0  0  0  0  0  0  0  0  0
    5.0000    0.2175    0.0000 H   0  0  0  0  0  0  0  0  0  0  0  0
    5.6200    0.8375    0.0000 H   0  0  0  0  0  0  0  0  0  0  0  0
    5.0000    1.4575    0.0000 H   0  0  0  0  0  0  0  0  0  0  0  0
    1.3800    0.8375    0.0000 H   0  0  0  0  0  0  0  0  0  0  0  0
  1 20  1  0  0  0  0
  2 10  1  0  0  0  0
  2 16  1  0  0  0  0
  3 12  2  0  0  0  0
  4  9  1  0  0  0  0
  4 10  1  0  0  0  0
  4 14  1  0  0  0  0
  5  7  1  0  0  0  0
  5 10  2  0  0  0  0
  6 11  1  0  0  0  0
  6 12  1  0  0  0  0
  6 24  1  0  0  0  0
  7  8  1  0  0  0  0
  7  9  2  0  0  0  0
  8 12  1  0  0  0  0
  8 21  1  0  0  0  0
  8 22  1  0  0  0  0
  9 23  1  0  0  0  0
 11 13  2  0  0  0  0
 11 15  1  0  0  0  0
 13 17  1  0  0  0  0
 13 18  1  0  0  0  0
 14 16  2  0  0  0  0
 14 25  1  0  0  0  0
 15 19  2  0  0  0  0
 15 26  1  0  0  0  0
 16 27  1  0  0  0  0
 17 20  2  0  0  0  0
 17 28  1  0  0  0  0
 18 29  1  0  0  0  0
 18 30  1  0  0  0  0
 18 31  1  0  0  0  0
 19 20  1  0  0  0  0
 19 32  1  0  0  0  0
M  END
> <PUBCHEM_COMPOUND_CID>
17396159

> <PUBCHEM_COMPOUND_CANONICALIZED>
1

> <PUBCHEM_CACTVS_COMPLEXITY>
370

> <PUBCHEM_CACTVS_HBOND_ACCEPTOR>
3

> <PUBCHEM_CACTVS_HBOND_DONOR>
1

> <PUBCHEM_CACTVS_ROTATABLE_BOND>
3

> <PUBCHEM_CACTVS_SUBSKEYS>
AAADccBzIABAEAAAAAAAAAAAAAAAAWLAAAAwAAAAAAAWAAAB8AAAHgRQAAABrAjF3gS/0ZfMGAisAzV3dACC8K1xGrxJ2A04dKiIaHrA3ZGUIAholALIyjcUgAAOAAAgEAACAAAAAEAgAAQAAAAAAAAAAA==

> <PUBCHEM_IUPAC_OPENEYE_NAME>
N-(4-bromo-2-methyl-phenyl)-2-imidazo[2,1-b]thiazol-6-yl-acetamide

> <PUBCHEM_IUPAC_CAS_NAME>
N-(4-bromo-2-methylphenyl)-2-(6-imidazo[2,1-b]thiazolyl)acetamide

> <PUBCHEM_IUPAC_NAME>
N-(4-bromo-2-methylphenyl)-2-imidazo[2,1-b][1,3]thiazol-6-ylacetamide

> <PUBCHEM_IUPAC_SYSTEMATIC_NAME>
N-(4-bromanyl-2-methyl-phenyl)-2-imidazo[2,1-b][1,3]thiazol-6-yl-ethanamide

> <PUBCHEM_IUPAC_TRADITIONAL_NAME>
N-(4-bromo-2-methyl-phenyl)-2-imidazo[2,1-b]thiazol-6-yl-acetamide

> <PUBCHEM_IUPAC_INCHI>
InChI=1S/C14H12BrN3OS/c1-9-6-10(15)2-3-12(9)17-13(19)7-11-8-18-4-5-20-14(18)16-11/h2-6,8H,7H2,1H3,(H,17,19)

> <PUBCHEM_IUPAC_INCHIKEY>
QNHHWHLLXNMTPY-UHFFFAOYSA-N

> <PUBCHEM_XLOGP3_AA>
3.7

> <PUBCHEM_EXACT_MASS>
348.988445

> <PUBCHEM_MOLECULAR_FORMULA>
C14H12BrN3OS

> <PUBCHEM_MOLECULAR_WEIGHT>
350.23358

> <PUBCHEM_OPENEYE_CAN_SMILES>
CC1=C(C=CC(=C1)Br)NC(=O)CC2=CN3C=CSC3=N2

> <PUBCHEM_OPENEYE_ISO_SMILES>
CC1=C(C=CC(=C1)Br)NC(=O)CC2=CN3C=CSC3=N2

> <PUBCHEM_CACTVS_TPSA>
74.6

> <PUBCHEM_MONOISOTOPIC_WEIGHT>
348.988445

> <PUBCHEM_TOTAL_CHARGE>
0

> <PUBCHEM_HEAVY_ATOM_COUNT>
20

> <PUBCHEM_ATOM_DEF_STEREO_COUNT>
0

> <PUBCHEM_ATOM_UDEF_STEREO_COUNT>
0

> <PUBCHEM_BOND_DEF_STEREO_COUNT>
0

> <PUBCHEM_BOND_UDEF_STEREO_COUNT>
0

> <PUBCHEM_ISOTOPIC_ATOM_COUNT>
0

> <PUBCHEM_COMPONENT_COUNT>
1

> <PUBCHEM_CACTVS_TAUTO_COUNT>
3

> <PUBCHEM_COORDINATE_TYPE>
1
5
255

> <PUBCHEM_BONDANNOTATIONS>
11  13  8
11  15  8
13  17  8
14  16  8
15  19  8
17  20  8
19  20  8
2  10  8
2  16  8
4  10  8
4  14  8
4  9  8
5  10  8
5  7  8
7  9  8

$$$$

