5459970
  -OEChem-07051212472D

 61 65  0     0  0  0  0  0  0999 V2000
    3.0000    3.3270    0.0000 S   0  0  0  0  0  0  0  0  0  0  0  0
   13.7260   -3.6370    0.0000 S   0  0  0  0  0  0  0  0  0  0  0  0
    9.4530    1.5823    0.0000 O   0  0  0  0  0  0  0  0  0  0  0  0
    3.0000    2.3270    0.0000 O   0  0  0  0  0  0  0  0  0  0  0  0
   12.7260   -3.6370    0.0000 O   0  0  0  0  0  0  0  0  0  0  0  0
    3.0000    4.3270    0.0000 O   0  0  0  0  0  0  0  0  0  0  0  0
   14.7260   -3.6370    0.0000 O   0  0  0  0  0  0  0  0  0  0  0  0
    2.0000    3.3270    0.0000 O   0  0  0  0  0  0  0  0  0  0  0  0
    4.0000    3.3270    0.0000 O   0  0  0  0  0  0  0  0  0  0  0  0
   13.7260   -4.6370    0.0000 O   0  0  0  0  0  0  0  0  0  0  0  0
   13.7260   -2.6370    0.0000 O   0  0  0  0  0  0  0  0  0  0  0  0
    8.1962    0.3271    0.0000 N   0  0  0  0  0  0  0  0  0  0  0  0
    6.4641   -0.6729    0.0000 N   0  0  0  0  0  0  0  0  0  0  0  0
    9.1424   -0.9777    0.0000 N   0  0  0  0  0  0  0  0  0  0  0  0
    8.1962   -0.6729    0.0000 C   0  0  0  0  0  0  0  0  0  0  0  0
    7.3301   -1.1730    0.0000 C   0  0  0  0  0  0  0  0  0  0  0  0
    7.3301   -2.1730    0.0000 C   0  0  0  0  0  0  0  0  0  0  0  0
    6.4641    0.3271    0.0000 C   0  0  0  0  0  0  0  0  0  0  0  0
    9.7260   -0.1729    0.0000 C   0  0  0  0  0  0  0  0  0  0  0  0
    7.3301    0.8271    0.0000 C   0  0  0  0  0  0  0  0  0  0  0  0
    9.1424    0.6318    0.0000 C   0  0  0  0  0  0  0  0  0  0  0  0
   10.7260   -0.1729    0.0000 C   0  0  0  0  0  0  0  0  0  0  0  0
    5.5981    0.8271    0.0000 C   0  0  0  0  0  0  0  0  0  0  0  0
    6.4641   -2.6730    0.0000 C   0  0  0  0  0  0  0  0  0  0  0  0
   11.2260   -1.0390    0.0000 C   0  0  0  0  0  0  0  0  0  0  0  0
    5.5981    1.8270    0.0000 C   0  0  0  0  0  0  0  0  0  0  0  0
    4.7320    0.3271    0.0000 C   0  0  0  0  0  0  0  0  0  0  0  0
    5.5981   -2.1730    0.0000 C   0  0  0  0  0  0  0  0  0  0  0  0
    6.4641   -3.6730    0.0000 C   0  0  0  0  0  0  0  0  0  0  0  0
   10.7260   -1.9050    0.0000 C   0  0  0  0  0  0  0  0  0  0  0  0
   12.2260   -1.0390    0.0000 C   0  0  0  0  0  0  0  0  0  0  0  0
    4.7320    2.3270    0.0000 C   0  0  0  0  0  0  0  0  0  0  0  0
    3.8660    0.8271    0.0000 C   0  0  0  0  0  0  0  0  0  0  0  0
    3.8660    1.8270    0.0000 C   0  0  0  0  0  0  0  0  0  0  0  0
    4.7320   -2.6730    0.0000 C   0  0  0  0  0  0  0  0  0  0  0  0
    5.5981   -4.1730    0.0000 C   0  0  0  0  0  0  0  0  0  0  0  0
   11.2260   -2.7710    0.0000 C   0  0  0  0  0  0  0  0  0  0  0  0
   12.7260   -1.9050    0.0000 C   0  0  0  0  0  0  0  0  0  0  0  0
   12.2260   -2.7710    0.0000 C   0  0  0  0  0  0  0  0  0  0  0  0
    4.7320   -3.6730    0.0000 C   0  0  0  0  0  0  0  0  0  0  0  0
    7.5422   -2.7556    0.0000 H   0  0  0  0  0  0  0  0  0  0  0  0
    7.9407   -2.0653    0.0000 H   0  0  0  0  0  0  0  0  0  0  0  0
    5.9272   -0.9829    0.0000 H   0  0  0  0  0  0  0  0  0  0  0  0
    7.3301    1.4470    0.0000 H   0  0  0  0  0  0  0  0  0  0  0  0
   11.3086    0.0391    0.0000 H   0  0  0  0  0  0  0  0  0  0  0  0
   10.6183    0.4376    0.0000 H   0  0  0  0  0  0  0  0  0  0  0  0
    6.1350    2.1370    0.0000 H   0  0  0  0  0  0  0  0  0  0  0  0
    4.7320   -0.2929    0.0000 H   0  0  0  0  0  0  0  0  0  0  0  0
    5.5981   -1.5530    0.0000 H   0  0  0  0  0  0  0  0  0  0  0  0
    7.0010   -3.9830    0.0000 H   0  0  0  0  0  0  0  0  0  0  0  0
   10.1060   -1.9050    0.0000 H   0  0  0  0  0  0  0  0  0  0  0  0
   12.5360   -0.5020    0.0000 H   0  0  0  0  0  0  0  0  0  0  0  0
    4.7320    2.9470    0.0000 H   0  0  0  0  0  0  0  0  0  0  0  0
    3.3291    0.5171    0.0000 H   0  0  0  0  0  0  0  0  0  0  0  0
    4.1951   -2.3630    0.0000 H   0  0  0  0  0  0  0  0  0  0  0  0
    5.5981   -4.7930    0.0000 H   0  0  0  0  0  0  0  0  0  0  0  0
   10.9160   -3.3080    0.0000 H   0  0  0  0  0  0  0  0  0  0  0  0
   13.3460   -1.9050    0.0000 H   0  0  0  0  0  0  0  0  0  0  0  0
    4.1951   -3.9830    0.0000 H   0  0  0  0  0  0  0  0  0  0  0  0
    2.4631    4.6370    0.0000 H   0  0  0  0  0  0  0  0  0  0  0  0
   15.0360   -4.1740    0.0000 H   0  0  0  0  0  0  0  0  0  0  0  0
  1  4  1  0  0  0  0
  1  6  1  0  0  0  0
  1  8  2  0  0  0  0
  1  9  2  0  0  0  0
  2  5  1  0  0  0  0
  2  7  1  0  0  0  0
  2 10  2  0  0  0  0
  2 11  2  0  0  0  0
  3 21  2  0  0  0  0
  4 34  1  0  0  0  0
  5 39  1  0  0  0  0
  6 60  1  0  0  0  0
  7 61  1  0  0  0  0
 12 15  1  0  0  0  0
 12 20  1  0  0  0  0
 12 21  1  0  0  0  0
 13 16  1  0  0  0  0
 13 18  1  0  0  0  0
 13 43  1  0  0  0  0
 14 15  1  0  0  0  0
 14 19  2  0  0  0  0
 15 16  2  0  0  0  0
 16 17  1  0  0  0  0
 17 24  1  0  0  0  0
 17 41  1  0  0  0  0
 17 42  1  0  0  0  0
 18 20  2  0  0  0  0
 18 23  1  0  0  0  0
 19 21  1  0  0  0  0
 19 22  1  0  0  0  0
 20 44  1  0  0  0  0
 22 25  1  0  0  0  0
 22 45  1  0  0  0  0
 22 46  1  0  0  0  0
 23 26  2  0  0  0  0
 23 27  1  0  0  0  0
 24 28  2  0  0  0  0
 24 29  1  0  0  0  0
 25 30  2  0  0  0  0
 25 31  1  0  0  0  0
 26 32  1  0  0  0  0
 26 47  1  0  0  0  0
 27 33  2  0  0  0  0
 27 48  1  0  0  0  0
 28 35  1  0  0  0  0
 28 49  1  0  0  0  0
 29 36  2  0  0  0  0
 29 50  1  0  0  0  0
 30 37  1  0  0  0  0
 30 51  1  0  0  0  0
 31 38  2  0  0  0  0
 31 52  1  0  0  0  0
 32 34  2  0  0  0  0
 32 53  1  0  0  0  0
 33 34  1  0  0  0  0
 33 54  1  0  0  0  0
 35 40  2  0  0  0  0
 35 55  1  0  0  0  0
 36 40  1  0  0  0  0
 36 56  1  0  0  0  0
 37 39  2  0  0  0  0
 37 57  1  0  0  0  0
 38 39  1  0  0  0  0
 38 58  1  0  0  0  0
 40 59  1  0  0  0  0
M  END
> <PUBCHEM_COMPOUND_CID>
5459970

> <PUBCHEM_COMPOUND_CANONICALIZED>
1

> <PUBCHEM_CACTVS_COMPLEXITY>
1260

> <PUBCHEM_CACTVS_HBOND_ACCEPTOR>
11

> <PUBCHEM_CACTVS_HBOND_DONOR>
3

> <PUBCHEM_CACTVS_ROTATABLE_BOND>
9

> <PUBCHEM_CACTVS_SUBSKEYS>
AAADceB7PABgAAAAAAAAAAAAAAAAAQAAAAAwYMEAAAAAAEABUAAAHgAQCAAADAzBmAQxBoPAAICoAyV2VDCCAAAgIgAIiAE+DIiIJjKAkROEMAhk0xOIiAeY2KKOIAAAAAAAAABAAAAAAAAAAAAAAAAAAA==

> <PUBCHEM_IUPAC_OPENEYE_NAME>
[4-[[8-benzyl-3-oxo-6-(4-sulfooxyphenyl)-7H-imidazo[1,2-a]pyrazin-2-yl]methyl]phenyl] hydrogen sulfate

> <PUBCHEM_IUPAC_CAS_NAME>
sulfuric acid [4-[[3-oxo-8-(phenylmethyl)-6-(4-sulfooxyphenyl)-7H-imidazo[1,2-a]pyrazin-2-yl]methyl]phenyl] ester

> <PUBCHEM_IUPAC_NAME>
[4-[[8-benzyl-3-oxo-6-(4-sulfooxyphenyl)-7H-imidazo[1,2-a]pyrazin-2-yl]methyl]phenyl] hydrogen sulfate

> <PUBCHEM_IUPAC_SYSTEMATIC_NAME>
[4-[[3-oxidanylidene-8-(phenylmethyl)-6-(4-sulfooxyphenyl)-7H-imidazo[1,2-a]pyrazin-2-yl]methyl]phenyl] hydrogen sulfate

> <PUBCHEM_IUPAC_TRADITIONAL_NAME>
sulfuric acid [4-[8-benzyl-3-keto-2-(4-sulfoxybenzyl)-7H-imidazo[1,2-a]pyrazin-6-yl]phenyl] ester

> <PUBCHEM_IUPAC_INCHI>
InChI=1S/C26H21N3O9S2/c30-26-23(15-18-6-10-20(11-7-18)37-39(31,32)33)28-25-22(14-17-4-2-1-3-5-17)27-24(16-29(25)26)19-8-12-21(13-9-19)38-40(34,35)36/h1-13,16,27H,14-15H2,(H,31,32,33)(H,34,35,36)

> <PUBCHEM_IUPAC_INCHIKEY>
PTGHKNQEZNRQKY-UHFFFAOYSA-N

> <PUBCHEM_XLOGP3_AA>
3.2

> <PUBCHEM_EXACT_MASS>
583.071921

> <PUBCHEM_MOLECULAR_FORMULA>
C26H21N3O9S2

> <PUBCHEM_MOLECULAR_WEIGHT>
583.58964

> <PUBCHEM_OPENEYE_CAN_SMILES>
C1=CC=C(C=C1)CC2=C3N=C(C(=O)N3C=C(N2)C4=CC=C(C=C4)OS(=O)(=O)O)CC5=CC=C(C=C5)OS(=O)(=O)O

> <PUBCHEM_OPENEYE_ISO_SMILES>
C1=CC=C(C=C1)CC2=C3N=C(C(=O)N3C=C(N2)C4=CC=C(C=C4)OS(=O)(=O)O)CC5=CC=C(C=C5)OS(=O)(=O)O

> <PUBCHEM_CACTVS_TPSA>
189

> <PUBCHEM_MONOISOTOPIC_WEIGHT>
583.071921

> <PUBCHEM_TOTAL_CHARGE>
0

> <PUBCHEM_HEAVY_ATOM_COUNT>
40

> <PUBCHEM_ATOM_DEF_STEREO_COUNT>
0

> <PUBCHEM_ATOM_UDEF_STEREO_COUNT>
0

> <PUBCHEM_BOND_DEF_STEREO_COUNT>
0

> <PUBCHEM_BOND_UDEF_STEREO_COUNT>
0

> <PUBCHEM_ISOTOPIC_ATOM_COUNT>
0

> <PUBCHEM_COMPONENT_COUNT>
1

> <PUBCHEM_CACTVS_TAUTO_COUNT>
5

> <PUBCHEM_COORDINATE_TYPE>
1
5
255

> <PUBCHEM_BONDANNOTATIONS>
12  20  8
12  21  8
13  16  8
13  18  8
14  15  8
14  19  8
15  16  8
18  20  8
19  21  8
23  26  8
23  27  8
24  28  8
24  29  8
25  30  8
25  31  8
26  32  8
27  33  8
28  35  8
29  36  8
30  37  8
31  38  8
32  34  8
33  34  8
35  40  8
36  40  8
37  39  8
38  39  8

$$$$

