44229223
  -OEChem-07051213113D

 29 28  0     1  0  0  0  0  0999 V2000
   -2.8150    1.8083    0.6120 O   0  0  0  0  0  0  0  0  0  0  0  0
   -3.8563    0.8205   -1.1435 O   0  0  0  0  0  0  0  0  0  0  0  0
    1.1083   -0.5817   -0.1946 N   0  0  0  0  0  0  0  0  0  0  0  0
   -3.6576   -1.6030    0.1520 N   0  0  0  0  0  0  0  0  0  0  0  0
    5.9840    0.0986   -0.3883 N   0  0  0  0  0  0  0  0  0  0  0  0
   -1.3155   -0.9576   -0.1620 C   0  0  0  0  0  0  0  0  0  0  0  0
   -0.1431   -0.1755    0.4362 C   0  0  0  0  0  0  0  0  0  0  0  0
   -2.6632   -0.5727    0.4614 C   0  0  1  0  0  0  0  0  0  0  0  0
    2.2321    0.1614    0.3568 C   0  0  0  0  0  0  0  0  0  0  0  0
    3.5581   -0.2399   -0.2930 C   0  0  0  0  0  0  0  0  0  0  0  0
    4.7577    0.5145    0.2833 C   0  0  0  0  0  0  0  0  0  0  0  0
   -3.1894    0.7271   -0.1205 C   0  0  0  0  0  0  0  0  0  0  0  0
   -1.1287   -2.0281    0.0022 H   0  0  0  0  0  0  0  0  0  0  0  0
   -1.3448   -0.8048   -1.2494 H   0  0  0  0  0  0  0  0  0  0  0  0
   -0.3019    0.8969    0.2775 H   0  0  0  0  0  0  0  0  0  0  0  0
   -0.1005   -0.3551    1.5173 H   0  0  0  0  0  0  0  0  0  0  0  0
   -2.5910   -0.4852    1.5511 H   0  0  0  0  0  0  0  0  0  0  0  0
    2.0788    1.2366    0.2026 H   0  0  0  0  0  0  0  0  0  0  0  0
    2.3011   -0.0109    1.4381 H   0  0  0  0  0  0  0  0  0  0  0  0
    1.2556   -1.5815   -0.0593 H   0  0  0  0  0  0  0  0  0  0  0  0
    3.4984   -0.0582   -1.3744 H   0  0  0  0  0  0  0  0  0  0  0  0
    3.7119   -1.3194   -0.1618 H   0  0  0  0  0  0  0  0  0  0  0  0
    4.8457    0.3201    1.3577 H   0  0  0  0  0  0  0  0  0  0  0  0
    4.6231    1.5929    0.1481 H   0  0  0  0  0  0  0  0  0  0  0  0
   -4.5345   -1.3838    0.6240 H   0  0  0  0  0  0  0  0  0  0  0  0
   -3.3511   -2.4988    0.5298 H   0  0  0  0  0  0  0  0  0  0  0  0
    6.1328   -0.8993   -0.2442 H   0  0  0  0  0  0  0  0  0  0  0  0
    6.7796    0.5706    0.0393 H   0  0  0  0  0  0  0  0  0  0  0  0
   -3.1472    2.6457    0.2237 H   0  0  0  0  0  0  0  0  0  0  0  0
  1 12  1  0  0  0  0
  1 29  1  0  0  0  0
  2 12  2  0  0  0  0
  3  7  1  0  0  0  0
  3  9  1  0  0  0  0
  3 20  1  0  0  0  0
  4  8  1  0  0  0  0
  4 25  1  0  0  0  0
  4 26  1  0  0  0  0
  5 11  1  0  0  0  0
  5 27  1  0  0  0  0
  5 28  1  0  0  0  0
  6  7  1  0  0  0  0
  6  8  1  0  0  0  0
  6 13  1  0  0  0  0
  6 14  1  0  0  0  0
  7 15  1  0  0  0  0
  7 16  1  0  0  0  0
  8 12  1  0  0  0  0
  8 17  1  0  0  0  0
  9 10  1  0  0  0  0
  9 18  1  0  0  0  0
  9 19  1  0  0  0  0
 10 11  1  0  0  0  0
 10 21  1  0  0  0  0
 10 22  1  0  0  0  0
 11 23  1  0  0  0  0
 11 24  1  0  0  0  0
M  END
> <PUBCHEM_COMPOUND_CID>
44229223

> <PUBCHEM_CONFORMER_RMSD>
0.8

> <PUBCHEM_CONFORMER_DIVERSEORDER>
1
152
185
114
32
26
56
159
62
25
95
155
8
102
142
77
9
163
69
27
139
43
73
83
20
35
94
64
186
138
131
151
19
181
14
148
92
170
4
156
29
174
3
71
147
123
172
48
146
187
165
39
192
101
166
16
118
11
135
154
104
79
125
126
6
164
158
97
5
112
111
34
105
96
160
33
116
91
190
50
108
171
74
136
129
162
115
153
24
173
87
49
183
2
82
23
51
189
109
80
30
168
44
128
75
141
133
113
175
106
121
143
46
42
145
47
100
28
140
176
144
182
85
22
72
59
178
150
90
68
98
157
99
84
161
81
89
122
66
61
21
119
15
110
65
60
86
184
37
127
167
76
12
31
177
179
7
54
107
117
36
169
134
191
130
124
180
40
41
93
45
137
52
58
149
188
10
13
63
78
70
103
132
57
17
18
88
38
120
55
67
53

> <PUBCHEM_MMFF94_PARTIAL_CHARGES>
16
1 -0.65
11 0.27
12 0.66
2 -0.57
20 0.36
25 0.36
26 0.36
27 0.36
28 0.36
29 0.5
3 -0.9
4 -0.99
5 -0.99
7 0.27
8 0.33
9 0.27

> <PUBCHEM_EFFECTIVE_ROTOR_COUNT>
7

> <PUBCHEM_PHARMACOPHORE_FEATURES>
9
1 1 acceptor
1 2 acceptor
1 3 cation
1 3 donor
1 4 cation
1 4 donor
1 5 cation
1 5 donor
3 1 2 12 anion

> <PUBCHEM_HEAVY_ATOM_COUNT>
12

> <PUBCHEM_ATOM_DEF_STEREO_COUNT>
0

> <PUBCHEM_ATOM_UDEF_STEREO_COUNT>
1

> <PUBCHEM_BOND_DEF_STEREO_COUNT>
0

> <PUBCHEM_BOND_UDEF_STEREO_COUNT>
0

> <PUBCHEM_ISOTOPIC_ATOM_COUNT>
0

> <PUBCHEM_COMPONENT_COUNT>
1

> <PUBCHEM_CACTVS_TAUTO_COUNT>
1

> <PUBCHEM_CONFORMER_ID>
02A2E26700000001

> <PUBCHEM_MMFF94_ENERGY>
-3.1121

> <PUBCHEM_FEATURE_SELFOVERLAP>
45.728

> <PUBCHEM_SHAPE_FINGERPRINT>
10014705 185 18060423525318747333
10680689 15 18335135358683360338
10912923 1 17489872609792255482
14123238 8 17418375770926875178
15501527 16 18335697260580300641
17834072 33 18272086046653554980
1986462 14 18411134727523506279
20300324 65 17967820461452242317
20645477 56 18411416241655998073
20645477 70 17531236310344425038
20767249 213 17704075109834309757
20828058 21 18341612594889114026
21426921 1 18341613690253526007
23380061 127 18272090461511040275
23402539 116 18411143510736908102
23532345 12 18201152174879293636
23557571 272 18334007272901635367
42788 4 18342738495180844622

> <PUBCHEM_SHAPE_MULTIPOLES>
220.27
11.2
1.25
0.77
13.74
0.14
-0.06
1.55
-1.32
-1.69
0.09
-0.3
0.1
0.27

> <PUBCHEM_SHAPE_SELFOVERLAP>
404.3

> <PUBCHEM_SHAPE_VOLUME>
139.4

> <PUBCHEM_COORDINATE_TYPE>
2
5
10

$$$$

