12943
  -OEChem-06261207343D

 59 59  0     1  0  0  0  0  0999 V2000
    5.4018    0.3768   -0.1538 O   0  0  0  0  0  0  0  0  0  0  0  0
    2.3117    3.8737    0.2465 O   0  0  0  0  0  0  0  0  0  0  0  0
    3.1190   -4.2573   -0.5750 O   0  0  0  0  0  0  0  0  0  0  0  0
   -5.1701   -0.3883   -1.2731 O   0  0  0  0  0  0  0  0  0  0  0  0
   -4.8335    1.6320   -2.2536 O   0  0  0  0  0  0  0  0  0  0  0  0
    1.9099    1.5098   -0.1276 C   0  0  1  0  0  0  0  0  0  0  0  0
    2.9692    0.4029    0.0104 C   0  0  2  0  0  0  0  0  0  0  0  0
    4.2257    1.0159   -0.6262 C   0  0  1  0  0  0  0  0  0  0  0  0
    4.2245    2.4714   -0.1667 C   0  0  0  0  0  0  0  0  0  0  0  0
    0.8154    1.4323    0.9232 C   0  0  0  0  0  0  0  0  0  0  0  0
    2.7577    2.7562    0.0172 C   0  0  0  0  0  0  0  0  0  0  0  0
   -0.3978    2.2791    0.5342 C   0  0  0  0  0  0  0  0  0  0  0  0
    2.5534   -0.8760   -0.6472 C   0  0  0  0  0  0  0  0  0  0  0  0
   -1.4803    2.2266    1.6141 C   0  0  0  0  0  0  0  0  0  0  0  0
    2.4524   -2.0479   -0.0033 C   0  0  0  0  0  0  0  0  0  0  0  0
   -2.7238    3.0527    1.2718 C   0  0  0  0  0  0  0  0  0  0  0  0
    2.0359   -3.3300   -0.6681 C   0  0  2  0  0  0  0  0  0  0  0  0
    0.8157   -3.9794   -0.0011 C   0  0  0  0  0  0  0  0  0  0  0  0
   -3.4488    2.6622   -0.0192 C   0  0  0  0  0  0  0  0  0  0  0  0
   -0.4037   -3.0548    0.0582 C   0  0  0  0  0  0  0  0  0  0  0  0
   -4.0038    1.2384    0.0017 C   0  0  0  0  0  0  0  0  0  0  0  0
   -1.5983   -3.6714    0.7935 C   0  0  0  0  0  0  0  0  0  0  0  0
   -2.8404   -2.7794    0.7935 C   0  0  0  0  0  0  0  0  0  0  0  0
   -4.7004    0.8866   -1.2932 C   0  0  0  0  0  0  0  0  0  0  0  0
   -3.9915   -3.4322    1.5439 C   0  0  0  0  0  0  0  0  0  0  0  0
    1.4917    1.5121   -1.1427 H   0  0  0  0  0  0  0  0  0  0  0  0
    3.1754    0.2173    1.0752 H   0  0  0  0  0  0  0  0  0  0  0  0
    4.1989    0.9511   -1.7210 H   0  0  0  0  0  0  0  0  0  0  0  0
    4.7476    2.6075    0.7845 H   0  0  0  0  0  0  0  0  0  0  0  0
    4.6544    3.1277   -0.9275 H   0  0  0  0  0  0  0  0  0  0  0  0
    0.4860    0.3933    1.0444 H   0  0  0  0  0  0  0  0  0  0  0  0
    1.1967    1.7623    1.8979 H   0  0  0  0  0  0  0  0  0  0  0  0
   -0.7946    1.8985   -0.4135 H   0  0  0  0  0  0  0  0  0  0  0  0
   -0.1123    3.3226    0.3684 H   0  0  0  0  0  0  0  0  0  0  0  0
    2.3211   -0.8350   -1.7090 H   0  0  0  0  0  0  0  0  0  0  0  0
   -1.0649    2.6071    2.5557 H   0  0  0  0  0  0  0  0  0  0  0  0
   -1.7663    1.1857    1.8043 H   0  0  0  0  0  0  0  0  0  0  0  0
    6.1624    0.8470   -0.5360 H   0  0  0  0  0  0  0  0  0  0  0  0
    2.6883   -2.0968    1.0573 H   0  0  0  0  0  0  0  0  0  0  0  0
   -3.4281    2.9851    2.1103 H   0  0  0  0  0  0  0  0  0  0  0  0
   -2.4344    4.1086    1.1980 H   0  0  0  0  0  0  0  0  0  0  0  0
    1.8237   -3.1760   -1.7327 H   0  0  0  0  0  0  0  0  0  0  0  0
    0.5600   -4.9012   -0.5395 H   0  0  0  0  0  0  0  0  0  0  0  0
    1.0822   -4.3004    1.0151 H   0  0  0  0  0  0  0  0  0  0  0  0
   -4.2803    3.3633   -0.1692 H   0  0  0  0  0  0  0  0  0  0  0  0
   -2.7886    2.7999   -0.8831 H   0  0  0  0  0  0  0  0  0  0  0  0
   -0.7032   -2.7930   -0.9641 H   0  0  0  0  0  0  0  0  0  0  0  0
   -0.1474   -2.1170    0.5638 H   0  0  0  0  0  0  0  0  0  0  0  0
   -1.3067   -3.8890    1.8285 H   0  0  0  0  0  0  0  0  0  0  0  0
   -1.8469   -4.6326    0.3266 H   0  0  0  0  0  0  0  0  0  0  0  0
   -4.7226    1.1296    0.8209 H   0  0  0  0  0  0  0  0  0  0  0  0
   -3.1912    0.5178    0.1378 H   0  0  0  0  0  0  0  0  0  0  0  0
    3.8801   -3.8690   -1.0399 H   0  0  0  0  0  0  0  0  0  0  0  0
   -3.1499   -2.5733   -0.2375 H   0  0  0  0  0  0  0  0  0  0  0  0
   -2.6045   -1.8164    1.2609 H   0  0  0  0  0  0  0  0  0  0  0  0
   -4.2709   -4.3846    1.0824 H   0  0  0  0  0  0  0  0  0  0  0  0
   -3.7224   -3.6212    2.5880 H   0  0  0  0  0  0  0  0  0  0  0  0
   -4.8692   -2.7783    1.5323 H   0  0  0  0  0  0  0  0  0  0  0  0
   -5.6206   -0.6253   -2.1117 H   0  0  0  0  0  0  0  0  0  0  0  0
  1  8  1  0  0  0  0
  1 38  1  0  0  0  0
  2 11  2  0  0  0  0
  3 17  1  0  0  0  0
  3 53  1  0  0  0  0
  4 24  1  0  0  0  0
  4 59  1  0  0  0  0
  5 24  2  0  0  0  0
  6  7  1  0  0  0  0
  6 10  1  0  0  0  0
  6 11  1  0  0  0  0
  6 26  1  0  0  0  0
  7  8  1  0  0  0  0
  7 13  1  0  0  0  0
  7 27  1  0  0  0  0
  8  9  1  0  0  0  0
  8 28  1  0  0  0  0
  9 11  1  0  0  0  0
  9 29  1  0  0  0  0
  9 30  1  0  0  0  0
 10 12  1  0  0  0  0
 10 31  1  0  0  0  0
 10 32  1  0  0  0  0
 12 14  1  0  0  0  0
 12 33  1  0  0  0  0
 12 34  1  0  0  0  0
 13 15  2  0  0  0  0
 13 35  1  0  0  0  0
 14 16  1  0  0  0  0
 14 36  1  0  0  0  0
 14 37  1  0  0  0  0
 15 17  1  0  0  0  0
 15 39  1  0  0  0  0
 16 19  1  0  0  0  0
 16 40  1  0  0  0  0
 16 41  1  0  0  0  0
 17 18  1  0  0  0  0
 17 42  1  0  0  0  0
 18 20  1  0  0  0  0
 18 43  1  0  0  0  0
 18 44  1  0  0  0  0
 19 21  1  0  0  0  0
 19 45  1  0  0  0  0
 19 46  1  0  0  0  0
 20 22  1  0  0  0  0
 20 47  1  0  0  0  0
 20 48  1  0  0  0  0
 21 24  1  0  0  0  0
 21 51  1  0  0  0  0
 21 52  1  0  0  0  0
 22 23  1  0  0  0  0
 22 49  1  0  0  0  0
 22 50  1  0  0  0  0
 23 25  1  0  0  0  0
 23 54  1  0  0  0  0
 23 55  1  0  0  0  0
 25 56  1  0  0  0  0
 25 57  1  0  0  0  0
 25 58  1  0  0  0  0
M  END
> <PUBCHEM_COMPOUND_CID>
12943

> <PUBCHEM_CONFORMER_RMSD>
1.4

> <PUBCHEM_CONFORMER_DIVERSEORDER>
1
44
7
42
63
53
4
43
47
57
41
38
62
64
39
59
13
30
2
35
65
70
56
71
60
28
26
36
14
45
68
66
48
11
31
69
46
21
34
52
24
40
5
9
33
61
16
50
54
58
55
67
10
23
8
51
32
49
6
12
18
19
20
15
25
22
27
37
17
3
29

> <PUBCHEM_MMFF94_PARTIAL_CHARGES>
20
1 -0.68
11 0.45
13 -0.29
15 -0.29
17 0.42
2 -0.57
21 0.06
24 0.66
3 -0.68
35 0.15
38 0.4
39 0.15
4 -0.65
5 -0.57
53 0.4
59 0.5
6 0.06
7 0.14
8 0.28
9 0.06

> <PUBCHEM_EFFECTIVE_ROTOR_COUNT>
13.8

> <PUBCHEM_PHARMACOPHORE_FEATURES>
13
1 1 acceptor
1 1 donor
1 2 acceptor
1 25 hydrophobe
1 3 acceptor
1 3 donor
1 4 acceptor
1 5 acceptor
3 10 12 14 hydrophobe
3 16 19 21 hydrophobe
3 4 5 24 anion
4 18 20 22 23 hydrophobe
5 6 7 8 9 11 rings

> <PUBCHEM_HEAVY_ATOM_COUNT>
25

> <PUBCHEM_ATOM_DEF_STEREO_COUNT>
3

> <PUBCHEM_ATOM_UDEF_STEREO_COUNT>
0

> <PUBCHEM_BOND_DEF_STEREO_COUNT>
0

> <PUBCHEM_BOND_UDEF_STEREO_COUNT>
1

> <PUBCHEM_ISOTOPIC_ATOM_COUNT>
0

> <PUBCHEM_COMPONENT_COUNT>
1

> <PUBCHEM_CACTVS_TAUTO_COUNT>
3

> <PUBCHEM_CONFORMER_ID>
0000328F00000001

> <PUBCHEM_MMFF94_ENERGY>
21.2114

> <PUBCHEM_FEATURE_SELFOVERLAP>
66.026

> <PUBCHEM_SHAPE_FINGERPRINT>
10688039 33 17697029245981641955
1100329 8 18050839215735791986
13402501 40 18194396685460488203
14931854 50 18335710463810682197
15250474 111 18115598191574863453
17138139 8 17896058597155417909
20028762 73 18187369891536304350
20764821 26 18192997019810882047
21054139 6 18259990396525268788
21304303 94 18340218474485581001
21857420 4 15610236909136994245
325973 47 18337950220161840635
373842 8 18410861001148391570
3882209 13 15682258283721132419
4283 87 17759807335506059803
463206 1 17834105729861934521
50150288 127 16952220292880497857
6433294 58 18410287042829208835

> <PUBCHEM_SHAPE_MULTIPOLES>
485.14
10.26
6.88
1.32
4
5.79
-0.22
-3.72
-3.4
0.43
1.29
2.09
-0.36
1.96

> <PUBCHEM_SHAPE_SELFOVERLAP>
945.033

> <PUBCHEM_SHAPE_VOLUME>
292.9

> <PUBCHEM_COORDINATE_TYPE>
2
5
10

$$$$

