7098652
  -OEChem-07051213153D

 18 18  0     1  0  0  0  0  0999 V2000
    0.4449   -1.4894    1.0701 O   0  0  0  0  0  0  0  0  0  0  0  0
   -2.2504   -0.7656   -0.7315 O   0  0  0  0  0  0  0  0  0  0  0  0
   -2.0264    0.9293    0.7538 O   0  0  0  0  0  0  0  0  0  0  0  0
    0.5922    1.3173    0.1484 N   0  0  0  0  0  0  0  0  0  0  0  0
    0.7132   -0.9957   -0.2384 C   0  0  1  0  0  0  0  0  0  0  0  0
   -0.1091    0.2401   -0.5629 C   0  0  1  0  0  0  0  0  0  0  0  0
    2.1435   -0.4721   -0.2711 C   0  0  0  0  0  0  0  0  0  0  0  0
    2.0183    1.0375   -0.0705 C   0  0  0  0  0  0  0  0  0  0  0  0
   -1.5263    0.1984   -0.0979 C   0  0  0  0  0  0  0  0  0  0  0  0
    0.5531   -1.8122   -0.9485 H   0  0  0  0  0  0  0  0  0  0  0  0
   -0.0962    0.4649   -1.6365 H   0  0  0  0  0  0  0  0  0  0  0  0
    2.5955   -0.6681   -1.2501 H   0  0  0  0  0  0  0  0  0  0  0  0
    2.7724   -0.9269    0.5015 H   0  0  0  0  0  0  0  0  0  0  0  0
    2.6163    1.3839    0.7785 H   0  0  0  0  0  0  0  0  0  0  0  0
    2.3676    1.5717   -0.9613 H   0  0  0  0  0  0  0  0  0  0  0  0
    0.4028    1.2363    1.1483 H   0  0  0  0  0  0  0  0  0  0  0  0
    0.6125   -0.7758    1.7084 H   0  0  0  0  0  0  0  0  0  0  0  0
   -3.1805   -0.7862   -0.4203 H   0  0  0  0  0  0  0  0  0  0  0  0
  1  5  1  0  0  0  0
  1 17  1  0  0  0  0
  2  9  1  0  0  0  0
  2 18  1  0  0  0  0
  3  9  2  0  0  0  0
  4  6  1  0  0  0  0
  4  8  1  0  0  0  0
  4 16  1  0  0  0  0
  5  6  1  0  0  0  0
  5  7  1  0  0  0  0
  5 10  1  0  0  0  0
  6  9  1  0  0  0  0
  6 11  1  0  0  0  0
  7  8  1  0  0  0  0
  7 12  1  0  0  0  0
  7 13  1  0  0  0  0
  8 14  1  0  0  0  0
  8 15  1  0  0  0  0
M  END
> <PUBCHEM_COMPOUND_CID>
7098652

> <PUBCHEM_CONFORMER_RMSD>
0.4

> <PUBCHEM_CONFORMER_DIVERSEORDER>
1
6
3
4
2
5

> <PUBCHEM_MMFF94_PARTIAL_CHARGES>
11
1 -0.68
16 0.36
17 0.4
18 0.5
2 -0.65
3 -0.57
4 -0.9
5 0.28
6 0.33
8 0.27
9 0.66

> <PUBCHEM_EFFECTIVE_ROTOR_COUNT>
2

> <PUBCHEM_PHARMACOPHORE_FEATURES>
8
1 1 acceptor
1 1 donor
1 2 acceptor
1 3 acceptor
1 4 cation
1 4 donor
3 2 3 9 anion
5 4 5 6 7 8 rings

> <PUBCHEM_HEAVY_ATOM_COUNT>
9

> <PUBCHEM_ATOM_DEF_STEREO_COUNT>
2

> <PUBCHEM_ATOM_UDEF_STEREO_COUNT>
0

> <PUBCHEM_BOND_DEF_STEREO_COUNT>
0

> <PUBCHEM_BOND_UDEF_STEREO_COUNT>
0

> <PUBCHEM_ISOTOPIC_ATOM_COUNT>
0

> <PUBCHEM_COMPONENT_COUNT>
1

> <PUBCHEM_CACTVS_TAUTO_COUNT>
1

> <PUBCHEM_CONFORMER_ID>
006C511C00000001

> <PUBCHEM_MMFF94_ENERGY>
13.6051

> <PUBCHEM_FEATURE_SELFOVERLAP>
40.656

> <PUBCHEM_SHAPE_FINGERPRINT>
137420 1 17032972833144222740
16945 1 18189335662906065526
18185500 45 18266180715196959987
20653085 51 17387106729358256616
21040471 1 18269270175641631644
23552423 10 18410569617354438166
24536 1 17750529518756675861
29004967 10 17346305059457471092
5084963 1 18341901740271181684

> <PUBCHEM_SHAPE_MULTIPOLES>
162.63
2.9
1.37
0.83
0.58
0.05
0.08
-0.26
-0.19
-0.26
0.23
0.14
0.15
-0.25

> <PUBCHEM_SHAPE_SELFOVERLAP>
325.726

> <PUBCHEM_SHAPE_VOLUME>
96.9

> <PUBCHEM_COORDINATE_TYPE>
2
5
10

$$$$

