11271640
  -OEChem-07051213122D

 42 44  0     0  0  0  0  0  0999 V2000
    5.2423    3.9239    0.0000 Br  0  0  0  0  0  0  0  0  0  0  0  0
    5.4641   -3.9239    0.0000 Cl  0  0  0  0  0  0  0  0  0  0  0  0
    8.6254    3.5021    0.0000 Cl  0  0  0  0  0  0  0  0  0  0  0  0
    7.1962    0.0761    0.0000 O   0  0  0  0  0  0  0  0  0  0  0  0
    3.7320    0.0761    0.0000 O   0  0  0  0  0  0  0  0  0  0  0  0
    5.4641    0.0761    0.0000 N   0  0  0  0  0  0  0  0  0  0  0  0
    7.1391    2.1639    0.0000 N   0  0  0  0  0  0  0  0  0  0  0  0
    6.8301    3.1149    0.0000 N   0  0  0  0  0  0  0  0  0  0  0  0
    2.8660   -1.4239    0.0000 N   0  0  0  0  0  0  0  0  0  0  0  0
    8.2981    0.8767    0.0000 N   0  0  0  0  0  0  0  0  0  0  0  0
    5.4641   -0.9239    0.0000 C   0  0  0  0  0  0  0  0  0  0  0  0
    6.3301   -1.4239    0.0000 C   0  0  0  0  0  0  0  0  0  0  0  0
    4.5981   -1.4239    0.0000 C   0  0  0  0  0  0  0  0  0  0  0  0
    6.3301    1.5761    0.0000 C   0  0  0  0  0  0  0  0  0  0  0  0
    6.3301    0.5761    0.0000 C   0  0  0  0  0  0  0  0  0  0  0  0
    6.3301   -2.4239    0.0000 C   0  0  0  0  0  0  0  0  0  0  0  0
    4.5981   -2.4239    0.0000 C   0  0  0  0  0  0  0  0  0  0  0  0
    7.1962   -0.9239    0.0000 C   0  0  0  0  0  0  0  0  0  0  0  0
    5.4641   -2.9239    0.0000 C   0  0  0  0  0  0  0  0  0  0  0  0
    5.5211    2.1639    0.0000 C   0  0  0  0  0  0  0  0  0  0  0  0
    3.7320   -0.9239    0.0000 C   0  0  0  0  0  0  0  0  0  0  0  0
    8.0902    1.8548    0.0000 C   0  0  0  0  0  0  0  0  0  0  0  0
    5.8301    3.1149    0.0000 C   0  0  0  0  0  0  0  0  0  0  0  0
    8.8334    2.5240    0.0000 C   0  0  0  0  0  0  0  0  0  0  0  0
    9.7844    2.2150    0.0000 C   0  0  0  0  0  0  0  0  0  0  0  0
    9.2492    0.5677    0.0000 C   0  0  0  0  0  0  0  0  0  0  0  0
    9.9923    1.2368    0.0000 C   0  0  0  0  0  0  0  0  0  0  0  0
    2.0000   -0.9239    0.0000 C   0  0  0  0  0  0  0  0  0  0  0  0
    4.9272    0.3861    0.0000 H   0  0  0  0  0  0  0  0  0  0  0  0
    6.8671   -2.7339    0.0000 H   0  0  0  0  0  0  0  0  0  0  0  0
    4.0611   -2.7339    0.0000 H   0  0  0  0  0  0  0  0  0  0  0  0
    7.5062   -1.4609    0.0000 H   0  0  0  0  0  0  0  0  0  0  0  0
    7.7331   -0.6139    0.0000 H   0  0  0  0  0  0  0  0  0  0  0  0
    6.8862   -0.3870    0.0000 H   0  0  0  0  0  0  0  0  0  0  0  0
    4.9315    1.9723    0.0000 H   0  0  0  0  0  0  0  0  0  0  0  0
    2.8660   -2.0439    0.0000 H   0  0  0  0  0  0  0  0  0  0  0  0
   10.2452    2.6298    0.0000 H   0  0  0  0  0  0  0  0  0  0  0  0
    9.3781   -0.0388    0.0000 H   0  0  0  0  0  0  0  0  0  0  0  0
   10.5820    1.0452    0.0000 H   0  0  0  0  0  0  0  0  0  0  0  0
    2.3100   -0.3870    0.0000 H   0  0  0  0  0  0  0  0  0  0  0  0
    1.4631   -0.6139    0.0000 H   0  0  0  0  0  0  0  0  0  0  0  0
    1.6900   -1.4609    0.0000 H   0  0  0  0  0  0  0  0  0  0  0  0
  1 23  1  0  0  0  0
  2 19  1  0  0  0  0
  3 24  1  0  0  0  0
  4 15  2  0  0  0  0
  5 21  2  0  0  0  0
  6 11  1  0  0  0  0
  6 15  1  0  0  0  0
  6 29  1  0  0  0  0
  7  8  1  0  0  0  0
  7 14  1  0  0  0  0
  7 22  1  0  0  0  0
  8 23  2  0  0  0  0
  9 21  1  0  0  0  0
  9 28  1  0  0  0  0
  9 36  1  0  0  0  0
 10 22  1  0  0  0  0
 10 26  2  0  0  0  0
 11 12  1  0  0  0  0
 11 13  2  0  0  0  0
 12 16  2  0  0  0  0
 12 18  1  0  0  0  0
 13 17  1  0  0  0  0
 13 21  1  0  0  0  0
 14 15  1  0  0  0  0
 14 20  2  0  0  0  0
 16 19  1  0  0  0  0
 16 30  1  0  0  0  0
 17 19  2  0  0  0  0
 17 31  1  0  0  0  0
 18 32  1  0  0  0  0
 18 33  1  0  0  0  0
 18 34  1  0  0  0  0
 20 23  1  0  0  0  0
 20 35  1  0  0  0  0
 22 24  2  0  0  0  0
 24 25  1  0  0  0  0
 25 27  2  0  0  0  0
 25 37  1  0  0  0  0
 26 27  1  0  0  0  0
 26 38  1  0  0  0  0
 27 39  1  0  0  0  0
 28 40  1  0  0  0  0
 28 41  1  0  0  0  0
 28 42  1  0  0  0  0
M  END
> <PUBCHEM_COMPOUND_CID>
11271640

> <PUBCHEM_COMPOUND_CANONICALIZED>
1

> <PUBCHEM_CACTVS_COMPLEXITY>
586

> <PUBCHEM_CACTVS_HBOND_ACCEPTOR>
4

> <PUBCHEM_CACTVS_HBOND_DONOR>
2

> <PUBCHEM_CACTVS_ROTATABLE_BOND>
4

> <PUBCHEM_CACTVS_SUBSKEYS>
AAADccB7sAAGEAAAAAAAAAAAAAAAAWAAAAA8QAAAAAAAAAAB8AAAHgJYAAABPArBniQ/8JLIEACqAzd3dACShCk3ByQd2KG4ZviIYPrB3/HUpYhojgLIy+cciECOAABCIAACAAAAAIRAAAQAAAAAAAAAAA==

> <PUBCHEM_IUPAC_OPENEYE_NAME>
5-bromo-N-[4-chloro-2-methyl-6-(methylcarbamoyl)phenyl]-2-(3-chloro-2-pyridyl)pyrazole-3-carboxamide

> <PUBCHEM_IUPAC_CAS_NAME>
5-bromo-N-[4-chloro-2-methyl-6-(methylcarbamoyl)phenyl]-2-(3-chloro-2-pyridinyl)-3-pyrazolecarboxamide

> <PUBCHEM_IUPAC_NAME>
5-bromo-N-[4-chloro-2-methyl-6-(methylcarbamoyl)phenyl]-2-(3-chloropyridin-2-yl)pyrazole-3-carboxamide

> <PUBCHEM_IUPAC_SYSTEMATIC_NAME>
5-bromanyl-N-[4-chloranyl-2-methyl-6-(methylcarbamoyl)phenyl]-2-(3-chloranylpyridin-2-yl)pyrazole-3-carboxamide

> <PUBCHEM_IUPAC_TRADITIONAL_NAME>
5-bromo-N-[4-chloro-2-methyl-6-(methylcarbamoyl)phenyl]-2-(3-chloro-2-pyridyl)pyrazole-3-carboxamide

> <PUBCHEM_IUPAC_INCHI>
InChI=1S/C18H14BrCl2N5O2/c1-9-6-10(20)7-11(17(27)22-2)15(9)24-18(28)13-8-14(19)25-26(13)16-12(21)4-3-5-23-16/h3-8H,1-2H3,(H,22,27)(H,24,28)

> <PUBCHEM_IUPAC_INCHIKEY>
PSOVNZZNOMJUBI-UHFFFAOYSA-N

> <PUBCHEM_XLOGP3_AA>
4.8

> <PUBCHEM_EXACT_MASS>
480.970792

> <PUBCHEM_MOLECULAR_FORMULA>
C18H14BrCl2N5O2

> <PUBCHEM_MOLECULAR_WEIGHT>
483.14606

> <PUBCHEM_OPENEYE_CAN_SMILES>
CC1=C(C(=CC(=C1)Cl)C(=O)NC)NC(=O)C2=CC(=NN2C3=C(C=CC=N3)Cl)Br

> <PUBCHEM_OPENEYE_ISO_SMILES>
CC1=C(C(=CC(=C1)Cl)C(=O)NC)NC(=O)C2=CC(=NN2C3=C(C=CC=N3)Cl)Br

> <PUBCHEM_CACTVS_TPSA>
88.9

> <PUBCHEM_MONOISOTOPIC_WEIGHT>
480.970792

> <PUBCHEM_TOTAL_CHARGE>
0

> <PUBCHEM_HEAVY_ATOM_COUNT>
28

> <PUBCHEM_ATOM_DEF_STEREO_COUNT>
0

> <PUBCHEM_ATOM_UDEF_STEREO_COUNT>
0

> <PUBCHEM_BOND_DEF_STEREO_COUNT>
0

> <PUBCHEM_BOND_UDEF_STEREO_COUNT>
0

> <PUBCHEM_ISOTOPIC_ATOM_COUNT>
0

> <PUBCHEM_COMPONENT_COUNT>
1

> <PUBCHEM_CACTVS_TAUTO_COUNT>
9

> <PUBCHEM_COORDINATE_TYPE>
1
5
255

> <PUBCHEM_BONDANNOTATIONS>
10  22  8
10  26  8
11  12  8
11  13  8
12  16  8
13  17  8
14  20  8
16  19  8
17  19  8
20  23  8
22  24  8
24  25  8
25  27  8
26  27  8
7  14  8
7  8  8
8  23  8

$$$$

