24892780
  -OEChem-07051213083D

 93 93  0     1  0  0  0  0  0999 V2000
   10.7488    0.1160    1.0676 O   0  0  0  0  0  0  0  0  0  0  0  0
   14.3485    0.4249    1.6681 O   0  0  0  0  0  0  0  0  0  0  0  0
   13.7116    2.8159    0.1738 O   0  0  0  0  0  0  0  0  0  0  0  0
   11.5582    2.2785   -1.7640 O   0  0  0  0  0  0  0  0  0  0  0  0
    9.3318    1.0243   -0.5482 O   0  0  0  0  0  0  0  0  0  0  0  0
   11.0827   -2.0478    2.7299 O   0  0  0  0  0  0  0  0  0  0  0  0
    8.7855   -1.1716   -0.9672 O   0  0  0  0  0  0  0  0  0  0  0  0
   13.0244    0.8805    1.4029 C   0  0  1  0  0  0  0  0  0  0  0  0
   12.9948    1.5868    0.0473 C   0  0  1  0  0  0  0  0  0  0  0  0
   12.0667   -0.3132    1.4144 C   0  0  1  0  0  0  0  0  0  0  0  0
   11.5603    1.8772   -0.3942 C   0  0  2  0  0  0  0  0  0  0  0  0
   10.6747    0.6389   -0.2566 C   0  0  1  0  0  0  0  0  0  0  0  0
   11.9910   -0.9632    2.7923 C   0  0  0  0  0  0  0  0  0  0  0  0
    8.4884    0.0123   -0.8915 C   0  0  0  0  0  0  0  0  0  0  0  0
    7.1269    0.5679   -1.1703 C   0  0  0  0  0  0  0  0  0  0  0  0
    7.0345    1.9537   -1.7423 C   0  0  0  0  0  0  0  0  0  0  0  0
    6.0974   -0.2607   -0.9091 C   0  0  0  0  0  0  0  0  0  0  0  0
    4.6877    0.0215   -1.1064 C   0  0  0  0  0  0  0  0  0  0  0  0
    3.7251   -0.8709   -0.8162 C   0  0  0  0  0  0  0  0  0  0  0  0
    2.2795   -0.6840   -0.9783 C   0  0  0  0  0  0  0  0  0  0  0  0
  -14.0466    0.3188    0.4502 C   0  0  0  0  0  0  0  0  0  0  0  0
  -14.8088    1.2167   -0.5263 C   0  0  0  0  0  0  0  0  0  0  0  0
  -12.6178    0.7743    0.6566 C   0  0  0  0  0  0  0  0  0  0  0  0
  -16.2308    0.7556   -0.6813 C   0  0  0  0  0  0  0  0  0  0  0  0
    1.8076    0.6045   -1.6026 C   0  0  0  0  0  0  0  0  0  0  0  0
  -17.3000    1.1446    0.0384 C   0  0  0  0  0  0  0  0  0  0  0  0
    1.4650   -1.7027   -0.6296 C   0  0  0  0  0  0  0  0  0  0  0  0
  -12.4662    2.2013    1.1181 C   0  0  0  0  0  0  0  0  0  0  0  0
  -11.5245    0.0218    0.4207 C   0  0  0  0  0  0  0  0  0  0  0  0
  -18.7020    0.6447   -0.1661 C   0  0  0  0  0  0  0  0  0  0  0  0
  -17.1467    2.1376    1.1589 C   0  0  0  0  0  0  0  0  0  0  0  0
  -10.1425    0.4344    0.5627 C   0  0  0  0  0  0  0  0  0  0  0  0
    0.0173   -1.7321   -0.7071 C   0  0  0  0  0  0  0  0  0  0  0  0
   -9.1100   -0.3859    0.3045 C   0  0  0  0  0  0  0  0  0  0  0  0
   -7.6854   -0.0641    0.4370 C   0  0  0  0  0  0  0  0  0  0  0  0
   -0.7725   -2.7624   -0.3522 C   0  0  0  0  0  0  0  0  0  0  0  0
   -2.2293   -2.8515   -0.4070 C   0  0  0  0  0  0  0  0  0  0  0  0
   -6.7841   -1.0217    0.1304 C   0  0  0  0  0  0  0  0  0  0  0  0
   -7.3318    1.3108    0.9465 C   0  0  0  0  0  0  0  0  0  0  0  0
   -3.0954   -1.8660   -0.0905 C   0  0  0  0  0  0  0  0  0  0  0  0
   -5.3395   -0.9211    0.1888 C   0  0  0  0  0  0  0  0  0  0  0  0
   -2.7337   -4.1966   -0.8592 C   0  0  0  0  0  0  0  0  0  0  0  0
   -4.5409   -1.9480   -0.1427 C   0  0  0  0  0  0  0  0  0  0  0  0
   12.7585    1.5915    2.1947 H   0  0  0  0  0  0  0  0  0  0  0  0
   13.5269    1.0000   -0.7106 H   0  0  0  0  0  0  0  0  0  0  0  0
   12.3838   -1.0804    0.6948 H   0  0  0  0  0  0  0  0  0  0  0  0
   11.1431    2.7126    0.1806 H   0  0  0  0  0  0  0  0  0  0  0  0
   10.9966   -0.1255   -0.9780 H   0  0  0  0  0  0  0  0  0  0  0  0
   11.6136   -0.2549    3.5375 H   0  0  0  0  0  0  0  0  0  0  0  0
   12.9669   -1.3402    3.1128 H   0  0  0  0  0  0  0  0  0  0  0  0
   14.5890   -0.2172    0.9784 H   0  0  0  0  0  0  0  0  0  0  0  0
   13.2522    3.3679    0.8293 H   0  0  0  0  0  0  0  0  0  0  0  0
   11.9258    1.5497   -2.2925 H   0  0  0  0  0  0  0  0  0  0  0  0
   11.0470   -2.4437    3.6173 H   0  0  0  0  0  0  0  0  0  0  0  0
    7.1849    2.6996   -0.9553 H   0  0  0  0  0  0  0  0  0  0  0  0
    6.0760    2.1574   -2.2257 H   0  0  0  0  0  0  0  0  0  0  0  0
    7.8042    2.1009   -2.5083 H   0  0  0  0  0  0  0  0  0  0  0  0
    6.3076   -1.2486   -0.5003 H   0  0  0  0  0  0  0  0  0  0  0  0
    4.4242    0.9981   -1.4955 H   0  0  0  0  0  0  0  0  0  0  0  0
    4.0296   -1.8385   -0.4169 H   0  0  0  0  0  0  0  0  0  0  0  0
  -14.0611   -0.7161    0.0839 H   0  0  0  0  0  0  0  0  0  0  0  0
  -14.5477    0.3061    1.4267 H   0  0  0  0  0  0  0  0  0  0  0  0
  -14.7774    2.2710   -0.2336 H   0  0  0  0  0  0  0  0  0  0  0  0
  -14.3288    1.1786   -1.5131 H   0  0  0  0  0  0  0  0  0  0  0  0
  -16.3894    0.0181   -1.4668 H   0  0  0  0  0  0  0  0  0  0  0  0
    2.2724    0.7480   -2.5849 H   0  0  0  0  0  0  0  0  0  0  0  0
    2.0713    1.4548   -0.9636 H   0  0  0  0  0  0  0  0  0  0  0  0
    0.7298    0.6575   -1.7648 H   0  0  0  0  0  0  0  0  0  0  0  0
  -12.3765    2.8767    0.2614 H   0  0  0  0  0  0  0  0  0  0  0  0
  -11.6140    2.3531    1.7863 H   0  0  0  0  0  0  0  0  0  0  0  0
  -13.3413    2.5084    1.7029 H   0  0  0  0  0  0  0  0  0  0  0  0
    1.9043   -2.6124   -0.2196 H   0  0  0  0  0  0  0  0  0  0  0  0
  -11.6802   -0.9995    0.0765 H   0  0  0  0  0  0  0  0  0  0  0  0
  -19.0638    0.1405    0.7356 H   0  0  0  0  0  0  0  0  0  0  0  0
  -19.3737    1.4780   -0.3958 H   0  0  0  0  0  0  0  0  0  0  0  0
  -18.7589   -0.0691   -0.9944 H   0  0  0  0  0  0  0  0  0  0  0  0
  -17.6445    3.0767    0.8952 H   0  0  0  0  0  0  0  0  0  0  0  0
  -16.1136    2.3694    1.4255 H   0  0  0  0  0  0  0  0  0  0  0  0
  -17.6186    1.7472    2.0678 H   0  0  0  0  0  0  0  0  0  0  0  0
   -9.9485    1.4514    0.8815 H   0  0  0  0  0  0  0  0  0  0  0  0
   -0.4779   -0.8420   -1.0821 H   0  0  0  0  0  0  0  0  0  0  0  0
   -9.3336   -1.3999   -0.0271 H   0  0  0  0  0  0  0  0  0  0  0  0
   -0.2903   -3.6674    0.0185 H   0  0  0  0  0  0  0  0  0  0  0  0
   -7.1529   -1.9889   -0.2133 H   0  0  0  0  0  0  0  0  0  0  0  0
   -7.7759    1.4812    1.9338 H   0  0  0  0  0  0  0  0  0  0  0  0
   -7.6987    2.0801    0.2579 H   0  0  0  0  0  0  0  0  0  0  0  0
   -6.2589    1.4789    1.0584 H   0  0  0  0  0  0  0  0  0  0  0  0
   -2.6912   -0.9101    0.2404 H   0  0  0  0  0  0  0  0  0  0  0  0
   -4.8935    0.0156    0.5042 H   0  0  0  0  0  0  0  0  0  0  0  0
   -4.9892   -2.8869   -0.4536 H   0  0  0  0  0  0  0  0  0  0  0  0
   -3.0993   -4.7765   -0.0050 H   0  0  0  0  0  0  0  0  0  0  0  0
   -1.9448   -4.7853   -1.3428 H   0  0  0  0  0  0  0  0  0  0  0  0
   -3.5323   -4.1073   -1.6032 H   0  0  0  0  0  0  0  0  0  0  0  0
  1 10  1  0  0  0  0
  1 12  1  0  0  0  0
  2  8  1  0  0  0  0
  2 51  1  0  0  0  0
  3  9  1  0  0  0  0
  3 52  1  0  0  0  0
  4 11  1  0  0  0  0
  4 53  1  0  0  0  0
  5 12  1  0  0  0  0
  5 14  1  0  0  0  0
  6 13  1  0  0  0  0
  6 54  1  0  0  0  0
  7 14  2  0  0  0  0
  8  9  1  0  0  0  0
  8 10  1  0  0  0  0
  8 44  1  0  0  0  0
  9 11  1  0  0  0  0
  9 45  1  0  0  0  0
 10 13  1  0  0  0  0
 10 46  1  0  0  0  0
 11 12  1  0  0  0  0
 11 47  1  0  0  0  0
 12 48  1  0  0  0  0
 13 49  1  0  0  0  0
 13 50  1  0  0  0  0
 14 15  1  0  0  0  0
 15 16  1  0  0  0  0
 15 17  2  0  0  0  0
 16 55  1  0  0  0  0
 16 56  1  0  0  0  0
 16 57  1  0  0  0  0
 17 18  1  0  0  0  0
 17 58  1  0  0  0  0
 18 19  2  0  0  0  0
 18 59  1  0  0  0  0
 19 20  1  0  0  0  0
 19 60  1  0  0  0  0
 20 25  1  0  0  0  0
 20 27  2  0  0  0  0
 21 22  1  0  0  0  0
 21 23  1  0  0  0  0
 21 61  1  0  0  0  0
 21 62  1  0  0  0  0
 22 24  1  0  0  0  0
 22 63  1  0  0  0  0
 22 64  1  0  0  0  0
 23 28  1  0  0  0  0
 23 29  2  0  0  0  0
 24 26  2  0  0  0  0
 24 65  1  0  0  0  0
 25 66  1  0  0  0  0
 25 67  1  0  0  0  0
 25 68  1  0  0  0  0
 26 30  1  0  0  0  0
 26 31  1  0  0  0  0
 27 33  1  0  0  0  0
 27 72  1  0  0  0  0
 28 69  1  0  0  0  0
 28 70  1  0  0  0  0
 28 71  1  0  0  0  0
 29 32  1  0  0  0  0
 29 73  1  0  0  0  0
 30 74  1  0  0  0  0
 30 75  1  0  0  0  0
 30 76  1  0  0  0  0
 31 77  1  0  0  0  0
 31 78  1  0  0  0  0
 31 79  1  0  0  0  0
 32 34  2  0  0  0  0
 32 80  1  0  0  0  0
 33 36  2  0  0  0  0
 33 81  1  0  0  0  0
 34 35  1  0  0  0  0
 34 82  1  0  0  0  0
 35 38  2  0  0  0  0
 35 39  1  0  0  0  0
 36 37  1  0  0  0  0
 36 83  1  0  0  0  0
 37 40  2  0  0  0  0
 37 42  1  0  0  0  0
 38 41  1  0  0  0  0
 38 84  1  0  0  0  0
 39 85  1  0  0  0  0
 39 86  1  0  0  0  0
 39 87  1  0  0  0  0
 40 43  1  0  0  0  0
 40 88  1  0  0  0  0
 41 43  2  0  0  0  0
 41 89  1  0  0  0  0
 42 91  1  0  0  0  0
 42 92  1  0  0  0  0
 42 93  1  0  0  0  0
 43 90  1  0  0  0  0
M  END
> <PUBCHEM_COMPOUND_CID>
24892780

> <PUBCHEM_CONFORMER_RMSD>
1.4

> <PUBCHEM_CONFORMER_DIVERSEORDER>
1
98
104
69
32
109
97
37
75
93
65
45
36
48
107
41
82
105
90
66
53
56
62
101
81
50
96
26
40
39
108
5
29
19
91
67
57
85
23
77
86
52
55
95
27
106
13
20
34
54
78
12
25
10
68
70
63
30
71
7
79
46
100
21
92
22
61
43
17
14
73
87
38
51
60
64
44
35
47
94
31
9
102
24
74
83
84
8
49
28
103
99
11
88
3
89
59
33
18
2
80
15
58
110
16
72
4
76
42
6

> <PUBCHEM_MMFF94_PARTIAL_CHARGES>
61
1 -0.56
10 0.28
11 0.28
12 0.56
13 0.28
14 0.71
15 -0.12
16 0.14
17 -0.15
18 -0.15
19 -0.15
2 -0.68
20 -0.14
21 0.14
22 0.14
23 -0.28
24 -0.29
25 0.14
26 -0.28
27 -0.15
28 0.14
29 -0.15
3 -0.68
30 0.14
31 0.14
32 -0.15
33 -0.15
34 -0.15
35 -0.14
36 -0.15
37 -0.14
38 -0.15
39 0.14
4 -0.68
40 -0.15
41 -0.15
42 0.14
43 -0.15
5 -0.43
51 0.4
52 0.4
53 0.4
54 0.4
58 0.15
59 0.15
6 -0.68
60 0.15
65 0.15
7 -0.57
72 0.15
73 0.15
8 0.28
80 0.15
81 0.15
82 0.15
83 0.15
84 0.15
88 0.15
89 0.15
9 0.28
90 0.15

> <PUBCHEM_EFFECTIVE_ROTOR_COUNT>
16.2

> <PUBCHEM_PHARMACOPHORE_FEATURES>
18
1 1 acceptor
1 16 hydrophobe
1 2 acceptor
1 2 donor
1 25 hydrophobe
1 28 hydrophobe
1 3 acceptor
1 3 donor
1 39 hydrophobe
1 4 acceptor
1 4 donor
1 42 hydrophobe
1 6 acceptor
1 6 donor
1 7 acceptor
3 26 30 31 hydrophobe
4 21 22 23 24 hydrophobe
6 1 8 9 10 11 12 rings

> <PUBCHEM_HEAVY_ATOM_COUNT>
43

> <PUBCHEM_ATOM_DEF_STEREO_COUNT>
5

> <PUBCHEM_ATOM_UDEF_STEREO_COUNT>
0

> <PUBCHEM_BOND_DEF_STEREO_COUNT>
9

> <PUBCHEM_BOND_UDEF_STEREO_COUNT>
0

> <PUBCHEM_ISOTOPIC_ATOM_COUNT>
0

> <PUBCHEM_COMPONENT_COUNT>
1

> <PUBCHEM_CACTVS_TAUTO_COUNT>
1

> <PUBCHEM_CONFORMER_ID>
017BD56C00000001

> <PUBCHEM_MMFF94_ENERGY>
96.0602

> <PUBCHEM_FEATURE_SELFOVERLAP>
91.36

> <PUBCHEM_SHAPE_FINGERPRINT>
12559415 43 18409453587979397525
12559415 90 18261390079390900447
15061470 23 18260827094355288175
15219723 13 16702306766937632746
15343295 29 18335138708641859062
15538507 75 17060620005453248667
20105231 36 12319743553639314110
21057603 43 18340770446909880034
21362267 313 18408040716244340126
23528521 120 14490194904284800386
306946 40 16950281794199727722
44389302 135 13182733733385172697
9937071 3 16056885720315986354

> <PUBCHEM_SHAPE_MULTIPOLES>
843.83
104.76
2.86
1.63
205.2
1.89
0.78
-81.82
31.69
-0.58
-0.37
-7.23
-0.04
-4.31

> <PUBCHEM_SHAPE_SELFOVERLAP>
1683.99

> <PUBCHEM_SHAPE_VOLUME>
494

> <PUBCHEM_COORDINATE_TYPE>
2
5
10

$$$$

