5281324
  -OEChem-07051212562D

 80 83  0     1  0  0  0  0  0999 V2000
    9.9229   -0.7906    0.0000 O   0  0  0  0  0  0  0  0  0  0  0  0
    9.6005    0.6540    0.0000 O   0  0  0  0  0  0  0  0  0  0  0  0
    8.2928    2.6595    0.0000 O   0  0  0  0  0  0  0  0  0  0  0  0
    2.0161   -1.2513    0.0000 O   0  0  0  0  0  0  0  0  0  0  0  0
    2.0000   -3.3429    0.0000 O   0  0  0  0  0  0  0  0  0  0  0  0
   12.2068    3.4844    0.0000 O   0  0  0  0  0  0  0  0  0  0  0  0
    7.3931   -1.2906    0.0000 C   0  0  2  0  0  0  0  0  0  0  0  0
    7.3931   -0.2906    0.0000 C   0  0  1  0  0  0  0  0  0  0  0  0
    6.5271   -1.7906    0.0000 C   0  0  1  0  0  0  0  0  0  0  0  0
    5.6610   -1.2906    0.0000 C   0  0  1  0  0  0  0  0  0  0  0  0
    8.3393    0.0142    0.0000 C   0  0  2  0  0  0  0  0  0  0  0  0
    8.3393   -1.5953    0.0000 C   0  0  0  0  0  0  0  0  0  0  0  0
    6.5271    0.2094    0.0000 C   0  0  0  0  0  0  0  0  0  0  0  0
    5.6610   -0.2906    0.0000 C   0  0  0  0  0  0  0  0  0  0  0  0
    8.9229   -0.7906    0.0000 C   0  0  1  0  0  0  0  0  0  0  0  0
    4.7510   -1.7974    0.0000 C   0  0  1  0  0  0  0  0  0  0  0  0
    6.5431   -2.8321    0.0000 C   0  0  0  0  0  0  0  0  0  0  0  0
    7.3931   -2.2906    0.0000 C   0  0  0  0  0  0  0  0  0  0  0  0
    7.3931    0.7094    0.0000 C   0  0  0  0  0  0  0  0  0  0  0  0
    8.6500    0.9647    0.0000 C   0  0  1  0  0  0  0  0  0  0  0  0
    4.7950   -0.7906    0.0000 C   0  0  0  0  0  0  0  0  0  0  0  0
    4.7430   -2.8390    0.0000 C   0  0  0  0  0  0  0  0  0  0  0  0
    5.6451   -3.3598    0.0000 C   0  0  0  0  0  0  0  0  0  0  0  0
    3.8076   -3.3887    0.0000 C   0  0  0  0  0  0  0  0  0  0  0  0
    3.8242   -1.2333    0.0000 C   0  0  0  0  0  0  0  0  0  0  0  0
    7.6994    1.2754    0.0000 C   0  0  0  0  0  0  0  0  0  0  0  0
    8.9606    1.9152    0.0000 C   0  0  0  0  0  0  0  0  0  0  0  0
    2.8763   -1.7613    0.0000 C   0  0  0  0  0  0  0  0  0  0  0  0
    2.8680   -2.8462    0.0000 C   0  0  0  0  0  0  0  0  0  0  0  0
    3.3109   -4.2567    0.0000 C   0  0  0  0  0  0  0  0  0  0  0  0
    4.3109   -4.2528    0.0000 C   0  0  0  0  0  0  0  0  0  0  0  0
    9.9391    2.1214    0.0000 C   0  0  0  0  0  0  0  0  0  0  0  0
   10.2498    3.0720    0.0000 C   0  0  0  0  0  0  0  0  0  0  0  0
   11.2283    3.2782    0.0000 C   0  0  0  0  0  0  0  0  0  0  0  0
   11.0221    4.2567    0.0000 C   0  0  0  0  0  0  0  0  0  0  0  0
   11.4345    2.2997    0.0000 C   0  0  0  0  0  0  0  0  0  0  0  0
    7.2664   -2.2099    0.0000 H   0  0  0  0  0  0  0  0  0  0  0  0
    7.7396    0.6165    0.0000 H   0  0  0  0  0  0  0  0  0  0  0  0
    8.0883   -2.1622    0.0000 H   0  0  0  0  0  0  0  0  0  0  0  0
    8.8767   -1.9045    0.0000 H   0  0  0  0  0  0  0  0  0  0  0  0
    6.9256    0.6844    0.0000 H   0  0  0  0  0  0  0  0  0  0  0  0
    6.1285    0.6844    0.0000 H   0  0  0  0  0  0  0  0  0  0  0  0
    5.4490    0.2920    0.0000 H   0  0  0  0  0  0  0  0  0  0  0  0
    5.0504   -0.3982    0.0000 H   0  0  0  0  0  0  0  0  0  0  0  0
    9.2046   -1.3429    0.0000 H   0  0  0  0  0  0  0  0  0  0  0  0
    4.7674   -0.9476    0.0000 H   0  0  0  0  0  0  0  0  0  0  0  0
    6.7612   -3.4125    0.0000 H   0  0  0  0  0  0  0  0  0  0  0  0
    7.1523   -2.7166    0.0000 H   0  0  0  0  0  0  0  0  0  0  0  0
    6.7731   -2.2906    0.0000 H   0  0  0  0  0  0  0  0  0  0  0  0
    7.3931   -2.9106    0.0000 H   0  0  0  0  0  0  0  0  0  0  0  0
    8.0131   -2.2906    0.0000 H   0  0  0  0  0  0  0  0  0  0  0  0
    8.0131    0.7094    0.0000 H   0  0  0  0  0  0  0  0  0  0  0  0
    7.3931    1.3294    0.0000 H   0  0  0  0  0  0  0  0  0  0  0  0
    6.7731    0.7094    0.0000 H   0  0  0  0  0  0  0  0  0  0  0  0
    5.1050   -0.2536    0.0000 H   0  0  0  0  0  0  0  0  0  0  0  0
    4.2581   -0.4806    0.0000 H   0  0  0  0  0  0  0  0  0  0  0  0
    4.4850   -1.3275    0.0000 H   0  0  0  0  0  0  0  0  0  0  0  0
    5.6475   -3.9798    0.0000 H   0  0  0  0  0  0  0  0  0  0  0  0
    3.8361   -0.6134    0.0000 H   0  0  0  0  0  0  0  0  0  0  0  0
   10.2329   -1.3275    0.0000 H   0  0  0  0  0  0  0  0  0  0  0  0
    7.8921    1.8647    0.0000 H   0  0  0  0  0  0  0  0  0  0  0  0
    7.1101    1.4680    0.0000 H   0  0  0  0  0  0  0  0  0  0  0  0
    7.5068    0.6860    0.0000 H   0  0  0  0  0  0  0  0  0  0  0  0
   10.0620    1.0681    0.0000 H   0  0  0  0  0  0  0  0  0  0  0  0
    2.7728   -3.9488    0.0000 H   0  0  0  0  0  0  0  0  0  0  0  0
    3.0030   -4.7948    0.0000 H   0  0  0  0  0  0  0  0  0  0  0  0
    3.8490   -4.5646    0.0000 H   0  0  0  0  0  0  0  0  0  0  0  0
    3.7752   -4.5649    0.0000 H   0  0  0  0  0  0  0  0  0  0  0  0
    4.6230   -4.7886    0.0000 H   0  0  0  0  0  0  0  0  0  0  0  0
    4.8466   -3.9408    0.0000 H   0  0  0  0  0  0  0  0  0  0  0  0
   10.3532    1.6600    0.0000 H   0  0  0  0  0  0  0  0  0  0  0  0
    2.0233   -0.6313    0.0000 H   0  0  0  0  0  0  0  0  0  0  0  0
    9.8357    3.5334    0.0000 H   0  0  0  0  0  0  0  0  0  0  0  0
   11.6288    4.3845    0.0000 H   0  0  0  0  0  0  0  0  0  0  0  0
   10.8942    4.8633    0.0000 H   0  0  0  0  0  0  0  0  0  0  0  0
   10.4154    4.1288    0.0000 H   0  0  0  0  0  0  0  0  0  0  0  0
   10.8278    2.1718    0.0000 H   0  0  0  0  0  0  0  0  0  0  0  0
   11.5624    1.6930    0.0000 H   0  0  0  0  0  0  0  0  0  0  0  0
   12.0412    2.4275    0.0000 H   0  0  0  0  0  0  0  0  0  0  0  0
   12.3994    4.0737    0.0000 H   0  0  0  0  0  0  0  0  0  0  0  0
 15  1  1  6  0  0  0
  1 60  1  0  0  0  0
 20  2  1  1  0  0  0
  2 64  1  0  0  0  0
  3 27  2  0  0  0  0
  4 28  1  0  0  0  0
  4 72  1  0  0  0  0
  5 29  2  0  0  0  0
  6 34  1  0  0  0  0
  6 80  1  0  0  0  0
  7  8  1  0  0  0  0
  7  9  1  0  0  0  0
  7 12  1  0  0  0  0
  7 18  1  6  0  0  0
  8 11  1  0  0  0  0
  8 13  1  0  0  0  0
  8 19  1  1  0  0  0
  9 10  1  0  0  0  0
  9 17  1  0  0  0  0
  9 37  1  1  0  0  0
 10 14  1  0  0  0  0
 10 16  1  0  0  0  0
 10 21  1  1  0  0  0
 11 15  1  0  0  0  0
 11 20  1  0  0  0  0
 11 38  1  6  0  0  0
 12 15  1  0  0  0  0
 12 39  1  0  0  0  0
 12 40  1  0  0  0  0
 13 14  1  0  0  0  0
 13 41  1  0  0  0  0
 13 42  1  0  0  0  0
 14 43  1  0  0  0  0
 14 44  1  0  0  0  0
 15 45  1  0  0  0  0
 16 22  1  0  0  0  0
 16 25  1  0  0  0  0
 16 46  1  6  0  0  0
 17 23  1  0  0  0  0
 17 47  1  0  0  0  0
 17 48  1  0  0  0  0
 18 49  1  0  0  0  0
 18 50  1  0  0  0  0
 18 51  1  0  0  0  0
 19 52  1  0  0  0  0
 19 53  1  0  0  0  0
 19 54  1  0  0  0  0
 20 26  1  0  0  0  0
 20 27  1  0  0  0  0
 21 55  1  0  0  0  0
 21 56  1  0  0  0  0
 21 57  1  0  0  0  0
 22 23  2  0  0  0  0
 22 24  1  0  0  0  0
 23 58  1  0  0  0  0
 24 29  1  0  0  0  0
 24 30  1  0  0  0  0
 24 31  1  0  0  0  0
 25 28  2  0  0  0  0
 25 59  1  0  0  0  0
 26 61  1  0  0  0  0
 26 62  1  0  0  0  0
 26 63  1  0  0  0  0
 27 32  1  0  0  0  0
 28 29  1  0  0  0  0
 30 65  1  0  0  0  0
 30 66  1  0  0  0  0
 30 67  1  0  0  0  0
 31 68  1  0  0  0  0
 31 69  1  0  0  0  0
 31 70  1  0  0  0  0
 32 33  2  0  0  0  0
 32 71  1  0  0  0  0
 33 34  1  0  0  0  0
 33 73  1  0  0  0  0
 34 35  1  0  0  0  0
 34 36  1  0  0  0  0
 35 74  1  0  0  0  0
 35 75  1  0  0  0  0
 35 76  1  0  0  0  0
 36 77  1  0  0  0  0
 36 78  1  0  0  0  0
 36 79  1  0  0  0  0
M  END
> <PUBCHEM_COMPOUND_CID>
5281324

> <PUBCHEM_COMPOUND_CANONICALIZED>
1

> <PUBCHEM_CACTVS_COMPLEXITY>
1080

> <PUBCHEM_CACTVS_HBOND_ACCEPTOR>
6

> <PUBCHEM_CACTVS_HBOND_DONOR>
4

> <PUBCHEM_CACTVS_ROTATABLE_BOND>
4

> <PUBCHEM_CACTVS_SUBSKEYS>
AAADcfB4OAAAAAAAAAAAAAAAAAAAAYAAAAAwQIAAAAAAAGCAAAAAGgAACAAAD1SggAICAAAAAgCIAqBSAAIAAAAgIAAICAFAAEgAFBIAAQAAUAAFwAAIEYOKyPCPgAAAAAAAAACAAAQAACAAAYAADAAAAA==

> <PUBCHEM_IUPAC_OPENEYE_NAME>
(8R,9R,10S,13R,14S,16R,17R)-17-[(E,1R)-1,5-dihydroxy-1,5-dimethyl-2-oxo-hex-3-enyl]-2,16-dihydroxy-4,4,9,13,14-pentamethyl-7,8,10,11,12,15,16,17-octahydrocyclopenta[a]phenanthren-3-one

> <PUBCHEM_IUPAC_CAS_NAME>
(8R,9R,10S,13R,14S,16R,17R)-17-[(E,2R)-2,6-dihydroxy-6-methyl-3-oxohept-4-en-2-yl]-2,16-dihydroxy-4,4,9,13,14-pentamethyl-7,8,10,11,12,15,16,17-octahydrocyclopenta[a]phenanthren-3-one

> <PUBCHEM_IUPAC_NAME>
(8R,9R,10S,13R,14S,16R,17R)-17-[(E,2R)-2,6-dihydroxy-6-methyl-3-oxohept-4-en-2-yl]-2,16-dihydroxy-4,4,9,13,14-pentamethyl-7,8,10,11,12,15,16,17-octahydrocyclopenta[a]phenanthren-3-one

> <PUBCHEM_IUPAC_SYSTEMATIC_NAME>
(8R,9R,10S,13R,14S,16R,17R)-4,4,9,13,14-pentamethyl-17-[(E,2R)-6-methyl-2,6-bis(oxidanyl)-3-oxidanylidene-hept-4-en-2-yl]-2,16-bis(oxidanyl)-7,8,10,11,12,15,16,17-octahydrocyclopenta[a]phenanthren-3-one

> <PUBCHEM_IUPAC_TRADITIONAL_NAME>
(8R,9R,10S,13R,14S,16R,17R)-17-[(E,1R)-1,5-dihydroxy-2-keto-1,5-dimethyl-hex-3-enyl]-2,16-dihydroxy-4,4,9,13,14-pentamethyl-7,8,10,11,12,15,16,17-octahydrocyclopenta[a]phenanthren-3-one

> <PUBCHEM_IUPAC_INCHI>
InChI=1S/C30H44O6/c1-25(2,35)12-11-22(33)30(8,36)23-20(32)16-29(7)21-10-9-17-18(15-19(31)24(34)26(17,3)4)27(21,5)13-14-28(23,29)6/h9,11-12,15,18,20-21,23,31-32,35-36H,10,13-14,16H2,1-8H3/b12-11+/t18-,20-,21-,23+,27+,28-,29+,30+/m1/s1

> <PUBCHEM_IUPAC_INCHIKEY>
PTCAIPUXGKZZBJ-CTYMYLBISA-N

> <PUBCHEM_XLOGP3_AA>
4.3

> <PUBCHEM_EXACT_MASS>
500.313789

> <PUBCHEM_MOLECULAR_FORMULA>
C30H44O6

> <PUBCHEM_MOLECULAR_WEIGHT>
500.66676

> <PUBCHEM_OPENEYE_CAN_SMILES>
CC1(C2=CCC3C(C2C=C(C1=O)O)(CCC4(C3(CC(C4C(C)(C(=O)C=CC(C)(C)O)O)O)C)C)C)C

> <PUBCHEM_OPENEYE_ISO_SMILES>
C[C@@]12CC[C@@]3([C@H]([C@@H](C[C@]3([C@@H]1CC=C4[C@H]2C=C(C(=O)C4(C)C)O)C)O)[C@](C)(C(=O)/C=C/C(C)(C)O)O)C

> <PUBCHEM_CACTVS_TPSA>
115

> <PUBCHEM_MONOISOTOPIC_WEIGHT>
500.313789

> <PUBCHEM_TOTAL_CHARGE>
0

> <PUBCHEM_HEAVY_ATOM_COUNT>
36

> <PUBCHEM_ATOM_DEF_STEREO_COUNT>
8

> <PUBCHEM_ATOM_UDEF_STEREO_COUNT>
0

> <PUBCHEM_BOND_DEF_STEREO_COUNT>
1

> <PUBCHEM_BOND_UDEF_STEREO_COUNT>
0

> <PUBCHEM_ISOTOPIC_ATOM_COUNT>
0

> <PUBCHEM_COMPONENT_COUNT>
1

> <PUBCHEM_CACTVS_TAUTO_COUNT>
17

> <PUBCHEM_COORDINATE_TYPE>
1
5
255

> <PUBCHEM_BONDANNOTATIONS>
15  1  6
10  21  5
11  38  6
16  46  6
20  2  5
7  18  6
8  19  5
9  37  5

$$$$

