12034
  -OEChem-06261206252D

 26 25  0     0  0  0  0  0  0999 V2000
    6.0010    1.2500    0.0000 O   0  0  0  0  0  0  0  0  0  0  0  0
    2.5369    1.2500    0.0000 O   0  0  0  0  0  0  0  0  0  0  0  0
    5.1350    2.7500    0.0000 O   0  0  0  0  0  0  0  0  0  0  0  0
    3.4030    2.7500    0.0000 O   0  0  0  0  0  0  0  0  0  0  0  0
    3.4030   -0.2500    0.0000 C   0  0  0  0  0  0  0  0  0  0  0  0
    4.2690    0.2500    0.0000 C   0  0  0  0  0  0  0  0  0  0  0  0
    3.4030   -1.2500    0.0000 C   0  0  0  0  0  0  0  0  0  0  0  0
    4.2690    1.2500    0.0000 C   0  0  0  0  0  0  0  0  0  0  0  0
    2.5369   -1.7500    0.0000 C   0  0  0  0  0  0  0  0  0  0  0  0
    2.5369   -2.7500    0.0000 C   0  0  0  0  0  0  0  0  0  0  0  0
    5.1350    1.7500    0.0000 C   0  0  0  0  0  0  0  0  0  0  0  0
    3.4030    1.7500    0.0000 C   0  0  0  0  0  0  0  0  0  0  0  0
    3.1909    0.3326    0.0000 H   0  0  0  0  0  0  0  0  0  0  0  0
    2.7924   -0.3577    0.0000 H   0  0  0  0  0  0  0  0  0  0  0  0
    4.4810   -0.3326    0.0000 H   0  0  0  0  0  0  0  0  0  0  0  0
    4.8796    0.3577    0.0000 H   0  0  0  0  0  0  0  0  0  0  0  0
    3.6150   -1.8326    0.0000 H   0  0  0  0  0  0  0  0  0  0  0  0
    4.0135   -1.1423    0.0000 H   0  0  0  0  0  0  0  0  0  0  0  0
    4.2690    1.8700    0.0000 H   0  0  0  0  0  0  0  0  0  0  0  0
    2.3249   -1.1674    0.0000 H   0  0  0  0  0  0  0  0  0  0  0  0
    1.9264   -1.8577    0.0000 H   0  0  0  0  0  0  0  0  0  0  0  0
    1.9169   -2.7500    0.0000 H   0  0  0  0  0  0  0  0  0  0  0  0
    2.5369   -3.3700    0.0000 H   0  0  0  0  0  0  0  0  0  0  0  0
    3.1569   -2.7500    0.0000 H   0  0  0  0  0  0  0  0  0  0  0  0
    2.0000    1.5600    0.0000 H   0  0  0  0  0  0  0  0  0  0  0  0
    6.5380    1.5600    0.0000 H   0  0  0  0  0  0  0  0  0  0  0  0
  1 11  1  0  0  0  0
  1 26  1  0  0  0  0
  2 12  1  0  0  0  0
  2 25  1  0  0  0  0
  3 11  2  0  0  0  0
  4 12  2  0  0  0  0
  5  6  1  0  0  0  0
  5  7  1  0  0  0  0
  5 13  1  0  0  0  0
  5 14  1  0  0  0  0
  6  8  1  0  0  0  0
  6 15  1  0  0  0  0
  6 16  1  0  0  0  0
  7  9  1  0  0  0  0
  7 17  1  0  0  0  0
  7 18  1  0  0  0  0
  8 11  1  0  0  0  0
  8 12  1  0  0  0  0
  8 19  1  0  0  0  0
  9 10  1  0  0  0  0
  9 20  1  0  0  0  0
  9 21  1  0  0  0  0
 10 22  1  0  0  0  0
 10 23  1  0  0  0  0
 10 24  1  0  0  0  0
M  END
> <PUBCHEM_COMPOUND_CID>
12034

> <PUBCHEM_COMPOUND_CANONICALIZED>
1

> <PUBCHEM_CACTVS_COMPLEXITY>
150

> <PUBCHEM_CACTVS_HBOND_ACCEPTOR>
4

> <PUBCHEM_CACTVS_HBOND_DONOR>
2

> <PUBCHEM_CACTVS_ROTATABLE_BOND>
6

> <PUBCHEM_CACTVS_SUBSKEYS>
AAADccBwOAAAAAAAAAAAAAAAAAAAAAAAAAAAAAAAAAAAAAAAAAAAGgAACAAADQCAgAACCAAAAgAIAACQCAAAAAAAAAAAAAEAAAAAABYIAAAAQAAFIAAAAAGIyGCMAAAAAAAAAAAAAAAAAAAAAAAAAAAAAA==

> <PUBCHEM_IUPAC_OPENEYE_NAME>
2-pentylpropanedioic acid

> <PUBCHEM_IUPAC_CAS_NAME>
2-pentylpropanedioic acid

> <PUBCHEM_IUPAC_NAME>
2-pentylpropanedioic acid

> <PUBCHEM_IUPAC_SYSTEMATIC_NAME>
2-pentylpropanedioic acid

> <PUBCHEM_IUPAC_TRADITIONAL_NAME>
2-amylmalonic acid

> <PUBCHEM_IUPAC_INCHI>
InChI=1S/C8H14O4/c1-2-3-4-5-6(7(9)10)8(11)12/h6H,2-5H2,1H3,(H,9,10)(H,11,12)

> <PUBCHEM_IUPAC_INCHIKEY>
LAWHHRXCBUNWFI-UHFFFAOYSA-N

> <PUBCHEM_XLOGP3>
1.5

> <PUBCHEM_EXACT_MASS>
174.089209

> <PUBCHEM_MOLECULAR_FORMULA>
C8H14O4

> <PUBCHEM_MOLECULAR_WEIGHT>
174.19436

> <PUBCHEM_OPENEYE_CAN_SMILES>
CCCCCC(C(=O)O)C(=O)O

> <PUBCHEM_OPENEYE_ISO_SMILES>
CCCCCC(C(=O)O)C(=O)O

> <PUBCHEM_CACTVS_TPSA>
74.6

> <PUBCHEM_MONOISOTOPIC_WEIGHT>
174.089209

> <PUBCHEM_TOTAL_CHARGE>
0

> <PUBCHEM_HEAVY_ATOM_COUNT>
12

> <PUBCHEM_ATOM_DEF_STEREO_COUNT>
0

> <PUBCHEM_ATOM_UDEF_STEREO_COUNT>
0

> <PUBCHEM_BOND_DEF_STEREO_COUNT>
0

> <PUBCHEM_BOND_UDEF_STEREO_COUNT>
0

> <PUBCHEM_ISOTOPIC_ATOM_COUNT>
0

> <PUBCHEM_COMPONENT_COUNT>
1

> <PUBCHEM_CACTVS_TAUTO_COUNT>
1

> <PUBCHEM_COORDINATE_TYPE>
1
5
255

$$$$

