17396412
  -OEChem-06241222562D

 39 40  0     0  0  0  0  0  0999 V2000
    7.9128    1.7694    0.0000 S   0  0  0  0  0  0  0  0  0  0  0  0
    5.4641   -0.0670    0.0000 O   0  0  0  0  0  0  0  0  0  0  0  0
    3.7320   -0.0670    0.0000 O   0  0  0  0  0  0  0  0  0  0  0  0
    9.4018    2.8445    0.0000 O   0  0  0  0  0  0  0  0  0  0  0  0
    2.8660   -3.5670    0.0000 N   0  0  0  0  0  0  0  0  0  0  0  0
    6.4347    2.4275    0.0000 N   0  0  0  0  0  0  0  0  0  0  0  0
    7.8195    3.5490    0.0000 N   0  0  0  0  0  0  0  0  0  0  0  0
    3.7320   -3.0670    0.0000 C   0  0  0  0  0  0  0  0  0  0  0  0
    4.5981   -1.5670    0.0000 C   0  0  0  0  0  0  0  0  0  0  0  0
    3.7320   -2.0670    0.0000 C   0  0  0  0  0  0  0  0  0  0  0  0
    4.5981   -3.5670    0.0000 C   0  0  0  0  0  0  0  0  0  0  0  0
    5.4641   -2.0670    0.0000 C   0  0  0  0  0  0  0  0  0  0  0  0
    5.4641   -3.0670    0.0000 C   0  0  0  0  0  0  0  0  0  0  0  0
    5.4641    0.9330    0.0000 C   0  0  0  0  0  0  0  0  0  0  0  0
    2.8660   -4.5670    0.0000 C   0  0  0  0  0  0  0  0  0  0  0  0
    2.0000   -3.0670    0.0000 C   0  0  0  0  0  0  0  0  0  0  0  0
    4.5981   -0.5670    0.0000 C   0  0  0  0  0  0  0  0  0  0  0  0
    6.3301    1.4330    0.0000 C   0  0  0  0  0  0  0  0  0  0  0  0
    7.2437    1.0262    0.0000 C   0  0  0  0  0  0  0  0  0  0  0  0
    7.4128    2.6354    0.0000 C   0  0  0  0  0  0  0  0  0  0  0  0
    8.8141    3.6535    0.0000 C   0  0  0  0  0  0  0  0  0  0  0  0
    9.2208    4.5670    0.0000 C   0  0  0  0  0  0  0  0  0  0  0  0
    3.1951   -1.7570    0.0000 H   0  0  0  0  0  0  0  0  0  0  0  0
    4.5981   -4.1870    0.0000 H   0  0  0  0  0  0  0  0  0  0  0  0
    6.0010   -1.7570    0.0000 H   0  0  0  0  0  0  0  0  0  0  0  0
    6.0010   -3.3770    0.0000 H   0  0  0  0  0  0  0  0  0  0  0  0
    5.2520    1.5156    0.0000 H   0  0  0  0  0  0  0  0  0  0  0  0
    4.8535    0.8253    0.0000 H   0  0  0  0  0  0  0  0  0  0  0  0
    2.2460   -4.5670    0.0000 H   0  0  0  0  0  0  0  0  0  0  0  0
    2.8660   -5.1870    0.0000 H   0  0  0  0  0  0  0  0  0  0  0  0
    3.4860   -4.5670    0.0000 H   0  0  0  0  0  0  0  0  0  0  0  0
    2.3100   -2.5301    0.0000 H   0  0  0  0  0  0  0  0  0  0  0  0
    1.4631   -2.7570    0.0000 H   0  0  0  0  0  0  0  0  0  0  0  0
    1.6900   -3.6040    0.0000 H   0  0  0  0  0  0  0  0  0  0  0  0
    7.3726    0.4198    0.0000 H   0  0  0  0  0  0  0  0  0  0  0  0
    7.4551    4.0505    0.0000 H   0  0  0  0  0  0  0  0  0  0  0  0
    9.7872    4.3148    0.0000 H   0  0  0  0  0  0  0  0  0  0  0  0
    9.4730    5.1334    0.0000 H   0  0  0  0  0  0  0  0  0  0  0  0
    8.6544    4.8192    0.0000 H   0  0  0  0  0  0  0  0  0  0  0  0
  1 19  1  0  0  0  0
  1 20  1  0  0  0  0
  2 14  1  0  0  0  0
  2 17  1  0  0  0  0
  3 17  2  0  0  0  0
  4 21  2  0  0  0  0
  5  8  1  0  0  0  0
  5 15  1  0  0  0  0
  5 16  1  0  0  0  0
  6 18  1  0  0  0  0
  6 20  2  0  0  0  0
  7 20  1  0  0  0  0
  7 21  1  0  0  0  0
  7 36  1  0  0  0  0
  8 10  1  0  0  0  0
  8 11  2  0  0  0  0
  9 10  2  0  0  0  0
  9 12  1  0  0  0  0
  9 17  1  0  0  0  0
 10 23  1  0  0  0  0
 11 13  1  0  0  0  0
 11 24  1  0  0  0  0
 12 13  2  0  0  0  0
 12 25  1  0  0  0  0
 13 26  1  0  0  0  0
 14 18  1  0  0  0  0
 14 27  1  0  0  0  0
 14 28  1  0  0  0  0
 15 29  1  0  0  0  0
 15 30  1  0  0  0  0
 15 31  1  0  0  0  0
 16 32  1  0  0  0  0
 16 33  1  0  0  0  0
 16 34  1  0  0  0  0
 18 19  2  0  0  0  0
 19 35  1  0  0  0  0
 21 22  1  0  0  0  0
 22 37  1  0  0  0  0
 22 38  1  0  0  0  0
 22 39  1  0  0  0  0
M  END
> <PUBCHEM_COMPOUND_CID>
17396412

> <PUBCHEM_COMPOUND_CANONICALIZED>
1

> <PUBCHEM_CACTVS_COMPLEXITY>
406

> <PUBCHEM_CACTVS_HBOND_ACCEPTOR>
6

> <PUBCHEM_CACTVS_HBOND_DONOR>
1

> <PUBCHEM_CACTVS_ROTATABLE_BOND>
6

> <PUBCHEM_CACTVS_SUBSKEYS>
AAADceBzMABAAAAAAAAAAAAAAAAAAWAAAAAwAAAAAAAAAAABwAAAHgQQAAAADAil3gaz2ZPIFAisAyXyfASC8KllCjkJiBUYbMiKJjLgvZmHMQhs0QNY6ae8yCCOAAAAQAAAAAAAAACAAAAAAAAAAAAAAA==

> <PUBCHEM_IUPAC_OPENEYE_NAME>
(2-acetamidothiazol-4-yl)methyl 3-(dimethylamino)benzoate

> <PUBCHEM_IUPAC_CAS_NAME>
3-(dimethylamino)benzoic acid (2-acetamido-4-thiazolyl)methyl ester

> <PUBCHEM_IUPAC_NAME>
(2-acetamido-1,3-thiazol-4-yl)methyl 3-(dimethylamino)benzoate

> <PUBCHEM_IUPAC_SYSTEMATIC_NAME>
(2-acetamido-1,3-thiazol-4-yl)methyl 3-(dimethylamino)benzoate

> <PUBCHEM_IUPAC_TRADITIONAL_NAME>
3-(dimethylamino)benzoic acid (2-acetamidothiazol-4-yl)methyl ester

> <PUBCHEM_IUPAC_INCHI>
InChI=1S/C15H17N3O3S/c1-10(19)16-15-17-12(9-22-15)8-21-14(20)11-5-4-6-13(7-11)18(2)3/h4-7,9H,8H2,1-3H3,(H,16,17,19)

> <PUBCHEM_IUPAC_INCHIKEY>
FSMJCWFFRPLMCI-UHFFFAOYSA-N

> <PUBCHEM_XLOGP3_AA>
2

> <PUBCHEM_EXACT_MASS>
319.099062

> <PUBCHEM_MOLECULAR_FORMULA>
C15H17N3O3S

> <PUBCHEM_MOLECULAR_WEIGHT>
319.37878

> <PUBCHEM_OPENEYE_CAN_SMILES>
CC(=O)NC1=NC(=CS1)COC(=O)C2=CC(=CC=C2)N(C)C

> <PUBCHEM_OPENEYE_ISO_SMILES>
CC(=O)NC1=NC(=CS1)COC(=O)C2=CC(=CC=C2)N(C)C

> <PUBCHEM_CACTVS_TPSA>
99.8

> <PUBCHEM_MONOISOTOPIC_WEIGHT>
319.099062

> <PUBCHEM_TOTAL_CHARGE>
0

> <PUBCHEM_HEAVY_ATOM_COUNT>
22

> <PUBCHEM_ATOM_DEF_STEREO_COUNT>
0

> <PUBCHEM_ATOM_UDEF_STEREO_COUNT>
0

> <PUBCHEM_BOND_DEF_STEREO_COUNT>
0

> <PUBCHEM_BOND_UDEF_STEREO_COUNT>
0

> <PUBCHEM_ISOTOPIC_ATOM_COUNT>
0

> <PUBCHEM_COMPONENT_COUNT>
1

> <PUBCHEM_CACTVS_TAUTO_COUNT>
5

> <PUBCHEM_COORDINATE_TYPE>
1
5
255

> <PUBCHEM_BONDANNOTATIONS>
1  19  8
1  20  8
11  13  8
12  13  8
18  19  8
6  18  8
6  20  8
8  10  8
8  11  8
9  10  8
9  12  8

$$$$

