17395953
  -OEChem-06241222533D

 41 44  0     1  0  0  0  0  0999 V2000
    0.4428   -2.2318   -1.4633 O   0  0  0  0  0  0  0  0  0  0  0  0
   -0.2856   -0.7320    0.2007 N   0  0  0  0  0  0  0  0  0  0  0  0
    1.4296    0.2733    1.5944 N   0  0  0  0  0  0  0  0  0  0  0  0
    0.3416    1.7345   -1.0793 N   0  0  0  0  0  0  0  0  0  0  0  0
    0.1168    0.4538    0.9959 C   0  0  1  0  0  0  0  0  0  0  0  0
    2.4193   -0.3732    0.8785 C   0  0  0  0  0  0  0  0  0  0  0  0
    2.1018   -1.1941   -0.2072 C   0  0  0  0  0  0  0  0  0  0  0  0
    0.6769   -1.4414   -0.5517 C   0  0  0  0  0  0  0  0  0  0  0  0
   -1.6935   -1.0768    0.1319 C   0  0  0  0  0  0  0  0  0  0  0  0
    0.0818    1.7807    0.2467 C   0  0  0  0  0  0  0  0  0  0  0  0
    3.7658   -0.2255    1.2402 C   0  0  0  0  0  0  0  0  0  0  0  0
    3.1152   -1.8324   -0.9363 C   0  0  0  0  0  0  0  0  0  0  0  0
   -2.6630   -0.0920    0.3214 C   0  0  0  0  0  0  0  0  0  0  0  0
   -2.0773   -2.3933   -0.1239 C   0  0  0  0  0  0  0  0  0  0  0  0
   -0.2072    2.9449    0.9403 C   0  0  0  0  0  0  0  0  0  0  0  0
   -4.0164   -0.4238    0.2548 C   0  0  0  0  0  0  0  0  0  0  0  0
    4.7759   -0.8597    0.5161 C   0  0  0  0  0  0  0  0  0  0  0  0
    4.4503   -1.6589   -0.5752 C   0  0  0  0  0  0  0  0  0  0  0  0
   -3.4306   -2.7249   -0.1903 C   0  0  0  0  0  0  0  0  0  0  0  0
   -4.4000   -1.7403   -0.0009 C   0  0  0  0  0  0  0  0  0  0  0  0
   -0.2311    4.1384    0.2274 C   0  0  0  0  0  0  0  0  0  0  0  0
   -5.0531    0.6287    0.4568 C   0  0  0  0  0  0  0  0  0  0  0  0
    0.3093    2.9142   -1.7389 C   0  0  0  0  0  0  0  0  0  0  0  0
    0.0308    4.1314   -1.1381 C   0  0  0  0  0  0  0  0  0  0  0  0
   -0.5804    0.5161    1.8415 H   0  0  0  0  0  0  0  0  0  0  0  0
    1.6967    0.8652    2.3727 H   0  0  0  0  0  0  0  0  0  0  0  0
    4.0393    0.3990    2.0881 H   0  0  0  0  0  0  0  0  0  0  0  0
   -2.4095    0.9442    0.5115 H   0  0  0  0  0  0  0  0  0  0  0  0
    2.8854   -2.4753   -1.7817 H   0  0  0  0  0  0  0  0  0  0  0  0
   -1.3568   -3.1978   -0.2319 H   0  0  0  0  0  0  0  0  0  0  0  0
   -0.4093    2.9405    2.0059 H   0  0  0  0  0  0  0  0  0  0  0  0
    5.8147   -0.7285    0.8041 H   0  0  0  0  0  0  0  0  0  0  0  0
    5.2347   -2.1544   -1.1396 H   0  0  0  0  0  0  0  0  0  0  0  0
   -3.7298   -3.7519   -0.3787 H   0  0  0  0  0  0  0  0  0  0  0  0
   -5.4507   -2.0133   -0.0512 H   0  0  0  0  0  0  0  0  0  0  0  0
   -0.4534    5.0722    0.7349 H   0  0  0  0  0  0  0  0  0  0  0  0
   -5.1921    0.8190    1.5258 H   0  0  0  0  0  0  0  0  0  0  0  0
   -4.7603    1.5629   -0.0344 H   0  0  0  0  0  0  0  0  0  0  0  0
   -6.0169    0.3303    0.0305 H   0  0  0  0  0  0  0  0  0  0  0  0
    0.5204    2.8545   -2.8014 H   0  0  0  0  0  0  0  0  0  0  0  0
    0.0175    5.0496   -1.7140 H   0  0  0  0  0  0  0  0  0  0  0  0
  1  8  2  0  0  0  0
  2  5  1  0  0  0  0
  2  8  1  0  0  0  0
  2  9  1  0  0  0  0
  3  5  1  0  0  0  0
  3  6  1  0  0  0  0
  3 26  1  0  0  0  0
  4 10  1  0  0  0  0
  4 23  2  0  0  0  0
  5 10  1  0  0  0  0
  5 25  1  0  0  0  0
  6  7  1  0  0  0  0
  6 11  2  0  0  0  0
  7  8  1  0  0  0  0
  7 12  2  0  0  0  0
  9 13  1  0  0  0  0
  9 14  2  0  0  0  0
 10 15  2  0  0  0  0
 11 17  1  0  0  0  0
 11 27  1  0  0  0  0
 12 18  1  0  0  0  0
 12 29  1  0  0  0  0
 13 16  2  0  0  0  0
 13 28  1  0  0  0  0
 14 19  1  0  0  0  0
 14 30  1  0  0  0  0
 15 21  1  0  0  0  0
 15 31  1  0  0  0  0
 16 20  1  0  0  0  0
 16 22  1  0  0  0  0
 17 18  2  0  0  0  0
 17 32  1  0  0  0  0
 18 33  1  0  0  0  0
 19 20  2  0  0  0  0
 19 34  1  0  0  0  0
 20 35  1  0  0  0  0
 21 24  2  0  0  0  0
 21 36  1  0  0  0  0
 22 37  1  0  0  0  0
 22 38  1  0  0  0  0
 22 39  1  0  0  0  0
 23 24  1  0  0  0  0
 23 40  1  0  0  0  0
 24 41  1  0  0  0  0
M  END
> <PUBCHEM_COMPOUND_CID>
17395953

> <PUBCHEM_CONFORMER_RMSD>
0.6

> <PUBCHEM_CONFORMER_DIVERSEORDER>
2
38
16
25
26
12
37
27
29
30
28
35
14
24
21
15
7
36
11
9
32
31
13
22
23
10
8
18
17
3
5
19
6
20
4
33
1
34

> <PUBCHEM_MMFF94_PARTIAL_CHARGES>
37
1 -0.57
10 0.17
11 -0.15
12 -0.15
13 -0.15
14 -0.15
15 -0.15
16 -0.14
17 -0.15
18 -0.15
19 -0.15
2 -0.48
20 -0.15
21 -0.15
22 0.14
23 0.16
24 -0.15
26 0.4
27 0.15
28 0.15
29 0.15
3 -0.87
30 0.15
31 0.15
32 0.15
33 0.15
34 0.15
35 0.15
36 0.15
4 -0.62
40 0.15
41 0.15
5 0.81
6 0.1
7 0.09
8 0.54
9 0.12

> <PUBCHEM_EFFECTIVE_ROTOR_COUNT>
2.6

> <PUBCHEM_PHARMACOPHORE_FEATURES>
8
1 1 acceptor
1 3 cation
1 3 donor
1 4 acceptor
6 2 3 5 6 7 8 rings
6 4 10 15 21 23 24 rings
6 6 7 11 12 17 18 rings
6 9 13 14 16 19 20 rings

> <PUBCHEM_HEAVY_ATOM_COUNT>
24

> <PUBCHEM_ATOM_DEF_STEREO_COUNT>
0

> <PUBCHEM_ATOM_UDEF_STEREO_COUNT>
1

> <PUBCHEM_BOND_DEF_STEREO_COUNT>
0

> <PUBCHEM_BOND_UDEF_STEREO_COUNT>
0

> <PUBCHEM_ISOTOPIC_ATOM_COUNT>
0

> <PUBCHEM_COMPONENT_COUNT>
1

> <PUBCHEM_CACTVS_TAUTO_COUNT>
2

> <PUBCHEM_CONFORMER_ID>
010970F100000002

> <PUBCHEM_MMFF94_ENERGY>
91.7903

> <PUBCHEM_FEATURE_SELFOVERLAP>
40.621

> <PUBCHEM_SHAPE_FINGERPRINT>
10165383 225 16967703834492428532
10369192 42 17386861513413441600
10940486 97 18189616034055751694
11421498 54 17346321560953775731
11578080 2 16699806395696233231
11833330 49 18342173422843925976
12035759 4 18195499581221793892
12166972 35 18261396607772929995
12730499 353 16825579900202562368
12788726 201 18201156680236573354
13004483 165 18269843166970388122
13009979 54 18188192226980141225
13149001 5 17559104380994173858
133893 2 17771345275494215885
13681431 1 18270109094233890032
14022347 108 18342730857896023715
14790565 3 17761495786030265960
14955137 171 18264479594631027290
15664445 248 18192133924958868164
1601671 61 18336544911167963272
17357779 13 18263661686939880669
17492 89 18121783820718189931
17876694 64 17702650198388258300
17980427 23 18114466656765406383
1813 80 18342740697702619034
18769570 83 18130505352954418049
18785283 64 18053091831666603339
20600515 1 18409439293578663071
20739085 24 18265341599242116544
21033648 29 17749119876394830043
21285901 2 18116709806024672063
21304303 282 17192120655948844652
21330990 113 18189332531827518434
22149856 69 17970624084057110667
22907989 373 18267868461767866988
23366157 5 17912647899777716927
23402539 116 18410860987772722915
23419403 2 18193021277443700812
23557571 272 18339358690330398934
23559900 14 18187925127375761254
312423 11 18123462788148459987
3178227 256 18270382976731840883
350125 39 18266736879898807547
4409770 3 17983878927417597709
6442390 28 17617091851133596601
7164475 11 18199751517519964586
7364860 26 18050006588879894353
7399639 24 18261408745429577898
81228 2 18196918083995975442
9981440 41 16960478763482211482

> <PUBCHEM_SHAPE_MULTIPOLES>
473.1
7.84
4.5
1.27
1.54
5.83
0.14
-6.69
-1.2
0.98
1.57
-0.72
0.52
0.07

> <PUBCHEM_SHAPE_SELFOVERLAP>
1048.229

> <PUBCHEM_SHAPE_VOLUME>
250.7

> <PUBCHEM_COORDINATE_TYPE>
2
5
10

$$$$

