21606896
  -OEChem-07051213092D

 83 87  0     1  0  0  0  0  0999 V2000
    2.8641   -3.1036    0.0000 N   0  0  0  0  0  0  0  0  0  0  0  0
   13.7387    2.9793    0.0000 N   0  0  3  0  0  0  0  0  0  0  0  0
    8.2572   -0.0513    0.0000 C   0  0  1  0  0  0  0  0  0  0  0  0
    8.2572   -1.0513    0.0000 C   0  0  2  0  0  0  0  0  0  0  0  0
    6.5251   -1.0513    0.0000 C   0  0  2  0  0  0  0  0  0  0  0  0
    5.6151   -1.5582    0.0000 C   0  0  2  0  0  0  0  0  0  0  0  0
    9.2034    0.2534    0.0000 C   0  0  2  0  0  0  0  0  0  0  0  0
    7.3912   -1.5513    0.0000 C   0  0  0  0  0  0  0  0  0  0  0  0
    7.3912    0.4487    0.0000 C   0  0  0  0  0  0  0  0  0  0  0  0
    5.6071   -2.5998    0.0000 C   0  0  1  0  0  0  0  0  0  0  0  0
    6.5251   -0.0513    0.0000 C   0  0  0  0  0  0  0  0  0  0  0  0
    9.2034   -1.3560    0.0000 C   0  0  0  0  0  0  0  0  0  0  0  0
    9.7870   -0.5513    0.0000 C   0  0  0  0  0  0  0  0  0  0  0  0
    4.6883   -0.9941    0.0000 C   0  0  0  0  0  0  0  0  0  0  0  0
    6.5092   -3.1206    0.0000 C   0  0  0  0  0  0  0  0  0  0  0  0
    8.2572    0.9487    0.0000 C   0  0  0  0  0  0  0  0  0  0  0  0
    4.6717   -3.1495    0.0000 C   0  0  0  0  0  0  0  0  0  0  0  0
    7.4072   -2.5928    0.0000 C   0  0  0  0  0  0  0  0  0  0  0  0
    9.5141    1.2039    0.0000 C   0  0  2  0  0  0  0  0  0  0  0  0
    5.6228   -0.5582    0.0000 C   0  0  0  0  0  0  0  0  0  0  0  0
    3.7404   -1.5220    0.0000 C   0  0  0  0  0  0  0  0  0  0  0  0
    3.7320   -2.6070    0.0000 C   0  0  1  0  0  0  0  0  0  0  0  0
    8.8462    1.9482    0.0000 C   0  0  0  0  0  0  0  0  0  0  0  0
   10.4926    1.4102    0.0000 C   0  0  0  0  0  0  0  0  0  0  0  0
   10.8032    2.3607    0.0000 C   0  0  0  0  0  0  0  0  0  0  0  0
    2.0000   -2.6003    0.0000 C   0  0  0  0  0  0  0  0  0  0  0  0
   11.7817    2.5669    0.0000 C   0  0  0  0  0  0  0  0  0  0  0  0
   12.0924    3.5174    0.0000 C   0  0  0  0  0  0  0  0  0  0  0  0
   12.4496    1.8226    0.0000 C   0  0  0  0  0  0  0  0  0  0  0  0
   13.0709    3.7236    0.0000 C   0  0  0  0  0  0  0  0  0  0  0  0
   13.4281    2.0288    0.0000 C   0  0  0  0  0  0  0  0  0  0  0  0
   12.1389    0.8721    0.0000 C   0  0  0  0  0  0  0  0  0  0  0  0
   14.7172    3.1856    0.0000 C   0  0  0  0  0  0  0  0  0  0  0  0
    8.3471   -1.8965    0.0000 H   0  0  0  0  0  0  0  0  0  0  0  0
    7.2612   -0.6263    0.0000 H   0  0  0  0  0  0  0  0  0  0  0  0
   10.0431    0.3853    0.0000 H   0  0  0  0  0  0  0  0  0  0  0  0
    7.7897    0.9236    0.0000 H   0  0  0  0  0  0  0  0  0  0  0  0
    6.9926    0.9236    0.0000 H   0  0  0  0  0  0  0  0  0  0  0  0
    5.6104   -3.4498    0.0000 H   0  0  0  0  0  0  0  0  0  0  0  0
    6.3131    0.5313    0.0000 H   0  0  0  0  0  0  0  0  0  0  0  0
    5.9145   -0.1590    0.0000 H   0  0  0  0  0  0  0  0  0  0  0  0
    8.9524   -1.9230    0.0000 H   0  0  0  0  0  0  0  0  0  0  0  0
    9.7408   -1.6653    0.0000 H   0  0  0  0  0  0  0  0  0  0  0  0
   10.2479   -0.9660    0.0000 H   0  0  0  0  0  0  0  0  0  0  0  0
   10.2479   -0.1366    0.0000 H   0  0  0  0  0  0  0  0  0  0  0  0
    5.0965   -0.5274    0.0000 H   0  0  0  0  0  0  0  0  0  0  0  0
    4.2984   -0.5120    0.0000 H   0  0  0  0  0  0  0  0  0  0  0  0
    6.1119   -3.5965    0.0000 H   0  0  0  0  0  0  0  0  0  0  0  0
    6.9101   -3.5935    0.0000 H   0  0  0  0  0  0  0  0  0  0  0  0
    8.8772    0.9487    0.0000 H   0  0  0  0  0  0  0  0  0  0  0  0
    8.2572    1.5687    0.0000 H   0  0  0  0  0  0  0  0  0  0  0  0
    7.6372    0.9487    0.0000 H   0  0  0  0  0  0  0  0  0  0  0  0
    4.2744   -3.6254    0.0000 H   0  0  0  0  0  0  0  0  0  0  0  0
    5.0726   -3.6224    0.0000 H   0  0  0  0  0  0  0  0  0  0  0  0
    7.9477   -2.8966    0.0000 H   0  0  0  0  0  0  0  0  0  0  0  0
    9.7067    1.7933    0.0000 H   0  0  0  0  0  0  0  0  0  0  0  0
    6.2428   -0.5630    0.0000 H   0  0  0  0  0  0  0  0  0  0  0  0
    5.6276    0.0618    0.0000 H   0  0  0  0  0  0  0  0  0  0  0  0
    5.0028   -0.5534    0.0000 H   0  0  0  0  0  0  0  0  0  0  0  0
    3.5358   -0.9367    0.0000 H   0  0  0  0  0  0  0  0  0  0  0  0
    3.1288   -1.6234    0.0000 H   0  0  0  0  0  0  0  0  0  0  0  0
    3.7308   -3.2270    0.0000 H   0  0  0  0  0  0  0  0  0  0  0  0
    9.3077    2.3623    0.0000 H   0  0  0  0  0  0  0  0  0  0  0  0
    8.4322    2.4097    0.0000 H   0  0  0  0  0  0  0  0  0  0  0  0
    8.3848    1.5342    0.0000 H   0  0  0  0  0  0  0  0  0  0  0  0
   10.9066    0.9487    0.0000 H   0  0  0  0  0  0  0  0  0  0  0  0
    2.8617   -3.7236    0.0000 H   0  0  0  0  0  0  0  0  0  0  0  0
   10.3892    2.8222    0.0000 H   0  0  0  0  0  0  0  0  0  0  0  0
    2.3121   -2.0646    0.0000 H   0  0  0  0  0  0  0  0  0  0  0  0
    1.4643   -2.2882    0.0000 H   0  0  0  0  0  0  0  0  0  0  0  0
    1.6879   -3.1360    0.0000 H   0  0  0  0  0  0  0  0  0  0  0  0
   12.0718    4.1371    0.0000 H   0  0  0  0  0  0  0  0  0  0  0  0
   11.4786    3.6048    0.0000 H   0  0  0  0  0  0  0  0  0  0  0  0
   13.5973    4.0513    0.0000 H   0  0  0  0  0  0  0  0  0  0  0  0
   12.8396    4.2989    0.0000 H   0  0  0  0  0  0  0  0  0  0  0  0
   13.4486    1.4092    0.0000 H   0  0  0  0  0  0  0  0  0  0  0  0
   14.0419    1.9415    0.0000 H   0  0  0  0  0  0  0  0  0  0  0  0
   11.5496    1.0647    0.0000 H   0  0  0  0  0  0  0  0  0  0  0  0
   11.9463    0.2828    0.0000 H   0  0  0  0  0  0  0  0  0  0  0  0
   12.7282    0.6795    0.0000 H   0  0  0  0  0  0  0  0  0  0  0  0
   14.8451    2.5789    0.0000 H   0  0  0  0  0  0  0  0  0  0  0  0
   15.3239    3.3134    0.0000 H   0  0  0  0  0  0  0  0  0  0  0  0
   14.5894    3.7922    0.0000 H   0  0  0  0  0  0  0  0  0  0  0  0
 22  1  1  6  0  0  0
  1 26  1  0  0  0  0
  1 67  1  0  0  0  0
  2 30  1  0  0  0  0
  2 31  1  0  0  0  0
  2 33  1  0  0  0  0
  3  4  1  0  0  0  0
  3  7  1  0  0  0  0
  3  9  1  0  0  0  0
  3 16  1  1  0  0  0
  4  8  1  0  0  0  0
  4 12  1  0  0  0  0
  4 34  1  6  0  0  0
  5  6  1  0  0  0  0
  5  8  1  0  0  0  0
  5 11  1  0  0  0  0
  5 35  1  6  0  0  0
  6 10  1  0  0  0  0
  6 14  1  0  0  0  0
  6 20  1  1  0  0  0
  7 13  1  0  0  0  0
  7 19  1  0  0  0  0
  7 36  1  6  0  0  0
  8 18  2  0  0  0  0
  9 11  1  0  0  0  0
  9 37  1  0  0  0  0
  9 38  1  0  0  0  0
 10 15  1  0  0  0  0
 10 17  1  0  0  0  0
 10 39  1  6  0  0  0
 11 40  1  0  0  0  0
 11 41  1  0  0  0  0
 12 13  1  0  0  0  0
 12 42  1  0  0  0  0
 12 43  1  0  0  0  0
 13 44  1  0  0  0  0
 13 45  1  0  0  0  0
 14 21  1  0  0  0  0
 14 46  1  0  0  0  0
 14 47  1  0  0  0  0
 15 18  1  0  0  0  0
 15 48  1  0  0  0  0
 15 49  1  0  0  0  0
 16 50  1  0  0  0  0
 16 51  1  0  0  0  0
 16 52  1  0  0  0  0
 17 22  1  0  0  0  0
 17 53  1  0  0  0  0
 17 54  1  0  0  0  0
 18 55  1  0  0  0  0
 19 23  1  6  0  0  0
 19 24  1  0  0  0  0
 19 56  1  0  0  0  0
 20 57  1  0  0  0  0
 20 58  1  0  0  0  0
 20 59  1  0  0  0  0
 21 22  1  0  0  0  0
 21 60  1  0  0  0  0
 21 61  1  0  0  0  0
 22 62  1  0  0  0  0
 23 63  1  0  0  0  0
 23 64  1  0  0  0  0
 23 65  1  0  0  0  0
 24 25  2  0  0  0  0
 24 66  1  0  0  0  0
 25 27  1  0  0  0  0
 25 68  1  0  0  0  0
 26 69  1  0  0  0  0
 26 70  1  0  0  0  0
 26 71  1  0  0  0  0
 27 28  1  0  0  0  0
 27 29  2  0  0  0  0
 28 30  1  0  0  0  0
 28 72  1  0  0  0  0
 28 73  1  0  0  0  0
 29 31  1  0  0  0  0
 29 32  1  0  0  0  0
 30 74  1  0  0  0  0
 30 75  1  0  0  0  0
 31 76  1  0  0  0  0
 31 77  1  0  0  0  0
 32 78  1  0  0  0  0
 32 79  1  0  0  0  0
 32 80  1  0  0  0  0
 33 81  1  0  0  0  0
 33 82  1  0  0  0  0
 33 83  1  0  0  0  0
M  END
> <PUBCHEM_COMPOUND_CID>
21606896

> <PUBCHEM_COMPOUND_CANONICALIZED>
1

> <PUBCHEM_CACTVS_COMPLEXITY>
836

> <PUBCHEM_CACTVS_HBOND_ACCEPTOR>
2

> <PUBCHEM_CACTVS_HBOND_DONOR>
1

> <PUBCHEM_CACTVS_ROTATABLE_BOND>
4

> <PUBCHEM_CACTVS_SUBSKEYS>
AAADcfB7AAAAAAAAAAAAAAAAAAAAAYAAAAAwYIEAAAAAAGCAAAAAHAAQAAAADyjBAAQCAAPAAACAAiBCAACAAAAgAAAICIAIAAgIAAIAgQAEAAAAkACIgAMQgMAPgAAAAAAAAACQAASAACAAAQAACAAAAA==

> <PUBCHEM_IUPAC_OPENEYE_NAME>
(3R,5S,9R,10S,13R,14R,17R)-17-[(E,1R)-3-(1,5-dimethyl-3,6-dihydro-2H-pyridin-4-yl)-1-methyl-allyl]-N,10,13-trimethyl-2,3,4,5,6,9,11,12,14,15,16,17-dodecahydro-1H-cyclopenta[a]phenanthren-3-amine

> <PUBCHEM_IUPAC_CAS_NAME>
(3R,5S,9R,10S,13R,14R,17R)-17-[(E,2R)-4-(1,5-dimethyl-3,6-dihydro-2H-pyridin-4-yl)but-3-en-2-yl]-N,10,13-trimethyl-2,3,4,5,6,9,11,12,14,15,16,17-dodecahydro-1H-cyclopenta[a]phenanthren-3-amine

> <PUBCHEM_IUPAC_NAME>
(3R,5S,9R,10S,13R,14R,17R)-17-[(E,2R)-4-(1,5-dimethyl-3,6-dihydro-2H-pyridin-4-yl)but-3-en-2-yl]-N,10,13-trimethyl-2,3,4,5,6,9,11,12,14,15,16,17-dodecahydro-1H-cyclopenta[a]phenanthren-3-amine

> <PUBCHEM_IUPAC_SYSTEMATIC_NAME>
(3R,5S,9R,10S,13R,14R,17R)-17-[(E,2R)-4-(1,5-dimethyl-3,6-dihydro-2H-pyridin-4-yl)but-3-en-2-yl]-N,10,13-trimethyl-2,3,4,5,6,9,11,12,14,15,16,17-dodecahydro-1H-cyclopenta[a]phenanthren-3-amine

> <PUBCHEM_IUPAC_TRADITIONAL_NAME>
[(3R,5S,9R,10S,13R,14R,17R)-17-[(E,1R)-3-(1,5-dimethyl-3,6-dihydro-2H-pyridin-4-yl)-1-methyl-allyl]-10,13-dimethyl-2,3,4,5,6,9,11,12,14,15,16,17-dodecahydro-1H-cyclopenta[a]phenanthren-3-yl]-methyl-amine

> <PUBCHEM_IUPAC_INCHI>
InChI=1S/C31H50N2/c1-21(7-8-23-15-18-33(6)20-22(23)2)27-11-12-28-26-10-9-24-19-25(32-5)13-16-30(24,3)29(26)14-17-31(27,28)4/h7-8,10,21,24-25,27-29,32H,9,11-20H2,1-6H3/b8-7+/t21-,24+,25-,27-,28+,29+,30+,31-/m1/s1

> <PUBCHEM_IUPAC_INCHIKEY>
WYVDKLLQGBHWHH-JHMJTLKLSA-N

> <PUBCHEM_XLOGP3_AA>
6.2

> <PUBCHEM_EXACT_MASS>
450.3974

> <PUBCHEM_MOLECULAR_FORMULA>
C31H50N2

> <PUBCHEM_MOLECULAR_WEIGHT>
450.7421

> <PUBCHEM_OPENEYE_CAN_SMILES>
CC1=C(CCN(C1)C)C=CC(C)C2CCC3C2(CCC4C3=CCC5C4(CCC(C5)NC)C)C

> <PUBCHEM_OPENEYE_ISO_SMILES>
CC1=C(CCN(C1)C)/C=C/[C@@H](C)[C@H]2CC[C@@H]3[C@@]2(CC[C@H]4C3=CC[C@@H]5[C@@]4(CC[C@H](C5)NC)C)C

> <PUBCHEM_CACTVS_TPSA>
15.3

> <PUBCHEM_MONOISOTOPIC_WEIGHT>
450.3974

> <PUBCHEM_TOTAL_CHARGE>
0

> <PUBCHEM_HEAVY_ATOM_COUNT>
33

> <PUBCHEM_ATOM_DEF_STEREO_COUNT>
8

> <PUBCHEM_ATOM_UDEF_STEREO_COUNT>
0

> <PUBCHEM_BOND_DEF_STEREO_COUNT>
1

> <PUBCHEM_BOND_UDEF_STEREO_COUNT>
0

> <PUBCHEM_ISOTOPIC_ATOM_COUNT>
0

> <PUBCHEM_COMPONENT_COUNT>
1

> <PUBCHEM_CACTVS_TAUTO_COUNT>
1

> <PUBCHEM_COORDINATE_TYPE>
1
5
255

> <PUBCHEM_BONDANNOTATIONS>
22  1  6
10  39  6
19  23  6
3  16  5
4  34  6
5  35  6
6  20  5
7  36  6

$$$$

