24755489
  -OEChem-07051212522D

114116  0     1  0  0  0  0  0999 V2000
    7.5000   -1.1345    0.0000 O   0  0  0  0  0  0  0  0  0  0  0  0
    7.5000    0.5976    0.0000 O   0  0  0  0  0  0  0  0  0  0  0  0
    6.2588   -2.9664    0.0000 O   0  0  0  0  0  0  0  0  0  0  0  0
    7.5000   -2.8665    0.0000 O   0  0  0  0  0  0  0  0  0  0  0  0
    7.5000    2.3296    0.0000 O   0  0  0  0  0  0  0  0  0  0  0  0
    4.5000    0.5976    0.0000 O   0  0  0  0  0  0  0  0  0  0  0  0
    9.5000   -1.1345    0.0000 O   0  0  0  0  0  0  0  0  0  0  0  0
   10.3660    2.8296    0.0000 O   0  0  0  0  0  0  0  0  0  0  0  0
    9.5000    4.0617    0.0000 O   0  0  0  0  0  0  0  0  0  0  0  0
    4.5000   -1.1345    0.0000 O   0  0  0  0  0  0  0  0  0  0  0  0
    3.0000   -3.7326    0.0000 O   0  0  0  0  0  0  0  0  0  0  0  0
    4.5000    2.3296    0.0000 O   0  0  0  0  0  0  0  0  0  0  0  0
   10.5000   -2.8665    0.0000 N   0  0  0  0  0  0  0  0  0  0  0  0
    6.5000   -1.1345    0.0000 C   0  0  2  0  0  0  0  0  0  0  0  0
    6.0000   -0.2685    0.0000 C   0  0  2  0  0  0  0  0  0  0  0  0
    6.0000   -2.0005    0.0000 C   0  0  1  0  0  0  0  0  0  0  0  0
    6.5000    0.5976    0.0000 C   0  0  1  0  0  0  0  0  0  0  0  0
    5.0000   -2.0005    0.0000 C   0  0  0  0  0  0  0  0  0  0  0  0
    6.0000    1.4636    0.0000 C   0  0  2  0  0  0  0  0  0  0  0  0
    8.0000   -2.0005    0.0000 C   0  0  2  0  0  0  0  0  0  0  0  0
    4.5000   -2.8665    0.0000 C   0  0  2  0  0  0  0  0  0  0  0  0
    9.0000   -2.0005    0.0000 C   0  0  1  0  0  0  0  0  0  0  0  0
    5.1340    0.2316    0.0000 C   0  0  0  0  0  0  0  0  0  0  0  0
    9.5000   -2.8665    0.0000 C   0  0  2  0  0  0  0  0  0  0  0  0
    8.0000    1.4636    0.0000 C   0  0  2  0  0  0  0  0  0  0  0  0
    6.9659   -2.2593    0.0000 C   0  0  0  0  0  0  0  0  0  0  0  0
    9.5000    2.3296    0.0000 C   0  0  2  0  0  0  0  0  0  0  0  0
    9.0000    1.4636    0.0000 C   0  0  0  0  0  0  0  0  0  0  0  0
    9.0000   -3.7326    0.0000 C   0  0  0  0  0  0  0  0  0  0  0  0
    9.0000    3.1956    0.0000 C   0  0  2  0  0  0  0  0  0  0  0  0
    8.0000   -3.7326    0.0000 C   0  0  1  0  0  0  0  0  0  0  0  0
    3.0000   -2.0005    0.0000 C   0  0  1  0  0  0  0  0  0  0  0  0
    3.5000   -2.8665    0.0000 C   0  0  0  0  0  0  0  0  0  0  0  0
    8.0000    3.1956    0.0000 C   0  0  2  0  0  0  0  0  0  0  0  0
    3.5000   -1.1345    0.0000 C   0  0  2  0  0  0  0  0  0  0  0  0
    3.0000   -0.2685    0.0000 C   0  0  2  0  0  0  0  0  0  0  0  0
    3.5000    0.5976    0.0000 C   0  0  1  0  0  0  0  0  0  0  0  0
    5.0000    1.4636    0.0000 C   0  0  0  0  0  0  0  0  0  0  0  0
    6.5000    2.3296    0.0000 C   0  0  0  0  0  0  0  0  0  0  0  0
    5.0000   -3.7326    0.0000 C   0  0  0  0  0  0  0  0  0  0  0  0
   10.3660    1.8296    0.0000 C   0  0  0  0  0  0  0  0  0  0  0  0
    7.5000   -4.5986    0.0000 C   0  0  0  0  0  0  0  0  0  0  0  0
    2.0000   -2.0005    0.0000 C   0  0  0  0  0  0  0  0  0  0  0  0
    3.0000    1.4636    0.0000 C   0  0  0  0  0  0  0  0  0  0  0  0
    7.5000    4.0617    0.0000 C   0  0  0  0  0  0  0  0  0  0  0  0
    2.0000   -0.2685    0.0000 C   0  0  0  0  0  0  0  0  0  0  0  0
   11.0000   -3.7326    0.0000 C   0  0  0  0  0  0  0  0  0  0  0  0
   11.0000   -2.0005    0.0000 C   0  0  0  0  0  0  0  0  0  0  0  0
    2.0000    1.4636    0.0000 C   0  0  0  0  0  0  0  0  0  0  0  0
    6.8100   -0.5976    0.0000 H   0  0  0  0  0  0  0  0  0  0  0  0
    5.5616   -0.7069    0.0000 H   0  0  0  0  0  0  0  0  0  0  0  0
    6.8100    1.1345    0.0000 H   0  0  0  0  0  0  0  0  0  0  0  0
    5.1077   -1.3899    0.0000 H   0  0  0  0  0  0  0  0  0  0  0  0
    4.4174   -1.7885    0.0000 H   0  0  0  0  0  0  0  0  0  0  0  0
    6.6200    1.4636    0.0000 H   0  0  0  0  0  0  0  0  0  0  0  0
    7.3800   -2.0005    0.0000 H   0  0  0  0  0  0  0  0  0  0  0  0
    4.1900   -3.4035    0.0000 H   0  0  0  0  0  0  0  0  0  0  0  0
    9.6200   -2.0005    0.0000 H   0  0  0  0  0  0  0  0  0  0  0  0
    5.4441    0.7685    0.0000 H   0  0  0  0  0  0  0  0  0  0  0  0
    4.5971    0.5417    0.0000 H   0  0  0  0  0  0  0  0  0  0  0  0
    4.8240   -0.3053    0.0000 H   0  0  0  0  0  0  0  0  0  0  0  0
    9.8100   -2.3296    0.0000 H   0  0  0  0  0  0  0  0  0  0  0  0
    7.3800    1.4636    0.0000 H   0  0  0  0  0  0  0  0  0  0  0  0
    6.8055   -2.8582    0.0000 H   0  0  0  0  0  0  0  0  0  0  0  0
    7.5648   -2.4198    0.0000 H   0  0  0  0  0  0  0  0  0  0  0  0
    7.1264   -1.6605    0.0000 H   0  0  0  0  0  0  0  0  0  0  0  0
    8.8923    0.8530    0.0000 H   0  0  0  0  0  0  0  0  0  0  0  0
    9.5826    1.2515    0.0000 H   0  0  0  0  0  0  0  0  0  0  0  0
    8.8923   -4.3431    0.0000 H   0  0  0  0  0  0  0  0  0  0  0  0
    9.5826   -3.9446    0.0000 H   0  0  0  0  0  0  0  0  0  0  0  0
    9.6200    3.1956    0.0000 H   0  0  0  0  0  0  0  0  0  0  0  0
    7.3800   -3.7326    0.0000 H   0  0  0  0  0  0  0  0  0  0  0  0
    2.6900   -2.5375    0.0000 H   0  0  0  0  0  0  0  0  0  0  0  0
    7.3800    3.1956    0.0000 H   0  0  0  0  0  0  0  0  0  0  0  0
    3.8100   -0.5976    0.0000 H   0  0  0  0  0  0  0  0  0  0  0  0
    2.6900   -0.8054    0.0000 H   0  0  0  0  0  0  0  0  0  0  0  0
    5.8204   -3.4048    0.0000 H   0  0  0  0  0  0  0  0  0  0  0  0
    3.8100    1.1345    0.0000 H   0  0  0  0  0  0  0  0  0  0  0  0
    7.0369    2.0196    0.0000 H   0  0  0  0  0  0  0  0  0  0  0  0
    6.8100    2.8665    0.0000 H   0  0  0  0  0  0  0  0  0  0  0  0
    5.9631    2.6396    0.0000 H   0  0  0  0  0  0  0  0  0  0  0  0
    4.4631   -4.0426    0.0000 H   0  0  0  0  0  0  0  0  0  0  0  0
    5.3100   -4.2695    0.0000 H   0  0  0  0  0  0  0  0  0  0  0  0
    5.5369   -3.4226    0.0000 H   0  0  0  0  0  0  0  0  0  0  0  0
   10.0560    1.2927    0.0000 H   0  0  0  0  0  0  0  0  0  0  0  0
   10.9030    1.5196    0.0000 H   0  0  0  0  0  0  0  0  0  0  0  0
   10.6760    2.3665    0.0000 H   0  0  0  0  0  0  0  0  0  0  0  0
    6.9631   -4.2886    0.0000 H   0  0  0  0  0  0  0  0  0  0  0  0
    7.1900   -5.1355    0.0000 H   0  0  0  0  0  0  0  0  0  0  0  0
    8.0369   -4.9086    0.0000 H   0  0  0  0  0  0  0  0  0  0  0  0
    2.0000   -1.3805    0.0000 H   0  0  0  0  0  0  0  0  0  0  0  0
    1.3800   -2.0005    0.0000 H   0  0  0  0  0  0  0  0  0  0  0  0
    2.0000   -2.6205    0.0000 H   0  0  0  0  0  0  0  0  0  0  0  0
    3.5826    1.6756    0.0000 H   0  0  0  0  0  0  0  0  0  0  0  0
    2.8923    2.0742    0.0000 H   0  0  0  0  0  0  0  0  0  0  0  0
    8.0369    4.3717    0.0000 H   0  0  0  0  0  0  0  0  0  0  0  0
    7.1900    4.5986    0.0000 H   0  0  0  0  0  0  0  0  0  0  0  0
    6.9631    3.7517    0.0000 H   0  0  0  0  0  0  0  0  0  0  0  0
    2.0000    0.3515    0.0000 H   0  0  0  0  0  0  0  0  0  0  0  0
    1.3800   -0.2685    0.0000 H   0  0  0  0  0  0  0  0  0  0  0  0
    2.0000   -0.8885    0.0000 H   0  0  0  0  0  0  0  0  0  0  0  0
   10.1200   -1.1345    0.0000 H   0  0  0  0  0  0  0  0  0  0  0  0
   10.9030    2.5196    0.0000 H   0  0  0  0  0  0  0  0  0  0  0  0
   11.5369   -2.3105    0.0000 H   0  0  0  0  0  0  0  0  0  0  0  0
   11.3100   -1.4636    0.0000 H   0  0  0  0  0  0  0  0  0  0  0  0
   10.4631   -1.6905    0.0000 H   0  0  0  0  0  0  0  0  0  0  0  0
   10.4631   -4.0426    0.0000 H   0  0  0  0  0  0  0  0  0  0  0  0
   11.3100   -4.2695    0.0000 H   0  0  0  0  0  0  0  0  0  0  0  0
   11.5369   -3.4226    0.0000 H   0  0  0  0  0  0  0  0  0  0  0  0
    9.1900    4.5986    0.0000 H   0  0  0  0  0  0  0  0  0  0  0  0
    4.5000   -0.5145    0.0000 H   0  0  0  0  0  0  0  0  0  0  0  0
    2.0000    2.0836    0.0000 H   0  0  0  0  0  0  0  0  0  0  0  0
    1.3800    1.4636    0.0000 H   0  0  0  0  0  0  0  0  0  0  0  0
    2.0000    0.8436    0.0000 H   0  0  0  0  0  0  0  0  0  0  0  0
 14  1  1  1  0  0  0
 20  1  1  1  0  0  0
 17  2  1  1  0  0  0
 25  2  1  6  0  0  0
 16  3  1  6  0  0  0
  3 77  1  0  0  0  0
  4 20  1  0  0  0  0
  4 31  1  0  0  0  0
  5 25  1  0  0  0  0
  5 34  1  0  0  0  0
  6 37  1  0  0  0  0
  6 38  1  0  0  0  0
 22  7  1  6  0  0  0
  7102  1  0  0  0  0
 27  8  1  6  0  0  0
  8103  1  0  0  0  0
 30  9  1  6  0  0  0
  9110  1  0  0  0  0
 35 10  1  6  0  0  0
 10111  1  0  0  0  0
 11 33  2  0  0  0  0
 12 38  2  0  0  0  0
 24 13  1  1  0  0  0
 13 47  1  0  0  0  0
 13 48  1  0  0  0  0
 14 15  1  0  0  0  0
 14 16  1  0  0  0  0
 14 50  1  0  0  0  0
 15 17  1  0  0  0  0
 15 23  1  1  0  0  0
 15 51  1  0  0  0  0
 16 18  1  0  0  0  0
 16 26  1  0  0  0  0
 17 19  1  0  0  0  0
 17 52  1  0  0  0  0
 18 21  1  0  0  0  0
 18 53  1  0  0  0  0
 18 54  1  0  0  0  0
 19 38  1  0  0  0  0
 19 39  1  6  0  0  0
 19 55  1  0  0  0  0
 20 22  1  0  0  0  0
 20 56  1  0  0  0  0
 21 33  1  0  0  0  0
 21 40  1  1  0  0  0
 21 57  1  0  0  0  0
 22 24  1  0  0  0  0
 22 58  1  0  0  0  0
 23 59  1  0  0  0  0
 23 60  1  0  0  0  0
 23 61  1  0  0  0  0
 24 29  1  0  0  0  0
 24 62  1  0  0  0  0
 25 28  1  0  0  0  0
 25 63  1  0  0  0  0
 26 64  1  0  0  0  0
 26 65  1  0  0  0  0
 26 66  1  0  0  0  0
 27 28  1  0  0  0  0
 27 30  1  0  0  0  0
 27 41  1  0  0  0  0
 28 67  1  0  0  0  0
 28 68  1  0  0  0  0
 29 31  1  0  0  0  0
 29 69  1  0  0  0  0
 29 70  1  0  0  0  0
 30 34  1  0  0  0  0
 30 71  1  0  0  0  0
 31 42  1  1  0  0  0
 31 72  1  0  0  0  0
 32 33  1  0  0  0  0
 32 35  1  0  0  0  0
 32 43  1  6  0  0  0
 32 73  1  0  0  0  0
 34 45  1  1  0  0  0
 34 74  1  0  0  0  0
 35 36  1  0  0  0  0
 35 75  1  0  0  0  0
 36 37  1  0  0  0  0
 36 46  1  1  0  0  0
 36 76  1  0  0  0  0
 37 44  1  1  0  0  0
 37 78  1  0  0  0  0
 39 79  1  0  0  0  0
 39 80  1  0  0  0  0
 39 81  1  0  0  0  0
 40 82  1  0  0  0  0
 40 83  1  0  0  0  0
 40 84  1  0  0  0  0
 41 85  1  0  0  0  0
 41 86  1  0  0  0  0
 41 87  1  0  0  0  0
 42 88  1  0  0  0  0
 42 89  1  0  0  0  0
 42 90  1  0  0  0  0
 43 91  1  0  0  0  0
 43 92  1  0  0  0  0
 43 93  1  0  0  0  0
 44 49  1  0  0  0  0
 44 94  1  0  0  0  0
 44 95  1  0  0  0  0
 45 96  1  0  0  0  0
 45 97  1  0  0  0  0
 45 98  1  0  0  0  0
 46 99  1  0  0  0  0
 46100  1  0  0  0  0
 46101  1  0  0  0  0
 47107  1  0  0  0  0
 47108  1  0  0  0  0
 47109  1  0  0  0  0
 48104  1  0  0  0  0
 48105  1  0  0  0  0
 48106  1  0  0  0  0
 49112  1  0  0  0  0
 49113  1  0  0  0  0
 49114  1  0  0  0  0
M  END
> <PUBCHEM_COMPOUND_CID>
24755489

> <PUBCHEM_COMPOUND_CANONICALIZED>
1

> <PUBCHEM_CACTVS_COMPLEXITY>
1110

> <PUBCHEM_CACTVS_HBOND_ACCEPTOR>
13

> <PUBCHEM_CACTVS_HBOND_DONOR>
5

> <PUBCHEM_CACTVS_ROTATABLE_BOND>
6

> <PUBCHEM_CACTVS_SUBSKEYS>
AAADcfB+PAAAAAAAAAAAAAAAAAAAAAAAAAAkSAAAAAAAAAAAAAAAHgAACAAADXzxgAcCCAMABgAIAICQCAAAAAAAAAAAAAEIAAATEBYAgAAmQAAHIAAXAAHK7PzOAAAAAAAAAAAAAAAAAAAAAAAAAAAAAA==

> <PUBCHEM_IUPAC_OPENEYE_NAME>
(3R,4S,5S,6R,7R,9R,11R,12S,13R,14R)-4-[(2R,4R,5S,6S)-4,5-dihydroxy-4,6-dimethyl-tetrahydropyran-2-yl]oxy-6-[(2S,3R,4S,6R)-4-(dimethylamino)-3-hydroxy-6-methyl-tetrahydropyran-2-yl]oxy-14-ethyl-7,12-dihydroxy-3,5,7,9,11,13-hexamethyl-oxacyclotetradecane-2,10-dione

> <PUBCHEM_IUPAC_CAS_NAME>
(3R,4S,5S,6R,7R,9R,11R,12S,13R,14R)-4-[[(2R,4R,5S,6S)-4,5-dihydroxy-4,6-dimethyl-2-oxanyl]oxy]-6-[[(2S,3R,4S,6R)-4-(dimethylamino)-3-hydroxy-6-methyl-2-oxanyl]oxy]-14-ethyl-7,12-dihydroxy-3,5,7,9,11,13-hexamethyl-oxacyclotetradecane-2,10-dione

> <PUBCHEM_IUPAC_NAME>
(3R,4S,5S,6R,7R,9R,11R,12S,13R,14R)-4-[(2R,4R,5S,6S)-4,5-dihydroxy-4,6-dimethyloxan-2-yl]oxy-6-[(2S,3R,4S,6R)-4-(dimethylamino)-3-hydroxy-6-methyloxan-2-yl]oxy-14-ethyl-7,12-dihydroxy-3,5,7,9,11,13-hexamethyl-oxacyclotetradecane-2,10-dione

> <PUBCHEM_IUPAC_SYSTEMATIC_NAME>
(3R,4S,5S,6R,7R,9R,11R,12S,13R,14R)-6-[(2S,3R,4S,6R)-4-(dimethylamino)-6-methyl-3-oxidanyl-oxan-2-yl]oxy-4-[(2R,4R,5S,6S)-4,6-dimethyl-4,5-bis(oxidanyl)oxan-2-yl]oxy-14-ethyl-3,5,7,9,11,13-hexamethyl-7,12-bis(oxidanyl)-1-oxacyclotetradecane-2,10-dione

> <PUBCHEM_IUPAC_TRADITIONAL_NAME>
(3R,4S,5S,6R,7R,9R,11R,12S,13R,14R)-4-[(2R,4R,5S,6S)-4,5-dihydroxy-4,6-dimethyl-tetrahydropyran-2-yl]oxy-6-[(2S,3R,4S,6R)-4-(dimethylamino)-3-hydroxy-6-methyl-tetrahydropyran-2-yl]oxy-14-ethyl-7,12-dihydroxy-3,5,7,9,11,13-hexamethyl-oxacyclotetradecane-2,10-quinone

> <PUBCHEM_IUPAC_INCHI>
InChI=1S/C36H65NO12/c1-13-25-19(4)28(39)20(5)27(38)17(2)15-36(10,44)32(49-34-29(40)24(37(11)12)14-18(3)45-34)21(6)30(22(7)33(42)47-25)48-26-16-35(9,43)31(41)23(8)46-26/h17-26,28-32,34,39-41,43-44H,13-16H2,1-12H3/t17-,18-,19+,20+,21+,22-,23+,24+,25-,26+,28+,29-,30+,31+,32-,34+,35-,36-/m1/s1

> <PUBCHEM_IUPAC_INCHIKEY>
CLQUUOKNEOQBSW-KEGKUKQHSA-N

> <PUBCHEM_XLOGP3>
3.4

> <PUBCHEM_EXACT_MASS>
703.450677

> <PUBCHEM_MOLECULAR_FORMULA>
C36H65NO12

> <PUBCHEM_MOLECULAR_WEIGHT>
703.9008

> <PUBCHEM_OPENEYE_CAN_SMILES>
CCC1C(C(C(C(=O)C(CC(C(C(C(C(C(=O)O1)C)OC2CC(C(C(O2)C)O)(C)O)C)OC3C(C(CC(O3)C)N(C)C)O)(C)O)C)C)O)C

> <PUBCHEM_OPENEYE_ISO_SMILES>
CC[C@@H]1[C@@H]([C@@H]([C@H](C(=O)[C@@H](C[C@@]([C@@H]([C@H]([C@@H]([C@H](C(=O)O1)C)O[C@H]2C[C@@]([C@H]([C@@H](O2)C)O)(C)O)C)O[C@H]3[C@@H]([C@H](C[C@H](O3)C)N(C)C)O)(C)O)C)C)O)C

> <PUBCHEM_CACTVS_TPSA>
185

> <PUBCHEM_MONOISOTOPIC_WEIGHT>
703.450677

> <PUBCHEM_TOTAL_CHARGE>
0

> <PUBCHEM_HEAVY_ATOM_COUNT>
49

> <PUBCHEM_ATOM_DEF_STEREO_COUNT>
18

> <PUBCHEM_ATOM_UDEF_STEREO_COUNT>
0

> <PUBCHEM_BOND_DEF_STEREO_COUNT>
0

> <PUBCHEM_BOND_UDEF_STEREO_COUNT>
0

> <PUBCHEM_ISOTOPIC_ATOM_COUNT>
0

> <PUBCHEM_COMPONENT_COUNT>
1

> <PUBCHEM_CACTVS_TAUTO_COUNT>
6

> <PUBCHEM_COORDINATE_TYPE>
1
5
255

> <PUBCHEM_BONDANNOTATIONS>
14  1  5
20  1  5
35  10  6
24  13  5
15  23  5
19  39  6
17  2  5
25  2  6
21  40  5
16  3  6
31  42  5
32  43  6
34  45  5
36  46  5
37  44  5
22  7  6
27  8  6
30  9  6

$$$$

