11336
  -OEChem-06261205332D

 16 16  0     0  0  0  0  0  0999 V2000
    5.4641   -1.1550    0.0000 Br  0  0  0  0  0  0  0  0  0  0  0  0
    2.0000    0.8450    0.0000 Br  0  0  0  0  0  0  0  0  0  0  0  0
    3.7320   -2.1550    0.0000 Br  0  0  0  0  0  0  0  0  0  0  0  0
    2.0000   -1.1550    0.0000 Br  0  0  0  0  0  0  0  0  0  0  0  0
    3.7320    1.8450    0.0000 O   0  0  0  0  0  0  0  0  0  0  0  0
    4.5981    0.3450    0.0000 C   0  0  0  0  0  0  0  0  0  0  0  0
    3.7320    0.8450    0.0000 C   0  0  0  0  0  0  0  0  0  0  0  0
    4.5981   -0.6550    0.0000 C   0  0  0  0  0  0  0  0  0  0  0  0
    2.8660    0.3450    0.0000 C   0  0  0  0  0  0  0  0  0  0  0  0
    3.7320   -1.1550    0.0000 C   0  0  0  0  0  0  0  0  0  0  0  0
    2.8660   -0.6550    0.0000 C   0  0  0  0  0  0  0  0  0  0  0  0
    5.4641    0.8450    0.0000 C   0  0  0  0  0  0  0  0  0  0  0  0
    5.7741    0.3081    0.0000 H   0  0  0  0  0  0  0  0  0  0  0  0
    6.0010    1.1550    0.0000 H   0  0  0  0  0  0  0  0  0  0  0  0
    5.1541    1.3819    0.0000 H   0  0  0  0  0  0  0  0  0  0  0  0
    4.2690    2.1550    0.0000 H   0  0  0  0  0  0  0  0  0  0  0  0
  1  8  1  0  0  0  0
  2  9  1  0  0  0  0
  3 10  1  0  0  0  0
  4 11  1  0  0  0  0
  5  7  1  0  0  0  0
  5 16  1  0  0  0  0
  6  7  2  0  0  0  0
  6  8  1  0  0  0  0
  6 12  1  0  0  0  0
  7  9  1  0  0  0  0
  8 10  2  0  0  0  0
  9 11  2  0  0  0  0
 10 11  1  0  0  0  0
 12 13  1  0  0  0  0
 12 14  1  0  0  0  0
 12 15  1  0  0  0  0
M  END
> <PUBCHEM_COMPOUND_CID>
11336

> <PUBCHEM_COMPOUND_CANONICALIZED>
1

> <PUBCHEM_CACTVS_COMPLEXITY>
166

> <PUBCHEM_CACTVS_HBOND_ACCEPTOR>
1

> <PUBCHEM_CACTVS_HBOND_DONOR>
1

> <PUBCHEM_CACTVS_ROTATABLE_BOND>
0

> <PUBCHEM_CACTVS_SUBSKEYS>
AAADcYBgIAAAHAAAAAAAAAAAAAAAAAAAAAAwAAAAAAAAAAABAAAAGgBACAABrASAmAACBoAAAgCAAgBAAAACAAAgIAQAiAAECKgIJiKCEBKAcAAkwBEImheAwCAOAhAEEIAohAEEIAghAFEIAgAAAAAAAA==

> <PUBCHEM_IUPAC_OPENEYE_NAME>
2,3,4,5-tetrabromo-6-methyl-phenol

> <PUBCHEM_IUPAC_CAS_NAME>
2,3,4,5-tetrabromo-6-methylphenol

> <PUBCHEM_IUPAC_NAME>
2,3,4,5-tetrabromo-6-methylphenol

> <PUBCHEM_IUPAC_SYSTEMATIC_NAME>
2,3,4,5-tetrakis(bromanyl)-6-methyl-phenol

> <PUBCHEM_IUPAC_TRADITIONAL_NAME>
2,3,4,5-tetrabromo-6-methyl-phenol

> <PUBCHEM_IUPAC_INCHI>
InChI=1S/C7H4Br4O/c1-2-3(8)4(9)5(10)6(11)7(2)12/h12H,1H3

> <PUBCHEM_IUPAC_INCHIKEY>
GGIDUULRWQOXLR-UHFFFAOYSA-N

> <PUBCHEM_XLOGP3_AA>
4.7

> <PUBCHEM_EXACT_MASS>
423.69547

> <PUBCHEM_MOLECULAR_FORMULA>
C7H4Br4O

> <PUBCHEM_MOLECULAR_WEIGHT>
423.72206

> <PUBCHEM_OPENEYE_CAN_SMILES>
CC1=C(C(=C(C(=C1Br)Br)Br)Br)O

> <PUBCHEM_OPENEYE_ISO_SMILES>
CC1=C(C(=C(C(=C1Br)Br)Br)Br)O

> <PUBCHEM_CACTVS_TPSA>
20.2

> <PUBCHEM_MONOISOTOPIC_WEIGHT>
419.699563

> <PUBCHEM_TOTAL_CHARGE>
0

> <PUBCHEM_HEAVY_ATOM_COUNT>
12

> <PUBCHEM_ATOM_DEF_STEREO_COUNT>
0

> <PUBCHEM_ATOM_UDEF_STEREO_COUNT>
0

> <PUBCHEM_BOND_DEF_STEREO_COUNT>
0

> <PUBCHEM_BOND_UDEF_STEREO_COUNT>
0

> <PUBCHEM_ISOTOPIC_ATOM_COUNT>
0

> <PUBCHEM_COMPONENT_COUNT>
1

> <PUBCHEM_CACTVS_TAUTO_COUNT>
3

> <PUBCHEM_COORDINATE_TYPE>
1
5
255

> <PUBCHEM_BONDANNOTATIONS>
10  11  8
6  7  8
6  8  8
7  9  8
8  10  8
9  11  8

$$$$

