9548773
  -OEChem-07051213153D

 53 57  0     1  0  0  0  0  0999 V2000
    2.8521   -0.8987   -1.3506 O   0  0  0  0  0  0  0  0  0  0  0  0
   -5.5268    0.6985    0.1458 O   0  0  0  0  0  0  0  0  0  0  0  0
    4.7198    0.0834   -0.3253 N   0  0  0  0  0  0  0  0  0  0  0  0
    0.2881   -0.4158   -0.0353 C   0  0  2  0  0  0  0  0  0  0  0  0
    1.6878   -0.2297    0.6830 C   0  0  2  0  0  0  0  0  0  0  0  0
   -0.7528    0.6705    0.3830 C   0  0  2  0  0  0  0  0  0  0  0  0
   -2.0573    0.4264   -0.3842 C   0  0  1  0  0  0  0  0  0  0  0  0
   -2.6654   -0.9559   -0.0882 C   0  0  2  0  0  0  0  0  0  0  0  0
    2.1795    1.2464    0.4852 C   0  0  2  0  0  0  0  0  0  0  0  0
   -0.2948   -1.8521    0.0861 C   0  0  0  0  0  0  0  0  0  0  0  0
   -0.2092    2.0770    0.1150 C   0  0  0  0  0  0  0  0  0  0  0  0
    2.7470   -1.2033    0.0516 C   0  0  2  0  0  0  0  0  0  0  0  0
   -1.6752   -2.0195   -0.5745 C   0  0  0  0  0  0  0  0  0  0  0  0
    1.1210    2.3049    0.8176 C   0  0  0  0  0  0  0  0  0  0  0  0
   -3.2297    1.3784   -0.1780 C   0  0  0  0  0  0  0  0  0  0  0  0
   -3.9701   -0.8685   -0.9017 C   0  0  0  0  0  0  0  0  0  0  0  0
    2.7777    1.4555   -0.9295 C   0  0  0  0  0  0  0  0  0  0  0  0
   -4.4276    0.5977   -0.7472 C   0  0  1  0  0  0  0  0  0  0  0  0
    1.5788   -0.5333    2.1950 C   0  0  0  0  0  0  0  0  0  0  0  0
    3.6730    0.2749   -1.3342 C   0  0  2  0  0  0  0  0  0  0  0  0
    4.2035   -1.0289    0.4894 C   0  0  0  0  0  0  0  0  0  0  0  0
   -3.0195   -1.2078    1.3970 C   0  0  0  0  0  0  0  0  0  0  0  0
    0.4567   -0.2659   -1.1121 H   0  0  0  0  0  0  0  0  0  0  0  0
   -0.9561    0.5919    1.4566 H   0  0  0  0  0  0  0  0  0  0  0  0
   -1.8099    0.4755   -1.4582 H   0  0  0  0  0  0  0  0  0  0  0  0
    3.0018    1.4273    1.1928 H   0  0  0  0  0  0  0  0  0  0  0  0
   -0.3614   -2.1502    1.1364 H   0  0  0  0  0  0  0  0  0  0  0  0
    0.3809   -2.5695   -0.3920 H   0  0  0  0  0  0  0  0  0  0  0  0
   -0.9234    2.8293    0.4703 H   0  0  0  0  0  0  0  0  0  0  0  0
   -0.0972    2.2416   -0.9631 H   0  0  0  0  0  0  0  0  0  0  0  0
    2.4478   -2.2491    0.1672 H   0  0  0  0  0  0  0  0  0  0  0  0
   -1.5505   -1.9494   -1.6629 H   0  0  0  0  0  0  0  0  0  0  0  0
   -2.0605   -3.0262   -0.3724 H   0  0  0  0  0  0  0  0  0  0  0  0
    1.4989    3.3032    0.5649 H   0  0  0  0  0  0  0  0  0  0  0  0
    0.9495    2.3119    1.9014 H   0  0  0  0  0  0  0  0  0  0  0  0
   -3.3690    1.6404    0.8767 H   0  0  0  0  0  0  0  0  0  0  0  0
   -3.0828    2.3143   -0.7278 H   0  0  0  0  0  0  0  0  0  0  0  0
   -4.7267   -1.5880   -0.5715 H   0  0  0  0  0  0  0  0  0  0  0  0
   -3.7616   -1.0639   -1.9611 H   0  0  0  0  0  0  0  0  0  0  0  0
    1.9709    1.5454   -1.6658 H   0  0  0  0  0  0  0  0  0  0  0  0
    3.3470    2.3927   -0.9545 H   0  0  0  0  0  0  0  0  0  0  0  0
   -4.7445    1.0039   -1.7132 H   0  0  0  0  0  0  0  0  0  0  0  0
    1.4064   -1.5986    2.3789 H   0  0  0  0  0  0  0  0  0  0  0  0
    2.4982   -0.2647    2.7259 H   0  0  0  0  0  0  0  0  0  0  0  0
    0.7686    0.0220    2.6746 H   0  0  0  0  0  0  0  0  0  0  0  0
    4.0948    0.4370   -2.3312 H   0  0  0  0  0  0  0  0  0  0  0  0
    4.3319   -0.8480    1.5587 H   0  0  0  0  0  0  0  0  0  0  0  0
    4.7683   -1.9335    0.2318 H   0  0  0  0  0  0  0  0  0  0  0  0
   -2.1324   -1.2813    2.0322 H   0  0  0  0  0  0  0  0  0  0  0  0
   -3.6340   -0.4197    1.8360 H   0  0  0  0  0  0  0  0  0  0  0  0
   -3.5679   -2.1509    1.5038 H   0  0  0  0  0  0  0  0  0  0  0  0
    5.5796   -0.2235   -0.7799 H   0  0  0  0  0  0  0  0  0  0  0  0
   -5.3286    0.2004    0.9540 H   0  0  0  0  0  0  0  0  0  0  0  0
  1 12  1  0  0  0  0
  1 20  1  0  0  0  0
  2 18  1  0  0  0  0
  2 53  1  0  0  0  0
  3 20  1  0  0  0  0
  3 21  1  0  0  0  0
  3 52  1  0  0  0  0
  4  5  1  0  0  0  0
  4  6  1  0  0  0  0
  4 10  1  0  0  0  0
  4 23  1  0  0  0  0
  5  9  1  0  0  0  0
  5 12  1  0  0  0  0
  5 19  1  0  0  0  0
  6  7  1  0  0  0  0
  6 11  1  0  0  0  0
  6 24  1  0  0  0  0
  7  8  1  0  0  0  0
  7 15  1  0  0  0  0
  7 25  1  0  0  0  0
  8 13  1  0  0  0  0
  8 16  1  0  0  0  0
  8 22  1  0  0  0  0
  9 14  1  0  0  0  0
  9 17  1  0  0  0  0
  9 26  1  0  0  0  0
 10 13  1  0  0  0  0
 10 27  1  0  0  0  0
 10 28  1  0  0  0  0
 11 14  1  0  0  0  0
 11 29  1  0  0  0  0
 11 30  1  0  0  0  0
 12 21  1  0  0  0  0
 12 31  1  0  0  0  0
 13 32  1  0  0  0  0
 13 33  1  0  0  0  0
 14 34  1  0  0  0  0
 14 35  1  0  0  0  0
 15 18  1  0  0  0  0
 15 36  1  0  0  0  0
 15 37  1  0  0  0  0
 16 18  1  0  0  0  0
 16 38  1  0  0  0  0
 16 39  1  0  0  0  0
 17 20  1  0  0  0  0
 17 40  1  0  0  0  0
 17 41  1  0  0  0  0
 18 42  1  0  0  0  0
 19 43  1  0  0  0  0
 19 44  1  0  0  0  0
 19 45  1  0  0  0  0
 20 46  1  0  0  0  0
 21 47  1  0  0  0  0
 21 48  1  0  0  0  0
 22 49  1  0  0  0  0
 22 50  1  0  0  0  0
 22 51  1  0  0  0  0
M  END
> <PUBCHEM_COMPOUND_CID>
9548773

> <PUBCHEM_CONFORMER_RMSD>
0.6

> <PUBCHEM_CONFORMER_DIVERSEORDER>
1

> <PUBCHEM_MMFF94_PARTIAL_CHARGES>
9
1 -0.56
12 0.28
18 0.28
2 -0.68
20 0.55
21 0.27
3 -0.9
52 0.36
53 0.4

> <PUBCHEM_EFFECTIVE_ROTOR_COUNT>
2.2

> <PUBCHEM_PHARMACOPHORE_FEATURES>
9
1 1 acceptor
1 2 acceptor
1 2 donor
1 3 cation
1 3 donor
5 7 8 15 16 18 rings
6 4 5 6 9 11 14 rings
6 4 6 7 8 10 13 rings
8 1 3 5 9 12 17 20 21 rings

> <PUBCHEM_HEAVY_ATOM_COUNT>
22

> <PUBCHEM_ATOM_DEF_STEREO_COUNT>
9

> <PUBCHEM_ATOM_UDEF_STEREO_COUNT>
0

> <PUBCHEM_BOND_DEF_STEREO_COUNT>
0

> <PUBCHEM_BOND_UDEF_STEREO_COUNT>
0

> <PUBCHEM_ISOTOPIC_ATOM_COUNT>
0

> <PUBCHEM_COMPONENT_COUNT>
1

> <PUBCHEM_CACTVS_TAUTO_COUNT>
1

> <PUBCHEM_CONFORMER_ID>
0091B3E500000001

> <PUBCHEM_MMFF94_ENERGY>
85.7365

> <PUBCHEM_FEATURE_SELFOVERLAP>
45.753

> <PUBCHEM_SHAPE_FINGERPRINT>
10498660 4 18202570557684950797
10863032 1 17774997968906385146
11578080 2 16952545575996178043
116883 192 18115018718739647652
11796584 16 14490197111618422789
12236239 1 17989209265484410762
12403814 3 17560803272941519757
12553582 1 18187347823345503504
12596599 1 17603857863077848063
12788726 201 18188766283371440792
13140716 1 18337397045680286987
13221675 6 18413390925383631243
13224815 77 18059577940668129121
13296908 3 18342458089033890331
14115302 16 18343579638265404308
14223421 5 17906173953880889499
14289901 80 15841558487490430859
14790565 3 18337381768603746145
15099037 51 18407762551563353439
15196674 1 18409451341146356061
15238133 3 18058464247085027609
15375358 24 18113624473555027494
15536298 74 18187936023185084153
15788980 27 18409729564954357318
15848700 24 17967820452635383084
1601671 61 18337110176319792577
16752209 62 18336273447891998937
16945 1 17894620457489467330
17349148 13 17676210160913420695
17804303 29 18408887313377760965
1813 80 4750892442033154976
18186145 218 17203614769779195914
19078846 21 18271259307871402880
19784866 9 17917999416106896610
19862831 5 18342740714840225149
200 152 17022906744178461895
20233049 118 18413393141861010556
20645476 183 17846782892809126643
20645477 70 18114464470052351644
20691752 17 17559974141952019981
20905425 154 17755300411289451846
21069387 34 14562525171914385047
21267235 1 18410285930311457191
21285901 2 18042116720951032277
221357 26 18335144189647726613
221490 88 18267302028004877571
23402539 116 18334864926462979414
23419403 2 15606713618198087733
23493267 7 18060418006328015643
23557571 272 17968942023763804600
23559900 14 18041286465355509568
2748010 2 18338527317827062777
296302 2 5328742976474632042
3004659 81 18342737472847155838
335352 9 18336269024165069261
34934 24 18336551512785885292
350125 39 18410292558322103901
4340502 62 16630519661565888489
474 4 16987992783230748964
4921388 177 16415189036618483331
495365 180 17168439172403424064
4990 188 18186801383198850103
5104073 3 18336830797249972651
633830 44 17632297826494011774
7364860 26 17824833238935652064
74978 22 18262241006273881379
7832392 63 18336834069603575285
9709674 26 18119820114303667631
9981440 41 17409361781524700304

> <PUBCHEM_SHAPE_MULTIPOLES>
436.03
8.73
2.06
1.29
3.49
0.38
-0.33
-0.07
1.86
0.1
-0.13
-0.56
-0.18
-0.06

> <PUBCHEM_SHAPE_SELFOVERLAP>
944.412

> <PUBCHEM_SHAPE_VOLUME>
237.6

> <PUBCHEM_COORDINATE_TYPE>
2
5
10

$$$$

