8361
  -OEChem-07051213043D

 26 27  0     0  0  0  0  0  0999 V2000
    0.5798    0.6452    0.3608 O   0  0  0  0  0  0  0  0  0  0  0  0
   -2.2806   -2.2579   -0.2016 O   0  0  0  0  0  0  0  0  0  0  0  0
    0.1696   -1.2638   -0.9133 O   0  0  0  0  0  0  0  0  0  0  0  0
   -1.6445    0.0531   -0.1005 C   0  0  0  0  0  0  0  0  0  0  0  0
   -2.6190   -0.9445   -0.0667 C   0  0  0  0  0  0  0  0  0  0  0  0
   -2.0118    1.3916    0.0379 C   0  0  0  0  0  0  0  0  0  0  0  0
    1.9467    0.3859    0.2294 C   0  0  0  0  0  0  0  0  0  0  0  0
   -0.2386   -0.2810   -0.2806 C   0  0  0  0  0  0  0  0  0  0  0  0
   -3.9605   -0.6034    0.1056 C   0  0  0  0  0  0  0  0  0  0  0  0
   -3.3535    1.7326    0.2100 C   0  0  0  0  0  0  0  0  0  0  0  0
   -4.3277    0.7351    0.2438 C   0  0  0  0  0  0  0  0  0  0  0  0
    2.6236    0.9325   -0.8380 C   0  0  0  0  0  0  0  0  0  0  0  0
    2.5626   -0.4064    1.1723 C   0  0  0  0  0  0  0  0  0  0  0  0
    3.9877    0.6728   -0.9695 C   0  0  0  0  0  0  0  0  0  0  0  0
    3.9268   -0.6658    1.0408 C   0  0  0  0  0  0  0  0  0  0  0  0
    4.6393   -0.1261   -0.0302 C   0  0  0  0  0  0  0  0  0  0  0  0
   -1.2795    2.1939    0.0010 H   0  0  0  0  0  0  0  0  0  0  0  0
   -4.7304   -1.3699    0.1334 H   0  0  0  0  0  0  0  0  0  0  0  0
   -3.6402    2.7750    0.3142 H   0  0  0  0  0  0  0  0  0  0  0  0
   -5.3724    1.0009    0.3769 H   0  0  0  0  0  0  0  0  0  0  0  0
    2.1163    1.5548   -1.5686 H   0  0  0  0  0  0  0  0  0  0  0  0
    2.0079   -0.8259    2.0057 H   0  0  0  0  0  0  0  0  0  0  0  0
    4.5426    1.0930   -1.8033 H   0  0  0  0  0  0  0  0  0  0  0  0
    4.4343   -1.2880    1.7722 H   0  0  0  0  0  0  0  0  0  0  0  0
    5.7015   -0.3281   -0.1325 H   0  0  0  0  0  0  0  0  0  0  0  0
   -3.0864   -2.8002   -0.1530 H   0  0  0  0  0  0  0  0  0  0  0  0
  1  7  1  0  0  0  0
  1  8  1  0  0  0  0
  2  5  1  0  0  0  0
  2 26  1  0  0  0  0
  3  8  2  0  0  0  0
  4  5  1  0  0  0  0
  4  6  2  0  0  0  0
  4  8  1  0  0  0  0
  5  9  2  0  0  0  0
  6 10  1  0  0  0  0
  6 17  1  0  0  0  0
  7 12  2  0  0  0  0
  7 13  1  0  0  0  0
  9 11  1  0  0  0  0
  9 18  1  0  0  0  0
 10 11  2  0  0  0  0
 10 19  1  0  0  0  0
 11 20  1  0  0  0  0
 12 14  1  0  0  0  0
 12 21  1  0  0  0  0
 13 15  2  0  0  0  0
 13 22  1  0  0  0  0
 14 16  2  0  0  0  0
 14 23  1  0  0  0  0
 15 16  1  0  0  0  0
 15 24  1  0  0  0  0
 16 25  1  0  0  0  0
M  END
> <PUBCHEM_COMPOUND_CID>
8361

> <PUBCHEM_CONFORMER_RMSD>
0.6

> <PUBCHEM_CONFORMER_DIVERSEORDER>
1
37
30
4
35
34
2
20
31
3
36
12
39
6
28
40
32
9
23
5
43
8
24
38
41
7
33
21
42
17
10
25
27
22
26
11
18
19
14
13
16
29
15

> <PUBCHEM_MMFF94_PARTIAL_CHARGES>
26
1 -0.23
10 -0.15
11 -0.15
12 -0.15
13 -0.15
14 -0.15
15 -0.15
16 -0.15
17 0.15
18 0.15
19 0.15
2 -0.53
20 0.15
21 0.15
22 0.15
23 0.15
24 0.15
25 0.15
26 0.45
3 -0.57
4 0.09
5 0.08
6 -0.15
7 0.08
8 0.63
9 -0.15

> <PUBCHEM_EFFECTIVE_ROTOR_COUNT>
3

> <PUBCHEM_PHARMACOPHORE_FEATURES>
4
1 2 donor
1 3 acceptor
6 4 5 6 9 10 11 rings
6 7 12 13 14 15 16 rings

> <PUBCHEM_HEAVY_ATOM_COUNT>
16

> <PUBCHEM_ATOM_DEF_STEREO_COUNT>
0

> <PUBCHEM_ATOM_UDEF_STEREO_COUNT>
0

> <PUBCHEM_BOND_DEF_STEREO_COUNT>
0

> <PUBCHEM_BOND_UDEF_STEREO_COUNT>
0

> <PUBCHEM_ISOTOPIC_ATOM_COUNT>
0

> <PUBCHEM_COMPONENT_COUNT>
1

> <PUBCHEM_CACTVS_TAUTO_COUNT>
4

> <PUBCHEM_CONFORMER_ID>
000020A900000001

> <PUBCHEM_MMFF94_ENERGY>
53.5473

> <PUBCHEM_FEATURE_SELFOVERLAP>
20.297

> <PUBCHEM_SHAPE_FINGERPRINT>
10616163 171 18340765953323847450
10751810 167 18411413999424502708
12107183 9 17553212407502995992
12236239 1 18201719557349707832
12251169 10 18342460356628896909
12346177 29 17531538593883504351
12670546 56 18272095984765045476
13167823 11 18202001031899157282
13380535 76 18333732455193026239
13675066 3 18040720264211746826
13760787 19 18343862208385065050
13862211 1 18263366902698614351
13897977 58 18341888580628699101
14144814 61 18413673512799115024
15042514 8 18337106745063409951
15375358 24 17095245821640577656
15669948 3 18410014291073605047
16752209 62 18335434434520569431
17804303 29 18261393317284772585
17834072 33 17917427601261549338
1813 80 17059771256150516974
18186145 218 16917351433236334280
19026448 5 18131632274894490016
19050596 39 18131072627813137088
19422 9 18201721738950403706
200 152 17418097606911000865
20233049 118 18260548935467999832
20279233 1 16805322188928833476
20281475 54 18201447964734237738
20645477 70 15554182444695197690
21267235 1 18342729715413311803
2255824 54 17560799910219334464
22646028 1 18273500069719279376
23048698 100 17704072897483092344
23175994 123 16805318886041136385
23402539 116 18335148587799466493
23402655 69 17917713517572301212
23463225 33 18342178894595058454
23559900 14 18115578387422496798
300161 21 18272658934908331852
42 15 18341334465549300922
4214541 1 18411982472458122208
474 4 17344901911376164852
5104073 3 18341331115211333040
573450 72 18412833494473708979
6430166 295 18335703870455691708
69090 78 15140685777900322956
77492 1 18131071519737954772
77779 3 18272931622249956160
8272917 22 17988080118376726778

> <PUBCHEM_SHAPE_MULTIPOLES>
311.66
9.41
1.52
0.93
2.29
0.23
-0.04
-0.75
-0.61
-1.31
0.12
0.77
0.05
-0.84

> <PUBCHEM_SHAPE_SELFOVERLAP>
677.569

> <PUBCHEM_SHAPE_VOLUME>
167.8

> <PUBCHEM_COORDINATE_TYPE>
2
5
10

$$$$

