5282293
  -OEChem-07051213042D

128127  0     1  0  0  0  0  0999 V2000
    6.8671   -4.0000    0.0000 P   0  0  3  0  0  0  0  0  0  0  0  0
   10.3312   -2.0000    0.0000 O   0  0  0  0  0  0  0  0  0  0  0  0
   10.3312   -4.0000    0.0000 O   0  0  0  0  0  0  0  0  0  0  0  0
    9.4651   -0.5000    0.0000 O   0  0  0  0  0  0  0  0  0  0  0  0
    7.7331   -3.5000    0.0000 O   0  0  0  0  0  0  0  0  0  0  0  0
   11.1972   -2.5000    0.0000 O   0  0  0  0  0  0  0  0  0  0  0  0
    6.0010   -4.5000    0.0000 O   0  0  0  0  0  0  0  0  0  0  0  0
    6.3671   -3.1340    0.0000 O   0  0  0  0  0  0  0  0  0  0  0  0
    7.3671   -4.8660    0.0000 O   0  0  0  0  0  0  0  0  0  0  0  0
    4.2690   -5.5000    0.0000 O   0  0  0  0  0  0  0  0  0  0  0  0
    2.5369   -4.5000    0.0000 O   0  0  0  0  0  0  0  0  0  0  0  0
   13.7953    4.0000    0.0000 C   0  0  0  0  0  0  0  0  0  0  0  0
   13.7953    5.0000    0.0000 C   0  0  0  0  0  0  0  0  0  0  0  0
   12.9292    3.5000    0.0000 C   0  0  0  0  0  0  0  0  0  0  0  0
   14.6613    5.5000    0.0000 C   0  0  0  0  0  0  0  0  0  0  0  0
   12.9292    2.5000    0.0000 C   0  0  0  0  0  0  0  0  0  0  0  0
   14.6613    6.5000    0.0000 C   0  0  0  0  0  0  0  0  0  0  0  0
   15.5273    7.0000    0.0000 C   0  0  0  0  0  0  0  0  0  0  0  0
   12.0632    2.0000    0.0000 C   0  0  0  0  0  0  0  0  0  0  0  0
   15.5273    8.0000    0.0000 C   0  0  0  0  0  0  0  0  0  0  0  0
   12.0632    1.0000    0.0000 C   0  0  0  0  0  0  0  0  0  0  0  0
   16.3933    8.5000    0.0000 C   0  0  0  0  0  0  0  0  0  0  0  0
   11.1972    0.5000    0.0000 C   0  0  0  0  0  0  0  0  0  0  0  0
   16.3933    9.5000    0.0000 C   0  0  0  0  0  0  0  0  0  0  0  0
   11.1972   -0.5000    0.0000 C   0  0  0  0  0  0  0  0  0  0  0  0
   14.6613   -3.5000    0.0000 C   0  0  0  0  0  0  0  0  0  0  0  0
   15.5273   -4.0000    0.0000 C   0  0  0  0  0  0  0  0  0  0  0  0
   13.7953   -4.0000    0.0000 C   0  0  0  0  0  0  0  0  0  0  0  0
   20.7235   -7.0000    0.0000 C   0  0  0  0  0  0  0  0  0  0  0  0
   19.8574   -6.5000    0.0000 C   0  0  0  0  0  0  0  0  0  0  0  0
   16.3933   -3.5000    0.0000 C   0  0  0  0  0  0  0  0  0  0  0  0
   20.7235   -8.0000    0.0000 C   0  0  0  0  0  0  0  0  0  0  0  0
   19.8574   -5.5000    0.0000 C   0  0  0  0  0  0  0  0  0  0  0  0
   12.9292   -3.5000    0.0000 C   0  0  0  0  0  0  0  0  0  0  0  0
   17.2594   -4.0000    0.0000 C   0  0  0  0  0  0  0  0  0  0  0  0
   17.2594   10.0000    0.0000 C   0  0  0  0  0  0  0  0  0  0  0  0
   21.5895   -8.5000    0.0000 C   0  0  0  0  0  0  0  0  0  0  0  0
   18.9914   -5.0000    0.0000 C   0  0  0  0  0  0  0  0  0  0  0  0
   10.3312   -1.0000    0.0000 C   0  0  0  0  0  0  0  0  0  0  0  0
   12.0632   -4.0000    0.0000 C   0  0  0  0  0  0  0  0  0  0  0  0
   18.1254   -3.5000    0.0000 C   0  0  0  0  0  0  0  0  0  0  0  0
   21.5895   -9.5000    0.0000 C   0  0  0  0  0  0  0  0  0  0  0  0
   18.9914   -4.0000    0.0000 C   0  0  0  0  0  0  0  0  0  0  0  0
    9.4651   -3.5000    0.0000 C   0  0  3  0  0  0  0  0  0  0  0  0
    9.4651   -2.5000    0.0000 C   0  0  0  0  0  0  0  0  0  0  0  0
   11.1972   -3.5000    0.0000 C   0  0  0  0  0  0  0  0  0  0  0  0
    8.5991   -4.0000    0.0000 C   0  0  0  0  0  0  0  0  0  0  0  0
   22.4555  -10.0000    0.0000 C   0  0  0  0  0  0  0  0  0  0  0  0
    5.1350   -4.0000    0.0000 C   0  0  0  0  0  0  0  0  0  0  0  0
    4.2690   -4.5000    0.0000 C   0  0  3  0  0  0  0  0  0  0  0  0
    3.4030   -4.0000    0.0000 C   0  0  0  0  0  0  0  0  0  0  0  0
   14.0073    3.4174    0.0000 H   0  0  0  0  0  0  0  0  0  0  0  0
   14.4058    4.1077    0.0000 H   0  0  0  0  0  0  0  0  0  0  0  0
   13.5832    5.5826    0.0000 H   0  0  0  0  0  0  0  0  0  0  0  0
   13.1847    4.8923    0.0000 H   0  0  0  0  0  0  0  0  0  0  0  0
   12.7172    4.0826    0.0000 H   0  0  0  0  0  0  0  0  0  0  0  0
   12.3187    3.3923    0.0000 H   0  0  0  0  0  0  0  0  0  0  0  0
   14.8733    4.9174    0.0000 H   0  0  0  0  0  0  0  0  0  0  0  0
   15.2719    5.6077    0.0000 H   0  0  0  0  0  0  0  0  0  0  0  0
   13.1413    1.9174    0.0000 H   0  0  0  0  0  0  0  0  0  0  0  0
   13.5398    2.6077    0.0000 H   0  0  0  0  0  0  0  0  0  0  0  0
   14.4492    7.0826    0.0000 H   0  0  0  0  0  0  0  0  0  0  0  0
   14.0507    6.3923    0.0000 H   0  0  0  0  0  0  0  0  0  0  0  0
   15.7394    6.4174    0.0000 H   0  0  0  0  0  0  0  0  0  0  0  0
   16.1379    7.1077    0.0000 H   0  0  0  0  0  0  0  0  0  0  0  0
   11.8512    2.5826    0.0000 H   0  0  0  0  0  0  0  0  0  0  0  0
   11.4526    1.8923    0.0000 H   0  0  0  0  0  0  0  0  0  0  0  0
   15.3153    8.5826    0.0000 H   0  0  0  0  0  0  0  0  0  0  0  0
   14.9167    7.8923    0.0000 H   0  0  0  0  0  0  0  0  0  0  0  0
   12.2753    0.4174    0.0000 H   0  0  0  0  0  0  0  0  0  0  0  0
   12.6738    1.1077    0.0000 H   0  0  0  0  0  0  0  0  0  0  0  0
   16.6054    7.9174    0.0000 H   0  0  0  0  0  0  0  0  0  0  0  0
   17.0039    8.6077    0.0000 H   0  0  0  0  0  0  0  0  0  0  0  0
   10.9851    1.0826    0.0000 H   0  0  0  0  0  0  0  0  0  0  0  0
   10.5866    0.3923    0.0000 H   0  0  0  0  0  0  0  0  0  0  0  0
   16.1813   10.0826    0.0000 H   0  0  0  0  0  0  0  0  0  0  0  0
   15.7828    9.3923    0.0000 H   0  0  0  0  0  0  0  0  0  0  0  0
   11.4092   -1.0826    0.0000 H   0  0  0  0  0  0  0  0  0  0  0  0
   11.8078   -0.3923    0.0000 H   0  0  0  0  0  0  0  0  0  0  0  0
   15.0598   -3.0250    0.0000 H   0  0  0  0  0  0  0  0  0  0  0  0
   14.2628   -3.0250    0.0000 H   0  0  0  0  0  0  0  0  0  0  0  0
   15.1288   -4.4750    0.0000 H   0  0  0  0  0  0  0  0  0  0  0  0
   15.9258   -4.4750    0.0000 H   0  0  0  0  0  0  0  0  0  0  0  0
   13.3967   -4.4750    0.0000 H   0  0  0  0  0  0  0  0  0  0  0  0
   14.1938   -4.4750    0.0000 H   0  0  0  0  0  0  0  0  0  0  0  0
   21.3340   -7.1077    0.0000 H   0  0  0  0  0  0  0  0  0  0  0  0
   20.9355   -6.4174    0.0000 H   0  0  0  0  0  0  0  0  0  0  0  0
   19.2469   -6.3923    0.0000 H   0  0  0  0  0  0  0  0  0  0  0  0
   19.6454   -7.0826    0.0000 H   0  0  0  0  0  0  0  0  0  0  0  0
   16.7919   -3.0250    0.0000 H   0  0  0  0  0  0  0  0  0  0  0  0
   15.9948   -3.0250    0.0000 H   0  0  0  0  0  0  0  0  0  0  0  0
   20.1129   -7.8923    0.0000 H   0  0  0  0  0  0  0  0  0  0  0  0
   20.5114   -8.5826    0.0000 H   0  0  0  0  0  0  0  0  0  0  0  0
   20.4680   -5.6077    0.0000 H   0  0  0  0  0  0  0  0  0  0  0  0
   20.0695   -4.9174    0.0000 H   0  0  0  0  0  0  0  0  0  0  0  0
   13.3278   -3.0250    0.0000 H   0  0  0  0  0  0  0  0  0  0  0  0
   12.5307   -3.0250    0.0000 H   0  0  0  0  0  0  0  0  0  0  0  0
   16.8608   -4.4750    0.0000 H   0  0  0  0  0  0  0  0  0  0  0  0
   17.6579   -4.4750    0.0000 H   0  0  0  0  0  0  0  0  0  0  0  0
   17.5694    9.4631    0.0000 H   0  0  0  0  0  0  0  0  0  0  0  0
   17.7963   10.3100    0.0000 H   0  0  0  0  0  0  0  0  0  0  0  0
   16.9494   10.5369    0.0000 H   0  0  0  0  0  0  0  0  0  0  0  0
   22.2001   -8.6077    0.0000 H   0  0  0  0  0  0  0  0  0  0  0  0
   21.8015   -7.9174    0.0000 H   0  0  0  0  0  0  0  0  0  0  0  0
   18.3808   -4.8923    0.0000 H   0  0  0  0  0  0  0  0  0  0  0  0
   18.7794   -5.5826    0.0000 H   0  0  0  0  0  0  0  0  0  0  0  0
   11.6647   -4.4750    0.0000 H   0  0  0  0  0  0  0  0  0  0  0  0
   12.4617   -4.4750    0.0000 H   0  0  0  0  0  0  0  0  0  0  0  0
   18.1254   -2.8800    0.0000 H   0  0  0  0  0  0  0  0  0  0  0  0
   20.9789   -9.3923    0.0000 H   0  0  0  0  0  0  0  0  0  0  0  0
   21.3774  -10.0826    0.0000 H   0  0  0  0  0  0  0  0  0  0  0  0
   19.5284   -3.6900    0.0000 H   0  0  0  0  0  0  0  0  0  0  0  0
   10.2013   -3.0750    0.0000 H   0  0  0  0  0  0  0  0  0  0  0  0
    9.2531   -1.9174    0.0000 H   0  0  0  0  0  0  0  0  0  0  0  0
    8.8546   -2.6077    0.0000 H   0  0  0  0  0  0  0  0  0  0  0  0
    8.2006   -4.4750    0.0000 H   0  0  0  0  0  0  0  0  0  0  0  0
    8.9976   -4.4750    0.0000 H   0  0  0  0  0  0  0  0  0  0  0  0
   22.1455  -10.5369    0.0000 H   0  0  0  0  0  0  0  0  0  0  0  0
   22.9925  -10.3100    0.0000 H   0  0  0  0  0  0  0  0  0  0  0  0
   22.7655   -9.4631    0.0000 H   0  0  0  0  0  0  0  0  0  0  0  0
    5.5335   -3.5250    0.0000 H   0  0  0  0  0  0  0  0  0  0  0  0
    4.7365   -3.5250    0.0000 H   0  0  0  0  0  0  0  0  0  0  0  0
    5.0051   -4.9250    0.0000 H   0  0  0  0  0  0  0  0  0  0  0  0
    6.6771   -2.5970    0.0000 H   0  0  0  0  0  0  0  0  0  0  0  0
    3.8015   -3.5250    0.0000 H   0  0  0  0  0  0  0  0  0  0  0  0
    3.0044   -3.5250    0.0000 H   0  0  0  0  0  0  0  0  0  0  0  0
    3.7320   -5.8100    0.0000 H   0  0  0  0  0  0  0  0  0  0  0  0
    2.0000   -4.1900    0.0000 H   0  0  0  0  0  0  0  0  0  0  0  0
  1  5  1  0  0  0  0
  1  7  1  0  0  0  0
  1  8  1  0  0  0  0
  1  9  2  0  0  0  0
  2 39  1  0  0  0  0
  2 45  1  0  0  0  0
  3 44  1  0  0  0  0
  3 46  1  0  0  0  0
  4 39  2  0  0  0  0
  5 47  1  0  0  0  0
  6 46  2  0  0  0  0
  7 49  1  0  0  0  0
  8124  1  0  0  0  0
 10 50  1  0  0  0  0
 10127  1  0  0  0  0
 11 51  1  0  0  0  0
 11128  1  0  0  0  0
 12 13  1  0  0  0  0
 12 14  1  0  0  0  0
 12 52  1  0  0  0  0
 12 53  1  0  0  0  0
 13 15  1  0  0  0  0
 13 54  1  0  0  0  0
 13 55  1  0  0  0  0
 14 16  1  0  0  0  0
 14 56  1  0  0  0  0
 14 57  1  0  0  0  0
 15 17  1  0  0  0  0
 15 58  1  0  0  0  0
 15 59  1  0  0  0  0
 16 19  1  0  0  0  0
 16 60  1  0  0  0  0
 16 61  1  0  0  0  0
 17 18  1  0  0  0  0
 17 62  1  0  0  0  0
 17 63  1  0  0  0  0
 18 20  1  0  0  0  0
 18 64  1  0  0  0  0
 18 65  1  0  0  0  0
 19 21  1  0  0  0  0
 19 66  1  0  0  0  0
 19 67  1  0  0  0  0
 20 22  1  0  0  0  0
 20 68  1  0  0  0  0
 20 69  1  0  0  0  0
 21 23  1  0  0  0  0
 21 70  1  0  0  0  0
 21 71  1  0  0  0  0
 22 24  1  0  0  0  0
 22 72  1  0  0  0  0
 22 73  1  0  0  0  0
 23 25  1  0  0  0  0
 23 74  1  0  0  0  0
 23 75  1  0  0  0  0
 24 36  1  0  0  0  0
 24 76  1  0  0  0  0
 24 77  1  0  0  0  0
 25 39  1  0  0  0  0
 25 78  1  0  0  0  0
 25 79  1  0  0  0  0
 26 27  1  0  0  0  0
 26 28  1  0  0  0  0
 26 80  1  0  0  0  0
 26 81  1  0  0  0  0
 27 31  1  0  0  0  0
 27 82  1  0  0  0  0
 27 83  1  0  0  0  0
 28 34  1  0  0  0  0
 28 84  1  0  0  0  0
 28 85  1  0  0  0  0
 29 30  1  0  0  0  0
 29 32  1  0  0  0  0
 29 86  1  0  0  0  0
 29 87  1  0  0  0  0
 30 33  1  0  0  0  0
 30 88  1  0  0  0  0
 30 89  1  0  0  0  0
 31 35  1  0  0  0  0
 31 90  1  0  0  0  0
 31 91  1  0  0  0  0
 32 37  1  0  0  0  0
 32 92  1  0  0  0  0
 32 93  1  0  0  0  0
 33 38  1  0  0  0  0
 33 94  1  0  0  0  0
 33 95  1  0  0  0  0
 34 40  1  0  0  0  0
 34 96  1  0  0  0  0
 34 97  1  0  0  0  0
 35 41  1  0  0  0  0
 35 98  1  0  0  0  0
 35 99  1  0  0  0  0
 36100  1  0  0  0  0
 36101  1  0  0  0  0
 36102  1  0  0  0  0
 37 42  1  0  0  0  0
 37103  1  0  0  0  0
 37104  1  0  0  0  0
 38 43  1  0  0  0  0
 38105  1  0  0  0  0
 38106  1  0  0  0  0
 40 46  1  0  0  0  0
 40107  1  0  0  0  0
 40108  1  0  0  0  0
 41 43  2  0  0  0  0
 41109  1  0  0  0  0
 42 48  1  0  0  0  0
 42110  1  0  0  0  0
 42111  1  0  0  0  0
 43112  1  0  0  0  0
 44 45  1  0  0  0  0
 44 47  1  0  0  0  0
 44113  1  0  0  0  0
 45114  1  0  0  0  0
 45115  1  0  0  0  0
 47116  1  0  0  0  0
 47117  1  0  0  0  0
 48118  1  0  0  0  0
 48119  1  0  0  0  0
 48120  1  0  0  0  0
 49 50  1  0  0  0  0
 49121  1  0  0  0  0
 49122  1  0  0  0  0
 50 51  1  0  0  0  0
 50123  1  0  0  0  0
 51125  1  0  0  0  0
 51126  1  0  0  0  0
M  END
> <PUBCHEM_COMPOUND_CID>
5282293

> <PUBCHEM_COMPOUND_CANONICALIZED>
1

> <PUBCHEM_CACTVS_COMPLEXITY>
868

> <PUBCHEM_CACTVS_HBOND_ACCEPTOR>
10

> <PUBCHEM_CACTVS_HBOND_DONOR>
3

> <PUBCHEM_CACTVS_ROTATABLE_BOND>
41

> <PUBCHEM_CACTVS_SUBSKEYS>
AAADcfB8PAIAAAAAAAAAAAAAAAAAAAAAAAAAAAAAAAAAAAAAAAAAGgAACCAACBSggAICCAAABxCIQCDSCIAAAAAgAAAICAEAAAgBEBIAAQACQAAFgAALAAOIyKCAAAAAAAAAAAAAAAAAAAAAAAAAAAAAAA==

> <PUBCHEM_IUPAC_OPENEYE_NAME>
[1-[[2,3-dihydroxypropoxy(hydroxy)phosphoryl]oxymethyl]-2-hexadecanoyloxy-ethyl] (Z)-octadec-9-enoate

> <PUBCHEM_IUPAC_CAS_NAME>
(Z)-9-octadecenoic acid [1-[2,3-dihydroxypropoxy(hydroxy)phosphoryl]oxy-3-(1-oxohexadecoxy)propan-2-yl] ester

> <PUBCHEM_IUPAC_NAME>
[1-[2,3-dihydroxypropoxy(hydroxy)phosphoryl]oxy-3-hexadecanoyloxypropan-2-yl] (Z)-octadec-9-enoate

> <PUBCHEM_IUPAC_SYSTEMATIC_NAME>
[1-[2,3-bis(oxidanyl)propoxy-oxidanyl-phosphoryl]oxy-3-hexadecanoyloxy-propan-2-yl] (Z)-octadec-9-enoate

> <PUBCHEM_IUPAC_TRADITIONAL_NAME>
(Z)-octadec-9-enoic acid [1-[[glyceryloxy(hydroxy)phosphoryl]oxymethyl]-2-hexadecanoyloxy-ethyl] ester

> <PUBCHEM_IUPAC_INCHI>
InChI=1S/C40H77O10P/c1-3-5-7-9-11-13-15-17-18-20-22-24-26-28-30-32-40(44)50-38(36-49-51(45,46)48-34-37(42)33-41)35-47-39(43)31-29-27-25-23-21-19-16-14-12-10-8-6-4-2/h17-18,37-38,41-42H,3-16,19-36H2,1-2H3,(H,45,46)/b18-17-

> <PUBCHEM_IUPAC_INCHIKEY>
PAZGBAOHGQRCBP-ZCXUNETKSA-N

> <PUBCHEM_XLOGP3_AA>
12.3

> <PUBCHEM_EXACT_MASS>
748.525435

> <PUBCHEM_MOLECULAR_FORMULA>
C40H77O10P

> <PUBCHEM_MOLECULAR_WEIGHT>
749.007142

> <PUBCHEM_OPENEYE_CAN_SMILES>
CCCCCCCCCCCCCCCC(=O)OCC(COP(=O)(O)OCC(CO)O)OC(=O)CCCCCCCC=CCCCCCCCC

> <PUBCHEM_OPENEYE_ISO_SMILES>
CCCCCCCCCCCCCCCC(=O)OCC(COP(=O)(O)OCC(CO)O)OC(=O)CCCCCCC/C=C\CCCCCCCC

> <PUBCHEM_CACTVS_TPSA>
149

> <PUBCHEM_MONOISOTOPIC_WEIGHT>
748.525435

> <PUBCHEM_TOTAL_CHARGE>
0

> <PUBCHEM_HEAVY_ATOM_COUNT>
51

> <PUBCHEM_ATOM_DEF_STEREO_COUNT>
0

> <PUBCHEM_ATOM_UDEF_STEREO_COUNT>
2

> <PUBCHEM_BOND_DEF_STEREO_COUNT>
1

> <PUBCHEM_BOND_UDEF_STEREO_COUNT>
0

> <PUBCHEM_ISOTOPIC_ATOM_COUNT>
0

> <PUBCHEM_COMPONENT_COUNT>
1

> <PUBCHEM_CACTVS_TAUTO_COUNT>
1

> <PUBCHEM_COORDINATE_TYPE>
1
5
255

> <PUBCHEM_BONDANNOTATIONS>
44  113  3
50  123  3

$$$$

