12638
  -OEChem-06261207113D

 14 14  0     0  0  0  0  0  0999 V2000
   -1.3724    0.7266    0.0607 O   0  0  0  0  0  0  0  0  0  0  0  0
   -0.4743   -1.3818   -0.0897 O   0  0  0  0  0  0  0  0  0  0  0  0
    0.8644    0.5119    0.1003 N   0  0  0  0  0  0  0  0  0  0  0  0
    2.0328   -0.0718    0.6904 C   0  0  0  0  0  0  0  0  0  0  0  0
    1.9748    0.2175   -0.7567 C   0  0  0  0  0  0  0  0  0  0  0  0
   -0.3384   -0.1664    0.0135 C   0  0  0  0  0  0  0  0  0  0  0  0
   -2.6869    0.1640   -0.0185 C   0  0  0  0  0  0  0  0  0  0  0  0
    1.9261   -1.0922    1.0289 H   0  0  0  0  0  0  0  0  0  0  0  0
    2.5662    0.6057    1.3409 H   0  0  0  0  0  0  0  0  0  0  0  0
    2.4665    1.1006   -1.1369 H   0  0  0  0  0  0  0  0  0  0  0  0
    1.8201   -0.5952   -1.4516 H   0  0  0  0  0  0  0  0  0  0  0  0
   -2.8165   -0.3628   -0.9687 H   0  0  0  0  0  0  0  0  0  0  0  0
   -3.4101    0.9824    0.0305 H   0  0  0  0  0  0  0  0  0  0  0  0
   -2.8615   -0.5101    0.8255 H   0  0  0  0  0  0  0  0  0  0  0  0
  1  6  1  0  0  0  0
  1  7  1  0  0  0  0
  2  6  2  0  0  0  0
  3  4  1  0  0  0  0
  3  5  1  0  0  0  0
  3  6  1  0  0  0  0
  4  5  1  0  0  0  0
  4  8  1  0  0  0  0
  4  9  1  0  0  0  0
  5 10  1  0  0  0  0
  5 11  1  0  0  0  0
  7 12  1  0  0  0  0
  7 13  1  0  0  0  0
  7 14  1  0  0  0  0
M  END
> <PUBCHEM_COMPOUND_CID>
12638

> <PUBCHEM_CONFORMER_RMSD>
0.4

> <PUBCHEM_CONFORMER_DIVERSEORDER>
1
2
4
3

> <PUBCHEM_MMFF94_PARTIAL_CHARGES>
11
1 -0.43
10 0.1
11 0.1
2 -0.57
3 -0.36
4 -0.05
5 -0.05
6 0.78
7 0.28
8 0.1
9 0.1

> <PUBCHEM_EFFECTIVE_ROTOR_COUNT>
2.6

> <PUBCHEM_PHARMACOPHORE_FEATURES>
1
1 2 acceptor

> <PUBCHEM_HEAVY_ATOM_COUNT>
7

> <PUBCHEM_ATOM_DEF_STEREO_COUNT>
0

> <PUBCHEM_ATOM_UDEF_STEREO_COUNT>
0

> <PUBCHEM_BOND_DEF_STEREO_COUNT>
0

> <PUBCHEM_BOND_UDEF_STEREO_COUNT>
0

> <PUBCHEM_ISOTOPIC_ATOM_COUNT>
0

> <PUBCHEM_COMPONENT_COUNT>
1

> <PUBCHEM_CACTVS_TAUTO_COUNT>
1

> <PUBCHEM_CONFORMER_ID>
0000315E00000001

> <PUBCHEM_MMFF94_ENERGY>
21.5533

> <PUBCHEM_FEATURE_SELFOVERLAP>
5.074

> <PUBCHEM_SHAPE_FINGERPRINT>
14390081 3 17895197748523540369
16714656 1 18412257328963959477
20096714 4 18273210872375643684
21040471 1 18409449201962550698
24536 1 17676765379661926080
29004967 10 15285359504871449702
5460574 1 9295289443234145273

> <PUBCHEM_SHAPE_MULTIPOLES>
127.34
3.39
0.91
0.75
1.15
0.24
-0.02
-0.42
0.01
0.14
-0.03
-0.34
-0.01
-0.11

> <PUBCHEM_SHAPE_SELFOVERLAP>
243.356

> <PUBCHEM_SHAPE_VOLUME>
80

> <PUBCHEM_COORDINATE_TYPE>
2
5
10

$$$$

