46173870
  -OEChem-07051213103D

 21 21  0     0  0  0  0  0  0999 V2000
   -2.6671   -1.9768   -0.7209 S   0  0  0  0  0  0  0  0  0  0  0  0
    3.9834    0.2145   -0.6500 O   0  0  0  0  0  0  0  0  0  0  0  0
   -2.8140    1.8942   -0.0377 O   0  0  0  0  0  0  0  0  0  0  0  0
   -2.9671    0.6429   -0.6410 N   0  0  0  0  0  0  0  0  0  0  0  0
    0.0415   -0.1284    0.6038 C   0  0  0  0  0  0  0  0  0  0  0  0
   -1.3747   -0.2512    1.0537 C   0  0  0  0  0  0  0  0  0  0  0  0
    0.8362   -1.2683    0.4813 C   0  0  0  0  0  0  0  0  0  0  0  0
    0.5718    1.1266    0.3051 C   0  0  0  0  0  0  0  0  0  0  0  0
    2.1609   -1.1531    0.0602 C   0  0  0  0  0  0  0  0  0  0  0  0
    1.8965    1.2421   -0.1159 C   0  0  0  0  0  0  0  0  0  0  0  0
    2.6911    0.1022   -0.2384 C   0  0  0  0  0  0  0  0  0  0  0  0
   -2.3585   -0.4447   -0.1002 C   0  0  0  0  0  0  0  0  0  0  0  0
   -1.6515    0.6307    1.6438 H   0  0  0  0  0  0  0  0  0  0  0  0
   -1.4680   -1.0928    1.7538 H   0  0  0  0  0  0  0  0  0  0  0  0
    0.4402   -2.2527    0.7157 H   0  0  0  0  0  0  0  0  0  0  0  0
   -0.0336    2.0240    0.3981 H   0  0  0  0  0  0  0  0  0  0  0  0
    2.7754   -2.0445   -0.0322 H   0  0  0  0  0  0  0  0  0  0  0  0
    2.2977    2.2256   -0.3452 H   0  0  0  0  0  0  0  0  0  0  0  0
   -3.6480    0.5878   -1.3906 H   0  0  0  0  0  0  0  0  0  0  0  0
    4.1819    1.1527   -0.8124 H   0  0  0  0  0  0  0  0  0  0  0  0
   -3.7066    2.2595   -0.1582 H   0  0  0  0  0  0  0  0  0  0  0  0
  1 12  2  0  0  0  0
  2 11  1  0  0  0  0
  2 20  1  0  0  0  0
  3  4  1  0  0  0  0
  3 21  1  0  0  0  0
  4 12  1  0  0  0  0
  4 19  1  0  0  0  0
  5  6  1  0  0  0  0
  5  7  2  0  0  0  0
  5  8  1  0  0  0  0
  6 12  1  0  0  0  0
  6 13  1  0  0  0  0
  6 14  1  0  0  0  0
  7  9  1  0  0  0  0
  7 15  1  0  0  0  0
  8 10  2  0  0  0  0
  8 16  1  0  0  0  0
  9 11  2  0  0  0  0
  9 17  1  0  0  0  0
 10 11  1  0  0  0  0
 10 18  1  0  0  0  0
M  END
> <PUBCHEM_COMPOUND_CID>
46173870

> <PUBCHEM_CONFORMER_RMSD>
0.6

> <PUBCHEM_CONFORMER_DIVERSEORDER>
1
12
8
15
11
7
10
14
6
5
9
4
13
2
3

> <PUBCHEM_MMFF94_PARTIAL_CHARGES>
19
1 -0.38
10 -0.15
11 0.08
12 0.38
15 0.15
16 0.15
17 0.15
18 0.15
19 0.37
2 -0.53
20 0.45
21 0.4
3 -0.44
4 -0.39
5 -0.14
6 0.2
7 -0.15
8 -0.15
9 -0.15

> <PUBCHEM_EFFECTIVE_ROTOR_COUNT>
3

> <PUBCHEM_PHARMACOPHORE_FEATURES>
3
1 1 acceptor
1 2 donor
6 5 7 8 9 10 11 rings

> <PUBCHEM_HEAVY_ATOM_COUNT>
12

> <PUBCHEM_ATOM_DEF_STEREO_COUNT>
0

> <PUBCHEM_ATOM_UDEF_STEREO_COUNT>
0

> <PUBCHEM_BOND_DEF_STEREO_COUNT>
0

> <PUBCHEM_BOND_UDEF_STEREO_COUNT>
0

> <PUBCHEM_ISOTOPIC_ATOM_COUNT>
0

> <PUBCHEM_COMPONENT_COUNT>
1

> <PUBCHEM_CACTVS_TAUTO_COUNT>
6

> <PUBCHEM_CONFORMER_ID>
02C08EAE00000001

> <PUBCHEM_MMFF94_ENERGY>
29.7649

> <PUBCHEM_FEATURE_SELFOVERLAP>
15.223

> <PUBCHEM_SHAPE_FINGERPRINT>
10857977 72 7781516979908542498
11206711 2 18339640036252381759
11401426 45 18410578388189203394
12696612 119 8574429854593204618
12897270 3 18267311941153536383
12932764 1 18335699420927569651
13705890 14 17676764284703650518
14128692 85 18041841696951811490
14325111 11 18412825755164187416
15775835 57 18342737442233388311
16945 1 18187642543879984034
17844478 74 18058995195511231739
18186145 218 18114172008981697384
18619055 16 18263930001973363171
20653085 51 18343297072293329241
21501502 16 18272660077031996522
23402539 116 17846225422917139094
23402655 69 18341621459749164029
23559900 14 18186522138127895346
25 1 18130786818982309635
2748010 2 17042317247234388754
3248919 1 17417815006589516338
5084963 1 18189612748310220203
528886 8 18341615931677607712
8030462 33 18130798823584901907
93112 12 18408889520632222653
9939556 21 18339931510013307587

> <PUBCHEM_SHAPE_MULTIPOLES>
234.08
5.55
1.77
0.87
0.82
0.04
0.08
-0.07
-1.72
-1.14
-0.19
-0.17
-0.1
-0.25

> <PUBCHEM_SHAPE_SELFOVERLAP>
469.969

> <PUBCHEM_SHAPE_VOLUME>
139.4

> <PUBCHEM_COORDINATE_TYPE>
2
5
10

$$$$

