440724
  -OEChem-07051212502D

 56 58  0     1  0  0  0  0  0999 V2000
    5.0474    0.4821    0.0000 P   0  0  3  0  0  0  0  0  0  0  0  0
    4.4026   -2.9711    0.0000 O   0  0  0  0  0  0  0  0  0  0  0  0
    6.7485   -4.0629    0.0000 O   0  0  0  0  0  0  0  0  0  0  0  0
    6.7523   -1.8874    0.0000 O   0  0  0  0  0  0  0  0  0  0  0  0
    5.3548   -0.4695    0.0000 O   0  0  0  0  0  0  0  0  0  0  0  0
    4.7400    1.4337    0.0000 O   0  0  0  0  0  0  0  0  0  0  0  0
    5.9990    0.7895    0.0000 O   0  0  0  0  0  0  0  0  0  0  0  0
    4.0958    0.1747    0.0000 O   0  0  0  0  0  0  0  0  0  0  0  0
    6.3882    1.9660    0.0000 O   0  0  0  0  0  0  0  0  0  0  0  0
    6.4996    7.2564    0.0000 O   0  0  0  0  0  0  0  0  0  0  0  0
    4.8514    6.7240    0.0000 O   0  0  0  0  0  0  0  0  0  0  0  0
    4.6783   -4.7316    0.0000 N   0  0  0  0  0  0  0  0  0  0  0  0
    4.6783   -6.3411    0.0000 N   0  0  0  0  0  0  0  0  0  0  0  0
    2.8660   -4.5364    0.0000 N   0  0  0  0  0  0  0  0  0  0  0  0
    2.0000   -6.0364    0.0000 N   0  0  0  0  0  0  0  0  0  0  0  0
    2.8660   -7.5364    0.0000 N   0  0  0  0  0  0  0  0  0  0  0  0
    7.1143    5.3532    0.0000 N   0  0  0  0  0  0  0  0  0  0  0  0
    5.9405   -3.4738    0.0000 C   0  0  2  0  0  0  0  0  0  0  0  0
    5.9422   -2.4738    0.0000 C   0  0  1  0  0  0  0  0  0  0  0  0
    4.9889   -3.7811    0.0000 C   0  0  1  0  0  0  0  0  0  0  0  0
    4.9917   -2.1631    0.0000 C   0  0  1  0  0  0  0  0  0  0  0  0
    4.6844   -1.2115    0.0000 C   0  0  0  0  0  0  0  0  0  0  0  0
    3.7320   -5.0364    0.0000 C   0  0  0  0  0  0  0  0  0  0  0  0
    5.2619   -5.5364    0.0000 C   0  0  0  0  0  0  0  0  0  0  0  0
    3.7320   -6.0364    0.0000 C   0  0  0  0  0  0  0  0  0  0  0  0
    2.8660   -6.5364    0.0000 C   0  0  0  0  0  0  0  0  0  0  0  0
    2.0000   -5.0364    0.0000 C   0  0  0  0  0  0  0  0  0  0  0  0
    5.7735    3.8692    0.0000 C   0  0  0  0  0  0  0  0  0  0  0  0
    5.4661    4.8208    0.0000 C   0  0  0  0  0  0  0  0  0  0  0  0
    5.1031    3.1272    0.0000 C   0  0  0  0  0  0  0  0  0  0  0  0
    6.1365    5.5628    0.0000 C   0  0  1  0  0  0  0  0  0  0  0  0
    5.4104    2.1757    0.0000 C   0  0  0  0  0  0  0  0  0  0  0  0
    5.8292    6.5144    0.0000 C   0  0  0  0  0  0  0  0  0  0  0  0
    6.4934   -3.1932    0.0000 H   0  0  0  0  0  0  0  0  0  0  0  0
    5.8463   -1.8612    0.0000 H   0  0  0  0  0  0  0  0  0  0  0  0
    5.4266   -4.2203    0.0000 H   0  0  0  0  0  0  0  0  0  0  0  0
    4.3795   -2.0650    0.0000 H   0  0  0  0  0  0  0  0  0  0  0  0
    4.3035   -0.7223    0.0000 H   0  0  0  0  0  0  0  0  0  0  0  0
    4.1364   -1.5016    0.0000 H   0  0  0  0  0  0  0  0  0  0  0  0
    7.3154   -3.8117    0.0000 H   0  0  0  0  0  0  0  0  0  0  0  0
    7.3182   -2.1405    0.0000 H   0  0  0  0  0  0  0  0  0  0  0  0
    5.8819   -5.5364    0.0000 H   0  0  0  0  0  0  0  0  0  0  0  0
    1.4631   -4.7264    0.0000 H   0  0  0  0  0  0  0  0  0  0  0  0
    6.1544    3.3800    0.0000 H   0  0  0  0  0  0  0  0  0  0  0  0
    6.3214    4.1594    0.0000 H   0  0  0  0  0  0  0  0  0  0  0  0
    5.0853    5.3101    0.0000 H   0  0  0  0  0  0  0  0  0  0  0  0
    4.9182    4.5307    0.0000 H   0  0  0  0  0  0  0  0  0  0  0  0
    4.7222    3.6165    0.0000 H   0  0  0  0  0  0  0  0  0  0  0  0
    4.5552    2.8371    0.0000 H   0  0  0  0  0  0  0  0  0  0  0  0
    6.3271    4.9728    0.0000 H   0  0  0  0  0  0  0  0  0  0  0  0
    2.3291   -7.8464    0.0000 H   0  0  0  0  0  0  0  0  0  0  0  0
    3.4030   -7.8464    0.0000 H   0  0  0  0  0  0  0  0  0  0  0  0
    6.4590    0.3738    0.0000 H   0  0  0  0  0  0  0  0  0  0  0  0
    7.5300    5.8132    0.0000 H   0  0  0  0  0  0  0  0  0  0  0  0
    7.3049    4.7632    0.0000 H   0  0  0  0  0  0  0  0  0  0  0  0
    6.3090    7.8464    0.0000 H   0  0  0  0  0  0  0  0  0  0  0  0
  1  5  1  0  0  0  0
  1  6  1  0  0  0  0
  1  7  1  0  0  0  0
  1  8  2  0  0  0  0
  2 20  1  0  0  0  0
  2 21  1  0  0  0  0
 18  3  1  1  0  0  0
  3 40  1  0  0  0  0
 19  4  1  1  0  0  0
  4 41  1  0  0  0  0
  5 22  1  0  0  0  0
  6 32  1  0  0  0  0
  7 53  1  0  0  0  0
  9 32  2  0  0  0  0
 10 33  1  0  0  0  0
 10 56  1  0  0  0  0
 11 33  2  0  0  0  0
 20 12  1  6  0  0  0
 12 23  1  0  0  0  0
 12 24  1  0  0  0  0
 13 24  2  0  0  0  0
 13 25  1  0  0  0  0
 14 23  1  0  0  0  0
 14 27  2  0  0  0  0
 15 26  2  0  0  0  0
 15 27  1  0  0  0  0
 16 26  1  0  0  0  0
 16 51  1  0  0  0  0
 16 52  1  0  0  0  0
 31 17  1  1  0  0  0
 17 54  1  0  0  0  0
 17 55  1  0  0  0  0
 18 19  1  0  0  0  0
 18 20  1  0  0  0  0
 18 34  1  0  0  0  0
 19 21  1  0  0  0  0
 19 35  1  0  0  0  0
 20 36  1  0  0  0  0
 21 22  1  6  0  0  0
 21 37  1  0  0  0  0
 22 38  1  0  0  0  0
 22 39  1  0  0  0  0
 23 25  2  0  0  0  0
 24 42  1  0  0  0  0
 25 26  1  0  0  0  0
 27 43  1  0  0  0  0
 28 29  1  0  0  0  0
 28 30  1  0  0  0  0
 28 44  1  0  0  0  0
 28 45  1  0  0  0  0
 29 31  1  0  0  0  0
 29 46  1  0  0  0  0
 29 47  1  0  0  0  0
 30 32  1  0  0  0  0
 30 48  1  0  0  0  0
 30 49  1  0  0  0  0
 31 33  1  0  0  0  0
 31 50  1  0  0  0  0
M  END
> <PUBCHEM_COMPOUND_CID>
440724

> <PUBCHEM_COMPOUND_CANONICALIZED>
1

> <PUBCHEM_CACTVS_COMPLEXITY>
763

> <PUBCHEM_CACTVS_HBOND_ACCEPTOR>
15

> <PUBCHEM_CACTVS_HBOND_DONOR>
6

> <PUBCHEM_CACTVS_ROTATABLE_BOND>
11

> <PUBCHEM_CACTVS_SUBSKEYS>
AAADceB7vAIAAAAAAAAAAAAAAAAAAWJAAAAsAAAAAAAAAFgB+AAAHgAQCCAACDzhlwYF+L9MFxCoQQbxbICAgC0REKABUKGoVBCDWBJAyEAeRAgPEALTACH4eQMQAAAAAAAAAAAAAAAAAAAAAAAAAAAAAA==

> <PUBCHEM_IUPAC_OPENEYE_NAME>
(2S)-2-amino-6-[[(2R,3S,4R,5R)-5-(6-aminopurin-9-yl)-3,4-dihydroxy-tetrahydrofuran-2-yl]methoxy-hydroxy-phosphoryl]oxy-6-oxo-hexanoic acid

> <PUBCHEM_IUPAC_CAS_NAME>
(2S)-2-amino-6-[[(2R,3S,4R,5R)-5-(6-aminopurin-9-yl)-3,4-dihydroxy-2-oxolanyl]methoxy-hydroxyphosphoryl]oxy-6-oxohexanoic acid

> <PUBCHEM_IUPAC_NAME>
(2S)-2-amino-6-[[(2R,3S,4R,5R)-5-(6-aminopurin-9-yl)-3,4-dihydroxyoxolan-2-yl]methoxy-hydroxyphosphoryl]oxy-6-oxohexanoic acid

> <PUBCHEM_IUPAC_SYSTEMATIC_NAME>
(2S)-6-[[(2R,3S,4R,5R)-5-(6-aminopurin-9-yl)-3,4-bis(oxidanyl)oxolan-2-yl]methoxy-oxidanyl-phosphoryl]oxy-2-azanyl-6-oxidanylidene-hexanoic acid

> <PUBCHEM_IUPAC_TRADITIONAL_NAME>
(2S)-6-[[(2R,3S,4R,5R)-5-adenin-9-yl-3,4-dihydroxy-tetrahydrofuran-2-yl]methoxy-hydroxy-phosphoryl]oxy-2-amino-6-keto-hexanoic acid

> <PUBCHEM_IUPAC_INCHI>
InChI=1S/C16H23N6O10P/c17-7(16(26)27)2-1-3-9(23)32-33(28,29)30-4-8-11(24)12(25)15(31-8)22-6-21-10-13(18)19-5-20-14(10)22/h5-8,11-12,15,24-25H,1-4,17H2,(H,26,27)(H,28,29)(H2,18,19,20)/t7-,8+,11+,12+,15+/m0/s1

> <PUBCHEM_IUPAC_INCHIKEY>
POJWEBKSMOTPNS-SBZSCLMQSA-N

> <PUBCHEM_XLOGP3>
-5.9

> <PUBCHEM_EXACT_MASS>
490.121328

> <PUBCHEM_MOLECULAR_FORMULA>
C16H23N6O10P

> <PUBCHEM_MOLECULAR_WEIGHT>
490.361782

> <PUBCHEM_OPENEYE_CAN_SMILES>
C1=NC2=C(C(=N1)N)N=CN2C3C(C(C(O3)COP(=O)(O)OC(=O)CCCC(C(=O)O)N)O)O

> <PUBCHEM_OPENEYE_ISO_SMILES>
C1=NC2=C(C(=N1)N)N=CN2[C@H]3[C@@H]([C@@H]([C@H](O3)COP(=O)(O)OC(=O)CCC[C@@H](C(=O)O)N)O)O

> <PUBCHEM_CACTVS_TPSA>
256

> <PUBCHEM_MONOISOTOPIC_WEIGHT>
490.121328

> <PUBCHEM_TOTAL_CHARGE>
0

> <PUBCHEM_HEAVY_ATOM_COUNT>
33

> <PUBCHEM_ATOM_DEF_STEREO_COUNT>
5

> <PUBCHEM_ATOM_UDEF_STEREO_COUNT>
0

> <PUBCHEM_BOND_DEF_STEREO_COUNT>
0

> <PUBCHEM_BOND_UDEF_STEREO_COUNT>
0

> <PUBCHEM_ISOTOPIC_ATOM_COUNT>
0

> <PUBCHEM_COMPONENT_COUNT>
1

> <PUBCHEM_CACTVS_TAUTO_COUNT>
3

> <PUBCHEM_COORDINATE_TYPE>
1
5
255

> <PUBCHEM_BONDANNOTATIONS>
20  12  6
12  23  8
12  24  8
13  24  8
13  25  8
14  23  8
14  27  8
15  26  8
15  27  8
31  17  5
21  22  6
23  25  8
25  26  8
18  3  5
19  4  5

$$$$

