17396107
  -OEChem-06241222542D

 44 45  0     0  0  0  0  0  0999 V2000
    2.0000   -1.7500    0.0000 Br  0  0  0  0  0  0  0  0  0  0  0  0
    3.7320    1.2500    0.0000 F   0  0  0  0  0  0  0  0  0  0  0  0
   10.6603    1.2500    0.0000 O   0  0  0  0  0  0  0  0  0  0  0  0
    5.4641    0.2500    0.0000 O   0  0  0  0  0  0  0  0  0  0  0  0
   12.3923    0.2500    0.0000 O   0  0  0  0  0  0  0  0  0  0  0  0
    7.1962    1.2500    0.0000 O   0  0  0  0  0  0  0  0  0  0  0  0
    8.0622   -0.2500    0.0000 N   0  0  0  0  0  0  0  0  0  0  0  0
    8.9282    0.2500    0.0000 C   0  0  0  0  0  0  0  0  0  0  0  0
    9.7942   -0.2500    0.0000 C   0  0  0  0  0  0  0  0  0  0  0  0
   10.6603    0.2500    0.0000 C   0  0  0  0  0  0  0  0  0  0  0  0
    9.7942   -1.2500    0.0000 C   0  0  0  0  0  0  0  0  0  0  0  0
    7.1962    0.2500    0.0000 C   0  0  0  0  0  0  0  0  0  0  0  0
   11.5263   -0.2500    0.0000 C   0  0  0  0  0  0  0  0  0  0  0  0
    8.0622   -1.2500    0.0000 C   0  0  0  0  0  0  0  0  0  0  0  0
    6.3301   -0.2500    0.0000 C   0  0  0  0  0  0  0  0  0  0  0  0
   10.6603   -1.7500    0.0000 C   0  0  0  0  0  0  0  0  0  0  0  0
   11.5263   -1.2500    0.0000 C   0  0  0  0  0  0  0  0  0  0  0  0
    4.5981   -0.2500    0.0000 C   0  0  0  0  0  0  0  0  0  0  0  0
   11.5263    1.7500    0.0000 C   0  0  0  0  0  0  0  0  0  0  0  0
    3.7320    0.2500    0.0000 C   0  0  0  0  0  0  0  0  0  0  0  0
    4.5981   -1.2500    0.0000 C   0  0  0  0  0  0  0  0  0  0  0  0
   13.2583   -0.2500    0.0000 C   0  0  0  0  0  0  0  0  0  0  0  0
    2.8660   -0.2500    0.0000 C   0  0  0  0  0  0  0  0  0  0  0  0
    3.7320   -1.7500    0.0000 C   0  0  0  0  0  0  0  0  0  0  0  0
    2.8660   -1.2500    0.0000 C   0  0  0  0  0  0  0  0  0  0  0  0
    9.3267    0.7249    0.0000 H   0  0  0  0  0  0  0  0  0  0  0  0
    8.5297    0.7249    0.0000 H   0  0  0  0  0  0  0  0  0  0  0  0
    9.2573   -1.5600    0.0000 H   0  0  0  0  0  0  0  0  0  0  0  0
    7.4422   -1.2500    0.0000 H   0  0  0  0  0  0  0  0  0  0  0  0
    8.0622   -1.8700    0.0000 H   0  0  0  0  0  0  0  0  0  0  0  0
    8.6822   -1.2500    0.0000 H   0  0  0  0  0  0  0  0  0  0  0  0
    5.9316   -0.7249    0.0000 H   0  0  0  0  0  0  0  0  0  0  0  0
    6.7287   -0.7249    0.0000 H   0  0  0  0  0  0  0  0  0  0  0  0
   10.6603   -2.3700    0.0000 H   0  0  0  0  0  0  0  0  0  0  0  0
   12.0632   -1.5600    0.0000 H   0  0  0  0  0  0  0  0  0  0  0  0
   11.8363    1.2131    0.0000 H   0  0  0  0  0  0  0  0  0  0  0  0
   12.0632    2.0600    0.0000 H   0  0  0  0  0  0  0  0  0  0  0  0
   11.2163    2.2869    0.0000 H   0  0  0  0  0  0  0  0  0  0  0  0
    5.1350   -1.5600    0.0000 H   0  0  0  0  0  0  0  0  0  0  0  0
   12.9483   -0.7869    0.0000 H   0  0  0  0  0  0  0  0  0  0  0  0
   13.7953   -0.5600    0.0000 H   0  0  0  0  0  0  0  0  0  0  0  0
   13.5683    0.2869    0.0000 H   0  0  0  0  0  0  0  0  0  0  0  0
    2.3291    0.0600    0.0000 H   0  0  0  0  0  0  0  0  0  0  0  0
    3.7320   -2.3700    0.0000 H   0  0  0  0  0  0  0  0  0  0  0  0
  1 25  1  0  0  0  0
  2 20  1  0  0  0  0
  3 10  1  0  0  0  0
  3 19  1  0  0  0  0
  4 15  1  0  0  0  0
  4 18  1  0  0  0  0
  5 13  1  0  0  0  0
  5 22  1  0  0  0  0
  6 12  2  0  0  0  0
  7  8  1  0  0  0  0
  7 12  1  0  0  0  0
  7 14  1  0  0  0  0
  8  9  1  0  0  0  0
  8 26  1  0  0  0  0
  8 27  1  0  0  0  0
  9 10  2  0  0  0  0
  9 11  1  0  0  0  0
 10 13  1  0  0  0  0
 11 16  2  0  0  0  0
 11 28  1  0  0  0  0
 12 15  1  0  0  0  0
 13 17  2  0  0  0  0
 14 29  1  0  0  0  0
 14 30  1  0  0  0  0
 14 31  1  0  0  0  0
 15 32  1  0  0  0  0
 15 33  1  0  0  0  0
 16 17  1  0  0  0  0
 16 34  1  0  0  0  0
 17 35  1  0  0  0  0
 18 20  2  0  0  0  0
 18 21  1  0  0  0  0
 19 36  1  0  0  0  0
 19 37  1  0  0  0  0
 19 38  1  0  0  0  0
 20 23  1  0  0  0  0
 21 24  2  0  0  0  0
 21 39  1  0  0  0  0
 22 40  1  0  0  0  0
 22 41  1  0  0  0  0
 22 42  1  0  0  0  0
 23 25  2  0  0  0  0
 23 43  1  0  0  0  0
 24 25  1  0  0  0  0
 24 44  1  0  0  0  0
M  END
> <PUBCHEM_COMPOUND_CID>
17396107

> <PUBCHEM_COMPOUND_CANONICALIZED>
1

> <PUBCHEM_CACTVS_COMPLEXITY>
428

> <PUBCHEM_CACTVS_HBOND_ACCEPTOR>
5

> <PUBCHEM_CACTVS_HBOND_DONOR>
0

> <PUBCHEM_CACTVS_ROTATABLE_BOND>
7

> <PUBCHEM_CACTVS_SUBSKEYS>
AAADceB6OQAAEAAAAAAAAAAAAAAAAAAAAAAwYAAAAAAAAAABQAAAHwBAAAABrAThmA4yBoMABACIAiFSEAKCCAAgIAQIiABOjKgPJiKEsR+HOCrmxhGaqhewwDAOABABAAAIQAAAIAIAABCAAAAAAAAAAA==

> <PUBCHEM_IUPAC_OPENEYE_NAME>
2-(4-bromo-2-fluoro-phenoxy)-N-[(2,3-dimethoxyphenyl)methyl]-N-methyl-acetamide

> <PUBCHEM_IUPAC_CAS_NAME>
2-(4-bromo-2-fluorophenoxy)-N-[(2,3-dimethoxyphenyl)methyl]-N-methylacetamide

> <PUBCHEM_IUPAC_NAME>
2-(4-bromo-2-fluorophenoxy)-N-[(2,3-dimethoxyphenyl)methyl]-N-methylacetamide

> <PUBCHEM_IUPAC_SYSTEMATIC_NAME>
2-(4-bromanyl-2-fluoranyl-phenoxy)-N-[(2,3-dimethoxyphenyl)methyl]-N-methyl-ethanamide

> <PUBCHEM_IUPAC_TRADITIONAL_NAME>
2-(4-bromo-2-fluoro-phenoxy)-N-methyl-N-o-veratryl-acetamide

> <PUBCHEM_IUPAC_INCHI>
InChI=1S/C18H19BrFNO4/c1-21(10-12-5-4-6-16(23-2)18(12)24-3)17(22)11-25-15-8-7-13(19)9-14(15)20/h4-9H,10-11H2,1-3H3

> <PUBCHEM_IUPAC_INCHIKEY>
HKANNIMKZBMTJY-UHFFFAOYSA-N

> <PUBCHEM_XLOGP3_AA>
3.6

> <PUBCHEM_EXACT_MASS>
411.048148

> <PUBCHEM_MOLECULAR_FORMULA>
C18H19BrFNO4

> <PUBCHEM_MOLECULAR_WEIGHT>
412.250163

> <PUBCHEM_OPENEYE_CAN_SMILES>
CN(CC1=C(C(=CC=C1)OC)OC)C(=O)COC2=C(C=C(C=C2)Br)F

> <PUBCHEM_OPENEYE_ISO_SMILES>
CN(CC1=C(C(=CC=C1)OC)OC)C(=O)COC2=C(C=C(C=C2)Br)F

> <PUBCHEM_CACTVS_TPSA>
48

> <PUBCHEM_MONOISOTOPIC_WEIGHT>
411.048148

> <PUBCHEM_TOTAL_CHARGE>
0

> <PUBCHEM_HEAVY_ATOM_COUNT>
25

> <PUBCHEM_ATOM_DEF_STEREO_COUNT>
0

> <PUBCHEM_ATOM_UDEF_STEREO_COUNT>
0

> <PUBCHEM_BOND_DEF_STEREO_COUNT>
0

> <PUBCHEM_BOND_UDEF_STEREO_COUNT>
0

> <PUBCHEM_ISOTOPIC_ATOM_COUNT>
0

> <PUBCHEM_COMPONENT_COUNT>
1

> <PUBCHEM_CACTVS_TAUTO_COUNT>
1

> <PUBCHEM_COORDINATE_TYPE>
1
5
255

> <PUBCHEM_BONDANNOTATIONS>
10  13  8
11  16  8
13  17  8
16  17  8
18  20  8
18  21  8
20  23  8
21  24  8
23  25  8
24  25  8
9  10  8
9  11  8

$$$$

