15060933
  -OEChem-07051212592D

 64 66  0     1  0  0  0  0  0999 V2000
    5.1478   -1.1373    0.0000 O   0  0  0  0  0  0  0  0  0  0  0  0
    4.2818    1.3627    0.0000 O   0  0  0  0  0  0  0  0  0  0  0  0
    7.7459    1.3627    0.0000 O   0  0  0  0  0  0  0  0  0  0  0  0
    7.8458   -1.3961    0.0000 O   0  0  0  0  0  0  0  0  0  0  0  0
    6.2727    0.3968    0.0000 O   0  0  0  0  0  0  0  0  0  0  0  0
    6.0139   -2.6373    0.0000 O   0  0  0  0  0  0  0  0  0  0  0  0
    5.1478    2.8627    0.0000 O   0  0  0  0  0  0  0  0  0  0  0  0
    8.6119   -0.1373    0.0000 O   0  0  0  0  0  0  0  0  0  0  0  0
    2.6788   -1.8044    0.0000 N   0  0  3  0  0  0  0  0  0  0  0  0
    3.4158   -1.1373    0.0000 C   0  0  1  0  0  0  0  0  0  0  0  0
    4.2818   -1.6373    0.0000 C   0  0  1  0  0  0  0  0  0  0  0  0
    4.0726   -2.6091    0.0000 C   0  0  0  0  0  0  0  0  0  0  0  0
    3.0839   -2.7121    0.0000 C   0  0  0  0  0  0  0  0  0  0  0  0
    3.4158   -0.1373    0.0000 C   0  0  0  0  0  0  0  0  0  0  0  0
    2.0000   -1.0590    0.0000 C   0  0  0  0  0  0  0  0  0  0  0  0
    2.4076   -0.1369    0.0000 C   0  0  0  0  0  0  0  0  0  0  0  0
    4.2818    0.3627    0.0000 C   0  0  0  0  0  0  0  0  0  0  0  0
    6.8799   -1.1373    0.0000 C   0  0  2  0  0  0  0  0  0  0  0  0
    6.0139   -1.6373    0.0000 C   0  0  0  0  0  0  0  0  0  0  0  0
    6.0139    1.3627    0.0000 C   0  0  2  0  0  0  0  0  0  0  0  0
    7.3025   -2.0436    0.0000 C   0  0  0  0  0  0  0  0  0  0  0  0
    6.8799   -0.1373    0.0000 C   0  0  0  0  0  0  0  0  0  0  0  0
    6.8799    1.8627    0.0000 C   0  0  1  0  0  0  0  0  0  0  0  0
    5.3068    0.6556    0.0000 C   0  0  0  0  0  0  0  0  0  0  0  0
    5.1478    1.8627    0.0000 C   0  0  0  0  0  0  0  0  0  0  0  0
    7.7459    0.3627    0.0000 C   0  0  0  0  0  0  0  0  0  0  0  0
    6.7289   -2.8627    0.0000 C   0  0  0  0  0  0  0  0  0  0  0  0
    8.2987   -2.1307    0.0000 C   0  0  0  0  0  0  0  0  0  0  0  0
    6.8799    2.8627    0.0000 C   0  0  0  0  0  0  0  0  0  0  0  0
    5.5658   -0.3104    0.0000 C   0  0  0  0  0  0  0  0  0  0  0  0
    4.1960    0.9530    0.0000 C   0  0  0  0  0  0  0  0  0  0  0  0
    3.4158   -1.9873    0.0000 H   0  0  0  0  0  0  0  0  0  0  0  0
    4.9688   -2.1378    0.0000 H   0  0  0  0  0  0  0  0  0  0  0  0
    4.0717   -3.2291    0.0000 H   0  0  0  0  0  0  0  0  0  0  0  0
    4.6891   -2.6751    0.0000 H   0  0  0  0  0  0  0  0  0  0  0  0
    2.4943   -2.9039    0.0000 H   0  0  0  0  0  0  0  0  0  0  0  0
    3.2126   -3.3186    0.0000 H   0  0  0  0  0  0  0  0  0  0  0  0
    1.4730   -0.7323    0.0000 H   0  0  0  0  0  0  0  0  0  0  0  0
    1.6037   -1.5357    0.0000 H   0  0  0  0  0  0  0  0  0  0  0  0
    2.0694    0.3827    0.0000 H   0  0  0  0  0  0  0  0  0  0  0  0
    4.4939   -0.2199    0.0000 H   0  0  0  0  0  0  0  0  0  0  0  0
    4.8924    0.4704    0.0000 H   0  0  0  0  0  0  0  0  0  0  0  0
    7.6581   -1.5357    0.0000 H   0  0  0  0  0  0  0  0  0  0  0  0
    6.6678    0.4453    0.0000 H   0  0  0  0  0  0  0  0  0  0  0  0
    6.2693   -0.2449    0.0000 H   0  0  0  0  0  0  0  0  0  0  0  0
    7.4168    2.1727    0.0000 H   0  0  0  0  0  0  0  0  0  0  0  0
    5.1463    1.2544    0.0000 H   0  0  0  0  0  0  0  0  0  0  0  0
    6.2210   -2.5071    0.0000 H   0  0  0  0  0  0  0  0  0  0  0  0
    6.3733   -3.3706    0.0000 H   0  0  0  0  0  0  0  0  0  0  0  0
    7.2368   -3.2184    0.0000 H   0  0  0  0  0  0  0  0  0  0  0  0
    8.2447   -2.7484    0.0000 H   0  0  0  0  0  0  0  0  0  0  0  0
    8.9163   -2.1848    0.0000 H   0  0  0  0  0  0  0  0  0  0  0  0
    8.3527   -1.5131    0.0000 H   0  0  0  0  0  0  0  0  0  0  0  0
    8.2842   -0.9577    0.0000 H   0  0  0  0  0  0  0  0  0  0  0  0
    4.9670   -0.4709    0.0000 H   0  0  0  0  0  0  0  0  0  0  0  0
    5.7264   -0.9092    0.0000 H   0  0  0  0  0  0  0  0  0  0  0  0
    6.1647   -0.1498    0.0000 H   0  0  0  0  0  0  0  0  0  0  0  0
    4.3564    1.5519    0.0000 H   0  0  0  0  0  0  0  0  0  0  0  0
    3.5971    1.1134    0.0000 H   0  0  0  0  0  0  0  0  0  0  0  0
    4.0356    0.3541    0.0000 H   0  0  0  0  0  0  0  0  0  0  0  0
    7.4999    2.8627    0.0000 H   0  0  0  0  0  0  0  0  0  0  0  0
    6.8799    3.4827    0.0000 H   0  0  0  0  0  0  0  0  0  0  0  0
    6.2599    2.8627    0.0000 H   0  0  0  0  0  0  0  0  0  0  0  0
    6.8716    0.5573    0.0000 H   0  0  0  0  0  0  0  0  0  0  0  0
  1 11  1  0  0  0  0
  1 19  1  0  0  0  0
  2 17  1  0  0  0  0
  2 25  1  0  0  0  0
  3 23  1  0  0  0  0
  3 26  1  0  0  0  0
 18  4  1  1  0  0  0
  4 54  1  0  0  0  0
 20  5  1  6  0  0  0
  5 64  1  0  0  0  0
  6 19  2  0  0  0  0
  7 25  2  0  0  0  0
  8 26  2  0  0  0  0
  9 10  1  0  0  0  0
  9 13  1  0  0  0  0
  9 15  1  0  0  0  0
 10 11  1  0  0  0  0
 10 14  1  0  0  0  0
 10 32  1  1  0  0  0
 11 12  1  0  0  0  0
 11 33  1  1  0  0  0
 12 13  1  0  0  0  0
 12 34  1  0  0  0  0
 12 35  1  0  0  0  0
 13 36  1  0  0  0  0
 13 37  1  0  0  0  0
 14 16  2  0  0  0  0
 14 17  1  0  0  0  0
 15 16  1  0  0  0  0
 15 38  1  0  0  0  0
 15 39  1  0  0  0  0
 16 40  1  0  0  0  0
 17 41  1  0  0  0  0
 17 42  1  0  0  0  0
 18 19  1  0  0  0  0
 18 21  1  0  0  0  0
 18 22  1  0  0  0  0
 20 23  1  0  0  0  0
 20 24  1  0  0  0  0
 20 25  1  0  0  0  0
 21 27  1  0  0  0  0
 21 28  1  0  0  0  0
 21 43  1  0  0  0  0
 22 26  1  0  0  0  0
 22 44  1  0  0  0  0
 22 45  1  0  0  0  0
 23 29  1  1  0  0  0
 23 46  1  0  0  0  0
 24 30  1  0  0  0  0
 24 31  1  0  0  0  0
 24 47  1  0  0  0  0
 27 48  1  0  0  0  0
 27 49  1  0  0  0  0
 27 50  1  0  0  0  0
 28 51  1  0  0  0  0
 28 52  1  0  0  0  0
 28 53  1  0  0  0  0
 29 61  1  0  0  0  0
 29 62  1  0  0  0  0
 29 63  1  0  0  0  0
 30 55  1  0  0  0  0
 30 56  1  0  0  0  0
 30 57  1  0  0  0  0
 31 58  1  0  0  0  0
 31 59  1  0  0  0  0
 31 60  1  0  0  0  0
M  END
> <PUBCHEM_COMPOUND_CID>
15060933

> <PUBCHEM_COMPOUND_CANONICALIZED>
1

> <PUBCHEM_CACTVS_COMPLEXITY>
778

> <PUBCHEM_CACTVS_HBOND_ACCEPTOR>
9

> <PUBCHEM_CACTVS_HBOND_DONOR>
2

> <PUBCHEM_CACTVS_ROTATABLE_BOND>
2

> <PUBCHEM_CACTVS_SUBSKEYS>
AAADcfB6PAAAAAAAAAAAAAAAAAAAAWIAAAAAAAAAAAAQAAAAAAAAHgAACAAADXzhgAYCCAMABgCIAiDSCAKAAAAgAAAACAFIAAgDBBYAoQAHUAAH4ACbIAPbQAAOgAAAAAAAAAAAAAAAAAAAAAAAAAAAAA==

> <PUBCHEM_IUPAC_INCHI>
InChI=1S/C22H33NO8/c1-12(2)21(27)10-17(24)30-14(5)22(28,13(3)4)20(26)29-11-15-6-8-23-9-7-16(18(15)23)31-19(21)25/h6,12-14,16,18,27-28H,7-11H2,1-5H3/t14-,16-,18-,21+,22+/m1/s1

> <PUBCHEM_IUPAC_INCHIKEY>
MPPSDVYCCOJJIB-QCNRXRGQSA-N

> <PUBCHEM_XLOGP3_AA>
1

> <PUBCHEM_EXACT_MASS>
439.220617

> <PUBCHEM_MOLECULAR_FORMULA>
C22H33NO8

> <PUBCHEM_MOLECULAR_WEIGHT>
439.49932

> <PUBCHEM_OPENEYE_CAN_SMILES>
CC1C(C(=O)OCC2=CCN3C2C(CC3)OC(=O)C(CC(=O)O1)(C(C)C)O)(C(C)C)O

> <PUBCHEM_OPENEYE_ISO_SMILES>
C[C@@H]1[C@](C(=O)OCC2=CCN3[C@H]2[C@@H](CC3)OC(=O)[C@](CC(=O)O1)(C(C)C)O)(C(C)C)O

> <PUBCHEM_CACTVS_TPSA>
123

> <PUBCHEM_MONOISOTOPIC_WEIGHT>
439.220617

> <PUBCHEM_TOTAL_CHARGE>
0

> <PUBCHEM_HEAVY_ATOM_COUNT>
31

> <PUBCHEM_ATOM_DEF_STEREO_COUNT>
5

> <PUBCHEM_ATOM_UDEF_STEREO_COUNT>
0

> <PUBCHEM_BOND_DEF_STEREO_COUNT>
0

> <PUBCHEM_BOND_UDEF_STEREO_COUNT>
0

> <PUBCHEM_ISOTOPIC_ATOM_COUNT>
0

> <PUBCHEM_COMPONENT_COUNT>
1

> <PUBCHEM_CACTVS_TAUTO_COUNT>
2

> <PUBCHEM_COORDINATE_TYPE>
1
5
255

> <PUBCHEM_BONDANNOTATIONS>
10  32  5
11  33  5
23  29  5
18  4  5
20  5  6

$$$$

