5459832
  -OEChem-07051212493D

 22 21  0     1  0  0  0  0  0999 V2000
   -1.3895    2.0305   -0.1175 O   0  0  0  0  0  0  0  0  0  0  0  0
   -2.9736   -0.0446   -1.2762 O   0  0  0  0  0  0  0  0  0  0  0  0
   -3.2207   -1.7098    0.9348 O   0  0  0  0  0  0  0  0  0  0  0  0
    0.8606    1.3301    1.0596 O   0  0  0  0  0  0  0  0  0  0  0  0
    3.5065   -1.5513   -0.5175 O   0  0  0  0  0  0  0  0  0  0  0  0
    3.4029    0.5264    0.3891 O   0  0  0  0  0  0  0  0  0  0  0  0
   -0.8070    0.8307   -0.6074 C   0  0  2  0  0  0  0  0  0  0  0  0
   -1.8137   -0.3248   -0.4983 C   0  0  1  0  0  0  0  0  0  0  0  0
   -2.2662   -0.6615    0.9232 C   0  0  0  0  0  0  0  0  0  0  0  0
    0.5057    0.5922    0.1398 C   0  0  0  0  0  0  0  0  0  0  0  0
    1.3542   -0.5787   -0.3221 C   0  0  0  0  0  0  0  0  0  0  0  0
    2.8408   -0.4392   -0.1075 C   0  0  0  0  0  0  0  0  0  0  0  0
   -0.5686    1.0108   -1.6622 H   0  0  0  0  0  0  0  0  0  0  0  0
   -1.3751   -1.2327   -0.9300 H   0  0  0  0  0  0  0  0  0  0  0  0
   -1.4189   -0.9679    1.5437 H   0  0  0  0  0  0  0  0  0  0  0  0
   -2.7376    0.2069    1.3957 H   0  0  0  0  0  0  0  0  0  0  0  0
    1.1975   -0.7075   -1.3986 H   0  0  0  0  0  0  0  0  0  0  0  0
    1.0038   -1.4690    0.2097 H   0  0  0  0  0  0  0  0  0  0  0  0
   -0.7829    2.7601   -0.3311 H   0  0  0  0  0  0  0  0  0  0  0  0
   -2.6821    0.1266   -2.1879 H   0  0  0  0  0  0  0  0  0  0  0  0
   -3.9553   -1.4416    0.3569 H   0  0  0  0  0  0  0  0  0  0  0  0
    4.4734   -1.4730   -0.3710 H   0  0  0  0  0  0  0  0  0  0  0  0
  1  7  1  0  0  0  0
  1 19  1  0  0  0  0
  2  8  1  0  0  0  0
  2 20  1  0  0  0  0
  3  9  1  0  0  0  0
  3 21  1  0  0  0  0
  4 10  2  0  0  0  0
  5 12  1  0  0  0  0
  5 22  1  0  0  0  0
  6 12  2  0  0  0  0
  7  8  1  0  0  0  0
  7 10  1  0  0  0  0
  7 13  1  0  0  0  0
  8  9  1  0  0  0  0
  8 14  1  0  0  0  0
  9 15  1  0  0  0  0
  9 16  1  0  0  0  0
 10 11  1  0  0  0  0
 11 12  1  0  0  0  0
 11 17  1  0  0  0  0
 11 18  1  0  0  0  0
M  END
> <PUBCHEM_COMPOUND_CID>
5459832

> <PUBCHEM_CONFORMER_RMSD>
0.6

> <PUBCHEM_CONFORMER_DIVERSEORDER>
1
193
112
232
115
223
217
80
212
48
192
40
153
214
181
166
213
177
191
118
144
78
133
124
234
64
211
30
187
32
215
24
128
132
208
108
198
235
58
16
171
202
46
69
224
201
165
27
207
148
4
36
230
41
179
119
168
37
229
142
131
31
225
196
20
170
96
111
76
70
204
81
98
91
154
9
164
83
38
109
190
199
88
26
34
227
226
218
175
67
161
134
35
5
127
169
19
97
189
172
29
123
3
135
99
56
138
10
163
117
216
103
8
233
7
107
82
156
210
57
200
178
184
110
125
59
39
47
197
203
18
180
105
185
33
137
61
195
159
71
13
106
25
219
11
206
150
89
140
28
77
194
222
85
94
114
60
54
51
100
75
129
73
228
6
183
146
160
21
158
86
220
74
147
120
145
182
151
45
14
116
93
176
66
92
95
55
149
65
44
72
22
68
136
43
141
143
15
209
62
113
231
152
49
23
221
42
90
167
17
53
186
121
104
87
79
173
12
84
126
205
157
102
155
2
130
50
52
174
63
139
101
188
162
122

> <PUBCHEM_MMFF94_PARTIAL_CHARGES>
16
1 -0.68
10 0.45
11 0.12
12 0.66
19 0.4
2 -0.68
20 0.4
21 0.4
22 0.5
3 -0.68
4 -0.57
5 -0.65
6 -0.57
7 0.34
8 0.28
9 0.28

> <PUBCHEM_EFFECTIVE_ROTOR_COUNT>
5

> <PUBCHEM_PHARMACOPHORE_FEATURES>
11
1 1 acceptor
1 1 donor
1 11 anion
1 2 acceptor
1 2 donor
1 3 acceptor
1 3 donor
1 4 acceptor
1 5 acceptor
1 6 acceptor
3 5 6 12 anion

> <PUBCHEM_HEAVY_ATOM_COUNT>
12

> <PUBCHEM_ATOM_DEF_STEREO_COUNT>
2

> <PUBCHEM_ATOM_UDEF_STEREO_COUNT>
0

> <PUBCHEM_BOND_DEF_STEREO_COUNT>
0

> <PUBCHEM_BOND_UDEF_STEREO_COUNT>
0

> <PUBCHEM_ISOTOPIC_ATOM_COUNT>
0

> <PUBCHEM_COMPONENT_COUNT>
1

> <PUBCHEM_CACTVS_TAUTO_COUNT>
15

> <PUBCHEM_CONFORMER_ID>
00534F7800000001

> <PUBCHEM_MMFF94_ENERGY>
13.7405

> <PUBCHEM_FEATURE_SELFOVERLAP>
56.167

> <PUBCHEM_SHAPE_FINGERPRINT>
11127187 94 18060700598091324407
12897270 3 17989208174367428462
12932764 1 17676210173719123228
13296908 3 18413387639944782670
17834069 15 7637405120627636804
17844478 74 18409725149411258032
20201158 50 18410860979277506582
20279233 1 18341339932874064902
20281407 28 18411131424672550130
20645477 70 18114190782104569534
20711983 138 18413110558914599881
20711985 344 18198640997516631549
21061003 4 17821726156609215480
25610 137 18341041913788968084
3248919 1 18272374200093570188
528716 315 17846491556344560446

> <PUBCHEM_SHAPE_MULTIPOLES>
211.74
5.61
1.57
1
2.25
0.18
0.01
-2.57
-0.07
-0.41
0.21
-0.55
-0.04
0.87

> <PUBCHEM_SHAPE_SELFOVERLAP>
406.732

> <PUBCHEM_SHAPE_VOLUME>
127.9

> <PUBCHEM_COORDINATE_TYPE>
2
5
10

$$$$

