46173967
  -OEChem-07051213103D

 57 60  0     1  0  0  0  0  0999 V2000
   -0.6797   -0.8676   -1.0975 O   0  0  0  0  0  0  0  0  0  0  0  0
   -2.1441    1.7415    1.1484 O   0  0  0  0  0  0  0  0  0  0  0  0
    0.5150    2.1436    1.9456 O   0  0  0  0  0  0  0  0  0  0  0  0
   -0.2672   -0.2158    2.4903 O   0  0  0  0  0  0  0  0  0  0  0  0
   -1.8930   -2.5306    0.8136 O   0  0  0  0  0  0  0  0  0  0  0  0
    0.6403   -0.7483   -2.9217 O   0  0  0  0  0  0  0  0  0  0  0  0
    3.3105   -0.9391   -2.0994 O   0  0  0  0  0  0  0  0  0  0  0  0
   -1.1262   -0.3023    0.1739 C   0  0  2  0  0  0  0  0  0  0  0  0
   -0.2578    1.8114   -0.3895 C   0  0  1  0  0  0  0  0  0  0  0  0
   -1.6164    1.1461   -0.0461 C   0  0  2  0  0  0  0  0  0  0  0  0
    0.6458    1.2926    0.7992 C   0  0  2  0  0  0  0  0  0  0  0  0
    0.1129   -0.1510    1.1178 C   0  0  1  0  0  0  0  0  0  0  0  0
   -2.3013   -1.1725    0.6709 C   0  0  1  0  0  0  0  0  0  0  0  0
   -2.7546    1.2047   -1.0746 C   0  0  0  0  0  0  0  0  0  0  0  0
    2.1549    1.1649    0.5571 C   0  0  0  0  0  0  0  0  0  0  0  0
    0.1954    1.3003   -1.7726 C   0  0  0  0  0  0  0  0  0  0  0  0
    1.3223   -1.0305    0.8840 C   0  0  0  0  0  0  0  0  0  0  0  0
   -3.4829   -1.1378   -0.3315 C   0  0  2  0  0  0  0  0  0  0  0  0
   -0.3299    3.3452   -0.4385 C   0  0  0  0  0  0  0  0  0  0  0  0
    2.4136   -0.3117    0.5708 C   0  0  0  0  0  0  0  0  0  0  0  0
   -3.9219    0.3071   -0.6398 C   0  0  0  0  0  0  0  0  0  0  0  0
    0.0996   -0.1894   -1.9712 C   0  0  0  0  0  0  0  0  0  0  0  0
    3.7941   -0.7847    0.2625 C   0  0  1  0  0  0  0  0  0  0  0  0
    1.2444   -2.5140    1.0291 C   0  0  0  0  0  0  0  0  0  0  0  0
   -4.6769   -1.9469    0.1860 C   0  0  0  0  0  0  0  0  0  0  0  0
    4.2223   -0.3881   -1.1561 C   0  0  0  0  0  0  0  0  0  0  0  0
    4.7807   -0.2268    1.2894 C   0  0  0  0  0  0  0  0  0  0  0  0
   -2.6582   -0.8261    1.6487 H   0  0  0  0  0  0  0  0  0  0  0  0
   -3.1256    2.2312   -1.1807 H   0  0  0  0  0  0  0  0  0  0  0  0
   -2.4341    0.8816   -2.0696 H   0  0  0  0  0  0  0  0  0  0  0  0
    2.4689    1.6405   -0.3717 H   0  0  0  0  0  0  0  0  0  0  0  0
    2.7259    1.6428    1.3623 H   0  0  0  0  0  0  0  0  0  0  0  0
   -0.4247    1.7531   -2.5569 H   0  0  0  0  0  0  0  0  0  0  0  0
    1.2221    1.6068   -1.9919 H   0  0  0  0  0  0  0  0  0  0  0  0
   -3.1654   -1.6134   -1.2695 H   0  0  0  0  0  0  0  0  0  0  0  0
   -0.7036    3.7882    0.4895 H   0  0  0  0  0  0  0  0  0  0  0  0
   -0.9943    3.6818   -1.2421 H   0  0  0  0  0  0  0  0  0  0  0  0
    0.6616    3.7708   -0.6297 H   0  0  0  0  0  0  0  0  0  0  0  0
   -4.6803    0.3012   -1.4323 H   0  0  0  0  0  0  0  0  0  0  0  0
   -4.4037    0.7423    0.2451 H   0  0  0  0  0  0  0  0  0  0  0  0
   -2.5031    2.6164    0.9245 H   0  0  0  0  0  0  0  0  0  0  0  0
    0.9764    2.9789    1.7596 H   0  0  0  0  0  0  0  0  0  0  0  0
   -0.5297   -1.1270    2.6978 H   0  0  0  0  0  0  0  0  0  0  0  0
    3.8371   -1.8769    0.3188 H   0  0  0  0  0  0  0  0  0  0  0  0
    0.8154   -2.7840    1.9984 H   0  0  0  0  0  0  0  0  0  0  0  0
    2.2196   -3.0030    0.9776 H   0  0  0  0  0  0  0  0  0  0  0  0
    0.6271   -2.9450    0.2363 H   0  0  0  0  0  0  0  0  0  0  0  0
   -5.0382   -1.5523    1.1417 H   0  0  0  0  0  0  0  0  0  0  0  0
   -4.4099   -2.9984    0.3322 H   0  0  0  0  0  0  0  0  0  0  0  0
   -5.5060   -1.9134   -0.5289 H   0  0  0  0  0  0  0  0  0  0  0  0
   -1.4219   -2.6096    1.6587 H   0  0  0  0  0  0  0  0  0  0  0  0
    5.2173   -0.7918   -1.3745 H   0  0  0  0  0  0  0  0  0  0  0  0
    4.2633    0.6967   -1.2966 H   0  0  0  0  0  0  0  0  0  0  0  0
    5.7691   -0.6785    1.1472 H   0  0  0  0  0  0  0  0  0  0  0  0
    4.4604   -0.4525    2.3128 H   0  0  0  0  0  0  0  0  0  0  0  0
    4.9061    0.8577    1.1999 H   0  0  0  0  0  0  0  0  0  0  0  0
    3.6164   -0.6702   -2.9823 H   0  0  0  0  0  0  0  0  0  0  0  0
  1  8  1  0  0  0  0
  1 22  1  0  0  0  0
  2 10  1  0  0  0  0
  2 41  1  0  0  0  0
  3 11  1  0  0  0  0
  3 42  1  0  0  0  0
  4 12  1  0  0  0  0
  4 43  1  0  0  0  0
  5 13  1  0  0  0  0
  5 51  1  0  0  0  0
  6 22  2  0  0  0  0
  7 26  1  0  0  0  0
  7 57  1  0  0  0  0
  8 10  1  0  0  0  0
  8 12  1  0  0  0  0
  8 13  1  0  0  0  0
  9 10  1  0  0  0  0
  9 11  1  0  0  0  0
  9 16  1  0  0  0  0
  9 19  1  0  0  0  0
 10 14  1  0  0  0  0
 11 12  1  0  0  0  0
 11 15  1  0  0  0  0
 12 17  1  0  0  0  0
 13 18  1  0  0  0  0
 13 28  1  0  0  0  0
 14 21  1  0  0  0  0
 14 29  1  0  0  0  0
 14 30  1  0  0  0  0
 15 20  1  0  0  0  0
 15 31  1  0  0  0  0
 15 32  1  0  0  0  0
 16 22  1  0  0  0  0
 16 33  1  0  0  0  0
 16 34  1  0  0  0  0
 17 20  2  0  0  0  0
 17 24  1  0  0  0  0
 18 21  1  0  0  0  0
 18 25  1  0  0  0  0
 18 35  1  0  0  0  0
 19 36  1  0  0  0  0
 19 37  1  0  0  0  0
 19 38  1  0  0  0  0
 20 23  1  0  0  0  0
 21 39  1  0  0  0  0
 21 40  1  0  0  0  0
 23 26  1  0  0  0  0
 23 27  1  0  0  0  0
 23 44  1  0  0  0  0
 24 45  1  0  0  0  0
 24 46  1  0  0  0  0
 24 47  1  0  0  0  0
 25 48  1  0  0  0  0
 25 49  1  0  0  0  0
 25 50  1  0  0  0  0
 26 52  1  0  0  0  0
 26 53  1  0  0  0  0
 27 54  1  0  0  0  0
 27 55  1  0  0  0  0
 27 56  1  0  0  0  0
M  END
> <PUBCHEM_COMPOUND_CID>
46173967

> <PUBCHEM_CONFORMER_RMSD>
0.8

> <PUBCHEM_CONFORMER_DIVERSEORDER>
1
2

> <PUBCHEM_MMFF94_PARTIAL_CHARGES>
25
1 -0.43
10 0.28
11 0.28
12 0.42
13 0.28
15 0.14
16 0.06
17 -0.28
2 -0.68
20 -0.28
22 0.66
23 0.14
24 0.14
26 0.28
3 -0.68
4 -0.68
41 0.4
42 0.4
43 0.4
5 -0.68
51 0.4
57 0.4
6 -0.57
7 -0.68
8 0.28

> <PUBCHEM_EFFECTIVE_ROTOR_COUNT>
3.4

> <PUBCHEM_PHARMACOPHORE_FEATURES>
15
1 2 acceptor
1 2 donor
1 27 hydrophobe
1 3 acceptor
1 3 donor
1 4 acceptor
1 4 donor
1 5 acceptor
1 5 donor
1 6 acceptor
1 7 acceptor
1 7 donor
5 11 12 15 17 20 rings
6 8 10 13 14 18 21 rings
8 1 8 9 10 11 12 16 22 rings

> <PUBCHEM_HEAVY_ATOM_COUNT>
27

> <PUBCHEM_ATOM_DEF_STEREO_COUNT>
7

> <PUBCHEM_ATOM_UDEF_STEREO_COUNT>
1

> <PUBCHEM_BOND_DEF_STEREO_COUNT>
0

> <PUBCHEM_BOND_UDEF_STEREO_COUNT>
0

> <PUBCHEM_ISOTOPIC_ATOM_COUNT>
0

> <PUBCHEM_COMPONENT_COUNT>
1

> <PUBCHEM_CACTVS_TAUTO_COUNT>
2

> <PUBCHEM_CONFORMER_ID>
02C08F0F00000001

> <PUBCHEM_MMFF94_ENERGY>
111.9745

> <PUBCHEM_FEATURE_SELFOVERLAP>
76.364

> <PUBCHEM_SHAPE_FINGERPRINT>
10863032 1 18194693780541787433
10948715 1 9079118873060044043
11578080 2 17058120759794455340
11961588 58 12175342414619109963
12011746 2 18338529598581200303
12173636 292 17838067248724518036
12236239 1 17203612609748204319
12403814 3 17968112918660244524
12422481 6 5688496510909188190
13132413 78 18341899597451694645
13140716 1 18341898463311654280
14142880 1 16700345350063270228
14787075 74 18264493884298314480
14790565 3 17835807769678612509
16945 1 18270120248269394968
17349148 13 17417815092969014418
17492 54 16200142158559205966
1813 80 18335412439797400293
200 152 16773802527992729578
20600515 1 18262786398543291533
21330990 113 18272098218079422106
23402539 116 16415206719056869306
23419403 2 18116168696069829313
23559900 14 18341626866633071584
2748010 2 18197231264384484913
3286 77 18131082515091538034
465052 167 17896036547083678207
9981440 41 15547375105877450476

> <PUBCHEM_SHAPE_MULTIPOLES>
514.56
6.6
2.55
2
1.4
0.55
-0.74
-3.15
-0.7
-1.26
0.53
1.04
0.22
0.1

> <PUBCHEM_SHAPE_SELFOVERLAP>
1123.908

> <PUBCHEM_SHAPE_VOLUME>
279.3

> <PUBCHEM_COORDINATE_TYPE>
2
5
10

$$$$

