9548786
  -OEChem-07051213103D

 41 43  0     1  0  0  0  0  0999 V2000
   -0.0595    0.7548   -1.7154 O   0  5  0  0  0  0  0  0  0  0  0  0
   -4.2350    0.3942   -0.6154 O   0  0  0  0  0  0  0  0  0  0  0  0
    0.3119    0.1246   -0.5371 N   0  3  2  0  0  0  0  0  0  0  0  0
    1.6521   -0.6012   -0.7713 C   0  0  2  0  0  0  0  0  0  0  0  0
   -0.7866   -0.9036   -0.2002 C   0  0  1  0  0  0  0  0  0  0  0  0
    2.0421   -1.5364    0.4038 C   0  0  1  0  0  0  0  0  0  0  0  0
    0.4733    1.1820    0.5446 C   0  0  0  0  0  0  0  0  0  0  0  0
    2.7407    0.4260   -1.1353 C   0  0  0  0  0  0  0  0  0  0  0  0
    1.5859    2.1907    0.2320 C   0  0  2  0  0  0  0  0  0  0  0  0
   -0.3986   -1.8274    0.9648 C   0  0  0  0  0  0  0  0  0  0  0  0
    0.9179   -2.5382    0.6904 C   0  0  0  0  0  0  0  0  0  0  0  0
    2.9150    1.4872   -0.0547 C   0  0  0  0  0  0  0  0  0  0  0  0
    3.3369   -2.3106    0.1335 C   0  0  0  0  0  0  0  0  0  0  0  0
   -2.1991   -0.3530   -0.0742 C   0  0  0  0  0  0  0  0  0  0  0  0
    1.7398    3.1862    1.3804 C   0  0  0  0  0  0  0  0  0  0  0  0
   -2.8669   -0.0202    1.1191 C   0  0  0  0  0  0  0  0  0  0  0  0
   -3.0614   -0.0877   -1.1021 C   0  0  0  0  0  0  0  0  0  0  0  0
   -4.1085    0.4322    0.7371 C   0  0  0  0  0  0  0  0  0  0  0  0
    1.4663   -1.2184   -1.6620 H   0  0  0  0  0  0  0  0  0  0  0  0
   -0.8011   -1.5315   -1.1059 H   0  0  0  0  0  0  0  0  0  0  0  0
    2.1998   -0.9472    1.3146 H   0  0  0  0  0  0  0  0  0  0  0  0
    0.6613    0.6638    1.4881 H   0  0  0  0  0  0  0  0  0  0  0  0
   -0.4898    1.6990    0.6127 H   0  0  0  0  0  0  0  0  0  0  0  0
    2.4699    0.9256   -2.0745 H   0  0  0  0  0  0  0  0  0  0  0  0
    3.6985   -0.0647   -1.3338 H   0  0  0  0  0  0  0  0  0  0  0  0
    1.3016    2.7573   -0.6646 H   0  0  0  0  0  0  0  0  0  0  0  0
   -1.1791   -2.5836    1.1182 H   0  0  0  0  0  0  0  0  0  0  0  0
   -0.3223   -1.2689    1.9047 H   0  0  0  0  0  0  0  0  0  0  0  0
    1.1772   -3.1574    1.5577 H   0  0  0  0  0  0  0  0  0  0  0  0
    0.7956   -3.2213   -0.1599 H   0  0  0  0  0  0  0  0  0  0  0  0
    3.3137    1.0323    0.8595 H   0  0  0  0  0  0  0  0  0  0  0  0
    3.6587    2.2217   -0.3869 H   0  0  0  0  0  0  0  0  0  0  0  0
    3.2877   -2.8460   -0.8205 H   0  0  0  0  0  0  0  0  0  0  0  0
    4.2039   -1.6440    0.1107 H   0  0  0  0  0  0  0  0  0  0  0  0
    3.5232   -3.0460    0.9239 H   0  0  0  0  0  0  0  0  0  0  0  0
    0.8003    3.7194    1.5601 H   0  0  0  0  0  0  0  0  0  0  0  0
    2.0258    2.6815    2.3095 H   0  0  0  0  0  0  0  0  0  0  0  0
    2.5087    3.9308    1.1487 H   0  0  0  0  0  0  0  0  0  0  0  0
   -2.5053   -0.0899    2.1349 H   0  0  0  0  0  0  0  0  0  0  0  0
   -3.0048   -0.1790   -2.1771 H   0  0  0  0  0  0  0  0  0  0  0  0
   -4.9693    0.7988    1.2769 H   0  0  0  0  0  0  0  0  0  0  0  0
  1  3  1  0  0  0  0
  2 17  1  0  0  0  0
  2 18  1  0  0  0  0
  3  4  1  0  0  0  0
  3  5  1  0  0  0  0
  3  7  1  0  0  0  0
  4  6  1  0  0  0  0
  4  8  1  0  0  0  0
  4 19  1  0  0  0  0
  5 10  1  0  0  0  0
  5 14  1  0  0  0  0
  5 20  1  0  0  0  0
  6 11  1  0  0  0  0
  6 13  1  0  0  0  0
  6 21  1  0  0  0  0
  7  9  1  0  0  0  0
  7 22  1  0  0  0  0
  7 23  1  0  0  0  0
  8 12  1  0  0  0  0
  8 24  1  0  0  0  0
  8 25  1  0  0  0  0
  9 12  1  0  0  0  0
  9 15  1  0  0  0  0
  9 26  1  0  0  0  0
 10 11  1  0  0  0  0
 10 27  1  0  0  0  0
 10 28  1  0  0  0  0
 11 29  1  0  0  0  0
 11 30  1  0  0  0  0
 12 31  1  0  0  0  0
 12 32  1  0  0  0  0
 13 33  1  0  0  0  0
 13 34  1  0  0  0  0
 13 35  1  0  0  0  0
 14 16  1  0  0  0  0
 14 17  2  0  0  0  0
 15 36  1  0  0  0  0
 15 37  1  0  0  0  0
 15 38  1  0  0  0  0
 16 18  2  0  0  0  0
 16 39  1  0  0  0  0
 17 40  1  0  0  0  0
 18 41  1  0  0  0  0
M  CHG  2   1  -1   3   1
M  END
> <PUBCHEM_COMPOUND_CID>
9548786

> <PUBCHEM_CONFORMER_RMSD>
0.6

> <PUBCHEM_CONFORMER_DIVERSEORDER>
2
1
3
4

> <PUBCHEM_MMFF94_PARTIAL_CHARGES>
13
1 -0.75
14 -0.18
16 -0.15
17 -0.01
18 -0.01
2 -0.28
3 -0.02
39 0.15
4 0.26
40 0.15
41 0.15
5 0.44
7 0.26

> <PUBCHEM_EFFECTIVE_ROTOR_COUNT>
2.6

> <PUBCHEM_PHARMACOPHORE_FEATURES>
5
1 1 anion
1 2 acceptor
5 2 14 16 17 18 rings
6 3 4 5 6 10 11 rings
6 3 4 7 8 9 12 rings

> <PUBCHEM_HEAVY_ATOM_COUNT>
18

> <PUBCHEM_ATOM_DEF_STEREO_COUNT>
5

> <PUBCHEM_ATOM_UDEF_STEREO_COUNT>
0

> <PUBCHEM_BOND_DEF_STEREO_COUNT>
0

> <PUBCHEM_BOND_UDEF_STEREO_COUNT>
0

> <PUBCHEM_ISOTOPIC_ATOM_COUNT>
0

> <PUBCHEM_COMPONENT_COUNT>
1

> <PUBCHEM_CACTVS_TAUTO_COUNT>
1

> <PUBCHEM_CONFORMER_ID>
0091B3F200000002

> <PUBCHEM_MMFF94_ENERGY>
33.3397

> <PUBCHEM_FEATURE_SELFOVERLAP>
25.428

> <PUBCHEM_SHAPE_FINGERPRINT>
10165383 225 18056456401281912149
104564 63 17907855450508969310
10980938 120 18409729560231914190
11471102 20 18342458174775143079
12507560 14 18262805197531263438
12654215 9 18201442522799501638
12716301 132 17839457783378543560
13132413 78 18120652693308029817
13134695 92 18336554922673205982
13140716 1 18121501254645115416
13294875 104 18335991852824781888
13464514 151 18335129848351037392
14178342 30 17984986994361894299
15219456 202 17775562065858836479
15501101 241 18201998858461076335
15775835 57 18410568466566914343
15852999 172 17768838388608489606
16945 1 18408602552276269686
1813 80 17825661416152605670
18186145 218 18336256877812900557
18219364 16 18268696221813258313
19049666 15 17987806344471426613
192875 21 17967823798800041521
20511035 2 18128803162778435886
20645477 70 18340493360782311631
20671657 1 18335144158902304451
21029758 11 18339081622254144210
21041028 32 18192709162038100496
21524375 3 17754465555583514632
21639500 275 18410020922513516623
22112679 90 17898836109587482648
2255824 54 18333731295039919437
22854114 111 18412822486831179731
22892500 29 18409736148859731917
23419403 2 17125130633567161562
23493267 7 15697718224328906167
23559900 14 17704349987773005867
25 1 18337946797072652284
2748010 2 17906723714079194484
3286 77 18413108385666539799
350125 39 17981592784818768074
474 4 18190184473056433201
495365 180 18057911167425037533
53812653 166 18341888541920946966
5895379 119 16807273946775734161
7364860 26 18409451396859812906
7471813 234 18116735077801892045
74978 22 18333449824754061767
77492 1 17967252022599078055
81228 2 16829264359466535971
84936 182 18334297526475339017
9981440 41 17684387052394787680

> <PUBCHEM_SHAPE_MULTIPOLES>
353.71
6.05
2.83
1.26
5.75
0.62
0.14
0.45
0.25
-3.27
-1.33
0.16
0.27
0.17

> <PUBCHEM_SHAPE_SELFOVERLAP>
738.903

> <PUBCHEM_SHAPE_VOLUME>
201.7

> <PUBCHEM_COORDINATE_TYPE>
2
5
10

$$$$

