443353
  -OEChem-07051213022D

 47 49  0     1  0  0  0  0  0999 V2000
    6.0010    0.5000    0.0000 O   0  0  0  0  0  0  0  0  0  0  0  0
    5.1350    2.0000    0.0000 O   0  0  0  0  0  0  0  0  0  0  0  0
    5.1350   -1.0000    0.0000 O   0  0  0  0  0  0  0  0  0  0  0  0
    4.2690   -0.5000    0.0000 O   0  0  0  0  0  0  0  0  0  0  0  0
    2.5369    0.5000    0.0000 O   0  0  0  0  0  0  0  0  0  0  0  0
    2.5369    2.5000    0.0000 O   0  0  0  0  0  0  0  0  0  0  0  0
    5.1350    4.0000    0.0000 O   0  0  0  0  0  0  0  0  0  0  0  0
    5.1350   -4.0000    0.0000 O   0  0  0  0  0  0  0  0  0  0  0  0
    6.8671   -4.0000    0.0000 O   0  0  0  0  0  0  0  0  0  0  0  0
    6.8671   -1.0000    0.0000 C   0  0  2  0  0  0  0  0  0  0  0  0
    6.8671   -2.0000    0.0000 C   0  0  2  0  0  0  0  0  0  0  0  0
    6.0010   -0.5000    0.0000 C   0  0  2  0  0  0  0  0  0  0  0  0
    7.8133   -2.3047    0.0000 C   0  0  0  0  0  0  0  0  0  0  0  0
    7.8133   -0.6953    0.0000 C   0  0  0  0  0  0  0  0  0  0  0  0
    5.1350    1.0000    0.0000 C   0  0  2  0  0  0  0  0  0  0  0  0
    4.2690    0.5000    0.0000 C   0  0  1  0  0  0  0  0  0  0  0  0
    3.4030    1.0000    0.0000 C   0  0  2  0  0  0  0  0  0  0  0  0
    3.4030    2.0000    0.0000 C   0  0  1  0  0  0  0  0  0  0  0  0
    8.3969   -1.5000    0.0000 C   0  0  0  0  0  0  0  0  0  0  0  0
    6.0010   -2.5000    0.0000 C   0  0  0  0  0  0  0  0  0  0  0  0
    4.2690    2.5000    0.0000 C   0  0  1  0  0  0  0  0  0  0  0  0
    5.1350   -2.0000    0.0000 C   0  0  0  0  0  0  0  0  0  0  0  0
    8.1240    0.2553    0.0000 C   0  0  0  0  0  0  0  0  0  0  0  0
    4.2690    3.5000    0.0000 C   0  0  0  0  0  0  0  0  0  0  0  0
    6.0010   -3.5000    0.0000 C   0  0  0  0  0  0  0  0  0  0  0  0
    6.9570   -0.1548    0.0000 H   0  0  0  0  0  0  0  0  0  0  0  0
    6.9570   -2.8452    0.0000 H   0  0  0  0  0  0  0  0  0  0  0  0
    6.5380   -0.1900    0.0000 H   0  0  0  0  0  0  0  0  0  0  0  0
    7.5622   -2.8716    0.0000 H   0  0  0  0  0  0  0  0  0  0  0  0
    8.3507   -2.6140    0.0000 H   0  0  0  0  0  0  0  0  0  0  0  0
    5.1350    0.3800    0.0000 H   0  0  0  0  0  0  0  0  0  0  0  0
    4.8059    0.1900    0.0000 H   0  0  0  0  0  0  0  0  0  0  0  0
    3.4030    0.3800    0.0000 H   0  0  0  0  0  0  0  0  0  0  0  0
    3.4030    2.6200    0.0000 H   0  0  0  0  0  0  0  0  0  0  0  0
    9.0169   -1.5000    0.0000 H   0  0  0  0  0  0  0  0  0  0  0  0
    4.8059    2.8100    0.0000 H   0  0  0  0  0  0  0  0  0  0  0  0
    4.5981   -2.3100    0.0000 H   0  0  0  0  0  0  0  0  0  0  0  0
    8.7133    0.0626    0.0000 H   0  0  0  0  0  0  0  0  0  0  0  0
    8.3166    0.8446    0.0000 H   0  0  0  0  0  0  0  0  0  0  0  0
    7.5346    0.4479    0.0000 H   0  0  0  0  0  0  0  0  0  0  0  0
    4.0569    4.0826    0.0000 H   0  0  0  0  0  0  0  0  0  0  0  0
    3.6584    3.3923    0.0000 H   0  0  0  0  0  0  0  0  0  0  0  0
    3.7320   -0.8100    0.0000 H   0  0  0  0  0  0  0  0  0  0  0  0
    2.0000    0.8100    0.0000 H   0  0  0  0  0  0  0  0  0  0  0  0
    2.5369    3.1200    0.0000 H   0  0  0  0  0  0  0  0  0  0  0  0
    5.1350    4.6200    0.0000 H   0  0  0  0  0  0  0  0  0  0  0  0
    5.1350   -4.6200    0.0000 H   0  0  0  0  0  0  0  0  0  0  0  0
 12  1  1  1  0  0  0
 15  1  1  1  0  0  0
  2 15  1  0  0  0  0
  2 21  1  0  0  0  0
  3 12  1  0  0  0  0
  3 22  1  0  0  0  0
 16  4  1  6  0  0  0
  4 43  1  0  0  0  0
 17  5  1  1  0  0  0
  5 44  1  0  0  0  0
 18  6  1  6  0  0  0
  6 45  1  0  0  0  0
  7 24  1  0  0  0  0
  7 46  1  0  0  0  0
  8 25  1  0  0  0  0
  8 47  1  0  0  0  0
  9 25  2  0  0  0  0
 10 11  1  0  0  0  0
 10 12  1  0  0  0  0
 10 14  1  0  0  0  0
 10 26  1  1  0  0  0
 11 13  1  0  0  0  0
 11 20  1  0  0  0  0
 11 27  1  1  0  0  0
 12 28  1  0  0  0  0
 13 19  1  0  0  0  0
 13 29  1  0  0  0  0
 13 30  1  0  0  0  0
 14 19  2  0  0  0  0
 14 23  1  0  0  0  0
 15 16  1  0  0  0  0
 15 31  1  0  0  0  0
 16 17  1  0  0  0  0
 16 32  1  0  0  0  0
 17 18  1  0  0  0  0
 17 33  1  0  0  0  0
 18 21  1  0  0  0  0
 18 34  1  0  0  0  0
 19 35  1  0  0  0  0
 20 22  2  0  0  0  0
 20 25  1  0  0  0  0
 21 24  1  1  0  0  0
 21 36  1  0  0  0  0
 22 37  1  0  0  0  0
 23 38  1  0  0  0  0
 23 39  1  0  0  0  0
 23 40  1  0  0  0  0
 24 41  1  0  0  0  0
 24 42  1  0  0  0  0
M  END
> <PUBCHEM_COMPOUND_CID>
443353

> <PUBCHEM_COMPOUND_CANONICALIZED>
1

> <PUBCHEM_CACTVS_COMPLEXITY>
586

> <PUBCHEM_CACTVS_HBOND_ACCEPTOR>
9

> <PUBCHEM_CACTVS_HBOND_DONOR>
5

> <PUBCHEM_CACTVS_ROTATABLE_BOND>
4

> <PUBCHEM_CACTVS_SUBSKEYS>
AAADceB4PAAAAAAAAAAAAAAAAAAAAQAAAAAkQAAAAAAAAEAAAAAAGgAACAAADRSwgAMCCAAABgCIAiDSCAAACAAgIAAACAEAAEgRFBIAAQAiQAAFwAAPEIPIbAwOgAAAAAAAAAAAAAAAAAAAAAAAAAAAAA==

> <PUBCHEM_IUPAC_OPENEYE_NAME>
(1S,4aS,7aS)-7-methyl-1-[(2S,3R,4S,5S,6R)-3,4,5-trihydroxy-6-(hydroxymethyl)tetrahydropyran-2-yl]oxy-1,4a,5,7a-tetrahydrocyclopenta[c]pyran-4-carboxylic acid

> <PUBCHEM_IUPAC_CAS_NAME>
(1S,4aS,7aS)-7-methyl-1-[[(2S,3R,4S,5S,6R)-3,4,5-trihydroxy-6-(hydroxymethyl)-2-oxanyl]oxy]-1,4a,5,7a-tetrahydrocyclopenta[c]pyran-4-carboxylic acid

> <PUBCHEM_IUPAC_NAME>
(1S,4aS,7aS)-7-methyl-1-[(2S,3R,4S,5S,6R)-3,4,5-trihydroxy-6-(hydroxymethyl)oxan-2-yl]oxy-1,4a,5,7a-tetrahydrocyclopenta[c]pyran-4-carboxylic acid

> <PUBCHEM_IUPAC_SYSTEMATIC_NAME>
(1S,4aS,7aS)-1-[(2S,3R,4S,5S,6R)-6-(hydroxymethyl)-3,4,5-tris(oxidanyl)oxan-2-yl]oxy-7-methyl-1,4a,5,7a-tetrahydrocyclopenta[c]pyran-4-carboxylic acid

> <PUBCHEM_IUPAC_TRADITIONAL_NAME>
(1S,4aS,7aS)-7-methyl-1-[(2S,3R,4S,5S,6R)-3,4,5-trihydroxy-6-methylol-tetrahydropyran-2-yl]oxy-1,4a,5,7a-tetrahydrocyclopenta[c]pyran-4-carboxylic acid

> <PUBCHEM_IUPAC_INCHI>
InChI=1S/C16H22O9/c1-6-2-3-7-8(14(21)22)5-23-15(10(6)7)25-16-13(20)12(19)11(18)9(4-17)24-16/h2,5,7,9-13,15-20H,3-4H2,1H3,(H,21,22)/t7-,9-,10-,11-,12+,13-,15+,16+/m1/s1

> <PUBCHEM_IUPAC_INCHIKEY>
HOKQPTUPMSNUAF-OGJQONSISA-N

> <PUBCHEM_XLOGP3_AA>
-1.4

> <PUBCHEM_EXACT_MASS>
358.126382

> <PUBCHEM_MOLECULAR_FORMULA>
C16H22O9

> <PUBCHEM_MOLECULAR_WEIGHT>
358.34048

> <PUBCHEM_OPENEYE_CAN_SMILES>
CC1=CCC2C1C(OC=C2C(=O)O)OC3C(C(C(C(O3)CO)O)O)O

> <PUBCHEM_OPENEYE_ISO_SMILES>
CC1=CC[C@H]2[C@@H]1[C@@H](OC=C2C(=O)O)O[C@H]3[C@@H]([C@H]([C@@H]([C@H](O3)CO)O)O)O

> <PUBCHEM_CACTVS_TPSA>
146

> <PUBCHEM_MONOISOTOPIC_WEIGHT>
358.126382

> <PUBCHEM_TOTAL_CHARGE>
0

> <PUBCHEM_HEAVY_ATOM_COUNT>
25

> <PUBCHEM_ATOM_DEF_STEREO_COUNT>
8

> <PUBCHEM_ATOM_UDEF_STEREO_COUNT>
0

> <PUBCHEM_BOND_DEF_STEREO_COUNT>
0

> <PUBCHEM_BOND_UDEF_STEREO_COUNT>
0

> <PUBCHEM_ISOTOPIC_ATOM_COUNT>
0

> <PUBCHEM_COMPONENT_COUNT>
1

> <PUBCHEM_CACTVS_TAUTO_COUNT>
1

> <PUBCHEM_COORDINATE_TYPE>
1
5
255

> <PUBCHEM_BONDANNOTATIONS>
12  1  5
15  1  5
10  26  5
11  27  5
21  24  5
16  4  6
17  5  5
18  6  6

$$$$

