6148
  -OEChem-06261201082D

 45 46  0     1  0  0  0  0  0999 V2000
    3.7057    0.7978    0.0000 O   0  0  0  0  0  0  0  0  0  0  0  0
    2.0000    1.0986    0.0000 O   0  0  0  0  0  0  0  0  0  0  0  0
    4.2057   -2.0682    0.0000 N   0  0  3  0  0  0  0  0  0  0  0  0
    4.2057   -0.0682    0.0000 C   0  0  3  0  0  0  0  0  0  0  0  0
    3.3397   -0.5682    0.0000 C   0  0  1  0  0  0  0  0  0  0  0  0
    5.0718   -0.5682    0.0000 C   0  0  0  0  0  0  0  0  0  0  0  0
    5.0718   -1.5682    0.0000 C   0  0  2  0  0  0  0  0  0  0  0  0
    3.3397   -1.5682    0.0000 C   0  0  0  0  0  0  0  0  0  0  0  0
    4.7057    0.7978    0.0000 C   0  0  0  0  0  0  0  0  0  0  0  0
    2.3549   -0.7419    0.0000 C   0  0  0  0  0  0  0  0  0  0  0  0
    5.9378   -2.0682    0.0000 C   0  0  0  0  0  0  0  0  0  0  0  0
    4.2057   -3.0682    0.0000 C   0  0  0  0  0  0  0  0  0  0  0  0
    5.7057    0.7978    0.0000 C   0  0  0  0  0  0  0  0  0  0  0  0
    4.2057    1.6638    0.0000 C   0  0  0  0  0  0  0  0  0  0  0  0
    2.9398    1.4407    0.0000 C   0  0  0  0  0  0  0  0  0  0  0  0
    6.2057    1.6638    0.0000 C   0  0  0  0  0  0  0  0  0  0  0  0
    4.7057    2.5299    0.0000 C   0  0  0  0  0  0  0  0  0  0  0  0
    3.1133    2.4254    0.0000 C   0  0  0  0  0  0  0  0  0  0  0  0
    5.7057    2.5299    0.0000 C   0  0  0  0  0  0  0  0  0  0  0  0
    2.3473    3.0682    0.0000 C   0  0  0  0  0  0  0  0  0  0  0  0
    3.1276    0.0144    0.0000 H   0  0  0  0  0  0  0  0  0  0  0  0
    5.6823   -0.6759    0.0000 H   0  0  0  0  0  0  0  0  0  0  0  0
    5.2838    0.0144    0.0000 H   0  0  0  0  0  0  0  0  0  0  0  0
    5.0718   -2.1882    0.0000 H   0  0  0  0  0  0  0  0  0  0  0  0
    2.7291   -1.4605    0.0000 H   0  0  0  0  0  0  0  0  0  0  0  0
    3.1276   -2.1508    0.0000 H   0  0  0  0  0  0  0  0  0  0  0  0
    2.2472   -0.1313    0.0000 H   0  0  0  0  0  0  0  0  0  0  0  0
    1.7443   -0.8495    0.0000 H   0  0  0  0  0  0  0  0  0  0  0  0
    2.4626   -1.3524    0.0000 H   0  0  0  0  0  0  0  0  0  0  0  0
    5.6278   -2.6051    0.0000 H   0  0  0  0  0  0  0  0  0  0  0  0
    6.4747   -2.3782    0.0000 H   0  0  0  0  0  0  0  0  0  0  0  0
    6.2478   -1.5313    0.0000 H   0  0  0  0  0  0  0  0  0  0  0  0
    3.5857   -3.0682    0.0000 H   0  0  0  0  0  0  0  0  0  0  0  0
    4.2057   -3.6882    0.0000 H   0  0  0  0  0  0  0  0  0  0  0  0
    4.8257   -3.0682    0.0000 H   0  0  0  0  0  0  0  0  0  0  0  0
    6.0157    0.2609    0.0000 H   0  0  0  0  0  0  0  0  0  0  0  0
    3.5857    1.6638    0.0000 H   0  0  0  0  0  0  0  0  0  0  0  0
    6.8257    1.6638    0.0000 H   0  0  0  0  0  0  0  0  0  0  0  0
    4.3957    3.0668    0.0000 H   0  0  0  0  0  0  0  0  0  0  0  0
    3.6960    2.2134    0.0000 H   0  0  0  0  0  0  0  0  0  0  0  0
    3.4233    2.9624    0.0000 H   0  0  0  0  0  0  0  0  0  0  0  0
    6.0157    3.0668    0.0000 H   0  0  0  0  0  0  0  0  0  0  0  0
    2.7458    3.5432    0.0000 H   0  0  0  0  0  0  0  0  0  0  0  0
    1.8723    3.4667    0.0000 H   0  0  0  0  0  0  0  0  0  0  0  0
    1.9488    2.5933    0.0000 H   0  0  0  0  0  0  0  0  0  0  0  0
  1  4  1  0  0  0  0
  1 15  1  0  0  0  0
  2 15  2  0  0  0  0
  3  7  1  0  0  0  0
  3  8  1  0  0  0  0
  3 12  1  0  0  0  0
  4  5  1  0  0  0  0
  4  6  1  0  0  0  0
  4  9  1  0  0  0  0
  5  8  1  0  0  0  0
  5 10  1  1  0  0  0
  5 21  1  0  0  0  0
  6  7  1  0  0  0  0
  6 22  1  0  0  0  0
  6 23  1  0  0  0  0
  7 11  1  6  0  0  0
  7 24  1  0  0  0  0
  8 25  1  0  0  0  0
  8 26  1  0  0  0  0
  9 13  2  0  0  0  0
  9 14  1  0  0  0  0
 10 27  1  0  0  0  0
 10 28  1  0  0  0  0
 10 29  1  0  0  0  0
 11 30  1  0  0  0  0
 11 31  1  0  0  0  0
 11 32  1  0  0  0  0
 12 33  1  0  0  0  0
 12 34  1  0  0  0  0
 12 35  1  0  0  0  0
 13 16  1  0  0  0  0
 13 36  1  0  0  0  0
 14 17  2  0  0  0  0
 14 37  1  0  0  0  0
 15 18  1  0  0  0  0
 16 19  2  0  0  0  0
 16 38  1  0  0  0  0
 17 19  1  0  0  0  0
 17 39  1  0  0  0  0
 18 20  1  0  0  0  0
 18 40  1  0  0  0  0
 18 41  1  0  0  0  0
 19 42  1  0  0  0  0
 20 43  1  0  0  0  0
 20 44  1  0  0  0  0
 20 45  1  0  0  0  0
M  END
> <PUBCHEM_COMPOUND_CID>
6148

> <PUBCHEM_COMPOUND_CANONICALIZED>
1

> <PUBCHEM_CACTVS_COMPLEXITY>
338

> <PUBCHEM_CACTVS_HBOND_ACCEPTOR>
3

> <PUBCHEM_CACTVS_HBOND_DONOR>
0

> <PUBCHEM_CACTVS_ROTATABLE_BOND>
4

> <PUBCHEM_CACTVS_SUBSKEYS>
AAADceB6MAAAAAAAAAAAAAAAAAAAAAAAAAA8QAAAAAAAAAABAAAAHgAAAAAADWzBmAQyCIMABACIAiDSCAACAAAgAAAIiAEICIgIJiKAsRiGMAAmwAGIqAeQwOAOgAAAAAAAAAAAAAAAAAAAAAAAAAAAAA==

> <PUBCHEM_IUPAC_OPENEYE_NAME>
[(2S,5R)-1,2,5-trimethyl-4-phenyl-4-piperidyl] propanoate

> <PUBCHEM_IUPAC_CAS_NAME>
propanoic acid [(2S,5R)-1,2,5-trimethyl-4-phenyl-4-piperidinyl] ester

> <PUBCHEM_IUPAC_NAME>
[(2S,5R)-1,2,5-trimethyl-4-phenylpiperidin-4-yl] propanoate

> <PUBCHEM_IUPAC_SYSTEMATIC_NAME>
[(2S,5R)-1,2,5-trimethyl-4-phenyl-piperidin-4-yl] propanoate

> <PUBCHEM_IUPAC_TRADITIONAL_NAME>
propionic acid [(2S,5R)-1,2,5-trimethyl-4-phenyl-4-piperidyl] ester

> <PUBCHEM_IUPAC_INCHI>
InChI=1S/C17H25NO2/c1-5-16(19)20-17(15-9-7-6-8-10-15)11-14(3)18(4)12-13(17)2/h6-10,13-14H,5,11-12H2,1-4H3/t13-,14+,17?/m1/s1

> <PUBCHEM_IUPAC_INCHIKEY>
UVITTYOJFDLOGI-LICQEQMYSA-N

> <PUBCHEM_XLOGP3>
3.1

> <PUBCHEM_EXACT_MASS>
275.188529

> <PUBCHEM_MOLECULAR_FORMULA>
C17H25NO2

> <PUBCHEM_MOLECULAR_WEIGHT>
275.3859

> <PUBCHEM_OPENEYE_CAN_SMILES>
CCC(=O)OC1(CC(N(CC1C)C)C)C2=CC=CC=C2

> <PUBCHEM_OPENEYE_ISO_SMILES>
CCC(=O)OC1(C[C@@H](N(C[C@H]1C)C)C)C2=CC=CC=C2

> <PUBCHEM_CACTVS_TPSA>
29.5

> <PUBCHEM_MONOISOTOPIC_WEIGHT>
275.188529

> <PUBCHEM_TOTAL_CHARGE>
0

> <PUBCHEM_HEAVY_ATOM_COUNT>
20

> <PUBCHEM_ATOM_DEF_STEREO_COUNT>
2

> <PUBCHEM_ATOM_UDEF_STEREO_COUNT>
1

> <PUBCHEM_BOND_DEF_STEREO_COUNT>
0

> <PUBCHEM_BOND_UDEF_STEREO_COUNT>
0

> <PUBCHEM_ISOTOPIC_ATOM_COUNT>
0

> <PUBCHEM_COMPONENT_COUNT>
1

> <PUBCHEM_CACTVS_TAUTO_COUNT>
1

> <PUBCHEM_COORDINATE_TYPE>
1
5
255

> <PUBCHEM_BONDANNOTATIONS>
4  1  3
13  16  8
14  17  8
16  19  8
17  19  8
5  10  5
7  11  6
9  13  8
9  14  8

$$$$

