439562
  -OEChem-07051212463D

 28 30  0     0  0  0  0  0  0999 V2000
    2.5655    2.4994   -0.0465 O   0  0  0  0  0  0  0  0  0  0  0  0
   -0.3107   -1.3931   -0.0918 N   0  0  0  0  0  0  0  0  0  0  0  0
    0.0030    1.3588   -0.1096 N   0  0  0  0  0  0  0  0  0  0  0  0
    1.0045   -0.8565   -0.0203 C   0  0  0  0  0  0  0  0  0  0  0  0
   -1.4716   -0.5743   -0.0235 C   0  0  0  0  0  0  0  0  0  0  0  0
    1.1546    0.5544   -0.0551 C   0  0  0  0  0  0  0  0  0  0  0  0
   -1.3003    0.8342   -0.0585 C   0  0  0  0  0  0  0  0  0  0  0  0
    2.1698   -1.6324    0.0939 C   0  0  0  0  0  0  0  0  0  0  0  0
    2.4252    1.1438   -0.0093 C   0  0  0  0  0  0  0  0  0  0  0  0
   -0.4760   -2.8450   -0.1856 C   0  0  0  0  0  0  0  0  0  0  0  0
   -2.7818   -1.0682    0.0878 C   0  0  0  0  0  0  0  0  0  0  0  0
   -2.4060    1.6943   -0.0163 C   0  0  0  0  0  0  0  0  0  0  0  0
    3.4341   -1.0358    0.1422 C   0  0  0  0  0  0  0  0  0  0  0  0
    3.5623    0.3480    0.0849 C   0  0  0  0  0  0  0  0  0  0  0  0
   -3.8796   -0.2024    0.1327 C   0  0  0  0  0  0  0  0  0  0  0  0
   -3.6932    1.1748    0.0748 C   0  0  0  0  0  0  0  0  0  0  0  0
    0.1192    2.3625   -0.1554 H   0  0  0  0  0  0  0  0  0  0  0  0
    2.1315   -2.7156    0.1617 H   0  0  0  0  0  0  0  0  0  0  0  0
   -0.5279   -3.2891    0.8141 H   0  0  0  0  0  0  0  0  0  0  0  0
    0.3355   -3.3232   -0.7442 H   0  0  0  0  0  0  0  0  0  0  0  0
   -1.3729   -3.1284   -0.7463 H   0  0  0  0  0  0  0  0  0  0  0  0
   -2.9883   -2.1322    0.1558 H   0  0  0  0  0  0  0  0  0  0  0  0
   -2.2672    2.7722   -0.0458 H   0  0  0  0  0  0  0  0  0  0  0  0
    4.3206   -1.6582    0.2284 H   0  0  0  0  0  0  0  0  0  0  0  0
    4.5530    0.7924    0.1241 H   0  0  0  0  0  0  0  0  0  0  0  0
   -4.8836   -0.6092    0.2167 H   0  0  0  0  0  0  0  0  0  0  0  0
   -4.5489    1.8423    0.1107 H   0  0  0  0  0  0  0  0  0  0  0  0
    3.5112    2.7226   -0.0029 H   0  0  0  0  0  0  0  0  0  0  0  0
  1  9  1  0  0  0  0
  1 28  1  0  0  0  0
  2  4  1  0  0  0  0
  2  5  1  0  0  0  0
  2 10  1  0  0  0  0
  3  6  1  0  0  0  0
  3  7  1  0  0  0  0
  3 17  1  0  0  0  0
  4  6  2  0  0  0  0
  4  8  1  0  0  0  0
  5  7  1  0  0  0  0
  5 11  2  0  0  0  0
  6  9  1  0  0  0  0
  7 12  2  0  0  0  0
  8 13  2  0  0  0  0
  8 18  1  0  0  0  0
  9 14  2  0  0  0  0
 10 19  1  0  0  0  0
 10 20  1  0  0  0  0
 10 21  1  0  0  0  0
 11 15  1  0  0  0  0
 11 22  1  0  0  0  0
 12 16  1  0  0  0  0
 12 23  1  0  0  0  0
 13 14  1  0  0  0  0
 13 24  1  0  0  0  0
 14 25  1  0  0  0  0
 15 16  2  0  0  0  0
 15 26  1  0  0  0  0
 16 27  1  0  0  0  0
M  END
> <PUBCHEM_COMPOUND_CID>
439562

> <PUBCHEM_CONFORMER_RMSD>
0.4

> <PUBCHEM_CONFORMER_DIVERSEORDER>
1

> <PUBCHEM_MMFF94_PARTIAL_CHARGES>
25
1 -0.53
10 0.37
11 -0.15
12 -0.15
13 -0.15
14 -0.15
15 -0.15
16 -0.15
17 0.4
18 0.15
2 -0.57
22 0.15
23 0.15
24 0.15
25 0.15
26 0.15
27 0.15
28 0.45
3 -0.6
4 0.1
5 0.1
6 0.1
7 0.1
8 -0.15
9 0.08

> <PUBCHEM_EFFECTIVE_ROTOR_COUNT>
0.4

> <PUBCHEM_PHARMACOPHORE_FEATURES>
7
1 1 donor
1 2 cation
1 3 cation
1 3 donor
6 2 3 4 5 6 7 rings
6 4 6 8 9 13 14 rings
6 5 7 11 12 15 16 rings

> <PUBCHEM_HEAVY_ATOM_COUNT>
16

> <PUBCHEM_ATOM_DEF_STEREO_COUNT>
0

> <PUBCHEM_ATOM_UDEF_STEREO_COUNT>
0

> <PUBCHEM_BOND_DEF_STEREO_COUNT>
0

> <PUBCHEM_BOND_UDEF_STEREO_COUNT>
0

> <PUBCHEM_ISOTOPIC_ATOM_COUNT>
0

> <PUBCHEM_COMPONENT_COUNT>
1

> <PUBCHEM_CACTVS_TAUTO_COUNT>
7

> <PUBCHEM_CONFORMER_ID>
0006B50A00000001

> <PUBCHEM_MMFF94_ENERGY>
68.7382

> <PUBCHEM_FEATURE_SELFOVERLAP>
35.577

> <PUBCHEM_SHAPE_FINGERPRINT>
10411042 1 16753249636709215111
10608611 8 18412266155195898013
10967382 1 18410575097558536822
11132069 177 18409736187471947067
11471102 20 18411142475628515212
12251169 10 18411986849398834706
13140716 1 18411135874490771217
13221675 6 18411700997581625346
13380535 76 18409449189083228919
13897977 150 18411421743266465661
14144814 61 18411138056117756088
14178342 30 18050865320662379770
14325111 11 18410855464560500009
15196674 1 18410856576819658763
15309172 13 18409440397633125939
15442244 35 18266459991319194274
15536298 74 18334858329171523464
15775835 57 18411414024925274624
16945 1 18266180526228935462
17802600 8 18412550932902024629
17804303 29 18339918320142153582
18186145 218 18261386788623161685
193761 8 17978229361521773335
200 152 18114756996739316765
20510252 161 18260265256840659761
20645476 183 17987216868478284126
20645477 70 18339084903608944183
21267235 1 18410846672699310491
21501502 16 18337395915966854734
21524375 3 18411982476895702699
22094290 62 18411420605110564746
221490 88 18341040857221699610
22854114 111 18412262835122666792
2334 1 18410855438806416589
23402539 116 18261122875767633750
23463225 33 18341332279062813460
23559900 14 18260548957317239558
2748010 2 18411980282109009093
335352 9 18050568735526530647
5104073 3 18411138047522541097
528886 8 18410298046419318187
53812653 166 18335425681318821304
54173680 148 18123749760024004331
69090 78 18408327674585746471
7364860 26 18119809368026864015
8809292 202 18272644666821376411
9709674 26 18409725149301046927

> <PUBCHEM_SHAPE_MULTIPOLES>
313.44
6.41
2.44
0.61
1.05
0.46
0
-1.29
0.39
-0.46
-0.11
0.01
0.02
-0.06

> <PUBCHEM_SHAPE_SELFOVERLAP>
693.742

> <PUBCHEM_SHAPE_VOLUME>
167.3

> <PUBCHEM_COORDINATE_TYPE>
2
5
10

$$$$

