23668197
  -OEChem-07051213142D

  4  2  0     0  0  0  0  0  0999 V2000
    2.8660   -0.2500    0.0000 Cl  0  0  0  0  0  0  0  0  0  0  0  0
    4.5981   -0.2500    0.0000 Na  0  3  0  0  0  0  0  0  0  0  0  0
    3.7320    0.2500    0.0000 O   0  5  0  0  0  0  0  0  0  0  0  0
    2.0000    0.2500    0.0000 O   0  0  0  0  0  0  0  0  0  0  0  0
  1  3  1  0  0  0  0
  1  4  2  0  0  0  0
M  CHG  2   2   1   3  -1
M  END
> <PUBCHEM_COMPOUND_CID>
23668197

> <PUBCHEM_COMPOUND_CANONICALIZED>
1

> <PUBCHEM_CACTVS_COMPLEXITY>
13.5

> <PUBCHEM_CACTVS_HBOND_ACCEPTOR>
2

> <PUBCHEM_CACTVS_HBOND_DONOR>
0

> <PUBCHEM_CACTVS_ROTATABLE_BOND>
0

> <PUBCHEM_CACTVS_SUBSKEYS>
AAADcQAAMCAEAAAAAAAAAAAAAAAAAAAAAAAAAAAAAAAAAAAAAAAAAAAAAAAAAAAAAAAAAAAAAAAAAAAAAAAAAAAAAAAAAAAAAAAAAAAAAAAAAAAAAAAAAAAAAAAAAAAAAAAAAAAAAAAAAAAAAAAAAAAAAA==

> <PUBCHEM_IUPAC_OPENEYE_NAME>
sodium chlorite

> <PUBCHEM_IUPAC_CAS_NAME>
sodium chlorite

> <PUBCHEM_IUPAC_NAME>
sodium chlorite

> <PUBCHEM_IUPAC_SYSTEMATIC_NAME>
sodium chlorite

> <PUBCHEM_IUPAC_TRADITIONAL_NAME>
sodium chlorite

> <PUBCHEM_IUPAC_INCHI>
InChI=1S/ClHO2.Na/c2-1-3;/h(H,2,3);/q;+1/p-1

> <PUBCHEM_IUPAC_INCHIKEY>
UKLNMMHNWFDKNT-UHFFFAOYSA-M

> <PUBCHEM_EXACT_MASS>
89.948451

> <PUBCHEM_MOLECULAR_FORMULA>
ClNaO2

> <PUBCHEM_MOLECULAR_WEIGHT>
90.441569

> <PUBCHEM_OPENEYE_CAN_SMILES>
[O-]Cl=O.[Na+]

> <PUBCHEM_OPENEYE_ISO_SMILES>
[O-]Cl=O.[Na+]

> <PUBCHEM_CACTVS_TPSA>
40.1

> <PUBCHEM_MONOISOTOPIC_WEIGHT>
89.948451

> <PUBCHEM_TOTAL_CHARGE>
0

> <PUBCHEM_HEAVY_ATOM_COUNT>
4

> <PUBCHEM_ATOM_DEF_STEREO_COUNT>
0

> <PUBCHEM_ATOM_UDEF_STEREO_COUNT>
0

> <PUBCHEM_BOND_DEF_STEREO_COUNT>
0

> <PUBCHEM_BOND_UDEF_STEREO_COUNT>
0

> <PUBCHEM_ISOTOPIC_ATOM_COUNT>
0

> <PUBCHEM_COMPONENT_COUNT>
2

> <PUBCHEM_CACTVS_TAUTO_COUNT>
1

> <PUBCHEM_NONSTANDARDBOND>
2  3  7

> <PUBCHEM_COORDINATE_TYPE>
1
5
255

$$$$

