853891
  -OEChem-06241222463D

 34 35  0     0  0  0  0  0  0999 V2000
    0.1061   -3.0881    0.2084 S   0  0  0  0  0  0  0  0  0  0  0  0
    0.1367   -0.3502   -0.0523 N   0  0  0  0  0  0  0  0  0  0  0  0
    2.1997   -1.5231    0.0420 N   0  0  0  0  0  0  0  0  0  0  0  0
   -3.9443    0.5683   -0.1774 C   0  0  0  0  0  0  0  0  0  0  0  0
   -5.3988    0.8955   -0.2220 C   0  0  0  0  0  0  0  0  0  0  0  0
   -1.2239   -0.0441   -0.0941 C   0  0  0  0  0  0  0  0  0  0  0  0
   -3.0668    1.3864    0.5341 C   0  0  0  0  0  0  0  0  0  0  0  0
   -3.4617   -0.5561   -0.8472 C   0  0  0  0  0  0  0  0  0  0  0  0
   -1.7065    1.0802    0.5756 C   0  0  0  0  0  0  0  0  0  0  0  0
   -2.1015   -0.8623   -0.8054 C   0  0  0  0  0  0  0  0  0  0  0  0
   -6.1761    0.2427    0.9181 C   0  0  0  0  0  0  0  0  0  0  0  0
    3.0980   -0.4271    0.0131 C   0  0  0  0  0  0  0  0  0  0  0  0
    0.8142   -1.5710    0.0150 C   0  0  0  0  0  0  0  0  0  0  0  0
    4.3405   -0.5563    0.6085 C   0  0  0  0  0  0  0  0  0  0  0  0
    2.7115    0.7461   -0.6107 C   0  0  0  0  0  0  0  0  0  0  0  0
    5.2248    0.5222    0.5792 C   0  0  0  0  0  0  0  0  0  0  0  0
    3.5957    1.8245   -0.6401 C   0  0  0  0  0  0  0  0  0  0  0  0
    4.8523    1.7125   -0.0450 C   0  0  0  0  0  0  0  0  0  0  0  0
   -5.5392    1.9829   -0.1822 H   0  0  0  0  0  0  0  0  0  0  0  0
   -5.8250    0.5774   -1.1818 H   0  0  0  0  0  0  0  0  0  0  0  0
   -3.4307    2.2641    1.0617 H   0  0  0  0  0  0  0  0  0  0  0  0
   -4.1336   -1.1939   -1.4156 H   0  0  0  0  0  0  0  0  0  0  0  0
   -1.0350    1.7265    1.1352 H   0  0  0  0  0  0  0  0  0  0  0  0
   -1.7610   -1.7062   -1.3959 H   0  0  0  0  0  0  0  0  0  0  0  0
   -6.0928   -0.8488    0.8802 H   0  0  0  0  0  0  0  0  0  0  0  0
   -7.2365    0.5056    0.8514 H   0  0  0  0  0  0  0  0  0  0  0  0
   -5.8034    0.5753    1.8928 H   0  0  0  0  0  0  0  0  0  0  0  0
    0.6673    0.4205    0.3397 H   0  0  0  0  0  0  0  0  0  0  0  0
    2.6376   -2.4120    0.2761 H   0  0  0  0  0  0  0  0  0  0  0  0
    4.6397   -1.4791    1.0976 H   0  0  0  0  0  0  0  0  0  0  0  0
    1.8039    0.8572   -1.1919 H   0  0  0  0  0  0  0  0  0  0  0  0
    6.2039    0.4346    1.0412 H   0  0  0  0  0  0  0  0  0  0  0  0
    3.3173    2.7426   -1.1497 H   0  0  0  0  0  0  0  0  0  0  0  0
    5.5432    2.5500   -0.0735 H   0  0  0  0  0  0  0  0  0  0  0  0
  1 13  2  0  0  0  0
  2  6  1  0  0  0  0
  2 13  1  0  0  0  0
  2 28  1  0  0  0  0
  3 12  1  0  0  0  0
  3 13  1  0  0  0  0
  3 29  1  0  0  0  0
  4  5  1  0  0  0  0
  4  7  2  0  0  0  0
  4  8  1  0  0  0  0
  5 11  1  0  0  0  0
  5 19  1  0  0  0  0
  5 20  1  0  0  0  0
  6  9  2  0  0  0  0
  6 10  1  0  0  0  0
  7  9  1  0  0  0  0
  7 21  1  0  0  0  0
  8 10  2  0  0  0  0
  8 22  1  0  0  0  0
  9 23  1  0  0  0  0
 10 24  1  0  0  0  0
 11 25  1  0  0  0  0
 11 26  1  0  0  0  0
 11 27  1  0  0  0  0
 12 14  2  0  0  0  0
 12 15  1  0  0  0  0
 14 16  1  0  0  0  0
 14 30  1  0  0  0  0
 15 17  2  0  0  0  0
 15 31  1  0  0  0  0
 16 18  2  0  0  0  0
 16 32  1  0  0  0  0
 17 18  1  0  0  0  0
 17 33  1  0  0  0  0
 18 34  1  0  0  0  0
M  END
> <PUBCHEM_COMPOUND_CID>
853891

> <PUBCHEM_CONFORMER_RMSD>
0.6

> <PUBCHEM_CONFORMER_DIVERSEORDER>
1
18
15
20
7
12
19
21
13
3
9
4
6
23
17
11
14
2
16
5
22
8
10

> <PUBCHEM_MMFF94_PARTIAL_CHARGES>
28
1 -0.38
10 -0.15
12 0.12
13 0.5
14 -0.15
15 -0.15
16 -0.15
17 -0.15
18 -0.15
2 -0.55
21 0.15
22 0.15
23 0.15
24 0.15
28 0.37
29 0.37
3 -0.55
30 0.15
31 0.15
32 0.15
33 0.15
34 0.15
4 -0.14
5 0.14
6 0.12
7 -0.15
8 -0.15
9 -0.15

> <PUBCHEM_EFFECTIVE_ROTOR_COUNT>
5

> <PUBCHEM_PHARMACOPHORE_FEATURES>
6
1 1 acceptor
1 11 hydrophobe
1 2 donor
1 3 donor
6 12 14 15 16 17 18 rings
6 4 6 7 8 9 10 rings

> <PUBCHEM_HEAVY_ATOM_COUNT>
18

> <PUBCHEM_ATOM_DEF_STEREO_COUNT>
0

> <PUBCHEM_ATOM_UDEF_STEREO_COUNT>
0

> <PUBCHEM_BOND_DEF_STEREO_COUNT>
0

> <PUBCHEM_BOND_UDEF_STEREO_COUNT>
0

> <PUBCHEM_ISOTOPIC_ATOM_COUNT>
0

> <PUBCHEM_COMPONENT_COUNT>
1

> <PUBCHEM_CACTVS_TAUTO_COUNT>
3

> <PUBCHEM_CONFORMER_ID>
000D078300000001

> <PUBCHEM_MMFF94_ENERGY>
72.3356

> <PUBCHEM_FEATURE_SELFOVERLAP>
30.482

> <PUBCHEM_SHAPE_FINGERPRINT>
10090160 65 18413112779397062471
10354089 29 18202282507266173464
10688039 33 17346883376983902044
11724838 91 18343021043050131279
12236239 1 18260269663619205135
12516196 113 9655573006850701310
12616971 3 18410582794187599151
12633257 1 15697713731714018996
12916748 109 18334570261061492761
13533116 47 17060065907643364826
13583140 156 16414936170118419287
13955234 65 18268429207849729562
14251764 75 17912070665006728236
14341114 328 18333168371188663183
14573314 32 5545202701227182905
146900 427 18334570261631088713
14787075 74 18409449168362669187
15183329 4 8286211518041854123
15196674 1 18410857625071409830
15342168 16 18201151066466521140
15885798 251 9223235147805148598
18186145 218 18411420643913223654
18222031 100 10375870757781808662
204376 136 18413670205621809330
21033648 29 16845027752778612676
21150785 3 18187376433046088661
21524375 3 18409169909262054966
21652331 79 18410575106328287269
22079108 93 18131628972233633155
2215653 11 7925628882767252065
22620623 9 16371866036374414039
23402539 116 18260557688479110158
23559900 14 18260267465097622718
3472631 163 18041278768652880356
34797466 226 16009030536244973769
3545911 37 18408602578320354182
42630746 31 18410291445065309134
4325135 7 18411420588421429679
4340502 62 17917704730412144219
474 4 18413388752283173194
474229 33 18412261701684246187
5104073 3 18129391406236791082
6333272 397 18412824702813005314
633830 44 18335422391390041470
960060 61 6988316153473683994

> <PUBCHEM_SHAPE_MULTIPOLES>
364.32
12.87
2.23
0.86
4.32
1.48
0
-6.44
1.82
-1.21
0.04
0.29
-0.05
-0.69

> <PUBCHEM_SHAPE_SELFOVERLAP>
756.95

> <PUBCHEM_SHAPE_VOLUME>
207.7

> <PUBCHEM_COORDINATE_TYPE>
2
5
10

$$$$

