11214
  -OEChem-06261205243D

 83 88  0     1  0  0  0  0  0999 V2000
   -2.9547    3.1140    0.3905 O   0  0  0  0  0  0  0  0  0  0  0  0
   -2.7453    0.2952    2.7917 O   0  0  0  0  0  0  0  0  0  0  0  0
   -1.6295   -2.1095    0.9832 O   0  0  0  0  0  0  0  0  0  0  0  0
    3.8316   -1.0616   -0.7024 O   0  0  0  0  0  0  0  0  0  0  0  0
   -7.0930   -2.2486   -0.3866 O   0  0  0  0  0  0  0  0  0  0  0  0
    5.1729    0.6601   -1.6320 O   0  0  0  0  0  0  0  0  0  0  0  0
   -8.8989   -0.9220   -0.9102 O   0  0  0  0  0  0  0  0  0  0  0  0
    6.1750   -1.4523    1.0265 O   0  0  0  0  0  0  0  0  0  0  0  0
    7.7658    0.8303    0.9775 O   0  0  0  0  0  0  0  0  0  0  0  0
   -2.6000    1.7748    0.0099 C   0  0  1  0  0  0  0  0  0  0  0  0
   -1.1654    1.5379    0.5613 C   0  0  1  0  0  0  0  0  0  0  0  0
   -3.6654    0.7389    0.5546 C   0  0  1  0  0  0  0  0  0  0  0  0
   -0.6970    0.0607    0.4327 C   0  0  1  0  0  0  0  0  0  0  0  0
    0.7410   -0.1665    1.0337 C   0  0  2  0  0  0  0  0  0  0  0  0
    1.7420    0.8553    0.3932 C   0  0  2  0  0  0  0  0  0  0  0  0
   -4.1600    0.0171   -0.7457 C   0  0  2  0  0  0  0  0  0  0  0  0
   -2.6894    1.7021   -1.5333 C   0  0  0  0  0  0  0  0  0  0  0  0
   -0.1429    2.5159   -0.0485 C   0  0  0  0  0  0  0  0  0  0  0  0
   -3.0511   -0.2885    1.5348 C   0  0  1  0  0  0  0  0  0  0  0  0
    1.2566    2.3072    0.5191 C   0  0  0  0  0  0  0  0  0  0  0  0
   -1.7666   -0.8850    0.9955 C   0  0  0  0  0  0  0  0  0  0  0  0
   -4.0537    1.0936   -1.8215 C   0  0  0  0  0  0  0  0  0  0  0  0
    1.3096   -1.5955    0.7818 C   0  0  0  0  0  0  0  0  0  0  0  0
    2.0571    0.5321   -1.0889 C   0  0  0  0  0  0  0  0  0  0  0  0
   -4.8413    1.4466    1.2800 C   0  0  0  0  0  0  0  0  0  0  0  0
    0.7191    0.0182    2.5735 C   0  0  0  0  0  0  0  0  0  0  0  0
    1.5854   -1.9097   -0.6868 C   0  0  0  0  0  0  0  0  0  0  0  0
    2.5465   -0.8981   -1.2990 C   0  0  2  0  0  0  0  0  0  0  0  0
   -5.5085   -0.6243   -0.6898 C   0  0  0  0  0  0  0  0  0  0  0  0
   -5.6779   -2.0435   -0.3171 C   0  0  0  0  0  0  0  0  0  0  0  0
   -6.6808   -0.0521   -0.9505 C   0  0  0  0  0  0  0  0  0  0  0  0
    4.8738   -0.7375   -1.6182 C   0  0  1  0  0  0  0  0  0  0  0  0
   -7.7005   -1.0846   -0.7593 C   0  0  0  0  0  0  0  0  0  0  0  0
    6.1294   -1.5875   -1.3859 C   0  0  0  0  0  0  0  0  0  0  0  0
    6.9085   -1.1268   -0.1536 C   0  0  1  0  0  0  0  0  0  0  0  0
    5.8034    1.1281   -0.4353 C   0  0  1  0  0  0  0  0  0  0  0  0
    7.1273    0.3862   -0.2134 C   0  0  1  0  0  0  0  0  0  0  0  0
    6.0198    2.6303   -0.5916 C   0  0  0  0  0  0  0  0  0  0  0  0
    5.9571   -2.8509    1.1299 C   0  0  0  0  0  0  0  0  0  0  0  0
   -1.2065    1.8034    1.6255 H   0  0  0  0  0  0  0  0  0  0  0  0
   -0.6662   -0.1783   -0.6365 H   0  0  0  0  0  0  0  0  0  0  0  0
    2.6925    0.7907    0.9413 H   0  0  0  0  0  0  0  0  0  0  0  0
   -3.4432   -0.7674   -1.0283 H   0  0  0  0  0  0  0  0  0  0  0  0
   -1.9226    1.0436   -1.9546 H   0  0  0  0  0  0  0  0  0  0  0  0
   -2.5905    2.6815   -2.0134 H   0  0  0  0  0  0  0  0  0  0  0  0
   -0.4452    3.5506    0.1531 H   0  0  0  0  0  0  0  0  0  0  0  0
   -0.1137    2.4152   -1.1384 H   0  0  0  0  0  0  0  0  0  0  0  0
   -3.7596   -1.0994    1.7274 H   0  0  0  0  0  0  0  0  0  0  0  0
    1.9569    2.9814    0.0104 H   0  0  0  0  0  0  0  0  0  0  0  0
    1.2659    2.6097    1.5729 H   0  0  0  0  0  0  0  0  0  0  0  0
   -4.8253    1.8664   -1.7326 H   0  0  0  0  0  0  0  0  0  0  0  0
   -4.1028    0.6798   -2.8343 H   0  0  0  0  0  0  0  0  0  0  0  0
    0.6616   -2.3688    1.2027 H   0  0  0  0  0  0  0  0  0  0  0  0
    2.2561   -1.7011    1.3315 H   0  0  0  0  0  0  0  0  0  0  0  0
    2.7954    1.2514   -1.4566 H   0  0  0  0  0  0  0  0  0  0  0  0
    1.1636    0.6752   -1.7067 H   0  0  0  0  0  0  0  0  0  0  0  0
   -5.5428    0.7217    1.7085 H   0  0  0  0  0  0  0  0  0  0  0  0
   -4.4823    2.0611    2.1137 H   0  0  0  0  0  0  0  0  0  0  0  0
   -5.4055    2.1048    0.6116 H   0  0  0  0  0  0  0  0  0  0  0  0
    0.3449    0.9966    2.8833 H   0  0  0  0  0  0  0  0  0  0  0  0
    1.7270   -0.0831    2.9932 H   0  0  0  0  0  0  0  0  0  0  0  0
    0.0922   -0.7406    3.0546 H   0  0  0  0  0  0  0  0  0  0  0  0
    0.6463   -1.9300   -1.2504 H   0  0  0  0  0  0  0  0  0  0  0  0
    2.0214   -2.9142   -0.7499 H   0  0  0  0  0  0  0  0  0  0  0  0
    2.5836   -1.1138   -2.3742 H   0  0  0  0  0  0  0  0  0  0  0  0
   -3.7424    3.3807   -0.1127 H   0  0  0  0  0  0  0  0  0  0  0  0
   -2.4817   -0.4217    3.3937 H   0  0  0  0  0  0  0  0  0  0  0  0
   -5.3470   -2.2624    0.7001 H   0  0  0  0  0  0  0  0  0  0  0  0
   -5.1861   -2.7197   -1.0224 H   0  0  0  0  0  0  0  0  0  0  0  0
   -6.8945    0.9610   -1.2429 H   0  0  0  0  0  0  0  0  0  0  0  0
    4.5574   -0.9835   -2.6392 H   0  0  0  0  0  0  0  0  0  0  0  0
    5.8654   -2.6479   -1.3583 H   0  0  0  0  0  0  0  0  0  0  0  0
    6.7911   -1.4497   -2.2519 H   0  0  0  0  0  0  0  0  0  0  0  0
    7.8837   -1.6267   -0.0973 H   0  0  0  0  0  0  0  0  0  0  0  0
    5.1270    0.9788    0.4153 H   0  0  0  0  0  0  0  0  0  0  0  0
    7.8043    0.6010   -1.0497 H   0  0  0  0  0  0  0  0  0  0  0  0
    6.6682    2.8457   -1.4480 H   0  0  0  0  0  0  0  0  0  0  0  0
    5.0654    3.1319   -0.7868 H   0  0  0  0  0  0  0  0  0  0  0  0
    6.4642    3.0703    0.3060 H   0  0  0  0  0  0  0  0  0  0  0  0
    7.1764    0.6230    1.7228 H   0  0  0  0  0  0  0  0  0  0  0  0
    6.8398   -3.4313    0.8422 H   0  0  0  0  0  0  0  0  0  0  0  0
    5.7397   -3.0732    2.1792 H   0  0  0  0  0  0  0  0  0  0  0  0
    5.0800   -3.1591    0.5547 H   0  0  0  0  0  0  0  0  0  0  0  0
  1 10  1  0  0  0  0
  1 66  1  0  0  0  0
  2 19  1  0  0  0  0
  2 67  1  0  0  0  0
  3 21  2  0  0  0  0
  4 28  1  0  0  0  0
  4 32  1  0  0  0  0
  5 30  1  0  0  0  0
  5 33  1  0  0  0  0
  6 32  1  0  0  0  0
  6 36  1  0  0  0  0
  7 33  2  0  0  0  0
  8 35  1  0  0  0  0
  8 39  1  0  0  0  0
  9 37  1  0  0  0  0
  9 80  1  0  0  0  0
 10 11  1  0  0  0  0
 10 12  1  0  0  0  0
 10 17  1  0  0  0  0
 11 13  1  0  0  0  0
 11 18  1  0  0  0  0
 11 40  1  0  0  0  0
 12 16  1  0  0  0  0
 12 19  1  0  0  0  0
 12 25  1  0  0  0  0
 13 14  1  0  0  0  0
 13 21  1  0  0  0  0
 13 41  1  0  0  0  0
 14 15  1  0  0  0  0
 14 23  1  0  0  0  0
 14 26  1  0  0  0  0
 15 20  1  0  0  0  0
 15 24  1  0  0  0  0
 15 42  1  0  0  0  0
 16 22  1  0  0  0  0
 16 29  1  0  0  0  0
 16 43  1  0  0  0  0
 17 22  1  0  0  0  0
 17 44  1  0  0  0  0
 17 45  1  0  0  0  0
 18 20  1  0  0  0  0
 18 46  1  0  0  0  0
 18 47  1  0  0  0  0
 19 21  1  0  0  0  0
 19 48  1  0  0  0  0
 20 49  1  0  0  0  0
 20 50  1  0  0  0  0
 22 51  1  0  0  0  0
 22 52  1  0  0  0  0
 23 27  1  0  0  0  0
 23 53  1  0  0  0  0
 23 54  1  0  0  0  0
 24 28  1  0  0  0  0
 24 55  1  0  0  0  0
 24 56  1  0  0  0  0
 25 57  1  0  0  0  0
 25 58  1  0  0  0  0
 25 59  1  0  0  0  0
 26 60  1  0  0  0  0
 26 61  1  0  0  0  0
 26 62  1  0  0  0  0
 27 28  1  0  0  0  0
 27 63  1  0  0  0  0
 27 64  1  0  0  0  0
 28 65  1  0  0  0  0
 29 30  1  0  0  0  0
 29 31  2  0  0  0  0
 30 68  1  0  0  0  0
 30 69  1  0  0  0  0
 31 33  1  0  0  0  0
 31 70  1  0  0  0  0
 32 34  1  0  0  0  0
 32 71  1  0  0  0  0
 34 35  1  0  0  0  0
 34 72  1  0  0  0  0
 34 73  1  0  0  0  0
 35 37  1  0  0  0  0
 35 74  1  0  0  0  0
 36 37  1  0  0  0  0
 36 38  1  0  0  0  0
 36 75  1  0  0  0  0
 37 76  1  0  0  0  0
 38 77  1  0  0  0  0
 38 78  1  0  0  0  0
 38 79  1  0  0  0  0
 39 81  1  0  0  0  0
 39 82  1  0  0  0  0
 39 83  1  0  0  0  0
M  END
> <PUBCHEM_COMPOUND_CID>
11214

> <PUBCHEM_CONFORMER_RMSD>
1

> <PUBCHEM_CONFORMER_DIVERSEORDER>
91
223
5
92
125
28
208
196
70
32
185
215
182
117
81
113
231
243
132
222
133
128
225
59
126
58
175
205
45
227
216
48
212
195
53
235
158
150
186
157
210
240
110
124
116
143
236
142
111
6
93
228
187
160
46
193
100
34
168
163
207
63
164
152
233
237
62
55
25
51
39
24
162
173
181
21
64
239
30
213
65
159
82
230
232
41
26
108
56
129
217
118
19
115
151
9
171
131
244
122
214
86
141
12
167
14
112
165
189
102
176
73
35
107
138
248
178
170
8
247
134
37
120
202
75
137
206
57
172
15
148
194
238
94
123
38
16
97
50
192
105
29
36
68
95
7
27
1
67
166
229
80
190
52
169
147
224
99
149
242
40
174
71
246
3
145
49
250
219
74
245
156
2
249
18
198
11
234
154
87
47
114
220
136
85
20
241
104
119
200
103
191
60
140
90
197
43
44
109
4
84
61
209
42
121
76
153
204
96
251
106
203
101
127
179
199
54
89
13
135
66
83
69
72
218
33
31
79
155
177
88
130
144
10
78
146
77
161
22
184
139
211
180
226
17
98
183
23
221
201
188

> <PUBCHEM_MMFF94_PARTIAL_CHARGES>
28
1 -0.68
10 0.28
13 0.06
16 0.14
19 0.34
2 -0.68
21 0.45
28 0.28
29 -0.28
3 -0.57
30 0.42
31 -0.14
32 0.56
33 0.71
35 0.28
36 0.28
37 0.28
39 0.28
4 -0.56
5 -0.43
6 -0.56
66 0.4
67 0.4
7 -0.57
70 0.15
8 -0.56
80 0.4
9 -0.68

> <PUBCHEM_EFFECTIVE_ROTOR_COUNT>
7.6

> <PUBCHEM_PHARMACOPHORE_FEATURES>
17
1 1 acceptor
1 1 donor
1 2 acceptor
1 2 donor
1 3 acceptor
1 4 acceptor
1 6 acceptor
1 7 acceptor
1 8 acceptor
1 9 acceptor
1 9 donor
5 10 12 16 17 22 rings
5 5 29 30 31 33 rings
6 10 11 12 13 19 21 rings
6 11 13 14 15 18 20 rings
6 14 15 23 24 27 28 rings
6 6 32 34 35 36 37 rings

> <PUBCHEM_HEAVY_ATOM_COUNT>
39

> <PUBCHEM_ATOM_DEF_STEREO_COUNT>
9

> <PUBCHEM_ATOM_UDEF_STEREO_COUNT>
4

> <PUBCHEM_BOND_DEF_STEREO_COUNT>
0

> <PUBCHEM_BOND_UDEF_STEREO_COUNT>
0

> <PUBCHEM_ISOTOPIC_ATOM_COUNT>
0

> <PUBCHEM_COMPONENT_COUNT>
1

> <PUBCHEM_CACTVS_TAUTO_COUNT>
4

> <PUBCHEM_CONFORMER_ID>
00002BCE0000005B

> <PUBCHEM_MMFF94_ENERGY>
132.699

> <PUBCHEM_FEATURE_SELFOVERLAP>
86.585

> <PUBCHEM_SHAPE_FINGERPRINT>
10190108 129 14056992828677387662
10930396 42 18128840585672641736
12107698 1 18411138035028275621
12422481 6 14548746135930596570
12522641 24 16588592998160423280
12664476 115 6988321630205748224
13165053 68 11815603148594121577
13673619 4 17530966882602954873
13782708 43 18040437693659790282
13811026 1 18343302531360169330
13914758 101 16200156512154838103
14068700 675 18407758140616713609
14856354 85 15068628170925122509
15082195 135 18129084655568051844
15183329 4 17632854248566849478
15301273 46 6771873973820669551
15320295 40 17989215858639343500
15721738 202 17458343022269014785
17349148 13 18337379557053674180
18608769 82 18334579006216619415
19958102 18 17775280577897062178
20105231 36 5833997165298728772
21033648 29 11311482538439622198
22149856 69 17313373569741079306
23559900 14 18338239241828723969
23569917 315 17968087673196992406
24893992 56 12103840151984871885
2838139 119 15554448509387259735
3044373 193 18340210700705973572
34797466 226 14201394963834975400
3633792 109 16988288676370564747
4098825 35 18335420188462279637
439807 62 18412263939446136071
484989 97 17988071172635362019
6004065 56 18260266309276568872
6086070 43 14189284933279839645
6669772 16 18266467503850576064
77296 10 18059852887859507066
9962374 69 17023478443534062733

> <PUBCHEM_SHAPE_MULTIPOLES>
749.78
21.38
2.7
1.78
1.91
0.44
0.56
-7.86
-6.36
0.81
0.08
-0.18
-0.06
-0.84

> <PUBCHEM_SHAPE_SELFOVERLAP>
1613.76

> <PUBCHEM_SHAPE_VOLUME>
409.6

> <PUBCHEM_COORDINATE_TYPE>
2
5
10

$$$$

