441727
  -OEChem-07051212553D

 74 79  0     1  0  0  0  0  0999 V2000
   -0.0964    0.1249    2.5435 O   0  0  0  0  0  0  0  0  0  0  0  0
   -1.9763   -1.7113    1.7577 O   0  0  0  0  0  0  0  0  0  0  0  0
    0.3268   -2.6428    0.7277 O   0  0  0  0  0  0  0  0  0  0  0  0
    1.1109    2.4267   -2.0483 O   0  0  0  0  0  0  0  0  0  0  0  0
   -4.2276   -1.4850   -0.3113 O   0  0  0  0  0  0  0  0  0  0  0  0
   -4.6314    1.5853    0.3118 O   0  0  0  0  0  0  0  0  0  0  0  0
    5.0945   -0.6016    0.4048 O   0  0  0  0  0  0  0  0  0  0  0  0
    1.5084    1.6959    0.6181 N   0  0  2  0  0  0  0  0  0  0  0  0
    0.4534    0.2204   -1.0806 C   0  0  2  0  0  0  0  0  0  0  0  0
    1.4391   -0.8891   -0.5468 C   0  0  2  0  0  0  0  0  0  0  0  0
    0.2591    0.9858    0.2600 C   0  0  1  0  0  0  0  0  0  0  0  0
   -0.9287   -0.3523   -1.5749 C   0  0  1  0  0  0  0  0  0  0  0  0
   -0.1906   -0.2116    1.1639 C   0  0  2  0  0  0  0  0  0  0  0  0
   -1.7879   -1.1640   -0.5838 C   0  0  1  0  0  0  0  0  0  0  0  0
   -1.6644   -0.6257    0.8587 C   0  0  1  0  0  0  0  0  0  0  0  0
    0.8429   -1.3252    0.8221 C   0  0  1  0  0  0  0  0  0  0  0  0
    2.8438   -0.2261   -0.3039 C   0  0  2  0  0  0  0  0  0  0  0  0
    1.0568    1.0232   -2.2847 C   0  0  2  0  0  0  0  0  0  0  0  0
   -1.9122    0.7429   -2.0812 C   0  0  0  0  0  0  0  0  0  0  0  0
   -3.2423    0.5043   -1.3512 C   0  0  1  0  0  0  0  0  0  0  0  0
   -3.2032   -1.0047   -1.1543 C   0  0  2  0  0  0  0  0  0  0  0  0
   -2.6973    0.4872    1.1876 C   0  0  0  0  0  0  0  0  0  0  0  0
    2.6926    0.8563    0.8116 C   0  0  0  0  0  0  0  0  0  0  0  0
    3.4113    0.4270   -1.5956 C   0  0  0  0  0  0  0  0  0  0  0  0
   -3.2735    1.2619   -0.0093 C   0  0  2  0  0  0  0  0  0  0  0  0
    2.4161    0.5132   -2.7368 C   0  0  0  0  0  0  0  0  0  0  0  0
    3.8792   -1.2742    0.1632 C   0  0  0  0  0  0  0  0  0  0  0  0
    1.3467    2.6694    1.6903 C   0  0  0  0  0  0  0  0  0  0  0  0
    1.3364   -3.5781    0.3673 C   0  0  0  0  0  0  0  0  0  0  0  0
    2.5623    3.5744    1.7980 C   0  0  0  0  0  0  0  0  0  0  0  0
   -4.1627   -2.8988   -0.1482 C   0  0  0  0  0  0  0  0  0  0  0  0
   -4.7043    2.3829    1.4813 C   0  0  0  0  0  0  0  0  0  0  0  0
    6.1183   -1.4914    0.8432 C   0  0  0  0  0  0  0  0  0  0  0  0
    1.5140   -1.6763   -1.2988 H   0  0  0  0  0  0  0  0  0  0  0  0
   -0.5274    1.7375    0.1648 H   0  0  0  0  0  0  0  0  0  0  0  0
   -0.7142   -1.0131   -2.4286 H   0  0  0  0  0  0  0  0  0  0  0  0
   -1.5115   -2.2209   -0.6393 H   0  0  0  0  0  0  0  0  0  0  0  0
    1.5853   -1.3777    1.6216 H   0  0  0  0  0  0  0  0  0  0  0  0
    0.4114    0.9144   -3.1642 H   0  0  0  0  0  0  0  0  0  0  0  0
   -1.5498    1.7661   -1.9477 H   0  0  0  0  0  0  0  0  0  0  0  0
   -2.0639    0.6037   -3.1597 H   0  0  0  0  0  0  0  0  0  0  0  0
   -4.0953    0.8064   -1.9692 H   0  0  0  0  0  0  0  0  0  0  0  0
   -3.2843   -1.5010   -2.1321 H   0  0  0  0  0  0  0  0  0  0  0  0
   -3.5214    0.0107    1.7385 H   0  0  0  0  0  0  0  0  0  0  0  0
   -2.2755    1.1991    1.9086 H   0  0  0  0  0  0  0  0  0  0  0  0
    2.6851    0.3975    1.8068 H   0  0  0  0  0  0  0  0  0  0  0  0
    3.5976    1.4747    0.7934 H   0  0  0  0  0  0  0  0  0  0  0  0
    3.7917    1.4347   -1.3849 H   0  0  0  0  0  0  0  0  0  0  0  0
    4.2776   -0.1302   -1.9755 H   0  0  0  0  0  0  0  0  0  0  0  0
   -2.7400    2.2126   -0.1316 H   0  0  0  0  0  0  0  0  0  0  0  0
    2.2998   -0.4805   -3.1877 H   0  0  0  0  0  0  0  0  0  0  0  0
    2.8299    1.1637   -3.5169 H   0  0  0  0  0  0  0  0  0  0  0  0
    3.5744   -1.7625    1.0916 H   0  0  0  0  0  0  0  0  0  0  0  0
    4.0182   -2.0460   -0.6038 H   0  0  0  0  0  0  0  0  0  0  0  0
    0.8354    0.1266    2.8126 H   0  0  0  0  0  0  0  0  0  0  0  0
   -1.3688   -2.4478    1.5806 H   0  0  0  0  0  0  0  0  0  0  0  0
    0.4816    3.3080    1.4736 H   0  0  0  0  0  0  0  0  0  0  0  0
    1.1677    2.2088    2.6655 H   0  0  0  0  0  0  0  0  0  0  0  0
    1.4543    2.8521   -2.8523 H   0  0  0  0  0  0  0  0  0  0  0  0
    1.6105   -3.5334   -0.6876 H   0  0  0  0  0  0  0  0  0  0  0  0
    2.2127   -3.4986    1.0147 H   0  0  0  0  0  0  0  0  0  0  0  0
    0.9148   -4.5758    0.5288 H   0  0  0  0  0  0  0  0  0  0  0  0
    2.3288    4.4257    2.4473 H   0  0  0  0  0  0  0  0  0  0  0  0
    2.8540    3.9790    0.8226 H   0  0  0  0  0  0  0  0  0  0  0  0
    3.4228    3.0663    2.2441 H   0  0  0  0  0  0  0  0  0  0  0  0
   -3.2440   -3.2327    0.3343 H   0  0  0  0  0  0  0  0  0  0  0  0
   -4.2730   -3.3965   -1.1170 H   0  0  0  0  0  0  0  0  0  0  0  0
   -5.0024   -3.2003    0.4846 H   0  0  0  0  0  0  0  0  0  0  0  0
   -5.7065    2.8212    1.5192 H   0  0  0  0  0  0  0  0  0  0  0  0
   -4.5838    1.7896    2.3916 H   0  0  0  0  0  0  0  0  0  0  0  0
   -3.9834    3.2068    1.4599 H   0  0  0  0  0  0  0  0  0  0  0  0
    6.3163   -2.2505    0.0805 H   0  0  0  0  0  0  0  0  0  0  0  0
    7.0302   -0.9108    1.0055 H   0  0  0  0  0  0  0  0  0  0  0  0
    5.8330   -1.9672    1.7863 H   0  0  0  0  0  0  0  0  0  0  0  0
  1 13  1  0  0  0  0
  1 55  1  0  0  0  0
  2 15  1  0  0  0  0
  2 56  1  0  0  0  0
  3 16  1  0  0  0  0
  3 29  1  0  0  0  0
  4 18  1  0  0  0  0
  4 59  1  0  0  0  0
  5 21  1  0  0  0  0
  5 31  1  0  0  0  0
  6 25  1  0  0  0  0
  6 32  1  0  0  0  0
  7 27  1  0  0  0  0
  7 33  1  0  0  0  0
  8 11  1  0  0  0  0
  8 23  1  0  0  0  0
  8 28  1  0  0  0  0
  9 10  1  0  0  0  0
  9 11  1  0  0  0  0
  9 12  1  0  0  0  0
  9 18  1  0  0  0  0
 10 16  1  0  0  0  0
 10 17  1  0  0  0  0
 10 34  1  0  0  0  0
 11 13  1  0  0  0  0
 11 35  1  0  0  0  0
 12 14  1  0  0  0  0
 12 19  1  0  0  0  0
 12 36  1  0  0  0  0
 13 15  1  0  0  0  0
 13 16  1  0  0  0  0
 14 15  1  0  0  0  0
 14 21  1  0  0  0  0
 14 37  1  0  0  0  0
 15 22  1  0  0  0  0
 16 38  1  0  0  0  0
 17 23  1  0  0  0  0
 17 24  1  0  0  0  0
 17 27  1  0  0  0  0
 18 26  1  0  0  0  0
 18 39  1  0  0  0  0
 19 20  1  0  0  0  0
 19 40  1  0  0  0  0
 19 41  1  0  0  0  0
 20 21  1  0  0  0  0
 20 25  1  0  0  0  0
 20 42  1  0  0  0  0
 21 43  1  0  0  0  0
 22 25  1  0  0  0  0
 22 44  1  0  0  0  0
 22 45  1  0  0  0  0
 23 46  1  0  0  0  0
 23 47  1  0  0  0  0
 24 26  1  0  0  0  0
 24 48  1  0  0  0  0
 24 49  1  0  0  0  0
 25 50  1  0  0  0  0
 26 51  1  0  0  0  0
 26 52  1  0  0  0  0
 27 53  1  0  0  0  0
 27 54  1  0  0  0  0
 28 30  1  0  0  0  0
 28 57  1  0  0  0  0
 28 58  1  0  0  0  0
 29 60  1  0  0  0  0
 29 61  1  0  0  0  0
 29 62  1  0  0  0  0
 30 63  1  0  0  0  0
 30 64  1  0  0  0  0
 30 65  1  0  0  0  0
 31 66  1  0  0  0  0
 31 67  1  0  0  0  0
 31 68  1  0  0  0  0
 32 69  1  0  0  0  0
 32 70  1  0  0  0  0
 32 71  1  0  0  0  0
 33 72  1  0  0  0  0
 33 73  1  0  0  0  0
 33 74  1  0  0  0  0
M  END
> <PUBCHEM_COMPOUND_CID>
441727

> <PUBCHEM_CONFORMER_RMSD>
1

> <PUBCHEM_CONFORMER_DIVERSEORDER>
1

> <PUBCHEM_MMFF94_PARTIAL_CHARGES>
25
1 -0.68
11 0.27
13 0.28
15 0.28
16 0.28
18 0.28
2 -0.68
21 0.28
23 0.27
25 0.28
27 0.28
28 0.27
29 0.28
3 -0.56
31 0.28
32 0.28
33 0.28
4 -0.68
5 -0.56
55 0.4
56 0.4
59 0.4
6 -0.56
7 -0.56
8 -0.81

> <PUBCHEM_EFFECTIVE_ROTOR_COUNT>
8

> <PUBCHEM_PHARMACOPHORE_FEATURES>
15
1 1 acceptor
1 1 donor
1 2 acceptor
1 2 donor
1 3 acceptor
1 4 acceptor
1 4 donor
1 5 acceptor
1 6 acceptor
1 7 acceptor
1 8 cation
6 9 10 17 18 24 26 rings
8 12 14 15 19 20 21 22 25 rings
8 8 9 10 11 13 16 17 23 rings
8 9 10 11 12 13 14 15 16 rings

> <PUBCHEM_HEAVY_ATOM_COUNT>
33

> <PUBCHEM_ATOM_DEF_STEREO_COUNT>
12

> <PUBCHEM_ATOM_UDEF_STEREO_COUNT>
1

> <PUBCHEM_BOND_DEF_STEREO_COUNT>
0

> <PUBCHEM_BOND_UDEF_STEREO_COUNT>
0

> <PUBCHEM_ISOTOPIC_ATOM_COUNT>
0

> <PUBCHEM_COMPONENT_COUNT>
1

> <PUBCHEM_CACTVS_TAUTO_COUNT>
1

> <PUBCHEM_CONFORMER_ID>
0006BD7F00000001

> <PUBCHEM_MMFF94_ENERGY>
192.9468

> <PUBCHEM_FEATURE_SELFOVERLAP>
77.511

> <PUBCHEM_SHAPE_FINGERPRINT>
10076449 9 16772652477996815726
10863032 1 18335702767102764407
10948715 1 18114468872847419425
11578080 2 18127113196574925448
12035758 1 17560793390153030906
12107698 1 17895202064975949365
12156800 1 16385059471279387703
12293681 4 18114459063026344065
12422481 6 17769675409531922890
13140716 1 18334577919162605993
13224815 77 15697999587789356893
13583140 156 18333739026487415679
14955137 171 17203316866663633964
15219462 58 18121484770175329760
15238133 3 18262787605065767437
15295992 7 18410286995706122065
16945 1 18193861420195869447
17349148 13 17988928850932345886
1813 80 17530958082225391460
18769570 83 17896321492066851656
18981168 100 18055341440630580525
20600515 1 18408316709908922764
22149856 69 18200024025317449539
23419403 2 18194148294579981012
23559900 14 18059305253083931359
3286 77 18337957787762146054
34934 24 17896320392554807882
3493558 16 15647610189848980440
350125 39 18341329985824947795

> <PUBCHEM_SHAPE_MULTIPOLES>
633.06
8.41
3.17
2.28
1.4
0.34
-0.95
-1.13
1.41
-0.07
1.69
0.5
0.89
-0.48

> <PUBCHEM_SHAPE_SELFOVERLAP>
1381.528

> <PUBCHEM_SHAPE_VOLUME>
339.5

> <PUBCHEM_COORDINATE_TYPE>
2
5
10

$$$$

