247835
  -OEChem-07051213063D

 59 62  0     1  0  0  0  0  0999 V2000
   -4.1709   -0.5731    1.4012 O   0  0  0  0  0  0  0  0  0  0  0  0
   -1.7725   -0.2667    0.8415 C   0  0  1  0  0  0  0  0  0  0  0  0
   -1.0839    0.8189   -0.0142 C   0  0  2  0  0  0  0  0  0  0  0  0
    0.4236    0.9322    0.2536 C   0  0  1  0  0  0  0  0  0  0  0  0
    1.0929   -0.4452   -0.0495 C   0  0  1  0  0  0  0  0  0  0  0  0
    2.6504   -0.4027    0.1574 C   0  0  2  0  0  0  0  0  0  0  0  0
   -3.2632   -0.0498    0.4339 C   0  0  2  0  0  0  0  0  0  0  0  0
   -1.1413   -1.6213    0.4774 C   0  0  0  0  0  0  0  0  0  0  0  0
    0.3849   -1.6152    0.6825 C   0  0  0  0  0  0  0  0  0  0  0  0
   -1.9561    2.0509    0.2036 C   0  0  0  0  0  0  0  0  0  0  0  0
    3.2259    0.7549   -0.7203 C   0  0  1  0  0  0  0  0  0  0  0  0
    1.0579    2.0477   -0.5902 C   0  0  0  0  0  0  0  0  0  0  0  0
   -3.3852    1.4948    0.3457 C   0  0  0  0  0  0  0  0  0  0  0  0
    2.5733    2.1099   -0.4229 C   0  0  0  0  0  0  0  0  0  0  0  0
   -1.6074   -0.0385    2.3729 C   0  0  0  0  0  0  0  0  0  0  0  0
    3.2982   -1.7326   -0.3384 C   0  0  0  0  0  0  0  0  0  0  0  0
   -3.6773   -0.6927   -0.8961 C   0  0  0  0  0  0  0  0  0  0  0  0
    3.0093   -0.2118    1.6550 C   0  0  0  0  0  0  0  0  0  0  0  0
    4.7612    0.8543   -0.6381 C   0  0  0  0  0  0  0  0  0  0  0  0
    4.7758   -1.6433   -0.6010 C   0  0  0  0  0  0  0  0  0  0  0  0
    5.4344   -0.4830   -0.7221 C   0  0  0  0  0  0  0  0  0  0  0  0
   -5.1057   -0.3154   -1.2632 C   0  0  0  0  0  0  0  0  0  0  0  0
   -5.5242   -0.9723   -2.5688 C   0  0  0  0  0  0  0  0  0  0  0  0
   -1.1836    0.5541   -1.0775 H   0  0  0  0  0  0  0  0  0  0  0  0
    0.5796    1.1952    1.3048 H   0  0  0  0  0  0  0  0  0  0  0  0
    0.9300   -0.6346   -1.1228 H   0  0  0  0  0  0  0  0  0  0  0  0
   -1.3286   -1.8676   -0.5743 H   0  0  0  0  0  0  0  0  0  0  0  0
   -1.5905   -2.4266    1.0707 H   0  0  0  0  0  0  0  0  0  0  0  0
    0.6030   -1.5912    1.7538 H   0  0  0  0  0  0  0  0  0  0  0  0
    0.7744   -2.5716    0.3147 H   0  0  0  0  0  0  0  0  0  0  0  0
   -1.8842    2.7509   -0.6355 H   0  0  0  0  0  0  0  0  0  0  0  0
   -1.6664    2.5937    1.1104 H   0  0  0  0  0  0  0  0  0  0  0  0
    2.9854    0.5157   -1.7688 H   0  0  0  0  0  0  0  0  0  0  0  0
    0.6332    3.0192   -0.3117 H   0  0  0  0  0  0  0  0  0  0  0  0
    0.8206    1.8926   -1.6505 H   0  0  0  0  0  0  0  0  0  0  0  0
   -3.8479    1.9081    1.2505 H   0  0  0  0  0  0  0  0  0  0  0  0
   -3.9724    1.8735   -0.4902 H   0  0  0  0  0  0  0  0  0  0  0  0
    2.9733    2.8706   -1.1045 H   0  0  0  0  0  0  0  0  0  0  0  0
    2.8197    2.4440    0.5916 H   0  0  0  0  0  0  0  0  0  0  0  0
   -0.5641    0.0032    2.6942 H   0  0  0  0  0  0  0  0  0  0  0  0
   -2.0773    0.8917    2.7079 H   0  0  0  0  0  0  0  0  0  0  0  0
   -2.0783   -0.8550    2.9331 H   0  0  0  0  0  0  0  0  0  0  0  0
    2.8201   -2.0628   -1.2694 H   0  0  0  0  0  0  0  0  0  0  0  0
    3.1297   -2.5263    0.3998 H   0  0  0  0  0  0  0  0  0  0  0  0
   -3.6284   -1.7855   -0.8077 H   0  0  0  0  0  0  0  0  0  0  0  0
   -3.0093   -0.4001   -1.7128 H   0  0  0  0  0  0  0  0  0  0  0  0
    4.0899   -0.1531    1.8181 H   0  0  0  0  0  0  0  0  0  0  0  0
    2.5754    0.6985    2.0767 H   0  0  0  0  0  0  0  0  0  0  0  0
    2.6571   -1.0528    2.2608 H   0  0  0  0  0  0  0  0  0  0  0  0
    5.0739    1.3498    0.2886 H   0  0  0  0  0  0  0  0  0  0  0  0
    5.1203    1.4802   -1.4644 H   0  0  0  0  0  0  0  0  0  0  0  0
   -4.9814   -0.0370    1.3919 H   0  0  0  0  0  0  0  0  0  0  0  0
    5.3246   -2.5759   -0.6956 H   0  0  0  0  0  0  0  0  0  0  0  0
    6.5067   -0.4966   -0.8937 H   0  0  0  0  0  0  0  0  0  0  0  0
   -5.2518    0.7572   -1.3979 H   0  0  0  0  0  0  0  0  0  0  0  0
   -5.8093   -0.6417   -0.4896 H   0  0  0  0  0  0  0  0  0  0  0  0
   -4.8838   -0.6477   -3.3953 H   0  0  0  0  0  0  0  0  0  0  0  0
   -5.4669   -2.0632   -2.4970 H   0  0  0  0  0  0  0  0  0  0  0  0
   -6.5566   -0.7043   -2.8154 H   0  0  0  0  0  0  0  0  0  0  0  0
  1  7  1  0  0  0  0
  1 52  1  0  0  0  0
  2  3  1  0  0  0  0
  2  7  1  0  0  0  0
  2  8  1  0  0  0  0
  2 15  1  0  0  0  0
  3  4  1  0  0  0  0
  3 10  1  0  0  0  0
  3 24  1  0  0  0  0
  4  5  1  0  0  0  0
  4 12  1  0  0  0  0
  4 25  1  0  0  0  0
  5  6  1  0  0  0  0
  5  9  1  0  0  0  0
  5 26  1  0  0  0  0
  6 11  1  0  0  0  0
  6 16  1  0  0  0  0
  6 18  1  0  0  0  0
  7 13  1  0  0  0  0
  7 17  1  0  0  0  0
  8  9  1  0  0  0  0
  8 27  1  0  0  0  0
  8 28  1  0  0  0  0
  9 29  1  0  0  0  0
  9 30  1  0  0  0  0
 10 13  1  0  0  0  0
 10 31  1  0  0  0  0
 10 32  1  0  0  0  0
 11 14  1  0  0  0  0
 11 19  1  0  0  0  0
 11 33  1  0  0  0  0
 12 14  1  0  0  0  0
 12 34  1  0  0  0  0
 12 35  1  0  0  0  0
 13 36  1  0  0  0  0
 13 37  1  0  0  0  0
 14 38  1  0  0  0  0
 14 39  1  0  0  0  0
 15 40  1  0  0  0  0
 15 41  1  0  0  0  0
 15 42  1  0  0  0  0
 16 20  1  0  0  0  0
 16 43  1  0  0  0  0
 16 44  1  0  0  0  0
 17 22  1  0  0  0  0
 17 45  1  0  0  0  0
 17 46  1  0  0  0  0
 18 47  1  0  0  0  0
 18 48  1  0  0  0  0
 18 49  1  0  0  0  0
 19 21  1  0  0  0  0
 19 50  1  0  0  0  0
 19 51  1  0  0  0  0
 20 21  2  0  0  0  0
 20 53  1  0  0  0  0
 21 54  1  0  0  0  0
 22 23  1  0  0  0  0
 22 55  1  0  0  0  0
 22 56  1  0  0  0  0
 23 57  1  0  0  0  0
 23 58  1  0  0  0  0
 23 59  1  0  0  0  0
M  END
> <PUBCHEM_COMPOUND_CID>
247835

> <PUBCHEM_CONFORMER_RMSD>
0.6

> <PUBCHEM_CONFORMER_DIVERSEORDER>
1
2

> <PUBCHEM_MMFF94_PARTIAL_CHARGES>
9
1 -0.68
16 0.14
19 0.14
20 -0.29
21 -0.29
52 0.4
53 0.15
54 0.15
7 0.28

> <PUBCHEM_EFFECTIVE_ROTOR_COUNT>
3.8

> <PUBCHEM_PHARMACOPHORE_FEATURES>
7
1 1 acceptor
1 1 donor
1 23 hydrophobe
5 2 3 7 10 13 rings
6 2 3 4 5 8 9 rings
6 4 5 6 11 12 14 rings
6 6 11 16 19 20 21 rings

> <PUBCHEM_HEAVY_ATOM_COUNT>
23

> <PUBCHEM_ATOM_DEF_STEREO_COUNT>
7

> <PUBCHEM_ATOM_UDEF_STEREO_COUNT>
0

> <PUBCHEM_BOND_DEF_STEREO_COUNT>
0

> <PUBCHEM_BOND_UDEF_STEREO_COUNT>
0

> <PUBCHEM_ISOTOPIC_ATOM_COUNT>
0

> <PUBCHEM_COMPONENT_COUNT>
1

> <PUBCHEM_CACTVS_TAUTO_COUNT>
1

> <PUBCHEM_CONFORMER_ID>
0003C81B00000001

> <PUBCHEM_MMFF94_ENERGY>
81.4115

> <PUBCHEM_FEATURE_SELFOVERLAP>
35.608

> <PUBCHEM_SHAPE_FINGERPRINT>
10366900 7 18060699507058640480
10498660 4 16917348134337616644
105312 117 16200437966105468587
10693767 8 18335999635026798623
11315181 36 17917703600809169716
11796584 16 16056881338895281778
12011746 2 18131632287832107292
12236239 1 17967808349723296665
12403259 415 17274820229874350301
12553582 1 18060135483210706944
12596602 18 16732703861546972722
12892183 10 7997703046973527127
12969540 114 17775294845810204567
13224815 77 17917705799204658560
13288520 33 17022904558092849311
13583140 156 16630242528732574665
13862211 1 18412265073375809838
15183329 4 18337404811709314749
15188451 53 16660655050490123911
15196674 1 18342165705024987448
15238133 3 13973975298206732436
15536298 74 18410567388736013656
15788980 27 18259981599851510352
15848700 24 18411140255621059532
16752209 62 18342463676538533080
16945 1 18272370892968661611
17349148 13 18187078459986754438
17357779 13 18201721768714696204
1813 80 13984660326282778721
18186145 218 17632855330513343289
18222031 100 18335991925670303574
18769570 83 14333416661359252799
192875 21 18411710880348826865
19862831 5 17989479723848739274
200 152 18260828202641349713
20645477 70 18200585909132043620
20775438 99 17467104880598023983
21033648 29 16271931488992410869
21267235 1 18269818908994846986
21521239 73 18338529547189584903
21637258 2 16226340239747229015
221357 26 18343029899747742253
22393880 68 17917157104564573851
23402539 116 18408601495687967229
23557571 272 14418399053252087499
23559900 14 18339924792842933168
25147074 1 18195534916001744291
2838139 119 15769515169976816167
2871803 45 18202283619551965884
296302 2 14908177560159385738
335352 9 18270110361117425676
439807 62 17898303714965901175
463206 1 17531821147134883695
474 4 16915923090686718460
5104073 3 18341885325191312544
602551 16 15791735165527653446
633830 44 18272927267237423187
76465 3 17749395849401798309
9709674 26 18271514308811982720

> <PUBCHEM_SHAPE_MULTIPOLES>
467.46
11.1
1.99
1.63
1.02
0.51
-0.11
-3.09
5.72
-0.72
0.28
1.97
-0.39
-0.86

> <PUBCHEM_SHAPE_SELFOVERLAP>
985.192

> <PUBCHEM_SHAPE_VOLUME>
261.3

> <PUBCHEM_COORDINATE_TYPE>
2
5
10

$$$$

