17395733
  -OEChem-06241222522D

 41 43  0     0  0  0  0  0  0999 V2000
   12.3923   -0.5600    0.0000 O   0  0  0  0  0  0  0  0  0  0  0  0
    8.0622   -0.0600    0.0000 O   0  0  0  0  0  0  0  0  0  0  0  0
    7.1962    1.4400    0.0000 N   0  0  0  0  0  0  0  0  0  0  0  0
    5.4641   -0.5600    0.0000 N   0  0  0  0  0  0  0  0  0  0  0  0
    4.5981    0.9400    0.0000 N   0  0  0  0  0  0  0  0  0  0  0  0
    8.9282    1.4400    0.0000 C   0  0  0  0  0  0  0  0  0  0  0  0
    9.7942    0.9400    0.0000 C   0  0  0  0  0  0  0  0  0  0  0  0
    8.0622    0.9400    0.0000 C   0  0  0  0  0  0  0  0  0  0  0  0
    9.7942   -0.0600    0.0000 C   0  0  0  0  0  0  0  0  0  0  0  0
   10.6603    1.4400    0.0000 C   0  0  0  0  0  0  0  0  0  0  0  0
    6.3301    0.9400    0.0000 C   0  0  0  0  0  0  0  0  0  0  0  0
   10.6603   -0.5600    0.0000 C   0  0  0  0  0  0  0  0  0  0  0  0
   11.5263    0.9400    0.0000 C   0  0  0  0  0  0  0  0  0  0  0  0
   11.5263   -0.0600    0.0000 C   0  0  0  0  0  0  0  0  0  0  0  0
    3.7320   -0.5600    0.0000 C   0  0  0  0  0  0  0  0  0  0  0  0
    4.5981   -0.0600    0.0000 C   0  0  0  0  0  0  0  0  0  0  0  0
    6.3301   -0.0600    0.0000 C   0  0  0  0  0  0  0  0  0  0  0  0
    5.4641    1.4400    0.0000 C   0  0  0  0  0  0  0  0  0  0  0  0
    2.8660   -0.0600    0.0000 C   0  0  0  0  0  0  0  0  0  0  0  0
    3.7320   -1.5600    0.0000 C   0  0  0  0  0  0  0  0  0  0  0  0
    2.0000   -0.5600    0.0000 C   0  0  0  0  0  0  0  0  0  0  0  0
    2.8660   -2.0600    0.0000 C   0  0  0  0  0  0  0  0  0  0  0  0
    2.0000   -1.5600    0.0000 C   0  0  0  0  0  0  0  0  0  0  0  0
   13.2583   -0.0600    0.0000 C   0  0  0  0  0  0  0  0  0  0  0  0
    9.3267    1.9150    0.0000 H   0  0  0  0  0  0  0  0  0  0  0  0
    8.5297    1.9150    0.0000 H   0  0  0  0  0  0  0  0  0  0  0  0
    9.2573   -0.3700    0.0000 H   0  0  0  0  0  0  0  0  0  0  0  0
   10.6603    2.0600    0.0000 H   0  0  0  0  0  0  0  0  0  0  0  0
    7.1962    2.0600    0.0000 H   0  0  0  0  0  0  0  0  0  0  0  0
   10.6603   -1.1800    0.0000 H   0  0  0  0  0  0  0  0  0  0  0  0
   12.0632    1.2500    0.0000 H   0  0  0  0  0  0  0  0  0  0  0  0
    6.8671   -0.3700    0.0000 H   0  0  0  0  0  0  0  0  0  0  0  0
    5.4641    2.0600    0.0000 H   0  0  0  0  0  0  0  0  0  0  0  0
    2.8660    0.5600    0.0000 H   0  0  0  0  0  0  0  0  0  0  0  0
    4.2690   -1.8700    0.0000 H   0  0  0  0  0  0  0  0  0  0  0  0
    1.4631   -0.2500    0.0000 H   0  0  0  0  0  0  0  0  0  0  0  0
    2.8660   -2.6800    0.0000 H   0  0  0  0  0  0  0  0  0  0  0  0
    1.4631   -1.8700    0.0000 H   0  0  0  0  0  0  0  0  0  0  0  0
   13.5683   -0.5969    0.0000 H   0  0  0  0  0  0  0  0  0  0  0  0
   13.7953    0.2500    0.0000 H   0  0  0  0  0  0  0  0  0  0  0  0
   12.9483    0.4769    0.0000 H   0  0  0  0  0  0  0  0  0  0  0  0
  1 14  1  0  0  0  0
  1 24  1  0  0  0  0
  2  8  2  0  0  0  0
  3  8  1  0  0  0  0
  3 11  1  0  0  0  0
  3 29  1  0  0  0  0
  4 16  1  0  0  0  0
  4 17  2  0  0  0  0
  5 16  2  0  0  0  0
  5 18  1  0  0  0  0
  6  7  1  0  0  0  0
  6  8  1  0  0  0  0
  6 25  1  0  0  0  0
  6 26  1  0  0  0  0
  7  9  2  0  0  0  0
  7 10  1  0  0  0  0
  9 12  1  0  0  0  0
  9 27  1  0  0  0  0
 10 13  2  0  0  0  0
 10 28  1  0  0  0  0
 11 17  1  0  0  0  0
 11 18  2  0  0  0  0
 12 14  2  0  0  0  0
 12 30  1  0  0  0  0
 13 14  1  0  0  0  0
 13 31  1  0  0  0  0
 15 16  1  0  0  0  0
 15 19  2  0  0  0  0
 15 20  1  0  0  0  0
 17 32  1  0  0  0  0
 18 33  1  0  0  0  0
 19 21  1  0  0  0  0
 19 34  1  0  0  0  0
 20 22  2  0  0  0  0
 20 35  1  0  0  0  0
 21 23  2  0  0  0  0
 21 36  1  0  0  0  0
 22 23  1  0  0  0  0
 22 37  1  0  0  0  0
 23 38  1  0  0  0  0
 24 39  1  0  0  0  0
 24 40  1  0  0  0  0
 24 41  1  0  0  0  0
M  END
> <PUBCHEM_COMPOUND_CID>
17395733

> <PUBCHEM_COMPOUND_CANONICALIZED>
1

> <PUBCHEM_CACTVS_COMPLEXITY>
382

> <PUBCHEM_CACTVS_HBOND_ACCEPTOR>
4

> <PUBCHEM_CACTVS_HBOND_DONOR>
1

> <PUBCHEM_CACTVS_ROTATABLE_BOND>
5

> <PUBCHEM_CACTVS_SUBSKEYS>
AAADceB7MAAAAAAAAAAAAAAAAAAAAAAAAAA8YIAAAAAAAAAB0AAAHgAQAAAADAzBmwY/1pbIFACoAjd3dACCiCkxMqAJ2CEufJiMbrLE/VuUNChs1BPIqCeYyICOIAAAAAAAAABAAAAAAAAAAAAAAAAAAA==

> <PUBCHEM_IUPAC_OPENEYE_NAME>
2-(4-methoxyphenyl)-N-(2-phenylpyrimidin-5-yl)acetamide

> <PUBCHEM_IUPAC_CAS_NAME>
2-(4-methoxyphenyl)-N-(2-phenyl-5-pyrimidinyl)acetamide

> <PUBCHEM_IUPAC_NAME>
2-(4-methoxyphenyl)-N-(2-phenylpyrimidin-5-yl)acetamide

> <PUBCHEM_IUPAC_SYSTEMATIC_NAME>
2-(4-methoxyphenyl)-N-(2-phenylpyrimidin-5-yl)ethanamide

> <PUBCHEM_IUPAC_TRADITIONAL_NAME>
2-(4-methoxyphenyl)-N-(2-phenylpyrimidin-5-yl)acetamide

> <PUBCHEM_IUPAC_INCHI>
InChI=1S/C19H17N3O2/c1-24-17-9-7-14(8-10-17)11-18(23)22-16-12-20-19(21-13-16)15-5-3-2-4-6-15/h2-10,12-13H,11H2,1H3,(H,22,23)

> <PUBCHEM_IUPAC_INCHIKEY>
YKABTILXLYHEDF-UHFFFAOYSA-N

> <PUBCHEM_XLOGP3_AA>
2.6

> <PUBCHEM_EXACT_MASS>
319.132077

> <PUBCHEM_MOLECULAR_FORMULA>
C19H17N3O2

> <PUBCHEM_MOLECULAR_WEIGHT>
319.35718

> <PUBCHEM_OPENEYE_CAN_SMILES>
COC1=CC=C(C=C1)CC(=O)NC2=CN=C(N=C2)C3=CC=CC=C3

> <PUBCHEM_OPENEYE_ISO_SMILES>
COC1=CC=C(C=C1)CC(=O)NC2=CN=C(N=C2)C3=CC=CC=C3

> <PUBCHEM_CACTVS_TPSA>
64.1

> <PUBCHEM_MONOISOTOPIC_WEIGHT>
319.132077

> <PUBCHEM_TOTAL_CHARGE>
0

> <PUBCHEM_HEAVY_ATOM_COUNT>
24

> <PUBCHEM_ATOM_DEF_STEREO_COUNT>
0

> <PUBCHEM_ATOM_UDEF_STEREO_COUNT>
0

> <PUBCHEM_BOND_DEF_STEREO_COUNT>
0

> <PUBCHEM_BOND_UDEF_STEREO_COUNT>
0

> <PUBCHEM_ISOTOPIC_ATOM_COUNT>
0

> <PUBCHEM_COMPONENT_COUNT>
1

> <PUBCHEM_CACTVS_TAUTO_COUNT>
3

> <PUBCHEM_COORDINATE_TYPE>
1
5
255

> <PUBCHEM_BONDANNOTATIONS>
10  13  8
11  17  8
11  18  8
12  14  8
13  14  8
15  19  8
15  20  8
19  21  8
20  22  8
21  23  8
22  23  8
4  16  8
4  17  8
5  16  8
5  18  8
7  10  8
7  9  8
9  12  8

$$$$

