5327116
  -OEChem-07051213153D

 57 58  0     1  0  0  0  0  0999 V2000
   -6.0489    1.5989    0.3611 S   0  0  0  0  0  0  0  0  0  0  0  0
    0.3132   -0.1935    0.4103 O   0  0  0  0  0  0  0  0  0  0  0  0
    0.0241   -2.0240   -1.0627 O   0  0  0  0  0  0  0  0  0  0  0  0
    2.9143   -0.9925    0.9827 O   0  0  0  0  0  0  0  0  0  0  0  0
    0.6488    2.6106    0.8577 O   0  0  0  0  0  0  0  0  0  0  0  0
    4.9338   -0.5053   -0.9041 O   0  0  0  0  0  0  0  0  0  0  0  0
    3.3613    3.3432    1.5051 O   0  0  0  0  0  0  0  0  0  0  0  0
    5.2402    2.2824   -0.4743 O   0  0  0  0  0  0  0  0  0  0  0  0
   -3.4974   -2.1418    1.0883 O   0  0  0  0  0  0  0  0  0  0  0  0
   -1.4498   -4.1028    1.5977 O   0  0  0  0  0  0  0  0  0  0  0  0
    1.9126   -3.9957   -1.0486 O   0  0  0  0  0  0  0  0  0  0  0  0
   -3.1602    1.0937   -1.9214 O   0  0  0  0  0  0  0  0  0  0  0  0
   -2.4653    0.4146    0.1853 N   0  0  0  0  0  0  0  0  0  0  0  0
   -2.6731    3.6508   -0.6495 N   0  0  0  0  0  0  0  0  0  0  0  0
    1.4184    0.5533   -0.0969 C   0  0  0  0  0  0  0  0  0  0  0  0
    2.6047   -0.3919   -0.2789 C   0  0  1  0  0  0  0  0  0  0  0  0
    1.7508    1.6980    0.8638 C   0  0  1  0  0  0  0  0  0  0  0  0
    3.8220    0.3822   -0.7876 C   0  0  1  0  0  0  0  0  0  0  0  0
    3.0151    2.4530    0.4401 C   0  0  2  0  0  0  0  0  0  0  0  0
   -1.9350   -0.8661   -0.2230 C   0  0  1  0  0  0  0  0  0  0  0  0
   -0.4678   -0.7476   -0.6468 C   0  0  1  0  0  0  0  0  0  0  0  0
    4.2031    1.5258    0.1573 C   0  0  0  0  0  0  0  0  0  0  0  0
   -2.1020   -1.9145    0.8799 C   0  0  2  0  0  0  0  0  0  0  0  0
   -1.4449   -3.2352    0.4666 C   0  0  1  0  0  0  0  0  0  0  0  0
   -0.0107   -3.0128   -0.0279 C   0  0  1  0  0  0  0  0  0  0  0  0
    0.5992   -4.2865   -0.6071 C   0  0  0  0  0  0  0  0  0  0  0  0
   -3.0420    1.2992   -0.7149 C   0  0  0  0  0  0  0  0  0  0  0  0
   -3.4938    2.5964   -0.0487 C   0  0  2  0  0  0  0  0  0  0  0  0
   -4.9708    2.9081   -0.3032 C   0  0  0  0  0  0  0  0  0  0  0  0
    1.1608    1.0072   -1.0637 H   0  0  0  0  0  0  0  0  0  0  0  0
    2.3718   -1.2085   -0.9658 H   0  0  0  0  0  0  0  0  0  0  0  0
    1.8354    1.3351    1.8947 H   0  0  0  0  0  0  0  0  0  0  0  0
    3.6274    0.7808   -1.7911 H   0  0  0  0  0  0  0  0  0  0  0  0
    2.8090    3.0863   -0.4319 H   0  0  0  0  0  0  0  0  0  0  0  0
   -2.5151   -1.2022   -1.0939 H   0  0  0  0  0  0  0  0  0  0  0  0
   -0.4433   -0.0969   -1.5296 H   0  0  0  0  0  0  0  0  0  0  0  0
    4.6278    1.1448    1.0939 H   0  0  0  0  0  0  0  0  0  0  0  0
   -1.6930   -1.5619    1.8343 H   0  0  0  0  0  0  0  0  0  0  0  0
   -2.0419   -3.7147   -0.3196 H   0  0  0  0  0  0  0  0  0  0  0  0
    0.6320   -2.6833    0.7984 H   0  0  0  0  0  0  0  0  0  0  0  0
   -2.3456    0.6920    1.1550 H   0  0  0  0  0  0  0  0  0  0  0  0
    0.0283   -4.6503   -1.4679 H   0  0  0  0  0  0  0  0  0  0  0  0
    0.6530   -5.0821    0.1416 H   0  0  0  0  0  0  0  0  0  0  0  0
    3.6932   -1.5594    0.8498 H   0  0  0  0  0  0  0  0  0  0  0  0
    0.5501    2.9583   -0.0450 H   0  0  0  0  0  0  0  0  0  0  0  0
    4.6771   -1.2172   -1.5148 H   0  0  0  0  0  0  0  0  0  0  0  0
    4.1707    3.8122    1.2393 H   0  0  0  0  0  0  0  0  0  0  0  0
    5.9779    1.6737   -0.6507 H   0  0  0  0  0  0  0  0  0  0  0  0
   -3.8810   -2.4571    0.2523 H   0  0  0  0  0  0  0  0  0  0  0  0
   -2.3744   -4.2099    1.8793 H   0  0  0  0  0  0  0  0  0  0  0  0
   -3.2970    2.5778    1.0290 H   0  0  0  0  0  0  0  0  0  0  0  0
    1.8429   -3.3332   -1.7570 H   0  0  0  0  0  0  0  0  0  0  0  0
   -5.2506    3.8546    0.1717 H   0  0  0  0  0  0  0  0  0  0  0  0
   -5.1825    2.9943   -1.3750 H   0  0  0  0  0  0  0  0  0  0  0  0
   -2.8263    3.6871   -1.6565 H   0  0  0  0  0  0  0  0  0  0  0  0
   -1.6849    3.4445   -0.5101 H   0  0  0  0  0  0  0  0  0  0  0  0
   -5.6622    0.6287   -0.4800 H   0  0  0  0  0  0  0  0  0  0  0  0
  1 29  1  0  0  0  0
  1 57  1  0  0  0  0
  2 15  1  0  0  0  0
  2 21  1  0  0  0  0
  3 21  1  0  0  0  0
  3 25  1  0  0  0  0
  4 16  1  0  0  0  0
  4 44  1  0  0  0  0
  5 17  1  0  0  0  0
  5 45  1  0  0  0  0
  6 18  1  0  0  0  0
  6 46  1  0  0  0  0
  7 19  1  0  0  0  0
  7 47  1  0  0  0  0
  8 22  1  0  0  0  0
  8 48  1  0  0  0  0
  9 23  1  0  0  0  0
  9 49  1  0  0  0  0
 10 24  1  0  0  0  0
 10 50  1  0  0  0  0
 11 26  1  0  0  0  0
 11 52  1  0  0  0  0
 12 27  2  0  0  0  0
 13 20  1  0  0  0  0
 13 27  1  0  0  0  0
 13 41  1  0  0  0  0
 14 28  1  0  0  0  0
 14 55  1  0  0  0  0
 14 56  1  0  0  0  0
 15 16  1  0  0  0  0
 15 17  1  0  0  0  0
 15 30  1  0  0  0  0
 16 18  1  0  0  0  0
 16 31  1  0  0  0  0
 17 19  1  0  0  0  0
 17 32  1  0  0  0  0
 18 22  1  0  0  0  0
 18 33  1  0  0  0  0
 19 22  1  0  0  0  0
 19 34  1  0  0  0  0
 20 21  1  0  0  0  0
 20 23  1  0  0  0  0
 20 35  1  0  0  0  0
 21 36  1  0  0  0  0
 22 37  1  0  0  0  0
 23 24  1  0  0  0  0
 23 38  1  0  0  0  0
 24 25  1  0  0  0  0
 24 39  1  0  0  0  0
 25 26  1  0  0  0  0
 25 40  1  0  0  0  0
 26 42  1  0  0  0  0
 26 43  1  0  0  0  0
 27 28  1  0  0  0  0
 28 29  1  0  0  0  0
 28 51  1  0  0  0  0
 29 53  1  0  0  0  0
 29 54  1  0  0  0  0
M  END
> <PUBCHEM_COMPOUND_CID>
5327116

> <PUBCHEM_CONFORMER_RMSD>
1

> <PUBCHEM_CONFORMER_DIVERSEORDER>
1
19
111
30
57
50
46
48
4
92
40
96
86
105
83
54
23
114
39
80
6
35
36
117
69
112
108
15
106
76
44
70
12
67
88
91
90
87
53
74
115
47
17
59
37
66
22
64
93
43
21
34
101
82
68
11
29
85
61
16
116
118
10
55
7
99
73
3
38
41
26
56
119
95
72
28
24
113
98
62
75
5
79
51
2
94
42
110
9
49
52
20
13
103
97
8
104
14
109
65
84
33
25
31
89
18
60
100
63
81
58
107
77
71
32
45
102
78
27

> <PUBCHEM_MMFF94_PARTIAL_CHARGES>
41
1 -0.41
10 -0.68
11 -0.68
12 -0.57
13 -0.73
14 -0.99
15 0.28
16 0.28
17 0.28
18 0.28
19 0.28
2 -0.56
20 0.3
21 0.56
22 0.28
23 0.28
24 0.28
25 0.28
26 0.28
27 0.57
28 0.33
29 0.23
3 -0.56
4 -0.68
41 0.37
44 0.4
45 0.4
46 0.4
47 0.4
48 0.4
49 0.4
5 -0.68
50 0.4
52 0.4
55 0.36
56 0.36
57 0.18
6 -0.68
7 -0.68
8 -0.68
9 -0.68

> <PUBCHEM_EFFECTIVE_ROTOR_COUNT>
9.4

> <PUBCHEM_PHARMACOPHORE_FEATURES>
24
1 10 acceptor
1 10 donor
1 11 acceptor
1 11 donor
1 12 acceptor
1 13 donor
1 14 cation
1 14 donor
1 2 acceptor
1 3 acceptor
1 4 acceptor
1 4 donor
1 5 acceptor
1 5 donor
1 6 acceptor
1 6 donor
1 7 acceptor
1 7 donor
1 8 acceptor
1 8 donor
1 9 acceptor
1 9 donor
6 15 16 17 18 19 22 rings
6 3 20 21 23 24 25 rings

> <PUBCHEM_HEAVY_ATOM_COUNT>
29

> <PUBCHEM_ATOM_DEF_STEREO_COUNT>
10

> <PUBCHEM_ATOM_UDEF_STEREO_COUNT>
0

> <PUBCHEM_BOND_DEF_STEREO_COUNT>
0

> <PUBCHEM_BOND_UDEF_STEREO_COUNT>
0

> <PUBCHEM_ISOTOPIC_ATOM_COUNT>
0

> <PUBCHEM_COMPONENT_COUNT>
1

> <PUBCHEM_CACTVS_TAUTO_COUNT>
2

> <PUBCHEM_CONFORMER_ID>
0051490C00000001

> <PUBCHEM_MMFF94_ENERGY>
72.498

> <PUBCHEM_FEATURE_SELFOVERLAP>
121.868

> <PUBCHEM_SHAPE_FINGERPRINT>
10165383 225 18199739405242802493
10675989 125 18119815960902429488
1100329 8 16895387884880705161
12160290 23 17910145454299436687
12173636 292 18338521820100106286
12730499 353 18337665429950295369
12769317 202 18193567885220595341
12788726 201 18054527810874501859
13140716 1 18411709797901004409
138480 1 17545323437422419693
14466204 15 18192725646570930144
14790565 3 18337947999558929017
14955137 171 17695076882624293483
15230672 131 18341607128145053806
18785283 64 18197780114023648175
21033648 29 18261398784778543448
22907989 373 18127129671662882623
23559900 14 18335138713959751062
23845131 108 18271807977981594555
3298306 158 18336261335788864238
350125 39 18338791217829129793
4058900 60 18197207268935621009
474 4 18194128632082153189
9981440 41 18264508242321276803

> <PUBCHEM_SHAPE_MULTIPOLES>
526.13
9.77
5.76
1.17
3.71
4.33
0.01
-10.42
-0.74
0.15
0.75
0.07
0.19
2.02

> <PUBCHEM_SHAPE_SELFOVERLAP>
1064.64

> <PUBCHEM_SHAPE_VOLUME>
308.4

> <PUBCHEM_COORDINATE_TYPE>
2
5
10

$$$$

