247039
  -OEChem-07051213073D

 28 29  0     1  0  0  0  0  0999 V2000
   -2.4856   -2.3572    0.8586 Cl  0  0  0  0  0  0  0  0  0  0  0  0
    5.0597    0.7705    0.9960 Cl  0  0  0  0  0  0  0  0  0  0  0  0
   -0.3822   -0.9271   -0.8831 C   0  0  1  0  0  0  0  0  0  0  0  0
    0.9707   -0.5065   -0.4167 C   0  0  0  0  0  0  0  0  0  0  0  0
   -1.5157   -0.0822   -0.2887 C   0  0  0  0  0  0  0  0  0  0  0  0
   -0.5613   -1.0195   -2.4198 C   0  0  0  0  0  0  0  0  0  0  0  0
    1.4573   -0.9586    0.8097 C   0  0  0  0  0  0  0  0  0  0  0  0
    1.7485    0.3402   -1.2066 C   0  0  0  0  0  0  0  0  0  0  0  0
   -2.4801   -0.6699    0.4951 C   0  0  0  0  0  0  0  0  0  0  0  0
   -1.5088    1.2634   -0.5799 C   0  0  0  0  0  0  0  0  0  0  0  0
    2.7221   -0.5639    1.2464 C   0  0  0  0  0  0  0  0  0  0  0  0
    3.0132    0.7347   -0.7699 C   0  0  0  0  0  0  0  0  0  0  0  0
   -3.4955    0.1310    1.0178 C   0  0  0  0  0  0  0  0  0  0  0  0
   -2.5243    2.0642   -0.0572 C   0  0  0  0  0  0  0  0  0  0  0  0
    3.4999    0.2827    0.4566 C   0  0  0  0  0  0  0  0  0  0  0  0
   -3.5176    1.4982    0.7417 C   0  0  0  0  0  0  0  0  0  0  0  0
   -0.4674   -1.9727   -0.5694 H   0  0  0  0  0  0  0  0  0  0  0  0
    0.2276   -1.6346   -2.8673 H   0  0  0  0  0  0  0  0  0  0  0  0
   -0.5477   -0.0423   -2.9139 H   0  0  0  0  0  0  0  0  0  0  0  0
   -1.5238   -1.4856   -2.6624 H   0  0  0  0  0  0  0  0  0  0  0  0
    0.8623   -1.6173    1.4367 H   0  0  0  0  0  0  0  0  0  0  0  0
    1.4017    0.7199   -2.1622 H   0  0  0  0  0  0  0  0  0  0  0  0
   -0.7536    1.7265   -1.2054 H   0  0  0  0  0  0  0  0  0  0  0  0
    3.0883   -0.9235    2.2046 H   0  0  0  0  0  0  0  0  0  0  0  0
    3.6077    1.3965   -1.3946 H   0  0  0  0  0  0  0  0  0  0  0  0
   -4.2771   -0.2947    1.6422 H   0  0  0  0  0  0  0  0  0  0  0  0
   -2.5428    3.1284   -0.2738 H   0  0  0  0  0  0  0  0  0  0  0  0
   -4.3084    2.1218    1.1482 H   0  0  0  0  0  0  0  0  0  0  0  0
  1  9  1  0  0  0  0
  2 15  1  0  0  0  0
  3  4  1  0  0  0  0
  3  5  1  0  0  0  0
  3  6  1  0  0  0  0
  3 17  1  0  0  0  0
  4  7  2  0  0  0  0
  4  8  1  0  0  0  0
  5  9  1  0  0  0  0
  5 10  2  0  0  0  0
  6 18  1  0  0  0  0
  6 19  1  0  0  0  0
  6 20  1  0  0  0  0
  7 11  1  0  0  0  0
  7 21  1  0  0  0  0
  8 12  2  0  0  0  0
  8 22  1  0  0  0  0
  9 13  2  0  0  0  0
 10 14  1  0  0  0  0
 10 23  1  0  0  0  0
 11 15  2  0  0  0  0
 11 24  1  0  0  0  0
 12 15  1  0  0  0  0
 12 25  1  0  0  0  0
 13 16  1  0  0  0  0
 13 26  1  0  0  0  0
 14 16  2  0  0  0  0
 14 27  1  0  0  0  0
 16 28  1  0  0  0  0
M  END
> <PUBCHEM_COMPOUND_CID>
247039

> <PUBCHEM_CONFORMER_RMSD>
0.6

> <PUBCHEM_CONFORMER_DIVERSEORDER>
2
3
5
4
1

> <PUBCHEM_MMFF94_PARTIAL_CHARGES>
23
1 -0.18
10 -0.15
11 -0.15
12 -0.15
13 -0.15
14 -0.15
15 0.18
16 -0.15
2 -0.18
21 0.15
22 0.15
23 0.15
24 0.15
25 0.15
26 0.15
27 0.15
28 0.15
3 0.29
4 -0.14
5 -0.14
7 -0.15
8 -0.15
9 0.18

> <PUBCHEM_EFFECTIVE_ROTOR_COUNT>
2

> <PUBCHEM_PHARMACOPHORE_FEATURES>
3
1 6 hydrophobe
6 4 7 8 11 12 15 rings
6 5 9 10 13 14 16 rings

> <PUBCHEM_HEAVY_ATOM_COUNT>
16

> <PUBCHEM_ATOM_DEF_STEREO_COUNT>
0

> <PUBCHEM_ATOM_UDEF_STEREO_COUNT>
1

> <PUBCHEM_BOND_DEF_STEREO_COUNT>
0

> <PUBCHEM_BOND_UDEF_STEREO_COUNT>
0

> <PUBCHEM_ISOTOPIC_ATOM_COUNT>
0

> <PUBCHEM_COMPONENT_COUNT>
1

> <PUBCHEM_CACTVS_TAUTO_COUNT>
1

> <PUBCHEM_CONFORMER_ID>
0003C4FF00000002

> <PUBCHEM_MMFF94_ENERGY>
47.0426

> <PUBCHEM_FEATURE_SELFOVERLAP>
15.223

> <PUBCHEM_SHAPE_FINGERPRINT>
10498660 4 17386010614928481065
10618630 7 13686293599578928524
11132069 177 18343297072071627089
11471102 22 16128657461797823772
11543360 7 8574425452821256570
12138202 97 16371018373143974238
12251169 10 17988922288200828816
12507560 40 18339363079807918298
12633257 1 17989484121542225488
13214271 11 18408608032633427412
13296909 8 18131355210838649501
13583140 156 18114752551179426090
13675066 3 18334297561483520746
13693222 15 15841555162990577982
13764800 53 18040989665935122961
14289901 80 18201716236981129962
14341114 328 18201707423650664208
14787075 74 16905222458081868871
15209294 21 18273218599333000384
15309172 13 17530961397560309687
15775835 57 17895201025240409770
16945 1 18341040874485646599
1813 80 15984816103905273006
18186145 218 16153697739471664140
18219364 16 16950280676474230235
19050596 39 17917988352249899992
19433438 48 17417820525770191466
19862831 5 7925911495678012056
200 152 17774455870961527423
20361792 2 14333116486226822823
20645477 56 17386007213730626452
20671657 53 10231749011612918034
21061003 4 14045732725565015181
21650355 55 18271803467796428737
21756936 100 18266458690640897076
22445834 79 17632577179640853267
2306618 200 17417268566474608775
231179 274 17240204339714722448
23402539 116 18410016503609587967
23403322 49 11743843572912990944
23493267 7 18263628701501148938
23557571 272 18118093988532959711
23559900 14 18195224819110122935
25 1 15502369045636119190
26918003 58 16558748997028870785
27216 239 18041001713223520721
3286 77 17845373250224798568
4028521 119 15285359543531508688
633830 44 15430576450958976511
7097593 13 17988084499269625554
81228 2 17025455282945538087
90316 7 18060413655600445973

> <PUBCHEM_SHAPE_MULTIPOLES>
333.01
7.52
1.82
1.57
5.98
0.1
0.76
-2.42
-3.73
-1.94
-0.25
0.18
0.4
-0.04

> <PUBCHEM_SHAPE_SELFOVERLAP>
696.083

> <PUBCHEM_SHAPE_VOLUME>
182.2

> <PUBCHEM_COORDINATE_TYPE>
2
5
10

$$$$

