68261
  -OEChem-07051213003D

 24 26  0     0  0  0  0  0  0999 V2000
   -0.3372   -2.5255   -0.0439 O   0  0  0  0  0  0  0  0  0  0  0  0
   -1.4369   -0.4840   -0.0504 N   0  0  0  0  0  0  0  0  0  0  0  0
   -0.2806    1.5977   -0.0585 N   0  0  0  0  0  0  0  0  0  0  0  0
   -3.6007    0.2803    0.3455 C   0  0  0  0  0  0  0  0  0  0  0  0
   -2.8084   -0.9395   -0.0939 C   0  0  0  0  0  0  0  0  0  0  0  0
   -2.7574    1.4625   -0.1247 C   0  0  0  0  0  0  0  0  0  0  0  0
   -1.3685    0.9042   -0.0673 C   0  0  0  0  0  0  0  0  0  0  0  0
   -0.3223   -1.3006   -0.0335 C   0  0  0  0  0  0  0  0  0  0  0  0
    0.9573   -0.5454   -0.0049 C   0  0  0  0  0  0  0  0  0  0  0  0
    0.9242    0.8629   -0.0175 C   0  0  0  0  0  0  0  0  0  0  0  0
    2.1739   -1.2337    0.0328 C   0  0  0  0  0  0  0  0  0  0  0  0
    2.1357    1.5624    0.0093 C   0  0  0  0  0  0  0  0  0  0  0  0
    3.3697   -0.5176    0.0594 C   0  0  0  0  0  0  0  0  0  0  0  0
    3.3513    0.8764    0.0477 C   0  0  0  0  0  0  0  0  0  0  0  0
   -3.6726    0.2984    1.4403 H   0  0  0  0  0  0  0  0  0  0  0  0
   -4.6167    0.2942   -0.0584 H   0  0  0  0  0  0  0  0  0  0  0  0
   -2.9541   -1.8092    0.5532 H   0  0  0  0  0  0  0  0  0  0  0  0
   -3.0370   -1.2224   -1.1272 H   0  0  0  0  0  0  0  0  0  0  0  0
   -2.8659    2.3401    0.5168 H   0  0  0  0  0  0  0  0  0  0  0  0
   -2.9860    1.7347   -1.1601 H   0  0  0  0  0  0  0  0  0  0  0  0
    2.2094   -2.3194    0.0426 H   0  0  0  0  0  0  0  0  0  0  0  0
    2.1404    2.6497   -0.0001 H   0  0  0  0  0  0  0  0  0  0  0  0
    4.3179   -1.0467    0.0890 H   0  0  0  0  0  0  0  0  0  0  0  0
    4.2851    1.4308    0.0683 H   0  0  0  0  0  0  0  0  0  0  0  0
  1  8  2  0  0  0  0
  2  5  1  0  0  0  0
  2  7  1  0  0  0  0
  2  8  1  0  0  0  0
  3  7  2  0  0  0  0
  3 10  1  0  0  0  0
  4  5  1  0  0  0  0
  4  6  1  0  0  0  0
  4 15  1  0  0  0  0
  4 16  1  0  0  0  0
  5 17  1  0  0  0  0
  5 18  1  0  0  0  0
  6  7  1  0  0  0  0
  6 19  1  0  0  0  0
  6 20  1  0  0  0  0
  8  9  1  0  0  0  0
  9 10  1  0  0  0  0
  9 11  2  0  0  0  0
 10 12  2  0  0  0  0
 11 13  1  0  0  0  0
 11 21  1  0  0  0  0
 12 14  1  0  0  0  0
 12 22  1  0  0  0  0
 13 14  2  0  0  0  0
 13 23  1  0  0  0  0
 14 24  1  0  0  0  0
M  END
> <PUBCHEM_COMPOUND_CID>
68261

> <PUBCHEM_CONFORMER_RMSD>
0.4

> <PUBCHEM_CONFORMER_DIVERSEORDER>
1

> <PUBCHEM_MMFF94_PARTIAL_CHARGES>
17
1 -0.57
10 0.18
11 -0.15
12 -0.15
13 -0.15
14 -0.15
2 -0.42
21 0.15
22 0.15
23 0.15
24 0.15
3 -0.63
5 0.3
6 0.06
7 0.45
8 0.54
9 0.09

> <PUBCHEM_EFFECTIVE_ROTOR_COUNT>
0.6

> <PUBCHEM_PHARMACOPHORE_FEATURES>
4
1 1 acceptor
5 2 4 5 6 7 rings
6 2 3 7 8 9 10 rings
6 9 10 11 12 13 14 rings

> <PUBCHEM_HEAVY_ATOM_COUNT>
14

> <PUBCHEM_ATOM_DEF_STEREO_COUNT>
0

> <PUBCHEM_ATOM_UDEF_STEREO_COUNT>
0

> <PUBCHEM_BOND_DEF_STEREO_COUNT>
0

> <PUBCHEM_BOND_UDEF_STEREO_COUNT>
0

> <PUBCHEM_ISOTOPIC_ATOM_COUNT>
0

> <PUBCHEM_COMPONENT_COUNT>
1

> <PUBCHEM_CACTVS_TAUTO_COUNT>
3

> <PUBCHEM_CONFORMER_ID>
00010AA500000001

> <PUBCHEM_MMFF94_ENERGY>
34.5555

> <PUBCHEM_FEATURE_SELFOVERLAP>
20.431

> <PUBCHEM_SHAPE_FINGERPRINT>
10608611 8 18410859858238476616
10967382 1 18410575114738412494
11132069 177 18335990821573629704
11471102 20 18410579521533289285
12032990 46 18411411821607162227
12491281 212 18337098034046275064
13140716 1 18339080500776777577
13221675 6 18411419496919409518
13380535 76 18409168783811792366
13897977 150 18411141380591371621
14144814 61 18411139129922929072
14325111 11 18410575088974143309
15196674 1 18410575084673647912
15309172 13 18409722971978994115
15442244 35 18266178525006336202
15536298 74 18334013900057213484
15775835 57 18410006632861962633
16945 1 18266742376712965988
17844478 74 18060413629756360101
18186145 218 18334008432189513740
193761 8 17762336912007886413
200 152 18114192925836360965
20201158 50 18410012173369709479
20510252 161 18260546723116815449
20645476 183 17916566653824592022
20645477 70 18337960107492885471
20871998 184 18116427038342088823
21267235 1 18410846664067145386
21501502 16 18265618684567039110
2334 1 18410857642050838373
23402539 116 18261967283549506084
23402655 69 18264223572511851421
23463225 33 18341613745586778536
23559900 14 18261106337062315364
2748010 2 18411701014676968797
335352 9 18050568752680032565
5104073 3 18410575084700029160
528886 8 18410016554252117377
53812653 166 18334298651835729304
54173680 148 18124031230505255171
69090 78 18334299734130518975
7364860 26 18119247513110735622
8809292 202 18272363174554033282

> <PUBCHEM_SHAPE_MULTIPOLES>
272.28
5.57
1.98
0.61
0.34
0.46
0.01
-0.86
0.29
0
-0.05
0.02
-0.01
0

> <PUBCHEM_SHAPE_SELFOVERLAP>
604.745

> <PUBCHEM_SHAPE_VOLUME>
146.2

> <PUBCHEM_COORDINATE_TYPE>
2
5
10

$$$$

