108069
  -OEChem-07051213122D

 73 72  0     1  0  0  0  0  0999 V2000
   10.3312    1.0000    0.0000 Se  0  0  0  0  0  0  0  0  0  0  0  0
    9.4651    0.5000    0.0000 S   0  0  0  0  0  0  0  0  0  0  0  0
   10.3312    2.0000    0.0000 S   0  0  0  0  0  0  0  0  0  0  0  0
    6.8671   -2.0000    0.0000 O   0  0  0  0  0  0  0  0  0  0  0  0
    9.4651    2.5000    0.0000 O   0  0  0  0  0  0  0  0  0  0  0  0
    7.7331   -2.5000    0.0000 O   0  0  0  0  0  0  0  0  0  0  0  0
   12.0632    5.0000    0.0000 O   0  0  0  0  0  0  0  0  0  0  0  0
    2.5369   -0.5000    0.0000 O   0  0  0  0  0  0  0  0  0  0  0  0
    5.1350    4.0000    0.0000 O   0  0  0  0  0  0  0  0  0  0  0  0
    3.4030   -2.0000    0.0000 O   0  0  0  0  0  0  0  0  0  0  0  0
    6.0010    2.5000    0.0000 O   0  0  0  0  0  0  0  0  0  0  0  0
   10.3312   -5.0000    0.0000 O   0  0  0  0  0  0  0  0  0  0  0  0
   15.5273    4.0000    0.0000 O   0  0  0  0  0  0  0  0  0  0  0  0
   11.1972   -3.5000    0.0000 O   0  0  0  0  0  0  0  0  0  0  0  0
   14.6613    2.5000    0.0000 O   0  0  0  0  0  0  0  0  0  0  0  0
    7.7331   -0.5000    0.0000 N   0  0  0  0  0  0  0  0  0  0  0  0
   10.3312    4.0000    0.0000 N   0  0  0  0  0  0  0  0  0  0  0  0
    4.2690    0.5000    0.0000 N   0  0  0  0  0  0  0  0  0  0  0  0
    6.8671    5.0000    0.0000 N   0  0  0  0  0  0  0  0  0  0  0  0
    9.4651   -2.5000    0.0000 N   0  0  0  0  0  0  0  0  0  0  0  0
   12.9292    3.5000    0.0000 N   0  0  0  0  0  0  0  0  0  0  0  0
    5.1350   -1.0000    0.0000 C   0  0  0  0  0  0  0  0  0  0  0  0
    7.7331    3.5000    0.0000 C   0  0  0  0  0  0  0  0  0  0  0  0
    8.5991   -1.0000    0.0000 C   0  0  1  0  0  0  0  0  0  0  0  0
   11.1972    3.5000    0.0000 C   0  0  1  0  0  0  0  0  0  0  0  0
    6.0010   -0.5000    0.0000 C   0  0  0  0  0  0  0  0  0  0  0  0
    8.5991    4.0000    0.0000 C   0  0  0  0  0  0  0  0  0  0  0  0
    4.2690   -0.5000    0.0000 C   0  0  1  0  0  0  0  0  0  0  0  0
    6.8671    4.0000    0.0000 C   0  0  1  0  0  0  0  0  0  0  0  0
    6.8671   -1.0000    0.0000 C   0  0  0  0  0  0  0  0  0  0  0  0
    9.4651    3.5000    0.0000 C   0  0  0  0  0  0  0  0  0  0  0  0
    9.4651   -0.5000    0.0000 C   0  0  0  0  0  0  0  0  0  0  0  0
   11.1972    2.5000    0.0000 C   0  0  0  0  0  0  0  0  0  0  0  0
    8.5991   -2.0000    0.0000 C   0  0  0  0  0  0  0  0  0  0  0  0
   12.0632    4.0000    0.0000 C   0  0  0  0  0  0  0  0  0  0  0  0
    3.4030   -1.0000    0.0000 C   0  0  0  0  0  0  0  0  0  0  0  0
    6.0010    3.5000    0.0000 C   0  0  0  0  0  0  0  0  0  0  0  0
    9.4651   -3.5000    0.0000 C   0  0  0  0  0  0  0  0  0  0  0  0
   13.7953    4.0000    0.0000 C   0  0  0  0  0  0  0  0  0  0  0  0
   10.3312   -4.0000    0.0000 C   0  0  0  0  0  0  0  0  0  0  0  0
   14.6613    3.5000    0.0000 C   0  0  0  0  0  0  0  0  0  0  0  0
    4.7365   -1.4750    0.0000 H   0  0  0  0  0  0  0  0  0  0  0  0
    5.5335   -1.4750    0.0000 H   0  0  0  0  0  0  0  0  0  0  0  0
    7.3346    3.0250    0.0000 H   0  0  0  0  0  0  0  0  0  0  0  0
    8.1316    3.0250    0.0000 H   0  0  0  0  0  0  0  0  0  0  0  0
    8.5991   -0.3800    0.0000 H   0  0  0  0  0  0  0  0  0  0  0  0
   10.6603    3.1900    0.0000 H   0  0  0  0  0  0  0  0  0  0  0  0
    6.3996   -0.0251    0.0000 H   0  0  0  0  0  0  0  0  0  0  0  0
    5.6025   -0.0251    0.0000 H   0  0  0  0  0  0  0  0  0  0  0  0
    8.9976    4.4750    0.0000 H   0  0  0  0  0  0  0  0  0  0  0  0
    8.2006    4.4750    0.0000 H   0  0  0  0  0  0  0  0  0  0  0  0
    4.8059   -0.1900    0.0000 H   0  0  0  0  0  0  0  0  0  0  0  0
    6.3301    4.3100    0.0000 H   0  0  0  0  0  0  0  0  0  0  0  0
    7.7331    0.1200    0.0000 H   0  0  0  0  0  0  0  0  0  0  0  0
   10.3312    4.6200    0.0000 H   0  0  0  0  0  0  0  0  0  0  0  0
    9.6772   -1.0826    0.0000 H   0  0  0  0  0  0  0  0  0  0  0  0
   10.0757   -0.3923    0.0000 H   0  0  0  0  0  0  0  0  0  0  0  0
   11.4092    1.9174    0.0000 H   0  0  0  0  0  0  0  0  0  0  0  0
   11.8078    2.6077    0.0000 H   0  0  0  0  0  0  0  0  0  0  0  0
    3.7320    0.8100    0.0000 H   0  0  0  0  0  0  0  0  0  0  0  0
    4.8059    0.8100    0.0000 H   0  0  0  0  0  0  0  0  0  0  0  0
    6.3301    5.3100    0.0000 H   0  0  0  0  0  0  0  0  0  0  0  0
    7.4040    5.3100    0.0000 H   0  0  0  0  0  0  0  0  0  0  0  0
   10.0021   -2.1900    0.0000 H   0  0  0  0  0  0  0  0  0  0  0  0
   12.9292    2.8800    0.0000 H   0  0  0  0  0  0  0  0  0  0  0  0
    8.8546   -3.3923    0.0000 H   0  0  0  0  0  0  0  0  0  0  0  0
    9.2531   -4.0826    0.0000 H   0  0  0  0  0  0  0  0  0  0  0  0
   14.1938    4.4750    0.0000 H   0  0  0  0  0  0  0  0  0  0  0  0
   13.3967    4.4750    0.0000 H   0  0  0  0  0  0  0  0  0  0  0  0
    2.0000   -0.8100    0.0000 H   0  0  0  0  0  0  0  0  0  0  0  0
    4.5981    3.6900    0.0000 H   0  0  0  0  0  0  0  0  0  0  0  0
   10.8681   -5.3100    0.0000 H   0  0  0  0  0  0  0  0  0  0  0  0
   16.0643    3.6900    0.0000 H   0  0  0  0  0  0  0  0  0  0  0  0
  1  2  1  0  0  0  0
  1  3  1  0  0  0  0
  2 32  1  0  0  0  0
  3 33  1  0  0  0  0
  4 30  2  0  0  0  0
  5 31  2  0  0  0  0
  6 34  2  0  0  0  0
  7 35  2  0  0  0  0
  8 36  1  0  0  0  0
  8 70  1  0  0  0  0
  9 37  1  0  0  0  0
  9 71  1  0  0  0  0
 10 36  2  0  0  0  0
 11 37  2  0  0  0  0
 12 40  1  0  0  0  0
 12 72  1  0  0  0  0
 13 41  1  0  0  0  0
 13 73  1  0  0  0  0
 14 40  2  0  0  0  0
 15 41  2  0  0  0  0
 24 16  1  1  0  0  0
 16 30  1  0  0  0  0
 16 54  1  0  0  0  0
 25 17  1  6  0  0  0
 17 31  1  0  0  0  0
 17 55  1  0  0  0  0
 28 18  1  1  0  0  0
 18 60  1  0  0  0  0
 18 61  1  0  0  0  0
 29 19  1  1  0  0  0
 19 62  1  0  0  0  0
 19 63  1  0  0  0  0
 20 34  1  0  0  0  0
 20 38  1  0  0  0  0
 20 64  1  0  0  0  0
 21 35  1  0  0  0  0
 21 39  1  0  0  0  0
 21 65  1  0  0  0  0
 22 26  1  0  0  0  0
 22 28  1  0  0  0  0
 22 42  1  0  0  0  0
 22 43  1  0  0  0  0
 23 27  1  0  0  0  0
 23 29  1  0  0  0  0
 23 44  1  0  0  0  0
 23 45  1  0  0  0  0
 24 32  1  0  0  0  0
 24 34  1  0  0  0  0
 24 46  1  0  0  0  0
 25 33  1  0  0  0  0
 25 35  1  0  0  0  0
 25 47  1  0  0  0  0
 26 30  1  0  0  0  0
 26 48  1  0  0  0  0
 26 49  1  0  0  0  0
 27 31  1  0  0  0  0
 27 50  1  0  0  0  0
 27 51  1  0  0  0  0
 28 36  1  0  0  0  0
 28 52  1  0  0  0  0
 29 37  1  0  0  0  0
 29 53  1  0  0  0  0
 32 56  1  0  0  0  0
 32 57  1  0  0  0  0
 33 58  1  0  0  0  0
 33 59  1  0  0  0  0
 38 40  1  0  0  0  0
 38 66  1  0  0  0  0
 38 67  1  0  0  0  0
 39 41  1  0  0  0  0
 39 68  1  0  0  0  0
 39 69  1  0  0  0  0
M  END
> <PUBCHEM_COMPOUND_CID>
108069

> <PUBCHEM_COMPOUND_CANONICALIZED>
1

> <PUBCHEM_CACTVS_COMPLEXITY>
901

> <PUBCHEM_CACTVS_HBOND_ACCEPTOR>
16

> <PUBCHEM_CACTVS_HBOND_DONOR>
10

> <PUBCHEM_CACTVS_ROTATABLE_BOND>
22

> <PUBCHEM_CACTVS_SUBSKEYS>
AAADcfB7vABgAAAAIAAAAAAAAAAAAAAAAAAAAAAAAAAAAAAAAAAAHgQQCAAACCjFwASACALAAgAIAAGQGAAAAAAAAAAAAIGIAAACQBIAgCAUQAAEFgCQAACcFwIAAAAAAAAAAAAAAAAAAAAAAAAAAAAAAA==

> <PUBCHEM_IUPAC_OPENEYE_NAME>
(2S)-2-amino-5-[[(1R)-1-[[(2R)-2-[[(4S)-4-amino-4-carboxy-butanoyl]amino]-3-(carboxymethylamino)-3-oxo-propyl]sulfanylselanylsulfanylmethyl]-2-(carboxymethylamino)-2-oxo-ethyl]amino]-5-oxo-pentanoic acid

> <PUBCHEM_IUPAC_CAS_NAME>
(2S)-2-amino-5-[[(2R)-3-[[[[(2R)-2-[[(4S)-4-amino-4-carboxy-1-oxobutyl]amino]-3-(carboxymethylamino)-3-oxopropyl]thio]seleno]thio]-1-(carboxymethylamino)-1-oxopropan-2-yl]amino]-5-oxopentanoic acid

> <PUBCHEM_IUPAC_NAME>
(2S)-2-amino-5-[[(2R)-3-[(2R)-2-[[(4S)-4-amino-4-carboxybutanoyl]amino]-3-(carboxymethylamino)-3-oxopropyl]sulfanylselanylsulfanyl-1-(carboxymethylamino)-1-oxopropan-2-yl]amino]-5-oxopentanoic acid

> <PUBCHEM_IUPAC_SYSTEMATIC_NAME>
(2S)-2-azanyl-5-[[(2R)-3-[(2R)-2-[[(4S)-4-azanyl-5-oxidanyl-5-oxidanylidene-pentanoyl]amino]-3-(2-hydroxy-2-oxoethylamino)-3-oxidanylidene-propyl]sulfanylselanylsulfanyl-1-(2-hydroxy-2-oxoethylamino)-1-oxidanylidene-propan-2-yl]amino]-5-oxidanylidene-pentanoic acid

> <PUBCHEM_IUPAC_TRADITIONAL_NAME>
(2S)-2-amino-5-[[(1R)-1-[[[[[(2R)-2-[[(4S)-4-amino-4-carboxy-butanoyl]amino]-3-(carboxymethylamino)-3-keto-propyl]thio]seleno]thio]methyl]-2-(carboxymethylamino)-2-keto-ethyl]amino]-5-keto-valeric acid

> <PUBCHEM_IUPAC_INCHI>
InChI=1S/C20H32N6O12S2Se/c21-9(19(35)36)1-3-13(27)25-11(17(33)23-5-15(29)30)7-39-41-40-8-12(18(34)24-6-16(31)32)26-14(28)4-2-10(22)20(37)38/h9-12H,1-8,21-22H2,(H,23,33)(H,24,34)(H,25,27)(H,26,28)(H,29,30)(H,31,32)(H,35,36)(H,37,38)/t9-,10-,11-,12-/m0/s1

> <PUBCHEM_IUPAC_INCHIKEY>
GJEZZQVPWMCGSB-BJDJZHNGSA-N

> <PUBCHEM_EXACT_MASS>
692.068484

> <PUBCHEM_MOLECULAR_FORMULA>
C20H32N6O12S2Se

> <PUBCHEM_MOLECULAR_WEIGHT>
691.59108

> <PUBCHEM_OPENEYE_CAN_SMILES>
C(CC(=O)NC(CS[Se]SCC(C(=O)NCC(=O)O)NC(=O)CCC(C(=O)O)N)C(=O)NCC(=O)O)C(C(=O)O)N

> <PUBCHEM_OPENEYE_ISO_SMILES>
C(CC(=O)N[C@@H](CS[Se]SC[C@@H](C(=O)NCC(=O)O)NC(=O)CC[C@@H](C(=O)O)N)C(=O)NCC(=O)O)[C@@H](C(=O)O)N

> <PUBCHEM_CACTVS_TPSA>
368

> <PUBCHEM_MONOISOTOPIC_WEIGHT>
692.068484

> <PUBCHEM_TOTAL_CHARGE>
0

> <PUBCHEM_HEAVY_ATOM_COUNT>
41

> <PUBCHEM_ATOM_DEF_STEREO_COUNT>
4

> <PUBCHEM_ATOM_UDEF_STEREO_COUNT>
0

> <PUBCHEM_BOND_DEF_STEREO_COUNT>
0

> <PUBCHEM_BOND_UDEF_STEREO_COUNT>
0

> <PUBCHEM_ISOTOPIC_ATOM_COUNT>
0

> <PUBCHEM_COMPONENT_COUNT>
1

> <PUBCHEM_CACTVS_TAUTO_COUNT>
10

> <PUBCHEM_COORDINATE_TYPE>
1
5
255

> <PUBCHEM_BONDANNOTATIONS>
24  16  5
25  17  6
28  18  5
29  19  5

$$$$

