12629
  -OEChem-06261207102D

 69 68  0     1  0  0  0  0  0999 V2000
    4.7690   -6.3660    0.0000 O   0  0  0  0  0  0  0  0  0  0  0  0
    6.8671   -5.0000    0.0000 O   0  0  0  0  0  0  0  0  0  0  0  0
    2.5369   -5.5000    0.0000 O   0  0  0  0  0  0  0  0  0  0  0  0
    6.0010   -6.5000    0.0000 O   0  0  0  0  0  0  0  0  0  0  0  0
    3.4030   -7.0000    0.0000 O   0  0  0  0  0  0  0  0  0  0  0  0
    2.6556   -3.3072    0.0000 O   0  0  0  0  0  0  0  0  0  0  0  0
    4.3614   -3.0064    0.0000 O   0  0  0  0  0  0  0  0  0  0  0  0
    5.1350   -5.0000    0.0000 C   0  0  3  0  0  0  0  0  0  0  0  0
    5.1350   -4.0000    0.0000 C   0  0  0  0  0  0  0  0  0  0  0  0
    6.0010   -3.5000    0.0000 C   0  0  0  0  0  0  0  0  0  0  0  0
    4.2690   -5.5000    0.0000 C   0  0  3  0  0  0  0  0  0  0  0  0
    6.0010   -2.5000    0.0000 C   0  0  0  0  0  0  0  0  0  0  0  0
    6.8671   -2.0000    0.0000 C   0  0  0  0  0  0  0  0  0  0  0  0
    6.8671   -1.0000    0.0000 C   0  0  0  0  0  0  0  0  0  0  0  0
    7.7331   -0.5000    0.0000 C   0  0  0  0  0  0  0  0  0  0  0  0
    7.7331    0.5000    0.0000 C   0  0  0  0  0  0  0  0  0  0  0  0
    8.5991    1.0000    0.0000 C   0  0  0  0  0  0  0  0  0  0  0  0
    8.5991    2.0000    0.0000 C   0  0  0  0  0  0  0  0  0  0  0  0
    9.4651    2.5000    0.0000 C   0  0  0  0  0  0  0  0  0  0  0  0
    3.7690   -4.6340    0.0000 C   0  0  0  0  0  0  0  0  0  0  0  0
    9.4651    3.5000    0.0000 C   0  0  0  0  0  0  0  0  0  0  0  0
   10.3312    4.0000    0.0000 C   0  0  0  0  0  0  0  0  0  0  0  0
    6.0010   -5.5000    0.0000 C   0  0  0  0  0  0  0  0  0  0  0  0
    3.4030   -6.0000    0.0000 C   0  0  0  0  0  0  0  0  0  0  0  0
   10.3312    5.0000    0.0000 C   0  0  0  0  0  0  0  0  0  0  0  0
   11.1972    5.5000    0.0000 C   0  0  0  0  0  0  0  0  0  0  0  0
    3.5953   -3.6492    0.0000 C   0  0  0  0  0  0  0  0  0  0  0  0
   11.1972    6.5000    0.0000 C   0  0  0  0  0  0  0  0  0  0  0  0
   12.0632    7.0000    0.0000 C   0  0  0  0  0  0  0  0  0  0  0  0
    5.1350   -5.6200    0.0000 H   0  0  0  0  0  0  0  0  0  0  0  0
    4.9230   -3.4174    0.0000 H   0  0  0  0  0  0  0  0  0  0  0  0
    4.5244   -4.1077    0.0000 H   0  0  0  0  0  0  0  0  0  0  0  0
    6.2131   -4.0826    0.0000 H   0  0  0  0  0  0  0  0  0  0  0  0
    6.6116   -3.3923    0.0000 H   0  0  0  0  0  0  0  0  0  0  0  0
    5.7890   -1.9174    0.0000 H   0  0  0  0  0  0  0  0  0  0  0  0
    5.3905   -2.6077    0.0000 H   0  0  0  0  0  0  0  0  0  0  0  0
    7.0791   -2.5826    0.0000 H   0  0  0  0  0  0  0  0  0  0  0  0
    7.4776   -1.8923    0.0000 H   0  0  0  0  0  0  0  0  0  0  0  0
    6.6550   -0.4174    0.0000 H   0  0  0  0  0  0  0  0  0  0  0  0
    6.2565   -1.1077    0.0000 H   0  0  0  0  0  0  0  0  0  0  0  0
    7.9451   -1.0826    0.0000 H   0  0  0  0  0  0  0  0  0  0  0  0
    8.3437   -0.3923    0.0000 H   0  0  0  0  0  0  0  0  0  0  0  0
    7.5210    1.0826    0.0000 H   0  0  0  0  0  0  0  0  0  0  0  0
    7.1225    0.3923    0.0000 H   0  0  0  0  0  0  0  0  0  0  0  0
    8.8112    0.4174    0.0000 H   0  0  0  0  0  0  0  0  0  0  0  0
    9.2097    1.1077    0.0000 H   0  0  0  0  0  0  0  0  0  0  0  0
    8.3871    2.5826    0.0000 H   0  0  0  0  0  0  0  0  0  0  0  0
    7.9885    1.8923    0.0000 H   0  0  0  0  0  0  0  0  0  0  0  0
    9.6772    1.9174    0.0000 H   0  0  0  0  0  0  0  0  0  0  0  0
   10.0757    2.6077    0.0000 H   0  0  0  0  0  0  0  0  0  0  0  0
    3.1657   -4.4910    0.0000 H   0  0  0  0  0  0  0  0  0  0  0  0
    4.3516   -4.4219    0.0000 H   0  0  0  0  0  0  0  0  0  0  0  0
    9.2531    4.0826    0.0000 H   0  0  0  0  0  0  0  0  0  0  0  0
    8.8546    3.3923    0.0000 H   0  0  0  0  0  0  0  0  0  0  0  0
   10.5432    3.4174    0.0000 H   0  0  0  0  0  0  0  0  0  0  0  0
   10.9417    4.1077    0.0000 H   0  0  0  0  0  0  0  0  0  0  0  0
   10.1191    5.5826    0.0000 H   0  0  0  0  0  0  0  0  0  0  0  0
    9.7206    4.8923    0.0000 H   0  0  0  0  0  0  0  0  0  0  0  0
    4.4590   -6.9030    0.0000 H   0  0  0  0  0  0  0  0  0  0  0  0
   11.4092    4.9174    0.0000 H   0  0  0  0  0  0  0  0  0  0  0  0
   11.8078    5.6077    0.0000 H   0  0  0  0  0  0  0  0  0  0  0  0
   10.9851    7.0826    0.0000 H   0  0  0  0  0  0  0  0  0  0  0  0
   10.5866    6.3923    0.0000 H   0  0  0  0  0  0  0  0  0  0  0  0
    7.4040   -5.3100    0.0000 H   0  0  0  0  0  0  0  0  0  0  0  0
    2.0000   -5.8100    0.0000 H   0  0  0  0  0  0  0  0  0  0  0  0
   12.3732    6.4631    0.0000 H   0  0  0  0  0  0  0  0  0  0  0  0
   12.6002    7.3100    0.0000 H   0  0  0  0  0  0  0  0  0  0  0  0
   11.7532    7.5369    0.0000 H   0  0  0  0  0  0  0  0  0  0  0  0
    2.1807   -3.7057    0.0000 H   0  0  0  0  0  0  0  0  0  0  0  0
  1 11  1  0  0  0  0
  1 59  1  0  0  0  0
  2 23  1  0  0  0  0
  2 64  1  0  0  0  0
  3 24  1  0  0  0  0
  3 65  1  0  0  0  0
  4 23  2  0  0  0  0
  5 24  2  0  0  0  0
  6 27  1  0  0  0  0
  6 69  1  0  0  0  0
  7 27  2  0  0  0  0
  8  9  1  0  0  0  0
  8 11  1  0  0  0  0
  8 23  1  0  0  0  0
  8 30  1  0  0  0  0
  9 10  1  0  0  0  0
  9 31  1  0  0  0  0
  9 32  1  0  0  0  0
 10 12  1  0  0  0  0
 10 33  1  0  0  0  0
 10 34  1  0  0  0  0
 11 20  1  0  0  0  0
 11 24  1  0  0  0  0
 12 13  1  0  0  0  0
 12 35  1  0  0  0  0
 12 36  1  0  0  0  0
 13 14  1  0  0  0  0
 13 37  1  0  0  0  0
 13 38  1  0  0  0  0
 14 15  1  0  0  0  0
 14 39  1  0  0  0  0
 14 40  1  0  0  0  0
 15 16  1  0  0  0  0
 15 41  1  0  0  0  0
 15 42  1  0  0  0  0
 16 17  1  0  0  0  0
 16 43  1  0  0  0  0
 16 44  1  0  0  0  0
 17 18  1  0  0  0  0
 17 45  1  0  0  0  0
 17 46  1  0  0  0  0
 18 19  1  0  0  0  0
 18 47  1  0  0  0  0
 18 48  1  0  0  0  0
 19 21  1  0  0  0  0
 19 49  1  0  0  0  0
 19 50  1  0  0  0  0
 20 27  1  0  0  0  0
 20 51  1  0  0  0  0
 20 52  1  0  0  0  0
 21 22  1  0  0  0  0
 21 53  1  0  0  0  0
 21 54  1  0  0  0  0
 22 25  1  0  0  0  0
 22 55  1  0  0  0  0
 22 56  1  0  0  0  0
 25 26  1  0  0  0  0
 25 57  1  0  0  0  0
 25 58  1  0  0  0  0
 26 28  1  0  0  0  0
 26 60  1  0  0  0  0
 26 61  1  0  0  0  0
 28 29  1  0  0  0  0
 28 62  1  0  0  0  0
 28 63  1  0  0  0  0
 29 66  1  0  0  0  0
 29 67  1  0  0  0  0
 29 68  1  0  0  0  0
M  END
> <PUBCHEM_COMPOUND_CID>
12629

> <PUBCHEM_COMPOUND_CANONICALIZED>
1

> <PUBCHEM_CACTVS_COMPLEXITY>
478

> <PUBCHEM_CACTVS_HBOND_ACCEPTOR>
7

> <PUBCHEM_CACTVS_HBOND_DONOR>
4

> <PUBCHEM_CACTVS_ROTATABLE_BOND>
20

> <PUBCHEM_CACTVS_SUBSKEYS>
AAADcfB4OAAAAAAAAAAAAAAAAAAAAAAAAAAAAAAAAAAAAAAAAAAAGgAACAAADUSAgAACCAAAAgAIAACQCAIAAAAAAAAAAAFAAAABABYAAAAAQAAFIAABAAHL7uCOgAAAAAAAAAAAAAAAAAAAAAAAAAAAAA==

> <PUBCHEM_IUPAC_OPENEYE_NAME>
2-hydroxynonadecane-1,2,3-tricarboxylic acid

> <PUBCHEM_IUPAC_CAS_NAME>
2-hydroxynonadecane-1,2,3-tricarboxylic acid

> <PUBCHEM_IUPAC_NAME>
2-hydroxynonadecane-1,2,3-tricarboxylic acid

> <PUBCHEM_IUPAC_SYSTEMATIC_NAME>
2-oxidanylnonadecane-1,2,3-tricarboxylic acid

> <PUBCHEM_IUPAC_TRADITIONAL_NAME>
2-hydroxynonadecane-1,2,3-tricarboxylic acid

> <PUBCHEM_IUPAC_INCHI>
InChI=1S/C22H40O7/c1-2-3-4-5-6-7-8-9-10-11-12-13-14-15-16-18(20(25)26)22(29,21(27)28)17-19(23)24/h18,29H,2-17H2,1H3,(H,23,24)(H,25,26)(H,27,28)

> <PUBCHEM_IUPAC_INCHIKEY>
HZLCGUXUOFWCCN-UHFFFAOYSA-N

> <PUBCHEM_XLOGP3_AA>
6.5

> <PUBCHEM_EXACT_MASS>
416.277404

> <PUBCHEM_MOLECULAR_FORMULA>
C22H40O7

> <PUBCHEM_MOLECULAR_WEIGHT>
416.5488

> <PUBCHEM_OPENEYE_CAN_SMILES>
CCCCCCCCCCCCCCCCC(C(=O)O)C(CC(=O)O)(C(=O)O)O

> <PUBCHEM_OPENEYE_ISO_SMILES>
CCCCCCCCCCCCCCCCC(C(=O)O)C(CC(=O)O)(C(=O)O)O

> <PUBCHEM_CACTVS_TPSA>
132

> <PUBCHEM_MONOISOTOPIC_WEIGHT>
416.277404

> <PUBCHEM_TOTAL_CHARGE>
0

> <PUBCHEM_HEAVY_ATOM_COUNT>
29

> <PUBCHEM_ATOM_DEF_STEREO_COUNT>
0

> <PUBCHEM_ATOM_UDEF_STEREO_COUNT>
2

> <PUBCHEM_BOND_DEF_STEREO_COUNT>
0

> <PUBCHEM_BOND_UDEF_STEREO_COUNT>
0

> <PUBCHEM_ISOTOPIC_ATOM_COUNT>
0

> <PUBCHEM_COMPONENT_COUNT>
1

> <PUBCHEM_CACTVS_TAUTO_COUNT>
1

> <PUBCHEM_COORDINATE_TYPE>
1
5
255

> <PUBCHEM_BONDANNOTATIONS>
11  1  3
8  23  3

$$$$

