7752
  -OEChem-06261202172D

 16 15  0     0  0  0  0  0  0999 V2000
    3.7320    0.4400    0.0000 O   0  0  0  0  0  0  0  0  0  0  0  0
    4.5981   -1.0600    0.0000 O   0  0  0  0  0  0  0  0  0  0  0  0
    5.4641    0.4400    0.0000 N   0  0  0  0  0  0  0  0  0  0  0  0
    2.8660   -0.0600    0.0000 C   0  0  0  0  0  0  0  0  0  0  0  0
    2.0000    0.4400    0.0000 C   0  0  0  0  0  0  0  0  0  0  0  0
    4.5981   -0.0600    0.0000 C   0  0  0  0  0  0  0  0  0  0  0  0
    6.3301   -0.0600    0.0000 C   0  0  0  0  0  0  0  0  0  0  0  0
    2.4675   -0.5349    0.0000 H   0  0  0  0  0  0  0  0  0  0  0  0
    3.2646   -0.5349    0.0000 H   0  0  0  0  0  0  0  0  0  0  0  0
    2.3100    0.9769    0.0000 H   0  0  0  0  0  0  0  0  0  0  0  0
    1.4631    0.7500    0.0000 H   0  0  0  0  0  0  0  0  0  0  0  0
    1.6900   -0.0969    0.0000 H   0  0  0  0  0  0  0  0  0  0  0  0
    5.4641    1.0600    0.0000 H   0  0  0  0  0  0  0  0  0  0  0  0
    6.0201   -0.5969    0.0000 H   0  0  0  0  0  0  0  0  0  0  0  0
    6.8671   -0.3700    0.0000 H   0  0  0  0  0  0  0  0  0  0  0  0
    6.6401    0.4769    0.0000 H   0  0  0  0  0  0  0  0  0  0  0  0
  1  4  1  0  0  0  0
  1  6  1  0  0  0  0
  2  6  2  0  0  0  0
  3  6  1  0  0  0  0
  3  7  1  0  0  0  0
  3 13  1  0  0  0  0
  4  5  1  0  0  0  0
  4  8  1  0  0  0  0
  4  9  1  0  0  0  0
  5 10  1  0  0  0  0
  5 11  1  0  0  0  0
  5 12  1  0  0  0  0
  7 14  1  0  0  0  0
  7 15  1  0  0  0  0
  7 16  1  0  0  0  0
M  END
> <PUBCHEM_COMPOUND_CID>
7752

> <PUBCHEM_COMPOUND_CANONICALIZED>
1

> <PUBCHEM_CACTVS_COMPLEXITY>
62.7

> <PUBCHEM_CACTVS_HBOND_ACCEPTOR>
2

> <PUBCHEM_CACTVS_HBOND_DONOR>
1

> <PUBCHEM_CACTVS_ROTATABLE_BOND>
2

> <PUBCHEM_CACTVS_SUBSKEYS>
AAADccBiMAAAAAAAAAAAAAAAAAAAAAAAAAAAAAAAAAAAAAAAAAAAHgAQAAAAAACggAYCCALABAAIAAAAGAAAAAAAAAAAAIAIAAEAAAAAAAAIAAAAAgAAAAAAAAAAAAAAAAAAAAAAAAAAAAAAAAAAAAAAAA==

> <PUBCHEM_IUPAC_OPENEYE_NAME>
ethyl N-methylcarbamate

> <PUBCHEM_IUPAC_CAS_NAME>
N-methylcarbamic acid ethyl ester

> <PUBCHEM_IUPAC_NAME>
ethyl N-methylcarbamate

> <PUBCHEM_IUPAC_SYSTEMATIC_NAME>
ethyl N-methylcarbamate

> <PUBCHEM_IUPAC_TRADITIONAL_NAME>
N-methylcarbamic acid ethyl ester

> <PUBCHEM_IUPAC_INCHI>
InChI=1S/C4H9NO2/c1-3-7-4(6)5-2/h3H2,1-2H3,(H,5,6)

> <PUBCHEM_IUPAC_INCHIKEY>
SURZCVYFPAXNGN-UHFFFAOYSA-N

> <PUBCHEM_XLOGP3>
0.3

> <PUBCHEM_EXACT_MASS>
103.063329

> <PUBCHEM_MOLECULAR_FORMULA>
C4H9NO2

> <PUBCHEM_MOLECULAR_WEIGHT>
103.11976

> <PUBCHEM_OPENEYE_CAN_SMILES>
CCOC(=O)NC

> <PUBCHEM_OPENEYE_ISO_SMILES>
CCOC(=O)NC

> <PUBCHEM_CACTVS_TPSA>
38.3

> <PUBCHEM_MONOISOTOPIC_WEIGHT>
103.063329

> <PUBCHEM_TOTAL_CHARGE>
0

> <PUBCHEM_HEAVY_ATOM_COUNT>
7

> <PUBCHEM_ATOM_DEF_STEREO_COUNT>
0

> <PUBCHEM_ATOM_UDEF_STEREO_COUNT>
0

> <PUBCHEM_BOND_DEF_STEREO_COUNT>
0

> <PUBCHEM_BOND_UDEF_STEREO_COUNT>
0

> <PUBCHEM_ISOTOPIC_ATOM_COUNT>
0

> <PUBCHEM_COMPONENT_COUNT>
1

> <PUBCHEM_CACTVS_TAUTO_COUNT>
2

> <PUBCHEM_COORDINATE_TYPE>
1
5
255

$$$$

