441898
  -OEChem-07051212563D

 93 99  0     1  0  0  0  0  0999 V2000
    5.4562   -0.0316    0.8853 O   0  0  0  0  0  0  0  0  0  0  0  0
    6.7778   -0.1816   -1.0650 O   0  0  0  0  0  0  0  0  0  0  0  0
   -4.3181   -0.1099   -0.0755 O   0  0  0  0  0  0  0  0  0  0  0  0
   -4.0847   -1.3966   -2.4993 O   0  0  0  0  0  0  0  0  0  0  0  0
   -3.2436   -3.9700   -1.4798 O   0  0  0  0  0  0  0  0  0  0  0  0
   -5.0083    2.0462   -0.7711 O   0  0  0  0  0  0  0  0  0  0  0  0
   -7.3838    0.6946   -1.8535 O   0  0  0  0  0  0  0  0  0  0  0  0
   -6.6319    0.0477    1.6608 O   0  0  0  0  0  0  0  0  0  0  0  0
   -7.3783    2.6954    1.9538 O   0  0  0  0  0  0  0  0  0  0  0  0
    2.3467    0.5905   -0.3511 C   0  0  1  0  0  0  0  0  0  0  0  0
    1.9669   -0.6909    0.4327 C   0  0  2  0  0  0  0  0  0  0  0  0
    0.5755   -0.6162    1.0698 C   0  0  1  0  0  0  0  0  0  0  0  0
    3.7885    0.2156   -0.8071 C   0  0  2  0  0  0  0  0  0  0  0  0
   -0.4792   -0.4133   -0.0674 C   0  0  1  0  0  0  0  0  0  0  0  0
   -1.9538   -0.3682    0.4897 C   0  0  2  0  0  0  0  0  0  0  0  0
    4.3267   -0.6905    0.3214 C   0  0  2  0  0  0  0  0  0  0  0  0
    3.1883   -0.9217    1.3157 C   0  0  0  0  0  0  0  0  0  0  0  0
    1.3412    0.7393   -1.5025 C   0  0  0  0  0  0  0  0  0  0  0  0
   -0.1125    0.7790   -0.9931 C   0  0  0  0  0  0  0  0  0  0  0  0
    4.8538    1.3101   -0.9377 C   0  0  1  0  0  0  0  0  0  0  0  0
   -2.2231   -1.6606    1.3384 C   0  0  2  0  0  0  0  0  0  0  0  0
    0.2675   -1.8695    1.8986 C   0  0  0  0  0  0  0  0  0  0  0  0
    6.0673    0.7132   -0.1970 C   0  0  1  0  0  0  0  0  0  0  0  0
   -1.1621   -1.8696    2.4334 C   0  0  0  0  0  0  0  0  0  0  0  0
   -3.0168   -0.2959   -0.6557 C   0  0  1  0  0  0  0  0  0  0  0  0
    2.3140    1.8722    0.5202 C   0  0  0  0  0  0  0  0  0  0  0  0
   -2.3423   -2.9318    0.4694 C   0  0  0  0  0  0  0  0  0  0  0  0
   -2.1588    0.8819    1.3912 C   0  0  0  0  0  0  0  0  0  0  0  0
   -3.0575   -1.5603   -1.5201 C   0  0  1  0  0  0  0  0  0  0  0  0
   -3.3473   -2.7981   -0.6720 C   0  0  1  0  0  0  0  0  0  0  0  0
    5.1097    1.7053   -2.3870 C   0  0  0  0  0  0  0  0  0  0  0  0
    6.9611    1.7944    0.4216 C   0  0  0  0  0  0  0  0  0  0  0  0
    8.1739    1.1706    1.1116 C   0  0  0  0  0  0  0  0  0  0  0  0
    8.1875    0.0036   -1.1301 C   0  0  0  0  0  0  0  0  0  0  0  0
    8.8325    0.0788    0.2546 C   0  0  2  0  0  0  0  0  0  0  0  0
   -5.1647    0.6338   -0.9466 C   0  0  2  0  0  0  0  0  0  0  0  0
    8.7708   -1.2787    0.9607 C   0  0  0  0  0  0  0  0  0  0  0  0
   -6.6249    0.1978   -0.7527 C   0  0  1  0  0  0  0  0  0  0  0  0
   -7.2185    0.7329    0.5550 C   0  0  2  0  0  0  0  0  0  0  0  0
   -5.4561    2.5208    0.4961 C   0  0  0  0  0  0  0  0  0  0  0  0
   -6.9398    2.2317    0.6843 C   0  0  2  0  0  0  0  0  0  0  0  0
    1.9379   -1.5358   -0.2769 H   0  0  0  0  0  0  0  0  0  0  0  0
    0.5506    0.2319    1.7596 H   0  0  0  0  0  0  0  0  0  0  0  0
    3.7327   -0.3871   -1.7241 H   0  0  0  0  0  0  0  0  0  0  0  0
   -0.3997   -1.3017   -0.7087 H   0  0  0  0  0  0  0  0  0  0  0  0
    4.6608   -1.6500   -0.0942 H   0  0  0  0  0  0  0  0  0  0  0  0
    3.2357   -0.2339    2.1662 H   0  0  0  0  0  0  0  0  0  0  0  0
    3.2208   -1.9402    1.7160 H   0  0  0  0  0  0  0  0  0  0  0  0
    1.4400   -0.1027   -2.2001 H   0  0  0  0  0  0  0  0  0  0  0  0
    1.5525    1.6457   -2.0825 H   0  0  0  0  0  0  0  0  0  0  0  0
   -0.2903    1.7290   -0.4797 H   0  0  0  0  0  0  0  0  0  0  0  0
   -0.7606    0.7799   -1.8759 H   0  0  0  0  0  0  0  0  0  0  0  0
    4.5513    2.2142   -0.4044 H   0  0  0  0  0  0  0  0  0  0  0  0
   -3.1893   -1.5447    1.8502 H   0  0  0  0  0  0  0  0  0  0  0  0
    0.9563   -1.9304    2.7498 H   0  0  0  0  0  0  0  0  0  0  0  0
    0.4422   -2.7707    1.2992 H   0  0  0  0  0  0  0  0  0  0  0  0
   -1.3495   -2.8133    2.9602 H   0  0  0  0  0  0  0  0  0  0  0  0
   -1.2591   -1.0812    3.1897 H   0  0  0  0  0  0  0  0  0  0  0  0
   -2.8001    0.5743   -1.2866 H   0  0  0  0  0  0  0  0  0  0  0  0
    3.0681    1.8564    1.3135 H   0  0  0  0  0  0  0  0  0  0  0  0
    2.4937    2.7621   -0.0940 H   0  0  0  0  0  0  0  0  0  0  0  0
    1.3499    2.0356    1.0079 H   0  0  0  0  0  0  0  0  0  0  0  0
   -1.3702   -3.2185    0.0509 H   0  0  0  0  0  0  0  0  0  0  0  0
   -2.6352   -3.7808    1.1016 H   0  0  0  0  0  0  0  0  0  0  0  0
   -1.3705    1.0059    2.1368 H   0  0  0  0  0  0  0  0  0  0  0  0
   -2.1930    1.8010    0.7968 H   0  0  0  0  0  0  0  0  0  0  0  0
   -3.0973    0.8153    1.9513 H   0  0  0  0  0  0  0  0  0  0  0  0
   -2.1208   -1.7003   -2.0710 H   0  0  0  0  0  0  0  0  0  0  0  0
   -4.3732   -2.7659   -0.2864 H   0  0  0  0  0  0  0  0  0  0  0  0
    5.3945    0.8457   -3.0023 H   0  0  0  0  0  0  0  0  0  0  0  0
    4.2077    2.1436   -2.8269 H   0  0  0  0  0  0  0  0  0  0  0  0
    5.9107    2.4482   -2.4522 H   0  0  0  0  0  0  0  0  0  0  0  0
    6.4048    2.3875    1.1575 H   0  0  0  0  0  0  0  0  0  0  0  0
    7.3121    2.4857   -0.3543 H   0  0  0  0  0  0  0  0  0  0  0  0
    8.9041    1.9624    1.3203 H   0  0  0  0  0  0  0  0  0  0  0  0
    7.8748    0.7741    2.0897 H   0  0  0  0  0  0  0  0  0  0  0  0
    8.3967    0.9110   -1.7094 H   0  0  0  0  0  0  0  0  0  0  0  0
    8.6044   -0.8320   -1.7028 H   0  0  0  0  0  0  0  0  0  0  0  0
    9.8938    0.3270    0.1261 H   0  0  0  0  0  0  0  0  0  0  0  0
   -3.7344   -0.8031   -3.1862 H   0  0  0  0  0  0  0  0  0  0  0  0
   -4.9253    0.4994   -2.0001 H   0  0  0  0  0  0  0  0  0  0  0  0
   -3.4517   -4.7347   -0.9162 H   0  0  0  0  0  0  0  0  0  0  0  0
    9.2678   -2.0490    0.3616 H   0  0  0  0  0  0  0  0  0  0  0  0
    9.2790   -1.2331    1.9299 H   0  0  0  0  0  0  0  0  0  0  0  0
    7.7394   -1.6012    1.1347 H   0  0  0  0  0  0  0  0  0  0  0  0
   -6.6770   -0.8974   -0.7702 H   0  0  0  0  0  0  0  0  0  0  0  0
   -8.3001    0.5619    0.6026 H   0  0  0  0  0  0  0  0  0  0  0  0
   -5.2808    3.6018    0.5302 H   0  0  0  0  0  0  0  0  0  0  0  0
   -4.8557    2.0933    1.3046 H   0  0  0  0  0  0  0  0  0  0  0  0
   -7.5124    2.7628   -0.0859 H   0  0  0  0  0  0  0  0  0  0  0  0
   -8.3003    0.3913   -1.7375 H   0  0  0  0  0  0  0  0  0  0  0  0
   -6.8253   -0.8993    1.5543 H   0  0  0  0  0  0  0  0  0  0  0  0
   -7.1861    3.6475    2.0009 H   0  0  0  0  0  0  0  0  0  0  0  0
  1 16  1  0  0  0  0
  1 23  1  0  0  0  0
  2 23  1  0  0  0  0
  2 34  1  0  0  0  0
  3 25  1  0  0  0  0
  3 36  1  0  0  0  0
  4 29  1  0  0  0  0
  4 80  1  0  0  0  0
  5 30  1  0  0  0  0
  5 82  1  0  0  0  0
  6 36  1  0  0  0  0
  6 40  1  0  0  0  0
  7 38  1  0  0  0  0
  7 91  1  0  0  0  0
  8 39  1  0  0  0  0
  8 92  1  0  0  0  0
  9 41  1  0  0  0  0
  9 93  1  0  0  0  0
 10 11  1  0  0  0  0
 10 13  1  0  0  0  0
 10 18  1  0  0  0  0
 10 26  1  0  0  0  0
 11 12  1  0  0  0  0
 11 17  1  0  0  0  0
 11 42  1  0  0  0  0
 12 14  1  0  0  0  0
 12 22  1  0  0  0  0
 12 43  1  0  0  0  0
 13 16  1  0  0  0  0
 13 20  1  0  0  0  0
 13 44  1  0  0  0  0
 14 15  1  0  0  0  0
 14 19  1  0  0  0  0
 14 45  1  0  0  0  0
 15 21  1  0  0  0  0
 15 25  1  0  0  0  0
 15 28  1  0  0  0  0
 16 17  1  0  0  0  0
 16 46  1  0  0  0  0
 17 47  1  0  0  0  0
 17 48  1  0  0  0  0
 18 19  1  0  0  0  0
 18 49  1  0  0  0  0
 18 50  1  0  0  0  0
 19 51  1  0  0  0  0
 19 52  1  0  0  0  0
 20 23  1  0  0  0  0
 20 31  1  0  0  0  0
 20 53  1  0  0  0  0
 21 24  1  0  0  0  0
 21 27  1  0  0  0  0
 21 54  1  0  0  0  0
 22 24  1  0  0  0  0
 22 55  1  0  0  0  0
 22 56  1  0  0  0  0
 23 32  1  0  0  0  0
 24 57  1  0  0  0  0
 24 58  1  0  0  0  0
 25 29  1  0  0  0  0
 25 59  1  0  0  0  0
 26 60  1  0  0  0  0
 26 61  1  0  0  0  0
 26 62  1  0  0  0  0
 27 30  1  0  0  0  0
 27 63  1  0  0  0  0
 27 64  1  0  0  0  0
 28 65  1  0  0  0  0
 28 66  1  0  0  0  0
 28 67  1  0  0  0  0
 29 30  1  0  0  0  0
 29 68  1  0  0  0  0
 30 69  1  0  0  0  0
 31 70  1  0  0  0  0
 31 71  1  0  0  0  0
 31 72  1  0  0  0  0
 32 33  1  0  0  0  0
 32 73  1  0  0  0  0
 32 74  1  0  0  0  0
 33 35  1  0  0  0  0
 33 75  1  0  0  0  0
 33 76  1  0  0  0  0
 34 35  1  0  0  0  0
 34 77  1  0  0  0  0
 34 78  1  0  0  0  0
 35 37  1  0  0  0  0
 35 79  1  0  0  0  0
 36 38  1  0  0  0  0
 36 81  1  0  0  0  0
 37 83  1  0  0  0  0
 37 84  1  0  0  0  0
 37 85  1  0  0  0  0
 38 39  1  0  0  0  0
 38 86  1  0  0  0  0
 39 41  1  0  0  0  0
 39 87  1  0  0  0  0
 40 41  1  0  0  0  0
 40 88  1  0  0  0  0
 40 89  1  0  0  0  0
 41 90  1  0  0  0  0
M  END
> <PUBCHEM_COMPOUND_CID>
441898

> <PUBCHEM_CONFORMER_RMSD>
1

> <PUBCHEM_CONFORMER_DIVERSEORDER>
1
2

> <PUBCHEM_MMFF94_PARTIAL_CHARGES>
25
1 -0.56
16 0.28
2 -0.56
23 0.56
25 0.28
29 0.28
3 -0.56
30 0.28
34 0.28
36 0.56
38 0.28
39 0.28
4 -0.68
40 0.28
41 0.28
5 -0.68
6 -0.56
7 -0.68
8 -0.68
80 0.4
82 0.4
9 -0.68
91 0.4
92 0.4
93 0.4

> <PUBCHEM_EFFECTIVE_ROTOR_COUNT>
6.4

> <PUBCHEM_PHARMACOPHORE_FEATURES>
21
1 1 acceptor
1 2 acceptor
1 3 acceptor
1 4 acceptor
1 4 donor
1 5 acceptor
1 5 donor
1 6 acceptor
1 7 acceptor
1 7 donor
1 8 acceptor
1 8 donor
1 9 acceptor
1 9 donor
5 1 13 16 20 23 rings
5 10 11 13 16 17 rings
6 10 11 12 14 18 19 rings
6 12 14 15 21 22 24 rings
6 15 21 25 27 29 30 rings
6 2 23 32 33 34 35 rings
6 6 36 38 39 40 41 rings

> <PUBCHEM_HEAVY_ATOM_COUNT>
41

> <PUBCHEM_ATOM_DEF_STEREO_COUNT>
18

> <PUBCHEM_ATOM_UDEF_STEREO_COUNT>
0

> <PUBCHEM_BOND_DEF_STEREO_COUNT>
0

> <PUBCHEM_BOND_UDEF_STEREO_COUNT>
0

> <PUBCHEM_ISOTOPIC_ATOM_COUNT>
0

> <PUBCHEM_COMPONENT_COUNT>
1

> <PUBCHEM_CACTVS_TAUTO_COUNT>
1

> <PUBCHEM_CONFORMER_ID>
0006BE2A00000001

> <PUBCHEM_MMFF94_ENERGY>
164.7782

> <PUBCHEM_FEATURE_SELFOVERLAP>
107.076

> <PUBCHEM_SHAPE_FINGERPRINT>
10 15 15482670177937940189
10076449 9 15285360592263040671
10190206 1 15358250611451133931
10391435 84 14562823131603254030
10985338 8 17979650244858584665
11007060 377 17417819388168464095
11135926 11 17988655098813514986
11136131 41 17130719468192807059
11181472 205 18114453557558641928
11315181 36 16298384630370211131
11456790 92 18202289113221989104
12082328 90 18334581213386691351
12373685 5 17458625657546784862
13782708 43 18334011680408830854
13811026 1 18341891887727195206
13914758 101 18260267451990752384
13947920 75 18187083966409141281
14394314 77 18270960267149468525
14444916 359 17060617819763398722
14856354 85 17560795499362080147
15064986 266 17844800404281949915
15131766 46 14905328614073854694
15183329 4 16988573355762169166
15297060 5 18411420613663921002
15392192 29 17846773002184850158
15439362 3 18116707620435145903
1577012 14 18337675316864771169
15849732 13 17346877853871444205
16112460 7 17917434271720397848
20105231 36 15985101942747669880
20505436 4 18341335578273593155
21033648 29 18337966580636491232
21033650 10 17386005092306932939
21223535 225 18261112997749866093
21756936 100 18412825790183360851
21927370 108 16199296583363991475
23389318 12 6411286949912346512
23559900 14 17895764988779895576
249057 3 18408042887967717701
335352 9 17704071785788040030
3610482 184 18271796874842327439
4073 2 18341612565046045066
4093350 32 18335983168649322546
4112364 45 14620214323312641798
44280117 145 18190747419179111038
4461854 278 9439116602435808208
44880568 143 18261109617947791952
4516262 110 18044091483797848721
4625314 4 17822009779892643380
4760202 70 9006471932759240170
5104073 3 16987997164424711032
5265222 85 17749678376513972207
5969126 39 5833994927789384323
6009941 240 17676487233221683486
6086070 43 18188213105016692120
6126387 218 18113341908326601928
6201320 215 18042407017754353680
6523845 18 16630531704517062033
6691757 9 18260820501802243163
6698420 124 18131626781415275256

> <PUBCHEM_SHAPE_MULTIPOLES>
790.94
25.25
2.74
1.94
21.8
1.21
0.26
-11.53
-1.4
-3.82
-0.08
-1.55
0.28
-2.56

> <PUBCHEM_SHAPE_SELFOVERLAP>
1697.88

> <PUBCHEM_SHAPE_VOLUME>
432.8

> <PUBCHEM_COORDINATE_TYPE>
2
5
10

$$$$

