17396400
  -OEChem-06241222562D

 36 38  0     0  0  0  0  0  0999 V2000
    8.9851   -3.4313    0.0000 S   0  0  0  0  0  0  0  0  0  0  0  0
    5.5000   -0.8945    0.0000 O   0  0  0  0  0  0  0  0  0  0  0  0
    2.5000    2.5696    0.0000 O   0  0  0  0  0  0  0  0  0  0  0  0
    8.0388   -2.1266    0.0000 N   0  0  0  0  0  0  0  0  0  0  0  0
    7.0878   -3.4356    0.0000 N   0  0  0  0  0  0  0  0  0  0  0  0
    4.0000   -1.7606    0.0000 N   0  0  0  0  0  0  0  0  0  0  0  0
    4.0000    1.7036    0.0000 N   0  0  0  0  0  0  0  0  0  0  0  0
    6.5000   -2.6266    0.0000 C   0  0  0  0  0  0  0  0  0  0  0  0
    5.5000   -2.6266    0.0000 C   0  0  0  0  0  0  0  0  0  0  0  0
    7.0878   -1.8176    0.0000 C   0  0  0  0  0  0  0  0  0  0  0  0
    8.0388   -3.1266    0.0000 C   0  0  0  0  0  0  0  0  0  0  0  0
    5.0000   -1.7606    0.0000 C   0  0  0  0  0  0  0  0  0  0  0  0
    3.5000   -0.8945    0.0000 C   0  0  0  0  0  0  0  0  0  0  0  0
    8.9851   -1.8218    0.0000 C   0  0  0  0  0  0  0  0  0  0  0  0
    4.0000   -0.0285    0.0000 C   0  0  0  0  0  0  0  0  0  0  0  0
    3.5000    0.8375    0.0000 C   0  0  0  0  0  0  0  0  0  0  0  0
    9.5687   -2.6266    0.0000 C   0  0  0  0  0  0  0  0  0  0  0  0
    2.5000   -0.8945    0.0000 C   0  0  0  0  0  0  0  0  0  0  0  0
    2.5000    0.8375    0.0000 C   0  0  0  0  0  0  0  0  0  0  0  0
    2.0000   -0.0285    0.0000 C   0  0  0  0  0  0  0  0  0  0  0  0
    3.5000    2.5696    0.0000 C   0  0  0  0  0  0  0  0  0  0  0  0
    4.0000    3.4356    0.0000 C   0  0  0  0  0  0  0  0  0  0  0  0
    4.9174   -2.8386    0.0000 H   0  0  0  0  0  0  0  0  0  0  0  0
    5.6077   -3.2372    0.0000 H   0  0  0  0  0  0  0  0  0  0  0  0
    6.8962   -1.2279    0.0000 H   0  0  0  0  0  0  0  0  0  0  0  0
    9.1777   -1.2325    0.0000 H   0  0  0  0  0  0  0  0  0  0  0  0
    3.6900   -2.2975    0.0000 H   0  0  0  0  0  0  0  0  0  0  0  0
    4.6200   -0.0285    0.0000 H   0  0  0  0  0  0  0  0  0  0  0  0
   10.1887   -2.6266    0.0000 H   0  0  0  0  0  0  0  0  0  0  0  0
    2.1900   -1.4315    0.0000 H   0  0  0  0  0  0  0  0  0  0  0  0
    2.1900    1.3745    0.0000 H   0  0  0  0  0  0  0  0  0  0  0  0
    1.3800   -0.0285    0.0000 H   0  0  0  0  0  0  0  0  0  0  0  0
    4.6200    1.7036    0.0000 H   0  0  0  0  0  0  0  0  0  0  0  0
    4.5369    3.1256    0.0000 H   0  0  0  0  0  0  0  0  0  0  0  0
    4.3100    3.9725    0.0000 H   0  0  0  0  0  0  0  0  0  0  0  0
    3.4631    3.7456    0.0000 H   0  0  0  0  0  0  0  0  0  0  0  0
  1 11  1  0  0  0  0
  1 17  1  0  0  0  0
  2 12  2  0  0  0  0
  3 21  2  0  0  0  0
  4 10  1  0  0  0  0
  4 11  1  0  0  0  0
  4 14  1  0  0  0  0
  5  8  1  0  0  0  0
  5 11  2  0  0  0  0
  6 12  1  0  0  0  0
  6 13  1  0  0  0  0
  6 27  1  0  0  0  0
  7 16  1  0  0  0  0
  7 21  1  0  0  0  0
  7 33  1  0  0  0  0
  8  9  1  0  0  0  0
  8 10  2  0  0  0  0
  9 12  1  0  0  0  0
  9 23  1  0  0  0  0
  9 24  1  0  0  0  0
 10 25  1  0  0  0  0
 13 15  1  0  0  0  0
 13 18  2  0  0  0  0
 14 17  2  0  0  0  0
 14 26  1  0  0  0  0
 15 16  2  0  0  0  0
 15 28  1  0  0  0  0
 16 19  1  0  0  0  0
 17 29  1  0  0  0  0
 18 20  1  0  0  0  0
 18 30  1  0  0  0  0
 19 20  2  0  0  0  0
 19 31  1  0  0  0  0
 20 32  1  0  0  0  0
 21 22  1  0  0  0  0
 22 34  1  0  0  0  0
 22 35  1  0  0  0  0
 22 36  1  0  0  0  0
M  END
> <PUBCHEM_COMPOUND_CID>
17396400

> <PUBCHEM_COMPOUND_CANONICALIZED>
1

> <PUBCHEM_CACTVS_COMPLEXITY>
434

> <PUBCHEM_CACTVS_HBOND_ACCEPTOR>
4

> <PUBCHEM_CACTVS_HBOND_DONOR>
2

> <PUBCHEM_CACTVS_ROTATABLE_BOND>
4

> <PUBCHEM_CACTVS_SUBSKEYS>
AAADccBzsABAAAAAAAAAAAAAAAAAAWLAAAAwAAAAAAAWAAAB8AAAHgQQAAAACAjF1gS/0ZfMGAisATV3dACC8K1xGrhJ2A04dIiIaHrA3dGUIAholALIyCcUAAAAAAAAAAQAAAAAAAAACAAAAAAAAAAAAA==

> <PUBCHEM_IUPAC_OPENEYE_NAME>
N-(3-acetamidophenyl)-2-imidazo[2,1-b]thiazol-6-yl-acetamide

> <PUBCHEM_IUPAC_CAS_NAME>
N-(3-acetamidophenyl)-2-(6-imidazo[2,1-b]thiazolyl)acetamide

> <PUBCHEM_IUPAC_NAME>
N-(3-acetamidophenyl)-2-imidazo[2,1-b][1,3]thiazol-6-ylacetamide

> <PUBCHEM_IUPAC_SYSTEMATIC_NAME>
N-(3-acetamidophenyl)-2-imidazo[2,1-b][1,3]thiazol-6-yl-ethanamide

> <PUBCHEM_IUPAC_TRADITIONAL_NAME>
N-(3-acetamidophenyl)-2-imidazo[2,1-b]thiazol-6-yl-acetamide

> <PUBCHEM_IUPAC_INCHI>
InChI=1S/C15H14N4O2S/c1-10(20)16-11-3-2-4-12(7-11)17-14(21)8-13-9-19-5-6-22-15(19)18-13/h2-7,9H,8H2,1H3,(H,16,20)(H,17,21)

> <PUBCHEM_IUPAC_INCHIKEY>
YRKUTGXCWQQZDA-UHFFFAOYSA-N

> <PUBCHEM_XLOGP3_AA>
1.8

> <PUBCHEM_EXACT_MASS>
314.083747

> <PUBCHEM_MOLECULAR_FORMULA>
C15H14N4O2S

> <PUBCHEM_MOLECULAR_WEIGHT>
314.36226

> <PUBCHEM_OPENEYE_CAN_SMILES>
CC(=O)NC1=CC(=CC=C1)NC(=O)CC2=CN3C=CSC3=N2

> <PUBCHEM_OPENEYE_ISO_SMILES>
CC(=O)NC1=CC(=CC=C1)NC(=O)CC2=CN3C=CSC3=N2

> <PUBCHEM_CACTVS_TPSA>
104

> <PUBCHEM_MONOISOTOPIC_WEIGHT>
314.083747

> <PUBCHEM_TOTAL_CHARGE>
0

> <PUBCHEM_HEAVY_ATOM_COUNT>
22

> <PUBCHEM_ATOM_DEF_STEREO_COUNT>
0

> <PUBCHEM_ATOM_UDEF_STEREO_COUNT>
0

> <PUBCHEM_BOND_DEF_STEREO_COUNT>
0

> <PUBCHEM_BOND_UDEF_STEREO_COUNT>
0

> <PUBCHEM_ISOTOPIC_ATOM_COUNT>
0

> <PUBCHEM_COMPONENT_COUNT>
1

> <PUBCHEM_CACTVS_TAUTO_COUNT>
9

> <PUBCHEM_COORDINATE_TYPE>
1
5
255

> <PUBCHEM_BONDANNOTATIONS>
1  11  8
1  17  8
13  15  8
13  18  8
14  17  8
15  16  8
16  19  8
18  20  8
19  20  8
4  10  8
4  11  8
4  14  8
5  11  8
5  8  8
8  10  8

$$$$

