80277
  -OEChem-07051213123D

 34 35  0     1  0  0  0  0  0999 V2000
   -0.8650    0.4039    2.6307 Cl  0  0  0  0  0  0  0  0  0  0  0  0
   -1.5515    4.8497   -0.3248 Cl  0  0  0  0  0  0  0  0  0  0  0  0
    3.6641   -2.2317   -0.1046 F   0  0  0  0  0  0  0  0  0  0  0  0
    3.5702   -0.5117   -1.4588 F   0  0  0  0  0  0  0  0  0  0  0  0
    4.1563    1.1741    0.6169 F   0  0  0  0  0  0  0  0  0  0  0  0
    5.6475   -0.3760    0.2813 F   0  0  0  0  0  0  0  0  0  0  0  0
    2.0789   -0.6553    0.2446 O   0  0  0  0  0  0  0  0  0  0  0  0
   -2.6863   -1.7523   -0.3566 N   0  0  0  0  0  0  0  0  0  0  0  0
   -3.4883   -0.8174   -0.8604 N   0  0  0  0  0  0  0  0  0  0  0  0
   -4.5206   -2.0752    0.7473 N   0  0  0  0  0  0  0  0  0  0  0  0
   -0.3000   -1.0164   -0.0449 C   0  0  1  0  0  0  0  0  0  0  0  0
   -1.3143   -1.8813   -0.8446 C   0  0  0  0  0  0  0  0  0  0  0  0
    1.1239   -1.3361   -0.5619 C   0  0  0  0  0  0  0  0  0  0  0  0
   -0.6146    0.4440   -0.0821 C   0  0  0  0  0  0  0  0  0  0  0  0
   -0.8833    1.1647    1.0815 C   0  0  0  0  0  0  0  0  0  0  0  0
   -0.6357    1.0855   -1.3205 C   0  0  0  0  0  0  0  0  0  0  0  0
    3.4148   -0.9016   -0.1715 C   0  0  0  0  0  0  0  0  0  0  0  0
   -1.1731    2.5270    1.0067 C   0  0  0  0  0  0  0  0  0  0  0  0
   -0.9255    2.4478   -1.3953 C   0  0  0  0  0  0  0  0  0  0  0  0
   -3.2873   -2.4973    0.5914 C   0  0  0  0  0  0  0  0  0  0  0  0
   -1.1942    3.1686   -0.2317 C   0  0  0  0  0  0  0  0  0  0  0  0
    4.3809   -0.1597    0.7128 C   0  0  0  0  0  0  0  0  0  0  0  0
   -4.5967   -1.0535   -0.1555 C   0  0  0  0  0  0  0  0  0  0  0  0
   -0.3250   -1.3973    0.9804 H   0  0  0  0  0  0  0  0  0  0  0  0
   -1.3263   -1.6314   -1.9123 H   0  0  0  0  0  0  0  0  0  0  0  0
   -1.0554   -2.9445   -0.7645 H   0  0  0  0  0  0  0  0  0  0  0  0
    1.3029   -2.4161   -0.4947 H   0  0  0  0  0  0  0  0  0  0  0  0
    1.2410   -1.0354   -1.6096 H   0  0  0  0  0  0  0  0  0  0  0  0
   -0.4294    0.5483   -2.2419 H   0  0  0  0  0  0  0  0  0  0  0  0
   -1.3828    3.0908    1.9133 H   0  0  0  0  0  0  0  0  0  0  0  0
   -0.9383    2.9348   -2.3671 H   0  0  0  0  0  0  0  0  0  0  0  0
   -2.8114   -3.3069    1.1265 H   0  0  0  0  0  0  0  0  0  0  0  0
    4.3049   -0.4553    1.7627 H   0  0  0  0  0  0  0  0  0  0  0  0
   -5.4878   -0.4621   -0.3039 H   0  0  0  0  0  0  0  0  0  0  0  0
  1 15  1  0  0  0  0
  2 21  1  0  0  0  0
  3 17  1  0  0  0  0
  4 17  1  0  0  0  0
  5 22  1  0  0  0  0
  6 22  1  0  0  0  0
  7 13  1  0  0  0  0
  7 17  1  0  0  0  0
  8  9  1  0  0  0  0
  8 12  1  0  0  0  0
  8 20  1  0  0  0  0
  9 23  2  0  0  0  0
 10 20  2  0  0  0  0
 10 23  1  0  0  0  0
 11 12  1  0  0  0  0
 11 13  1  0  0  0  0
 11 14  1  0  0  0  0
 11 24  1  0  0  0  0
 12 25  1  0  0  0  0
 12 26  1  0  0  0  0
 13 27  1  0  0  0  0
 13 28  1  0  0  0  0
 14 15  2  0  0  0  0
 14 16  1  0  0  0  0
 15 18  1  0  0  0  0
 16 19  2  0  0  0  0
 16 29  1  0  0  0  0
 17 22  1  0  0  0  0
 18 21  2  0  0  0  0
 18 30  1  0  0  0  0
 19 21  1  0  0  0  0
 19 31  1  0  0  0  0
 20 32  1  0  0  0  0
 22 33  1  0  0  0  0
 23 34  1  0  0  0  0
M  END
> <PUBCHEM_COMPOUND_CID>
80277

> <PUBCHEM_CONFORMER_RMSD>
0.8

> <PUBCHEM_CONFORMER_DIVERSEORDER>
2
69
155
134
145
124
141
86
128
115
47
113
127
130
116
137
1
22
45
28
87
39
147
29
63
34
108
101
111
126
97
151
109
27
91
150
67
10
3
88
21
80
70
50
64
26
112
61
7
121
129
40
143
15
56
154
142
92
66
84
35
44
136
98
38
71
60
103
73
14
138
149
16
54
25
74
11
131
96
52
51
77
107
110
119
140
123
90
46
93
68
118
79
6
144
55
139
82
120
8
5
152
72
43
24
76
41
135
81
153
83
117
95
125
132
75
4
12
53
99
23
122
13
146
85
9
19
17
49
31
37
148
94
78
30
36
105
33
18
106
100
65
57
114
42
20
32
58
133
102
59
62
89
104
48

> <PUBCHEM_MMFF94_PARTIAL_CHARGES>
28
1 -0.18
10 -0.57
11 0.14
12 0.26
13 0.28
14 -0.14
15 0.18
16 -0.15
17 0.96
18 -0.15
19 -0.15
2 -0.18
20 0.04
21 0.18
22 0.68
23 0.37
29 0.15
3 -0.34
30 0.15
31 0.15
32 0.15
34 0.15
4 -0.34
5 -0.34
6 -0.34
7 -0.56
8 0.31
9 -0.71

> <PUBCHEM_EFFECTIVE_ROTOR_COUNT>
7

> <PUBCHEM_PHARMACOPHORE_FEATURES>
5
1 7 acceptor
3 8 10 20 cation
3 9 10 23 cation
5 8 9 10 20 23 rings
6 14 15 16 18 19 21 rings

> <PUBCHEM_HEAVY_ATOM_COUNT>
23

> <PUBCHEM_ATOM_DEF_STEREO_COUNT>
0

> <PUBCHEM_ATOM_UDEF_STEREO_COUNT>
1

> <PUBCHEM_BOND_DEF_STEREO_COUNT>
0

> <PUBCHEM_BOND_UDEF_STEREO_COUNT>
0

> <PUBCHEM_ISOTOPIC_ATOM_COUNT>
0

> <PUBCHEM_COMPONENT_COUNT>
1

> <PUBCHEM_CACTVS_TAUTO_COUNT>
1

> <PUBCHEM_CONFORMER_ID>
0001399500000002

> <PUBCHEM_MMFF94_ENERGY>
36.3498

> <PUBCHEM_FEATURE_SELFOVERLAP>
28.143

> <PUBCHEM_SHAPE_FINGERPRINT>
10670039 82 18339909447795275156
11045515 52 18202284662917802205
11582403 64 16266589206964750557
11833330 49 18341897398212544373
12173636 292 18121787393587167924
12788726 201 18272378593528648810
13004483 165 18411143545328936803
13132413 78 18189331282456213469
13544653 18 18261674783613688743
14170010 4 18190468152068563863
14955137 171 18192981630832738907
17349148 13 16486979513845178034
17357779 13 18188505613526872519
17876694 64 18131624591039957116
17980427 23 17603853487170746961
1813 80 18262785281836302015
18769570 83 18202284727906670777
18785283 64 17693370041282519979
200 152 17203894046002027298
20510252 161 18335707177738947074
20600515 1 18189601783623054695
21041028 32 18339635638891484413
21330990 113 18261392282276567763
21524375 3 17481138329407089008
22182937 141 18117560841189222424
23175994 123 18339921520447027823
23419403 2 17823436945310555961
23557571 272 18410577301309348118
23558518 356 18128529568992814914
23845131 108 17619064371316154849
283562 15 18341899627174035483
312423 11 18271801376406344438
350125 39 18263358252191407574
469060 322 18412254034861122490
5104073 3 18263938790515766178
621550 34 18113901537874969878
68521 5 18410574006879534383
81228 2 18267283486873959087

> <PUBCHEM_SHAPE_MULTIPOLES>
427.16
8.09
4.25
1.47
9.27
5.6
0.69
-6.02
0.53
-4.35
-0.56
-0.32
0.38
0.52

> <PUBCHEM_SHAPE_SELFOVERLAP>
885.579

> <PUBCHEM_SHAPE_VOLUME>
246.5

> <PUBCHEM_COORDINATE_TYPE>
2
5
10

$$$$

