392421
  -OEChem-07051213033D

 53 56  0     1  0  0  0  0  0999 V2000
   -4.8849   -1.7873    0.4695 O   0  0  0  0  0  0  0  0  0  0  0  0
   -0.4464   -3.2568   -0.2850 O   0  0  0  0  0  0  0  0  0  0  0  0
    5.0525    0.3834    0.3438 O   0  0  0  0  0  0  0  0  0  0  0  0
    4.3266    0.0275   -2.1404 O   0  0  0  0  0  0  0  0  0  0  0  0
   -3.7841    2.2372   -0.5895 N   0  0  0  0  0  0  0  0  0  0  0  0
   -2.4198    2.6030   -0.1977 C   0  0  1  0  0  0  0  0  0  0  0  0
   -4.2313    0.9771    0.0291 C   0  0  1  0  0  0  0  0  0  0  0  0
   -1.4338    1.5460   -0.7118 C   0  0  0  0  0  0  0  0  0  0  0  0
   -1.8671    0.1396   -0.3860 C   0  0  0  0  0  0  0  0  0  0  0  0
   -3.2081   -0.1389   -0.0674 C   0  0  0  0  0  0  0  0  0  0  0  0
   -0.9387   -0.9081   -0.4659 C   0  0  0  0  0  0  0  0  0  0  0  0
   -2.0786    3.9771   -0.7729 C   0  0  0  0  0  0  0  0  0  0  0  0
   -3.5912   -1.4672    0.1765 C   0  0  0  0  0  0  0  0  0  0  0  0
   -4.6840    1.2027    1.4779 C   0  0  0  0  0  0  0  0  0  0  0  0
    0.4483   -0.6563   -0.8236 C   0  0  0  0  0  0  0  0  0  0  0  0
   -1.3325   -2.2218   -0.2161 C   0  0  0  0  0  0  0  0  0  0  0  0
   -2.6580   -2.5013    0.1045 C   0  0  0  0  0  0  0  0  0  0  0  0
    1.4338   -0.3744    0.1362 C   0  0  0  0  0  0  0  0  0  0  0  0
    2.7635   -0.1377   -0.2862 C   0  0  0  0  0  0  0  0  0  0  0  0
    0.7688   -0.7047   -2.1804 C   0  0  0  0  0  0  0  0  0  0  0  0
    1.1287   -0.3220    1.5062 C   0  0  0  0  0  0  0  0  0  0  0  0
    3.0684   -0.1901   -1.6561 C   0  0  0  0  0  0  0  0  0  0  0  0
    2.0765   -0.4722   -2.5960 C   0  0  0  0  0  0  0  0  0  0  0  0
    3.7490    0.1446    0.6737 C   0  0  0  0  0  0  0  0  0  0  0  0
    2.1205   -0.0407    2.4462 C   0  0  0  0  0  0  0  0  0  0  0  0
    3.4281    0.1925    2.0307 C   0  0  0  0  0  0  0  0  0  0  0  0
    1.7795    0.0121    3.8973 C   0  0  0  0  0  0  0  0  0  0  0  0
    5.4142    1.7367    0.0836 C   0  0  0  0  0  0  0  0  0  0  0  0
   -2.3523    2.6746    0.8949 H   0  0  0  0  0  0  0  0  0  0  0  0
   -5.1166    0.6691   -0.5427 H   0  0  0  0  0  0  0  0  0  0  0  0
   -0.4584    1.7700   -0.2659 H   0  0  0  0  0  0  0  0  0  0  0  0
   -1.3322    1.6262   -1.8023 H   0  0  0  0  0  0  0  0  0  0  0  0
   -3.8218    2.1393   -1.6049 H   0  0  0  0  0  0  0  0  0  0  0  0
   -1.0649    4.2747   -0.4840 H   0  0  0  0  0  0  0  0  0  0  0  0
   -2.1316    3.9832   -1.8675 H   0  0  0  0  0  0  0  0  0  0  0  0
   -2.7698    4.7398   -0.3974 H   0  0  0  0  0  0  0  0  0  0  0  0
   -5.1932    0.3241    1.8865 H   0  0  0  0  0  0  0  0  0  0  0  0
   -3.8409    1.4255    2.1412 H   0  0  0  0  0  0  0  0  0  0  0  0
   -5.3910    2.0381    1.5368 H   0  0  0  0  0  0  0  0  0  0  0  0
   -2.9587   -3.5294    0.2917 H   0  0  0  0  0  0  0  0  0  0  0  0
    0.0111   -0.9219   -2.9301 H   0  0  0  0  0  0  0  0  0  0  0  0
    0.1195   -0.4994    1.8707 H   0  0  0  0  0  0  0  0  0  0  0  0
    2.3067   -0.5138   -3.6575 H   0  0  0  0  0  0  0  0  0  0  0  0
   -4.9564   -2.7480    0.6026 H   0  0  0  0  0  0  0  0  0  0  0  0
    0.4514   -2.9469   -0.4794 H   0  0  0  0  0  0  0  0  0  0  0  0
    4.2041    0.4095    2.7613 H   0  0  0  0  0  0  0  0  0  0  0  0
    0.7925    0.4617    4.0505 H   0  0  0  0  0  0  0  0  0  0  0  0
    1.7774   -0.9978    4.3195 H   0  0  0  0  0  0  0  0  0  0  0  0
    2.4987    0.6207    4.4558 H   0  0  0  0  0  0  0  0  0  0  0  0
    4.3231   -0.0519   -3.1096 H   0  0  0  0  0  0  0  0  0  0  0  0
    6.3897    1.7427   -0.4105 H   0  0  0  0  0  0  0  0  0  0  0  0
    5.4979    2.2853    1.0269 H   0  0  0  0  0  0  0  0  0  0  0  0
    4.6879    2.2340   -0.5675 H   0  0  0  0  0  0  0  0  0  0  0  0
  1 13  1  0  0  0  0
  1 44  1  0  0  0  0
  2 16  1  0  0  0  0
  2 45  1  0  0  0  0
  3 24  1  0  0  0  0
  3 28  1  0  0  0  0
  4 22  1  0  0  0  0
  4 50  1  0  0  0  0
  5  6  1  0  0  0  0
  5  7  1  0  0  0  0
  5 33  1  0  0  0  0
  6  8  1  0  0  0  0
  6 12  1  0  0  0  0
  6 29  1  0  0  0  0
  7 10  1  0  0  0  0
  7 14  1  0  0  0  0
  7 30  1  0  0  0  0
  8  9  1  0  0  0  0
  8 31  1  0  0  0  0
  8 32  1  0  0  0  0
  9 10  1  0  0  0  0
  9 11  2  0  0  0  0
 10 13  2  0  0  0  0
 11 15  1  0  0  0  0
 11 16  1  0  0  0  0
 12 34  1  0  0  0  0
 12 35  1  0  0  0  0
 12 36  1  0  0  0  0
 13 17  1  0  0  0  0
 14 37  1  0  0  0  0
 14 38  1  0  0  0  0
 14 39  1  0  0  0  0
 15 18  2  0  0  0  0
 15 20  1  0  0  0  0
 16 17  2  0  0  0  0
 17 40  1  0  0  0  0
 18 19  1  0  0  0  0
 18 21  1  0  0  0  0
 19 22  2  0  0  0  0
 19 24  1  0  0  0  0
 20 23  2  0  0  0  0
 20 41  1  0  0  0  0
 21 25  2  0  0  0  0
 21 42  1  0  0  0  0
 22 23  1  0  0  0  0
 23 43  1  0  0  0  0
 24 26  2  0  0  0  0
 25 26  1  0  0  0  0
 25 27  1  0  0  0  0
 26 46  1  0  0  0  0
 27 47  1  0  0  0  0
 27 48  1  0  0  0  0
 27 49  1  0  0  0  0
 28 51  1  0  0  0  0
 28 52  1  0  0  0  0
 28 53  1  0  0  0  0
M  END
> <PUBCHEM_COMPOUND_CID>
392421

> <PUBCHEM_CONFORMER_RMSD>
0.6

> <PUBCHEM_CONFORMER_DIVERSEORDER>
1
3
2
4

> <PUBCHEM_MMFF94_PARTIAL_CHARGES>
31
1 -0.53
10 -0.14
13 0.08
16 0.08
17 -0.15
2 -0.53
20 -0.15
21 -0.15
22 0.08
23 -0.15
24 0.08
25 -0.14
26 -0.15
27 0.14
28 0.28
3 -0.36
33 0.36
4 -0.53
40 0.15
41 0.15
42 0.15
43 0.15
44 0.45
45 0.45
46 0.15
5 -0.9
50 0.45
6 0.27
7 0.41
8 0.14
9 -0.14

> <PUBCHEM_EFFECTIVE_ROTOR_COUNT>
2.8

> <PUBCHEM_PHARMACOPHORE_FEATURES>
10
1 1 donor
1 2 donor
1 3 acceptor
1 4 donor
1 5 cation
1 5 donor
6 15 18 19 20 22 23 rings
6 18 19 21 24 25 26 rings
6 5 6 7 8 9 10 rings
6 9 10 11 13 16 17 rings

> <PUBCHEM_HEAVY_ATOM_COUNT>
28

> <PUBCHEM_ATOM_DEF_STEREO_COUNT>
2

> <PUBCHEM_ATOM_UDEF_STEREO_COUNT>
0

> <PUBCHEM_BOND_DEF_STEREO_COUNT>
0

> <PUBCHEM_BOND_UDEF_STEREO_COUNT>
0

> <PUBCHEM_ISOTOPIC_ATOM_COUNT>
0

> <PUBCHEM_COMPONENT_COUNT>
1

> <PUBCHEM_CACTVS_TAUTO_COUNT>
108

> <PUBCHEM_CONFORMER_ID>
0005FCE500000001

> <PUBCHEM_MMFF94_ENERGY>
98.9221

> <PUBCHEM_FEATURE_SELFOVERLAP>
50.791

> <PUBCHEM_SHAPE_FINGERPRINT>
10165383 225 17973135590913273113
10319926 262 18336841852981231746
10366900 7 17530974600295370737
10369192 42 17315642781853882032
10498660 4 18411980299700588445
11578080 2 17895737569666317045
11582403 64 16740363097599327659
11595378 159 18059859484301344213
11640471 11 17632009865963950164
11725454 13 17605866747983421967
12236239 1 17560806497987386854
12596602 18 17775571905233156056
12788726 201 17988637472467744467
13134695 92 16298668403650050420
13140716 1 18340475674418092617
13583140 156 17970092048275323090
13726171 33 18408598188923002360
13782708 43 17749384841100666382
13911987 19 16588292862083580700
13965767 371 17413590889027176052
14279260 333 16301740529406229942
14739800 52 18126845998338669068
14787075 74 17413869825825374540
15484559 13 14429330604563058040
17138139 8 16841626783047218243
18219364 16 16805611308973931934
20511986 3 17346053237294012709
20600515 1 18265613169939839847
21033648 29 17675930875879381922
21427221 339 17416412184355602384
21792961 116 17676755532198481758
22149856 69 17548973808593392597
23557571 272 18261387810809417557
23559900 14 18262500598709029838
238 59 16299822869110474824
350125 39 17836068349875817887
392239 28 17631451164002528848
4098825 35 18409725146176684924
469060 322 18268408206302930571
474 4 15213596533069363154
5252454 2 18044930414815566465
5265222 85 18336256857182739486
7097593 13 17343241901798754723
7808743 9 18410296921191056384
9849439 229 17908990147253717797

> <PUBCHEM_SHAPE_MULTIPOLES>
547.77
9.48
2.85
2.5
1.85
1.2
1.59
3.12
1.16
-3.88
-0.72
3.14
-0.01
0.75

> <PUBCHEM_SHAPE_SELFOVERLAP>
1214.645

> <PUBCHEM_SHAPE_VOLUME>
294.8

> <PUBCHEM_COORDINATE_TYPE>
2
5
10

$$$$

