242347
  -OEChem-07051213072D

 71 74  0     1  0  0  0  0  0999 V2000
    2.0000   -2.6295    0.0000 O   0  0  0  0  0  0  0  0  0  0  0  0
    7.2395   -0.6219    0.0000 C   0  0  1  0  0  0  0  0  0  0  0  0
    7.2395   -1.6219    0.0000 C   0  0  2  0  0  0  0  0  0  0  0  0
    6.3735   -2.1219    0.0000 C   0  0  1  0  0  0  0  0  0  0  0  0
    5.5075   -1.6219    0.0000 C   0  0  1  0  0  0  0  0  0  0  0  0
    4.5975   -2.1287    0.0000 C   0  0  2  0  0  0  0  0  0  0  0  0
    8.1857   -0.3172    0.0000 C   0  0  2  0  0  0  0  0  0  0  0  0
    6.3735   -0.1219    0.0000 C   0  0  0  0  0  0  0  0  0  0  0  0
    4.5894   -3.1703    0.0000 C   0  0  1  0  0  0  0  0  0  0  0  0
    5.5075   -0.6219    0.0000 C   0  0  0  0  0  0  0  0  0  0  0  0
    8.1857   -1.9266    0.0000 C   0  0  0  0  0  0  0  0  0  0  0  0
    6.3895   -3.1634    0.0000 C   0  0  0  0  0  0  0  0  0  0  0  0
    8.7693   -1.1219    0.0000 C   0  0  0  0  0  0  0  0  0  0  0  0
    5.4915   -3.6912    0.0000 C   0  0  0  0  0  0  0  0  0  0  0  0
    3.6143   -1.8037    0.0000 C   0  0  0  0  0  0  0  0  0  0  0  0
    7.2395    0.3781    0.0000 C   0  0  0  0  0  0  0  0  0  0  0  0
    8.4964    0.6334    0.0000 C   0  0  1  0  0  0  0  0  0  0  0  0
    3.6014   -3.4801    0.0000 C   0  0  0  0  0  0  0  0  0  0  0  0
    4.6052   -1.1288    0.0000 C   0  0  0  0  0  0  0  0  0  0  0  0
    3.0000   -2.6372    0.0000 C   0  0  0  0  0  0  0  0  0  0  0  0
    9.4749    0.8396    0.0000 C   0  0  0  0  0  0  0  0  0  0  0  0
    7.8286    1.3777    0.0000 C   0  0  0  0  0  0  0  0  0  0  0  0
    9.7856    1.7901    0.0000 C   0  0  0  0  0  0  0  0  0  0  0  0
   10.7641    1.9963    0.0000 C   0  0  0  0  0  0  0  0  0  0  0  0
   11.0747    2.9468    0.0000 C   0  0  0  0  0  0  0  0  0  0  0  0
   12.0532    3.1531    0.0000 C   0  0  0  0  0  0  0  0  0  0  0  0
   10.4069    3.6912    0.0000 C   0  0  0  0  0  0  0  0  0  0  0  0
    7.3294   -2.4671    0.0000 H   0  0  0  0  0  0  0  0  0  0  0  0
    7.1129   -2.5412    0.0000 H   0  0  0  0  0  0  0  0  0  0  0  0
    6.2436   -1.1969    0.0000 H   0  0  0  0  0  0  0  0  0  0  0  0
    9.0254   -0.1853    0.0000 H   0  0  0  0  0  0  0  0  0  0  0  0
    6.7720    0.3531    0.0000 H   0  0  0  0  0  0  0  0  0  0  0  0
    5.9750    0.3531    0.0000 H   0  0  0  0  0  0  0  0  0  0  0  0
    4.4962   -4.0152    0.0000 H   0  0  0  0  0  0  0  0  0  0  0  0
    5.2954   -0.0393    0.0000 H   0  0  0  0  0  0  0  0  0  0  0  0
    4.8969   -0.7295    0.0000 H   0  0  0  0  0  0  0  0  0  0  0  0
    7.9347   -2.4935    0.0000 H   0  0  0  0  0  0  0  0  0  0  0  0
    8.7231   -2.2358    0.0000 H   0  0  0  0  0  0  0  0  0  0  0  0
    6.6076   -3.7438    0.0000 H   0  0  0  0  0  0  0  0  0  0  0  0
    6.9987   -3.0479    0.0000 H   0  0  0  0  0  0  0  0  0  0  0  0
    9.2302   -1.5366    0.0000 H   0  0  0  0  0  0  0  0  0  0  0  0
    9.2302   -0.7072    0.0000 H   0  0  0  0  0  0  0  0  0  0  0  0
    5.0942   -4.1671    0.0000 H   0  0  0  0  0  0  0  0  0  0  0  0
    5.8925   -4.1640    0.0000 H   0  0  0  0  0  0  0  0  0  0  0  0
    3.8697   -1.2388    0.0000 H   0  0  0  0  0  0  0  0  0  0  0  0
    3.0793   -1.4904    0.0000 H   0  0  0  0  0  0  0  0  0  0  0  0
    7.8595    0.3781    0.0000 H   0  0  0  0  0  0  0  0  0  0  0  0
    7.2395    0.9981    0.0000 H   0  0  0  0  0  0  0  0  0  0  0  0
    6.6195    0.3781    0.0000 H   0  0  0  0  0  0  0  0  0  0  0  0
    8.6890    1.2227    0.0000 H   0  0  0  0  0  0  0  0  0  0  0  0
    3.0617   -3.7852    0.0000 H   0  0  0  0  0  0  0  0  0  0  0  0
    3.8480   -4.0490    0.0000 H   0  0  0  0  0  0  0  0  0  0  0  0
    5.2252   -1.1335    0.0000 H   0  0  0  0  0  0  0  0  0  0  0  0
    4.6099   -0.5088    0.0000 H   0  0  0  0  0  0  0  0  0  0  0  0
    3.9852   -1.1240    0.0000 H   0  0  0  0  0  0  0  0  0  0  0  0
    9.4955    0.2199    0.0000 H   0  0  0  0  0  0  0  0  0  0  0  0
   10.0887    0.7522    0.0000 H   0  0  0  0  0  0  0  0  0  0  0  0
    8.2900    1.7917    0.0000 H   0  0  0  0  0  0  0  0  0  0  0  0
    7.4145    1.8391    0.0000 H   0  0  0  0  0  0  0  0  0  0  0  0
    7.3671    0.9636    0.0000 H   0  0  0  0  0  0  0  0  0  0  0  0
    9.7650    2.4098    0.0000 H   0  0  0  0  0  0  0  0  0  0  0  0
    9.1717    1.8775    0.0000 H   0  0  0  0  0  0  0  0  0  0  0  0
   10.7846    1.3767    0.0000 H   0  0  0  0  0  0  0  0  0  0  0  0
   11.3779    1.9090    0.0000 H   0  0  0  0  0  0  0  0  0  0  0  0
   11.2673    3.5362    0.0000 H   0  0  0  0  0  0  0  0  0  0  0  0
   12.1811    2.5464    0.0000 H   0  0  0  0  0  0  0  0  0  0  0  0
   12.6599    3.2809    0.0000 H   0  0  0  0  0  0  0  0  0  0  0  0
   11.9254    3.7597    0.0000 H   0  0  0  0  0  0  0  0  0  0  0  0
   10.8683    4.1052    0.0000 H   0  0  0  0  0  0  0  0  0  0  0  0
    9.9928    4.1526    0.0000 H   0  0  0  0  0  0  0  0  0  0  0  0
    9.9454    3.2771    0.0000 H   0  0  0  0  0  0  0  0  0  0  0  0
  1 20  2  0  0  0  0
  2  3  1  0  0  0  0
  2  7  1  0  0  0  0
  2  8  1  0  0  0  0
  2 16  1  1  0  0  0
  3  4  1  0  0  0  0
  3 11  1  0  0  0  0
  3 28  1  6  0  0  0
  4  5  1  0  0  0  0
  4 12  1  0  0  0  0
  4 29  1  1  0  0  0
  5  6  1  0  0  0  0
  5 10  1  0  0  0  0
  5 30  1  6  0  0  0
  6  9  1  0  0  0  0
  6 15  1  0  0  0  0
  6 19  1  1  0  0  0
  7 13  1  0  0  0  0
  7 17  1  0  0  0  0
  7 31  1  6  0  0  0
  8 10  1  0  0  0  0
  8 32  1  0  0  0  0
  8 33  1  0  0  0  0
  9 14  1  0  0  0  0
  9 18  1  0  0  0  0
  9 34  1  6  0  0  0
 10 35  1  0  0  0  0
 10 36  1  0  0  0  0
 11 13  1  0  0  0  0
 11 37  1  0  0  0  0
 11 38  1  0  0  0  0
 12 14  1  0  0  0  0
 12 39  1  0  0  0  0
 12 40  1  0  0  0  0
 13 41  1  0  0  0  0
 13 42  1  0  0  0  0
 14 43  1  0  0  0  0
 14 44  1  0  0  0  0
 15 20  1  0  0  0  0
 15 45  1  0  0  0  0
 15 46  1  0  0  0  0
 16 47  1  0  0  0  0
 16 48  1  0  0  0  0
 16 49  1  0  0  0  0
 17 21  1  0  0  0  0
 17 22  1  6  0  0  0
 17 50  1  0  0  0  0
 18 20  1  0  0  0  0
 18 51  1  0  0  0  0
 18 52  1  0  0  0  0
 19 53  1  0  0  0  0
 19 54  1  0  0  0  0
 19 55  1  0  0  0  0
 21 23  1  0  0  0  0
 21 56  1  0  0  0  0
 21 57  1  0  0  0  0
 22 58  1  0  0  0  0
 22 59  1  0  0  0  0
 22 60  1  0  0  0  0
 23 24  1  0  0  0  0
 23 61  1  0  0  0  0
 23 62  1  0  0  0  0
 24 25  1  0  0  0  0
 24 63  1  0  0  0  0
 24 64  1  0  0  0  0
 25 26  1  0  0  0  0
 25 27  1  0  0  0  0
 25 65  1  0  0  0  0
 26 66  1  0  0  0  0
 26 67  1  0  0  0  0
 26 68  1  0  0  0  0
 27 69  1  0  0  0  0
 27 70  1  0  0  0  0
 27 71  1  0  0  0  0
M  END
> <PUBCHEM_COMPOUND_CID>
242347

> <PUBCHEM_COMPOUND_CANONICALIZED>
1

> <PUBCHEM_CACTVS_COMPLEXITY>
565

> <PUBCHEM_CACTVS_HBOND_ACCEPTOR>
1

> <PUBCHEM_CACTVS_HBOND_DONOR>
0

> <PUBCHEM_CACTVS_ROTATABLE_BOND>
5

> <PUBCHEM_CACTVS_SUBSKEYS>
AAADcfB4IAAAAAAAAAAAAAAAAAAAAYMAAAAwYAAAAAAAAGDAAAAAGgAAAAAADwSAgAACAAAAAAAIAIAQAAAAAAAAAAAAAAEAAAAAABIAAAAAAAAAAAAAAAEIiMCPgAAAAAAAAACAAAQAACAAAQAACAAAAA==

> <PUBCHEM_IUPAC_OPENEYE_NAME>
(3aS,3bS,5aR,6R,8aS,8bR,10aS)-6-[(1R)-1,5-dimethylhexyl]-3a,5a-dimethyl-3,3b,4,5,6,7,8,8a,8b,9,10,10a-dodecahydro-1H-indeno[5,4-e]inden-2-one

> <PUBCHEM_IUPAC_CAS_NAME>
(3aS,3bS,5aR,6R,8aS,8bR,10aS)-3a,5a-dimethyl-6-[(2R)-6-methylheptan-2-yl]-3,3b,4,5,6,7,8,8a,8b,9,10,10a-dodecahydro-1H-indeno[5,4-e]inden-2-one

> <PUBCHEM_IUPAC_NAME>
(3aS,3bS,5aR,6R,8aS,8bR,10aS)-3a,5a-dimethyl-6-[(2R)-6-methylheptan-2-yl]-3,3b,4,5,6,7,8,8a,8b,9,10,10a-dodecahydro-1H-indeno[5,4-e]inden-2-one

> <PUBCHEM_IUPAC_SYSTEMATIC_NAME>
(3aS,3bS,5aR,6R,8aS,8bR,10aS)-3a,5a-dimethyl-6-[(2R)-6-methylheptan-2-yl]-3,3b,4,5,6,7,8,8a,8b,9,10,10a-dodecahydro-1H-indeno[5,4-e]inden-2-one

> <PUBCHEM_IUPAC_TRADITIONAL_NAME>
(3aS,3bS,5aR,6R,8aS,8bR,10aS)-6-[(1R)-1,5-dimethylhexyl]-3a,5a-dimethyl-3,3b,4,5,6,7,8,8a,8b,9,10,10a-dodecahydro-1H-inden[5,4-e]inden-2-one

> <PUBCHEM_IUPAC_INCHI>
InChI=1S/C26H44O/c1-17(2)7-6-8-18(3)22-11-12-23-21-10-9-19-15-20(27)16-26(19,5)24(21)13-14-25(22,23)4/h17-19,21-24H,6-16H2,1-5H3/t18-,19+,21+,22-,23+,24+,25-,26+/m1/s1

> <PUBCHEM_IUPAC_INCHIKEY>
YPDLLJYJSWXQMO-QIIFCYCGSA-N

> <PUBCHEM_XLOGP3_AA>
8.6

> <PUBCHEM_EXACT_MASS>
372.339216

> <PUBCHEM_MOLECULAR_FORMULA>
C26H44O

> <PUBCHEM_MOLECULAR_WEIGHT>
372.62696

> <PUBCHEM_OPENEYE_CAN_SMILES>
CC(C)CCCC(C)C1CCC2C1(CCC3C2CCC4C3(CC(=O)C4)C)C

> <PUBCHEM_OPENEYE_ISO_SMILES>
C[C@H](CCCC(C)C)[C@H]1CC[C@@H]2[C@@]1(CC[C@H]3[C@H]2CC[C@@H]4[C@@]3(CC(=O)C4)C)C

> <PUBCHEM_CACTVS_TPSA>
17.1

> <PUBCHEM_MONOISOTOPIC_WEIGHT>
372.339216

> <PUBCHEM_TOTAL_CHARGE>
0

> <PUBCHEM_HEAVY_ATOM_COUNT>
27

> <PUBCHEM_ATOM_DEF_STEREO_COUNT>
8

> <PUBCHEM_ATOM_UDEF_STEREO_COUNT>
0

> <PUBCHEM_BOND_DEF_STEREO_COUNT>
0

> <PUBCHEM_BOND_UDEF_STEREO_COUNT>
0

> <PUBCHEM_ISOTOPIC_ATOM_COUNT>
0

> <PUBCHEM_COMPONENT_COUNT>
1

> <PUBCHEM_CACTVS_TAUTO_COUNT>
3

> <PUBCHEM_COORDINATE_TYPE>
1
5
255

> <PUBCHEM_BONDANNOTATIONS>
17  22  6
2  16  5
3  28  6
4  29  5
5  30  6
6  19  5
7  31  6
9  34  6

$$$$

