74597
  -OEChem-07051213043D

 47 48  0     0  0  0  0  0  0999 V2000
    1.2584    1.8470   -0.9630 Si  0  0  0  0  0  0  0  0  0  0  0  0
   -1.2482    1.8359    0.9755 Si  0  0  0  0  0  0  0  0  0  0  0  0
    0.0077    1.3033    0.0065 O   0  0  0  0  0  0  0  0  0  0  0  0
    2.1902    0.3820   -1.6909 C   0  0  0  0  0  0  0  0  0  0  0  0
   -2.2085    0.3880    1.6952 C   0  0  0  0  0  0  0  0  0  0  0  0
    0.6074    2.8916   -2.3848 C   0  0  0  0  0  0  0  0  0  0  0  0
    2.4774    2.8827    0.0263 C   0  0  0  0  0  0  0  0  0  0  0  0
   -0.6052    2.8878    2.3956 C   0  0  0  0  0  0  0  0  0  0  0  0
   -2.4396    2.8845   -0.0367 C   0  0  0  0  0  0  0  0  0  0  0  0
    2.7878   -0.5736   -0.6848 C   0  0  0  0  0  0  0  0  0  0  0  0
   -2.7999   -0.5669    0.6848 C   0  0  0  0  0  0  0  0  0  0  0  0
    2.0353   -1.6485   -0.2402 C   0  0  0  0  0  0  0  0  0  0  0  0
   -2.0527   -1.6532    0.2596 C   0  0  0  0  0  0  0  0  0  0  0  0
    4.0767   -0.3566   -0.2258 C   0  0  0  0  0  0  0  0  0  0  0  0
   -4.0782   -0.3377    0.2024 C   0  0  0  0  0  0  0  0  0  0  0  0
    2.5869   -2.5306    0.6891 C   0  0  0  0  0  0  0  0  0  0  0  0
   -2.5986   -2.5346   -0.6735 C   0  0  0  0  0  0  0  0  0  0  0  0
    4.6284   -1.2387    0.7033 C   0  0  0  0  0  0  0  0  0  0  0  0
   -4.6243   -1.2190   -0.7307 C   0  0  0  0  0  0  0  0  0  0  0  0
    3.8834   -2.3256    1.1607 C   0  0  0  0  0  0  0  0  0  0  0  0
   -3.8844   -2.3176   -1.1687 C   0  0  0  0  0  0  0  0  0  0  0  0
    2.9855    0.7586   -2.3469 H   0  0  0  0  0  0  0  0  0  0  0  0
    1.5112   -0.1715   -2.3521 H   0  0  0  0  0  0  0  0  0  0  0  0
   -3.0105    0.7770    2.3356 H   0  0  0  0  0  0  0  0  0  0  0  0
   -1.5477   -0.1699    2.3711 H   0  0  0  0  0  0  0  0  0  0  0  0
    0.1158    3.7935   -2.0091 H   0  0  0  0  0  0  0  0  0  0  0  0
    1.4259    3.1970   -3.0433 H   0  0  0  0  0  0  0  0  0  0  0  0
   -0.1175    2.3250   -2.9768 H   0  0  0  0  0  0  0  0  0  0  0  0
    2.8288    2.3355    0.9057 H   0  0  0  0  0  0  0  0  0  0  0  0
    3.3444    3.1468   -0.5862 H   0  0  0  0  0  0  0  0  0  0  0  0
    2.0055    3.8087    0.3675 H   0  0  0  0  0  0  0  0  0  0  0  0
    0.1081    2.3204    3.0008 H   0  0  0  0  0  0  0  0  0  0  0  0
   -0.1016    3.7822    2.0178 H   0  0  0  0  0  0  0  0  0  0  0  0
   -1.4286    3.2056    3.0419 H   0  0  0  0  0  0  0  0  0  0  0  0
   -3.3159    3.1544    0.5600 H   0  0  0  0  0  0  0  0  0  0  0  0
   -1.9538    3.8075   -0.3664 H   0  0  0  0  0  0  0  0  0  0  0  0
   -2.7785    2.3412   -0.9234 H   0  0  0  0  0  0  0  0  0  0  0  0
    1.0293   -1.8213   -0.6090 H   0  0  0  0  0  0  0  0  0  0  0  0
   -1.0551   -1.8355    0.6467 H   0  0  0  0  0  0  0  0  0  0  0  0
    4.6666    0.4856   -0.5760 H   0  0  0  0  0  0  0  0  0  0  0  0
   -4.6641    0.5135    0.5373 H   0  0  0  0  0  0  0  0  0  0  0  0
    2.0072   -3.3778    1.0437 H   0  0  0  0  0  0  0  0  0  0  0  0
   -2.0230   -3.3907   -1.0130 H   0  0  0  0  0  0  0  0  0  0  0  0
    5.6381   -1.0794    1.0705 H   0  0  0  0  0  0  0  0  0  0  0  0
   -5.6255   -1.0503   -1.1161 H   0  0  0  0  0  0  0  0  0  0  0  0
    4.3131   -3.0127    1.8839 H   0  0  0  0  0  0  0  0  0  0  0  0
   -4.3096   -3.0041   -1.8948 H   0  0  0  0  0  0  0  0  0  0  0  0
  1  3  1  0  0  0  0
  1  4  1  0  0  0  0
  1  6  1  0  0  0  0
  1  7  1  0  0  0  0
  2  3  1  0  0  0  0
  2  5  1  0  0  0  0
  2  8  1  0  0  0  0
  2  9  1  0  0  0  0
  4 10  1  0  0  0  0
  4 22  1  0  0  0  0
  4 23  1  0  0  0  0
  5 11  1  0  0  0  0
  5 24  1  0  0  0  0
  5 25  1  0  0  0  0
  6 26  1  0  0  0  0
  6 27  1  0  0  0  0
  6 28  1  0  0  0  0
  7 29  1  0  0  0  0
  7 30  1  0  0  0  0
  7 31  1  0  0  0  0
  8 32  1  0  0  0  0
  8 33  1  0  0  0  0
  8 34  1  0  0  0  0
  9 35  1  0  0  0  0
  9 36  1  0  0  0  0
  9 37  1  0  0  0  0
 10 12  2  0  0  0  0
 10 14  1  0  0  0  0
 11 13  2  0  0  0  0
 11 15  1  0  0  0  0
 12 16  1  0  0  0  0
 12 38  1  0  0  0  0
 13 17  1  0  0  0  0
 13 39  1  0  0  0  0
 14 18  2  0  0  0  0
 14 40  1  0  0  0  0
 15 19  2  0  0  0  0
 15 41  1  0  0  0  0
 16 20  2  0  0  0  0
 16 42  1  0  0  0  0
 17 21  2  0  0  0  0
 17 43  1  0  0  0  0
 18 20  1  0  0  0  0
 18 44  1  0  0  0  0
 19 21  1  0  0  0  0
 19 45  1  0  0  0  0
 20 46  1  0  0  0  0
 21 47  1  0  0  0  0
M  END
> <PUBCHEM_COMPOUND_CID>
74597

> <PUBCHEM_CONFORMER_RMSD>
0.8

> <PUBCHEM_CONFORMER_DIVERSEORDER>
5
8
35
15
22
14
6
26
9
16
7
27
20
29
10
12
24
37
28
4
13
23
2
18
34
21
31
11
30
17
33
19
36
25
1
3
32

> <PUBCHEM_MMFF94_PARTIAL_CHARGES>
31
1 0.54
10 -0.14
11 -0.14
12 -0.15
13 -0.15
14 -0.15
15 -0.15
16 -0.15
17 -0.15
18 -0.15
19 -0.15
2 0.54
20 -0.15
21 -0.15
3 -0.59
38 0.15
39 0.15
4 0.06
40 0.15
41 0.15
42 0.15
43 0.15
44 0.15
45 0.15
46 0.15
47 0.15
5 0.06
6 -0.08
7 -0.08
8 -0.08
9 -0.08

> <PUBCHEM_EFFECTIVE_ROTOR_COUNT>
6

> <PUBCHEM_PHARMACOPHORE_FEATURES>
2
6 10 12 14 16 18 20 rings
6 11 13 15 17 19 21 rings

> <PUBCHEM_HEAVY_ATOM_COUNT>
21

> <PUBCHEM_ATOM_DEF_STEREO_COUNT>
0

> <PUBCHEM_ATOM_UDEF_STEREO_COUNT>
0

> <PUBCHEM_BOND_DEF_STEREO_COUNT>
0

> <PUBCHEM_BOND_UDEF_STEREO_COUNT>
0

> <PUBCHEM_ISOTOPIC_ATOM_COUNT>
0

> <PUBCHEM_COMPONENT_COUNT>
1

> <PUBCHEM_CACTVS_TAUTO_COUNT>
1

> <PUBCHEM_CONFORMER_ID>
0001236500000005

> <PUBCHEM_MMFF94_ENERGY>
33.0815

> <PUBCHEM_FEATURE_SELFOVERLAP>
10.149

> <PUBCHEM_SHAPE_FINGERPRINT>
11552529 35 18044099175229285402
11578080 2 18338533987600829544
12156800 1 16981299123580725149
12422481 6 17835206294321662513
12539773 59 17980756357127992769
12553582 1 18338778079181422786
12633257 1 17968362524868862385
12788726 201 18188753033655489937
13004483 165 18199760300110542746
13083527 12 18335711494339380648
14081887 123 18114467880572688026
14251757 17 17915767377780294229
14787075 74 18116706310544077160
15003188 105 17177165803110173135
19026451 147 18264497182565016791
192875 21 18342738511490743578
20715895 44 18194123139125086501
21421861 104 18336530643149599201
23419403 2 17973761096727925864
23557571 272 17240753029833421523
23559900 14 18335148574197782976
23598288 3 18118936248667972393
266924 78 17269716202066490741
3380486 145 18057596775814565700
339767 52 18410865368644626698
3797600 57 17530679880103795104
392239 28 18260552204280750768
463206 1 18264486179032384267
5161694 15 15841548561299069211
7471813 234 18335995181145166646

> <PUBCHEM_SHAPE_MULTIPOLES>
462.73
8.32
4.23
1.85
0.01
1.15
-0.01
-7.02
0.04
-0.03
-0.01
0.02
1.25
-2.46

> <PUBCHEM_SHAPE_SELFOVERLAP>
915.71

> <PUBCHEM_SHAPE_VOLUME>
276

> <PUBCHEM_COORDINATE_TYPE>
2
5
10

$$$$

