73484
  -OEChem-07051212563D

 36 39  0     1  0  0  0  0  0999 V2000
   -2.4973    1.2793   -0.2702 N   0  0  1  0  0  0  0  0  0  0  0  0
    3.4865    1.1718    0.3443 N   0  0  0  0  0  0  0  0  0  0  0  0
   -1.0990    0.9307    0.0598 C   0  0  1  0  0  0  0  0  0  0  0  0
   -0.7659   -0.4741   -0.6194 C   0  0  1  0  0  0  0  0  0  0  0  0
   -0.0493    2.0367   -0.3312 C   0  0  0  0  0  0  0  0  0  0  0  0
    0.6580   -0.8914   -0.2762 C   0  0  0  0  0  0  0  0  0  0  0  0
    1.3328    1.5356   -0.0778 C   0  0  0  0  0  0  0  0  0  0  0  0
    1.5794    0.1460   -0.0656 C   0  0  0  0  0  0  0  0  0  0  0  0
   -1.8304   -1.4924   -0.2980 C   0  0  0  0  0  0  0  0  0  0  0  0
   -3.4232    0.3089    0.3507 C   0  0  0  0  0  0  0  0  0  0  0  0
   -3.0436   -1.1398    0.1592 C   0  0  0  0  0  0  0  0  0  0  0  0
    2.9187   -0.0750    0.1942 C   0  0  0  0  0  0  0  0  0  0  0  0
    2.5331    2.1556    0.1777 C   0  0  0  0  0  0  0  0  0  0  0  0
    1.1846   -2.1901   -0.2509 C   0  0  0  0  0  0  0  0  0  0  0  0
   -2.8774    2.6351    0.1276 C   0  0  0  0  0  0  0  0  0  0  0  0
    3.4431   -1.3650    0.2543 C   0  0  0  0  0  0  0  0  0  0  0  0
   -4.0940   -2.1545    0.5010 C   0  0  0  0  0  0  0  0  0  0  0  0
    2.5442   -2.4174    0.0203 C   0  0  0  0  0  0  0  0  0  0  0  0
   -1.0180    0.8087    1.1533 H   0  0  0  0  0  0  0  0  0  0  0  0
   -0.7815   -0.3391   -1.7114 H   0  0  0  0  0  0  0  0  0  0  0  0
   -0.2106    2.9452    0.2597 H   0  0  0  0  0  0  0  0  0  0  0  0
   -0.1521    2.2942   -1.3923 H   0  0  0  0  0  0  0  0  0  0  0  0
   -1.6207   -2.5439   -0.4686 H   0  0  0  0  0  0  0  0  0  0  0  0
   -4.4167    0.4628   -0.0893 H   0  0  0  0  0  0  0  0  0  0  0  0
   -3.5084    0.4953    1.4301 H   0  0  0  0  0  0  0  0  0  0  0  0
    2.8046    3.1985    0.2612 H   0  0  0  0  0  0  0  0  0  0  0  0
    0.5523   -3.0511   -0.4475 H   0  0  0  0  0  0  0  0  0  0  0  0
   -2.6949    2.8193    1.1923 H   0  0  0  0  0  0  0  0  0  0  0  0
   -3.9406    2.8128   -0.0723 H   0  0  0  0  0  0  0  0  0  0  0  0
   -2.3376    3.3849   -0.4593 H   0  0  0  0  0  0  0  0  0  0  0  0
    4.4623    1.3436    0.5432 H   0  0  0  0  0  0  0  0  0  0  0  0
    4.4915   -1.5508    0.4566 H   0  0  0  0  0  0  0  0  0  0  0  0
   -4.3910   -2.0531    1.5499 H   0  0  0  0  0  0  0  0  0  0  0  0
   -3.7413   -3.1805    0.3523 H   0  0  0  0  0  0  0  0  0  0  0  0
   -4.9794   -2.0117   -0.1269 H   0  0  0  0  0  0  0  0  0  0  0  0
    2.9143   -3.4403    0.0403 H   0  0  0  0  0  0  0  0  0  0  0  0
  1  3  1  0  0  0  0
  1 10  1  0  0  0  0
  1 15  1  0  0  0  0
  2 12  1  0  0  0  0
  2 13  1  0  0  0  0
  2 31  1  0  0  0  0
  3  4  1  0  0  0  0
  3  5  1  0  0  0  0
  3 19  1  0  0  0  0
  4  6  1  0  0  0  0
  4  9  1  0  0  0  0
  4 20  1  0  0  0  0
  5  7  1  0  0  0  0
  5 21  1  0  0  0  0
  5 22  1  0  0  0  0
  6  8  2  0  0  0  0
  6 14  1  0  0  0  0
  7  8  1  0  0  0  0
  7 13  2  0  0  0  0
  8 12  1  0  0  0  0
  9 11  2  0  0  0  0
  9 23  1  0  0  0  0
 10 11  1  0  0  0  0
 10 24  1  0  0  0  0
 10 25  1  0  0  0  0
 11 17  1  0  0  0  0
 12 16  2  0  0  0  0
 13 26  1  0  0  0  0
 14 18  2  0  0  0  0
 14 27  1  0  0  0  0
 15 28  1  0  0  0  0
 15 29  1  0  0  0  0
 15 30  1  0  0  0  0
 16 18  1  0  0  0  0
 16 32  1  0  0  0  0
 17 33  1  0  0  0  0
 17 34  1  0  0  0  0
 17 35  1  0  0  0  0
 18 36  1  0  0  0  0
M  END
> <PUBCHEM_COMPOUND_CID>
73484

> <PUBCHEM_CONFORMER_RMSD>
0.6

> <PUBCHEM_CONFORMER_DIVERSEORDER>
1

> <PUBCHEM_MMFF94_PARTIAL_CHARGES>
23
1 -0.81
10 0.41
11 -0.28
12 -0.15
13 -0.3
14 -0.15
15 0.27
16 -0.15
17 0.14
18 -0.15
2 0.03
23 0.15
26 0.15
27 0.15
3 0.27
31 0.27
32 0.15
36 0.15
4 0.28
5 0.18
6 -0.14
7 -0.18
9 -0.29

> <PUBCHEM_EFFECTIVE_ROTOR_COUNT>
0.6

> <PUBCHEM_PHARMACOPHORE_FEATURES>
7
1 1 cation
1 2 cation
1 2 donor
5 2 7 8 12 13 rings
6 1 3 4 9 10 11 rings
6 3 4 5 6 7 8 rings
6 6 8 12 14 16 18 rings

> <PUBCHEM_HEAVY_ATOM_COUNT>
18

> <PUBCHEM_ATOM_DEF_STEREO_COUNT>
2

> <PUBCHEM_ATOM_UDEF_STEREO_COUNT>
0

> <PUBCHEM_BOND_DEF_STEREO_COUNT>
0

> <PUBCHEM_BOND_UDEF_STEREO_COUNT>
0

> <PUBCHEM_ISOTOPIC_ATOM_COUNT>
0

> <PUBCHEM_COMPONENT_COUNT>
1

> <PUBCHEM_CACTVS_TAUTO_COUNT>
1

> <PUBCHEM_CONFORMER_ID>
00011F0C00000001

> <PUBCHEM_MMFF94_ENERGY>
43.9138

> <PUBCHEM_FEATURE_SELFOVERLAP>
35.761

> <PUBCHEM_SHAPE_FINGERPRINT>
10493431 412 17760650265724763064
10608611 8 18410295847480581933
10616163 171 18410290294092967589
10967382 1 18194402190901361422
10980938 120 18409727318485962382
11471102 22 18341323397128675794
11578080 2 17242202117930087937
11680986 33 18336548338319529540
12251169 10 18337106886179437753
12382932 28 18335985375486513601
12553582 1 18193278490287007687
12633257 1 18196373838614598307
13140716 1 18338241577952900776
14178342 30 18339372932426303752
14223421 5 18410855451707077751
14790565 3 17691673499110487949
15196674 1 18410575076073150826
15219456 202 18410858780153705893
15375462 6 18339079294038653607
15442244 35 18337673147346902962
15536298 74 18333732416406191710
15927050 60 15309004923565851804
16945 1 18265060123932959884
17492 89 18411138034875911691
17804303 29 18194395817280696614
19591789 44 17044283173993450389
200 152 18115037312080210319
20510252 161 18261107414038745257
20559304 39 18339640031999508500
20645477 70 18409174285807492631
20905425 154 18335977614475302686
21267235 1 18410003355849739358
21501502 16 18411979182491866613
221490 88 18411693301216762186
23184049 29 18411697720648263591
2334 1 18410295795888019110
23366157 5 18131348631370699654
23388829 49 18265619766909256519
23463225 33 18411702079955491100
23558518 356 18272365382588969585
23559900 14 18410581711797629697
2748010 2 18409737282846850276
2871803 45 18340772542072276095
335352 9 18050005789899822612
34934 24 18124041379829064442
350125 39 18410288095091038364
5104073 3 18410013247106201218
5283173 99 18200611262930381197
7097593 13 17984713478060174026
7364860 26 18334857229702223710
74978 22 18338517576677568685
7832392 63 18265335186428551952
84936 31 16009867419228086302
8809292 202 18270114767785519706
9709674 26 18335984280644717967

> <PUBCHEM_SHAPE_MULTIPOLES>
360.47
6.57
3.06
0.69
2.15
0.28
0.01
-1.39
-1.18
0.31
-0.07
0.07
-0.04
0.26

> <PUBCHEM_SHAPE_SELFOVERLAP>
800.879

> <PUBCHEM_SHAPE_VOLUME>
194.4

> <PUBCHEM_COORDINATE_TYPE>
2
5
10

$$$$

