11879
  -OEChem-06261206142D

 19 19  0     0  0  0  0  0  0999 V2000
    5.4641    1.9400    0.0000 O   0  0  0  0  0  0  0  0  0  0  0  0
    3.7320    1.9400    0.0000 O   0  0  0  0  0  0  0  0  0  0  0  0
    2.0000   -0.0600    0.0000 O   0  5  0  0  0  0  0  0  0  0  0  0
    2.8660    1.4400    0.0000 O   0  0  0  0  0  0  0  0  0  0  0  0
    6.3301   -2.5600    0.0000 O   0  5  0  0  0  0  0  0  0  0  0  0
    7.1962   -1.0600    0.0000 O   0  0  0  0  0  0  0  0  0  0  0  0
    2.8660    0.4400    0.0000 N   0  3  0  0  0  0  0  0  0  0  0  0
    6.3301   -1.5600    0.0000 N   0  3  0  0  0  0  0  0  0  0  0  0
    4.5981    0.4400    0.0000 C   0  0  0  0  0  0  0  0  0  0  0  0
    3.7320   -0.0600    0.0000 C   0  0  0  0  0  0  0  0  0  0  0  0
    5.4641   -1.0600    0.0000 C   0  0  0  0  0  0  0  0  0  0  0  0
    5.4641   -0.0600    0.0000 C   0  0  0  0  0  0  0  0  0  0  0  0
    3.7320   -1.0600    0.0000 C   0  0  0  0  0  0  0  0  0  0  0  0
    4.5981   -1.5600    0.0000 C   0  0  0  0  0  0  0  0  0  0  0  0
    4.5981    1.4400    0.0000 C   0  0  0  0  0  0  0  0  0  0  0  0
    6.0010    0.2500    0.0000 H   0  0  0  0  0  0  0  0  0  0  0  0
    3.1951   -1.3700    0.0000 H   0  0  0  0  0  0  0  0  0  0  0  0
    4.5981   -2.1800    0.0000 H   0  0  0  0  0  0  0  0  0  0  0  0
    5.4641    2.5600    0.0000 H   0  0  0  0  0  0  0  0  0  0  0  0
  1 15  1  0  0  0  0
  1 19  1  0  0  0  0
  2 15  2  0  0  0  0
  3  7  1  0  0  0  0
  4  7  2  0  0  0  0
  5  8  1  0  0  0  0
  6  8  2  0  0  0  0
  7 10  1  0  0  0  0
  8 11  1  0  0  0  0
  9 10  2  0  0  0  0
  9 12  1  0  0  0  0
  9 15  1  0  0  0  0
 10 13  1  0  0  0  0
 11 12  2  0  0  0  0
 11 14  1  0  0  0  0
 12 16  1  0  0  0  0
 13 14  2  0  0  0  0
 13 17  1  0  0  0  0
 14 18  1  0  0  0  0
M  CHG  4   3  -1   5  -1   7   1   8   1
M  END
> <PUBCHEM_COMPOUND_CID>
11879

> <PUBCHEM_COMPOUND_CANONICALIZED>
1

> <PUBCHEM_CACTVS_COMPLEXITY>
293

> <PUBCHEM_CACTVS_HBOND_ACCEPTOR>
6

> <PUBCHEM_CACTVS_HBOND_DONOR>
1

> <PUBCHEM_CACTVS_ROTATABLE_BOND>
1

> <PUBCHEM_CACTVS_SUBSKEYS>
AAADcYBjOAAAAAAAAAAAAAAAAAAAAAAAAAAwAAAAAAAAAAABAAAAHgAECAAADAiBmAAwyIAQQgCJAiTSSwCCAAAkAgAoiAEAbMoIJjqAlZGAcYBmwAEI2ce8yCCOAACAQAACAAAAAQCAAAQAAAAAAAAAAA==

> <PUBCHEM_IUPAC_OPENEYE_NAME>
2,5-dinitrobenzoic acid

> <PUBCHEM_IUPAC_CAS_NAME>
2,5-dinitrobenzoic acid

> <PUBCHEM_IUPAC_NAME>
2,5-dinitrobenzoic acid

> <PUBCHEM_IUPAC_SYSTEMATIC_NAME>
2,5-dinitrobenzoic acid

> <PUBCHEM_IUPAC_TRADITIONAL_NAME>
2,5-dinitrobenzoic acid

> <PUBCHEM_IUPAC_INCHI>
InChI=1S/C7H4N2O6/c10-7(11)5-3-4(8(12)13)1-2-6(5)9(14)15/h1-3H,(H,10,11)

> <PUBCHEM_IUPAC_INCHIKEY>
YKMDNKRCCODWMG-UHFFFAOYSA-N

> <PUBCHEM_XLOGP3>
1.3

> <PUBCHEM_EXACT_MASS>
212.006936

> <PUBCHEM_MOLECULAR_FORMULA>
C7H4N2O6

> <PUBCHEM_MOLECULAR_WEIGHT>
212.11646

> <PUBCHEM_OPENEYE_CAN_SMILES>
C1=CC(=C(C=C1[N+](=O)[O-])C(=O)O)[N+](=O)[O-]

> <PUBCHEM_OPENEYE_ISO_SMILES>
C1=CC(=C(C=C1[N+](=O)[O-])C(=O)O)[N+](=O)[O-]

> <PUBCHEM_CACTVS_TPSA>
129

> <PUBCHEM_MONOISOTOPIC_WEIGHT>
212.006936

> <PUBCHEM_TOTAL_CHARGE>
0

> <PUBCHEM_HEAVY_ATOM_COUNT>
15

> <PUBCHEM_ATOM_DEF_STEREO_COUNT>
0

> <PUBCHEM_ATOM_UDEF_STEREO_COUNT>
0

> <PUBCHEM_BOND_DEF_STEREO_COUNT>
0

> <PUBCHEM_BOND_UDEF_STEREO_COUNT>
0

> <PUBCHEM_ISOTOPIC_ATOM_COUNT>
0

> <PUBCHEM_COMPONENT_COUNT>
1

> <PUBCHEM_CACTVS_TAUTO_COUNT>
1

> <PUBCHEM_COORDINATE_TYPE>
1
5
255

> <PUBCHEM_BONDANNOTATIONS>
10  13  8
11  12  8
11  14  8
13  14  8
9  10  8
9  12  8

$$$$

