227111
  -OEChem-07051213053D

 58 62  0     1  0  0  0  0  0999 V2000
    2.4023   -1.3842   -1.5649 O   0  0  0  0  0  0  0  0  0  0  0  0
    4.1751   -1.1922    1.3203 O   0  0  0  0  0  0  0  0  0  0  0  0
    5.6194    0.7665    0.1816 O   0  0  0  0  0  0  0  0  0  0  0  0
   -6.9905    1.5648   -1.1365 O   0  0  0  0  0  0  0  0  0  0  0  0
    5.9973    2.4299   -1.3766 O   0  0  0  0  0  0  0  0  0  0  0  0
    1.0486   -0.5591    0.4105 C   0  0  2  0  0  0  0  0  0  0  0  0
    2.3591   -1.0486   -0.1729 C   0  0  1  0  0  0  0  0  0  0  0  0
   -0.0008   -1.4009   -0.3716 C   0  0  2  0  0  0  0  0  0  0  0  0
    2.1168   -2.4493   -0.6486 C   0  0  1  0  0  0  0  0  0  0  0  0
   -1.4113   -1.2256    0.1849 C   0  0  1  0  0  0  0  0  0  0  0  0
    0.6522   -2.7887   -0.4744 C   0  0  0  0  0  0  0  0  0  0  0  0
   -1.8061    0.2799    0.0301 C   0  0  2  0  0  0  0  0  0  0  0  0
    0.7199    0.9116    0.1623 C   0  0  0  0  0  0  0  0  0  0  0  0
   -0.7223    1.2433    0.6001 C   0  0  0  0  0  0  0  0  0  0  0  0
   -3.2672    0.5797    0.5422 C   0  0  2  0  0  0  0  0  0  0  0  0
    1.0929   -0.8535    1.9310 C   0  0  0  0  0  0  0  0  0  0  0  0
   -2.4229   -2.1125   -0.5487 C   0  0  0  0  0  0  0  0  0  0  0  0
    3.6739   -0.6424    0.3406 C   0  0  0  0  0  0  0  0  0  0  0  0
   -4.2414   -0.4362   -0.0700 C   0  0  0  0  0  0  0  0  0  0  0  0
   -3.8326   -1.8900   -0.0149 C   0  0  0  0  0  0  0  0  0  0  0  0
   -3.6539    2.0211    0.1007 C   0  0  0  0  0  0  0  0  0  0  0  0
   -3.3722    0.4817    2.0808 C   0  0  0  0  0  0  0  0  0  0  0  0
    4.3653    0.4818   -0.4012 C   0  0  0  0  0  0  0  0  0  0  0  0
   -5.1443    2.3080    0.1939 C   0  0  0  0  0  0  0  0  0  0  0  0
   -5.4225   -0.1059   -0.6190 C   0  0  0  0  0  0  0  0  0  0  0  0
   -5.9250    1.2867   -0.5898 C   0  0  0  0  0  0  0  0  0  0  0  0
    6.3449    1.7719   -0.4053 C   0  0  0  0  0  0  0  0  0  0  0  0
    7.6452    1.9622    0.3152 C   0  0  0  0  0  0  0  0  0  0  0  0
   -0.0357   -1.0264   -1.4095 H   0  0  0  0  0  0  0  0  0  0  0  0
    2.8297   -3.2411   -0.4952 H   0  0  0  0  0  0  0  0  0  0  0  0
   -1.4272   -1.5128    1.2411 H   0  0  0  0  0  0  0  0  0  0  0  0
    0.5012   -3.3764    0.4366 H   0  0  0  0  0  0  0  0  0  0  0  0
    0.2729   -3.3553   -1.3299 H   0  0  0  0  0  0  0  0  0  0  0  0
   -1.8161    0.4734   -1.0555 H   0  0  0  0  0  0  0  0  0  0  0  0
    0.8347    1.1505   -0.9030 H   0  0  0  0  0  0  0  0  0  0  0  0
    1.4215    1.5634    0.6965 H   0  0  0  0  0  0  0  0  0  0  0  0
   -0.7626    1.2483    1.6938 H   0  0  0  0  0  0  0  0  0  0  0  0
   -0.9353    2.2702    0.2826 H   0  0  0  0  0  0  0  0  0  0  0  0
    1.8458   -0.2285    2.4254 H   0  0  0  0  0  0  0  0  0  0  0  0
    0.1443   -0.6536    2.4353 H   0  0  0  0  0  0  0  0  0  0  0  0
    1.3553   -1.8968    2.1388 H   0  0  0  0  0  0  0  0  0  0  0  0
   -2.1590   -3.1691   -0.4224 H   0  0  0  0  0  0  0  0  0  0  0  0
   -2.3984   -1.9050   -1.6263 H   0  0  0  0  0  0  0  0  0  0  0  0
   -3.8893   -2.2351    1.0250 H   0  0  0  0  0  0  0  0  0  0  0  0
   -4.5261   -2.5206   -0.5849 H   0  0  0  0  0  0  0  0  0  0  0  0
   -3.3435    2.1798   -0.9418 H   0  0  0  0  0  0  0  0  0  0  0  0
   -3.1184    2.7669    0.7004 H   0  0  0  0  0  0  0  0  0  0  0  0
   -2.8202    1.2878    2.5753 H   0  0  0  0  0  0  0  0  0  0  0  0
   -4.4127    0.5553    2.4185 H   0  0  0  0  0  0  0  0  0  0  0  0
   -2.9822   -0.4661    2.4645 H   0  0  0  0  0  0  0  0  0  0  0  0
    3.7262    1.3696   -0.3542 H   0  0  0  0  0  0  0  0  0  0  0  0
    4.5104    0.1749   -1.4424 H   0  0  0  0  0  0  0  0  0  0  0  0
   -5.3460    3.2987   -0.2284 H   0  0  0  0  0  0  0  0  0  0  0  0
   -5.4966    2.3015    1.2301 H   0  0  0  0  0  0  0  0  0  0  0  0
   -6.0802   -0.8510   -1.0541 H   0  0  0  0  0  0  0  0  0  0  0  0
    8.2333    1.0424    0.2661 H   0  0  0  0  0  0  0  0  0  0  0  0
    7.4547    2.2426    1.3542 H   0  0  0  0  0  0  0  0  0  0  0  0
    8.2122    2.7650   -0.1646 H   0  0  0  0  0  0  0  0  0  0  0  0
  1  7  1  0  0  0  0
  1  9  1  0  0  0  0
  2 18  2  0  0  0  0
  3 23  1  0  0  0  0
  3 27  1  0  0  0  0
  4 26  2  0  0  0  0
  5 27  2  0  0  0  0
  6  7  1  0  0  0  0
  6  8  1  0  0  0  0
  6 13  1  0  0  0  0
  6 16  1  0  0  0  0
  7  9  1  0  0  0  0
  7 18  1  0  0  0  0
  8 10  1  0  0  0  0
  8 11  1  0  0  0  0
  8 29  1  0  0  0  0
  9 11  1  0  0  0  0
  9 30  1  0  0  0  0
 10 12  1  0  0  0  0
 10 17  1  0  0  0  0
 10 31  1  0  0  0  0
 11 32  1  0  0  0  0
 11 33  1  0  0  0  0
 12 14  1  0  0  0  0
 12 15  1  0  0  0  0
 12 34  1  0  0  0  0
 13 14  1  0  0  0  0
 13 35  1  0  0  0  0
 13 36  1  0  0  0  0
 14 37  1  0  0  0  0
 14 38  1  0  0  0  0
 15 19  1  0  0  0  0
 15 21  1  0  0  0  0
 15 22  1  0  0  0  0
 16 39  1  0  0  0  0
 16 40  1  0  0  0  0
 16 41  1  0  0  0  0
 17 20  1  0  0  0  0
 17 42  1  0  0  0  0
 17 43  1  0  0  0  0
 18 23  1  0  0  0  0
 19 20  1  0  0  0  0
 19 25  2  0  0  0  0
 20 44  1  0  0  0  0
 20 45  1  0  0  0  0
 21 24  1  0  0  0  0
 21 46  1  0  0  0  0
 21 47  1  0  0  0  0
 22 48  1  0  0  0  0
 22 49  1  0  0  0  0
 22 50  1  0  0  0  0
 23 51  1  0  0  0  0
 23 52  1  0  0  0  0
 24 26  1  0  0  0  0
 24 53  1  0  0  0  0
 24 54  1  0  0  0  0
 25 26  1  0  0  0  0
 25 55  1  0  0  0  0
 27 28  1  0  0  0  0
 28 56  1  0  0  0  0
 28 57  1  0  0  0  0
 28 58  1  0  0  0  0
M  END
> <PUBCHEM_COMPOUND_CID>
227111

> <PUBCHEM_CONFORMER_RMSD>
0.8

> <PUBCHEM_CONFORMER_DIVERSEORDER>
1
17
3
12
7
10
6
14
19
8
5
13
4
16
18
15
2
11
9

> <PUBCHEM_MMFF94_PARTIAL_CHARGES>
21
1 -0.3
11 0.09
15 0.14
18 0.51
19 -0.28
2 -0.57
20 0.14
23 0.34
24 0.06
25 -0.14
26 0.49
27 0.66
28 0.06
3 -0.43
30 0.1
4 -0.57
5 -0.57
55 0.15
6 0.09
7 0.05
9 -0.05

> <PUBCHEM_EFFECTIVE_ROTOR_COUNT>
5.6

> <PUBCHEM_PHARMACOPHORE_FEATURES>
8
1 1 acceptor
1 2 acceptor
1 4 acceptor
1 5 acceptor
6 1 6 7 8 9 11 rings
6 10 12 15 17 19 20 rings
6 15 19 21 24 25 26 rings
6 6 8 10 12 13 14 rings

> <PUBCHEM_HEAVY_ATOM_COUNT>
28

> <PUBCHEM_ATOM_DEF_STEREO_COUNT>
7

> <PUBCHEM_ATOM_UDEF_STEREO_COUNT>
0

> <PUBCHEM_BOND_DEF_STEREO_COUNT>
0

> <PUBCHEM_BOND_UDEF_STEREO_COUNT>
0

> <PUBCHEM_ISOTOPIC_ATOM_COUNT>
0

> <PUBCHEM_COMPONENT_COUNT>
1

> <PUBCHEM_CACTVS_TAUTO_COUNT>
10

> <PUBCHEM_CONFORMER_ID>
0003772700000001

> <PUBCHEM_MMFF94_ENERGY>
77.6953

> <PUBCHEM_FEATURE_SELFOVERLAP>
40.66

> <PUBCHEM_SHAPE_FINGERPRINT>
10 15 18272083894648145083
10366900 7 17095529512973680203
10411042 1 17616253581235004487
10498660 4 18334570291263407347
10554248 39 18265911304762805270
10670039 82 17530955913356948416
10906281 52 18334284401445198163
11135609 187 18334858372680788137
11578080 2 17416427517293910741
11961588 58 18412548734332339371
12236239 1 18202288000075943866
12422481 6 17561082484460215220
12596602 18 17846500326620410643
13583140 156 17418087707085113617
13631057 29 18042406842229951399
13673619 4 7493285538689363658
13690498 29 17387418930446906415
13782708 43 6916253027555341101
13911987 19 18040150712582257913
14251764 30 6916262931617660544
14528608 73 18260268551170142160
14790565 3 18337387141696874020
15196674 1 18262237849874124807
15238133 3 15840699842039867495
15475509 35 9439405701516650172
15840311 113 18060138773186843116
15961568 22 18343581858648270596
17980427 23 17917426484744295358
18608769 82 18410007699090356403
19427546 20 18337112246594522823
200 152 17023760030206276651
20511986 3 18201731655734471671
20567600 247 6122513384751633068
20715895 44 18411415099363697556
21033648 29 15554175860658045103
21298829 104 18409444821513497805
21304253 335 18272645719504907324
21365058 113 4823207333853868067
23559900 14 17970065754464820990
2838139 119 18338798901990099396
3472631 163 18412260627873415468
34797466 226 17967244308400101405
34934 24 18411703209637644779
350125 39 18334573495741423171
4073 2 18272930514027607635
5104073 3 18131345340814075291
6328613 192 18411984662965471657
7808743 9 18410013212941907114
7970288 3 9006762186237958509
9981440 41 18341886347594248530

> <PUBCHEM_SHAPE_MULTIPOLES>
546.88
16.2
2.79
1.23
12.23
0.32
-0.41
-14.34
3.49
0.73
0.63
0
-0.01
-0.42

> <PUBCHEM_SHAPE_SELFOVERLAP>
1180.759

> <PUBCHEM_SHAPE_VOLUME>
298.9

> <PUBCHEM_COORDINATE_TYPE>
2
5
10

$$$$

