5281402
  -OEChem-07051212573D

 58 58  0     1  0  0  0  0  0999 V2000
    1.7264   -0.2325    0.6173 O   0  0  0  0  0  0  0  0  0  0  0  0
    2.9320   -2.5001   -0.9033 O   0  0  0  0  0  0  0  0  0  0  0  0
   -3.7364    1.1917    1.6581 O   0  0  0  0  0  0  0  0  0  0  0  0
    7.0945    0.7884    2.0848 O   0  0  0  0  0  0  0  0  0  0  0  0
    1.1769   -0.8127   -0.5715 C   0  0  2  0  0  0  0  0  0  0  0  0
    2.2593   -1.3992   -1.5179 C   0  0  1  0  0  0  0  0  0  0  0  0
    0.2564    0.1857   -1.2966 C   0  0  0  0  0  0  0  0  0  0  0  0
    3.3049   -0.4118   -2.0503 C   0  0  0  0  0  0  0  0  0  0  0  0
   -0.7813    0.7825   -0.3455 C   0  0  0  0  0  0  0  0  0  0  0  0
    0.2808   -1.9576   -0.0530 C   0  0  0  0  0  0  0  0  0  0  0  0
    4.4253   -0.0203   -1.0806 C   0  0  0  0  0  0  0  0  0  0  0  0
   -1.6672    1.8067   -1.0631 C   0  0  0  0  0  0  0  0  0  0  0  0
    2.5870    0.8920    0.4893 C   0  0  0  0  0  0  0  0  0  0  0  0
    4.0029    0.4434    0.2871 C   0  0  0  0  0  0  0  0  0  0  0  0
   -2.7362    2.4130   -0.1428 C   0  0  1  0  0  0  0  0  0  0  0  0
    4.8886    0.4644    1.2967 C   0  0  0  0  0  0  0  0  0  0  0  0
   -3.5381    3.4942   -0.8632 C   0  0  0  0  0  0  0  0  0  0  0  0
   -3.6658    1.3463    0.4363 C   0  0  0  0  0  0  0  0  0  0  0  0
   -4.4986    0.5143   -0.5307 C   0  0  0  0  0  0  0  0  0  0  0  0
    6.3122    0.0473    1.1592 C   0  0  0  0  0  0  0  0  0  0  0  0
   -5.4036   -0.4166    0.2182 C   0  0  0  0  0  0  0  0  0  0  0  0
   -5.1552   -1.6928    0.5690 C   0  0  0  0  0  0  0  0  0  0  0  0
   -3.8748   -2.4292    0.2933 C   0  0  0  0  0  0  0  0  0  0  0  0
   -6.1901   -2.4972    1.3090 C   0  0  0  0  0  0  0  0  0  0  0  0
    1.7416   -1.8192   -2.3899 H   0  0  0  0  0  0  0  0  0  0  0  0
   -0.2522   -0.3119   -2.1325 H   0  0  0  0  0  0  0  0  0  0  0  0
    0.8274    1.0084   -1.7373 H   0  0  0  0  0  0  0  0  0  0  0  0
    3.7967   -0.8820   -2.9134 H   0  0  0  0  0  0  0  0  0  0  0  0
    2.8227    0.4873   -2.4478 H   0  0  0  0  0  0  0  0  0  0  0  0
   -1.4280   -0.0013    0.0544 H   0  0  0  0  0  0  0  0  0  0  0  0
   -0.2963    1.2734    0.5054 H   0  0  0  0  0  0  0  0  0  0  0  0
    0.8815   -2.7565    0.3974 H   0  0  0  0  0  0  0  0  0  0  0  0
   -0.3181   -2.4027   -0.8545 H   0  0  0  0  0  0  0  0  0  0  0  0
   -0.3824   -1.6399    0.7579 H   0  0  0  0  0  0  0  0  0  0  0  0
    5.0074    0.7798   -1.5563 H   0  0  0  0  0  0  0  0  0  0  0  0
    5.0921   -0.8878   -0.9930 H   0  0  0  0  0  0  0  0  0  0  0  0
   -2.1369    1.3365   -1.9355 H   0  0  0  0  0  0  0  0  0  0  0  0
   -1.0326    2.6142   -1.4504 H   0  0  0  0  0  0  0  0  0  0  0  0
    2.5006    1.4495    1.4296 H   0  0  0  0  0  0  0  0  0  0  0  0
    2.2714    1.5896   -0.2912 H   0  0  0  0  0  0  0  0  0  0  0  0
   -2.2306    2.8870    0.7093 H   0  0  0  0  0  0  0  0  0  0  0  0
    3.2439   -2.2110   -0.0292 H   0  0  0  0  0  0  0  0  0  0  0  0
    4.5574    0.7789    2.2840 H   0  0  0  0  0  0  0  0  0  0  0  0
   -3.9841    3.1188   -1.7901 H   0  0  0  0  0  0  0  0  0  0  0  0
   -4.3501    3.8665   -0.2294 H   0  0  0  0  0  0  0  0  0  0  0  0
   -2.8949    4.3416   -1.1231 H   0  0  0  0  0  0  0  0  0  0  0  0
   -5.1182    1.1816   -1.1377 H   0  0  0  0  0  0  0  0  0  0  0  0
   -3.8388   -0.0321   -1.2084 H   0  0  0  0  0  0  0  0  0  0  0  0
    6.4286   -1.0159    1.3907 H   0  0  0  0  0  0  0  0  0  0  0  0
    6.7260    0.2440    0.1672 H   0  0  0  0  0  0  0  0  0  0  0  0
   -6.3675    0.0129    0.4887 H   0  0  0  0  0  0  0  0  0  0  0  0
    6.8190    0.5307    2.9814 H   0  0  0  0  0  0  0  0  0  0  0  0
   -3.1173   -1.8134   -0.1959 H   0  0  0  0  0  0  0  0  0  0  0  0
   -3.4395   -2.7909    1.2309 H   0  0  0  0  0  0  0  0  0  0  0  0
   -4.0681   -3.2919   -0.3526 H   0  0  0  0  0  0  0  0  0  0  0  0
   -6.4609   -3.3876    0.7322 H   0  0  0  0  0  0  0  0  0  0  0  0
   -5.7986   -2.8173    2.2801 H   0  0  0  0  0  0  0  0  0  0  0  0
   -7.1081   -1.9289    1.4923 H   0  0  0  0  0  0  0  0  0  0  0  0
  1  5  1  0  0  0  0
  1 13  1  0  0  0  0
  2  6  1  0  0  0  0
  2 42  1  0  0  0  0
  3 18  2  0  0  0  0
  4 20  1  0  0  0  0
  4 52  1  0  0  0  0
  5  6  1  0  0  0  0
  5  7  1  0  0  0  0
  5 10  1  0  0  0  0
  6  8  1  0  0  0  0
  6 25  1  0  0  0  0
  7  9  1  0  0  0  0
  7 26  1  0  0  0  0
  7 27  1  0  0  0  0
  8 11  1  0  0  0  0
  8 28  1  0  0  0  0
  8 29  1  0  0  0  0
  9 12  1  0  0  0  0
  9 30  1  0  0  0  0
  9 31  1  0  0  0  0
 10 32  1  0  0  0  0
 10 33  1  0  0  0  0
 10 34  1  0  0  0  0
 11 14  1  0  0  0  0
 11 35  1  0  0  0  0
 11 36  1  0  0  0  0
 12 15  1  0  0  0  0
 12 37  1  0  0  0  0
 12 38  1  0  0  0  0
 13 14  1  0  0  0  0
 13 39  1  0  0  0  0
 13 40  1  0  0  0  0
 14 16  2  0  0  0  0
 15 17  1  0  0  0  0
 15 18  1  0  0  0  0
 15 41  1  0  0  0  0
 16 20  1  0  0  0  0
 16 43  1  0  0  0  0
 17 44  1  0  0  0  0
 17 45  1  0  0  0  0
 17 46  1  0  0  0  0
 18 19  1  0  0  0  0
 19 21  1  0  0  0  0
 19 47  1  0  0  0  0
 19 48  1  0  0  0  0
 20 49  1  0  0  0  0
 20 50  1  0  0  0  0
 21 22  2  0  0  0  0
 21 51  1  0  0  0  0
 22 23  1  0  0  0  0
 22 24  1  0  0  0  0
 23 53  1  0  0  0  0
 23 54  1  0  0  0  0
 23 55  1  0  0  0  0
 24 56  1  0  0  0  0
 24 57  1  0  0  0  0
 24 58  1  0  0  0  0
M  END
> <PUBCHEM_COMPOUND_CID>
5281402

> <PUBCHEM_CONFORMER_RMSD>
1

> <PUBCHEM_CONFORMER_DIVERSEORDER>
1
388
124
223
34
399
207
23
7
281
270
264
357
336
154
301
102
208
251
303
109
279
58
280
255
238
216
219
146
197
195
189
395
291
343
323
282
316
367
93
122
194
272
106
96
239
24
392
334
171
120
320
4
322
290
325
353
265
396
121
313
218
361
222
262
324
332
174
228
359
329
319
275
141
11
211
143
128
243
133
256
98
119
296
27
394
6
286
188
202
125
64
236
175
258
88
309
277
142
132
372
114
235
302
193
267
42
167
300
117
115
297
312
185
56
344
186
52
25
161
348
82
352
315
111
390
318
204
287
242
187
337
149
73
383
304
351
152
107
234
162
342
14
393
180
368
241
330
244
113
295
170
150
346
363
127
17
370
69
99
101
165
276
105
3
78
151
375
384
177
227
389
306
16
36
46
387
364
381
131
266
26
285
65
178
382
38
358
354
181
347
29
140
47
97
397
221
311
198
18
380
273
385
220
32
123
92
51
30
391
66
215
310
112
39
338
182
136
212
126
268
331
80
229
173
57
147
321
248
192
365
205
84
62
183
138
118
293
129
226
104
61
163
274
217
401
247
160
225
21
72
168
257
145
340
378
91
250
139
333
83
55
366
278
166
379
374
172
53
95
298
201
13
341
41
134
299
10
237
307
350
19
283
116
90
289
45
110
224
108
245
159
130
60
81
2
191
12
254
373
176
260
35
232
43
288
184
269
37
76
317
335
40
190
213
144
103
214
259
308
362
67
326
155
31
377
233
400
44
49
164
158
240
137
157
253
50
339
230
48
5
74
148
371
8
87
292
369
169
9
376
135
206
70
294
179
156
314
356
86
94
79
196
345
20
77
327
328
284
398
203
22
305
89
63
153
355
28
85
210
263
68
252
54
231
71
271
386
75
100
349
59
15
360
200
209
246
249
33
261
199

> <PUBCHEM_MMFF94_PARTIAL_CHARGES>
22
1 -0.56
11 0.14
13 0.42
14 -0.28
15 0.06
16 -0.29
18 0.45
19 0.2
2 -0.68
20 0.42
21 -0.29
22 -0.28
23 0.14
24 0.14
3 -0.57
4 -0.68
42 0.4
43 0.15
5 0.28
51 0.15
52 0.4
6 0.28

> <PUBCHEM_EFFECTIVE_ROTOR_COUNT>
9.2

> <PUBCHEM_PHARMACOPHORE_FEATURES>
10
1 1 acceptor
1 17 hydrophobe
1 2 acceptor
1 2 donor
1 3 acceptor
1 4 acceptor
1 4 donor
3 22 23 24 hydrophobe
4 7 9 12 15 hydrophobe
7 1 5 6 8 11 13 14 rings

> <PUBCHEM_HEAVY_ATOM_COUNT>
24

> <PUBCHEM_ATOM_DEF_STEREO_COUNT>
3

> <PUBCHEM_ATOM_UDEF_STEREO_COUNT>
0

> <PUBCHEM_BOND_DEF_STEREO_COUNT>
1

> <PUBCHEM_BOND_UDEF_STEREO_COUNT>
0

> <PUBCHEM_ISOTOPIC_ATOM_COUNT>
0

> <PUBCHEM_COMPONENT_COUNT>
1

> <PUBCHEM_CACTVS_TAUTO_COUNT>
5

> <PUBCHEM_CONFORMER_ID>
0050967A00000001

> <PUBCHEM_MMFF94_ENERGY>
52.6635

> <PUBCHEM_FEATURE_SELFOVERLAP>
50.745

> <PUBCHEM_SHAPE_FINGERPRINT>
10 15 18261120634591348880
11370993 144 17604976191458169743
11552529 35 17821727239447590775
11595378 159 18343872116816828683
11646440 116 17385727980890693704
12166972 35 16773515456636852023
12236239 1 17131834248408129438
12403259 118 18130790100638751540
12596602 18 17561086856277596089
12730499 353 17676199183256632846
12838862 33 18341059575559223767
13782708 43 18262509407629197630
13911882 115 18260542333718072623
14081887 123 18412259571348390021
14251758 9 11959733750309835931
15081414 286 17312823797327980320
15183329 4 9295293837059685065
15188451 53 17917999360161265745
15519825 34 17774456975347924008
16994733 274 6050147975066883378
17349148 13 16917061170392610495
1768 85 17459198378081306792
17913733 40 17458349628424990566
20621476 91 18342181033557428385
20681651 13 18193269917980489705
21623969 137 17821447950245139352
23559900 14 18124023796185339630
2838139 119 16009042678908655008
32027 91 17906736156436752454
339767 52 18273496758900991503
392239 28 18113897109589270289
5104073 3 18189048857833028675
6328613 192 7781514836820654154
6442390 28 18335134297926853782

> <PUBCHEM_SHAPE_MULTIPOLES>
470.43
15.64
2.92
1.63
5.29
0.59
0.04
-3.18
8.22
-5.58
-0.28
2.2
-0.04
2.28

> <PUBCHEM_SHAPE_SELFOVERLAP>
924.562

> <PUBCHEM_SHAPE_VOLUME>
280.6

> <PUBCHEM_COORDINATE_TYPE>
2
5
10

$$$$

