13105
  -OEChem-06261207463D

 38 41  0     0  0  0  0  0  0999 V2000
   -0.6442   -0.2342    2.0153 N   0  0  0  0  0  0  0  0  0  0  0  0
    0.5998   -3.0583   -0.0834 N   0  0  0  0  0  0  0  0  0  0  0  0
    1.1286   -0.6656   -0.1623 C   0  0  0  0  0  0  0  0  0  0  0  0
   -0.2799   -0.3902   -0.3776 C   0  0  0  0  0  0  0  0  0  0  0  0
    2.0767    0.3732   -0.0954 C   0  0  0  0  0  0  0  0  0  0  0  0
   -1.1524   -0.1773    0.6900 C   0  0  0  0  0  0  0  0  0  0  0  0
   -2.5126    0.0877    0.4617 C   0  0  0  0  0  0  0  0  0  0  0  0
    3.4405    0.0598    0.1154 C   0  0  0  0  0  0  0  0  0  0  0  0
    1.5329   -1.9969   -0.0213 C   0  0  0  0  0  0  0  0  0  0  0  0
   -2.9944    0.1374   -0.8680 C   0  0  0  0  0  0  0  0  0  0  0  0
   -0.7536   -0.3414   -1.6853 C   0  0  0  0  0  0  0  0  0  0  0  0
   -2.1018   -0.0793   -1.9305 C   0  0  0  0  0  0  0  0  0  0  0  0
    3.8229   -1.2844    0.2541 C   0  0  0  0  0  0  0  0  0  0  0  0
    2.8741   -2.3050    0.1860 C   0  0  0  0  0  0  0  0  0  0  0  0
    1.6943    1.7174   -0.2339 C   0  0  0  0  0  0  0  0  0  0  0  0
   -3.4051    0.3047    1.5241 C   0  0  0  0  0  0  0  0  0  0  0  0
    4.3819    1.0999    0.1815 C   0  0  0  0  0  0  0  0  0  0  0  0
   -4.3545    0.4025   -1.0963 C   0  0  0  0  0  0  0  0  0  0  0  0
    2.6430    2.7380   -0.1657 C   0  0  0  0  0  0  0  0  0  0  0  0
    3.9843    2.4298    0.0416 C   0  0  0  0  0  0  0  0  0  0  0  0
   -4.7533    0.5667    1.2790 C   0  0  0  0  0  0  0  0  0  0  0  0
   -5.2271    0.6155   -0.0288 C   0  0  0  0  0  0  0  0  0  0  0  0
   -0.0884   -0.5048   -2.5302 H   0  0  0  0  0  0  0  0  0  0  0  0
   -2.4503   -0.0457   -2.9607 H   0  0  0  0  0  0  0  0  0  0  0  0
    4.8659   -1.5484    0.4170 H   0  0  0  0  0  0  0  0  0  0  0  0
    3.1983   -3.3368    0.2971 H   0  0  0  0  0  0  0  0  0  0  0  0
    0.6619    2.0155   -0.3968 H   0  0  0  0  0  0  0  0  0  0  0  0
   -3.1021    0.2807    2.5657 H   0  0  0  0  0  0  0  0  0  0  0  0
    5.4356    0.8823    0.3429 H   0  0  0  0  0  0  0  0  0  0  0  0
   -4.7468    0.4455   -2.1103 H   0  0  0  0  0  0  0  0  0  0  0  0
    2.3346    3.7737   -0.2742 H   0  0  0  0  0  0  0  0  0  0  0  0
    0.3363   -0.4196    2.1775 H   0  0  0  0  0  0  0  0  0  0  0  0
   -1.2302   -0.0829    2.8215 H   0  0  0  0  0  0  0  0  0  0  0  0
    4.7223    3.2248    0.0947 H   0  0  0  0  0  0  0  0  0  0  0  0
   -5.4340    0.7328    2.1091 H   0  0  0  0  0  0  0  0  0  0  0  0
   -6.2768    0.8196   -0.2189 H   0  0  0  0  0  0  0  0  0  0  0  0
   -0.3845   -2.8866   -0.2316 H   0  0  0  0  0  0  0  0  0  0  0  0
    0.9228   -4.0115    0.0210 H   0  0  0  0  0  0  0  0  0  0  0  0
  1  6  1  0  0  0  0
  1 32  1  0  0  0  0
  1 33  1  0  0  0  0
  2  9  1  0  0  0  0
  2 37  1  0  0  0  0
  2 38  1  0  0  0  0
  3  4  1  0  0  0  0
  3  5  1  0  0  0  0
  3  9  2  0  0  0  0
  4  6  2  0  0  0  0
  4 11  1  0  0  0  0
  5  8  1  0  0  0  0
  5 15  2  0  0  0  0
  6  7  1  0  0  0  0
  7 10  1  0  0  0  0
  7 16  2  0  0  0  0
  8 13  1  0  0  0  0
  8 17  2  0  0  0  0
  9 14  1  0  0  0  0
 10 12  1  0  0  0  0
 10 18  2  0  0  0  0
 11 12  2  0  0  0  0
 11 23  1  0  0  0  0
 12 24  1  0  0  0  0
 13 14  2  0  0  0  0
 13 25  1  0  0  0  0
 14 26  1  0  0  0  0
 15 19  1  0  0  0  0
 15 27  1  0  0  0  0
 16 21  1  0  0  0  0
 16 28  1  0  0  0  0
 17 20  1  0  0  0  0
 17 29  1  0  0  0  0
 18 22  1  0  0  0  0
 18 30  1  0  0  0  0
 19 20  2  0  0  0  0
 19 31  1  0  0  0  0
 20 34  1  0  0  0  0
 21 22  2  0  0  0  0
 21 35  1  0  0  0  0
 22 36  1  0  0  0  0
M  END
> <PUBCHEM_COMPOUND_CID>
13105

> <PUBCHEM_CONFORMER_RMSD>
0.6

> <PUBCHEM_CONFORMER_DIVERSEORDER>
2
1

> <PUBCHEM_MMFF94_PARTIAL_CHARGES>
32
1 -0.9
11 -0.15
12 -0.15
13 -0.15
14 -0.15
15 -0.15
16 -0.15
17 -0.15
18 -0.15
19 -0.15
2 -0.9
20 -0.15
21 -0.15
22 -0.15
23 0.15
24 0.15
25 0.15
26 0.15
27 0.15
28 0.15
29 0.15
30 0.15
31 0.15
32 0.4
33 0.4
34 0.15
35 0.15
36 0.15
37 0.4
38 0.4
6 0.1
9 0.1

> <PUBCHEM_EFFECTIVE_ROTOR_COUNT>
1

> <PUBCHEM_PHARMACOPHORE_FEATURES>
8
1 1 cation
1 1 donor
1 2 cation
1 2 donor
6 3 5 8 9 13 14 rings
6 4 6 7 10 11 12 rings
6 5 8 15 17 19 20 rings
6 7 10 16 18 21 22 rings

> <PUBCHEM_HEAVY_ATOM_COUNT>
22

> <PUBCHEM_ATOM_DEF_STEREO_COUNT>
0

> <PUBCHEM_ATOM_UDEF_STEREO_COUNT>
0

> <PUBCHEM_BOND_DEF_STEREO_COUNT>
0

> <PUBCHEM_BOND_UDEF_STEREO_COUNT>
0

> <PUBCHEM_ISOTOPIC_ATOM_COUNT>
0

> <PUBCHEM_COMPONENT_COUNT>
1

> <PUBCHEM_CACTVS_TAUTO_COUNT>
1

> <PUBCHEM_CONFORMER_ID>
0000333100000002

> <PUBCHEM_MMFF94_ENERGY>
104.879

> <PUBCHEM_FEATURE_SELFOVERLAP>
40.647

> <PUBCHEM_SHAPE_FINGERPRINT>
10165383 225 18128803175995498228
11370993 144 18201433735881970001
11370993 70 18341610395718432171
11582403 64 16194302682115625615
11640471 11 17894906300326761072
11725454 13 16985789421704780791
11796584 16 15140672584420244716
12236239 1 17749113304825295454
12390115 104 17980189791535365676
12403259 327 16701748146601447688
12403259 415 17775568662722797165
12633257 1 17059500616996654728
12644460 14 18413393150572323050
13134695 92 18199477721765229926
13140716 1 18268718199846486584
13583140 156 18337667512898404425
13631057 29 18044667386729076447
13675066 3 17703785921064589229
14739800 52 16806188574533153016
15342168 16 18269551650444600596
16752209 62 16371017282322566359
1813 80 17753883115580409022
18186145 218 18407759222910925606
19049666 15 17631183067705922284
19862831 5 17385438791461472748
20157964 124 18410294744380855773
204376 136 18339359673603641902
20511986 3 17676503742907508393
20600515 1 16056873594510298405
20645476 183 17822015263948578863
20645477 70 18341336672851540478
20715895 44 17464527990705166761
20739085 24 18341323492129853908
21033648 29 17704080603060876445
21033650 10 15575257853200328835
21065201 7 16056598811108367795
21120745 212 16257826666427129220
21503847 285 18187637046532822142
21756936 100 17971185937917489332
22122407 14 18261377993300968801
22956985 138 14116419323309211857
23184049 59 18412545414232844812
23557571 272 16773794848512161215
23559900 14 16486412221395275914
335352 9 18410856539256911644
350125 39 17836644124569949220
38570 142 18117536484577588020
4340502 62 18410565168280308267
474 4 18336266760485279752
495365 180 18412832369334780192
5104073 3 18341615884375212123
602551 16 16056873611400030217
6034566 193 17839454493233719660
633830 44 18114451318851636428
77492 1 17749396978751447710
8272917 22 18335979856480022503
9981440 41 16595370233584580976

> <PUBCHEM_SHAPE_MULTIPOLES>
442.79
9.45
2.35
1.38
5.61
0.31
-0.04
-3.61
1.12
-3.77
0
1.65
0
-0.31

> <PUBCHEM_SHAPE_SELFOVERLAP>
1010.669

> <PUBCHEM_SHAPE_VOLUME>
227.8

> <PUBCHEM_COORDINATE_TYPE>
2
5
10

$$$$

