440032
  -OEChem-07051212483D

 46 49  0     1  0  0  0  0  0999 V2000
    2.0410    0.0134   -0.6398 O   0  0  0  0  0  0  0  0  0  0  0  0
    1.0571    0.5528    1.4059 O   0  0  0  0  0  0  0  0  0  0  0  0
    5.2877   -1.6791    1.2205 O   0  0  0  0  0  0  0  0  0  0  0  0
    5.4442   -0.9641   -1.5759 O   0  0  0  0  0  0  0  0  0  0  0  0
    3.5639    0.2164    2.6751 O   0  0  0  0  0  0  0  0  0  0  0  0
    1.8806    0.4778   -3.3445 O   0  0  0  0  0  0  0  0  0  0  0  0
   -0.6027   -1.4126    1.1614 O   0  0  0  0  0  0  0  0  0  0  0  0
   -4.3649    1.8141   -0.8376 O   0  0  0  0  0  0  0  0  0  0  0  0
    4.5390   -0.6153    0.6305 C   0  0  1  0  0  0  0  0  0  0  0  0
    4.2372   -0.9967   -0.8189 C   0  0  1  0  0  0  0  0  0  0  0  0
    3.2512   -0.3975    1.4250 C   0  0  2  0  0  0  0  0  0  0  0  0
    3.2264   -0.0273   -1.4364 C   0  0  1  0  0  0  0  0  0  0  0  0
    2.2814    0.5140    0.6732 C   0  0  1  0  0  0  0  0  0  0  0  0
    2.8208   -0.4549   -2.8433 C   0  0  0  0  0  0  0  0  0  0  0  0
    0.0514    1.3154    0.8902 C   0  0  0  0  0  0  0  0  0  0  0  0
   -1.1940    0.7868    0.5303 C   0  0  0  0  0  0  0  0  0  0  0  0
   -2.1816    1.6245    0.0078 C   0  0  0  0  0  0  0  0  0  0  0  0
    0.3041    2.6778    0.7267 C   0  0  0  0  0  0  0  0  0  0  0  0
   -1.4524   -0.6569    0.7067 C   0  0  0  0  0  0  0  0  0  0  0  0
   -2.7705   -1.2017    0.3220 C   0  0  0  0  0  0  0  0  0  0  0  0
   -3.7580   -0.3640   -0.2006 C   0  0  0  0  0  0  0  0  0  0  0  0
   -3.4995    1.0796   -0.3772 C   0  0  0  0  0  0  0  0  0  0  0  0
   -1.9239    2.9911   -0.1541 C   0  0  0  0  0  0  0  0  0  0  0  0
   -0.6815    3.5139    0.2057 C   0  0  0  0  0  0  0  0  0  0  0  0
   -3.0280   -2.5683    0.4839 C   0  0  0  0  0  0  0  0  0  0  0  0
   -5.0033   -0.8929   -0.5611 C   0  0  0  0  0  0  0  0  0  0  0  0
   -4.2701   -3.0913    0.1228 C   0  0  0  0  0  0  0  0  0  0  0  0
   -5.2556   -2.2553   -0.3983 C   0  0  0  0  0  0  0  0  0  0  0  0
    5.1797    0.2731    0.6787 H   0  0  0  0  0  0  0  0  0  0  0  0
    3.8543   -2.0239   -0.8577 H   0  0  0  0  0  0  0  0  0  0  0  0
    2.7781   -1.3613    1.6506 H   0  0  0  0  0  0  0  0  0  0  0  0
    3.6401    0.9886   -1.4971 H   0  0  0  0  0  0  0  0  0  0  0  0
    2.7086    1.5235    0.6168 H   0  0  0  0  0  0  0  0  0  0  0  0
    2.3440   -1.4407   -2.8407 H   0  0  0  0  0  0  0  0  0  0  0  0
    3.6777   -0.4792   -3.5224 H   0  0  0  0  0  0  0  0  0  0  0  0
    4.7361   -2.4798    1.2094 H   0  0  0  0  0  0  0  0  0  0  0  0
    5.7851   -0.0535   -1.5586 H   0  0  0  0  0  0  0  0  0  0  0  0
    2.7258    0.3570    3.1481 H   0  0  0  0  0  0  0  0  0  0  0  0
    1.2527    3.1175    1.0215 H   0  0  0  0  0  0  0  0  0  0  0  0
    1.1272    0.4958   -2.7296 H   0  0  0  0  0  0  0  0  0  0  0  0
   -2.6761    3.6641   -0.5569 H   0  0  0  0  0  0  0  0  0  0  0  0
   -0.4845    4.5752    0.0848 H   0  0  0  0  0  0  0  0  0  0  0  0
   -2.2776   -3.2423    0.8880 H   0  0  0  0  0  0  0  0  0  0  0  0
   -5.7882   -0.2622   -0.9697 H   0  0  0  0  0  0  0  0  0  0  0  0
   -4.4691   -4.1517    0.2485 H   0  0  0  0  0  0  0  0  0  0  0  0
   -6.2218   -2.6650   -0.6784 H   0  0  0  0  0  0  0  0  0  0  0  0
  1 12  1  0  0  0  0
  1 13  1  0  0  0  0
  2 13  1  0  0  0  0
  2 15  1  0  0  0  0
  3  9  1  0  0  0  0
  3 36  1  0  0  0  0
  4 10  1  0  0  0  0
  4 37  1  0  0  0  0
  5 11  1  0  0  0  0
  5 38  1  0  0  0  0
  6 14  1  0  0  0  0
  6 40  1  0  0  0  0
  7 19  2  0  0  0  0
  8 22  2  0  0  0  0
  9 10  1  0  0  0  0
  9 11  1  0  0  0  0
  9 29  1  0  0  0  0
 10 12  1  0  0  0  0
 10 30  1  0  0  0  0
 11 13  1  0  0  0  0
 11 31  1  0  0  0  0
 12 14  1  0  0  0  0
 12 32  1  0  0  0  0
 13 33  1  0  0  0  0
 14 34  1  0  0  0  0
 14 35  1  0  0  0  0
 15 16  1  0  0  0  0
 15 18  2  0  0  0  0
 16 17  2  0  0  0  0
 16 19  1  0  0  0  0
 17 22  1  0  0  0  0
 17 23  1  0  0  0  0
 18 24  1  0  0  0  0
 18 39  1  0  0  0  0
 19 20  1  0  0  0  0
 20 21  1  0  0  0  0
 20 25  2  0  0  0  0
 21 22  1  0  0  0  0
 21 26  2  0  0  0  0
 23 24  2  0  0  0  0
 23 41  1  0  0  0  0
 24 42  1  0  0  0  0
 25 27  1  0  0  0  0
 25 43  1  0  0  0  0
 26 28  1  0  0  0  0
 26 44  1  0  0  0  0
 27 28  2  0  0  0  0
 27 45  1  0  0  0  0
 28 46  1  0  0  0  0
M  END
> <PUBCHEM_COMPOUND_CID>
440032

> <PUBCHEM_CONFORMER_RMSD>
0.8

> <PUBCHEM_CONFORMER_DIVERSEORDER>
1
2
33
27
32
30
26
42
22
34
15
43
29
35
23
20
48
12
31
50
17
24
5
39
47
3
46
49
18
21
7
52
44
16
14
25
41
4
45
9
40
28
19
37
8
11
53
13
51
38
6
10
36

> <PUBCHEM_MMFF94_PARTIAL_CHARGES>
39
1 -0.56
10 0.28
11 0.28
12 0.28
13 0.56
14 0.28
15 0.08
16 0.09
17 0.09
18 -0.15
19 0.4
2 -0.36
20 0.09
21 0.09
22 0.4
23 -0.15
24 -0.15
25 -0.15
26 -0.15
27 -0.15
28 -0.15
3 -0.68
36 0.4
37 0.4
38 0.4
39 0.15
4 -0.68
40 0.4
41 0.15
42 0.15
43 0.15
44 0.15
45 0.15
46 0.15
5 -0.68
6 -0.68
7 -0.57
8 -0.57
9 0.28

> <PUBCHEM_EFFECTIVE_ROTOR_COUNT>
4.2

> <PUBCHEM_PHARMACOPHORE_FEATURES>
16
1 1 acceptor
1 2 acceptor
1 3 acceptor
1 3 donor
1 4 acceptor
1 4 donor
1 5 acceptor
1 5 donor
1 6 acceptor
1 6 donor
1 7 acceptor
1 8 acceptor
6 1 9 10 11 12 13 rings
6 15 16 17 18 23 24 rings
6 16 17 19 20 21 22 rings
6 20 21 25 26 27 28 rings

> <PUBCHEM_HEAVY_ATOM_COUNT>
28

> <PUBCHEM_ATOM_DEF_STEREO_COUNT>
5

> <PUBCHEM_ATOM_UDEF_STEREO_COUNT>
0

> <PUBCHEM_BOND_DEF_STEREO_COUNT>
0

> <PUBCHEM_BOND_UDEF_STEREO_COUNT>
0

> <PUBCHEM_ISOTOPIC_ATOM_COUNT>
0

> <PUBCHEM_COMPONENT_COUNT>
1

> <PUBCHEM_CACTVS_TAUTO_COUNT>
1

> <PUBCHEM_CONFORMER_ID>
0006B6E000000001

> <PUBCHEM_MMFF94_ENERGY>
93.7574

> <PUBCHEM_FEATURE_SELFOVERLAP>
81.306

> <PUBCHEM_SHAPE_FINGERPRINT>
11582403 64 16240475745702097360
12166972 35 17847064371837945278
12236239 1 17560521806522997632
12363563 72 18335414630257179299
12553582 1 18341887459763541707
12788726 201 18271799159527681521
13140716 1 18337964394097490241
13402501 40 17894910754139308150
13544653 18 17240483606614266089
13726171 33 18191839302307029404
14068700 675 18201446887198210066
14294032 229 17985266524579016901
14790565 3 17832425667969937073
14866123 147 18336265751890782145
15361156 5 17749392597853858773
16752209 62 18272370879698923794
17349148 13 18060135461688286978
1813 80 18262510391176006321
20403669 9 18261111842345134495
20511986 3 17846785104980749228
20600515 1 18337690683667646936
20775438 99 17402343568439492383
21781051 124 18130211758165476473
23557571 272 18260266377779553457
23559900 14 18408608076137443184
3004659 81 17988933249052638826
335352 9 18340218419062326429
4280585 95 18413395336589798940
463206 1 18341615858764430059
574716 61 16917063322176754175
6669772 16 17466780486251039812
6823239 73 18334013861149469520
86090 222 16951384586133330662
9709674 26 18052546461325645563

> <PUBCHEM_SHAPE_MULTIPOLES>
529.27
11.06
3.21
1.99
2.69
1.61
-1.23
-8.47
-1.53
-3.75
0.3
3.4
-0.25
0.66

> <PUBCHEM_SHAPE_SELFOVERLAP>
1170.811

> <PUBCHEM_SHAPE_VOLUME>
279.3

> <PUBCHEM_COORDINATE_TYPE>
2
5
10

$$$$

