442136
  -OEChem-07051212572D

 49 53  0     1  0  0  0  0  0999 V2000
    2.9997   -2.9482    0.0000 O   0  0  0  0  0  0  0  0  0  0  0  0
    6.7007    2.1245    0.0000 N   0  0  3  0  0  0  0  0  0  0  0  0
    6.0647   -1.0509    0.0000 N   0  0  0  0  0  0  0  0  0  0  0  0
    7.3242    1.3426    0.0000 C   0  0  2  0  0  0  0  0  0  0  0  0
    7.1017    0.3677    0.0000 C   0  0  1  0  0  0  0  0  0  0  0  0
    8.8520   -0.0531    0.0000 C   0  0  2  0  0  0  0  0  0  0  0  0
    8.3147    1.6650    0.0000 C   0  0  2  0  0  0  0  0  0  0  0  0
    7.8543   -0.3525    0.0000 C   0  0  0  0  0  0  0  0  0  0  0  0
    9.0837    0.9624    0.0000 C   0  0  0  0  0  0  0  0  0  0  0  0
    8.4050    1.6567    0.0000 C   0  0  0  0  0  0  0  0  0  0  0  0
    6.2007   -0.0662    0.0000 C   0  0  0  0  0  0  0  0  0  0  0  0
    5.7007    2.1245    0.0000 C   0  0  0  0  0  0  0  0  0  0  0  0
    8.5260    2.6424    0.0000 C   0  0  0  0  0  0  0  0  0  0  0  0
    5.2998    0.3677    0.0000 C   0  0  0  0  0  0  0  0  0  0  0  0
    5.0772    1.3426    0.0000 C   0  0  0  0  0  0  0  0  0  0  0  0
    4.6147   -0.3526    0.0000 C   0  0  0  0  0  0  0  0  0  0  0  0
    9.4781    2.9482    0.0000 C   0  0  0  0  0  0  0  0  0  0  0  0
    5.0865   -1.2276    0.0000 C   0  0  0  0  0  0  0  0  0  0  0  0
    3.5802   -0.3065    0.0000 C   0  0  0  0  0  0  0  0  0  0  0  0
    4.5566   -2.1172    0.0000 C   0  0  0  0  0  0  0  0  0  0  0  0
    3.0299   -1.1836    0.0000 C   0  0  0  0  0  0  0  0  0  0  0  0
    3.5214   -2.0950    0.0000 C   0  0  0  0  0  0  0  0  0  0  0  0
    2.0000   -2.9230    0.0000 C   0  0  0  0  0  0  0  0  0  0  0  0
    7.5134    2.1713    0.0000 H   0  0  0  0  0  0  0  0  0  0  0  0
    6.9126   -0.4610    0.0000 H   0  0  0  0  0  0  0  0  0  0  0  0
    9.0669   -0.8755    0.0000 H   0  0  0  0  0  0  0  0  0  0  0  0
    8.9054    1.8534    0.0000 H   0  0  0  0  0  0  0  0  0  0  0  0
    7.3553   -0.7204    0.0000 H   0  0  0  0  0  0  0  0  0  0  0  0
    8.1314   -0.9071    0.0000 H   0  0  0  0  0  0  0  0  0  0  0  0
    9.6557    0.7230    0.0000 H   0  0  0  0  0  0  0  0  0  0  0  0
    9.4174    1.4849    0.0000 H   0  0  0  0  0  0  0  0  0  0  0  0
    9.0229    1.7070    0.0000 H   0  0  0  0  0  0  0  0  0  0  0  0
    8.4628    2.2740    0.0000 H   0  0  0  0  0  0  0  0  0  0  0  0
    5.8387    2.7289    0.0000 H   0  0  0  0  0  0  0  0  0  0  0  0
    5.1421    2.3935    0.0000 H   0  0  0  0  0  0  0  0  0  0  0  0
    8.4418    3.2567    0.0000 H   0  0  0  0  0  0  0  0  0  0  0  0
    7.9064    2.6662    0.0000 H   0  0  0  0  0  0  0  0  0  0  0  0
    4.6907    1.8274    0.0000 H   0  0  0  0  0  0  0  0  0  0  0  0
    4.5186    1.0736    0.0000 H   0  0  0  0  0  0  0  0  0  0  0  0
    6.5121   -1.4801    0.0000 H   0  0  0  0  0  0  0  0  0  0  0  0
    9.6676    2.3579    0.0000 H   0  0  0  0  0  0  0  0  0  0  0  0
   10.0684    3.1378    0.0000 H   0  0  0  0  0  0  0  0  0  0  0  0
    9.2885    3.5385    0.0000 H   0  0  0  0  0  0  0  0  0  0  0  0
    3.2923    0.2425    0.0000 H   0  0  0  0  0  0  0  0  0  0  0  0
    4.8571   -2.6594    0.0000 H   0  0  0  0  0  0  0  0  0  0  0  0
    2.4102   -1.1632    0.0000 H   0  0  0  0  0  0  0  0  0  0  0  0
    2.0156   -2.3032    0.0000 H   0  0  0  0  0  0  0  0  0  0  0  0
    1.3802   -2.9074    0.0000 H   0  0  0  0  0  0  0  0  0  0  0  0
    1.9844   -3.5428    0.0000 H   0  0  0  0  0  0  0  0  0  0  0  0
  1 22  1  0  0  0  0
  1 23  1  0  0  0  0
  2  4  1  0  0  0  0
  2 10  1  0  0  0  0
  2 12  1  0  0  0  0
  3 11  1  0  0  0  0
  3 18  1  0  0  0  0
  3 40  1  0  0  0  0
  4  5  1  0  0  0  0
  4  7  1  0  0  0  0
  4 24  1  6  0  0  0
  5  8  1  0  0  0  0
  5 11  1  0  0  0  0
  5 25  1  6  0  0  0
  6  8  1  0  0  0  0
  6  9  1  0  0  0  0
  6 10  1  0  0  0  0
  6 26  1  6  0  0  0
  7  9  1  0  0  0  0
  7 13  1  1  0  0  0
  7 27  1  0  0  0  0
  8 28  1  0  0  0  0
  8 29  1  0  0  0  0
  9 30  1  0  0  0  0
  9 31  1  0  0  0  0
 10 32  1  0  0  0  0
 10 33  1  0  0  0  0
 11 14  2  0  0  0  0
 12 15  1  0  0  0  0
 12 34  1  0  0  0  0
 12 35  1  0  0  0  0
 13 17  1  0  0  0  0
 13 36  1  0  0  0  0
 13 37  1  0  0  0  0
 14 15  1  0  0  0  0
 14 16  1  0  0  0  0
 15 38  1  0  0  0  0
 15 39  1  0  0  0  0
 16 18  2  0  0  0  0
 16 19  1  0  0  0  0
 17 41  1  0  0  0  0
 17 42  1  0  0  0  0
 17 43  1  0  0  0  0
 18 20  1  0  0  0  0
 19 21  2  0  0  0  0
 19 44  1  0  0  0  0
 20 22  2  0  0  0  0
 20 45  1  0  0  0  0
 21 22  1  0  0  0  0
 21 46  1  0  0  0  0
 23 47  1  0  0  0  0
 23 48  1  0  0  0  0
 23 49  1  0  0  0  0
M  END
> <PUBCHEM_COMPOUND_CID>
442136

> <PUBCHEM_COMPOUND_CANONICALIZED>
1

> <PUBCHEM_CACTVS_COMPLEXITY>
455

> <PUBCHEM_CACTVS_HBOND_ACCEPTOR>
2

> <PUBCHEM_CACTVS_HBOND_DONOR>
1

> <PUBCHEM_CACTVS_ROTATABLE_BOND>
2

> <PUBCHEM_CACTVS_SUBSKEYS>
AAADceB7IAAAAAAAAAAAAAAAAAAAAWAAAAA8eIEABYAAAFix8AAAHgAQAAAADSzBngYyxvPJlACgAyRiRACCiCAhIiAImSA+bJgMJuLE8ZuEMChm0BnI6AeQ0PMOoAAAAgACAABQAAQEAAQAAAAAAAAAAA==

> <PUBCHEM_IUPAC_INCHI>
InChI=1S/C20H26N2O/c1-3-13-8-12-9-17-19-16(6-7-22(11-12)20(13)17)15-5-4-14(23-2)10-18(15)21-19/h4-5,10,12-13,17,20-21H,3,6-9,11H2,1-2H3/t12-,13-,17-,20-/m0/s1

> <PUBCHEM_IUPAC_INCHIKEY>
UCIDWKVIQZIKEK-NXWOVTFFSA-N

> <PUBCHEM_XLOGP3_AA>
3.9

> <PUBCHEM_EXACT_MASS>
310.204513

> <PUBCHEM_MOLECULAR_FORMULA>
C20H26N2O

> <PUBCHEM_MOLECULAR_WEIGHT>
310.43324

> <PUBCHEM_OPENEYE_CAN_SMILES>
CCC1CC2CC3C1N(C2)CCC4=C3NC5=C4C=CC(=C5)OC

> <PUBCHEM_OPENEYE_ISO_SMILES>
CC[C@H]1C[C@H]2C[C@@H]3[C@H]1N(C2)CCC4=C3NC5=C4C=CC(=C5)OC

> <PUBCHEM_CACTVS_TPSA>
28.3

> <PUBCHEM_MONOISOTOPIC_WEIGHT>
310.204513

> <PUBCHEM_TOTAL_CHARGE>
0

> <PUBCHEM_HEAVY_ATOM_COUNT>
23

> <PUBCHEM_ATOM_DEF_STEREO_COUNT>
4

> <PUBCHEM_ATOM_UDEF_STEREO_COUNT>
0

> <PUBCHEM_BOND_DEF_STEREO_COUNT>
0

> <PUBCHEM_BOND_UDEF_STEREO_COUNT>
0

> <PUBCHEM_ISOTOPIC_ATOM_COUNT>
0

> <PUBCHEM_COMPONENT_COUNT>
1

> <PUBCHEM_CACTVS_TAUTO_COUNT>
1

> <PUBCHEM_COORDINATE_TYPE>
1
5
255

> <PUBCHEM_BONDANNOTATIONS>
11  14  8
14  16  8
16  18  8
16  19  8
18  20  8
19  21  8
20  22  8
21  22  8
3  11  8
3  18  8
4  24  6
5  25  6
6  26  6
7  13  5

$$$$

