6717
  -OEChem-06261201282D

 36 39  0     1  0  0  0  0  0999 V2000
    2.8602    2.9680    0.0000 O   0  0  0  0  0  0  0  0  0  0  0  0
    2.0000    1.4646    0.0000 O   0  0  0  0  0  0  0  0  0  0  0  0
    5.5322    1.4644    0.0000 N   0  0  3  0  0  0  0  0  0  0  0  0
    6.5202   -2.7258    0.0000 N   0  0  0  0  0  0  0  0  0  0  0  0
    5.5161    0.4229    0.0000 C   0  0  1  0  0  0  0  0  0  0  0  0
    4.6501   -0.0771    0.0000 C   0  0  0  0  0  0  0  0  0  0  0  0
    6.3821   -0.0771    0.0000 C   0  0  0  0  0  0  0  0  0  0  0  0
    4.6341    1.9921    0.0000 C   0  0  0  0  0  0  0  0  0  0  0  0
    6.3821   -1.0771    0.0000 C   0  0  0  0  0  0  0  0  0  0  0  0
    3.7320    1.4713    0.0000 C   0  0  1  0  0  0  0  0  0  0  0  0
    4.6501   -1.0771    0.0000 C   0  0  0  0  0  0  0  0  0  0  0  0
    5.5161   -1.5771    0.0000 C   0  0  0  0  0  0  0  0  0  0  0  0
    3.7401    0.4297    0.0000 C   0  0  0  0  0  0  0  0  0  0  0  0
    5.5322   -2.6186    0.0000 C   0  0  0  0  0  0  0  0  0  0  0  0
    6.4039    1.9543    0.0000 C   0  0  0  0  0  0  0  0  0  0  0  0
    7.0000   -1.8555    0.0000 C   0  0  0  0  0  0  0  0  0  0  0  0
    3.7401   -1.5840    0.0000 C   0  0  0  0  0  0  0  0  0  0  0  0
    2.8641    1.9680    0.0000 C   0  0  0  0  0  0  0  0  0  0  0  0
    4.6341   -3.1464    0.0000 C   0  0  0  0  0  0  0  0  0  0  0  0
    3.7320   -2.6256    0.0000 C   0  0  0  0  0  0  0  0  0  0  0  0
    6.2555    0.8422    0.0000 H   0  0  0  0  0  0  0  0  0  0  0  0
    6.9927   -0.1848    0.0000 H   0  0  0  0  0  0  0  0  0  0  0  0
    6.5942    0.5055    0.0000 H   0  0  0  0  0  0  0  0  0  0  0  0
    5.0351    2.4650    0.0000 H   0  0  0  0  0  0  0  0  0  0  0  0
    4.2368    2.4681    0.0000 H   0  0  0  0  0  0  0  0  0  0  0  0
    3.7308    2.0913    0.0000 H   0  0  0  0  0  0  0  0  0  0  0  0
    3.2068    0.1135    0.0000 H   0  0  0  0  0  0  0  0  0  0  0  0
    6.7077    1.4138    0.0000 H   0  0  0  0  0  0  0  0  0  0  0  0
    6.9444    2.2581    0.0000 H   0  0  0  0  0  0  0  0  0  0  0  0
    6.1001    2.4948    0.0000 H   0  0  0  0  0  0  0  0  0  0  0  0
    7.6179   -1.8038    0.0000 H   0  0  0  0  0  0  0  0  0  0  0  0
    3.2068   -1.2678    0.0000 H   0  0  0  0  0  0  0  0  0  0  0  0
    6.8062   -3.2759    0.0000 H   0  0  0  0  0  0  0  0  0  0  0  0
    4.6365   -3.7664    0.0000 H   0  0  0  0  0  0  0  0  0  0  0  0
    3.1939   -2.9335    0.0000 H   0  0  0  0  0  0  0  0  0  0  0  0
    2.3221    3.2759    0.0000 H   0  0  0  0  0  0  0  0  0  0  0  0
  1 18  1  0  0  0  0
  1 36  1  0  0  0  0
  2 18  2  0  0  0  0
  3  5  1  0  0  0  0
  3  8  1  0  0  0  0
  3 15  1  0  0  0  0
  4 14  1  0  0  0  0
  4 16  1  0  0  0  0
  4 33  1  0  0  0  0
  5  6  1  0  0  0  0
  5  7  1  0  0  0  0
  5 21  1  1  0  0  0
  6 11  1  0  0  0  0
  6 13  2  0  0  0  0
  7  9  1  0  0  0  0
  7 22  1  0  0  0  0
  7 23  1  0  0  0  0
  8 10  1  0  0  0  0
  8 24  1  0  0  0  0
  8 25  1  0  0  0  0
  9 12  1  0  0  0  0
  9 16  2  0  0  0  0
 10 13  1  0  0  0  0
 10 18  1  1  0  0  0
 10 26  1  0  0  0  0
 11 12  2  0  0  0  0
 11 17  1  0  0  0  0
 12 14  1  0  0  0  0
 13 27  1  0  0  0  0
 14 19  2  0  0  0  0
 15 28  1  0  0  0  0
 15 29  1  0  0  0  0
 15 30  1  0  0  0  0
 16 31  1  0  0  0  0
 17 20  2  0  0  0  0
 17 32  1  0  0  0  0
 19 20  1  0  0  0  0
 19 34  1  0  0  0  0
 20 35  1  0  0  0  0
M  END
> <PUBCHEM_COMPOUND_CID>
6717

> <PUBCHEM_COMPOUND_CANONICALIZED>
1

> <PUBCHEM_CACTVS_COMPLEXITY>
461

> <PUBCHEM_CACTVS_HBOND_ACCEPTOR>
3

> <PUBCHEM_CACTVS_HBOND_DONOR>
2

> <PUBCHEM_CACTVS_ROTATABLE_BOND>
1

> <PUBCHEM_CACTVS_SUBSKEYS>
AAADceB7MAAAAAAAAAAAAAAAAAAAAWAAAAAwYIAAAAAAAFjB8AAAHgAQCAAADSjBngQ+yPPJkgCoAzT3TACCgCAxAiAI2aE4ZJgIIOrAkZGEYAhi0ADIyAcQgMAOgAAAQAASAAAQAASAACQAAAAAAAAAAA==

> <PUBCHEM_IUPAC_OPENEYE_NAME>
(6aR,9R)-7-methyl-6,6a,8,9-tetrahydro-4H-indolo[4,3-fg]quinoline-9-carboxylic acid

> <PUBCHEM_IUPAC_CAS_NAME>
(6aR,9R)-7-methyl-6,6a,8,9-tetrahydro-4H-indolo[4,3-fg]quinoline-9-carboxylic acid

> <PUBCHEM_IUPAC_NAME>
(6aR,9R)-7-methyl-6,6a,8,9-tetrahydro-4H-indolo[4,3-fg]quinoline-9-carboxylic acid

> <PUBCHEM_IUPAC_SYSTEMATIC_NAME>
(6aR,9R)-7-methyl-6,6a,8,9-tetrahydro-4H-indolo[4,3-fg]quinoline-9-carboxylic acid

> <PUBCHEM_IUPAC_TRADITIONAL_NAME>
(6aR,9R)-7-methyl-6,6a,8,9-tetrahydro-4H-indolo[4,3-fg]quinoline-9-carboxylic acid

> <PUBCHEM_IUPAC_INCHI>
InChI=1S/C16H16N2O2/c1-18-8-10(16(19)20)5-12-11-3-2-4-13-15(11)9(7-17-13)6-14(12)18/h2-5,7,10,14,17H,6,8H2,1H3,(H,19,20)/t10-,14-/m1/s1

> <PUBCHEM_IUPAC_INCHIKEY>
ZAGRKAFMISFKIO-QMTHXVAHSA-N

> <PUBCHEM_XLOGP3>
0

> <PUBCHEM_EXACT_MASS>
268.121178

> <PUBCHEM_MOLECULAR_FORMULA>
C16H16N2O2

> <PUBCHEM_MOLECULAR_WEIGHT>
268.31044

> <PUBCHEM_OPENEYE_CAN_SMILES>
CN1CC(C=C2C1CC3=CNC4=CC=CC2=C34)C(=O)O

> <PUBCHEM_OPENEYE_ISO_SMILES>
CN1C[C@@H](C=C2[C@H]1CC3=CNC4=CC=CC2=C34)C(=O)O

> <PUBCHEM_CACTVS_TPSA>
56.3

> <PUBCHEM_MONOISOTOPIC_WEIGHT>
268.121178

> <PUBCHEM_TOTAL_CHARGE>
0

> <PUBCHEM_HEAVY_ATOM_COUNT>
20

> <PUBCHEM_ATOM_DEF_STEREO_COUNT>
2

> <PUBCHEM_ATOM_UDEF_STEREO_COUNT>
0

> <PUBCHEM_BOND_DEF_STEREO_COUNT>
0

> <PUBCHEM_BOND_UDEF_STEREO_COUNT>
0

> <PUBCHEM_ISOTOPIC_ATOM_COUNT>
0

> <PUBCHEM_COMPONENT_COUNT>
1

> <PUBCHEM_CACTVS_TAUTO_COUNT>
2

> <PUBCHEM_COORDINATE_TYPE>
1
5
255

> <PUBCHEM_BONDANNOTATIONS>
10  18  5
11  12  8
11  17  8
12  14  8
14  19  8
17  20  8
19  20  8
4  14  8
4  16  8
5  21  5
9  12  8
9  16  8

$$$$

