9548877
  -OEChem-07051213062D

 54 53  0     1  0  0  0  0  0999 V2000
   10.3312   -0.4400    0.0000 O   0  0  0  0  0  0  0  0  0  0  0  0
    9.4651    0.0600    0.0000 O   0  0  0  0  0  0  0  0  0  0  0  0
    2.5369   -1.9400    0.0000 O   0  0  0  0  0  0  0  0  0  0  0  0
    3.4030   -0.4400    0.0000 O   0  0  0  0  0  0  0  0  0  0  0  0
    7.7331   -1.9400    0.0000 C   0  0  0  0  0  0  0  0  0  0  0  0
    6.8671   -1.4400    0.0000 C   0  0  0  0  0  0  0  0  0  0  0  0
    8.5991   -1.4400    0.0000 C   0  0  0  0  0  0  0  0  0  0  0  0
    6.0010   -1.9400    0.0000 C   0  0  0  0  0  0  0  0  0  0  0  0
    9.4651   -1.9400    0.0000 C   0  0  0  0  0  0  0  0  0  0  0  0
    5.1350   -1.4400    0.0000 C   0  0  0  0  0  0  0  0  0  0  0  0
   10.3312   -1.4400    0.0000 C   0  0  1  0  0  0  0  0  0  0  0  0
    4.2690   -1.9400    0.0000 C   0  0  0  0  0  0  0  0  0  0  0  0
   11.1972   -1.9400    0.0000 C   0  0  0  0  0  0  0  0  0  0  0  0
   14.6613    0.0600    0.0000 C   0  0  0  0  0  0  0  0  0  0  0  0
   14.6613    1.0600    0.0000 C   0  0  0  0  0  0  0  0  0  0  0  0
   13.7953   -0.4400    0.0000 C   0  0  0  0  0  0  0  0  0  0  0  0
   15.5273    1.5600    0.0000 C   0  0  0  0  0  0  0  0  0  0  0  0
   12.0632   -1.4400    0.0000 C   0  0  0  0  0  0  0  0  0  0  0  0
    3.4030   -1.4400    0.0000 C   0  0  0  0  0  0  0  0  0  0  0  0
   13.7953   -1.4400    0.0000 C   0  0  0  0  0  0  0  0  0  0  0  0
   12.9292   -1.9400    0.0000 C   0  0  0  0  0  0  0  0  0  0  0  0
   15.5273    2.5600    0.0000 C   0  0  0  0  0  0  0  0  0  0  0  0
    7.3346   -2.4150    0.0000 H   0  0  0  0  0  0  0  0  0  0  0  0
    8.1316   -2.4150    0.0000 H   0  0  0  0  0  0  0  0  0  0  0  0
    7.2656   -0.9651    0.0000 H   0  0  0  0  0  0  0  0  0  0  0  0
    6.4685   -0.9651    0.0000 H   0  0  0  0  0  0  0  0  0  0  0  0
    8.9976   -0.9651    0.0000 H   0  0  0  0  0  0  0  0  0  0  0  0
    8.2006   -0.9651    0.0000 H   0  0  0  0  0  0  0  0  0  0  0  0
    5.6025   -2.4150    0.0000 H   0  0  0  0  0  0  0  0  0  0  0  0
    6.3996   -2.4150    0.0000 H   0  0  0  0  0  0  0  0  0  0  0  0
    9.0666   -2.4150    0.0000 H   0  0  0  0  0  0  0  0  0  0  0  0
    9.8637   -2.4150    0.0000 H   0  0  0  0  0  0  0  0  0  0  0  0
    5.5335   -0.9651    0.0000 H   0  0  0  0  0  0  0  0  0  0  0  0
    4.7365   -0.9651    0.0000 H   0  0  0  0  0  0  0  0  0  0  0  0
   10.8681   -1.1300    0.0000 H   0  0  0  0  0  0  0  0  0  0  0  0
    3.8705   -2.4150    0.0000 H   0  0  0  0  0  0  0  0  0  0  0  0
    4.6675   -2.4150    0.0000 H   0  0  0  0  0  0  0  0  0  0  0  0
   11.1972   -2.5600    0.0000 H   0  0  0  0  0  0  0  0  0  0  0  0
   14.8733   -0.5226    0.0000 H   0  0  0  0  0  0  0  0  0  0  0  0
   15.2719    0.1677    0.0000 H   0  0  0  0  0  0  0  0  0  0  0  0
   14.4492    1.6426    0.0000 H   0  0  0  0  0  0  0  0  0  0  0  0
   14.0507    0.9523    0.0000 H   0  0  0  0  0  0  0  0  0  0  0  0
   13.5832    0.1426    0.0000 H   0  0  0  0  0  0  0  0  0  0  0  0
   13.1847   -0.5477    0.0000 H   0  0  0  0  0  0  0  0  0  0  0  0
   15.7394    0.9774    0.0000 H   0  0  0  0  0  0  0  0  0  0  0  0
   16.1379    1.6677    0.0000 H   0  0  0  0  0  0  0  0  0  0  0  0
   12.0632   -0.8200    0.0000 H   0  0  0  0  0  0  0  0  0  0  0  0
   14.3322   -1.7500    0.0000 H   0  0  0  0  0  0  0  0  0  0  0  0
   12.9292   -2.5600    0.0000 H   0  0  0  0  0  0  0  0  0  0  0  0
   16.1473    2.5600    0.0000 H   0  0  0  0  0  0  0  0  0  0  0  0
   15.5273    3.1800    0.0000 H   0  0  0  0  0  0  0  0  0  0  0  0
   14.9073    2.5600    0.0000 H   0  0  0  0  0  0  0  0  0  0  0  0
    9.4651    0.6800    0.0000 H   0  0  0  0  0  0  0  0  0  0  0  0
    2.0000   -1.6300    0.0000 H   0  0  0  0  0  0  0  0  0  0  0  0
  1  2  1  0  0  0  0
 11  1  1  6  0  0  0
  2 53  1  0  0  0  0
  3 19  1  0  0  0  0
  3 54  1  0  0  0  0
  4 19  2  0  0  0  0
  5  6  1  0  0  0  0
  5  7  1  0  0  0  0
  5 23  1  0  0  0  0
  5 24  1  0  0  0  0
  6  8  1  0  0  0  0
  6 25  1  0  0  0  0
  6 26  1  0  0  0  0
  7  9  1  0  0  0  0
  7 27  1  0  0  0  0
  7 28  1  0  0  0  0
  8 10  1  0  0  0  0
  8 29  1  0  0  0  0
  8 30  1  0  0  0  0
  9 11  1  0  0  0  0
  9 31  1  0  0  0  0
  9 32  1  0  0  0  0
 10 12  1  0  0  0  0
 10 33  1  0  0  0  0
 10 34  1  0  0  0  0
 11 13  1  0  0  0  0
 11 35  1  0  0  0  0
 12 19  1  0  0  0  0
 12 36  1  0  0  0  0
 12 37  1  0  0  0  0
 13 18  2  0  0  0  0
 13 38  1  0  0  0  0
 14 15  1  0  0  0  0
 14 16  1  0  0  0  0
 14 39  1  0  0  0  0
 14 40  1  0  0  0  0
 15 17  1  0  0  0  0
 15 41  1  0  0  0  0
 15 42  1  0  0  0  0
 16 20  1  0  0  0  0
 16 43  1  0  0  0  0
 16 44  1  0  0  0  0
 17 22  1  0  0  0  0
 17 45  1  0  0  0  0
 17 46  1  0  0  0  0
 18 21  1  0  0  0  0
 18 47  1  0  0  0  0
 20 21  2  0  0  0  0
 20 48  1  0  0  0  0
 21 49  1  0  0  0  0
 22 50  1  0  0  0  0
 22 51  1  0  0  0  0
 22 52  1  0  0  0  0
M  END
> <PUBCHEM_COMPOUND_CID>
9548877

> <PUBCHEM_COMPOUND_CANONICALIZED>
1

> <PUBCHEM_CACTVS_COMPLEXITY>
310

> <PUBCHEM_CACTVS_HBOND_ACCEPTOR>
4

> <PUBCHEM_CACTVS_HBOND_DONOR>
2

> <PUBCHEM_CACTVS_ROTATABLE_BOND>
15

> <PUBCHEM_CACTVS_SUBSKEYS>
AAADcfB4OAAAAAAAAAAAAAAAAAAAAAAAAAAAAAAAAAAAAAAAAAAAGgAADAAACBSggAICCAAAAgCIACDSCAAAAAAgAAAICAEAAAgIBBIAAQAAUAAEgAAIgAOIyKCAAAAAAAAAAAAAAAAAAAAAAAAAAAAAAA==

> <PUBCHEM_IUPAC_OPENEYE_NAME>
(9S,10E,12Z)-9-hydroperoxyoctadeca-10,12-dienoic acid

> <PUBCHEM_IUPAC_CAS_NAME>
(9S,10E,12Z)-9-hydroperoxyoctadeca-10,12-dienoic acid

> <PUBCHEM_IUPAC_NAME>
(9S,10E,12Z)-9-hydroperoxyoctadeca-10,12-dienoic acid

> <PUBCHEM_IUPAC_SYSTEMATIC_NAME>
(9S,10E,12Z)-9-(dioxidanyl)octadeca-10,12-dienoic acid

> <PUBCHEM_IUPAC_TRADITIONAL_NAME>
(9S,10E,12Z)-9-hydroperoxyoctadeca-10,12-dienoic acid

> <PUBCHEM_IUPAC_INCHI>
InChI=1S/C18H32O4/c1-2-3-4-5-6-8-11-14-17(22-21)15-12-9-7-10-13-16-18(19)20/h6,8,11,14,17,21H,2-5,7,9-10,12-13,15-16H2,1H3,(H,19,20)/b8-6-,14-11+/t17-/m1/s1

> <PUBCHEM_IUPAC_INCHIKEY>
JGUNZIWGNMQSBM-UINYOVNOSA-N

> <PUBCHEM_XLOGP3_AA>
5.4

> <PUBCHEM_EXACT_MASS>
312.23006

> <PUBCHEM_MOLECULAR_FORMULA>
C18H32O4

> <PUBCHEM_MOLECULAR_WEIGHT>
312.44428

> <PUBCHEM_OPENEYE_CAN_SMILES>
CCCCCC=CC=CC(CCCCCCCC(=O)O)OO

> <PUBCHEM_OPENEYE_ISO_SMILES>
CCCCC/C=C\C=C\[C@H](CCCCCCCC(=O)O)OO

> <PUBCHEM_CACTVS_TPSA>
66.8

> <PUBCHEM_MONOISOTOPIC_WEIGHT>
312.23006

> <PUBCHEM_TOTAL_CHARGE>
0

> <PUBCHEM_HEAVY_ATOM_COUNT>
22

> <PUBCHEM_ATOM_DEF_STEREO_COUNT>
1

> <PUBCHEM_ATOM_UDEF_STEREO_COUNT>
0

> <PUBCHEM_BOND_DEF_STEREO_COUNT>
2

> <PUBCHEM_BOND_UDEF_STEREO_COUNT>
0

> <PUBCHEM_ISOTOPIC_ATOM_COUNT>
0

> <PUBCHEM_COMPONENT_COUNT>
1

> <PUBCHEM_CACTVS_TAUTO_COUNT>
1

> <PUBCHEM_COORDINATE_TYPE>
1
5
255

> <PUBCHEM_BONDANNOTATIONS>
11  1  6

$$$$

