10671
  -OEChem-06261204493D

 25 27  0     0  0  0  0  0  0999 V2000
    0.0000    2.6536    0.7286 N   0  0  0  0  0  0  0  0  0  0  0  0
    0.0000    1.6344   -0.3138 C   0  0  0  0  0  0  0  0  0  0  0  0
    1.1782    0.6789   -0.1852 C   0  0  0  0  0  0  0  0  0  0  0  0
   -1.1783    0.6789   -0.1851 C   0  0  0  0  0  0  0  0  0  0  0  0
    0.7234   -0.6473   -0.0065 C   0  0  0  0  0  0  0  0  0  0  0  0
   -0.7233   -0.6472   -0.0065 C   0  0  0  0  0  0  0  0  0  0  0  0
    2.5315    0.9776   -0.2070 C   0  0  0  0  0  0  0  0  0  0  0  0
   -2.5314    0.9776   -0.2069 C   0  0  0  0  0  0  0  0  0  0  0  0
    1.6252   -1.6887    0.1400 C   0  0  0  0  0  0  0  0  0  0  0  0
   -1.6252   -1.6886    0.1400 C   0  0  0  0  0  0  0  0  0  0  0  0
    3.4398   -0.0722   -0.0596 C   0  0  0  0  0  0  0  0  0  0  0  0
   -3.4398   -0.0722   -0.0596 C   0  0  0  0  0  0  0  0  0  0  0  0
    2.9911   -1.3925    0.1109 C   0  0  0  0  0  0  0  0  0  0  0  0
   -2.9911   -1.3925    0.1108 C   0  0  0  0  0  0  0  0  0  0  0  0
   -0.0001    2.0832   -1.3139 H   0  0  0  0  0  0  0  0  0  0  0  0
    2.8824    1.9952   -0.3392 H   0  0  0  0  0  0  0  0  0  0  0  0
   -2.8824    1.9951   -0.3391 H   0  0  0  0  0  0  0  0  0  0  0  0
    1.2943   -2.7127    0.2771 H   0  0  0  0  0  0  0  0  0  0  0  0
   -1.2943   -2.7128    0.2770 H   0  0  0  0  0  0  0  0  0  0  0  0
   -0.8130    3.2584    0.6157 H   0  0  0  0  0  0  0  0  0  0  0  0
    0.8130    3.2583    0.6157 H   0  0  0  0  0  0  0  0  0  0  0  0
    4.5069    0.1326   -0.0764 H   0  0  0  0  0  0  0  0  0  0  0  0
   -4.5070    0.1326   -0.0764 H   0  0  0  0  0  0  0  0  0  0  0  0
    3.7171   -2.1933    0.2242 H   0  0  0  0  0  0  0  0  0  0  0  0
   -3.7171   -2.1934    0.2241 H   0  0  0  0  0  0  0  0  0  0  0  0
  1  2  1  0  0  0  0
  1 20  1  0  0  0  0
  1 21  1  0  0  0  0
  2  3  1  0  0  0  0
  2  4  1  0  0  0  0
  2 15  1  0  0  0  0
  3  5  1  0  0  0  0
  3  7  2  0  0  0  0
  4  6  1  0  0  0  0
  4  8  2  0  0  0  0
  5  6  1  0  0  0  0
  5  9  2  0  0  0  0
  6 10  2  0  0  0  0
  7 11  1  0  0  0  0
  7 16  1  0  0  0  0
  8 12  1  0  0  0  0
  8 17  1  0  0  0  0
  9 13  1  0  0  0  0
  9 18  1  0  0  0  0
 10 14  1  0  0  0  0
 10 19  1  0  0  0  0
 11 13  2  0  0  0  0
 11 22  1  0  0  0  0
 12 14  2  0  0  0  0
 12 23  1  0  0  0  0
 13 24  1  0  0  0  0
 14 25  1  0  0  0  0
M  END
> <PUBCHEM_COMPOUND_CID>
10671

> <PUBCHEM_CONFORMER_RMSD>
0.4

> <PUBCHEM_CONFORMER_DIVERSEORDER>
1

> <PUBCHEM_MMFF94_PARTIAL_CHARGES>
22
1 -0.99
10 -0.15
11 -0.15
12 -0.15
13 -0.15
14 -0.15
16 0.15
17 0.15
18 0.15
19 0.15
2 0.56
20 0.36
21 0.36
22 0.15
23 0.15
24 0.15
25 0.15
3 -0.14
4 -0.14
7 -0.15
8 -0.15
9 -0.15

> <PUBCHEM_EFFECTIVE_ROTOR_COUNT>
0.2

> <PUBCHEM_PHARMACOPHORE_FEATURES>
5
1 1 cation
1 1 donor
5 2 3 4 5 6 rings
6 3 5 7 9 11 13 rings
6 4 6 8 10 12 14 rings

> <PUBCHEM_HEAVY_ATOM_COUNT>
14

> <PUBCHEM_ATOM_DEF_STEREO_COUNT>
0

> <PUBCHEM_ATOM_UDEF_STEREO_COUNT>
0

> <PUBCHEM_BOND_DEF_STEREO_COUNT>
0

> <PUBCHEM_BOND_UDEF_STEREO_COUNT>
0

> <PUBCHEM_ISOTOPIC_ATOM_COUNT>
0

> <PUBCHEM_COMPONENT_COUNT>
1

> <PUBCHEM_CACTVS_TAUTO_COUNT>
1

> <PUBCHEM_CONFORMER_ID>
000029AF00000001

> <PUBCHEM_MMFF94_ENERGY>
45.4489

> <PUBCHEM_FEATURE_SELFOVERLAP>
25.533

> <PUBCHEM_SHAPE_FINGERPRINT>
10130415 120 18412829096432453051
10608611 8 18412831282539417973
108231 29 18337388240765169552
10967382 1 18267303123232145886
11132069 177 18411144631781251570
11471102 20 18412268315701286319
11769659 78 18343308080073014562
11806522 49 18194969547771108687
12032990 46 18410849966902231854
12382932 28 18409167726991128010
13140716 1 18411419556848693410
14144814 61 18411699889474794827
14325111 11 18413107259941847116
15001771 113 18338791333677247656
15196674 1 18412262839306766878
15375462 189 18272930548450220779
15442244 35 18123752221134911706
15536298 74 18407759227364167718
16945 1 18343301470012708236
17844478 74 17846208977861857053
193761 8 17473826602899330351
19591789 44 15750612004972817695
200 152 18114473275405175991
20201158 50 18413390938258191367
20510252 161 18189899892707331568
20588541 1 18413387618337921551
21029758 11 18335430062544341045
21267235 1 18412254047524958406
21501502 16 18412824659810402919
22721475 48 18341609287410764319
2334 1 18411418380027634390
23402539 116 18261405493226789655
23463225 33 18413388743693264622
23552423 10 18201717327723624150
23559900 14 18337115682889781282
2748010 2 18410858750115386694
3312278 4 18412259553846605042
335352 9 18051413160425020639
34934 24 18410303496716979438
5104073 3 18412826884487353610
528886 8 18411142428500114330
53812653 166 18263366897517105520
5493415 88 18339644417224447283
7364860 26 18191305961894426825
81228 2 18194390315448793352
8809292 202 18273209794207334610

> <PUBCHEM_SHAPE_MULTIPOLES>
283.13
5.22
2.16
0.66
0
0.55
0.01
-1.38
-0.11
0
0.29
0
0.09
0

> <PUBCHEM_SHAPE_SELFOVERLAP>
637.065

> <PUBCHEM_SHAPE_VOLUME>
151.4

> <PUBCHEM_COORDINATE_TYPE>
2
5
10

$$$$

