101966
  -OEChem-07051213053D

 52 56  0     1  0  0  0  0  0999 V2000
   -3.5756    0.7573   -1.5794 O   0  0  0  0  0  0  0  0  0  0  0  0
   -5.3524   -0.5951    0.9762 O   0  0  0  0  0  0  0  0  0  0  0  0
    6.2221   -0.1795   -1.0960 O   0  0  0  0  0  0  0  0  0  0  0  0
   -2.1316   -0.2843    0.2220 C   0  0  2  0  0  0  0  0  0  0  0  0
   -3.5002    0.0650   -0.3276 C   0  0  1  0  0  0  0  0  0  0  0  0
   -1.2746    0.9401   -0.2114 C   0  0  2  0  0  0  0  0  0  0  0  0
   -3.5641    1.5611   -0.3924 C   0  0  1  0  0  0  0  0  0  0  0  0
    0.1218    0.9137    0.4044 C   0  0  1  0  0  0  0  0  0  0  0  0
   -2.2189    2.1350   -0.0027 C   0  0  0  0  0  0  0  0  0  0  0  0
    0.8487   -0.3736   -0.1062 C   0  0  2  0  0  0  0  0  0  0  0  0
   -1.4739   -1.5268   -0.3750 C   0  0  0  0  0  0  0  0  0  0  0  0
   -0.0080   -1.6603    0.0885 C   0  0  0  0  0  0  0  0  0  0  0  0
    2.3237   -0.4938    0.4387 C   0  0  2  0  0  0  0  0  0  0  0  0
   -2.2866   -0.4395    1.7558 C   0  0  0  0  0  0  0  0  0  0  0  0
    0.9303    2.1592    0.0260 C   0  0  0  0  0  0  0  0  0  0  0  0
   -4.7052   -0.7314   -0.0609 C   0  0  0  0  0  0  0  0  0  0  0  0
    3.0632    0.8311    0.2076 C   0  0  0  0  0  0  0  0  0  0  0  0
    2.3373    2.0947    0.6075 C   0  0  0  0  0  0  0  0  0  0  0  0
    3.0371   -1.6432   -0.3309 C   0  0  0  0  0  0  0  0  0  0  0  0
    2.3575   -0.8074    1.9516 C   0  0  0  0  0  0  0  0  0  0  0  0
   -5.1107   -1.7206   -1.1200 C   0  0  0  0  0  0  0  0  0  0  0  0
    4.5503   -1.6290   -0.1822 C   0  0  0  0  0  0  0  0  0  0  0  0
    4.3043    0.9187   -0.2998 C   0  0  0  0  0  0  0  0  0  0  0  0
    5.1054   -0.2914   -0.5941 C   0  0  0  0  0  0  0  0  0  0  0  0
   -1.1253    0.8843   -1.3039 H   0  0  0  0  0  0  0  0  0  0  0  0
   -4.4407    2.1134   -0.1005 H   0  0  0  0  0  0  0  0  0  0  0  0
    0.0410    0.8933    1.4959 H   0  0  0  0  0  0  0  0  0  0  0  0
   -2.2311    2.4646    1.0410 H   0  0  0  0  0  0  0  0  0  0  0  0
   -1.9507    2.9827   -0.6401 H   0  0  0  0  0  0  0  0  0  0  0  0
    0.9347   -0.2516   -1.1987 H   0  0  0  0  0  0  0  0  0  0  0  0
   -1.4990   -1.4780   -1.4714 H   0  0  0  0  0  0  0  0  0  0  0  0
   -2.0286   -2.4320   -0.0994 H   0  0  0  0  0  0  0  0  0  0  0  0
   -0.0008   -1.9604    1.1410 H   0  0  0  0  0  0  0  0  0  0  0  0
    0.4394   -2.4913   -0.4684 H   0  0  0  0  0  0  0  0  0  0  0  0
   -2.8951   -1.3191    1.9973 H   0  0  0  0  0  0  0  0  0  0  0  0
   -1.3330   -0.5705    2.2733 H   0  0  0  0  0  0  0  0  0  0  0  0
   -2.7823    0.4271    2.2071 H   0  0  0  0  0  0  0  0  0  0  0  0
    0.4325    3.0605    0.4024 H   0  0  0  0  0  0  0  0  0  0  0  0
    0.9856    2.2587   -1.0658 H   0  0  0  0  0  0  0  0  0  0  0  0
    2.2836    2.1414    1.7023 H   0  0  0  0  0  0  0  0  0  0  0  0
    2.8885    2.9883    0.2896 H   0  0  0  0  0  0  0  0  0  0  0  0
    2.8019   -1.5670   -1.4019 H   0  0  0  0  0  0  0  0  0  0  0  0
    2.6647   -2.6203   -0.0006 H   0  0  0  0  0  0  0  0  0  0  0  0
    1.9858   -1.8153    2.1634 H   0  0  0  0  0  0  0  0  0  0  0  0
    3.3773   -0.7544    2.3506 H   0  0  0  0  0  0  0  0  0  0  0  0
    1.7535   -0.1058    2.5350 H   0  0  0  0  0  0  0  0  0  0  0  0
   -5.7169   -1.2153   -1.8758 H   0  0  0  0  0  0  0  0  0  0  0  0
   -4.2274   -2.1615   -1.5886 H   0  0  0  0  0  0  0  0  0  0  0  0
   -5.6932   -2.5251   -0.6625 H   0  0  0  0  0  0  0  0  0  0  0  0
    4.9818   -2.3992   -0.8311 H   0  0  0  0  0  0  0  0  0  0  0  0
    4.8608   -1.8375    0.8464 H   0  0  0  0  0  0  0  0  0  0  0  0
    4.7910    1.8748   -0.4612 H   0  0  0  0  0  0  0  0  0  0  0  0
  1  5  1  0  0  0  0
  1  7  1  0  0  0  0
  2 16  2  0  0  0  0
  3 24  2  0  0  0  0
  4  5  1  0  0  0  0
  4  6  1  0  0  0  0
  4 11  1  0  0  0  0
  4 14  1  0  0  0  0
  5  7  1  0  0  0  0
  5 16  1  0  0  0  0
  6  8  1  0  0  0  0
  6  9  1  0  0  0  0
  6 25  1  0  0  0  0
  7  9  1  0  0  0  0
  7 26  1  0  0  0  0
  8 10  1  0  0  0  0
  8 15  1  0  0  0  0
  8 27  1  0  0  0  0
  9 28  1  0  0  0  0
  9 29  1  0  0  0  0
 10 12  1  0  0  0  0
 10 13  1  0  0  0  0
 10 30  1  0  0  0  0
 11 12  1  0  0  0  0
 11 31  1  0  0  0  0
 11 32  1  0  0  0  0
 12 33  1  0  0  0  0
 12 34  1  0  0  0  0
 13 17  1  0  0  0  0
 13 19  1  0  0  0  0
 13 20  1  0  0  0  0
 14 35  1  0  0  0  0
 14 36  1  0  0  0  0
 14 37  1  0  0  0  0
 15 18  1  0  0  0  0
 15 38  1  0  0  0  0
 15 39  1  0  0  0  0
 16 21  1  0  0  0  0
 17 18  1  0  0  0  0
 17 23  2  0  0  0  0
 18 40  1  0  0  0  0
 18 41  1  0  0  0  0
 19 22  1  0  0  0  0
 19 42  1  0  0  0  0
 19 43  1  0  0  0  0
 20 44  1  0  0  0  0
 20 45  1  0  0  0  0
 20 46  1  0  0  0  0
 21 47  1  0  0  0  0
 21 48  1  0  0  0  0
 21 49  1  0  0  0  0
 22 24  1  0  0  0  0
 22 50  1  0  0  0  0
 22 51  1  0  0  0  0
 23 24  1  0  0  0  0
 23 52  1  0  0  0  0
M  END
> <PUBCHEM_COMPOUND_CID>
101966

> <PUBCHEM_CONFORMER_RMSD>
0.6

> <PUBCHEM_CONFORMER_DIVERSEORDER>
1
2

> <PUBCHEM_MMFF94_PARTIAL_CHARGES>
17
1 -0.3
13 0.14
16 0.51
17 -0.28
18 0.14
2 -0.57
21 0.06
22 0.06
23 -0.14
24 0.49
26 0.1
3 -0.57
4 0.09
5 0.05
52 0.15
7 -0.05
9 0.09

> <PUBCHEM_EFFECTIVE_ROTOR_COUNT>
2.6

> <PUBCHEM_PHARMACOPHORE_FEATURES>
7
1 1 acceptor
1 2 acceptor
1 3 acceptor
6 1 4 5 6 7 9 rings
6 13 17 19 22 23 24 rings
6 4 6 8 10 11 12 rings
6 8 10 13 15 17 18 rings

> <PUBCHEM_HEAVY_ATOM_COUNT>
24

> <PUBCHEM_ATOM_DEF_STEREO_COUNT>
7

> <PUBCHEM_ATOM_UDEF_STEREO_COUNT>
0

> <PUBCHEM_BOND_DEF_STEREO_COUNT>
0

> <PUBCHEM_BOND_UDEF_STEREO_COUNT>
0

> <PUBCHEM_ISOTOPIC_ATOM_COUNT>
0

> <PUBCHEM_COMPONENT_COUNT>
1

> <PUBCHEM_CACTVS_TAUTO_COUNT>
10

> <PUBCHEM_CONFORMER_ID>
00018E4E00000001

> <PUBCHEM_MMFF94_ENERGY>
73.8711

> <PUBCHEM_FEATURE_SELFOVERLAP>
35.585

> <PUBCHEM_SHAPE_FINGERPRINT>
10366900 7 17989488506645526809
10498660 4 17846506970971889980
12011746 2 18343021086041969943
12166972 35 17968094188017788240
12236239 1 17313380106628341961
12403259 226 18336555962119205577
12403259 415 18341338837800141125
12553582 1 18335996306199406784
12788726 201 18196094558472476697
12916754 54 18260832570865643945
13224815 77 18273215317629832913
13288520 33 18187362138329173861
13533116 47 17822574889117589737
13583140 156 13110953215507401445
13862211 1 18409172112464233230
13944108 23 16326557773577027629
14790565 3 17327170460484854304
15142383 8 15140951902632139250
15196674 1 18410576214308283444
15788980 27 18411700997454823501
16752209 62 18336837510131186672
16945 1 18335149695183675369
17349148 13 17748826306388760359
18186145 218 18130234847192351405
18681886 176 18408044005655986680
19591789 44 18410295847433206630
19862831 5 18412826906394861752
200 152 17967814959319405496
20028762 73 17968104075238953375
20645477 70 18410296878636859772
21033648 29 18342468027472603921
21267235 1 18409160004629406126
221357 26 18409451388169671133
221490 88 18339358548469799554
22182313 1 18269297718945745221
22393880 68 18341906219879957877
23402539 116 18187648028410893605
23522609 53 18118651427638080841
23559900 14 18335711515529426009
2871803 45 18272938201944720384
296302 2 14549017689042301464
3004659 81 18200591519003183342
335352 9 18408887348154387053
34797466 226 16128361671331463206
350125 39 18410006667796993321
4214541 1 18409730694161543013
4280585 95 17398667291356580990
465052 167 18187641367001267047
474 4 17131541753210021292
5104073 3 18410296951224017305
7495541 125 17385727954561603202
9709674 26 18341333292923008841

> <PUBCHEM_SHAPE_MULTIPOLES>
476.3
11.45
2.13
1.18
1.89
0.54
0.36
-3.15
-2.98
-0.07
-0.14
-0.24
-0.21
0.1

> <PUBCHEM_SHAPE_SELFOVERLAP>
1037.771

> <PUBCHEM_SHAPE_VOLUME>
259

> <PUBCHEM_COORDINATE_TYPE>
2
5
10

$$$$

