192730
  -OEChem-07051212483D

 20 20  0     0  0  0  0  0  0999 V2000
   -3.0819    0.1094    0.3993 O   0  0  0  0  0  0  0  0  0  0  0  0
    2.6592    0.8945    0.3011 O   0  0  0  0  0  0  0  0  0  0  0  0
    1.8591   -1.1469    0.9244 O   0  0  0  0  0  0  0  0  0  0  0  0
    0.8164    0.0584   -0.8957 C   0  0  0  0  0  0  0  0  0  0  0  0
   -0.1134   -1.1468   -1.0565 C   0  0  0  0  0  0  0  0  0  0  0  0
    0.0401    1.3577   -0.6671 C   0  0  0  0  0  0  0  0  0  0  0  0
   -1.1528   -1.2703    0.0522 C   0  0  0  0  0  0  0  0  0  0  0  0
   -0.9791    1.2580    0.4613 C   0  0  0  0  0  0  0  0  0  0  0  0
   -1.8598    0.0456    0.2751 C   0  0  0  0  0  0  0  0  0  0  0  0
    1.8123   -0.1595    0.2059 C   0  0  0  0  0  0  0  0  0  0  0  0
    1.4025    0.1489   -1.8200 H   0  0  0  0  0  0  0  0  0  0  0  0
    0.4621   -2.0782   -1.1204 H   0  0  0  0  0  0  0  0  0  0  0  0
   -0.6422   -1.0427   -2.0135 H   0  0  0  0  0  0  0  0  0  0  0  0
   -0.4966    1.5979   -1.5949 H   0  0  0  0  0  0  0  0  0  0  0  0
    0.7095    2.2038   -0.4754 H   0  0  0  0  0  0  0  0  0  0  0  0
   -0.6995   -1.5762    1.0002 H   0  0  0  0  0  0  0  0  0  0  0  0
   -1.8932   -2.0296   -0.2222 H   0  0  0  0  0  0  0  0  0  0  0  0
   -1.6058    2.1560    0.4748 H   0  0  0  0  0  0  0  0  0  0  0  0
   -0.4853    1.1760    1.4354 H   0  0  0  0  0  0  0  0  0  0  0  0
    3.3173    0.7720    1.0180 H   0  0  0  0  0  0  0  0  0  0  0  0
  1  9  2  0  0  0  0
  2 10  1  0  0  0  0
  2 20  1  0  0  0  0
  3 10  2  0  0  0  0
  4  5  1  0  0  0  0
  4  6  1  0  0  0  0
  4 10  1  0  0  0  0
  4 11  1  0  0  0  0
  5  7  1  0  0  0  0
  5 12  1  0  0  0  0
  5 13  1  0  0  0  0
  6  8  1  0  0  0  0
  6 14  1  0  0  0  0
  6 15  1  0  0  0  0
  7  9  1  0  0  0  0
  7 16  1  0  0  0  0
  7 17  1  0  0  0  0
  8  9  1  0  0  0  0
  8 18  1  0  0  0  0
  8 19  1  0  0  0  0
M  END
> <PUBCHEM_COMPOUND_CID>
192730

> <PUBCHEM_CONFORMER_RMSD>
0.4

> <PUBCHEM_CONFORMER_DIVERSEORDER>
1
2
5
8
3
4
9
12
10
11
6
7

> <PUBCHEM_MMFF94_PARTIAL_CHARGES>
9
1 -0.57
10 0.66
2 -0.65
20 0.5
3 -0.57
4 0.06
7 0.06
8 0.06
9 0.45

> <PUBCHEM_EFFECTIVE_ROTOR_COUNT>
2

> <PUBCHEM_PHARMACOPHORE_FEATURES>
5
1 1 acceptor
1 2 acceptor
1 3 acceptor
3 2 3 10 anion
6 4 5 6 7 8 9 rings

> <PUBCHEM_HEAVY_ATOM_COUNT>
10

> <PUBCHEM_ATOM_DEF_STEREO_COUNT>
0

> <PUBCHEM_ATOM_UDEF_STEREO_COUNT>
0

> <PUBCHEM_BOND_DEF_STEREO_COUNT>
0

> <PUBCHEM_BOND_UDEF_STEREO_COUNT>
0

> <PUBCHEM_ISOTOPIC_ATOM_COUNT>
0

> <PUBCHEM_COMPONENT_COUNT>
1

> <PUBCHEM_CACTVS_TAUTO_COUNT>
2

> <PUBCHEM_CONFORMER_ID>
0002F0DA00000001

> <PUBCHEM_MMFF94_ENERGY>
9.9671

> <PUBCHEM_FEATURE_SELFOVERLAP>
25.428

> <PUBCHEM_SHAPE_FINGERPRINT>
10857977 72 18186800258075686891
12423570 1 14945961512622553110
15557651 10 16081091497531571344
16945 1 18272370836786030773
18185500 45 18270118994038457742
20653085 51 5039656119372128994
20653091 64 17983575200146741431
21040471 1 18189036698949145695
21922407 69 17130396125811525524
23235685 24 17894627058659087353
241688 4 17688564470788592459
29004967 10 16702305637297487676
369184 2 18271816730207058681
5084963 1 16805317846574459252

> <PUBCHEM_SHAPE_MULTIPOLES>
188.19
3.21
1.45
0.96
0.33
0.02
0.13
0.22
-0.97
0.02
0.07
-0.19
-0.11
-0.18

> <PUBCHEM_SHAPE_SELFOVERLAP>
378.93

> <PUBCHEM_SHAPE_VOLUME>
108.6

> <PUBCHEM_COORDINATE_TYPE>
2
5
10

$$$$

