242497
  -OEChem-07051213063D

 53 56  0     1  0  0  0  0  0999 V2000
    4.9534   -0.9833    0.1252 O   0  0  0  0  0  0  0  0  0  0  0  0
   -0.4881    2.4025    0.9301 O   0  0  0  0  0  0  0  0  0  0  0  0
   -5.2308   -0.1344    1.6625 O   0  0  0  0  0  0  0  0  0  0  0  0
    2.5237   -0.5981   -0.1477 C   0  0  1  0  0  0  0  0  0  0  0  0
    1.6922    0.6751    0.1245 C   0  0  2  0  0  0  0  0  0  0  0  0
    0.3485    0.6873   -0.6205 C   0  0  1  0  0  0  0  0  0  0  0  0
   -0.4917   -0.5597   -0.1560 C   0  0  1  0  0  0  0  0  0  0  0  0
    3.8354   -0.2533    0.6253 C   0  0  2  0  0  0  0  0  0  0  0  0
    1.7139   -1.8027    0.3581 C   0  0  0  0  0  0  0  0  0  0  0  0
   -1.9033   -0.5956   -0.8484 C   0  0  2  0  0  0  0  0  0  0  0  0
    2.6789    1.8074   -0.1421 C   0  0  0  0  0  0  0  0  0  0  0  0
    0.3192   -1.8756   -0.2914 C   0  0  0  0  0  0  0  0  0  0  0  0
    4.0393    1.2547    0.3219 C   0  0  0  0  0  0  0  0  0  0  0  0
   -0.4199    2.0187   -0.4437 C   0  0  1  0  0  0  0  0  0  0  0  0
    2.8546   -0.8169   -1.6532 C   0  0  0  0  0  0  0  0  0  0  0  0
   -2.5651    0.7489   -0.5240 C   0  0  0  0  0  0  0  0  0  0  0  0
   -1.8377    1.9741   -1.0286 C   0  0  0  0  0  0  0  0  0  0  0  0
   -2.8030   -1.7658   -0.3561 C   0  0  0  0  0  0  0  0  0  0  0  0
    3.7978   -0.4936    2.1398 C   0  0  0  0  0  0  0  0  0  0  0  0
   -1.7887   -0.7863   -2.3827 C   0  0  0  0  0  0  0  0  0  0  0  0
   -3.3947   -1.5375    1.0226 C   0  0  0  0  0  0  0  0  0  0  0  0
   -3.6388    0.8948    0.2710 C   0  0  0  0  0  0  0  0  0  0  0  0
   -4.1951   -0.2606    1.0135 C   0  0  0  0  0  0  0  0  0  0  0  0
    1.4563    0.7107    1.1983 H   0  0  0  0  0  0  0  0  0  0  0  0
    0.5467    0.5950   -1.6933 H   0  0  0  0  0  0  0  0  0  0  0  0
   -0.6651   -0.4303    0.9238 H   0  0  0  0  0  0  0  0  0  0  0  0
    1.5667   -1.7413    1.4429 H   0  0  0  0  0  0  0  0  0  0  0  0
    2.2572   -2.7367    0.1709 H   0  0  0  0  0  0  0  0  0  0  0  0
    2.4233    2.7221    0.4010 H   0  0  0  0  0  0  0  0  0  0  0  0
    2.7169    2.0603   -1.2078 H   0  0  0  0  0  0  0  0  0  0  0  0
    0.4197   -2.1579   -1.3438 H   0  0  0  0  0  0  0  0  0  0  0  0
   -0.2186   -2.6957    0.1961 H   0  0  0  0  0  0  0  0  0  0  0  0
    4.7948    1.4296   -0.4530 H   0  0  0  0  0  0  0  0  0  0  0  0
    4.3798    1.7983    1.2110 H   0  0  0  0  0  0  0  0  0  0  0  0
    0.1240    2.8195   -0.9597 H   0  0  0  0  0  0  0  0  0  0  0  0
    1.9626   -0.9030   -2.2786 H   0  0  0  0  0  0  0  0  0  0  0  0
    3.4522   -0.0027   -2.0754 H   0  0  0  0  0  0  0  0  0  0  0  0
    3.4202   -1.7458   -1.7929 H   0  0  0  0  0  0  0  0  0  0  0  0
   -1.8003    1.9600   -2.1232 H   0  0  0  0  0  0  0  0  0  0  0  0
   -2.3740    2.8886   -0.7453 H   0  0  0  0  0  0  0  0  0  0  0  0
   -2.2690   -2.7207   -0.3776 H   0  0  0  0  0  0  0  0  0  0  0  0
   -3.6437   -1.8903   -1.0554 H   0  0  0  0  0  0  0  0  0  0  0  0
    4.7412   -0.1749    2.5994 H   0  0  0  0  0  0  0  0  0  0  0  0
    2.9846    0.0411    2.6377 H   0  0  0  0  0  0  0  0  0  0  0  0
    3.7058   -1.5621    2.3630 H   0  0  0  0  0  0  0  0  0  0  0  0
   -1.4319   -1.7916   -2.6323 H   0  0  0  0  0  0  0  0  0  0  0  0
   -2.7659   -0.6618   -2.8659 H   0  0  0  0  0  0  0  0  0  0  0  0
   -1.1100   -0.0758   -2.8610 H   0  0  0  0  0  0  0  0  0  0  0  0
    5.1933   -0.6450   -0.7530 H   0  0  0  0  0  0  0  0  0  0  0  0
   -2.6245   -1.4735    1.7972 H   0  0  0  0  0  0  0  0  0  0  0  0
   -4.0651   -2.3672    1.2717 H   0  0  0  0  0  0  0  0  0  0  0  0
   -4.0685    1.8669    0.4873 H   0  0  0  0  0  0  0  0  0  0  0  0
    0.3926    2.7039    1.2058 H   0  0  0  0  0  0  0  0  0  0  0  0
  1  8  1  0  0  0  0
  1 49  1  0  0  0  0
  2 14  1  0  0  0  0
  2 53  1  0  0  0  0
  3 23  2  0  0  0  0
  4  5  1  0  0  0  0
  4  8  1  0  0  0  0
  4  9  1  0  0  0  0
  4 15  1  0  0  0  0
  5  6  1  0  0  0  0
  5 11  1  0  0  0  0
  5 24  1  0  0  0  0
  6  7  1  0  0  0  0
  6 14  1  0  0  0  0
  6 25  1  0  0  0  0
  7 10  1  0  0  0  0
  7 12  1  0  0  0  0
  7 26  1  0  0  0  0
  8 13  1  0  0  0  0
  8 19  1  0  0  0  0
  9 12  1  0  0  0  0
  9 27  1  0  0  0  0
  9 28  1  0  0  0  0
 10 16  1  0  0  0  0
 10 18  1  0  0  0  0
 10 20  1  0  0  0  0
 11 13  1  0  0  0  0
 11 29  1  0  0  0  0
 11 30  1  0  0  0  0
 12 31  1  0  0  0  0
 12 32  1  0  0  0  0
 13 33  1  0  0  0  0
 13 34  1  0  0  0  0
 14 17  1  0  0  0  0
 14 35  1  0  0  0  0
 15 36  1  0  0  0  0
 15 37  1  0  0  0  0
 15 38  1  0  0  0  0
 16 17  1  0  0  0  0
 16 22  2  0  0  0  0
 17 39  1  0  0  0  0
 17 40  1  0  0  0  0
 18 21  1  0  0  0  0
 18 41  1  0  0  0  0
 18 42  1  0  0  0  0
 19 43  1  0  0  0  0
 19 44  1  0  0  0  0
 19 45  1  0  0  0  0
 20 46  1  0  0  0  0
 20 47  1  0  0  0  0
 20 48  1  0  0  0  0
 21 23  1  0  0  0  0
 21 50  1  0  0  0  0
 21 51  1  0  0  0  0
 22 23  1  0  0  0  0
 22 52  1  0  0  0  0
M  END
> <PUBCHEM_COMPOUND_CID>
242497

> <PUBCHEM_CONFORMER_RMSD>
0.6

> <PUBCHEM_CONFORMER_DIVERSEORDER>
1

> <PUBCHEM_MMFF94_PARTIAL_CHARGES>
14
1 -0.68
10 0.14
14 0.28
16 -0.28
17 0.14
2 -0.68
21 0.06
22 -0.14
23 0.49
3 -0.57
49 0.4
52 0.15
53 0.4
8 0.28

> <PUBCHEM_EFFECTIVE_ROTOR_COUNT>
1.8

> <PUBCHEM_PHARMACOPHORE_FEATURES>
9
1 1 acceptor
1 1 donor
1 2 acceptor
1 2 donor
1 3 acceptor
5 4 5 8 11 13 rings
6 10 16 18 21 22 23 rings
6 4 5 6 7 9 12 rings
6 6 7 10 14 16 17 rings

> <PUBCHEM_HEAVY_ATOM_COUNT>
23

> <PUBCHEM_ATOM_DEF_STEREO_COUNT>
7

> <PUBCHEM_ATOM_UDEF_STEREO_COUNT>
0

> <PUBCHEM_BOND_DEF_STEREO_COUNT>
0

> <PUBCHEM_BOND_UDEF_STEREO_COUNT>
0

> <PUBCHEM_ISOTOPIC_ATOM_COUNT>
0

> <PUBCHEM_COMPONENT_COUNT>
1

> <PUBCHEM_CACTVS_TAUTO_COUNT>
5

> <PUBCHEM_CONFORMER_ID>
0003B34100000001

> <PUBCHEM_MMFF94_ENERGY>
86.5896

> <PUBCHEM_FEATURE_SELFOVERLAP>
45.781

> <PUBCHEM_SHAPE_FINGERPRINT>
10863032 1 15719391724283825511
11132069 177 18260838097955771479
11135609 12 18128814338568040530
11552529 35 17677053417407200615
11680986 33 18050010183577480751
11796584 16 15339122299871820131
12011746 2 18412544336607516861
12236239 1 17894634725829877687
12403814 3 18410862053446442613
12553582 1 18413392033485109262
12633257 1 18333734589364205675
12714826 92 17275110526655799999
13140716 1 18337954489147979011
13224815 77 18411427189189908574
13544653 18 17775287114821358347
13583140 156 17131014012997494102
13675066 3 18260270750124605154
14178342 30 18122347041164295744
14223421 5 18269837673633064599
14341114 176 18341890814301544570
14787075 74 18268707216808157873
14790565 3 17765140675323497052
15163728 17 14058101222550733235
15196674 1 18411703157960640364
15209289 33 18343300353390010499
15209294 21 17821726118012655619
15375462 189 18342179946688076832
16945 1 18340775947648746909
17349148 13 16558749035831139552
1813 80 16917057846462567583
18186145 218 18113338626375683654
19433438 48 18114195094056457991
20028762 73 18191017899029721791
20261772 1 18408322176774367562
20739085 24 18341883061532634572
20775438 99 11883688069333626137
21033648 29 17385728040703322091
21069387 34 14549013312275422090
21267235 1 18412818097000349126
21637258 2 15841264840945682147
22182313 1 18191023615060142820
23184049 59 18187356641061003389
2334 1 18338242535466954692
23402539 116 18334588931970007470
23503953 91 18113901541684263657
23559900 14 18267307719359134926
2748010 2 18337679710078193092
2838139 119 15431150482698441745
296302 2 16660369168692357086
34934 24 18408892858080300397
350125 39 18411414017111150876
5104073 3 18336835199601994026
9709674 26 18338242690069998638

> <PUBCHEM_SHAPE_MULTIPOLES>
455.72
8.64
2.18
1.56
0.41
0.59
-0.15
-1.3
3.76
-0.18
-0.04
-0.37
-0.34
0.15

> <PUBCHEM_SHAPE_SELFOVERLAP>
978.536

> <PUBCHEM_SHAPE_VOLUME>
250.5

> <PUBCHEM_COORDINATE_TYPE>
2
5
10

$$$$

