7316
  -OEChem-06261202003D

 19 19  0     0  0  0  0  0  0999 V2000
   -2.4256    1.4441    0.0603 O   0  0  0  0  0  0  0  0  0  0  0  0
    3.7821    0.1679   -0.0332 O   0  0  0  0  0  0  0  0  0  0  0  0
    2.7719   -1.9789   -0.1062 O   0  0  0  0  0  0  0  0  0  0  0  0
   -1.8132   -2.5076    0.5186 O   0  5  0  0  0  0  0  0  0  0  0  0
   -3.1084   -1.0745   -0.5395 O   0  0  0  0  0  0  0  0  0  0  0  0
    2.6526   -0.6127   -0.0381 N   0  0  0  0  0  0  0  0  0  0  0  0
   -2.0386   -1.4064   -0.0064 N   0  3  0  0  0  0  0  0  0  0  0  0
   -0.3415    3.1766    0.0742 N   0  0  0  0  0  0  0  0  0  0  0  0
    1.4135   -0.0302   -0.0126 C   0  0  0  0  0  0  0  0  0  0  0  0
   -0.9899   -0.4515    0.0033 C   0  0  0  0  0  0  0  0  0  0  0  0
    0.2588   -0.9208   -0.0195 C   0  0  0  0  0  0  0  0  0  0  0  0
    1.2447    1.3051    0.0176 C   0  0  0  0  0  0  0  0  0  0  0  0
   -0.1090    1.9073    0.0446 C   0  0  0  0  0  0  0  0  0  0  0  0
   -1.2973    0.9814    0.0368 C   0  0  0  0  0  0  0  0  0  0  0  0
    0.4508   -1.9889   -0.0622 H   0  0  0  0  0  0  0  0  0  0  0  0
    2.0806    1.9968    0.0237 H   0  0  0  0  0  0  0  0  0  0  0  0
    0.5379    3.7044    0.0765 H   0  0  0  0  0  0  0  0  0  0  0  0
    4.3765   -0.3481    0.5371 H   0  0  0  0  0  0  0  0  0  0  0  0
    3.3569   -2.0884   -0.8748 H   0  0  0  0  0  0  0  0  0  0  0  0
  1 14  2  0  0  0  0
  2  6  1  0  0  0  0
  2 18  1  0  0  0  0
  3  6  1  0  0  0  0
  3 19  1  0  0  0  0
  4  7  1  0  0  0  0
  5  7  2  0  0  0  0
  6  9  1  0  0  0  0
  7 10  1  0  0  0  0
  8 13  2  0  0  0  0
  8 17  1  0  0  0  0
  9 11  1  0  0  0  0
  9 12  2  0  0  0  0
 10 11  2  0  0  0  0
 10 14  1  0  0  0  0
 11 15  1  0  0  0  0
 12 13  1  0  0  0  0
 12 16  1  0  0  0  0
 13 14  1  0  0  0  0
M  CHG  2   4  -1   7   1
M  END
> <PUBCHEM_COMPOUND_CID>
7316

> <PUBCHEM_CONFORMER_RMSD>
0.6

> <PUBCHEM_CONFORMER_DIVERSEORDER>
1
2
3

> <PUBCHEM_MMFF94_PARTIAL_CHARGES>
19
1 -0.57
10 0.22
11 -0.15
12 -0.14
13 0.44
14 0.56
15 0.15
16 0.15
17 0.4
18 0.4
19 0.4
2 -0.38
3 -0.38
4 -0.52
5 -0.52
6 -0.14
7 0.84
8 -0.85
9 0.1

> <PUBCHEM_EFFECTIVE_ROTOR_COUNT>
2

> <PUBCHEM_PHARMACOPHORE_FEATURES>
11
1 1 acceptor
1 2 acceptor
1 2 anion
1 3 acceptor
1 3 anion
1 4 acceptor
1 4 anion
1 5 acceptor
1 8 acceptor
1 8 donor
6 9 10 11 12 13 14 rings

> <PUBCHEM_HEAVY_ATOM_COUNT>
14

> <PUBCHEM_ATOM_DEF_STEREO_COUNT>
0

> <PUBCHEM_ATOM_UDEF_STEREO_COUNT>
0

> <PUBCHEM_BOND_DEF_STEREO_COUNT>
0

> <PUBCHEM_BOND_UDEF_STEREO_COUNT>
0

> <PUBCHEM_ISOTOPIC_ATOM_COUNT>
0

> <PUBCHEM_COMPONENT_COUNT>
1

> <PUBCHEM_CACTVS_TAUTO_COUNT>
1

> <PUBCHEM_CONFORMER_ID>
00001C9400000001

> <PUBCHEM_MMFF94_ENERGY>
37.3931

> <PUBCHEM_FEATURE_SELFOVERLAP>
55.984

> <PUBCHEM_SHAPE_FINGERPRINT>
1 1 17114661276947115436
10967382 1 18338517430495686794
12716758 59 18121220037292283906
14648413 74 17981048509762626579
16945 1 18050003298940142265
17990270 104 17979923709135472051
193761 8 18266739069715170857
20201158 50 18340492149116223998
20510252 161 17973166420041084440
20588541 1 18261951976249321437
20645477 70 17619924863681991911
20871998 184 18186802512590639166
21501502 16 18337390551774189538
2334 1 18338515231583356936
23402539 116 18190474941783955853
23526114 1 17617942426451089039
23552423 10 18271522001029974300
23557571 272 18260817212125955748
23559900 14 18263649618888776658
241688 4 18410857659225602073
2748010 2 18336552616212743716
3312278 4 18412541011875607026
7364860 26 17976259036695660121
81228 2 18339357573480750360

> <PUBCHEM_SHAPE_MULTIPOLES>
243.82
4.28
2.78
0.59
2.14
0.94
0
-2
-0.28
-0.92
0.2
-0.08
-0.04
0.05

> <PUBCHEM_SHAPE_SELFOVERLAP>
514.493

> <PUBCHEM_SHAPE_VOLUME>
136.1

> <PUBCHEM_COORDINATE_TYPE>
2
5
10

$$$$

