443088
  -OEChem-07051213012D

 38 38  0     1  0  0  0  0  0999 V2000
    4.8059    3.0000    0.0000 Cl  0  0  0  0  0  0  0  0  0  0  0  0
    6.5380    0.0000    0.0000 Cl  0  0  0  0  0  0  0  0  0  0  0  0
    5.6720    4.5000    0.0000 O   0  0  0  0  0  0  0  0  0  0  0  0
    1.7320    4.5202    0.0000 O   0  0  0  0  0  0  0  0  0  0  0  0
    0.0000    4.5202    0.0000 O   0  5  0  0  0  0  0  0  0  0  0  0
    0.8660    3.0202    0.0000 O   0  0  0  0  0  0  0  0  0  0  0  0
    7.4040    5.5000    0.0000 N   0  0  0  0  0  0  0  0  0  0  0  0
    6.9040    7.0388    0.0000 N   0  0  0  0  0  0  0  0  0  0  0  0
    0.8660    4.0202    0.0000 N   0  3  0  0  0  0  0  0  0  0  0  0
    6.5380    4.0000    0.0000 C   0  0  3  0  0  0  0  0  0  0  0  0
    7.4040    4.5000    0.0000 C   0  0  0  0  0  0  0  0  0  0  0  0
    6.5380    3.0000    0.0000 C   0  0  0  0  0  0  0  0  0  0  0  0
    5.6720    2.5000    0.0000 C   0  0  0  0  0  0  0  0  0  0  0  0
    7.4040    2.5000    0.0000 C   0  0  0  0  0  0  0  0  0  0  0  0
    8.2130    6.0878    0.0000 C   0  0  0  0  0  0  0  0  0  0  0  0
    6.5950    6.0878    0.0000 C   0  0  0  0  0  0  0  0  0  0  0  0
    5.6720    5.5000    0.0000 C   0  0  0  0  0  0  0  0  0  0  0  0
    5.6720    1.5000    0.0000 C   0  0  0  0  0  0  0  0  0  0  0  0
    7.4040    1.5000    0.0000 C   0  0  0  0  0  0  0  0  0  0  0  0
    6.5380    1.0000    0.0000 C   0  0  0  0  0  0  0  0  0  0  0  0
    7.9040    7.0388    0.0000 C   0  0  0  0  0  0  0  0  0  0  0  0
    4.8059    6.0000    0.0000 C   0  0  0  0  0  0  0  0  0  0  0  0
    4.8059    7.0000    0.0000 C   0  0  0  0  0  0  0  0  0  0  0  0
    6.5380    4.8500    0.0000 H   0  0  0  0  0  0  0  0  0  0  0  0
    7.6160    3.9174    0.0000 H   0  0  0  0  0  0  0  0  0  0  0  0
    8.0146    4.6077    0.0000 H   0  0  0  0  0  0  0  0  0  0  0  0
    7.9409    2.8100    0.0000 H   0  0  0  0  0  0  0  0  0  0  0  0
    8.8027    5.8962    0.0000 H   0  0  0  0  0  0  0  0  0  0  0  0
    6.0053    5.8962    0.0000 H   0  0  0  0  0  0  0  0  0  0  0  0
    6.2825    5.3923    0.0000 H   0  0  0  0  0  0  0  0  0  0  0  0
    5.8840    6.0826    0.0000 H   0  0  0  0  0  0  0  0  0  0  0  0
    5.1350    1.1900    0.0000 H   0  0  0  0  0  0  0  0  0  0  0  0
    7.9409    1.1900    0.0000 H   0  0  0  0  0  0  0  0  0  0  0  0
    8.2684    7.5404    0.0000 H   0  0  0  0  0  0  0  0  0  0  0  0
    4.2690    5.6900    0.0000 H   0  0  0  0  0  0  0  0  0  0  0  0
    5.3429    7.3100    0.0000 H   0  0  0  0  0  0  0  0  0  0  0  0
    4.2690    7.3100    0.0000 H   0  0  0  0  0  0  0  0  0  0  0  0
    2.2690    4.2102    0.0000 H   0  0  0  0  0  0  0  0  0  0  0  0
  1 13  1  0  0  0  0
  2 20  1  0  0  0  0
  3 10  1  0  0  0  0
  3 17  1  0  0  0  0
  4  9  1  0  0  0  0
  4 38  1  0  0  0  0
  5  9  1  0  0  0  0
  6  9  2  0  0  0  0
  7 11  1  0  0  0  0
  7 15  1  0  0  0  0
  7 16  1  0  0  0  0
  8 16  2  0  0  0  0
  8 21  1  0  0  0  0
 10 11  1  0  0  0  0
 10 12  1  0  0  0  0
 10 24  1  0  0  0  0
 11 25  1  0  0  0  0
 11 26  1  0  0  0  0
 12 13  2  0  0  0  0
 12 14  1  0  0  0  0
 13 18  1  0  0  0  0
 14 19  2  0  0  0  0
 14 27  1  0  0  0  0
 15 21  2  0  0  0  0
 15 28  1  0  0  0  0
 16 29  1  0  0  0  0
 17 22  1  0  0  0  0
 17 30  1  0  0  0  0
 17 31  1  0  0  0  0
 18 20  2  0  0  0  0
 18 32  1  0  0  0  0
 19 20  1  0  0  0  0
 19 33  1  0  0  0  0
 21 34  1  0  0  0  0
 22 23  2  0  0  0  0
 22 35  1  0  0  0  0
 23 36  1  0  0  0  0
 23 37  1  0  0  0  0
M  CHG  2   5  -1   9   1
M  END
> <PUBCHEM_COMPOUND_CID>
443088

> <PUBCHEM_COMPOUND_CANONICALIZED>
1

> <PUBCHEM_CACTVS_COMPLEXITY>
315

> <PUBCHEM_CACTVS_HBOND_ACCEPTOR>
5

> <PUBCHEM_CACTVS_HBOND_DONOR>
1

> <PUBCHEM_CACTVS_ROTATABLE_BOND>
6

> <PUBCHEM_CACTVS_SUBSKEYS>
AAADccBzOAAGAAAAAAAAAAAAAAAAAWAAAAAwAAAAAAAAAAABwAAAHgIECAAADBbhmiY9kJcMVAChAjBnZQACgC0xF6AJyAAYOoiKbiKBuxmXMAAswAOYqCeQwKAOBAAAAACBAAAIAAAAAQIAAAAAAAAAAA==

> <PUBCHEM_IUPAC_OPENEYE_NAME>
1-[2-allyloxy-2-(2,4-dichlorophenyl)ethyl]imidazole; nitric acid

> <PUBCHEM_IUPAC_CAS_NAME>
1-[2-(2,4-dichlorophenyl)-2-prop-2-enoxyethyl]imidazole; nitric acid

> <PUBCHEM_IUPAC_NAME>
1-[2-(2,4-dichlorophenyl)-2-prop-2-enoxyethyl]imidazole; nitric acid

> <PUBCHEM_IUPAC_SYSTEMATIC_NAME>
1-[2-(2,4-dichlorophenyl)-2-prop-2-enoxy-ethyl]imidazole; nitric acid

> <PUBCHEM_IUPAC_TRADITIONAL_NAME>
1-[2-allyloxy-2-(2,4-dichlorophenyl)ethyl]imidazole; nitric acid

> <PUBCHEM_IUPAC_INCHI>
InChI=1S/C14H14Cl2N2O.HNO3/c1-2-7-19-14(9-18-6-5-17-10-18)12-4-3-11(15)8-13(12)16;2-1(3)4/h2-6,8,10,14H,1,7,9H2;(H,2,3,4)

> <PUBCHEM_IUPAC_INCHIKEY>
KJTYJTCKKSDSQF-UHFFFAOYSA-N

> <PUBCHEM_EXACT_MASS>
359.043961

> <PUBCHEM_MOLECULAR_FORMULA>
C14H15Cl2N3O4

> <PUBCHEM_MOLECULAR_WEIGHT>
360.1926

> <PUBCHEM_OPENEYE_CAN_SMILES>
C=CCOC(CN1C=CN=C1)C2=C(C=C(C=C2)Cl)Cl.[N+](=O)(O)[O-]

> <PUBCHEM_OPENEYE_ISO_SMILES>
C=CCOC(CN1C=CN=C1)C2=C(C=C(C=C2)Cl)Cl.[N+](=O)(O)[O-]

> <PUBCHEM_CACTVS_TPSA>
93.1

> <PUBCHEM_MONOISOTOPIC_WEIGHT>
359.043961

> <PUBCHEM_TOTAL_CHARGE>
0

> <PUBCHEM_HEAVY_ATOM_COUNT>
23

> <PUBCHEM_ATOM_DEF_STEREO_COUNT>
0

> <PUBCHEM_ATOM_UDEF_STEREO_COUNT>
1

> <PUBCHEM_BOND_DEF_STEREO_COUNT>
0

> <PUBCHEM_BOND_UDEF_STEREO_COUNT>
0

> <PUBCHEM_ISOTOPIC_ATOM_COUNT>
0

> <PUBCHEM_COMPONENT_COUNT>
2

> <PUBCHEM_CACTVS_TAUTO_COUNT>
1

> <PUBCHEM_COORDINATE_TYPE>
1
5
255

> <PUBCHEM_BONDANNOTATIONS>
10  24  3
12  13  8
12  14  8
13  18  8
14  19  8
15  21  8
18  20  8
19  20  8
7  15  8
7  16  8
8  16  8
8  21  8

$$$$

