12502
  -OEChem-06261207013D

 19 19  0     0  0  0  0  0  0999 V2000
    3.7964    0.0002   -0.3939 S   0  0  0  0  0  0  0  0  0  0  0  0
    1.1977   -0.0004   -0.8159 N   0  0  0  0  0  0  0  0  0  0  0  0
   -0.1517   -0.0005   -0.4488 C   0  0  0  0  0  0  0  0  0  0  0  0
   -0.8244    1.2078   -0.2657 C   0  0  0  0  0  0  0  0  0  0  0  0
   -0.8248   -1.2083   -0.2649 C   0  0  0  0  0  0  0  0  0  0  0  0
   -2.1701    1.2082    0.1013 C   0  0  0  0  0  0  0  0  0  0  0  0
   -2.1706   -1.2078    0.1021 C   0  0  0  0  0  0  0  0  0  0  0  0
   -2.8432    0.0005    0.2852 C   0  0  0  0  0  0  0  0  0  0  0  0
    2.1124   -0.0004    0.1067 C   0  0  0  0  0  0  0  0  0  0  0  0
    1.8784    0.0007    1.5940 C   0  0  0  0  0  0  0  0  0  0  0  0
   -0.3087    2.1540   -0.4067 H   0  0  0  0  0  0  0  0  0  0  0  0
   -0.3095   -2.1550   -0.4052 H   0  0  0  0  0  0  0  0  0  0  0  0
   -2.6938    2.1490    0.2440 H   0  0  0  0  0  0  0  0  0  0  0  0
   -2.6948   -2.1481    0.2454 H   0  0  0  0  0  0  0  0  0  0  0  0
   -3.8909    0.0008    0.5710 H   0  0  0  0  0  0  0  0  0  0  0  0
    2.8156   -0.0010    2.1576 H   0  0  0  0  0  0  0  0  0  0  0  0
    1.3129    0.8929    1.8774 H   0  0  0  0  0  0  0  0  0  0  0  0
    1.3092   -0.8890    1.8782 H   0  0  0  0  0  0  0  0  0  0  0  0
    3.5706   -0.0003   -1.7157 H   0  0  0  0  0  0  0  0  0  0  0  0
  1  9  1  0  0  0  0
  1 19  1  0  0  0  0
  2  3  1  0  0  0  0
  2  9  2  0  0  0  0
  3  4  2  0  0  0  0
  3  5  1  0  0  0  0
  4  6  1  0  0  0  0
  4 11  1  0  0  0  0
  5  7  2  0  0  0  0
  5 12  1  0  0  0  0
  6  8  2  0  0  0  0
  6 13  1  0  0  0  0
  7  8  1  0  0  0  0
  7 14  1  0  0  0  0
  8 15  1  0  0  0  0
  9 10  1  0  0  0  0
 10 16  1  0  0  0  0
 10 17  1  0  0  0  0
 10 18  1  0  0  0  0
M  END
> <PUBCHEM_COMPOUND_CID>
12502

> <PUBCHEM_CONFORMER_RMSD>
0.4

> <PUBCHEM_CONFORMER_DIVERSEORDER>
1

> <PUBCHEM_MMFF94_PARTIAL_CHARGES>
16
1 -0.32
10 0.06
11 0.15
12 0.15
13 0.15
14 0.15
15 0.15
19 0.18
2 -0.63
3 0.18
4 -0.15
5 -0.15
6 -0.15
7 -0.15
8 -0.15
9 0.53

> <PUBCHEM_EFFECTIVE_ROTOR_COUNT>
1

> <PUBCHEM_PHARMACOPHORE_FEATURES>
2
1 2 acceptor
6 3 4 5 6 7 8 rings

> <PUBCHEM_HEAVY_ATOM_COUNT>
10

> <PUBCHEM_ATOM_DEF_STEREO_COUNT>
0

> <PUBCHEM_ATOM_UDEF_STEREO_COUNT>
0

> <PUBCHEM_BOND_DEF_STEREO_COUNT>
0

> <PUBCHEM_BOND_UDEF_STEREO_COUNT>
0

> <PUBCHEM_ISOTOPIC_ATOM_COUNT>
0

> <PUBCHEM_COMPONENT_COUNT>
1

> <PUBCHEM_CACTVS_TAUTO_COUNT>
2

> <PUBCHEM_CONFORMER_ID>
000030D600000001

> <PUBCHEM_MMFF94_ENERGY>
27.7352

> <PUBCHEM_FEATURE_SELFOVERLAP>
10.148

> <PUBCHEM_SHAPE_FINGERPRINT>
10857977 72 18334861580382664849
11062470 55 13614521852799660950
124424 183 17603588577481878910
12932764 1 17632303375692069460
13024252 1 14979956978035041693
14325111 11 18410008875119604468
15310529 11 16128666257537463679
15775835 57 18201155554512218208
16945 1 18410862057530237853
20645464 45 17821444668468073550
20871998 184 18261385594865275655
21040471 1 18266452294917199893
23235685 24 18335140937713846653
23402539 116 18187372030250572165
23552423 10 17771903840169951029
369184 2 18409175410877439971
5084963 1 18040150699623489907
75552 356 18412823564572571927

> <PUBCHEM_SHAPE_MULTIPOLES>
204.66
5.15
1.2
0.99
3.29
0
-0.35
0
-0.09
-0.88
0.05
0.58
0
0

> <PUBCHEM_SHAPE_SELFOVERLAP>
408.02

> <PUBCHEM_SHAPE_VOLUME>
122.8

> <PUBCHEM_COORDINATE_TYPE>
2
5
10

$$$$

