5282153
  -OEChem-07051213032D

 71 75  0     1  0  0  0  0  0999 V2000
   12.1254    0.9010    0.0000 O   0  0  0  0  0  0  0  0  0  0  0  0
   13.8574    0.9077    0.0000 O   0  0  0  0  0  0  0  0  0  0  0  0
   11.2690   -1.6023    0.0000 O   0  0  0  0  0  0  0  0  0  0  0  0
   13.8613   -0.0923    0.0000 O   0  0  0  0  0  0  0  0  0  0  0  0
   10.3972   -0.1056    0.0000 O   0  0  0  0  0  0  0  0  0  0  0  0
   13.8690   -2.0923    0.0000 O   0  0  0  0  0  0  0  0  0  0  0  0
   12.1177    2.9010    0.0000 O   0  0  0  0  0  0  0  0  0  0  0  0
   13.8458    3.9077    0.0000 O   0  0  0  0  0  0  0  0  0  0  0  0
   15.5817    2.9144    0.0000 O   0  0  0  0  0  0  0  0  0  0  0  0
   13.0087   -3.5956    0.0000 O   0  0  0  0  0  0  0  0  0  0  0  0
   16.4535    1.4177    0.0000 O   0  0  0  0  0  0  0  0  0  0  0  0
   11.2767   -3.6023    0.0000 O   0  0  0  0  0  0  0  0  0  0  0  0
   15.5933   -0.0856    0.0000 O   0  0  0  0  0  0  0  0  0  0  0  0
    6.8671   -0.1298    0.0000 O   0  0  0  0  0  0  0  0  0  0  0  0
    8.6155   -3.1644    0.0000 O   0  0  0  0  0  0  0  0  0  0  0  0
    6.8671   -3.1298    0.0000 O   0  0  0  0  0  0  0  0  0  0  0  0
    4.2690    2.3702    0.0000 O   0  0  0  0  0  0  0  0  0  0  0  0
    2.5369    1.3702    0.0000 O   0  0  0  0  0  0  0  0  0  0  0  0
   12.1292   -0.0990    0.0000 C   0  0  2  0  0  0  0  0  0  0  0  0
   12.9972   -0.5956    0.0000 C   0  0  2  0  0  0  0  0  0  0  0  0
   12.9895    1.4044    0.0000 C   0  0  2  0  0  0  0  0  0  0  0  0
   13.0010   -1.5956    0.0000 C   0  0  1  0  0  0  0  0  0  0  0  0
   12.9856    2.4044    0.0000 C   0  0  1  0  0  0  0  0  0  0  0  0
   11.2651   -0.6023    0.0000 C   0  0  1  0  0  0  0  0  0  0  0  0
   13.8497    2.9077    0.0000 C   0  0  2  0  0  0  0  0  0  0  0  0
   14.7176    2.4110    0.0000 C   0  0  1  0  0  0  0  0  0  0  0  0
   12.1369   -2.0990    0.0000 C   0  0  1  0  0  0  0  0  0  0  0  0
   14.7215    1.4110    0.0000 C   0  0  1  0  0  0  0  0  0  0  0  0
   12.1408   -3.0990    0.0000 C   0  0  0  0  0  0  0  0  0  0  0  0
   15.5894    0.9144    0.0000 C   0  0  0  0  0  0  0  0  0  0  0  0
    9.5331   -0.6090    0.0000 C   0  0  0  0  0  0  0  0  0  0  0  0
    8.6270   -0.0951    0.0000 C   0  0  0  0  0  0  0  0  0  0  0  0
    9.5331   -1.6506    0.0000 C   0  0  0  0  0  0  0  0  0  0  0  0
    7.7331   -0.6298    0.0000 C   0  0  0  0  0  0  0  0  0  0  0  0
    8.6270   -2.1645    0.0000 C   0  0  0  0  0  0  0  0  0  0  0  0
    7.7331   -1.6298    0.0000 C   0  0  0  0  0  0  0  0  0  0  0  0
    6.8671   -2.1298    0.0000 C   0  0  0  0  0  0  0  0  0  0  0  0
    6.0010   -0.6298    0.0000 C   0  0  0  0  0  0  0  0  0  0  0  0
    6.0010   -1.6298    0.0000 C   0  0  0  0  0  0  0  0  0  0  0  0
    5.1350   -0.1298    0.0000 C   0  0  0  0  0  0  0  0  0  0  0  0
    5.1350    0.8702    0.0000 C   0  0  0  0  0  0  0  0  0  0  0  0
    4.2690   -0.6298    0.0000 C   0  0  0  0  0  0  0  0  0  0  0  0
    4.2690    1.3702    0.0000 C   0  0  0  0  0  0  0  0  0  0  0  0
    3.4030   -0.1298    0.0000 C   0  0  0  0  0  0  0  0  0  0  0  0
    3.4030    0.8702    0.0000 C   0  0  0  0  0  0  0  0  0  0  0  0
   12.6650    0.2131    0.0000 H   0  0  0  0  0  0  0  0  0  0  0  0
   13.5353   -0.9036    0.0000 H   0  0  0  0  0  0  0  0  0  0  0  0
   12.9919    0.7844    0.0000 H   0  0  0  0  0  0  0  0  0  0  0  0
   13.0034   -2.2156    0.0000 H   0  0  0  0  0  0  0  0  0  0  0  0
   12.4499    2.0923    0.0000 H   0  0  0  0  0  0  0  0  0  0  0  0
   10.7294   -0.9144    0.0000 H   0  0  0  0  0  0  0  0  0  0  0  0
   14.3854    3.2198    0.0000 H   0  0  0  0  0  0  0  0  0  0  0  0
   15.2558    2.1031    0.0000 H   0  0  0  0  0  0  0  0  0  0  0  0
   11.6012   -2.4110    0.0000 H   0  0  0  0  0  0  0  0  0  0  0  0
   14.7239    0.7910    0.0000 H   0  0  0  0  0  0  0  0  0  0  0  0
   14.3994   -0.4002    0.0000 H   0  0  0  0  0  0  0  0  0  0  0  0
   14.4047   -1.7802    0.0000 H   0  0  0  0  0  0  0  0  0  0  0  0
   12.1153    3.5210    0.0000 H   0  0  0  0  0  0  0  0  0  0  0  0
   13.3077    4.2156    0.0000 H   0  0  0  0  0  0  0  0  0  0  0  0
   15.5793    3.5344    0.0000 H   0  0  0  0  0  0  0  0  0  0  0  0
    8.6199    0.5248    0.0000 H   0  0  0  0  0  0  0  0  0  0  0  0
   13.0111   -4.2156    0.0000 H   0  0  0  0  0  0  0  0  0  0  0  0
   10.0688   -1.9627    0.0000 H   0  0  0  0  0  0  0  0  0  0  0  0
   16.9917    1.1098    0.0000 H   0  0  0  0  0  0  0  0  0  0  0  0
    5.4641   -1.9398    0.0000 H   0  0  0  0  0  0  0  0  0  0  0  0
    9.1488   -3.4806    0.0000 H   0  0  0  0  0  0  0  0  0  0  0  0
    5.6720    1.1802    0.0000 H   0  0  0  0  0  0  0  0  0  0  0  0
    4.2690   -1.2498    0.0000 H   0  0  0  0  0  0  0  0  0  0  0  0
    2.8660   -0.4398    0.0000 H   0  0  0  0  0  0  0  0  0  0  0  0
    3.7320    2.6802    0.0000 H   0  0  0  0  0  0  0  0  0  0  0  0
    2.0000    1.0602    0.0000 H   0  0  0  0  0  0  0  0  0  0  0  0
 19  1  1  6  0  0  0
 21  1  1  1  0  0  0
  2 21  1  0  0  0  0
  2 28  1  0  0  0  0
  3 24  1  0  0  0  0
  3 27  1  0  0  0  0
 20  4  1  1  0  0  0
  4 56  1  0  0  0  0
 24  5  1  1  0  0  0
  5 31  1  0  0  0  0
 22  6  1  6  0  0  0
  6 57  1  0  0  0  0
 23  7  1  6  0  0  0
  7 58  1  0  0  0  0
 25  8  1  1  0  0  0
  8 59  1  0  0  0  0
 26  9  1  6  0  0  0
  9 60  1  0  0  0  0
 10 29  1  0  0  0  0
 10 62  1  0  0  0  0
 11 30  1  0  0  0  0
 11 64  1  0  0  0  0
 12 29  2  0  0  0  0
 13 30  2  0  0  0  0
 14 34  1  0  0  0  0
 14 38  1  0  0  0  0
 15 35  1  0  0  0  0
 15 66  1  0  0  0  0
 16 37  2  0  0  0  0
 17 43  1  0  0  0  0
 17 70  1  0  0  0  0
 18 45  1  0  0  0  0
 18 71  1  0  0  0  0
 19 20  1  0  0  0  0
 19 24  1  0  0  0  0
 19 46  1  0  0  0  0
 20 22  1  0  0  0  0
 20 47  1  0  0  0  0
 21 23  1  0  0  0  0
 21 48  1  0  0  0  0
 22 27  1  0  0  0  0
 22 49  1  0  0  0  0
 23 25  1  0  0  0  0
 23 50  1  0  0  0  0
 24 51  1  0  0  0  0
 25 26  1  0  0  0  0
 25 52  1  0  0  0  0
 26 28  1  0  0  0  0
 26 53  1  0  0  0  0
 27 29  1  1  0  0  0
 27 54  1  0  0  0  0
 28 30  1  1  0  0  0
 28 55  1  0  0  0  0
 31 32  1  0  0  0  0
 31 33  2  0  0  0  0
 32 34  2  0  0  0  0
 32 61  1  0  0  0  0
 33 35  1  0  0  0  0
 33 63  1  0  0  0  0
 34 36  1  0  0  0  0
 35 36  2  0  0  0  0
 36 37  1  0  0  0  0
 37 39  1  0  0  0  0
 38 39  2  0  0  0  0
 38 40  1  0  0  0  0
 39 65  1  0  0  0  0
 40 41  2  0  0  0  0
 40 42  1  0  0  0  0
 41 43  1  0  0  0  0
 41 67  1  0  0  0  0
 42 44  2  0  0  0  0
 42 68  1  0  0  0  0
 43 45  2  0  0  0  0
 44 45  1  0  0  0  0
 44 69  1  0  0  0  0
M  END
> <PUBCHEM_COMPOUND_CID>
5282153

> <PUBCHEM_COMPOUND_CANONICALIZED>
1

> <PUBCHEM_CACTVS_COMPLEXITY>
1150

> <PUBCHEM_CACTVS_HBOND_ACCEPTOR>
18

> <PUBCHEM_CACTVS_HBOND_DONOR>
10

> <PUBCHEM_CACTVS_ROTATABLE_BOND>
7

> <PUBCHEM_CACTVS_SUBSKEYS>
AAADceB4PgAAAAAAAAAAAAAAAAAAAAAAAAA0aIECAAAAAACBQAAAGgAACAAADBSwmAMwDoAABgCIAqDSCAICCAAkIAAIiAFGiMgdNzaGNR6ieWGl4BUPuQfK7LzOIAABCAAIQABAAAIQABCAAAAAAAAAAA==

> <PUBCHEM_IUPAC_OPENEYE_NAME>
(2S,3S,4S,5R,6R)-6-[(2S,3R,4S,5S,6S)-6-carboxy-2-[2-(3,4-dihydroxyphenyl)-5-hydroxy-4-oxo-chromen-7-yl]oxy-4,5-dihydroxy-tetrahydropyran-3-yl]oxy-3,4,5-trihydroxy-tetrahydropyran-2-carboxylic acid

> <PUBCHEM_IUPAC_CAS_NAME>
(2S,3S,4S,5R,6R)-6-[[(2S,3R,4S,5S,6S)-6-carboxy-2-[[2-(3,4-dihydroxyphenyl)-5-hydroxy-4-oxo-1-benzopyran-7-yl]oxy]-4,5-dihydroxy-3-oxanyl]oxy]-3,4,5-trihydroxy-2-oxanecarboxylic acid

> <PUBCHEM_IUPAC_NAME>
(2S,3S,4S,5R,6R)-6-[(2S,3R,4S,5S,6S)-6-carboxy-2-[2-(3,4-dihydroxyphenyl)-5-hydroxy-4-oxochromen-7-yl]oxy-4,5-dihydroxyoxan-3-yl]oxy-3,4,5-trihydroxyoxane-2-carboxylic acid

> <PUBCHEM_IUPAC_SYSTEMATIC_NAME>
(2S,3S,4S,5R,6R)-6-[(2S,3R,4S,5S,6S)-2-[2-[3,4-bis(oxidanyl)phenyl]-5-oxidanyl-4-oxidanylidene-chromen-7-yl]oxy-6-carboxy-4,5-bis(oxidanyl)oxan-3-yl]oxy-3,4,5-tris(oxidanyl)oxane-2-carboxylic acid

> <PUBCHEM_IUPAC_TRADITIONAL_NAME>
(2S,3S,4S,5R,6R)-6-[(2S,3R,4S,5S,6S)-6-carboxy-2-[2-(3,4-dihydroxyphenyl)-5-hydroxy-4-keto-chromen-7-yl]oxy-4,5-dihydroxy-tetrahydropyran-3-yl]oxy-3,4,5-trihydroxy-tetrahydropyran-2-carboxylic acid

> <PUBCHEM_IUPAC_INCHI>
InChI=1S/C27H26O18/c28-9-2-1-7(3-10(9)29)13-6-12(31)15-11(30)4-8(5-14(15)42-13)41-27-23(19(35)18(34)22(44-27)25(39)40)45-26-20(36)16(32)17(33)21(43-26)24(37)38/h1-6,16-23,26-30,32-36H,(H,37,38)(H,39,40)/t16-,17-,18-,19-,20+,21-,22-,23+,26-,27+/m0/s1

> <PUBCHEM_IUPAC_INCHIKEY>
PBBVWJQPAZYQDB-DBFWEQBMSA-N

> <PUBCHEM_XLOGP3_AA>
-0.6

> <PUBCHEM_EXACT_MASS>
638.111914

> <PUBCHEM_MOLECULAR_FORMULA>
C27H26O18

> <PUBCHEM_MOLECULAR_WEIGHT>
638.48454

> <PUBCHEM_OPENEYE_CAN_SMILES>
C1=CC(=C(C=C1C2=CC(=O)C3=C(C=C(C=C3O2)OC4C(C(C(C(O4)C(=O)O)O)O)OC5C(C(C(C(O5)C(=O)O)O)O)O)O)O)O

> <PUBCHEM_OPENEYE_ISO_SMILES>
C1=CC(=C(C=C1C2=CC(=O)C3=C(C=C(C=C3O2)O[C@H]4[C@@H]([C@H]([C@@H]([C@H](O4)C(=O)O)O)O)O[C@H]5[C@@H]([C@H]([C@@H]([C@H](O5)C(=O)O)O)O)O)O)O)O

> <PUBCHEM_CACTVS_TPSA>
300

> <PUBCHEM_MONOISOTOPIC_WEIGHT>
638.111914

> <PUBCHEM_TOTAL_CHARGE>
0

> <PUBCHEM_HEAVY_ATOM_COUNT>
45

> <PUBCHEM_ATOM_DEF_STEREO_COUNT>
10

> <PUBCHEM_ATOM_UDEF_STEREO_COUNT>
0

> <PUBCHEM_BOND_DEF_STEREO_COUNT>
0

> <PUBCHEM_BOND_UDEF_STEREO_COUNT>
0

> <PUBCHEM_ISOTOPIC_ATOM_COUNT>
0

> <PUBCHEM_COMPONENT_COUNT>
1

> <PUBCHEM_CACTVS_TAUTO_COUNT>
68

> <PUBCHEM_COORDINATE_TYPE>
1
5
255

> <PUBCHEM_BONDANNOTATIONS>
19  1  6
21  1  5
14  34  8
14  38  8
27  29  5
28  30  5
31  32  8
31  33  8
32  34  8
33  35  8
34  36  8
35  36  8
36  37  8
37  39  8
38  39  8
20  4  5
40  41  8
40  42  8
41  43  8
42  44  8
43  45  8
44  45  8
24  5  5
22  6  6
23  7  6
25  8  5
26  9  6

$$$$

