442759
  -OEChem-07051212593D

 30 32  0     0  0  0  0  0  0999 V2000
    1.9667    2.5577    0.0001 O   0  0  0  0  0  0  0  0  0  0  0  0
   -0.5763    2.3814   -0.0005 O   0  0  0  0  0  0  0  0  0  0  0  0
   -0.3902   -2.9593   -0.0024 O   0  0  0  0  0  0  0  0  0  0  0  0
    4.3435    1.2563    0.0005 O   0  0  0  0  0  0  0  0  0  0  0  0
   -3.1361    2.3796   -0.0009 O   0  0  0  0  0  0  0  0  0  0  0  0
    0.7662    0.4531   -0.0002 C   0  0  0  0  0  0  0  0  0  0  0  0
    0.8142   -0.9425   -0.0003 C   0  0  0  0  0  0  0  0  0  0  0  0
   -1.7785    0.3654   -0.0002 C   0  0  0  0  0  0  0  0  0  0  0  0
   -1.7304   -1.0302    0.0003 C   0  0  0  0  0  0  0  0  0  0  0  0
   -0.5320    1.1580   -0.0009 C   0  0  0  0  0  0  0  0  0  0  0  0
   -0.4322   -1.7352   -0.0003 C   0  0  0  0  0  0  0  0  0  0  0  0
    2.0510   -1.5985    0.0000 C   0  0  0  0  0  0  0  0  0  0  0  0
    1.9548    1.1928    0.0003 C   0  0  0  0  0  0  0  0  0  0  0  0
    3.2332   -0.8576    0.0003 C   0  0  0  0  0  0  0  0  0  0  0  0
    3.1852    0.5351    0.0006 C   0  0  0  0  0  0  0  0  0  0  0  0
   -3.0153    1.0215   -0.0001 C   0  0  0  0  0  0  0  0  0  0  0  0
   -2.9192   -1.7698    0.0010 C   0  0  0  0  0  0  0  0  0  0  0  0
    4.5424   -1.5764    0.0005 C   0  0  0  0  0  0  0  0  0  0  0  0
   -4.1975    0.2806    0.0009 C   0  0  0  0  0  0  0  0  0  0  0  0
   -4.1496   -1.1120    0.0015 C   0  0  0  0  0  0  0  0  0  0  0  0
    2.0976   -2.6848    0.0001 H   0  0  0  0  0  0  0  0  0  0  0  0
   -2.9086   -2.8564    0.0014 H   0  0  0  0  0  0  0  0  0  0  0  0
    5.1206   -1.3136   -0.8916 H   0  0  0  0  0  0  0  0  0  0  0  0
    5.1199   -1.3143    0.8932 H   0  0  0  0  0  0  0  0  0  0  0  0
    4.4136   -2.6641    0.0000 H   0  0  0  0  0  0  0  0  0  0  0  0
   -5.1665    0.7733    0.0011 H   0  0  0  0  0  0  0  0  0  0  0  0
   -5.0713   -1.6868    0.0021 H   0  0  0  0  0  0  0  0  0  0  0  0
    1.0664    2.9141    0.0001 H   0  0  0  0  0  0  0  0  0  0  0  0
    4.1164    2.2023    0.0006 H   0  0  0  0  0  0  0  0  0  0  0  0
   -4.0774    2.6241   -0.0007 H   0  0  0  0  0  0  0  0  0  0  0  0
  1 13  1  0  0  0  0
  1 28  1  0  0  0  0
  2 10  2  0  0  0  0
  3 11  2  0  0  0  0
  4 15  1  0  0  0  0
  4 29  1  0  0  0  0
  5 16  1  0  0  0  0
  5 30  1  0  0  0  0
  6  7  2  0  0  0  0
  6 10  1  0  0  0  0
  6 13  1  0  0  0  0
  7 11  1  0  0  0  0
  7 12  1  0  0  0  0
  8  9  2  0  0  0  0
  8 10  1  0  0  0  0
  8 16  1  0  0  0  0
  9 11  1  0  0  0  0
  9 17  1  0  0  0  0
 12 14  2  0  0  0  0
 12 21  1  0  0  0  0
 13 15  2  0  0  0  0
 14 15  1  0  0  0  0
 14 18  1  0  0  0  0
 16 19  2  0  0  0  0
 17 20  2  0  0  0  0
 17 22  1  0  0  0  0
 18 23  1  0  0  0  0
 18 24  1  0  0  0  0
 18 25  1  0  0  0  0
 19 20  1  0  0  0  0
 19 26  1  0  0  0  0
 20 27  1  0  0  0  0
M  END
> <PUBCHEM_COMPOUND_CID>
442759

> <PUBCHEM_CONFORMER_RMSD>
0.6

> <PUBCHEM_CONFORMER_DIVERSEORDER>
1

> <PUBCHEM_MMFF94_PARTIAL_CHARGES>
27
1 -0.53
10 0.4
11 0.4
12 -0.15
13 0.08
14 -0.14
15 0.08
16 0.08
17 -0.15
18 0.14
19 -0.15
2 -0.57
20 -0.15
21 0.15
22 0.15
26 0.15
27 0.15
28 0.45
29 0.45
3 -0.57
30 0.45
4 -0.53
5 -0.53
6 0.09
7 0.09
8 0.09
9 0.09

> <PUBCHEM_EFFECTIVE_ROTOR_COUNT>
0

> <PUBCHEM_PHARMACOPHORE_FEATURES>
8
1 1 donor
1 2 acceptor
1 3 acceptor
1 4 donor
1 5 donor
6 6 7 12 13 14 15 rings
6 6 7 8 9 10 11 rings
6 8 9 16 17 19 20 rings

> <PUBCHEM_HEAVY_ATOM_COUNT>
20

> <PUBCHEM_ATOM_DEF_STEREO_COUNT>
0

> <PUBCHEM_ATOM_UDEF_STEREO_COUNT>
0

> <PUBCHEM_BOND_DEF_STEREO_COUNT>
0

> <PUBCHEM_BOND_UDEF_STEREO_COUNT>
0

> <PUBCHEM_ISOTOPIC_ATOM_COUNT>
0

> <PUBCHEM_COMPONENT_COUNT>
1

> <PUBCHEM_CACTVS_TAUTO_COUNT>
252

> <PUBCHEM_CONFORMER_ID>
0006C18700000001

> <PUBCHEM_MMFF94_ENERGY>
63.0765

> <PUBCHEM_FEATURE_SELFOVERLAP>
40.643

> <PUBCHEM_SHAPE_FINGERPRINT>
10062212 137 18410301340854757187
10608611 8 18410295795904018617
10616163 171 18193553372367684126
10967382 1 18410855421505150118
1100329 8 16753249635859330563
11132069 177 18409173224522867114
11471102 20 18410859845427083606
12403259 226 18410579470057160497
13140716 1 18410288138204105585
13221675 6 18411420587635517298
13862211 1 18410862095985139522
14790565 3 18049429637349652768
15042514 8 17187855758062411698
15196674 1 18410573993746679974
15230672 131 13514902183243177427
15442244 35 18410856577136267354
15536298 74 18335139782647088858
16945 1 18194401078547068678
17492 89 18410292480179574070
17804303 29 18410570712412777950
18186145 218 18260820527239262747
19591789 44 18411138034701338019
200 152 18113344085595374591
20028762 73 18187368675739897647
20510252 161 18333730212887684601
21267235 1 18410847785043190075
21501502 16 18410854347747475900
221490 88 18341043017463584002
2334 1 18410573946781588583
23366157 5 18059295349496157356
23402539 116 18334304192269844046
23463225 33 18412262826427055263
23559900 14 18190182467918492566
238 59 17121743137269176461
2748010 2 18411138026327285079
2871803 45 18341620308660894775
335352 9 18266741474674804253
34934 24 18337395912035767282
350125 39 18411132533206824065
4214541 1 18410856602594821728
474 4 17273971338278678596
5104073 3 18409730677044698872
69090 78 18335986389209883479
7364860 26 18335421206284840480
8809292 202 18343297076314119891
9709674 26 18338231570479134518
9981440 41 17477487508785466024

> <PUBCHEM_SHAPE_MULTIPOLES>
382.24
7.76
2.73
0.59
1.24
0.25
0
-0.45
0
-0.05
0
-0.01
-0.03
0

> <PUBCHEM_SHAPE_SELFOVERLAP>
868.446

> <PUBCHEM_SHAPE_VOLUME>
198.2

> <PUBCHEM_COORDINATE_TYPE>
2
5
10

$$$$

