54675784
  -OEChem-07051212533D

 20 19  0     0  0  0  0  0  0999 V2000
    2.3949    1.9564   -0.3243 O   0  0  0  0  0  0  0  0  0  0  0  0
   -3.4374    0.4188   -0.9591 O   0  0  0  0  0  0  0  0  0  0  0  0
   -2.4950    1.4198    0.8453 O   0  0  0  0  0  0  0  0  0  0  0  0
    3.3704   -0.4352    0.9936 O   0  0  0  0  0  0  0  0  0  0  0  0
    2.4629   -1.4522   -0.8284 O   0  0  0  0  0  0  0  0  0  0  0  0
   -1.6699   -0.7211    0.1452 C   0  0  0  0  0  0  0  0  0  0  0  0
   -0.3318   -0.5794    0.0692 C   0  0  0  0  0  0  0  0  0  0  0  0
   -2.4217   -2.0102    0.3310 C   0  0  0  0  0  0  0  0  0  0  0  0
    0.4005    0.6647   -0.0952 C   0  0  0  0  0  0  0  0  0  0  0  0
    1.7401    0.7519   -0.1655 C   0  0  0  0  0  0  0  0  0  0  0  0
   -2.5483    0.4849    0.0583 C   0  0  0  0  0  0  0  0  0  0  0  0
    2.5353   -0.4984   -0.0702 C   0  0  0  0  0  0  0  0  0  0  0  0
    0.2400   -1.4977    0.1642 H   0  0  0  0  0  0  0  0  0  0  0  0
   -3.0804   -1.9475    1.2034 H   0  0  0  0  0  0  0  0  0  0  0  0
   -3.0284   -2.2362   -0.5516 H   0  0  0  0  0  0  0  0  0  0  0  0
   -1.7378   -2.8504    0.4903 H   0  0  0  0  0  0  0  0  0  0  0  0
   -0.1724    1.5832   -0.1789 H   0  0  0  0  0  0  0  0  0  0  0  0
    1.7274    2.6626   -0.3680 H   0  0  0  0  0  0  0  0  0  0  0  0
   -4.0161    1.2101   -0.9934 H   0  0  0  0  0  0  0  0  0  0  0  0
    3.9112   -1.2485    1.0846 H   0  0  0  0  0  0  0  0  0  0  0  0
  1 10  1  0  0  0  0
  1 18  1  0  0  0  0
  2 11  1  0  0  0  0
  2 19  1  0  0  0  0
  3 11  2  0  0  0  0
  4 12  1  0  0  0  0
  4 20  1  0  0  0  0
  5 12  2  0  0  0  0
  6  7  2  0  0  0  0
  6  8  1  0  0  0  0
  6 11  1  0  0  0  0
  7  9  1  0  0  0  0
  7 13  1  0  0  0  0
  8 14  1  0  0  0  0
  8 15  1  0  0  0  0
  8 16  1  0  0  0  0
  9 10  2  0  0  0  0
  9 17  1  0  0  0  0
 10 12  1  0  0  0  0
M  END
> <PUBCHEM_COMPOUND_CID>
54675784

> <PUBCHEM_CONFORMER_RMSD>
0.6

> <PUBCHEM_CONFORMER_DIVERSEORDER>
2
3
4
1

> <PUBCHEM_MMFF94_PARTIAL_CHARGES>
17
1 -0.53
10 0.09
11 0.71
12 0.71
13 0.15
17 0.15
18 0.45
19 0.5
2 -0.65
20 0.5
3 -0.57
4 -0.65
5 -0.57
6 -0.12
7 -0.15
8 0.14
9 -0.15

> <PUBCHEM_EFFECTIVE_ROTOR_COUNT>
3

> <PUBCHEM_PHARMACOPHORE_FEATURES>
8
1 1 donor
1 2 acceptor
1 3 acceptor
1 4 acceptor
1 5 acceptor
1 8 hydrophobe
3 2 3 11 anion
3 4 5 12 anion

> <PUBCHEM_HEAVY_ATOM_COUNT>
12

> <PUBCHEM_ATOM_DEF_STEREO_COUNT>
0

> <PUBCHEM_ATOM_UDEF_STEREO_COUNT>
0

> <PUBCHEM_BOND_DEF_STEREO_COUNT>
2

> <PUBCHEM_BOND_UDEF_STEREO_COUNT>
0

> <PUBCHEM_ISOTOPIC_ATOM_COUNT>
0

> <PUBCHEM_COMPONENT_COUNT>
1

> <PUBCHEM_CACTVS_TAUTO_COUNT>
7

> <PUBCHEM_CONFORMER_ID>
0342494800000002

> <PUBCHEM_MMFF94_ENERGY>
30.6793

> <PUBCHEM_FEATURE_SELFOVERLAP>
40.711

> <PUBCHEM_SHAPE_FINGERPRINT>
12162725 195 18334576845367683285
12932764 1 17775562039666825091
14144814 61 18410852183142065552
14325111 11 18341612573081786269
15775835 57 17704075109349025835
16945 1 18341609386057777571
17990270 104 18410567362760579014
18511873 20 18271245027036493752
19973954 147 18337664235358465393
20201158 50 18409168839567213494
20653085 51 18060138743528500421
21501502 16 18340764832283901500
21524375 3 17390208658214451265
23402539 116 18188503444879728421
23552423 10 18200871777432971714
2748010 2 18339918212657227335
3248919 1 18334012787207009677
74978 22 18341609325928254923
8030462 33 17967526857097484693
93112 12 18411979156748514759

> <PUBCHEM_SHAPE_MULTIPOLES>
217.61
5.71
1.73
0.82
0.3
0.12
-0.01
0.09
-0.02
-0.21
-0.02
-0.01
0.01
0.03

> <PUBCHEM_SHAPE_SELFOVERLAP>
430.849

> <PUBCHEM_SHAPE_VOLUME>
128.8

> <PUBCHEM_COORDINATE_TYPE>
2
5
10

$$$$

