8340
  -OEChem-06261202452D

 45 48  0     0  0  0  0  0  0999 V2000
    9.3629    1.5521    0.0000 O   0  0  0  0  0  0  0  0  0  0  0  0
    7.9110    0.7138    0.0000 O   0  0  0  0  0  0  0  0  0  0  0  0
    3.2255    6.3730    0.0000 O   0  0  0  0  0  0  0  0  0  0  0  0
    1.4061    5.3412    0.0000 O   0  0  0  0  0  0  0  0  0  0  0  0
    4.2653    9.4841    0.0000 O   0  5  0  0  0  0  0  0  0  0  0  0
    5.9451    4.7954    0.0000 N   0  3  0  0  0  0  0  0  0  0  0  0
    6.8111    5.2954    0.0000 C   0  0  0  0  0  0  0  0  0  0  0  0
    7.6772    4.7954    0.0000 C   0  0  0  0  0  0  0  0  0  0  0  0
    5.9451    3.7954    0.0000 C   0  0  0  0  0  0  0  0  0  0  0  0
    7.6772    3.7954    0.0000 C   0  0  0  0  0  0  0  0  0  0  0  0
    6.8111    3.2954    0.0000 C   0  0  0  0  0  0  0  0  0  0  0  0
    5.0512    5.3300    0.0000 C   0  0  0  0  0  0  0  0  0  0  0  0
    5.0512    3.2607    0.0000 C   0  0  0  0  0  0  0  0  0  0  0  0
    4.1451    4.8162    0.0000 C   0  0  0  0  0  0  0  0  0  0  0  0
    4.1451    3.7746    0.0000 C   0  0  0  0  0  0  0  0  0  0  0  0
    8.5872    3.2885    0.0000 C   0  0  0  0  0  0  0  0  0  0  0  0
    6.7951    2.2539    0.0000 C   0  0  0  0  0  0  0  0  0  0  0  0
    8.5952    2.2469    0.0000 C   0  0  0  0  0  0  0  0  0  0  0  0
    7.6931    1.7261    0.0000 C   0  0  0  0  0  0  0  0  0  0  0  0
    3.2140    5.3731    0.0000 C   0  0  0  0  0  0  0  0  0  0  0  0
    3.2140    3.2176    0.0000 C   0  0  0  0  0  0  0  0  0  0  0  0
    2.2702    4.8379    0.0000 C   0  0  0  0  0  0  0  0  0  0  0  0
    8.9409    0.6065    0.0000 C   0  0  0  0  0  0  0  0  0  0  0  0
    2.2702    3.7529    0.0000 C   0  0  0  0  0  0  0  0  0  0  0  0
    2.3653    6.8830    0.0000 C   0  0  0  0  0  0  0  0  0  0  0  0
    0.5381    4.8445    0.0000 C   0  0  0  0  0  0  0  0  0  0  0  0
    7.2097    5.7703    0.0000 H   0  0  0  0  0  0  0  0  0  0  0  0
    6.4126    5.7703    0.0000 H   0  0  0  0  0  0  0  0  0  0  0  0
    8.2878    4.6877    0.0000 H   0  0  0  0  0  0  0  0  0  0  0  0
    7.8892    5.3780    0.0000 H   0  0  0  0  0  0  0  0  0  0  0  0
    5.0584    5.9500    0.0000 H   0  0  0  0  0  0  0  0  0  0  0  0
    5.0584    2.6408    0.0000 H   0  0  0  0  0  0  0  0  0  0  0  0
    9.1205    3.6047    0.0000 H   0  0  0  0  0  0  0  0  0  0  0  0
    6.2546    1.9501    0.0000 H   0  0  0  0  0  0  0  0  0  0  0  0
    3.2211    2.5977    0.0000 H   0  0  0  0  0  0  0  0  0  0  0  0
    8.8122    0.0000    0.0000 H   0  0  0  0  0  0  0  0  0  0  0  0
    9.5305    0.4147    0.0000 H   0  0  0  0  0  0  0  0  0  0  0  0
    1.7344    3.4408    0.0000 H   0  0  0  0  0  0  0  0  0  0  0  0
    2.6815    7.4163    0.0000 H   0  0  0  0  0  0  0  0  0  0  0  0
    1.8320    7.1992    0.0000 H   0  0  0  0  0  0  0  0  0  0  0  0
    2.0491    6.3497    0.0000 H   0  0  0  0  0  0  0  0  0  0  0  0
    0.2302    5.3827    0.0000 H   0  0  0  0  0  0  0  0  0  0  0  0
    0.0000    4.5366    0.0000 H   0  0  0  0  0  0  0  0  0  0  0  0
    0.8461    4.3064    0.0000 H   0  0  0  0  0  0  0  0  0  0  0  0
    5.2653    9.4841    0.0000 H   0  0  0  0  0  0  0  0  0  0  0  0
  1 18  1  0  0  0  0
  1 23  1  0  0  0  0
  2 19  1  0  0  0  0
  2 23  1  0  0  0  0
  3 20  1  0  0  0  0
  3 25  1  0  0  0  0
  4 22  1  0  0  0  0
  4 26  1  0  0  0  0
  5 45  1  0  0  0  0
  6  7  1  0  0  0  0
  6  9  2  0  0  0  0
  6 12  1  0  0  0  0
  7  8  1  0  0  0  0
  7 27  1  0  0  0  0
  7 28  1  0  0  0  0
  8 10  1  0  0  0  0
  8 29  1  0  0  0  0
  8 30  1  0  0  0  0
  9 11  1  0  0  0  0
  9 13  1  0  0  0  0
 10 11  1  0  0  0  0
 10 16  2  0  0  0  0
 11 17  2  0  0  0  0
 12 14  2  0  0  0  0
 12 31  1  0  0  0  0
 13 15  2  0  0  0  0
 13 32  1  0  0  0  0
 14 15  1  0  0  0  0
 14 20  1  0  0  0  0
 15 21  1  0  0  0  0
 16 18  1  0  0  0  0
 16 33  1  0  0  0  0
 17 19  1  0  0  0  0
 17 34  1  0  0  0  0
 18 19  2  0  0  0  0
 20 22  2  0  0  0  0
 21 24  2  0  0  0  0
 21 35  1  0  0  0  0
 22 24  1  0  0  0  0
 23 36  1  0  0  0  0
 23 37  1  0  0  0  0
 24 38  1  0  0  0  0
 25 39  1  0  0  0  0
 25 40  1  0  0  0  0
 25 41  1  0  0  0  0
 26 42  1  0  0  0  0
 26 43  1  0  0  0  0
 26 44  1  0  0  0  0
M  CHG  2   5  -1   6   1
M  END
> <PUBCHEM_COMPOUND_CID>
8340

> <PUBCHEM_COMPOUND_CANONICALIZED>
1

> <PUBCHEM_CACTVS_COMPLEXITY>
488

> <PUBCHEM_CACTVS_HBOND_ACCEPTOR>
5

> <PUBCHEM_CACTVS_HBOND_DONOR>
1

> <PUBCHEM_CACTVS_ROTATABLE_BOND>
2

> <PUBCHEM_CACTVS_SUBSKEYS>
AAADceB6OAAAAAAAAAAAAAAAAAAAASAAAAA8eIEAAAAAAEix9AAAHgAACAAADAzBngc+jtMMFACgAzRnRACCiCAxIiAI2CA+7JgdJuLEsZukMCpmwBnO6Aew0PMOoAABAAAYQABAAAIAADCAAAAAAAAAAA==

> <PUBCHEM_IUPAC_INCHI>
InChI=1S/C20H18NO4.H2O/c1-22-17-4-3-12-7-16-14-9-19-18(24-11-25-19)8-13(14)5-6-21(16)10-15(12)20(17)23-2;/h3-4,7-10H,5-6,11H2,1-2H3;1H2/q+1;/p-1

> <PUBCHEM_IUPAC_INCHIKEY>
GMMNRSJSVLUGRV-UHFFFAOYSA-M

> <PUBCHEM_EXACT_MASS>
353.126323

> <PUBCHEM_MOLECULAR_FORMULA>
C20H19NO5

> <PUBCHEM_MOLECULAR_WEIGHT>
353.36856

> <PUBCHEM_OPENEYE_CAN_SMILES>
COC1=C(C2=C[N+]3=C(C=C2C=C1)C4=CC5=C(C=C4CC3)OCO5)OC.[OH-]

> <PUBCHEM_OPENEYE_ISO_SMILES>
COC1=C(C2=C[N+]3=C(C=C2C=C1)C4=CC5=C(C=C4CC3)OCO5)OC.[OH-]

> <PUBCHEM_CACTVS_TPSA>
41.8

> <PUBCHEM_MONOISOTOPIC_WEIGHT>
353.126323

> <PUBCHEM_TOTAL_CHARGE>
0

> <PUBCHEM_HEAVY_ATOM_COUNT>
26

> <PUBCHEM_ATOM_DEF_STEREO_COUNT>
0

> <PUBCHEM_ATOM_UDEF_STEREO_COUNT>
0

> <PUBCHEM_BOND_DEF_STEREO_COUNT>
0

> <PUBCHEM_BOND_UDEF_STEREO_COUNT>
0

> <PUBCHEM_ISOTOPIC_ATOM_COUNT>
0

> <PUBCHEM_COMPONENT_COUNT>
2

> <PUBCHEM_CACTVS_TAUTO_COUNT>
1

> <PUBCHEM_COORDINATE_TYPE>
1
5
255

> <PUBCHEM_BONDANNOTATIONS>
10  11  8
10  16  8
11  17  8
12  14  8
13  15  8
14  15  8
14  20  8
15  21  8
16  18  8
17  19  8
18  19  8
20  22  8
21  24  8
22  24  8
6  12  8
6  9  8
9  13  8

$$$$

