4398
  -OEChem-06261200052D

 48 51  0     1  0  0  0  0  0999 V2000
    7.0006    2.4869    0.0000 O   0  0  0  0  0  0  0  0  0  0  0  0
    9.3466    1.3950    0.0000 O   0  0  0  0  0  0  0  0  0  0  0  0
    9.3504    3.5706    0.0000 O   0  0  0  0  0  0  0  0  0  0  0  0
    7.9528    4.9884    0.0000 O   0  0  0  0  0  0  0  0  0  0  0  0
    7.2764    0.7263    0.0000 N   0  0  0  0  0  0  0  0  0  0  0  0
    7.2764   -0.8832    0.0000 N   0  0  0  0  0  0  0  0  0  0  0  0
    5.4641    0.9216    0.0000 N   0  0  0  0  0  0  0  0  0  0  0  0
    5.4641   -2.0784    0.0000 N   0  0  0  0  0  0  0  0  0  0  0  0
    4.5981   -0.5784    0.0000 N   0  0  0  0  0  0  0  0  0  0  0  0
    8.5386    1.9842    0.0000 C   0  0  3  0  0  0  0  0  0  0  0  0
    7.5870    1.6768    0.0000 C   0  0  3  0  0  0  0  0  0  0  0  0
    8.5403    2.9842    0.0000 C   0  0  3  0  0  0  0  0  0  0  0  0
    7.5898    3.2949    0.0000 C   0  0  3  0  0  0  0  0  0  0  0  0
    7.2824    4.2464    0.0000 C   0  0  0  0  0  0  0  0  0  0  0  0
    6.3301    0.4216    0.0000 C   0  0  0  0  0  0  0  0  0  0  0  0
    7.8600   -0.0784    0.0000 C   0  0  0  0  0  0  0  0  0  0  0  0
    6.3301   -0.5784    0.0000 C   0  0  0  0  0  0  0  0  0  0  0  0
    5.4641   -1.0784    0.0000 C   0  0  0  0  0  0  0  0  0  0  0  0
    4.5981   -2.5784    0.0000 C   0  0  0  0  0  0  0  0  0  0  0  0
    4.5981    0.4216    0.0000 C   0  0  0  0  0  0  0  0  0  0  0  0
    4.5981   -3.5784    0.0000 C   0  0  0  0  0  0  0  0  0  0  0  0
    3.7320   -4.0784    0.0000 C   0  0  0  0  0  0  0  0  0  0  0  0
    2.8660   -3.5784    0.0000 C   0  0  0  0  0  0  0  0  0  0  0  0
    3.7320   -5.0784    0.0000 C   0  0  0  0  0  0  0  0  0  0  0  0
    2.0000   -4.0784    0.0000 C   0  0  0  0  0  0  0  0  0  0  0  0
    2.8660   -5.5784    0.0000 C   0  0  0  0  0  0  0  0  0  0  0  0
    2.0000   -5.0784    0.0000 C   0  0  0  0  0  0  0  0  0  0  0  0
    9.0915    2.2647    0.0000 H   0  0  0  0  0  0  0  0  0  0  0  0
    6.9745    1.5809    0.0000 H   0  0  0  0  0  0  0  0  0  0  0  0
    8.4444    3.5967    0.0000 H   0  0  0  0  0  0  0  0  0  0  0  0
    6.9776    3.3929    0.0000 H   0  0  0  0  0  0  0  0  0  0  0  0
    6.9016    4.7357    0.0000 H   0  0  0  0  0  0  0  0  0  0  0  0
    6.7345    3.9563    0.0000 H   0  0  0  0  0  0  0  0  0  0  0  0
    9.9134    1.6462    0.0000 H   0  0  0  0  0  0  0  0  0  0  0  0
    9.9163    3.3174    0.0000 H   0  0  0  0  0  0  0  0  0  0  0  0
    8.4800   -0.0784    0.0000 H   0  0  0  0  0  0  0  0  0  0  0  0
    7.7623    5.5784    0.0000 H   0  0  0  0  0  0  0  0  0  0  0  0
    6.0010   -2.3884    0.0000 H   0  0  0  0  0  0  0  0  0  0  0  0
    4.3860   -1.9958    0.0000 H   0  0  0  0  0  0  0  0  0  0  0  0
    3.9875   -2.6861    0.0000 H   0  0  0  0  0  0  0  0  0  0  0  0
    4.0611    0.7316    0.0000 H   0  0  0  0  0  0  0  0  0  0  0  0
    4.8101   -4.1610    0.0000 H   0  0  0  0  0  0  0  0  0  0  0  0
    5.2087   -3.4708    0.0000 H   0  0  0  0  0  0  0  0  0  0  0  0
    2.8660   -2.9584    0.0000 H   0  0  0  0  0  0  0  0  0  0  0  0
    4.2690   -5.3884    0.0000 H   0  0  0  0  0  0  0  0  0  0  0  0
    1.4631   -3.7684    0.0000 H   0  0  0  0  0  0  0  0  0  0  0  0
    2.8660   -6.1984    0.0000 H   0  0  0  0  0  0  0  0  0  0  0  0
    1.4631   -5.3884    0.0000 H   0  0  0  0  0  0  0  0  0  0  0  0
  1 11  1  0  0  0  0
  1 13  1  0  0  0  0
  2 10  1  0  0  0  0
  2 34  1  0  0  0  0
  3 12  1  0  0  0  0
  3 35  1  0  0  0  0
  4 14  1  0  0  0  0
  4 37  1  0  0  0  0
  5 11  1  0  0  0  0
  5 15  1  0  0  0  0
  5 16  1  0  0  0  0
  6 16  2  0  0  0  0
  6 17  1  0  0  0  0
  7 15  2  0  0  0  0
  7 20  1  0  0  0  0
  8 18  1  0  0  0  0
  8 19  1  0  0  0  0
  8 38  1  0  0  0  0
  9 18  1  0  0  0  0
  9 20  2  0  0  0  0
 10 11  1  0  0  0  0
 10 12  1  0  0  0  0
 10 28  1  0  0  0  0
 11 29  1  0  0  0  0
 12 13  1  0  0  0  0
 12 30  1  0  0  0  0
 13 14  1  0  0  0  0
 13 31  1  0  0  0  0
 14 32  1  0  0  0  0
 14 33  1  0  0  0  0
 15 17  1  0  0  0  0
 16 36  1  0  0  0  0
 17 18  2  0  0  0  0
 19 21  1  0  0  0  0
 19 39  1  0  0  0  0
 19 40  1  0  0  0  0
 20 41  1  0  0  0  0
 21 22  1  0  0  0  0
 21 42  1  0  0  0  0
 21 43  1  0  0  0  0
 22 23  2  0  0  0  0
 22 24  1  0  0  0  0
 23 25  1  0  0  0  0
 23 44  1  0  0  0  0
 24 26  2  0  0  0  0
 24 45  1  0  0  0  0
 25 27  2  0  0  0  0
 25 46  1  0  0  0  0
 26 27  1  0  0  0  0
 26 47  1  0  0  0  0
 27 48  1  0  0  0  0
M  END
> <PUBCHEM_COMPOUND_CID>
4398

> <PUBCHEM_COMPOUND_CANONICALIZED>
1

> <PUBCHEM_CACTVS_COMPLEXITY>
481

> <PUBCHEM_CACTVS_HBOND_ACCEPTOR>
8

> <PUBCHEM_CACTVS_HBOND_DONOR>
4

> <PUBCHEM_CACTVS_ROTATABLE_BOND>
6

> <PUBCHEM_CACTVS_SUBSKEYS>
AAADceB7uAAAAAAAAAAAAAAAAAAAAWJAAAA8QAAAAAAAAFgB/AAAHgAQCAAADBzhnwY18L/MFgCgAyZjZACCgC0xEKAJ2KAoVJiLeCLA2VGeZAgvkALbiCfwsIIOAAAAAAAAAAAAAAAAAAAAAAAAAAAAAA==

> <PUBCHEM_IUPAC_OPENEYE_NAME>
2-(hydroxymethyl)-5-[6-(2-phenylethylamino)purin-9-yl]tetrahydrofuran-3,4-diol

> <PUBCHEM_IUPAC_CAS_NAME>
2-(hydroxymethyl)-5-[6-(2-phenylethylamino)-9-purinyl]oxolane-3,4-diol

> <PUBCHEM_IUPAC_NAME>
2-(hydroxymethyl)-5-[6-(2-phenylethylamino)purin-9-yl]oxolane-3,4-diol

> <PUBCHEM_IUPAC_SYSTEMATIC_NAME>
2-(hydroxymethyl)-5-[6-(2-phenylethylamino)purin-9-yl]oxolane-3,4-diol

> <PUBCHEM_IUPAC_TRADITIONAL_NAME>
2-methylol-5-[6-(phenethylamino)purin-9-yl]tetrahydrofuran-3,4-diol

> <PUBCHEM_IUPAC_INCHI>
InChI=1S/C18H21N5O4/c24-8-12-14(25)15(26)18(27-12)23-10-22-13-16(20-9-21-17(13)23)19-7-6-11-4-2-1-3-5-11/h1-5,9-10,12,14-15,18,24-26H,6-8H2,(H,19,20,21)

> <PUBCHEM_IUPAC_INCHIKEY>
LGZYEDZSPHLISU-UHFFFAOYSA-N

> <PUBCHEM_XLOGP3>
1.6

> <PUBCHEM_EXACT_MASS>
371.159354

> <PUBCHEM_MOLECULAR_FORMULA>
C18H21N5O4

> <PUBCHEM_MOLECULAR_WEIGHT>
371.39044

> <PUBCHEM_OPENEYE_CAN_SMILES>
C1=CC=C(C=C1)CCNC2=NC=NC3=C2N=CN3C4C(C(C(O4)CO)O)O

> <PUBCHEM_OPENEYE_ISO_SMILES>
C1=CC=C(C=C1)CCNC2=NC=NC3=C2N=CN3C4C(C(C(O4)CO)O)O

> <PUBCHEM_CACTVS_TPSA>
126

> <PUBCHEM_MONOISOTOPIC_WEIGHT>
371.159354

> <PUBCHEM_TOTAL_CHARGE>
0

> <PUBCHEM_HEAVY_ATOM_COUNT>
27

> <PUBCHEM_ATOM_DEF_STEREO_COUNT>
0

> <PUBCHEM_ATOM_UDEF_STEREO_COUNT>
4

> <PUBCHEM_BOND_DEF_STEREO_COUNT>
0

> <PUBCHEM_BOND_UDEF_STEREO_COUNT>
0

> <PUBCHEM_ISOTOPIC_ATOM_COUNT>
0

> <PUBCHEM_COMPONENT_COUNT>
1

> <PUBCHEM_CACTVS_TAUTO_COUNT>
3

> <PUBCHEM_COORDINATE_TYPE>
1
5
255

> <PUBCHEM_BONDANNOTATIONS>
13  14  3
15  17  8
17  18  8
10  2  3
22  23  8
22  24  8
23  25  8
24  26  8
25  27  8
26  27  8
12  3  3
11  5  3
5  15  8
5  16  8
6  16  8
6  17  8
7  15  8
7  20  8
9  18  8
9  20  8

$$$$

