178688
  -OEChem-07051213003D

 45 46  0     0  0  0  0  0  0999 V2000
    0.6974    3.1141   -0.0788 O   0  0  0  0  0  0  0  0  0  0  0  0
   -2.3698   -0.3446    1.2443 O   0  0  0  0  0  0  0  0  0  0  0  0
    2.5539   -2.3660    0.8743 O   0  0  0  0  0  0  0  0  0  0  0  0
    4.4337   -2.1259   -1.7133 O   0  0  0  0  0  0  0  0  0  0  0  0
    3.4373   -0.2686    0.2370 N   0  0  0  0  0  0  0  0  0  0  0  0
    2.9157    1.0747    0.0151 C   0  0  0  0  0  0  0  0  0  0  0  0
    1.4645    0.8942    0.3035 C   0  0  0  0  0  0  0  0  0  0  0  0
    1.1981   -0.4297    0.6557 C   0  0  0  0  0  0  0  0  0  0  0  0
    2.4580   -1.1805    0.6154 C   0  0  0  0  0  0  0  0  0  0  0  0
    0.4428    1.8242    0.2619 C   0  0  0  0  0  0  0  0  0  0  0  0
    4.8422   -0.5696    0.0670 C   0  0  0  0  0  0  0  0  0  0  0  0
   -0.8506    1.3975    0.5811 C   0  0  0  0  0  0  0  0  0  0  0  0
   -0.0692   -0.8766    0.9752 C   0  0  0  0  0  0  0  0  0  0  0  0
   -1.1039    0.0590    0.9345 C   0  0  0  0  0  0  0  0  0  0  0  0
    5.1606   -0.9544   -1.3663 C   0  0  0  0  0  0  0  0  0  0  0  0
   -1.9806    2.3783    0.5481 C   0  0  0  0  0  0  0  0  0  0  0  0
   -2.9370   -1.3712    0.4344 C   0  0  0  0  0  0  0  0  0  0  0  0
    0.6129    3.4517   -1.4638 C   0  0  0  0  0  0  0  0  0  0  0  0
   -4.4196   -1.1829    0.3562 C   0  0  0  0  0  0  0  0  0  0  0  0
   -5.1708   -0.9398   -0.7345 C   0  0  0  0  0  0  0  0  0  0  0  0
   -6.6625   -0.7737   -0.6083 C   0  0  0  0  0  0  0  0  0  0  0  0
   -4.6529   -0.8105   -2.1389 C   0  0  0  0  0  0  0  0  0  0  0  0
    3.0972    1.3644   -1.0231 H   0  0  0  0  0  0  0  0  0  0  0  0
    3.3899    1.7662    0.7172 H   0  0  0  0  0  0  0  0  0  0  0  0
    5.0815   -1.4096    0.7291 H   0  0  0  0  0  0  0  0  0  0  0  0
    5.4301    0.2983    0.3822 H   0  0  0  0  0  0  0  0  0  0  0  0
   -0.2456   -1.9098    1.2526 H   0  0  0  0  0  0  0  0  0  0  0  0
    6.2287   -1.1587   -1.4883 H   0  0  0  0  0  0  0  0  0  0  0  0
    4.8783   -0.1614   -2.0654 H   0  0  0  0  0  0  0  0  0  0  0  0
   -2.7213    2.1602    1.3251 H   0  0  0  0  0  0  0  0  0  0  0  0
   -1.6425    3.4028    0.7347 H   0  0  0  0  0  0  0  0  0  0  0  0
   -2.4760    2.3447   -0.4273 H   0  0  0  0  0  0  0  0  0  0  0  0
   -2.4677   -1.3939   -0.5534 H   0  0  0  0  0  0  0  0  0  0  0  0
   -2.7357   -2.3368    0.9132 H   0  0  0  0  0  0  0  0  0  0  0  0
   -0.3931    3.2591   -1.8490 H   0  0  0  0  0  0  0  0  0  0  0  0
    1.3497    2.8875   -2.0435 H   0  0  0  0  0  0  0  0  0  0  0  0
    0.8287    4.5185   -1.5686 H   0  0  0  0  0  0  0  0  0  0  0  0
    4.7083   -2.8331   -1.1051 H   0  0  0  0  0  0  0  0  0  0  0  0
   -4.9260   -1.2535    1.3183 H   0  0  0  0  0  0  0  0  0  0  0  0
   -7.1797   -1.5286   -1.2096 H   0  0  0  0  0  0  0  0  0  0  0  0
   -7.0091   -0.8786    0.4252 H   0  0  0  0  0  0  0  0  0  0  0  0
   -6.9643    0.2183   -0.9601 H   0  0  0  0  0  0  0  0  0  0  0  0
   -5.0750   -1.6009   -2.7684 H   0  0  0  0  0  0  0  0  0  0  0  0
   -4.9486    0.1570   -2.5590 H   0  0  0  0  0  0  0  0  0  0  0  0
   -3.5663   -0.8727   -2.2173 H   0  0  0  0  0  0  0  0  0  0  0  0
  1 10  1  0  0  0  0
  1 18  1  0  0  0  0
  2 14  1  0  0  0  0
  2 17  1  0  0  0  0
  3  9  2  0  0  0  0
  4 15  1  0  0  0  0
  4 38  1  0  0  0  0
  5  6  1  0  0  0  0
  5  9  1  0  0  0  0
  5 11  1  0  0  0  0
  6  7  1  0  0  0  0
  6 23  1  0  0  0  0
  6 24  1  0  0  0  0
  7  8  1  0  0  0  0
  7 10  2  0  0  0  0
  8  9  1  0  0  0  0
  8 13  2  0  0  0  0
 10 12  1  0  0  0  0
 11 15  1  0  0  0  0
 11 25  1  0  0  0  0
 11 26  1  0  0  0  0
 12 14  2  0  0  0  0
 12 16  1  0  0  0  0
 13 14  1  0  0  0  0
 13 27  1  0  0  0  0
 15 28  1  0  0  0  0
 15 29  1  0  0  0  0
 16 30  1  0  0  0  0
 16 31  1  0  0  0  0
 16 32  1  0  0  0  0
 17 19  1  0  0  0  0
 17 33  1  0  0  0  0
 17 34  1  0  0  0  0
 18 35  1  0  0  0  0
 18 36  1  0  0  0  0
 18 37  1  0  0  0  0
 19 20  2  0  0  0  0
 19 39  1  0  0  0  0
 20 21  1  0  0  0  0
 20 22  1  0  0  0  0
 21 40  1  0  0  0  0
 21 41  1  0  0  0  0
 21 42  1  0  0  0  0
 22 43  1  0  0  0  0
 22 44  1  0  0  0  0
 22 45  1  0  0  0  0
M  END
> <PUBCHEM_COMPOUND_CID>
178688

> <PUBCHEM_CONFORMER_RMSD>
0.8

> <PUBCHEM_CONFORMER_DIVERSEORDER>
4
44
24
61
72
47
52
86
73
50
88
84
55
45
28
68
82
76
41
59
21
2
74
37
87
70
85
78
67
36
81
16
80
9
79
66
77
64
42
17
58
69
14
15
38
12
65
23
1
29
51
19
26
20
25
40
8
11
60
71
10
3
34
5
54
56
30
75
27
35
83
13
63
46
7
53
57
6
33
18
32
22
43
39
62
31
48
49

> <PUBCHEM_MMFF94_PARTIAL_CHARGES>
25
1 -0.36
10 0.08
11 0.3
12 -0.14
13 -0.15
14 0.08
15 0.28
16 0.14
17 0.42
18 0.28
19 -0.29
2 -0.36
20 -0.28
21 0.14
22 0.14
27 0.15
3 -0.57
38 0.4
39 0.15
4 -0.68
5 -0.66
6 0.44
7 -0.14
8 0.09
9 0.54

> <PUBCHEM_EFFECTIVE_ROTOR_COUNT>
6.4

> <PUBCHEM_PHARMACOPHORE_FEATURES>
8
1 1 acceptor
1 2 acceptor
1 3 acceptor
1 4 acceptor
1 4 donor
3 20 21 22 hydrophobe
5 5 6 7 8 9 rings
6 7 8 10 12 13 14 rings

> <PUBCHEM_HEAVY_ATOM_COUNT>
22

> <PUBCHEM_ATOM_DEF_STEREO_COUNT>
0

> <PUBCHEM_ATOM_UDEF_STEREO_COUNT>
0

> <PUBCHEM_BOND_DEF_STEREO_COUNT>
0

> <PUBCHEM_BOND_UDEF_STEREO_COUNT>
0

> <PUBCHEM_ISOTOPIC_ATOM_COUNT>
0

> <PUBCHEM_COMPONENT_COUNT>
1

> <PUBCHEM_CACTVS_TAUTO_COUNT>
1

> <PUBCHEM_CONFORMER_ID>
0002BA0000000004

> <PUBCHEM_MMFF94_ENERGY>
66.3271

> <PUBCHEM_FEATURE_SELFOVERLAP>
40.683

> <PUBCHEM_SHAPE_FINGERPRINT>
10042902 136 17313109609525146271
10693767 8 18334580148187796782
12236239 1 17749388123251602443
12553582 1 18342448257621862651
13134695 92 18115877304382903849
13540713 5 17912643798564088730
13583140 156 14490470958385016739
13757389 114 17830995176923712516
13914758 101 15697728077680104676
14508225 48 18342734135362310796
14576447 43 18410859875444479466
15183329 4 18411708712218393935
16945 1 18127675063779493608
17357779 13 18412550907285227733
1813 80 18334287678009418534
18186145 218 17845669040791483931
18222031 100 18260550017388217410
18769570 83 14692579801273366750
19784866 240 17967810527498692367
200 152 18334579035974973971
20612939 158 18270962337322789281
20645477 70 18337671893506830355
20871999 31 18131068272563473809
21637258 2 17022903484203721902
21641784 216 17774711077949716748
21792961 116 17632571673582899170
221357 26 18272103682158641613
221490 88 17983288232054955619
22289505 5 18202014217680689173
23379529 103 18261954025408197135
23402539 116 18410572920010118019
23536364 44 18270974547730235037
23559900 14 18269840817781383625
25147074 1 17985830556319994498
2748010 2 18270670979647527288
2838139 119 14692567706725037286
2871803 45 18412544314557946802
29717793 49 18113615681667412203
3009799 131 18272660017076540800
4463277 69 18040994042269511614
46194498 28 17915750773637168253
5207 123 18335417971989623045
5281201 14 18059021575595852975
7471813 234 18041282067483214881
9971528 1 18261961747590168009

> <PUBCHEM_SHAPE_MULTIPOLES>
424.29
11.63
2.92
1.42
9.92
2.74
0.72
-8.62
5.77
-1.44
0.7
0.26
-0.28
0

> <PUBCHEM_SHAPE_SELFOVERLAP>
884.93

> <PUBCHEM_SHAPE_VOLUME>
245.3

> <PUBCHEM_COORDINATE_TYPE>
2
5
10

$$$$

