17395691
  -OEChem-06241222512D

 51 52  0     1  0  0  0  0  0999 V2000
    4.9483    0.0352    0.0000 O   0  0  0  0  0  0  0  0  0  0  0  0
    6.6804    1.0352    0.0000 O   0  0  0  0  0  0  0  0  0  0  0  0
    3.2163    0.0352    0.0000 O   0  0  0  0  0  0  0  0  0  0  0  0
    3.4013   -4.7262    0.0000 O   0  0  0  0  0  0  0  0  0  0  0  0
    2.0000   -3.7081    0.0000 O   0  0  0  0  0  0  0  0  0  0  0  0
    5.8144    2.5352    0.0000 N   0  0  0  0  0  0  0  0  0  0  0  0
    4.8913   -2.0526    0.0000 N   0  0  0  0  0  0  0  0  0  0  0  0
    5.8144    4.5352    0.0000 C   0  0  0  0  0  0  0  0  0  0  0  0
    4.9483    4.0352    0.0000 C   0  0  0  0  0  0  0  0  0  0  0  0
    6.6804    4.0352    0.0000 C   0  0  0  0  0  0  0  0  0  0  0  0
    4.9483    3.0352    0.0000 C   0  0  0  0  0  0  0  0  0  0  0  0
    6.6804    3.0352    0.0000 C   0  0  0  0  0  0  0  0  0  0  0  0
    5.8144    5.5352    0.0000 C   0  0  0  0  0  0  0  0  0  0  0  0
    5.8144    1.5352    0.0000 C   0  0  0  0  0  0  0  0  0  0  0  0
    4.9483    1.0352    0.0000 C   0  0  3  0  0  0  0  0  0  0  0  0
    4.0823    1.5352    0.0000 C   0  0  0  0  0  0  0  0  0  0  0  0
    4.0823   -1.4648    0.0000 C   0  0  0  0  0  0  0  0  0  0  0  0
    4.0823   -0.4648    0.0000 C   0  0  0  0  0  0  0  0  0  0  0  0
    3.2733   -2.0526    0.0000 C   0  0  0  0  0  0  0  0  0  0  0  0
    3.5823   -3.0036    0.0000 C   0  0  0  0  0  0  0  0  0  0  0  0
    4.5823   -3.0036    0.0000 C   0  0  0  0  0  0  0  0  0  0  0  0
    2.3222   -1.7436    0.0000 C   0  0  0  0  0  0  0  0  0  0  0  0
    5.1701   -3.8126    0.0000 C   0  0  0  0  0  0  0  0  0  0  0  0
    2.9945   -3.8126    0.0000 C   0  0  0  0  0  0  0  0  0  0  0  0
    2.8135   -5.5352    0.0000 C   0  0  0  0  0  0  0  0  0  0  0  0
    5.2774    4.8452    0.0000 H   0  0  0  0  0  0  0  0  0  0  0  0
    7.2910    3.9276    0.0000 H   0  0  0  0  0  0  0  0  0  0  0  0
    6.8924    4.6178    0.0000 H   0  0  0  0  0  0  0  0  0  0  0  0
    4.7363    4.6178    0.0000 H   0  0  0  0  0  0  0  0  0  0  0  0
    4.3378    3.9276    0.0000 H   0  0  0  0  0  0  0  0  0  0  0  0
    6.8924    2.4526    0.0000 H   0  0  0  0  0  0  0  0  0  0  0  0
    7.2910    3.1429    0.0000 H   0  0  0  0  0  0  0  0  0  0  0  0
    4.3378    3.1429    0.0000 H   0  0  0  0  0  0  0  0  0  0  0  0
    4.7363    2.4526    0.0000 H   0  0  0  0  0  0  0  0  0  0  0  0
    6.4344    5.5352    0.0000 H   0  0  0  0  0  0  0  0  0  0  0  0
    5.8144    6.1552    0.0000 H   0  0  0  0  0  0  0  0  0  0  0  0
    5.1944    5.5352    0.0000 H   0  0  0  0  0  0  0  0  0  0  0  0
    5.4853    0.7252    0.0000 H   0  0  0  0  0  0  0  0  0  0  0  0
    4.3923    2.0722    0.0000 H   0  0  0  0  0  0  0  0  0  0  0  0
    3.5454    1.8452    0.0000 H   0  0  0  0  0  0  0  0  0  0  0  0
    3.7723    0.9983    0.0000 H   0  0  0  0  0  0  0  0  0  0  0  0
    5.4810   -1.8610    0.0000 H   0  0  0  0  0  0  0  0  0  0  0  0
    2.5138   -1.1539    0.0000 H   0  0  0  0  0  0  0  0  0  0  0  0
    1.7326   -1.5520    0.0000 H   0  0  0  0  0  0  0  0  0  0  0  0
    2.1306   -2.3332    0.0000 H   0  0  0  0  0  0  0  0  0  0  0  0
    4.6685   -4.1771    0.0000 H   0  0  0  0  0  0  0  0  0  0  0  0
    5.5345   -4.3142    0.0000 H   0  0  0  0  0  0  0  0  0  0  0  0
    5.6717   -3.4482    0.0000 H   0  0  0  0  0  0  0  0  0  0  0  0
    2.3119   -5.1708    0.0000 H   0  0  0  0  0  0  0  0  0  0  0  0
    2.4490   -6.0368    0.0000 H   0  0  0  0  0  0  0  0  0  0  0  0
    3.3151   -5.8996    0.0000 H   0  0  0  0  0  0  0  0  0  0  0  0
  1 15  1  0  0  0  0
  1 18  1  0  0  0  0
  2 14  2  0  0  0  0
  3 18  2  0  0  0  0
  4 24  1  0  0  0  0
  4 25  1  0  0  0  0
  5 24  2  0  0  0  0
  6 11  1  0  0  0  0
  6 12  1  0  0  0  0
  6 14  1  0  0  0  0
  7 17  1  0  0  0  0
  7 21  1  0  0  0  0
  7 42  1  0  0  0  0
  8  9  1  0  0  0  0
  8 10  1  0  0  0  0
  8 13  1  0  0  0  0
  8 26  1  0  0  0  0
  9 11  1  0  0  0  0
  9 29  1  0  0  0  0
  9 30  1  0  0  0  0
 10 12  1  0  0  0  0
 10 27  1  0  0  0  0
 10 28  1  0  0  0  0
 11 33  1  0  0  0  0
 11 34  1  0  0  0  0
 12 31  1  0  0  0  0
 12 32  1  0  0  0  0
 13 35  1  0  0  0  0
 13 36  1  0  0  0  0
 13 37  1  0  0  0  0
 14 15  1  0  0  0  0
 15 16  1  0  0  0  0
 15 38  1  0  0  0  0
 16 39  1  0  0  0  0
 16 40  1  0  0  0  0
 16 41  1  0  0  0  0
 17 18  1  0  0  0  0
 17 19  2  0  0  0  0
 19 20  1  0  0  0  0
 19 22  1  0  0  0  0
 20 21  2  0  0  0  0
 20 24  1  0  0  0  0
 21 23  1  0  0  0  0
 22 43  1  0  0  0  0
 22 44  1  0  0  0  0
 22 45  1  0  0  0  0
 23 46  1  0  0  0  0
 23 47  1  0  0  0  0
 23 48  1  0  0  0  0
 25 49  1  0  0  0  0
 25 50  1  0  0  0  0
 25 51  1  0  0  0  0
M  END
> <PUBCHEM_COMPOUND_CID>
17395691

> <PUBCHEM_COMPOUND_CANONICALIZED>
1

> <PUBCHEM_CACTVS_COMPLEXITY>
516

> <PUBCHEM_CACTVS_HBOND_ACCEPTOR>
5

> <PUBCHEM_CACTVS_HBOND_DONOR>
1

> <PUBCHEM_CACTVS_ROTATABLE_BOND>
6

> <PUBCHEM_CACTVS_SUBSKEYS>
AAADceB7OAAAAAAAAAAAAAAAAAAAAWAAAAAsAAAAAAAAAAABgAAAHgAQAAAADRzhngYCiJPJlACoAwXwXAaCgCAnACAAmSH4TNgKJnrAtL2HEYhm1gHY6Ue8fwkegAAAAAAAAAAAAAAAAAAAAAAAAAAAAA==

> <PUBCHEM_IUPAC_OPENEYE_NAME>
O4-methyl O2-[1-methyl-2-(4-methyl-1-piperidyl)-2-oxo-ethyl] 3,5-dimethyl-1H-pyrrole-2,4-dicarboxylate

> <PUBCHEM_IUPAC_CAS_NAME>
3,5-dimethyl-1H-pyrrole-2,4-dicarboxylic acid O4-methyl ester O2-[1-(4-methyl-1-piperidinyl)-1-oxopropan-2-yl] ester

> <PUBCHEM_IUPAC_NAME>
4-O-methyl 2-O-[1-(4-methylpiperidin-1-yl)-1-oxopropan-2-yl] 3,5-dimethyl-1H-pyrrole-2,4-dicarboxylate

> <PUBCHEM_IUPAC_SYSTEMATIC_NAME>
O4-methyl O2-[1-(4-methylpiperidin-1-yl)-1-oxidanylidene-propan-2-yl] 3,5-dimethyl-1H-pyrrole-2,4-dicarboxylate

> <PUBCHEM_IUPAC_TRADITIONAL_NAME>
3,5-dimethyl-1H-pyrrole-2,4-dicarboxylic acid O2-[2-keto-1-methyl-2-(4-methylpiperidino)ethyl] ester O4-methyl ester

> <PUBCHEM_IUPAC_INCHI>
InChI=1S/C18H26N2O5/c1-10-6-8-20(9-7-10)16(21)13(4)25-18(23)15-11(2)14(12(3)19-15)17(22)24-5/h10,13,19H,6-9H2,1-5H3

> <PUBCHEM_IUPAC_INCHIKEY>
XZNLGQJKRZZAKN-UHFFFAOYSA-N

> <PUBCHEM_XLOGP3_AA>
2.7

> <PUBCHEM_EXACT_MASS>
350.184172

> <PUBCHEM_MOLECULAR_FORMULA>
C18H26N2O5

> <PUBCHEM_MOLECULAR_WEIGHT>
350.40944

> <PUBCHEM_OPENEYE_CAN_SMILES>
CC1CCN(CC1)C(=O)C(C)OC(=O)C2=C(C(=C(N2)C)C(=O)OC)C

> <PUBCHEM_OPENEYE_ISO_SMILES>
CC1CCN(CC1)C(=O)C(C)OC(=O)C2=C(C(=C(N2)C)C(=O)OC)C

> <PUBCHEM_CACTVS_TPSA>
88.7

> <PUBCHEM_MONOISOTOPIC_WEIGHT>
350.184172

> <PUBCHEM_TOTAL_CHARGE>
0

> <PUBCHEM_HEAVY_ATOM_COUNT>
25

> <PUBCHEM_ATOM_DEF_STEREO_COUNT>
0

> <PUBCHEM_ATOM_UDEF_STEREO_COUNT>
1

> <PUBCHEM_BOND_DEF_STEREO_COUNT>
0

> <PUBCHEM_BOND_UDEF_STEREO_COUNT>
0

> <PUBCHEM_ISOTOPIC_ATOM_COUNT>
0

> <PUBCHEM_COMPONENT_COUNT>
1

> <PUBCHEM_CACTVS_TAUTO_COUNT>
10

> <PUBCHEM_COORDINATE_TYPE>
1
5
255

> <PUBCHEM_BONDANNOTATIONS>
15  16  3
17  19  8
19  20  8
20  21  8
7  17  8
7  21  8

$$$$

