12962
  -OEChem-06261207353D

 11 10  0     0  0  0  0  0  0999 V2000
   -1.8772    0.0221    0.0000 O   0  0  0  0  0  0  0  0  0  0  0  0
    0.4556   -0.0257    0.0000 N   0  0  0  0  0  0  0  0  0  0  0  0
    1.5874   -0.8306    0.0000 N   0  0  0  0  0  0  0  0  0  0  0  0
    0.6415    1.4116    0.0000 C   0  0  0  0  0  0  0  0  0  0  0  0
   -0.8073   -0.5774    0.0000 C   0  0  0  0  0  0  0  0  0  0  0  0
   -0.3169    1.9382    0.0000 H   0  0  0  0  0  0  0  0  0  0  0  0
    1.2037    1.6987   -0.8939 H   0  0  0  0  0  0  0  0  0  0  0  0
    1.2037    1.6987    0.8939 H   0  0  0  0  0  0  0  0  0  0  0  0
    2.1416   -0.5754    0.8164 H   0  0  0  0  0  0  0  0  0  0  0  0
    2.1418   -0.5752   -0.8162 H   0  0  0  0  0  0  0  0  0  0  0  0
   -0.7762   -1.6805    0.0000 H   0  0  0  0  0  0  0  0  0  0  0  0
  1  5  2  0  0  0  0
  2  3  1  0  0  0  0
  2  4  1  0  0  0  0
  2  5  1  0  0  0  0
  3  9  1  0  0  0  0
  3 10  1  0  0  0  0
  4  6  1  0  0  0  0
  4  7  1  0  0  0  0
  4  8  1  0  0  0  0
  5 11  1  0  0  0  0
M  END
> <PUBCHEM_COMPOUND_CID>
12962

> <PUBCHEM_CONFORMER_RMSD>
0.4

> <PUBCHEM_CONFORMER_DIVERSEORDER>
1
2

> <PUBCHEM_MMFF94_PARTIAL_CHARGES>
8
1 -0.57
10 0.36
11 0.06
2 -0.35
3 -0.73
4 0.3
5 0.57
9 0.36

> <PUBCHEM_EFFECTIVE_ROTOR_COUNT>
1

> <PUBCHEM_PHARMACOPHORE_FEATURES>
2
1 1 acceptor
1 3 donor

> <PUBCHEM_HEAVY_ATOM_COUNT>
5

> <PUBCHEM_ATOM_DEF_STEREO_COUNT>
0

> <PUBCHEM_ATOM_UDEF_STEREO_COUNT>
0

> <PUBCHEM_BOND_DEF_STEREO_COUNT>
0

> <PUBCHEM_BOND_UDEF_STEREO_COUNT>
0

> <PUBCHEM_ISOTOPIC_ATOM_COUNT>
0

> <PUBCHEM_COMPONENT_COUNT>
1

> <PUBCHEM_CACTVS_TAUTO_COUNT>
1

> <PUBCHEM_CONFORMER_ID>
000032A200000001

> <PUBCHEM_MMFF94_ENERGY>
4.1108

> <PUBCHEM_FEATURE_SELFOVERLAP>
10.148

> <PUBCHEM_SHAPE_FINGERPRINT>
139733 1 17906453225291444229
20096714 4 9871742498972083030
21015797 1 18336828580651208150
5943 1 11636441275630320744

> <PUBCHEM_SHAPE_MULTIPOLES>
87.07
1.9
1.22
0.56
0.58
0.31
0
-0.19
0
-0.53
0
0
0.02
0

> <PUBCHEM_SHAPE_SELFOVERLAP>
150.692

> <PUBCHEM_SHAPE_VOLUME>
58.4

> <PUBCHEM_COORDINATE_TYPE>
2
5
10

$$$$

