11860
  -OEChem-06261206123D

 16 16  0     0  0  0  0  0  0999 V2000
    1.2151   -2.7287    0.0005 Cl  0  0  0  0  0  0  0  0  0  0  0  0
    1.2114    2.7302   -0.0017 Cl  0  0  0  0  0  0  0  0  0  0  0  0
    2.5071    0.0013   -0.0003 N   0  0  0  0  0  0  0  0  0  0  0  0
   -3.1094   -0.0013    0.0007 N   0  0  0  0  0  0  0  0  0  0  0  0
    1.0910    0.0004    0.0012 C   0  0  0  0  0  0  0  0  0  0  0  0
   -1.6990   -0.0009   -0.0009 C   0  0  0  0  0  0  0  0  0  0  0  0
    0.3940   -1.2079   -0.0006 C   0  0  0  0  0  0  0  0  0  0  0  0
    0.3929    1.2081    0.0019 C   0  0  0  0  0  0  0  0  0  0  0  0
   -1.0010   -1.2085   -0.0017 C   0  0  0  0  0  0  0  0  0  0  0  0
   -1.0021    1.2073    0.0008 C   0  0  0  0  0  0  0  0  0  0  0  0
   -1.5484   -2.1488   -0.0023 H   0  0  0  0  0  0  0  0  0  0  0  0
   -1.5505    2.1471    0.0010 H   0  0  0  0  0  0  0  0  0  0  0  0
    3.0113   -0.8753    0.0035 H   0  0  0  0  0  0  0  0  0  0  0  0
    3.0101    0.8787    0.0054 H   0  0  0  0  0  0  0  0  0  0  0  0
   -3.6160    0.8740   -0.0026 H   0  0  0  0  0  0  0  0  0  0  0  0
   -3.6154   -0.8769   -0.0043 H   0  0  0  0  0  0  0  0  0  0  0  0
  1  7  1  0  0  0  0
  2  8  1  0  0  0  0
  3  5  1  0  0  0  0
  3 13  1  0  0  0  0
  3 14  1  0  0  0  0
  4  6  1  0  0  0  0
  4 15  1  0  0  0  0
  4 16  1  0  0  0  0
  5  7  2  0  0  0  0
  5  8  1  0  0  0  0
  6  9  2  0  0  0  0
  6 10  1  0  0  0  0
  7  9  1  0  0  0  0
  8 10  2  0  0  0  0
  9 11  1  0  0  0  0
 10 12  1  0  0  0  0
M  END
> <PUBCHEM_COMPOUND_CID>
11860

> <PUBCHEM_CONFORMER_RMSD>
0.4

> <PUBCHEM_CONFORMER_DIVERSEORDER>
1

> <PUBCHEM_MMFF94_PARTIAL_CHARGES>
16
1 -0.18
10 -0.15
11 0.15
12 0.15
13 0.4
14 0.4
15 0.4
16 0.4
2 -0.18
3 -0.9
4 -0.9
5 0.1
6 0.1
7 0.18
8 0.18
9 -0.15

> <PUBCHEM_EFFECTIVE_ROTOR_COUNT>
0

> <PUBCHEM_PHARMACOPHORE_FEATURES>
5
1 3 cation
1 3 donor
1 4 cation
1 4 donor
6 5 6 7 8 9 10 rings

> <PUBCHEM_HEAVY_ATOM_COUNT>
10

> <PUBCHEM_ATOM_DEF_STEREO_COUNT>
0

> <PUBCHEM_ATOM_UDEF_STEREO_COUNT>
0

> <PUBCHEM_BOND_DEF_STEREO_COUNT>
0

> <PUBCHEM_BOND_UDEF_STEREO_COUNT>
0

> <PUBCHEM_ISOTOPIC_ATOM_COUNT>
0

> <PUBCHEM_COMPONENT_COUNT>
1

> <PUBCHEM_CACTVS_TAUTO_COUNT>
1

> <PUBCHEM_CONFORMER_ID>
00002E5400000001

> <PUBCHEM_MMFF94_ENERGY>
43.0216

> <PUBCHEM_FEATURE_SELFOVERLAP>
25.371

> <PUBCHEM_SHAPE_FINGERPRINT>
12423570 1 17703218632772284092
13380535 76 17903925448227933844
16945 1 18410856559834955399
18185500 45 18336547217391171935
193761 8 17762056944754574720
20871998 184 16459938880564437508
21040471 1 17906170650850624033
23552423 10 17983285221071721574
23559900 14 17758660176150659804
241688 4 17906450278980542977
2748010 2 18124311597516949367
29004967 10 18341607157164968971
5084963 1 18041840606072102001

> <PUBCHEM_SHAPE_MULTIPOLES>
199.57
2.89
2.84
0.61
0.03
1.49
0
-1.78
0
-0.03
0
0
-0.02
0

> <PUBCHEM_SHAPE_SELFOVERLAP>
399.026

> <PUBCHEM_SHAPE_VOLUME>
117.6

> <PUBCHEM_COORDINATE_TYPE>
2
5
10

$$$$

