6317
  -OEChem-06261201143D

 32 32  0     1  0  0  0  0  0999 V2000
   -1.4977    1.2608   -1.7117 O   0  0  0  0  0  0  0  0  0  0  0  0
    5.0174    0.2464    0.8298 O   0  5  0  0  0  0  0  0  0  0  0  0
    4.5942   -1.5970   -0.2931 O   0  0  0  0  0  0  0  0  0  0  0  0
   -3.5581    0.4365    0.1224 N   0  0  0  0  0  0  0  0  0  0  0  0
    4.2291   -0.5080    0.2112 N   0  3  0  0  0  0  0  0  0  0  0  0
   -1.2227    1.0700   -0.3245 C   0  0  1  0  0  0  0  0  0  0  0  0
   -2.1717    0.0200    0.2661 C   0  0  0  0  0  0  0  0  0  0  0  0
   -4.4611   -0.5670    0.6839 C   0  0  0  0  0  0  0  0  0  0  0  0
    0.2242    0.6513   -0.1825 C   0  0  0  0  0  0  0  0  0  0  0  0
   -4.2744   -1.9041   -0.0275 C   0  0  0  0  0  0  0  0  0  0  0  0
   -5.9012   -0.0786    0.5631 C   0  0  0  0  0  0  0  0  0  0  0  0
    1.1031    1.4765    0.4977 C   0  0  0  0  0  0  0  0  0  0  0  0
    0.6382   -0.5481   -0.7358 C   0  0  0  0  0  0  0  0  0  0  0  0
    2.4371    1.0904    0.6286 C   0  0  0  0  0  0  0  0  0  0  0  0
    1.9720   -0.9342   -0.6049 C   0  0  0  0  0  0  0  0  0  0  0  0
    2.8715   -0.1149    0.0772 C   0  0  0  0  0  0  0  0  0  0  0  0
   -1.3846    2.0348    0.1724 H   0  0  0  0  0  0  0  0  0  0  0  0
   -1.9245   -0.1500    1.3215 H   0  0  0  0  0  0  0  0  0  0  0  0
   -2.0113   -0.9134   -0.2788 H   0  0  0  0  0  0  0  0  0  0  0  0
   -4.2487   -0.7013    1.7524 H   0  0  0  0  0  0  0  0  0  0  0  0
   -3.7001    1.3299    0.5928 H   0  0  0  0  0  0  0  0  0  0  0  0
   -5.0923   -2.5878    0.2293 H   0  0  0  0  0  0  0  0  0  0  0  0
   -4.2790   -1.7911   -1.1177 H   0  0  0  0  0  0  0  0  0  0  0  0
   -3.3521   -2.4127    0.2709 H   0  0  0  0  0  0  0  0  0  0  0  0
   -6.0404    0.8727    1.0888 H   0  0  0  0  0  0  0  0  0  0  0  0
   -6.5950   -0.8031    1.0031 H   0  0  0  0  0  0  0  0  0  0  0  0
   -6.1885    0.0681   -0.4843 H   0  0  0  0  0  0  0  0  0  0  0  0
    0.7764    2.4171    0.9313 H   0  0  0  0  0  0  0  0  0  0  0  0
   -0.0409   -1.1922   -1.2860 H   0  0  0  0  0  0  0  0  0  0  0  0
   -2.4394    1.4898   -1.7919 H   0  0  0  0  0  0  0  0  0  0  0  0
    3.1090    1.7541    1.1668 H   0  0  0  0  0  0  0  0  0  0  0  0
    2.2755   -1.8781   -1.0506 H   0  0  0  0  0  0  0  0  0  0  0  0
  1  6  1  0  0  0  0
  1 30  1  0  0  0  0
  2  5  1  0  0  0  0
  3  5  2  0  0  0  0
  4  7  1  0  0  0  0
  4  8  1  0  0  0  0
  4 21  1  0  0  0  0
  5 16  1  0  0  0  0
  6  7  1  0  0  0  0
  6  9  1  0  0  0  0
  6 17  1  0  0  0  0
  7 18  1  0  0  0  0
  7 19  1  0  0  0  0
  8 10  1  0  0  0  0
  8 11  1  0  0  0  0
  8 20  1  0  0  0  0
  9 12  2  0  0  0  0
  9 13  1  0  0  0  0
 10 22  1  0  0  0  0
 10 23  1  0  0  0  0
 10 24  1  0  0  0  0
 11 25  1  0  0  0  0
 11 26  1  0  0  0  0
 11 27  1  0  0  0  0
 12 14  1  0  0  0  0
 12 28  1  0  0  0  0
 13 15  2  0  0  0  0
 13 29  1  0  0  0  0
 14 16  2  0  0  0  0
 14 31  1  0  0  0  0
 15 16  1  0  0  0  0
 15 32  1  0  0  0  0
M  CHG  2   2  -1   5   1
M  END
> <PUBCHEM_COMPOUND_CID>
6317

> <PUBCHEM_CONFORMER_RMSD>
0.6

> <PUBCHEM_CONFORMER_DIVERSEORDER>
1
7
11
9
19
18
14
20
8
16
4
13
3
17
2
5
6
15
12
10

> <PUBCHEM_MMFF94_PARTIAL_CHARGES>
20
1 -0.68
12 -0.15
13 -0.15
14 -0.15
15 -0.15
16 0.13
2 -0.52
21 0.36
28 0.15
29 0.15
3 -0.52
30 0.4
31 0.15
32 0.15
4 -0.9
5 0.91
6 0.42
7 0.27
8 0.27
9 -0.14

> <PUBCHEM_EFFECTIVE_ROTOR_COUNT>
5

> <PUBCHEM_PHARMACOPHORE_FEATURES>
9
1 1 acceptor
1 1 donor
1 2 acceptor
1 2 anion
1 3 acceptor
1 4 cation
1 4 donor
3 8 10 11 hydrophobe
6 9 12 13 14 15 16 rings

> <PUBCHEM_HEAVY_ATOM_COUNT>
16

> <PUBCHEM_ATOM_DEF_STEREO_COUNT>
0

> <PUBCHEM_ATOM_UDEF_STEREO_COUNT>
1

> <PUBCHEM_BOND_DEF_STEREO_COUNT>
0

> <PUBCHEM_BOND_UDEF_STEREO_COUNT>
0

> <PUBCHEM_ISOTOPIC_ATOM_COUNT>
0

> <PUBCHEM_COMPONENT_COUNT>
1

> <PUBCHEM_CACTVS_TAUTO_COUNT>
1

> <PUBCHEM_CONFORMER_ID>
000018AD00000001

> <PUBCHEM_MMFF94_ENERGY>
33.7128

> <PUBCHEM_FEATURE_SELFOVERLAP>
45.751

> <PUBCHEM_SHAPE_FINGERPRINT>
11046707 91 18130788953987224483
114248 4 11455890252527384705
12032990 46 18336264639103666980
12236239 1 16225769618623617853
12251169 10 17967813834259377157
12507560 40 16660913504331630393
12596602 18 16588025684341146859
12670543 26 10735888308931518160
12815109 37 18344145891106789331
12916748 109 7420951984771513455
13675066 3 17313387850454500008
14115302 16 16558457613441282291
14252887 29 17749100128044979526
14341114 176 18187076265395480121
14911166 2 11815893461858373064
14993402 34 14549016585146068160
15048467 5 4823207330223343442
15527383 91 18259984864348694649
17834072 8 17918000477886594845
18186145 218 14764345990692123869
187816 3 15482669078800936769
18785283 64 18193285091995166000
19050596 39 17967529039520866465
19141452 34 18410290286231325511
200 152 17894639149609100253
20281475 54 18341609257746803141
20374829 77 17988926661036725011
20645477 56 6627747799292466465
20724930 31 18413388739482673856
21119208 17 13686296863954488225
21637258 2 17203060659543762082
22485316 2 18342176678587158059
231179 274 7204776968710324242
23402539 116 16702025300597906477
23500284 214 6627754405015309069
23557571 272 17989209286806552757
23559900 14 18336551525771176713
26918003 58 18186800271240111819
276578 36 14201387300959256981
2916195 48 7637398510773428923
29717793 49 14979962501326243122
3286 77 18335700516181400097
351380 3 17561365071864817739
4028521 119 8718555986852392067
4047638 21 6988321633815082056
42 15 18334572434837034625
465052 167 18410004425270124862
5104073 3 18115595992751529448

> <PUBCHEM_SHAPE_MULTIPOLES>
301.7
11.26
1.5
0.94
5.83
0.27
-0.24
4.03
3.24
-0.09
-0.11
0.14
-0.2
0.56

> <PUBCHEM_SHAPE_SELFOVERLAP>
612.746

> <PUBCHEM_SHAPE_VOLUME>
177

> <PUBCHEM_COORDINATE_TYPE>
2
5
10

$$$$

