12660
  -OEChem-06261207133D

 10  9  0     0  0  0  0  0  0999 V2000
   -2.4751    0.2343   -0.0001 O   0  0  0  0  0  0  0  0  0  0  0  0
    2.1207    0.7539    0.0000 N   0  0  0  0  0  0  0  0  0  0  0  0
    1.1037   -1.2887   -0.0001 N   0  0  0  0  0  0  0  0  0  0  0  0
   -0.2804    0.5848   -0.0001 N   0  0  0  0  0  0  0  0  0  0  0  0
   -1.3913   -0.3586    0.0002 N   0  0  0  0  0  0  0  0  0  0  0  0
    0.9224    0.0743    0.0001 C   0  0  0  0  0  0  0  0  0  0  0  0
    2.1473    1.7678    0.0003 H   0  0  0  0  0  0  0  0  0  0  0  0
    3.0084    0.2635    0.0009 H   0  0  0  0  0  0  0  0  0  0  0  0
    0.3421   -1.9570    0.0000 H   0  0  0  0  0  0  0  0  0  0  0  0
    2.0390   -1.6824    0.0002 H   0  0  0  0  0  0  0  0  0  0  0  0
  1  5  2  0  0  0  0
  2  6  1  0  0  0  0
  2  7  1  0  0  0  0
  2  8  1  0  0  0  0
  3  6  1  0  0  0  0
  3  9  1  0  0  0  0
  3 10  1  0  0  0  0
  4  5  1  0  0  0  0
  4  6  2  0  0  0  0
M  END
> <PUBCHEM_COMPOUND_CID>
12660

> <PUBCHEM_CONFORMER_RMSD>
0.4

> <PUBCHEM_CONFORMER_DIVERSEORDER>
1
2

> <PUBCHEM_MMFF94_PARTIAL_CHARGES>
10
1 -0.16
10 0.4
2 -0.85
3 -0.85
4 -0.33
5 0.04
6 0.55
7 0.4
8 0.4
9 0.4

> <PUBCHEM_EFFECTIVE_ROTOR_COUNT>
1

> <PUBCHEM_PHARMACOPHORE_FEATURES>
3
1 2 donor
1 3 donor
4 2 3 4 6 cation

> <PUBCHEM_HEAVY_ATOM_COUNT>
6

> <PUBCHEM_ATOM_DEF_STEREO_COUNT>
0

> <PUBCHEM_ATOM_UDEF_STEREO_COUNT>
0

> <PUBCHEM_BOND_DEF_STEREO_COUNT>
0

> <PUBCHEM_BOND_UDEF_STEREO_COUNT>
0

> <PUBCHEM_ISOTOPIC_ATOM_COUNT>
0

> <PUBCHEM_COMPONENT_COUNT>
1

> <PUBCHEM_CACTVS_TAUTO_COUNT>
3

> <PUBCHEM_CONFORMER_ID>
0000317400000001

> <PUBCHEM_MMFF94_ENERGY>
16.3034

> <PUBCHEM_FEATURE_SELFOVERLAP>
15.278

> <PUBCHEM_SHAPE_FINGERPRINT>
139733 1 9222930582978506211
14390081 3 18187367601527814761
20096714 4 18335702685176573800
21040471 1 18338516314067894950
29004967 10 18201712955467983401
5460574 1 9295294941008516481

> <PUBCHEM_SHAPE_MULTIPOLES>
97.68
2.86
0.97
0.53
1.22
0.25
0
-0.42
0
-0.41
0
-0.03
0
0

> <PUBCHEM_SHAPE_SELFOVERLAP>
175.466

> <PUBCHEM_SHAPE_VOLUME>
61.7

> <PUBCHEM_COORDINATE_TYPE>
2
5
10

$$$$

