361512
  -OEChem-07051213113D

 31 33  0     0  0  0  0  0  0999 V2000
   -2.0710   -2.8868    0.0453 O   0  0  0  0  0  0  0  0  0  0  0  0
    0.4719   -2.5940   -0.0476 O   0  0  0  0  0  0  0  0  0  0  0  0
    0.0475    2.7293    0.1567 O   0  0  0  0  0  0  0  0  0  0  0  0
    3.0287   -2.4730   -0.1444 O   0  0  0  0  0  0  0  0  0  0  0  0
    5.0045    1.8321   -0.0734 O   0  0  0  0  0  0  0  0  0  0  0  0
   -5.3008    1.3489   -1.0174 O   0  0  0  0  0  0  0  0  0  0  0  0
   -1.0634    0.6599    0.1300 C   0  0  0  0  0  0  0  0  0  0  0  0
   -0.9526   -0.7310    0.0764 C   0  0  0  0  0  0  0  0  0  0  0  0
    1.5833   -0.5253   -0.0189 C   0  0  0  0  0  0  0  0  0  0  0  0
    1.4725    0.8657    0.0348 C   0  0  0  0  0  0  0  0  0  0  0  0
    0.3749   -1.3745   -0.0004 C   0  0  0  0  0  0  0  0  0  0  0  0
    0.1450    1.5092    0.1108 C   0  0  0  0  0  0  0  0  0  0  0  0
   -2.3275    1.2574    0.2026 C   0  0  0  0  0  0  0  0  0  0  0  0
   -2.1059   -1.5246    0.0956 C   0  0  0  0  0  0  0  0  0  0  0  0
   -3.4741    0.4630    0.2214 C   0  0  0  0  0  0  0  0  0  0  0  0
    2.8473   -1.1227   -0.0910 C   0  0  0  0  0  0  0  0  0  0  0  0
   -3.3635   -0.9250    0.1679 C   0  0  0  0  0  0  0  0  0  0  0  0
    2.6258    1.6593    0.0169 C   0  0  0  0  0  0  0  0  0  0  0  0
    3.8835    1.0597   -0.0549 C   0  0  0  0  0  0  0  0  0  0  0  0
    3.9941   -0.3283   -0.1087 C   0  0  0  0  0  0  0  0  0  0  0  0
   -4.8204    1.1006    0.2981 C   0  0  0  0  0  0  0  0  0  0  0  0
   -2.4275    2.3395    0.2428 H   0  0  0  0  0  0  0  0  0  0  0  0
   -4.2567   -1.5456    0.1803 H   0  0  0  0  0  0  0  0  0  0  0  0
    2.5524    2.7432    0.0582 H   0  0  0  0  0  0  0  0  0  0  0  0
    4.9812   -0.7814   -0.1643 H   0  0  0  0  0  0  0  0  0  0  0  0
   -5.5392    0.4566    0.8155 H   0  0  0  0  0  0  0  0  0  0  0  0
   -4.7849    2.0492    0.8448 H   0  0  0  0  0  0  0  0  0  0  0  0
   -1.1580   -3.2065   -0.0035 H   0  0  0  0  0  0  0  0  0  0  0  0
    3.9789   -2.6741   -0.1897 H   0  0  0  0  0  0  0  0  0  0  0  0
    4.7442    2.7682   -0.0299 H   0  0  0  0  0  0  0  0  0  0  0  0
   -4.6010    1.8029   -1.5171 H   0  0  0  0  0  0  0  0  0  0  0  0
  1 14  1  0  0  0  0
  1 28  1  0  0  0  0
  2 11  2  0  0  0  0
  3 12  2  0  0  0  0
  4 16  1  0  0  0  0
  4 29  1  0  0  0  0
  5 19  1  0  0  0  0
  5 30  1  0  0  0  0
  6 21  1  0  0  0  0
  6 31  1  0  0  0  0
  7  8  2  0  0  0  0
  7 12  1  0  0  0  0
  7 13  1  0  0  0  0
  8 11  1  0  0  0  0
  8 14  1  0  0  0  0
  9 10  2  0  0  0  0
  9 11  1  0  0  0  0
  9 16  1  0  0  0  0
 10 12  1  0  0  0  0
 10 18  1  0  0  0  0
 13 15  2  0  0  0  0
 13 22  1  0  0  0  0
 14 17  2  0  0  0  0
 15 17  1  0  0  0  0
 15 21  1  0  0  0  0
 16 20  2  0  0  0  0
 17 23  1  0  0  0  0
 18 19  2  0  0  0  0
 18 24  1  0  0  0  0
 19 20  1  0  0  0  0
 20 25  1  0  0  0  0
 21 26  1  0  0  0  0
 21 27  1  0  0  0  0
M  END
> <PUBCHEM_COMPOUND_CID>
361512

> <PUBCHEM_CONFORMER_RMSD>
0.6

> <PUBCHEM_CONFORMER_DIVERSEORDER>
1

> <PUBCHEM_MMFF94_PARTIAL_CHARGES>
29
1 -0.53
10 0.09
11 0.4
12 0.4
13 -0.15
14 0.08
15 -0.14
16 0.08
17 -0.15
18 -0.15
19 0.08
2 -0.57
20 -0.15
21 0.42
22 0.15
23 0.15
24 0.15
25 0.15
28 0.45
29 0.45
3 -0.57
30 0.45
31 0.4
4 -0.53
5 -0.53
6 -0.68
7 0.09
8 0.09
9 0.09

> <PUBCHEM_EFFECTIVE_ROTOR_COUNT>
1

> <PUBCHEM_PHARMACOPHORE_FEATURES>
10
1 1 donor
1 2 acceptor
1 3 acceptor
1 4 donor
1 5 donor
1 6 acceptor
1 6 donor
6 7 8 13 14 15 17 rings
6 7 8 9 10 11 12 rings
6 9 10 16 18 19 20 rings

> <PUBCHEM_HEAVY_ATOM_COUNT>
21

> <PUBCHEM_ATOM_DEF_STEREO_COUNT>
0

> <PUBCHEM_ATOM_UDEF_STEREO_COUNT>
0

> <PUBCHEM_BOND_DEF_STEREO_COUNT>
0

> <PUBCHEM_BOND_UDEF_STEREO_COUNT>
0

> <PUBCHEM_ISOTOPIC_ATOM_COUNT>
0

> <PUBCHEM_COMPONENT_COUNT>
1

> <PUBCHEM_CACTVS_TAUTO_COUNT>
57

> <PUBCHEM_CONFORMER_ID>
0005842800000001

> <PUBCHEM_MMFF94_ENERGY>
65.0166

> <PUBCHEM_FEATURE_SELFOVERLAP>
50.785

> <PUBCHEM_SHAPE_FINGERPRINT>
10411042 1 17401766822966616235
10498660 4 18410004417086190356
10616163 171 18337386016019927054
10863032 1 18408038494226586834
10967382 1 18410290345701231354
11132069 177 18411139117038072712
11471102 20 18410294752248025773
11578080 2 17201934832588034254
12011746 2 18337105769255852004
12236239 1 17749672999984959569
12403814 3 17775571922766589581
12500047 106 18337957796552410665
12788726 201 17531516698072073673
13132413 78 18336542711970608532
13140716 1 18411702097235931682
13675066 3 18060410322721018201
138480 1 17618221049802149787
14790565 3 18192704773193966953
15196674 1 18410572872755090419
15375358 24 18408040710403272749
15442244 35 18265612272365612498
15536298 74 18334290981266595062
1601671 61 18412825763744040260
16945 1 18193835070777392730
19591789 44 18194680590839808641
200 152 17895198805317480117
20645477 70 18335420218110001271
20739085 24 18051945277230873145
21029758 11 18261115188177620129
21267235 1 18337661014080440794
21421861 104 17987809634590410314
22182313 1 18191001483041431815
23227448 37 18410856529981278767
2334 1 18337951190792651522
23402539 116 18334019354623559588
23402655 69 18333732416026546124
23463225 33 18411697694867624426
23559900 14 18334856113427445076
2748010 2 18409442557790737526
296302 2 18410291406616156237
335352 9 18410572924906634542
34934 24 18410578370503003450
350125 39 18339922731711928356
3545911 37 18410570669463260809
495365 180 17458922465187016144
5104073 3 18411697681814139299
69090 78 18409450306164732687
7364860 26 18335699498748884998
7832392 63 18409168774984370438
9709674 26 18408878512636791902

> <PUBCHEM_SHAPE_MULTIPOLES>
396.95
8.74
2.75
0.64
2.08
0.95
-0.03
-3.32
-0.8
-0.42
-0.02
0.26
-0.07
0.25

> <PUBCHEM_SHAPE_SELFOVERLAP>
897.44

> <PUBCHEM_SHAPE_VOLUME>
206.4

> <PUBCHEM_COORDINATE_TYPE>
2
5
10

$$$$

