5282339
  -OEChem-07051213042D

 29 31  0     0  0  0  0  0  0999 V2000
    2.0000   -2.4571    0.0000 Cl  0  0  0  0  0  0  0  0  0  0  0  0
    3.7320   -3.4571    0.0000 Cl  0  0  0  0  0  0  0  0  0  0  0  0
    4.2320    2.0817    0.0000 S   0  0  0  0  0  0  0  0  0  0  0  0
    2.9230    1.1307    0.0000 N   0  0  0  0  0  0  0  0  0  0  0  0
    2.6443    2.8907    0.0000 N   0  0  0  0  0  0  0  0  0  0  0  0
    7.3942    0.2036    0.0000 N   0  0  0  0  0  0  0  0  0  0  0  0
    3.7320    0.5429    0.0000 C   0  0  0  0  0  0  0  0  0  0  0  0
    4.5411    1.1307    0.0000 C   0  0  0  0  0  0  0  0  0  0  0  0
    3.7320   -0.4571    0.0000 C   0  0  0  0  0  0  0  0  0  0  0  0
    5.4921    0.8216    0.0000 C   0  0  0  0  0  0  0  0  0  0  0  0
    2.8660   -0.9571    0.0000 C   0  0  0  0  0  0  0  0  0  0  0  0
    4.5981   -0.9571    0.0000 C   0  0  0  0  0  0  0  0  0  0  0  0
    3.2320    2.0817    0.0000 C   0  0  0  0  0  0  0  0  0  0  0  0
    6.2353    1.4908    0.0000 C   0  0  0  0  0  0  0  0  0  0  0  0
    5.7000   -0.1565    0.0000 C   0  0  0  0  0  0  0  0  0  0  0  0
    2.8660   -1.9571    0.0000 C   0  0  0  0  0  0  0  0  0  0  0  0
    4.5981   -1.9571    0.0000 C   0  0  0  0  0  0  0  0  0  0  0  0
    3.7320   -2.4571    0.0000 C   0  0  0  0  0  0  0  0  0  0  0  0
    7.1863    1.1818    0.0000 C   0  0  0  0  0  0  0  0  0  0  0  0
    6.6511   -0.4655    0.0000 C   0  0  0  0  0  0  0  0  0  0  0  0
    2.3291   -0.6471    0.0000 H   0  0  0  0  0  0  0  0  0  0  0  0
    5.1350   -0.6471    0.0000 H   0  0  0  0  0  0  0  0  0  0  0  0
    6.1064    2.0972    0.0000 H   0  0  0  0  0  0  0  0  0  0  0  0
    5.2393   -0.5714    0.0000 H   0  0  0  0  0  0  0  0  0  0  0  0
    5.1350   -2.2671    0.0000 H   0  0  0  0  0  0  0  0  0  0  0  0
    7.6471    1.5966    0.0000 H   0  0  0  0  0  0  0  0  0  0  0  0
    6.7800   -1.0720    0.0000 H   0  0  0  0  0  0  0  0  0  0  0  0
    2.8964    3.4571    0.0000 H   0  0  0  0  0  0  0  0  0  0  0  0
    2.0277    2.8259    0.0000 H   0  0  0  0  0  0  0  0  0  0  0  0
  1 16  1  0  0  0  0
  2 18  1  0  0  0  0
  3  8  1  0  0  0  0
  3 13  1  0  0  0  0
  4  7  1  0  0  0  0
  4 13  2  0  0  0  0
  5 13  1  0  0  0  0
  5 28  1  0  0  0  0
  5 29  1  0  0  0  0
  6 19  2  0  0  0  0
  6 20  1  0  0  0  0
  7  8  2  0  0  0  0
  7  9  1  0  0  0  0
  8 10  1  0  0  0  0
  9 11  2  0  0  0  0
  9 12  1  0  0  0  0
 10 14  2  0  0  0  0
 10 15  1  0  0  0  0
 11 16  1  0  0  0  0
 11 21  1  0  0  0  0
 12 17  2  0  0  0  0
 12 22  1  0  0  0  0
 14 19  1  0  0  0  0
 14 23  1  0  0  0  0
 15 20  2  0  0  0  0
 15 24  1  0  0  0  0
 16 18  2  0  0  0  0
 17 18  1  0  0  0  0
 17 25  1  0  0  0  0
 19 26  1  0  0  0  0
 20 27  1  0  0  0  0
M  END
> <PUBCHEM_COMPOUND_CID>
5282339

> <PUBCHEM_COMPOUND_CANONICALIZED>
1

> <PUBCHEM_CACTVS_COMPLEXITY>
328

> <PUBCHEM_CACTVS_HBOND_ACCEPTOR>
4

> <PUBCHEM_CACTVS_HBOND_DONOR>
1

> <PUBCHEM_CACTVS_ROTATABLE_BOND>
2

> <PUBCHEM_CACTVS_SUBSKEYS>
AAADccBzAABGAAAAAAAAAAAAAAAAAWAAAAA8QAAAAAAAAAAB8AAAHAYQAAAADArBXiQ9kZJIEAikAzRnZACC8KlxDzkI2nQ4ZpiIIOLhk5GEIAhggALIyCcQgMAOBAAAIAAAAAQIAABAAAAACAAAAAAAAA==

> <PUBCHEM_IUPAC_OPENEYE_NAME>
4-(3,4-dichlorophenyl)-5-(4-pyridyl)thiazol-2-amine

> <PUBCHEM_IUPAC_CAS_NAME>
4-(3,4-dichlorophenyl)-5-pyridin-4-yl-2-thiazolamine

> <PUBCHEM_IUPAC_NAME>
4-(3,4-dichlorophenyl)-5-pyridin-4-yl-1,3-thiazol-2-amine

> <PUBCHEM_IUPAC_SYSTEMATIC_NAME>
4-(3,4-dichlorophenyl)-5-pyridin-4-yl-1,3-thiazol-2-amine

> <PUBCHEM_IUPAC_TRADITIONAL_NAME>
[4-(3,4-dichlorophenyl)-5-(4-pyridyl)thiazol-2-yl]amine

> <PUBCHEM_IUPAC_INCHI>
InChI=1S/C14H9Cl2N3S/c15-10-2-1-9(7-11(10)16)12-13(20-14(17)19-12)8-3-5-18-6-4-8/h1-7H,(H2,17,19)

> <PUBCHEM_IUPAC_INCHIKEY>
BEPGKLOHQTXUHX-UHFFFAOYSA-N

> <PUBCHEM_XLOGP3_AA>
4.1

> <PUBCHEM_EXACT_MASS>
320.989424

> <PUBCHEM_MOLECULAR_FORMULA>
C14H9Cl2N3S

> <PUBCHEM_MOLECULAR_WEIGHT>
322.21236

> <PUBCHEM_OPENEYE_CAN_SMILES>
C1=CC(=C(C=C1C2=C(SC(=N2)N)C3=CC=NC=C3)Cl)Cl

> <PUBCHEM_OPENEYE_ISO_SMILES>
C1=CC(=C(C=C1C2=C(SC(=N2)N)C3=CC=NC=C3)Cl)Cl

> <PUBCHEM_CACTVS_TPSA>
80

> <PUBCHEM_MONOISOTOPIC_WEIGHT>
320.989424

> <PUBCHEM_TOTAL_CHARGE>
0

> <PUBCHEM_HEAVY_ATOM_COUNT>
20

> <PUBCHEM_ATOM_DEF_STEREO_COUNT>
0

> <PUBCHEM_ATOM_UDEF_STEREO_COUNT>
0

> <PUBCHEM_BOND_DEF_STEREO_COUNT>
0

> <PUBCHEM_BOND_UDEF_STEREO_COUNT>
0

> <PUBCHEM_ISOTOPIC_ATOM_COUNT>
0

> <PUBCHEM_COMPONENT_COUNT>
1

> <PUBCHEM_CACTVS_TAUTO_COUNT>
3

> <PUBCHEM_COORDINATE_TYPE>
1
5
255

> <PUBCHEM_BONDANNOTATIONS>
10  14  8
10  15  8
11  16  8
12  17  8
14  19  8
15  20  8
16  18  8
17  18  8
3  13  8
3  8  8
4  13  8
4  7  8
6  19  8
6  20  8
7  8  8
9  11  8
9  12  8

$$$$

