17396633
  -OEChem-06241222573D

 36 37  0     0  0  0  0  0  0999 V2000
   -7.3166    0.9205    0.1608 Br  0  0  0  0  0  0  0  0  0  0  0  0
   -0.4224    1.7106   -0.5725 O   0  0  0  0  0  0  0  0  0  0  0  0
    6.2908   -0.6374    0.1234 O   0  0  0  0  0  0  0  0  0  0  0  0
   -1.3603   -0.3655   -0.0107 N   0  0  0  0  0  0  0  0  0  0  0  0
    4.5312    0.9192    0.2866 N   0  0  0  0  0  0  0  0  0  0  0  0
   -2.7476   -0.0824    0.0328 C   0  0  0  0  0  0  0  0  0  0  0  0
   -3.6722   -1.0804    0.3409 C   0  0  0  0  0  0  0  0  0  0  0  0
    1.0276   -0.0868   -0.2939 C   0  0  0  0  0  0  0  0  0  0  0  0
   -0.3003    0.5056   -0.2993 C   0  0  0  0  0  0  0  0  0  0  0  0
    3.4158    0.1320   -0.0018 C   0  0  0  0  0  0  0  0  0  0  0  0
    2.1423    0.7008   -0.0061 C   0  0  0  0  0  0  0  0  0  0  0  0
   -3.1847    1.2143   -0.2371 C   0  0  0  0  0  0  0  0  0  0  0  0
   -5.0341   -0.7815    0.3791 C   0  0  0  0  0  0  0  0  0  0  0  0
    1.1867   -1.4432   -0.5779 C   0  0  0  0  0  0  0  0  0  0  0  0
   -3.2318   -2.4777    0.6345 C   0  0  0  0  0  0  0  0  0  0  0  0
    3.5749   -1.2244   -0.2858 C   0  0  0  0  0  0  0  0  0  0  0  0
    2.4603   -2.0120   -0.5739 C   0  0  0  0  0  0  0  0  0  0  0  0
   -4.5467    1.5131   -0.1988 C   0  0  0  0  0  0  0  0  0  0  0  0
   -5.4714    0.5154    0.1092 C   0  0  0  0  0  0  0  0  0  0  0  0
    5.8459    0.4839    0.3250 C   0  0  0  0  0  0  0  0  0  0  0  0
    6.8128    1.5759    0.6656 C   0  0  0  0  0  0  0  0  0  0  0  0
   -1.1240   -1.3190    0.2425 H   0  0  0  0  0  0  0  0  0  0  0  0
    2.0253    1.7582    0.2213 H   0  0  0  0  0  0  0  0  0  0  0  0
   -2.5378    2.0433   -0.4834 H   0  0  0  0  0  0  0  0  0  0  0  0
   -5.7560   -1.5587    0.6194 H   0  0  0  0  0  0  0  0  0  0  0  0
    0.3553   -2.0881   -0.8466 H   0  0  0  0  0  0  0  0  0  0  0  0
   -2.6965   -2.9016   -0.2218 H   0  0  0  0  0  0  0  0  0  0  0  0
   -2.5861   -2.5001    1.5187 H   0  0  0  0  0  0  0  0  0  0  0  0
   -4.0823   -3.1372    0.8396 H   0  0  0  0  0  0  0  0  0  0  0  0
    4.5196   -1.7470   -0.3076 H   0  0  0  0  0  0  0  0  0  0  0  0
    2.5840   -3.0665   -0.8041 H   0  0  0  0  0  0  0  0  0  0  0  0
   -4.8724    2.5283   -0.4114 H   0  0  0  0  0  0  0  0  0  0  0  0
    4.3489    1.8997    0.4876 H   0  0  0  0  0  0  0  0  0  0  0  0
    6.7533    1.7927    1.7358 H   0  0  0  0  0  0  0  0  0  0  0  0
    6.5808    2.4829    0.0995 H   0  0  0  0  0  0  0  0  0  0  0  0
    7.8323    1.2662    0.4184 H   0  0  0  0  0  0  0  0  0  0  0  0
  1 19  1  0  0  0  0
  2  9  2  0  0  0  0
  3 20  2  0  0  0  0
  4  6  1  0  0  0  0
  4  9  1  0  0  0  0
  4 22  1  0  0  0  0
  5 10  1  0  0  0  0
  5 20  1  0  0  0  0
  5 33  1  0  0  0  0
  6  7  2  0  0  0  0
  6 12  1  0  0  0  0
  7 13  1  0  0  0  0
  7 15  1  0  0  0  0
  8  9  1  0  0  0  0
  8 11  2  0  0  0  0
  8 14  1  0  0  0  0
 10 11  1  0  0  0  0
 10 16  2  0  0  0  0
 11 23  1  0  0  0  0
 12 18  2  0  0  0  0
 12 24  1  0  0  0  0
 13 19  2  0  0  0  0
 13 25  1  0  0  0  0
 14 17  2  0  0  0  0
 14 26  1  0  0  0  0
 15 27  1  0  0  0  0
 15 28  1  0  0  0  0
 15 29  1  0  0  0  0
 16 17  1  0  0  0  0
 16 30  1  0  0  0  0
 17 31  1  0  0  0  0
 18 19  1  0  0  0  0
 18 32  1  0  0  0  0
 20 21  1  0  0  0  0
 21 34  1  0  0  0  0
 21 35  1  0  0  0  0
 21 36  1  0  0  0  0
M  END
> <PUBCHEM_COMPOUND_CID>
17396633

> <PUBCHEM_CONFORMER_RMSD>
0.8

> <PUBCHEM_CONFORMER_DIVERSEORDER>
2
14
24
9
18
8
26
17
25
16
10
23
4
7
21
6
20
1
19
13
11
5
12
22
15
3

> <PUBCHEM_MMFF94_PARTIAL_CHARGES>
30
1 -0.11
10 0.12
11 -0.15
12 -0.15
13 -0.15
14 -0.15
15 0.14
16 -0.15
17 -0.15
18 -0.15
19 0.11
2 -0.57
20 0.57
21 0.06
22 0.37
23 0.15
24 0.15
25 0.15
26 0.15
3 -0.57
30 0.15
31 0.15
32 0.15
33 0.37
4 -0.55
5 -0.55
6 0.12
7 -0.14
8 0.09
9 0.54

> <PUBCHEM_EFFECTIVE_ROTOR_COUNT>
5

> <PUBCHEM_PHARMACOPHORE_FEATURES>
7
1 1 hydrophobe
1 2 acceptor
1 3 acceptor
1 4 donor
1 5 donor
6 6 7 12 13 18 19 rings
6 8 10 11 14 16 17 rings

> <PUBCHEM_HEAVY_ATOM_COUNT>
21

> <PUBCHEM_ATOM_DEF_STEREO_COUNT>
0

> <PUBCHEM_ATOM_UDEF_STEREO_COUNT>
0

> <PUBCHEM_BOND_DEF_STEREO_COUNT>
0

> <PUBCHEM_BOND_UDEF_STEREO_COUNT>
0

> <PUBCHEM_ISOTOPIC_ATOM_COUNT>
0

> <PUBCHEM_COMPONENT_COUNT>
1

> <PUBCHEM_CACTVS_TAUTO_COUNT>
4

> <PUBCHEM_CONFORMER_ID>
0109739900000002

> <PUBCHEM_MMFF94_ENERGY>
69.0656

> <PUBCHEM_FEATURE_SELFOVERLAP>
35.52

> <PUBCHEM_SHAPE_FINGERPRINT>
10 15 18272931609206980824
10366900 7 15719393945146401227
10835480 77 18337960085934140005
11045977 3 18334859381354193256
11089746 13 17240486896706914329
11315181 36 17967530152017837593
11719270 70 18260833730576100302
12107183 9 17541934738253646243
12236239 1 17095243626727686244
12516196 113 18187364333194793961
12616971 3 16702015348905695086
12838862 33 18272386273710908341
13073987 5 18200029681018621137
13533116 47 17677332848037370463
13668630 136 13398630567085040976
14251764 18 18410292510849934729
14341114 176 18410568509147335008
15048467 5 18113618984249388641
15196674 1 18410572911494484487
15375358 24 18409444808665012479
15788980 27 14764630797967428630
17980427 23 17916863517505548886
1813 80 16917061187683334599
19141452 34 18412541003744835895
19784866 170 18410013238795957614
200 152 17821450175496991543
20281389 69 18342460360966503944
20645477 56 18342176674709000033
20645477 70 17895471552330140023
21033648 29 18042701528567905888
21150785 3 15791736295526226653
22224240 67 18408891715413323250
23402539 116 18130792234999490238
23559900 14 18336271150163792465
23622692 118 18117846491285686295
26918003 58 18408884031674548347
300161 21 18411139147377169719
335352 9 18342738508060615117
34797466 226 17603580846108379212
34934 24 18410859871434582439
3545911 37 18409728478179814877
4073 2 18201152174763599994
4214541 1 18413106165252739749
42630746 31 18113334241636113222
4325135 7 17917706903491353796
4340502 62 17632580457370988746
5104073 3 18340481287249174867
9709674 26 18410284818521959391

> <PUBCHEM_SHAPE_MULTIPOLES>
416.41
17.86
1.96
0.73
3.79
0.72
-0.01
-6.2
-3.3
-0.23
-0.05
0.04
0.05
1.16

> <PUBCHEM_SHAPE_SELFOVERLAP>
874.21

> <PUBCHEM_SHAPE_VOLUME>
240.5

> <PUBCHEM_COORDINATE_TYPE>
2
5
10

$$$$

