242344
  -OEChem-07051213073D

 54 57  0     1  0  0  0  0  0999 V2000
   -3.7889   -0.5951    0.1487 O   0  0  0  0  0  0  0  0  0  0  0  0
    6.0442   -1.3659   -1.3749 O   0  0  0  0  0  0  0  0  0  0  0  0
   -5.1898    0.5360   -1.2942 O   0  0  0  0  0  0  0  0  0  0  0  0
   -0.4855    0.9398   -0.1875 C   0  0  2  0  0  0  0  0  0  0  0  0
   -1.3375   -0.2416    0.3188 C   0  0  2  0  0  0  0  0  0  0  0  0
    0.9372    0.9288    0.3799 C   0  0  1  0  0  0  0  0  0  0  0  0
    1.6253   -0.4098   -0.0507 C   0  0  1  0  0  0  0  0  0  0  0  0
    3.0975   -0.4909    0.4531 C   0  0  2  0  0  0  0  0  0  0  0  0
   -0.6844   -1.5468   -0.1596 C   0  0  0  0  0  0  0  0  0  0  0  0
    0.7761   -1.6529    0.3159 C   0  0  0  0  0  0  0  0  0  0  0  0
   -2.6724    0.1015   -0.3701 C   0  0  2  0  0  0  0  0  0  0  0  0
   -1.3765    2.1540    0.0589 C   0  0  0  0  0  0  0  0  0  0  0  0
    1.7532    2.1435   -0.1049 C   0  0  0  0  0  0  0  0  0  0  0  0
   -2.8008    1.6280   -0.1974 C   0  0  0  0  0  0  0  0  0  0  0  0
    3.8199    0.7777    0.0408 C   0  0  0  0  0  0  0  0  0  0  0  0
    3.2031    2.0964    0.3803 C   0  0  0  0  0  0  0  0  0  0  0  0
   -1.5152   -0.2910    1.8581 C   0  0  0  0  0  0  0  0  0  0  0  0
    3.9040   -1.5933   -0.2697 C   0  0  0  0  0  0  0  0  0  0  0  0
    3.2137   -0.6845    1.9770 C   0  0  0  0  0  0  0  0  0  0  0  0
    4.9479    0.6026   -0.6519 C   0  0  0  0  0  0  0  0  0  0  0  0
    5.0870   -0.8473   -0.8200 C   0  0  0  0  0  0  0  0  0  0  0  0
   -5.0068   -0.2833   -0.4044 C   0  0  0  0  0  0  0  0  0  0  0  0
   -6.0865   -1.1090    0.2549 C   0  0  0  0  0  0  0  0  0  0  0  0
   -7.4648   -0.7967   -0.3011 C   0  0  0  0  0  0  0  0  0  0  0  0
   -0.3884    0.8535   -1.2830 H   0  0  0  0  0  0  0  0  0  0  0  0
    0.8906    0.9838    1.4731 H   0  0  0  0  0  0  0  0  0  0  0  0
    1.6645   -0.3910   -1.1524 H   0  0  0  0  0  0  0  0  0  0  0  0
   -0.6979   -1.5949   -1.2562 H   0  0  0  0  0  0  0  0  0  0  0  0
   -1.2521   -2.4157    0.1944 H   0  0  0  0  0  0  0  0  0  0  0  0
    0.7858   -1.8168    1.3978 H   0  0  0  0  0  0  0  0  0  0  0  0
    1.2200   -2.5500   -0.1312 H   0  0  0  0  0  0  0  0  0  0  0  0
   -2.5926   -0.1321   -1.4417 H   0  0  0  0  0  0  0  0  0  0  0  0
   -1.1319    2.9849   -0.6107 H   0  0  0  0  0  0  0  0  0  0  0  0
   -1.2830    2.5187    1.0878 H   0  0  0  0  0  0  0  0  0  0  0  0
    1.2924    3.0724    0.2511 H   0  0  0  0  0  0  0  0  0  0  0  0
    1.7388    2.1841   -1.2022 H   0  0  0  0  0  0  0  0  0  0  0  0
   -3.4650    1.9020    0.6301 H   0  0  0  0  0  0  0  0  0  0  0  0
   -3.2066    2.0880   -1.1053 H   0  0  0  0  0  0  0  0  0  0  0  0
    3.2361    2.2463    1.4658 H   0  0  0  0  0  0  0  0  0  0  0  0
    3.7643    2.9229   -0.0712 H   0  0  0  0  0  0  0  0  0  0  0  0
   -0.5665   -0.3730    2.3944 H   0  0  0  0  0  0  0  0  0  0  0  0
   -2.0240    0.5964    2.2476 H   0  0  0  0  0  0  0  0  0  0  0  0
   -2.1211   -1.1582    2.1459 H   0  0  0  0  0  0  0  0  0  0  0  0
    3.3597   -2.0386   -1.1085 H   0  0  0  0  0  0  0  0  0  0  0  0
    4.2476   -2.3817    0.4068 H   0  0  0  0  0  0  0  0  0  0  0  0
    4.2581   -0.6200    2.3065 H   0  0  0  0  0  0  0  0  0  0  0  0
    2.6541    0.0713    2.5365 H   0  0  0  0  0  0  0  0  0  0  0  0
    2.8441   -1.6683    2.2847 H   0  0  0  0  0  0  0  0  0  0  0  0
    5.6136    1.3463   -1.0534 H   0  0  0  0  0  0  0  0  0  0  0  0
   -5.8598   -2.1678    0.0920 H   0  0  0  0  0  0  0  0  0  0  0  0
   -6.0733   -0.9002    1.3298 H   0  0  0  0  0  0  0  0  0  0  0  0
   -7.5107   -1.0010   -1.3760 H   0  0  0  0  0  0  0  0  0  0  0  0
   -8.2241   -1.4078    0.1963 H   0  0  0  0  0  0  0  0  0  0  0  0
   -7.7202    0.2574   -0.1497 H   0  0  0  0  0  0  0  0  0  0  0  0
  1 11  1  0  0  0  0
  1 22  1  0  0  0  0
  2 21  2  0  0  0  0
  3 22  2  0  0  0  0
  4  5  1  0  0  0  0
  4  6  1  0  0  0  0
  4 12  1  0  0  0  0
  4 25  1  0  0  0  0
  5  9  1  0  0  0  0
  5 11  1  0  0  0  0
  5 17  1  0  0  0  0
  6  7  1  0  0  0  0
  6 13  1  0  0  0  0
  6 26  1  0  0  0  0
  7  8  1  0  0  0  0
  7 10  1  0  0  0  0
  7 27  1  0  0  0  0
  8 15  1  0  0  0  0
  8 18  1  0  0  0  0
  8 19  1  0  0  0  0
  9 10  1  0  0  0  0
  9 28  1  0  0  0  0
  9 29  1  0  0  0  0
 10 30  1  0  0  0  0
 10 31  1  0  0  0  0
 11 14  1  0  0  0  0
 11 32  1  0  0  0  0
 12 14  1  0  0  0  0
 12 33  1  0  0  0  0
 12 34  1  0  0  0  0
 13 16  1  0  0  0  0
 13 35  1  0  0  0  0
 13 36  1  0  0  0  0
 14 37  1  0  0  0  0
 14 38  1  0  0  0  0
 15 16  1  0  0  0  0
 15 20  2  0  0  0  0
 16 39  1  0  0  0  0
 16 40  1  0  0  0  0
 17 41  1  0  0  0  0
 17 42  1  0  0  0  0
 17 43  1  0  0  0  0
 18 21  1  0  0  0  0
 18 44  1  0  0  0  0
 18 45  1  0  0  0  0
 19 46  1  0  0  0  0
 19 47  1  0  0  0  0
 19 48  1  0  0  0  0
 20 21  1  0  0  0  0
 20 49  1  0  0  0  0
 22 23  1  0  0  0  0
 23 24  1  0  0  0  0
 23 50  1  0  0  0  0
 23 51  1  0  0  0  0
 24 52  1  0  0  0  0
 24 53  1  0  0  0  0
 24 54  1  0  0  0  0
M  END
> <PUBCHEM_COMPOUND_CID>
242344

> <PUBCHEM_CONFORMER_RMSD>
0.8

> <PUBCHEM_CONFORMER_DIVERSEORDER>
1
2

> <PUBCHEM_MMFF94_PARTIAL_CHARGES>
13
1 -0.43
11 0.28
15 -0.28
16 0.14
18 0.06
2 -0.57
20 -0.14
21 0.49
22 0.66
23 0.06
3 -0.57
49 0.15
8 0.14

> <PUBCHEM_EFFECTIVE_ROTOR_COUNT>
4.6

> <PUBCHEM_PHARMACOPHORE_FEATURES>
7
1 2 acceptor
1 24 hydrophobe
1 3 acceptor
5 4 5 11 12 14 rings
5 8 15 18 20 21 rings
6 4 5 6 7 9 10 rings
6 6 7 8 13 15 16 rings

> <PUBCHEM_HEAVY_ATOM_COUNT>
24

> <PUBCHEM_ATOM_DEF_STEREO_COUNT>
6

> <PUBCHEM_ATOM_UDEF_STEREO_COUNT>
0

> <PUBCHEM_BOND_DEF_STEREO_COUNT>
0

> <PUBCHEM_BOND_UDEF_STEREO_COUNT>
0

> <PUBCHEM_ISOTOPIC_ATOM_COUNT>
0

> <PUBCHEM_COMPONENT_COUNT>
1

> <PUBCHEM_CACTVS_TAUTO_COUNT>
5

> <PUBCHEM_CONFORMER_ID>
0003B2A800000001

> <PUBCHEM_MMFF94_ENERGY>
66.385

> <PUBCHEM_FEATURE_SELFOVERLAP>
35.696

> <PUBCHEM_SHAPE_FINGERPRINT>
10366900 7 17989200469132835232
11089746 13 12967127194494119519
11578080 2 13397762962358623125
11961588 58 17275094004101221876
11963148 33 18412270510726318163
12011746 2 18273210902440388838
12166972 35 17894909620204742577
12236239 1 17675919885669857961
12403259 415 18201728348973988653
12592029 89 18410860979314625027
12596602 18 12823293511713109045
12788726 201 18342180007144900849
13533116 47 17822009779096201376
13668630 136 18334855000846585167
13685833 64 18113615703485159710
13862211 1 18410857685032328794
15048467 5 12031786954949105903
15142383 8 4750880308106855219
15183329 4 18412268363626564309
15196674 1 18410856594073770732
16752209 62 18339081596383944952
17349148 13 17603580828944100085
1813 80 14273738434383938937
18222031 100 18335425668228093611
18681886 176 18410577279966620528
19784866 240 17967524688149341853
200 152 18113337513963245169
20028762 73 18186522102882700671
20645477 70 18411138013648384356
21150785 3 15123504784020420971
21267235 1 18408035221440401823
21279426 13 18411707616611947773
21637258 2 16298396764127381477
221357 26 18409446998892455684
22149856 69 18263068960811652867
22393880 68 18342463689423525988
23522609 53 18118932928389928473
23559900 14 18338238171980823696
23569914 152 17254579590970180151
239999 70 18412263913581282314
2871803 45 18343302574178038344
29717793 49 18040151824926280589
3004659 81 18343585135559948285
335352 9 18410291385041288254
3472631 163 13110952116053756858
350125 39 18410009961920962177
46194498 28 18333726927749373900
465052 167 18186515488500442374
484989 97 18200301118113955459
5104073 3 18335427910233113089
542803 24 15051735300367015637
9709674 26 18339359648239818680

> <PUBCHEM_SHAPE_MULTIPOLES>
476.3
14.12
1.99
1.14
15.55
0.72
-0.4
-4.9
4.26
-1.01
0.05
-0.62
-0.25
0.59

> <PUBCHEM_SHAPE_SELFOVERLAP>
1020.405

> <PUBCHEM_SHAPE_VOLUME>
264

> <PUBCHEM_COORDINATE_TYPE>
2
5
10

$$$$

