16667385
  -OEChem-07051213082D

 42 42  0     1  0  0  0  0  0999 V2000
    5.4641    2.3450    0.0000 O   0  0  0  0  0  0  0  0  0  0  0  0
    5.4641    0.3450    0.0000 C   0  0  2  0  0  0  0  0  0  0  0  0
    5.4641    1.3450    0.0000 C   0  0  0  0  0  0  0  0  0  0  0  0
    6.3301   -0.1550    0.0000 C   0  0  0  0  0  0  0  0  0  0  0  0
    6.3301   -1.1550    0.0000 C   0  0  0  0  0  0  0  0  0  0  0  0
    4.5981   -0.1550    0.0000 C   0  0  0  0  0  0  0  0  0  0  0  0
    2.8660   -0.1550    0.0000 C   0  0  1  0  0  0  0  0  0  0  0  0
    2.8660   -1.1550    0.0000 C   0  0  0  0  0  0  0  0  0  0  0  0
    6.4641    1.3450    0.0000 C   0  0  0  0  0  0  0  0  0  0  0  0
    4.4641    1.3450    0.0000 C   0  0  0  0  0  0  0  0  0  0  0  0
    3.7320    0.3450    0.0000 C   0  0  0  0  0  0  0  0  0  0  0  0
    5.4641   -1.6550    0.0000 C   0  0  0  0  0  0  0  0  0  0  0  0
    3.7320   -1.6550    0.0000 C   0  0  0  0  0  0  0  0  0  0  0  0
    4.5981   -1.1550    0.0000 C   0  0  0  0  0  0  0  0  0  0  0  0
    2.0000    0.3450    0.0000 C   0  0  0  0  0  0  0  0  0  0  0  0
    5.4641   -2.6550    0.0000 C   0  0  0  0  0  0  0  0  0  0  0  0
    6.2002    0.7700    0.0000 H   0  0  0  0  0  0  0  0  0  0  0  0
    6.9407   -0.2627    0.0000 H   0  0  0  0  0  0  0  0  0  0  0  0
    6.5422    0.4276    0.0000 H   0  0  0  0  0  0  0  0  0  0  0  0
    6.5422   -1.7376    0.0000 H   0  0  0  0  0  0  0  0  0  0  0  0
    6.9407   -1.0473    0.0000 H   0  0  0  0  0  0  0  0  0  0  0  0
    4.1998   -0.6301    0.0000 H   0  0  0  0  0  0  0  0  0  0  0  0
    2.8660    0.4650    0.0000 H   0  0  0  0  0  0  0  0  0  0  0  0
    2.2554   -1.0473    0.0000 H   0  0  0  0  0  0  0  0  0  0  0  0
    2.6540   -1.7376    0.0000 H   0  0  0  0  0  0  0  0  0  0  0  0
    6.4641    0.7250    0.0000 H   0  0  0  0  0  0  0  0  0  0  0  0
    4.4641    1.9650    0.0000 H   0  0  0  0  0  0  0  0  0  0  0  0
    3.8441    1.3450    0.0000 H   0  0  0  0  0  0  0  0  0  0  0  0
    4.4641    0.7250    0.0000 H   0  0  0  0  0  0  0  0  0  0  0  0
    7.0841    1.3450    0.0000 H   0  0  0  0  0  0  0  0  0  0  0  0
    6.4641    1.9650    0.0000 H   0  0  0  0  0  0  0  0  0  0  0  0
    3.7320    0.9650    0.0000 H   0  0  0  0  0  0  0  0  0  0  0  0
    3.3335   -2.1300    0.0000 H   0  0  0  0  0  0  0  0  0  0  0  0
    4.1306   -2.1300    0.0000 H   0  0  0  0  0  0  0  0  0  0  0  0
    4.9966   -0.6801    0.0000 H   0  0  0  0  0  0  0  0  0  0  0  0
    2.3100    0.8819    0.0000 H   0  0  0  0  0  0  0  0  0  0  0  0
    1.4631    0.6550    0.0000 H   0  0  0  0  0  0  0  0  0  0  0  0
    1.6900   -0.1919    0.0000 H   0  0  0  0  0  0  0  0  0  0  0  0
    6.0010    2.6550    0.0000 H   0  0  0  0  0  0  0  0  0  0  0  0
    4.8441   -2.6550    0.0000 H   0  0  0  0  0  0  0  0  0  0  0  0
    5.4641   -3.2750    0.0000 H   0  0  0  0  0  0  0  0  0  0  0  0
    6.0841   -2.6550    0.0000 H   0  0  0  0  0  0  0  0  0  0  0  0
  1  3  1  0  0  0  0
  1 39  1  0  0  0  0
  2  3  1  0  0  0  0
  2  4  1  0  0  0  0
  2  6  1  0  0  0  0
  2 17  1  1  0  0  0
  3  9  1  0  0  0  0
  3 10  1  0  0  0  0
  4  5  1  0  0  0  0
  4 18  1  0  0  0  0
  4 19  1  0  0  0  0
  5 12  1  0  0  0  0
  5 20  1  0  0  0  0
  5 21  1  0  0  0  0
  6 11  2  0  0  0  0
  6 22  1  0  0  0  0
  7  8  1  0  0  0  0
  7 11  1  0  0  0  0
  7 15  1  6  0  0  0
  7 23  1  0  0  0  0
  8 13  1  0  0  0  0
  8 24  1  0  0  0  0
  8 25  1  0  0  0  0
  9 26  1  0  0  0  0
  9 30  1  0  0  0  0
  9 31  1  0  0  0  0
 10 27  1  0  0  0  0
 10 28  1  0  0  0  0
 10 29  1  0  0  0  0
 11 32  1  0  0  0  0
 12 14  2  0  0  0  0
 12 16  1  0  0  0  0
 13 14  1  0  0  0  0
 13 33  1  0  0  0  0
 13 34  1  0  0  0  0
 14 35  1  0  0  0  0
 15 36  1  0  0  0  0
 15 37  1  0  0  0  0
 15 38  1  0  0  0  0
 16 40  1  0  0  0  0
 16 41  1  0  0  0  0
 16 42  1  0  0  0  0
M  END
> <PUBCHEM_COMPOUND_CID>
16667385

> <PUBCHEM_COMPOUND_CANONICALIZED>
1

> <PUBCHEM_CACTVS_COMPLEXITY>
273

> <PUBCHEM_CACTVS_HBOND_ACCEPTOR>
1

> <PUBCHEM_CACTVS_HBOND_DONOR>
1

> <PUBCHEM_CACTVS_ROTATABLE_BOND>
1

> <PUBCHEM_CACTVS_SUBSKEYS>
AAADceBwIAAAAAAAAAAAAAAAAAAAAAAAAAAAAAAAAAAAAACAAAAAGgAACAAADUSAgAACAAAAAgCAAiBCAAAAAAAgAAAICAAAAAgAAAIAAQAAQAAEwAAIAAOAwEAOgAAAAAAAAAAAAAAAAAAAAAAAAAAAAA==

> <PUBCHEM_IUPAC_OPENEYE_NAME>
2-[(1R,2E,4S,7E)-4,8-dimethylcyclodeca-2,7-dien-1-yl]propan-2-ol

> <PUBCHEM_IUPAC_CAS_NAME>
2-[(1R,2E,4S,7E)-4,8-dimethyl-1-cyclodeca-2,7-dienyl]-2-propanol

> <PUBCHEM_IUPAC_NAME>
2-[(1R,2E,4S,7E)-4,8-dimethylcyclodeca-2,7-dien-1-yl]propan-2-ol

> <PUBCHEM_IUPAC_SYSTEMATIC_NAME>
2-[(1R,2E,4S,7E)-4,8-dimethylcyclodeca-2,7-dien-1-yl]propan-2-ol

> <PUBCHEM_IUPAC_TRADITIONAL_NAME>
2-[(1R,2E,4S,7E)-4,8-dimethylcyclodeca-2,7-dien-1-yl]propan-2-ol

> <PUBCHEM_IUPAC_INCHI>
InChI=1S/C15H26O/c1-12-6-5-7-13(2)9-11-14(10-8-12)15(3,4)16/h6,9,11,13-14,16H,5,7-8,10H2,1-4H3/b11-9+,12-6+/t13-,14+/m0/s1

> <PUBCHEM_IUPAC_INCHIKEY>
ZVZPKUXZGROCDB-IFRRKGDKSA-N

> <PUBCHEM_XLOGP3_AA>
3.6

> <PUBCHEM_EXACT_MASS>
222.198365

> <PUBCHEM_MOLECULAR_FORMULA>
C15H26O

> <PUBCHEM_MOLECULAR_WEIGHT>
222.36634

> <PUBCHEM_OPENEYE_CAN_SMILES>
CC1CCC=C(CCC(C=C1)C(C)(C)O)C

> <PUBCHEM_OPENEYE_ISO_SMILES>
C[C@H]\1CC/C=C(/CC[C@H](/C=C1)C(C)(C)O)\C

> <PUBCHEM_CACTVS_TPSA>
20.2

> <PUBCHEM_MONOISOTOPIC_WEIGHT>
222.198365

> <PUBCHEM_TOTAL_CHARGE>
0

> <PUBCHEM_HEAVY_ATOM_COUNT>
16

> <PUBCHEM_ATOM_DEF_STEREO_COUNT>
2

> <PUBCHEM_ATOM_UDEF_STEREO_COUNT>
0

> <PUBCHEM_BOND_DEF_STEREO_COUNT>
2

> <PUBCHEM_BOND_UDEF_STEREO_COUNT>
0

> <PUBCHEM_ISOTOPIC_ATOM_COUNT>
0

> <PUBCHEM_COMPONENT_COUNT>
1

> <PUBCHEM_CACTVS_TAUTO_COUNT>
1

> <PUBCHEM_COORDINATE_TYPE>
1
5
255

> <PUBCHEM_BONDANNOTATIONS>
2  17  5
7  15  6

$$$$

