6237
  -OEChem-06261201113D

 34 36  0     0  0  0  0  0  0999 V2000
    4.0265   -0.5439    2.9283 I   0  0  0  0  0  0  0  0  0  0  0  0
    3.8023    0.1720   -3.1287 I   0  0  0  0  0  0  0  0  0  0  0  0
   -3.5913   -0.0343    0.1918 O   0  0  0  0  0  0  0  0  0  0  0  0
   -0.3701    2.7103    0.3873 O   0  0  0  0  0  0  0  0  0  0  0  0
    4.9101   -0.5799   -0.1839 O   0  0  0  0  0  0  0  0  0  0  0  0
   -1.4361    0.6124    0.1900 C   0  0  0  0  0  0  0  0  0  0  0  0
   -1.4715   -0.7973    0.0246 C   0  0  0  0  0  0  0  0  0  0  0  0
   -2.7451    1.0245    0.2866 C   0  0  0  0  0  0  0  0  0  0  0  0
   -2.8184   -1.1453    0.0322 C   0  0  0  0  0  0  0  0  0  0  0  0
   -3.3799    2.3391    0.4668 C   0  0  0  0  0  0  0  0  0  0  0  0
   -0.2921    1.4753    0.2506 C   0  0  0  0  0  0  0  0  0  0  0  0
   -0.5155   -1.8164   -0.1309 C   0  0  0  0  0  0  0  0  0  0  0  0
    1.0946    0.9278    0.1356 C   0  0  0  0  0  0  0  0  0  0  0  0
   -3.2894   -2.4498   -0.1047 C   0  0  0  0  0  0  0  0  0  0  0  0
   -3.6888    3.0419   -0.8628 C   0  0  0  0  0  0  0  0  0  0  0  0
   -0.9589   -3.1387   -0.2707 C   0  0  0  0  0  0  0  0  0  0  0  0
   -2.3216   -3.4471   -0.2574 C   0  0  0  0  0  0  0  0  0  0  0  0
    1.6594    0.8295   -1.1140 C   0  0  0  0  0  0  0  0  0  0  0  0
    1.7477    0.5454    1.2835 C   0  0  0  0  0  0  0  0  0  0  0  0
    3.0413    0.0345    1.1754 C   0  0  0  0  0  0  0  0  0  0  0  0
    2.9529    0.3188   -1.2223 C   0  0  0  0  0  0  0  0  0  0  0  0
    3.6438   -0.0787   -0.0775 C   0  0  0  0  0  0  0  0  0  0  0  0
   -4.3208    2.2159    1.0177 H   0  0  0  0  0  0  0  0  0  0  0  0
   -2.7575    2.9927    1.0868 H   0  0  0  0  0  0  0  0  0  0  0  0
    0.5512   -1.6359   -0.1485 H   0  0  0  0  0  0  0  0  0  0  0  0
   -4.3478   -2.6812   -0.0935 H   0  0  0  0  0  0  0  0  0  0  0  0
   -2.7716    3.2221   -1.4333 H   0  0  0  0  0  0  0  0  0  0  0  0
   -4.1732    4.0055   -0.6771 H   0  0  0  0  0  0  0  0  0  0  0  0
   -4.3577    2.4337   -1.4810 H   0  0  0  0  0  0  0  0  0  0  0  0
   -0.2303   -3.9364   -0.3913 H   0  0  0  0  0  0  0  0  0  0  0  0
   -2.6359   -4.4820   -0.3680 H   0  0  0  0  0  0  0  0  0  0  0  0
    1.1045    1.1444   -1.9937 H   0  0  0  0  0  0  0  0  0  0  0  0
    1.2609    0.6418    2.2503 H   0  0  0  0  0  0  0  0  0  0  0  0
    5.2299   -0.8019    0.7075 H   0  0  0  0  0  0  0  0  0  0  0  0
  1 20  1  0  0  0  0
  2 21  1  0  0  0  0
  3  8  1  0  0  0  0
  3  9  1  0  0  0  0
  4 11  2  0  0  0  0
  5 22  1  0  0  0  0
  5 34  1  0  0  0  0
  6  7  1  0  0  0  0
  6  8  2  0  0  0  0
  6 11  1  0  0  0  0
  7  9  1  0  0  0  0
  7 12  2  0  0  0  0
  8 10  1  0  0  0  0
  9 14  2  0  0  0  0
 10 15  1  0  0  0  0
 10 23  1  0  0  0  0
 10 24  1  0  0  0  0
 11 13  1  0  0  0  0
 12 16  1  0  0  0  0
 12 25  1  0  0  0  0
 13 18  2  0  0  0  0
 13 19  1  0  0  0  0
 14 17  1  0  0  0  0
 14 26  1  0  0  0  0
 15 27  1  0  0  0  0
 15 28  1  0  0  0  0
 15 29  1  0  0  0  0
 16 17  2  0  0  0  0
 16 30  1  0  0  0  0
 17 31  1  0  0  0  0
 18 21  1  0  0  0  0
 18 32  1  0  0  0  0
 19 20  2  0  0  0  0
 19 33  1  0  0  0  0
 20 22  1  0  0  0  0
 21 22  2  0  0  0  0
M  END
> <PUBCHEM_COMPOUND_CID>
6237

> <PUBCHEM_CONFORMER_RMSD>
0.6

> <PUBCHEM_CONFORMER_DIVERSEORDER>
1
12
15
14
7
8
4
16
13
6
5
17
3
11
2
10
9

> <PUBCHEM_MMFF94_PARTIAL_CHARGES>
27
1 -0.08
10 0.18
11 0.57
12 -0.15
13 0.09
14 -0.15
16 -0.15
17 -0.15
18 -0.15
19 -0.15
2 -0.08
20 0.08
21 0.08
22 0.08
25 0.15
26 0.15
3 -0.28
30 0.15
31 0.15
32 0.15
33 0.15
34 0.45
4 -0.57
5 -0.53
6 -0.09
8 -0.04
9 0.14

> <PUBCHEM_EFFECTIVE_ROTOR_COUNT>
3

> <PUBCHEM_PHARMACOPHORE_FEATURES>
9
1 1 hydrophobe
1 15 hydrophobe
1 2 hydrophobe
1 3 acceptor
1 4 acceptor
1 5 donor
5 3 6 7 8 9 rings
6 13 18 19 20 21 22 rings
6 7 9 12 14 16 17 rings

> <PUBCHEM_HEAVY_ATOM_COUNT>
22

> <PUBCHEM_ATOM_DEF_STEREO_COUNT>
0

> <PUBCHEM_ATOM_UDEF_STEREO_COUNT>
0

> <PUBCHEM_BOND_DEF_STEREO_COUNT>
0

> <PUBCHEM_BOND_UDEF_STEREO_COUNT>
0

> <PUBCHEM_ISOTOPIC_ATOM_COUNT>
0

> <PUBCHEM_COMPONENT_COUNT>
1

> <PUBCHEM_CACTVS_TAUTO_COUNT>
4

> <PUBCHEM_CONFORMER_ID>
0000185D00000001

> <PUBCHEM_MMFF94_ENERGY>
52.3383

> <PUBCHEM_FEATURE_SELFOVERLAP>
45.771

> <PUBCHEM_SHAPE_FINGERPRINT>
10062212 137 18131078155172361675
10319926 262 18117587122721400570
10366900 7 17168144585392926352
11582403 64 16883904387903255336
11725454 13 17098657661877131680
12160290 23 18335698321964567907
12236239 1 17846214471051338000
12403259 327 17899448477824853080
12500047 106 18336833081893108840
12553582 1 18194394490299696027
12714826 92 18264749009381729651
12788726 201 18199461082798454171
13140716 1 18120653535859974979
13726171 33 18192403343582973008
14022347 108 17980470175178893883
14178342 30 18339098020217741226
15042514 8 18339073771312617515
15842332 3 17846499210144950422
16752209 62 18411421700337969583
16945 1 18337391539785388315
20511986 3 17917722296670284876
20600515 1 18260264183342104312
20642791 178 17402868511756780156
20905425 154 18188760768781229790
21065201 7 18334009489068051102
212916 134 18190757507608682145
21781051 124 18270941498305136091
22907989 373 18201441333721321933
23184049 29 18120943806402121913
23419403 2 4963906460041283911
23557571 272 18113615664608920944
23559900 14 18187363281550012756
23598288 3 18130772461128347497
23598291 2 17774996869510769852
602551 16 18335424569338997154
77492 1 17846498123513086248
81228 2 18191867812937327987
9709674 26 18040990722481247182
9862522 239 17914631680942831261

> <PUBCHEM_SHAPE_MULTIPOLES>
459.01
8.47
3.3
2.26
3.36
1.14
0.4
-0.45
0.06
-5.45
0.42
5.18
-0.03
-1.31

> <PUBCHEM_SHAPE_SELFOVERLAP>
968.172

> <PUBCHEM_SHAPE_VOLUME>
265.9

> <PUBCHEM_COORDINATE_TYPE>
2
5
10

$$$$

