5462445
  -OEChem-07051212583D

 43 46  0     1  0  0  0  0  0999 V2000
    1.5188    1.5998    2.2068 O   0  0  0  0  0  0  0  0  0  0  0  0
   -1.7655   -0.0300   -0.9663 N   0  0  1  0  0  0  0  0  0  0  0  0
   -0.3861   -0.0629   -0.3964 C   0  0  2  0  0  0  0  0  0  0  0  0
    0.0588   -1.5319   -0.1417 C   0  0  1  0  0  0  0  0  0  0  0  0
    1.4787   -1.5436    0.4571 C   0  0  1  0  0  0  0  0  0  0  0  0
   -0.3540    0.7531    0.9335 C   0  0  2  0  0  0  0  0  0  0  0  0
    0.6034    0.4909   -1.4850 C   0  0  0  0  0  0  0  0  0  0  0  0
    2.1018    0.3699   -1.1464 C   0  0  1  0  0  0  0  0  0  0  0  0
    2.4659   -1.0176   -0.6019 C   0  0  0  0  0  0  0  0  0  0  0  0
   -0.9497   -2.3284    0.6911 C   0  0  0  0  0  0  0  0  0  0  0  0
    1.5748   -0.7496    1.7659 C   0  0  0  0  0  0  0  0  0  0  0  0
   -0.7945    2.2044    0.7193 C   0  0  0  0  0  0  0  0  0  0  0  0
    0.9840    0.6405    1.6511 C   0  0  0  0  0  0  0  0  0  0  0  0
   -2.7516   -0.8226   -0.2113 C   0  0  0  0  0  0  0  0  0  0  0  0
   -2.2604    1.3444   -1.1746 C   0  0  0  0  0  0  0  0  0  0  0  0
   -2.3111   -2.2667    0.0132 C   0  0  0  0  0  0  0  0  0  0  0  0
   -2.1699    2.2485    0.0585 C   0  0  0  0  0  0  0  0  0  0  0  0
    2.9564    0.7017   -2.3728 C   0  0  0  0  0  0  0  0  0  0  0  0
    0.1110   -2.0483   -1.1137 H   0  0  0  0  0  0  0  0  0  0  0  0
    1.7647   -2.5807    0.6767 H   0  0  0  0  0  0  0  0  0  0  0  0
   -1.0628    0.3186    1.6514 H   0  0  0  0  0  0  0  0  0  0  0  0
    0.4020    1.5426   -1.7149 H   0  0  0  0  0  0  0  0  0  0  0  0
    0.4192   -0.0540   -2.4230 H   0  0  0  0  0  0  0  0  0  0  0  0
    2.3517    1.1230   -0.3917 H   0  0  0  0  0  0  0  0  0  0  0  0
    3.4822   -0.9970   -0.1886 H   0  0  0  0  0  0  0  0  0  0  0  0
    2.4916   -1.7357   -1.4328 H   0  0  0  0  0  0  0  0  0  0  0  0
   -1.0289   -1.9454    1.7136 H   0  0  0  0  0  0  0  0  0  0  0  0
   -0.6288   -3.3738    0.7703 H   0  0  0  0  0  0  0  0  0  0  0  0
    2.6223   -0.6608    2.0760 H   0  0  0  0  0  0  0  0  0  0  0  0
    1.0404   -1.2673    2.5698 H   0  0  0  0  0  0  0  0  0  0  0  0
   -0.0638    2.7486    0.1101 H   0  0  0  0  0  0  0  0  0  0  0  0
   -0.8397    2.7342    1.6789 H   0  0  0  0  0  0  0  0  0  0  0  0
   -3.6949   -0.8487   -0.7712 H   0  0  0  0  0  0  0  0  0  0  0  0
   -2.9798   -0.3687    0.7599 H   0  0  0  0  0  0  0  0  0  0  0  0
   -3.2993    1.3196   -1.5282 H   0  0  0  0  0  0  0  0  0  0  0  0
   -1.7077    1.8073   -2.0001 H   0  0  0  0  0  0  0  0  0  0  0  0
   -2.2692   -2.7930   -0.9490 H   0  0  0  0  0  0  0  0  0  0  0  0
   -3.0537   -2.7882    0.6279 H   0  0  0  0  0  0  0  0  0  0  0  0
   -2.9291    1.9480    0.7909 H   0  0  0  0  0  0  0  0  0  0  0  0
   -2.4065    3.2805   -0.2251 H   0  0  0  0  0  0  0  0  0  0  0  0
    4.0224    0.6612   -2.1247 H   0  0  0  0  0  0  0  0  0  0  0  0
    2.7720   -0.0028   -3.1909 H   0  0  0  0  0  0  0  0  0  0  0  0
    2.7352    1.7102   -2.7381 H   0  0  0  0  0  0  0  0  0  0  0  0
  1 13  2  0  0  0  0
  2  3  1  0  0  0  0
  2 14  1  0  0  0  0
  2 15  1  0  0  0  0
  3  4  1  0  0  0  0
  3  6  1  0  0  0  0
  3  7  1  0  0  0  0
  4  5  1  0  0  0  0
  4 10  1  0  0  0  0
  4 19  1  0  0  0  0
  5  9  1  0  0  0  0
  5 11  1  0  0  0  0
  5 20  1  0  0  0  0
  6 12  1  0  0  0  0
  6 13  1  0  0  0  0
  6 21  1  0  0  0  0
  7  8  1  0  0  0  0
  7 22  1  0  0  0  0
  7 23  1  0  0  0  0
  8  9  1  0  0  0  0
  8 18  1  0  0  0  0
  8 24  1  0  0  0  0
  9 25  1  0  0  0  0
  9 26  1  0  0  0  0
 10 16  1  0  0  0  0
 10 27  1  0  0  0  0
 10 28  1  0  0  0  0
 11 13  1  0  0  0  0
 11 29  1  0  0  0  0
 11 30  1  0  0  0  0
 12 17  1  0  0  0  0
 12 31  1  0  0  0  0
 12 32  1  0  0  0  0
 14 16  1  0  0  0  0
 14 33  1  0  0  0  0
 14 34  1  0  0  0  0
 15 17  1  0  0  0  0
 15 35  1  0  0  0  0
 15 36  1  0  0  0  0
 16 37  1  0  0  0  0
 16 38  1  0  0  0  0
 17 39  1  0  0  0  0
 17 40  1  0  0  0  0
 18 41  1  0  0  0  0
 18 42  1  0  0  0  0
 18 43  1  0  0  0  0
M  END
> <PUBCHEM_COMPOUND_CID>
5462445

> <PUBCHEM_CONFORMER_RMSD>
0.6

> <PUBCHEM_CONFORMER_DIVERSEORDER>
1

> <PUBCHEM_MMFF94_PARTIAL_CHARGES>
8
1 -0.57
11 0.06
13 0.45
14 0.27
15 0.27
2 -0.81
3 0.27
6 0.06

> <PUBCHEM_EFFECTIVE_ROTOR_COUNT>
2

> <PUBCHEM_PHARMACOPHORE_FEATURES>
6
1 1 acceptor
1 2 cation
6 2 3 4 10 14 16 rings
6 2 3 6 12 15 17 rings
6 3 4 5 6 11 13 rings
6 3 4 5 7 8 9 rings

> <PUBCHEM_HEAVY_ATOM_COUNT>
18

> <PUBCHEM_ATOM_DEF_STEREO_COUNT>
5

> <PUBCHEM_ATOM_UDEF_STEREO_COUNT>
0

> <PUBCHEM_BOND_DEF_STEREO_COUNT>
0

> <PUBCHEM_BOND_UDEF_STEREO_COUNT>
0

> <PUBCHEM_ISOTOPIC_ATOM_COUNT>
0

> <PUBCHEM_COMPONENT_COUNT>
1

> <PUBCHEM_CACTVS_TAUTO_COUNT>
2

> <PUBCHEM_CONFORMER_ID>
005359AD00000001

> <PUBCHEM_MMFF94_ENERGY>
38.387

> <PUBCHEM_FEATURE_SELFOVERLAP>
32.196

> <PUBCHEM_SHAPE_FINGERPRINT>
10863032 1 17986367061938039173
10948715 1 17773007947175519285
12423570 1 17338443723138618130
12491281 212 17987497334264027276
12654903 92 17699289081415218478
13024252 1 15407773481937187524
13172582 1 17628365075201635815
13898156 1 17846509135529515389
14115302 16 18267311021803506471
141345 1 13307824225418948554
144361 1 17917710201461786167
14817 1 17692284874634528944
15881359 60 16553646025909117704
16945 1 18198321988667435230
22112679 90 17417267523077169298
23236772 104 17488726909574559821
23419403 2 17460578252352248360
23559900 14 17971202658647581874
2748010 2 18189920650542404443
353137 74 17845362259087035759
394222 165 16127260957080864388
528886 8 17914615200751967599
576247 118 17459449122371263302
5845 1 14780386920269320034
68419 9 17560814198831723223
6992083 37 17699861914178129898
9981440 41 16910009783998354500

> <PUBCHEM_SHAPE_MULTIPOLES>
359.58
3.69
2.5
1.93
0.23
0.44
-0.45
-0.25
1.64
-1.44
-0.33
1.44
-0.83
-0.43

> <PUBCHEM_SHAPE_SELFOVERLAP>
770.413

> <PUBCHEM_SHAPE_VOLUME>
195.2

> <PUBCHEM_COORDINATE_TYPE>
2
5
10

$$$$

