440111
  -OEChem-07051212483D

 19 19  0     1  0  0  0  0  0999 V2000
    2.3862   -0.3806    1.6666 O   0  0  0  0  0  0  0  0  0  0  0  0
   -2.0429    2.0657    0.4035 O   0  0  0  0  0  0  0  0  0  0  0  0
   -3.5570   -0.1403   -0.3477 O   0  0  0  0  0  0  0  0  0  0  0  0
    3.3697    1.0156   -1.2698 N   0  0  0  0  0  0  0  0  0  0  0  0
    0.5522   -0.4940    0.1295 C   0  0  0  0  0  0  0  0  0  0  0  0
    2.0279   -0.6253    0.2998 C   0  0  1  0  0  0  0  0  0  0  0  0
   -0.0681    0.7362    0.3475 C   0  0  0  0  0  0  0  0  0  0  0  0
   -0.2078   -1.6013   -0.2473 C   0  0  0  0  0  0  0  0  0  0  0  0
   -1.4485    0.8591    0.1887 C   0  0  0  0  0  0  0  0  0  0  0  0
   -2.2084   -0.2484   -0.1882 C   0  0  0  0  0  0  0  0  0  0  0  0
   -1.5881   -1.4785   -0.4062 C   0  0  0  0  0  0  0  0  0  0  0  0
    2.7847    0.2919   -0.5764 C   0  0  0  0  0  0  0  0  0  0  0  0
    2.3408   -1.6531    0.0789 H   0  0  0  0  0  0  0  0  0  0  0  0
    0.5129    1.6053    0.6473 H   0  0  0  0  0  0  0  0  0  0  0  0
    0.2601   -2.5667   -0.4208 H   0  0  0  0  0  0  0  0  0  0  0  0
   -2.1682   -2.3491   -0.7003 H   0  0  0  0  0  0  0  0  0  0  0  0
    3.3368   -0.5658    1.7582 H   0  0  0  0  0  0  0  0  0  0  0  0
   -2.9985    1.9679    0.2483 H   0  0  0  0  0  0  0  0  0  0  0  0
   -3.9152   -1.0057   -0.6101 H   0  0  0  0  0  0  0  0  0  0  0  0
  1  6  1  0  0  0  0
  1 17  1  0  0  0  0
  2  9  1  0  0  0  0
  2 18  1  0  0  0  0
  3 10  1  0  0  0  0
  3 19  1  0  0  0  0
  4 12  3  0  0  0  0
  5  6  1  0  0  0  0
  5  7  2  0  0  0  0
  5  8  1  0  0  0  0
  6 12  1  0  0  0  0
  6 13  1  0  0  0  0
  7  9  1  0  0  0  0
  7 14  1  0  0  0  0
  8 11  2  0  0  0  0
  8 15  1  0  0  0  0
  9 10  2  0  0  0  0
 10 11  1  0  0  0  0
 11 16  1  0  0  0  0
M  END
> <PUBCHEM_COMPOUND_CID>
440111

> <PUBCHEM_CONFORMER_RMSD>
0.4

> <PUBCHEM_CONFORMER_DIVERSEORDER>
1
8
10
3
6
9
7
4
5
2

> <PUBCHEM_MMFF94_PARTIAL_CHARGES>
18
1 -0.68
10 0.08
11 -0.15
12 0.36
14 0.15
15 0.15
16 0.15
17 0.4
18 0.45
19 0.45
2 -0.53
3 -0.53
4 -0.56
5 -0.14
6 0.62
7 -0.15
8 -0.15
9 0.08

> <PUBCHEM_EFFECTIVE_ROTOR_COUNT>
1

> <PUBCHEM_PHARMACOPHORE_FEATURES>
6
1 1 acceptor
1 1 donor
1 2 donor
1 3 donor
1 4 acceptor
6 5 7 8 9 10 11 rings

> <PUBCHEM_HEAVY_ATOM_COUNT>
12

> <PUBCHEM_ATOM_DEF_STEREO_COUNT>
0

> <PUBCHEM_ATOM_UDEF_STEREO_COUNT>
1

> <PUBCHEM_BOND_DEF_STEREO_COUNT>
0

> <PUBCHEM_BOND_UDEF_STEREO_COUNT>
0

> <PUBCHEM_ISOTOPIC_ATOM_COUNT>
0

> <PUBCHEM_COMPONENT_COUNT>
1

> <PUBCHEM_CACTVS_TAUTO_COUNT>
10

> <PUBCHEM_CONFORMER_ID>
0006B72F00000001

> <PUBCHEM_MMFF94_ENERGY>
23.6653

> <PUBCHEM_FEATURE_SELFOVERLAP>
30.45

> <PUBCHEM_SHAPE_FINGERPRINT>
11206711 2 18261119590529349277
12897270 3 18334288726255758086
12932764 1 17385729109717862718
13380535 21 17897432024933675457
13538477 17 18271533000504763242
14993402 34 18341891879015649293
15310529 11 17346326989718694599
15775835 57 17988921141766431564
16945 1 18261399931434149011
19026448 4 16056885749473415383
20645464 45 17313402105477361882
20645476 183 18130507439892084935
20653085 51 18267567173711107498
21040471 1 18189621711891227026
23552423 10 18267583704871898975
23559900 14 17749950102901331838
2748010 2 18046064032488327151
3248919 1 18271531973870319058
369184 2 16702306762557904635
5084963 1 18263927807371565114
53812653 8 18410851070877313645
8030462 33 18409453591535308206

> <PUBCHEM_SHAPE_MULTIPOLES>
224.37
4.84
1.57
0.98
1.11
0.18
0.16
0.96
-0.99
-0.76
-0.04
0.86
0.04
-0.66

> <PUBCHEM_SHAPE_SELFOVERLAP>
470.364

> <PUBCHEM_SHAPE_VOLUME>
124.8

> <PUBCHEM_COORDINATE_TYPE>
2
5
10

$$$$

