21169
  -OEChem-07051213053D

 30 32  0     0  0  0  0  0  0999 V2000
    1.3036    2.1206    0.0003 O   0  0  0  0  0  0  0  0  0  0  0  0
    3.5720    2.3516    0.0003 O   0  0  0  0  0  0  0  0  0  0  0  0
   -5.0688    0.7451   -0.0027 O   0  0  0  0  0  0  0  0  0  0  0  0
   -3.3731   -0.8928    0.0006 N   0  0  0  0  0  0  0  0  0  0  0  0
    0.2521   -0.0845   -0.0001 C   0  0  0  0  0  0  0  0  0  0  0  0
    1.5882   -0.6930   -0.0004 C   0  0  0  0  0  0  0  0  0  0  0  0
    0.1493    1.3086    0.0001 C   0  0  0  0  0  0  0  0  0  0  0  0
    2.7238    0.1359    0.0000 C   0  0  0  0  0  0  0  0  0  0  0  0
   -0.9547   -0.8029    0.0005 C   0  0  0  0  0  0  0  0  0  0  0  0
   -2.1930   -0.1470    0.0006 C   0  0  0  0  0  0  0  0  0  0  0  0
   -1.0758    1.9806    0.0003 C   0  0  0  0  0  0  0  0  0  0  0  0
    1.8038   -2.0841   -0.0009 C   0  0  0  0  0  0  0  0  0  0  0  0
    2.5956    1.6129   -0.0004 C   0  0  0  0  0  0  0  0  0  0  0  0
   -2.2534    1.2436    0.0003 C   0  0  0  0  0  0  0  0  0  0  0  0
    4.0188   -0.4067    0.0004 C   0  0  0  0  0  0  0  0  0  0  0  0
    3.0932   -2.6245   -0.0005 C   0  0  0  0  0  0  0  0  0  0  0  0
    4.2001   -1.7860    0.0002 C   0  0  0  0  0  0  0  0  0  0  0  0
   -4.6926   -0.4226    0.0007 C   0  0  0  0  0  0  0  0  0  0  0  0
   -5.6889   -1.5548    0.0008 C   0  0  0  0  0  0  0  0  0  0  0  0
   -0.9536   -1.8901    0.0007 H   0  0  0  0  0  0  0  0  0  0  0  0
   -1.1122    3.0660    0.0004 H   0  0  0  0  0  0  0  0  0  0  0  0
    0.9754   -2.7872   -0.0014 H   0  0  0  0  0  0  0  0  0  0  0  0
   -3.1691    1.8172    0.0006 H   0  0  0  0  0  0  0  0  0  0  0  0
    4.8985    0.2317    0.0007 H   0  0  0  0  0  0  0  0  0  0  0  0
    3.2280   -3.7023   -0.0008 H   0  0  0  0  0  0  0  0  0  0  0  0
    5.2019   -2.2045    0.0005 H   0  0  0  0  0  0  0  0  0  0  0  0
   -3.2491   -1.9031    0.0010 H   0  0  0  0  0  0  0  0  0  0  0  0
   -5.5682   -2.1531   -0.9066 H   0  0  0  0  0  0  0  0  0  0  0  0
   -6.7059   -1.1537    0.0297 H   0  0  0  0  0  0  0  0  0  0  0  0
   -5.5325   -2.1870    0.8794 H   0  0  0  0  0  0  0  0  0  0  0  0
  1  7  1  0  0  0  0
  1 13  1  0  0  0  0
  2 13  2  0  0  0  0
  3 18  2  0  0  0  0
  4 10  1  0  0  0  0
  4 18  1  0  0  0  0
  4 27  1  0  0  0  0
  5  6  1  0  0  0  0
  5  7  2  0  0  0  0
  5  9  1  0  0  0  0
  6  8  1  0  0  0  0
  6 12  2  0  0  0  0
  7 11  1  0  0  0  0
  8 13  1  0  0  0  0
  8 15  2  0  0  0  0
  9 10  2  0  0  0  0
  9 20  1  0  0  0  0
 10 14  1  0  0  0  0
 11 14  2  0  0  0  0
 11 21  1  0  0  0  0
 12 16  1  0  0  0  0
 12 22  1  0  0  0  0
 14 23  1  0  0  0  0
 15 17  1  0  0  0  0
 15 24  1  0  0  0  0
 16 17  2  0  0  0  0
 16 25  1  0  0  0  0
 17 26  1  0  0  0  0
 18 19  1  0  0  0  0
 19 28  1  0  0  0  0
 19 29  1  0  0  0  0
 19 30  1  0  0  0  0
M  END
> <PUBCHEM_COMPOUND_CID>
21169

> <PUBCHEM_CONFORMER_RMSD>
0.6

> <PUBCHEM_CONFORMER_DIVERSEORDER>
1
2
3
4

> <PUBCHEM_MMFF94_PARTIAL_CHARGES>
25
1 -0.23
10 0.12
11 -0.15
12 -0.15
13 0.63
14 -0.15
15 -0.15
16 -0.15
17 -0.15
18 0.57
19 0.06
2 -0.57
20 0.15
21 0.15
22 0.15
23 0.15
24 0.15
25 0.15
26 0.15
27 0.37
3 -0.57
4 -0.55
7 0.08
8 0.09
9 -0.15

> <PUBCHEM_EFFECTIVE_ROTOR_COUNT>
2

> <PUBCHEM_PHARMACOPHORE_FEATURES>
6
1 2 acceptor
1 3 acceptor
1 4 donor
6 1 5 6 7 8 13 rings
6 5 7 9 10 11 14 rings
6 6 8 12 15 16 17 rings

> <PUBCHEM_HEAVY_ATOM_COUNT>
19

> <PUBCHEM_ATOM_DEF_STEREO_COUNT>
0

> <PUBCHEM_ATOM_UDEF_STEREO_COUNT>
0

> <PUBCHEM_BOND_DEF_STEREO_COUNT>
0

> <PUBCHEM_BOND_UDEF_STEREO_COUNT>
0

> <PUBCHEM_ISOTOPIC_ATOM_COUNT>
0

> <PUBCHEM_COMPONENT_COUNT>
1

> <PUBCHEM_CACTVS_TAUTO_COUNT>
2

> <PUBCHEM_CONFORMER_ID>
000052B100000001

> <PUBCHEM_MMFF94_ENERGY>
68.8068

> <PUBCHEM_FEATURE_SELFOVERLAP>
30.494

> <PUBCHEM_SHAPE_FINGERPRINT>
10411042 1 18194401315340560302
10967382 1 18410855417663817988
11471102 20 18411420579103533565
11806522 49 18341048600915754910
12107183 9 17902503019985038793
12236239 1 17821727230509463803
12403259 226 18269843167170835164
12916754 54 18409727404406251513
13140716 1 18194411000486096666
13167823 11 18334860502699756215
13533116 47 18261110738807279219
138480 1 18410855447513064772
13955234 65 18335703776172224624
14178342 30 18120385512499114040
14790565 3 17835795296761243260
15042514 8 17618225448048900162
15196674 1 18410855456392493601
15352361 1 18411136982523975803
15442244 35 18264767838423585265
15536298 74 18407760330627580248
16945 1 18266458887892660512
17492 89 18337110188814817631
18186145 218 17704078404111077279
200 152 18260269655187558499
20028762 73 18260554424067738327
20281475 54 18335422361699361505
20559304 39 18409449206800817452
20645477 70 18413392016342332027
21267235 1 18409440414533653958
21452121 103 18335711498787290192
21501502 16 18337382842012773536
221490 88 18413384341293802963
23402539 116 18337678606656842991
23559900 14 18411705395548839968
2748010 2 18051683353219034970
2871803 45 18272091625294118715
3004659 81 18273497887807496555
3071541 37 18341888542279896676
312423 11 18262223512719149465
314194 84 18261957332854573143
3286 77 18343022228835619134
335352 9 18194401328109080285
33824 294 18339362972396890690
3421961 26 18410013251612300738
34934 24 18262522468170401029
350125 39 18410292527845596832
4214541 1 18338797918321022305
42630746 31 18335703797973926176
465052 167 18261105275113539327
5104073 3 18409164416135754961
602551 16 15141253048980994295
7364860 26 18408605855665373984
77779 3 18410855465013953281
8272917 22 18410007706635318396
9709674 26 18343016662589892283

> <PUBCHEM_SHAPE_MULTIPOLES>
368.42
9.93
2.62
0.6
11.29
0.19
0
-4.27
0
-2.08
0
-0.02
-0.02
0

> <PUBCHEM_SHAPE_SELFOVERLAP>
815.267

> <PUBCHEM_SHAPE_VOLUME>
196.1

> <PUBCHEM_COORDINATE_TYPE>
2
5
10

$$$$

