13019104
  -OEChem-07051213113D

 52 53  0     1  0  0  0  0  0999 V2000
   -0.5878    0.2100    0.0303 O   0  0  0  0  0  0  0  0  0  0  0  0
    3.9447   -0.7891    0.0025 O   0  0  0  0  0  0  0  0  0  0  0  0
   -2.6885   -0.5118   -0.7872 O   0  0  0  0  0  0  0  0  0  0  0  0
    2.1254   -0.4982   -2.3083 O   0  0  0  0  0  0  0  0  0  0  0  0
    1.6924    2.1237    0.2617 N   0  0  0  0  0  0  0  0  0  0  0  0
    1.6740   -2.6904   -0.1386 N   0  0  0  0  0  0  0  0  0  0  0  0
   -1.2887    2.9281   -0.5379 N   0  0  0  0  0  0  0  0  0  0  0  0
   -3.6861   -3.0203    0.0460 N   0  0  0  0  0  0  0  0  0  0  0  0
    0.3857   -0.6123   -0.6192 C   0  0  1  0  0  0  0  0  0  0  0  0
    2.3791    1.0217   -0.4171 C   0  0  2  0  0  0  0  0  0  0  0  0
    1.4012    0.2793   -1.3550 C   0  0  1  0  0  0  0  0  0  0  0  0
    1.0036   -1.5313    0.4518 C   0  0  2  0  0  0  0  0  0  0  0  0
    3.0059    0.0828    0.6310 C   0  0  1  0  0  0  0  0  0  0  0  0
    1.9610   -0.7569    1.3769 C   0  0  0  0  0  0  0  0  0  0  0  0
   -1.6786    0.5030   -0.8403 C   0  0  1  0  0  0  0  0  0  0  0  0
   -2.2936    1.8693   -0.5039 C   0  0  1  0  0  0  0  0  0  0  0  0
   -2.9802    1.8322    0.8639 C   0  0  0  0  0  0  0  0  0  0  0  0
   -3.3068   -0.6362    0.4988 C   0  0  1  0  0  0  0  0  0  0  0  0
   -3.9767    0.6766    0.9095 C   0  0  0  0  0  0  0  0  0  0  0  0
   -4.3258   -1.7648    0.4135 C   0  0  0  0  0  0  0  0  0  0  0  0
    2.6292    2.8879    1.0664 C   0  0  0  0  0  0  0  0  0  0  0  0
    4.6106   -1.6035    0.9549 C   0  0  0  0  0  0  0  0  0  0  0  0
   -0.1188   -1.2664   -1.3459 H   0  0  0  0  0  0  0  0  0  0  0  0
    3.1824    1.4262   -1.0486 H   0  0  0  0  0  0  0  0  0  0  0  0
    0.8675    1.0303   -1.9490 H   0  0  0  0  0  0  0  0  0  0  0  0
    0.1905   -1.9213    1.0777 H   0  0  0  0  0  0  0  0  0  0  0  0
    3.5881    0.6500    1.3626 H   0  0  0  0  0  0  0  0  0  0  0  0
    1.3527   -0.0784    1.9903 H   0  0  0  0  0  0  0  0  0  0  0  0
    2.4065   -1.4425    2.1054 H   0  0  0  0  0  0  0  0  0  0  0  0
   -1.3382    0.5456   -1.8828 H   0  0  0  0  0  0  0  0  0  0  0  0
   -3.0620    2.0936   -1.2556 H   0  0  0  0  0  0  0  0  0  0  0  0
    0.9261    1.7836    0.8396 H   0  0  0  0  0  0  0  0  0  0  0  0
   -3.5037    2.7761    1.0584 H   0  0  0  0  0  0  0  0  0  0  0  0
   -2.2395    1.7059    1.6643 H   0  0  0  0  0  0  0  0  0  0  0  0
   -2.5385   -0.9023    1.2370 H   0  0  0  0  0  0  0  0  0  0  0  0
   -4.4062    0.5921    1.9140 H   0  0  0  0  0  0  0  0  0  0  0  0
   -4.7992    0.9031    0.2190 H   0  0  0  0  0  0  0  0  0  0  0  0
    2.0124   -3.3043    0.6009 H   0  0  0  0  0  0  0  0  0  0  0  0
    2.4947   -2.3991   -0.6637 H   0  0  0  0  0  0  0  0  0  0  0  0
    2.8892   -0.9000   -1.8639 H   0  0  0  0  0  0  0  0  0  0  0  0
   -5.0829   -1.5386   -0.3458 H   0  0  0  0  0  0  0  0  0  0  0  0
   -4.8426   -1.8914    1.3707 H   0  0  0  0  0  0  0  0  0  0  0  0
    3.5739    3.0845    0.5483 H   0  0  0  0  0  0  0  0  0  0  0  0
    2.8254    2.4290    2.0399 H   0  0  0  0  0  0  0  0  0  0  0  0
    2.1808    3.8646    1.2792 H   0  0  0  0  0  0  0  0  0  0  0  0
   -1.7330    3.8301   -0.3722 H   0  0  0  0  0  0  0  0  0  0  0  0
   -0.8720    2.9768   -1.4665 H   0  0  0  0  0  0  0  0  0  0  0  0
    5.5212   -1.9808    0.4785 H   0  0  0  0  0  0  0  0  0  0  0  0
    4.0245   -2.4800    1.2374 H   0  0  0  0  0  0  0  0  0  0  0  0
    4.9165   -1.0395    1.8424 H   0  0  0  0  0  0  0  0  0  0  0  0
   -2.9757   -3.2571    0.7379 H   0  0  0  0  0  0  0  0  0  0  0  0
   -3.1869   -2.9030   -0.8352 H   0  0  0  0  0  0  0  0  0  0  0  0
  1  9  1  0  0  0  0
  1 15  1  0  0  0  0
  2 13  1  0  0  0  0
  2 22  1  0  0  0  0
  3 15  1  0  0  0  0
  3 18  1  0  0  0  0
  4 11  1  0  0  0  0
  4 40  1  0  0  0  0
  5 10  1  0  0  0  0
  5 21  1  0  0  0  0
  5 32  1  0  0  0  0
  6 12  1  0  0  0  0
  6 38  1  0  0  0  0
  6 39  1  0  0  0  0
  7 16  1  0  0  0  0
  7 46  1  0  0  0  0
  7 47  1  0  0  0  0
  8 20  1  0  0  0  0
  8 51  1  0  0  0  0
  8 52  1  0  0  0  0
  9 11  1  0  0  0  0
  9 12  1  0  0  0  0
  9 23  1  0  0  0  0
 10 11  1  0  0  0  0
 10 13  1  0  0  0  0
 10 24  1  0  0  0  0
 11 25  1  0  0  0  0
 12 14  1  0  0  0  0
 12 26  1  0  0  0  0
 13 14  1  0  0  0  0
 13 27  1  0  0  0  0
 14 28  1  0  0  0  0
 14 29  1  0  0  0  0
 15 16  1  0  0  0  0
 15 30  1  0  0  0  0
 16 17  1  0  0  0  0
 16 31  1  0  0  0  0
 17 19  1  0  0  0  0
 17 33  1  0  0  0  0
 17 34  1  0  0  0  0
 18 19  1  0  0  0  0
 18 20  1  0  0  0  0
 18 35  1  0  0  0  0
 19 36  1  0  0  0  0
 19 37  1  0  0  0  0
 20 41  1  0  0  0  0
 20 42  1  0  0  0  0
 21 43  1  0  0  0  0
 21 44  1  0  0  0  0
 21 45  1  0  0  0  0
 22 48  1  0  0  0  0
 22 49  1  0  0  0  0
 22 50  1  0  0  0  0
M  END
> <PUBCHEM_COMPOUND_CID>
13019104

> <PUBCHEM_CONFORMER_RMSD>
0.8

> <PUBCHEM_CONFORMER_DIVERSEORDER>
1
44
27
45
35
34
55
52
24
50
41
51
54
53
32
19
38
49
26
42
36
5
17
56
9
31
43
37
23
20
33
12
21
14
11
28
22
13
8
29
16
30
39
40
4
2
48
46
15
3
47
25
10
6
57
18
7

> <PUBCHEM_MMFF94_PARTIAL_CHARGES>
27
1 -0.56
10 0.27
11 0.28
12 0.27
13 0.28
15 0.56
16 0.27
18 0.28
2 -0.56
20 0.27
21 0.27
22 0.28
3 -0.56
32 0.36
38 0.36
39 0.36
4 -0.68
40 0.4
46 0.36
47 0.36
5 -0.9
51 0.36
52 0.36
6 -0.99
7 -0.99
8 -0.99
9 0.28

> <PUBCHEM_EFFECTIVE_ROTOR_COUNT>
7.4

> <PUBCHEM_PHARMACOPHORE_FEATURES>
15
1 1 acceptor
1 2 acceptor
1 3 acceptor
1 4 acceptor
1 4 donor
1 5 cation
1 5 donor
1 6 cation
1 6 donor
1 7 cation
1 7 donor
1 8 cation
1 8 donor
6 3 15 16 17 18 19 rings
6 9 10 11 12 13 14 rings

> <PUBCHEM_HEAVY_ATOM_COUNT>
22

> <PUBCHEM_ATOM_DEF_STEREO_COUNT>
8

> <PUBCHEM_ATOM_UDEF_STEREO_COUNT>
0

> <PUBCHEM_BOND_DEF_STEREO_COUNT>
0

> <PUBCHEM_BOND_UDEF_STEREO_COUNT>
0

> <PUBCHEM_ISOTOPIC_ATOM_COUNT>
0

> <PUBCHEM_COMPONENT_COUNT>
1

> <PUBCHEM_CACTVS_TAUTO_COUNT>
1

> <PUBCHEM_CONFORMER_ID>
00C6A7E000000001

> <PUBCHEM_MMFF94_ENERGY>
47.4678

> <PUBCHEM_FEATURE_SELFOVERLAP>
76.155

> <PUBCHEM_SHAPE_FINGERPRINT>
10366900 7 18272928327888779579
1100329 8 13654209210531043617
11578080 2 17845110514275323597
12251169 10 18337388348482386065
12403259 226 18411987948720753336
12500047 106 18056489571593959517
12553582 1 18269258098679281631
12596599 1 18115003265515563857
12633257 1 18261944237214198321
13140716 1 18408042913801247233
13224815 77 18410853240046885749
13583140 156 18337687385158266684
14081887 123 18408602557104039225
14178342 30 18337951306856956427
14223421 5 18411422812686974525
14341114 176 18409164432740636698
14787075 74 17617659856669181109
15209289 33 18059854012602595898
15238133 3 18120923160246988361
16945 1 18337127738361717420
17349148 13 17489587840043262147
1813 80 17129853075090823014
18981168 100 16081374046513889065
19050596 39 18410289216399080787
200 152 17704072893646982951
20681677 274 18411987922871705049
21069387 34 14979417074818342409
21524375 3 17899140408311093456
23557571 272 18114747135019722721
23559900 14 18341903965338774753
2838139 119 13914541322418100867
312423 11 18339918234221728149
3286 77 18342178847413715212
350125 39 18339080389408366400
3797600 57 17750227002751337873
5104073 3 18335979783919188393
5283173 99 18129681772117882541
7097593 13 18197219358978006251

> <PUBCHEM_SHAPE_MULTIPOLES>
409.35
8.02
3.07
1.31
2.02
0.5
0.37
-3
-2.31
0.62
-0.49
-0.65
0.08
0.07

> <PUBCHEM_SHAPE_SELFOVERLAP>
822.057

> <PUBCHEM_SHAPE_VOLUME>
238.2

> <PUBCHEM_COORDINATE_TYPE>
2
5
10

$$$$

