10368299
  -OEChem-07051213153D

 69 69  0     1  0  0  0  0  0999 V2000
    7.6523   -0.0652    0.3437 O   0  0  0  0  0  0  0  0  0  0  0  0
    9.9854    2.7578    0.3800 O   0  0  0  0  0  0  0  0  0  0  0  0
    7.3937    4.0293    0.5294 O   0  0  0  0  0  0  0  0  0  0  0  0
    5.3967    2.4825   -0.9870 O   0  0  0  0  0  0  0  0  0  0  0  0
    5.4071   -0.2531   -0.2629 O   0  0  0  0  0  0  0  0  0  0  0  0
   10.0084   -1.4718    0.5073 O   0  0  0  0  0  0  0  0  0  0  0  0
    6.4524   -2.1898   -0.9774 O   0  0  0  0  0  0  0  0  0  0  0  0
  -13.8711    1.0752    0.2438 O   0  0  0  0  0  0  0  0  0  0  0  0
  -12.9448   -0.9202    0.8388 O   0  0  0  0  0  0  0  0  0  0  0  0
    8.7635    2.0694    0.6336 C   0  0  1  0  0  0  0  0  0  0  0  0
    7.6248    2.7712   -0.1065 C   0  0  1  0  0  0  0  0  0  0  0  0
    8.8965    0.6160    0.1727 C   0  0  1  0  0  0  0  0  0  0  0  0
    6.3434    1.9384   -0.0677 C   0  0  2  0  0  0  0  0  0  0  0  0
    6.6122    0.4859   -0.4606 C   0  0  1  0  0  0  0  0  0  0  0  0
    9.9485   -0.1383    0.9796 C   0  0  0  0  0  0  0  0  0  0  0  0
    5.4798   -1.5772   -0.5631 C   0  0  0  0  0  0  0  0  0  0  0  0
    4.1867   -2.2242   -0.2347 C   0  0  0  0  0  0  0  0  0  0  0  0
    4.2864   -3.6520    0.2094 C   0  0  0  0  0  0  0  0  0  0  0  0
    3.0134   -1.5772   -0.3554 C   0  0  0  0  0  0  0  0  0  0  0  0
    1.6907   -2.0988   -0.0670 C   0  0  0  0  0  0  0  0  0  0  0  0
    0.5728   -1.3688   -0.2206 C   0  0  0  0  0  0  0  0  0  0  0  0
   -0.8028   -1.8035    0.0478 C   0  0  0  0  0  0  0  0  0  0  0  0
   -0.9957   -3.2142    0.5460 C   0  0  0  0  0  0  0  0  0  0  0  0
   -1.8044   -0.9232   -0.1674 C   0  0  0  0  0  0  0  0  0  0  0  0
   -3.2260   -1.1316    0.0284 C   0  0  0  0  0  0  0  0  0  0  0  0
   -4.1407   -0.1789   -0.2193 C   0  0  0  0  0  0  0  0  0  0  0  0
   -6.5642    0.4925   -0.2377 C   0  0  0  0  0  0  0  0  0  0  0  0
   -5.5621   -0.3874   -0.0227 C   0  0  0  0  0  0  0  0  0  0  0  0
   -7.9392    0.0576    0.0334 C   0  0  0  0  0  0  0  0  0  0  0  0
   -6.3723    1.9014   -0.7414 C   0  0  0  0  0  0  0  0  0  0  0  0
   -9.0585    0.7863   -0.1191 C   0  0  0  0  0  0  0  0  0  0  0  0
  -10.3777    0.2654    0.1856 C   0  0  0  0  0  0  0  0  0  0  0  0
  -11.5613    0.8958    0.0736 C   0  0  0  0  0  0  0  0  0  0  0  0
  -11.6578    2.3276   -0.3700 C   0  0  0  0  0  0  0  0  0  0  0  0
  -12.8358    0.2233    0.4273 C   0  0  0  0  0  0  0  0  0  0  0  0
    8.5781    2.1100    1.7146 H   0  0  0  0  0  0  0  0  0  0  0  0
    7.9169    2.9942   -1.1401 H   0  0  0  0  0  0  0  0  0  0  0  0
    9.1806    0.5652   -0.8873 H   0  0  0  0  0  0  0  0  0  0  0  0
    5.8907    1.9941    0.9302 H   0  0  0  0  0  0  0  0  0  0  0  0
    6.8795    0.4207   -1.5244 H   0  0  0  0  0  0  0  0  0  0  0  0
    9.6764   -0.1723    2.0399 H   0  0  0  0  0  0  0  0  0  0  0  0
   10.9381    0.3165    0.8745 H   0  0  0  0  0  0  0  0  0  0  0  0
    9.8627    3.6810    0.6598 H   0  0  0  0  0  0  0  0  0  0  0  0
    6.6504    4.4547    0.0686 H   0  0  0  0  0  0  0  0  0  0  0  0
    4.6007    1.9248   -0.9492 H   0  0  0  0  0  0  0  0  0  0  0  0
   10.6802   -1.9341    1.0369 H   0  0  0  0  0  0  0  0  0  0  0  0
    5.2413   -3.8377    0.7148 H   0  0  0  0  0  0  0  0  0  0  0  0
    4.2258   -4.3237   -0.6529 H   0  0  0  0  0  0  0  0  0  0  0  0
    3.5129   -3.9307    0.9305 H   0  0  0  0  0  0  0  0  0  0  0  0
    3.0214   -0.5474   -0.7111 H   0  0  0  0  0  0  0  0  0  0  0  0
    1.6241   -3.1245    0.2771 H   0  0  0  0  0  0  0  0  0  0  0  0
    0.6779   -0.3431   -0.5748 H   0  0  0  0  0  0  0  0  0  0  0  0
   -0.6144   -3.9350   -0.1860 H   0  0  0  0  0  0  0  0  0  0  0  0
   -0.4666   -3.3619    1.4942 H   0  0  0  0  0  0  0  0  0  0  0  0
   -2.0390   -3.4793    0.7282 H   0  0  0  0  0  0  0  0  0  0  0  0
   -1.5478    0.0727   -0.5309 H   0  0  0  0  0  0  0  0  0  0  0  0
   -3.5587   -2.0985    0.3903 H   0  0  0  0  0  0  0  0  0  0  0  0
   -3.8080    0.7881   -0.5812 H   0  0  0  0  0  0  0  0  0  0  0  0
   -5.8181   -1.3827    0.3431 H   0  0  0  0  0  0  0  0  0  0  0  0
   -8.0418   -0.9639    0.4001 H   0  0  0  0  0  0  0  0  0  0  0  0
   -5.3291    2.1665   -0.9240 H   0  0  0  0  0  0  0  0  0  0  0  0
   -6.7545    2.6248   -0.0125 H   0  0  0  0  0  0  0  0  0  0  0  0
   -6.9009    2.0448   -1.6906 H   0  0  0  0  0  0  0  0  0  0  0  0
   -8.9815    1.8021   -0.4839 H   0  0  0  0  0  0  0  0  0  0  0  0
  -10.3858   -0.7673    0.5344 H   0  0  0  0  0  0  0  0  0  0  0  0
  -10.7066    2.8173   -0.5806 H   0  0  0  0  0  0  0  0  0  0  0  0
  -12.1440    2.9332    0.4038 H   0  0  0  0  0  0  0  0  0  0  0  0
  -12.2519    2.3985   -1.2884 H   0  0  0  0  0  0  0  0  0  0  0  0
  -14.7311    0.6640    0.4757 H   0  0  0  0  0  0  0  0  0  0  0  0
  1 12  1  0  0  0  0
  1 14  1  0  0  0  0
  2 10  1  0  0  0  0
  2 43  1  0  0  0  0
  3 11  1  0  0  0  0
  3 44  1  0  0  0  0
  4 13  1  0  0  0  0
  4 45  1  0  0  0  0
  5 14  1  0  0  0  0
  5 16  1  0  0  0  0
  6 15  1  0  0  0  0
  6 46  1  0  0  0  0
  7 16  2  0  0  0  0
  8 35  1  0  0  0  0
  8 69  1  0  0  0  0
  9 35  2  0  0  0  0
 10 11  1  0  0  0  0
 10 12  1  0  0  0  0
 10 36  1  0  0  0  0
 11 13  1  0  0  0  0
 11 37  1  0  0  0  0
 12 15  1  0  0  0  0
 12 38  1  0  0  0  0
 13 14  1  0  0  0  0
 13 39  1  0  0  0  0
 14 40  1  0  0  0  0
 15 41  1  0  0  0  0
 15 42  1  0  0  0  0
 16 17  1  0  0  0  0
 17 18  1  0  0  0  0
 17 19  2  0  0  0  0
 18 47  1  0  0  0  0
 18 48  1  0  0  0  0
 18 49  1  0  0  0  0
 19 20  1  0  0  0  0
 19 50  1  0  0  0  0
 20 21  2  0  0  0  0
 20 51  1  0  0  0  0
 21 22  1  0  0  0  0
 21 52  1  0  0  0  0
 22 23  1  0  0  0  0
 22 24  2  0  0  0  0
 23 53  1  0  0  0  0
 23 54  1  0  0  0  0
 23 55  1  0  0  0  0
 24 25  1  0  0  0  0
 24 56  1  0  0  0  0
 25 26  2  0  0  0  0
 25 57  1  0  0  0  0
 26 28  1  0  0  0  0
 26 58  1  0  0  0  0
 27 28  2  0  0  0  0
 27 29  1  0  0  0  0
 27 30  1  0  0  0  0
 28 59  1  0  0  0  0
 29 31  2  0  0  0  0
 29 60  1  0  0  0  0
 30 61  1  0  0  0  0
 30 62  1  0  0  0  0
 30 63  1  0  0  0  0
 31 32  1  0  0  0  0
 31 64  1  0  0  0  0
 32 33  2  0  0  0  0
 32 65  1  0  0  0  0
 33 34  1  0  0  0  0
 33 35  1  0  0  0  0
 34 66  1  0  0  0  0
 34 67  1  0  0  0  0
 34 68  1  0  0  0  0
M  END
> <PUBCHEM_COMPOUND_CID>
10368299

> <PUBCHEM_CONFORMER_RMSD>
1.2

> <PUBCHEM_CONFORMER_DIVERSEORDER>
1
54
19
4
137
18
76
128
14
145
140
67
85
5
53
82
108
20
78
73
105
92
49
133
10
46
124
34
139
110
7
115
112
2
90
77
56
23
144
91
130
63
43
11
125
26
136
102
100
68
44
71
134
21
35
129
72
3
83
146
79
74
114
95
84
16
24
30
17
141
29
51
37
13
22
94
65
60
59
47
109
69
27
8
143
87
58
15
120
57
39
42
25
33
113
50
135
119
116
28
6
40
36
62
111
38
132
107
88
138
12
70
93
96
48
32
80
126
45
66
55
147
89
75
101
52
41
123
9
81
142
122
31
99
64
106
127
104
103
97
121
61
131
117
118
86
98

> <PUBCHEM_MMFF94_PARTIAL_CHARGES>
50
1 -0.56
10 0.28
11 0.28
12 0.28
13 0.28
14 0.56
15 0.28
16 0.71
17 -0.12
18 0.14
19 -0.15
2 -0.68
20 -0.15
21 -0.15
22 -0.14
23 0.14
24 -0.15
25 -0.15
26 -0.15
27 -0.14
28 -0.15
29 -0.15
3 -0.68
30 0.14
31 -0.15
32 -0.15
33 -0.12
34 0.14
35 0.71
4 -0.68
43 0.4
44 0.4
45 0.4
46 0.4
5 -0.43
50 0.15
51 0.15
52 0.15
56 0.15
57 0.15
58 0.15
59 0.15
6 -0.68
60 0.15
64 0.15
65 0.15
69 0.5
7 -0.57
8 -0.65
9 -0.57

> <PUBCHEM_EFFECTIVE_ROTOR_COUNT>
12.2

> <PUBCHEM_PHARMACOPHORE_FEATURES>
18
1 1 acceptor
1 18 hydrophobe
1 2 acceptor
1 2 donor
1 23 hydrophobe
1 3 acceptor
1 3 donor
1 30 hydrophobe
1 34 hydrophobe
1 4 acceptor
1 4 donor
1 6 acceptor
1 6 donor
1 7 acceptor
1 8 acceptor
1 9 acceptor
3 8 9 35 anion
6 1 10 11 12 13 14 rings

> <PUBCHEM_HEAVY_ATOM_COUNT>
35

> <PUBCHEM_ATOM_DEF_STEREO_COUNT>
5

> <PUBCHEM_ATOM_UDEF_STEREO_COUNT>
0

> <PUBCHEM_BOND_DEF_STEREO_COUNT>
7

> <PUBCHEM_BOND_UDEF_STEREO_COUNT>
0

> <PUBCHEM_ISOTOPIC_ATOM_COUNT>
0

> <PUBCHEM_COMPONENT_COUNT>
1

> <PUBCHEM_CACTVS_TAUTO_COUNT>
1

> <PUBCHEM_CONFORMER_ID>
009E352B00000001

> <PUBCHEM_MMFF94_ENERGY>
82.2172

> <PUBCHEM_FEATURE_SELFOVERLAP>
91.413

> <PUBCHEM_SHAPE_FINGERPRINT>
11061554 47 18202285840683385845
11211813 74 18407477756503050252
11421887 21 18186792570776077184
11966995 178 18410568501063881118
12013929 94 18410008829326333075
12539745 222 11815906669390016791
131240 100 18341890780601397531
13740195 50 18272929419928993075
14251920 17 18409167706687253807
14344974 52 18409448081968188071
14617042 71 18409445882390940685
15061470 23 18408886274882054513
15065858 18 18059856212855167159
15145344 44 18113614586446393857
155225 1 18334576850074048779
15840311 113 18411414033694941318
16087824 20 18410855422988180556
16728433 110 18412263957063679389
17686467 74 17988921194408624525
19302320 297 18131351874319435188
20501277 279 18413670219302822025
20587220 17 17821447942499574772
20812841 46 18202005443896440602
21362267 2 18339936969624318205
21792934 111 18202561787593711006
22082593 45 16955325439063752318
5028188 123 17749394750919046367
67123 10 18412542146638841607

> <PUBCHEM_SHAPE_MULTIPOLES>
667.46
57.95
3.69
0.78
139.19
0.61
0.01
37.9
-9.55
-10.03
-0.12
-0.41
0.02
1.59

> <PUBCHEM_SHAPE_SELFOVERLAP>
1349.053

> <PUBCHEM_SHAPE_VOLUME>
385.2

> <PUBCHEM_COORDINATE_TYPE>
2
5
10

$$$$

