583253
  -OEChem-06241222453D

 27 27  0     1  0  0  0  0  0999 V2000
   -1.8898   -1.8337    0.0687 O   0  0  0  0  0  0  0  0  0  0  0  0
    5.1706    0.3854    0.4288 N   0  0  0  0  0  0  0  0  0  0  0  0
   -2.4530    0.5427    0.1236 C   0  0  1  0  0  0  0  0  0  0  0  0
   -1.5706   -0.5637   -0.5088 C   0  0  1  0  0  0  0  0  0  0  0  0
   -0.0853   -0.3558   -0.3023 C   0  0  0  0  0  0  0  0  0  0  0  0
   -2.1447    1.9314   -0.4486 C   0  0  0  0  0  0  0  0  0  0  0  0
   -3.9189    0.2489   -0.1129 C   0  0  0  0  0  0  0  0  0  0  0  0
    0.7480   -0.2972   -1.4054 C   0  0  0  0  0  0  0  0  0  0  0  0
    0.4055   -0.2281    0.9852 C   0  0  0  0  0  0  0  0  0  0  0  0
    2.1164   -0.1050   -1.2150 C   0  0  0  0  0  0  0  0  0  0  0  0
    1.7740   -0.0359    1.1756 C   0  0  0  0  0  0  0  0  0  0  0  0
    2.6293    0.0256    0.0754 C   0  0  0  0  0  0  0  0  0  0  0  0
   -4.8125    0.0613    0.8653 C   0  0  0  0  0  0  0  0  0  0  0  0
    4.0310    0.2241    0.2704 C   0  0  0  0  0  0  0  0  0  0  0  0
   -2.2830    0.5741    1.2077 H   0  0  0  0  0  0  0  0  0  0  0  0
   -1.7976   -0.6391   -1.5803 H   0  0  0  0  0  0  0  0  0  0  0  0
   -1.1247    2.2453   -0.2050 H   0  0  0  0  0  0  0  0  0  0  0  0
   -2.2509    1.9475   -1.5394 H   0  0  0  0  0  0  0  0  0  0  0  0
   -2.8225    2.6867   -0.0345 H   0  0  0  0  0  0  0  0  0  0  0  0
   -4.2593    0.1883   -1.1440 H   0  0  0  0  0  0  0  0  0  0  0  0
    0.3600   -0.3969   -2.4148 H   0  0  0  0  0  0  0  0  0  0  0  0
   -0.2434   -0.2851    1.8537 H   0  0  0  0  0  0  0  0  0  0  0  0
   -1.2787   -2.4952   -0.2988 H   0  0  0  0  0  0  0  0  0  0  0  0
    2.7704   -0.0587   -2.0826 H   0  0  0  0  0  0  0  0  0  0  0  0
    2.1592    0.0620    2.1878 H   0  0  0  0  0  0  0  0  0  0  0  0
   -5.8502   -0.1462    0.6282 H   0  0  0  0  0  0  0  0  0  0  0  0
   -4.5290    0.1101    1.9107 H   0  0  0  0  0  0  0  0  0  0  0  0
  1  4  1  0  0  0  0
  1 23  1  0  0  0  0
  2 14  3  0  0  0  0
  3  4  1  0  0  0  0
  3  6  1  0  0  0  0
  3  7  1  0  0  0  0
  3 15  1  0  0  0  0
  4  5  1  0  0  0  0
  4 16  1  0  0  0  0
  5  8  2  0  0  0  0
  5  9  1  0  0  0  0
  6 17  1  0  0  0  0
  6 18  1  0  0  0  0
  6 19  1  0  0  0  0
  7 13  2  0  0  0  0
  7 20  1  0  0  0  0
  8 10  1  0  0  0  0
  8 21  1  0  0  0  0
  9 11  2  0  0  0  0
  9 22  1  0  0  0  0
 10 12  2  0  0  0  0
 10 24  1  0  0  0  0
 11 12  1  0  0  0  0
 11 25  1  0  0  0  0
 12 14  1  0  0  0  0
 13 26  1  0  0  0  0
 13 27  1  0  0  0  0
M  END
> <PUBCHEM_COMPOUND_CID>
583253

> <PUBCHEM_CONFORMER_RMSD>
0.6

> <PUBCHEM_CONFORMER_DIVERSEORDER>
1
16
11
14
5
8
13
12
3
9
10
6
4
15
7
2

> <PUBCHEM_MMFF94_PARTIAL_CHARGES>
21
1 -0.68
10 -0.15
11 -0.15
12 0.07
13 -0.3
14 0.48
2 -0.56
20 0.15
21 0.15
22 0.15
23 0.4
24 0.15
25 0.15
26 0.15
27 0.15
3 0.14
4 0.42
5 -0.14
7 -0.29
8 -0.15
9 -0.15

> <PUBCHEM_EFFECTIVE_ROTOR_COUNT>
3

> <PUBCHEM_PHARMACOPHORE_FEATURES>
6
1 1 acceptor
1 1 donor
1 13 hydrophobe
1 2 acceptor
1 6 hydrophobe
6 5 8 9 10 11 12 rings

> <PUBCHEM_HEAVY_ATOM_COUNT>
14

> <PUBCHEM_ATOM_DEF_STEREO_COUNT>
0

> <PUBCHEM_ATOM_UDEF_STEREO_COUNT>
2

> <PUBCHEM_BOND_DEF_STEREO_COUNT>
0

> <PUBCHEM_BOND_UDEF_STEREO_COUNT>
0

> <PUBCHEM_ISOTOPIC_ATOM_COUNT>
0

> <PUBCHEM_COMPONENT_COUNT>
1

> <PUBCHEM_CACTVS_TAUTO_COUNT>
1

> <PUBCHEM_CONFORMER_ID>
0008E65500000001

> <PUBCHEM_MMFF94_ENERGY>
29.2747

> <PUBCHEM_FEATURE_SELFOVERLAP>
30.446

> <PUBCHEM_SHAPE_FINGERPRINT>
11031198 65 16660641868982440341
11471102 20 16226044521967945788
12032990 46 14979685428928244674
12236239 1 17561365075964417323
12251169 10 18131351899334416372
124424 183 17894353280664717282
13581323 91 18272089409180495871
13675066 3 17561084717520922180
13760787 19 18333733490464884254
14252887 29 16558752355793412610
14911166 2 15430036535400518768
14943859 89 18408606958923317018
15219456 202 17968093191490215452
15375462 478 17418374714032513821
16945 1 18412548712646434919
17862501 102 17131833161686484033
18186145 218 15285657502671809336
18522853 276 17703789223467392941
187816 3 8935001460771364537
200 152 15985106297480497297
20279233 1 17603578612725398166
20510252 161 18335983185444018089
20645477 56 18407479951057330220
20645477 70 16370996460294735318
23402539 116 18409456877496331501
23402655 69 15647049421633592505
23557571 272 18114176372336193119
23559900 14 18040711477215243638
25 1 16515405196146890407
26918003 58 16128369372888177049
2748010 2 15359973352418417842
3286 77 14907890553396705831
4047638 21 17968088737682988694
4072396 5 16443352030837780310
449060 50 18341896294474079350
528886 8 15719398342823205495

> <PUBCHEM_SHAPE_MULTIPOLES>
277.26
8.47
1.15
1.14
1.03
0.09
0.12
-1.99
1.55
0.29
-0.04
-0.89
0.14
-0.3

> <PUBCHEM_SHAPE_SELFOVERLAP>
568.512

> <PUBCHEM_SHAPE_VOLUME>
158.6

> <PUBCHEM_COORDINATE_TYPE>
2
5
10

$$$$

