17395268
  -OEChem-06241222493D

 63 66  0     0  0  0  0  0  0999 V2000
   -5.8249    0.5256    1.1084 S   0  0  0  0  0  0  0  0  0  0  0  0
   -7.1641    0.1554    0.6727 O   0  0  0  0  0  0  0  0  0  0  0  0
   -5.5127    0.5674    2.5302 O   0  0  0  0  0  0  0  0  0  0  0  0
   -1.1280   -2.7550    1.6832 O   0  0  0  0  0  0  0  0  0  0  0  0
   -5.4174    2.0222    0.4167 N   0  0  0  0  0  0  0  0  0  0  0  0
   -0.1556   -0.9544    0.5533 N   0  0  0  0  0  0  0  0  0  0  0  0
    2.2200    0.1238   -0.6293 N   0  0  0  0  0  0  0  0  0  0  0  0
   -5.8118    2.2626   -0.9987 C   0  0  0  0  0  0  0  0  0  0  0  0
   -4.0301    2.5349    0.6154 C   0  0  0  0  0  0  0  0  0  0  0  0
   -4.8570    3.3496   -1.4661 C   0  0  0  0  0  0  0  0  0  0  0  0
   -3.5656    2.9710   -0.7678 C   0  0  0  0  0  0  0  0  0  0  0  0
    1.1353   -1.0859    1.2253 C   0  0  0  0  0  0  0  0  0  0  0  0
   -0.2427    0.1649   -0.3912 C   0  0  0  0  0  0  0  0  0  0  0  0
    2.2877   -1.0727    0.2223 C   0  0  0  0  0  0  0  0  0  0  0  0
    0.9437    0.1643   -1.3576 C   0  0  0  0  0  0  0  0  0  0  0  0
   -4.6780   -0.5286    0.3197 C   0  0  0  0  0  0  0  0  0  0  0  0
   -1.2014   -1.8165    0.8912 C   0  0  0  0  0  0  0  0  0  0  0  0
   -2.5116   -1.5969    0.2645 C   0  0  0  0  0  0  0  0  0  0  0  0
    3.3453    0.1543   -1.5626 C   0  0  0  0  0  0  0  0  0  0  0  0
   -3.4274   -0.7545    0.8950 C   0  0  0  0  0  0  0  0  0  0  0  0
   -5.0129   -1.1453   -0.8857 C   0  0  0  0  0  0  0  0  0  0  0  0
   -2.8466   -2.2134   -0.9412 C   0  0  0  0  0  0  0  0  0  0  0  0
   -4.0972   -1.9876   -1.5162 C   0  0  0  0  0  0  0  0  0  0  0  0
    4.6099    0.5938   -0.8859 C   0  0  0  0  0  0  0  0  0  0  0  0
   -1.8846   -3.1196   -1.6381 C   0  0  0  0  0  0  0  0  0  0  0  0
    5.7158   -0.1650   -0.8281 C   0  0  0  0  0  0  0  0  0  0  0  0
    6.9840    0.2282   -0.1914 C   0  0  0  0  0  0  0  0  0  0  0  0
    7.0010    1.2530    0.7549 C   0  0  0  0  0  0  0  0  0  0  0  0
    8.1685   -0.4239   -0.5344 C   0  0  0  0  0  0  0  0  0  0  0  0
    8.2022    1.6258    1.3579 C   0  0  0  0  0  0  0  0  0  0  0  0
    9.3697   -0.0511    0.0688 C   0  0  0  0  0  0  0  0  0  0  0  0
    9.3864    0.9737    1.0149 C   0  0  0  0  0  0  0  0  0  0  0  0
   -5.6842    1.3723   -1.6169 H   0  0  0  0  0  0  0  0  0  0  0  0
   -6.8519    2.5950   -1.0559 H   0  0  0  0  0  0  0  0  0  0  0  0
   -4.0992    3.4040    1.2802 H   0  0  0  0  0  0  0  0  0  0  0  0
   -3.3330    1.8363    1.0719 H   0  0  0  0  0  0  0  0  0  0  0  0
   -5.1992    4.3326   -1.1209 H   0  0  0  0  0  0  0  0  0  0  0  0
   -4.7583    3.3813   -2.5546 H   0  0  0  0  0  0  0  0  0  0  0  0
   -3.0920    2.1289   -1.2869 H   0  0  0  0  0  0  0  0  0  0  0  0
   -2.8471    3.7942   -0.7269 H   0  0  0  0  0  0  0  0  0  0  0  0
    1.2234   -0.2440    1.9230 H   0  0  0  0  0  0  0  0  0  0  0  0
    1.1701   -2.0056    1.8184 H   0  0  0  0  0  0  0  0  0  0  0  0
   -0.2492    1.0856    0.2054 H   0  0  0  0  0  0  0  0  0  0  0  0
   -1.1742    0.1425   -0.9608 H   0  0  0  0  0  0  0  0  0  0  0  0
    2.2492   -1.9851   -0.3880 H   0  0  0  0  0  0  0  0  0  0  0  0
    3.2249   -1.0955    0.7900 H   0  0  0  0  0  0  0  0  0  0  0  0
    0.8856    1.0739   -1.9675 H   0  0  0  0  0  0  0  0  0  0  0  0
    0.8625   -0.6944   -2.0372 H   0  0  0  0  0  0  0  0  0  0  0  0
    3.4674   -0.8074   -2.0782 H   0  0  0  0  0  0  0  0  0  0  0  0
    3.1557    0.8979   -2.3485 H   0  0  0  0  0  0  0  0  0  0  0  0
   -3.1573   -0.2933    1.8416 H   0  0  0  0  0  0  0  0  0  0  0  0
   -5.9820   -0.9899   -1.3509 H   0  0  0  0  0  0  0  0  0  0  0  0
   -4.3745   -2.4602   -2.4547 H   0  0  0  0  0  0  0  0  0  0  0  0
    4.5876    1.5945   -0.4638 H   0  0  0  0  0  0  0  0  0  0  0  0
   -2.3242   -3.5654   -2.5370 H   0  0  0  0  0  0  0  0  0  0  0  0
   -1.5876   -3.9447   -0.9824 H   0  0  0  0  0  0  0  0  0  0  0  0
   -0.9932   -2.5667   -1.9508 H   0  0  0  0  0  0  0  0  0  0  0  0
    5.7067   -1.1495   -1.2905 H   0  0  0  0  0  0  0  0  0  0  0  0
    6.1012    1.7741    1.0683 H   0  0  0  0  0  0  0  0  0  0  0  0
    8.1745   -1.2240   -1.2706 H   0  0  0  0  0  0  0  0  0  0  0  0
    8.2153    2.4204    2.0982 H   0  0  0  0  0  0  0  0  0  0  0  0
   10.2921   -0.5586   -0.1981 H   0  0  0  0  0  0  0  0  0  0  0  0
   10.3216    1.2632    1.4853 H   0  0  0  0  0  0  0  0  0  0  0  0
  1  2  2  0  0  0  0
  1  3  2  0  0  0  0
  1  5  1  0  0  0  0
  1 16  1  0  0  0  0
  4 17  2  0  0  0  0
  5  8  1  0  0  0  0
  5  9  1  0  0  0  0
  6 12  1  0  0  0  0
  6 13  1  0  0  0  0
  6 17  1  0  0  0  0
  7 14  1  0  0  0  0
  7 15  1  0  0  0  0
  7 19  1  0  0  0  0
  8 10  1  0  0  0  0
  8 33  1  0  0  0  0
  8 34  1  0  0  0  0
  9 11  1  0  0  0  0
  9 35  1  0  0  0  0
  9 36  1  0  0  0  0
 10 11  1  0  0  0  0
 10 37  1  0  0  0  0
 10 38  1  0  0  0  0
 11 39  1  0  0  0  0
 11 40  1  0  0  0  0
 12 14  1  0  0  0  0
 12 41  1  0  0  0  0
 12 42  1  0  0  0  0
 13 15  1  0  0  0  0
 13 43  1  0  0  0  0
 13 44  1  0  0  0  0
 14 45  1  0  0  0  0
 14 46  1  0  0  0  0
 15 47  1  0  0  0  0
 15 48  1  0  0  0  0
 16 20  2  0  0  0  0
 16 21  1  0  0  0  0
 17 18  1  0  0  0  0
 18 20  1  0  0  0  0
 18 22  2  0  0  0  0
 19 24  1  0  0  0  0
 19 49  1  0  0  0  0
 19 50  1  0  0  0  0
 20 51  1  0  0  0  0
 21 23  2  0  0  0  0
 21 52  1  0  0  0  0
 22 23  1  0  0  0  0
 22 25  1  0  0  0  0
 23 53  1  0  0  0  0
 24 26  2  0  0  0  0
 24 54  1  0  0  0  0
 25 55  1  0  0  0  0
 25 56  1  0  0  0  0
 25 57  1  0  0  0  0
 26 27  1  0  0  0  0
 26 58  1  0  0  0  0
 27 28  2  0  0  0  0
 27 29  1  0  0  0  0
 28 30  1  0  0  0  0
 28 59  1  0  0  0  0
 29 31  2  0  0  0  0
 29 60  1  0  0  0  0
 30 32  2  0  0  0  0
 30 61  1  0  0  0  0
 31 32  1  0  0  0  0
 31 62  1  0  0  0  0
 32 63  1  0  0  0  0
M  END
> <PUBCHEM_COMPOUND_CID>
17395268

> <PUBCHEM_CONFORMER_RMSD>
1.2

> <PUBCHEM_CONFORMER_DIVERSEORDER>
1
25
54
28
16
64
7
18
43
50
13
65
47
40
55
59
49
26
44
23
21
60
30
48
37
12
41
38
14
42
62
27
45
51
22
66
39
20
56
63
52
57
32
10
4
36
61
8
6
46
34
19
29
11
24
53
2
35
31
5
33
9
58
15
17
3

> <PUBCHEM_MMFF94_PARTIAL_CHARGES>
40
1 1.45
12 0.3
13 0.3
14 0.27
15 0.27
16 -0.01
17 0.54
18 0.09
19 0.41
2 -0.65
20 -0.15
21 -0.15
22 -0.14
23 -0.15
24 -0.29
25 0.14
26 -0.18
27 0.03
28 -0.15
29 -0.15
3 -0.65
30 -0.15
31 -0.15
32 -0.15
4 -0.57
5 -0.85
51 0.15
52 0.15
53 0.15
54 0.15
58 0.15
59 0.15
6 -0.66
60 0.15
61 0.15
62 0.15
63 0.15
7 -0.81
8 0.36
9 0.36

> <PUBCHEM_EFFECTIVE_ROTOR_COUNT>
9.2

> <PUBCHEM_PHARMACOPHORE_FEATURES>
8
1 2 acceptor
1 3 acceptor
1 4 acceptor
1 7 cation
5 5 8 9 10 11 rings
6 16 18 20 21 22 23 rings
6 27 28 29 30 31 32 rings
6 6 7 12 13 14 15 rings

> <PUBCHEM_HEAVY_ATOM_COUNT>
32

> <PUBCHEM_ATOM_DEF_STEREO_COUNT>
0

> <PUBCHEM_ATOM_UDEF_STEREO_COUNT>
0

> <PUBCHEM_BOND_DEF_STEREO_COUNT>
1

> <PUBCHEM_BOND_UDEF_STEREO_COUNT>
0

> <PUBCHEM_ISOTOPIC_ATOM_COUNT>
0

> <PUBCHEM_COMPONENT_COUNT>
1

> <PUBCHEM_CACTVS_TAUTO_COUNT>
1

> <PUBCHEM_CONFORMER_ID>
01096E4400000001

> <PUBCHEM_MMFF94_ENERGY>
71.7112

> <PUBCHEM_FEATURE_SELFOVERLAP>
40.612

> <PUBCHEM_SHAPE_FINGERPRINT>
10165383 225 17822004342548579179
10369192 42 17967806185550389901
10554248 39 16153697753111232748
10670039 82 18409454674394503199
10835480 77 17313096454472587718
10951579 204 18126266757642567652
11135926 11 17489316282768920090
11136131 41 17559400360128476666
11315181 36 15791724170580771242
12082328 90 18187649076568108558
12838862 33 18201726197707440197
13914758 101 18410575077038612538
14400156 162 14045750339104862665
15021287 119 17060331925202153908
15131766 46 15120660243827732142
15183329 4 17274829030626505654
15328829 1 17846501461145975696
17686467 74 18043540412752854907
20511986 3 18186523207248315326
21223535 225 18342181076734013404
21756936 100 18272649048184000939
21927370 108 18198055869159533843
23522609 53 16557597813219159182
23559900 14 16515687723343804667
2838139 119 18343017766253828692
4093350 32 18410011074892829938
444769 64 17346600764124979222
445580 204 18342741827205151847
44575985 13 15647055932820020196
44802255 64 18113339712986930303
4625314 4 17895191066487851190
5047190 69 18411705396087799920
54039377 194 6699515139899882949
6201320 215 18339368582009976912
999808 66 12103845661710636720

> <PUBCHEM_SHAPE_MULTIPOLES>
629.84
26.31
3.09
1.67
63.99
0.78
0.21
13.56
4.82
-6.43
-0.84
-1.28
-0.11
1.05

> <PUBCHEM_SHAPE_SELFOVERLAP>
1322.541

> <PUBCHEM_SHAPE_VOLUME>
355.7

> <PUBCHEM_COORDINATE_TYPE>
2
5
10

$$$$

