6297
  -OEChem-06261201142D

 86 91  0     0  0  0  0  0  0999 V2000
    5.5223   -0.9791    0.0000 S   0  0  0  0  0  0  0  0  0  0  0  0
   13.3166    5.5209    0.0000 S   0  0  0  0  0  0  0  0  0  0  0  0
    2.8703   -5.5242    0.0000 S   0  0  0  0  0  0  0  0  0  0  0  0
   18.5787    5.5450    0.0000 S   0  0  0  0  0  0  0  0  0  0  0  0
    7.2544   -3.9791    0.0000 O   0  0  0  0  0  0  0  0  0  0  0  0
   15.0486    2.5209    0.0000 O   0  0  0  0  0  0  0  0  0  0  0  0
    5.5223    0.0209    0.0000 O   0  0  0  0  0  0  0  0  0  0  0  0
   12.4505    6.0209    0.0000 O   0  0  0  0  0  0  0  0  0  0  0  0
    2.0024   -6.0209    0.0000 O   0  0  0  0  0  0  0  0  0  0  0  0
   19.4428    6.0484    0.0000 O   0  0  0  0  0  0  0  0  0  0  0  0
    4.5223   -0.9791    0.0000 O   0  0  0  0  0  0  0  0  0  0  0  0
    6.5223   -0.9791    0.0000 O   0  0  0  0  0  0  0  0  0  0  0  0
   13.8166    6.3869    0.0000 O   0  0  0  0  0  0  0  0  0  0  0  0
   12.8166    4.6549    0.0000 O   0  0  0  0  0  0  0  0  0  0  0  0
    3.3670   -6.3922    0.0000 O   0  0  0  0  0  0  0  0  0  0  0  0
    2.3737   -4.6563    0.0000 O   0  0  0  0  0  0  0  0  0  0  0  0
   19.0821    4.6809    0.0000 O   0  0  0  0  0  0  0  0  0  0  0  0
   18.0754    6.4091    0.0000 O   0  0  0  0  0  0  0  0  0  0  0  0
    6.4101   -5.5106    0.0000 N   0  0  0  0  0  0  0  0  0  0  0  0
   16.7970    2.4863    0.0000 N   0  0  0  0  0  0  0  0  0  0  0  0
    7.2544   -1.9791    0.0000 N   0  0  0  0  0  0  0  0  0  0  0  0
   13.3166    3.5209    0.0000 N   0  0  0  0  0  0  0  0  0  0  0  0
    7.2544   -0.9791    0.0000 N   0  0  0  0  0  0  0  0  0  0  0  0
   13.3166    2.5209    0.0000 N   0  0  0  0  0  0  0  0  0  0  0  0
    5.5223   -3.9791    0.0000 C   0  0  0  0  0  0  0  0  0  0  0  0
   15.9146    4.0209    0.0000 C   0  0  0  0  0  0  0  0  0  0  0  0
    4.6563   -3.4791    0.0000 C   0  0  0  0  0  0  0  0  0  0  0  0
   15.9146    5.0209    0.0000 C   0  0  0  0  0  0  0  0  0  0  0  0
    5.5223   -1.9791    0.0000 C   0  0  0  0  0  0  0  0  0  0  0  0
   14.1826    5.0209    0.0000 C   0  0  0  0  0  0  0  0  0  0  0  0
    6.3884   -3.4791    0.0000 C   0  0  0  0  0  0  0  0  0  0  0  0
   15.0486    3.5209    0.0000 C   0  0  0  0  0  0  0  0  0  0  0  0
    5.5384   -5.0206    0.0000 C   0  0  0  0  0  0  0  0  0  0  0  0
   16.8086    3.4862    0.0000 C   0  0  0  0  0  0  0  0  0  0  0  0
    4.6563   -2.4791    0.0000 C   0  0  0  0  0  0  0  0  0  0  0  0
   15.0486    5.5209    0.0000 C   0  0  0  0  0  0  0  0  0  0  0  0
    6.3884   -2.4791    0.0000 C   0  0  0  0  0  0  0  0  0  0  0  0
   14.1826    4.0209    0.0000 C   0  0  0  0  0  0  0  0  0  0  0  0
    3.7463   -3.9860    0.0000 C   0  0  0  0  0  0  0  0  0  0  0  0
   16.8086    5.5555    0.0000 C   0  0  0  0  0  0  0  0  0  0  0  0
    3.7383   -5.0276    0.0000 C   0  0  0  0  0  0  0  0  0  0  0  0
   17.7147    5.0417    0.0000 C   0  0  0  0  0  0  0  0  0  0  0  0
    4.6404   -5.5484    0.0000 C   0  0  0  0  0  0  0  0  0  0  0  0
   17.7147    4.0001    0.0000 C   0  0  0  0  0  0  0  0  0  0  0  0
    9.8525    0.5209    0.0000 C   0  0  0  0  0  0  0  0  0  0  0  0
   10.7185    1.0209    0.0000 C   0  0  0  0  0  0  0  0  0  0  0  0
    8.1204    0.5209    0.0000 C   0  0  0  0  0  0  0  0  0  0  0  0
   12.4505    1.0209    0.0000 C   0  0  0  0  0  0  0  0  0  0  0  0
    8.1204   -0.4791    0.0000 C   0  0  0  0  0  0  0  0  0  0  0  0
   12.4505    2.0209    0.0000 C   0  0  0  0  0  0  0  0  0  0  0  0
    8.9864    1.0209    0.0000 C   0  0  0  0  0  0  0  0  0  0  0  0
   11.5845    0.5209    0.0000 C   0  0  0  0  0  0  0  0  0  0  0  0
    9.8525   -0.4791    0.0000 C   0  0  0  0  0  0  0  0  0  0  0  0
   10.7185    2.0209    0.0000 C   0  0  0  0  0  0  0  0  0  0  0  0
    8.9864   -0.9791    0.0000 C   0  0  0  0  0  0  0  0  0  0  0  0
   11.5845    2.5209    0.0000 C   0  0  0  0  0  0  0  0  0  0  0  0
    7.2544    1.0209    0.0000 C   0  0  0  0  0  0  0  0  0  0  0  0
   13.3166    0.5209    0.0000 C   0  0  0  0  0  0  0  0  0  0  0  0
    4.1194   -2.1691    0.0000 H   0  0  0  0  0  0  0  0  0  0  0  0
   15.0486    6.1409    0.0000 H   0  0  0  0  0  0  0  0  0  0  0  0
    3.2130   -3.6698    0.0000 H   0  0  0  0  0  0  0  0  0  0  0  0
   16.8014    6.1755    0.0000 H   0  0  0  0  0  0  0  0  0  0  0  0
    4.6428   -6.1684    0.0000 H   0  0  0  0  0  0  0  0  0  0  0  0
   18.2504    3.6880    0.0000 H   0  0  0  0  0  0  0  0  0  0  0  0
    6.4173   -6.1305    0.0000 H   0  0  0  0  0  0  0  0  0  0  0  0
    6.9435   -5.1944    0.0000 H   0  0  0  0  0  0  0  0  0  0  0  0
   17.3303    2.1701    0.0000 H   0  0  0  0  0  0  0  0  0  0  0  0
   16.2565    2.1825    0.0000 H   0  0  0  0  0  0  0  0  0  0  0  0
    8.9864    1.6409    0.0000 H   0  0  0  0  0  0  0  0  0  0  0  0
   11.5845   -0.0991    0.0000 H   0  0  0  0  0  0  0  0  0  0  0  0
   10.3894   -0.7891    0.0000 H   0  0  0  0  0  0  0  0  0  0  0  0
   10.1816    2.3309    0.0000 H   0  0  0  0  0  0  0  0  0  0  0  0
    7.7913   -3.6691    0.0000 H   0  0  0  0  0  0  0  0  0  0  0  0
   14.5117    2.2109    0.0000 H   0  0  0  0  0  0  0  0  0  0  0  0
    8.9864   -1.5991    0.0000 H   0  0  0  0  0  0  0  0  0  0  0  0
   11.5845    3.1409    0.0000 H   0  0  0  0  0  0  0  0  0  0  0  0
    7.5644    1.5578    0.0000 H   0  0  0  0  0  0  0  0  0  0  0  0
    6.7175    1.3309    0.0000 H   0  0  0  0  0  0  0  0  0  0  0  0
    6.9444    0.4839    0.0000 H   0  0  0  0  0  0  0  0  0  0  0  0
   13.0066   -0.0161    0.0000 H   0  0  0  0  0  0  0  0  0  0  0  0
   13.8535    0.2109    0.0000 H   0  0  0  0  0  0  0  0  0  0  0  0
   13.6266    1.0578    0.0000 H   0  0  0  0  0  0  0  0  0  0  0  0
    4.9854    0.3309    0.0000 H   0  0  0  0  0  0  0  0  0  0  0  0
   12.4505    6.6409    0.0000 H   0  0  0  0  0  0  0  0  0  0  0  0
    2.0000   -6.6409    0.0000 H   0  0  0  0  0  0  0  0  0  0  0  0
   19.9810    5.7404    0.0000 H   0  0  0  0  0  0  0  0  0  0  0  0
  1  7  1  0  0  0  0
  1 11  2  0  0  0  0
  1 12  2  0  0  0  0
  1 29  1  0  0  0  0
  2  8  1  0  0  0  0
  2 13  2  0  0  0  0
  2 14  2  0  0  0  0
  2 30  1  0  0  0  0
  3  9  1  0  0  0  0
  3 15  2  0  0  0  0
  3 16  2  0  0  0  0
  3 41  1  0  0  0  0
  4 10  1  0  0  0  0
  4 17  2  0  0  0  0
  4 18  2  0  0  0  0
  4 42  1  0  0  0  0
  5 31  1  0  0  0  0
  5 73  1  0  0  0  0
  6 32  1  0  0  0  0
  6 74  1  0  0  0  0
  7 83  1  0  0  0  0
  8 84  1  0  0  0  0
  9 85  1  0  0  0  0
 10 86  1  0  0  0  0
 19 33  1  0  0  0  0
 19 65  1  0  0  0  0
 19 66  1  0  0  0  0
 20 34  1  0  0  0  0
 20 67  1  0  0  0  0
 20 68  1  0  0  0  0
 21 23  2  0  0  0  0
 21 37  1  0  0  0  0
 22 24  2  0  0  0  0
 22 38  1  0  0  0  0
 23 49  1  0  0  0  0
 24 50  1  0  0  0  0
 25 27  1  0  0  0  0
 25 31  1  0  0  0  0
 25 33  2  0  0  0  0
 26 28  1  0  0  0  0
 26 32  1  0  0  0  0
 26 34  2  0  0  0  0
 27 35  1  0  0  0  0
 27 39  2  0  0  0  0
 28 36  1  0  0  0  0
 28 40  2  0  0  0  0
 29 35  2  0  0  0  0
 29 37  1  0  0  0  0
 30 36  2  0  0  0  0
 30 38  1  0  0  0  0
 31 37  2  0  0  0  0
 32 38  2  0  0  0  0
 33 43  1  0  0  0  0
 34 44  1  0  0  0  0
 35 59  1  0  0  0  0
 36 60  1  0  0  0  0
 39 41  1  0  0  0  0
 39 61  1  0  0  0  0
 40 42  1  0  0  0  0
 40 62  1  0  0  0  0
 41 43  2  0  0  0  0
 42 44  2  0  0  0  0
 43 63  1  0  0  0  0
 44 64  1  0  0  0  0
 45 46  1  0  0  0  0
 45 51  2  0  0  0  0
 45 53  1  0  0  0  0
 46 52  2  0  0  0  0
 46 54  1  0  0  0  0
 47 49  2  0  0  0  0
 47 51  1  0  0  0  0
 47 57  1  0  0  0  0
 48 50  2  0  0  0  0
 48 52  1  0  0  0  0
 48 58  1  0  0  0  0
 49 55  1  0  0  0  0
 50 56  1  0  0  0  0
 51 69  1  0  0  0  0
 52 70  1  0  0  0  0
 53 55  2  0  0  0  0
 53 71  1  0  0  0  0
 54 56  2  0  0  0  0
 54 72  1  0  0  0  0
 55 75  1  0  0  0  0
 56 76  1  0  0  0  0
 57 77  1  0  0  0  0
 57 78  1  0  0  0  0
 57 79  1  0  0  0  0
 58 80  1  0  0  0  0
 58 81  1  0  0  0  0
 58 82  1  0  0  0  0
M  END
> <PUBCHEM_COMPOUND_CID>
6297

> <PUBCHEM_COMPOUND_CANONICALIZED>
1

> <PUBCHEM_CACTVS_COMPLEXITY>
1840

> <PUBCHEM_CACTVS_HBOND_ACCEPTOR>
20

> <PUBCHEM_CACTVS_HBOND_DONOR>
8

> <PUBCHEM_CACTVS_ROTATABLE_BOND>
9

> <PUBCHEM_CACTVS_SUBSKEYS>
AAADceB/vABwAAAAAAAAAAAAAAAAAAAAAAAwYMGDAAAAAADBVAAAHgQYCAAADAyB2AAyx8BAAoKCAiRCQHDCAEAgIgAIiBwFbIgKJiKSkZOAcARm0BkI2AeQwPAOmAADxCAaEQAwAAeIQDQiAAAAAAAAAA==

> <PUBCHEM_IUPAC_OPENEYE_NAME>
5-amino-3-[4-[4-[(8-amino-1-hydroxy-3,6-disulfo-2-naphthyl)azo]-3-methyl-phenyl]-2-methyl-phenyl]azo-4-hydroxy-naphthalene-2,7-disulfonic acid

> <PUBCHEM_IUPAC_CAS_NAME>
5-amino-3-[4-[4-[(8-amino-1-hydroxy-3,6-disulfo-2-naphthalenyl)azo]-3-methylphenyl]-2-methylphenyl]azo-4-hydroxynaphthalene-2,7-disulfonic acid

> <PUBCHEM_IUPAC_NAME>
5-amino-3-[[4-[4-[(8-amino-1-hydroxy-3,6-disulfonaphthalen-2-yl)diazenyl]-3-methylphenyl]-2-methylphenyl]diazenyl]-4-hydroxynaphthalene-2,7-disulfonic acid

> <PUBCHEM_IUPAC_SYSTEMATIC_NAME>
5-azanyl-3-[[4-[4-[(8-azanyl-1-oxidanyl-3,6-disulfo-naphthalen-2-yl)diazenyl]-3-methyl-phenyl]-2-methyl-phenyl]diazenyl]-4-oxidanyl-naphthalene-2,7-disulfonic acid

> <PUBCHEM_IUPAC_TRADITIONAL_NAME>
5-amino-3-[4-[4-[(8-amino-1-hydroxy-3,6-disulfo-2-naphthyl)azo]-3-methyl-phenyl]-2-methyl-phenyl]azo-4-hydroxy-naphthalene-2,7-disulfonic acid

> <PUBCHEM_IUPAC_INCHI>
InChI=1S/C34H28N6O14S4/c1-15-7-17(3-5-25(15)37-39-31-27(57(49,50)51)11-19-9-21(55(43,44)45)13-23(35)29(19)33(31)41)18-4-6-26(16(2)8-18)38-40-32-28(58(52,53)54)12-20-10-22(56(46,47)48)14-24(36)30(20)34(32)42/h3-14,41-42H,35-36H2,1-2H3,(H,43,44,45)(H,46,47,48)(H,49,50,51)(H,52,53,54)

> <PUBCHEM_IUPAC_INCHIKEY>
ZBNARPCCDMHDDV-UHFFFAOYSA-N

> <PUBCHEM_XLOGP3_AA>
4.4

> <PUBCHEM_EXACT_MASS>
872.054634

> <PUBCHEM_MOLECULAR_FORMULA>
C34H28N6O14S4

> <PUBCHEM_MOLECULAR_WEIGHT>
872.87792

> <PUBCHEM_OPENEYE_CAN_SMILES>
CC1=C(C=CC(=C1)C2=CC(=C(C=C2)N=NC3=C(C4=C(C=C(C=C4C=C3S(=O)(=O)O)S(=O)(=O)O)N)O)C)N=NC5=C(C6=C(C=C(C=C6C=C5S(=O)(=O)O)S(=O)(=O)O)N)O

> <PUBCHEM_OPENEYE_ISO_SMILES>
CC1=C(C=CC(=C1)C2=CC(=C(C=C2)N=NC3=C(C4=C(C=C(C=C4C=C3S(=O)(=O)O)S(=O)(=O)O)N)O)C)N=NC5=C(C6=C(C=C(C=C6C=C5S(=O)(=O)O)S(=O)(=O)O)N)O

> <PUBCHEM_CACTVS_TPSA>
393

> <PUBCHEM_MONOISOTOPIC_WEIGHT>
872.054634

> <PUBCHEM_TOTAL_CHARGE>
0

> <PUBCHEM_HEAVY_ATOM_COUNT>
58

> <PUBCHEM_ATOM_DEF_STEREO_COUNT>
0

> <PUBCHEM_ATOM_UDEF_STEREO_COUNT>
0

> <PUBCHEM_BOND_DEF_STEREO_COUNT>
0

> <PUBCHEM_BOND_UDEF_STEREO_COUNT>
0

> <PUBCHEM_ISOTOPIC_ATOM_COUNT>
0

> <PUBCHEM_COMPONENT_COUNT>
1

> <PUBCHEM_CACTVS_TAUTO_COUNT>
231

> <PUBCHEM_COORDINATE_TYPE>
1
5
255

> <PUBCHEM_BONDANNOTATIONS>
25  27  8
25  31  8
25  33  8
26  28  8
26  32  8
26  34  8
27  35  8
27  39  8
28  36  8
28  40  8
29  35  8
29  37  8
30  36  8
30  38  8
31  37  8
32  38  8
33  43  8
34  44  8
39  41  8
40  42  8
41  43  8
42  44  8
45  51  8
45  53  8
46  52  8
46  54  8
47  49  8
47  51  8
48  50  8
48  52  8
49  55  8
50  56  8
53  55  8
54  56  8

$$$$

