83412
  -OEChem-07051212473D

 27 28  0     1  0  0  0  0  0999 V2000
    2.7487   -0.3571    0.0153 O   0  0  0  0  0  0  0  0  0  0  0  0
   -3.4026    1.2720    0.0158 O   0  0  0  0  0  0  0  0  0  0  0  0
   -0.7612   -2.6630   -0.2124 O   0  0  0  0  0  0  0  0  0  0  0  0
    1.7797   -2.3856    0.2849 O   0  0  0  0  0  0  0  0  0  0  0  0
    1.4794    1.6876    0.3428 C   0  0  0  0  0  0  0  0  0  0  0  0
    2.5934    1.0067   -0.4385 C   0  0  1  0  0  0  0  0  0  0  0  0
    0.2358    0.8689    0.1719 C   0  0  0  0  0  0  0  0  0  0  0  0
    0.3411   -0.5226    0.0552 C   0  0  0  0  0  0  0  0  0  0  0  0
    3.9258    1.7140   -0.2359 C   0  0  0  0  0  0  0  0  0  0  0  0
   -1.0290    1.4670    0.1681 C   0  0  0  0  0  0  0  0  0  0  0  0
    1.6691   -1.1779    0.1200 C   0  0  0  0  0  0  0  0  0  0  0  0
   -0.8085   -1.3073   -0.0817 C   0  0  0  0  0  0  0  0  0  0  0  0
   -2.1750    0.6839    0.0269 C   0  0  0  0  0  0  0  0  0  0  0  0
   -2.0644   -0.6999   -0.1003 C   0  0  0  0  0  0  0  0  0  0  0  0
   -4.5323    0.4133   -0.1320 C   0  0  0  0  0  0  0  0  0  0  0  0
    1.3311    2.7091   -0.0250 H   0  0  0  0  0  0  0  0  0  0  0  0
    1.7161    1.7322    1.4127 H   0  0  0  0  0  0  0  0  0  0  0  0
    2.3673    0.9764   -1.5124 H   0  0  0  0  0  0  0  0  0  0  0  0
    4.2201    1.7029    0.8194 H   0  0  0  0  0  0  0  0  0  0  0  0
    4.7189    1.1980   -0.7877 H   0  0  0  0  0  0  0  0  0  0  0  0
    3.8810    2.7523   -0.5781 H   0  0  0  0  0  0  0  0  0  0  0  0
   -1.1228    2.5452    0.2726 H   0  0  0  0  0  0  0  0  0  0  0  0
   -2.9197   -1.3584   -0.2136 H   0  0  0  0  0  0  0  0  0  0  0  0
    0.1556   -2.9609   -0.3190 H   0  0  0  0  0  0  0  0  0  0  0  0
   -4.5216   -0.1039   -1.0974 H   0  0  0  0  0  0  0  0  0  0  0  0
   -5.4242    1.0484   -0.1205 H   0  0  0  0  0  0  0  0  0  0  0  0
   -4.6239   -0.2804    0.7108 H   0  0  0  0  0  0  0  0  0  0  0  0
  1  6  1  0  0  0  0
  1 11  1  0  0  0  0
  2 13  1  0  0  0  0
  2 15  1  0  0  0  0
  3 12  1  0  0  0  0
  3 24  1  0  0  0  0
  4 11  2  0  0  0  0
  5  6  1  0  0  0  0
  5  7  1  0  0  0  0
  5 16  1  0  0  0  0
  5 17  1  0  0  0  0
  6  9  1  0  0  0  0
  6 18  1  0  0  0  0
  7  8  2  0  0  0  0
  7 10  1  0  0  0  0
  8 11  1  0  0  0  0
  8 12  1  0  0  0  0
  9 19  1  0  0  0  0
  9 20  1  0  0  0  0
  9 21  1  0  0  0  0
 10 13  2  0  0  0  0
 10 22  1  0  0  0  0
 12 14  2  0  0  0  0
 13 14  1  0  0  0  0
 14 23  1  0  0  0  0
 15 25  1  0  0  0  0
 15 26  1  0  0  0  0
 15 27  1  0  0  0  0
M  END
> <PUBCHEM_COMPOUND_CID>
83412

> <PUBCHEM_CONFORMER_RMSD>
0.6

> <PUBCHEM_CONFORMER_DIVERSEORDER>
1
2

> <PUBCHEM_MMFF94_PARTIAL_CHARGES>
17
1 -0.43
10 -0.15
11 0.63
12 0.08
13 0.08
14 -0.15
15 0.28
2 -0.36
22 0.15
23 0.15
24 0.45
3 -0.53
4 -0.57
5 0.14
6 0.28
7 -0.14
8 0.09

> <PUBCHEM_EFFECTIVE_ROTOR_COUNT>
1.6

> <PUBCHEM_PHARMACOPHORE_FEATURES>
5
1 2 acceptor
1 3 donor
1 4 acceptor
6 1 5 6 7 8 11 rings
6 7 8 10 12 13 14 rings

> <PUBCHEM_HEAVY_ATOM_COUNT>
15

> <PUBCHEM_ATOM_DEF_STEREO_COUNT>
1

> <PUBCHEM_ATOM_UDEF_STEREO_COUNT>
0

> <PUBCHEM_BOND_DEF_STEREO_COUNT>
0

> <PUBCHEM_BOND_UDEF_STEREO_COUNT>
0

> <PUBCHEM_ISOTOPIC_ATOM_COUNT>
0

> <PUBCHEM_COMPONENT_COUNT>
1

> <PUBCHEM_CACTVS_TAUTO_COUNT>
13

> <PUBCHEM_CONFORMER_ID>
000145D400000001

> <PUBCHEM_MMFF94_ENERGY>
51.9313

> <PUBCHEM_FEATURE_SELFOVERLAP>
25.398

> <PUBCHEM_SHAPE_FINGERPRINT>
10608611 8 18270684280813167589
10967382 1 18410575110438176945
10980938 120 18411138060433926297
11471102 20 18410858776011959829
11680986 33 18341321262572283498
12644460 14 18272082850612539112
13140716 1 18266466403790049376
13380535 21 18411693262271607323
13380535 76 18411139117059204034
13897977 150 18411139125781052917
14251717 144 18337678619609952799
14325111 11 18410855490615237833
14897335 6 18410577262322397732
15196674 1 18410573963681902423
15219456 202 18272080600482055961
15442244 35 18121217850990477953
15536298 74 18334294296859956868
15775835 57 18411133619422054380
16945 1 18337395932977795424
18186145 218 18335979886829812109
193761 8 17761213215683173161
20510252 161 17830449488585473304
20559304 39 18338801250767257794
20645476 183 17986938683483244006
20645477 70 18339648966175004047
21501502 16 18411145701138723174
22344851 262 18059010583925619236
2334 1 18410014316843317771
23402539 116 18261118430455714733
23402655 69 18334583464519156101
23463225 33 18267024040736828971
23559900 14 18188484671995025860
25 1 18411984654296214428
2748010 2 18410848850342506239
3071541 37 18341890818084912860
449060 62 18408882949379894801
528862 383 18343024436042614202
528886 8 18410578348991393248
53812653 166 18334860480702569968
69090 78 18409733937004120357
7364860 26 18335701702045904910

> <PUBCHEM_SHAPE_MULTIPOLES>
285.22
6
2.35
0.63
2.22
1.27
0
-3
-0.57
-0.71
0.06
-0.06
-0.04
-0.23

> <PUBCHEM_SHAPE_SELFOVERLAP>
613.011

> <PUBCHEM_SHAPE_VOLUME>
157.7

> <PUBCHEM_COORDINATE_TYPE>
2
5
10

$$$$

