442982
  -OEChem-07051213003D

 80 86  0     1  0  0  0  0  0999 V2000
   -3.0370    0.2860   -1.1226 O   0  0  0  0  0  0  0  0  0  0  0  0
   -1.5288   -1.7598   -2.0036 O   0  0  0  0  0  0  0  0  0  0  0  0
   -5.2705   -0.3083   -0.5244 O   0  0  0  0  0  0  0  0  0  0  0  0
   -3.3795   -2.3122   -0.1368 O   0  0  0  0  0  0  0  0  0  0  0  0
   -4.7491   -1.3627    1.9987 O   0  0  0  0  0  0  0  0  0  0  0  0
    0.6001   -3.3288   -1.8628 O   0  0  0  0  0  0  0  0  0  0  0  0
    1.0130   -2.2953    1.5920 O   0  0  0  0  0  0  0  0  0  0  0  0
   -5.7363    2.5128   -0.0387 O   0  0  0  0  0  0  0  0  0  0  0  0
    3.2704   -0.8081    1.8224 O   0  0  0  0  0  0  0  0  0  0  0  0
    3.6976    1.1307   -0.3646 N   0  0  1  0  0  0  0  0  0  0  0  0
   -1.8739    0.4935   -0.2637 C   0  0  1  0  0  0  0  0  0  0  0  0
   -2.3920    1.4290    0.8553 C   0  0  2  0  0  0  0  0  0  0  0  0
   -1.4340   -0.8931    0.2809 C   0  0  2  0  0  0  0  0  0  0  0  0
   -0.6439   -1.4872   -0.9071 C   0  0  2  0  0  0  0  0  0  0  0  0
    0.2390   -0.2884   -1.3201 C   0  0  1  0  0  0  0  0  0  0  0  0
   -3.7242    0.6881    1.0974 C   0  0  1  0  0  0  0  0  0  0  0  0
   -0.6877    0.9542   -1.1225 C   0  0  0  0  0  0  0  0  0  0  0  0
   -4.2221    0.6353   -0.3642 C   0  0  1  0  0  0  0  0  0  0  0  0
   -2.6146   -1.6741    0.8794 C   0  0  1  0  0  0  0  0  0  0  0  0
    1.5461   -0.1408   -0.4868 C   0  0  1  0  0  0  0  0  0  0  0  0
   -3.5031   -0.7272    1.7225 C   0  0  2  0  0  0  0  0  0  0  0  0
   -2.6785    2.8866    0.3733 C   0  0  0  0  0  0  0  0  0  0  0  0
    0.1422   -2.7727   -0.6223 C   0  0  2  0  0  0  0  0  0  0  0  0
    2.3132   -1.4741   -0.3216 C   0  0  2  0  0  0  0  0  0  0  0  0
    1.3843   -2.5762    0.2505 C   0  0  1  0  0  0  0  0  0  0  0  0
   -4.6917    2.0108   -0.8685 C   0  0  2  0  0  0  0  0  0  0  0  0
   -1.4894    1.5606    2.0926 C   0  0  0  0  0  0  0  0  0  0  0  0
   -3.5427    3.0103   -0.8799 C   0  0  0  0  0  0  0  0  0  0  0  0
    3.6247   -1.2327    0.5005 C   0  0  1  0  0  0  0  0  0  0  0  0
    2.4778    0.8919   -1.1490 C   0  0  0  0  0  0  0  0  0  0  0  0
    4.4876   -0.1105   -0.1796 C   0  0  2  0  0  0  0  0  0  0  0  0
    5.7783    0.2030    0.6190 C   0  0  0  0  0  0  0  0  0  0  0  0
    4.4239   -2.5429    0.6308 C   0  0  0  0  0  0  0  0  0  0  0  0
    4.4835    2.1908   -1.0232 C   0  0  0  0  0  0  0  0  0  0  0  0
    5.7377    2.5806   -0.2329 C   0  0  2  0  0  0  0  0  0  0  0  0
    6.5928    1.3373    0.0031 C   0  0  0  0  0  0  0  0  0  0  0  0
    5.3869    3.2938    1.0765 C   0  0  0  0  0  0  0  0  0  0  0  0
   -0.7280   -0.7258    1.0980 H   0  0  0  0  0  0  0  0  0  0  0  0
    0.5038   -0.3626   -2.3834 H   0  0  0  0  0  0  0  0  0  0  0  0
   -4.4195    1.2406    1.7396 H   0  0  0  0  0  0  0  0  0  0  0  0
   -0.1523    1.7773   -0.6420 H   0  0  0  0  0  0  0  0  0  0  0  0
   -1.0287    1.3076   -2.1024 H   0  0  0  0  0  0  0  0  0  0  0  0
   -2.2461   -2.4800    1.5249 H   0  0  0  0  0  0  0  0  0  0  0  0
    1.2720    0.2361    0.5075 H   0  0  0  0  0  0  0  0  0  0  0  0
   -3.0276   -0.5924    2.6993 H   0  0  0  0  0  0  0  0  0  0  0  0
   -1.7356    3.4193    0.1969 H   0  0  0  0  0  0  0  0  0  0  0  0
   -3.1843    3.4274    1.1854 H   0  0  0  0  0  0  0  0  0  0  0  0
   -0.5290   -3.5128   -0.1716 H   0  0  0  0  0  0  0  0  0  0  0  0
    2.6231   -1.8042   -1.3246 H   0  0  0  0  0  0  0  0  0  0  0  0
    1.9252   -3.5288    0.2629 H   0  0  0  0  0  0  0  0  0  0  0  0
   -5.1000    1.9245   -1.8826 H   0  0  0  0  0  0  0  0  0  0  0  0
   -0.5318    2.0217    1.8261 H   0  0  0  0  0  0  0  0  0  0  0  0
   -1.9648    2.1962    2.8487 H   0  0  0  0  0  0  0  0  0  0  0  0
   -1.2607    0.6154    2.5877 H   0  0  0  0  0  0  0  0  0  0  0  0
   -3.9143    4.0385   -0.9620 H   0  0  0  0  0  0  0  0  0  0  0  0
   -2.9165    2.8333   -1.7621 H   0  0  0  0  0  0  0  0  0  0  0  0
    2.7349    0.5608   -2.1649 H   0  0  0  0  0  0  0  0  0  0  0  0
    1.9406    1.8410   -1.2550 H   0  0  0  0  0  0  0  0  0  0  0  0
    4.7945   -0.4793   -1.1700 H   0  0  0  0  0  0  0  0  0  0  0  0
   -0.9905   -2.0764   -2.7491 H   0  0  0  0  0  0  0  0  0  0  0  0
   -5.7578   -0.0943   -1.3372 H   0  0  0  0  0  0  0  0  0  0  0  0
   -2.8073   -2.9621   -0.5777 H   0  0  0  0  0  0  0  0  0  0  0  0
   -5.1788   -1.5508    1.1472 H   0  0  0  0  0  0  0  0  0  0  0  0
    1.0044   -4.1914   -1.6677 H   0  0  0  0  0  0  0  0  0  0  0  0
    6.4261   -0.6791    0.6526 H   0  0  0  0  0  0  0  0  0  0  0  0
    5.5340    0.4520    1.6586 H   0  0  0  0  0  0  0  0  0  0  0  0
    5.3205   -2.4082    1.2436 H   0  0  0  0  0  0  0  0  0  0  0  0
    3.8545   -3.3142    1.1584 H   0  0  0  0  0  0  0  0  0  0  0  0
    4.7217   -2.9308   -0.3481 H   0  0  0  0  0  0  0  0  0  0  0  0
    3.8640    3.0887   -1.1466 H   0  0  0  0  0  0  0  0  0  0  0  0
    4.7799    1.8708   -2.0317 H   0  0  0  0  0  0  0  0  0  0  0  0
    1.8219   -2.2796    2.1300 H   0  0  0  0  0  0  0  0  0  0  0  0
   -6.0270    3.3623   -0.4119 H   0  0  0  0  0  0  0  0  0  0  0  0
    3.0061    0.1262    1.7825 H   0  0  0  0  0  0  0  0  0  0  0  0
    6.3213    3.2851   -0.8395 H   0  0  0  0  0  0  0  0  0  0  0  0
    7.4497    1.5730    0.6449 H   0  0  0  0  0  0  0  0  0  0  0  0
    7.0039    0.9973   -0.9563 H   0  0  0  0  0  0  0  0  0  0  0  0
    6.2965    3.5700    1.6201 H   0  0  0  0  0  0  0  0  0  0  0  0
    4.8298    4.2146    0.8725 H   0  0  0  0  0  0  0  0  0  0  0  0
    4.7736    2.6752    1.7390 H   0  0  0  0  0  0  0  0  0  0  0  0
  1 11  1  0  0  0  0
  1 18  1  0  0  0  0
  2 14  1  0  0  0  0
  2 60  1  0  0  0  0
  3 18  1  0  0  0  0
  3 61  1  0  0  0  0
  4 19  1  0  0  0  0
  4 62  1  0  0  0  0
  5 21  1  0  0  0  0
  5 63  1  0  0  0  0
  6 23  1  0  0  0  0
  6 64  1  0  0  0  0
  7 25  1  0  0  0  0
  7 72  1  0  0  0  0
  8 26  1  0  0  0  0
  8 73  1  0  0  0  0
  9 29  1  0  0  0  0
  9 74  1  0  0  0  0
 10 30  1  0  0  0  0
 10 31  1  0  0  0  0
 10 34  1  0  0  0  0
 11 12  1  0  0  0  0
 11 13  1  0  0  0  0
 11 17  1  0  0  0  0
 12 16  1  0  0  0  0
 12 22  1  0  0  0  0
 12 27  1  0  0  0  0
 13 14  1  0  0  0  0
 13 19  1  0  0  0  0
 13 38  1  0  0  0  0
 14 15  1  0  0  0  0
 14 23  1  0  0  0  0
 15 17  1  0  0  0  0
 15 20  1  0  0  0  0
 15 39  1  0  0  0  0
 16 18  1  0  0  0  0
 16 21  1  0  0  0  0
 16 40  1  0  0  0  0
 17 41  1  0  0  0  0
 17 42  1  0  0  0  0
 18 26  1  0  0  0  0
 19 21  1  0  0  0  0
 19 43  1  0  0  0  0
 20 24  1  0  0  0  0
 20 30  1  0  0  0  0
 20 44  1  0  0  0  0
 21 45  1  0  0  0  0
 22 28  1  0  0  0  0
 22 46  1  0  0  0  0
 22 47  1  0  0  0  0
 23 25  1  0  0  0  0
 23 48  1  0  0  0  0
 24 25  1  0  0  0  0
 24 29  1  0  0  0  0
 24 49  1  0  0  0  0
 25 50  1  0  0  0  0
 26 28  1  0  0  0  0
 26 51  1  0  0  0  0
 27 52  1  0  0  0  0
 27 53  1  0  0  0  0
 27 54  1  0  0  0  0
 28 55  1  0  0  0  0
 28 56  1  0  0  0  0
 29 31  1  0  0  0  0
 29 33  1  0  0  0  0
 30 57  1  0  0  0  0
 30 58  1  0  0  0  0
 31 32  1  0  0  0  0
 31 59  1  0  0  0  0
 32 36  1  0  0  0  0
 32 65  1  0  0  0  0
 32 66  1  0  0  0  0
 33 67  1  0  0  0  0
 33 68  1  0  0  0  0
 33 69  1  0  0  0  0
 34 35  1  0  0  0  0
 34 70  1  0  0  0  0
 34 71  1  0  0  0  0
 35 36  1  0  0  0  0
 35 37  1  0  0  0  0
 35 75  1  0  0  0  0
 36 76  1  0  0  0  0
 36 77  1  0  0  0  0
 37 78  1  0  0  0  0
 37 79  1  0  0  0  0
 37 80  1  0  0  0  0
M  END
> <PUBCHEM_COMPOUND_CID>
442982

> <PUBCHEM_CONFORMER_RMSD>
0.8

> <PUBCHEM_CONFORMER_DIVERSEORDER>
1
2

> <PUBCHEM_MMFF94_PARTIAL_CHARGES>
30
1 -0.56
10 -0.81
11 0.28
14 0.28
18 0.56
19 0.28
2 -0.68
21 0.28
23 0.28
25 0.28
26 0.28
29 0.28
3 -0.68
30 0.27
31 0.27
34 0.27
4 -0.68
5 -0.68
6 -0.68
60 0.4
61 0.4
62 0.4
63 0.4
64 0.4
7 -0.68
72 0.4
73 0.4
74 0.4
8 -0.68
9 -0.68

> <PUBCHEM_EFFECTIVE_ROTOR_COUNT>
3

> <PUBCHEM_PHARMACOPHORE_FEATURES>
24
1 1 acceptor
1 10 cation
1 2 acceptor
1 2 donor
1 3 acceptor
1 3 donor
1 4 acceptor
1 4 donor
1 5 acceptor
1 5 donor
1 6 acceptor
1 6 donor
1 7 acceptor
1 7 donor
1 8 acceptor
1 8 donor
1 9 acceptor
1 9 donor
5 11 13 14 15 17 rings
6 10 20 24 29 30 31 rings
6 10 31 32 34 35 36 rings
6 14 15 20 23 24 25 rings
8 1 11 12 13 16 18 19 21 rings
8 1 11 12 16 18 22 26 28 rings

> <PUBCHEM_HEAVY_ATOM_COUNT>
37

> <PUBCHEM_ATOM_DEF_STEREO_COUNT>
17

> <PUBCHEM_ATOM_UDEF_STEREO_COUNT>
0

> <PUBCHEM_BOND_DEF_STEREO_COUNT>
0

> <PUBCHEM_BOND_UDEF_STEREO_COUNT>
0

> <PUBCHEM_ISOTOPIC_ATOM_COUNT>
0

> <PUBCHEM_COMPONENT_COUNT>
1

> <PUBCHEM_CACTVS_TAUTO_COUNT>
1

> <PUBCHEM_CONFORMER_ID>
0006C26600000001

> <PUBCHEM_MMFF94_ENERGY>
155.8581

> <PUBCHEM_FEATURE_SELFOVERLAP>
123.036

> <PUBCHEM_SHAPE_FINGERPRINT>
10675989 125 17403742636835189773
10906281 52 17896029005511314713
11007060 377 18197208149794157252
11115154 58 17032211683288794663
12107183 9 17909835671393809992
12422481 6 17918280857209217684
12633257 1 17702388544574997986
12788726 201 17972053443775615182
12892183 10 18202557367597771770
12925494 130 18341335594868243673
13140716 1 18272368728205047286
13224815 77 18115020926421175631
13583140 156 18341611499218883497
13911987 19 17894915139744113181
14251764 38 18193837282633302813
14739800 52 18042140790834073280
14790565 3 18410857625419543700
14950920 106 17632028498222781218
14955137 171 18123470742491325430
15064986 96 18263080080197703686
15575132 122 18409727326959833004
17349148 13 18340207504854257551
17980427 23 18272649056731484709
20511986 3 18271539644645012437
20715895 44 17764878287708639101
20739085 24 17988921202386421814
21033648 144 18201164337804839037
21033648 29 18261684692288182024
21033650 10 14635136954510359458
21756936 100 18335987450762813316
21859007 373 16771838903400332917
22122407 14 18267016335407699649
221357 26 7709448412139853405
23559900 14 18121778593304874495
2747138 104 17986375703428628818
3552219 110 17678453057703389543
3633792 109 17917164870160552407
392239 28 18265602204550801360
4144715 1 18201709708726318314
44802255 64 17025704851818398188
44880168 125 13542467600647697736
469060 322 18056476145330655897
474 4 18265052607613721270
50009960 94 16981497843967082331
5081480 168 17462251889854770276
5104073 3 18131348643601584824
6036956 94 18411973655033883949
613672 6 11527957759360433810
7288768 16 17917152698096745354
7808743 9 18262241015248879386
9981440 41 18342171163880961275

> <PUBCHEM_SHAPE_MULTIPOLES>
703.64
13.14
3.77
1.61
9.47
0.22
0.31
9.14
1.99
1.05
-0.18
-0.76
-0.32
0.34

> <PUBCHEM_SHAPE_SELFOVERLAP>
1551.184

> <PUBCHEM_SHAPE_VOLUME>
371.8

> <PUBCHEM_COORDINATE_TYPE>
2
5
10

$$$$

