47205197
  -OEChem-06241222583D

 36 37  0     0  0  0  0  0  0999 V2000
    3.8870   -0.5759   -1.9611 Br  0  0  0  0  0  0  0  0  0  0  0  0
   -2.7200   -1.6552    1.1759 O   0  0  0  0  0  0  0  0  0  0  0  0
   -1.6173    3.1885    0.6872 O   0  0  0  0  0  0  0  0  0  0  0  0
    3.0764    1.5840    0.1398 O   0  0  0  0  0  0  0  0  0  0  0  0
   -2.3799   -0.9594   -1.0130 N   0  0  0  0  0  0  0  0  0  0  0  0
   -0.0920   -3.0841    0.5846 C   0  0  0  0  0  0  0  0  0  0  0  0
   -1.3429   -3.0044   -0.2885 C   0  0  0  0  0  0  0  0  0  0  0  0
    0.7557   -1.8448    0.4579 C   0  0  0  0  0  0  0  0  0  0  0  0
   -2.2213   -1.8175    0.0655 C   0  0  0  0  0  0  0  0  0  0  0  0
   -3.1710    0.2459   -0.9334 C   0  0  0  0  0  0  0  0  0  0  0  0
    1.7536   -1.7780   -0.5142 C   0  0  0  0  0  0  0  0  0  0  0  0
    0.5427   -0.7645    1.3144 C   0  0  0  0  0  0  0  0  0  0  0  0
   -2.3524    1.4278   -0.5008 C   0  0  0  0  0  0  0  0  0  0  0  0
    2.5387   -0.6309   -0.6300 C   0  0  0  0  0  0  0  0  0  0  0  0
    1.3279    0.3826    1.1986 C   0  0  0  0  0  0  0  0  0  0  0  0
    2.3259    0.4493    0.2263 C   0  0  0  0  0  0  0  0  0  0  0  0
   -1.2163    1.9627   -1.1537 C   0  0  0  0  0  0  0  0  0  0  0  0
   -2.5555    2.2083    0.6135 C   0  0  0  0  0  0  0  0  0  0  0  0
   -0.8062    3.0321   -0.3918 C   0  0  0  0  0  0  0  0  0  0  0  0
    4.2669    1.6335    0.9229 C   0  0  0  0  0  0  0  0  0  0  0  0
   -0.3738   -3.2252    1.6360 H   0  0  0  0  0  0  0  0  0  0  0  0
    0.4956   -3.9688    0.3098 H   0  0  0  0  0  0  0  0  0  0  0  0
   -1.9471   -3.9087   -0.1499 H   0  0  0  0  0  0  0  0  0  0  0  0
   -1.0567   -2.9784   -1.3465 H   0  0  0  0  0  0  0  0  0  0  0  0
   -4.0073    0.0846   -0.2439 H   0  0  0  0  0  0  0  0  0  0  0  0
   -3.5854    0.4317   -1.9301 H   0  0  0  0  0  0  0  0  0  0  0  0
   -1.9113   -1.1565   -1.8921 H   0  0  0  0  0  0  0  0  0  0  0  0
    1.9137   -2.6229   -1.1802 H   0  0  0  0  0  0  0  0  0  0  0  0
   -0.2237   -0.8034    2.0833 H   0  0  0  0  0  0  0  0  0  0  0  0
    1.1564    1.2195    1.8703 H   0  0  0  0  0  0  0  0  0  0  0  0
   -0.7500    1.6142   -2.0642 H   0  0  0  0  0  0  0  0  0  0  0  0
   -3.2826    2.1985    1.4125 H   0  0  0  0  0  0  0  0  0  0  0  0
    0.0024    3.7434   -0.4760 H   0  0  0  0  0  0  0  0  0  0  0  0
    4.8257    2.5297    0.6398 H   0  0  0  0  0  0  0  0  0  0  0  0
    4.8989    0.7575    0.7474 H   0  0  0  0  0  0  0  0  0  0  0  0
    4.0140    1.7014    1.9857 H   0  0  0  0  0  0  0  0  0  0  0  0
  1 14  1  0  0  0  0
  2  9  2  0  0  0  0
  3 18  1  0  0  0  0
  3 19  1  0  0  0  0
  4 16  1  0  0  0  0
  4 20  1  0  0  0  0
  5  9  1  0  0  0  0
  5 10  1  0  0  0  0
  5 27  1  0  0  0  0
  6  7  1  0  0  0  0
  6  8  1  0  0  0  0
  6 21  1  0  0  0  0
  6 22  1  0  0  0  0
  7  9  1  0  0  0  0
  7 23  1  0  0  0  0
  7 24  1  0  0  0  0
  8 11  2  0  0  0  0
  8 12  1  0  0  0  0
 10 13  1  0  0  0  0
 10 25  1  0  0  0  0
 10 26  1  0  0  0  0
 11 14  1  0  0  0  0
 11 28  1  0  0  0  0
 12 15  2  0  0  0  0
 12 29  1  0  0  0  0
 13 17  1  0  0  0  0
 13 18  2  0  0  0  0
 14 16  2  0  0  0  0
 15 16  1  0  0  0  0
 15 30  1  0  0  0  0
 17 19  2  0  0  0  0
 17 31  1  0  0  0  0
 18 32  1  0  0  0  0
 19 33  1  0  0  0  0
 20 34  1  0  0  0  0
 20 35  1  0  0  0  0
 20 36  1  0  0  0  0
M  END
> <PUBCHEM_COMPOUND_CID>
47205197

> <PUBCHEM_CONFORMER_RMSD>
0.8

> <PUBCHEM_CONFORMER_DIVERSEORDER>
1
136
130
43
234
155
107
74
202
242
42
38
46
229
162
138
239
196
122
173
83
85
73
124
169
245
123
191
113
232
145
201
149
57
10
127
135
94
16
5
92
165
233
128
249
19
247
205
8
231
37
98
163
250
82
33
24
248
28
206
109
208
207
50
15
72
218
236
63
61
168
240
9
227
12
132
27
225
108
3
215
20
55
200
66
45
86
230
40
11
62
143
217
71
79
184
106
13
244
110
18
7
84
99
2
80
35
152
241
181
140
4
31
204
59
17
119
243
48
226
64
14
68
142
6
36
203
96
220
144
41
26
76
183
126
120
51
150
179
91
65
238
75
81
214
141
25
89
70
187
164
133
224
95
212
157
197
139
111
97
167
222
53
180
30
178
87
190
54
246
171
103
102
146
194
199
34
93
125
235
116
195
22
176
175
129
148
188
67
39
60
77
182
131
134
213
104
198
159
174
112
192
115
228
186
219
156
44
137
49
237
172
23
160
185
210
166
118
216
154
170
211
161
78
69
193
88
223
177
221
21
117
209
56
90
105
158
47
151
114
29
153
32
101
52
147
121
189
100
58

> <PUBCHEM_MMFF94_PARTIAL_CHARGES>
27
1 -0.11
10 0.48
11 -0.15
12 -0.15
13 -0.18
14 0.11
15 -0.15
16 0.08
17 -0.15
18 -0.01
19 -0.01
2 -0.57
20 0.28
27 0.37
28 0.15
29 0.15
3 -0.28
30 0.15
31 0.15
32 0.15
33 0.15
4 -0.36
5 -0.73
6 0.14
7 0.06
8 -0.14
9 0.57

> <PUBCHEM_EFFECTIVE_ROTOR_COUNT>
7

> <PUBCHEM_PHARMACOPHORE_FEATURES>
7
1 1 hydrophobe
1 2 acceptor
1 3 acceptor
1 4 acceptor
1 5 donor
5 3 13 17 18 19 rings
6 8 11 12 14 15 16 rings

> <PUBCHEM_HEAVY_ATOM_COUNT>
20

> <PUBCHEM_ATOM_DEF_STEREO_COUNT>
0

> <PUBCHEM_ATOM_UDEF_STEREO_COUNT>
0

> <PUBCHEM_BOND_DEF_STEREO_COUNT>
0

> <PUBCHEM_BOND_UDEF_STEREO_COUNT>
0

> <PUBCHEM_ISOTOPIC_ATOM_COUNT>
0

> <PUBCHEM_COMPONENT_COUNT>
1

> <PUBCHEM_CACTVS_TAUTO_COUNT>
2

> <PUBCHEM_CONFORMER_ID>
02D04B4D00000001

> <PUBCHEM_MMFF94_ENERGY>
41.9776

> <PUBCHEM_FEATURE_SELFOVERLAP>
35.52

> <PUBCHEM_SHAPE_FINGERPRINT>
10498660 4 18412553119462293831
128993 33 18046912850959214033
13140716 1 18340490087542140547
13764800 53 18201717366758391235
14251745 187 18261965054646355544
14251757 17 18042115609229598862
14386348 128 17980195610645988685
14713325 29 17984107552843440414
17492 54 17553207605650398629
20465049 17 17612854307776768837
20671657 1 17977951511529102522
21141583 151 18334579022953181600
22802520 49 18335131020718873206
23114952 82 18042383774044585222
23402539 116 18122078515408383158
23557571 272 18266739074131184654
238 59 17621343641550248533
2637199 183 17974274727677012037
469060 322 17417515918236846089
526903 126 18410583902563532809
5283173 99 18264756818587121454
5312544 6 17904773528750975285
81228 2 18198330772060055040
9925002 15 15878435750951278150

> <PUBCHEM_SHAPE_MULTIPOLES>
394.94
6.05
3.96
1.41
3.66
0
-0.26
2.26
-1.32
-2.2
0.51
0.76
0.02
0.76

> <PUBCHEM_SHAPE_SELFOVERLAP>
814.882

> <PUBCHEM_SHAPE_VOLUME>
232.1

> <PUBCHEM_COORDINATE_TYPE>
2
5
10

$$$$

