17395700
  -OEChem-06241222512D

 42 43  0     1  0  0  0  0  0999 V2000
    4.5981    1.1156    0.0000 S   0  0  0  0  0  0  0  0  0  0  0  0
    2.8660    0.1156    0.0000 O   0  0  0  0  0  0  0  0  0  0  0  0
    6.5468    2.8180    0.0000 N   0  0  0  0  0  0  0  0  0  0  0  0
    6.3776    1.2088    0.0000 N   0  0  0  0  0  0  0  0  0  0  0  0
    5.5686    2.6101    0.0000 N   0  0  0  0  0  0  0  0  0  0  0  0
    8.0413    1.8475    0.0000 C   0  0  0  0  0  0  0  0  0  0  0  0
    4.5981    0.1156    0.0000 C   0  0  3  0  0  0  0  0  0  0  0  0
    3.7320   -1.3844    0.0000 C   0  0  0  0  0  0  0  0  0  0  0  0
    7.0468    1.9520    0.0000 C   0  0  0  0  0  0  0  0  0  0  0  0
    3.7320   -0.3844    0.0000 C   0  0  0  0  0  0  0  0  0  0  0  0
    2.8660   -1.8844    0.0000 C   0  0  0  0  0  0  0  0  0  0  0  0
    8.6291    2.6565    0.0000 C   0  0  0  0  0  0  0  0  0  0  0  0
    8.4480    0.9339    0.0000 C   0  0  0  0  0  0  0  0  0  0  0  0
    4.5981   -1.8844    0.0000 C   0  0  0  0  0  0  0  0  0  0  0  0
    4.5981   -2.8844    0.0000 C   0  0  0  0  0  0  0  0  0  0  0  0
    5.4641   -0.3844    0.0000 C   0  0  0  0  0  0  0  0  0  0  0  0
    5.4641    1.6156    0.0000 C   0  0  0  0  0  0  0  0  0  0  0  0
    2.8660   -2.8844    0.0000 C   0  0  0  0  0  0  0  0  0  0  0  0
    3.7320   -3.3844    0.0000 C   0  0  0  0  0  0  0  0  0  0  0  0
    2.0000   -1.3844    0.0000 C   0  0  0  0  0  0  0  0  0  0  0  0
    5.4641   -3.3844    0.0000 C   0  0  0  0  0  0  0  0  0  0  0  0
    8.6579    1.7827    0.0000 H   0  0  0  0  0  0  0  0  0  0  0  0
    5.1350    0.4256    0.0000 H   0  0  0  0  0  0  0  0  0  0  0  0
    9.1307    2.2920    0.0000 H   0  0  0  0  0  0  0  0  0  0  0  0
    8.9935    3.1581    0.0000 H   0  0  0  0  0  0  0  0  0  0  0  0
    8.1275    3.0209    0.0000 H   0  0  0  0  0  0  0  0  0  0  0  0
    7.8816    0.6817    0.0000 H   0  0  0  0  0  0  0  0  0  0  0  0
    8.7002    0.3675    0.0000 H   0  0  0  0  0  0  0  0  0  0  0  0
    9.0144    1.1861    0.0000 H   0  0  0  0  0  0  0  0  0  0  0  0
    5.1350   -1.5744    0.0000 H   0  0  0  0  0  0  0  0  0  0  0  0
    5.1541   -0.9214    0.0000 H   0  0  0  0  0  0  0  0  0  0  0  0
    6.0010   -0.6944    0.0000 H   0  0  0  0  0  0  0  0  0  0  0  0
    5.7741    0.1525    0.0000 H   0  0  0  0  0  0  0  0  0  0  0  0
    2.3291   -3.1944    0.0000 H   0  0  0  0  0  0  0  0  0  0  0  0
    6.7990    3.3844    0.0000 H   0  0  0  0  0  0  0  0  0  0  0  0
    3.7320   -4.0044    0.0000 H   0  0  0  0  0  0  0  0  0  0  0  0
    2.3100   -0.8475    0.0000 H   0  0  0  0  0  0  0  0  0  0  0  0
    1.4631   -1.0744    0.0000 H   0  0  0  0  0  0  0  0  0  0  0  0
    1.6900   -1.9214    0.0000 H   0  0  0  0  0  0  0  0  0  0  0  0
    5.1541   -3.9214    0.0000 H   0  0  0  0  0  0  0  0  0  0  0  0
    6.0010   -3.6944    0.0000 H   0  0  0  0  0  0  0  0  0  0  0  0
    5.7741   -2.8475    0.0000 H   0  0  0  0  0  0  0  0  0  0  0  0
  1  7  1  0  0  0  0
  1 17  1  0  0  0  0
  2 10  2  0  0  0  0
  3  5  1  0  0  0  0
  3  9  1  0  0  0  0
  3 35  1  0  0  0  0
  4  9  2  0  0  0  0
  4 17  1  0  0  0  0
  5 17  2  0  0  0  0
  6  9  1  0  0  0  0
  6 12  1  0  0  0  0
  6 13  1  0  0  0  0
  6 22  1  0  0  0  0
  7 10  1  0  0  0  0
  7 16  1  0  0  0  0
  7 23  1  0  0  0  0
  8 10  1  0  0  0  0
  8 11  2  0  0  0  0
  8 14  1  0  0  0  0
 11 18  1  0  0  0  0
 11 20  1  0  0  0  0
 12 24  1  0  0  0  0
 12 25  1  0  0  0  0
 12 26  1  0  0  0  0
 13 27  1  0  0  0  0
 13 28  1  0  0  0  0
 13 29  1  0  0  0  0
 14 15  2  0  0  0  0
 14 30  1  0  0  0  0
 15 19  1  0  0  0  0
 15 21  1  0  0  0  0
 16 31  1  0  0  0  0
 16 32  1  0  0  0  0
 16 33  1  0  0  0  0
 18 19  2  0  0  0  0
 18 34  1  0  0  0  0
 19 36  1  0  0  0  0
 20 37  1  0  0  0  0
 20 38  1  0  0  0  0
 20 39  1  0  0  0  0
 21 40  1  0  0  0  0
 21 41  1  0  0  0  0
 21 42  1  0  0  0  0
M  END
> <PUBCHEM_COMPOUND_CID>
17395700

> <PUBCHEM_COMPOUND_CANONICALIZED>
1

> <PUBCHEM_CACTVS_COMPLEXITY>
363

> <PUBCHEM_CACTVS_HBOND_ACCEPTOR>
4

> <PUBCHEM_CACTVS_HBOND_DONOR>
1

> <PUBCHEM_CACTVS_ROTATABLE_BOND>
5

> <PUBCHEM_CACTVS_SUBSKEYS>
AAADceB7IABAAAAAAAAAAAAAAAAAAWAAAAAwAAAAAAAAAAABwAAAHgQYAAAADQSF2wCzEIZrEAiqAqJyJAAS0AvkALAdqAEwAMiIKDKgHRCEIQAgmAIIiYcIiMCOwAACAAAQAACAAAQAACAAAAAAAAAAAA==

> <PUBCHEM_IUPAC_OPENEYE_NAME>
1-(2,5-dimethylphenyl)-2-[(5-isopropyl-1H-1,2,4-triazol-3-yl)sulfanyl]propan-1-one

> <PUBCHEM_IUPAC_CAS_NAME>
1-(2,5-dimethylphenyl)-2-[(5-propan-2-yl-1H-1,2,4-triazol-3-yl)thio]-1-propanone

> <PUBCHEM_IUPAC_NAME>
1-(2,5-dimethylphenyl)-2-[(5-propan-2-yl-1H-1,2,4-triazol-3-yl)sulfanyl]propan-1-one

> <PUBCHEM_IUPAC_SYSTEMATIC_NAME>
1-(2,5-dimethylphenyl)-2-[(5-propan-2-yl-1H-1,2,4-triazol-3-yl)sulfanyl]propan-1-one

> <PUBCHEM_IUPAC_TRADITIONAL_NAME>
1-(2,5-dimethylphenyl)-2-[(5-isopropyl-1H-1,2,4-triazol-3-yl)thio]propan-1-one

> <PUBCHEM_IUPAC_INCHI>
InChI=1S/C16H21N3OS/c1-9(2)15-17-16(19-18-15)21-12(5)14(20)13-8-10(3)6-7-11(13)4/h6-9,12H,1-5H3,(H,17,18,19)

> <PUBCHEM_IUPAC_INCHIKEY>
NWFNTRHHCLVVGD-UHFFFAOYSA-N

> <PUBCHEM_XLOGP3_AA>
4.5

> <PUBCHEM_EXACT_MASS>
303.140533

> <PUBCHEM_MOLECULAR_FORMULA>
C16H21N3OS

> <PUBCHEM_MOLECULAR_WEIGHT>
303.42244

> <PUBCHEM_OPENEYE_CAN_SMILES>
CC1=CC(=C(C=C1)C)C(=O)C(C)SC2=NNC(=N2)C(C)C

> <PUBCHEM_OPENEYE_ISO_SMILES>
CC1=CC(=C(C=C1)C)C(=O)C(C)SC2=NNC(=N2)C(C)C

> <PUBCHEM_CACTVS_TPSA>
83.9

> <PUBCHEM_MONOISOTOPIC_WEIGHT>
303.140533

> <PUBCHEM_TOTAL_CHARGE>
0

> <PUBCHEM_HEAVY_ATOM_COUNT>
21

> <PUBCHEM_ATOM_DEF_STEREO_COUNT>
0

> <PUBCHEM_ATOM_UDEF_STEREO_COUNT>
1

> <PUBCHEM_BOND_DEF_STEREO_COUNT>
0

> <PUBCHEM_BOND_UDEF_STEREO_COUNT>
0

> <PUBCHEM_ISOTOPIC_ATOM_COUNT>
0

> <PUBCHEM_COMPONENT_COUNT>
1

> <PUBCHEM_CACTVS_TAUTO_COUNT>
10

> <PUBCHEM_COORDINATE_TYPE>
1
5
255

> <PUBCHEM_BONDANNOTATIONS>
11  18  8
14  15  8
15  19  8
18  19  8
3  5  8
3  9  8
4  17  8
4  9  8
5  17  8
7  16  3
8  11  8
8  14  8

$$$$

