19861
  -OEChem-07051212543D

 44 47  0     0  0  0  0  0  0999 V2000
   -3.9113   -0.9043    0.2485 N   0  0  0  0  0  0  0  0  0  0  0  0
    0.0583    2.1755   -1.4507 N   0  0  0  0  0  0  0  0  0  0  0  0
   -1.2017   -0.3268   -0.5625 C   0  0  0  0  0  0  0  0  0  0  0  0
   -2.2832    0.7085   -0.7085 C   0  0  0  0  0  0  0  0  0  0  0  0
   -1.7081   -1.7432   -0.5321 C   0  0  0  0  0  0  0  0  0  0  0  0
   -3.3934    0.4725    0.3218 C   0  0  0  0  0  0  0  0  0  0  0  0
   -2.8400   -1.8853    0.4917 C   0  0  0  0  0  0  0  0  0  0  0  0
    0.0953   -0.0139   -0.4378 C   0  0  0  0  0  0  0  0  0  0  0  0
    1.1080   -1.0958   -0.2975 C   0  0  0  0  0  0  0  0  0  0  0  0
    0.4043    1.4284   -0.3715 C   0  0  0  0  0  0  0  0  0  0  0  0
    2.1823   -1.0405    0.6189 C   0  0  0  0  0  0  0  0  0  0  0  0
    2.4817    0.0937    1.5828 C   0  0  0  0  0  0  0  0  0  0  0  0
    1.3691    1.0813    1.9317 C   0  0  0  0  0  0  0  0  0  0  0  0
    1.0145    1.9576    0.7647 C   0  0  0  0  0  0  0  0  0  0  0  0
   -5.0023   -1.0913    1.2047 C   0  0  0  0  0  0  0  0  0  0  0  0
    1.0205   -2.2071   -1.1664 C   0  0  0  0  0  0  0  0  0  0  0  0
    3.1135   -2.1040    0.6364 C   0  0  0  0  0  0  0  0  0  0  0  0
    1.2797    3.3295    0.7767 C   0  0  0  0  0  0  0  0  0  0  0  0
    1.9465   -3.2490   -1.1214 C   0  0  0  0  0  0  0  0  0  0  0  0
    2.9944   -3.1987   -0.2163 C   0  0  0  0  0  0  0  0  0  0  0  0
    0.9377    4.1162   -0.3171 C   0  0  0  0  0  0  0  0  0  0  0  0
    0.3342    3.4967   -1.3962 C   0  0  0  0  0  0  0  0  0  0  0  0
   -1.9964    1.7496   -0.5691 H   0  0  0  0  0  0  0  0  0  0  0  0
   -2.7015    0.6335   -1.7210 H   0  0  0  0  0  0  0  0  0  0  0  0
   -2.0750   -2.0195   -1.5287 H   0  0  0  0  0  0  0  0  0  0  0  0
   -1.0078   -2.5085   -0.2050 H   0  0  0  0  0  0  0  0  0  0  0  0
   -3.0173    0.6935    1.3303 H   0  0  0  0  0  0  0  0  0  0  0  0
   -4.2060    1.1802    0.1155 H   0  0  0  0  0  0  0  0  0  0  0  0
   -3.2484   -2.9006    0.4115 H   0  0  0  0  0  0  0  0  0  0  0  0
   -2.4385   -1.7756    1.5087 H   0  0  0  0  0  0  0  0  0  0  0  0
    2.8024   -0.3576    2.5319 H   0  0  0  0  0  0  0  0  0  0  0  0
    3.3452    0.6452    1.1862 H   0  0  0  0  0  0  0  0  0  0  0  0
    1.7094    1.7079    2.7661 H   0  0  0  0  0  0  0  0  0  0  0  0
    0.4742    0.5598    2.2943 H   0  0  0  0  0  0  0  0  0  0  0  0
   -4.6765   -0.9400    2.2401 H   0  0  0  0  0  0  0  0  0  0  0  0
   -5.4207   -2.1002    1.1184 H   0  0  0  0  0  0  0  0  0  0  0  0
   -5.8210   -0.3939    0.9952 H   0  0  0  0  0  0  0  0  0  0  0  0
    0.2855   -2.2491   -1.9685 H   0  0  0  0  0  0  0  0  0  0  0  0
    3.9549   -2.0769    1.3269 H   0  0  0  0  0  0  0  0  0  0  0  0
    1.7548    3.7932    1.6371 H   0  0  0  0  0  0  0  0  0  0  0  0
    1.8618   -4.0823   -1.8124 H   0  0  0  0  0  0  0  0  0  0  0  0
    3.7267   -3.9994   -0.1813 H   0  0  0  0  0  0  0  0  0  0  0  0
    1.1374    5.1816   -0.3226 H   0  0  0  0  0  0  0  0  0  0  0  0
    0.0460    4.0651   -2.2743 H   0  0  0  0  0  0  0  0  0  0  0  0
  1  6  1  0  0  0  0
  1  7  1  0  0  0  0
  1 15  1  0  0  0  0
  2 10  1  0  0  0  0
  2 22  2  0  0  0  0
  3  4  1  0  0  0  0
  3  5  1  0  0  0  0
  3  8  2  0  0  0  0
  4  6  1  0  0  0  0
  4 23  1  0  0  0  0
  4 24  1  0  0  0  0
  5  7  1  0  0  0  0
  5 25  1  0  0  0  0
  5 26  1  0  0  0  0
  6 27  1  0  0  0  0
  6 28  1  0  0  0  0
  7 29  1  0  0  0  0
  7 30  1  0  0  0  0
  8  9  1  0  0  0  0
  8 10  1  0  0  0  0
  9 11  1  0  0  0  0
  9 16  2  0  0  0  0
 10 14  2  0  0  0  0
 11 12  1  0  0  0  0
 11 17  2  0  0  0  0
 12 13  1  0  0  0  0
 12 31  1  0  0  0  0
 12 32  1  0  0  0  0
 13 14  1  0  0  0  0
 13 33  1  0  0  0  0
 13 34  1  0  0  0  0
 14 18  1  0  0  0  0
 15 35  1  0  0  0  0
 15 36  1  0  0  0  0
 15 37  1  0  0  0  0
 16 19  1  0  0  0  0
 16 38  1  0  0  0  0
 17 20  1  0  0  0  0
 17 39  1  0  0  0  0
 18 21  2  0  0  0  0
 18 40  1  0  0  0  0
 19 20  2  0  0  0  0
 19 41  1  0  0  0  0
 20 42  1  0  0  0  0
 21 22  1  0  0  0  0
 21 43  1  0  0  0  0
 22 44  1  0  0  0  0
M  END
> <PUBCHEM_COMPOUND_CID>
19861

> <PUBCHEM_CONFORMER_RMSD>
0.6

> <PUBCHEM_CONFORMER_DIVERSEORDER>
1
6
3
5
2
4

> <PUBCHEM_MMFF94_PARTIAL_CHARGES>
29
1 -0.81
10 0.34
11 -0.14
12 0.14
13 0.14
14 -0.14
15 0.27
16 -0.15
17 -0.15
18 -0.15
19 -0.15
2 -0.62
20 -0.15
21 -0.15
22 0.16
3 -0.28
38 0.15
39 0.15
4 0.14
40 0.15
41 0.15
42 0.15
43 0.15
44 0.15
5 0.14
6 0.27
7 0.27
8 -0.06
9 0.03

> <PUBCHEM_EFFECTIVE_ROTOR_COUNT>
1.4

> <PUBCHEM_PHARMACOPHORE_FEATURES>
6
1 1 cation
1 2 acceptor
6 1 3 4 5 6 7 rings
6 2 10 14 18 21 22 rings
6 9 11 16 17 19 20 rings
7 8 9 10 11 12 13 14 rings

> <PUBCHEM_HEAVY_ATOM_COUNT>
22

> <PUBCHEM_ATOM_DEF_STEREO_COUNT>
0

> <PUBCHEM_ATOM_UDEF_STEREO_COUNT>
0

> <PUBCHEM_BOND_DEF_STEREO_COUNT>
0

> <PUBCHEM_BOND_UDEF_STEREO_COUNT>
0

> <PUBCHEM_ISOTOPIC_ATOM_COUNT>
0

> <PUBCHEM_COMPONENT_COUNT>
1

> <PUBCHEM_CACTVS_TAUTO_COUNT>
1

> <PUBCHEM_CONFORMER_ID>
00004D9500000001

> <PUBCHEM_MMFF94_ENERGY>
83.2751

> <PUBCHEM_FEATURE_SELFOVERLAP>
30.462

> <PUBCHEM_SHAPE_FINGERPRINT>
11578080 2 16271110162143020855
12553582 1 18409736178940463614
12716301 132 17402637614478555818
12788726 201 17983285216967028842
13140716 1 18050002186575274155
13681431 1 18268973384484398292
14022347 108 17984433094184010457
14363568 33 18409729517746737872
14790565 3 18265614273942399856
14955137 171 18337946775861605568
1601671 61 18410010992665270304
16945 1 18188225224754913821
17357779 13 17975999852789074805
19049666 15 17397277499688783318
19591789 44 17978790099973219252
20510252 161 17688314903103019782
20600515 1 18119514677488069999
20739085 24 18408886218034474424
21330990 113 17471279025920950393
21452121 99 17405721753305584586
21524375 3 17477766780179877941
2255824 54 18266453200886280551
22907989 373 17833539477194772886
23419403 2 17318766777085588657
23558518 356 17328031374009628814
23559900 14 18339920420940648683
2748010 2 17974042645172384544
3091708 16 9357591049181944191
3380486 145 18118432689094928582
3729539 64 17980447150312804156
4409770 3 17764597907341362295
6442390 28 17400618451763688907
6786 2 16830595391253707057
7097593 13 18334858294943985419
7364860 26 18338229345785847293
81228 2 17906732857737591644

> <PUBCHEM_SHAPE_MULTIPOLES>
442.79
5.59
4.91
1.44
6.72
3.82
-0.22
-5.63
-2.26
-3.13
1.36
-0.35
0.4
1.13

> <PUBCHEM_SHAPE_SELFOVERLAP>
970.691

> <PUBCHEM_SHAPE_VOLUME>
233.8

> <PUBCHEM_COORDINATE_TYPE>
2
5
10

$$$$

