5462416
  -OEChem-07051212563D

 74 80  0     1  0  0  0  0  0999 V2000
    2.8210    2.6679    0.1472 O   0  0  0  0  0  0  0  0  0  0  0  0
   -3.6268    1.4458   -1.8119 O   0  0  0  0  0  0  0  0  0  0  0  0
    0.1187    0.7385    2.4491 O   0  0  0  0  0  0  0  0  0  0  0  0
    2.6076   -1.3840   -1.9016 O   0  0  0  0  0  0  0  0  0  0  0  0
   -1.4426   -2.0124   -0.3255 O   0  0  0  0  0  0  0  0  0  0  0  0
    0.3713    0.0838   -2.8833 O   0  0  0  0  0  0  0  0  0  0  0  0
   -4.0768   -1.7353    1.1225 O   0  0  0  0  0  0  0  0  0  0  0  0
   -5.6508    1.8410   -0.7226 O   0  0  0  0  0  0  0  0  0  0  0  0
    6.6068   -2.3474    0.6543 O   0  0  0  0  0  0  0  0  0  0  0  0
   -5.3583   -3.3631    0.1003 O   0  0  0  0  0  0  0  0  0  0  0  0
    2.0579    1.4599    0.4792 C   0  0  1  0  0  0  0  0  0  0  0  0
    0.5360    1.7255    0.2605 C   0  0  1  0  0  0  0  0  0  0  0  0
    2.7232    0.1508   -0.0047 C   0  0  2  0  0  0  0  0  0  0  0  0
    3.0180    2.1204    1.4322 C   0  0  1  0  0  0  0  0  0  0  0  0
   -0.0704    0.5123   -0.5287 C   0  0  1  0  0  0  0  0  0  0  0  0
   -1.6344    0.4273   -0.7125 C   0  0  2  0  0  0  0  0  0  0  0  0
    4.2718    0.4914    0.1811 C   0  0  1  0  0  0  0  0  0  0  0  0
   -2.3007    0.6614    0.6878 C   0  0  1  0  0  0  0  0  0  0  0  0
   -0.2074    1.8511    1.6127 C   0  0  1  0  0  0  0  0  0  0  0  0
    4.2975    1.3292    1.5013 C   0  0  0  0  0  0  0  0  0  0  0  0
    2.3108   -0.0672   -1.4757 C   0  0  2  0  0  0  0  0  0  0  0  0
   -1.7387    1.8967    1.4368 C   0  0  0  0  0  0  0  0  0  0  0  0
    0.8158    0.1822   -1.7398 C   0  0  0  0  0  0  0  0  0  0  0  0
   -3.8565    0.6474    0.5136 C   0  0  2  0  0  0  0  0  0  0  0  0
    0.3641    3.0669   -0.5100 C   0  0  0  0  0  0  0  0  0  0  0  0
   -2.0457   -1.0314   -1.1771 C   0  0  2  0  0  0  0  0  0  0  0  0
    2.4031   -1.0604    0.9148 C   0  0  0  0  0  0  0  0  0  0  0  0
   -2.2009    1.4313   -1.7512 C   0  0  0  0  0  0  0  0  0  0  0  0
   -4.2808   -0.7934    0.0616 C   0  0  1  0  0  0  0  0  0  0  0  0
   -3.5596   -1.3015   -1.1938 C   0  0  0  0  0  0  0  0  0  0  0  0
   -4.2393    1.7152   -0.5542 C   0  0  1  0  0  0  0  0  0  0  0  0
    5.2631   -0.6433    0.0826 C   0  0  0  0  0  0  0  0  0  0  0  0
   -4.5782    0.9731    1.8392 C   0  0  0  0  0  0  0  0  0  0  0  0
    5.9008   -1.1143   -1.0872 C   0  0  0  0  0  0  0  0  0  0  0  0
    5.7234   -1.4232    1.1150 C   0  0  0  0  0  0  0  0  0  0  0  0
    6.7092   -2.1525   -0.6867 C   0  0  0  0  0  0  0  0  0  0  0  0
   -4.4568   -3.0178    0.8522 C   0  0  0  0  0  0  0  0  0  0  0  0
   -3.5951   -3.9717    1.6227 C   0  0  0  0  0  0  0  0  0  0  0  0
    2.6964    2.6419    2.3153 H   0  0  0  0  0  0  0  0  0  0  0  0
    0.0996   -0.3506    0.1029 H   0  0  0  0  0  0  0  0  0  0  0  0
    4.5553    1.1851   -0.6277 H   0  0  0  0  0  0  0  0  0  0  0  0
   -2.0602   -0.1961    1.3299 H   0  0  0  0  0  0  0  0  0  0  0  0
    0.1216    2.7489    2.1481 H   0  0  0  0  0  0  0  0  0  0  0  0
    4.2994    0.6997    2.3966 H   0  0  0  0  0  0  0  0  0  0  0  0
    5.1746    1.9833    1.5364 H   0  0  0  0  0  0  0  0  0  0  0  0
    2.8543    0.6395   -2.1155 H   0  0  0  0  0  0  0  0  0  0  0  0
   -2.0390    2.8261    0.9477 H   0  0  0  0  0  0  0  0  0  0  0  0
   -2.1752    1.9209    2.4426 H   0  0  0  0  0  0  0  0  0  0  0  0
    0.7479    2.9949   -1.5331 H   0  0  0  0  0  0  0  0  0  0  0  0
   -0.6604    3.4263   -0.5498 H   0  0  0  0  0  0  0  0  0  0  0  0
    0.8953    3.8874   -0.0118 H   0  0  0  0  0  0  0  0  0  0  0  0
   -1.6576   -1.2188   -2.1843 H   0  0  0  0  0  0  0  0  0  0  0  0
    1.3794   -1.4233    0.8646 H   0  0  0  0  0  0  0  0  0  0  0  0
    3.0108   -1.9325    0.6531 H   0  0  0  0  0  0  0  0  0  0  0  0
    2.5892   -0.8259    1.9681 H   0  0  0  0  0  0  0  0  0  0  0  0
   -1.8989    2.4573   -1.5802 H   0  0  0  0  0  0  0  0  0  0  0  0
   -1.8543    1.1777   -2.7574 H   0  0  0  0  0  0  0  0  0  0  0  0
   -5.3599   -0.7775   -0.1449 H   0  0  0  0  0  0  0  0  0  0  0  0
   -3.9984   -0.8212   -2.0748 H   0  0  0  0  0  0  0  0  0  0  0  0
   -3.7111   -2.3711   -1.3660 H   0  0  0  0  0  0  0  0  0  0  0  0
   -3.8992    2.7027   -0.2198 H   0  0  0  0  0  0  0  0  0  0  0  0
   -4.4561    2.0256    2.1168 H   0  0  0  0  0  0  0  0  0  0  0  0
   -5.6550    0.7851    1.7600 H   0  0  0  0  0  0  0  0  0  0  0  0
   -4.1960    0.3634    2.6652 H   0  0  0  0  0  0  0  0  0  0  0  0
   -0.2003   -0.0861    2.0548 H   0  0  0  0  0  0  0  0  0  0  0  0
    2.4678   -1.4211   -2.8633 H   0  0  0  0  0  0  0  0  0  0  0  0
   -1.6166   -2.8863   -0.7147 H   0  0  0  0  0  0  0  0  0  0  0  0
    5.7884   -0.7475   -2.0975 H   0  0  0  0  0  0  0  0  0  0  0  0
    5.5340   -1.4547    2.1782 H   0  0  0  0  0  0  0  0  0  0  0  0
   -5.8259    2.7504   -1.0186 H   0  0  0  0  0  0  0  0  0  0  0  0
    7.3828   -2.8186   -1.2056 H   0  0  0  0  0  0  0  0  0  0  0  0
   -3.7419   -3.8172    2.6946 H   0  0  0  0  0  0  0  0  0  0  0  0
   -2.5452   -3.8343    1.3568 H   0  0  0  0  0  0  0  0  0  0  0  0
   -3.8821   -4.9979    1.3759 H   0  0  0  0  0  0  0  0  0  0  0  0
  1 11  1  0  0  0  0
  1 14  1  0  0  0  0
  2 28  1  0  0  0  0
  2 31  1  0  0  0  0
  3 19  1  0  0  0  0
  3 65  1  0  0  0  0
  4 21  1  0  0  0  0
  4 66  1  0  0  0  0
  5 26  1  0  0  0  0
  5 67  1  0  0  0  0
  6 23  2  0  0  0  0
  7 29  1  0  0  0  0
  7 37  1  0  0  0  0
  8 31  1  0  0  0  0
  8 70  1  0  0  0  0
  9 35  1  0  0  0  0
  9 36  1  0  0  0  0
 10 37  2  0  0  0  0
 11 12  1  0  0  0  0
 11 13  1  0  0  0  0
 11 14  1  0  0  0  0
 12 15  1  0  0  0  0
 12 19  1  0  0  0  0
 12 25  1  0  0  0  0
 13 17  1  0  0  0  0
 13 21  1  0  0  0  0
 13 27  1  0  0  0  0
 14 20  1  0  0  0  0
 14 39  1  0  0  0  0
 15 16  1  0  0  0  0
 15 23  1  0  0  0  0
 15 40  1  0  0  0  0
 16 18  1  0  0  0  0
 16 26  1  0  0  0  0
 16 28  1  0  0  0  0
 17 20  1  0  0  0  0
 17 32  1  0  0  0  0
 17 41  1  0  0  0  0
 18 22  1  0  0  0  0
 18 24  1  0  0  0  0
 18 42  1  0  0  0  0
 19 22  1  0  0  0  0
 19 43  1  0  0  0  0
 20 44  1  0  0  0  0
 20 45  1  0  0  0  0
 21 23  1  0  0  0  0
 21 46  1  0  0  0  0
 22 47  1  0  0  0  0
 22 48  1  0  0  0  0
 24 29  1  0  0  0  0
 24 31  1  0  0  0  0
 24 33  1  0  0  0  0
 25 49  1  0  0  0  0
 25 50  1  0  0  0  0
 25 51  1  0  0  0  0
 26 30  1  0  0  0  0
 26 52  1  0  0  0  0
 27 53  1  0  0  0  0
 27 54  1  0  0  0  0
 27 55  1  0  0  0  0
 28 56  1  0  0  0  0
 28 57  1  0  0  0  0
 29 30  1  0  0  0  0
 29 58  1  0  0  0  0
 30 59  1  0  0  0  0
 30 60  1  0  0  0  0
 31 61  1  0  0  0  0
 32 34  1  0  0  0  0
 32 35  2  0  0  0  0
 33 62  1  0  0  0  0
 33 63  1  0  0  0  0
 33 64  1  0  0  0  0
 34 36  2  0  0  0  0
 34 68  1  0  0  0  0
 35 69  1  0  0  0  0
 36 71  1  0  0  0  0
 37 38  1  0  0  0  0
 38 72  1  0  0  0  0
 38 73  1  0  0  0  0
 38 74  1  0  0  0  0
M  END
> <PUBCHEM_COMPOUND_CID>
5462416

> <PUBCHEM_CONFORMER_RMSD>
1

> <PUBCHEM_CONFORMER_DIVERSEORDER>
1

> <PUBCHEM_MMFF94_PARTIAL_CHARGES>
38
1 -0.3
10 -0.57
11 -0.04
12 0.09
13 0.09
14 -0.05
15 0.06
17 0.18
19 0.28
2 -0.56
20 0.09
21 0.34
23 0.45
26 0.28
28 0.28
29 0.28
3 -0.68
31 0.56
32 -0.18
34 -0.15
35 -0.01
36 -0.01
37 0.66
38 0.06
39 0.1
4 -0.68
5 -0.68
6 -0.57
65 0.4
66 0.4
67 0.4
68 0.15
69 0.15
7 -0.43
70 0.4
71 0.15
8 -0.68
9 -0.28

> <PUBCHEM_EFFECTIVE_ROTOR_COUNT>
5.4

> <PUBCHEM_PHARMACOPHORE_FEATURES>
19
1 1 acceptor
1 10 acceptor
1 2 acceptor
1 3 acceptor
1 3 donor
1 4 acceptor
1 4 donor
1 5 acceptor
1 5 donor
1 6 acceptor
1 8 acceptor
1 8 donor
1 9 acceptor
5 9 32 34 35 36 rings
6 1 11 13 14 17 20 rings
6 11 12 13 15 21 23 rings
6 12 15 16 18 19 22 rings
6 16 18 24 26 29 30 rings
6 2 16 18 24 28 31 rings

> <PUBCHEM_HEAVY_ATOM_COUNT>
38

> <PUBCHEM_ATOM_DEF_STEREO_COUNT>
13

> <PUBCHEM_ATOM_UDEF_STEREO_COUNT>
1

> <PUBCHEM_BOND_DEF_STEREO_COUNT>
0

> <PUBCHEM_BOND_UDEF_STEREO_COUNT>
0

> <PUBCHEM_ISOTOPIC_ATOM_COUNT>
0

> <PUBCHEM_COMPONENT_COUNT>
1

> <PUBCHEM_CACTVS_TAUTO_COUNT>
4

> <PUBCHEM_CONFORMER_ID>
0053599000000001

> <PUBCHEM_MMFF94_ENERGY>
163.4518

> <PUBCHEM_FEATURE_SELFOVERLAP>
98.37

> <PUBCHEM_SHAPE_FINGERPRINT>
10319926 262 18410015437539638283
10675989 125 16383655390721270720
11285246 1 17487895605680412459
11456790 92 17822001022427746089
11545043 162 18411139125607005598
117089 54 18339633430683287026
11796584 16 18271247222287190154
11963148 33 17759243994479454734
12166972 35 18059849533088804038
12422481 6 17168137966663408028
12633257 1 18113336440131808784
13224815 77 17386005035850242365
13583140 156 18409454678510064021
13690498 29 17775283872136692493
13782708 43 18412262800657862218
14114206 34 15123519111524834703
14420673 8 18337388344018892902
14739800 52 6915993512677687534
14747281 78 11887414520351219455
14856354 85 18411132580134693932
14950920 106 18261104141310381219
15815584 197 17531512282861303590
17349148 13 17749109989258515228
17492 89 18267303136327934129
18603816 31 17775005734513647626
19319366 153 17467916272628947336
22393880 68 18273223001394904058
23516275 137 17557125517994629434
23559900 14 18408893931738137848
23569914 152 12243800340679010394
23569917 315 16588033415186828847
3383291 50 17822016423859339207
3633792 109 17605004787303765893
392239 28 18115012044297374267
44062 13 18342742918332475835
508706 21 18272098179830833535
5104073 3 18040994012204676192
6009941 240 18411140276689811598
8863177 126 18412262801174612666

> <PUBCHEM_SHAPE_MULTIPOLES>
723.33
13.55
3.46
2.01
10.86
2.06
0.3
9.37
-1.51
-2.52
-1.15
-0.41
-0.16
1.77

> <PUBCHEM_SHAPE_SELFOVERLAP>
1595.683

> <PUBCHEM_SHAPE_VOLUME>
379.3

> <PUBCHEM_COORDINATE_TYPE>
2
5
10

$$$$

