441936
  -OEChem-07051212562D

 76 81  0     1  0  0  0  0  0999 V2000
    2.7275    2.4335    0.0000 O   0  0  0  0  0  0  0  0  0  0  0  0
    4.0935    2.7995    0.0000 O   0  0  0  0  0  0  0  0  0  0  0  0
   10.7866   -2.1397    0.0000 O   0  0  0  0  0  0  0  0  0  0  0  0
    3.5935   -0.1082    0.0000 C   0  0  2  0  0  0  0  0  0  0  0  0
    3.5935    0.9335    0.0000 C   0  0  2  0  0  0  0  0  0  0  0  0
    2.6079   -0.4256    0.0000 C   0  0  1  0  0  0  0  0  0  0  0  0
    5.3935   -0.0873    0.0000 C   0  0  2  0  0  0  0  0  0  0  0  0
    4.4996    1.4473    0.0000 C   0  0  1  0  0  0  0  0  0  0  0  0
    6.2596   -0.5873    0.0000 C   0  0  1  0  0  0  0  0  0  0  0  0
    4.4996   -0.6220    0.0000 C   0  0  0  0  0  0  0  0  0  0  0  0
    4.0944   -0.0352    0.0000 C   0  0  0  0  0  0  0  0  0  0  0  0
    5.3935    0.9127    0.0000 C   0  0  0  0  0  0  0  0  0  0  0  0
    7.1256   -0.0873    0.0000 C   0  0  1  0  0  0  0  0  0  0  0  0
    2.6079    1.2509    0.0000 C   0  0  0  0  0  0  0  0  0  0  0  0
    2.0000    0.4127    0.0000 C   0  0  0  0  0  0  0  0  0  0  0  0
    8.0356   -0.5942    0.0000 C   0  0  2  0  0  0  0  0  0  0  0  0
    8.0436   -1.6358    0.0000 C   0  0  1  0  0  0  0  0  0  0  0  0
    6.2435   -1.6289    0.0000 C   0  0  0  0  0  0  0  0  0  0  0  0
    7.1256    0.9127    0.0000 C   0  0  0  0  0  0  0  0  0  0  0  0
    7.1415   -2.1566    0.0000 C   0  0  0  0  0  0  0  0  0  0  0  0
    6.2596    1.4126    0.0000 C   0  0  0  0  0  0  0  0  0  0  0  0
    2.2713   -1.3672    0.0000 C   0  0  0  0  0  0  0  0  0  0  0  0
    5.0516   -1.0271    0.0000 C   0  0  0  0  0  0  0  0  0  0  0  0
    5.6167   -1.3534    0.0000 C   0  0  0  0  0  0  0  0  0  0  0  0
    3.5935    1.9335    0.0000 C   0  0  0  0  0  0  0  0  0  0  0  0
    8.9790   -2.1855    0.0000 C   0  0  0  0  0  0  0  0  0  0  0  0
    8.9624   -0.0301    0.0000 C   0  0  0  0  0  0  0  0  0  0  0  0
    8.0279    0.4058    0.0000 C   0  0  0  0  0  0  0  0  0  0  0  0
    9.9187   -1.6430    0.0000 C   0  0  2  0  0  0  0  0  0  0  0  0
    9.9103   -0.5581    0.0000 C   0  0  0  0  0  0  0  0  0  0  0  0
    9.4757   -3.0535    0.0000 C   0  0  0  0  0  0  0  0  0  0  0  0
    8.4757   -3.0496    0.0000 C   0  0  0  0  0  0  0  0  0  0  0  0
    3.5935   -0.9582    0.0000 H   0  0  0  0  0  0  0  0  0  0  0  0
    4.9331    2.1785    0.0000 H   0  0  0  0  0  0  0  0  0  0  0  0
    4.1060   -1.1010    0.0000 H   0  0  0  0  0  0  0  0  0  0  0  0
    4.9042   -1.0918    0.0000 H   0  0  0  0  0  0  0  0  0  0  0  0
    4.1454   -0.6531    0.0000 H   0  0  0  0  0  0  0  0  0  0  0  0
    4.7118   -0.0923    0.0000 H   0  0  0  0  0  0  0  0  0  0  0  0
    7.8584    0.3433    0.0000 H   0  0  0  0  0  0  0  0  0  0  0  0
    2.8589    1.8178    0.0000 H   0  0  0  0  0  0  0  0  0  0  0  0
    2.0705    1.5601    0.0000 H   0  0  0  0  0  0  0  0  0  0  0  0
    1.5391    0.8274    0.0000 H   0  0  0  0  0  0  0  0  0  0  0  0
    1.5391   -0.0021    0.0000 H   0  0  0  0  0  0  0  0  0  0  0  0
    8.0403   -2.4858    0.0000 H   0  0  0  0  0  0  0  0  0  0  0  0
    5.6343   -1.5134    0.0000 H   0  0  0  0  0  0  0  0  0  0  0  0
    6.0255   -2.2093    0.0000 H   0  0  0  0  0  0  0  0  0  0  0  0
    7.7362    0.8050    0.0000 H   0  0  0  0  0  0  0  0  0  0  0  0
    7.3376    1.4953    0.0000 H   0  0  0  0  0  0  0  0  0  0  0  0
    6.7406   -2.6295    0.0000 H   0  0  0  0  0  0  0  0  0  0  0  0
    7.5388   -2.6326    0.0000 H   0  0  0  0  0  0  0  0  0  0  0  0
    6.2596    2.0326    0.0000 H   0  0  0  0  0  0  0  0  0  0  0  0
    1.6875   -1.1586    0.0000 H   0  0  0  0  0  0  0  0  0  0  0  0
    2.0627   -1.9511    0.0000 H   0  0  0  0  0  0  0  0  0  0  0  0
    2.8552   -1.5759    0.0000 H   0  0  0  0  0  0  0  0  0  0  0  0
    4.4690   -0.8151    0.0000 H   0  0  0  0  0  0  0  0  0  0  0  0
    4.8396   -1.6097    0.0000 H   0  0  0  0  0  0  0  0  0  0  0  0
    5.6342   -1.2391    0.0000 H   0  0  0  0  0  0  0  0  0  0  0  0
    5.1418   -0.9548    0.0000 H   0  0  0  0  0  0  0  0  0  0  0  0
    5.2182   -1.8283    0.0000 H   0  0  0  0  0  0  0  0  0  0  0  0
    6.0917   -1.7519    0.0000 H   0  0  0  0  0  0  0  0  0  0  0  0
    9.3523    0.4519    0.0000 H   0  0  0  0  0  0  0  0  0  0  0  0
    8.5542    0.4365    0.0000 H   0  0  0  0  0  0  0  0  0  0  0  0
    8.6478    0.4106    0.0000 H   0  0  0  0  0  0  0  0  0  0  0  0
    8.0231    1.0258    0.0000 H   0  0  0  0  0  0  0  0  0  0  0  0
    7.4079    0.4010    0.0000 H   0  0  0  0  0  0  0  0  0  0  0  0
   10.4538   -1.3299    0.0000 H   0  0  0  0  0  0  0  0  0  0  0  0
   10.5220   -0.6594    0.0000 H   0  0  0  0  0  0  0  0  0  0  0  0
   10.1148    0.0272    0.0000 H   0  0  0  0  0  0  0  0  0  0  0  0
    8.9376   -3.3614    0.0000 H   0  0  0  0  0  0  0  0  0  0  0  0
    9.7836   -3.5916    0.0000 H   0  0  0  0  0  0  0  0  0  0  0  0
   10.0138   -2.7455    0.0000 H   0  0  0  0  0  0  0  0  0  0  0  0
    7.9400   -2.7375    0.0000 H   0  0  0  0  0  0  0  0  0  0  0  0
    8.1636   -3.5854    0.0000 H   0  0  0  0  0  0  0  0  0  0  0  0
    9.0114   -3.3617    0.0000 H   0  0  0  0  0  0  0  0  0  0  0  0
    2.7275    3.0535    0.0000 H   0  0  0  0  0  0  0  0  0  0  0  0
   11.3223   -1.8276    0.0000 H   0  0  0  0  0  0  0  0  0  0  0  0
  1 25  1  0  0  0  0
  1 75  1  0  0  0  0
  2 25  2  0  0  0  0
 29  3  1  6  0  0  0
  3 76  1  0  0  0  0
  4  5  1  0  0  0  0
  4  6  1  0  0  0  0
  4 10  1  0  0  0  0
  4 33  1  6  0  0  0
  5  8  1  0  0  0  0
  5 14  1  0  0  0  0
  5 25  1  6  0  0  0
  6 11  1  0  0  0  0
  6 15  1  0  0  0  0
  6 22  1  6  0  0  0
  7  9  1  0  0  0  0
  7 10  1  0  0  0  0
  7 12  1  0  0  0  0
  7 23  1  1  0  0  0
  8 11  1  0  0  0  0
  8 12  1  0  0  0  0
  8 34  1  1  0  0  0
  9 13  1  0  0  0  0
  9 18  1  0  0  0  0
  9 24  1  6  0  0  0
 10 35  1  0  0  0  0
 10 36  1  0  0  0  0
 11 37  1  0  0  0  0
 11 38  1  0  0  0  0
 12 21  2  0  0  0  0
 13 16  1  0  0  0  0
 13 19  1  0  0  0  0
 13 39  1  1  0  0  0
 14 15  1  0  0  0  0
 14 40  1  0  0  0  0
 14 41  1  0  0  0  0
 15 42  1  0  0  0  0
 15 43  1  0  0  0  0
 16 17  1  0  0  0  0
 16 27  1  0  0  0  0
 16 28  1  6  0  0  0
 17 20  1  0  0  0  0
 17 26  1  0  0  0  0
 17 44  1  1  0  0  0
 18 20  1  0  0  0  0
 18 45  1  0  0  0  0
 18 46  1  0  0  0  0
 19 21  1  0  0  0  0
 19 47  1  0  0  0  0
 19 48  1  0  0  0  0
 20 49  1  0  0  0  0
 20 50  1  0  0  0  0
 21 51  1  0  0  0  0
 22 52  1  0  0  0  0
 22 53  1  0  0  0  0
 22 54  1  0  0  0  0
 23 55  1  0  0  0  0
 23 56  1  0  0  0  0
 23 57  1  0  0  0  0
 24 58  1  0  0  0  0
 24 59  1  0  0  0  0
 24 60  1  0  0  0  0
 26 29  1  0  0  0  0
 26 31  1  0  0  0  0
 26 32  1  0  0  0  0
 27 30  1  0  0  0  0
 27 61  1  0  0  0  0
 27 62  1  0  0  0  0
 28 63  1  0  0  0  0
 28 64  1  0  0  0  0
 28 65  1  0  0  0  0
 29 30  1  0  0  0  0
 29 66  1  0  0  0  0
 30 67  1  0  0  0  0
 30 68  1  0  0  0  0
 31 69  1  0  0  0  0
 31 70  1  0  0  0  0
 31 71  1  0  0  0  0
 32 72  1  0  0  0  0
 32 73  1  0  0  0  0
 32 74  1  0  0  0  0
M  END
> <PUBCHEM_COMPOUND_CID>
441936

> <PUBCHEM_COMPOUND_CANONICALIZED>
1

> <PUBCHEM_CACTVS_COMPLEXITY>
919

> <PUBCHEM_CACTVS_HBOND_ACCEPTOR>
3

> <PUBCHEM_CACTVS_HBOND_DONOR>
2

> <PUBCHEM_CACTVS_ROTATABLE_BOND>
1

> <PUBCHEM_CACTVS_SUBSKEYS>
AAADcfB4MAAAAAAAAAAAAAAAAAAAAYMAAAAwYMGCBgAAAADAAAAAGgAACAAADxSggAICCAAAAgCIAiDSCAAAAAAgAAAACAEAAAgAEBIAAQAAQAAEgAAIAAOIyPCPgAAAAAAAAADAAAYAADAAAQAACAAAAA==

> <PUBCHEM_IUPAC_INCHI>
InChI=1S/C29H44O3/c1-24(2)19-9-12-27(5)20(26(19,4)11-10-22(24)30)8-7-17-18-15-25(3)13-14-29(18,23(31)32)21(25)16-28(17,27)6/h7,18-22,30H,8-16H2,1-6H3,(H,31,32)/t18-,19-,20+,21-,22-,25+,26-,27+,28+,29+/m0/s1

> <PUBCHEM_IUPAC_INCHIKEY>
AXDBORJNOUXIBC-FZVIGMKHSA-N

> <PUBCHEM_XLOGP3_AA>
6.6

> <PUBCHEM_EXACT_MASS>
440.329045

> <PUBCHEM_MOLECULAR_FORMULA>
C29H44O3

> <PUBCHEM_MOLECULAR_WEIGHT>
440.65786

> <PUBCHEM_OPENEYE_CAN_SMILES>
CC1(C2CCC3(C(C2(CCC1O)C)CC=C4C3(CC5C6(CCC5(C4C6)C(=O)O)C)C)C)C

> <PUBCHEM_OPENEYE_ISO_SMILES>
C[C@]12CC[C@@]3([C@H]1C[C@@]4(C(=CC[C@H]5[C@]4(CC[C@@H]6[C@@]5(CC[C@@H](C6(C)C)O)C)C)[C@@H]3C2)C)C(=O)O

> <PUBCHEM_CACTVS_TPSA>
57.5

> <PUBCHEM_MONOISOTOPIC_WEIGHT>
440.329045

> <PUBCHEM_TOTAL_CHARGE>
0

> <PUBCHEM_HEAVY_ATOM_COUNT>
32

> <PUBCHEM_ATOM_DEF_STEREO_COUNT>
10

> <PUBCHEM_ATOM_UDEF_STEREO_COUNT>
0

> <PUBCHEM_BOND_DEF_STEREO_COUNT>
0

> <PUBCHEM_BOND_UDEF_STEREO_COUNT>
0

> <PUBCHEM_ISOTOPIC_ATOM_COUNT>
0

> <PUBCHEM_COMPONENT_COUNT>
1

> <PUBCHEM_CACTVS_TAUTO_COUNT>
1

> <PUBCHEM_COORDINATE_TYPE>
1
5
255

> <PUBCHEM_BONDANNOTATIONS>
13  39  5
16  28  6
17  44  5
29  3  6
4  33  6
5  25  6
6  22  6
7  23  5
8  34  5
9  24  6

$$$$

