442127
  -OEChem-07051212573D

 32 34  0     1  0  0  0  0  0999 V2000
    1.9439   -1.2345   -0.1334 O   0  0  0  0  0  0  0  0  0  0  0  0
    3.2507    0.9321   -1.6563 O   0  0  0  0  0  0  0  0  0  0  0  0
   -2.7950   -1.2224   -0.1920 O   0  0  0  0  0  0  0  0  0  0  0  0
   -5.0852   -1.2441   -0.2150 O   0  0  0  0  0  0  0  0  0  0  0  0
    3.1849   -0.6088    0.2474 C   0  0  0  0  0  0  0  0  0  0  0  0
    3.2628    0.8575   -0.2279 C   0  0  2  0  0  0  0  0  0  0  0  0
    2.0818    1.6780    0.2817 C   0  0  0  0  0  0  0  0  0  0  0  0
    0.7983    0.9059    0.1556 C   0  0  0  0  0  0  0  0  0  0  0  0
    0.8047   -0.4819   -0.0350 C   0  0  0  0  0  0  0  0  0  0  0  0
    4.2876   -1.4551   -0.4108 C   0  0  0  0  0  0  0  0  0  0  0  0
    3.3441   -0.7250    1.7741 C   0  0  0  0  0  0  0  0  0  0  0  0
   -0.4285    1.5840    0.2562 C   0  0  0  0  0  0  0  0  0  0  0  0
   -0.3978   -1.1805   -0.1601 C   0  0  0  0  0  0  0  0  0  0  0  0
   -1.6348    0.8892    0.1422 C   0  0  0  0  0  0  0  0  0  0  0  0
   -1.6003   -0.4845   -0.0679 C   0  0  0  0  0  0  0  0  0  0  0  0
   -2.9242    1.5525    0.2337 C   0  0  0  0  0  0  0  0  0  0  0  0
   -4.0520    0.8476    0.1157 C   0  0  0  0  0  0  0  0  0  0  0  0
   -4.0412   -0.6099   -0.1083 C   0  0  0  0  0  0  0  0  0  0  0  0
    4.1999    1.3224    0.0982 H   0  0  0  0  0  0  0  0  0  0  0  0
    2.2278    1.9355    1.3371 H   0  0  0  0  0  0  0  0  0  0  0  0
    2.0037    2.6107   -0.2905 H   0  0  0  0  0  0  0  0  0  0  0  0
    4.1610   -1.4958   -1.4984 H   0  0  0  0  0  0  0  0  0  0  0  0
    4.2433   -2.4940   -0.0631 H   0  0  0  0  0  0  0  0  0  0  0  0
    5.2840   -1.0586   -0.1902 H   0  0  0  0  0  0  0  0  0  0  0  0
    2.5334   -0.2243    2.3127 H   0  0  0  0  0  0  0  0  0  0  0  0
    4.2950   -0.2978    2.1094 H   0  0  0  0  0  0  0  0  0  0  0  0
    3.3070   -1.7749    2.0880 H   0  0  0  0  0  0  0  0  0  0  0  0
   -0.4326    2.6601    0.4193 H   0  0  0  0  0  0  0  0  0  0  0  0
   -0.3971   -2.2552   -0.3204 H   0  0  0  0  0  0  0  0  0  0  0  0
    2.4806    0.4373   -1.9827 H   0  0  0  0  0  0  0  0  0  0  0  0
   -2.9549    2.6238    0.3981 H   0  0  0  0  0  0  0  0  0  0  0  0
   -5.0184    1.3354    0.1826 H   0  0  0  0  0  0  0  0  0  0  0  0
  1  5  1  0  0  0  0
  1  9  1  0  0  0  0
  2  6  1  0  0  0  0
  2 30  1  0  0  0  0
  3 15  1  0  0  0  0
  3 18  1  0  0  0  0
  4 18  2  0  0  0  0
  5  6  1  0  0  0  0
  5 10  1  0  0  0  0
  5 11  1  0  0  0  0
  6  7  1  0  0  0  0
  6 19  1  0  0  0  0
  7  8  1  0  0  0  0
  7 20  1  0  0  0  0
  7 21  1  0  0  0  0
  8  9  2  0  0  0  0
  8 12  1  0  0  0  0
  9 13  1  0  0  0  0
 10 22  1  0  0  0  0
 10 23  1  0  0  0  0
 10 24  1  0  0  0  0
 11 25  1  0  0  0  0
 11 26  1  0  0  0  0
 11 27  1  0  0  0  0
 12 14  2  0  0  0  0
 12 28  1  0  0  0  0
 13 15  2  0  0  0  0
 13 29  1  0  0  0  0
 14 15  1  0  0  0  0
 14 16  1  0  0  0  0
 16 17  2  0  0  0  0
 16 31  1  0  0  0  0
 17 18  1  0  0  0  0
 17 32  1  0  0  0  0
M  END
> <PUBCHEM_COMPOUND_CID>
442127

> <PUBCHEM_CONFORMER_RMSD>
0.6

> <PUBCHEM_CONFORMER_DIVERSEORDER>
2
1

> <PUBCHEM_MMFF94_PARTIAL_CHARGES>
21
1 -0.36
12 -0.15
13 -0.15
14 0.03
15 0.08
16 -0.18
17 -0.14
18 0.71
2 -0.68
28 0.15
29 0.15
3 -0.23
30 0.4
31 0.15
32 0.15
4 -0.57
5 0.28
6 0.28
7 0.14
8 -0.14
9 0.08

> <PUBCHEM_EFFECTIVE_ROTOR_COUNT>
0.8

> <PUBCHEM_PHARMACOPHORE_FEATURES>
8
1 1 acceptor
1 2 acceptor
1 2 donor
1 4 acceptor
3 5 10 11 hydrophobe
6 1 5 6 7 8 9 rings
6 3 14 15 16 17 18 rings
6 8 9 12 13 14 15 rings

> <PUBCHEM_HEAVY_ATOM_COUNT>
18

> <PUBCHEM_ATOM_DEF_STEREO_COUNT>
1

> <PUBCHEM_ATOM_UDEF_STEREO_COUNT>
0

> <PUBCHEM_BOND_DEF_STEREO_COUNT>
0

> <PUBCHEM_BOND_UDEF_STEREO_COUNT>
0

> <PUBCHEM_ISOTOPIC_ATOM_COUNT>
0

> <PUBCHEM_COMPONENT_COUNT>
1

> <PUBCHEM_CACTVS_TAUTO_COUNT>
1

> <PUBCHEM_CONFORMER_ID>
0006BF0F00000002

> <PUBCHEM_MMFF94_ENERGY>
62.4153

> <PUBCHEM_FEATURE_SELFOVERLAP>
40.652

> <PUBCHEM_SHAPE_FINGERPRINT>
10062212 137 18409455808028498835
10967382 1 18336829675989298377
11132069 177 18334864956058180521
11471102 20 18410858741535956060
11543360 7 16343416220281588499
12032990 46 18335137604977298537
12236239 1 18201438103905719538
12403259 226 18409174336941093305
13221675 6 18409167714148378499
13288520 33 18262234529647867438
13675066 3 17894921749213095266
13760787 5 18272644649915618661
14144814 61 18408603660446527393
15196674 1 18408885144134504801
15442244 35 18337390547152213736
15536298 74 18333733502917016080
16945 1 18261954153850572552
17804303 29 18333731333953276305
1813 80 17559399270050769018
18186145 218 17847064393265211262
19026448 4 15719390650805764649
19050596 39 18411419535705945233
19422 9 18413103978655541129
200 152 18040442088075777277
20281475 54 18409728503807128953
20559304 39 18409732867884174920
20645477 70 18413671301033531758
21267235 1 18409158922371773351
21501502 16 18412542123924210953
21501925 9 18409177605389470104
221490 88 18339635638131959226
2255824 54 17846777408446749194
22646028 1 18272656765701726267
23402539 116 18334864956047572605
23463225 33 18411983576280502584
23557571 272 17894346700347428462
23559900 14 18189617327167584686
2871803 45 18342746204309660791
296302 2 8070024471682082721
312423 11 18342726429810796609
3286 77 18409736153070283428
335352 9 18264487476117743565
4214541 1 18409166653660922841
465052 167 18261949631872742655
474 4 17202191924887985020
4990 188 17967802864696827020
5104073 3 18409166610658418881
5374978 207 18409173181773589433
537710 114 18410289190318241885
633830 44 17203604913066862321
7364860 26 18261957349944706744
77779 3 18410009940255799373
8809292 202 18342454807890197707
9709674 26 18409162212406594287
9981440 41 17477203830469608840

> <PUBCHEM_SHAPE_MULTIPOLES>
346.95
8.73
1.77
0.94
4.02
0.23
-0.11
-2.37
0.29
0.05
0.04
-1.06
0.01
-0.49

> <PUBCHEM_SHAPE_SELFOVERLAP>
761.05

> <PUBCHEM_SHAPE_VOLUME>
187.7

> <PUBCHEM_COORDINATE_TYPE>
2
5
10

$$$$

