17395964
  -OEChem-06241222532D

 35 37  0     1  0  0  0  0  0999 V2000
    5.5443   -0.6703    0.0000 S   0  0  0  0  0  0  0  0  0  0  0  0
    9.4758   -0.9534    0.0000 S   0  0  0  0  0  0  0  0  0  0  0  0
    7.7157   -0.6746    0.0000 O   0  0  0  0  0  0  0  0  0  0  0  0
   12.1119   -0.7277    0.0000 O   0  0  0  0  0  0  0  0  0  0  0  0
    7.7157    0.9434    0.0000 N   0  0  0  0  0  0  0  0  0  0  0  0
    8.6668    0.6344    0.0000 N   0  0  0  0  0  0  0  0  0  0  0  0
    2.8660    0.6344    0.0000 C   0  0  3  0  0  0  0  0  0  0  0  0
    2.8660   -0.3656    0.0000 C   0  0  0  0  0  0  0  0  0  0  0  0
    3.7320    1.1344    0.0000 C   0  0  0  0  0  0  0  0  0  0  0  0
    3.7320   -0.8656    0.0000 C   0  0  0  0  0  0  0  0  0  0  0  0
    4.5981    0.6344    0.0000 C   0  0  0  0  0  0  0  0  0  0  0  0
    4.5981   -0.3656    0.0000 C   0  0  0  0  0  0  0  0  0  0  0  0
    2.0000    1.1344    0.0000 C   0  0  0  0  0  0  0  0  0  0  0  0
    5.5443    0.9391    0.0000 C   0  0  0  0  0  0  0  0  0  0  0  0
    6.1279    0.1344    0.0000 C   0  0  0  0  0  0  0  0  0  0  0  0
    7.1279    0.1344    0.0000 C   0  0  0  0  0  0  0  0  0  0  0  0
    8.6668   -0.3656    0.0000 C   0  0  0  0  0  0  0  0  0  0  0  0
   10.3893   -0.5466    0.0000 C   0  0  0  0  0  0  0  0  0  0  0  0
   11.1983   -1.1344    0.0000 C   0  0  0  0  0  0  0  0  0  0  0  0
    2.8660    1.2544    0.0000 H   0  0  0  0  0  0  0  0  0  0  0  0
    2.2554   -0.2579    0.0000 H   0  0  0  0  0  0  0  0  0  0  0  0
    2.6540   -0.9482    0.0000 H   0  0  0  0  0  0  0  0  0  0  0  0
    4.1306    1.6094    0.0000 H   0  0  0  0  0  0  0  0  0  0  0  0
    3.3335    1.6094    0.0000 H   0  0  0  0  0  0  0  0  0  0  0  0
    3.3335   -1.3405    0.0000 H   0  0  0  0  0  0  0  0  0  0  0  0
    4.1306   -1.3405    0.0000 H   0  0  0  0  0  0  0  0  0  0  0  0
    2.3100    1.6714    0.0000 H   0  0  0  0  0  0  0  0  0  0  0  0
    1.4631    1.4444    0.0000 H   0  0  0  0  0  0  0  0  0  0  0  0
    1.6900    0.5975    0.0000 H   0  0  0  0  0  0  0  0  0  0  0  0
    5.7369    1.5285    0.0000 H   0  0  0  0  0  0  0  0  0  0  0  0
   10.8353   -0.1159    0.0000 H   0  0  0  0  0  0  0  0  0  0  0  0
   10.0426   -0.0326    0.0000 H   0  0  0  0  0  0  0  0  0  0  0  0
   10.7523   -1.5651    0.0000 H   0  0  0  0  0  0  0  0  0  0  0  0
   11.5450   -1.6484    0.0000 H   0  0  0  0  0  0  0  0  0  0  0  0
   12.6135   -1.0921    0.0000 H   0  0  0  0  0  0  0  0  0  0  0  0
  1 12  1  0  0  0  0
  1 15  1  0  0  0  0
  2 17  1  0  0  0  0
  2 18  1  0  0  0  0
  3 16  1  0  0  0  0
  3 17  1  0  0  0  0
  4 19  1  0  0  0  0
  4 35  1  0  0  0  0
  5  6  1  0  0  0  0
  5 16  2  0  0  0  0
  6 17  2  0  0  0  0
  7  8  1  0  0  0  0
  7  9  1  0  0  0  0
  7 13  1  0  0  0  0
  7 20  1  0  0  0  0
  8 10  1  0  0  0  0
  8 21  1  0  0  0  0
  8 22  1  0  0  0  0
  9 11  1  0  0  0  0
  9 23  1  0  0  0  0
  9 24  1  0  0  0  0
 10 12  1  0  0  0  0
 10 25  1  0  0  0  0
 10 26  1  0  0  0  0
 11 12  2  0  0  0  0
 11 14  1  0  0  0  0
 13 27  1  0  0  0  0
 13 28  1  0  0  0  0
 13 29  1  0  0  0  0
 14 15  2  0  0  0  0
 14 30  1  0  0  0  0
 15 16  1  0  0  0  0
 18 19  1  0  0  0  0
 18 31  1  0  0  0  0
 18 32  1  0  0  0  0
 19 33  1  0  0  0  0
 19 34  1  0  0  0  0
M  END
> <PUBCHEM_COMPOUND_CID>
17395964

> <PUBCHEM_COMPOUND_CANONICALIZED>
1

> <PUBCHEM_CACTVS_COMPLEXITY>
308

> <PUBCHEM_CACTVS_HBOND_ACCEPTOR>
6

> <PUBCHEM_CACTVS_HBOND_DONOR>
1

> <PUBCHEM_CACTVS_ROTATABLE_BOND>
4

> <PUBCHEM_CACTVS_SUBSKEYS>
AAADceBzMABgAAAAAAAAAAAAAAAAAWJAAAAwAAAAAAAAAEgB4AAAHgQICAAADQCl2gKyAYAABkiuAiFyEACTAIBsCBBSiDkgDNgINrKgtRmIEQBkyAEoqYeYyOCOAAAAAAAAAAAgAAQAAAgAAAAAAAAAAA==

> <PUBCHEM_IUPAC_OPENEYE_NAME>
2-[[5-(5-methyl-4,5,6,7-tetrahydrobenzothiophen-2-yl)-1,3,4-oxadiazol-2-yl]sulfanyl]ethanol

> <PUBCHEM_IUPAC_CAS_NAME>
2-[[5-(5-methyl-4,5,6,7-tetrahydro-1-benzothiophen-2-yl)-1,3,4-oxadiazol-2-yl]thio]ethanol

> <PUBCHEM_IUPAC_NAME>
2-[[5-(5-methyl-4,5,6,7-tetrahydro-1-benzothiophen-2-yl)-1,3,4-oxadiazol-2-yl]sulfanyl]ethanol

> <PUBCHEM_IUPAC_SYSTEMATIC_NAME>
2-[[5-(5-methyl-4,5,6,7-tetrahydro-1-benzothiophen-2-yl)-1,3,4-oxadiazol-2-yl]sulfanyl]ethanol

> <PUBCHEM_IUPAC_TRADITIONAL_NAME>
2-[[5-(5-methyl-4,5,6,7-tetrahydrobenzothiophen-2-yl)-1,3,4-oxadiazol-2-yl]thio]ethanol

> <PUBCHEM_IUPAC_INCHI>
InChI=1S/C13H16N2O2S2/c1-8-2-3-10-9(6-8)7-11(19-10)12-14-15-13(17-12)18-5-4-16/h7-8,16H,2-6H2,1H3

> <PUBCHEM_IUPAC_INCHIKEY>
XJWNULGBKKGFPC-UHFFFAOYSA-N

> <PUBCHEM_XLOGP3_AA>
2.8

> <PUBCHEM_EXACT_MASS>
296.06532

> <PUBCHEM_MOLECULAR_FORMULA>
C13H16N2O2S2

> <PUBCHEM_MOLECULAR_WEIGHT>
296.40834

> <PUBCHEM_OPENEYE_CAN_SMILES>
CC1CCC2=C(C1)C=C(S2)C3=NN=C(O3)SCCO

> <PUBCHEM_OPENEYE_ISO_SMILES>
CC1CCC2=C(C1)C=C(S2)C3=NN=C(O3)SCCO

> <PUBCHEM_CACTVS_TPSA>
113

> <PUBCHEM_MONOISOTOPIC_WEIGHT>
296.06532

> <PUBCHEM_TOTAL_CHARGE>
0

> <PUBCHEM_HEAVY_ATOM_COUNT>
19

> <PUBCHEM_ATOM_DEF_STEREO_COUNT>
0

> <PUBCHEM_ATOM_UDEF_STEREO_COUNT>
1

> <PUBCHEM_BOND_DEF_STEREO_COUNT>
0

> <PUBCHEM_BOND_UDEF_STEREO_COUNT>
0

> <PUBCHEM_ISOTOPIC_ATOM_COUNT>
0

> <PUBCHEM_COMPONENT_COUNT>
1

> <PUBCHEM_CACTVS_TAUTO_COUNT>
1

> <PUBCHEM_COORDINATE_TYPE>
1
5
255

> <PUBCHEM_BONDANNOTATIONS>
1  12  8
1  15  8
11  12  8
11  14  8
14  15  8
3  16  8
3  17  8
5  16  8
5  6  8
6  17  8
7  13  3

$$$$

