47205082
  -OEChem-06241222583D

 33 34  0     0  0  0  0  0  0999 V2000
    1.4585   -1.0480   -0.6492 O   0  0  0  0  0  0  0  0  0  0  0  0
   -1.0237   -0.9794   -1.6892 O   0  0  0  0  0  0  0  0  0  0  0  0
   -2.0023   -1.4728    0.3619 N   0  0  0  0  0  0  0  0  0  0  0  0
   -4.3478    0.4889    1.1784 N   0  0  0  0  0  0  0  0  0  0  0  0
   -4.8601    1.7246    1.0487 N   0  0  0  0  0  0  0  0  0  0  0  0
   -3.3782   -1.4557   -0.0780 C   0  0  0  0  0  0  0  0  0  0  0  0
   -3.9747   -0.0799   -0.0039 C   0  0  0  0  0  0  0  0  0  0  0  0
    0.3899   -1.3108    0.2353 C   0  0  0  0  0  0  0  0  0  0  0  0
    2.5853   -0.4669   -0.1168 C   0  0  0  0  0  0  0  0  0  0  0  0
   -0.9362   -1.2309   -0.4904 C   0  0  0  0  0  0  0  0  0  0  0  0
    4.5222    0.9554   -0.3653 C   0  0  0  0  0  0  0  0  0  0  0  0
    3.3787    0.3665   -0.9050 C   0  0  0  0  0  0  0  0  0  0  0  0
   -4.2633    0.8481   -0.9745 C   0  0  0  0  0  0  0  0  0  0  0  0
    2.9352   -0.7115    1.2111 C   0  0  0  0  0  0  0  0  0  0  0  0
    4.8724    0.7108    0.9627 C   0  0  0  0  0  0  0  0  0  0  0  0
    4.0789   -0.1227    1.7508 C   0  0  0  0  0  0  0  0  0  0  0  0
    5.3711    1.8458   -1.2080 C   0  0  0  0  0  0  0  0  0  0  0  0
   -4.8059    1.9386   -0.2686 C   0  0  0  0  0  0  0  0  0  0  0  0
   -3.4312   -1.8314   -1.1060 H   0  0  0  0  0  0  0  0  0  0  0  0
   -3.9379   -2.1453    0.5630 H   0  0  0  0  0  0  0  0  0  0  0  0
   -1.8213   -1.6553    1.3449 H   0  0  0  0  0  0  0  0  0  0  0  0
    0.3382   -0.5738    1.0479 H   0  0  0  0  0  0  0  0  0  0  0  0
    0.4990   -2.3190    0.6511 H   0  0  0  0  0  0  0  0  0  0  0  0
    3.1012    0.5515   -1.9398 H   0  0  0  0  0  0  0  0  0  0  0  0
   -4.1036    0.7511   -2.0384 H   0  0  0  0  0  0  0  0  0  0  0  0
   -4.2810    0.0936    2.1081 H   0  0  0  0  0  0  0  0  0  0  0  0
    2.3592   -1.3752    1.8491 H   0  0  0  0  0  0  0  0  0  0  0  0
    5.7627    1.1609    1.3937 H   0  0  0  0  0  0  0  0  0  0  0  0
    4.3554   -0.3183    2.7828 H   0  0  0  0  0  0  0  0  0  0  0  0
    6.1333    1.2566   -1.7274 H   0  0  0  0  0  0  0  0  0  0  0  0
    4.7685    2.3760   -1.9534 H   0  0  0  0  0  0  0  0  0  0  0  0
    5.8708    2.6077   -0.6000 H   0  0  0  0  0  0  0  0  0  0  0  0
   -5.1637    2.8802   -0.6594 H   0  0  0  0  0  0  0  0  0  0  0  0
  1  8  1  0  0  0  0
  1  9  1  0  0  0  0
  2 10  2  0  0  0  0
  3  6  1  0  0  0  0
  3 10  1  0  0  0  0
  3 21  1  0  0  0  0
  4  5  1  0  0  0  0
  4  7  1  0  0  0  0
  4 26  1  0  0  0  0
  5 18  2  0  0  0  0
  6  7  1  0  0  0  0
  6 19  1  0  0  0  0
  6 20  1  0  0  0  0
  7 13  2  0  0  0  0
  8 10  1  0  0  0  0
  8 22  1  0  0  0  0
  8 23  1  0  0  0  0
  9 12  1  0  0  0  0
  9 14  2  0  0  0  0
 11 12  2  0  0  0  0
 11 15  1  0  0  0  0
 11 17  1  0  0  0  0
 12 24  1  0  0  0  0
 13 18  1  0  0  0  0
 13 25  1  0  0  0  0
 14 16  1  0  0  0  0
 14 27  1  0  0  0  0
 15 16  2  0  0  0  0
 15 28  1  0  0  0  0
 16 29  1  0  0  0  0
 17 30  1  0  0  0  0
 17 31  1  0  0  0  0
 17 32  1  0  0  0  0
 18 33  1  0  0  0  0
M  END
> <PUBCHEM_COMPOUND_CID>
47205082

> <PUBCHEM_CONFORMER_RMSD>
1

> <PUBCHEM_CONFORMER_DIVERSEORDER>
1
99
18
65
54
89
48
92
2
55
5
100
96
98
64
15
70
90
13
107
19
21
71
72
46
9
74
4
22
58
56
63
66
10
40
23
101
76
35
109
112
25
3
82
104
108
79
62
51
38
60
47
44
77
86
97
33
29
50
30
39
106
103
34
28
93
37
16
78
6
42
12
17
11
49
111
81
84
53
94
110
7
73
27
20
26
52
8
41
43
105
24
36
45
80
57
69
85
102
14
31
32
91
59
87
75
68
95
83
67
61
88

> <PUBCHEM_MMFF94_PARTIAL_CHARGES>
26
1 -0.36
10 0.57
11 -0.14
12 -0.15
13 -0.15
14 -0.15
15 -0.15
16 -0.15
17 0.14
18 0.14
2 -0.57
21 0.37
24 0.15
25 0.15
26 0.27
27 0.15
28 0.15
29 0.15
3 -0.73
33 0.15
4 0.3
5 -0.71
6 0.48
7 -0.33
8 0.34
9 0.08

> <PUBCHEM_EFFECTIVE_ROTOR_COUNT>
6

> <PUBCHEM_PHARMACOPHORE_FEATURES>
7
1 1 acceptor
1 2 acceptor
1 3 donor
1 4 donor
1 5 acceptor
5 4 5 7 13 18 rings
6 9 11 12 14 15 16 rings

> <PUBCHEM_HEAVY_ATOM_COUNT>
18

> <PUBCHEM_ATOM_DEF_STEREO_COUNT>
0

> <PUBCHEM_ATOM_UDEF_STEREO_COUNT>
0

> <PUBCHEM_BOND_DEF_STEREO_COUNT>
0

> <PUBCHEM_BOND_UDEF_STEREO_COUNT>
0

> <PUBCHEM_ISOTOPIC_ATOM_COUNT>
0

> <PUBCHEM_COMPONENT_COUNT>
1

> <PUBCHEM_CACTVS_TAUTO_COUNT>
4

> <PUBCHEM_CONFORMER_ID>
02D04ADA00000001

> <PUBCHEM_MMFF94_ENERGY>
34.8656

> <PUBCHEM_FEATURE_SELFOVERLAP>
35.528

> <PUBCHEM_SHAPE_FINGERPRINT>
10378564 45 17385714851117263964
10498660 4 17749389264937280954
105312 117 17530685394298127175
10670039 82 18041268954858415072
10912923 1 17988370269240194242
11046707 91 9871750195875282863
11056379 131 18189896405437175551
11089746 13 17385734599260943546
11128504 68 4823209532935060395
11370993 144 16845021228849701579
11552529 35 17273406167305160163
11796584 16 9871207028398568224
12555020 224 14345783942626567148
12596602 18 17489868232972986193
12670546 177 14201400482081837233
12892183 10 16988559143424989699
12969540 114 17095529499845808149
13675066 3 15769500905979079159
14123255 352 18412266146837734237
1420 369 11312053261972742089
14216079 64 10375575007447493609
14251764 30 6843052015061456621
14251764 75 17028513351960021113
14252887 29 14979967969072785938
14341114 328 18060702766896451248
14576447 43 7204773709468359210
14848178 5 9727636085482933308
15188451 53 14261058841240118529
15209294 21 18202848751127370391
15238133 3 18410862040846468696
1601671 61 18408321073474376052
17349148 13 8646492950626591932
17857418 61 8214148438676541868
18186145 218 16153707591852867023
18785283 64 14404322968466211214
193927 3 10952045684522928571
20374829 77 9871750183127401035
20645477 56 18040712546440781287
20645477 70 14273726310303146438
21054139 6 7493286643002776540
21065198 48 17989211412725673714
235170 7 15357698604288846317
23557571 272 17894901881085053783
23559900 14 18188484800131927494
25122255 55 10951508023643447184
26918003 58 13038915416868336791
2748736 6 18194971966402757269
2838139 119 17895202137668867593
312425 54 15267342955011224857
341906 21 18334864908702764147
351380 3 9223227468662040797
38570 142 16915631741627420900
4028521 119 17240202118636667459
4259306 186 7637399618674323289
5104073 3 17345761776866148184
5352402 22 14549017714574761179
5924683 9 16630235914936795275
633830 44 18342461439283110718
7062679 13 9078816490636730365
76465 3 8790887367289943342
90127 26 18130215034223430523
960060 61 5256403916102604346

> <PUBCHEM_SHAPE_MULTIPOLES>
343.75
13.95
1.86
1.39
1.72
0.52
-0.19
8.64
-2.32
0.9
0.18
-0.57
0.07
-1.45

> <PUBCHEM_SHAPE_SELFOVERLAP>
721.591

> <PUBCHEM_SHAPE_VOLUME>
194.4

> <PUBCHEM_COORDINATE_TYPE>
2
5
10

$$$$

