17395698
  -OEChem-06241222513D

 40 41  0     0  0  0  0  0  0999 V2000
   -2.1145   -0.0997   -0.0063 O   0  0  0  0  0  0  0  0  0  0  0  0
    5.6696   -1.2301    0.4467 O   0  0  0  0  0  0  0  0  0  0  0  0
    0.0016   -1.6712   -0.1125 O   0  0  0  0  0  0  0  0  0  0  0  0
   -5.6462    0.6897    0.0717 O   0  0  0  0  0  0  0  0  0  0  0  0
    6.1501    0.7585   -0.5879 O   0  0  0  0  0  0  0  0  0  0  0  0
   -3.1664    1.9312    0.1489 O   0  0  0  0  0  0  0  0  0  0  0  0
    1.9770    1.3599    0.0345 N   0  0  0  0  0  0  0  0  0  0  0  0
    2.8322   -0.6850   -0.1030 C   0  0  0  0  0  0  0  0  0  0  0  0
    1.6563    0.0297   -0.0399 C   0  0  0  0  0  0  0  0  0  0  0  0
    3.8972    0.2486   -0.0649 C   0  0  0  0  0  0  0  0  0  0  0  0
    3.3398    1.5052    0.0207 C   0  0  0  0  0  0  0  0  0  0  0  0
    0.3117   -0.4561   -0.0462 C   0  0  0  0  0  0  0  0  0  0  0  0
    2.9608   -2.1548   -0.1943 C   0  0  0  0  0  0  0  0  0  0  0  0
    3.9605    2.8424    0.0913 C   0  0  0  0  0  0  0  0  0  0  0  0
    5.3076   -0.0175   -0.1048 C   0  0  0  0  0  0  0  0  0  0  0  0
   -0.8569    0.5473    0.0342 C   0  0  0  0  0  0  0  0  0  0  0  0
   -4.4925   -0.0262    0.0121 C   0  0  0  0  0  0  0  0  0  0  0  0
   -3.2260    0.7092    0.0594 C   0  0  0  0  0  0  0  0  0  0  0  0
   -6.6643   -0.2081    0.0119 C   0  0  0  0  0  0  0  0  0  0  0  0
   -4.7631   -1.3712   -0.0853 C   0  0  0  0  0  0  0  0  0  0  0  0
   -6.1734   -1.4894   -0.0853 C   0  0  0  0  0  0  0  0  0  0  0  0
    7.0634   -1.5595    0.4394 C   0  0  0  0  0  0  0  0  0  0  0  0
   -8.0244    0.3469    0.0596 C   0  0  0  0  0  0  0  0  0  0  0  0
    1.3155    2.1221    0.0915 H   0  0  0  0  0  0  0  0  0  0  0  0
    3.8692   -2.4514   -0.7275 H   0  0  0  0  0  0  0  0  0  0  0  0
    2.1373   -2.6069   -0.7538 H   0  0  0  0  0  0  0  0  0  0  0  0
    2.9847   -2.6001    0.8053 H   0  0  0  0  0  0  0  0  0  0  0  0
    4.4183    3.1026   -0.8684 H   0  0  0  0  0  0  0  0  0  0  0  0
    3.2279    3.6191    0.3351 H   0  0  0  0  0  0  0  0  0  0  0  0
    4.7377    2.8688    0.8619 H   0  0  0  0  0  0  0  0  0  0  0  0
   -0.7636    1.0993    0.9765 H   0  0  0  0  0  0  0  0  0  0  0  0
   -0.7756    1.2304   -0.8190 H   0  0  0  0  0  0  0  0  0  0  0  0
   -4.0402   -2.1721   -0.1486 H   0  0  0  0  0  0  0  0  0  0  0  0
   -6.7567   -2.3969   -0.1488 H   0  0  0  0  0  0  0  0  0  0  0  0
    7.1832   -2.5403    0.9070 H   0  0  0  0  0  0  0  0  0  0  0  0
    7.6278   -0.8219    1.0172 H   0  0  0  0  0  0  0  0  0  0  0  0
    7.4326   -1.6115   -0.5890 H   0  0  0  0  0  0  0  0  0  0  0  0
   -8.7769   -0.4460    0.0069 H   0  0  0  0  0  0  0  0  0  0  0  0
   -8.1911    1.0286   -0.7801 H   0  0  0  0  0  0  0  0  0  0  0  0
   -8.1809    0.9016    0.9899 H   0  0  0  0  0  0  0  0  0  0  0  0
  1 16  1  0  0  0  0
  1 18  1  0  0  0  0
  2 15  1  0  0  0  0
  2 22  1  0  0  0  0
  3 12  2  0  0  0  0
  4 17  1  0  0  0  0
  4 19  1  0  0  0  0
  5 15  2  0  0  0  0
  6 18  2  0  0  0  0
  7  9  1  0  0  0  0
  7 11  1  0  0  0  0
  7 24  1  0  0  0  0
  8  9  2  0  0  0  0
  8 10  1  0  0  0  0
  8 13  1  0  0  0  0
  9 12  1  0  0  0  0
 10 11  2  0  0  0  0
 10 15  1  0  0  0  0
 11 14  1  0  0  0  0
 12 16  1  0  0  0  0
 13 25  1  0  0  0  0
 13 26  1  0  0  0  0
 13 27  1  0  0  0  0
 14 28  1  0  0  0  0
 14 29  1  0  0  0  0
 14 30  1  0  0  0  0
 16 31  1  0  0  0  0
 16 32  1  0  0  0  0
 17 18  1  0  0  0  0
 17 20  2  0  0  0  0
 19 21  2  0  0  0  0
 19 23  1  0  0  0  0
 20 21  1  0  0  0  0
 20 33  1  0  0  0  0
 21 34  1  0  0  0  0
 22 35  1  0  0  0  0
 22 36  1  0  0  0  0
 22 37  1  0  0  0  0
 23 38  1  0  0  0  0
 23 39  1  0  0  0  0
 23 40  1  0  0  0  0
M  END
> <PUBCHEM_COMPOUND_CID>
17395698

> <PUBCHEM_CONFORMER_RMSD>
1.2

> <PUBCHEM_CONFORMER_DIVERSEORDER>
1
56
5
40
28
57
41
21
39
35
27
46
18
19
26
48
37
34
53
61
23
16
62
43
47
7
49
42
8
55
31
20
13
58
52
10
38
60
11
30
54
9
45
51
50
14
3
32
12
22
2
4
29
24
36
44
6
17
33
59
25
15

> <PUBCHEM_MMFF94_PARTIAL_CHARGES>
26
1 -0.43
10 -0.09
11 -0.33
12 0.59
13 0.18
14 0.18
15 0.81
16 0.34
17 0.05
18 0.81
19 -0.04
2 -0.43
20 -0.15
21 -0.15
22 0.28
23 0.18
24 0.27
3 -0.57
33 0.15
34 0.15
4 -0.28
5 -0.57
6 -0.57
7 0.03
8 -0.18
9 -0.24

> <PUBCHEM_EFFECTIVE_ROTOR_COUNT>
7

> <PUBCHEM_PHARMACOPHORE_FEATURES>
8
1 3 acceptor
1 4 acceptor
1 5 acceptor
1 6 acceptor
1 7 cation
1 7 donor
5 4 17 19 20 21 rings
5 7 8 9 10 11 rings

> <PUBCHEM_HEAVY_ATOM_COUNT>
23

> <PUBCHEM_ATOM_DEF_STEREO_COUNT>
0

> <PUBCHEM_ATOM_UDEF_STEREO_COUNT>
0

> <PUBCHEM_BOND_DEF_STEREO_COUNT>
0

> <PUBCHEM_BOND_UDEF_STEREO_COUNT>
0

> <PUBCHEM_ISOTOPIC_ATOM_COUNT>
0

> <PUBCHEM_COMPONENT_COUNT>
1

> <PUBCHEM_CACTVS_TAUTO_COUNT>
18

> <PUBCHEM_CONFORMER_ID>
01096FF200000001

> <PUBCHEM_MMFF94_ENERGY>
31.1259

> <PUBCHEM_FEATURE_SELFOVERLAP>
40.599

> <PUBCHEM_SHAPE_FINGERPRINT>
10299344 5 18333447630510888251
10411042 1 18050004691412360350
10595046 47 18335420145517446225
10968037 39 18410573977690450023
11315181 36 18113896044991229713
11524674 6 16732984207047746055
11578080 2 16807592564835095426
11719270 70 18260832622110586646
12166972 35 18343862199595339724
12236239 1 18186802473957038621
12616971 3 17822018574914969212
13533116 47 17274835678433819547
13862211 1 18411699915803676850
14170010 4 18410576176407945368
14251764 18 18413672401220061386
14251764 46 16950282914463388558
14933364 13 18412824677502085445
15183329 4 18335133198150961914
15419008 47 17060347318449319661
15475509 35 16988022573698895040
15716309 27 18410293614382444183
17844677 252 18409724076097254029
20028762 73 18333169479338387190
21150785 3 12247674980995019243
21267235 1 18409163329350707686
21315763 129 18411419535395221933
21315763 28 18410013217969902517
220451 1 12967130497709195985
23035841 295 18410292510887007491
232437 2 18411418398579088515
23402539 116 18411422791634092447
23522609 53 18195214850238593797
23559900 14 18341334375476683929
239999 70 18187639223976227238
3004659 81 18343304760015796305
335352 9 18410852162653822342
350125 39 18409730655496041020
3545911 37 18412825781023590557
4073 2 18059850619462712427
4325135 7 18334575750620359023
4340502 62 14562530691733357220
54446538 1 18334294275285328905
7495541 125 17676491605434957433
9996256 80 18411419518346727862

> <PUBCHEM_SHAPE_MULTIPOLES>
433.13
20.86
2.07
0.62
18.07
0.49
0
-3.19
-0.7
-2.34
-0.05
-0.17
-0.02
-0.43

> <PUBCHEM_SHAPE_SELFOVERLAP>
920.598

> <PUBCHEM_SHAPE_VOLUME>
243.7

> <PUBCHEM_COORDINATE_TYPE>
2
5
10

$$$$

