10705
  -OEChem-06261204523D

 66 68  0     1  0  0  0  0  0999 V2000
   -3.0340    0.7226   -1.2106 P   0  0  1  0  0  0  0  0  0  0  0  0
   -3.1223    2.6994    0.9671 P   0  0  2  0  0  0  0  0  0  0  0  0
    1.8642    2.8870    1.4266 O   0  0  0  0  0  0  0  0  0  0  0  0
   -0.6895   -1.4688   -2.0566 O   0  0  0  0  0  0  0  0  0  0  0  0
   -2.7393   -0.8617   -1.1333 O   0  0  0  0  0  0  0  0  0  0  0  0
   -0.3343   -4.6612    0.4974 O   0  0  0  0  0  0  0  0  0  0  0  0
    1.7473    4.5790   -1.0457 O   0  0  0  0  0  0  0  0  0  0  0  0
    1.9909   -3.6985   -0.9073 O   0  0  0  0  0  0  0  0  0  0  0  0
    2.4803    2.1420   -2.0265 O   0  0  0  0  0  0  0  0  0  0  0  0
   -1.6679    3.3318    0.6482 O   0  0  0  0  0  0  0  0  0  0  0  0
    1.3006   -0.5510   -3.7093 O   0  0  0  0  0  0  0  0  0  0  0  0
   -3.0227    1.2178    0.3283 O   0  0  0  0  0  0  0  0  0  0  0  0
   -1.6763    1.3616   -1.8155 O   0  0  0  0  0  0  0  0  0  0  0  0
   -4.2796    1.0869   -1.9653 O   0  0  0  0  0  0  0  0  0  0  0  0
    4.9551    0.7845   -0.2808 O   0  0  0  0  0  0  0  0  0  0  0  0
   -4.1134    3.4694   -0.0535 O   0  0  0  0  0  0  0  0  0  0  0  0
   -4.3814   -2.7872    0.4294 O   0  0  0  0  0  0  0  0  0  0  0  0
   -3.5451    2.7317    2.4066 O   0  0  0  0  0  0  0  0  0  0  0  0
    3.7324   -2.8556    2.2685 O   0  0  0  0  0  0  0  0  0  0  0  0
    2.9291    0.8793    0.8792 N   0  0  0  0  0  0  0  0  0  0  0  0
   -2.1910   -2.5012    1.1630 N   0  0  0  0  0  0  0  0  0  0  0  0
    4.3440   -1.0275    0.9887 N   0  0  0  0  0  0  0  0  0  0  0  0
   -1.5319   -2.6680   -0.1159 C   0  0  2  0  0  0  0  0  0  0  0  0
   -0.1534   -3.3068    0.0788 C   0  0  2  0  0  0  0  0  0  0  0  0
    0.9425    3.4585   -0.6794 C   0  0  1  0  0  0  0  0  0  0  0  0
    0.6599   -3.2945   -1.2175 C   0  0  1  0  0  0  0  0  0  0  0  0
    1.7307    2.1745   -0.8294 C   0  0  2  0  0  0  0  0  0  0  0  0
    0.7126    3.5178    0.8247 C   0  0  1  0  0  0  0  0  0  0  0  0
    2.6090    2.1972    0.4097 C   0  0  1  0  0  0  0  0  0  0  0  0
    0.6566   -1.8978   -1.8440 C   0  0  1  0  0  0  0  0  0  0  0  0
   -1.4206   -1.3220   -0.8404 C   0  0  1  0  0  0  0  0  0  0  0  0
   -0.5311    2.7624    1.2737 C   0  0  0  0  0  0  0  0  0  0  0  0
    1.3585   -1.8702   -3.1980 C   0  0  0  0  0  0  0  0  0  0  0  0
    4.1329    0.2577    0.4718 C   0  0  0  0  0  0  0  0  0  0  0  0
    2.0560    0.2158    1.7332 C   0  0  0  0  0  0  0  0  0  0  0  0
   -3.5631   -2.5763    1.3208 C   0  0  0  0  0  0  0  0  0  0  0  0
    2.2709   -1.0090    2.2176 C   0  0  0  0  0  0  0  0  0  0  0  0
   -3.9810   -2.3916    2.7550 C   0  0  0  0  0  0  0  0  0  0  0  0
    3.5045   -1.7281    1.8407 C   0  0  0  0  0  0  0  0  0  0  0  0
   -2.1575   -3.3421   -0.7170 H   0  0  0  0  0  0  0  0  0  0  0  0
    0.3998   -2.8057    0.8797 H   0  0  0  0  0  0  0  0  0  0  0  0
    0.0416    3.4903   -1.2950 H   0  0  0  0  0  0  0  0  0  0  0  0
    0.2481   -4.0310   -1.9180 H   0  0  0  0  0  0  0  0  0  0  0  0
    1.0462    1.3185   -0.8254 H   0  0  0  0  0  0  0  0  0  0  0  0
    0.6650    4.5528    1.1818 H   0  0  0  0  0  0  0  0  0  0  0  0
    3.5347    2.7570    0.2296 H   0  0  0  0  0  0  0  0  0  0  0  0
    1.1565   -1.1724   -1.1888 H   0  0  0  0  0  0  0  0  0  0  0  0
   -0.9195   -0.5851   -0.1991 H   0  0  0  0  0  0  0  0  0  0  0  0
   -0.4811    1.7040    1.0058 H   0  0  0  0  0  0  0  0  0  0  0  0
   -0.6390    2.8205    2.3623 H   0  0  0  0  0  0  0  0  0  0  0  0
    0.8537   -2.5282   -3.9131 H   0  0  0  0  0  0  0  0  0  0  0  0
    2.4077   -2.1680   -3.1094 H   0  0  0  0  0  0  0  0  0  0  0  0
   -1.6179   -2.2627    1.9677 H   0  0  0  0  0  0  0  0  0  0  0  0
   -0.8202   -5.1311   -0.2017 H   0  0  0  0  0  0  0  0  0  0  0  0
    1.2139    5.3795   -0.9026 H   0  0  0  0  0  0  0  0  0  0  0  0
    2.3878   -3.0148   -0.3418 H   0  0  0  0  0  0  0  0  0  0  0  0
    3.0078    1.3252   -2.0180 H   0  0  0  0  0  0  0  0  0  0  0  0
    1.1487    0.7244    2.0241 H   0  0  0  0  0  0  0  0  0  0  0  0
    1.7532   -0.5565   -4.5699 H   0  0  0  0  0  0  0  0  0  0  0  0
    5.2026   -1.4934    0.7088 H   0  0  0  0  0  0  0  0  0  0  0  0
    1.5674   -1.4948    2.8826 H   0  0  0  0  0  0  0  0  0  0  0  0
   -3.5710   -3.2004    3.3663 H   0  0  0  0  0  0  0  0  0  0  0  0
   -5.0719   -2.4072    2.8270 H   0  0  0  0  0  0  0  0  0  0  0  0
   -3.6163   -1.4302    3.1279 H   0  0  0  0  0  0  0  0  0  0  0  0
   -1.6907    2.2945   -2.1172 H   0  0  0  0  0  0  0  0  0  0  0  0
   -3.9007    3.4746   -1.0110 H   0  0  0  0  0  0  0  0  0  0  0  0
  1  5  1  0  0  0  0
  1 12  1  0  0  0  0
  1 13  1  0  0  0  0
  1 14  2  0  0  0  0
  2 10  1  0  0  0  0
  2 12  1  0  0  0  0
  2 16  1  0  0  0  0
  2 18  2  0  0  0  0
  3 28  1  0  0  0  0
  3 29  1  0  0  0  0
  4 30  1  0  0  0  0
  4 31  1  0  0  0  0
  5 31  1  0  0  0  0
  6 24  1  0  0  0  0
  6 54  1  0  0  0  0
  7 25  1  0  0  0  0
  7 55  1  0  0  0  0
  8 26  1  0  0  0  0
  8 56  1  0  0  0  0
  9 27  1  0  0  0  0
  9 57  1  0  0  0  0
 10 32  1  0  0  0  0
 11 33  1  0  0  0  0
 11 59  1  0  0  0  0
 13 65  1  0  0  0  0
 15 34  2  0  0  0  0
 16 66  1  0  0  0  0
 17 36  2  0  0  0  0
 19 39  2  0  0  0  0
 20 29  1  0  0  0  0
 20 34  1  0  0  0  0
 20 35  1  0  0  0  0
 21 23  1  0  0  0  0
 21 36  1  0  0  0  0
 21 53  1  0  0  0  0
 22 34  1  0  0  0  0
 22 39  1  0  0  0  0
 22 60  1  0  0  0  0
 23 24  1  0  0  0  0
 23 31  1  0  0  0  0
 23 40  1  0  0  0  0
 24 26  1  0  0  0  0
 24 41  1  0  0  0  0
 25 27  1  0  0  0  0
 25 28  1  0  0  0  0
 25 42  1  0  0  0  0
 26 30  1  0  0  0  0
 26 43  1  0  0  0  0
 27 29  1  0  0  0  0
 27 44  1  0  0  0  0
 28 32  1  0  0  0  0
 28 45  1  0  0  0  0
 29 46  1  0  0  0  0
 30 33  1  0  0  0  0
 30 47  1  0  0  0  0
 31 48  1  0  0  0  0
 32 49  1  0  0  0  0
 32 50  1  0  0  0  0
 33 51  1  0  0  0  0
 33 52  1  0  0  0  0
 35 37  2  0  0  0  0
 35 58  1  0  0  0  0
 36 38  1  0  0  0  0
 37 39  1  0  0  0  0
 37 61  1  0  0  0  0
 38 62  1  0  0  0  0
 38 63  1  0  0  0  0
 38 64  1  0  0  0  0
M  END
> <PUBCHEM_COMPOUND_CID>
10705

> <PUBCHEM_CONFORMER_RMSD>
1.2

> <PUBCHEM_CONFORMER_DIVERSEORDER>
1
93
191
185
47
186
228
73
175
176
138
82
72
177
149
91
164
151
69
4
157
222
109
137
106
54
244
6
161
95
2
231
189
55
210
131
134
14
154
204
192
237
116
233
35
3
144
227
178
249
52
61
38
84
172
89
221
200
208
20
143
225
160
215
207
153
236
147
230
28
110
158
163
80
58
155
190
15
219
90
87
62
248
92
142
17
25
68
196
60
86
193
156
32
167
19
31
102
94
113
88
171
152
64
120
49
8
121
103
146
179
100
119
99
184
53
232
195
12
46
145
205
203
59
197
240
235
108
238
166
66
223
135
199
45
50
43
220
183
97
77
63
33
140
148
159
217
27
123
10
111
5
243
136
132
211
187
71
57
127
117
214
128
78
168
150
104
162
42
51
39
101
216
37
114
188
126
76
209
165
105
23
36
181
21
81
65
107
11
48
174
112
75
29
218
198
118
141
85
169
129
173
246
224
34
234
139
133
13
229
16
30
194
213
170
44
201
41
79
83
115
202
124
239
245
40
130
67
241
56
180
226
74
125
206
96
122
212
22
7
18
182
26
24
9
98
247
242
70

> <PUBCHEM_MMFF94_PARTIAL_CHARGES>
50
1 1.51
10 -0.55
11 -0.68
12 -0.54
13 -0.77
14 -0.7
15 -0.57
16 -0.77
17 -0.57
18 -0.7
19 -0.57
2 1.51
20 -0.47
21 -0.73
22 -0.49
23 0.3
24 0.28
25 0.28
26 0.28
27 0.28
28 0.28
29 0.58
3 -0.56
30 0.28
31 0.56
32 0.28
33 0.28
34 0.69
35 -0.04
36 0.57
37 -0.14
38 0.06
39 0.62
4 -0.56
5 -0.55
53 0.37
54 0.4
55 0.4
56 0.4
57 0.4
58 0.15
59 0.4
6 -0.68
60 0.37
61 0.15
65 0.5
66 0.5
7 -0.68
8 -0.68
9 -0.68

> <PUBCHEM_EFFECTIVE_ROTOR_COUNT>
13.2

> <PUBCHEM_PHARMACOPHORE_FEATURES>
24
1 11 acceptor
1 11 donor
1 13 acceptor
1 14 acceptor
1 15 acceptor
1 16 acceptor
1 17 acceptor
1 18 acceptor
1 19 acceptor
1 21 donor
1 22 donor
1 3 acceptor
1 4 acceptor
1 6 acceptor
1 6 donor
1 7 acceptor
1 7 donor
1 8 acceptor
1 8 donor
1 9 acceptor
1 9 donor
5 3 25 27 28 29 rings
6 20 22 34 35 37 39 rings
6 4 23 24 26 30 31 rings

> <PUBCHEM_HEAVY_ATOM_COUNT>
39

> <PUBCHEM_ATOM_DEF_STEREO_COUNT>
9

> <PUBCHEM_ATOM_UDEF_STEREO_COUNT>
0

> <PUBCHEM_BOND_DEF_STEREO_COUNT>
0

> <PUBCHEM_BOND_UDEF_STEREO_COUNT>
0

> <PUBCHEM_ISOTOPIC_ATOM_COUNT>
0

> <PUBCHEM_COMPONENT_COUNT>
1

> <PUBCHEM_CACTVS_TAUTO_COUNT>
6

> <PUBCHEM_CONFORMER_ID>
000029D100000001

> <PUBCHEM_MMFF94_ENERGY>
51.7745

> <PUBCHEM_FEATURE_SELFOVERLAP>
121.837

> <PUBCHEM_SHAPE_FINGERPRINT>
10032420 55 16611691289096665884
11513181 2 17532665730756850406
12156800 1 18051938607024764902
13122387 1 18263378021545608048
13165054 342 17697586702402957493
13636023 20 17185933700035917661
14279260 333 18341619154132246416
17921350 177 18119528739369246436
17974551 9 18057348152403716687
19319366 153 17549823283211801096
20691752 17 17906452482457008093
20764821 26 18193817448463403875
35225 105 17608409944707479724

> <PUBCHEM_SHAPE_MULTIPOLES>
695.58
7.61
6.48
2.9
1.21
1.23
1.12
-0.04
-3.3
1.44
-0.76
-0.2
-1.32
-0.16

> <PUBCHEM_SHAPE_SELFOVERLAP>
1417.371

> <PUBCHEM_SHAPE_VOLUME>
403.4

> <PUBCHEM_COORDINATE_TYPE>
2
5
10

$$$$

