46173895
  -OEChem-07051213102D

 65 66  0     1  0  0  0  0  0999 V2000
    7.2192   -1.5877    0.0000 S   0  0  0  0  0  0  0  0  0  0  0  0
    2.9665   -2.8004    0.0000 O   0  0  0  0  0  0  0  0  0  0  0  0
    3.2273    0.5904    0.0000 O   0  0  0  0  0  0  0  0  0  0  0  0
    6.9186   -3.5557    0.0000 O   0  0  0  0  0  0  0  0  0  0  0  0
    5.2713   -4.0909    0.0000 O   0  0  0  0  0  0  0  0  0  0  0  0
   13.2192    3.6084    0.0000 O   0  0  0  0  0  0  0  0  0  0  0  0
   10.7192   -0.7217    0.0000 O   0  0  0  0  0  0  0  0  0  0  0  0
   16.2192    3.6084    0.0000 O   0  0  0  0  0  0  0  0  0  0  0  0
   13.7192    1.0104    0.0000 O   0  0  0  0  0  0  0  0  0  0  0  0
    4.6804   -2.0877    0.0000 N   0  0  0  0  0  0  0  0  0  0  0  0
    9.2192    0.1443    0.0000 N   0  0  0  0  0  0  0  0  0  0  0  0
   12.2192    1.8764    0.0000 N   0  0  0  0  0  0  0  0  0  0  0  0
    4.6804   -1.0877    0.0000 C   0  0  1  0  0  0  0  0  0  0  0  0
    3.6721   -1.0836    0.0000 C   0  0  1  0  0  0  0  0  0  0  0  0
    5.6314   -0.7787    0.0000 C   0  0  0  0  0  0  0  0  0  0  0  0
    5.6314   -2.3967    0.0000 C   0  0  2  0  0  0  0  0  0  0  0  0
    6.2192   -1.5877    0.0000 C   0  0  1  0  0  0  0  0  0  0  0  0
    3.6721   -2.0919    0.0000 C   0  0  0  0  0  0  0  0  0  0  0  0
    2.9665   -0.3750    0.0000 C   0  0  3  0  0  0  0  0  0  0  0  0
    5.9405   -3.3478    0.0000 C   0  0  0  0  0  0  0  0  0  0  0  0
    2.0000   -0.6319    0.0000 C   0  0  0  0  0  0  0  0  0  0  0  0
    7.7192   -0.7217    0.0000 C   0  0  0  0  0  0  0  0  0  0  0  0
    8.7192   -0.7217    0.0000 C   0  0  0  0  0  0  0  0  0  0  0  0
   14.7192    2.7424    0.0000 C   0  0  0  0  0  0  0  0  0  0  0  0
   10.2192    0.1443    0.0000 C   0  0  0  0  0  0  0  0  0  0  0  0
   13.7192    2.7424    0.0000 C   0  0  2  0  0  0  0  0  0  0  0  0
   15.7192    2.7424    0.0000 C   0  0  0  0  0  0  0  0  0  0  0  0
   10.7192    1.0104    0.0000 C   0  0  0  0  0  0  0  0  0  0  0  0
   14.7192    3.7424    0.0000 C   0  0  0  0  0  0  0  0  0  0  0  0
   14.7192    1.7424    0.0000 C   0  0  0  0  0  0  0  0  0  0  0  0
   13.2192    1.8764    0.0000 C   0  0  0  0  0  0  0  0  0  0  0  0
   11.7192    1.0104    0.0000 C   0  0  0  0  0  0  0  0  0  0  0  0
    4.5491   -0.2479    0.0000 H   0  0  0  0  0  0  0  0  0  0  0  0
    3.0991   -1.3202    0.0000 H   0  0  0  0  0  0  0  0  0  0  0  0
    6.1684   -0.4687    0.0000 H   0  0  0  0  0  0  0  0  0  0  0  0
    5.3793   -0.2123    0.0000 H   0  0  0  0  0  0  0  0  0  0  0  0
    5.1930   -2.8352    0.0000 H   0  0  0  0  0  0  0  0  0  0  0  0
    6.5007   -2.1402    0.0000 H   0  0  0  0  0  0  0  0  0  0  0  0
    2.5290    0.0643    0.0000 H   0  0  0  0  0  0  0  0  0  0  0  0
    1.8408   -0.0327    0.0000 H   0  0  0  0  0  0  0  0  0  0  0  0
    1.4008   -0.7911    0.0000 H   0  0  0  0  0  0  0  0  0  0  0  0
    2.1592   -1.2311    0.0000 H   0  0  0  0  0  0  0  0  0  0  0  0
    2.7898    1.0297    0.0000 H   0  0  0  0  0  0  0  0  0  0  0  0
    7.8269   -0.1111    0.0000 H   0  0  0  0  0  0  0  0  0  0  0  0
    7.1366   -0.5096    0.0000 H   0  0  0  0  0  0  0  0  0  0  0  0
    7.1102   -4.1454    0.0000 H   0  0  0  0  0  0  0  0  0  0  0  0
    8.6116   -1.3323    0.0000 H   0  0  0  0  0  0  0  0  0  0  0  0
    9.3018   -0.9338    0.0000 H   0  0  0  0  0  0  0  0  0  0  0  0
    8.9092    0.6813    0.0000 H   0  0  0  0  0  0  0  0  0  0  0  0
   13.0992    2.7424    0.0000 H   0  0  0  0  0  0  0  0  0  0  0  0
   15.6116    2.1318    0.0000 H   0  0  0  0  0  0  0  0  0  0  0  0
   16.3018    2.5304    0.0000 H   0  0  0  0  0  0  0  0  0  0  0  0
   15.3392    3.7424    0.0000 H   0  0  0  0  0  0  0  0  0  0  0  0
   14.7192    4.3624    0.0000 H   0  0  0  0  0  0  0  0  0  0  0  0
   14.0992    3.7424    0.0000 H   0  0  0  0  0  0  0  0  0  0  0  0
   14.0992    1.7424    0.0000 H   0  0  0  0  0  0  0  0  0  0  0  0
   14.7192    1.1224    0.0000 H   0  0  0  0  0  0  0  0  0  0  0  0
   15.3392    1.7424    0.0000 H   0  0  0  0  0  0  0  0  0  0  0  0
   10.8269    1.6209    0.0000 H   0  0  0  0  0  0  0  0  0  0  0  0
   10.1366    1.2224    0.0000 H   0  0  0  0  0  0  0  0  0  0  0  0
   11.6116    0.3998    0.0000 H   0  0  0  0  0  0  0  0  0  0  0  0
   12.3018    0.7983    0.0000 H   0  0  0  0  0  0  0  0  0  0  0  0
   11.9092    2.4133    0.0000 H   0  0  0  0  0  0  0  0  0  0  0  0
   13.5292    4.1454    0.0000 H   0  0  0  0  0  0  0  0  0  0  0  0
   16.8392    3.6084    0.0000 H   0  0  0  0  0  0  0  0  0  0  0  0
 17  1  1  6  0  0  0
  1 22  1  0  0  0  0
  2 18  2  0  0  0  0
  3 19  1  0  0  0  0
  3 43  1  0  0  0  0
  4 20  1  0  0  0  0
  4 46  1  0  0  0  0
  5 20  2  0  0  0  0
 26  6  1  6  0  0  0
  6 64  1  0  0  0  0
  7 25  2  0  0  0  0
  8 27  1  0  0  0  0
  8 65  1  0  0  0  0
  9 31  2  0  0  0  0
 10 13  1  0  0  0  0
 10 16  1  0  0  0  0
 10 18  1  0  0  0  0
 11 23  1  0  0  0  0
 11 25  1  0  0  0  0
 11 49  1  0  0  0  0
 12 31  1  0  0  0  0
 12 32  1  0  0  0  0
 12 63  1  0  0  0  0
 13 14  1  0  0  0  0
 13 15  1  0  0  0  0
 13 33  1  6  0  0  0
 14 18  1  0  0  0  0
 14 19  1  1  0  0  0
 14 34  1  0  0  0  0
 15 17  1  0  0  0  0
 15 35  1  0  0  0  0
 15 36  1  0  0  0  0
 16 17  1  0  0  0  0
 16 20  1  6  0  0  0
 16 37  1  0  0  0  0
 17 38  1  0  0  0  0
 19 21  1  0  0  0  0
 19 39  1  0  0  0  0
 21 40  1  0  0  0  0
 21 41  1  0  0  0  0
 21 42  1  0  0  0  0
 22 23  1  0  0  0  0
 22 44  1  0  0  0  0
 22 45  1  0  0  0  0
 23 47  1  0  0  0  0
 23 48  1  0  0  0  0
 24 26  1  0  0  0  0
 24 27  1  0  0  0  0
 24 29  1  0  0  0  0
 24 30  1  0  0  0  0
 25 28  1  0  0  0  0
 26 31  1  0  0  0  0
 26 50  1  0  0  0  0
 27 51  1  0  0  0  0
 27 52  1  0  0  0  0
 28 32  1  0  0  0  0
 28 59  1  0  0  0  0
 28 60  1  0  0  0  0
 29 53  1  0  0  0  0
 29 54  1  0  0  0  0
 29 55  1  0  0  0  0
 30 56  1  0  0  0  0
 30 57  1  0  0  0  0
 30 58  1  0  0  0  0
 32 61  1  0  0  0  0
 32 62  1  0  0  0  0
M  END
> <PUBCHEM_COMPOUND_CID>
46173895

> <PUBCHEM_COMPOUND_CANONICALIZED>
1

> <PUBCHEM_CACTVS_COMPLEXITY>
734

> <PUBCHEM_CACTVS_HBOND_ACCEPTOR>
9

> <PUBCHEM_CACTVS_HBOND_DONOR>
6

> <PUBCHEM_CACTVS_ROTATABLE_BOND>
12

> <PUBCHEM_CACTVS_SUBSKEYS>
AAADcfB7PABAAAAAAAAAAAAAAABYAWAAAAAAAAAABYAAAAAAAAAAHgQQCAAADzzlwAaCCAPAAggIAAGQGAIAAAAAABAAAIHIAAACEB4gwCAEQAAHNgCwAAG62eOfAAAAAAAAAAAAAAAAAAAAAAAAAAAAAA==

> <PUBCHEM_IUPAC_OPENEYE_NAME>
(2S,3S,5R,6R)-3-[2-[3-[[(2R)-2,4-dihydroxy-3,3-dimethyl-butanoyl]amino]propanoylamino]ethylsulfanyl]-6-(1-hydroxyethyl)-7-oxo-1-azabicyclo[3.2.0]heptane-2-carboxylic acid

> <PUBCHEM_IUPAC_CAS_NAME>
(2S,3S,5R,6R)-3-[2-[[3-[[(2R)-2,4-dihydroxy-3,3-dimethyl-1-oxobutyl]amino]-1-oxopropyl]amino]ethylthio]-6-(1-hydroxyethyl)-7-oxo-1-azabicyclo[3.2.0]heptane-2-carboxylic acid

> <PUBCHEM_IUPAC_NAME>
(2S,3S,5R,6R)-3-[2-[3-[[(2R)-2,4-dihydroxy-3,3-dimethylbutanoyl]amino]propanoylamino]ethylsulfanyl]-6-(1-hydroxyethyl)-7-oxo-1-azabicyclo[3.2.0]heptane-2-carboxylic acid

> <PUBCHEM_IUPAC_SYSTEMATIC_NAME>
(2S,3S,5R,6R)-3-[2-[3-[[(2R)-3,3-dimethyl-2,4-bis(oxidanyl)butanoyl]amino]propanoylamino]ethylsulfanyl]-6-(1-hydroxyethyl)-7-oxidanylidene-1-azabicyclo[3.2.0]heptane-2-carboxylic acid

> <PUBCHEM_IUPAC_TRADITIONAL_NAME>
(2S,3S,5R,6R)-3-[2-[3-[[(2R)-2,4-dihydroxy-3,3-dimethyl-butanoyl]amino]propanoylamino]ethylthio]-6-(1-hydroxyethyl)-7-keto-1-azabicyclo[3.2.0]heptane-2-carboxylic acid

> <PUBCHEM_IUPAC_INCHI>
InChI=1S/C20H33N3O8S/c1-10(25)14-11-8-12(15(19(30)31)23(11)18(14)29)32-7-6-21-13(26)4-5-22-17(28)16(27)20(2,3)9-24/h10-12,14-16,24-25,27H,4-9H2,1-3H3,(H,21,26)(H,22,28)(H,30,31)/t10?,11-,12+,14+,15-,16+/m1/s1

> <PUBCHEM_IUPAC_INCHIKEY>
IDHUQZYNJINFBS-VWLVWCDXSA-N

> <PUBCHEM_XLOGP3_AA>
-1.2

> <PUBCHEM_EXACT_MASS>
475.198836

> <PUBCHEM_MOLECULAR_FORMULA>
C20H33N3O8S

> <PUBCHEM_MOLECULAR_WEIGHT>
475.55632

> <PUBCHEM_OPENEYE_CAN_SMILES>
CC(C1C2CC(C(N2C1=O)C(=O)O)SCCNC(=O)CCNC(=O)C(C(C)(C)CO)O)O

> <PUBCHEM_OPENEYE_ISO_SMILES>
CC([C@H]1[C@H]2C[C@@H]([C@@H](N2C1=O)C(=O)O)SCCNC(=O)CCNC(=O)[C@@H](C(C)(C)CO)O)O

> <PUBCHEM_CACTVS_TPSA>
202

> <PUBCHEM_MONOISOTOPIC_WEIGHT>
475.198836

> <PUBCHEM_TOTAL_CHARGE>
0

> <PUBCHEM_HEAVY_ATOM_COUNT>
32

> <PUBCHEM_ATOM_DEF_STEREO_COUNT>
5

> <PUBCHEM_ATOM_UDEF_STEREO_COUNT>
1

> <PUBCHEM_BOND_DEF_STEREO_COUNT>
0

> <PUBCHEM_BOND_UDEF_STEREO_COUNT>
0

> <PUBCHEM_ISOTOPIC_ATOM_COUNT>
0

> <PUBCHEM_COMPONENT_COUNT>
1

> <PUBCHEM_CACTVS_TAUTO_COUNT>
8

> <PUBCHEM_COORDINATE_TYPE>
1
5
255

> <PUBCHEM_BONDANNOTATIONS>
17  1  6
13  33  6
14  19  5
16  20  6
19  3  3
26  6  6

$$$$

