46173860
  -OEChem-07051213093D

 58 62  0     1  0  0  0  0  0999 V2000
    0.9711    2.6733    0.7038 O   0  0  0  0  0  0  0  0  0  0  0  0
    0.3706   -2.7960    0.2756 O   0  0  0  0  0  0  0  0  0  0  0  0
    2.6997   -3.1514    0.3380 O   0  0  0  0  0  0  0  0  0  0  0  0
   -1.5802   -1.5637    1.4351 O   0  0  0  0  0  0  0  0  0  0  0  0
   -4.3279   -1.3680    1.1520 O   0  0  0  0  0  0  0  0  0  0  0  0
    2.4595    3.3993    2.2331 O   0  0  0  0  0  0  0  0  0  0  0  0
    1.4218    0.7514   -0.8288 C   0  0  2  0  0  0  0  0  0  0  0  0
    0.4381   -0.2792   -0.1324 C   0  0  1  0  0  0  0  0  0  0  0  0
   -1.0862   -0.1156   -0.4952 C   0  0  1  0  0  0  0  0  0  0  0  0
    2.8468    0.6549   -0.1684 C   0  0  2  0  0  0  0  0  0  0  0  0
    0.9046    2.1932   -0.6545 C   0  0  1  0  0  0  0  0  0  0  0  0
   -1.5020    1.3941   -0.3696 C   0  0  1  0  0  0  0  0  0  0  0  0
    1.0569   -1.6869   -0.2984 C   0  0  1  0  0  0  0  0  0  0  0  0
    3.4377   -0.7942   -0.0883 C   0  0  1  0  0  0  0  0  0  0  0  0
    2.3804   -1.7655    0.4360 C   0  0  2  0  0  0  0  0  0  0  0  0
   -0.5549    2.3575   -1.1016 C   0  0  0  0  0  0  0  0  0  0  0  0
    1.5876    0.5358   -2.3623 C   0  0  0  0  0  0  0  0  0  0  0  0
    2.8480    1.2586    1.2452 C   0  0  0  0  0  0  0  0  0  0  0  0
   -2.9912    1.6166   -0.7652 C   0  0  1  0  0  0  0  0  0  0  0  0
   -1.4211   -0.7399   -1.8658 C   0  0  0  0  0  0  0  0  0  0  0  0
   -1.9940   -0.8017    0.5646 C   0  0  0  0  0  0  0  0  0  0  0  0
    4.1037   -1.2742   -1.3807 C   0  0  0  0  0  0  0  0  0  0  0  0
    2.1206    2.5617    1.4018 C   0  0  0  0  0  0  0  0  0  0  0  0
    1.4090   -3.7808    0.4366 C   0  0  0  0  0  0  0  0  0  0  0  0
   -3.8893    0.5902   -0.1139 C   0  0  0  0  0  0  0  0  0  0  0  0
   -3.4569   -0.5063    0.5244 C   0  0  0  0  0  0  0  0  0  0  0  0
   -3.4886    3.0177   -0.3855 C   0  0  0  0  0  0  0  0  0  0  0  0
   -4.7638   -2.3807    0.2644 C   0  0  0  0  0  0  0  0  0  0  0  0
    0.4670   -0.0649    0.9466 H   0  0  0  0  0  0  0  0  0  0  0  0
    3.5389    1.2747   -0.7567 H   0  0  0  0  0  0  0  0  0  0  0  0
    1.5161    2.8867   -1.2477 H   0  0  0  0  0  0  0  0  0  0  0  0
   -1.4254    1.6542    0.6995 H   0  0  0  0  0  0  0  0  0  0  0  0
    1.1731   -1.9464   -1.3545 H   0  0  0  0  0  0  0  0  0  0  0  0
    4.2579   -0.7824    0.6443 H   0  0  0  0  0  0  0  0  0  0  0  0
    2.2251   -1.5737    1.5071 H   0  0  0  0  0  0  0  0  0  0  0  0
   -0.8481    3.3898   -0.8775 H   0  0  0  0  0  0  0  0  0  0  0  0
   -0.6614    2.2400   -2.1839 H   0  0  0  0  0  0  0  0  0  0  0  0
    0.7526    0.9253   -2.9455 H   0  0  0  0  0  0  0  0  0  0  0  0
    1.6947   -0.5057   -2.6573 H   0  0  0  0  0  0  0  0  0  0  0  0
    2.4717    1.0684   -2.7339 H   0  0  0  0  0  0  0  0  0  0  0  0
    2.4120    0.5764    1.9820 H   0  0  0  0  0  0  0  0  0  0  0  0
    3.8896    1.4287    1.5466 H   0  0  0  0  0  0  0  0  0  0  0  0
   -3.1020    1.5134   -1.8522 H   0  0  0  0  0  0  0  0  0  0  0  0
   -1.0542   -1.7684   -1.9386 H   0  0  0  0  0  0  0  0  0  0  0  0
   -2.4978   -0.8087   -2.0513 H   0  0  0  0  0  0  0  0  0  0  0  0
   -1.0053   -0.1709   -2.6970 H   0  0  0  0  0  0  0  0  0  0  0  0
    4.7460   -2.1378   -1.1726 H   0  0  0  0  0  0  0  0  0  0  0  0
    3.3903   -1.5942   -2.1408 H   0  0  0  0  0  0  0  0  0  0  0  0
    4.7405   -0.4929   -1.8078 H   0  0  0  0  0  0  0  0  0  0  0  0
    1.3046   -4.2536    1.4176 H   0  0  0  0  0  0  0  0  0  0  0  0
    1.3200   -4.5385   -0.3476 H   0  0  0  0  0  0  0  0  0  0  0  0
   -4.9613    0.7701   -0.1643 H   0  0  0  0  0  0  0  0  0  0  0  0
   -4.5620    3.1234   -0.5819 H   0  0  0  0  0  0  0  0  0  0  0  0
   -3.3210    3.2282    0.6766 H   0  0  0  0  0  0  0  0  0  0  0  0
   -2.9859    3.7928   -0.9716 H   0  0  0  0  0  0  0  0  0  0  0  0
   -5.3242   -1.9581   -0.5769 H   0  0  0  0  0  0  0  0  0  0  0  0
   -3.9202   -2.9740   -0.1060 H   0  0  0  0  0  0  0  0  0  0  0  0
   -5.4327   -3.0506    0.8129 H   0  0  0  0  0  0  0  0  0  0  0  0
  1 11  1  0  0  0  0
  1 23  1  0  0  0  0
  2 13  1  0  0  0  0
  2 24  1  0  0  0  0
  3 15  1  0  0  0  0
  3 24  1  0  0  0  0
  4 21  2  0  0  0  0
  5 26  1  0  0  0  0
  5 28  1  0  0  0  0
  6 23  2  0  0  0  0
  7  8  1  0  0  0  0
  7 10  1  0  0  0  0
  7 11  1  0  0  0  0
  7 17  1  0  0  0  0
  8  9  1  0  0  0  0
  8 13  1  0  0  0  0
  8 29  1  0  0  0  0
  9 12  1  0  0  0  0
  9 20  1  0  0  0  0
  9 21  1  0  0  0  0
 10 14  1  0  0  0  0
 10 18  1  0  0  0  0
 10 30  1  0  0  0  0
 11 16  1  0  0  0  0
 11 31  1  0  0  0  0
 12 16  1  0  0  0  0
 12 19  1  0  0  0  0
 12 32  1  0  0  0  0
 13 15  1  0  0  0  0
 13 33  1  0  0  0  0
 14 15  1  0  0  0  0
 14 22  1  0  0  0  0
 14 34  1  0  0  0  0
 15 35  1  0  0  0  0
 16 36  1  0  0  0  0
 16 37  1  0  0  0  0
 17 38  1  0  0  0  0
 17 39  1  0  0  0  0
 17 40  1  0  0  0  0
 18 23  1  0  0  0  0
 18 41  1  0  0  0  0
 18 42  1  0  0  0  0
 19 25  1  0  0  0  0
 19 27  1  0  0  0  0
 19 43  1  0  0  0  0
 20 44  1  0  0  0  0
 20 45  1  0  0  0  0
 20 46  1  0  0  0  0
 21 26  1  0  0  0  0
 22 47  1  0  0  0  0
 22 48  1  0  0  0  0
 22 49  1  0  0  0  0
 24 50  1  0  0  0  0
 24 51  1  0  0  0  0
 25 26  2  0  0  0  0
 25 52  1  0  0  0  0
 27 53  1  0  0  0  0
 27 54  1  0  0  0  0
 27 55  1  0  0  0  0
 28 56  1  0  0  0  0
 28 57  1  0  0  0  0
 28 58  1  0  0  0  0
M  END
> <PUBCHEM_COMPOUND_CID>
46173860

> <PUBCHEM_CONFORMER_RMSD>
0.6

> <PUBCHEM_CONFORMER_DIVERSEORDER>
1

> <PUBCHEM_MMFF94_PARTIAL_CHARGES>
19
1 -0.43
11 0.28
13 0.28
15 0.28
18 0.06
19 0.14
2 -0.56
21 0.49
23 0.66
24 0.56
25 -0.29
26 0.09
28 0.28
3 -0.56
4 -0.57
5 -0.36
52 0.15
6 -0.57
9 0.06

> <PUBCHEM_EFFECTIVE_ROTOR_COUNT>
2.6

> <PUBCHEM_PHARMACOPHORE_FEATURES>
10
1 2 acceptor
1 3 acceptor
1 4 acceptor
1 5 acceptor
1 6 acceptor
5 2 3 13 15 24 rings
6 1 7 10 11 18 23 rings
6 7 8 10 13 14 15 rings
6 7 8 9 11 12 16 rings
6 9 12 19 21 25 26 rings

> <PUBCHEM_HEAVY_ATOM_COUNT>
28

> <PUBCHEM_ATOM_DEF_STEREO_COUNT>
9

> <PUBCHEM_ATOM_UDEF_STEREO_COUNT>
1

> <PUBCHEM_BOND_DEF_STEREO_COUNT>
0

> <PUBCHEM_BOND_UDEF_STEREO_COUNT>
0

> <PUBCHEM_ISOTOPIC_ATOM_COUNT>
0

> <PUBCHEM_COMPONENT_COUNT>
1

> <PUBCHEM_CACTVS_TAUTO_COUNT>
6

> <PUBCHEM_CONFORMER_ID>
02C08EA400000001

> <PUBCHEM_MMFF94_ENERGY>
123.7019

> <PUBCHEM_FEATURE_SELFOVERLAP>
51.057

> <PUBCHEM_SHAPE_FINGERPRINT>
10165383 225 18047743802719714472
10366900 7 18343012272917187315
10863032 1 18269273641437587973
10930396 42 15011813892978514856
10967382 1 18198622335588039111
1100329 8 16968863849071295648
11578080 2 17461196294046250785
12035758 1 18263374607769067658
12156800 1 10221965831768508891
12403259 226 18410572881545426603
12506688 2 18267583696418640222
13140716 1 18268720587257667210
13224815 77 18342458123462187543
13583140 156 18334864934942072757
14178342 30 18272099308937746849
14223421 5 18411704270589311057
14787075 74 18337659850740136614
14790565 3 18341603777517051684
14866123 147 15886589346667596507
14955137 171 18040702702069673718
16945 1 18049466999395988548
17349148 13 17774726338406452815
19049666 15 18340210781761596161
19591789 44 18412258424270511718
20600515 1 17836642294365450278
20691752 17 18122070801346160221
20775438 99 17765766517300029983
20905425 154 18269269239075283542
21731228 192 17829342289092980896
21756936 100 16961548240288603104
22149856 69 17981302532190415643
22182313 1 18270133326639957765
23419403 2 17621073122940274852
23559900 14 18272088284194639093
2748010 2 18341905051749119212
350125 39 18341041935042076605
35225 105 16166436457905675088
4340502 62 17900536775277772499
495365 180 18337967722359066165
9709674 26 18124596633248882599

> <PUBCHEM_SHAPE_MULTIPOLES>
541.01
7.06
4.12
1.57
4.92
0.42
-0.17
2
0.68
-0.84
1.44
-0.8
-0.74
1.66

> <PUBCHEM_SHAPE_SELFOVERLAP>
1173.865

> <PUBCHEM_SHAPE_VOLUME>
287.8

> <PUBCHEM_COORDINATE_TYPE>
2
5
10

$$$$

