17396606
  -OEChem-06241222573D

 46 47  0     0  0  0  0  0  0999 V2000
   -0.4396    1.4896    1.3556 O   0  0  0  0  0  0  0  0  0  0  0  0
   -5.8949   -0.4263   -1.8559 O   0  0  0  0  0  0  0  0  0  0  0  0
    4.1399    1.9957   -0.8643 O   0  0  0  0  0  0  0  0  0  0  0  0
    5.4645   -0.3340   -1.6027 O   0  0  0  0  0  0  0  0  0  0  0  0
   -2.4449   -1.3742    0.4273 N   0  0  0  0  0  0  0  0  0  0  0  0
    0.0385   -0.7397    1.6381 N   0  0  0  0  0  0  0  0  0  0  0  0
   -3.0538    0.7380    0.1113 C   0  0  0  0  0  0  0  0  0  0  0  0
   -2.0562   -0.0723    0.6067 C   0  0  0  0  0  0  0  0  0  0  0  0
   -4.0784   -0.1064   -0.3831 C   0  0  0  0  0  0  0  0  0  0  0  0
   -3.6759   -1.4070   -0.1744 C   0  0  0  0  0  0  0  0  0  0  0  0
   -0.7809    0.3124    1.2279 C   0  0  0  0  0  0  0  0  0  0  0  0
   -3.0561    2.2162    0.0967 C   0  0  0  0  0  0  0  0  0  0  0  0
    1.3315   -0.5206    2.2352 C   0  0  0  0  0  0  0  0  0  0  0  0
   -4.3340   -2.6912   -0.4850 C   0  0  0  0  0  0  0  0  0  0  0  0
   -5.3202    0.2754   -0.9943 C   0  0  0  0  0  0  0  0  0  0  0  0
    2.4230   -0.4677    1.2205 C   0  0  0  0  0  0  0  0  0  0  0  0
    2.7795    0.7505    0.6421 C   0  0  0  0  0  0  0  0  0  0  0  0
    3.0877   -1.6367    0.8499 C   0  0  0  0  0  0  0  0  0  0  0  0
   -6.0096    1.5847   -0.6120 C   0  0  0  0  0  0  0  0  0  0  0  0
    3.8008    0.8000   -0.3067 C   0  0  0  0  0  0  0  0  0  0  0  0
    4.4654   -0.3690   -0.6774 C   0  0  0  0  0  0  0  0  0  0  0  0
    4.1088   -1.5873   -0.0992 C   0  0  0  0  0  0  0  0  0  0  0  0
    3.4118    3.1428   -0.4307 C   0  0  0  0  0  0  0  0  0  0  0  0
    6.0928   -1.5731   -1.9255 C   0  0  0  0  0  0  0  0  0  0  0  0
   -1.9160   -2.1929    0.6924 H   0  0  0  0  0  0  0  0  0  0  0  0
   -3.5228    2.6060   -0.8117 H   0  0  0  0  0  0  0  0  0  0  0  0
   -2.0492    2.6397    0.0957 H   0  0  0  0  0  0  0  0  0  0  0  0
   -3.5870    2.6116    0.9680 H   0  0  0  0  0  0  0  0  0  0  0  0
    1.5054   -1.3397    2.9428 H   0  0  0  0  0  0  0  0  0  0  0  0
    1.3123    0.4005    2.8300 H   0  0  0  0  0  0  0  0  0  0  0  0
   -5.3683   -2.6937   -0.1260 H   0  0  0  0  0  0  0  0  0  0  0  0
   -3.8200   -3.5361   -0.0146 H   0  0  0  0  0  0  0  0  0  0  0  0
   -4.3438   -2.8645   -1.5659 H   0  0  0  0  0  0  0  0  0  0  0  0
   -0.2454   -1.7040    1.5081 H   0  0  0  0  0  0  0  0  0  0  0  0
    2.2349    1.6279    0.9722 H   0  0  0  0  0  0  0  0  0  0  0  0
    2.8174   -2.5919    1.2923 H   0  0  0  0  0  0  0  0  0  0  0  0
   -7.0908    1.4619   -0.7335 H   0  0  0  0  0  0  0  0  0  0  0  0
   -5.8263    1.8297    0.4368 H   0  0  0  0  0  0  0  0  0  0  0  0
   -5.6738    2.3901   -1.2680 H   0  0  0  0  0  0  0  0  0  0  0  0
    4.5803   -2.5342   -0.3386 H   0  0  0  0  0  0  0  0  0  0  0  0
    2.3496    3.0686   -0.6882 H   0  0  0  0  0  0  0  0  0  0  0  0
    3.5707    3.3432    0.6344 H   0  0  0  0  0  0  0  0  0  0  0  0
    3.8111    4.0031   -0.9780 H   0  0  0  0  0  0  0  0  0  0  0  0
    6.6062   -2.0032   -1.0588 H   0  0  0  0  0  0  0  0  0  0  0  0
    5.3884   -2.2754   -2.3841 H   0  0  0  0  0  0  0  0  0  0  0  0
    6.8613   -1.3588   -2.6756 H   0  0  0  0  0  0  0  0  0  0  0  0
  1 11  2  0  0  0  0
  2 15  2  0  0  0  0
  3 20  1  0  0  0  0
  3 23  1  0  0  0  0
  4 21  1  0  0  0  0
  4 24  1  0  0  0  0
  5  8  1  0  0  0  0
  5 10  1  0  0  0  0
  5 25  1  0  0  0  0
  6 11  1  0  0  0  0
  6 13  1  0  0  0  0
  6 34  1  0  0  0  0
  7  8  2  0  0  0  0
  7  9  1  0  0  0  0
  7 12  1  0  0  0  0
  8 11  1  0  0  0  0
  9 10  2  0  0  0  0
  9 15  1  0  0  0  0
 10 14  1  0  0  0  0
 12 26  1  0  0  0  0
 12 27  1  0  0  0  0
 12 28  1  0  0  0  0
 13 16  1  0  0  0  0
 13 29  1  0  0  0  0
 13 30  1  0  0  0  0
 14 31  1  0  0  0  0
 14 32  1  0  0  0  0
 14 33  1  0  0  0  0
 15 19  1  0  0  0  0
 16 17  2  0  0  0  0
 16 18  1  0  0  0  0
 17 20  1  0  0  0  0
 17 35  1  0  0  0  0
 18 22  2  0  0  0  0
 18 36  1  0  0  0  0
 19 37  1  0  0  0  0
 19 38  1  0  0  0  0
 19 39  1  0  0  0  0
 20 21  2  0  0  0  0
 21 22  1  0  0  0  0
 22 40  1  0  0  0  0
 23 41  1  0  0  0  0
 23 42  1  0  0  0  0
 23 43  1  0  0  0  0
 24 44  1  0  0  0  0
 24 45  1  0  0  0  0
 24 46  1  0  0  0  0
M  END
> <PUBCHEM_COMPOUND_CID>
17396606

> <PUBCHEM_CONFORMER_RMSD>
0.8

> <PUBCHEM_CONFORMER_DIVERSEORDER>
1
155
178
138
71
57
39
70
13
101
95
112
176
132
4
169
76
40
149
34
18
123
146
141
72
2
49
119
27
44
165
133
52
100
42
160
166
139
59
60
10
168
157
15
12
129
105
159
93
142
77
58
136
48
177
185
36
182
47
35
68
127
7
183
103
120
75
11
116
156
140
90
124
21
87
17
131
46
173
108
106
67
145
97
110
126
102
113
187
121
6
8
184
91
33
163
45
154
26
32
167
80
186
122
28
78
43
172
135
161
118
31
134
5
38
137
171
147
98
174
24
55
53
20
88
81
3
25
170
114
164
82
9
148
117
64
94
61
29
69
79
125
92
143
74
104
73
128
144
115
83
152
150
107
66
85
179
158
181
50
65
86
14
151
99
62
109
19
153
63
54
96
84
89
111
175
51
16
37
23
41
130
22
180
162
30
56

> <PUBCHEM_MMFF94_PARTIAL_CHARGES>
29
1 -0.57
10 -0.33
11 0.71
12 0.18
13 0.44
14 0.18
15 0.6
16 -0.14
17 -0.15
18 -0.15
19 0.06
2 -0.57
20 0.08
21 0.08
22 -0.15
23 0.28
24 0.28
25 0.27
3 -0.36
34 0.37
35 0.15
36 0.15
4 -0.36
40 0.15
5 0.03
6 -0.73
7 -0.18
8 -0.24
9 -0.09

> <PUBCHEM_EFFECTIVE_ROTOR_COUNT>
7

> <PUBCHEM_PHARMACOPHORE_FEATURES>
9
1 1 acceptor
1 2 acceptor
1 3 acceptor
1 4 acceptor
1 5 cation
1 5 donor
1 6 donor
5 5 7 8 9 10 rings
6 16 17 18 20 21 22 rings

> <PUBCHEM_HEAVY_ATOM_COUNT>
24

> <PUBCHEM_ATOM_DEF_STEREO_COUNT>
0

> <PUBCHEM_ATOM_UDEF_STEREO_COUNT>
0

> <PUBCHEM_BOND_DEF_STEREO_COUNT>
0

> <PUBCHEM_BOND_UDEF_STEREO_COUNT>
0

> <PUBCHEM_ISOTOPIC_ATOM_COUNT>
0

> <PUBCHEM_COMPONENT_COUNT>
1

> <PUBCHEM_CACTVS_TAUTO_COUNT>
28

> <PUBCHEM_CONFORMER_ID>
0109737E00000001

> <PUBCHEM_MMFF94_ENERGY>
66.7084

> <PUBCHEM_FEATURE_SELFOVERLAP>
45.676

> <PUBCHEM_SHAPE_FINGERPRINT>
10498660 4 16845567608861531920
12363563 72 15864068793277676722
12616971 3 17488762158571754955
12670546 177 18413109463323444955
13782708 43 16154855440165770983
13914758 101 4823217196222151691
14211702 104 5183483253098900773
14251757 5 18334860541486272377
14366163 111 18060707199202584641
14528608 73 17989213633397533539
14790565 3 18268716189934479209
14840074 17 17489306434413470709
15183329 4 18338796818128769679
15188451 53 6266890260836722615
15210252 30 16559023883868927236
17870717 6 18187082875719673351
1813 80 14851880331476589264
193927 3 16588295099397524962
1979834 28 7637400748419852068
21033648 29 16558457605194303968
21065199 12 8718557094526537178
21307412 95 17894353285297594287
21315764 119 18187361090467793765
221357 26 18271525394328769756
2215653 11 17676781928629684487
22393880 68 18341895169113682370
22849339 104 18337398137061792975
23559900 14 18261118460536037201
2838139 119 16487259850623737918
29717793 49 18186519921239046356
3004659 81 18333454265644607898
312425 54 7565079258484518183
34797466 226 18337391530989751509
4280585 95 17396125203351355030
44062 13 18113907043996695615
465052 167 15502382196609734093
474 4 16774076267369544569
5924683 9 10159684782130281401
7808743 9 15195269894996075530
7970288 3 15719391750212060630
960060 61 18114187406033258521

> <PUBCHEM_SHAPE_MULTIPOLES>
460.47
15.12
2.52
1.67
2.77
0.88
-0.14
-1.48
10.2
-0.39
0.48
-1.19
-0.39
0

> <PUBCHEM_SHAPE_SELFOVERLAP>
974.719

> <PUBCHEM_SHAPE_VOLUME>
260.1

> <PUBCHEM_COORDINATE_TYPE>
2
5
10

$$$$

