442907
  -OEChem-07051213002D

 33 35  0     0  0  0  0  0  0999 V2000
    6.3301   -1.2673    0.0000 O   0  0  0  0  0  0  0  0  0  0  0  0
    6.3301    1.7327    0.0000 N   0  0  0  0  0  0  0  0  0  0  0  0
    5.4641    0.2327    0.0000 N   0  0  0  0  0  0  0  0  0  0  0  0
    4.5981    1.7327    0.0000 C   0  0  0  0  0  0  0  0  0  0  0  0
    5.4641    1.2327    0.0000 C   0  0  0  0  0  0  0  0  0  0  0  0
    7.1962    0.2327    0.0000 C   0  0  0  0  0  0  0  0  0  0  0  0
    7.1962    1.2327    0.0000 C   0  0  0  0  0  0  0  0  0  0  0  0
    3.7320    1.2327    0.0000 C   0  0  0  0  0  0  0  0  0  0  0  0
    6.3301   -0.2673    0.0000 C   0  0  0  0  0  0  0  0  0  0  0  0
    8.0901   -0.3020    0.0000 C   0  0  0  0  0  0  0  0  0  0  0  0
    8.0901    1.7673    0.0000 C   0  0  0  0  0  0  0  0  0  0  0  0
    2.8660    1.7327    0.0000 C   0  0  0  0  0  0  0  0  0  0  0  0
    3.7320    0.2327    0.0000 C   0  0  0  0  0  0  0  0  0  0  0  0
    8.9962    0.2119    0.0000 C   0  0  0  0  0  0  0  0  0  0  0  0
    8.9962    1.2535    0.0000 C   0  0  0  0  0  0  0  0  0  0  0  0
    2.0000    1.2327    0.0000 C   0  0  0  0  0  0  0  0  0  0  0  0
    2.8660   -0.2673    0.0000 C   0  0  0  0  0  0  0  0  0  0  0  0
    2.0000    0.2327    0.0000 C   0  0  0  0  0  0  0  0  0  0  0  0
    5.4641   -1.7673    0.0000 C   0  0  0  0  0  0  0  0  0  0  0  0
    4.9966    2.2076    0.0000 H   0  0  0  0  0  0  0  0  0  0  0  0
    4.1996    2.2076    0.0000 H   0  0  0  0  0  0  0  0  0  0  0  0
    8.0829   -0.9220    0.0000 H   0  0  0  0  0  0  0  0  0  0  0  0
    8.0829    2.3873    0.0000 H   0  0  0  0  0  0  0  0  0  0  0  0
    2.8660    2.3527    0.0000 H   0  0  0  0  0  0  0  0  0  0  0  0
    4.2690   -0.0773    0.0000 H   0  0  0  0  0  0  0  0  0  0  0  0
    9.5319   -0.1002    0.0000 H   0  0  0  0  0  0  0  0  0  0  0  0
    9.5319    1.5656    0.0000 H   0  0  0  0  0  0  0  0  0  0  0  0
    1.4631    1.5427    0.0000 H   0  0  0  0  0  0  0  0  0  0  0  0
    2.8660   -0.8873    0.0000 H   0  0  0  0  0  0  0  0  0  0  0  0
    1.4631   -0.0773    0.0000 H   0  0  0  0  0  0  0  0  0  0  0  0
    5.1541   -1.2304    0.0000 H   0  0  0  0  0  0  0  0  0  0  0  0
    4.9272   -2.0773    0.0000 H   0  0  0  0  0  0  0  0  0  0  0  0
    5.7741   -2.3043    0.0000 H   0  0  0  0  0  0  0  0  0  0  0  0
  1  9  1  0  0  0  0
  1 19  1  0  0  0  0
  2  5  2  0  0  0  0
  2  7  1  0  0  0  0
  3  5  1  0  0  0  0
  3  9  2  0  0  0  0
  4  5  1  0  0  0  0
  4  8  1  0  0  0  0
  4 20  1  0  0  0  0
  4 21  1  0  0  0  0
  6  7  1  0  0  0  0
  6  9  1  0  0  0  0
  6 10  2  0  0  0  0
  7 11  2  0  0  0  0
  8 12  2  0  0  0  0
  8 13  1  0  0  0  0
 10 14  1  0  0  0  0
 10 22  1  0  0  0  0
 11 15  1  0  0  0  0
 11 23  1  0  0  0  0
 12 16  1  0  0  0  0
 12 24  1  0  0  0  0
 13 17  2  0  0  0  0
 13 25  1  0  0  0  0
 14 15  2  0  0  0  0
 14 26  1  0  0  0  0
 15 27  1  0  0  0  0
 16 18  2  0  0  0  0
 16 28  1  0  0  0  0
 17 18  1  0  0  0  0
 17 29  1  0  0  0  0
 18 30  1  0  0  0  0
 19 31  1  0  0  0  0
 19 32  1  0  0  0  0
 19 33  1  0  0  0  0
M  END
> <PUBCHEM_COMPOUND_CID>
442907

> <PUBCHEM_COMPOUND_CANONICALIZED>
1

> <PUBCHEM_CACTVS_COMPLEXITY>
278

> <PUBCHEM_CACTVS_HBOND_ACCEPTOR>
3

> <PUBCHEM_CACTVS_HBOND_DONOR>
0

> <PUBCHEM_CACTVS_ROTATABLE_BOND>
3

> <PUBCHEM_CACTVS_SUBSKEYS>
AAADccB7IAAAAAAAAAAAAAAAAAAAAAAAAAA8YIAAAAAAAACx9AAAHgAAAAAADAiBnwIz1PYIFACgAyZiZACCiCkhIqAJmCA0bJiMLqLE+duENChuwBvI6CeQwKAOAAAAAAACAAAAAAAAAAQAAAAAAAAAAA==

> <PUBCHEM_IUPAC_OPENEYE_NAME>
2-benzyl-4-methoxy-quinazoline

> <PUBCHEM_IUPAC_CAS_NAME>
4-methoxy-2-(phenylmethyl)quinazoline

> <PUBCHEM_IUPAC_NAME>
2-benzyl-4-methoxyquinazoline

> <PUBCHEM_IUPAC_SYSTEMATIC_NAME>
4-methoxy-2-(phenylmethyl)quinazoline

> <PUBCHEM_IUPAC_TRADITIONAL_NAME>
2-benzyl-4-methoxy-quinazoline

> <PUBCHEM_IUPAC_INCHI>
InChI=1S/C16H14N2O/c1-19-16-13-9-5-6-10-14(13)17-15(18-16)11-12-7-3-2-4-8-12/h2-10H,11H2,1H3

> <PUBCHEM_IUPAC_INCHIKEY>
IYFCZALHGYMIIU-UHFFFAOYSA-N

> <PUBCHEM_XLOGP3>
4.1

> <PUBCHEM_EXACT_MASS>
250.110613

> <PUBCHEM_MOLECULAR_FORMULA>
C16H14N2O

> <PUBCHEM_MOLECULAR_WEIGHT>
250.29516

> <PUBCHEM_OPENEYE_CAN_SMILES>
COC1=NC(=NC2=CC=CC=C21)CC3=CC=CC=C3

> <PUBCHEM_OPENEYE_ISO_SMILES>
COC1=NC(=NC2=CC=CC=C21)CC3=CC=CC=C3

> <PUBCHEM_CACTVS_TPSA>
35

> <PUBCHEM_MONOISOTOPIC_WEIGHT>
250.110613

> <PUBCHEM_TOTAL_CHARGE>
0

> <PUBCHEM_HEAVY_ATOM_COUNT>
19

> <PUBCHEM_ATOM_DEF_STEREO_COUNT>
0

> <PUBCHEM_ATOM_UDEF_STEREO_COUNT>
0

> <PUBCHEM_BOND_DEF_STEREO_COUNT>
0

> <PUBCHEM_BOND_UDEF_STEREO_COUNT>
0

> <PUBCHEM_ISOTOPIC_ATOM_COUNT>
0

> <PUBCHEM_COMPONENT_COUNT>
1

> <PUBCHEM_CACTVS_TAUTO_COUNT>
1

> <PUBCHEM_COORDINATE_TYPE>
1
5
255

> <PUBCHEM_BONDANNOTATIONS>
10  14  8
11  15  8
12  16  8
13  17  8
14  15  8
16  18  8
17  18  8
2  5  8
2  7  8
3  5  8
3  9  8
6  10  8
6  7  8
6  9  8
7  11  8
8  12  8
8  13  8

$$$$

