15081546
  -OEChem-07051213083D

 72 75  0     1  0  0  0  0  0999 V2000
    0.5411    0.9226   -1.2617 O   0  0  0  0  0  0  0  0  0  0  0  0
   -4.4052   -1.9551   -1.1900 O   0  0  0  0  0  0  0  0  0  0  0  0
   -7.0156    0.5240   -1.0927 O   0  0  0  0  0  0  0  0  0  0  0  0
    0.8778   -0.7780    0.5478 C   0  0  1  0  0  0  0  0  0  0  0  0
    0.1418   -0.3726   -0.7698 C   0  0  1  0  0  0  0  0  0  0  0  0
    2.3443   -0.7871    0.0513 C   0  0  2  0  0  0  0  0  0  0  0  0
   -1.7219    0.7373    0.5549 C   0  0  1  0  0  0  0  0  0  0  0  0
    0.5687    0.2378    1.6654 C   0  0  0  0  0  0  0  0  0  0  0  0
   -1.3448   -0.3081   -0.4987 C   0  0  0  0  0  0  0  0  0  0  0  0
   -3.2748    0.9610    0.7018 C   0  0  2  0  0  0  0  0  0  0  0  0
    0.7614   -1.3461   -1.7819 C   0  0  0  0  0  0  0  0  0  0  0  0
    2.2469   -1.4309   -1.3554 C   0  0  0  0  0  0  0  0  0  0  0  0
   -0.9542    0.4243    1.8696 C   0  0  0  0  0  0  0  0  0  0  0  0
    3.3653   -1.4754    0.9471 C   0  0  1  0  0  0  0  0  0  0  0  0
   -4.0321   -0.3902    0.6316 C   0  0  2  0  0  0  0  0  0  0  0  0
    0.4706   -2.1916    1.0649 C   0  0  0  0  0  0  0  0  0  0  0  0
   -3.7677    1.8695   -0.4700 C   0  0  0  0  0  0  0  0  0  0  0  0
   -2.2208   -1.1546   -1.0543 C   0  0  0  0  0  0  0  0  0  0  0  0
   -3.5827    1.6841    2.0368 C   0  0  0  0  0  0  0  0  0  0  0  0
   -3.6281   -1.2038   -0.6012 C   0  0  0  0  0  0  0  0  0  0  0  0
   -5.5572   -0.2146    0.6583 C   0  0  0  0  0  0  0  0  0  0  0  0
    4.7967   -1.4163    0.3748 C   0  0  0  0  0  0  0  0  0  0  0  0
   -5.2801    2.0665   -0.5178 C   0  0  0  0  0  0  0  0  0  0  0  0
    3.3519   -0.8393    2.3425 C   0  0  0  0  0  0  0  0  0  0  0  0
   -6.0167    0.7533   -0.4106 C   0  0  0  0  0  0  0  0  0  0  0  0
    5.3523   -0.0136    0.0943 C   0  0  0  0  0  0  0  0  0  0  0  0
    6.7464   -0.0243   -0.5408 C   0  0  0  0  0  0  0  0  0  0  0  0
    7.3329    1.3846   -0.7564 C   0  0  0  0  0  0  0  0  0  0  0  0
    7.4168    2.1906    0.5408 C   0  0  0  0  0  0  0  0  0  0  0  0
    6.4869    2.1460   -1.7805 C   0  0  0  0  0  0  0  0  0  0  0  0
    2.6435    0.2607   -0.0815 H   0  0  0  0  0  0  0  0  0  0  0  0
   -1.3193    1.7011    0.2092 H   0  0  0  0  0  0  0  0  0  0  0  0
    1.0078    1.2124    1.4173 H   0  0  0  0  0  0  0  0  0  0  0  0
    0.9703   -0.0512    2.6364 H   0  0  0  0  0  0  0  0  0  0  0  0
    0.6830   -0.9969   -2.8176 H   0  0  0  0  0  0  0  0  0  0  0  0
    0.3141   -2.3446   -1.7342 H   0  0  0  0  0  0  0  0  0  0  0  0
    2.5671   -2.4788   -1.3601 H   0  0  0  0  0  0  0  0  0  0  0  0
    2.8838   -0.8891   -2.0639 H   0  0  0  0  0  0  0  0  0  0  0  0
   -1.3770   -0.4688    2.3451 H   0  0  0  0  0  0  0  0  0  0  0  0
   -1.0778    1.2464    2.5836 H   0  0  0  0  0  0  0  0  0  0  0  0
    3.1231   -2.5396    1.0588 H   0  0  0  0  0  0  0  0  0  0  0  0
   -3.7528   -1.0088    1.4959 H   0  0  0  0  0  0  0  0  0  0  0  0
    0.9070   -2.4059    2.0451 H   0  0  0  0  0  0  0  0  0  0  0  0
   -0.6123   -2.2952    1.1825 H   0  0  0  0  0  0  0  0  0  0  0  0
    0.7909   -2.9945    0.3935 H   0  0  0  0  0  0  0  0  0  0  0  0
   -3.4497    1.4482   -1.4318 H   0  0  0  0  0  0  0  0  0  0  0  0
   -3.2897    2.8554   -0.4031 H   0  0  0  0  0  0  0  0  0  0  0  0
   -1.9296   -1.8879   -1.7971 H   0  0  0  0  0  0  0  0  0  0  0  0
   -3.3621    1.0445    2.8982 H   0  0  0  0  0  0  0  0  0  0  0  0
   -2.9904    2.6017    2.1281 H   0  0  0  0  0  0  0  0  0  0  0  0
   -4.6319    1.9757    2.1334 H   0  0  0  0  0  0  0  0  0  0  0  0
    0.0422    1.0993   -2.0780 H   0  0  0  0  0  0  0  0  0  0  0  0
   -5.8956    0.1666    1.6272 H   0  0  0  0  0  0  0  0  0  0  0  0
   -6.0653   -1.1731    0.5012 H   0  0  0  0  0  0  0  0  0  0  0  0
    5.4782   -1.9336    1.0632 H   0  0  0  0  0  0  0  0  0  0  0  0
    4.8300   -1.9951   -0.5569 H   0  0  0  0  0  0  0  0  0  0  0  0
   -5.5516    2.5452   -1.4654 H   0  0  0  0  0  0  0  0  0  0  0  0
   -5.6258    2.7204    0.2886 H   0  0  0  0  0  0  0  0  0  0  0  0
    3.2808    0.2522    2.3079 H   0  0  0  0  0  0  0  0  0  0  0  0
    4.2775   -1.0791    2.8802 H   0  0  0  0  0  0  0  0  0  0  0  0
    2.5568   -1.2494    2.9675 H   0  0  0  0  0  0  0  0  0  0  0  0
    4.6728    0.5142   -0.5791 H   0  0  0  0  0  0  0  0  0  0  0  0
    5.3740    0.5403    1.0374 H   0  0  0  0  0  0  0  0  0  0  0  0
    6.7096   -0.5585   -1.4983 H   0  0  0  0  0  0  0  0  0  0  0  0
    7.4272   -0.5918    0.1065 H   0  0  0  0  0  0  0  0  0  0  0  0
    8.3460    1.2674   -1.1607 H   0  0  0  0  0  0  0  0  0  0  0  0
    7.9827    3.1140    0.3745 H   0  0  0  0  0  0  0  0  0  0  0  0
    7.9329    1.6213    1.3207 H   0  0  0  0  0  0  0  0  0  0  0  0
    6.4313    2.4806    0.9182 H   0  0  0  0  0  0  0  0  0  0  0  0
    6.3578    1.5616   -2.6976 H   0  0  0  0  0  0  0  0  0  0  0  0
    5.4965    2.4069   -1.3948 H   0  0  0  0  0  0  0  0  0  0  0  0
    6.9833    3.0835   -2.0552 H   0  0  0  0  0  0  0  0  0  0  0  0
  1  5  1  0  0  0  0
  1 52  1  0  0  0  0
  2 20  2  0  0  0  0
  3 25  2  0  0  0  0
  4  5  1  0  0  0  0
  4  6  1  0  0  0  0
  4  8  1  0  0  0  0
  4 16  1  0  0  0  0
  5  9  1  0  0  0  0
  5 11  1  0  0  0  0
  6 12  1  0  0  0  0
  6 14  1  0  0  0  0
  6 31  1  0  0  0  0
  7  9  1  0  0  0  0
  7 10  1  0  0  0  0
  7 13  1  0  0  0  0
  7 32  1  0  0  0  0
  8 13  1  0  0  0  0
  8 33  1  0  0  0  0
  8 34  1  0  0  0  0
  9 18  2  0  0  0  0
 10 15  1  0  0  0  0
 10 17  1  0  0  0  0
 10 19  1  0  0  0  0
 11 12  1  0  0  0  0
 11 35  1  0  0  0  0
 11 36  1  0  0  0  0
 12 37  1  0  0  0  0
 12 38  1  0  0  0  0
 13 39  1  0  0  0  0
 13 40  1  0  0  0  0
 14 22  1  0  0  0  0
 14 24  1  0  0  0  0
 14 41  1  0  0  0  0
 15 20  1  0  0  0  0
 15 21  1  0  0  0  0
 15 42  1  0  0  0  0
 16 43  1  0  0  0  0
 16 44  1  0  0  0  0
 16 45  1  0  0  0  0
 17 23  1  0  0  0  0
 17 46  1  0  0  0  0
 17 47  1  0  0  0  0
 18 20  1  0  0  0  0
 18 48  1  0  0  0  0
 19 49  1  0  0  0  0
 19 50  1  0  0  0  0
 19 51  1  0  0  0  0
 21 25  1  0  0  0  0
 21 53  1  0  0  0  0
 21 54  1  0  0  0  0
 22 26  1  0  0  0  0
 22 55  1  0  0  0  0
 22 56  1  0  0  0  0
 23 25  1  0  0  0  0
 23 57  1  0  0  0  0
 23 58  1  0  0  0  0
 24 59  1  0  0  0  0
 24 60  1  0  0  0  0
 24 61  1  0  0  0  0
 26 27  1  0  0  0  0
 26 62  1  0  0  0  0
 26 63  1  0  0  0  0
 27 28  1  0  0  0  0
 27 64  1  0  0  0  0
 27 65  1  0  0  0  0
 28 29  1  0  0  0  0
 28 30  1  0  0  0  0
 28 66  1  0  0  0  0
 29 67  1  0  0  0  0
 29 68  1  0  0  0  0
 29 69  1  0  0  0  0
 30 70  1  0  0  0  0
 30 71  1  0  0  0  0
 30 72  1  0  0  0  0
M  END
> <PUBCHEM_COMPOUND_CID>
15081546

> <PUBCHEM_CONFORMER_RMSD>
0.8

> <PUBCHEM_CONFORMER_DIVERSEORDER>
1
4
3
9
5
8
11
10
7
12
6
2

> <PUBCHEM_MMFF94_PARTIAL_CHARGES>
14
1 -0.68
15 0.06
18 -0.14
2 -0.57
20 0.49
21 0.06
23 0.06
25 0.45
3 -0.57
48 0.15
5 0.42
52 0.4
7 0.14
9 -0.28

> <PUBCHEM_EFFECTIVE_ROTOR_COUNT>
6.6

> <PUBCHEM_PHARMACOPHORE_FEATURES>
11
1 1 acceptor
1 1 donor
1 2 acceptor
1 24 hydrophobe
1 3 acceptor
3 28 29 30 hydrophobe
5 14 22 26 27 28 hydrophobe
5 4 5 6 11 12 rings
6 10 15 17 21 23 25 rings
6 4 5 7 8 9 13 rings
6 7 9 10 15 18 20 rings

> <PUBCHEM_HEAVY_ATOM_COUNT>
30

> <PUBCHEM_ATOM_DEF_STEREO_COUNT>
7

> <PUBCHEM_ATOM_UDEF_STEREO_COUNT>
0

> <PUBCHEM_BOND_DEF_STEREO_COUNT>
0

> <PUBCHEM_BOND_UDEF_STEREO_COUNT>
0

> <PUBCHEM_ISOTOPIC_ATOM_COUNT>
0

> <PUBCHEM_COMPONENT_COUNT>
1

> <PUBCHEM_CACTVS_TAUTO_COUNT>
15

> <PUBCHEM_CONFORMER_ID>
00E6204A00000001

> <PUBCHEM_MMFF94_ENERGY>
96.6742

> <PUBCHEM_FEATURE_SELFOVERLAP>
55.983

> <PUBCHEM_SHAPE_FINGERPRINT>
10 15 18411416215817661419
10076449 9 17894912889719131815
10366900 7 16660657292616468075
10591671 39 17821728329620048252
10670039 82 17458620159951645176
10906281 52 17241316010389671153
11112241 14 17346593037500179176
11578080 2 18127987488470224885
11991303 11 17458633276502037118
12011746 2 16805331010965920971
12166972 35 5617244935972099650
12236239 1 18271246113958923955
12596602 18 18131349726075950026
13383665 225 17386830863931107953
13533116 47 16343429522460060338
13540713 4 15793442634957959178
13583140 156 18272083933592968755
13668630 136 6050442609152975380
13782708 43 14129065828488829476
14347332 77 5977840723011217162
14856354 85 17676483930433868479
15131766 46 18198909120125802308
15183329 4 17313379029219350056
15840311 113 17988360467908222510
16994733 274 18272655645085118432
20511986 3 17418100952811856907
21130935 74 16630527379384873027
21150785 3 18186523206535651916
21267235 1 15502381114916174987
21344244 181 4751151930734648676
21641784 216 17313657261174480384
21792934 111 14764080003013898644
21792961 116 16588014745961218798
23522609 53 16371824366828184834
23559900 14 17676212363767387547
23569914 152 5179315820213900840
24771293 8 16415193452024250662
2838139 119 18272647918871365420
34797466 226 18338512040491149990
4093350 32 17703229628084000538
4258327 124 18341322302080794508
4325135 7 18408885148503195302
4340502 62 15195571208526934138
5080951 261 15195001584104736099
5104073 3 15338013004171594396
5265222 85 18261676978067813391
6328613 192 18411136948011198220

> <PUBCHEM_SHAPE_MULTIPOLES>
599.78
17.93
2.18
1.82
16.37
0.47
0.46
10.85
-3.88
1.14
-0.26
0.43
-0.02
-1.51

> <PUBCHEM_SHAPE_SELFOVERLAP>
1261.286

> <PUBCHEM_SHAPE_VOLUME>
335.5

> <PUBCHEM_COORDINATE_TYPE>
2
5
10

$$$$

