5281148
  -OEChem-07051212553D

 43 42  0     1  0  0  0  0  0999 V2000
    3.6750    3.0921    0.3400 O   0  0  0  0  0  0  0  0  0  0  0  0
   -3.9784    2.4445   -1.3809 O   0  0  0  0  0  0  0  0  0  0  0  0
    0.5065   -3.0488   -0.3224 C   0  0  0  0  0  0  0  0  0  0  0  0
    1.4589   -1.8536   -0.2561 C   0  0  0  0  0  0  0  0  0  0  0  0
   -0.9413   -2.6915    0.0306 C   0  0  0  0  0  0  0  0  0  0  0  0
    2.8917   -2.2555   -0.6283 C   0  0  0  0  0  0  0  0  0  0  0  0
   -1.9512   -3.8403   -0.0427 C   0  0  0  0  0  0  0  0  0  0  0  0
    3.8776   -1.0839   -0.5466 C   0  0  0  0  0  0  0  0  0  0  0  0
   -3.3578   -3.4439    0.3776 C   0  0  0  0  0  0  0  0  0  0  0  0
    3.9039   -0.4568    0.8173 C   0  0  0  0  0  0  0  0  0  0  0  0
    3.6059    0.8308    1.0486 C   0  0  0  0  0  0  0  0  0  0  0  0
    3.2112    1.7968   -0.0278 C   0  0  1  0  0  0  0  0  0  0  0  0
    1.7483    1.7956   -0.1585 C   0  0  0  0  0  0  0  0  0  0  0  0
    0.5523    1.7514   -0.2544 C   0  0  0  0  0  0  0  0  0  0  0  0
   -3.4669    1.4379   -0.5119 C   0  0  1  0  0  0  0  0  0  0  0  0
   -0.8133    1.6651   -0.3492 C   0  0  0  0  0  0  0  0  0  0  0  0
   -2.0080    1.5716   -0.4254 C   0  0  0  0  0  0  0  0  0  0  0  0
   -4.0777    1.6077    0.8467 C   0  0  0  0  0  0  0  0  0  0  0  0
   -4.8366    0.6810    1.4434 C   0  0  0  0  0  0  0  0  0  0  0  0
    0.8563   -3.8319    0.3613 H   0  0  0  0  0  0  0  0  0  0  0  0
    0.5303   -3.4763   -1.3324 H   0  0  0  0  0  0  0  0  0  0  0  0
    1.1111   -1.0814   -0.9506 H   0  0  0  0  0  0  0  0  0  0  0  0
    1.4209   -1.4344    0.7551 H   0  0  0  0  0  0  0  0  0  0  0  0
   -0.9586   -2.2737    1.0454 H   0  0  0  0  0  0  0  0  0  0  0  0
   -1.2786   -1.8888   -0.6377 H   0  0  0  0  0  0  0  0  0  0  0  0
    2.9089   -2.6645   -1.6459 H   0  0  0  0  0  0  0  0  0  0  0  0
    3.2278   -3.0588    0.0399 H   0  0  0  0  0  0  0  0  0  0  0  0
   -1.6094   -4.6612    0.5988 H   0  0  0  0  0  0  0  0  0  0  0  0
   -1.9806   -4.2293   -1.0673 H   0  0  0  0  0  0  0  0  0  0  0  0
    3.6367   -0.3892   -1.3534 H   0  0  0  0  0  0  0  0  0  0  0  0
    4.8846   -1.4601   -0.7655 H   0  0  0  0  0  0  0  0  0  0  0  0
   -4.0335   -4.3016    0.3035 H   0  0  0  0  0  0  0  0  0  0  0  0
   -3.3701   -3.0877    1.4126 H   0  0  0  0  0  0  0  0  0  0  0  0
   -3.7458   -2.6464   -0.2639 H   0  0  0  0  0  0  0  0  0  0  0  0
    4.1834   -1.0889    1.6560 H   0  0  0  0  0  0  0  0  0  0  0  0
    3.6434    1.1927    2.0738 H   0  0  0  0  0  0  0  0  0  0  0  0
    3.6781    1.5843   -0.9920 H   0  0  0  0  0  0  0  0  0  0  0  0
    4.6458    3.0564    0.3907 H   0  0  0  0  0  0  0  0  0  0  0  0
   -3.7271    0.4674   -0.9481 H   0  0  0  0  0  0  0  0  0  0  0  0
   -3.9056    2.5459    1.3702 H   0  0  0  0  0  0  0  0  0  0  0  0
   -3.7960    3.3149   -0.9862 H   0  0  0  0  0  0  0  0  0  0  0  0
   -5.2577    0.8651    2.4257 H   0  0  0  0  0  0  0  0  0  0  0  0
   -5.0490   -0.2704    0.9683 H   0  0  0  0  0  0  0  0  0  0  0  0
  1 12  1  0  0  0  0
  1 38  1  0  0  0  0
  2 15  1  0  0  0  0
  2 41  1  0  0  0  0
  3  4  1  0  0  0  0
  3  5  1  0  0  0  0
  3 20  1  0  0  0  0
  3 21  1  0  0  0  0
  4  6  1  0  0  0  0
  4 22  1  0  0  0  0
  4 23  1  0  0  0  0
  5  7  1  0  0  0  0
  5 24  1  0  0  0  0
  5 25  1  0  0  0  0
  6  8  1  0  0  0  0
  6 26  1  0  0  0  0
  6 27  1  0  0  0  0
  7  9  1  0  0  0  0
  7 28  1  0  0  0  0
  7 29  1  0  0  0  0
  8 10  1  0  0  0  0
  8 30  1  0  0  0  0
  8 31  1  0  0  0  0
  9 32  1  0  0  0  0
  9 33  1  0  0  0  0
  9 34  1  0  0  0  0
 10 11  2  0  0  0  0
 10 35  1  0  0  0  0
 11 12  1  0  0  0  0
 11 36  1  0  0  0  0
 12 13  1  0  0  0  0
 12 37  1  0  0  0  0
 13 14  3  0  0  0  0
 14 16  1  0  0  0  0
 15 17  1  0  0  0  0
 15 18  1  0  0  0  0
 15 39  1  0  0  0  0
 16 17  3  0  0  0  0
 18 19  2  0  0  0  0
 18 40  1  0  0  0  0
 19 42  1  0  0  0  0
 19 43  1  0  0  0  0
M  END
> <PUBCHEM_COMPOUND_CID>
5281148

> <PUBCHEM_CONFORMER_RMSD>
0.8

> <PUBCHEM_CONFORMER_DIVERSEORDER>
3
69
287
334
440
282
122
254
288
117
139
332
430
25
110
76
223
276
394
93
39
370
127
265
251
351
187
418
5
326
225
95
395
300
244
415
19
421
384
207
173
293
357
160
121
306
283
404
419
371
59
235
262
350
329
281
179
14
275
346
64
405
231
118
373
313
216
387
199
177
51
414
439
352
54
102
354
144
224
209
140
364
367
237
205
310
153
331
361
47
204
327
238
154
158
392
333
297
159
178
260
376
227
229
141
100
315
241
29
220
401
90
356
243
148
104
263
65
62
388
423
400
133
312
379
369
347
182
292
151
162
349
175
337
36
228
318
403
194
253
226
217
429
83
96
389
249
320
363
9
202
256
92
272
438
285
410
245
146
203
240
189
271
375
372
432
338
255
321
289
58
196
433
191
427
218
99
396
128
319
398
79
190
358
48
406
323
325
307
409
91
239
211
383
424
181
284
183
330
84
43
442
37
380
195
164
348
193
426
294
38
82
366
436
163
161
269
120
108
422
365
172
397
303
94
314
234
49
188
360
304
15
273
20
343
222
206
407
248
290
286
12
135
362
124
341
259
185
324
208
44
32
345
221
147
342
411
316
17
252
170
374
105
142
200
131
298
305
385
152
264
233
115
66
359
242
136
132
215
138
78
167
57
381
30
35
266
417
28
75
277
72
309
336
232
21
344
34
299
81
156
355
428
114
413
27
434
257
386
143
165
18
340
71
308
87
126
416
171
192
85
186
89
236
213
145
408
219
391
274
280
23
97
214
353
412
296
301
267
174
378
42
431
60
112
130
197
53
393
390
26
258
435
322
41
250
73
261
40
55
399
7
166
382
198
168
1
113
111
129
270
50
339
377
119
176
80
295
137
157
402
169
4
134
149
328
368
425
123
212
16
103
180
98
22
107
155
74
278
210
109
70
420
63
302
268
437
246
441
247
52
201
88
77
46
101
335
184
68
116
150
56
291
10
125
67
311
11
106
24
61
45
33
317
31
86
230
2
13
8
6
279

> <PUBCHEM_MMFF94_PARTIAL_CHARGES>
18
1 -0.68
10 -0.29
11 -0.29
12 0.62
13 -0.2
15 0.62
17 -0.2
18 -0.29
19 -0.3
2 -0.68
35 0.15
36 0.15
38 0.4
40 0.15
41 0.4
42 0.15
43 0.15
8 0.14

> <PUBCHEM_EFFECTIVE_ROTOR_COUNT>
8

> <PUBCHEM_PHARMACOPHORE_FEATURES>
6
1 1 acceptor
1 1 donor
1 19 hydrophobe
1 2 acceptor
1 2 donor
1 9 hydrophobe

> <PUBCHEM_HEAVY_ATOM_COUNT>
19

> <PUBCHEM_ATOM_DEF_STEREO_COUNT>
2

> <PUBCHEM_ATOM_UDEF_STEREO_COUNT>
0

> <PUBCHEM_BOND_DEF_STEREO_COUNT>
1

> <PUBCHEM_BOND_UDEF_STEREO_COUNT>
0

> <PUBCHEM_ISOTOPIC_ATOM_COUNT>
0

> <PUBCHEM_COMPONENT_COUNT>
1

> <PUBCHEM_CACTVS_TAUTO_COUNT>
1

> <PUBCHEM_CONFORMER_ID>
0050957C00000003

> <PUBCHEM_MMFF94_ENERGY>
4.8325

> <PUBCHEM_FEATURE_SELFOVERLAP>
30.446

> <PUBCHEM_SHAPE_FINGERPRINT>
10316853 100 18340476868181624195
104564 63 18050288068462633246
10616163 171 18195246616068876780
10688039 33 17770791113123360839
12422481 6 18123438684828886523
13140716 1 18409737235955670256
13561361 72 18341045238225667211
19734167 9 18116456785543739008
20621476 13 17763752383321647679
20645477 70 18341344390887153301
21197605 99 18335978663197039039
21673915 165 18265894666317436499
23558518 356 18200597969226092042
3014063 31 18194685860912770415
338550 245 18270672074204421455
5282274 181 18411133636643946206
5283268 108 18125153840599089346
6443956 14 17977666738466525316
653340 110 18046913679655592608

> <PUBCHEM_SHAPE_MULTIPOLES>
379.27
9.36
5.2
1.02
3.32
4.36
0.12
-3.85
2.11
2.34
-0.47
0.56
-0.35
1.09

> <PUBCHEM_SHAPE_SELFOVERLAP>
718.908

> <PUBCHEM_SHAPE_VOLUME>
230.1

> <PUBCHEM_COORDINATE_TYPE>
2
5
10

$$$$

