5280882
  -OEChem-07051212513D

 54 54  0     1  0  0  0  0  0999 V2000
   -3.3952   -2.7479   -1.3638 O   0  0  0  0  0  0  0  0  0  0  0  0
    3.3014   -1.5016    3.0627 O   0  0  0  0  0  0  0  0  0  0  0  0
   -1.0413    3.9200    2.3659 O   0  0  0  0  0  0  0  0  0  0  0  0
   -1.7159    1.7658    2.1370 O   0  0  0  0  0  0  0  0  0  0  0  0
   -1.6330   -1.4772   -0.2980 C   0  0  1  0  0  0  0  0  0  0  0  0
   -0.5312   -2.0872    0.5155 C   0  0  0  0  0  0  0  0  0  0  0  0
   -1.1607   -0.7368   -1.5394 C   0  0  0  0  0  0  0  0  0  0  0  0
   -2.3752   -2.7444   -0.6813 C   0  0  0  0  0  0  0  0  0  0  0  0
   -1.7430   -4.0081   -0.1558 C   0  0  0  0  0  0  0  0  0  0  0  0
   -0.5941   -3.4219    0.5847 C   0  0  0  0  0  0  0  0  0  0  0  0
    3.9179   -0.3881    0.9972 C   0  0  0  0  0  0  0  0  0  0  0  0
    2.7809   -0.7685    1.9550 C   0  0  1  0  0  0  0  0  0  0  0  0
    3.4122    0.4207   -0.2028 C   0  0  0  0  0  0  0  0  0  0  0  0
    0.4538   -1.2778    1.1744 C   0  0  0  0  0  0  0  0  0  0  0  0
    4.5636    0.8197   -1.1281 C   0  0  0  0  0  0  0  0  0  0  0  0
    1.7479   -1.6159    1.2651 C   0  0  0  0  0  0  0  0  0  0  0  0
   -2.2154   -0.0539   -2.3675 C   0  0  0  0  0  0  0  0  0  0  0  0
    4.0571    1.6009   -2.3405 C   0  0  0  0  0  0  0  0  0  0  0  0
   -2.6971    1.1873   -2.2013 C   0  0  0  0  0  0  0  0  0  0  0  0
   -2.2366    2.1198   -1.1188 C   0  0  0  0  0  0  0  0  0  0  0  0
   -3.3556    2.5542   -0.1622 C   0  0  0  0  0  0  0  0  0  0  0  0
    5.1940    1.9702   -3.2797 C   0  0  0  0  0  0  0  0  0  0  0  0
   -2.8966    3.5222    0.9326 C   0  0  0  0  0  0  0  0  0  0  0  0
   -1.8380    2.9484    1.8491 C   0  0  0  0  0  0  0  0  0  0  0  0
   -2.2818   -0.8636    0.3374 H   0  0  0  0  0  0  0  0  0  0  0  0
   -0.3846   -0.0090   -1.2723 H   0  0  0  0  0  0  0  0  0  0  0  0
   -0.6444   -1.4388   -2.2110 H   0  0  0  0  0  0  0  0  0  0  0  0
   -2.4297   -4.5303    0.5132 H   0  0  0  0  0  0  0  0  0  0  0  0
   -1.4102   -4.6425   -0.9796 H   0  0  0  0  0  0  0  0  0  0  0  0
    0.0970   -4.0444    1.1383 H   0  0  0  0  0  0  0  0  0  0  0  0
    4.6701    0.1915    1.5475 H   0  0  0  0  0  0  0  0  0  0  0  0
    4.4362   -1.2929    0.6531 H   0  0  0  0  0  0  0  0  0  0  0  0
    2.3243    0.1430    2.3593 H   0  0  0  0  0  0  0  0  0  0  0  0
    2.8966    1.3217    0.1515 H   0  0  0  0  0  0  0  0  0  0  0  0
    2.6865   -0.1637   -0.7799 H   0  0  0  0  0  0  0  0  0  0  0  0
    0.1088   -0.3340    1.5862 H   0  0  0  0  0  0  0  0  0  0  0  0
    5.2881    1.4286   -0.5737 H   0  0  0  0  0  0  0  0  0  0  0  0
    5.0901   -0.0811   -1.4665 H   0  0  0  0  0  0  0  0  0  0  0  0
    2.1026   -2.5510    0.8364 H   0  0  0  0  0  0  0  0  0  0  0  0
   -2.6306   -0.6440   -3.1824 H   0  0  0  0  0  0  0  0  0  0  0  0
    3.5509    2.5149   -2.0091 H   0  0  0  0  0  0  0  0  0  0  0  0
    3.3201    1.0024   -2.8885 H   0  0  0  0  0  0  0  0  0  0  0  0
   -3.4623    1.5492   -2.8828 H   0  0  0  0  0  0  0  0  0  0  0  0
   -1.4143    1.6945   -0.5385 H   0  0  0  0  0  0  0  0  0  0  0  0
   -1.8262    3.0136   -1.6061 H   0  0  0  0  0  0  0  0  0  0  0  0
   -3.7912    1.6623    0.3064 H   0  0  0  0  0  0  0  0  0  0  0  0
   -4.1597    3.0323   -0.7356 H   0  0  0  0  0  0  0  0  0  0  0  0
    5.6991    1.0748   -3.6556 H   0  0  0  0  0  0  0  0  0  0  0  0
    5.9352    2.5953   -2.7715 H   0  0  0  0  0  0  0  0  0  0  0  0
    4.8097    2.5292   -4.1386 H   0  0  0  0  0  0  0  0  0  0  0  0
    3.9689   -0.9426    3.4959 H   0  0  0  0  0  0  0  0  0  0  0  0
   -2.4957    4.4252    0.4574 H   0  0  0  0  0  0  0  0  0  0  0  0
   -3.7501    3.8153    1.5532 H   0  0  0  0  0  0  0  0  0  0  0  0
   -0.3652    3.5525    2.9745 H   0  0  0  0  0  0  0  0  0  0  0  0
  1  8  2  0  0  0  0
  2 12  1  0  0  0  0
  2 51  1  0  0  0  0
  3 24  1  0  0  0  0
  3 54  1  0  0  0  0
  4 24  2  0  0  0  0
  5  6  1  0  0  0  0
  5  7  1  0  0  0  0
  5  8  1  0  0  0  0
  5 25  1  0  0  0  0
  6 10  2  0  0  0  0
  6 14  1  0  0  0  0
  7 17  1  0  0  0  0
  7 26  1  0  0  0  0
  7 27  1  0  0  0  0
  8  9  1  0  0  0  0
  9 10  1  0  0  0  0
  9 28  1  0  0  0  0
  9 29  1  0  0  0  0
 10 30  1  0  0  0  0
 11 12  1  0  0  0  0
 11 13  1  0  0  0  0
 11 31  1  0  0  0  0
 11 32  1  0  0  0  0
 12 16  1  0  0  0  0
 12 33  1  0  0  0  0
 13 15  1  0  0  0  0
 13 34  1  0  0  0  0
 13 35  1  0  0  0  0
 14 16  2  0  0  0  0
 14 36  1  0  0  0  0
 15 18  1  0  0  0  0
 15 37  1  0  0  0  0
 15 38  1  0  0  0  0
 16 39  1  0  0  0  0
 17 19  2  0  0  0  0
 17 40  1  0  0  0  0
 18 22  1  0  0  0  0
 18 41  1  0  0  0  0
 18 42  1  0  0  0  0
 19 20  1  0  0  0  0
 19 43  1  0  0  0  0
 20 21  1  0  0  0  0
 20 44  1  0  0  0  0
 20 45  1  0  0  0  0
 21 23  1  0  0  0  0
 21 46  1  0  0  0  0
 21 47  1  0  0  0  0
 22 48  1  0  0  0  0
 22 49  1  0  0  0  0
 22 50  1  0  0  0  0
 23 24  1  0  0  0  0
 23 52  1  0  0  0  0
 23 53  1  0  0  0  0
M  END
> <PUBCHEM_COMPOUND_CID>
5280882

> <PUBCHEM_CONFORMER_RMSD>
1.2

> <PUBCHEM_CONFORMER_DIVERSEORDER>
1
154
251
388
119
353
29
67
320
513
196
290
118
267
453
472
217
198
538
138
136
97
499
501
455
26
10
505
179
264
170
493
150
47
321
25
450
247
496
157
368
114
464
399
421
82
437
233
56
396
2
470
270
318
14
41
302
261
99
63
73
508
214
519
166
95
156
467
200
465
72
367
249
460
89
178
272
30
66
531
528
212
55
145
49
363
17
312
537
107
330
545
327
124
480
126
475
7
60
4
423
213
142
466
389
27
510
84
228
11
65
35
39
71
188
169
334
100
307
225
139
42
522
375
5
315
449
338
298
45
123
20
31
230
61
422
201
376
51
12
487
23
46
16
185
22
224
316
19
364
33
87
62
524
24
44
180

> <PUBCHEM_MMFF94_PARTIAL_CHARGES>
25
1 -0.57
10 -0.29
12 0.42
14 -0.15
16 -0.29
17 -0.29
19 -0.29
2 -0.68
20 0.14
23 0.06
24 0.66
3 -0.65
30 0.15
36 0.15
39 0.15
4 -0.57
40 0.15
43 0.15
5 0.2
51 0.4
54 0.5
6 -0.14
7 0.14
8 0.45
9 0.2

> <PUBCHEM_EFFECTIVE_ROTOR_COUNT>
12.4

> <PUBCHEM_PHARMACOPHORE_FEATURES>
10
1 1 acceptor
1 2 acceptor
1 2 donor
1 22 hydrophobe
1 3 acceptor
1 4 acceptor
3 3 4 24 anion
4 11 13 15 18 hydrophobe
4 19 20 21 23 hydrophobe
5 5 6 8 9 10 rings

> <PUBCHEM_HEAVY_ATOM_COUNT>
24

> <PUBCHEM_ATOM_DEF_STEREO_COUNT>
2

> <PUBCHEM_ATOM_UDEF_STEREO_COUNT>
0

> <PUBCHEM_BOND_DEF_STEREO_COUNT>
2

> <PUBCHEM_BOND_UDEF_STEREO_COUNT>
0

> <PUBCHEM_ISOTOPIC_ATOM_COUNT>
0

> <PUBCHEM_COMPONENT_COUNT>
1

> <PUBCHEM_CACTVS_TAUTO_COUNT>
7

> <PUBCHEM_CONFORMER_ID>
0050947200000001

> <PUBCHEM_MMFF94_ENERGY>
17.0557

> <PUBCHEM_FEATURE_SELFOVERLAP>
50.802

> <PUBCHEM_SHAPE_FINGERPRINT>
12788726 201 18338797810467052079
13583140 156 16341748437125278283
13828863 39 17630296779893775380
14932701 244 18049145680367018428
15119646 57 17972846264969181660
16991981 162 18264750126263390964
20739085 24 17402904812868248250
235170 7 15576721277486443084
469060 322 16341992283809125716
4742675 86 16486114082272381136
6786 2 17611705227862630443

> <PUBCHEM_SHAPE_MULTIPOLES>
470.43
8.24
5.35
3.22
12.29
0.12
-0.09
-5.15
4.62
-5.47
-1.52
2.02
-2.11
-5.09

> <PUBCHEM_SHAPE_SELFOVERLAP>
928.406

> <PUBCHEM_SHAPE_VOLUME>
279.9

> <PUBCHEM_COORDINATE_TYPE>
2
5
10

$$$$

