14321
  -OEChem-06241222432D

 22 22  0     0  0  0  0  0  0999 V2000
    2.0000   -0.8100    0.0000 Cl  0  0  0  0  0  0  0  0  0  0  0  0
    4.5981    0.6900    0.0000 N   0  0  0  0  0  0  0  0  0  0  0  0
    5.4641    2.1900    0.0000 N   0  0  0  0  0  0  0  0  0  0  0  0
    3.7320    2.1900    0.0000 N   0  0  0  0  0  0  0  0  0  0  0  0
    3.7320   -0.8100    0.0000 C   0  0  0  0  0  0  0  0  0  0  0  0
    3.7320    0.1900    0.0000 C   0  0  0  0  0  0  0  0  0  0  0  0
    2.8660   -1.3100    0.0000 C   0  0  0  0  0  0  0  0  0  0  0  0
    4.5981   -1.3100    0.0000 C   0  0  0  0  0  0  0  0  0  0  0  0
    2.8660   -2.3100    0.0000 C   0  0  0  0  0  0  0  0  0  0  0  0
    4.5981   -2.3100    0.0000 C   0  0  0  0  0  0  0  0  0  0  0  0
    3.7320   -2.8100    0.0000 C   0  0  0  0  0  0  0  0  0  0  0  0
    4.5981    1.6900    0.0000 C   0  0  0  0  0  0  0  0  0  0  0  0
    3.5200    0.7726    0.0000 H   0  0  0  0  0  0  0  0  0  0  0  0
    3.1215    0.0823    0.0000 H   0  0  0  0  0  0  0  0  0  0  0  0
    5.1350   -1.0000    0.0000 H   0  0  0  0  0  0  0  0  0  0  0  0
    2.3291   -2.6200    0.0000 H   0  0  0  0  0  0  0  0  0  0  0  0
    5.1350   -2.6200    0.0000 H   0  0  0  0  0  0  0  0  0  0  0  0
    3.7320   -3.4300    0.0000 H   0  0  0  0  0  0  0  0  0  0  0  0
    5.4641    2.8100    0.0000 H   0  0  0  0  0  0  0  0  0  0  0  0
    6.0010    1.8800    0.0000 H   0  0  0  0  0  0  0  0  0  0  0  0
    3.7320    2.8100    0.0000 H   0  0  0  0  0  0  0  0  0  0  0  0
    3.1951    1.8800    0.0000 H   0  0  0  0  0  0  0  0  0  0  0  0
  1  7  1  0  0  0  0
  2  6  1  0  0  0  0
  2 12  2  0  0  0  0
  3 12  1  0  0  0  0
  3 19  1  0  0  0  0
  3 20  1  0  0  0  0
  4 12  1  0  0  0  0
  4 21  1  0  0  0  0
  4 22  1  0  0  0  0
  5  6  1  0  0  0  0
  5  7  1  0  0  0  0
  5  8  2  0  0  0  0
  6 13  1  0  0  0  0
  6 14  1  0  0  0  0
  7  9  2  0  0  0  0
  8 10  1  0  0  0  0
  8 15  1  0  0  0  0
  9 11  1  0  0  0  0
  9 16  1  0  0  0  0
 10 11  2  0  0  0  0
 10 17  1  0  0  0  0
 11 18  1  0  0  0  0
M  END
> <PUBCHEM_COMPOUND_CID>
14321

> <PUBCHEM_COMPOUND_CANONICALIZED>
1

> <PUBCHEM_CACTVS_COMPLEXITY>
166

> <PUBCHEM_CACTVS_HBOND_ACCEPTOR>
1

> <PUBCHEM_CACTVS_HBOND_DONOR>
2

> <PUBCHEM_CACTVS_ROTATABLE_BOND>
2

> <PUBCHEM_CACTVS_SUBSKEYS>
AAADccBzAAAEAAAAAAAAAAAAAAAAAAAAAAAwAAAAAAAAAAABAAAAHAIQAAAADALBGCQxAIJAAACgAiBCJACCAAEgBQAIiAAABogIICKBkxGAIABggAAIiAcQgAAOAAAAAAABAAAAAAAAAAIAAAAAAAAAAA==

> <PUBCHEM_IUPAC_OPENEYE_NAME>
2-[(2-chlorophenyl)methyl]guanidine

> <PUBCHEM_IUPAC_CAS_NAME>
2-[(2-chlorophenyl)methyl]guanidine

> <PUBCHEM_IUPAC_NAME>
2-[(2-chlorophenyl)methyl]guanidine

> <PUBCHEM_IUPAC_SYSTEMATIC_NAME>
2-[(2-chlorophenyl)methyl]guanidine

> <PUBCHEM_IUPAC_TRADITIONAL_NAME>
2-(2-chlorobenzyl)guanidine

> <PUBCHEM_IUPAC_INCHI>
InChI=1S/C8H10ClN3/c9-7-4-2-1-3-6(7)5-12-8(10)11/h1-4H,5H2,(H4,10,11,12)

> <PUBCHEM_IUPAC_INCHIKEY>
AKIBCPLFOPWWPF-UHFFFAOYSA-N

> <PUBCHEM_XLOGP3_AA>
1

> <PUBCHEM_EXACT_MASS>
183.056325

> <PUBCHEM_MOLECULAR_FORMULA>
C8H10ClN3

> <PUBCHEM_MOLECULAR_WEIGHT>
183.6381

> <PUBCHEM_OPENEYE_CAN_SMILES>
C1=CC=C(C(=C1)CN=C(N)N)Cl

> <PUBCHEM_OPENEYE_ISO_SMILES>
C1=CC=C(C(=C1)CN=C(N)N)Cl

> <PUBCHEM_CACTVS_TPSA>
64.4

> <PUBCHEM_MONOISOTOPIC_WEIGHT>
183.056325

> <PUBCHEM_TOTAL_CHARGE>
0

> <PUBCHEM_HEAVY_ATOM_COUNT>
12

> <PUBCHEM_ATOM_DEF_STEREO_COUNT>
0

> <PUBCHEM_ATOM_UDEF_STEREO_COUNT>
0

> <PUBCHEM_BOND_DEF_STEREO_COUNT>
0

> <PUBCHEM_BOND_UDEF_STEREO_COUNT>
0

> <PUBCHEM_ISOTOPIC_ATOM_COUNT>
0

> <PUBCHEM_COMPONENT_COUNT>
1

> <PUBCHEM_CACTVS_TAUTO_COUNT>
2

> <PUBCHEM_COORDINATE_TYPE>
1
5
255

> <PUBCHEM_BONDANNOTATIONS>
10  11  8
5  7  8
5  8  8
7  9  8
8  10  8
9  11  8

$$$$

