9393
  -OEChem-06261203402D

 92 92  0     0  0  0  0  0  0999 V2000
    2.5000    8.3700    0.0000 Cl  0  5  0  0  0  0  0  0  0  0  0  0
    0.0000    8.3700    0.0000 Cl  0  5  0  0  0  0  0  0  0  0  0  0
    8.1350    9.6200    0.0000 O   0  0  0  0  0  0  0  0  0  0  0  0
   11.5991    7.6200    0.0000 O   0  0  0  0  0  0  0  0  0  0  0  0
   11.5991   13.6200    0.0000 N   0  3  0  0  0  0  0  0  0  0  0  0
    8.1350    3.6200    0.0000 N   0  3  0  0  0  0  0  0  0  0  0  0
    9.8671   10.6200    0.0000 N   0  0  0  0  0  0  0  0  0  0  0  0
    9.8671    6.6200    0.0000 N   0  0  0  0  0  0  0  0  0  0  0  0
   11.5991   12.6200    0.0000 C   0  0  0  0  0  0  0  0  0  0  0  0
    8.1350    4.6200    0.0000 C   0  0  0  0  0  0  0  0  0  0  0  0
   11.5991   14.6200    0.0000 C   0  0  0  0  0  0  0  0  0  0  0  0
    8.1350    2.6200    0.0000 C   0  0  0  0  0  0  0  0  0  0  0  0
    7.1350    3.6200    0.0000 C   0  0  0  0  0  0  0  0  0  0  0  0
    9.1350    3.6200    0.0000 C   0  0  0  0  0  0  0  0  0  0  0  0
   12.5991   13.6200    0.0000 C   0  0  0  0  0  0  0  0  0  0  0  0
   10.5991   13.6200    0.0000 C   0  0  0  0  0  0  0  0  0  0  0  0
   10.7331   12.1200    0.0000 C   0  0  0  0  0  0  0  0  0  0  0  0
    9.0010    5.1200    0.0000 C   0  0  0  0  0  0  0  0  0  0  0  0
   12.4651   15.1200    0.0000 C   0  0  0  0  0  0  0  0  0  0  0  0
    7.2690    2.1200    0.0000 C   0  0  0  0  0  0  0  0  0  0  0  0
    6.6350    4.4860    0.0000 C   0  0  0  0  0  0  0  0  0  0  0  0
    9.6350    2.7540    0.0000 C   0  0  0  0  0  0  0  0  0  0  0  0
   13.0991   12.7540    0.0000 C   0  0  0  0  0  0  0  0  0  0  0  0
   10.0991   14.4860    0.0000 C   0  0  0  0  0  0  0  0  0  0  0  0
   10.7331   11.1200    0.0000 C   0  0  0  0  0  0  0  0  0  0  0  0
    9.0010    6.1200    0.0000 C   0  0  0  0  0  0  0  0  0  0  0  0
    6.4030    2.6200    0.0000 C   0  0  0  0  0  0  0  0  0  0  0  0
   13.3312   14.6200    0.0000 C   0  0  0  0  0  0  0  0  0  0  0  0
    7.2690    1.1200    0.0000 C   0  0  0  0  0  0  0  0  0  0  0  0
   12.4651   16.1200    0.0000 C   0  0  0  0  0  0  0  0  0  0  0  0
    9.8671    9.6200    0.0000 C   0  0  0  0  0  0  0  0  0  0  0  0
    9.8671    7.6200    0.0000 C   0  0  0  0  0  0  0  0  0  0  0  0
   14.1972   15.1200    0.0000 C   0  0  0  0  0  0  0  0  0  0  0  0
    5.5369    2.1200    0.0000 C   0  0  0  0  0  0  0  0  0  0  0  0
   13.3312   16.6200    0.0000 C   0  0  0  0  0  0  0  0  0  0  0  0
    6.4030    0.6200    0.0000 C   0  0  0  0  0  0  0  0  0  0  0  0
   14.1972   16.1200    0.0000 C   0  0  0  0  0  0  0  0  0  0  0  0
    5.5369    1.1200    0.0000 C   0  0  0  0  0  0  0  0  0  0  0  0
    9.0010    9.1200    0.0000 C   0  0  0  0  0  0  0  0  0  0  0  0
   10.7331    8.1200    0.0000 C   0  0  0  0  0  0  0  0  0  0  0  0
   10.7331    9.1200    0.0000 C   0  0  0  0  0  0  0  0  0  0  0  0
    9.0010    8.1200    0.0000 C   0  0  0  0  0  0  0  0  0  0  0  0
   11.8112   12.0374    0.0000 H   0  0  0  0  0  0  0  0  0  0  0  0
   12.2097   12.7277    0.0000 H   0  0  0  0  0  0  0  0  0  0  0  0
    7.9230    5.2026    0.0000 H   0  0  0  0  0  0  0  0  0  0  0  0
    7.5244    4.5123    0.0000 H   0  0  0  0  0  0  0  0  0  0  0  0
   11.3871   15.2026    0.0000 H   0  0  0  0  0  0  0  0  0  0  0  0
   10.9885   14.5123    0.0000 H   0  0  0  0  0  0  0  0  0  0  0  0
    8.3471    2.0374    0.0000 H   0  0  0  0  0  0  0  0  0  0  0  0
    8.7456    2.7277    0.0000 H   0  0  0  0  0  0  0  0  0  0  0  0
   10.0165   13.4079    0.0000 H   0  0  0  0  0  0  0  0  0  0  0  0
   10.7068   13.0094    0.0000 H   0  0  0  0  0  0  0  0  0  0  0  0
   13.1817   13.8321    0.0000 H   0  0  0  0  0  0  0  0  0  0  0  0
   12.4915   14.2306    0.0000 H   0  0  0  0  0  0  0  0  0  0  0  0
    9.7176    3.8320    0.0000 H   0  0  0  0  0  0  0  0  0  0  0  0
    9.0274    4.2306    0.0000 H   0  0  0  0  0  0  0  0  0  0  0  0
    6.5524    3.4080    0.0000 H   0  0  0  0  0  0  0  0  0  0  0  0
    7.2427    3.0094    0.0000 H   0  0  0  0  0  0  0  0  0  0  0  0
    9.2131    4.5374    0.0000 H   0  0  0  0  0  0  0  0  0  0  0  0
    9.6116    5.2277    0.0000 H   0  0  0  0  0  0  0  0  0  0  0  0
   10.5210   12.7026    0.0000 H   0  0  0  0  0  0  0  0  0  0  0  0
   10.1225   12.0123    0.0000 H   0  0  0  0  0  0  0  0  0  0  0  0
    7.1720    4.7960    0.0000 H   0  0  0  0  0  0  0  0  0  0  0  0
    6.3250    5.0230    0.0000 H   0  0  0  0  0  0  0  0  0  0  0  0
    6.0981    4.1760    0.0000 H   0  0  0  0  0  0  0  0  0  0  0  0
    9.0981    2.4440    0.0000 H   0  0  0  0  0  0  0  0  0  0  0  0
    9.9450    2.2170    0.0000 H   0  0  0  0  0  0  0  0  0  0  0  0
   10.1719    3.0640    0.0000 H   0  0  0  0  0  0  0  0  0  0  0  0
   12.5622   12.4440    0.0000 H   0  0  0  0  0  0  0  0  0  0  0  0
   13.4091   12.2170    0.0000 H   0  0  0  0  0  0  0  0  0  0  0  0
   13.6360   13.0640    0.0000 H   0  0  0  0  0  0  0  0  0  0  0  0
   10.6360   14.7960    0.0000 H   0  0  0  0  0  0  0  0  0  0  0  0
    9.7891   15.0230    0.0000 H   0  0  0  0  0  0  0  0  0  0  0  0
    9.5622   14.1760    0.0000 H   0  0  0  0  0  0  0  0  0  0  0  0
   10.9451   10.5374    0.0000 H   0  0  0  0  0  0  0  0  0  0  0  0
   11.3437   11.2277    0.0000 H   0  0  0  0  0  0  0  0  0  0  0  0
    8.7890    6.7026    0.0000 H   0  0  0  0  0  0  0  0  0  0  0  0
    8.3905    6.0123    0.0000 H   0  0  0  0  0  0  0  0  0  0  0  0
    6.4030    3.2400    0.0000 H   0  0  0  0  0  0  0  0  0  0  0  0
   13.3312   14.0000    0.0000 H   0  0  0  0  0  0  0  0  0  0  0  0
    7.8059    0.8100    0.0000 H   0  0  0  0  0  0  0  0  0  0  0  0
   11.9282   16.4300    0.0000 H   0  0  0  0  0  0  0  0  0  0  0  0
    9.3301   10.9300    0.0000 H   0  0  0  0  0  0  0  0  0  0  0  0
   10.4040    6.3100    0.0000 H   0  0  0  0  0  0  0  0  0  0  0  0
   14.7341   14.8100    0.0000 H   0  0  0  0  0  0  0  0  0  0  0  0
    5.0000    2.4300    0.0000 H   0  0  0  0  0  0  0  0  0  0  0  0
   13.3312   17.2400    0.0000 H   0  0  0  0  0  0  0  0  0  0  0  0
    6.4030    0.0000    0.0000 H   0  0  0  0  0  0  0  0  0  0  0  0
   14.7341   16.4300    0.0000 H   0  0  0  0  0  0  0  0  0  0  0  0
    5.0000    0.8100    0.0000 H   0  0  0  0  0  0  0  0  0  0  0  0
   11.2700    9.4300    0.0000 H   0  0  0  0  0  0  0  0  0  0  0  0
    8.4641    7.8100    0.0000 H   0  0  0  0  0  0  0  0  0  0  0  0
  3 39  2  0  0  0  0
  4 40  2  0  0  0  0
  5  9  1  0  0  0  0
  5 11  1  0  0  0  0
  5 15  1  0  0  0  0
  5 16  1  0  0  0  0
  6 10  1  0  0  0  0
  6 12  1  0  0  0  0
  6 13  1  0  0  0  0
  6 14  1  0  0  0  0
  7 25  1  0  0  0  0
  7 31  1  0  0  0  0
  7 83  1  0  0  0  0
  8 26  1  0  0  0  0
  8 32  1  0  0  0  0
  8 84  1  0  0  0  0
  9 17  1  0  0  0  0
  9 43  1  0  0  0  0
  9 44  1  0  0  0  0
 10 18  1  0  0  0  0
 10 45  1  0  0  0  0
 10 46  1  0  0  0  0
 11 19  1  0  0  0  0
 11 47  1  0  0  0  0
 11 48  1  0  0  0  0
 12 20  1  0  0  0  0
 12 49  1  0  0  0  0
 12 50  1  0  0  0  0
 13 21  1  0  0  0  0
 13 57  1  0  0  0  0
 13 58  1  0  0  0  0
 14 22  1  0  0  0  0
 14 55  1  0  0  0  0
 14 56  1  0  0  0  0
 15 23  1  0  0  0  0
 15 53  1  0  0  0  0
 15 54  1  0  0  0  0
 16 24  1  0  0  0  0
 16 51  1  0  0  0  0
 16 52  1  0  0  0  0
 17 25  1  0  0  0  0
 17 61  1  0  0  0  0
 17 62  1  0  0  0  0
 18 26  1  0  0  0  0
 18 59  1  0  0  0  0
 18 60  1  0  0  0  0
 19 28  2  0  0  0  0
 19 30  1  0  0  0  0
 20 27  2  0  0  0  0
 20 29  1  0  0  0  0
 21 63  1  0  0  0  0
 21 64  1  0  0  0  0
 21 65  1  0  0  0  0
 22 66  1  0  0  0  0
 22 67  1  0  0  0  0
 22 68  1  0  0  0  0
 23 69  1  0  0  0  0
 23 70  1  0  0  0  0
 23 71  1  0  0  0  0
 24 72  1  0  0  0  0
 24 73  1  0  0  0  0
 24 74  1  0  0  0  0
 25 75  1  0  0  0  0
 25 76  1  0  0  0  0
 26 77  1  0  0  0  0
 26 78  1  0  0  0  0
 27 34  1  0  0  0  0
 27 79  1  0  0  0  0
 28 33  1  0  0  0  0
 28 80  1  0  0  0  0
 29 36  2  0  0  0  0
 29 81  1  0  0  0  0
 30 35  2  0  0  0  0
 30 82  1  0  0  0  0
 31 39  1  0  0  0  0
 31 41  2  0  0  0  0
 32 40  1  0  0  0  0
 32 42  2  0  0  0  0
 33 37  2  0  0  0  0
 33 85  1  0  0  0  0
 34 38  2  0  0  0  0
 34 86  1  0  0  0  0
 35 37  1  0  0  0  0
 35 87  1  0  0  0  0
 36 38  1  0  0  0  0
 36 88  1  0  0  0  0
 37 89  1  0  0  0  0
 38 90  1  0  0  0  0
 39 42  1  0  0  0  0
 40 41  1  0  0  0  0
 41 91  1  0  0  0  0
 42 92  1  0  0  0  0
M  CHG  4   1  -1   2  -1   5   1   6   1
M  END
> <PUBCHEM_COMPOUND_CID>
9393

> <PUBCHEM_COMPOUND_CANONICALIZED>
1

> <PUBCHEM_CACTVS_COMPLEXITY>
774

> <PUBCHEM_CACTVS_HBOND_ACCEPTOR>
6

> <PUBCHEM_CACTVS_HBOND_DONOR>
2

> <PUBCHEM_CACTVS_ROTATABLE_BOND>
18

> <PUBCHEM_CACTVS_SUBSKEYS>
AAADcfB/sAAGAAAAAAAAAAAAAAAAAAAAAAAwYIAAAAAAAAABQAAAHgAQAAAADAzBmAQyAIPAAACIAqRSQACCAAAgAgAIiICIBMgIICKA0TGEIAhgkACIiccQgAAOAAAAAAAAAAAAAAAAAAAAAAAAAAAAAA==

> <PUBCHEM_IUPAC_OPENEYE_NAME>
benzyl-[3-[[4-[3-[benzyl(diethyl)ammonio]propylamino]-3,6-dioxo-cyclohexa-1,4-dien-1-yl]amino]propyl]-diethyl-ammonium dichloride

> <PUBCHEM_IUPAC_CAS_NAME>
3-[[4-[3-[diethyl-(phenylmethyl)ammonio]propylamino]-3,6-dioxo-1-cyclohexa-1,4-dienyl]amino]propyl-diethyl-(phenylmethyl)ammonium dichloride

> <PUBCHEM_IUPAC_NAME>
benzyl-[3-[[4-[3-[benzyl(diethyl)azaniumyl]propylamino]-3,6-dioxocyclohexa-1,4-dien-1-yl]amino]propyl]-diethylazanium dichloride

> <PUBCHEM_IUPAC_SYSTEMATIC_NAME>
3-[[4-[3-[diethyl-(phenylmethyl)azaniumyl]propylamino]-3,6-bis(oxidanylidene)cyclohexa-1,4-dien-1-yl]amino]propyl-diethyl-(phenylmethyl)azanium dichloride

> <PUBCHEM_IUPAC_TRADITIONAL_NAME>
benzyl-[3-[[4-[3-[benzyl(diethyl)ammonio]propylamino]-3,6-diketo-cyclohexa-1,4-dien-1-yl]amino]propyl]-diethyl-ammonium dichloride

> <PUBCHEM_IUPAC_INCHI>
InChI=1S/C34H48N4O2.2ClH/c1-5-37(6-2,27-29-17-11-9-12-18-29)23-15-21-35-31-25-34(40)32(26-33(31)39)36-22-16-24-38(7-3,8-4)28-30-19-13-10-14-20-30;;/h9-14,17-20,25-26H,5-8,15-16,21-24,27-28H2,1-4H3;2*1H

> <PUBCHEM_IUPAC_INCHIKEY>
WQRJZLXQCYZJEU-UHFFFAOYSA-N

> <PUBCHEM_EXACT_MASS>
616.331082

> <PUBCHEM_MOLECULAR_FORMULA>
C34H50Cl2N4O2

> <PUBCHEM_MOLECULAR_WEIGHT>
617.6924

> <PUBCHEM_OPENEYE_CAN_SMILES>
CC[N+](CC)(CCCNC1=CC(=O)C(=CC1=O)NCCC[N+](CC)(CC)CC2=CC=CC=C2)CC3=CC=CC=C3.[Cl-].[Cl-]

> <PUBCHEM_OPENEYE_ISO_SMILES>
CC[N+](CC)(CCCNC1=CC(=O)C(=CC1=O)NCCC[N+](CC)(CC)CC2=CC=CC=C2)CC3=CC=CC=C3.[Cl-].[Cl-]

> <PUBCHEM_CACTVS_TPSA>
58.2

> <PUBCHEM_MONOISOTOPIC_WEIGHT>
616.331082

> <PUBCHEM_TOTAL_CHARGE>
0

> <PUBCHEM_HEAVY_ATOM_COUNT>
42

> <PUBCHEM_ATOM_DEF_STEREO_COUNT>
0

> <PUBCHEM_ATOM_UDEF_STEREO_COUNT>
0

> <PUBCHEM_BOND_DEF_STEREO_COUNT>
0

> <PUBCHEM_BOND_UDEF_STEREO_COUNT>
0

> <PUBCHEM_ISOTOPIC_ATOM_COUNT>
0

> <PUBCHEM_COMPONENT_COUNT>
3

> <PUBCHEM_CACTVS_TAUTO_COUNT>
6

> <PUBCHEM_COORDINATE_TYPE>
1
5
255

> <PUBCHEM_BONDANNOTATIONS>
19  28  8
19  30  8
20  27  8
20  29  8
27  34  8
28  33  8
29  36  8
30  35  8
33  37  8
34  38  8
35  37  8
36  38  8

$$$$

