14004
  -OEChem-06241222412D

 84 85  0     0  0  0  0  0  0999 V2000
    4.8671    0.6546    0.0000 S   0  0  0  0  0  0  0  0  0  0  0  0
    8.3933    3.6788    0.0000 O   0  0  0  0  0  0  0  0  0  0  0  0
    7.9327   10.7097    0.0000 O   0  0  0  0  0  0  0  0  0  0  0  0
    3.6026   11.2097    0.0000 O   0  0  0  0  0  0  0  0  0  0  0  0
    3.6026   15.7278    0.0000 O   0  0  0  0  0  0  0  0  0  0  0  0
    7.9327   15.2278    0.0000 O   0  0  0  0  0  0  0  0  0  0  0  0
    7.0667   12.2097    0.0000 O   0  0  0  0  0  0  0  0  0  0  0  0
    4.4686    9.7097    0.0000 O   0  0  0  0  0  0  0  0  0  0  0  0
    4.4686   14.2278    0.0000 O   0  0  0  0  0  0  0  0  0  0  0  0
    7.0667   16.7278    0.0000 O   0  0  0  0  0  0  0  0  0  0  0  0
    3.1350    5.6546    0.0000 N   0  0  0  0  0  0  0  0  0  0  0  0
    1.4030    6.6546    0.0000 N   0  0  0  0  0  0  0  0  0  0  0  0
    4.8671    2.6546    0.0000 N   0  0  0  0  0  0  0  0  0  0  0  0
    2.2690    5.1546    0.0000 C   0  0  0  0  0  0  0  0  0  0  0  0
    3.1350    6.6546    0.0000 C   0  0  0  0  0  0  0  0  0  0  0  0
    4.0010    5.1546    0.0000 C   0  0  0  0  0  0  0  0  0  0  0  0
    1.4030    5.6546    0.0000 C   0  0  0  0  0  0  0  0  0  0  0  0
    2.2690    7.1546    0.0000 C   0  0  0  0  0  0  0  0  0  0  0  0
    4.0010    4.1546    0.0000 C   0  0  0  0  0  0  0  0  0  0  0  0
    4.8671    3.6546    0.0000 C   0  0  0  0  0  0  0  0  0  0  0  0
    0.5369    7.1546    0.0000 C   0  0  0  0  0  0  0  0  0  0  0  0
    5.7331    2.1546    0.0000 C   0  0  0  0  0  0  0  0  0  0  0  0
    4.0010    2.1546    0.0000 C   0  0  0  0  0  0  0  0  0  0  0  0
    5.7331    1.1546    0.0000 C   0  0  0  0  0  0  0  0  0  0  0  0
    4.0010    1.1546    0.0000 C   0  0  0  0  0  0  0  0  0  0  0  0
    6.6270    2.6893    0.0000 C   0  0  0  0  0  0  0  0  0  0  0  0
    3.1071    2.6893    0.0000 C   0  0  0  0  0  0  0  0  0  0  0  0
    7.5331    2.1754    0.0000 C   0  0  0  0  0  0  0  0  0  0  0  0
    6.6270    0.6200    0.0000 C   0  0  0  0  0  0  0  0  0  0  0  0
    3.1071    0.6200    0.0000 C   0  0  0  0  0  0  0  0  0  0  0  0
    7.5331    1.1338    0.0000 C   0  0  0  0  0  0  0  0  0  0  0  0
    2.2010    2.1754    0.0000 C   0  0  0  0  0  0  0  0  0  0  0  0
    2.2010    1.1338    0.0000 C   0  0  0  0  0  0  0  0  0  0  0  0
    8.3972    2.6788    0.0000 C   0  0  0  0  0  0  0  0  0  0  0  0
    9.2651    2.1821    0.0000 C   0  0  0  0  0  0  0  0  0  0  0  0
   10.1292    2.6854    0.0000 C   0  0  0  0  0  0  0  0  0  0  0  0
   10.9972    2.1888    0.0000 C   0  0  0  0  0  0  0  0  0  0  0  0
    6.2007   10.7097    0.0000 C   0  0  0  0  0  0  0  0  0  0  0  0
    5.3346   11.2097    0.0000 C   0  0  0  0  0  0  0  0  0  0  0  0
    5.3346   15.7278    0.0000 C   0  0  0  0  0  0  0  0  0  0  0  0
    6.2007   15.2278    0.0000 C   0  0  0  0  0  0  0  0  0  0  0  0
    7.0667   11.2097    0.0000 C   0  0  0  0  0  0  0  0  0  0  0  0
    4.4686   10.7097    0.0000 C   0  0  0  0  0  0  0  0  0  0  0  0
    4.4686   15.2278    0.0000 C   0  0  0  0  0  0  0  0  0  0  0  0
    7.0667   15.7278    0.0000 C   0  0  0  0  0  0  0  0  0  0  0  0
    1.8705    4.6797    0.0000 H   0  0  0  0  0  0  0  0  0  0  0  0
    2.6675    4.6797    0.0000 H   0  0  0  0  0  0  0  0  0  0  0  0
    3.7456    6.5470    0.0000 H   0  0  0  0  0  0  0  0  0  0  0  0
    3.3471    7.2372    0.0000 H   0  0  0  0  0  0  0  0  0  0  0  0
    4.2131    5.7372    0.0000 H   0  0  0  0  0  0  0  0  0  0  0  0
    4.6116    5.0470    0.0000 H   0  0  0  0  0  0  0  0  0  0  0  0
    0.7924    5.7623    0.0000 H   0  0  0  0  0  0  0  0  0  0  0  0
    1.1909    5.0720    0.0000 H   0  0  0  0  0  0  0  0  0  0  0  0
    1.8705    7.6296    0.0000 H   0  0  0  0  0  0  0  0  0  0  0  0
    2.6675    7.6296    0.0000 H   0  0  0  0  0  0  0  0  0  0  0  0
    3.7890    3.5720    0.0000 H   0  0  0  0  0  0  0  0  0  0  0  0
    3.3905    4.2623    0.0000 H   0  0  0  0  0  0  0  0  0  0  0  0
    5.0791    4.2372    0.0000 H   0  0  0  0  0  0  0  0  0  0  0  0
    5.4776    3.5470    0.0000 H   0  0  0  0  0  0  0  0  0  0  0  0
    0.8469    7.6916    0.0000 H   0  0  0  0  0  0  0  0  0  0  0  0
    0.0000    7.4646    0.0000 H   0  0  0  0  0  0  0  0  0  0  0  0
    0.2269    6.6177    0.0000 H   0  0  0  0  0  0  0  0  0  0  0  0
    6.6199    3.3092    0.0000 H   0  0  0  0  0  0  0  0  0  0  0  0
    3.1143    3.3092    0.0000 H   0  0  0  0  0  0  0  0  0  0  0  0
    6.6199    0.0000    0.0000 H   0  0  0  0  0  0  0  0  0  0  0  0
    3.1143    0.0000    0.0000 H   0  0  0  0  0  0  0  0  0  0  0  0
    8.0688    0.8217    0.0000 H   0  0  0  0  0  0  0  0  0  0  0  0
    1.6653    2.4875    0.0000 H   0  0  0  0  0  0  0  0  0  0  0  0
    1.6653    0.8217    0.0000 H   0  0  0  0  0  0  0  0  0  0  0  0
    9.6655    1.7087    0.0000 H   0  0  0  0  0  0  0  0  0  0  0  0
    8.8684    1.7056    0.0000 H   0  0  0  0  0  0  0  0  0  0  0  0
    9.7289    3.1589    0.0000 H   0  0  0  0  0  0  0  0  0  0  0  0
   10.5259    3.1619    0.0000 H   0  0  0  0  0  0  0  0  0  0  0  0
   10.6892    1.6507    0.0000 H   0  0  0  0  0  0  0  0  0  0  0  0
   11.5353    1.8809    0.0000 H   0  0  0  0  0  0  0  0  0  0  0  0
   11.3051    2.7269    0.0000 H   0  0  0  0  0  0  0  0  0  0  0  0
    6.2007   10.0897    0.0000 H   0  0  0  0  0  0  0  0  0  0  0  0
    5.3346   11.8297    0.0000 H   0  0  0  0  0  0  0  0  0  0  0  0
    5.3346   16.3478    0.0000 H   0  0  0  0  0  0  0  0  0  0  0  0
    6.2007   14.6078    0.0000 H   0  0  0  0  0  0  0  0  0  0  0  0
    8.4696   11.0197    0.0000 H   0  0  0  0  0  0  0  0  0  0  0  0
    3.0657   10.8997    0.0000 H   0  0  0  0  0  0  0  0  0  0  0  0
    3.0657   15.4178    0.0000 H   0  0  0  0  0  0  0  0  0  0  0  0
    8.4697   15.5378    0.0000 H   0  0  0  0  0  0  0  0  0  0  0  0
  1 24  1  0  0  0  0
  1 25  1  0  0  0  0
  2 34  2  0  0  0  0
  3 42  1  0  0  0  0
  3 81  1  0  0  0  0
  4 43  1  0  0  0  0
  4 82  1  0  0  0  0
  5 44  1  0  0  0  0
  5 83  1  0  0  0  0
  6 45  1  0  0  0  0
  6 84  1  0  0  0  0
  7 42  2  0  0  0  0
  8 43  2  0  0  0  0
  9 44  2  0  0  0  0
 10 45  2  0  0  0  0
 11 14  1  0  0  0  0
 11 15  1  0  0  0  0
 11 16  1  0  0  0  0
 12 17  1  0  0  0  0
 12 18  1  0  0  0  0
 12 21  1  0  0  0  0
 13 20  1  0  0  0  0
 13 22  1  0  0  0  0
 13 23  1  0  0  0  0
 14 17  1  0  0  0  0
 14 46  1  0  0  0  0
 14 47  1  0  0  0  0
 15 18  1  0  0  0  0
 15 48  1  0  0  0  0
 15 49  1  0  0  0  0
 16 19  1  0  0  0  0
 16 50  1  0  0  0  0
 16 51  1  0  0  0  0
 17 52  1  0  0  0  0
 17 53  1  0  0  0  0
 18 54  1  0  0  0  0
 18 55  1  0  0  0  0
 19 20  1  0  0  0  0
 19 56  1  0  0  0  0
 19 57  1  0  0  0  0
 20 58  1  0  0  0  0
 20 59  1  0  0  0  0
 21 60  1  0  0  0  0
 21 61  1  0  0  0  0
 21 62  1  0  0  0  0
 22 24  2  0  0  0  0
 22 26  1  0  0  0  0
 23 25  1  0  0  0  0
 23 27  2  0  0  0  0
 24 29  1  0  0  0  0
 25 30  2  0  0  0  0
 26 28  2  0  0  0  0
 26 63  1  0  0  0  0
 27 32  1  0  0  0  0
 27 64  1  0  0  0  0
 28 31  1  0  0  0  0
 28 34  1  0  0  0  0
 29 31  2  0  0  0  0
 29 65  1  0  0  0  0
 30 33  1  0  0  0  0
 30 66  1  0  0  0  0
 31 67  1  0  0  0  0
 32 33  2  0  0  0  0
 32 68  1  0  0  0  0
 33 69  1  0  0  0  0
 34 35  1  0  0  0  0
 35 36  1  0  0  0  0
 35 70  1  0  0  0  0
 35 71  1  0  0  0  0
 36 37  1  0  0  0  0
 36 72  1  0  0  0  0
 36 73  1  0  0  0  0
 37 74  1  0  0  0  0
 37 75  1  0  0  0  0
 37 76  1  0  0  0  0
 38 39  2  3  0  0  0
 38 42  1  0  0  0  0
 38 77  1  0  0  0  0
 39 43  1  0  0  0  0
 39 78  1  0  0  0  0
 40 41  2  3  0  0  0
 40 44  1  0  0  0  0
 40 79  1  0  0  0  0
 41 45  1  0  0  0  0
 41 80  1  0  0  0  0
M  END
> <PUBCHEM_COMPOUND_CID>
14004

> <PUBCHEM_COMPOUND_CANONICALIZED>
1

> <PUBCHEM_CACTVS_COMPLEXITY>
655

> <PUBCHEM_CACTVS_HBOND_ACCEPTOR>
13

> <PUBCHEM_CACTVS_HBOND_DONOR>
4

> <PUBCHEM_CACTVS_ROTATABLE_BOND>
11

> <PUBCHEM_CACTVS_SUBSKEYS>
AAADcfB/PABAAAAAAAAAAAAAAAAAAAAAAAA8eIEAAAAAAACxQAAAHgQACAAADAzB2AQyyYMAAgiIAqTSSACCAAAlChAIiB0IZMgIZHLg1ZGUMQhggADo2YcciICOEAAAQAAAAQAgAACAAAACAAAAAAAAAA==

> <PUBCHEM_IUPAC_OPENEYE_NAME>
but-2-enedioic acid; 1-[10-[3-(4-methylpiperazin-1-yl)propyl]phenothiazin-2-yl]butan-1-one

> <PUBCHEM_IUPAC_CAS_NAME>
but-2-enedioic acid; 1-[10-[3-(4-methyl-1-piperazinyl)propyl]-2-phenothiazinyl]-1-butanone

> <PUBCHEM_IUPAC_NAME>
but-2-enedioic acid; 1-[10-[3-(4-methylpiperazin-1-yl)propyl]phenothiazin-2-yl]butan-1-one

> <PUBCHEM_IUPAC_SYSTEMATIC_NAME>
but-2-enedioic acid; 1-[10-[3-(4-methylpiperazin-1-yl)propyl]phenothiazin-2-yl]butan-1-one

> <PUBCHEM_IUPAC_TRADITIONAL_NAME>
but-2-enedioic acid; 1-[10-[3-(4-methylpiperazino)propyl]phenothiazin-2-yl]butan-1-one

> <PUBCHEM_IUPAC_INCHI>
InChI=1S/C24H31N3OS.2C4H4O4/c1-3-7-22(28)19-10-11-24-21(18-19)27(20-8-4-5-9-23(20)29-24)13-6-12-26-16-14-25(2)15-17-26;2*5-3(6)1-2-4(7)8/h4-5,8-11,18H,3,6-7,12-17H2,1-2H3;2*1-2H,(H,5,6)(H,7,8)

> <PUBCHEM_IUPAC_INCHIKEY>
WVYWSPZQGQMPKW-UHFFFAOYSA-N

> <PUBCHEM_XLOGP3_AA>
4.615

> <PUBCHEM_EXACT_MASS>
641.240701

> <PUBCHEM_MOLECULAR_FORMULA>
C32H39N3O9S

> <PUBCHEM_MOLECULAR_WEIGHT>
641.73176

> <PUBCHEM_OPENEYE_CAN_SMILES>
CCCC(=O)C1=CC2=C(C=C1)SC3=CC=CC=C3N2CCCN4CCN(CC4)C.C(=CC(=O)O)C(=O)O.C(=CC(=O)O)C(=O)O

> <PUBCHEM_OPENEYE_ISO_SMILES>
CCCC(=O)C1=CC2=C(C=C1)SC3=CC=CC=C3N2CCCN4CCN(CC4)C.C(=CC(=O)O)C(=O)O.C(=CC(=O)O)C(=O)O

> <PUBCHEM_CACTVS_TPSA>
201

> <PUBCHEM_MONOISOTOPIC_WEIGHT>
641.240701

> <PUBCHEM_TOTAL_CHARGE>
0

> <PUBCHEM_HEAVY_ATOM_COUNT>
45

> <PUBCHEM_ATOM_DEF_STEREO_COUNT>
0

> <PUBCHEM_ATOM_UDEF_STEREO_COUNT>
0

> <PUBCHEM_BOND_DEF_STEREO_COUNT>
0

> <PUBCHEM_BOND_UDEF_STEREO_COUNT>
2

> <PUBCHEM_ISOTOPIC_ATOM_COUNT>
0

> <PUBCHEM_COMPONENT_COUNT>
3

> <PUBCHEM_CACTVS_TAUTO_COUNT>
2

> <PUBCHEM_COORDINATE_TYPE>
1
5
255

> <PUBCHEM_BONDANNOTATIONS>
22  24  8
22  26  8
23  25  8
23  27  8
24  29  8
25  30  8
26  28  8
27  32  8
28  31  8
29  31  8
30  33  8
32  33  8
38  39  1
40  41  1

$$$$

