9187
  -OEChem-06261203293D

 27 30  0     0  0  0  0  0  0999 V2000
   -4.5245   -0.1869    0.0000 S   0  0  0  0  0  0  0  0  0  0  0  0
   -0.5733   -0.1282   -0.0001 C   0  0  0  0  0  0  0  0  0  0  0  0
   -0.2364    1.2457    0.0001 C   0  0  0  0  0  0  0  0  0  0  0  0
   -1.9522   -0.5293   -0.0002 C   0  0  0  0  0  0  0  0  0  0  0  0
    1.8146   -0.7060    0.0002 C   0  0  0  0  0  0  0  0  0  0  0  0
    2.1454    0.6666   -0.0001 C   0  0  0  0  0  0  0  0  0  0  0  0
    0.4625   -1.0885    0.0001 C   0  0  0  0  0  0  0  0  0  0  0  0
    1.1165    1.6231    0.0000 C   0  0  0  0  0  0  0  0  0  0  0  0
   -2.9302    0.4716    0.0000 C   0  0  0  0  0  0  0  0  0  0  0  0
   -1.2491    2.2051    0.0002 C   0  0  0  0  0  0  0  0  0  0  0  0
   -2.5943    1.8370    0.0002 C   0  0  0  0  0  0  0  0  0  0  0  0
   -2.5707   -1.8325   -0.0002 C   0  0  0  0  0  0  0  0  0  0  0  0
    2.8454   -1.6605    0.0005 C   0  0  0  0  0  0  0  0  0  0  0  0
    3.4976    1.0473   -0.0004 C   0  0  0  0  0  0  0  0  0  0  0  0
   -3.9440   -1.7854   -0.0001 C   0  0  0  0  0  0  0  0  0  0  0  0
    4.1833   -1.2657    0.0002 C   0  0  0  0  0  0  0  0  0  0  0  0
    4.5092    0.0866   -0.0004 C   0  0  0  0  0  0  0  0  0  0  0  0
    0.2202   -2.1501    0.0002 H   0  0  0  0  0  0  0  0  0  0  0  0
    1.3753    2.6823   -0.0001 H   0  0  0  0  0  0  0  0  0  0  0  0
   -1.0047    3.2660    0.0003 H   0  0  0  0  0  0  0  0  0  0  0  0
   -3.3657    2.6023    0.0004 H   0  0  0  0  0  0  0  0  0  0  0  0
   -2.0279   -2.7695   -0.0003 H   0  0  0  0  0  0  0  0  0  0  0  0
    2.6140   -2.7237    0.0008 H   0  0  0  0  0  0  0  0  0  0  0  0
    3.7756    2.0993   -0.0006 H   0  0  0  0  0  0  0  0  0  0  0  0
   -4.6305   -2.6203   -0.0001 H   0  0  0  0  0  0  0  0  0  0  0  0
    4.9700   -2.0145    0.0003 H   0  0  0  0  0  0  0  0  0  0  0  0
    5.5505    0.3951   -0.0007 H   0  0  0  0  0  0  0  0  0  0  0  0
  1  9  1  0  0  0  0
  1 15  1  0  0  0  0
  2  3  1  0  0  0  0
  2  4  1  0  0  0  0
  2  7  2  0  0  0  0
  3  8  2  0  0  0  0
  3 10  1  0  0  0  0
  4  9  2  0  0  0  0
  4 12  1  0  0  0  0
  5  6  1  0  0  0  0
  5  7  1  0  0  0  0
  5 13  2  0  0  0  0
  6  8  1  0  0  0  0
  6 14  2  0  0  0  0
  7 18  1  0  0  0  0
  8 19  1  0  0  0  0
  9 11  1  0  0  0  0
 10 11  2  0  0  0  0
 10 20  1  0  0  0  0
 11 21  1  0  0  0  0
 12 15  2  0  0  0  0
 12 22  1  0  0  0  0
 13 16  1  0  0  0  0
 13 23  1  0  0  0  0
 14 17  1  0  0  0  0
 14 24  1  0  0  0  0
 15 25  1  0  0  0  0
 16 17  2  0  0  0  0
 16 26  1  0  0  0  0
 17 27  1  0  0  0  0
M  END
> <PUBCHEM_COMPOUND_CID>
9187

> <PUBCHEM_CONFORMER_RMSD>
0.4

> <PUBCHEM_CONFORMER_DIVERSEORDER>
1

> <PUBCHEM_MMFF94_PARTIAL_CHARGES>
22
1 -0.08
10 -0.15
11 -0.15
12 -0.15
13 -0.15
14 -0.15
15 -0.11
16 -0.15
17 -0.15
18 0.15
19 0.15
20 0.15
21 0.15
22 0.15
23 0.15
24 0.15
25 0.15
26 0.15
27 0.15
7 -0.15
8 -0.15
9 0.04

> <PUBCHEM_EFFECTIVE_ROTOR_COUNT>
0

> <PUBCHEM_PHARMACOPHORE_FEATURES>
4
5 1 4 9 12 15 rings
6 2 3 4 9 10 11 rings
6 2 3 5 6 7 8 rings
6 5 6 13 14 16 17 rings

> <PUBCHEM_HEAVY_ATOM_COUNT>
17

> <PUBCHEM_ATOM_DEF_STEREO_COUNT>
0

> <PUBCHEM_ATOM_UDEF_STEREO_COUNT>
0

> <PUBCHEM_BOND_DEF_STEREO_COUNT>
0

> <PUBCHEM_BOND_UDEF_STEREO_COUNT>
0

> <PUBCHEM_ISOTOPIC_ATOM_COUNT>
0

> <PUBCHEM_COMPONENT_COUNT>
1

> <PUBCHEM_CACTVS_TAUTO_COUNT>
1

> <PUBCHEM_CONFORMER_ID>
000023E300000001

> <PUBCHEM_MMFF94_ENERGY>
49.7708

> <PUBCHEM_FEATURE_SELFOVERLAP>
20.405

> <PUBCHEM_SHAPE_FINGERPRINT>
10608611 8 18409733988681144272
10616163 171 18409165536584615974
10618630 7 18411699867925942917
10967382 1 18338516322409903206
11132069 177 18410578396162096016
11471102 20 18411422786690194126
11806522 49 18341050735498533886
12032990 46 18410571768953627146
13140716 1 18264776630611874600
13221675 6 18409731750660064335
13288520 33 18408601491725380774
13296908 3 18410012152079560806
138480 1 15096207655003223565
14115302 16 17774713178183442447
14790565 3 17546721552325873617
15196674 1 18410856568240332132
15442244 35 18267586999480742442
15536298 74 18335421257687096560
16945 1 18338516339621648261
17492 89 18339643442288892498
17804303 29 18335136496791547985
1813 80 17561361772886770861
18186145 218 17632303354080128215
18522853 276 18409167709795460417
19141452 34 18261108552769392423
200 152 18113624469513222471
20261772 1 17967535623099589887
20281475 54 18410290311236095352
20510252 161 18261109733400115481
20645477 70 18408605867944056447
21029758 11 18335145284716758745
21267235 1 18411128147665445638
21501502 16 18411414042279418500
221490 88 18269830913354592723
23402539 116 18410581668959032023
23463225 33 18411135822729519884
23557571 272 18187918525799342332
23559900 14 18409173220676507016
2748010 2 18409454699520800172
2871803 45 18342462538372231911
3312278 4 18409729586038771249
335352 9 18194682794015490141
34934 24 18410863144136027107
4214541 1 18410574032459550816
474 4 17274248436820949188
4921388 177 16128366031203154691
5104073 3 18409167731344105328
69090 78 18335424581849495319
7364860 26 18264208006891104152
77779 3 18410291423737964142
83771 10 18409729534683611043
8809292 202 18343579616690646331
9709674 26 18336541715654571726

> <PUBCHEM_SHAPE_MULTIPOLES>
353.7
8.48
2.2
0.62
1.52
0.27
0
-2.61
0
-0.75
0
-0.02
0
0

> <PUBCHEM_SHAPE_SELFOVERLAP>
801.418

> <PUBCHEM_SHAPE_VOLUME>
184.7

> <PUBCHEM_COORDINATE_TYPE>
2
5
10

$$$$

