442017
  -OEChem-07051212563D

 53 55  0     1  0  0  0  0  0999 V2000
   -2.6612   -2.0622   -1.5422 O   0  0  0  0  0  0  0  0  0  0  0  0
   -2.1439    2.9092   -0.5991 O   0  0  0  0  0  0  0  0  0  0  0  0
   -3.9217   -2.2237    0.9468 O   0  0  0  0  0  0  0  0  0  0  0  0
    2.4435    1.3118   -0.2748 C   0  0  1  0  0  0  0  0  0  0  0  0
    0.0503    0.3248   -0.4727 C   0  0  1  0  0  0  0  0  0  0  0  0
   -0.4968    1.4444    0.4735 C   0  0  2  0  0  0  0  0  0  0  0  0
    1.5391    0.0864   -0.2102 C   0  0  0  0  0  0  0  0  0  0  0  0
    1.8901    2.4509    0.5973 C   0  0  0  0  0  0  0  0  0  0  0  0
    0.4061    2.7135    0.3481 C   0  0  0  0  0  0  0  0  0  0  0  0
    3.7714    0.7931    0.3106 C   0  0  0  0  0  0  0  0  0  0  0  0
    2.2672   -1.0205    0.0431 C   0  0  0  0  0  0  0  0  0  0  0  0
    3.7369   -0.7151    0.1245 C   0  0  0  0  0  0  0  0  0  0  0  0
   -0.8081   -0.9592   -0.5303 C   0  0  0  0  0  0  0  0  0  0  0  0
    2.6549    1.7687   -1.7289 C   0  0  0  0  0  0  0  0  0  0  0  0
   -0.5240    0.9971    1.9529 C   0  0  0  0  0  0  0  0  0  0  0  0
   -1.9161    1.8802    0.0369 C   0  0  0  0  0  0  0  0  0  0  0  0
    1.8626   -2.4449    0.2131 C   0  0  0  0  0  0  0  0  0  0  0  0
   -2.2251   -0.7740   -1.0932 C   0  0  2  0  0  0  0  0  0  0  0  0
   -3.2044   -0.1999   -0.0905 C   0  0  0  0  0  0  0  0  0  0  0  0
   -3.0685    1.0341    0.4174 C   0  0  0  0  0  0  0  0  0  0  0  0
    2.5127   -3.3195   -0.8584 C   0  0  0  0  0  0  0  0  0  0  0  0
    2.2170   -2.9542    1.6109 C   0  0  0  0  0  0  0  0  0  0  0  0
   -4.3821   -1.0407    0.3250 C   0  0  0  0  0  0  0  0  0  0  0  0
   -0.0002    0.7302   -1.4948 H   0  0  0  0  0  0  0  0  0  0  0  0
    2.4575    3.3729    0.4174 H   0  0  0  0  0  0  0  0  0  0  0  0
    2.0259    2.2247    1.6622 H   0  0  0  0  0  0  0  0  0  0  0  0
    0.0600    3.4880    1.0457 H   0  0  0  0  0  0  0  0  0  0  0  0
    0.3009    3.1506   -0.6536 H   0  0  0  0  0  0  0  0  0  0  0  0
    3.8495    1.0131    1.3837 H   0  0  0  0  0  0  0  0  0  0  0  0
    4.6539    1.2374   -0.1633 H   0  0  0  0  0  0  0  0  0  0  0  0
    4.2437   -1.2011    0.9619 H   0  0  0  0  0  0  0  0  0  0  0  0
    4.2407   -1.0034   -0.8047 H   0  0  0  0  0  0  0  0  0  0  0  0
   -0.3176   -1.6585   -1.2192 H   0  0  0  0  0  0  0  0  0  0  0  0
   -0.8701   -1.4432    0.4512 H   0  0  0  0  0  0  0  0  0  0  0  0
    3.0510    0.9574   -2.3510 H   0  0  0  0  0  0  0  0  0  0  0  0
    1.7261    2.1119   -2.1954 H   0  0  0  0  0  0  0  0  0  0  0  0
    3.3698    2.5981   -1.7755 H   0  0  0  0  0  0  0  0  0  0  0  0
   -1.1683    0.1275    2.1153 H   0  0  0  0  0  0  0  0  0  0  0  0
    0.4687    0.7246    2.3241 H   0  0  0  0  0  0  0  0  0  0  0  0
   -0.9083    1.7999    2.5933 H   0  0  0  0  0  0  0  0  0  0  0  0
    0.7944   -2.5995    0.1281 H   0  0  0  0  0  0  0  0  0  0  0  0
   -2.1919   -0.1377   -1.9863 H   0  0  0  0  0  0  0  0  0  0  0  0
   -3.7965    1.4737    1.0898 H   0  0  0  0  0  0  0  0  0  0  0  0
    3.6028   -3.3607   -0.7570 H   0  0  0  0  0  0  0  0  0  0  0  0
    2.2759   -2.9540   -1.8639 H   0  0  0  0  0  0  0  0  0  0  0  0
    2.1422   -4.3484   -0.7862 H   0  0  0  0  0  0  0  0  0  0  0  0
    1.8085   -2.2971    2.3870 H   0  0  0  0  0  0  0  0  0  0  0  0
    3.2973   -3.0392    1.7665 H   0  0  0  0  0  0  0  0  0  0  0  0
    1.7929   -3.9527    1.7685 H   0  0  0  0  0  0  0  0  0  0  0  0
   -4.9936   -1.3026   -0.5449 H   0  0  0  0  0  0  0  0  0  0  0  0
   -5.0285   -0.5148    1.0363 H   0  0  0  0  0  0  0  0  0  0  0  0
   -3.4345   -1.9263   -2.1162 H   0  0  0  0  0  0  0  0  0  0  0  0
   -4.7054   -2.7468    1.1867 H   0  0  0  0  0  0  0  0  0  0  0  0
  1 18  1  0  0  0  0
  1 52  1  0  0  0  0
  2 16  2  0  0  0  0
  3 23  1  0  0  0  0
  3 53  1  0  0  0  0
  4  7  1  0  0  0  0
  4  8  1  0  0  0  0
  4 10  1  0  0  0  0
  4 14  1  0  0  0  0
  5  6  1  0  0  0  0
  5  7  1  0  0  0  0
  5 13  1  0  0  0  0
  5 24  1  0  0  0  0
  6  9  1  0  0  0  0
  6 15  1  0  0  0  0
  6 16  1  0  0  0  0
  7 11  2  0  0  0  0
  8  9  1  0  0  0  0
  8 25  1  0  0  0  0
  8 26  1  0  0  0  0
  9 27  1  0  0  0  0
  9 28  1  0  0  0  0
 10 12  1  0  0  0  0
 10 29  1  0  0  0  0
 10 30  1  0  0  0  0
 11 12  1  0  0  0  0
 11 17  1  0  0  0  0
 12 31  1  0  0  0  0
 12 32  1  0  0  0  0
 13 18  1  0  0  0  0
 13 33  1  0  0  0  0
 13 34  1  0  0  0  0
 14 35  1  0  0  0  0
 14 36  1  0  0  0  0
 14 37  1  0  0  0  0
 15 38  1  0  0  0  0
 15 39  1  0  0  0  0
 15 40  1  0  0  0  0
 16 20  1  0  0  0  0
 17 21  1  0  0  0  0
 17 22  1  0  0  0  0
 17 41  1  0  0  0  0
 18 19  1  0  0  0  0
 18 42  1  0  0  0  0
 19 20  2  0  0  0  0
 19 23  1  0  0  0  0
 20 43  1  0  0  0  0
 21 44  1  0  0  0  0
 21 45  1  0  0  0  0
 21 46  1  0  0  0  0
 22 47  1  0  0  0  0
 22 48  1  0  0  0  0
 22 49  1  0  0  0  0
 23 50  1  0  0  0  0
 23 51  1  0  0  0  0
M  END
> <PUBCHEM_COMPOUND_CID>
442017

> <PUBCHEM_CONFORMER_RMSD>
0.6

> <PUBCHEM_CONFORMER_DIVERSEORDER>
5
6
4
3
1
8
7
2

> <PUBCHEM_MMFF94_PARTIAL_CHARGES>
18
1 -0.68
11 -0.28
12 0.14
16 0.49
17 0.14
18 0.42
19 -0.28
2 -0.57
20 -0.14
23 0.42
3 -0.68
4 0.14
43 0.15
5 0.14
52 0.4
53 0.4
6 0.06
7 -0.28

> <PUBCHEM_EFFECTIVE_ROTOR_COUNT>
3.2

> <PUBCHEM_PHARMACOPHORE_FEATURES>
9
1 1 acceptor
1 1 donor
1 2 acceptor
1 3 acceptor
1 3 donor
3 17 21 22 hydrophobe
5 4 7 10 11 12 rings
6 4 5 6 7 8 9 rings
7 5 6 13 16 18 19 20 rings

> <PUBCHEM_HEAVY_ATOM_COUNT>
23

> <PUBCHEM_ATOM_DEF_STEREO_COUNT>
4

> <PUBCHEM_ATOM_UDEF_STEREO_COUNT>
0

> <PUBCHEM_BOND_DEF_STEREO_COUNT>
0

> <PUBCHEM_BOND_UDEF_STEREO_COUNT>
0

> <PUBCHEM_ISOTOPIC_ATOM_COUNT>
0

> <PUBCHEM_COMPONENT_COUNT>
1

> <PUBCHEM_CACTVS_TAUTO_COUNT>
1

> <PUBCHEM_CONFORMER_ID>
0006BEA100000005

> <PUBCHEM_MMFF94_ENERGY>
74.0463

> <PUBCHEM_FEATURE_SELFOVERLAP>
45.759

> <PUBCHEM_SHAPE_FINGERPRINT>
10616163 171 18409445903601922663
10863032 1 18267026239644423168
10967382 1 18336549313350971756
11578080 2 17896343405027211873
12553582 1 18335430032057635471
13140716 1 18048603611863374290
14178342 30 18336274521734264376
14223421 5 18409729598886665382
14787075 74 17897738561192719368
14790565 3 17978779117574019117
15375462 189 18334014952113386395
16728300 4 15109438026769382211
16945 1 18335992964730993221
17492 89 18338516468692804403
19591789 44 17977381633830797831
20291156 8 18265332983237202466
20559304 39 18408885139839459644
20691752 17 17977681817732340669
20905425 154 18335697299393047556
21267235 1 18335975420016247486
21421861 104 18341895224721547314
221490 88 18339071687789021250
2255824 54 18266458698492249436
23184049 29 18267022949741354170
2334 1 17616259078464835364
23419403 2 16243866549235144372
23559900 14 18338521966134067322
238 59 18129930192403511192
2748010 2 18117280469665263420
2818148 4 17755823688703760942
34934 24 18266185122181773232
392239 28 17605014549779540250
463206 1 18338234864687291771
5104073 3 18408325509943400624
7097593 13 18268148841047855651
7364860 26 18334858355104981110
81228 2 17472719386169108910
9709674 26 18339920514902447491

> <PUBCHEM_SHAPE_MULTIPOLES>
455.72
6.7
3.72
1.31
3.21
1.03
0.1
2.67
0.05
-1.27
0.12
-0.12
0.22
-0.51

> <PUBCHEM_SHAPE_SELFOVERLAP>
962.106

> <PUBCHEM_SHAPE_VOLUME>
255.6

> <PUBCHEM_COORDINATE_TYPE>
2
5
10

$$$$

