440992
  -OEChem-07051212513D

 28 28  0     1  0  0  0  0  0999 V2000
    3.4568    0.0959   -0.0052 P   0  0  0  0  0  0  0  0  0  0  0  0
   -0.6847    1.1147   -0.1053 O   0  0  0  0  0  0  0  0  0  0  0  0
   -1.3237   -2.4757    0.3811 O   0  0  0  0  0  0  0  0  0  0  0  0
   -3.8907   -1.4516   -0.4654 O   0  0  0  0  0  0  0  0  0  0  0  0
    1.8951    0.3032    0.3707 O   0  0  0  0  0  0  0  0  0  0  0  0
   -2.1091    2.9730   -0.0795 O   0  0  0  0  0  0  0  0  0  0  0  0
    3.4521   -0.0080   -1.6190 O   0  0  0  0  0  0  0  0  0  0  0  0
    3.7436   -1.4246    0.4645 O   0  0  0  0  0  0  0  0  0  0  0  0
    4.3881    1.1230    0.5690 O   0  0  0  0  0  0  0  0  0  0  0  0
   -1.5206   -1.1717   -0.1592 C   0  0  2  0  0  0  0  0  0  0  0  0
   -0.4365   -0.2164    0.3568 C   0  0  1  0  0  0  0  0  0  0  0  0
   -2.9156   -0.6695    0.2184 C   0  0  1  0  0  0  0  0  0  0  0  0
   -3.0790    0.7964   -0.1665 C   0  0  0  0  0  0  0  0  0  0  0  0
   -1.9256    1.6349    0.3712 C   0  0  1  0  0  0  0  0  0  0  0  0
    0.9499   -0.6236   -0.1317 C   0  0  0  0  0  0  0  0  0  0  0  0
   -1.4490   -1.2582   -1.2512 H   0  0  0  0  0  0  0  0  0  0  0  0
   -0.4193   -0.2056    1.4551 H   0  0  0  0  0  0  0  0  0  0  0  0
   -3.0901   -0.8053    1.2919 H   0  0  0  0  0  0  0  0  0  0  0  0
   -3.1247    0.8789   -1.2614 H   0  0  0  0  0  0  0  0  0  0  0  0
   -4.0423    1.1827    0.1882 H   0  0  0  0  0  0  0  0  0  0  0  0
   -1.9174    1.6532    1.4668 H   0  0  0  0  0  0  0  0  0  0  0  0
    0.9851   -0.5993   -1.2260 H   0  0  0  0  0  0  0  0  0  0  0  0
    1.2024   -1.6307    0.2130 H   0  0  0  0  0  0  0  0  0  0  0  0
   -2.0411   -3.0406    0.0464 H   0  0  0  0  0  0  0  0  0  0  0  0
   -3.7508   -1.3418   -1.4214 H   0  0  0  0  0  0  0  0  0  0  0  0
   -2.4613    2.9502   -0.9848 H   0  0  0  0  0  0  0  0  0  0  0  0
    4.3087   -0.0681   -2.0931 H   0  0  0  0  0  0  0  0  0  0  0  0
    4.6616   -1.7681    0.4257 H   0  0  0  0  0  0  0  0  0  0  0  0
  1  5  1  0  0  0  0
  1  7  1  0  0  0  0
  1  8  1  0  0  0  0
  1  9  2  0  0  0  0
  2 11  1  0  0  0  0
  2 14  1  0  0  0  0
  3 10  1  0  0  0  0
  3 24  1  0  0  0  0
  4 12  1  0  0  0  0
  4 25  1  0  0  0  0
  5 15  1  0  0  0  0
  6 14  1  0  0  0  0
  6 26  1  0  0  0  0
  7 27  1  0  0  0  0
  8 28  1  0  0  0  0
 10 11  1  0  0  0  0
 10 12  1  0  0  0  0
 10 16  1  0  0  0  0
 11 15  1  0  0  0  0
 11 17  1  0  0  0  0
 12 13  1  0  0  0  0
 12 18  1  0  0  0  0
 13 14  1  0  0  0  0
 13 19  1  0  0  0  0
 13 20  1  0  0  0  0
 14 21  1  0  0  0  0
 15 22  1  0  0  0  0
 15 23  1  0  0  0  0
M  END
> <PUBCHEM_COMPOUND_CID>
440992

> <PUBCHEM_CONFORMER_RMSD>
0.6

> <PUBCHEM_CONFORMER_DIVERSEORDER>
2
52
46
47
54
25
40
41
8
50
36
42
5
24
51
1
53
34
18
9
23
37
39
20
45
14
49
26
19
6
43
55
22
48
38
44
7
33
13
11
21
4
15
27
31
35
16
17
32
10
28
12
3
30
29

> <PUBCHEM_MMFF94_PARTIAL_CHARGES>
19
1 1.51
10 0.28
11 0.28
12 0.28
14 0.56
15 0.28
2 -0.56
24 0.4
25 0.4
26 0.4
27 0.5
28 0.5
3 -0.68
4 -0.68
5 -0.55
6 -0.68
7 -0.77
8 -0.77
9 -0.7

> <PUBCHEM_EFFECTIVE_ROTOR_COUNT>
4.2

> <PUBCHEM_PHARMACOPHORE_FEATURES>
12
1 2 acceptor
1 3 acceptor
1 3 donor
1 4 acceptor
1 4 donor
1 6 acceptor
1 6 donor
1 7 acceptor
1 8 acceptor
1 9 acceptor
4 1 7 8 9 anion
6 2 10 11 12 13 14 rings

> <PUBCHEM_HEAVY_ATOM_COUNT>
15

> <PUBCHEM_ATOM_DEF_STEREO_COUNT>
3

> <PUBCHEM_ATOM_UDEF_STEREO_COUNT>
1

> <PUBCHEM_BOND_DEF_STEREO_COUNT>
0

> <PUBCHEM_BOND_UDEF_STEREO_COUNT>
0

> <PUBCHEM_ISOTOPIC_ATOM_COUNT>
0

> <PUBCHEM_COMPONENT_COUNT>
1

> <PUBCHEM_CACTVS_TAUTO_COUNT>
1

> <PUBCHEM_CONFORMER_ID>
0006BAA000000002

> <PUBCHEM_MMFF94_ENERGY>
-4.4796

> <PUBCHEM_FEATURE_SELFOVERLAP>
60.975

> <PUBCHEM_SHAPE_FINGERPRINT>
10608611 8 18334860545422380944
11132069 177 18334009493215273401
12173636 292 18339645649806390317
12932764 1 18336815464295840026
13024252 1 11240000053618545835
14144814 61 18412262856803121338
14325111 11 18410294752480049952
15442244 35 18268996560713594082
15669948 3 18410576154352977038
16945 1 18411976940793335691
1741750 31 18118120509645230929
18186145 218 18041272279220617736
190213 19 17632578240703542466
1986462 14 18334008427978747716
20112054 60 18409451413981627437
20279233 1 18114457886416086758
20510252 161 18334294279511484417
20645477 56 18410006680212377320
20645477 70 16950552316703755758
20871998 184 18259983756315593807
21501502 16 18339643472263343138
21524375 3 17910953865987216657
2306618 200 18114740542292409673
23402539 116 18335148553197375319
23557571 272 18260260833562505532
23559900 14 18334580165909977706
23598291 2 17916861443479442886
3248919 1 17417804037686102034
43471831 8 18343023341116805843
6333449 129 18408042931144120321
81228 2 18338505374738817009
9709674 26 18408037429434023718

> <PUBCHEM_SHAPE_MULTIPOLES>
265.59
7.52
2.2
0.8
6.59
0.62
-0.2
0
-0.37
-1.94
0.15
0.54
-0.02
-0.03

> <PUBCHEM_SHAPE_SELFOVERLAP>
513.285

> <PUBCHEM_SHAPE_VOLUME>
162.1

> <PUBCHEM_COORDINATE_TYPE>
2
5
10

$$$$

