56927995
  -OEChem-07051213153D

 77 79  0     1  0  0  0  0  0999 V2000
    3.0185    1.3449    0.3663 O   0  0  0  0  0  0  0  0  0  0  0  0
    3.0080   -1.3727    0.7001 O   0  0  0  0  0  0  0  0  0  0  0  0
    1.2411    3.0449    1.3135 O   0  0  0  0  0  0  0  0  0  0  0  0
   -2.7681    1.6020    0.5018 O   0  0  0  0  0  0  0  0  0  0  0  0
   -2.8317   -1.6294    0.4191 O   0  0  0  0  0  0  0  0  0  0  0  0
    4.4328    1.0107   -1.4295 O   0  0  0  0  0  0  0  0  0  0  0  0
    3.0204   -0.9220    2.9658 O   0  0  0  0  0  0  0  0  0  0  0  0
   -4.5028    3.0322    1.0330 O   0  0  0  0  0  0  0  0  0  0  0  0
   -4.0772   -3.5676    0.5897 O   0  0  0  0  0  0  0  0  0  0  0  0
    0.7516    1.5471   -0.6338 C   0  0  2  0  0  0  0  0  0  0  0  0
   -0.5108    0.8324   -1.2992 C   0  0  2  0  0  0  0  0  0  0  0  0
   -0.2823   -1.7025   -2.1981 C   0  0  2  0  0  0  0  0  0  0  0  0
    0.9044   -2.2497   -1.3690 C   0  0  0  0  0  0  0  0  0  0  0  0
   -0.2430   -0.1520   -2.4815 C   0  0  0  0  0  0  0  0  0  0  0  0
    1.9845    0.6020   -0.3121 C   0  0  2  0  0  0  0  0  0  0  0  0
    0.2335    2.2591    0.6785 C   0  0  2  0  0  0  0  0  0  0  0  0
    0.7354   -1.6244    0.0300 C   0  0  0  0  0  0  0  0  0  0  0  0
    1.7751   -0.6617    0.5593 C   0  0  1  0  0  0  0  0  0  0  0  0
   -1.6350   -2.1502   -1.5906 C   0  0  0  0  0  0  0  0  0  0  0  0
   -1.5947    1.8940   -1.5675 C   0  0  0  0  0  0  0  0  0  0  0  0
   -0.9578    3.2067    0.4509 C   0  0  0  0  0  0  0  0  0  0  0  0
    1.3030    2.6338   -1.6135 C   0  0  0  0  0  0  0  0  0  0  0  0
   -2.1125    2.5682   -0.3163 C   0  0  2  0  0  0  0  0  0  0  0  0
   -1.6701   -2.3247   -0.0525 C   0  0  1  0  0  0  0  0  0  0  0  0
   -0.4385   -1.8179    0.6919 C   0  0  0  0  0  0  0  0  0  0  0  0
    0.8454   -3.8060   -1.2292 C   0  0  0  0  0  0  0  0  0  0  0  0
    2.2279   -2.0500   -2.1559 C   0  0  0  0  0  0  0  0  0  0  0  0
   -0.6743   -1.4689    2.1400 C   0  0  0  0  0  0  0  0  0  0  0  0
   -2.0512    2.2856   -2.7692 C   0  0  0  0  0  0  0  0  0  0  0  0
    4.1850    1.4633   -0.3200 C   0  0  0  0  0  0  0  0  0  0  0  0
    3.5159   -1.4217    1.9648 C   0  0  0  0  0  0  0  0  0  0  0  0
   -3.7777    2.0800    1.2876 C   0  0  0  0  0  0  0  0  0  0  0  0
   -3.9829   -2.3580    0.4310 C   0  0  0  0  0  0  0  0  0  0  0  0
    5.1589    2.2528    0.5011 C   0  0  0  0  0  0  0  0  0  0  0  0
    4.8009   -2.1930    1.9601 C   0  0  0  0  0  0  0  0  0  0  0  0
   -3.8789    1.2585    2.5369 C   0  0  0  0  0  0  0  0  0  0  0  0
   -5.1527   -1.4461    0.2163 C   0  0  0  0  0  0  0  0  0  0  0  0
   -0.9727    0.2360   -0.5174 H   0  0  0  0  0  0  0  0  0  0  0  0
   -0.2297   -2.1665   -3.1950 H   0  0  0  0  0  0  0  0  0  0  0  0
   -1.0156   -0.0241   -3.2472 H   0  0  0  0  0  0  0  0  0  0  0  0
    0.6848    0.1205   -2.9911 H   0  0  0  0  0  0  0  0  0  0  0  0
    2.3661    0.2885   -1.2747 H   0  0  0  0  0  0  0  0  0  0  0  0
   -0.0675    1.4898    1.3976 H   0  0  0  0  0  0  0  0  0  0  0  0
    1.4594   -0.2682    1.5282 H   0  0  0  0  0  0  0  0  0  0  0  0
   -1.8894   -3.1268   -2.0269 H   0  0  0  0  0  0  0  0  0  0  0  0
   -2.4352   -1.4811   -1.9330 H   0  0  0  0  0  0  0  0  0  0  0  0
   -0.6138    4.1073   -0.0745 H   0  0  0  0  0  0  0  0  0  0  0  0
   -1.3104    3.5611    1.4287 H   0  0  0  0  0  0  0  0  0  0  0  0
    1.6941    2.1756   -2.5283 H   0  0  0  0  0  0  0  0  0  0  0  0
    0.5475    3.3627   -1.9180 H   0  0  0  0  0  0  0  0  0  0  0  0
    2.1167    3.2112   -1.1624 H   0  0  0  0  0  0  0  0  0  0  0  0
   -2.8165    3.3639   -0.5924 H   0  0  0  0  0  0  0  0  0  0  0  0
   -1.7659   -3.3890    0.1954 H   0  0  0  0  0  0  0  0  0  0  0  0
    2.2638   -2.7314   -3.0170 H   0  0  0  0  0  0  0  0  0  0  0  0
    3.1088   -2.2789   -1.5494 H   0  0  0  0  0  0  0  0  0  0  0  0
    2.3589   -1.0650   -2.5976 H   0  0  0  0  0  0  0  0  0  0  0  0
    0.7989   -4.2852   -2.2148 H   0  0  0  0  0  0  0  0  0  0  0  0
   -0.0024   -4.1894   -0.6611 H   0  0  0  0  0  0  0  0  0  0  0  0
    1.7447   -4.1781   -0.7215 H   0  0  0  0  0  0  0  0  0  0  0  0
    0.8768    3.3730    2.1532 H   0  0  0  0  0  0  0  0  0  0  0  0
   -1.1561   -0.4918    2.2317 H   0  0  0  0  0  0  0  0  0  0  0  0
    0.2455   -1.4702    2.7303 H   0  0  0  0  0  0  0  0  0  0  0  0
   -1.3238   -2.2189    2.6057 H   0  0  0  0  0  0  0  0  0  0  0  0
   -2.8077    3.0595   -2.8555 H   0  0  0  0  0  0  0  0  0  0  0  0
   -1.6780    1.8826   -3.7020 H   0  0  0  0  0  0  0  0  0  0  0  0
    5.3625    1.7294    1.4387 H   0  0  0  0  0  0  0  0  0  0  0  0
    6.0974    2.3571   -0.0508 H   0  0  0  0  0  0  0  0  0  0  0  0
    4.7569    3.2504    0.6954 H   0  0  0  0  0  0  0  0  0  0  0  0
    5.5312   -1.6902    1.3212 H   0  0  0  0  0  0  0  0  0  0  0  0
    5.2000   -2.2393    2.9773 H   0  0  0  0  0  0  0  0  0  0  0  0
    4.6197   -3.2125    1.6103 H   0  0  0  0  0  0  0  0  0  0  0  0
   -3.6891    0.2050    2.3236 H   0  0  0  0  0  0  0  0  0  0  0  0
   -4.8912    1.3410    2.9423 H   0  0  0  0  0  0  0  0  0  0  0  0
   -3.1577    1.6246    3.2713 H   0  0  0  0  0  0  0  0  0  0  0  0
   -5.4834   -1.0378    1.1732 H   0  0  0  0  0  0  0  0  0  0  0  0
   -5.9686   -2.0121   -0.2421 H   0  0  0  0  0  0  0  0  0  0  0  0
   -4.8861   -0.6368   -0.4695 H   0  0  0  0  0  0  0  0  0  0  0  0
  1 15  1  0  0  0  0
  1 30  1  0  0  0  0
  2 18  1  0  0  0  0
  2 31  1  0  0  0  0
  3 16  1  0  0  0  0
  3 60  1  0  0  0  0
  4 23  1  0  0  0  0
  4 32  1  0  0  0  0
  5 24  1  0  0  0  0
  5 33  1  0  0  0  0
  6 30  2  0  0  0  0
  7 31  2  0  0  0  0
  8 32  2  0  0  0  0
  9 33  2  0  0  0  0
 10 11  1  0  0  0  0
 10 15  1  0  0  0  0
 10 16  1  0  0  0  0
 10 22  1  0  0  0  0
 11 14  1  0  0  0  0
 11 20  1  0  0  0  0
 11 38  1  0  0  0  0
 12 13  1  0  0  0  0
 12 14  1  0  0  0  0
 12 19  1  0  0  0  0
 12 39  1  0  0  0  0
 13 17  1  0  0  0  0
 13 26  1  0  0  0  0
 13 27  1  0  0  0  0
 14 40  1  0  0  0  0
 14 41  1  0  0  0  0
 15 18  1  0  0  0  0
 15 42  1  0  0  0  0
 16 21  1  0  0  0  0
 16 43  1  0  0  0  0
 17 18  1  0  0  0  0
 17 25  2  0  0  0  0
 18 44  1  0  0  0  0
 19 24  1  0  0  0  0
 19 45  1  0  0  0  0
 19 46  1  0  0  0  0
 20 23  1  0  0  0  0
 20 29  2  0  0  0  0
 21 23  1  0  0  0  0
 21 47  1  0  0  0  0
 21 48  1  0  0  0  0
 22 49  1  0  0  0  0
 22 50  1  0  0  0  0
 22 51  1  0  0  0  0
 23 52  1  0  0  0  0
 24 25  1  0  0  0  0
 24 53  1  0  0  0  0
 25 28  1  0  0  0  0
 26 57  1  0  0  0  0
 26 58  1  0  0  0  0
 26 59  1  0  0  0  0
 27 54  1  0  0  0  0
 27 55  1  0  0  0  0
 27 56  1  0  0  0  0
 28 61  1  0  0  0  0
 28 62  1  0  0  0  0
 28 63  1  0  0  0  0
 29 64  1  0  0  0  0
 29 65  1  0  0  0  0
 30 34  1  0  0  0  0
 31 35  1  0  0  0  0
 32 36  1  0  0  0  0
 33 37  1  0  0  0  0
 34 66  1  0  0  0  0
 34 67  1  0  0  0  0
 34 68  1  0  0  0  0
 35 69  1  0  0  0  0
 35 70  1  0  0  0  0
 35 71  1  0  0  0  0
 36 72  1  0  0  0  0
 36 73  1  0  0  0  0
 36 74  1  0  0  0  0
 37 75  1  0  0  0  0
 37 76  1  0  0  0  0
 37 77  1  0  0  0  0
M  END
> <PUBCHEM_COMPOUND_CID>
56927995

> <PUBCHEM_CONFORMER_RMSD>
1

> <PUBCHEM_CONFORMER_DIVERSEORDER>
1

> <PUBCHEM_MMFF94_PARTIAL_CHARGES>
32
1 -0.43
11 0.14
13 0.14
15 0.28
16 0.28
17 -0.28
18 0.42
2 -0.43
20 -0.28
23 0.42
24 0.42
25 -0.28
28 0.14
29 -0.3
3 -0.68
30 0.66
31 0.66
32 0.66
33 0.66
34 0.06
35 0.06
36 0.06
37 0.06
4 -0.43
5 -0.43
6 -0.57
60 0.4
64 0.15
65 0.15
7 -0.57
8 -0.57
9 -0.57

> <PUBCHEM_EFFECTIVE_ROTOR_COUNT>
9.8

> <PUBCHEM_PHARMACOPHORE_FEATURES>
9
1 3 acceptor
1 3 donor
1 6 acceptor
1 7 acceptor
1 8 acceptor
1 9 acceptor
3 13 26 27 hydrophobe
6 10 11 16 20 21 23 rings
6 12 13 17 19 24 25 rings

> <PUBCHEM_HEAVY_ATOM_COUNT>
37

> <PUBCHEM_ATOM_DEF_STEREO_COUNT>
8

> <PUBCHEM_ATOM_UDEF_STEREO_COUNT>
0

> <PUBCHEM_BOND_DEF_STEREO_COUNT>
0

> <PUBCHEM_BOND_UDEF_STEREO_COUNT>
0

> <PUBCHEM_ISOTOPIC_ATOM_COUNT>
0

> <PUBCHEM_COMPONENT_COUNT>
1

> <PUBCHEM_CACTVS_TAUTO_COUNT>
1

> <PUBCHEM_CONFORMER_ID>
0364A6FB00000001

> <PUBCHEM_MMFF94_ENERGY>
138.9592

> <PUBCHEM_FEATURE_SELFOVERLAP>
45.669

> <PUBCHEM_SHAPE_FINGERPRINT>
10006869 2 18337402547243210085
11513181 2 17967800674902199967
11578080 2 17751611416655271871
12156800 1 18114452418389728704
12422481 6 18338236080183914986
12633257 1 18268430307571522257
12788726 201 18336548213776033880
131258 38 17112706886682032503
13140716 1 18339653338198490722
13583140 156 17201647881174644632
14955137 171 17977950412966904400
19319366 153 17769382621890818590
20764821 26 18264194971469863983
20905425 154 18343306924710877414
21033648 29 16805318881593181890
22121540 332 16878485947530657889
23419403 2 17983327900383054407
2818148 4 18273500087294800570
35225 105 17967536757224040049
469060 322 17702952413751965524
484985 159 17270917104845136786
6287921 2 17608369373913515461

> <PUBCHEM_SHAPE_MULTIPOLES>
708.62
8.1
4.77
2.62
0.88
0.13
0.09
-0.46
-4.63
-1.86
0.28
0.31
0.26
-0.85

> <PUBCHEM_SHAPE_SELFOVERLAP>
1472.099

> <PUBCHEM_SHAPE_VOLUME>
395.4

> <PUBCHEM_COORDINATE_TYPE>
2
5
10

$$$$

