11767
  -OEChem-07051213143D

 26 28  0     0  0  0  0  0  0999 V2000
   -1.0972    2.8530    0.0007 O   0  5  0  0  0  0  0  0  0  0  0  0
    1.0981    2.8527    0.0004 O   0  0  0  0  0  0  0  0  0  0  0  0
    0.0004    2.2587    0.0000 N   0  3  0  0  0  0  0  0  0  0  0  0
   -1.2251    0.1372   -0.0004 C   0  0  0  0  0  0  0  0  0  0  0  0
    1.2251    0.1371   -0.0002 C   0  0  0  0  0  0  0  0  0  0  0  0
   -1.2252   -1.2749    0.0001 C   0  0  0  0  0  0  0  0  0  0  0  0
    1.2250   -1.2750    0.0000 C   0  0  0  0  0  0  0  0  0  0  0  0
    0.0000    0.8248   -0.0005 C   0  0  0  0  0  0  0  0  0  0  0  0
   -0.0001   -1.9626    0.0001 C   0  0  0  0  0  0  0  0  0  0  0  0
   -2.4506    0.8241   -0.0005 C   0  0  0  0  0  0  0  0  0  0  0  0
    2.4505    0.8240   -0.0003 C   0  0  0  0  0  0  0  0  0  0  0  0
   -2.4507   -1.9617    0.0004 C   0  0  0  0  0  0  0  0  0  0  0  0
    2.4504   -1.9620    0.0001 C   0  0  0  0  0  0  0  0  0  0  0  0
   -3.6588    0.1269   -0.0003 C   0  0  0  0  0  0  0  0  0  0  0  0
    3.6586    0.1265    0.0000 C   0  0  0  0  0  0  0  0  0  0  0  0
   -3.6589   -1.2643    0.0003 C   0  0  0  0  0  0  0  0  0  0  0  0
    3.6586   -1.2647    0.0001 C   0  0  0  0  0  0  0  0  0  0  0  0
   -0.0002   -3.0526    0.0004 H   0  0  0  0  0  0  0  0  0  0  0  0
   -2.6966    1.8697   -0.0020 H   0  0  0  0  0  0  0  0  0  0  0  0
    2.6970    1.8694   -0.0011 H   0  0  0  0  0  0  0  0  0  0  0  0
   -2.4745   -3.0496    0.0007 H   0  0  0  0  0  0  0  0  0  0  0  0
    2.4741   -3.0498    0.0002 H   0  0  0  0  0  0  0  0  0  0  0  0
   -4.6030    0.6648   -0.0007 H   0  0  0  0  0  0  0  0  0  0  0  0
    4.6030    0.6643   -0.0002 H   0  0  0  0  0  0  0  0  0  0  0  0
   -4.5991   -1.8081    0.0005 H   0  0  0  0  0  0  0  0  0  0  0  0
    4.5987   -1.8085    0.0002 H   0  0  0  0  0  0  0  0  0  0  0  0
  1  3  1  0  0  0  0
  2  3  2  0  0  0  0
  3  8  1  0  0  0  0
  4  6  1  0  0  0  0
  4  8  2  0  0  0  0
  4 10  1  0  0  0  0
  5  7  1  0  0  0  0
  5  8  1  0  0  0  0
  5 11  2  0  0  0  0
  6  9  2  0  0  0  0
  6 12  1  0  0  0  0
  7  9  1  0  0  0  0
  7 13  2  0  0  0  0
  9 18  1  0  0  0  0
 10 14  2  0  0  0  0
 10 19  1  0  0  0  0
 11 15  1  0  0  0  0
 11 20  1  0  0  0  0
 12 16  2  0  0  0  0
 12 21  1  0  0  0  0
 13 17  1  0  0  0  0
 13 22  1  0  0  0  0
 14 16  1  0  0  0  0
 14 23  1  0  0  0  0
 15 17  2  0  0  0  0
 15 24  1  0  0  0  0
 16 25  1  0  0  0  0
 17 26  1  0  0  0  0
M  CHG  2   1  -1   3   1
M  END
> <PUBCHEM_COMPOUND_CID>
11767

> <PUBCHEM_CONFORMER_RMSD>
0.6

> <PUBCHEM_CONFORMER_DIVERSEORDER>
1

> <PUBCHEM_MMFF94_PARTIAL_CHARGES>
22
1 -0.52
10 -0.15
11 -0.15
12 -0.15
13 -0.15
14 -0.15
15 -0.15
16 -0.15
17 -0.15
18 0.15
19 0.15
2 -0.52
20 0.15
21 0.15
22 0.15
23 0.15
24 0.15
25 0.15
26 0.15
3 0.91
8 0.13
9 -0.15

> <PUBCHEM_EFFECTIVE_ROTOR_COUNT>
1

> <PUBCHEM_PHARMACOPHORE_FEATURES>
6
1 1 acceptor
1 1 anion
1 2 acceptor
6 4 5 6 7 8 9 rings
6 4 6 10 12 14 16 rings
6 5 7 11 13 15 17 rings

> <PUBCHEM_HEAVY_ATOM_COUNT>
17

> <PUBCHEM_ATOM_DEF_STEREO_COUNT>
0

> <PUBCHEM_ATOM_UDEF_STEREO_COUNT>
0

> <PUBCHEM_BOND_DEF_STEREO_COUNT>
0

> <PUBCHEM_BOND_UDEF_STEREO_COUNT>
0

> <PUBCHEM_ISOTOPIC_ATOM_COUNT>
0

> <PUBCHEM_COMPONENT_COUNT>
1

> <PUBCHEM_CACTVS_TAUTO_COUNT>
1

> <PUBCHEM_CONFORMER_ID>
00002DF700000001

> <PUBCHEM_MMFF94_ENERGY>
98.3807

> <PUBCHEM_FEATURE_SELFOVERLAP>
30.579

> <PUBCHEM_SHAPE_FINGERPRINT>
10608611 8 18410578387492955527
10967382 1 18194402195191014918
11132069 177 18408891745367383114
11471102 20 18411142402772606079
11680986 33 18051973623819347579
12032990 46 18410569591400355555
12382932 28 18409448106719640066
12553582 1 18410852161593336942
13132413 78 18408884005794137237
13140716 1 18266458702602223897
13221675 6 18410856559640133858
13583140 156 14129349558133726103
138480 1 14879752311101023109
15196674 1 18410855460128389167
15375462 189 18202001049015853139
15442244 35 18409164415755881051
15536298 74 18261392213499165946
16945 1 18410855464423181063
200 152 18041007211330428671
20510252 161 18190182463132583944
20645477 70 18125169230046964711
21029758 11 18408892823794330541
21029758 27 18342728594606104639
21267235 1 18410846668330717506
21501502 16 18195243549609920442
221490 88 18125154931821410907
2334 1 18266740173268142574
23402539 116 18334586766705415454
23463225 33 18411699885190409462
23557571 272 18115863165460867478
23559900 14 18264495151725487050
2748010 2 18409733958289163262
3071541 12 18194398879471286477
3071541 158 18271808982112625661
335352 9 18194402427156185599
34934 24 18410583880756412938
352729 6 17689722282112533798
427121 178 15724135181140125289
5104073 3 18410575088979496994
537710 114 18341323427198546148
7364860 26 18192431857500916953
7832392 63 18335986372135541823
81228 2 18194951057736062688
8809292 202 18272084989617333763
9709674 26 18263360459519702710

> <PUBCHEM_SHAPE_MULTIPOLES>
333.13
5.87
2.78
0.6
0
1.54
0
-1.97
0
0
0
0
-0.04
0

> <PUBCHEM_SHAPE_SELFOVERLAP>
759.121

> <PUBCHEM_SHAPE_VOLUME>
173.7

> <PUBCHEM_COORDINATE_TYPE>
2
5
10

$$$$

