443296
  -OEChem-07051213012D

 68 72  0     1  0  0  0  0  0999 V2000
   12.4583   -0.5522    0.0000 F   0  0  0  0  0  0  0  0  0  0  0  0
    4.5981   -0.0280    0.0000 O   0  0  0  0  0  0  0  0  0  0  0  0
    6.3301   -0.0280    0.0000 O   0  0  0  0  0  0  0  0  0  0  0  0
    6.3301   -2.0280    0.0000 O   0  0  0  0  0  0  0  0  0  0  0  0
    4.5981   -3.0280    0.0000 O   0  0  0  0  0  0  0  0  0  0  0  0
    8.9282   -1.5280    0.0000 O   0  0  0  0  0  0  0  0  0  0  0  0
    2.8660   -2.0280    0.0000 O   0  0  0  0  0  0  0  0  0  0  0  0
    7.1962   -1.5280    0.0000 O   0  0  0  0  0  0  0  0  0  0  0  0
    2.8660    0.9720    0.0000 O   0  0  0  0  0  0  0  0  0  0  0  0
    2.0000   -0.5280    0.0000 O   0  0  0  0  0  0  0  0  0  0  0  0
    8.9282    1.4720    0.0000 N   0  0  0  0  0  0  0  0  0  0  0  0
   12.4583    1.4961    0.0000 N   0  0  3  0  0  0  0  0  0  0  0  0
   14.1865    2.5028    0.0000 N   0  0  0  0  0  0  0  0  0  0  0  0
    8.9282    2.4720    0.0000 C   0  0  0  0  0  0  0  0  0  0  0  0
    9.4282    3.3380    0.0000 C   0  0  0  0  0  0  0  0  0  0  0  0
    8.4282    3.3380    0.0000 C   0  0  0  0  0  0  0  0  0  0  0  0
    9.7942    0.9720    0.0000 C   0  0  0  0  0  0  0  0  0  0  0  0
    8.0622    0.9720    0.0000 C   0  0  0  0  0  0  0  0  0  0  0  0
    9.7942   -0.0280    0.0000 C   0  0  0  0  0  0  0  0  0  0  0  0
   10.6882    1.5066    0.0000 C   0  0  0  0  0  0  0  0  0  0  0  0
    8.0622   -0.0280    0.0000 C   0  0  0  0  0  0  0  0  0  0  0  0
   11.5942    0.9928    0.0000 C   0  0  0  0  0  0  0  0  0  0  0  0
    8.9282   -0.5280    0.0000 C   0  0  0  0  0  0  0  0  0  0  0  0
   10.6882   -0.5627    0.0000 C   0  0  0  0  0  0  0  0  0  0  0  0
   13.3263    0.9995    0.0000 C   0  0  0  0  0  0  0  0  0  0  0  0
   14.1904    1.5028    0.0000 C   0  0  3  0  0  0  0  0  0  0  0  0
   12.4545    2.4961    0.0000 C   0  0  0  0  0  0  0  0  0  0  0  0
   11.5942   -0.0488    0.0000 C   0  0  0  0  0  0  0  0  0  0  0  0
    5.4641   -1.5280    0.0000 C   0  0  2  0  0  0  0  0  0  0  0  0
    4.5981   -2.0280    0.0000 C   0  0  2  0  0  0  0  0  0  0  0  0
    5.4641   -0.5280    0.0000 C   0  0  1  0  0  0  0  0  0  0  0  0
    3.7320   -1.5280    0.0000 C   0  0  1  0  0  0  0  0  0  0  0  0
   13.3186    2.9995    0.0000 C   0  0  0  0  0  0  0  0  0  0  0  0
    3.7320   -0.5280    0.0000 C   0  0  1  0  0  0  0  0  0  0  0  0
    7.1962   -0.5280    0.0000 C   0  0  0  0  0  0  0  0  0  0  0  0
   10.6766   -1.5626    0.0000 C   0  0  0  0  0  0  0  0  0  0  0  0
   15.0583    1.0062    0.0000 C   0  0  0  0  0  0  0  0  0  0  0  0
    2.8660   -0.0280    0.0000 C   0  0  0  0  0  0  0  0  0  0  0  0
    9.5271    2.3115    0.0000 H   0  0  0  0  0  0  0  0  0  0  0  0
   10.0108    3.1260    0.0000 H   0  0  0  0  0  0  0  0  0  0  0  0
    9.5359    3.9486    0.0000 H   0  0  0  0  0  0  0  0  0  0  0  0
    8.3205    3.9486    0.0000 H   0  0  0  0  0  0  0  0  0  0  0  0
    7.8456    3.1260    0.0000 H   0  0  0  0  0  0  0  0  0  0  0  0
    7.5252    1.2820    0.0000 H   0  0  0  0  0  0  0  0  0  0  0  0
   10.6810    2.1266    0.0000 H   0  0  0  0  0  0  0  0  0  0  0  0
   12.9296    0.5230    0.0000 H   0  0  0  0  0  0  0  0  0  0  0  0
   13.7266    0.5261    0.0000 H   0  0  0  0  0  0  0  0  0  0  0  0
   14.7261    1.8149    0.0000 H   0  0  0  0  0  0  0  0  0  0  0  0
   12.2402    3.0779    0.0000 H   0  0  0  0  0  0  0  0  0  0  0  0
   11.8443    2.3861    0.0000 H   0  0  0  0  0  0  0  0  0  0  0  0
    5.4641   -2.1480    0.0000 H   0  0  0  0  0  0  0  0  0  0  0  0
    5.1350   -2.3380    0.0000 H   0  0  0  0  0  0  0  0  0  0  0  0
    5.4641    0.0920    0.0000 H   0  0  0  0  0  0  0  0  0  0  0  0
    3.7320   -2.1480    0.0000 H   0  0  0  0  0  0  0  0  0  0  0  0
   13.7153    3.4759    0.0000 H   0  0  0  0  0  0  0  0  0  0  0  0
   12.9182    3.4729    0.0000 H   0  0  0  0  0  0  0  0  0  0  0  0
    3.7320    0.0920    0.0000 H   0  0  0  0  0  0  0  0  0  0  0  0
   14.7222    2.8149    0.0000 H   0  0  0  0  0  0  0  0  0  0  0  0
   10.0566   -1.5554    0.0000 H   0  0  0  0  0  0  0  0  0  0  0  0
   10.6694   -2.1826    0.0000 H   0  0  0  0  0  0  0  0  0  0  0  0
   11.2966   -1.5698    0.0000 H   0  0  0  0  0  0  0  0  0  0  0  0
   14.7504    0.4680    0.0000 H   0  0  0  0  0  0  0  0  0  0  0  0
   15.5964    0.6982    0.0000 H   0  0  0  0  0  0  0  0  0  0  0  0
   15.3662    1.5443    0.0000 H   0  0  0  0  0  0  0  0  0  0  0  0
    5.1350   -3.3380    0.0000 H   0  0  0  0  0  0  0  0  0  0  0  0
    6.3301   -2.6480    0.0000 H   0  0  0  0  0  0  0  0  0  0  0  0
    2.8660   -2.6480    0.0000 H   0  0  0  0  0  0  0  0  0  0  0  0
    2.3291    1.2820    0.0000 H   0  0  0  0  0  0  0  0  0  0  0  0
  1 28  1  0  0  0  0
  2 31  1  0  0  0  0
  2 34  1  0  0  0  0
 31  3  1  1  0  0  0
  3 35  1  0  0  0  0
 29  4  1  6  0  0  0
  4 66  1  0  0  0  0
 30  5  1  1  0  0  0
  5 65  1  0  0  0  0
  6 23  2  0  0  0  0
 32  7  1  6  0  0  0
  7 67  1  0  0  0  0
  8 35  2  0  0  0  0
  9 38  1  0  0  0  0
  9 68  1  0  0  0  0
 10 38  2  0  0  0  0
 11 14  1  0  0  0  0
 11 17  1  0  0  0  0
 11 18  1  0  0  0  0
 12 22  1  0  0  0  0
 12 25  1  0  0  0  0
 12 27  1  0  0  0  0
 13 26  1  0  0  0  0
 13 33  1  0  0  0  0
 13 58  1  0  0  0  0
 14 15  1  0  0  0  0
 14 16  1  0  0  0  0
 14 39  1  0  0  0  0
 15 16  1  0  0  0  0
 15 40  1  0  0  0  0
 15 41  1  0  0  0  0
 16 42  1  0  0  0  0
 16 43  1  0  0  0  0
 17 19  1  0  0  0  0
 17 20  2  0  0  0  0
 18 21  2  0  0  0  0
 18 44  1  0  0  0  0
 19 23  1  0  0  0  0
 19 24  2  0  0  0  0
 20 22  1  0  0  0  0
 20 45  1  0  0  0  0
 21 23  1  0  0  0  0
 21 35  1  0  0  0  0
 22 28  2  0  0  0  0
 24 28  1  0  0  0  0
 24 36  1  0  0  0  0
 25 26  1  0  0  0  0
 25 46  1  0  0  0  0
 25 47  1  0  0  0  0
 26 37  1  0  0  0  0
 26 48  1  0  0  0  0
 27 33  1  0  0  0  0
 27 49  1  0  0  0  0
 27 50  1  0  0  0  0
 29 30  1  0  0  0  0
 29 31  1  0  0  0  0
 29 51  1  0  0  0  0
 30 32  1  0  0  0  0
 30 52  1  0  0  0  0
 31 53  1  0  0  0  0
 32 34  1  0  0  0  0
 32 54  1  0  0  0  0
 33 55  1  0  0  0  0
 33 56  1  0  0  0  0
 34 38  1  1  0  0  0
 34 57  1  0  0  0  0
 36 59  1  0  0  0  0
 36 60  1  0  0  0  0
 36 61  1  0  0  0  0
 37 62  1  0  0  0  0
 37 63  1  0  0  0  0
 37 64  1  0  0  0  0
M  END
> <PUBCHEM_COMPOUND_CID>
443296

> <PUBCHEM_COMPOUND_CANONICALIZED>
1

> <PUBCHEM_CACTVS_COMPLEXITY>
993

> <PUBCHEM_CACTVS_HBOND_ACCEPTOR>
13

> <PUBCHEM_CACTVS_HBOND_DONOR>
5

> <PUBCHEM_CACTVS_ROTATABLE_BOND>
6

> <PUBCHEM_CACTVS_SUBSKEYS>
AAADceB7PQAAAAAAAAAAAAAAGAAAAAAAAAA8SIEAAAAAAACBAAAAHwAQCAAADDzxmA8yyIPABgCIAqTWSAKCAAAlAgAAiIFIZMgZdD7I9NW2YYhlsADP6cfa/b/eiAAAQAQSAAAQAACACCQAAAAAAAAAAA==

> <PUBCHEM_IUPAC_OPENEYE_NAME>
(2S,3S,4S,5R,6S)-6-[1-cyclopropyl-6-fluoro-5-methyl-7-(3-methylpiperazin-1-yl)-4-oxo-quinoline-3-carbonyl]oxy-3,4,5-trihydroxy-tetrahydropyran-2-carboxylic acid

> <PUBCHEM_IUPAC_CAS_NAME>
(2S,3S,4S,5R,6S)-6-[[1-cyclopropyl-6-fluoro-5-methyl-7-(3-methyl-1-piperazinyl)-4-oxo-3-quinolinyl]-oxomethoxy]-3,4,5-trihydroxy-2-oxanecarboxylic acid

> <PUBCHEM_IUPAC_NAME>
(2S,3S,4S,5R,6S)-6-[1-cyclopropyl-6-fluoro-5-methyl-7-(3-methylpiperazin-1-yl)-4-oxoquinoline-3-carbonyl]oxy-3,4,5-trihydroxyoxane-2-carboxylic acid

> <PUBCHEM_IUPAC_SYSTEMATIC_NAME>
(2S,3S,4S,5R,6S)-6-[1-cyclopropyl-6-fluoranyl-5-methyl-7-(3-methylpiperazin-1-yl)-4-oxidanylidene-quinolin-3-yl]carbonyloxy-3,4,5-tris(oxidanyl)oxane-2-carboxylic acid

> <PUBCHEM_IUPAC_TRADITIONAL_NAME>
(2S,3S,4S,5R,6S)-6-[1-cyclopropyl-6-fluoro-4-keto-5-methyl-7-(3-methylpiperazino)quinoline-3-carbonyl]oxy-3,4,5-trihydroxy-tetrahydropyran-2-carboxylic acid

> <PUBCHEM_IUPAC_INCHI>
InChI=1S/C25H30FN3O9/c1-10-8-28(6-5-27-10)15-7-14-16(11(2)17(15)26)18(30)13(9-29(14)12-3-4-12)24(36)38-25-21(33)19(31)20(32)22(37-25)23(34)35/h7,9-10,12,19-22,25,27,31-33H,3-6,8H2,1-2H3,(H,34,35)/t10?,19-,20-,21+,22-,25-/m0/s1

> <PUBCHEM_IUPAC_INCHIKEY>
XFRNDEMKHRYQIZ-NWHISXNDSA-N

> <PUBCHEM_XLOGP3_AA>
-1.5

> <PUBCHEM_EXACT_MASS>
535.196608

> <PUBCHEM_MOLECULAR_FORMULA>
C25H30FN3O9

> <PUBCHEM_MOLECULAR_WEIGHT>
535.518803

> <PUBCHEM_OPENEYE_CAN_SMILES>
CC1CN(CCN1)C2=C(C(=C3C(=C2)N(C=C(C3=O)C(=O)OC4C(C(C(C(O4)C(=O)O)O)O)O)C5CC5)C)F

> <PUBCHEM_OPENEYE_ISO_SMILES>
CC1CN(CCN1)C2=C(C(=C3C(=C2)N(C=C(C3=O)C(=O)O[C@H]4[C@@H]([C@H]([C@@H]([C@H](O4)C(=O)O)O)O)O)C5CC5)C)F

> <PUBCHEM_CACTVS_TPSA>
169

> <PUBCHEM_MONOISOTOPIC_WEIGHT>
535.196608

> <PUBCHEM_TOTAL_CHARGE>
0

> <PUBCHEM_HEAVY_ATOM_COUNT>
38

> <PUBCHEM_ATOM_DEF_STEREO_COUNT>
5

> <PUBCHEM_ATOM_UDEF_STEREO_COUNT>
1

> <PUBCHEM_BOND_DEF_STEREO_COUNT>
0

> <PUBCHEM_BOND_UDEF_STEREO_COUNT>
0

> <PUBCHEM_ISOTOPIC_ATOM_COUNT>
0

> <PUBCHEM_COMPONENT_COUNT>
1

> <PUBCHEM_CACTVS_TAUTO_COUNT>
1

> <PUBCHEM_COORDINATE_TYPE>
1
5
255

> <PUBCHEM_BONDANNOTATIONS>
11  17  8
11  18  8
17  19  8
17  20  8
18  21  8
19  23  8
19  24  8
20  22  8
21  23  8
22  28  8
24  28  8
26  37  3
31  3  5
34  38  5
29  4  6
30  5  5
32  7  6

$$$$

