442765
  -OEChem-07051212593D

 30 32  0     0  0  0  0  0  0999 V2000
    1.6642    2.4189    0.0279 O   0  0  0  0  0  0  0  0  0  0  0  0
    1.0037   -3.0627    0.0044 O   0  0  0  0  0  0  0  0  0  0  0  0
   -0.8912    2.6405    0.0173 O   0  0  0  0  0  0  0  0  0  0  0  0
   -1.5369   -2.6637   -0.0027 O   0  0  0  0  0  0  0  0  0  0  0  0
    3.4848   -1.9783    0.0216 O   0  0  0  0  0  0  0  0  0  0  0  0
    4.3934    0.9985   -1.2201 O   0  0  0  0  0  0  0  0  0  0  0  0
    4.5615    1.0648    1.0458 O   0  0  0  0  0  0  0  0  0  0  0  0
    0.1631    0.5238    0.0150 C   0  0  0  0  0  0  0  0  0  0  0  0
   -0.0059   -0.8623    0.0091 C   0  0  0  0  0  0  0  0  0  0  0  0
   -2.3642    0.8321    0.0025 C   0  0  0  0  0  0  0  0  0  0  0  0
   -2.5332   -0.5541   -0.0032 C   0  0  0  0  0  0  0  0  0  0  0  0
   -1.0099    1.4217    0.0118 C   0  0  0  0  0  0  0  0  0  0  0  0
   -1.3602   -1.4520    0.0006 C   0  0  0  0  0  0  0  0  0  0  0  0
    1.4523    1.0700    0.0232 C   0  0  0  0  0  0  0  0  0  0  0  0
    1.1140   -1.7024    0.0112 C   0  0  0  0  0  0  0  0  0  0  0  0
    2.5657    0.2292    0.0249 C   0  0  0  0  0  0  0  0  0  0  0  0
    2.3969   -1.1539    0.0189 C   0  0  0  0  0  0  0  0  0  0  0  0
   -3.4842    1.6720   -0.0014 C   0  0  0  0  0  0  0  0  0  0  0  0
   -3.8223   -1.1003   -0.0129 C   0  0  0  0  0  0  0  0  0  0  0  0
   -4.7670    1.1236   -0.0113 C   0  0  0  0  0  0  0  0  0  0  0  0
   -4.9358   -0.2596   -0.0172 C   0  0  0  0  0  0  0  0  0  0  0  0
    3.9114    0.7943    0.0345 C   0  0  0  0  0  0  0  0  0  0  0  0
   -3.3814    2.7538    0.0028 H   0  0  0  0  0  0  0  0  0  0  0  0
   -3.9824   -2.1750   -0.0176 H   0  0  0  0  0  0  0  0  0  0  0  0
   -5.6355    1.7759   -0.0145 H   0  0  0  0  0  0  0  0  0  0  0  0
   -5.9356   -0.6841   -0.0249 H   0  0  0  0  0  0  0  0  0  0  0  0
    2.6099    2.6339    0.0294 H   0  0  0  0  0  0  0  0  0  0  0  0
    0.0746   -3.3360   -0.0044 H   0  0  0  0  0  0  0  0  0  0  0  0
    3.1728   -2.8998    0.0168 H   0  0  0  0  0  0  0  0  0  0  0  0
    5.2978    1.3782   -1.2067 H   0  0  0  0  0  0  0  0  0  0  0  0
  1 14  1  0  0  0  0
  1 27  1  0  0  0  0
  2 15  1  0  0  0  0
  2 28  1  0  0  0  0
  3 12  2  0  0  0  0
  4 13  2  0  0  0  0
  5 17  1  0  0  0  0
  5 29  1  0  0  0  0
  6 22  1  0  0  0  0
  6 30  1  0  0  0  0
  7 22  2  0  0  0  0
  8  9  2  0  0  0  0
  8 12  1  0  0  0  0
  8 14  1  0  0  0  0
  9 13  1  0  0  0  0
  9 15  1  0  0  0  0
 10 11  1  0  0  0  0
 10 12  1  0  0  0  0
 10 18  2  0  0  0  0
 11 13  1  0  0  0  0
 11 19  2  0  0  0  0
 14 16  2  0  0  0  0
 15 17  2  0  0  0  0
 16 17  1  0  0  0  0
 16 22  1  0  0  0  0
 18 20  1  0  0  0  0
 18 23  1  0  0  0  0
 19 21  1  0  0  0  0
 19 24  1  0  0  0  0
 20 21  2  0  0  0  0
 20 25  1  0  0  0  0
 21 26  1  0  0  0  0
M  END
> <PUBCHEM_COMPOUND_CID>
442765

> <PUBCHEM_CONFORMER_RMSD>
0.6

> <PUBCHEM_CONFORMER_DIVERSEORDER>
1

> <PUBCHEM_MMFF94_PARTIAL_CHARGES>
30
1 -0.53
10 0.09
11 0.09
12 0.4
13 0.4
14 0.08
15 0.08
16 0.09
17 0.08
18 -0.15
19 -0.15
2 -0.53
20 -0.15
21 -0.15
22 0.63
23 0.15
24 0.15
25 0.15
26 0.15
27 0.45
28 0.45
29 0.45
3 -0.57
30 0.5
4 -0.57
5 -0.53
6 -0.65
7 -0.57
8 0.09
9 0.09

> <PUBCHEM_EFFECTIVE_ROTOR_COUNT>
1

> <PUBCHEM_PHARMACOPHORE_FEATURES>
11
1 1 donor
1 2 donor
1 3 acceptor
1 4 acceptor
1 5 donor
1 6 acceptor
1 7 acceptor
3 6 7 22 anion
6 10 11 18 19 20 21 rings
6 8 9 10 11 12 13 rings
6 8 9 14 15 16 17 rings

> <PUBCHEM_HEAVY_ATOM_COUNT>
22

> <PUBCHEM_ATOM_DEF_STEREO_COUNT>
0

> <PUBCHEM_ATOM_UDEF_STEREO_COUNT>
0

> <PUBCHEM_BOND_DEF_STEREO_COUNT>
0

> <PUBCHEM_BOND_UDEF_STEREO_COUNT>
0

> <PUBCHEM_ISOTOPIC_ATOM_COUNT>
0

> <PUBCHEM_COMPONENT_COUNT>
1

> <PUBCHEM_CACTVS_TAUTO_COUNT>
42

> <PUBCHEM_CONFORMER_ID>
0006C18D00000001

> <PUBCHEM_MMFF94_ENERGY>
76.1975

> <PUBCHEM_FEATURE_SELFOVERLAP>
55.924

> <PUBCHEM_SHAPE_FINGERPRINT>
10411042 1 17473825503747262647
10498660 4 18410854386486844093
10616163 171 18338795598685508015
10967382 1 18410575088963327467
11112241 14 16300943095365598624
11132069 177 18411984658570069745
11471102 20 18410859884224110119
12011746 2 18409727361214031173
12236239 1 17775006748363038888
12403814 3 17561089094309056925
12838862 33 18338255789810344041
12954195 1 17897986140297956020
13140716 1 18194688064035587104
13221675 6 18411139134318103523
138480 1 17906172111187438667
14790565 3 18268420231689859964
15196674 1 18410575119397402635
15442244 35 18122063371121614995
15536298 74 18335138730058393455
1601671 61 18413388718118828084
16945 1 18410575071788726538
19591789 44 18338234993483536958
200 152 18113625577815303301
20028762 73 17971190314389639343
20510252 161 18261393390267743761
20715895 44 17840884184920356229
20739085 24 18052231158817558185
21267235 1 18338227275580364747
21421861 104 17915184734911411675
221490 88 18339916133993672595
2334 1 17906170650818676729
23366157 5 17986948751003182154
23402539 116 18334304128061216181
23559900 14 18263930002390120562
2748010 2 18050005493494253273
335352 9 18266459995450806935
34934 24 18408891706659845294
350125 39 18339923831149657662
4409770 3 16042536340983918774
474 4 17703502212488587572
5104073 3 18410855503399732011
7364860 26 18263644124829338414
9709674 26 18410288108145018175

> <PUBCHEM_SHAPE_MULTIPOLES>
411.66
8.65
2.72
0.68
1.13
0.78
-0.02
-2.01
-0.06
-0.42
0.02
-0.37
-0.1
-0.01

> <PUBCHEM_SHAPE_SELFOVERLAP>
938.401

> <PUBCHEM_SHAPE_VOLUME>
211.5

> <PUBCHEM_COORDINATE_TYPE>
2
5
10

$$$$

