5536
  -OEChem-06261200442D

 44 44  0     0  0  0  0  0  0999 V2000
    3.7320    0.0950    0.0000 O   0  0  0  0  0  0  0  0  0  0  0  0
    7.1962   -1.9050    0.0000 O   0  0  0  0  0  0  0  0  0  0  0  0
    5.4641   -2.9050    0.0000 O   0  0  0  0  0  0  0  0  0  0  0  0
    4.5981    1.5950    0.0000 O   0  0  0  0  0  0  0  0  0  0  0  0
    7.1962    4.0950    0.0000 O   0  0  0  0  0  0  0  0  0  0  0  0
    8.0622    2.5950    0.0000 O   0  0  0  0  0  0  0  0  0  0  0  0
    5.4641    0.0950    0.0000 C   0  0  0  0  0  0  0  0  0  0  0  0
    4.5981   -0.4050    0.0000 C   0  0  0  0  0  0  0  0  0  0  0  0
    6.3301   -1.4050    0.0000 C   0  0  0  0  0  0  0  0  0  0  0  0
    6.3301    1.5950    0.0000 C   0  0  0  0  0  0  0  0  0  0  0  0
    6.3301   -0.4050    0.0000 C   0  0  0  0  0  0  0  0  0  0  0  0
    5.4641    1.0950    0.0000 C   0  0  0  0  0  0  0  0  0  0  0  0
    5.4641   -1.9050    0.0000 C   0  0  0  0  0  0  0  0  0  0  0  0
    4.5981   -1.4050    0.0000 C   0  0  0  0  0  0  0  0  0  0  0  0
    6.3301    2.5950    0.0000 C   0  0  0  0  0  0  0  0  0  0  0  0
    2.8660   -0.4050    0.0000 C   0  0  0  0  0  0  0  0  0  0  0  0
    8.0622   -1.4050    0.0000 C   0  0  0  0  0  0  0  0  0  0  0  0
    4.5981   -3.4050    0.0000 C   0  0  0  0  0  0  0  0  0  0  0  0
    7.1962    3.0950    0.0000 C   0  0  0  0  0  0  0  0  0  0  0  0
    2.0000    0.0950    0.0000 C   0  0  0  0  0  0  0  0  0  0  0  0
    8.9282   -1.9050    0.0000 C   0  0  0  0  0  0  0  0  0  0  0  0
    4.5981   -4.4050    0.0000 C   0  0  0  0  0  0  0  0  0  0  0  0
    6.5422    1.0124    0.0000 H   0  0  0  0  0  0  0  0  0  0  0  0
    6.9407    1.7027    0.0000 H   0  0  0  0  0  0  0  0  0  0  0  0
    6.8671   -0.0950    0.0000 H   0  0  0  0  0  0  0  0  0  0  0  0
    4.0611   -1.7150    0.0000 H   0  0  0  0  0  0  0  0  0  0  0  0
    6.1181    3.1776    0.0000 H   0  0  0  0  0  0  0  0  0  0  0  0
    5.7196    2.4873    0.0000 H   0  0  0  0  0  0  0  0  0  0  0  0
    2.4675   -0.8799    0.0000 H   0  0  0  0  0  0  0  0  0  0  0  0
    3.2646   -0.8799    0.0000 H   0  0  0  0  0  0  0  0  0  0  0  0
    8.4607   -0.9301    0.0000 H   0  0  0  0  0  0  0  0  0  0  0  0
    7.6636   -0.9301    0.0000 H   0  0  0  0  0  0  0  0  0  0  0  0
    4.3860   -2.8224    0.0000 H   0  0  0  0  0  0  0  0  0  0  0  0
    3.9875   -3.5127    0.0000 H   0  0  0  0  0  0  0  0  0  0  0  0
    2.3100    0.6319    0.0000 H   0  0  0  0  0  0  0  0  0  0  0  0
    1.4631    0.4050    0.0000 H   0  0  0  0  0  0  0  0  0  0  0  0
    1.6900   -0.4419    0.0000 H   0  0  0  0  0  0  0  0  0  0  0  0
    8.6182   -2.4419    0.0000 H   0  0  0  0  0  0  0  0  0  0  0  0
    9.4651   -2.2150    0.0000 H   0  0  0  0  0  0  0  0  0  0  0  0
    9.2382   -1.3681    0.0000 H   0  0  0  0  0  0  0  0  0  0  0  0
    3.9781   -4.4050    0.0000 H   0  0  0  0  0  0  0  0  0  0  0  0
    4.5981   -5.0250    0.0000 H   0  0  0  0  0  0  0  0  0  0  0  0
    5.2181   -4.4050    0.0000 H   0  0  0  0  0  0  0  0  0  0  0  0
    7.7331    4.4050    0.0000 H   0  0  0  0  0  0  0  0  0  0  0  0
  1  8  1  0  0  0  0
  1 16  1  0  0  0  0
  2  9  1  0  0  0  0
  2 17  1  0  0  0  0
  3 13  1  0  0  0  0
  3 18  1  0  0  0  0
  4 12  2  0  0  0  0
  5 19  1  0  0  0  0
  5 44  1  0  0  0  0
  6 19  2  0  0  0  0
  7  8  1  0  0  0  0
  7 11  2  0  0  0  0
  7 12  1  0  0  0  0
  8 14  2  0  0  0  0
  9 11  1  0  0  0  0
  9 13  2  0  0  0  0
 10 12  1  0  0  0  0
 10 15  1  0  0  0  0
 10 23  1  0  0  0  0
 10 24  1  0  0  0  0
 11 25  1  0  0  0  0
 13 14  1  0  0  0  0
 14 26  1  0  0  0  0
 15 19  1  0  0  0  0
 15 27  1  0  0  0  0
 15 28  1  0  0  0  0
 16 20  1  0  0  0  0
 16 29  1  0  0  0  0
 16 30  1  0  0  0  0
 17 21  1  0  0  0  0
 17 31  1  0  0  0  0
 17 32  1  0  0  0  0
 18 22  1  0  0  0  0
 18 33  1  0  0  0  0
 18 34  1  0  0  0  0
 20 35  1  0  0  0  0
 20 36  1  0  0  0  0
 20 37  1  0  0  0  0
 21 38  1  0  0  0  0
 21 39  1  0  0  0  0
 21 40  1  0  0  0  0
 22 41  1  0  0  0  0
 22 42  1  0  0  0  0
 22 43  1  0  0  0  0
M  END
> <PUBCHEM_COMPOUND_CID>
5536

> <PUBCHEM_COMPOUND_CANONICALIZED>
1

> <PUBCHEM_CACTVS_COMPLEXITY>
357

> <PUBCHEM_CACTVS_HBOND_ACCEPTOR>
6

> <PUBCHEM_CACTVS_HBOND_DONOR>
1

> <PUBCHEM_CACTVS_ROTATABLE_BOND>
10

> <PUBCHEM_CACTVS_SUBSKEYS>
AAADceB4OAAAAAAAAAAAAAAAAAAAAAAAAAAwAAAAAAAAAAABAAAAGgAACAAADASgmAIyDoAABgCIAqDSCAACCAAkIAAAiAEGiMgNJzaENBqCeWKl4BUKqYfL7LzOIQABCAAIQABCAAIQABCAAAAAAAAAAA==

> <PUBCHEM_IUPAC_OPENEYE_NAME>
4-oxo-4-(2,4,5-triethoxyphenyl)butanoic acid

> <PUBCHEM_IUPAC_CAS_NAME>
4-oxo-4-(2,4,5-triethoxyphenyl)butanoic acid

> <PUBCHEM_IUPAC_NAME>
4-oxo-4-(2,4,5-triethoxyphenyl)butanoic acid

> <PUBCHEM_IUPAC_SYSTEMATIC_NAME>
4-oxidanylidene-4-(2,4,5-triethoxyphenyl)butanoic acid

> <PUBCHEM_IUPAC_TRADITIONAL_NAME>
4-keto-4-(2,4,5-triethoxyphenyl)butyric acid

> <PUBCHEM_IUPAC_INCHI>
InChI=1S/C16H22O6/c1-4-20-13-10-15(22-6-3)14(21-5-2)9-11(13)12(17)7-8-16(18)19/h9-10H,4-8H2,1-3H3,(H,18,19)

> <PUBCHEM_IUPAC_INCHIKEY>
YPTFHLJNWSJXKG-UHFFFAOYSA-N

> <PUBCHEM_XLOGP3_AA>
2.1

> <PUBCHEM_EXACT_MASS>
310.141638

> <PUBCHEM_MOLECULAR_FORMULA>
C16H22O6

> <PUBCHEM_MOLECULAR_WEIGHT>
310.34228

> <PUBCHEM_OPENEYE_CAN_SMILES>
CCOC1=CC(=C(C=C1C(=O)CCC(=O)O)OCC)OCC

> <PUBCHEM_OPENEYE_ISO_SMILES>
CCOC1=CC(=C(C=C1C(=O)CCC(=O)O)OCC)OCC

> <PUBCHEM_CACTVS_TPSA>
82.1

> <PUBCHEM_MONOISOTOPIC_WEIGHT>
310.141638

> <PUBCHEM_TOTAL_CHARGE>
0

> <PUBCHEM_HEAVY_ATOM_COUNT>
22

> <PUBCHEM_ATOM_DEF_STEREO_COUNT>
0

> <PUBCHEM_ATOM_UDEF_STEREO_COUNT>
0

> <PUBCHEM_BOND_DEF_STEREO_COUNT>
0

> <PUBCHEM_BOND_UDEF_STEREO_COUNT>
0

> <PUBCHEM_ISOTOPIC_ATOM_COUNT>
0

> <PUBCHEM_COMPONENT_COUNT>
1

> <PUBCHEM_CACTVS_TAUTO_COUNT>
2

> <PUBCHEM_COORDINATE_TYPE>
1
5
255

> <PUBCHEM_BONDANNOTATIONS>
13  14  8
7  11  8
7  8  8
8  14  8
9  11  8
9  13  8

$$$$

