10535
  -OEChem-06261204392D

 21 20  0     0  0  0  0  0  0999 V2000
    4.2320   -1.1830    0.0000 Br  0  0  0  0  0  0  0  0  0  0  0  0
    4.5981    1.1830    0.0000 O   0  0  0  0  0  0  0  0  0  0  0  0
    5.4641   -0.3170    0.0000 N   0  0  0  0  0  0  0  0  0  0  0  0
    3.7320   -0.3170    0.0000 C   0  0  0  0  0  0  0  0  0  0  0  0
    2.8660   -0.8170    0.0000 C   0  0  0  0  0  0  0  0  0  0  0  0
    3.2320    0.5490    0.0000 C   0  0  0  0  0  0  0  0  0  0  0  0
    4.5981    0.1830    0.0000 C   0  0  0  0  0  0  0  0  0  0  0  0
    2.0000   -0.3170    0.0000 C   0  0  0  0  0  0  0  0  0  0  0  0
    2.2320    0.5490    0.0000 C   0  0  0  0  0  0  0  0  0  0  0  0
    2.4675   -1.2919    0.0000 H   0  0  0  0  0  0  0  0  0  0  0  0
    3.2646   -1.2919    0.0000 H   0  0  0  0  0  0  0  0  0  0  0  0
    3.8147    0.7611    0.0000 H   0  0  0  0  0  0  0  0  0  0  0  0
    3.1244    1.1596    0.0000 H   0  0  0  0  0  0  0  0  0  0  0  0
    2.3100    0.2199    0.0000 H   0  0  0  0  0  0  0  0  0  0  0  0
    1.4631   -0.0070    0.0000 H   0  0  0  0  0  0  0  0  0  0  0  0
    1.6900   -0.8539    0.0000 H   0  0  0  0  0  0  0  0  0  0  0  0
    2.2320    1.1690    0.0000 H   0  0  0  0  0  0  0  0  0  0  0  0
    1.6120    0.5490    0.0000 H   0  0  0  0  0  0  0  0  0  0  0  0
    2.2320   -0.0710    0.0000 H   0  0  0  0  0  0  0  0  0  0  0  0
    6.0010   -0.0070    0.0000 H   0  0  0  0  0  0  0  0  0  0  0  0
    5.4641   -0.9370    0.0000 H   0  0  0  0  0  0  0  0  0  0  0  0
  1  4  1  0  0  0  0
  2  7  2  0  0  0  0
  3  7  1  0  0  0  0
  3 20  1  0  0  0  0
  3 21  1  0  0  0  0
  4  5  1  0  0  0  0
  4  6  1  0  0  0  0
  4  7  1  0  0  0  0
  5  8  1  0  0  0  0
  5 10  1  0  0  0  0
  5 11  1  0  0  0  0
  6  9  1  0  0  0  0
  6 12  1  0  0  0  0
  6 13  1  0  0  0  0
  8 14  1  0  0  0  0
  8 15  1  0  0  0  0
  8 16  1  0  0  0  0
  9 17  1  0  0  0  0
  9 18  1  0  0  0  0
  9 19  1  0  0  0  0
M  END
> <PUBCHEM_COMPOUND_CID>
10535

> <PUBCHEM_COMPOUND_CANONICALIZED>
1

> <PUBCHEM_CACTVS_COMPLEXITY>
110

> <PUBCHEM_CACTVS_HBOND_ACCEPTOR>
1

> <PUBCHEM_CACTVS_HBOND_DONOR>
1

> <PUBCHEM_CACTVS_ROTATABLE_BOND>
3

> <PUBCHEM_CACTVS_SUBSKEYS>
AAADccBiIAAAEAAAAAAAAAAAAAAAAAAAAAAAAAAAAAAAAAAAAAAAHgBQAAABjACBgAACAABAAAAIAAEQEAAAAAAAAAAAAAEAACAgABIAgAAAAAAAAAAAAAAAAAAKAAAAAAAAAAAAAAAAAAAAAAAAAAAAAA==

> <PUBCHEM_IUPAC_OPENEYE_NAME>
2-bromo-2-ethyl-butanamide

> <PUBCHEM_IUPAC_CAS_NAME>
2-bromo-2-ethylbutanamide

> <PUBCHEM_IUPAC_NAME>
2-bromo-2-ethylbutanamide

> <PUBCHEM_IUPAC_SYSTEMATIC_NAME>
2-bromanyl-2-ethyl-butanamide

> <PUBCHEM_IUPAC_TRADITIONAL_NAME>
2-bromo-2-ethyl-butyramide

> <PUBCHEM_IUPAC_INCHI>
InChI=1S/C6H12BrNO/c1-3-6(7,4-2)5(8)9/h3-4H2,1-2H3,(H2,8,9)

> <PUBCHEM_IUPAC_INCHIKEY>
ACEYAMOAGUDVAQ-UHFFFAOYSA-N

> <PUBCHEM_XLOGP3_AA>
1.6

> <PUBCHEM_EXACT_MASS>
193.010226

> <PUBCHEM_MOLECULAR_FORMULA>
C6H12BrNO

> <PUBCHEM_MOLECULAR_WEIGHT>
194.06958

> <PUBCHEM_OPENEYE_CAN_SMILES>
CCC(CC)(C(=O)N)Br

> <PUBCHEM_OPENEYE_ISO_SMILES>
CCC(CC)(C(=O)N)Br

> <PUBCHEM_CACTVS_TPSA>
43.1

> <PUBCHEM_MONOISOTOPIC_WEIGHT>
193.010226

> <PUBCHEM_TOTAL_CHARGE>
0

> <PUBCHEM_HEAVY_ATOM_COUNT>
9

> <PUBCHEM_ATOM_DEF_STEREO_COUNT>
0

> <PUBCHEM_ATOM_UDEF_STEREO_COUNT>
0

> <PUBCHEM_BOND_DEF_STEREO_COUNT>
0

> <PUBCHEM_BOND_UDEF_STEREO_COUNT>
0

> <PUBCHEM_ISOTOPIC_ATOM_COUNT>
0

> <PUBCHEM_COMPONENT_COUNT>
1

> <PUBCHEM_CACTVS_TAUTO_COUNT>
2

> <PUBCHEM_COORDINATE_TYPE>
1
5
255

$$$$

