11953845
  -OEChem-07051212492D

 90 92  0     1  0  0  0  0  0999 V2000
    4.9860    4.4129    0.0000 P   0  0  0  0  0  0  0  0  0  0  0  0
    8.8529   -4.1575    0.0000 P   0  0  0  0  0  0  0  0  0  0  0  0
    7.5841    0.9129    0.0000 O   0  0  0  0  0  0  0  0  0  0  0  0
    6.7751   -0.6749    0.0000 O   0  0  0  0  0  0  0  0  0  0  0  0
    9.3442   -0.3658    0.0000 O   0  0  0  0  0  0  0  0  0  0  0  0
    9.8794   -2.0131    0.0000 O   0  0  0  0  0  0  0  0  0  0  0  0
    5.8520    3.9129    0.0000 O   0  0  0  0  0  0  0  0  0  0  0  0
    7.5841    2.9129    0.0000 O   0  0  0  0  0  0  0  0  0  0  0  0
    4.1200    0.9129    0.0000 O   0  0  0  0  0  0  0  0  0  0  0  0
    8.2651   -3.3485    0.0000 O   0  0  0  0  0  0  0  0  0  0  0  0
   12.7326   -1.0861    0.0000 O   0  0  0  0  0  0  0  0  0  0  0  0
   12.3167   -3.0424    0.0000 O   0  0  0  0  0  0  0  0  0  0  0  0
   11.1578   -4.3295    0.0000 O   0  0  0  0  0  0  0  0  0  0  0  0
    4.1200    4.9129    0.0000 O   0  0  0  0  0  0  0  0  0  0  0  0
    5.4860    5.2789    0.0000 O   0  0  0  0  0  0  0  0  0  0  0  0
    4.4860    3.5469    0.0000 O   0  0  0  0  0  0  0  0  0  0  0  0
    9.4407   -4.9665    0.0000 O   0  0  0  0  0  0  0  0  0  0  0  0
    8.0439   -4.7453    0.0000 O   0  0  0  0  0  0  0  0  0  0  0  0
    9.6619   -3.5697    0.0000 O   0  0  0  0  0  0  0  0  0  0  0  0
    5.8520   -0.0871    0.0000 N   0  0  0  0  0  0  0  0  0  0  0  0
    4.1200    2.9129    0.0000 N   0  0  0  0  0  0  0  0  0  0  0  0
   11.2463    0.2522    0.0000 N   0  0  0  0  0  0  0  0  0  0  0  0
    4.9860   -1.5871    0.0000 N   0  0  0  0  0  0  0  0  0  0  0  0
    3.9860   -0.5871    0.0000 N   0  0  0  0  0  0  0  0  0  0  0  0
    2.6200    3.7790    0.0000 N   0  0  0  0  0  0  0  0  0  0  0  0
    2.6200    2.0469    0.0000 N   0  0  0  0  0  0  0  0  0  0  0  0
    8.3931   -0.6749    0.0000 C   0  0  2  0  0  0  0  0  0  0  0  0
    8.0841   -1.6259    0.0000 C   0  0  2  0  0  0  0  0  0  0  0  0
    6.7181    1.4129    0.0000 C   0  0  2  0  0  0  0  0  0  0  0  0
    7.5841   -0.0871    0.0000 C   0  0  2  0  0  0  0  0  0  0  0  0
    5.8520    0.9129    0.0000 C   0  0  2  0  0  0  0  0  0  0  0  0
    6.7181    2.4129    0.0000 C   0  0  1  0  0  0  0  0  0  0  0  0
    7.0841   -1.6259    0.0000 C   0  0  2  0  0  0  0  0  0  0  0  0
    5.8520    2.9129    0.0000 C   0  0  2  0  0  0  0  0  0  0  0  0
    4.9860    1.4129    0.0000 C   0  0  1  0  0  0  0  0  0  0  0  0
    4.9860    2.4129    0.0000 C   0  0  1  0  0  0  0  0  0  0  0  0
   10.0873   -1.0350    0.0000 C   0  0  2  0  0  0  0  0  0  0  0  0
    8.6719   -2.4349    0.0000 C   0  0  0  0  0  0  0  0  0  0  0  0
   11.0384   -0.7260    0.0000 C   0  0  2  0  0  0  0  0  0  0  0  0
   11.7815   -1.3951    0.0000 C   0  0  1  0  0  0  0  0  0  0  0  0
    6.4963   -2.4349    0.0000 C   0  0  0  0  0  0  0  0  0  0  0  0
   11.5736   -2.3732    0.0000 C   0  0  2  0  0  0  0  0  0  0  0  0
   10.6225   -2.6823    0.0000 C   0  0  2  0  0  0  0  0  0  0  0  0
   10.4146   -3.6604    0.0000 C   0  0  0  0  0  0  0  0  0  0  0  0
    4.9860   -0.5871    0.0000 C   0  0  0  0  0  0  0  0  0  0  0  0
    3.1200    2.9130    0.0000 C   0  0  0  0  0  0  0  0  0  0  0  0
   12.1973    0.5612    0.0000 C   0  0  0  0  0  0  0  0  0  0  0  0
    8.8315   -1.1133    0.0000 H   0  0  0  0  0  0  0  0  0  0  0  0
    8.6965   -1.5289    0.0000 H   0  0  0  0  0  0  0  0  0  0  0  0
    6.7181    0.7929    0.0000 H   0  0  0  0  0  0  0  0  0  0  0  0
    8.1365    0.1944    0.0000 H   0  0  0  0  0  0  0  0  0  0  0  0
    6.3890    0.6029    0.0000 H   0  0  0  0  0  0  0  0  0  0  0  0
    6.7181    3.0329    0.0000 H   0  0  0  0  0  0  0  0  0  0  0  0
    6.4717   -1.5289    0.0000 H   0  0  0  0  0  0  0  0  0  0  0  0
    6.3890    3.2229    0.0000 H   0  0  0  0  0  0  0  0  0  0  0  0
    4.9860    0.7929    0.0000 H   0  0  0  0  0  0  0  0  0  0  0  0
    4.9860    3.0329    0.0000 H   0  0  0  0  0  0  0  0  0  0  0  0
   10.2162   -0.4285    0.0000 H   0  0  0  0  0  0  0  0  0  0  0  0
    9.1859   -2.7816    0.0000 H   0  0  0  0  0  0  0  0  0  0  0  0
    9.1026   -1.9890    0.0000 H   0  0  0  0  0  0  0  0  0  0  0  0
   11.6280   -0.5344    0.0000 H   0  0  0  0  0  0  0  0  0  0  0  0
   12.2423   -1.8100    0.0000 H   0  0  0  0  0  0  0  0  0  0  0  0
    5.9947   -2.0705    0.0000 H   0  0  0  0  0  0  0  0  0  0  0  0
    6.1319   -2.9365    0.0000 H   0  0  0  0  0  0  0  0  0  0  0  0
    6.9979   -2.7994    0.0000 H   0  0  0  0  0  0  0  0  0  0  0  0
   11.4447   -2.9797    0.0000 H   0  0  0  0  0  0  0  0  0  0  0  0
   10.0329   -2.8738    0.0000 H   0  0  0  0  0  0  0  0  0  0  0  0
    8.1210    2.6029    0.0000 H   0  0  0  0  0  0  0  0  0  0  0  0
    3.5831    1.2229    0.0000 H   0  0  0  0  0  0  0  0  0  0  0  0
   10.7855    0.6670    0.0000 H   0  0  0  0  0  0  0  0  0  0  0  0
    9.8398   -3.4282    0.0000 H   0  0  0  0  0  0  0  0  0  0  0  0
   10.0861   -4.1862    0.0000 H   0  0  0  0  0  0  0  0  0  0  0  0
   13.1933   -1.5009    0.0000 H   0  0  0  0  0  0  0  0  0  0  0  0
   12.1878   -3.6488    0.0000 H   0  0  0  0  0  0  0  0  0  0  0  0
   12.3889   -0.0285    0.0000 H   0  0  0  0  0  0  0  0  0  0  0  0
   12.7870    0.7528    0.0000 H   0  0  0  0  0  0  0  0  0  0  0  0
   12.0057    1.1509    0.0000 H   0  0  0  0  0  0  0  0  0  0  0  0
   11.0289   -4.9360    0.0000 H   0  0  0  0  0  0  0  0  0  0  0  0
    3.6760   -1.1240    0.0000 H   0  0  0  0  0  0  0  0  0  0  0  0
    3.6760   -0.0501    0.0000 H   0  0  0  0  0  0  0  0  0  0  0  0
    4.4491   -1.8971    0.0000 H   0  0  0  0  0  0  0  0  0  0  0  0
    5.5230   -1.8971    0.0000 H   0  0  0  0  0  0  0  0  0  0  0  0
    6.1060    5.2789    0.0000 H   0  0  0  0  0  0  0  0  0  0  0  0
    4.1200    5.5329    0.0000 H   0  0  0  0  0  0  0  0  0  0  0  0
    2.0000    2.0469    0.0000 H   0  0  0  0  0  0  0  0  0  0  0  0
    2.9300    1.5099    0.0000 H   0  0  0  0  0  0  0  0  0  0  0  0
    2.0000    3.7790    0.0000 H   0  0  0  0  0  0  0  0  0  0  0  0
    2.9300    4.3159    0.0000 H   0  0  0  0  0  0  0  0  0  0  0  0
    8.1087   -5.3619    0.0000 H   0  0  0  0  0  0  0  0  0  0  0  0
    9.1885   -5.5329    0.0000 H   0  0  0  0  0  0  0  0  0  0  0  0
  1  7  1  0  0  0  0
  1 14  1  0  0  0  0
  1 15  1  0  0  0  0
  1 16  2  0  0  0  0
  2 10  1  0  0  0  0
  2 17  1  0  0  0  0
  2 18  1  0  0  0  0
  2 19  2  0  0  0  0
 29  3  1  6  0  0  0
 30  3  1  1  0  0  0
  4 30  1  0  0  0  0
  4 33  1  0  0  0  0
 27  5  1  6  0  0  0
 37  5  1  1  0  0  0
  6 37  1  0  0  0  0
  6 43  1  0  0  0  0
 34  7  1  6  0  0  0
 32  8  1  1  0  0  0
  8 68  1  0  0  0  0
 35  9  1  6  0  0  0
  9 69  1  0  0  0  0
 10 38  1  0  0  0  0
 40 11  1  6  0  0  0
 11 73  1  0  0  0  0
 42 12  1  1  0  0  0
 12 74  1  0  0  0  0
 13 44  1  0  0  0  0
 13 78  1  0  0  0  0
 14 84  1  0  0  0  0
 15 83  1  0  0  0  0
 17 90  1  0  0  0  0
 18 89  1  0  0  0  0
 31 20  1  1  0  0  0
 20 45  2  0  0  0  0
 36 21  1  1  0  0  0
 21 46  2  0  0  0  0
 39 22  1  1  0  0  0
 22 47  1  0  0  0  0
 22 70  1  0  0  0  0
 23 45  1  0  0  0  0
 23 81  1  0  0  0  0
 23 82  1  0  0  0  0
 24 45  1  0  0  0  0
 24 79  1  0  0  0  0
 24 80  1  0  0  0  0
 25 46  1  0  0  0  0
 25 87  1  0  0  0  0
 25 88  1  0  0  0  0
 26 46  1  0  0  0  0
 26 85  1  0  0  0  0
 26 86  1  0  0  0  0
 27 28  1  0  0  0  0
 27 30  1  0  0  0  0
 27 48  1  0  0  0  0
 28 33  1  0  0  0  0
 28 38  1  1  0  0  0
 28 49  1  0  0  0  0
 29 31  1  0  0  0  0
 29 32  1  0  0  0  0
 29 50  1  0  0  0  0
 30 51  1  0  0  0  0
 31 35  1  0  0  0  0
 31 52  1  0  0  0  0
 32 34  1  0  0  0  0
 32 53  1  0  0  0  0
 33 41  1  6  0  0  0
 33 54  1  0  0  0  0
 34 36  1  0  0  0  0
 34 55  1  0  0  0  0
 35 36  1  0  0  0  0
 35 56  1  0  0  0  0
 36 57  1  0  0  0  0
 37 39  1  0  0  0  0
 37 58  1  0  0  0  0
 38 59  1  0  0  0  0
 38 60  1  0  0  0  0
 39 40  1  0  0  0  0
 39 61  1  0  0  0  0
 40 42  1  0  0  0  0
 40 62  1  0  0  0  0
 41 63  1  0  0  0  0
 41 64  1  0  0  0  0
 41 65  1  0  0  0  0
 42 43  1  0  0  0  0
 42 66  1  0  0  0  0
 43 44  1  6  0  0  0
 43 67  1  0  0  0  0
 44 71  1  0  0  0  0
 44 72  1  0  0  0  0
 47 75  1  0  0  0  0
 47 76  1  0  0  0  0
 47 77  1  0  0  0  0
M  END
> <PUBCHEM_COMPOUND_CID>
11953845

> <PUBCHEM_COMPOUND_CANONICALIZED>
1

> <PUBCHEM_CACTVS_COMPLEXITY>
1200

> <PUBCHEM_CACTVS_HBOND_ACCEPTOR>
20

> <PUBCHEM_CACTVS_HBOND_DONOR>
14

> <PUBCHEM_CACTVS_ROTATABLE_BOND>
13

> <PUBCHEM_CACTVS_SUBSKEYS>
AAADcfB7vgMAAAAAAAAAAAAAAAAAASAAAAA0QAAAAAAAAAAAAAAAHgAQCCAADTzxgAcDCALABxAgQAAAJIAAAAEAAAAAAIAIAAATEAIAwAAnQAAHEAAXAAHwcA8KAAAAAAAAAAACgAAUCACgAAAAAAAAAA==

> <PUBCHEM_IUPAC_OPENEYE_NAME>
[(2S,3S,4R,5S)-5-[(1R,2S,3S,4R,5S,6S)-2,4-diguanidino-3,6-dihydroxy-5-phosphonooxy-cyclohexoxy]-4-[(2S,3S,4S,5R,6S)-4,5-dihydroxy-6-(hydroxymethyl)-3-(methylamino)tetrahydropyran-2-yl]oxy-2-methyl-tetrahydrofuran-3-yl]methyl dihydrogen phosphate

> <PUBCHEM_IUPAC_CAS_NAME>
[(1S,2R,3S,4S,5R,6S)-2,4-bis(diaminomethylideneamino)-5-[[(2S,3R,4S,5S)-3-[[(2S,3S,4S,5R,6S)-4,5-dihydroxy-6-(hydroxymethyl)-3-(methylamino)-2-oxanyl]oxy]-5-methyl-4-(phosphonooxymethyl)-2-oxolanyl]oxy]-3,6-dihydroxycyclohexyl] dihydrogen phosphate

> <PUBCHEM_IUPAC_NAME>
[(1S,2R,3S,4S,5R,6S)-2,4-bis(diaminomethylideneamino)-5-[(2S,3R,4S,5S)-3-[(2S,3S,4S,5R,6S)-4,5-dihydroxy-6-(hydroxymethyl)-3-(methylamino)oxan-2-yl]oxy-5-methyl-4-(phosphonooxymethyl)oxolan-2-yl]oxy-3,6-dihydroxycyclohexyl] dihydrogen phosphate

> <PUBCHEM_IUPAC_SYSTEMATIC_NAME>
[(2S,3S,4R,5S)-5-[(1R,2S,3S,4R,5S,6S)-2,4-bis[bis(azanyl)methylideneamino]-3,6-bis(oxidanyl)-5-phosphonooxy-cyclohexyl]oxy-4-[(2S,3S,4S,5R,6S)-6-(hydroxymethyl)-3-(methylamino)-4,5-bis(oxidanyl)oxan-2-yl]oxy-2-methyl-oxolan-3-yl]methyl dihydrogen phosphate

> <PUBCHEM_IUPAC_TRADITIONAL_NAME>
[(2S,3S,4R,5S)-5-[(1R,2S,3S,4R,5S,6S)-2,4-diguanidino-3,6-dihydroxy-5-phosphonooxy-cyclohexoxy]-4-[(2S,3S,4S,5R,6S)-4,5-dihydroxy-3-(methylamino)-6-methylol-tetrahydropyran-2-yl]oxy-2-methyl-tetrahydrofuran-3-yl]methyl dihydrogen phosphate

> <PUBCHEM_IUPAC_INCHI>
InChI=1S/C21H43N7O17P2/c1-5-6(4-40-46(34,35)36)15(43-18-10(26-2)13(32)11(30)7(3-29)42-18)19(41-5)44-16-8(27-20(22)23)12(31)9(28-21(24)25)17(14(16)33)45-47(37,38)39/h5-19,26,29-33H,3-4H2,1-2H3,(H4,22,23,27)(H4,24,25,28)(H2,34,35,36)(H2,37,38,39)/t5-,6-,7-,8-,9+,10-,11-,12-,13-,14-,15+,16+,17-,18-,19-/m0/s1

> <PUBCHEM_IUPAC_INCHIKEY>
GAODGIPKEKRVEC-MLIDHZNVSA-N

> <PUBCHEM_XLOGP3_AA>
-11.6

> <PUBCHEM_EXACT_MASS>
727.219066

> <PUBCHEM_MOLECULAR_FORMULA>
C21H43N7O17P2

> <PUBCHEM_MOLECULAR_WEIGHT>
727.550344

> <PUBCHEM_OPENEYE_CAN_SMILES>
CC1C(C(C(O1)OC2C(C(C(C(C2O)OP(=O)(O)O)N=C(N)N)O)N=C(N)N)OC3C(C(C(C(O3)CO)O)O)NC)COP(=O)(O)O

> <PUBCHEM_OPENEYE_ISO_SMILES>
C[C@H]1[C@@H]([C@H]([C@@H](O1)O[C@@H]2[C@H]([C@@H]([C@H]([C@@H]([C@H]2O)OP(=O)(O)O)N=C(N)N)O)N=C(N)N)O[C@H]3[C@H]([C@@H]([C@H]([C@@H](O3)CO)O)O)NC)COP(=O)(O)O

> <PUBCHEM_CACTVS_TPSA>
412

> <PUBCHEM_MONOISOTOPIC_WEIGHT>
727.219066

> <PUBCHEM_TOTAL_CHARGE>
0

> <PUBCHEM_HEAVY_ATOM_COUNT>
47

> <PUBCHEM_ATOM_DEF_STEREO_COUNT>
15

> <PUBCHEM_ATOM_UDEF_STEREO_COUNT>
0

> <PUBCHEM_BOND_DEF_STEREO_COUNT>
0

> <PUBCHEM_BOND_UDEF_STEREO_COUNT>
0

> <PUBCHEM_ISOTOPIC_ATOM_COUNT>
0

> <PUBCHEM_COMPONENT_COUNT>
1

> <PUBCHEM_CACTVS_TAUTO_COUNT>
4

> <PUBCHEM_COORDINATE_TYPE>
1
5
255

> <PUBCHEM_BONDANNOTATIONS>
40  11  6
42  12  5
31  20  5
36  21  5
39  22  5
28  38  5
29  3  6
30  3  5
33  41  6
43  44  6
27  5  6
37  5  5
34  7  6
32  8  5
35  9  6

$$$$

