17395469
  -OEChem-06241222503D

 33 33  0     0  0  0  0  0  0999 V2000
    3.7455   -2.5137   -0.5985 Cl  0  0  0  0  0  0  0  0  0  0  0  0
    2.2647    2.3392    0.0518 O   0  0  0  0  0  0  0  0  0  0  0  0
    4.2101    0.4399   -0.4030 O   0  0  0  0  0  0  0  0  0  0  0  0
   -1.5638   -2.1593   -0.2642 O   0  0  0  0  0  0  0  0  0  0  0  0
   -3.6235    0.7230   -0.7237 O   0  0  0  0  0  0  0  0  0  0  0  0
   -5.5017   -0.0853    0.3316 O   0  0  0  0  0  0  0  0  0  0  0  0
   -1.9652   -0.2643    1.0126 N   0  0  0  0  0  0  0  0  0  0  0  0
    0.2463   -0.7075    0.0731 C   0  0  0  0  0  0  0  0  0  0  0  0
    1.9329    1.0199   -0.0191 C   0  0  0  0  0  0  0  0  0  0  0  0
    0.6005    0.6399    0.1417 C   0  0  0  0  0  0  0  0  0  0  0  0
    2.9112    0.0525   -0.2485 C   0  0  0  0  0  0  0  0  0  0  0  0
    1.2246   -1.6749   -0.1563 C   0  0  0  0  0  0  0  0  0  0  0  0
    2.5570   -1.2949   -0.3170 C   0  0  0  0  0  0  0  0  0  0  0  0
   -1.1725   -1.1129    0.2459 C   0  0  0  0  0  0  0  0  0  0  0  0
   -3.3471   -0.5320    1.2897 C   0  0  0  0  0  0  0  0  0  0  0  0
   -4.2848    0.0517    0.2590 C   0  0  0  0  0  0  0  0  0  0  0  0
    1.2038    3.2625    0.2892 C   0  0  0  0  0  0  0  0  0  0  0  0
    5.0078    0.5109    0.7762 C   0  0  0  0  0  0  0  0  0  0  0  0
   -4.4458    1.3052   -1.7406 C   0  0  0  0  0  0  0  0  0  0  0  0
   -0.1868    1.3704    0.2766 H   0  0  0  0  0  0  0  0  0  0  0  0
    0.9534   -2.7272   -0.2054 H   0  0  0  0  0  0  0  0  0  0  0  0
   -1.5653    0.5532    1.4598 H   0  0  0  0  0  0  0  0  0  0  0  0
   -3.5781   -0.0835    2.2602 H   0  0  0  0  0  0  0  0  0  0  0  0
   -3.5070   -1.6137    1.3299 H   0  0  0  0  0  0  0  0  0  0  0  0
    1.6507    4.2616    0.3259 H   0  0  0  0  0  0  0  0  0  0  0  0
    0.7291    3.0938    1.2619 H   0  0  0  0  0  0  0  0  0  0  0  0
    0.4824    3.2701   -0.5351 H   0  0  0  0  0  0  0  0  0  0  0  0
    6.0322    0.7555    0.4818 H   0  0  0  0  0  0  0  0  0  0  0  0
    5.0167   -0.4466    1.3062 H   0  0  0  0  0  0  0  0  0  0  0  0
    4.6383    1.2997    1.4390 H   0  0  0  0  0  0  0  0  0  0  0  0
   -5.0086    0.5266   -2.2643 H   0  0  0  0  0  0  0  0  0  0  0  0
   -5.1230    2.0448   -1.3027 H   0  0  0  0  0  0  0  0  0  0  0  0
   -3.7927    1.8089   -2.4581 H   0  0  0  0  0  0  0  0  0  0  0  0
  1 13  1  0  0  0  0
  2  9  1  0  0  0  0
  2 17  1  0  0  0  0
  3 11  1  0  0  0  0
  3 18  1  0  0  0  0
  4 14  2  0  0  0  0
  5 16  1  0  0  0  0
  5 19  1  0  0  0  0
  6 16  2  0  0  0  0
  7 14  1  0  0  0  0
  7 15  1  0  0  0  0
  7 22  1  0  0  0  0
  8 10  2  0  0  0  0
  8 12  1  0  0  0  0
  8 14  1  0  0  0  0
  9 10  1  0  0  0  0
  9 11  2  0  0  0  0
 10 20  1  0  0  0  0
 11 13  1  0  0  0  0
 12 13  2  0  0  0  0
 12 21  1  0  0  0  0
 15 16  1  0  0  0  0
 15 23  1  0  0  0  0
 15 24  1  0  0  0  0
 17 25  1  0  0  0  0
 17 26  1  0  0  0  0
 17 27  1  0  0  0  0
 18 28  1  0  0  0  0
 18 29  1  0  0  0  0
 18 30  1  0  0  0  0
 19 31  1  0  0  0  0
 19 32  1  0  0  0  0
 19 33  1  0  0  0  0
M  END
> <PUBCHEM_COMPOUND_CID>
17395469

> <PUBCHEM_CONFORMER_RMSD>
0.8

> <PUBCHEM_CONFORMER_DIVERSEORDER>
1
34
47
19
11
49
18
25
31
37
50
42
36
6
7
51
12
21
26
40
39
43
13
20
53
15
52
9
45
24
46
3
27
5
38
35
8
30
22
29
23
32
10
16
48
44
14
17
33
28
4
2
41

> <PUBCHEM_MMFF94_PARTIAL_CHARGES>
22
1 -0.18
10 -0.15
11 0.08
12 -0.15
13 0.18
14 0.54
15 0.36
16 0.66
17 0.28
18 0.28
19 0.28
2 -0.36
20 0.15
21 0.15
22 0.37
3 -0.36
4 -0.57
5 -0.43
6 -0.57
7 -0.73
8 0.09
9 0.08

> <PUBCHEM_EFFECTIVE_ROTOR_COUNT>
7

> <PUBCHEM_PHARMACOPHORE_FEATURES>
6
1 2 acceptor
1 3 acceptor
1 4 acceptor
1 6 acceptor
1 7 donor
6 8 9 10 11 12 13 rings

> <PUBCHEM_HEAVY_ATOM_COUNT>
19

> <PUBCHEM_ATOM_DEF_STEREO_COUNT>
0

> <PUBCHEM_ATOM_UDEF_STEREO_COUNT>
0

> <PUBCHEM_BOND_DEF_STEREO_COUNT>
0

> <PUBCHEM_BOND_UDEF_STEREO_COUNT>
0

> <PUBCHEM_ISOTOPIC_ATOM_COUNT>
0

> <PUBCHEM_COMPONENT_COUNT>
1

> <PUBCHEM_CACTVS_TAUTO_COUNT>
2

> <PUBCHEM_CONFORMER_ID>
01096F0D00000001

> <PUBCHEM_MMFF94_ENERGY>
64.6228

> <PUBCHEM_FEATURE_SELFOVERLAP>
30.451

> <PUBCHEM_SHAPE_FINGERPRINT>
10608611 8 18341891832076892395
11471102 20 18409443700357585230
116883 192 18118961632040489174
12236239 1 17312819399011787451
12403259 415 18130502037482180743
12507557 5 18337105679325289489
13134695 92 18334294301044459796
13140716 1 18192431862244238520
13402501 40 18273220819916008253
13583140 156 18201996595504246827
13675066 3 18201431463380228738
13922767 16 18411135801502661776
14790565 3 17907010678536767372
15081414 286 18336256912357566932
15196674 1 18337668736589738697
1601671 61 18410572869093106420
16945 1 18337100160709142470
17349148 13 17603581954352495983
18186145 218 18335138709121672615
200 152 17894631478665556393
20233049 118 18273495671841833244
20645477 56 18343580707817970243
20645477 70 18262511606399297166
21033648 29 18201445778875556141
21279426 13 18126568052964414006
21639500 275 18334016056062412745
221357 26 18339928216274616789
22289505 5 18411983602182305444
231179 274 18343302569566598874
23402539 116 17458341957428407081
23402655 69 18261395585169734821
23557571 272 17631726072590843835
23559900 14 18260264149240393378
34934 24 18335704923318966538
350125 39 18120649124221881275
351380 180 18342739615871896873
3524813 1 18201444670742436533
3545911 37 18335134271972264410
4072396 5 18410866464625762762
5281201 14 18413103983377698653
7471813 234 17603873337797711929
9971528 1 18260543450773338818

> <PUBCHEM_SHAPE_MULTIPOLES>
358.55
10.06
2.61
1.02
7.24
1.15
0.14
0.38
0.67
-2.27
0.23
1.02
0.11
1.35

> <PUBCHEM_SHAPE_SELFOVERLAP>
729.071

> <PUBCHEM_SHAPE_VOLUME>
210.2

> <PUBCHEM_COORDINATE_TYPE>
2
5
10

$$$$

