441929
  -OEChem-07051212562D

118124  0     1  0  0  0  0  0999 V2000
    5.9945   -2.6991    0.0000 O   0  0  0  0  0  0  0  0  0  0  0  0
   14.9196    0.3874    0.0000 O   0  0  0  0  0  0  0  0  0  0  0  0
   14.0651   -1.1192    0.0000 O   0  0  0  0  0  0  0  0  0  0  0  0
    4.2625   -2.6924    0.0000 O   0  0  0  0  0  0  0  0  0  0  0  0
    6.0022   -0.6991    0.0000 O   0  0  0  0  0  0  0  0  0  0  0  0
    4.2740    0.3075    0.0000 O   0  0  0  0  0  0  0  0  0  0  0  0
    2.5381   -0.6858    0.0000 O   0  0  0  0  0  0  0  0  0  0  0  0
    5.1420    0.8042    0.0000 O   0  0  0  0  0  0  0  0  0  0  0  0
    7.7381    0.2942    0.0000 O   0  0  0  0  0  0  0  0  0  0  0  0
    7.7458    2.2942    0.0000 O   0  0  0  0  0  0  0  0  0  0  0  0
    6.0176    3.3008    0.0000 O   0  0  0  0  0  0  0  0  0  0  0  0
   10.5216   -1.1468    0.0000 C   0  0  2  0  0  0  0  0  0  0  0  0
    9.6555   -0.6468    0.0000 C   0  0  1  0  0  0  0  0  0  0  0  0
    8.7455   -1.1536    0.0000 C   0  0  2  0  0  0  0  0  0  0  0  0
   11.3876   -0.6468    0.0000 C   0  0  1  0  0  0  0  0  0  0  0  0
    8.7375   -2.1952    0.0000 C   0  0  2  0  0  0  0  0  0  0  0  0
   10.5376   -2.1883    0.0000 C   0  0  0  0  0  0  0  0  0  0  0  0
    7.8021   -2.7450    0.0000 C   0  0  0  0  0  0  0  0  0  0  0  0
    9.6396   -2.7160    0.0000 C   0  0  0  0  0  0  0  0  0  0  0  0
   11.3876    0.3532    0.0000 C   0  0  0  0  0  0  0  0  0  0  0  0
    9.6555    0.3532    0.0000 C   0  0  0  0  0  0  0  0  0  0  0  0
    7.8187   -0.5896    0.0000 C   0  0  0  0  0  0  0  0  0  0  0  0
   12.2815    0.8879    0.0000 C   0  0  1  0  0  0  0  0  0  0  0  0
   12.2815   -1.1814    0.0000 C   0  0  0  0  0  0  0  0  0  0  0  0
   13.1876    0.3740    0.0000 C   0  0  1  0  0  0  0  0  0  0  0  0
   11.1643   -1.9128    0.0000 C   0  0  0  0  0  0  0  0  0  0  0  0
    6.8624   -2.2025    0.0000 C   0  0  2  0  0  0  0  0  0  0  0  0
   13.1876   -0.6676    0.0000 C   0  0  0  0  0  0  0  0  0  0  0  0
    8.7532   -0.1537    0.0000 C   0  0  0  0  0  0  0  0  0  0  0  0
    6.8708   -1.1175    0.0000 C   0  0  0  0  0  0  0  0  0  0  0  0
   10.5216    0.8532    0.0000 C   0  0  0  0  0  0  0  0  0  0  0  0
   11.7297   -1.5864    0.0000 C   0  0  0  0  0  0  0  0  0  0  0  0
   12.2564    1.9726    0.0000 C   0  0  0  0  0  0  0  0  0  0  0  0
   14.1314    0.9093    0.0000 C   0  0  0  0  0  0  0  0  0  0  0  0
   13.1876    2.5295    0.0000 C   0  0  0  0  0  0  0  0  0  0  0  0
    7.3054   -3.6129    0.0000 C   0  0  0  0  0  0  0  0  0  0  0  0
    8.3054   -3.6090    0.0000 C   0  0  0  0  0  0  0  0  0  0  0  0
   14.1314    1.9943    0.0000 C   0  0  0  0  0  0  0  0  0  0  0  0
   14.0574   -0.1193    0.0000 C   0  0  0  0  0  0  0  0  0  0  0  0
   13.6775    3.4012    0.0000 C   0  0  0  0  0  0  0  0  0  0  0  0
   12.6776    3.3897    0.0000 C   0  0  0  0  0  0  0  0  0  0  0  0
    5.1304   -2.1958    0.0000 C   0  0  2  0  0  0  0  0  0  0  0  0
    5.1343   -1.1958    0.0000 C   0  0  1  0  0  0  0  0  0  0  0  0
    4.2702   -0.6925    0.0000 C   0  0  2  0  0  0  0  0  0  0  0  0
    3.3984   -2.1891    0.0000 C   0  0  0  0  0  0  0  0  0  0  0  0
    3.4022   -1.1891    0.0000 C   0  0  2  0  0  0  0  0  0  0  0  0
    6.0061    0.3009    0.0000 C   0  0  2  0  0  0  0  0  0  0  0  0
    6.8740    0.7975    0.0000 C   0  0  1  0  0  0  0  0  0  0  0  0
    6.8779    1.7975    0.0000 C   0  0  1  0  0  0  0  0  0  0  0  0
    5.1458    1.8042    0.0000 C   0  0  2  0  0  0  0  0  0  0  0  0
    6.0138    2.3008    0.0000 C   0  0  2  0  0  0  0  0  0  0  0  0
    4.2817    2.3075    0.0000 C   0  0  0  0  0  0  0  0  0  0  0  0
   10.3916   -0.2218    0.0000 H   0  0  0  0  0  0  0  0  0  0  0  0
    8.7408   -3.0452    0.0000 H   0  0  0  0  0  0  0  0  0  0  0  0
   10.7556   -2.7687    0.0000 H   0  0  0  0  0  0  0  0  0  0  0  0
   11.1468   -2.0728    0.0000 H   0  0  0  0  0  0  0  0  0  0  0  0
    9.2423   -3.1920    0.0000 H   0  0  0  0  0  0  0  0  0  0  0  0
   10.0405   -3.1889    0.0000 H   0  0  0  0  0  0  0  0  0  0  0  0
    9.4435    0.9358    0.0000 H   0  0  0  0  0  0  0  0  0  0  0  0
    9.0450    0.2456    0.0000 H   0  0  0  0  0  0  0  0  0  0  0  0
    8.2269   -0.1229    0.0000 H   0  0  0  0  0  0  0  0  0  0  0  0
    7.4288   -0.1075    0.0000 H   0  0  0  0  0  0  0  0  0  0  0  0
   13.0110    1.3242    0.0000 H   0  0  0  0  0  0  0  0  0  0  0  0
   11.8769   -1.6512    0.0000 H   0  0  0  0  0  0  0  0  0  0  0  0
   12.6751   -1.6605    0.0000 H   0  0  0  0  0  0  0  0  0  0  0  0
   10.6894   -2.3114    0.0000 H   0  0  0  0  0  0  0  0  0  0  0  0
   11.5629   -2.3878    0.0000 H   0  0  0  0  0  0  0  0  0  0  0  0
   11.6393   -1.5143    0.0000 H   0  0  0  0  0  0  0  0  0  0  0  0
    6.8612   -2.8225    0.0000 H   0  0  0  0  0  0  0  0  0  0  0  0
   13.3966   -1.2513    0.0000 H   0  0  0  0  0  0  0  0  0  0  0  0
   13.7984   -0.5615    0.0000 H   0  0  0  0  0  0  0  0  0  0  0  0
    9.3732   -0.1584    0.0000 H   0  0  0  0  0  0  0  0  0  0  0  0
    8.7580    0.4663    0.0000 H   0  0  0  0  0  0  0  0  0  0  0  0
    8.1332   -0.1489    0.0000 H   0  0  0  0  0  0  0  0  0  0  0  0
    6.6662   -0.5322    0.0000 H   0  0  0  0  0  0  0  0  0  0  0  0
    6.2592   -1.2189    0.0000 H   0  0  0  0  0  0  0  0  0  0  0  0
   10.5216    1.4732    0.0000 H   0  0  0  0  0  0  0  0  0  0  0  0
   11.1471   -1.7986    0.0000 H   0  0  0  0  0  0  0  0  0  0  0  0
   11.9418   -2.1690    0.0000 H   0  0  0  0  0  0  0  0  0  0  0  0
   12.3123   -1.3743    0.0000 H   0  0  0  0  0  0  0  0  0  0  0  0
   12.0339    2.5513    0.0000 H   0  0  0  0  0  0  0  0  0  0  0  0
   11.6482    1.8524    0.0000 H   0  0  0  0  0  0  0  0  0  0  0  0
   14.3404    0.3256    0.0000 H   0  0  0  0  0  0  0  0  0  0  0  0
   14.7422    1.0154    0.0000 H   0  0  0  0  0  0  0  0  0  0  0  0
    7.7697   -3.9211    0.0000 H   0  0  0  0  0  0  0  0  0  0  0  0
    8.6175   -4.1448    0.0000 H   0  0  0  0  0  0  0  0  0  0  0  0
    8.8411   -3.2970    0.0000 H   0  0  0  0  0  0  0  0  0  0  0  0
    6.7673   -3.3050    0.0000 H   0  0  0  0  0  0  0  0  0  0  0  0
    6.9975   -4.1510    0.0000 H   0  0  0  0  0  0  0  0  0  0  0  0
    7.8435   -3.9208    0.0000 H   0  0  0  0  0  0  0  0  0  0  0  0
   14.7422    1.8882    0.0000 H   0  0  0  0  0  0  0  0  0  0  0  0
   14.3404    2.5780    0.0000 H   0  0  0  0  0  0  0  0  0  0  0  0
   13.2109    3.7059    0.0000 H   0  0  0  0  0  0  0  0  0  0  0  0
   12.3614    3.9230    0.0000 H   0  0  0  0  0  0  0  0  0  0  0  0
   12.1443    3.0735    0.0000 H   0  0  0  0  0  0  0  0  0  0  0  0
   14.2180    3.0975    0.0000 H   0  0  0  0  0  0  0  0  0  0  0  0
   13.9813    3.9417    0.0000 H   0  0  0  0  0  0  0  0  0  0  0  0
   13.1371    3.7050    0.0000 H   0  0  0  0  0  0  0  0  0  0  0  0
    5.1280   -2.8158    0.0000 H   0  0  0  0  0  0  0  0  0  0  0  0
   15.4589    0.0815    0.0000 H   0  0  0  0  0  0  0  0  0  0  0  0
    5.6700   -1.5079    0.0000 H   0  0  0  0  0  0  0  0  0  0  0  0
    3.7344   -0.3804    0.0000 H   0  0  0  0  0  0  0  0  0  0  0  0
    2.7882   -2.0791    0.0000 H   0  0  0  0  0  0  0  0  0  0  0  0
    3.1841   -2.7709    0.0000 H   0  0  0  0  0  0  0  0  0  0  0  0
    2.8641   -1.4970    0.0000 H   0  0  0  0  0  0  0  0  0  0  0  0
    6.5418   -0.0112    0.0000 H   0  0  0  0  0  0  0  0  0  0  0  0
    3.7383    0.6196    0.0000 H   0  0  0  0  0  0  0  0  0  0  0  0
    2.0000   -0.9937    0.0000 H   0  0  0  0  0  0  0  0  0  0  0  0
    7.4121    1.1054    0.0000 H   0  0  0  0  0  0  0  0  0  0  0  0
    7.4136    1.4854    0.0000 H   0  0  0  0  0  0  0  0  0  0  0  0
    4.6077    1.4963    0.0000 H   0  0  0  0  0  0  0  0  0  0  0  0
    6.5519    2.6088    0.0000 H   0  0  0  0  0  0  0  0  0  0  0  0
    8.2762    0.6021    0.0000 H   0  0  0  0  0  0  0  0  0  0  0  0
    4.5938    2.8433    0.0000 H   0  0  0  0  0  0  0  0  0  0  0  0
    3.7460    2.6196    0.0000 H   0  0  0  0  0  0  0  0  0  0  0  0
    3.9697    1.7718    0.0000 H   0  0  0  0  0  0  0  0  0  0  0  0
    7.7482    2.9142    0.0000 H   0  0  0  0  0  0  0  0  0  0  0  0
    5.4819    3.6129    0.0000 H   0  0  0  0  0  0  0  0  0  0  0  0
 27  1  1  1  0  0  0
 42  1  1  6  0  0  0
  2 39  1  0  0  0  0
  2100  1  0  0  0  0
  3 39  2  0  0  0  0
  4 42  1  0  0  0  0
  4 45  1  0  0  0  0
 43  5  1  1  0  0  0
 47  5  1  6  0  0  0
 44  6  1  6  0  0  0
  6107  1  0  0  0  0
 46  7  1  6  0  0  0
  7108  1  0  0  0  0
  8 47  1  0  0  0  0
  8 50  1  0  0  0  0
 48  9  1  1  0  0  0
  9113  1  0  0  0  0
 49 10  1  1  0  0  0
 10117  1  0  0  0  0
 51 11  1  6  0  0  0
 11118  1  0  0  0  0
 12 13  1  0  0  0  0
 12 15  1  0  0  0  0
 12 17  1  0  0  0  0
 12 26  1  1  0  0  0
 13 14  1  0  0  0  0
 13 21  1  0  0  0  0
 13 53  1  6  0  0  0
 14 16  1  0  0  0  0
 14 22  1  0  0  0  0
 14 29  1  1  0  0  0
 15 20  1  0  0  0  0
 15 24  1  0  0  0  0
 15 32  1  6  0  0  0
 16 18  1  0  0  0  0
 16 19  1  0  0  0  0
 16 54  1  6  0  0  0
 17 19  1  0  0  0  0
 17 55  1  0  0  0  0
 17 56  1  0  0  0  0
 18 27  1  0  0  0  0
 18 36  1  0  0  0  0
 18 37  1  0  0  0  0
 19 57  1  0  0  0  0
 19 58  1  0  0  0  0
 20 23  1  0  0  0  0
 20 31  2  0  0  0  0
 21 31  1  0  0  0  0
 21 59  1  0  0  0  0
 21 60  1  0  0  0  0
 22 30  1  0  0  0  0
 22 61  1  0  0  0  0
 22 62  1  0  0  0  0
 23 25  1  0  0  0  0
 23 33  1  0  0  0  0
 23 63  1  1  0  0  0
 24 28  1  0  0  0  0
 24 64  1  0  0  0  0
 24 65  1  0  0  0  0
 25 28  1  0  0  0  0
 25 34  1  0  0  0  0
 25 39  1  1  0  0  0
 26 66  1  0  0  0  0
 26 67  1  0  0  0  0
 26 68  1  0  0  0  0
 27 30  1  0  0  0  0
 27 69  1  0  0  0  0
 28 70  1  0  0  0  0
 28 71  1  0  0  0  0
 29 72  1  0  0  0  0
 29 73  1  0  0  0  0
 29 74  1  0  0  0  0
 30 75  1  0  0  0  0
 30 76  1  0  0  0  0
 31 77  1  0  0  0  0
 32 78  1  0  0  0  0
 32 79  1  0  0  0  0
 32 80  1  0  0  0  0
 33 35  1  0  0  0  0
 33 81  1  0  0  0  0
 33 82  1  0  0  0  0
 34 38  1  0  0  0  0
 34 83  1  0  0  0  0
 34 84  1  0  0  0  0
 35 38  1  0  0  0  0
 35 40  1  0  0  0  0
 35 41  1  0  0  0  0
 36 88  1  0  0  0  0
 36 89  1  0  0  0  0
 36 90  1  0  0  0  0
 37 85  1  0  0  0  0
 37 86  1  0  0  0  0
 37 87  1  0  0  0  0
 38 91  1  0  0  0  0
 38 92  1  0  0  0  0
 40 96  1  0  0  0  0
 40 97  1  0  0  0  0
 40 98  1  0  0  0  0
 41 93  1  0  0  0  0
 41 94  1  0  0  0  0
 41 95  1  0  0  0  0
 42 43  1  0  0  0  0
 42 99  1  0  0  0  0
 43 44  1  0  0  0  0
 43101  1  0  0  0  0
 44 46  1  0  0  0  0
 44102  1  0  0  0  0
 45 46  1  0  0  0  0
 45103  1  0  0  0  0
 45104  1  0  0  0  0
 46105  1  0  0  0  0
 47 48  1  0  0  0  0
 47106  1  0  0  0  0
 48 49  1  0  0  0  0
 48109  1  0  0  0  0
 49 51  1  0  0  0  0
 49110  1  0  0  0  0
 50 51  1  0  0  0  0
 50 52  1  1  0  0  0
 50111  1  0  0  0  0
 51112  1  0  0  0  0
 52114  1  0  0  0  0
 52115  1  0  0  0  0
 52116  1  0  0  0  0
M  END
> <PUBCHEM_COMPOUND_CID>
441929

> <PUBCHEM_COMPOUND_CANONICALIZED>
1

> <PUBCHEM_CACTVS_COMPLEXITY>
1410

> <PUBCHEM_CACTVS_HBOND_ACCEPTOR>
11

> <PUBCHEM_CACTVS_HBOND_DONOR>
6

> <PUBCHEM_CACTVS_ROTATABLE_BOND>
5

> <PUBCHEM_CACTVS_SUBSKEYS>
AAADcfB8PAAAAAAAAAAAAAAAAAAAAAAAAAA0aMGCAAAAAADAAAAAGgAACAAADxSwgAMCCAAABgCIAiDSCAAAAAAgAAAACAEAAAgREBIAAQAiQAAFgAAPAAPI6PyPgAAAAAAAAADAAAYAADAAAAAAAAAAAA==

> <PUBCHEM_IUPAC_OPENEYE_NAME>
(4aS,6aR,6aS,6bR,8aR,10S,12aR,14bS)-10-[(2S,3R,4S,5S)-4,5-dihydroxy-3-[(2S,3R,4R,5R,6S)-3,4,5-trihydroxy-6-methyl-tetrahydropyran-2-yl]oxy-tetrahydropyran-2-yl]oxy-2,2,6a,6b,9,9,12a-heptamethyl-1,3,4,5,6,6a,7,8,8a,10,11,12,13,14b-tetradecahydropicene-4a-carboxylic acid

> <PUBCHEM_IUPAC_CAS_NAME>
(4aS,6aR,6aS,6bR,8aR,10S,12aR,14bS)-10-[[(2S,3R,4S,5S)-4,5-dihydroxy-3-[[(2S,3R,4R,5R,6S)-3,4,5-trihydroxy-6-methyl-2-oxanyl]oxy]-2-oxanyl]oxy]-2,2,6a,6b,9,9,12a-heptamethyl-1,3,4,5,6,6a,7,8,8a,10,11,12,13,14b-tetradecahydropicene-4a-carboxylic acid

> <PUBCHEM_IUPAC_NAME>
(4aS,6aR,6aS,6bR,8aR,10S,12aR,14bS)-10-[(2S,3R,4S,5S)-4,5-dihydroxy-3-[(2S,3R,4R,5R,6S)-3,4,5-trihydroxy-6-methyloxan-2-yl]oxyoxan-2-yl]oxy-2,2,6a,6b,9,9,12a-heptamethyl-1,3,4,5,6,6a,7,8,8a,10,11,12,13,14b-tetradecahydropicene-4a-carboxylic acid

> <PUBCHEM_IUPAC_SYSTEMATIC_NAME>
(4aS,6aR,6aS,6bR,8aR,10S,12aR,14bS)-2,2,6a,6b,9,9,12a-heptamethyl-10-[(2S,3R,4S,5S)-3-[(2S,3R,4R,5R,6S)-6-methyl-3,4,5-tris(oxidanyl)oxan-2-yl]oxy-4,5-bis(oxidanyl)oxan-2-yl]oxy-1,3,4,5,6,6a,7,8,8a,10,11,12,13,14b-tetradecahydropicene-4a-carboxylic acid

> <PUBCHEM_IUPAC_TRADITIONAL_NAME>
(4aS,6aR,6aS,6bR,8aR,10S,12aR,14bS)-10-[(2S,3R,4S,5S)-4,5-dihydroxy-3-[(2S,3R,4R,5R,6S)-3,4,5-trihydroxy-6-methyl-tetrahydropyran-2-yl]oxy-tetrahydropyran-2-yl]oxy-2,2,6a,6b,9,9,12a-heptamethyl-1,3,4,5,6,6a,7,8,8a,10,11,12,13,14b-tetradecahydropicene-4a-carboxylic acid

> <PUBCHEM_IUPAC_INCHI>
InChI=1S/C41H66O11/c1-21-28(43)30(45)31(46)33(50-21)52-32-29(44)24(42)20-49-34(32)51-27-12-13-38(6)25(37(27,4)5)11-14-40(8)26(38)10-9-22-23-19-36(2,3)15-17-41(23,35(47)48)18-16-39(22,40)7/h9,21,23-34,42-46H,10-20H2,1-8H3,(H,47,48)/t21-,23-,24-,25-,26+,27-,28-,29-,30+,31+,32+,33-,34-,38-,39+,40+,41-/m0/s1

> <PUBCHEM_IUPAC_INCHIKEY>
IBAJNOZMACNWJD-HVUPOBLPSA-N

> <PUBCHEM_XLOGP3_AA>
4.9

> <PUBCHEM_EXACT_MASS>
734.460513

> <PUBCHEM_MOLECULAR_FORMULA>
C41H66O11

> <PUBCHEM_MOLECULAR_WEIGHT>
734.95614

> <PUBCHEM_OPENEYE_CAN_SMILES>
CC1C(C(C(C(O1)OC2C(C(COC2OC3CCC4(C(C3(C)C)CCC5(C4CC=C6C5(CCC7(C6CC(CC7)(C)C)C(=O)O)C)C)C)O)O)O)O)O

> <PUBCHEM_OPENEYE_ISO_SMILES>
C[C@H]1[C@@H]([C@H]([C@H]([C@@H](O1)O[C@@H]2[C@H]([C@H](CO[C@H]2O[C@H]3CC[C@]4([C@H](C3(C)C)CC[C@@]5([C@@H]4CC=C6[C@]5(CC[C@@]7([C@H]6CC(CC7)(C)C)C(=O)O)C)C)C)O)O)O)O)O

> <PUBCHEM_CACTVS_TPSA>
175

> <PUBCHEM_MONOISOTOPIC_WEIGHT>
734.460513

> <PUBCHEM_TOTAL_CHARGE>
0

> <PUBCHEM_HEAVY_ATOM_COUNT>
52

> <PUBCHEM_ATOM_DEF_STEREO_COUNT>
17

> <PUBCHEM_ATOM_UDEF_STEREO_COUNT>
0

> <PUBCHEM_BOND_DEF_STEREO_COUNT>
0

> <PUBCHEM_BOND_UDEF_STEREO_COUNT>
0

> <PUBCHEM_ISOTOPIC_ATOM_COUNT>
0

> <PUBCHEM_COMPONENT_COUNT>
1

> <PUBCHEM_CACTVS_TAUTO_COUNT>
1

> <PUBCHEM_COORDINATE_TYPE>
1
5
255

> <PUBCHEM_BONDANNOTATIONS>
27  1  5
42  1  6
49  10  5
51  11  6
12  26  5
13  53  6
14  29  5
15  32  6
16  54  6
23  63  5
25  39  5
43  5  5
47  5  6
50  52  5
44  6  6
46  7  6
48  9  5

$$$$

