5281559
  -OEChem-07051212583D

 27 28  0     0  0  0  0  0  0999 V2000
   -0.6910   -1.2773    0.2191 O   0  0  0  0  0  0  0  0  0  0  0  0
    3.6093   -1.2183   -0.2596 O   0  0  0  0  0  0  0  0  0  0  0  0
    1.1039   -2.7160   -0.0017 O   0  0  0  0  0  0  0  0  0  0  0  0
    0.5144    0.7121    0.1141 C   0  0  0  0  0  0  0  0  0  0  0  0
   -0.7906    0.1208    0.2509 C   0  0  0  0  0  0  0  0  0  0  0  0
   -3.2812    0.0581    0.5277 C   0  0  0  0  0  0  0  0  0  0  0  0
    1.3909   -0.3453    0.0011 C   0  0  0  0  0  0  0  0  0  0  0  0
   -1.9585    0.7543    0.3905 C   0  0  0  0  0  0  0  0  0  0  0  0
   -4.2534    0.4903   -0.5703 C   0  0  0  0  0  0  0  0  0  0  0  0
    0.9772    2.0159    0.0813 C   0  0  0  0  0  0  0  0  0  0  0  0
    0.6401   -1.5935    0.0664 C   0  0  0  0  0  0  0  0  0  0  0  0
    2.7551   -0.1714   -0.1490 C   0  0  0  0  0  0  0  0  0  0  0  0
   -5.6035   -0.1930   -0.4181 C   0  0  0  0  0  0  0  0  0  0  0  0
    2.3522    2.2253   -0.0690 C   0  0  0  0  0  0  0  0  0  0  0  0
    3.2352    1.1382   -0.1834 C   0  0  0  0  0  0  0  0  0  0  0  0
   -3.1688   -1.0320    0.5075 H   0  0  0  0  0  0  0  0  0  0  0  0
   -3.7008    0.3123    1.5088 H   0  0  0  0  0  0  0  0  0  0  0  0
   -1.9824    1.8412    0.4202 H   0  0  0  0  0  0  0  0  0  0  0  0
   -3.8376    0.2475   -1.5558 H   0  0  0  0  0  0  0  0  0  0  0  0
   -4.3979    1.5772   -0.5408 H   0  0  0  0  0  0  0  0  0  0  0  0
    0.3042    2.8621    0.1685 H   0  0  0  0  0  0  0  0  0  0  0  0
   -5.5018   -1.2812   -0.4801 H   0  0  0  0  0  0  0  0  0  0  0  0
   -6.2834    0.1301   -1.2126 H   0  0  0  0  0  0  0  0  0  0  0  0
   -6.0627    0.0555    0.5440 H   0  0  0  0  0  0  0  0  0  0  0  0
    2.7427    3.2390   -0.0978 H   0  0  0  0  0  0  0  0  0  0  0  0
    4.2982    1.3344   -0.2991 H   0  0  0  0  0  0  0  0  0  0  0  0
    4.5154   -0.8779   -0.3559 H   0  0  0  0  0  0  0  0  0  0  0  0
  1  5  1  0  0  0  0
  1 11  1  0  0  0  0
  2 12  1  0  0  0  0
  2 27  1  0  0  0  0
  3 11  2  0  0  0  0
  4  5  1  0  0  0  0
  4  7  2  0  0  0  0
  4 10  1  0  0  0  0
  5  8  2  0  0  0  0
  6  8  1  0  0  0  0
  6  9  1  0  0  0  0
  6 16  1  0  0  0  0
  6 17  1  0  0  0  0
  7 11  1  0  0  0  0
  7 12  1  0  0  0  0
  8 18  1  0  0  0  0
  9 13  1  0  0  0  0
  9 19  1  0  0  0  0
  9 20  1  0  0  0  0
 10 14  2  0  0  0  0
 10 21  1  0  0  0  0
 12 15  2  0  0  0  0
 13 22  1  0  0  0  0
 13 23  1  0  0  0  0
 13 24  1  0  0  0  0
 14 15  1  0  0  0  0
 14 25  1  0  0  0  0
 15 26  1  0  0  0  0
M  END
> <PUBCHEM_COMPOUND_CID>
5281559

> <PUBCHEM_CONFORMER_RMSD>
0.6

> <PUBCHEM_CONFORMER_DIVERSEORDER>
1
5
3
4
2

> <PUBCHEM_MMFF94_PARTIAL_CHARGES>
18
1 -0.23
10 -0.15
11 0.63
12 0.08
14 -0.15
15 -0.15
18 0.15
2 -0.53
21 0.15
25 0.15
26 0.15
27 0.45
3 -0.57
4 0.03
5 0.05
6 0.14
7 0.09
8 -0.29

> <PUBCHEM_EFFECTIVE_ROTOR_COUNT>
2.2

> <PUBCHEM_PHARMACOPHORE_FEATURES>
5
1 13 hydrophobe
1 2 donor
1 3 acceptor
5 1 4 5 7 11 rings
6 4 7 10 12 14 15 rings

> <PUBCHEM_HEAVY_ATOM_COUNT>
15

> <PUBCHEM_ATOM_DEF_STEREO_COUNT>
0

> <PUBCHEM_ATOM_UDEF_STEREO_COUNT>
0

> <PUBCHEM_BOND_DEF_STEREO_COUNT>
1

> <PUBCHEM_BOND_UDEF_STEREO_COUNT>
0

> <PUBCHEM_ISOTOPIC_ATOM_COUNT>
0

> <PUBCHEM_COMPONENT_COUNT>
1

> <PUBCHEM_CACTVS_TAUTO_COUNT>
4

> <PUBCHEM_CONFORMER_ID>
0050971700000001

> <PUBCHEM_MMFF94_ENERGY>
31.3581

> <PUBCHEM_FEATURE_SELFOVERLAP>
25.459

> <PUBCHEM_SHAPE_FINGERPRINT>
10219947 1 18412257346128101800
10693767 8 18114743862028583246
10967382 1 18410570678327430576
11471102 20 18411419513983318645
12654215 9 18343023319456885028
12730499 353 18272647953262479659
13380535 76 18413107230051389899
13836976 161 18409449167998477679
13862211 1 18338797948375718098
14251717 144 18409449197846860063
14415576 193 18343018891651662109
14576447 43 18188221927006254759
14897335 6 18336266725951565504
14911166 2 18410846673031262854
14993402 34 18409158914013661572
15442244 35 17976536440470681257
15477762 27 18335984263311679415
16945 1 18338504344030925456
18186145 218 18334845096140180513
193761 8 17977660914548270386
200 152 18187086165748914217
20606313 2 18411418405823857420
20645477 70 18409729577818134311
21639500 275 18410302388895219397
221490 88 18339917117810221755
22289505 5 18270411619341457309
2334 1 18194113010990627178
23402539 116 18114465668358614044
23402655 69 18335423474127858181
23557571 272 14201386205795227297
23558518 356 17624702249782072474
25 1 18413392020684642269
2748010 2 18195231244438875162
29717793 49 17749392598581235757
3060560 45 18410013234237265966
3071541 37 18342453742310669918
33824 294 18412546504917239155
4072396 5 18271261489920394216
528886 8 18410293575732974416
602551 16 15068919503463181309
7364860 26 18408603699001038666
81539 233 18273496758283734815
8272917 22 18335415829201862463

> <PUBCHEM_SHAPE_MULTIPOLES>
291.09
7.83
2.13
0.68
11.73
0.51
0
-0.82
-1.5
-2.04
-0.01
0.24
-0.05
0.05

> <PUBCHEM_SHAPE_SELFOVERLAP>
626

> <PUBCHEM_SHAPE_VOLUME>
162.6

> <PUBCHEM_COORDINATE_TYPE>
2
5
10

$$$$

