248989
  -OEChem-07051213073D

 33 35  0     1  0  0  0  0  0999 V2000
   -0.3260    1.9497   -0.0037 O   0  0  0  0  0  0  0  0  0  0  0  0
   -6.2642   -0.4884   -0.1251 O   0  0  0  0  0  0  0  0  0  0  0  0
    6.4905    0.2374   -0.1500 O   0  5  0  0  0  0  0  0  0  0  0  0
    5.9106   -1.7324    0.6263 O   0  0  0  0  0  0  0  0  0  0  0  0
    5.6145   -0.6061    0.1591 N   0  3  0  0  0  0  0  0  0  0  0  0
    0.1212    0.7217   -0.5812 C   0  0  2  0  0  0  0  0  0  0  0  0
   -0.8053    0.7378    0.5932 C   0  0  2  0  0  0  0  0  0  0  0  0
    1.5572    0.3745   -0.3873 C   0  0  0  0  0  0  0  0  0  0  0  0
   -2.2373    0.4165    0.4041 C   0  0  0  0  0  0  0  0  0  0  0  0
    2.5489    1.2960   -0.7236 C   0  0  0  0  0  0  0  0  0  0  0  0
    1.9098   -0.8720    0.1300 C   0  0  0  0  0  0  0  0  0  0  0  0
   -3.2223    1.3596    0.7212 C   0  0  0  0  0  0  0  0  0  0  0  0
   -2.6223   -0.8346   -0.0930 C   0  0  0  0  0  0  0  0  0  0  0  0
    3.8933    0.9708   -0.5424 C   0  0  0  0  0  0  0  0  0  0  0  0
    3.2541   -1.1970    0.3112 C   0  0  0  0  0  0  0  0  0  0  0  0
   -4.5721    1.0561    0.5440 C   0  0  0  0  0  0  0  0  0  0  0  0
   -3.9722   -1.1378   -0.2703 C   0  0  0  0  0  0  0  0  0  0  0  0
    4.2459   -0.2757   -0.0250 C   0  0  0  0  0  0  0  0  0  0  0  0
   -4.9472   -0.1926    0.0482 C   0  0  0  0  0  0  0  0  0  0  0  0
   -6.5773   -1.7834   -0.6358 C   0  0  0  0  0  0  0  0  0  0  0  0
   -0.2965    0.4766   -1.5536 H   0  0  0  0  0  0  0  0  0  0  0  0
   -0.3902    0.4985    1.5682 H   0  0  0  0  0  0  0  0  0  0  0  0
    2.2866    2.2694   -1.1299 H   0  0  0  0  0  0  0  0  0  0  0  0
    1.1461   -1.5995    0.3927 H   0  0  0  0  0  0  0  0  0  0  0  0
   -2.9448    2.3359    1.1108 H   0  0  0  0  0  0  0  0  0  0  0  0
   -1.8725   -1.5816   -0.3421 H   0  0  0  0  0  0  0  0  0  0  0  0
    4.6386    1.7133   -0.8159 H   0  0  0  0  0  0  0  0  0  0  0  0
    3.4916   -2.1776    0.7159 H   0  0  0  0  0  0  0  0  0  0  0  0
   -5.3271    1.7963    0.7943 H   0  0  0  0  0  0  0  0  0  0  0  0
   -4.1932   -2.1262   -0.6585 H   0  0  0  0  0  0  0  0  0  0  0  0
   -6.1797   -1.9242   -1.6467 H   0  0  0  0  0  0  0  0  0  0  0  0
   -7.6678   -1.8467   -0.7097 H   0  0  0  0  0  0  0  0  0  0  0  0
   -6.2570   -2.5748    0.0503 H   0  0  0  0  0  0  0  0  0  0  0  0
  1  6  1  0  0  0  0
  1  7  1  0  0  0  0
  2 19  1  0  0  0  0
  2 20  1  0  0  0  0
  3  5  1  0  0  0  0
  4  5  2  0  0  0  0
  5 18  1  0  0  0  0
  6  7  1  0  0  0  0
  6  8  1  0  0  0  0
  6 21  1  0  0  0  0
  7  9  1  0  0  0  0
  7 22  1  0  0  0  0
  8 10  2  0  0  0  0
  8 11  1  0  0  0  0
  9 12  2  0  0  0  0
  9 13  1  0  0  0  0
 10 14  1  0  0  0  0
 10 23  1  0  0  0  0
 11 15  2  0  0  0  0
 11 24  1  0  0  0  0
 12 16  1  0  0  0  0
 12 25  1  0  0  0  0
 13 17  2  0  0  0  0
 13 26  1  0  0  0  0
 14 18  2  0  0  0  0
 14 27  1  0  0  0  0
 15 18  1  0  0  0  0
 15 28  1  0  0  0  0
 16 19  2  0  0  0  0
 16 29  1  0  0  0  0
 17 19  1  0  0  0  0
 17 30  1  0  0  0  0
 20 31  1  0  0  0  0
 20 32  1  0  0  0  0
 20 33  1  0  0  0  0
M  CHG  2   3  -1   5   1
M  END
> <PUBCHEM_COMPOUND_CID>
248989

> <PUBCHEM_CONFORMER_RMSD>
0.6

> <PUBCHEM_CONFORMER_DIVERSEORDER>
1
5
6
2
3
4

> <PUBCHEM_MMFF94_PARTIAL_CHARGES>
30
1 -0.3
10 -0.15
11 -0.15
12 -0.15
13 -0.15
14 -0.15
15 -0.15
16 -0.15
17 -0.15
18 0.13
19 0.08
2 -0.36
20 0.28
21 0.1
22 0.1
23 0.15
24 0.15
25 0.15
26 0.15
27 0.15
28 0.15
29 0.15
3 -0.52
30 0.15
4 -0.52
5 0.91
6 0.08
7 0.08
8 -0.03
9 -0.03

> <PUBCHEM_EFFECTIVE_ROTOR_COUNT>
4.6

> <PUBCHEM_PHARMACOPHORE_FEATURES>
7
1 1 acceptor
1 2 acceptor
1 3 acceptor
1 3 anion
1 4 acceptor
6 8 10 11 14 15 18 rings
6 9 12 13 16 17 19 rings

> <PUBCHEM_HEAVY_ATOM_COUNT>
20

> <PUBCHEM_ATOM_DEF_STEREO_COUNT>
2

> <PUBCHEM_ATOM_UDEF_STEREO_COUNT>
0

> <PUBCHEM_BOND_DEF_STEREO_COUNT>
0

> <PUBCHEM_BOND_UDEF_STEREO_COUNT>
0

> <PUBCHEM_ISOTOPIC_ATOM_COUNT>
0

> <PUBCHEM_COMPONENT_COUNT>
1

> <PUBCHEM_CACTVS_TAUTO_COUNT>
1

> <PUBCHEM_CONFORMER_ID>
0003CC9D00000001

> <PUBCHEM_MMFF94_ENERGY>
61.8939

> <PUBCHEM_FEATURE_SELFOVERLAP>
35.602

> <PUBCHEM_SHAPE_FINGERPRINT>
10 15 16660657245740930730
10595046 47 18410290311394448448
106641 1 16733272257091553450
10968037 39 18410854352453932335
11315181 36 18259982669936885225
12107183 9 17617091846880119865
12166972 35 18412261714047077385
12236239 1 18410572898530032504
12516196 113 18187085044092602121
12555020 224 17918274238574950131
13167823 11 18411417314891302891
13288520 33 18334576837558360021
13533116 47 18272654584565533850
13668630 136 18131350808523993043
13685833 64 18343298159020249459
13862211 1 18342176691540774682
14251752 14 18201446904351945997
14251764 18 18408601444127228093
15788980 27 18201996638047496913
17834072 33 18409446968621897781
17834072 8 15339120134754738485
17857418 61 18412263943134395955
18222031 100 17704071811605439884
18681886 176 18334860494135740760
19489759 90 17821727260669161153
200 152 18413389851852927108
20028762 73 18410014364357873330
20511986 3 18339374023194736473
20612939 158 17846492595716356788
20645477 70 18273214218012911342
21054139 6 18411703170888246907
21267235 1 18410004429870813347
22079108 93 17894922810924553368
22224240 67 14201399378808057605
23081809 10 18343574153281346524
23198884 109 14979961384813853863
23402539 116 18409731785616148645
23522609 53 18125689470740651996
23559900 14 18265339404772628961
26918003 58 17917704703988115080
29717793 49 18413385445063345132
3004659 81 18202568362529166883
3411729 13 17169562804969098400
34797466 226 16950555542076819556
351380 3 18412547617118869243
4073 2 17845366666145357978
4214541 1 18410572916211457849
4325135 7 18341610404867074732
439807 62 18198622130511738403
465052 167 18260825973273794102
5104073 3 18041834018209624577
559249 180 18410857689965274671
7495541 125 17821731602385381393
9971528 1 17775002354253124348

> <PUBCHEM_SHAPE_MULTIPOLES>
383.13
16.19
1.66
0.78
0.33
0.06
0.01
6.95
0.28
-0.5
-0.02
-0.06
-0.05
-1.46

> <PUBCHEM_SHAPE_SELFOVERLAP>
828.191

> <PUBCHEM_SHAPE_VOLUME>
211.8

> <PUBCHEM_COORDINATE_TYPE>
2
5
10

$$$$

