440339
  -OEChem-07051212492D

 72 74  0     1  0  0  0  0  0999 V2000
    7.7331   -0.8450    0.0000 O   0  0  0  0  0  0  0  0  0  0  0  0
    8.5991    0.6550    0.0000 O   0  0  0  0  0  0  0  0  0  0  0  0
    8.5991    2.6550    0.0000 O   0  0  0  0  0  0  0  0  0  0  0  0
    6.8671   -3.3450    0.0000 O   0  0  0  0  0  0  0  0  0  0  0  0
    5.1350   -3.3450    0.0000 O   0  0  0  0  0  0  0  0  0  0  0  0
    8.5991   -3.3450    0.0000 O   0  0  0  0  0  0  0  0  0  0  0  0
   10.3312   -2.3450    0.0000 O   0  0  0  0  0  0  0  0  0  0  0  0
   10.3312   -0.3450    0.0000 O   0  0  0  0  0  0  0  0  0  0  0  0
    6.0010    2.1550    0.0000 O   0  0  0  0  0  0  0  0  0  0  0  0
    6.0010    4.1550    0.0000 O   0  0  0  0  0  0  0  0  0  0  0  0
    6.8671   -5.3450    0.0000 O   0  0  0  0  0  0  0  0  0  0  0  0
    5.1350   -6.3450    0.0000 O   0  0  0  0  0  0  0  0  0  0  0  0
    9.4651    4.1550    0.0000 O   0  0  0  0  0  0  0  0  0  0  0  0
    3.4030   -5.3450    0.0000 O   0  0  0  0  0  0  0  0  0  0  0  0
    2.5369   -3.8450    0.0000 O   0  0  0  0  0  0  0  0  0  0  0  0
    9.4651    5.1550    0.0000 O   0  0  0  0  0  0  0  0  0  0  0  0
    7.7331    5.1550    0.0000 N   0  0  0  0  0  0  0  0  0  0  0  0
    7.7331   -1.8450    0.0000 C   0  0  1  0  0  0  0  0  0  0  0  0
    8.5991   -2.3450    0.0000 C   0  0  1  0  0  0  0  0  0  0  0  0
    9.4651   -1.8450    0.0000 C   0  0  1  0  0  0  0  0  0  0  0  0
    9.4651   -0.8450    0.0000 C   0  0  2  0  0  0  0  0  0  0  0  0
    7.7331    2.1550    0.0000 C   0  0  1  0  0  0  0  0  0  0  0  0
    8.5991   -0.3450    0.0000 C   0  0  1  0  0  0  0  0  0  0  0  0
    6.8671    2.6550    0.0000 C   0  0  2  0  0  0  0  0  0  0  0  0
    6.8671    3.6550    0.0000 C   0  0  1  0  0  0  0  0  0  0  0  0
    7.7331    4.1550    0.0000 C   0  0  2  0  0  0  0  0  0  0  0  0
    6.8671   -2.3450    0.0000 C   0  0  0  0  0  0  0  0  0  0  0  0
    6.0010   -3.8450    0.0000 C   0  0  1  0  0  0  0  0  0  0  0  0
    6.0010   -4.8450    0.0000 C   0  0  1  0  0  0  0  0  0  0  0  0
    7.7331    1.1550    0.0000 C   0  0  0  0  0  0  0  0  0  0  0  0
    5.1350   -5.3450    0.0000 C   0  0  2  0  0  0  0  0  0  0  0  0
    8.5991    3.6550    0.0000 C   0  0  1  0  0  0  0  0  0  0  0  0
    4.2690   -4.8450    0.0000 C   0  0  2  0  0  0  0  0  0  0  0  0
    4.2690   -3.8450    0.0000 C   0  0  1  0  0  0  0  0  0  0  0  0
    3.4030   -3.3450    0.0000 C   0  0  0  0  0  0  0  0  0  0  0  0
    8.5991    5.6550    0.0000 C   0  0  0  0  0  0  0  0  0  0  0  0
    8.5991    6.6550    0.0000 C   0  0  0  0  0  0  0  0  0  0  0  0
    7.1962   -1.5350    0.0000 H   0  0  0  0  0  0  0  0  0  0  0  0
    8.0622   -2.6550    0.0000 H   0  0  0  0  0  0  0  0  0  0  0  0
   10.0021   -1.5350    0.0000 H   0  0  0  0  0  0  0  0  0  0  0  0
   10.0021   -1.1550    0.0000 H   0  0  0  0  0  0  0  0  0  0  0  0
    8.2700    1.8450    0.0000 H   0  0  0  0  0  0  0  0  0  0  0  0
    8.0622   -0.0350    0.0000 H   0  0  0  0  0  0  0  0  0  0  0  0
    6.3301    2.9650    0.0000 H   0  0  0  0  0  0  0  0  0  0  0  0
    6.3301    3.3450    0.0000 H   0  0  0  0  0  0  0  0  0  0  0  0
    8.2700    4.4650    0.0000 H   0  0  0  0  0  0  0  0  0  0  0  0
    6.6550   -1.7624    0.0000 H   0  0  0  0  0  0  0  0  0  0  0  0
    6.2565   -2.4527    0.0000 H   0  0  0  0  0  0  0  0  0  0  0  0
    6.5380   -4.1550    0.0000 H   0  0  0  0  0  0  0  0  0  0  0  0
    6.5380   -4.5350    0.0000 H   0  0  0  0  0  0  0  0  0  0  0  0
    7.1225    1.2627    0.0000 H   0  0  0  0  0  0  0  0  0  0  0  0
    7.5210    0.5724    0.0000 H   0  0  0  0  0  0  0  0  0  0  0  0
    5.6720   -5.6550    0.0000 H   0  0  0  0  0  0  0  0  0  0  0  0
    8.5991    4.2750    0.0000 H   0  0  0  0  0  0  0  0  0  0  0  0
    4.2690   -5.4650    0.0000 H   0  0  0  0  0  0  0  0  0  0  0  0
    4.2690   -3.2250    0.0000 H   0  0  0  0  0  0  0  0  0  0  0  0
    7.1962    5.4650    0.0000 H   0  0  0  0  0  0  0  0  0  0  0  0
    3.8015   -2.8700    0.0000 H   0  0  0  0  0  0  0  0  0  0  0  0
    3.0044   -2.8700    0.0000 H   0  0  0  0  0  0  0  0  0  0  0  0
    9.1360   -3.6550    0.0000 H   0  0  0  0  0  0  0  0  0  0  0  0
   10.3312   -2.9650    0.0000 H   0  0  0  0  0  0  0  0  0  0  0  0
   10.8681   -0.6550    0.0000 H   0  0  0  0  0  0  0  0  0  0  0  0
    6.0010    1.5350    0.0000 H   0  0  0  0  0  0  0  0  0  0  0  0
    5.4641    3.8450    0.0000 H   0  0  0  0  0  0  0  0  0  0  0  0
    6.8671   -5.9650    0.0000 H   0  0  0  0  0  0  0  0  0  0  0  0
    4.5981   -6.6550    0.0000 H   0  0  0  0  0  0  0  0  0  0  0  0
   10.0021    3.8450    0.0000 H   0  0  0  0  0  0  0  0  0  0  0  0
    3.4030   -5.9650    0.0000 H   0  0  0  0  0  0  0  0  0  0  0  0
    2.0000   -3.5350    0.0000 H   0  0  0  0  0  0  0  0  0  0  0  0
    9.2191    6.6550    0.0000 H   0  0  0  0  0  0  0  0  0  0  0  0
    8.5991    7.2750    0.0000 H   0  0  0  0  0  0  0  0  0  0  0  0
    7.9791    6.6550    0.0000 H   0  0  0  0  0  0  0  0  0  0  0  0
  1 18  1  0  0  0  0
  1 23  1  0  0  0  0
 23  2  1  1  0  0  0
  2 30  1  0  0  0  0
  3 22  1  0  0  0  0
  3 32  1  0  0  0  0
  4 27  1  0  0  0  0
 28  4  1  6  0  0  0
  5 28  1  0  0  0  0
  5 34  1  0  0  0  0
 19  6  1  1  0  0  0
  6 60  1  0  0  0  0
 20  7  1  1  0  0  0
  7 61  1  0  0  0  0
 21  8  1  6  0  0  0
  8 62  1  0  0  0  0
 24  9  1  1  0  0  0
  9 63  1  0  0  0  0
 25 10  1  6  0  0  0
 10 64  1  0  0  0  0
 29 11  1  6  0  0  0
 11 65  1  0  0  0  0
 31 12  1  1  0  0  0
 12 66  1  0  0  0  0
 32 13  1  6  0  0  0
 13 67  1  0  0  0  0
 33 14  1  1  0  0  0
 14 68  1  0  0  0  0
 15 35  1  0  0  0  0
 15 69  1  0  0  0  0
 16 36  2  0  0  0  0
 26 17  1  1  0  0  0
 17 36  1  0  0  0  0
 17 57  1  0  0  0  0
 18 19  1  0  0  0  0
 18 27  1  1  0  0  0
 18 38  1  0  0  0  0
 19 20  1  0  0  0  0
 19 39  1  0  0  0  0
 20 21  1  0  0  0  0
 20 40  1  0  0  0  0
 21 23  1  0  0  0  0
 21 41  1  0  0  0  0
 22 24  1  0  0  0  0
 22 30  1  6  0  0  0
 22 42  1  0  0  0  0
 23 43  1  0  0  0  0
 24 25  1  0  0  0  0
 24 44  1  0  0  0  0
 25 26  1  0  0  0  0
 25 45  1  0  0  0  0
 26 32  1  0  0  0  0
 26 46  1  0  0  0  0
 27 47  1  0  0  0  0
 27 48  1  0  0  0  0
 28 29  1  0  0  0  0
 28 49  1  0  0  0  0
 29 31  1  0  0  0  0
 29 50  1  0  0  0  0
 30 51  1  0  0  0  0
 30 52  1  0  0  0  0
 31 33  1  0  0  0  0
 31 53  1  0  0  0  0
 32 54  1  0  0  0  0
 33 34  1  0  0  0  0
 33 55  1  0  0  0  0
 34 35  1  1  0  0  0
 34 56  1  0  0  0  0
 35 58  1  0  0  0  0
 35 59  1  0  0  0  0
 36 37  1  0  0  0  0
 37 70  1  0  0  0  0
 37 71  1  0  0  0  0
 37 72  1  0  0  0  0
M  END
> <PUBCHEM_COMPOUND_CID>
440339

> <PUBCHEM_COMPOUND_CANONICALIZED>
1

> <PUBCHEM_CACTVS_COMPLEXITY>
747

> <PUBCHEM_CACTVS_HBOND_ACCEPTOR>
16

> <PUBCHEM_CACTVS_HBOND_DONOR>
11

> <PUBCHEM_CACTVS_ROTATABLE_BOND>
8

> <PUBCHEM_CACTVS_SUBSKEYS>
AAADcfB6PgAAAAAAAAAAAAAAAAAAAAAAAAAkSJAAAAAAAAAAAAAAHgAQCAAACDzxgAcCCALABgAIAAEQEAAAAAAAAAAAAIAIAAATEAIAgAAnQAAHFgCXAAHwcA8AAAAAAAAAAAAAAAAAAAAAAAAAAAAAAA==

> <PUBCHEM_IUPAC_OPENEYE_NAME>
N-[(2R,3R,4R,5S,6R)-2,4,5-trihydroxy-6-[[(2R,3R,4S,5R,6R)-3,4,5-trihydroxy-6-[[(2S,3R,4S,5R,6R)-3,4,5-trihydroxy-6-(hydroxymethyl)tetrahydropyran-2-yl]oxymethyl]tetrahydropyran-2-yl]oxymethyl]tetrahydropyran-3-yl]acetamide

> <PUBCHEM_IUPAC_CAS_NAME>
N-[(2R,3R,4R,5S,6R)-2,4,5-trihydroxy-6-[[(2R,3R,4S,5R,6R)-3,4,5-trihydroxy-6-[[(2S,3R,4S,5R,6R)-3,4,5-trihydroxy-6-(hydroxymethyl)-2-oxanyl]oxymethyl]-2-oxanyl]oxymethyl]-3-oxanyl]acetamide

> <PUBCHEM_IUPAC_NAME>
N-[(2R,3R,4R,5S,6R)-2,4,5-trihydroxy-6-[[(2R,3R,4S,5R,6R)-3,4,5-trihydroxy-6-[[(2S,3R,4S,5R,6R)-3,4,5-trihydroxy-6-(hydroxymethyl)oxan-2-yl]oxymethyl]oxan-2-yl]oxymethyl]oxan-3-yl]acetamide

> <PUBCHEM_IUPAC_SYSTEMATIC_NAME>
N-[(2R,3R,4R,5S,6R)-6-[[(2R,3R,4S,5R,6R)-6-[[(2S,3R,4S,5R,6R)-6-(hydroxymethyl)-3,4,5-tris(oxidanyl)oxan-2-yl]oxymethyl]-3,4,5-tris(oxidanyl)oxan-2-yl]oxymethyl]-2,4,5-tris(oxidanyl)oxan-3-yl]ethanamide

> <PUBCHEM_IUPAC_TRADITIONAL_NAME>
N-[(2R,3R,4R,5S,6R)-2,4,5-trihydroxy-6-[[(2R,3R,4S,5R,6R)-3,4,5-trihydroxy-6-[[(2S,3R,4S,5R,6R)-3,4,5-trihydroxy-6-methylol-tetrahydropyran-2-yl]oxymethyl]tetrahydropyran-2-yl]oxymethyl]tetrahydropyran-3-yl]acetamide

> <PUBCHEM_IUPAC_INCHI>
InChI=1S/C20H35NO16/c1-5(23)21-9-13(27)11(25)7(35-18(9)32)3-33-20-17(31)15(29)12(26)8(37-20)4-34-19-16(30)14(28)10(24)6(2-22)36-19/h6-20,22,24-32H,2-4H2,1H3,(H,21,23)/t6-,7-,8-,9-,10+,11-,12+,13-,14+,15+,16-,17-,18-,19+,20-/m1/s1

> <PUBCHEM_IUPAC_INCHIKEY>
DOTQRWNRHKNWIL-MOBJFDSMSA-N

> <PUBCHEM_XLOGP3_AA>
-6.9

> <PUBCHEM_EXACT_MASS>
545.195584

> <PUBCHEM_MOLECULAR_FORMULA>
C20H35NO16

> <PUBCHEM_MOLECULAR_WEIGHT>
545.489

> <PUBCHEM_OPENEYE_CAN_SMILES>
CC(=O)NC1C(C(C(OC1O)COC2C(C(C(C(O2)COC3C(C(C(C(O3)CO)O)O)O)O)O)O)O)O

> <PUBCHEM_OPENEYE_ISO_SMILES>
CC(=O)N[C@@H]1[C@H]([C@@H]([C@H](O[C@H]1O)CO[C@H]2[C@@H]([C@H]([C@H]([C@H](O2)CO[C@@H]3[C@@H]([C@H]([C@H]([C@H](O3)CO)O)O)O)O)O)O)O)O

> <PUBCHEM_CACTVS_TPSA>
278

> <PUBCHEM_MONOISOTOPIC_WEIGHT>
545.195584

> <PUBCHEM_TOTAL_CHARGE>
0

> <PUBCHEM_HEAVY_ATOM_COUNT>
37

> <PUBCHEM_ATOM_DEF_STEREO_COUNT>
15

> <PUBCHEM_ATOM_UDEF_STEREO_COUNT>
0

> <PUBCHEM_BOND_DEF_STEREO_COUNT>
0

> <PUBCHEM_BOND_UDEF_STEREO_COUNT>
0

> <PUBCHEM_ISOTOPIC_ATOM_COUNT>
0

> <PUBCHEM_COMPONENT_COUNT>
1

> <PUBCHEM_CACTVS_TAUTO_COUNT>
2

> <PUBCHEM_COORDINATE_TYPE>
1
5
255

> <PUBCHEM_BONDANNOTATIONS>
25  10  6
29  11  6
31  12  5
32  13  6
33  14  5
26  17  5
18  27  5
23  2  5
22  30  6
34  35  5
28  4  6
19  6  5
20  7  5
21  8  6
24  9  5

$$$$

