5281293
  -OEChem-07051212563D

 31 34  0     0  0  0  0  0  0999 V2000
   -0.5809    0.6264    0.0026 O   0  0  0  0  0  0  0  0  0  0  0  0
    3.5451   -1.7370   -0.0050 O   0  0  0  0  0  0  0  0  0  0  0  0
    4.8534    0.2896    0.0021 O   0  0  0  0  0  0  0  0  0  0  0  0
    3.6851    2.9271    0.0119 O   0  0  0  0  0  0  0  0  0  0  0  0
    0.4960   -2.7490   -0.0083 O   0  0  0  0  0  0  0  0  0  0  0  0
    1.4143   -0.5348   -0.0015 C   0  0  0  0  0  0  0  0  0  0  0  0
    2.7754   -0.6238   -0.0015 C   0  0  0  0  0  0  0  0  0  0  0  0
    0.7936    0.7145    0.0028 C   0  0  0  0  0  0  0  0  0  0  0  0
    3.5132    0.5390    0.0024 C   0  0  0  0  0  0  0  0  0  0  0  0
    0.3682   -1.5461   -0.0046 C   0  0  0  0  0  0  0  0  0  0  0  0
   -0.8727   -0.7333   -0.0019 C   0  0  0  0  0  0  0  0  0  0  0  0
    1.5263    1.8935    0.0068 C   0  0  0  0  0  0  0  0  0  0  0  0
    2.9246    1.8019    0.0067 C   0  0  0  0  0  0  0  0  0  0  0  0
    4.8648   -1.1540   -0.0038 C   0  0  0  0  0  0  0  0  0  0  0  0
   -2.1054   -1.2428   -0.0056 C   0  0  0  0  0  0  0  0  0  0  0  0
   -3.3608   -0.4689   -0.0031 C   0  0  0  0  0  0  0  0  0  0  0  0
   -3.9503   -0.1386    1.2058 C   0  0  0  0  0  0  0  0  0  0  0  0
   -3.9239   -0.0878   -1.2094 C   0  0  0  0  0  0  0  0  0  0  0  0
   -5.1374    0.5938    1.2084 C   0  0  0  0  0  0  0  0  0  0  0  0
   -5.1109    0.6448   -1.2069 C   0  0  0  0  0  0  0  0  0  0  0  0
   -5.7177    0.9855    0.0020 C   0  0  0  0  0  0  0  0  0  0  0  0
    1.0242    2.8554    0.0104 H   0  0  0  0  0  0  0  0  0  0  0  0
    5.4006   -1.4965   -0.8966 H   0  0  0  0  0  0  0  0  0  0  0  0
    5.4021   -1.5037    0.8852 H   0  0  0  0  0  0  0  0  0  0  0  0
   -2.2465   -2.3213   -0.0087 H   0  0  0  0  0  0  0  0  0  0  0  0
    3.0981    3.7028    0.0147 H   0  0  0  0  0  0  0  0  0  0  0  0
   -3.5076   -0.4383    2.1520 H   0  0  0  0  0  0  0  0  0  0  0  0
   -3.4608   -0.3475   -2.1576 H   0  0  0  0  0  0  0  0  0  0  0  0
   -5.6099    0.8591    2.1496 H   0  0  0  0  0  0  0  0  0  0  0  0
   -5.5629    0.9499   -2.1462 H   0  0  0  0  0  0  0  0  0  0  0  0
   -6.6419    1.5559    0.0039 H   0  0  0  0  0  0  0  0  0  0  0  0
  1  8  1  0  0  0  0
  1 11  1  0  0  0  0
  2  7  1  0  0  0  0
  2 14  1  0  0  0  0
  3  9  1  0  0  0  0
  3 14  1  0  0  0  0
  4 13  1  0  0  0  0
  4 26  1  0  0  0  0
  5 10  2  0  0  0  0
  6  7  1  0  0  0  0
  6  8  2  0  0  0  0
  6 10  1  0  0  0  0
  7  9  2  0  0  0  0
  8 12  1  0  0  0  0
  9 13  1  0  0  0  0
 10 11  1  0  0  0  0
 11 15  2  0  0  0  0
 12 13  2  0  0  0  0
 12 22  1  0  0  0  0
 14 23  1  0  0  0  0
 14 24  1  0  0  0  0
 15 16  1  0  0  0  0
 15 25  1  0  0  0  0
 16 17  2  0  0  0  0
 16 18  1  0  0  0  0
 17 19  1  0  0  0  0
 17 27  1  0  0  0  0
 18 20  2  0  0  0  0
 18 28  1  0  0  0  0
 19 21  2  0  0  0  0
 19 29  1  0  0  0  0
 20 21  1  0  0  0  0
 20 30  1  0  0  0  0
 21 31  1  0  0  0  0
M  END
> <PUBCHEM_COMPOUND_CID>
5281293

> <PUBCHEM_CONFORMER_RMSD>
0.6

> <PUBCHEM_CONFORMER_DIVERSEORDER>
1
2

> <PUBCHEM_MMFF94_PARTIAL_CHARGES>
29
1 -0.16
10 0.47
11 0.09
12 -0.15
13 0.08
14 0.56
15 -0.18
16 0.03
17 -0.15
18 -0.15
19 -0.15
2 -0.36
20 -0.15
21 -0.15
22 0.15
25 0.15
26 0.45
27 0.15
28 0.15
29 0.15
3 -0.36
30 0.15
31 0.15
4 -0.53
5 -0.57
6 0.09
7 0.08
8 0.08
9 0.08

> <PUBCHEM_EFFECTIVE_ROTOR_COUNT>
1.8

> <PUBCHEM_PHARMACOPHORE_FEATURES>
9
1 1 acceptor
1 2 acceptor
1 3 acceptor
1 4 donor
1 5 acceptor
5 1 6 8 10 11 rings
5 2 3 7 9 14 rings
6 16 17 18 19 20 21 rings
6 6 7 8 9 12 13 rings

> <PUBCHEM_HEAVY_ATOM_COUNT>
21

> <PUBCHEM_ATOM_DEF_STEREO_COUNT>
0

> <PUBCHEM_ATOM_UDEF_STEREO_COUNT>
0

> <PUBCHEM_BOND_DEF_STEREO_COUNT>
1

> <PUBCHEM_BOND_UDEF_STEREO_COUNT>
0

> <PUBCHEM_ISOTOPIC_ATOM_COUNT>
0

> <PUBCHEM_COMPONENT_COUNT>
1

> <PUBCHEM_CACTVS_TAUTO_COUNT>
5

> <PUBCHEM_CONFORMER_ID>
0050960D00000001

> <PUBCHEM_MMFF94_ENERGY>
63.0736

> <PUBCHEM_FEATURE_SELFOVERLAP>
45.922

> <PUBCHEM_SHAPE_FINGERPRINT>
10411042 1 17834113426539430670
10906281 52 18336251372250382966
11089746 13 17458628891398358280
11405975 8 18343022159789315731
11471102 20 18410295821858432286
11578080 2 13828405413319222692
11796584 16 14707201149574995980
12236239 1 17748829631073210063
12403259 415 18131914853910008477
12616971 3 18040711472598321409
13140716 1 18340201895221111850
13675066 3 17988921141776850747
14848178 96 18262523563509134601
15099037 51 18410013243006736782
15196674 1 18338517443628495527
15475509 8 17897981737945629412
15788980 27 18273215296381843127
1601671 61 18341612629027157014
17349148 13 17894345596699050155
18186145 218 18409444760982230015
19489759 90 15430037682077724011
19784866 9 18409164441620877483
200 152 18040439910411307057
20612939 158 18409731750686600637
20645477 70 18409166618916225222
20739085 24 18271513252176778932
20832881 197 18200877387203722642
21033648 144 18338527339180586957
21033648 29 17775016686722313445
21033650 10 15431133868947191315
21267235 1 18337663204508357050
21279426 13 18053949720876057951
21307412 95 17824235242767060166
21452121 103 18337401448254198800
21478907 32 17977947109889685798
21709351 56 18409735049659262735
221357 26 18339090371123742557
22182313 1 18058752272203629348
23402539 116 16877947161189785305
23402655 69 18260831453847132052
23557571 272 16773516685150453951
23559900 14 18333732382436791626
2838139 119 18266748055689139877
335352 9 18410573985906039926
34797466 226 14707212067724811705
34934 24 18337679612042979090
350125 39 18411979178688139908
4072396 5 18341064011427497714
474 4 18408602552603453875
495365 180 17749681679691540560
5104073 3 18341051804829411843
543358 83 18408322168637938172
602551 16 16056586622012203475
633830 44 18335704918533356831
8272917 22 18334572477312324406
90127 26 17918275337959983409
9971528 1 18113338639323674442
9981440 41 17104837737527102633
9999458 23 18273495671952629086

> <PUBCHEM_SHAPE_MULTIPOLES>
402.82
12.11
2.13
0.89
7.72
0.32
0
2.9
-0.04
-2.5
0
1.36
0.07
0.04

> <PUBCHEM_SHAPE_SELFOVERLAP>
917.792

> <PUBCHEM_SHAPE_VOLUME>
210.7

> <PUBCHEM_COORDINATE_TYPE>
2
5
10

$$$$

