23724672
  -OEChem-07051213083D

 60 63  0     1  0  0  0  0  0999 V2000
   -5.5957   -2.7025    0.8289 S   0  0  0  0  0  0  0  0  0  0  0  0
   -7.6027   -2.2849    0.8824 S   0  0  0  0  0  0  0  0  0  0  0  0
    3.5354   -3.4066   -0.4888 P   0  0  2  0  0  0  0  0  0  0  0  0
    2.8268    0.5781   -0.5135 O   0  0  0  0  0  0  0  0  0  0  0  0
    4.2994    3.3500    0.1511 O   0  0  0  0  0  0  0  0  0  0  0  0
    5.2545    1.5416    1.9537 O   0  0  0  0  0  0  0  0  0  0  0  0
    4.1639   -1.9163   -0.5480 O   0  0  0  0  0  0  0  0  0  0  0  0
    2.0360   -3.1630    0.0688 O   0  0  0  0  0  0  0  0  0  0  0  0
    4.2782   -4.0873    0.7773 O   0  0  0  0  0  0  0  0  0  0  0  0
    3.6108   -4.1996   -1.7614 O   0  0  0  0  0  0  0  0  0  0  0  0
    1.1899   -2.0354   -1.7350 O   0  0  0  0  0  0  0  0  0  0  0  0
    0.9869    1.9224    0.1513 N   0  0  0  0  0  0  0  0  0  0  0  0
   -0.8278    1.4972    1.3778 N   0  0  0  0  0  0  0  0  0  0  0  0
   -0.0279    3.1662   -1.6723 N   0  0  0  0  0  0  0  0  0  0  0  0
   -2.4393    3.3834   -1.3655 N   0  0  0  0  0  0  0  0  0  0  0  0
   -3.5824    2.4596    0.5232 N   0  0  0  0  0  0  0  0  0  0  0  0
    3.3318    2.5242    0.7969 C   0  0  2  0  0  0  0  0  0  0  0  0
    3.9782    1.2934    1.4046 C   0  0  1  0  0  0  0  0  0  0  0  0
    2.3932    1.9307   -0.2550 C   0  0  1  0  0  0  0  0  0  0  0  0
    4.0394    0.3434    0.2211 C   0  0  1  0  0  0  0  0  0  0  0  0
    4.1227   -1.1185    0.6220 C   0  0  0  0  0  0  0  0  0  0  0  0
   -0.0638    2.4890   -0.5148 C   0  0  0  0  0  0  0  0  0  0  0  0
    0.4759    1.3385    1.2815 C   0  0  0  0  0  0  0  0  0  0  0  0
   -5.0239   -1.0157    0.4572 C   0  0  1  0  0  0  0  0  0  0  0  0
   -1.1782    2.2147    0.2618 C   0  0  0  0  0  0  0  0  0  0  0  0
   -3.7620   -1.0499   -0.3914 C   0  0  0  0  0  0  0  0  0  0  0  0
   -2.6053   -1.7178    0.3519 C   0  0  0  0  0  0  0  0  0  0  0  0
   -6.1824   -0.3161   -0.2579 C   0  0  0  0  0  0  0  0  0  0  0  0
   -1.3483   -1.7804   -0.5166 C   0  0  0  0  0  0  0  0  0  0  0  0
   -7.4701   -0.5143    0.5329 C   0  0  0  0  0  0  0  0  0  0  0  0
   -0.2021   -2.4776    0.2136 C   0  0  0  0  0  0  0  0  0  0  0  0
   -2.4006    2.6905   -0.2019 C   0  0  0  0  0  0  0  0  0  0  0  0
    1.0573   -2.5125   -0.6174 C   0  0  0  0  0  0  0  0  0  0  0  0
   -1.2678    3.5753   -2.0188 C   0  0  0  0  0  0  0  0  0  0  0  0
    2.8356    3.1454    1.5495 H   0  0  0  0  0  0  0  0  0  0  0  0
    3.3373    0.8804    2.1911 H   0  0  0  0  0  0  0  0  0  0  0  0
    2.4546    2.4761   -1.2032 H   0  0  0  0  0  0  0  0  0  0  0  0
    4.8781    0.5854   -0.4445 H   0  0  0  0  0  0  0  0  0  0  0  0
    5.0309   -1.3099    1.2023 H   0  0  0  0  0  0  0  0  0  0  0  0
    3.2574   -1.3881    1.2357 H   0  0  0  0  0  0  0  0  0  0  0  0
    3.8226    4.0979   -0.2477 H   0  0  0  0  0  0  0  0  0  0  0  0
    5.1525    2.2368    2.6257 H   0  0  0  0  0  0  0  0  0  0  0  0
    1.0866    0.8034    1.9940 H   0  0  0  0  0  0  0  0  0  0  0  0
   -4.8205   -0.5098    1.4087 H   0  0  0  0  0  0  0  0  0  0  0  0
   -3.9489   -1.5798   -1.3349 H   0  0  0  0  0  0  0  0  0  0  0  0
   -3.4751   -0.0314   -0.6699 H   0  0  0  0  0  0  0  0  0  0  0  0
   -2.3879   -1.1590    1.2705 H   0  0  0  0  0  0  0  0  0  0  0  0
   -2.8562   -2.7407    0.6497 H   0  0  0  0  0  0  0  0  0  0  0  0
   -5.9733    0.7553   -0.3581 H   0  0  0  0  0  0  0  0  0  0  0  0
   -6.3038   -0.7013   -1.2800 H   0  0  0  0  0  0  0  0  0  0  0  0
   -1.0454   -0.7672   -0.8057 H   0  0  0  0  0  0  0  0  0  0  0  0
   -1.5681   -2.3180   -1.4475 H   0  0  0  0  0  0  0  0  0  0  0  0
   -7.4389    0.0370    1.4783 H   0  0  0  0  0  0  0  0  0  0  0  0
   -8.3412   -0.1743   -0.0344 H   0  0  0  0  0  0  0  0  0  0  0  0
   -0.4864   -3.5093    0.4486 H   0  0  0  0  0  0  0  0  0  0  0  0
    0.0212   -1.9473    1.1460 H   0  0  0  0  0  0  0  0  0  0  0  0
   -1.3360    4.1337   -2.9463 H   0  0  0  0  0  0  0  0  0  0  0  0
    5.1948   -4.4189    0.6672 H   0  0  0  0  0  0  0  0  0  0  0  0
   -4.4590    2.8118    0.1635 H   0  0  0  0  0  0  0  0  0  0  0  0
   -3.5574    1.9351    1.3871 H   0  0  0  0  0  0  0  0  0  0  0  0
  1  2  1  0  0  0  0
  1 24  1  0  0  0  0
  2 30  1  0  0  0  0
  3  7  1  0  0  0  0
  3  8  1  0  0  0  0
  3  9  1  0  0  0  0
  3 10  2  0  0  0  0
  4 19  1  0  0  0  0
  4 20  1  0  0  0  0
  5 17  1  0  0  0  0
  5 41  1  0  0  0  0
  6 18  1  0  0  0  0
  6 42  1  0  0  0  0
  7 21  1  0  0  0  0
  8 33  1  0  0  0  0
  9 58  1  0  0  0  0
 11 33  2  0  0  0  0
 12 19  1  0  0  0  0
 12 22  1  0  0  0  0
 12 23  1  0  0  0  0
 13 23  2  0  0  0  0
 13 25  1  0  0  0  0
 14 22  2  0  0  0  0
 14 34  1  0  0  0  0
 15 32  1  0  0  0  0
 15 34  2  0  0  0  0
 16 32  1  0  0  0  0
 16 59  1  0  0  0  0
 16 60  1  0  0  0  0
 17 18  1  0  0  0  0
 17 19  1  0  0  0  0
 17 35  1  0  0  0  0
 18 20  1  0  0  0  0
 18 36  1  0  0  0  0
 19 37  1  0  0  0  0
 20 21  1  0  0  0  0
 20 38  1  0  0  0  0
 21 39  1  0  0  0  0
 21 40  1  0  0  0  0
 22 25  1  0  0  0  0
 23 43  1  0  0  0  0
 24 26  1  0  0  0  0
 24 28  1  0  0  0  0
 24 44  1  0  0  0  0
 25 32  2  0  0  0  0
 26 27  1  0  0  0  0
 26 45  1  0  0  0  0
 26 46  1  0  0  0  0
 27 29  1  0  0  0  0
 27 47  1  0  0  0  0
 27 48  1  0  0  0  0
 28 30  1  0  0  0  0
 28 49  1  0  0  0  0
 28 50  1  0  0  0  0
 29 31  1  0  0  0  0
 29 51  1  0  0  0  0
 29 52  1  0  0  0  0
 30 53  1  0  0  0  0
 30 54  1  0  0  0  0
 31 33  1  0  0  0  0
 31 55  1  0  0  0  0
 31 56  1  0  0  0  0
 34 57  1  0  0  0  0
M  END
> <PUBCHEM_COMPOUND_CID>
23724672

> <PUBCHEM_CONFORMER_RMSD>
1.4

> <PUBCHEM_CONFORMER_DIVERSEORDER>
1
99
181
30
249
120
364
434
302
41
22
211
64
378
421
344
209
92
436
375
233
299
142
73
402
319
160
343
263
441
75
279
13
217
275
400
442
210
113
183
427
370
308
404
372
166
277
157
189
272
437
293
47
241
177
200
274
238
32
84
129
52
8
170
190
349
150
3
304
69
353
199
283
98
231
395
114
146
154
24
155
229
244
278
379
347
138
132
271
354
221
202
66
242
102
337
125
368
122
350
16
389
45
419
143
127
96
284
287
219
141
327
305
228
300
329
262
415
223
213
18
79
391
119
163
318
393
365
357
266
413
431
148
270
253
422
267
15
23
179
239
433
81
135
316
252
280
261
243
158
224
215
195
417
418
297
115
220
260
341
21
250
188
28
383
322
33
361
248
14
62
439
39
95
167
334
405
369
86
145
328
359
194
282
310
38
111
342
236
429
65
121
153
206
212
336
440
71
186
340
321
407
204
151
93
152
355
171
296
147
109
140
162
255
317
165
20
226
161
225
311
367
136
408
258
214
394
105
382
184
82
185
381
257
373
72
208
245
25
207
356
377
124
332
90
139
325
306
435
339
31
112
48
201
36
384
198
307
108
366
371
412
386
218
326
360
286
216
323
315
133
416
74
345
56
387
399
78
230
392
362
303
164
59
363
424
338
118
352
117
180
83
314
128
173
331
313
103
46
172
409
330
246
264
298
390
12
130
100
295
91
4
232
116
29
97
192
134
107
51
251
388
312
396
348
403
88
5
68
397
174
37
168
175
176
205
234
410
237
358
77
438
346
197
137
374
70
17
191
49
7
26
58
309
289
55
94
61
227
144
126
285
110
85
380
149
420
2
9
193
292
40
131
430
235
169
87
182
256
320
67
53
376
76
54
406
80
398
414
27
291
178
63
385
333
273
294
222
259
42
159
276
19
104
401
428
281
324
351
254
89
240
268
43
411
106
34
290
11
57
10
6
423
44
60
50
335
247
101
265
288
35
156
425
301
187
203
269
123
196
426
432

> <PUBCHEM_MMFF94_PARTIAL_CHARGES>
37
1 -0.23
10 -0.7
11 -0.57
12 0.05
13 -0.57
14 -0.57
15 -0.62
16 -0.9
17 0.28
18 0.28
19 0.54
2 -0.23
20 0.28
21 0.28
22 0.11
23 0.04
24 0.23
25 0.23
3 1.51
30 0.23
31 0.06
32 0.41
33 0.66
34 0.47
4 -0.56
41 0.4
42 0.4
43 0.15
5 -0.68
57 0.15
58 0.5
59 0.4
6 -0.68
60 0.4
7 -0.55
8 -0.42
9 -0.77

> <PUBCHEM_EFFECTIVE_ROTOR_COUNT>
13

> <PUBCHEM_PHARMACOPHORE_FEATURES>
18
1 10 acceptor
1 11 acceptor
1 16 cation
1 16 donor
1 4 acceptor
1 5 acceptor
1 5 donor
1 6 acceptor
1 6 donor
1 9 acceptor
3 12 13 23 cation
3 12 14 22 cation
3 14 15 34 cation
4 26 27 29 31 hydrophobe
5 1 2 24 28 30 rings
5 12 13 22 23 25 rings
5 4 17 18 19 20 rings
6 14 15 22 25 32 34 rings

> <PUBCHEM_HEAVY_ATOM_COUNT>
34

> <PUBCHEM_ATOM_DEF_STEREO_COUNT>
4

> <PUBCHEM_ATOM_UDEF_STEREO_COUNT>
1

> <PUBCHEM_BOND_DEF_STEREO_COUNT>
0

> <PUBCHEM_BOND_UDEF_STEREO_COUNT>
0

> <PUBCHEM_ISOTOPIC_ATOM_COUNT>
0

> <PUBCHEM_COMPONENT_COUNT>
1

> <PUBCHEM_CACTVS_TAUTO_COUNT>
3

> <PUBCHEM_CONFORMER_ID>
016A028000000001

> <PUBCHEM_MMFF94_ENERGY>
40.4197

> <PUBCHEM_FEATURE_SELFOVERLAP>
91.967

> <PUBCHEM_SHAPE_FINGERPRINT>
10688039 33 18272931643872615847
10838868 158 17986937575941429459
10939801 23 18053102822093099904
11513181 2 18040155123456247151
12422481 6 18336535119080333305
12623949 98 18335975428421598501
131258 38 17914056657989886858
13402501 40 18339644447790371747
13561361 72 18341337780989746843
14725015 67 18342744064994669306
17093844 170 18338798905488423160
1979834 28 18336825277969258643
20721686 56 18411136927296225115
20775438 99 17764064580204481263
21197605 99 18336264552698354267
373842 8 18411978036463897787
4144715 1 18341883058145275891
463206 1 17905333179831273308
508706 21 18054519276499723596
5265222 85 17905882587389410980

> <PUBCHEM_SHAPE_MULTIPOLES>
639.39
14.44
5.98
1.42
23.65
1.19
-0.23
8.47
5.14
-4.61
-2.11
-0.81
-0.5
2.67

> <PUBCHEM_SHAPE_SELFOVERLAP>
1304.937

> <PUBCHEM_SHAPE_VOLUME>
372.8

> <PUBCHEM_COORDINATE_TYPE>
2
5
10

$$$$

