441426
  -OEChem-07051212542D

 44 45  0     1  0  0  0  0  0999 V2000
    4.2690    0.9050    0.0000 O   0  0  0  0  0  0  0  0  0  0  0  0
    6.0010    0.9050    0.0000 O   0  0  0  0  0  0  0  0  0  0  0  0
    5.1350   -1.5950    0.0000 O   0  0  0  0  0  0  0  0  0  0  0  0
    2.5369   -0.0950    0.0000 O   0  0  0  0  0  0  0  0  0  0  0  0
    4.2690    2.9050    0.0000 O   0  0  0  0  0  0  0  0  0  0  0  0
    2.5369   -2.0950    0.0000 O   0  0  0  0  0  0  0  0  0  0  0  0
    6.0010    3.9050    0.0000 O   0  0  0  0  0  0  0  0  0  0  0  0
    7.7331    2.9050    0.0000 O   0  0  0  0  0  0  0  0  0  0  0  0
    6.0010   -0.0950    0.0000 O   0  0  0  0  0  0  0  0  0  0  0  0
    5.1350   -3.5950    0.0000 O   0  0  0  0  0  0  0  0  0  0  0  0
    4.2690   -0.0950    0.0000 C   0  0  2  0  0  0  0  0  0  0  0  0
    3.4030   -0.5950    0.0000 C   0  0  2  0  0  0  0  0  0  0  0  0
    5.1350    1.4050    0.0000 C   0  0  2  0  0  0  0  0  0  0  0  0
    5.1350    2.4050    0.0000 C   0  0  1  0  0  0  0  0  0  0  0  0
    3.4030   -1.5950    0.0000 C   0  0  1  0  0  0  0  0  0  0  0  0
    6.0010    2.9050    0.0000 C   0  0  1  0  0  0  0  0  0  0  0  0
    6.8671    2.4050    0.0000 C   0  0  2  0  0  0  0  0  0  0  0  0
    4.2690   -2.0950    0.0000 C   0  0  1  0  0  0  0  0  0  0  0  0
    5.1350   -0.5950    0.0000 C   0  0  1  0  0  0  0  0  0  0  0  0
    6.8671    1.4050    0.0000 C   0  0  2  0  0  0  0  0  0  0  0  0
    4.2690   -3.0950    0.0000 C   0  0  0  0  0  0  0  0  0  0  0  0
    7.7331    0.9050    0.0000 C   0  0  0  0  0  0  0  0  0  0  0  0
    4.8059    0.2150    0.0000 H   0  0  0  0  0  0  0  0  0  0  0  0
    3.4030    0.0250    0.0000 H   0  0  0  0  0  0  0  0  0  0  0  0
    5.1350    0.7850    0.0000 H   0  0  0  0  0  0  0  0  0  0  0  0
    5.1350    3.0250    0.0000 H   0  0  0  0  0  0  0  0  0  0  0  0
    3.4030   -2.2150    0.0000 H   0  0  0  0  0  0  0  0  0  0  0  0
    6.5380    3.2150    0.0000 H   0  0  0  0  0  0  0  0  0  0  0  0
    7.4040    2.0950    0.0000 H   0  0  0  0  0  0  0  0  0  0  0  0
    4.8059   -2.4050    0.0000 H   0  0  0  0  0  0  0  0  0  0  0  0
    5.1350    0.0250    0.0000 H   0  0  0  0  0  0  0  0  0  0  0  0
    6.8671    0.7850    0.0000 H   0  0  0  0  0  0  0  0  0  0  0  0
    3.6584   -2.9873    0.0000 H   0  0  0  0  0  0  0  0  0  0  0  0
    4.0569   -3.6776    0.0000 H   0  0  0  0  0  0  0  0  0  0  0  0
    7.4231    0.3681    0.0000 H   0  0  0  0  0  0  0  0  0  0  0  0
    8.2700    0.5950    0.0000 H   0  0  0  0  0  0  0  0  0  0  0  0
    8.0431    1.4419    0.0000 H   0  0  0  0  0  0  0  0  0  0  0  0
    2.0000   -0.4050    0.0000 H   0  0  0  0  0  0  0  0  0  0  0  0
    4.2690    3.5250    0.0000 H   0  0  0  0  0  0  0  0  0  0  0  0
    2.5369   -2.7150    0.0000 H   0  0  0  0  0  0  0  0  0  0  0  0
    6.5380    4.2150    0.0000 H   0  0  0  0  0  0  0  0  0  0  0  0
    8.2700    2.5950    0.0000 H   0  0  0  0  0  0  0  0  0  0  0  0
    6.5380   -0.4050    0.0000 H   0  0  0  0  0  0  0  0  0  0  0  0
    5.1350   -4.2150    0.0000 H   0  0  0  0  0  0  0  0  0  0  0  0
 11  1  1  1  0  0  0
 13  1  1  1  0  0  0
  2 13  1  0  0  0  0
  2 20  1  0  0  0  0
  3 18  1  0  0  0  0
  3 19  1  0  0  0  0
 12  4  1  6  0  0  0
  4 38  1  0  0  0  0
 14  5  1  6  0  0  0
  5 39  1  0  0  0  0
 15  6  1  1  0  0  0
  6 40  1  0  0  0  0
 16  7  1  6  0  0  0
  7 41  1  0  0  0  0
 17  8  1  1  0  0  0
  8 42  1  0  0  0  0
 19  9  1  6  0  0  0
  9 43  1  0  0  0  0
 10 21  1  0  0  0  0
 10 44  1  0  0  0  0
 11 12  1  0  0  0  0
 11 19  1  0  0  0  0
 11 23  1  0  0  0  0
 12 15  1  0  0  0  0
 12 24  1  0  0  0  0
 13 14  1  0  0  0  0
 13 25  1  0  0  0  0
 14 16  1  0  0  0  0
 14 26  1  0  0  0  0
 15 18  1  0  0  0  0
 15 27  1  0  0  0  0
 16 17  1  0  0  0  0
 16 28  1  0  0  0  0
 17 20  1  0  0  0  0
 17 29  1  0  0  0  0
 18 21  1  6  0  0  0
 18 30  1  0  0  0  0
 19 31  1  0  0  0  0
 20 22  1  6  0  0  0
 20 32  1  0  0  0  0
 21 33  1  0  0  0  0
 21 34  1  0  0  0  0
 22 35  1  0  0  0  0
 22 36  1  0  0  0  0
 22 37  1  0  0  0  0
M  END
> <PUBCHEM_COMPOUND_CID>
441426

> <PUBCHEM_COMPOUND_CANONICALIZED>
1

> <PUBCHEM_CACTVS_COMPLEXITY>
368

> <PUBCHEM_CACTVS_HBOND_ACCEPTOR>
10

> <PUBCHEM_CACTVS_HBOND_DONOR>
7

> <PUBCHEM_CACTVS_ROTATABLE_BOND>
3

> <PUBCHEM_CACTVS_SUBSKEYS>
AAADceBwPAAAAAAAAAAAAAAAAAAAAAAAAAAkSAAAAAAAAAAAAAAAGgAACAAACBSwgAMCCAAABgAAAAAAAAAAAAAAAAAAAAAAAAAREAIAAAAiQAAFAAAHAAHAYAwAAAAAAAAAAAAAAAAAAAAAAAAAAAAAAA==

> <PUBCHEM_IUPAC_OPENEYE_NAME>
(2S,3R,4R,5R,6S)-2-methyl-6-[(2R,3R,4S,5S,6R)-2,4,5-trihydroxy-6-(hydroxymethyl)tetrahydropyran-3-yl]oxy-tetrahydropyran-3,4,5-triol

> <PUBCHEM_IUPAC_CAS_NAME>
(2S,3R,4R,5R,6S)-2-methyl-6-[[(2R,3R,4S,5S,6R)-2,4,5-trihydroxy-6-(hydroxymethyl)-3-oxanyl]oxy]oxane-3,4,5-triol

> <PUBCHEM_IUPAC_NAME>
(2S,3R,4R,5R,6S)-2-methyl-6-[(2R,3R,4S,5S,6R)-2,4,5-trihydroxy-6-(hydroxymethyl)oxan-3-yl]oxyoxane-3,4,5-triol

> <PUBCHEM_IUPAC_SYSTEMATIC_NAME>
(2S,3R,4R,5R,6S)-2-[(2R,3R,4S,5S,6R)-6-(hydroxymethyl)-2,4,5-tris(oxidanyl)oxan-3-yl]oxy-6-methyl-oxane-3,4,5-triol

> <PUBCHEM_IUPAC_TRADITIONAL_NAME>
(2S,3R,4R,5R,6S)-2-methyl-6-[(2R,3R,4S,5S,6R)-2,4,5-trihydroxy-6-methylol-tetrahydropyran-3-yl]oxy-tetrahydropyran-3,4,5-triol

> <PUBCHEM_IUPAC_INCHI>
InChI=1S/C12H22O10/c1-3-5(14)7(16)9(18)12(20-3)22-10-8(17)6(15)4(2-13)21-11(10)19/h3-19H,2H2,1H3/t3-,4+,5-,6+,7+,8-,9+,10+,11+,12-/m0/s1

> <PUBCHEM_IUPAC_INCHIKEY>
VSRVRBXGIRFARR-OUEGHFHCSA-N

> <PUBCHEM_XLOGP3_AA>
-3.7

> <PUBCHEM_EXACT_MASS>
326.121297

> <PUBCHEM_MOLECULAR_FORMULA>
C12H22O10

> <PUBCHEM_MOLECULAR_WEIGHT>
326.29708

> <PUBCHEM_OPENEYE_CAN_SMILES>
CC1C(C(C(C(O1)OC2C(C(C(OC2O)CO)O)O)O)O)O

> <PUBCHEM_OPENEYE_ISO_SMILES>
C[C@H]1[C@@H]([C@H]([C@H]([C@@H](O1)O[C@@H]2[C@H]([C@@H]([C@H](O[C@H]2O)CO)O)O)O)O)O

> <PUBCHEM_CACTVS_TPSA>
169

> <PUBCHEM_MONOISOTOPIC_WEIGHT>
326.121297

> <PUBCHEM_TOTAL_CHARGE>
0

> <PUBCHEM_HEAVY_ATOM_COUNT>
22

> <PUBCHEM_ATOM_DEF_STEREO_COUNT>
10

> <PUBCHEM_ATOM_UDEF_STEREO_COUNT>
0

> <PUBCHEM_BOND_DEF_STEREO_COUNT>
0

> <PUBCHEM_BOND_UDEF_STEREO_COUNT>
0

> <PUBCHEM_ISOTOPIC_ATOM_COUNT>
0

> <PUBCHEM_COMPONENT_COUNT>
1

> <PUBCHEM_CACTVS_TAUTO_COUNT>
1

> <PUBCHEM_COORDINATE_TYPE>
1
5
255

> <PUBCHEM_BONDANNOTATIONS>
11  1  5
13  1  5
18  21  6
20  22  6
12  4  6
14  5  6
15  6  5
16  7  6
17  8  5
19  9  6

$$$$

