441588
  -OEChem-07051212552D

 44 48  0     1  0  0  0  0  0999 V2000
    7.1256    1.0673    0.0000 O   0  0  0  0  0  0  0  0  0  0  0  0
    8.8958    0.0705    0.0000 O   0  0  0  0  0  0  0  0  0  0  0  0
    2.6079   -0.2709    0.0000 O   0  0  0  0  0  0  0  0  0  0  0  0
    2.6079    1.4056    0.0000 O   0  0  0  0  0  0  0  0  0  0  0  0
    4.5112    2.6019    0.0000 O   0  0  0  0  0  0  0  0  0  0  0  0
    6.2596    2.5673    0.0000 O   0  0  0  0  0  0  0  0  0  0  0  0
    5.4705   -2.1631    0.0000 N   0  0  3  0  0  0  0  0  0  0  0  0
    6.2435   -1.4742    0.0000 C   0  0  1  0  0  0  0  0  0  0  0  0
    6.2596   -0.4327    0.0000 C   0  0  1  0  0  0  0  0  0  0  0  0
    7.1256    0.0673    0.0000 C   0  0  1  0  0  0  0  0  0  0  0  0
    7.1415   -2.0019    0.0000 C   0  0  0  0  0  0  0  0  0  0  0  0
    8.0356   -0.4395    0.0000 C   0  0  2  0  0  0  0  0  0  0  0  0
    6.9158   -3.0125    0.0000 C   0  0  0  0  0  0  0  0  0  0  0  0
    5.8851   -3.1119    0.0000 C   0  0  0  0  0  0  0  0  0  0  0  0
    5.3935    0.0673    0.0000 C   0  0  0  0  0  0  0  0  0  0  0  0
    8.0436   -1.4811    0.0000 C   0  0  0  0  0  0  0  0  0  0  0  0
    5.3935    1.0673    0.0000 C   0  0  0  0  0  0  0  0  0  0  0  0
    4.4936   -1.9493    0.0000 C   0  0  0  0  0  0  0  0  0  0  0  0
    4.4996   -0.4673    0.0000 C   0  0  0  0  0  0  0  0  0  0  0  0
    6.2596    1.5673    0.0000 C   0  0  0  0  0  0  0  0  0  0  0  0
    4.4996    1.6020    0.0000 C   0  0  0  0  0  0  0  0  0  0  0  0
    3.5935    0.0465    0.0000 C   0  0  0  0  0  0  0  0  0  0  0  0
    3.5935    1.0881    0.0000 C   0  0  0  0  0  0  0  0  0  0  0  0
    2.0000    0.5673    0.0000 C   0  0  0  0  0  0  0  0  0  0  0  0
    3.6510    3.1119    0.0000 C   0  0  0  0  0  0  0  0  0  0  0  0
    5.4706   -1.1205    0.0000 H   0  0  0  0  0  0  0  0  0  0  0  0
    5.5202   -0.8520    0.0000 H   0  0  0  0  0  0  0  0  0  0  0  0
    7.8584    0.4980    0.0000 H   0  0  0  0  0  0  0  0  0  0  0  0
    8.5755   -0.7443    0.0000 H   0  0  0  0  0  0  0  0  0  0  0  0
    6.9102   -3.6325    0.0000 H   0  0  0  0  0  0  0  0  0  0  0  0
    7.5318   -3.0833    0.0000 H   0  0  0  0  0  0  0  0  0  0  0  0
    5.2941   -3.2991    0.0000 H   0  0  0  0  0  0  0  0  0  0  0  0
    6.0092   -3.7194    0.0000 H   0  0  0  0  0  0  0  0  0  0  0  0
    8.5817   -1.7890    0.0000 H   0  0  0  0  0  0  0  0  0  0  0  0
    4.6261   -1.3437    0.0000 H   0  0  0  0  0  0  0  0  0  0  0  0
    3.8879   -1.8168    0.0000 H   0  0  0  0  0  0  0  0  0  0  0  0
    4.3610   -2.5550    0.0000 H   0  0  0  0  0  0  0  0  0  0  0  0
    4.5068   -1.0873    0.0000 H   0  0  0  0  0  0  0  0  0  0  0  0
    9.4362   -0.2333    0.0000 H   0  0  0  0  0  0  0  0  0  0  0  0
    1.5391    0.9821    0.0000 H   0  0  0  0  0  0  0  0  0  0  0  0
    1.5391    0.1526    0.0000 H   0  0  0  0  0  0  0  0  0  0  0  0
    3.9672    3.6452    0.0000 H   0  0  0  0  0  0  0  0  0  0  0  0
    3.1176    3.4281    0.0000 H   0  0  0  0  0  0  0  0  0  0  0  0
    3.3348    2.5786    0.0000 H   0  0  0  0  0  0  0  0  0  0  0  0
  1 10  1  0  0  0  0
  1 20  1  0  0  0  0
 12  2  1  1  0  0  0
  2 39  1  0  0  0  0
  3 22  1  0  0  0  0
  3 24  1  0  0  0  0
  4 23  1  0  0  0  0
  4 24  1  0  0  0  0
  5 21  1  0  0  0  0
  5 25  1  0  0  0  0
  6 20  2  0  0  0  0
  7  8  1  0  0  0  0
  7 14  1  0  0  0  0
  7 18  1  0  0  0  0
  8  9  1  0  0  0  0
  8 11  1  0  0  0  0
  8 26  1  6  0  0  0
  9 10  1  0  0  0  0
  9 15  1  0  0  0  0
  9 27  1  1  0  0  0
 10 12  1  0  0  0  0
 10 28  1  1  0  0  0
 11 13  1  0  0  0  0
 11 16  2  0  0  0  0
 12 16  1  0  0  0  0
 12 29  1  0  0  0  0
 13 14  1  0  0  0  0
 13 30  1  0  0  0  0
 13 31  1  0  0  0  0
 14 32  1  0  0  0  0
 14 33  1  0  0  0  0
 15 17  1  0  0  0  0
 15 19  2  0  0  0  0
 16 34  1  0  0  0  0
 17 20  1  0  0  0  0
 17 21  2  0  0  0  0
 18 35  1  0  0  0  0
 18 36  1  0  0  0  0
 18 37  1  0  0  0  0
 19 22  1  0  0  0  0
 19 38  1  0  0  0  0
 21 23  1  0  0  0  0
 22 23  2  0  0  0  0
 24 40  1  0  0  0  0
 24 41  1  0  0  0  0
 25 42  1  0  0  0  0
 25 43  1  0  0  0  0
 25 44  1  0  0  0  0
M  END
> <PUBCHEM_COMPOUND_CID>
441588

> <PUBCHEM_COMPOUND_CANONICALIZED>
1

> <PUBCHEM_CACTVS_COMPLEXITY>
608

> <PUBCHEM_CACTVS_HBOND_ACCEPTOR>
7

> <PUBCHEM_CACTVS_HBOND_DONOR>
1

> <PUBCHEM_CACTVS_ROTATABLE_BOND>
1

> <PUBCHEM_CACTVS_SUBSKEYS>
AAADceB6OAAAAAAAAAAAAAAAAAAAAWJAAAA0QIAAAAAAAEiRAAAAHgAACAAADTzhmAcyDoMABgCIAiDSCACCCAAkIAAAiAEOiMgdNzaEtRumcWIn4BWPuQf6/f/eoAABCAAYQABAAAIQADCAAAAAAAAAAA==

> <PUBCHEM_IUPAC_INCHI>
InChI=1S/C18H19NO6/c1-19-4-3-8-5-10(20)15-12(14(8)19)9-6-11-16(24-7-23-11)17(22-2)13(9)18(21)25-15/h5-6,10,12,14-15,20H,3-4,7H2,1-2H3/t10-,12-,14+,15+/m0/s1

> <PUBCHEM_IUPAC_INCHIKEY>
OLGJGNBIBXKMJN-OBCWZRDOSA-N

> <PUBCHEM_XLOGP3_AA>
0.7

> <PUBCHEM_EXACT_MASS>
345.121237

> <PUBCHEM_MOLECULAR_FORMULA>
C18H19NO6

> <PUBCHEM_MOLECULAR_WEIGHT>
345.34656

> <PUBCHEM_OPENEYE_CAN_SMILES>
CN1CCC2=CC(C3C(C21)C4=CC5=C(C(=C4C(=O)O3)OC)OCO5)O

> <PUBCHEM_OPENEYE_ISO_SMILES>
CN1CCC2=C[C@@H]([C@@H]3[C@H]([C@@H]21)C4=CC5=C(C(=C4C(=O)O3)OC)OCO5)O

> <PUBCHEM_CACTVS_TPSA>
77.5

> <PUBCHEM_MONOISOTOPIC_WEIGHT>
345.121237

> <PUBCHEM_TOTAL_CHARGE>
0

> <PUBCHEM_HEAVY_ATOM_COUNT>
25

> <PUBCHEM_ATOM_DEF_STEREO_COUNT>
4

> <PUBCHEM_ATOM_UDEF_STEREO_COUNT>
0

> <PUBCHEM_BOND_DEF_STEREO_COUNT>
0

> <PUBCHEM_BOND_UDEF_STEREO_COUNT>
0

> <PUBCHEM_ISOTOPIC_ATOM_COUNT>
0

> <PUBCHEM_COMPONENT_COUNT>
1

> <PUBCHEM_CACTVS_TAUTO_COUNT>
1

> <PUBCHEM_COORDINATE_TYPE>
1
5
255

> <PUBCHEM_BONDANNOTATIONS>
10  28  5
15  17  8
15  19  8
17  21  8
19  22  8
12  2  5
21  23  8
22  23  8
8  26  6
9  27  5

$$$$

