442473
  -OEChem-07051212583D

 41 44  0     1  0  0  0  0  0999 V2000
    0.4178    3.6577    0.2159 O   0  0  0  0  0  0  0  0  0  0  0  0
    1.1326   -1.6947    0.3602 N   0  0  1  0  0  0  0  0  0  0  0  0
   -0.0212    0.1881   -0.6652 C   0  0  1  0  0  0  0  0  0  0  0  0
   -1.3970    0.8992   -0.8704 C   0  0  2  0  0  0  0  0  0  0  0  0
    0.9496    1.3203   -0.1530 C   0  0  1  0  0  0  0  0  0  0  0  0
   -0.0763   -1.0075    0.2749 C   0  0  0  0  0  0  0  0  0  0  0  0
    0.4614   -0.3568   -2.0447 C   0  0  0  0  0  0  0  0  0  0  0  0
   -1.4128    2.1203    0.0424 C   0  0  0  0  0  0  0  0  0  0  0  0
   -2.6023   -0.0149   -0.6391 C   0  0  0  0  0  0  0  0  0  0  0  0
    0.0279    2.5113    0.0262 C   0  0  0  0  0  0  0  0  0  0  0  0
    1.6759    1.1279    1.1969 C   0  0  0  0  0  0  0  0  0  0  0  0
   -2.5415   -0.7603    0.7035 C   0  0  2  0  0  0  0  0  0  0  0  0
    1.7755   -1.1424   -1.9513 C   0  0  0  0  0  0  0  0  0  0  0  0
   -1.1936   -1.3917    0.9163 C   0  0  0  0  0  0  0  0  0  0  0  0
    1.7092   -2.2284   -0.8783 C   0  0  0  0  0  0  0  0  0  0  0  0
    2.6900   -0.0172    1.2607 C   0  0  0  0  0  0  0  0  0  0  0  0
    2.0521   -1.3929    1.4511 C   0  0  0  0  0  0  0  0  0  0  0  0
   -3.6474   -1.8178    0.7539 C   0  0  0  0  0  0  0  0  0  0  0  0
   -1.4580    1.2742   -1.9027 H   0  0  0  0  0  0  0  0  0  0  0  0
    1.6720    1.5944   -0.9312 H   0  0  0  0  0  0  0  0  0  0  0  0
    0.5907    0.4670   -2.7582 H   0  0  0  0  0  0  0  0  0  0  0  0
   -0.3077   -1.0164   -2.4699 H   0  0  0  0  0  0  0  0  0  0  0  0
   -1.7000    1.8990    1.0729 H   0  0  0  0  0  0  0  0  0  0  0  0
   -2.0411    2.9184   -0.3612 H   0  0  0  0  0  0  0  0  0  0  0  0
   -2.6477   -0.7422   -1.4613 H   0  0  0  0  0  0  0  0  0  0  0  0
   -3.5292    0.5698   -0.6954 H   0  0  0  0  0  0  0  0  0  0  0  0
    0.9499    1.0309    2.0154 H   0  0  0  0  0  0  0  0  0  0  0  0
    2.2260    2.0548    1.4124 H   0  0  0  0  0  0  0  0  0  0  0  0
   -2.7203   -0.0600    1.5280 H   0  0  0  0  0  0  0  0  0  0  0  0
    2.0036   -1.5980   -2.9217 H   0  0  0  0  0  0  0  0  0  0  0  0
    2.5987   -0.4536   -1.7345 H   0  0  0  0  0  0  0  0  0  0  0  0
   -1.1421   -2.2396    1.5961 H   0  0  0  0  0  0  0  0  0  0  0  0
    1.0732   -3.0500   -1.2312 H   0  0  0  0  0  0  0  0  0  0  0  0
    2.7051   -2.6540   -0.7104 H   0  0  0  0  0  0  0  0  0  0  0  0
    3.3290   -0.0017    0.3715 H   0  0  0  0  0  0  0  0  0  0  0  0
    3.3534    0.1599    2.1167 H   0  0  0  0  0  0  0  0  0  0  0  0
    2.8346   -2.1584    1.5138 H   0  0  0  0  0  0  0  0  0  0  0  0
    1.5167   -1.4257    2.4085 H   0  0  0  0  0  0  0  0  0  0  0  0
   -3.5142   -2.5776   -0.0247 H   0  0  0  0  0  0  0  0  0  0  0  0
   -3.6572   -2.3294    1.7229 H   0  0  0  0  0  0  0  0  0  0  0  0
   -4.6308   -1.3566    0.6124 H   0  0  0  0  0  0  0  0  0  0  0  0
  1 10  2  0  0  0  0
  2  6  1  0  0  0  0
  2 15  1  0  0  0  0
  2 17  1  0  0  0  0
  3  4  1  0  0  0  0
  3  5  1  0  0  0  0
  3  6  1  0  0  0  0
  3  7  1  0  0  0  0
  4  8  1  0  0  0  0
  4  9  1  0  0  0  0
  4 19  1  0  0  0  0
  5 10  1  0  0  0  0
  5 11  1  0  0  0  0
  5 20  1  0  0  0  0
  6 14  2  0  0  0  0
  7 13  1  0  0  0  0
  7 21  1  0  0  0  0
  7 22  1  0  0  0  0
  8 10  1  0  0  0  0
  8 23  1  0  0  0  0
  8 24  1  0  0  0  0
  9 12  1  0  0  0  0
  9 25  1  0  0  0  0
  9 26  1  0  0  0  0
 11 16  1  0  0  0  0
 11 27  1  0  0  0  0
 11 28  1  0  0  0  0
 12 14  1  0  0  0  0
 12 18  1  0  0  0  0
 12 29  1  0  0  0  0
 13 15  1  0  0  0  0
 13 30  1  0  0  0  0
 13 31  1  0  0  0  0
 14 32  1  0  0  0  0
 15 33  1  0  0  0  0
 15 34  1  0  0  0  0
 16 17  1  0  0  0  0
 16 35  1  0  0  0  0
 16 36  1  0  0  0  0
 17 37  1  0  0  0  0
 17 38  1  0  0  0  0
 18 39  1  0  0  0  0
 18 40  1  0  0  0  0
 18 41  1  0  0  0  0
M  END
> <PUBCHEM_COMPOUND_CID>
442473

> <PUBCHEM_CONFORMER_RMSD>
0.6

> <PUBCHEM_CONFORMER_DIVERSEORDER>
1

> <PUBCHEM_MMFF94_PARTIAL_CHARGES>
12
1 -0.57
10 0.45
12 0.14
14 -0.29
15 0.37
17 0.37
2 -0.84
3 0.14
32 0.15
5 0.06
6 -0.04
8 0.06

> <PUBCHEM_EFFECTIVE_ROTOR_COUNT>
1.8

> <PUBCHEM_PHARMACOPHORE_FEATURES>
6
1 1 acceptor
1 2 cation
5 3 4 5 8 10 rings
6 2 3 6 7 13 15 rings
6 3 4 6 9 12 14 rings
7 2 3 5 6 11 16 17 rings

> <PUBCHEM_HEAVY_ATOM_COUNT>
18

> <PUBCHEM_ATOM_DEF_STEREO_COUNT>
4

> <PUBCHEM_ATOM_UDEF_STEREO_COUNT>
0

> <PUBCHEM_BOND_DEF_STEREO_COUNT>
0

> <PUBCHEM_BOND_UDEF_STEREO_COUNT>
0

> <PUBCHEM_ISOTOPIC_ATOM_COUNT>
0

> <PUBCHEM_COMPONENT_COUNT>
1

> <PUBCHEM_CACTVS_TAUTO_COUNT>
2

> <PUBCHEM_CONFORMER_ID>
0006C06900000001

> <PUBCHEM_MMFF94_ENERGY>
57.6977

> <PUBCHEM_FEATURE_SELFOVERLAP>
31.43

> <PUBCHEM_SHAPE_FINGERPRINT>
10863032 1 18129116643792920536
10948715 1 17327728505721935625
11067466 332 17557689279801902019
12011746 2 18270975522212842586
12423570 1 17028578145118215790
12716301 132 17543901764408290985
12725867 57 18263626455222930999
13140716 1 18268440203012694089
13538477 17 17769354351703776927
13898156 1 17413847041002685902
14115302 16 17771907404982224775
141345 1 12811570595814823326
14142880 1 16743158885344467416
144361 1 17462604828291229714
14787075 74 17916587506091293578
14817 1 5949517513099447298
15881359 60 17547340684639914321
16945 1 17982753894872485705
21524375 3 17255675301319938721
22112679 90 17272834657703365806
22802520 49 17900257812366130798
2334 1 18412269462415447137
23419403 2 17484561920815920399
23559900 14 16819685406256756278
2748010 2 18336837497188041493
430814 3 17467908575872823616
576247 118 17971446706308110127
68419 9 17627765824311170934
7364860 26 18120074105784761595
81228 2 18049160270006451697

> <PUBCHEM_SHAPE_MULTIPOLES>
359.58
3.72
2.98
1.62
2.37
2.26
0.52
-2.09
-1.13
-0.15
-0.28
-0.87
-0.59
0.8

> <PUBCHEM_SHAPE_SELFOVERLAP>
777.684

> <PUBCHEM_SHAPE_VOLUME>
195.8

> <PUBCHEM_COORDINATE_TYPE>
2
5
10

$$$$

