12491
  -OEChem-06261207003D

 30 30  0     0  0  0  0  0  0999 V2000
   -3.3279   -0.2452    0.0306 O   0  0  0  0  0  0  0  0  0  0  0  0
    2.9231   -0.7617    0.1678 O   0  0  0  0  0  0  0  0  0  0  0  0
   -1.8558   -1.9638   -0.3912 O   0  0  0  0  0  0  0  0  0  0  0  0
    3.5565    1.2910   -0.6594 O   0  0  0  0  0  0  0  0  0  0  0  0
   -1.0472    0.2499   -0.0293 C   0  0  0  0  0  0  0  0  0  0  0  0
    1.2837    0.8844   -0.0641 C   0  0  0  0  0  0  0  0  0  0  0  0
    0.2962   -0.0934   -0.1824 C   0  0  0  0  0  0  0  0  0  0  0  0
   -1.4027    1.5711    0.2423 C   0  0  0  0  0  0  0  0  0  0  0  0
    0.9281    2.2055    0.2074 C   0  0  0  0  0  0  0  0  0  0  0  0
   -0.4151    2.5489    0.3607 C   0  0  0  0  0  0  0  0  0  0  0  0
   -2.0772   -0.7692   -0.1522 C   0  0  0  0  0  0  0  0  0  0  0  0
    2.6843    0.5272   -0.2242 C   0  0  0  0  0  0  0  0  0  0  0  0
   -4.4305   -1.1534   -0.0652 C   0  0  0  0  0  0  0  0  0  0  0  0
    4.2707   -1.2322    0.0585 C   0  0  0  0  0  0  0  0  0  0  0  0
   -5.7183   -0.3916    0.1647 C   0  0  0  0  0  0  0  0  0  0  0  0
    4.3322   -2.6675    0.5360 C   0  0  0  0  0  0  0  0  0  0  0  0
    0.5641   -1.1232   -0.4070 H   0  0  0  0  0  0  0  0  0  0  0  0
   -2.4351    1.8846    0.3695 H   0  0  0  0  0  0  0  0  0  0  0  0
    1.6852    2.9793    0.3056 H   0  0  0  0  0  0  0  0  0  0  0  0
   -0.6914    3.5776    0.5730 H   0  0  0  0  0  0  0  0  0  0  0  0
   -4.3222   -1.9376    0.6921 H   0  0  0  0  0  0  0  0  0  0  0  0
   -4.4408   -1.6087   -1.0615 H   0  0  0  0  0  0  0  0  0  0  0  0
    4.5922   -1.1743   -0.9872 H   0  0  0  0  0  0  0  0  0  0  0  0
    4.9253   -0.6068    0.6754 H   0  0  0  0  0  0  0  0  0  0  0  0
   -5.7131    0.0851    1.1504 H   0  0  0  0  0  0  0  0  0  0  0  0
   -5.8297    0.4086   -0.5746 H   0  0  0  0  0  0  0  0  0  0  0  0
   -6.5836   -1.0570    0.0984 H   0  0  0  0  0  0  0  0  0  0  0  0
    3.6668   -3.3006   -0.0604 H   0  0  0  0  0  0  0  0  0  0  0  0
    3.9951   -2.7425    1.5751 H   0  0  0  0  0  0  0  0  0  0  0  0
    5.3504   -3.0600    0.4655 H   0  0  0  0  0  0  0  0  0  0  0  0
  1 11  1  0  0  0  0
  1 13  1  0  0  0  0
  2 12  1  0  0  0  0
  2 14  1  0  0  0  0
  3 11  2  0  0  0  0
  4 12  2  0  0  0  0
  5  7  2  0  0  0  0
  5  8  1  0  0  0  0
  5 11  1  0  0  0  0
  6  7  1  0  0  0  0
  6  9  2  0  0  0  0
  6 12  1  0  0  0  0
  7 17  1  0  0  0  0
  8 10  2  0  0  0  0
  8 18  1  0  0  0  0
  9 10  1  0  0  0  0
  9 19  1  0  0  0  0
 10 20  1  0  0  0  0
 13 15  1  0  0  0  0
 13 21  1  0  0  0  0
 13 22  1  0  0  0  0
 14 16  1  0  0  0  0
 14 23  1  0  0  0  0
 14 24  1  0  0  0  0
 15 25  1  0  0  0  0
 15 26  1  0  0  0  0
 15 27  1  0  0  0  0
 16 28  1  0  0  0  0
 16 29  1  0  0  0  0
 16 30  1  0  0  0  0
M  END
> <PUBCHEM_COMPOUND_CID>
12491

> <PUBCHEM_CONFORMER_RMSD>
0.8

> <PUBCHEM_CONFORMER_DIVERSEORDER>
2
4
12
13
1
10
3
6
8
26
21
5
28
27
11
9
20
22
18
25
16
31
7
23
24
14
33
17
15
29
32
19
30

> <PUBCHEM_MMFF94_PARTIAL_CHARGES>
18
1 -0.43
10 -0.15
11 0.63
12 0.63
13 0.28
14 0.28
17 0.15
18 0.15
19 0.15
2 -0.43
20 0.15
3 -0.57
4 -0.57
5 0.09
6 0.09
7 -0.15
8 -0.15
9 -0.15

> <PUBCHEM_EFFECTIVE_ROTOR_COUNT>
6

> <PUBCHEM_PHARMACOPHORE_FEATURES>
3
1 3 acceptor
1 4 acceptor
6 5 6 7 8 9 10 rings

> <PUBCHEM_HEAVY_ATOM_COUNT>
16

> <PUBCHEM_ATOM_DEF_STEREO_COUNT>
0

> <PUBCHEM_ATOM_UDEF_STEREO_COUNT>
0

> <PUBCHEM_BOND_DEF_STEREO_COUNT>
0

> <PUBCHEM_BOND_UDEF_STEREO_COUNT>
0

> <PUBCHEM_ISOTOPIC_ATOM_COUNT>
0

> <PUBCHEM_COMPONENT_COUNT>
1

> <PUBCHEM_CACTVS_TAUTO_COUNT>
1

> <PUBCHEM_CONFORMER_ID>
000030CB00000002

> <PUBCHEM_MMFF94_ENERGY>
37.7179

> <PUBCHEM_FEATURE_SELFOVERLAP>
15.223

> <PUBCHEM_SHAPE_FINGERPRINT>
10130415 120 18261671468041172601
12032990 46 18411138043438647341
12507560 14 18187364316104264279
12553582 1 18334300842411488110
13690532 89 18409166606463534475
13862211 1 18335424577881842087
14115302 16 17846489292960228903
15042514 8 18121216738451776816
15196674 1 18410574006921940069
15242433 33 18339920415938507527
15442244 35 18334856065993011281
15885798 251 18410012147737062329
193927 3 18271234023684138034
19784866 135 18335989765038003603
20281475 54 18410293567000478469
204376 136 9439402441135188533
20645477 70 18272653441592594566
20871998 22 18409454661019315728
21267235 1 18410284831074246398
21279426 13 18269560593067307005
21296965 67 18410014346739426752
21478907 32 18339363092592833817
23402539 116 18113343024712078813
23463225 33 18409447003297952470
23559900 14 18340208471375133056
25147074 1 18338780313102805228
3004659 81 18201719565802648382
3091708 16 9570117897972821808
34934 24 18189900807730427252
4072396 5 17822290210606764743
465052 167 18335695014634405007
5104073 3 18334292084883475369
7164475 11 18342175609093374548

> <PUBCHEM_SHAPE_MULTIPOLES>
305.8
9.49
2.61
0.67
4.76
0.28
-0.01
-7.19
-0.45
-1.76
-0.33
-0.13
0.01
-0.72

> <PUBCHEM_SHAPE_SELFOVERLAP>
626.494

> <PUBCHEM_SHAPE_VOLUME>
177.7

> <PUBCHEM_COORDINATE_TYPE>
2
5
10

$$$$

