11035
  -OEChem-06261205153D

 30 31  0     0  0  0  0  0  0999 V2000
    5.2479    0.0016   -0.2232 S   0  0  0  0  0  0  0  0  0  0  0  0
    5.8927    0.0588    1.2780 O   0  0  0  0  0  0  0  0  0  0  0  0
    5.5904   -1.2977   -0.7830 O   0  0  0  0  0  0  0  0  0  0  0  0
    5.6108    1.2273   -0.9175 O   0  0  0  0  0  0  0  0  0  0  0  0
   -2.7075   -2.2432   -0.2041 O   0  0  0  0  0  0  0  0  0  0  0  0
   -6.7117    0.3002    0.2532 O   0  0  0  0  0  0  0  0  0  0  0  0
   -0.6277    0.1518    0.5951 N   0  0  0  0  0  0  0  0  0  0  0  0
   -1.2168    0.1136   -0.5108 N   0  0  0  0  0  0  0  0  0  0  0  0
    3.5191    0.0462    0.0182 C   0  0  0  0  0  0  0  0  0  0  0  0
    0.7567    0.1161    0.4012 C   0  0  0  0  0  0  0  0  0  0  0  0
    2.8514    1.2701    0.0588 C   0  0  0  0  0  0  0  0  0  0  0  0
    2.8057   -1.1428    0.1692 C   0  0  0  0  0  0  0  0  0  0  0  0
    1.4701    1.3051    0.2504 C   0  0  0  0  0  0  0  0  0  0  0  0
    1.4244   -1.1079    0.3606 C   0  0  0  0  0  0  0  0  0  0  0  0
   -2.6081    0.1492   -0.3154 C   0  0  0  0  0  0  0  0  0  0  0  0
   -3.3299   -1.0316   -0.1650 C   0  0  0  0  0  0  0  0  0  0  0  0
   -3.2562    1.3809   -0.2756 C   0  0  0  0  0  0  0  0  0  0  0  0
   -4.7105   -0.9806    0.0267 C   0  0  0  0  0  0  0  0  0  0  0  0
   -5.3641    0.2511    0.0671 C   0  0  0  0  0  0  0  0  0  0  0  0
   -4.6369    1.4318   -0.0840 C   0  0  0  0  0  0  0  0  0  0  0  0
    3.3866    2.2093   -0.0485 H   0  0  0  0  0  0  0  0  0  0  0  0
    3.3055   -2.1071    0.1481 H   0  0  0  0  0  0  0  0  0  0  0  0
    0.9590    2.2639    0.2833 H   0  0  0  0  0  0  0  0  0  0  0  0
    0.8773   -2.0396    0.4797 H   0  0  0  0  0  0  0  0  0  0  0  0
   -2.6981    2.3059   -0.3936 H   0  0  0  0  0  0  0  0  0  0  0  0
   -5.2718   -1.9045    0.1434 H   0  0  0  0  0  0  0  0  0  0  0  0
   -5.1404    2.3942   -0.0538 H   0  0  0  0  0  0  0  0  0  0  0  0
    5.6581   -0.6958    1.8680 H   0  0  0  0  0  0  0  0  0  0  0  0
   -1.7561   -2.0932   -0.3428 H   0  0  0  0  0  0  0  0  0  0  0  0
   -7.0515   -0.6072    0.3385 H   0  0  0  0  0  0  0  0  0  0  0  0
  1  2  1  0  0  0  0
  1  3  2  0  0  0  0
  1  4  2  0  0  0  0
  1  9  1  0  0  0  0
  2 28  1  0  0  0  0
  5 16  1  0  0  0  0
  5 29  1  0  0  0  0
  6 19  1  0  0  0  0
  6 30  1  0  0  0  0
  7  8  2  0  0  0  0
  7 10  1  0  0  0  0
  8 15  1  0  0  0  0
  9 11  2  0  0  0  0
  9 12  1  0  0  0  0
 10 13  2  0  0  0  0
 10 14  1  0  0  0  0
 11 13  1  0  0  0  0
 11 21  1  0  0  0  0
 12 14  2  0  0  0  0
 12 22  1  0  0  0  0
 13 23  1  0  0  0  0
 14 24  1  0  0  0  0
 15 16  2  0  0  0  0
 15 17  1  0  0  0  0
 16 18  1  0  0  0  0
 17 20  2  0  0  0  0
 17 25  1  0  0  0  0
 18 19  2  0  0  0  0
 18 26  1  0  0  0  0
 19 20  1  0  0  0  0
 20 27  1  0  0  0  0
M  END
> <PUBCHEM_COMPOUND_CID>
11035

> <PUBCHEM_CONFORMER_RMSD>
0.6

> <PUBCHEM_CONFORMER_DIVERSEORDER>
2
4
3
1

> <PUBCHEM_MMFF94_PARTIAL_CHARGES>
30
1 1.49
10 0.18
11 -0.15
12 -0.15
13 -0.15
14 -0.15
15 0.18
16 0.08
17 -0.15
18 -0.15
19 0.08
2 -0.68
20 -0.15
21 0.15
22 0.15
23 0.15
24 0.15
25 0.15
26 0.15
27 0.15
28 0.5
29 0.45
3 -0.65
30 0.45
4 -0.65
5 -0.53
6 -0.53
7 -0.18
8 -0.18
9 -0.01

> <PUBCHEM_EFFECTIVE_ROTOR_COUNT>
3

> <PUBCHEM_PHARMACOPHORE_FEATURES>
8
1 2 acceptor
1 3 acceptor
1 4 acceptor
1 5 donor
1 6 donor
4 1 2 3 4 anion
6 15 16 17 18 19 20 rings
6 9 10 11 12 13 14 rings

> <PUBCHEM_HEAVY_ATOM_COUNT>
20

> <PUBCHEM_ATOM_DEF_STEREO_COUNT>
0

> <PUBCHEM_ATOM_UDEF_STEREO_COUNT>
0

> <PUBCHEM_BOND_DEF_STEREO_COUNT>
0

> <PUBCHEM_BOND_UDEF_STEREO_COUNT>
0

> <PUBCHEM_ISOTOPIC_ATOM_COUNT>
0

> <PUBCHEM_COMPONENT_COUNT>
1

> <PUBCHEM_CACTVS_TAUTO_COUNT>
12

> <PUBCHEM_CONFORMER_ID>
00002B1B00000002

> <PUBCHEM_MMFF94_ENERGY>
43.5442

> <PUBCHEM_FEATURE_SELFOVERLAP>
40.651

> <PUBCHEM_SHAPE_FINGERPRINT>
10968037 39 18272651238764553503
11315181 36 17530962467054632921
12107183 9 17620197967386978993
12236239 1 17967249810247776681
12516196 113 17603307046317386744
12788726 201 17750515251002030169
13533116 47 16733262460181909550
1420 363 17846775213285827441
14251764 18 18259982670210944731
14341114 176 18410851062213714477
15183329 4 18410570712650193726
15788980 27 18408321081784462902
17834072 33 18411981347414093588
17844677 252 18408316687943761528
19489759 90 8646772192399494423
200 152 18113336409792503913
20281389 69 18202004334629183765
20645477 56 18412266142796045957
20645477 70 18262234542596462742
20681677 155 18410858758969344859
21267235 1 18411974755045222729
2297311 6 18408316701224010037
23035841 295 18410011056752195562
23402539 116 17203334420115559036
23402655 69 18412263943187162960
23536379 177 18412825802482745720
23557571 272 18409725205124936196
23559900 14 18262244322178817649
300161 21 18410019848581794979
3004659 81 18341327877655330126
34797466 226 17894903002303827876
3545911 37 18410012143721728297
4073 2 18060132103124127826
4214541 1 18410012139490096965
4325135 7 18343862212970040196
4340502 62 16343988009657507426
5104073 3 18339083674715359840
542803 24 17703790323036776516
6327066 14 17771075079793579261
7495541 125 13110667337962151509
77779 3 18411419505773049241

> <PUBCHEM_SHAPE_MULTIPOLES>
376.13
15.65
1.57
0.77
1.02
0.24
-0.04
-0.77
0.55
-0.45
0.13
0.66
-0.02
-0.04

> <PUBCHEM_SHAPE_SELFOVERLAP>
799.658

> <PUBCHEM_SHAPE_VOLUME>
209.5

> <PUBCHEM_COORDINATE_TYPE>
2
5
10

$$$$

