12766
  -OEChem-06261207202D

 25 25  0     0  0  0  0  0  0999 V2000
    4.0898   -1.4231    0.0000 O   0  0  0  0  0  0  0  0  0  0  0  0
    3.7071   -0.4992    0.0000 C   0  0  0  0  0  0  0  0  0  0  0  0
    2.7071   -0.4992    0.0000 C   0  0  0  0  0  0  0  0  0  0  0  0
    4.4142    0.2079    0.0000 C   0  0  0  0  0  0  0  0  0  0  0  0
    4.4142    1.2079    0.0000 C   0  0  0  0  0  0  0  0  0  0  0  0
    2.0000    0.2079    0.0000 C   0  0  0  0  0  0  0  0  0  0  0  0
    3.7071    1.9150    0.0000 C   0  0  0  0  0  0  0  0  0  0  0  0
    2.0000    1.2079    0.0000 C   0  0  0  0  0  0  0  0  0  0  0  0
    2.7071    1.9150    0.0000 C   0  0  0  0  0  0  0  0  0  0  0  0
    3.3626   -1.0147    0.0000 H   0  0  0  0  0  0  0  0  0  0  0  0
    4.7242   -0.3291    0.0000 H   0  0  0  0  0  0  0  0  0  0  0  0
    5.0131    0.3683    0.0000 H   0  0  0  0  0  0  0  0  0  0  0  0
    2.1702   -0.8092    0.0000 H   0  0  0  0  0  0  0  0  0  0  0  0
    2.8676   -1.0981    0.0000 H   0  0  0  0  0  0  0  0  0  0  0  0
    5.0131    1.0474    0.0000 H   0  0  0  0  0  0  0  0  0  0  0  0
    4.7242    1.7448    0.0000 H   0  0  0  0  0  0  0  0  0  0  0  0
    1.4011    0.3683    0.0000 H   0  0  0  0  0  0  0  0  0  0  0  0
    1.6900   -0.3291    0.0000 H   0  0  0  0  0  0  0  0  0  0  0  0
    4.2440    2.2250    0.0000 H   0  0  0  0  0  0  0  0  0  0  0  0
    3.5466    2.5139    0.0000 H   0  0  0  0  0  0  0  0  0  0  0  0
    1.6900    1.7448    0.0000 H   0  0  0  0  0  0  0  0  0  0  0  0
    1.4011    1.0474    0.0000 H   0  0  0  0  0  0  0  0  0  0  0  0
    2.8676    2.5139    0.0000 H   0  0  0  0  0  0  0  0  0  0  0  0
    2.1702    2.2250    0.0000 H   0  0  0  0  0  0  0  0  0  0  0  0
    3.7124   -1.9150    0.0000 H   0  0  0  0  0  0  0  0  0  0  0  0
  1  2  1  0  0  0  0
  1 25  1  0  0  0  0
  2  3  1  0  0  0  0
  2  4  1  0  0  0  0
  2 10  1  0  0  0  0
  3  6  1  0  0  0  0
  3 13  1  0  0  0  0
  3 14  1  0  0  0  0
  4  5  1  0  0  0  0
  4 11  1  0  0  0  0
  4 12  1  0  0  0  0
  5  7  1  0  0  0  0
  5 15  1  0  0  0  0
  5 16  1  0  0  0  0
  6  8  1  0  0  0  0
  6 17  1  0  0  0  0
  6 18  1  0  0  0  0
  7  9  1  0  0  0  0
  7 19  1  0  0  0  0
  7 20  1  0  0  0  0
  8  9  1  0  0  0  0
  8 21  1  0  0  0  0
  8 22  1  0  0  0  0
  9 23  1  0  0  0  0
  9 24  1  0  0  0  0
M  END
> <PUBCHEM_COMPOUND_CID>
12766

> <PUBCHEM_COMPOUND_CANONICALIZED>
1

> <PUBCHEM_CACTVS_COMPLEXITY>
63

> <PUBCHEM_CACTVS_HBOND_ACCEPTOR>
1

> <PUBCHEM_CACTVS_HBOND_DONOR>
1

> <PUBCHEM_CACTVS_ROTATABLE_BOND>
0

> <PUBCHEM_CACTVS_SUBSKEYS>
AAADceBwIAAAAAAAAAAAAAAAAAAAAAAAAAAAAAAAAAAYAAAAAAAAGgAACAAACBSggAIAAAAAAgAAAAAAAAAAAAAAAAAAAAAAAAAAEAIAAAAAQAAEAAAAAAGAwKAAAAAAAAAAAAAAAAAAAAAAAAAAAAAAAA==

> <PUBCHEM_IUPAC_OPENEYE_NAME>
cyclooctanol

> <PUBCHEM_IUPAC_CAS_NAME>
cyclooctanol

> <PUBCHEM_IUPAC_NAME>
cyclooctanol

> <PUBCHEM_IUPAC_SYSTEMATIC_NAME>
cyclooctanol

> <PUBCHEM_IUPAC_TRADITIONAL_NAME>
cyclooctanol

> <PUBCHEM_IUPAC_INCHI>
InChI=1S/C8H16O/c9-8-6-4-2-1-3-5-7-8/h8-9H,1-7H2

> <PUBCHEM_IUPAC_INCHIKEY>
FHADSMKORVFYOS-UHFFFAOYSA-N

> <PUBCHEM_XLOGP3>
1.6

> <PUBCHEM_EXACT_MASS>
128.120115

> <PUBCHEM_MOLECULAR_FORMULA>
C8H16O

> <PUBCHEM_MOLECULAR_WEIGHT>
128.21204

> <PUBCHEM_OPENEYE_CAN_SMILES>
C1CCCC(CCC1)O

> <PUBCHEM_OPENEYE_ISO_SMILES>
C1CCCC(CCC1)O

> <PUBCHEM_CACTVS_TPSA>
20.2

> <PUBCHEM_MONOISOTOPIC_WEIGHT>
128.120115

> <PUBCHEM_TOTAL_CHARGE>
0

> <PUBCHEM_HEAVY_ATOM_COUNT>
9

> <PUBCHEM_ATOM_DEF_STEREO_COUNT>
0

> <PUBCHEM_ATOM_UDEF_STEREO_COUNT>
0

> <PUBCHEM_BOND_DEF_STEREO_COUNT>
0

> <PUBCHEM_BOND_UDEF_STEREO_COUNT>
0

> <PUBCHEM_ISOTOPIC_ATOM_COUNT>
0

> <PUBCHEM_COMPONENT_COUNT>
1

> <PUBCHEM_CACTVS_TAUTO_COUNT>
1

> <PUBCHEM_COORDINATE_TYPE>
1
5
255

$$$$

