440913
  -OEChem-07051212512D

 51 54  0     1  0  0  0  0  0999 V2000
    6.7168   -0.7181    0.0000 O   0  0  0  0  0  0  0  0  0  0  0  0
    2.6346   -2.8554    0.0000 O   0  0  0  0  0  0  0  0  0  0  0  0
    4.3664   -2.8857    0.0000 O   0  0  0  0  0  0  0  0  0  0  0  0
    5.1708    0.6802    0.0000 C   0  0  1  0  0  0  0  0  0  0  0  0
    4.2699    1.1141    0.0000 C   0  0  2  0  0  0  0  0  0  0  0  0
    3.5848    0.3938    0.0000 C   0  0  1  0  0  0  0  0  0  0  0  0
    4.0566   -0.4812    0.0000 C   0  0  3  0  0  0  0  0  0  0  0  0
    5.0349   -0.3045    0.0000 C   0  0  2  0  0  0  0  0  0  0  0  0
    5.0640    1.8570    0.0000 C   0  0  0  0  0  0  0  0  0  0  0  0
    6.0718    1.1141    0.0000 C   0  0  0  0  0  0  0  0  0  0  0  0
    3.5267   -1.3708    0.0000 C   0  0  2  0  0  0  0  0  0  0  0  0
    5.6708    2.8708    0.0000 C   0  0  1  0  0  0  0  0  0  0  0  0
    4.0474    2.0890    0.0000 C   0  0  0  0  0  0  0  0  0  0  0  0
    2.5503    0.4398    0.0000 C   0  0  0  0  0  0  0  0  0  0  0  0
    4.6708    2.8708    0.0000 C   0  0  0  0  0  0  0  0  0  0  0  0
    6.2943    2.0890    0.0000 C   0  0  0  0  0  0  0  0  0  0  0  0
    3.1102    1.2740    0.0000 C   0  0  0  0  0  0  0  0  0  0  0  0
    2.4915   -1.3487    0.0000 C   0  0  0  0  0  0  0  0  0  0  0  0
    2.0000   -0.4373    0.0000 C   0  0  0  0  0  0  0  0  0  0  0  0
    5.7565   -0.9968    0.0000 C   0  0  0  0  0  0  0  0  0  0  0  0
    4.3838   -1.8858    0.0000 C   0  0  0  0  0  0  0  0  0  0  0  0
    3.5092   -2.3706    0.0000 C   0  0  0  0  0  0  0  0  0  0  0  0
    7.2693    2.3115    0.0000 C   0  0  0  0  0  0  0  0  0  0  0  0
    3.5041    1.4829    0.0000 H   0  0  0  0  0  0  0  0  0  0  0  0
    4.5408   -1.1798    0.0000 H   0  0  0  0  0  0  0  0  0  0  0  0
    4.8558   -0.8981    0.0000 H   0  0  0  0  0  0  0  0  0  0  0  0
    4.6562    2.3240    0.0000 H   0  0  0  0  0  0  0  0  0  0  0  0
    4.4940    1.6132    0.0000 H   0  0  0  0  0  0  0  0  0  0  0  0
    6.2098    0.5096    0.0000 H   0  0  0  0  0  0  0  0  0  0  0  0
    6.6918    1.1141    0.0000 H   0  0  0  0  0  0  0  0  0  0  0  0
    5.8600    3.6995    0.0000 H   0  0  0  0  0  0  0  0  0  0  0  0
    3.6608    2.5738    0.0000 H   0  0  0  0  0  0  0  0  0  0  0  0
    3.4888    1.8200    0.0000 H   0  0  0  0  0  0  0  0  0  0  0  0
    2.6835    1.0454    0.0000 H   0  0  0  0  0  0  0  0  0  0  0  0
    1.9765    0.6746    0.0000 H   0  0  0  0  0  0  0  0  0  0  0  0
    4.8088    3.4753    0.0000 H   0  0  0  0  0  0  0  0  0  0  0  0
    4.1123    3.1399    0.0000 H   0  0  0  0  0  0  0  0  0  0  0  0
    3.6559    1.5682    0.0000 H   0  0  0  0  0  0  0  0  0  0  0  0
    2.8159    1.8197    0.0000 H   0  0  0  0  0  0  0  0  0  0  0  0
    2.5644    0.9797    0.0000 H   0  0  0  0  0  0  0  0  0  0  0  0
    1.9034   -1.5452    0.0000 H   0  0  0  0  0  0  0  0  0  0  0  0
    2.5845   -1.9617    0.0000 H   0  0  0  0  0  0  0  0  0  0  0  0
    1.5390   -0.0227    0.0000 H   0  0  0  0  0  0  0  0  0  0  0  0
    1.5127   -0.8206    0.0000 H   0  0  0  0  0  0  0  0  0  0  0  0
    5.6084   -1.5989    0.0000 H   0  0  0  0  0  0  0  0  0  0  0  0
    4.0645   -2.4173    0.0000 H   0  0  0  0  0  0  0  0  0  0  0  0
    4.9153   -2.2052    0.0000 H   0  0  0  0  0  0  0  0  0  0  0  0
    4.7032   -1.3544    0.0000 H   0  0  0  0  0  0  0  0  0  0  0  0
    7.6910    1.8570    0.0000 H   0  0  0  0  0  0  0  0  0  0  0  0
    7.4520    2.9040    0.0000 H   0  0  0  0  0  0  0  0  0  0  0  0
    2.6237   -3.4753    0.0000 H   0  0  0  0  0  0  0  0  0  0  0  0
  1 20  2  0  0  0  0
  2 22  1  0  0  0  0
  2 51  1  0  0  0  0
  3 22  2  0  0  0  0
  4  5  1  0  0  0  0
  4  8  1  0  0  0  0
  4  9  1  6  0  0  0
  4 10  1  0  0  0  0
  5  6  1  0  0  0  0
  5 13  1  0  0  0  0
  5 24  1  1  0  0  0
  6  7  1  0  0  0  0
  6 14  1  0  0  0  0
  6 17  1  6  0  0  0
  7  8  1  0  0  0  0
  7 11  1  0  0  0  0
  7 25  1  0  0  0  0
  8 20  1  1  0  0  0
  8 26  1  0  0  0  0
  9 12  1  0  0  0  0
  9 27  1  0  0  0  0
  9 28  1  0  0  0  0
 10 16  1  0  0  0  0
 10 29  1  0  0  0  0
 10 30  1  0  0  0  0
 11 18  1  0  0  0  0
 11 21  1  1  0  0  0
 11 22  1  0  0  0  0
 12 15  1  0  0  0  0
 12 16  1  0  0  0  0
 12 31  1  6  0  0  0
 13 15  1  0  0  0  0
 13 32  1  0  0  0  0
 13 33  1  0  0  0  0
 14 19  1  0  0  0  0
 14 34  1  0  0  0  0
 14 35  1  0  0  0  0
 15 36  1  0  0  0  0
 15 37  1  0  0  0  0
 16 23  2  0  0  0  0
 17 38  1  0  0  0  0
 17 39  1  0  0  0  0
 17 40  1  0  0  0  0
 18 19  1  0  0  0  0
 18 41  1  0  0  0  0
 18 42  1  0  0  0  0
 19 43  1  0  0  0  0
 19 44  1  0  0  0  0
 20 45  1  0  0  0  0
 21 46  1  0  0  0  0
 21 47  1  0  0  0  0
 21 48  1  0  0  0  0
 23 49  1  0  0  0  0
 23 50  1  0  0  0  0
M  END
> <PUBCHEM_COMPOUND_CID>
440913

> <PUBCHEM_COMPOUND_CANONICALIZED>
1

> <PUBCHEM_CACTVS_COMPLEXITY>
596

> <PUBCHEM_CACTVS_HBOND_ACCEPTOR>
3

> <PUBCHEM_CACTVS_HBOND_DONOR>
1

> <PUBCHEM_CACTVS_ROTATABLE_BOND>
2

> <PUBCHEM_CACTVS_SUBSKEYS>
AAADceB4MAAAAAAAAAAAAAAAAAAAAYMAAAAwYAAABgAAAGDAAAAAGgAACAAADwCggAICCAAAAgCIAgjSiAAAAAAgAAAAAAEAAAgAABIAAQAAQAAEgAAAAAGIzvCPgAAAAAAAAACAAAQAACAAAQAACAAAAA==

> <PUBCHEM_IUPAC_INCHI>
InChI=1S/C20H28O3/c1-12-9-20-10-13(12)5-6-15(20)18(2)7-4-8-19(3,17(22)23)16(18)14(20)11-21/h11,13-16H,1,4-10H2,2-3H3,(H,22,23)/t13-,14+,15+,16?,18+,19-,20-/m1/s1

> <PUBCHEM_IUPAC_INCHIKEY>
ZCTUNYRXJKLWPY-YBNSQJHGSA-N

> <PUBCHEM_XLOGP3_AA>
3.8

> <PUBCHEM_EXACT_MASS>
316.203845

> <PUBCHEM_MOLECULAR_FORMULA>
C20H28O3

> <PUBCHEM_MOLECULAR_WEIGHT>
316.43452

> <PUBCHEM_OPENEYE_CAN_SMILES>
CC12CCCC(C1C(C34C2CCC(C3)C(=C)C4)C=O)(C)C(=O)O

> <PUBCHEM_OPENEYE_ISO_SMILES>
C[C@@]12CCC[C@@](C1[C@@H]([C@]34[C@H]2CC[C@H](C3)C(=C)C4)C=O)(C)C(=O)O

> <PUBCHEM_CACTVS_TPSA>
54.4

> <PUBCHEM_MONOISOTOPIC_WEIGHT>
316.203845

> <PUBCHEM_TOTAL_CHARGE>
0

> <PUBCHEM_HEAVY_ATOM_COUNT>
23

> <PUBCHEM_ATOM_DEF_STEREO_COUNT>
6

> <PUBCHEM_ATOM_UDEF_STEREO_COUNT>
1

> <PUBCHEM_BOND_DEF_STEREO_COUNT>
0

> <PUBCHEM_BOND_UDEF_STEREO_COUNT>
0

> <PUBCHEM_ISOTOPIC_ATOM_COUNT>
0

> <PUBCHEM_COMPONENT_COUNT>
1

> <PUBCHEM_CACTVS_TAUTO_COUNT>
2

> <PUBCHEM_COORDINATE_TYPE>
1
5
255

> <PUBCHEM_BONDANNOTATIONS>
11  21  5
12  31  6
4  9  6
5  24  5
6  17  6
7  25  3
8  20  5

$$$$

