3755
  -OEChem-06251223382D

 82 84  0     1  0  0  0  0  0999 V2000
    7.7331    1.7505    0.0000 O   0  0  0  0  0  0  0  0  0  0  0  0
    9.4651   -1.2495    0.0000 O   0  0  0  0  0  0  0  0  0  0  0  0
    9.4651    0.7505    0.0000 O   0  0  0  0  0  0  0  0  0  0  0  0
    9.4651    1.7505    0.0000 O   0  0  0  0  0  0  0  0  0  0  0  0
    9.4652   -2.9815    0.0000 O   0  0  0  0  0  0  0  0  0  0  0  0
    7.7331    3.7505    0.0000 O   0  0  0  0  0  0  0  0  0  0  0  0
   11.3312    3.2505    0.0000 O   0  0  0  0  0  0  0  0  0  0  0  0
   11.4651   -1.2495    0.0000 O   0  0  0  0  0  0  0  0  0  0  0  0
   12.4651   -2.9815    0.0000 O   0  0  0  0  0  0  0  0  0  0  0  0
   11.4652   -4.7135    0.0000 O   0  0  0  0  0  0  0  0  0  0  0  0
    5.1350   -0.7495    0.0000 O   0  0  0  0  0  0  0  0  0  0  0  0
    4.2690    1.7505    0.0000 O   0  0  0  0  0  0  0  0  0  0  0  0
    6.0010    0.7505    0.0000 N   0  0  0  0  0  0  0  0  0  0  0  0
    7.2332   -2.1156    0.0000 N   0  0  0  0  0  0  0  0  0  0  0  0
    9.4651    4.7505    0.0000 N   0  0  0  0  0  0  0  0  0  0  0  0
    8.4651   -4.7136    0.0000 N   0  0  0  0  0  0  0  0  0  0  0  0
    2.5369    0.7505    0.0000 N   0  0  0  0  0  0  0  0  0  0  0  0
    7.7331    0.7505    0.0000 C   0  0  3  0  0  0  0  0  0  0  0  0
    8.5991   -0.7495    0.0000 C   0  0  3  0  0  0  0  0  0  0  0  0
    6.8671    0.2505    0.0000 C   0  0  3  0  0  0  0  0  0  0  0  0
    8.5991    0.2505    0.0000 C   0  0  3  0  0  0  0  0  0  0  0  0
    7.7331   -1.2495    0.0000 C   0  0  3  0  0  0  0  0  0  0  0  0
    6.8671   -0.7495    0.0000 C   0  0  0  0  0  0  0  0  0  0  0  0
    8.5991    2.2505    0.0000 C   0  0  3  0  0  0  0  0  0  0  0  0
    8.5991    3.2505    0.0000 C   0  0  3  0  0  0  0  0  0  0  0  0
    9.4651    3.7505    0.0000 C   0  0  3  0  0  0  0  0  0  0  0  0
   10.3312    3.2505    0.0000 C   0  0  3  0  0  0  0  0  0  0  0  0
    9.9652   -2.1155    0.0000 C   0  0  3  0  0  0  0  0  0  0  0  0
   10.9651   -2.1155    0.0000 C   0  0  3  0  0  0  0  0  0  0  0  0
   10.3312    2.2505    0.0000 C   0  0  0  0  0  0  0  0  0  0  0  0
   11.4651   -2.9815    0.0000 C   0  0  3  0  0  0  0  0  0  0  0  0
   10.9652   -3.8475    0.0000 C   0  0  3  0  0  0  0  0  0  0  0  0
    9.9652   -3.8476    0.0000 C   0  0  3  0  0  0  0  0  0  0  0  0
   10.8312    4.1165    0.0000 C   0  0  0  0  0  0  0  0  0  0  0  0
    5.1350    0.2505    0.0000 C   0  0  0  0  0  0  0  0  0  0  0  0
    9.4652   -4.7136    0.0000 C   0  0  0  0  0  0  0  0  0  0  0  0
    4.2690    0.7505    0.0000 C   0  0  3  0  0  0  0  0  0  0  0  0
    8.5991    5.2505    0.0000 C   0  0  0  0  0  0  0  0  0  0  0  0
    3.4030    0.2505    0.0000 C   0  0  0  0  0  0  0  0  0  0  0  0
    8.4692    1.1755    0.0000 H   0  0  0  0  0  0  0  0  0  0  0  0
    8.5991   -1.5995    0.0000 H   0  0  0  0  0  0  0  0  0  0  0  0
    6.1309   -0.1745    0.0000 H   0  0  0  0  0  0  0  0  0  0  0  0
    8.5991    1.1005    0.0000 H   0  0  0  0  0  0  0  0  0  0  0  0
    8.3342   -1.8505    0.0000 H   0  0  0  0  0  0  0  0  0  0  0  0
    6.2565   -0.6418    0.0000 H   0  0  0  0  0  0  0  0  0  0  0  0
    6.6550   -1.3321    0.0000 H   0  0  0  0  0  0  0  0  0  0  0  0
    8.5991    1.4005    0.0000 H   0  0  0  0  0  0  0  0  0  0  0  0
    8.5991    4.1005    0.0000 H   0  0  0  0  0  0  0  0  0  0  0  0
   10.2013    4.1755    0.0000 H   0  0  0  0  0  0  0  0  0  0  0  0
   10.3902   -1.3793    0.0000 H   0  0  0  0  0  0  0  0  0  0  0  0
    6.0010    1.3705    0.0000 H   0  0  0  0  0  0  0  0  0  0  0  0
   11.8151   -2.1155    0.0000 H   0  0  0  0  0  0  0  0  0  0  0  0
    6.6131   -2.1156    0.0000 H   0  0  0  0  0  0  0  0  0  0  0  0
    7.5431   -2.6524    0.0000 H   0  0  0  0  0  0  0  0  0  0  0  0
   10.5432    1.6679    0.0000 H   0  0  0  0  0  0  0  0  0  0  0  0
   10.9417    2.3582    0.0000 H   0  0  0  0  0  0  0  0  0  0  0  0
   11.8901   -2.2454    0.0000 H   0  0  0  0  0  0  0  0  0  0  0  0
   10.0021    0.4405    0.0000 H   0  0  0  0  0  0  0  0  0  0  0  0
   11.8152   -3.8475    0.0000 H   0  0  0  0  0  0  0  0  0  0  0  0
    9.1152   -3.8476    0.0000 H   0  0  0  0  0  0  0  0  0  0  0  0
   11.3681    3.8065    0.0000 H   0  0  0  0  0  0  0  0  0  0  0  0
   11.1412    4.6535    0.0000 H   0  0  0  0  0  0  0  0  0  0  0  0
   10.2942    4.4265    0.0000 H   0  0  0  0  0  0  0  0  0  0  0  0
   10.0021    5.0605    0.0000 H   0  0  0  0  0  0  0  0  0  0  0  0
    9.3575   -5.3242    0.0000 H   0  0  0  0  0  0  0  0  0  0  0  0
   10.0478   -4.9256    0.0000 H   0  0  0  0  0  0  0  0  0  0  0  0
    7.1962    3.4405    0.0000 H   0  0  0  0  0  0  0  0  0  0  0  0
   11.6412    3.7874    0.0000 H   0  0  0  0  0  0  0  0  0  0  0  0
    5.0051    1.1755    0.0000 H   0  0  0  0  0  0  0  0  0  0  0  0
   12.0851   -1.2495    0.0000 H   0  0  0  0  0  0  0  0  0  0  0  0
    8.9091    5.7874    0.0000 H   0  0  0  0  0  0  0  0  0  0  0  0
    8.0622    5.5605    0.0000 H   0  0  0  0  0  0  0  0  0  0  0  0
    8.2891    4.7136    0.0000 H   0  0  0  0  0  0  0  0  0  0  0  0
   12.7751   -3.5185    0.0000 H   0  0  0  0  0  0  0  0  0  0  0  0
   11.1552   -5.2505    0.0000 H   0  0  0  0  0  0  0  0  0  0  0  0
    3.0044   -0.2244    0.0000 H   0  0  0  0  0  0  0  0  0  0  0  0
    3.8015   -0.2244    0.0000 H   0  0  0  0  0  0  0  0  0  0  0  0
    8.1551   -5.2505    0.0000 H   0  0  0  0  0  0  0  0  0  0  0  0
    8.1551   -4.1766    0.0000 H   0  0  0  0  0  0  0  0  0  0  0  0
    3.7320    2.0605    0.0000 H   0  0  0  0  0  0  0  0  0  0  0  0
    2.0000    0.4405    0.0000 H   0  0  0  0  0  0  0  0  0  0  0  0
    2.5369    1.3705    0.0000 H   0  0  0  0  0  0  0  0  0  0  0  0
  1 18  1  0  0  0  0
  1 24  1  0  0  0  0
  2 19  1  0  0  0  0
  2 28  1  0  0  0  0
  3 21  1  0  0  0  0
  3 58  1  0  0  0  0
  4 24  1  0  0  0  0
  4 30  1  0  0  0  0
  5 28  1  0  0  0  0
  5 33  1  0  0  0  0
  6 25  1  0  0  0  0
  6 67  1  0  0  0  0
  7 27  1  0  0  0  0
  7 68  1  0  0  0  0
  8 29  1  0  0  0  0
  8 70  1  0  0  0  0
  9 31  1  0  0  0  0
  9 74  1  0  0  0  0
 10 32  1  0  0  0  0
 10 75  1  0  0  0  0
 11 35  2  0  0  0  0
 12 37  1  0  0  0  0
 12 80  1  0  0  0  0
 13 20  1  0  0  0  0
 13 35  1  0  0  0  0
 13 51  1  0  0  0  0
 14 22  1  0  0  0  0
 14 53  1  0  0  0  0
 14 54  1  0  0  0  0
 15 26  1  0  0  0  0
 15 38  1  0  0  0  0
 15 64  1  0  0  0  0
 16 36  1  0  0  0  0
 16 78  1  0  0  0  0
 16 79  1  0  0  0  0
 17 39  1  0  0  0  0
 17 81  1  0  0  0  0
 17 82  1  0  0  0  0
 18 20  1  0  0  0  0
 18 21  1  0  0  0  0
 18 40  1  0  0  0  0
 19 21  1  0  0  0  0
 19 22  1  0  0  0  0
 19 41  1  0  0  0  0
 20 23  1  0  0  0  0
 20 42  1  0  0  0  0
 21 43  1  0  0  0  0
 22 23  1  0  0  0  0
 22 44  1  0  0  0  0
 23 45  1  0  0  0  0
 23 46  1  0  0  0  0
 24 25  1  0  0  0  0
 24 47  1  0  0  0  0
 25 26  1  0  0  0  0
 25 48  1  0  0  0  0
 26 27  1  0  0  0  0
 26 49  1  0  0  0  0
 27 30  1  0  0  0  0
 27 34  1  0  0  0  0
 28 29  1  0  0  0  0
 28 50  1  0  0  0  0
 29 31  1  0  0  0  0
 29 52  1  0  0  0  0
 30 55  1  0  0  0  0
 30 56  1  0  0  0  0
 31 32  1  0  0  0  0
 31 57  1  0  0  0  0
 32 33  1  0  0  0  0
 32 59  1  0  0  0  0
 33 36  1  0  0  0  0
 33 60  1  0  0  0  0
 34 61  1  0  0  0  0
 34 62  1  0  0  0  0
 34 63  1  0  0  0  0
 35 37  1  0  0  0  0
 36 65  1  0  0  0  0
 36 66  1  0  0  0  0
 37 39  1  0  0  0  0
 37 69  1  0  0  0  0
 38 71  1  0  0  0  0
 38 72  1  0  0  0  0
 38 73  1  0  0  0  0
 39 76  1  0  0  0  0
 39 77  1  0  0  0  0
M  END
> <PUBCHEM_COMPOUND_CID>
3755

> <PUBCHEM_COMPOUND_CANONICALIZED>
1

> <PUBCHEM_CACTVS_COMPLEXITY>
817

> <PUBCHEM_CACTVS_HBOND_ACCEPTOR>
16

> <PUBCHEM_CACTVS_HBOND_DONOR>
12

> <PUBCHEM_CACTVS_ROTATABLE_BOND>
9

> <PUBCHEM_CACTVS_SUBSKEYS>
AAADcfB7vAAAAAAAAAAAAAAAAAAAAAAAAAA0SIAAAAAAAAAAAAAAHgAQCAAADHzxgAcCCALABgAIAAEQEAIAAAAAAAAAAIFIAAATEAoAwAAnQAAHFgCXAAHwcA8MAAAAAAAAAAAAgAAUCACgAAAAAAAAAA==

> <PUBCHEM_IUPAC_OPENEYE_NAME>
3-amino-N-[5-amino-4-[6-(aminomethyl)-3,4,5-trihydroxy-tetrahydropyran-2-yl]oxy-2-[3,5-dihydroxy-5-methyl-4-(methylamino)tetrahydropyran-2-yl]oxy-3-hydroxy-cyclohexyl]-2-hydroxy-propanamide

> <PUBCHEM_IUPAC_CAS_NAME>
3-amino-N-[5-amino-4-[[6-(aminomethyl)-3,4,5-trihydroxy-2-oxanyl]oxy]-2-[[3,5-dihydroxy-5-methyl-4-(methylamino)-2-oxanyl]oxy]-3-hydroxycyclohexyl]-2-hydroxypropanamide

> <PUBCHEM_IUPAC_NAME>
3-amino-N-[5-amino-4-[6-(aminomethyl)-3,4,5-trihydroxyoxan-2-yl]oxy-2-[3,5-dihydroxy-5-methyl-4-(methylamino)oxan-2-yl]oxy-3-hydroxycyclohexyl]-2-hydroxypropanamide

> <PUBCHEM_IUPAC_SYSTEMATIC_NAME>
N-[4-[6-(aminomethyl)-3,4,5-tris(oxidanyl)oxan-2-yl]oxy-5-azanyl-2-[5-methyl-4-(methylamino)-3,5-bis(oxidanyl)oxan-2-yl]oxy-3-oxidanyl-cyclohexyl]-3-azanyl-2-oxidanyl-propanamide

> <PUBCHEM_IUPAC_TRADITIONAL_NAME>
3-amino-N-[5-amino-4-[6-(aminomethyl)-3,4,5-trihydroxy-tetrahydropyran-2-yl]oxy-2-[3,5-dihydroxy-5-methyl-4-(methylamino)tetrahydropyran-2-yl]oxy-3-hydroxy-cyclohexyl]-2-hydroxy-propionamide

> <PUBCHEM_IUPAC_INCHI>
InChI=1S/C22H43N5O12/c1-22(35)6-36-20(15(33)18(22)26-2)39-17-8(27-19(34)9(28)4-23)3-7(25)16(14(17)32)38-21-13(31)12(30)11(29)10(5-24)37-21/h7-18,20-21,26,28-33,35H,3-6,23-25H2,1-2H3,(H,27,34)

> <PUBCHEM_IUPAC_INCHIKEY>
UDIIBEDMEYAVNG-UHFFFAOYSA-N

> <PUBCHEM_XLOGP3_AA>
-6.9

> <PUBCHEM_EXACT_MASS>
569.290822

> <PUBCHEM_MOLECULAR_FORMULA>
C22H43N5O12

> <PUBCHEM_MOLECULAR_WEIGHT>
569.60312

> <PUBCHEM_OPENEYE_CAN_SMILES>
CC1(COC(C(C1NC)O)OC2C(CC(C(C2O)OC3C(C(C(C(O3)CN)O)O)O)N)NC(=O)C(CN)O)O

> <PUBCHEM_OPENEYE_ISO_SMILES>
CC1(COC(C(C1NC)O)OC2C(CC(C(C2O)OC3C(C(C(C(O3)CN)O)O)O)N)NC(=O)C(CN)O)O

> <PUBCHEM_CACTVS_TPSA>
298

> <PUBCHEM_MONOISOTOPIC_WEIGHT>
569.290822

> <PUBCHEM_TOTAL_CHARGE>
0

> <PUBCHEM_HEAVY_ATOM_COUNT>
39

> <PUBCHEM_ATOM_DEF_STEREO_COUNT>
0

> <PUBCHEM_ATOM_UDEF_STEREO_COUNT>
15

> <PUBCHEM_BOND_DEF_STEREO_COUNT>
0

> <PUBCHEM_BOND_UDEF_STEREO_COUNT>
0

> <PUBCHEM_ISOTOPIC_ATOM_COUNT>
0

> <PUBCHEM_COMPONENT_COUNT>
1

> <PUBCHEM_CACTVS_TAUTO_COUNT>
2

> <PUBCHEM_COORDINATE_TYPE>
1
5
255

> <PUBCHEM_BONDANNOTATIONS>
18  40  3
19  41  3
20  42  3
21  43  3
22  44  3
24  47  3
25  48  3
26  49  3
27  34  3
28  50  3
29  52  3
31  57  3
32  59  3
33  60  3
37  69  3

$$$$

