3605
  -OEChem-06251223322D

101103  0     1  0  0  0  0  0999 V2000
    5.8555    6.3252    0.0000 S   0  0  0  0  0  0  0  0  0  0  0  0
   19.0796   -2.8551    0.0000 P   0  0  0  0  0  0  0  0  0  0  0  0
   15.8294   -2.0127    0.0000 P   0  0  3  0  0  0  0  0  0  0  0  0
   14.5442   -0.8515    0.0000 P   0  0  3  0  0  0  0  0  0  0  0  0
   16.8327   -4.9335    0.0000 O   0  0  0  0  0  0  0  0  0  0  0  0
   19.1824   -3.8498    0.0000 O   0  0  0  0  0  0  0  0  0  0  0  0
   19.1787   -6.0254    0.0000 O   0  0  0  0  0  0  0  0  0  0  0  0
   16.1367   -2.9643    0.0000 O   0  0  0  0  0  0  0  0  0  0  0  0
   18.9768   -1.8604    0.0000 O   0  0  0  0  0  0  0  0  0  0  0  0
   20.0743   -2.7523    0.0000 O   0  0  0  0  0  0  0  0  0  0  0  0
   15.5220   -1.0612    0.0000 O   0  0  0  0  0  0  0  0  0  0  0  0
   18.0849   -2.9579    0.0000 O   0  0  0  0  0  0  0  0  0  0  0  0
   13.5664   -0.6419    0.0000 O   0  0  0  0  0  0  0  0  0  0  0  0
   14.8778   -2.3201    0.0000 O   0  0  0  0  0  0  0  0  0  0  0  0
   10.6331   -0.0131    0.0000 O   0  0  0  0  0  0  0  0  0  0  0  0
   16.7809   -1.7054    0.0000 O   0  0  0  0  0  0  0  0  0  0  0  0
   14.7538    0.1262    0.0000 O   0  0  0  0  0  0  0  0  0  0  0  0
   14.3346   -1.8293    0.0000 O   0  0  0  0  0  0  0  0  0  0  0  0
   11.6665    2.4224    0.0000 O   0  0  0  0  0  0  0  0  0  0  0  0
    9.0962    4.7448    0.0000 O   0  0  0  0  0  0  0  0  0  0  0  0
    4.2073    5.7928    0.0000 O   0  0  0  0  0  0  0  0  0  0  0  0
   17.1084   -6.6941    0.0000 N   0  0  0  0  0  0  0  0  0  0  0  0
   17.1084   -8.3035    0.0000 N   0  0  0  0  0  0  0  0  0  0  0  0
   15.2962   -6.4988    0.0000 N   0  0  0  0  0  0  0  0  0  0  0  0
   14.4302   -7.9988    0.0000 N   0  0  0  0  0  0  0  0  0  0  0  0
   15.2962   -9.4988    0.0000 N   0  0  0  0  0  0  0  0  0  0  0  0
   10.0183    1.8900    0.0000 N   0  0  0  0  0  0  0  0  0  0  0  0
    7.4480    4.2124    0.0000 N   0  0  0  0  0  0  0  0  0  0  0  0
   18.3724   -4.4362    0.0000 C   0  0  3  0  0  0  0  0  0  0  0  0
   18.3707   -5.4362    0.0000 C   0  0  3  0  0  0  0  0  0  0  0  0
   17.4219   -4.1255    0.0000 C   0  0  3  0  0  0  0  0  0  0  0  0
   17.4191   -5.7436    0.0000 C   0  0  3  0  0  0  0  0  0  0  0  0
   17.1145   -3.1739    0.0000 C   0  0  0  0  0  0  0  0  0  0  0  0
   16.1622   -6.9988    0.0000 C   0  0  0  0  0  0  0  0  0  0  0  0
   17.6920   -7.4988    0.0000 C   0  0  0  0  0  0  0  0  0  0  0  0
   16.1622   -7.9988    0.0000 C   0  0  0  0  0  0  0  0  0  0  0  0
   12.2813    0.5193    0.0000 C   0  0  0  0  0  0  0  0  0  0  0  0
   11.3035    0.7289    0.0000 C   0  0  3  0  0  0  0  0  0  0  0  0
   13.2590    0.3096    0.0000 C   0  0  0  0  0  0  0  0  0  0  0  0
   15.2962   -8.4988    0.0000 C   0  0  0  0  0  0  0  0  0  0  0  0
   12.4909    1.4970    0.0000 C   0  0  0  0  0  0  0  0  0  0  0  0
   12.0717   -0.4585    0.0000 C   0  0  0  0  0  0  0  0  0  0  0  0
   14.4302   -6.9988    0.0000 C   0  0  0  0  0  0  0  0  0  0  0  0
   10.9961    1.6804    0.0000 C   0  0  0  0  0  0  0  0  0  0  0  0
    9.7109    2.8416    0.0000 C   0  0  0  0  0  0  0  0  0  0  0  0
    8.7332    3.0512    0.0000 C   0  0  0  0  0  0  0  0  0  0  0  0
    8.4258    4.0028    0.0000 C   0  0  0  0  0  0  0  0  0  0  0  0
    7.1406    5.1640    0.0000 C   0  0  0  0  0  0  0  0  0  0  0  0
    3.5925    7.6960    0.0000 C   0  0  0  0  0  0  0  0  0  0  0  0
    3.2852    8.6476    0.0000 C   0  0  0  0  0  0  0  0  0  0  0  0
    6.1628    5.3736    0.0000 C   0  0  0  0  0  0  0  0  0  0  0  0
    4.5703    7.4864    0.0000 C   0  0  0  0  0  0  0  0  0  0  0  0
    2.3074    8.8572    0.0000 C   0  0  0  0  0  0  0  0  0  0  0  0
    4.8777    6.5348    0.0000 C   0  0  0  0  0  0  0  0  0  0  0  0
    2.0000    9.8088    0.0000 C   0  0  0  0  0  0  0  0  0  0  0  0
   18.9243   -4.7186    0.0000 H   0  0  0  0  0  0  0  0  0  0  0  0
   18.9236   -5.1557    0.0000 H   0  0  0  0  0  0  0  0  0  0  0  0
   16.8097   -4.0275    0.0000 H   0  0  0  0  0  0  0  0  0  0  0  0
   16.8066   -5.8395    0.0000 H   0  0  0  0  0  0  0  0  0  0  0  0
   17.7286   -3.0887    0.0000 H   0  0  0  0  0  0  0  0  0  0  0  0
   17.1372   -2.5544    0.0000 H   0  0  0  0  0  0  0  0  0  0  0  0
   19.7455   -5.7742    0.0000 H   0  0  0  0  0  0  0  0  0  0  0  0
   18.3120   -7.4988    0.0000 H   0  0  0  0  0  0  0  0  0  0  0  0
   11.4940    0.1389    0.0000 H   0  0  0  0  0  0  0  0  0  0  0  0
   13.8732    0.3949    0.0000 H   0  0  0  0  0  0  0  0  0  0  0  0
   13.2818    0.9292    0.0000 H   0  0  0  0  0  0  0  0  0  0  0  0
   13.0971    1.3671    0.0000 H   0  0  0  0  0  0  0  0  0  0  0  0
   12.6208    2.1033    0.0000 H   0  0  0  0  0  0  0  0  0  0  0  0
   11.8846    1.6270    0.0000 H   0  0  0  0  0  0  0  0  0  0  0  0
   11.4654   -0.3286    0.0000 H   0  0  0  0  0  0  0  0  0  0  0  0
   11.9417   -1.0648    0.0000 H   0  0  0  0  0  0  0  0  0  0  0  0
   12.6779   -0.5885    0.0000 H   0  0  0  0  0  0  0  0  0  0  0  0
   19.4790   -1.4968    0.0000 H   0  0  0  0  0  0  0  0  0  0  0  0
   20.4379   -3.2545    0.0000 H   0  0  0  0  0  0  0  0  0  0  0  0
   13.8932   -6.6888    0.0000 H   0  0  0  0  0  0  0  0  0  0  0  0
   14.7478   -2.9263    0.0000 H   0  0  0  0  0  0  0  0  0  0  0  0
   14.7592   -9.8088    0.0000 H   0  0  0  0  0  0  0  0  0  0  0  0
   15.8331   -9.8088    0.0000 H   0  0  0  0  0  0  0  0  0  0  0  0
   10.0268    0.1168    0.0000 H   0  0  0  0  0  0  0  0  0  0  0  0
    9.6027    1.4300    0.0000 H   0  0  0  0  0  0  0  0  0  0  0  0
   10.3251    2.9269    0.0000 H   0  0  0  0  0  0  0  0  0  0  0  0
    9.7337    3.4612    0.0000 H   0  0  0  0  0  0  0  0  0  0  0  0
   15.3438    0.3168    0.0000 H   0  0  0  0  0  0  0  0  0  0  0  0
    8.1190    2.9660    0.0000 H   0  0  0  0  0  0  0  0  0  0  0  0
    8.7104    2.4317    0.0000 H   0  0  0  0  0  0  0  0  0  0  0  0
    7.0323    3.7524    0.0000 H   0  0  0  0  0  0  0  0  0  0  0  0
    7.7547    5.2492    0.0000 H   0  0  0  0  0  0  0  0  0  0  0  0
    7.1633    5.7836    0.0000 H   0  0  0  0  0  0  0  0  0  0  0  0
    2.9784    7.6108    0.0000 H   0  0  0  0  0  0  0  0  0  0  0  0
    3.5698    7.0764    0.0000 H   0  0  0  0  0  0  0  0  0  0  0  0
    3.8993    8.7328    0.0000 H   0  0  0  0  0  0  0  0  0  0  0  0
    3.3079    9.2672    0.0000 H   0  0  0  0  0  0  0  0  0  0  0  0
    5.5487    5.2884    0.0000 H   0  0  0  0  0  0  0  0  0  0  0  0
    6.1401    4.7540    0.0000 H   0  0  0  0  0  0  0  0  0  0  0  0
    5.1844    7.5716    0.0000 H   0  0  0  0  0  0  0  0  0  0  0  0
    4.5930    8.1060    0.0000 H   0  0  0  0  0  0  0  0  0  0  0  0
    1.6933    8.7720    0.0000 H   0  0  0  0  0  0  0  0  0  0  0  0
    2.2847    8.2376    0.0000 H   0  0  0  0  0  0  0  0  0  0  0  0
    2.5900    9.9994    0.0000 H   0  0  0  0  0  0  0  0  0  0  0  0
    1.8094   10.3988    0.0000 H   0  0  0  0  0  0  0  0  0  0  0  0
    1.4100    9.6182    0.0000 H   0  0  0  0  0  0  0  0  0  0  0  0
  1 51  1  0  0  0  0
  1 54  1  0  0  0  0
  2  6  1  0  0  0  0
  2  9  1  0  0  0  0
  2 10  1  0  0  0  0
  2 12  2  0  0  0  0
  3  8  1  0  0  0  0
  3 11  1  0  0  0  0
  3 14  1  0  0  0  0
  3 16  2  0  0  0  0
  4 11  1  0  0  0  0
  4 13  1  0  0  0  0
  4 17  1  0  0  0  0
  4 18  2  0  0  0  0
  5 31  1  0  0  0  0
  5 32  1  0  0  0  0
  6 29  1  0  0  0  0
  7 30  1  0  0  0  0
  7 62  1  0  0  0  0
  8 33  1  0  0  0  0
  9 73  1  0  0  0  0
 10 74  1  0  0  0  0
 13 39  1  0  0  0  0
 14 76  1  0  0  0  0
 15 38  1  0  0  0  0
 15 79  1  0  0  0  0
 17 83  1  0  0  0  0
 19 44  2  0  0  0  0
 20 47  2  0  0  0  0
 21 54  2  0  0  0  0
 22 32  1  0  0  0  0
 22 34  1  0  0  0  0
 22 35  1  0  0  0  0
 23 35  2  0  0  0  0
 23 36  1  0  0  0  0
 24 34  2  0  0  0  0
 24 43  1  0  0  0  0
 25 40  1  0  0  0  0
 25 43  2  0  0  0  0
 26 40  1  0  0  0  0
 26 77  1  0  0  0  0
 26 78  1  0  0  0  0
 27 44  1  0  0  0  0
 27 45  1  0  0  0  0
 27 80  1  0  0  0  0
 28 47  1  0  0  0  0
 28 48  1  0  0  0  0
 28 86  1  0  0  0  0
 29 30  1  0  0  0  0
 29 31  1  0  0  0  0
 29 56  1  0  0  0  0
 30 32  1  0  0  0  0
 30 57  1  0  0  0  0
 31 33  1  0  0  0  0
 31 58  1  0  0  0  0
 32 59  1  0  0  0  0
 33 60  1  0  0  0  0
 33 61  1  0  0  0  0
 34 36  1  0  0  0  0
 35 63  1  0  0  0  0
 36 40  2  0  0  0  0
 37 38  1  0  0  0  0
 37 39  1  0  0  0  0
 37 41  1  0  0  0  0
 37 42  1  0  0  0  0
 38 44  1  0  0  0  0
 38 64  1  0  0  0  0
 39 65  1  0  0  0  0
 39 66  1  0  0  0  0
 41 67  1  0  0  0  0
 41 68  1  0  0  0  0
 41 69  1  0  0  0  0
 42 70  1  0  0  0  0
 42 71  1  0  0  0  0
 42 72  1  0  0  0  0
 43 75  1  0  0  0  0
 45 46  1  0  0  0  0
 45 81  1  0  0  0  0
 45 82  1  0  0  0  0
 46 47  1  0  0  0  0
 46 84  1  0  0  0  0
 46 85  1  0  0  0  0
 48 51  1  0  0  0  0
 48 87  1  0  0  0  0
 48 88  1  0  0  0  0
 49 50  1  0  0  0  0
 49 52  1  0  0  0  0
 49 89  1  0  0  0  0
 49 90  1  0  0  0  0
 50 53  1  0  0  0  0
 50 91  1  0  0  0  0
 50 92  1  0  0  0  0
 51 93  1  0  0  0  0
 51 94  1  0  0  0  0
 52 54  1  0  0  0  0
 52 95  1  0  0  0  0
 52 96  1  0  0  0  0
 53 55  1  0  0  0  0
 53 97  1  0  0  0  0
 53 98  1  0  0  0  0
 55 99  1  0  0  0  0
 55100  1  0  0  0  0
 55101  1  0  0  0  0
M  END
> <PUBCHEM_COMPOUND_CID>
3605

> <PUBCHEM_COMPOUND_CANONICALIZED>
1

> <PUBCHEM_CACTVS_COMPLEXITY>
1450

> <PUBCHEM_CACTVS_HBOND_ACCEPTOR>
22

> <PUBCHEM_CACTVS_HBOND_DONOR>
9

> <PUBCHEM_CACTVS_ROTATABLE_BOND>
24

> <PUBCHEM_CACTVS_SUBSKEYS>
AAADcfB7vgNAAAAAAAAAAAAAAAAAAWJAAAAsAAAAAAAAAFgB+AAAHgQQCCAADhzl1waH8L/MFxioQQdxdIKAgC0RELABUKFoVBCDWBpgyEAeRAgPFgLzACH6OAIJAAAAAAAAAAAAAAAAAAAAAAAAAAAAAA==

> <PUBCHEM_IUPAC_OPENEYE_NAME>
S-[2-[3-[[4-[[[5-(6-aminopurin-9-yl)-4-hydroxy-3-phosphonooxy-tetrahydrofuran-2-yl]methoxy-hydroxy-phosphoryl]oxy-hydroxy-phosphoryl]oxy-2-hydroxy-3,3-dimethyl-butanoyl]amino]propanoylamino]ethyl] hexanethioate

> <PUBCHEM_IUPAC_CAS_NAME>
hexanethioic acid S-[2-[[3-[[4-[[[5-(6-aminopurin-9-yl)-4-hydroxy-3-phosphonooxy-2-oxolanyl]methoxy-hydroxyphosphoryl]oxy-hydroxyphosphoryl]oxy-2-hydroxy-3,3-dimethyl-1-oxobutyl]amino]-1-oxopropyl]amino]ethyl] ester

> <PUBCHEM_IUPAC_NAME>
S-[2-[3-[[4-[[[5-(6-aminopurin-9-yl)-4-hydroxy-3-phosphonooxyoxolan-2-yl]methoxy-hydroxyphosphoryl]oxy-hydroxyphosphoryl]oxy-2-hydroxy-3,3-dimethylbutanoyl]amino]propanoylamino]ethyl] hexanethioate

> <PUBCHEM_IUPAC_SYSTEMATIC_NAME>
S-[2-[3-[[4-[[[5-(6-aminopurin-9-yl)-4-oxidanyl-3-phosphonooxy-oxolan-2-yl]methoxy-oxidanyl-phosphoryl]oxy-oxidanyl-phosphoryl]oxy-3,3-dimethyl-2-oxidanyl-butanoyl]amino]propanoylamino]ethyl] hexanethioate

> <PUBCHEM_IUPAC_TRADITIONAL_NAME>
hexanethioic acid S-[2-[3-[[4-[[(5-adenin-9-yl-4-hydroxy-3-phosphonooxy-tetrahydrofuran-2-yl)methoxy-hydroxy-phosphoryl]oxy-hydroxy-phosphoryl]oxy-2-hydroxy-3,3-dimethyl-butanoyl]amino]propanoylamino]ethyl] ester

> <PUBCHEM_IUPAC_INCHI>
InChI=1S/C27H46N7O17P3S/c1-4-5-6-7-18(36)55-11-10-29-17(35)8-9-30-25(39)22(38)27(2,3)13-48-54(45,46)51-53(43,44)47-12-16-21(50-52(40,41)42)20(37)26(49-16)34-15-33-19-23(28)31-14-32-24(19)34/h14-16,20-22,26,37-38H,4-13H2,1-3H3,(H,29,35)(H,30,39)(H,43,44)(H,45,46)(H2,28,31,32)(H2,40,41,42)

> <PUBCHEM_IUPAC_INCHIKEY>
OEXFMSFODMQEPE-UHFFFAOYSA-N

> <PUBCHEM_XLOGP3>
-3.7

> <PUBCHEM_EXACT_MASS>
865.188374

> <PUBCHEM_MOLECULAR_FORMULA>
C27H46N7O17P3S

> <PUBCHEM_MOLECULAR_WEIGHT>
865.677126

> <PUBCHEM_OPENEYE_CAN_SMILES>
CCCCCC(=O)SCCNC(=O)CCNC(=O)C(C(C)(C)COP(=O)(O)OP(=O)(O)OCC1C(C(C(O1)N2C=NC3=C2N=CN=C3N)O)OP(=O)(O)O)O

> <PUBCHEM_OPENEYE_ISO_SMILES>
CCCCCC(=O)SCCNC(=O)CCNC(=O)C(C(C)(C)COP(=O)(O)OP(=O)(O)OCC1C(C(C(O1)N2C=NC3=C2N=CN=C3N)O)OP(=O)(O)O)O

> <PUBCHEM_CACTVS_TPSA>
389

> <PUBCHEM_MONOISOTOPIC_WEIGHT>
865.188374

> <PUBCHEM_TOTAL_CHARGE>
0

> <PUBCHEM_HEAVY_ATOM_COUNT>
55

> <PUBCHEM_ATOM_DEF_STEREO_COUNT>
0

> <PUBCHEM_ATOM_UDEF_STEREO_COUNT>
5

> <PUBCHEM_BOND_DEF_STEREO_COUNT>
0

> <PUBCHEM_BOND_UDEF_STEREO_COUNT>
0

> <PUBCHEM_ISOTOPIC_ATOM_COUNT>
0

> <PUBCHEM_COMPONENT_COUNT>
1

> <PUBCHEM_CACTVS_TAUTO_COUNT>
12

> <PUBCHEM_COORDINATE_TYPE>
1
5
255

> <PUBCHEM_BONDANNOTATIONS>
38  15  3
32  22  3
22  34  8
22  35  8
23  35  8
23  36  8
24  34  8
24  43  8
25  40  8
25  43  8
31  33  3
34  36  8
36  40  8
29  6  3
30  7  3

$$$$

