11954189
  -OEChem-07051213073D

 55 55  0     0  0  0  0  0  0999 V2000
   -2.0321   -1.9959   -1.1657 O   0  0  0  0  0  0  0  0  0  0  0  0
   -4.5283   -2.2341   -0.0268 O   0  0  0  0  0  0  0  0  0  0  0  0
   -5.7775   -0.0180    1.0399 O   0  0  0  0  0  0  0  0  0  0  0  0
   -4.5311    2.4369    0.9674 O   0  0  0  0  0  0  0  0  0  0  0  0
    3.0441    0.1084   -0.0037 C   0  0  0  0  0  0  0  0  0  0  0  0
    4.4207    0.1849   -0.6677 C   0  0  0  0  0  0  0  0  0  0  0  0
    1.8846    0.3096   -0.9845 C   0  0  0  0  0  0  0  0  0  0  0  0
    5.5401   -0.0454    0.3502 C   0  0  0  0  0  0  0  0  0  0  0  0
    0.5075    0.2571   -0.3137 C   0  0  0  0  0  0  0  0  0  0  0  0
    6.9164   -0.0073   -0.3182 C   0  0  0  0  0  0  0  0  0  0  0  0
   -0.6460    0.4704   -1.3016 C   0  0  0  0  0  0  0  0  0  0  0  0
    8.0356   -0.2039    0.7068 C   0  0  0  0  0  0  0  0  0  0  0  0
   -2.0128    0.3454   -0.6768 C   0  0  0  0  0  0  0  0  0  0  0  0
    9.4362   -0.1502    0.0930 C   0  0  0  0  0  0  0  0  0  0  0  0
   -2.6444    1.4659   -0.1376 C   0  0  0  0  0  0  0  0  0  0  0  0
   -2.6455   -0.8971   -0.6400 C   0  0  0  0  0  0  0  0  0  0  0  0
   -3.9089    1.3441    0.4387 C   0  0  0  0  0  0  0  0  0  0  0  0
   -3.9100   -1.0192   -0.0636 C   0  0  0  0  0  0  0  0  0  0  0  0
   10.5509   -0.3705    1.1037 C   0  0  0  0  0  0  0  0  0  0  0  0
   -4.5417    0.1015    0.4757 C   0  0  0  0  0  0  0  0  0  0  0  0
   -1.9717    2.8012   -0.1743 C   0  0  0  0  0  0  0  0  0  0  0  0
   -4.2850   -3.0493    1.1170 C   0  0  0  0  0  0  0  0  0  0  0  0
   -6.9009    0.1654    0.1816 C   0  0  0  0  0  0  0  0  0  0  0  0
    2.9310   -0.8668    0.4860 H   0  0  0  0  0  0  0  0  0  0  0  0
    2.9818    0.8680    0.7854 H   0  0  0  0  0  0  0  0  0  0  0  0
    4.5463    1.1663   -1.1407 H   0  0  0  0  0  0  0  0  0  0  0  0
    4.4842   -0.5683   -1.4623 H   0  0  0  0  0  0  0  0  0  0  0  0
    2.0024    1.2784   -1.4852 H   0  0  0  0  0  0  0  0  0  0  0  0
    1.9358   -0.4598   -1.7647 H   0  0  0  0  0  0  0  0  0  0  0  0
    5.4876    0.7226    1.1314 H   0  0  0  0  0  0  0  0  0  0  0  0
    5.3989   -1.0162    0.8407 H   0  0  0  0  0  0  0  0  0  0  0  0
    0.3933   -0.7156    0.1814 H   0  0  0  0  0  0  0  0  0  0  0  0
    0.4652    1.0090    0.4832 H   0  0  0  0  0  0  0  0  0  0  0  0
    7.0525    0.9550   -0.8265 H   0  0  0  0  0  0  0  0  0  0  0  0
    6.9781   -0.7898   -1.0839 H   0  0  0  0  0  0  0  0  0  0  0  0
   -0.5365    1.4412   -1.8007 H   0  0  0  0  0  0  0  0  0  0  0  0
   -0.5499   -0.2321   -2.1397 H   0  0  0  0  0  0  0  0  0  0  0  0
    7.9569    0.5677    1.4829 H   0  0  0  0  0  0  0  0  0  0  0  0
    7.9003   -1.1708    1.2075 H   0  0  0  0  0  0  0  0  0  0  0  0
    9.5172   -0.9108   -0.6928 H   0  0  0  0  0  0  0  0  0  0  0  0
    9.5833    0.8228   -0.3907 H   0  0  0  0  0  0  0  0  0  0  0  0
   10.4579   -1.3518    1.5795 H   0  0  0  0  0  0  0  0  0  0  0  0
   11.5268   -0.3213    0.6109 H   0  0  0  0  0  0  0  0  0  0  0  0
   10.5245    0.3945    1.8862 H   0  0  0  0  0  0  0  0  0  0  0  0
   -0.8813    2.7438   -0.1462 H   0  0  0  0  0  0  0  0  0  0  0  0
   -2.2214    3.4058    0.7046 H   0  0  0  0  0  0  0  0  0  0  0  0
   -2.2709    3.3478   -1.0743 H   0  0  0  0  0  0  0  0  0  0  0  0
   -1.0685   -1.8863   -1.1585 H   0  0  0  0  0  0  0  0  0  0  0  0
   -4.2198    3.2443    0.5277 H   0  0  0  0  0  0  0  0  0  0  0  0
   -3.2200   -3.2873    1.2018 H   0  0  0  0  0  0  0  0  0  0  0  0
   -4.6313   -2.5495    2.0272 H   0  0  0  0  0  0  0  0  0  0  0  0
   -4.8427   -3.9821    0.9975 H   0  0  0  0  0  0  0  0  0  0  0  0
   -6.8986    1.1726   -0.2471 H   0  0  0  0  0  0  0  0  0  0  0  0
   -6.9014   -0.5824   -0.6176 H   0  0  0  0  0  0  0  0  0  0  0  0
   -7.8100    0.0412    0.7763 H   0  0  0  0  0  0  0  0  0  0  0  0
  1 16  1  0  0  0  0
  1 48  1  0  0  0  0
  2 18  1  0  0  0  0
  2 22  1  0  0  0  0
  3 20  1  0  0  0  0
  3 23  1  0  0  0  0
  4 17  1  0  0  0  0
  4 49  1  0  0  0  0
  5  6  1  0  0  0  0
  5  7  1  0  0  0  0
  5 24  1  0  0  0  0
  5 25  1  0  0  0  0
  6  8  1  0  0  0  0
  6 26  1  0  0  0  0
  6 27  1  0  0  0  0
  7  9  1  0  0  0  0
  7 28  1  0  0  0  0
  7 29  1  0  0  0  0
  8 10  1  0  0  0  0
  8 30  1  0  0  0  0
  8 31  1  0  0  0  0
  9 11  1  0  0  0  0
  9 32  1  0  0  0  0
  9 33  1  0  0  0  0
 10 12  1  0  0  0  0
 10 34  1  0  0  0  0
 10 35  1  0  0  0  0
 11 13  1  0  0  0  0
 11 36  1  0  0  0  0
 11 37  1  0  0  0  0
 12 14  1  0  0  0  0
 12 38  1  0  0  0  0
 12 39  1  0  0  0  0
 13 15  2  0  0  0  0
 13 16  1  0  0  0  0
 14 19  1  0  0  0  0
 14 40  1  0  0  0  0
 14 41  1  0  0  0  0
 15 17  1  0  0  0  0
 15 21  1  0  0  0  0
 16 18  2  0  0  0  0
 17 20  2  0  0  0  0
 18 20  1  0  0  0  0
 19 42  1  0  0  0  0
 19 43  1  0  0  0  0
 19 44  1  0  0  0  0
 21 45  1  0  0  0  0
 21 46  1  0  0  0  0
 21 47  1  0  0  0  0
 22 50  1  0  0  0  0
 22 51  1  0  0  0  0
 22 52  1  0  0  0  0
 23 53  1  0  0  0  0
 23 54  1  0  0  0  0
 23 55  1  0  0  0  0
M  END
> <PUBCHEM_COMPOUND_CID>
11954189

> <PUBCHEM_CONFORMER_RMSD>
1

> <PUBCHEM_CONFORMER_DIVERSEORDER>
1
164
81
36
98
10
32
29
28
130
118
6
121
27
19
20
139
54
3
86
61
174
106
41
179
99
14
114
125
21
160
165
53
51
126
45
154
24
4
178
127
124
50
129
23
101
102
117
69
146
64
155
33
52
113
56
152
128
103
110
82
182
158
171
31
148
105
66
34
180
151
7
96
134
42
176
74
109
70
67
123
79
87
25
8
133
111
89
15
75
26
76
48
18
173
135
183
143
88
90
91
55
92
153
170
104
85
169
150
84
115
62
131
12
2
163
181
17
44
35
172
116
159
22
39
30
132
140
107
78
57
40
93
161
147
60
95
156
63
83
68
37
108
16
119
71
9
65
138
168
47
73
59
11
80
144
167
94
145
137
77
142
149
136
162
112
43
157
5
49
38
166
46
122
97
175
72
58
177
100
13
120
141

> <PUBCHEM_MMFF94_PARTIAL_CHARGES>
16
1 -0.53
11 0.14
13 -0.14
15 -0.14
16 0.08
17 0.08
18 0.08
2 -0.36
20 0.08
21 0.14
22 0.28
23 0.28
3 -0.36
4 -0.53
48 0.45
49 0.45

> <PUBCHEM_EFFECTIVE_ROTOR_COUNT>
11

> <PUBCHEM_PHARMACOPHORE_FEATURES>
6
1 1 donor
1 19 hydrophobe
1 2 acceptor
1 3 acceptor
1 4 donor
6 13 15 16 17 18 20 rings

> <PUBCHEM_HEAVY_ATOM_COUNT>
23

> <PUBCHEM_ATOM_DEF_STEREO_COUNT>
0

> <PUBCHEM_ATOM_UDEF_STEREO_COUNT>
0

> <PUBCHEM_BOND_DEF_STEREO_COUNT>
0

> <PUBCHEM_BOND_UDEF_STEREO_COUNT>
0

> <PUBCHEM_ISOTOPIC_ATOM_COUNT>
0

> <PUBCHEM_COMPONENT_COUNT>
1

> <PUBCHEM_CACTVS_TAUTO_COUNT>
28

> <PUBCHEM_CONFORMER_ID>
00B6680D00000001

> <PUBCHEM_MMFF94_ENERGY>
63.2135

> <PUBCHEM_FEATURE_SELFOVERLAP>
30.451

> <PUBCHEM_SHAPE_FINGERPRINT>
10 15 17967253105215537062
10299344 5 18202282503503865198
11315181 36 18343302552655774716
12091667 2 17749114391842366284
12236239 1 17917702479706765269
13140716 1 18118946016272630417
14251764 18 17989207045740530350
14251764 46 18410293618914606372
14844126 61 18338510838565569187
14849402 71 18268990891948523172
14933364 13 18186522099494437984
15183329 4 16917074356970929306
15510794 2 17822288007921687926
15716309 27 17775002384575805724
1577012 14 7132441207785777220
17093844 174 18113339721476078440
1754908 1 18412273822920070226
17780758 139 18412545409605581215
21150785 3 11672063047900603626
21315759 40 17704353278313715956
23522609 53 17844499237703523516
23559900 14 18268149760735593189
5104073 3 18261664995356944866
5364581 5 17970076551975531056
6441014 3 17196275332392066786
9953998 17 18334576845462616016

> <PUBCHEM_SHAPE_MULTIPOLES>
449.85
26.71
2.18
1.06
84.02
0.46
0.04
5.16
-9.96
-5.45
-0.45
-0.06
0.1
-0.5

> <PUBCHEM_SHAPE_SELFOVERLAP>
891.854

> <PUBCHEM_SHAPE_VOLUME>
269.7

> <PUBCHEM_COORDINATE_TYPE>
2
5
10

$$$$

