5281759
  -OEChem-07051212593D

 42 43  0     1  0  0  0  0  0999 V2000
    1.3111   -0.7818    0.6237 O   0  0  0  0  0  0  0  0  0  0  0  0
    0.9503    1.5128    0.8434 O   0  0  0  0  0  0  0  0  0  0  0  0
    5.3109   -0.2136   -0.1152 O   0  0  0  0  0  0  0  0  0  0  0  0
    4.0695   -2.7367   -0.7847 O   0  0  0  0  0  0  0  0  0  0  0  0
    3.4041    2.0029   -0.4785 O   0  0  0  0  0  0  0  0  0  0  0  0
    0.0183   -3.1922    0.3496 O   0  0  0  0  0  0  0  0  0  0  0  0
    0.3851    4.1202    0.0639 O   0  0  0  0  0  0  0  0  0  0  0  0
   -4.0983   -3.3268   -0.1505 O   0  0  0  0  0  0  0  0  0  0  0  0
   -5.7460   -1.7490   -0.1589 O   0  0  0  0  0  0  0  0  0  0  0  0
    3.9332   -0.3514   -0.4665 C   0  0  1  0  0  0  0  0  0  0  0  0
    3.4587   -1.7241    0.0107 C   0  0  1  0  0  0  0  0  0  0  0  0
    3.1266    0.7708    0.1867 C   0  0  2  0  0  0  0  0  0  0  0  0
    1.9368   -1.8419   -0.1015 C   0  0  1  0  0  0  0  0  0  0  0  0
    1.6244    0.5035    0.0924 C   0  0  1  0  0  0  0  0  0  0  0  0
    1.4281   -3.1582    0.4776 C   0  0  0  0  0  0  0  0  0  0  0  0
   -0.3046    1.8553    0.4204 C   0  0  0  0  0  0  0  0  0  0  0  0
   -1.2993    0.8820    0.3827 C   0  0  0  0  0  0  0  0  0  0  0  0
   -0.5832    3.1625    0.0312 C   0  0  0  0  0  0  0  0  0  0  0  0
   -2.5828    1.2189   -0.0474 C   0  0  0  0  0  0  0  0  0  0  0  0
   -1.8667    3.4993   -0.3987 C   0  0  0  0  0  0  0  0  0  0  0  0
   -2.8663    2.5276   -0.4382 C   0  0  0  0  0  0  0  0  0  0  0  0
   -3.6258    0.2060   -0.0878 C   0  0  0  0  0  0  0  0  0  0  0  0
   -3.4177   -1.1293   -0.1124 C   0  0  0  0  0  0  0  0  0  0  0  0
   -4.5663   -2.0568   -0.1425 C   0  0  0  0  0  0  0  0  0  0  0  0
    3.8835   -0.2763   -1.5598 H   0  0  0  0  0  0  0  0  0  0  0  0
    3.7822   -1.8815    1.0470 H   0  0  0  0  0  0  0  0  0  0  0  0
    3.4317    0.8992    1.2320 H   0  0  0  0  0  0  0  0  0  0  0  0
    1.6128   -1.7853   -1.1497 H   0  0  0  0  0  0  0  0  0  0  0  0
    1.3029    0.5566   -0.9585 H   0  0  0  0  0  0  0  0  0  0  0  0
    1.6698   -3.2490    1.5418 H   0  0  0  0  0  0  0  0  0  0  0  0
    1.8427   -4.0203   -0.0527 H   0  0  0  0  0  0  0  0  0  0  0  0
    5.7929   -0.9475   -0.5336 H   0  0  0  0  0  0  0  0  0  0  0  0
    3.7823   -2.6096   -1.7051 H   0  0  0  0  0  0  0  0  0  0  0  0
    3.1379    1.9100   -1.4091 H   0  0  0  0  0  0  0  0  0  0  0  0
   -0.3390   -2.4391    0.8502 H   0  0  0  0  0  0  0  0  0  0  0  0
   -1.0710   -0.1184    0.7334 H   0  0  0  0  0  0  0  0  0  0  0  0
   -2.1011    4.5149   -0.7064 H   0  0  0  0  0  0  0  0  0  0  0  0
   -3.8605    2.8086   -0.7776 H   0  0  0  0  0  0  0  0  0  0  0  0
   -4.6454    0.5859   -0.1009 H   0  0  0  0  0  0  0  0  0  0  0  0
    0.0076    4.9629   -0.2416 H   0  0  0  0  0  0  0  0  0  0  0  0
   -2.4284   -1.5711   -0.1265 H   0  0  0  0  0  0  0  0  0  0  0  0
   -4.8247   -3.9859   -0.1708 H   0  0  0  0  0  0  0  0  0  0  0  0
  1 13  1  0  0  0  0
  1 14  1  0  0  0  0
  2 14  1  0  0  0  0
  2 16  1  0  0  0  0
  3 10  1  0  0  0  0
  3 32  1  0  0  0  0
  4 11  1  0  0  0  0
  4 33  1  0  0  0  0
  5 12  1  0  0  0  0
  5 34  1  0  0  0  0
  6 15  1  0  0  0  0
  6 35  1  0  0  0  0
  7 18  1  0  0  0  0
  7 40  1  0  0  0  0
  8 24  1  0  0  0  0
  8 42  1  0  0  0  0
  9 24  2  0  0  0  0
 10 11  1  0  0  0  0
 10 12  1  0  0  0  0
 10 25  1  0  0  0  0
 11 13  1  0  0  0  0
 11 26  1  0  0  0  0
 12 14  1  0  0  0  0
 12 27  1  0  0  0  0
 13 15  1  0  0  0  0
 13 28  1  0  0  0  0
 14 29  1  0  0  0  0
 15 30  1  0  0  0  0
 15 31  1  0  0  0  0
 16 17  1  0  0  0  0
 16 18  2  0  0  0  0
 17 19  2  0  0  0  0
 17 36  1  0  0  0  0
 18 20  1  0  0  0  0
 19 21  1  0  0  0  0
 19 22  1  0  0  0  0
 20 21  2  0  0  0  0
 20 37  1  0  0  0  0
 21 38  1  0  0  0  0
 22 23  2  0  0  0  0
 22 39  1  0  0  0  0
 23 24  1  0  0  0  0
 23 41  1  0  0  0  0
M  END
> <PUBCHEM_COMPOUND_CID>
5281759

> <PUBCHEM_CONFORMER_RMSD>
0.8

> <PUBCHEM_CONFORMER_DIVERSEORDER>
1
135
32
171
156
145
24
158
110
129
115
5
152
14
154
59
50
31
99
17
147
53
155
40
91
69
56
8
100
36
54
116
150
10
35
165
139
21
168
84
121
162
87
102
2
146
38
103
133
15
128
112
76
120
83
3
82
88
137
161
92
118
142
30
160
106
127
126
132
164
119
109
11
52
138
67
122
136
85
101
134
25
73
159
97
19
68
143
114
172
130
66
64
48
173
16
141
123
167
43
4
95
89
166
105
163
81
28
42
6
124
117
96
7
140
113
70
57
78
169
93
51
13
72
80
37
174
45
65
98
62
61
20
148
170
23
26
60
55
86
58
94
39
104
157
34
41
44
18
144
74
49
151
46
29
107
75
131
71
47
12
108
77
90
153
125
22
149
33
79
63
9
111
27

> <PUBCHEM_MMFF94_PARTIAL_CHARGES>
35
1 -0.56
10 0.28
11 0.28
12 0.28
13 0.28
14 0.56
15 0.28
16 0.08
17 -0.15
18 0.08
19 0.03
2 -0.36
20 -0.15
21 -0.15
22 -0.18
23 -0.14
24 0.71
3 -0.68
32 0.4
33 0.4
34 0.4
35 0.4
36 0.15
37 0.15
38 0.15
39 0.15
4 -0.68
40 0.45
41 0.15
42 0.5
5 -0.68
6 -0.68
7 -0.53
8 -0.65
9 -0.57

> <PUBCHEM_EFFECTIVE_ROTOR_COUNT>
6.2

> <PUBCHEM_PHARMACOPHORE_FEATURES>
16
1 1 acceptor
1 2 acceptor
1 3 acceptor
1 3 donor
1 4 acceptor
1 4 donor
1 5 acceptor
1 5 donor
1 6 acceptor
1 6 donor
1 7 donor
1 8 acceptor
1 9 acceptor
3 8 9 24 anion
6 1 10 11 12 13 14 rings
6 16 17 18 19 20 21 rings

> <PUBCHEM_HEAVY_ATOM_COUNT>
24

> <PUBCHEM_ATOM_DEF_STEREO_COUNT>
5

> <PUBCHEM_ATOM_UDEF_STEREO_COUNT>
0

> <PUBCHEM_BOND_DEF_STEREO_COUNT>
1

> <PUBCHEM_BOND_UDEF_STEREO_COUNT>
0

> <PUBCHEM_ISOTOPIC_ATOM_COUNT>
0

> <PUBCHEM_COMPONENT_COUNT>
1

> <PUBCHEM_CACTVS_TAUTO_COUNT>
3

> <PUBCHEM_CONFORMER_ID>
005097DF00000001

> <PUBCHEM_MMFF94_ENERGY>
74.0056

> <PUBCHEM_FEATURE_SELFOVERLAP>
81.306

> <PUBCHEM_SHAPE_FINGERPRINT>
10616163 171 18337673147489425215
108634 29 18340476786493382098
12553582 1 18339654373449321339
12596599 1 17751058396587189123
13140716 1 18335709402389607992
13402501 40 18268991995068958595
13631057 29 18408041831706306600
138480 1 15239759889162181705
13989917 61 17546445575582801451
14178342 30 18052275173668359426
14863182 85 17692812588882800805
15352361 1 18409731729696976255
17492 89 18337954609829634598
19141452 34 18335695088023389025
19591789 44 18337955597254796514
20645477 70 17909844141570301699
221490 88 18336263548192503720
22393880 68 18194679496024243942
23379529 103 18188198931255993158
23559900 14 18193849356134505672
2871803 45 18411705374390702823
3014063 31 18410858720372739083
329604 57 18341611495002959502
3421961 26 18192714441196465961
46194498 28 17559684928214343677
463206 1 18267862792332109243
5309563 4 18338237047179582895
6443956 14 18340489946494002221
9709674 26 18047472506529969982

> <PUBCHEM_SHAPE_MULTIPOLES>
441.08
9.44
5.09
0.71
0.77
0.55
-0.01
-6.89
1.63
2.86
0.14
-0.14
0.02
0.14

> <PUBCHEM_SHAPE_SELFOVERLAP>
927.142

> <PUBCHEM_SHAPE_VOLUME>
245.2

> <PUBCHEM_COORDINATE_TYPE>
2
5
10

$$$$

