17395546
  -OEChem-06241222512D

 54 56  0     1  0  0  0  0  0999 V2000
    6.7000   -1.4984    0.0000 O   0  0  0  0  0  0  0  0  0  0  0  0
    2.8576    0.4661    0.0000 O   0  0  0  0  0  0  0  0  0  0  0  0
    4.9399   -5.7772    0.0000 O   0  0  0  0  0  0  0  0  0  0  0  0
    5.0724    3.3113    0.0000 O   0  0  0  0  0  0  0  0  0  0  0  0
    2.3090    5.7383    0.0000 O   0  0  0  0  0  0  0  0  0  0  0  0
    4.9399   -1.7772    0.0000 N   0  0  0  0  0  0  0  0  0  0  0  0
    4.2589    1.4842    0.0000 N   0  0  0  0  0  0  0  0  0  0  0  0
    3.4901    4.0158    0.0000 N   0  0  0  0  0  0  0  0  0  0  0  0
    4.4399   -0.2384    0.0000 C   0  0  3  0  0  0  0  0  0  0  0  0
    4.1309   -1.1894    0.0000 C   0  0  0  0  0  0  0  0  0  0  0  0
    5.4399   -0.2384    0.0000 C   0  0  0  0  0  0  0  0  0  0  0  0
    5.7490   -1.1894    0.0000 C   0  0  0  0  0  0  0  0  0  0  0  0
    3.8522    0.5707    0.0000 C   0  0  0  0  0  0  0  0  0  0  0  0
    4.9399   -2.7772    0.0000 C   0  0  0  0  0  0  0  0  0  0  0  0
    3.6711    2.2932    0.0000 C   0  0  0  0  0  0  0  0  0  0  0  0
    4.0739   -3.2772    0.0000 C   0  0  0  0  0  0  0  0  0  0  0  0
    5.8060   -3.2772    0.0000 C   0  0  0  0  0  0  0  0  0  0  0  0
    5.2534    1.5887    0.0000 C   0  0  0  0  0  0  0  0  0  0  0  0
    4.0739   -4.2772    0.0000 C   0  0  0  0  0  0  0  0  0  0  0  0
    5.8060   -4.2772    0.0000 C   0  0  0  0  0  0  0  0  0  0  0  0
    4.0778    3.2068    0.0000 C   0  0  0  0  0  0  0  0  0  0  0  0
    4.9399   -4.7772    0.0000 C   0  0  0  0  0  0  0  0  0  0  0  0
    3.8968    4.9293    0.0000 C   0  0  0  0  0  0  0  0  0  0  0  0
    3.3090    5.7383    0.0000 C   0  0  0  0  0  0  0  0  0  0  0  0
    4.0739   -6.2772    0.0000 C   0  0  0  0  0  0  0  0  0  0  0  0
    3.6180    6.6894    0.0000 C   0  0  0  0  0  0  0  0  0  0  0  0
    4.0739   -7.2772    0.0000 C   0  0  0  0  0  0  0  0  0  0  0  0
    2.8090    7.2772    0.0000 C   0  0  0  0  0  0  0  0  0  0  0  0
    2.0000    6.6894    0.0000 C   0  0  0  0  0  0  0  0  0  0  0  0
    4.7214    0.3141    0.0000 H   0  0  0  0  0  0  0  0  0  0  0  0
    3.5645   -0.9372    0.0000 H   0  0  0  0  0  0  0  0  0  0  0  0
    3.8209   -1.7263    0.0000 H   0  0  0  0  0  0  0  0  0  0  0  0
    6.0464   -0.1094    0.0000 H   0  0  0  0  0  0  0  0  0  0  0  0
    5.3751    0.3783    0.0000 H   0  0  0  0  0  0  0  0  0  0  0  0
    3.1571    2.6399    0.0000 H   0  0  0  0  0  0  0  0  0  0  0  0
    3.2404    1.8472    0.0000 H   0  0  0  0  0  0  0  0  0  0  0  0
    3.5370   -2.9672    0.0000 H   0  0  0  0  0  0  0  0  0  0  0  0
    6.3429   -2.9672    0.0000 H   0  0  0  0  0  0  0  0  0  0  0  0
    5.3182    0.9721    0.0000 H   0  0  0  0  0  0  0  0  0  0  0  0
    5.8700    1.6536    0.0000 H   0  0  0  0  0  0  0  0  0  0  0  0
    5.1886    2.2053    0.0000 H   0  0  0  0  0  0  0  0  0  0  0  0
    3.5370   -4.5872    0.0000 H   0  0  0  0  0  0  0  0  0  0  0  0
    6.3429   -4.5872    0.0000 H   0  0  0  0  0  0  0  0  0  0  0  0
    2.8735    3.9510    0.0000 H   0  0  0  0  0  0  0  0  0  0  0  0
    4.4108    4.5826    0.0000 H   0  0  0  0  0  0  0  0  0  0  0  0
    4.3275    5.3753    0.0000 H   0  0  0  0  0  0  0  0  0  0  0  0
    3.8619   -5.6946    0.0000 H   0  0  0  0  0  0  0  0  0  0  0  0
    3.4633   -6.3849    0.0000 H   0  0  0  0  0  0  0  0  0  0  0  0
    4.2077    6.8810    0.0000 H   0  0  0  0  0  0  0  0  0  0  0  0
    3.4539   -7.2772    0.0000 H   0  0  0  0  0  0  0  0  0  0  0  0
    4.0739   -7.8972    0.0000 H   0  0  0  0  0  0  0  0  0  0  0  0
    4.6939   -7.2772    0.0000 H   0  0  0  0  0  0  0  0  0  0  0  0
    2.8090    7.8972    0.0000 H   0  0  0  0  0  0  0  0  0  0  0  0
    1.4103    6.8810    0.0000 H   0  0  0  0  0  0  0  0  0  0  0  0
  1 12  2  0  0  0  0
  2 13  2  0  0  0  0
  3 22  1  0  0  0  0
  3 25  1  0  0  0  0
  4 21  2  0  0  0  0
  5 24  1  0  0  0  0
  5 29  1  0  0  0  0
  6 10  1  0  0  0  0
  6 12  1  0  0  0  0
  6 14  1  0  0  0  0
  7 13  1  0  0  0  0
  7 15  1  0  0  0  0
  7 18  1  0  0  0  0
  8 21  1  0  0  0  0
  8 23  1  0  0  0  0
  8 44  1  0  0  0  0
  9 10  1  0  0  0  0
  9 11  1  0  0  0  0
  9 13  1  0  0  0  0
  9 30  1  0  0  0  0
 10 31  1  0  0  0  0
 10 32  1  0  0  0  0
 11 12  1  0  0  0  0
 11 33  1  0  0  0  0
 11 34  1  0  0  0  0
 14 16  2  0  0  0  0
 14 17  1  0  0  0  0
 15 21  1  0  0  0  0
 15 35  1  0  0  0  0
 15 36  1  0  0  0  0
 16 19  1  0  0  0  0
 16 37  1  0  0  0  0
 17 20  2  0  0  0  0
 17 38  1  0  0  0  0
 18 39  1  0  0  0  0
 18 40  1  0  0  0  0
 18 41  1  0  0  0  0
 19 22  2  0  0  0  0
 19 42  1  0  0  0  0
 20 22  1  0  0  0  0
 20 43  1  0  0  0  0
 23 24  1  0  0  0  0
 23 45  1  0  0  0  0
 23 46  1  0  0  0  0
 24 26  2  0  0  0  0
 25 27  1  0  0  0  0
 25 47  1  0  0  0  0
 25 48  1  0  0  0  0
 26 28  1  0  0  0  0
 26 49  1  0  0  0  0
 27 50  1  0  0  0  0
 27 51  1  0  0  0  0
 27 52  1  0  0  0  0
 28 29  2  0  0  0  0
 28 53  1  0  0  0  0
 29 54  1  0  0  0  0
M  END
> <PUBCHEM_COMPOUND_CID>
17395546

> <PUBCHEM_COMPOUND_CANONICALIZED>
1

> <PUBCHEM_CACTVS_COMPLEXITY>
591

> <PUBCHEM_CACTVS_HBOND_ACCEPTOR>
5

> <PUBCHEM_CACTVS_HBOND_DONOR>
1

> <PUBCHEM_CACTVS_ROTATABLE_BOND>
8

> <PUBCHEM_CACTVS_SUBSKEYS>
AAADceB7OAAAAAAAAAAAAAAAAAAAAWJAAAAwAAAAAAAAAAABwAAAHgAQAAAADQzhkAYyxoPABECIAK1S0ACCCAAlIgAIiIGObMgOZjrE9buXOSjk1hHY6Ye9UQIIAEAAAAAAAAAAgAAAAAAAAAAAAAAAAA==

> <PUBCHEM_IUPAC_OPENEYE_NAME>
1-(4-ethoxyphenyl)-N-[2-(2-furylmethylamino)-2-oxo-ethyl]-N-methyl-5-oxo-pyrrolidine-3-carboxamide

> <PUBCHEM_IUPAC_CAS_NAME>
1-(4-ethoxyphenyl)-N-[2-(2-furanylmethylamino)-2-oxoethyl]-N-methyl-5-oxo-3-pyrrolidinecarboxamide

> <PUBCHEM_IUPAC_NAME>
1-(4-ethoxyphenyl)-N-[2-(furan-2-ylmethylamino)-2-oxoethyl]-N-methyl-5-oxopyrrolidine-3-carboxamide

> <PUBCHEM_IUPAC_SYSTEMATIC_NAME>
1-(4-ethoxyphenyl)-N-[2-(furan-2-ylmethylamino)-2-oxidanylidene-ethyl]-N-methyl-5-oxidanylidene-pyrrolidine-3-carboxamide

> <PUBCHEM_IUPAC_TRADITIONAL_NAME>
N-[2-(2-furfurylamino)-2-keto-ethyl]-5-keto-N-methyl-1-p-phenetyl-pyrrolidine-3-carboxamide

> <PUBCHEM_IUPAC_INCHI>
InChI=1S/C21H25N3O5/c1-3-28-17-8-6-16(7-9-17)24-13-15(11-20(24)26)21(27)23(2)14-19(25)22-12-18-5-4-10-29-18/h4-10,15H,3,11-14H2,1-2H3,(H,22,25)

> <PUBCHEM_IUPAC_INCHIKEY>
BGPHXHNGBGPTSH-UHFFFAOYSA-N

> <PUBCHEM_XLOGP3_AA>
0.7

> <PUBCHEM_EXACT_MASS>
399.179421

> <PUBCHEM_MOLECULAR_FORMULA>
C21H25N3O5

> <PUBCHEM_MOLECULAR_WEIGHT>
399.4403

> <PUBCHEM_OPENEYE_CAN_SMILES>
CCOC1=CC=C(C=C1)N2CC(CC2=O)C(=O)N(C)CC(=O)NCC3=CC=CO3

> <PUBCHEM_OPENEYE_ISO_SMILES>
CCOC1=CC=C(C=C1)N2CC(CC2=O)C(=O)N(C)CC(=O)NCC3=CC=CO3

> <PUBCHEM_CACTVS_TPSA>
92.1

> <PUBCHEM_MONOISOTOPIC_WEIGHT>
399.179421

> <PUBCHEM_TOTAL_CHARGE>
0

> <PUBCHEM_HEAVY_ATOM_COUNT>
29

> <PUBCHEM_ATOM_DEF_STEREO_COUNT>
0

> <PUBCHEM_ATOM_UDEF_STEREO_COUNT>
1

> <PUBCHEM_BOND_DEF_STEREO_COUNT>
0

> <PUBCHEM_BOND_UDEF_STEREO_COUNT>
0

> <PUBCHEM_ISOTOPIC_ATOM_COUNT>
0

> <PUBCHEM_COMPONENT_COUNT>
1

> <PUBCHEM_CACTVS_TAUTO_COUNT>
4

> <PUBCHEM_COORDINATE_TYPE>
1
5
255

> <PUBCHEM_BONDANNOTATIONS>
14  16  8
14  17  8
16  19  8
17  20  8
19  22  8
20  22  8
24  26  8
26  28  8
28  29  8
5  24  8
5  29  8
9  13  3

$$$$

