11404
  -OEChem-06261205382D

 33 33  0     1  0  0  0  0  0999 V2000
    2.0000   -3.7500    0.0000 F   0  0  0  0  0  0  0  0  0  0  0  0
    2.8660   -0.2500    0.0000 O   0  0  0  0  0  0  0  0  0  0  0  0
    4.5981    0.7500    0.0000 N   0  0  0  0  0  0  0  0  0  0  0  0
    4.5981   -0.2500    0.0000 C   0  0  0  0  0  0  0  0  0  0  0  0
    3.7320   -0.7500    0.0000 C   0  0  3  0  0  0  0  0  0  0  0  0
    5.4641    1.2500    0.0000 C   0  0  0  0  0  0  0  0  0  0  0  0
    5.4641    2.2500    0.0000 C   0  0  0  0  0  0  0  0  0  0  0  0
    6.3301    2.7500    0.0000 C   0  0  0  0  0  0  0  0  0  0  0  0
    3.7320   -1.7500    0.0000 C   0  0  0  0  0  0  0  0  0  0  0  0
    6.3301    3.7500    0.0000 C   0  0  0  0  0  0  0  0  0  0  0  0
    2.8660   -2.2500    0.0000 C   0  0  0  0  0  0  0  0  0  0  0  0
    4.5981   -2.2500    0.0000 C   0  0  0  0  0  0  0  0  0  0  0  0
    2.8660   -3.2500    0.0000 C   0  0  0  0  0  0  0  0  0  0  0  0
    4.5981   -3.2500    0.0000 C   0  0  0  0  0  0  0  0  0  0  0  0
    3.7320   -3.7500    0.0000 C   0  0  0  0  0  0  0  0  0  0  0  0
    4.8101   -0.8326    0.0000 H   0  0  0  0  0  0  0  0  0  0  0  0
    5.2087   -0.1423    0.0000 H   0  0  0  0  0  0  0  0  0  0  0  0
    3.7320    0.1000    0.0000 H   0  0  0  0  0  0  0  0  0  0  0  0
    5.6762    0.6674    0.0000 H   0  0  0  0  0  0  0  0  0  0  0  0
    6.0747    1.3577    0.0000 H   0  0  0  0  0  0  0  0  0  0  0  0
    5.2520    2.8326    0.0000 H   0  0  0  0  0  0  0  0  0  0  0  0
    4.8535    2.1423    0.0000 H   0  0  0  0  0  0  0  0  0  0  0  0
    4.0611    1.0600    0.0000 H   0  0  0  0  0  0  0  0  0  0  0  0
    6.5422    2.1674    0.0000 H   0  0  0  0  0  0  0  0  0  0  0  0
    6.9407    2.8577    0.0000 H   0  0  0  0  0  0  0  0  0  0  0  0
    6.9501    3.7500    0.0000 H   0  0  0  0  0  0  0  0  0  0  0  0
    6.3301    4.3700    0.0000 H   0  0  0  0  0  0  0  0  0  0  0  0
    5.7101    3.7500    0.0000 H   0  0  0  0  0  0  0  0  0  0  0  0
    2.3291   -1.9400    0.0000 H   0  0  0  0  0  0  0  0  0  0  0  0
    5.1350   -1.9400    0.0000 H   0  0  0  0  0  0  0  0  0  0  0  0
    2.8660    0.3700    0.0000 H   0  0  0  0  0  0  0  0  0  0  0  0
    5.1350   -3.5600    0.0000 H   0  0  0  0  0  0  0  0  0  0  0  0
    3.7320   -4.3700    0.0000 H   0  0  0  0  0  0  0  0  0  0  0  0
  1 13  1  0  0  0  0
  2  5  1  0  0  0  0
  2 31  1  0  0  0  0
  3  4  1  0  0  0  0
  3  6  1  0  0  0  0
  3 23  1  0  0  0  0
  4  5  1  0  0  0  0
  4 16  1  0  0  0  0
  4 17  1  0  0  0  0
  5  9  1  0  0  0  0
  5 18  1  0  0  0  0
  6  7  1  0  0  0  0
  6 19  1  0  0  0  0
  6 20  1  0  0  0  0
  7  8  1  0  0  0  0
  7 21  1  0  0  0  0
  7 22  1  0  0  0  0
  8 10  1  0  0  0  0
  8 24  1  0  0  0  0
  8 25  1  0  0  0  0
  9 11  2  0  0  0  0
  9 12  1  0  0  0  0
 10 26  1  0  0  0  0
 10 27  1  0  0  0  0
 10 28  1  0  0  0  0
 11 13  1  0  0  0  0
 11 29  1  0  0  0  0
 12 14  2  0  0  0  0
 12 30  1  0  0  0  0
 13 15  2  0  0  0  0
 14 15  1  0  0  0  0
 14 32  1  0  0  0  0
 15 33  1  0  0  0  0
M  END
> <PUBCHEM_COMPOUND_CID>
11404

> <PUBCHEM_COMPOUND_CANONICALIZED>
1

> <PUBCHEM_CACTVS_COMPLEXITY>
166

> <PUBCHEM_CACTVS_HBOND_ACCEPTOR>
3

> <PUBCHEM_CACTVS_HBOND_DONOR>
2

> <PUBCHEM_CACTVS_ROTATABLE_BOND>
6

> <PUBCHEM_CACTVS_SUBSKEYS>
AAADceByIQAAAAAAAAAAAAAAAAAAAAAAAAAwAAAAAAAAAAABAAAAHwAQCAAADBThmA4yAILAAgCAAiBCAAACAAAgAAAIiIAICIgKNiKAkRGEcAAk0AGYmAeQwKAOAAAAAAAAAAAAAAAAAAAAAAAAAAAAAA==

> <PUBCHEM_IUPAC_OPENEYE_NAME>
2-(butylamino)-1-(3-fluorophenyl)ethanol

> <PUBCHEM_IUPAC_CAS_NAME>
2-(butylamino)-1-(3-fluorophenyl)ethanol

> <PUBCHEM_IUPAC_NAME>
2-(butylamino)-1-(3-fluorophenyl)ethanol

> <PUBCHEM_IUPAC_SYSTEMATIC_NAME>
2-(butylamino)-1-(3-fluorophenyl)ethanol

> <PUBCHEM_IUPAC_TRADITIONAL_NAME>
2-(butylamino)-1-(3-fluorophenyl)ethanol

> <PUBCHEM_IUPAC_INCHI>
InChI=1S/C12H18FNO/c1-2-3-7-14-9-12(15)10-5-4-6-11(13)8-10/h4-6,8,12,14-15H,2-3,7,9H2,1H3

> <PUBCHEM_IUPAC_INCHIKEY>
VYSHHZZXEWZRRN-UHFFFAOYSA-N

> <PUBCHEM_XLOGP3>
1.4

> <PUBCHEM_EXACT_MASS>
211.137242

> <PUBCHEM_MOLECULAR_FORMULA>
C12H18FNO

> <PUBCHEM_MOLECULAR_WEIGHT>
211.275823

> <PUBCHEM_OPENEYE_CAN_SMILES>
CCCCNCC(C1=CC(=CC=C1)F)O

> <PUBCHEM_OPENEYE_ISO_SMILES>
CCCCNCC(C1=CC(=CC=C1)F)O

> <PUBCHEM_CACTVS_TPSA>
32.3

> <PUBCHEM_MONOISOTOPIC_WEIGHT>
211.137242

> <PUBCHEM_TOTAL_CHARGE>
0

> <PUBCHEM_HEAVY_ATOM_COUNT>
15

> <PUBCHEM_ATOM_DEF_STEREO_COUNT>
0

> <PUBCHEM_ATOM_UDEF_STEREO_COUNT>
1

> <PUBCHEM_BOND_DEF_STEREO_COUNT>
0

> <PUBCHEM_BOND_UDEF_STEREO_COUNT>
0

> <PUBCHEM_ISOTOPIC_ATOM_COUNT>
0

> <PUBCHEM_COMPONENT_COUNT>
1

> <PUBCHEM_CACTVS_TAUTO_COUNT>
1

> <PUBCHEM_COORDINATE_TYPE>
1
5
255

> <PUBCHEM_BONDANNOTATIONS>
11  13  8
12  14  8
13  15  8
14  15  8
5  18  3
9  11  8
9  12  8

$$$$

