17395844
  -OEChem-06241222522D

 48 51  0     0  0  0  0  0  0999 V2000
    4.5981    1.5600    0.0000 F   0  0  0  0  0  0  0  0  0  0  0  0
    6.4103   -2.6353    0.0000 O   0  0  0  0  0  0  0  0  0  0  0  0
    6.4103   -4.2447    0.0000 O   0  0  0  0  0  0  0  0  0  0  0  0
    2.8660   -4.4400    0.0000 O   0  0  0  0  0  0  0  0  0  0  0  0
    3.7320    5.0600    0.0000 O   0  0  0  0  0  0  0  0  0  0  0  0
    2.8660   -1.4400    0.0000 N   0  0  0  0  0  0  0  0  0  0  0  0
    2.8660    0.5600    0.0000 N   0  0  0  0  0  0  0  0  0  0  0  0
    3.7320   -0.9400    0.0000 C   0  0  0  0  0  0  0  0  0  0  0  0
    2.0000   -0.9400    0.0000 C   0  0  0  0  0  0  0  0  0  0  0  0
    2.0000    0.0600    0.0000 C   0  0  0  0  0  0  0  0  0  0  0  0
    3.7320    0.0600    0.0000 C   0  0  0  0  0  0  0  0  0  0  0  0
    2.8660   -2.4400    0.0000 C   0  0  0  0  0  0  0  0  0  0  0  0
    2.8660    1.5600    0.0000 C   0  0  0  0  0  0  0  0  0  0  0  0
    3.7320   -2.9400    0.0000 C   0  0  0  0  0  0  0  0  0  0  0  0
    4.5981   -2.4400    0.0000 C   0  0  0  0  0  0  0  0  0  0  0  0
    3.7320    2.0600    0.0000 C   0  0  0  0  0  0  0  0  0  0  0  0
    2.0000    2.0600    0.0000 C   0  0  0  0  0  0  0  0  0  0  0  0
    3.7320   -3.9400    0.0000 C   0  0  0  0  0  0  0  0  0  0  0  0
    5.4641   -2.9400    0.0000 C   0  0  0  0  0  0  0  0  0  0  0  0
    5.4641   -3.9400    0.0000 C   0  0  0  0  0  0  0  0  0  0  0  0
    4.5981   -4.4400    0.0000 C   0  0  0  0  0  0  0  0  0  0  0  0
    3.7320    3.0600    0.0000 C   0  0  0  0  0  0  0  0  0  0  0  0
    2.0000    3.0600    0.0000 C   0  0  0  0  0  0  0  0  0  0  0  0
    2.8660    3.5600    0.0000 C   0  0  0  0  0  0  0  0  0  0  0  0
    6.9939   -3.4400    0.0000 C   0  0  0  0  0  0  0  0  0  0  0  0
    2.8660    4.5600    0.0000 C   0  0  0  0  0  0  0  0  0  0  0  0
    2.0000    5.0600    0.0000 C   0  0  0  0  0  0  0  0  0  0  0  0
    1.3894   -0.8323    0.0000 H   0  0  0  0  0  0  0  0  0  0  0  0
    1.7880   -1.5226    0.0000 H   0  0  0  0  0  0  0  0  0  0  0  0
    3.9441   -1.5226    0.0000 H   0  0  0  0  0  0  0  0  0  0  0  0
    4.3426   -0.8323    0.0000 H   0  0  0  0  0  0  0  0  0  0  0  0
    4.3426   -0.0477    0.0000 H   0  0  0  0  0  0  0  0  0  0  0  0
    3.9441    0.6426    0.0000 H   0  0  0  0  0  0  0  0  0  0  0  0
    1.7880    0.6426    0.0000 H   0  0  0  0  0  0  0  0  0  0  0  0
    1.3894   -0.0477    0.0000 H   0  0  0  0  0  0  0  0  0  0  0  0
    2.2554   -2.3323    0.0000 H   0  0  0  0  0  0  0  0  0  0  0  0
    2.6540   -3.0226    0.0000 H   0  0  0  0  0  0  0  0  0  0  0  0
    4.5981   -1.8200    0.0000 H   0  0  0  0  0  0  0  0  0  0  0  0
    1.4631    1.7500    0.0000 H   0  0  0  0  0  0  0  0  0  0  0  0
    4.5981   -5.0600    0.0000 H   0  0  0  0  0  0  0  0  0  0  0  0
    4.2690    3.3700    0.0000 H   0  0  0  0  0  0  0  0  0  0  0  0
    1.4631    3.3700    0.0000 H   0  0  0  0  0  0  0  0  0  0  0  0
    7.4548   -3.8547    0.0000 H   0  0  0  0  0  0  0  0  0  0  0  0
    7.4548   -3.0253    0.0000 H   0  0  0  0  0  0  0  0  0  0  0  0
    2.8660   -5.0600    0.0000 H   0  0  0  0  0  0  0  0  0  0  0  0
    2.3100    5.5969    0.0000 H   0  0  0  0  0  0  0  0  0  0  0  0
    1.4631    5.3700    0.0000 H   0  0  0  0  0  0  0  0  0  0  0  0
    1.6900    4.5231    0.0000 H   0  0  0  0  0  0  0  0  0  0  0  0
  1 16  1  0  0  0  0
  2 19  1  0  0  0  0
  2 25  1  0  0  0  0
  3 20  1  0  0  0  0
  3 25  1  0  0  0  0
  4 18  1  0  0  0  0
  4 45  1  0  0  0  0
  5 26  2  0  0  0  0
  6  8  1  0  0  0  0
  6  9  1  0  0  0  0
  6 12  1  0  0  0  0
  7 10  1  0  0  0  0
  7 11  1  0  0  0  0
  7 13  1  0  0  0  0
  8 11  1  0  0  0  0
  8 30  1  0  0  0  0
  8 31  1  0  0  0  0
  9 10  1  0  0  0  0
  9 28  1  0  0  0  0
  9 29  1  0  0  0  0
 10 34  1  0  0  0  0
 10 35  1  0  0  0  0
 11 32  1  0  0  0  0
 11 33  1  0  0  0  0
 12 14  1  0  0  0  0
 12 36  1  0  0  0  0
 12 37  1  0  0  0  0
 13 16  2  0  0  0  0
 13 17  1  0  0  0  0
 14 15  2  0  0  0  0
 14 18  1  0  0  0  0
 15 19  1  0  0  0  0
 15 38  1  0  0  0  0
 16 22  1  0  0  0  0
 17 23  2  0  0  0  0
 17 39  1  0  0  0  0
 18 21  2  0  0  0  0
 19 20  2  0  0  0  0
 20 21  1  0  0  0  0
 21 40  1  0  0  0  0
 22 24  2  0  0  0  0
 22 41  1  0  0  0  0
 23 24  1  0  0  0  0
 23 42  1  0  0  0  0
 24 26  1  0  0  0  0
 25 43  1  0  0  0  0
 25 44  1  0  0  0  0
 26 27  1  0  0  0  0
 27 46  1  0  0  0  0
 27 47  1  0  0  0  0
 27 48  1  0  0  0  0
M  END
> <PUBCHEM_COMPOUND_CID>
17395844

> <PUBCHEM_COMPOUND_CANONICALIZED>
1

> <PUBCHEM_CACTVS_COMPLEXITY>
528

> <PUBCHEM_CACTVS_HBOND_ACCEPTOR>
7

> <PUBCHEM_CACTVS_HBOND_DONOR>
1

> <PUBCHEM_CACTVS_ROTATABLE_BOND>
4

> <PUBCHEM_CACTVS_SUBSKEYS>
AAADceB7OQAAAAAAAAAAAAAAAAAAASAAAAA8YIAAAAAAAEgBQAAAHwAACAAADAzBmA8yzoMABgCIAqRSQACCCAAlIgAIiAEO7MgdZzLGtZu0cSpnwBXO+Yf4+b6eKQABCAAIQABSAAIQABCAAAAAAAAAAA==

> <PUBCHEM_IUPAC_OPENEYE_NAME>
1-[3-fluoro-4-[4-[(6-hydroxy-1,3-benzodioxol-5-yl)methyl]piperazin-1-yl]phenyl]ethanone

> <PUBCHEM_IUPAC_CAS_NAME>
1-[3-fluoro-4-[4-[(6-hydroxy-1,3-benzodioxol-5-yl)methyl]-1-piperazinyl]phenyl]ethanone

> <PUBCHEM_IUPAC_NAME>
1-[3-fluoro-4-[4-[(6-hydroxy-1,3-benzodioxol-5-yl)methyl]piperazin-1-yl]phenyl]ethanone

> <PUBCHEM_IUPAC_SYSTEMATIC_NAME>
1-[3-fluoranyl-4-[4-[(6-oxidanyl-1,3-benzodioxol-5-yl)methyl]piperazin-1-yl]phenyl]ethanone

> <PUBCHEM_IUPAC_TRADITIONAL_NAME>
1-[3-fluoro-4-[4-[(6-hydroxy-1,3-benzodioxol-5-yl)methyl]piperazino]phenyl]ethanone

> <PUBCHEM_IUPAC_INCHI>
InChI=1S/C20H21FN2O4/c1-13(24)14-2-3-17(16(21)8-14)23-6-4-22(5-7-23)11-15-9-19-20(10-18(15)25)27-12-26-19/h2-3,8-10,25H,4-7,11-12H2,1H3

> <PUBCHEM_IUPAC_INCHIKEY>
CABURSGSCNMSTQ-UHFFFAOYSA-N

> <PUBCHEM_XLOGP3_AA>
2.6

> <PUBCHEM_EXACT_MASS>
372.148535

> <PUBCHEM_MOLECULAR_FORMULA>
C20H21FN2O4

> <PUBCHEM_MOLECULAR_WEIGHT>
372.390143

> <PUBCHEM_OPENEYE_CAN_SMILES>
CC(=O)C1=CC(=C(C=C1)N2CCN(CC2)CC3=CC4=C(C=C3O)OCO4)F

> <PUBCHEM_OPENEYE_ISO_SMILES>
CC(=O)C1=CC(=C(C=C1)N2CCN(CC2)CC3=CC4=C(C=C3O)OCO4)F

> <PUBCHEM_CACTVS_TPSA>
62.2

> <PUBCHEM_MONOISOTOPIC_WEIGHT>
372.148535

> <PUBCHEM_TOTAL_CHARGE>
0

> <PUBCHEM_HEAVY_ATOM_COUNT>
27

> <PUBCHEM_ATOM_DEF_STEREO_COUNT>
0

> <PUBCHEM_ATOM_UDEF_STEREO_COUNT>
0

> <PUBCHEM_BOND_DEF_STEREO_COUNT>
0

> <PUBCHEM_BOND_UDEF_STEREO_COUNT>
0

> <PUBCHEM_ISOTOPIC_ATOM_COUNT>
0

> <PUBCHEM_COMPONENT_COUNT>
1

> <PUBCHEM_CACTVS_TAUTO_COUNT>
6

> <PUBCHEM_COORDINATE_TYPE>
1
5
255

> <PUBCHEM_BONDANNOTATIONS>
13  16  8
13  17  8
14  15  8
14  18  8
15  19  8
16  22  8
17  23  8
18  21  8
19  20  8
20  21  8
22  24  8
23  24  8

$$$$

