47205500
  -OEChem-06241222592D

 38 40  0     1  0  0  0  0  0999 V2000
    5.5443    1.9621    0.0000 S   0  0  0  0  0  0  0  0  0  0  0  0
    7.1279   -0.5747    0.0000 O   0  0  0  0  0  0  0  0  0  0  0  0
    5.5443    0.3526    0.0000 N   0  0  0  0  0  0  0  0  0  0  0  0
    7.1279    1.1574    0.0000 N   0  0  0  0  0  0  0  0  0  0  0  0
    9.1279   -0.5747    0.0000 N   0  0  0  0  0  0  0  0  0  0  0  0
    9.4643   -2.1574    0.0000 N   0  0  0  0  0  0  0  0  0  0  0  0
    2.8660    1.6574    0.0000 C   0  0  3  0  0  0  0  0  0  0  0  0
    2.8660    0.6574    0.0000 C   0  0  0  0  0  0  0  0  0  0  0  0
    3.7320    2.1574    0.0000 C   0  0  0  0  0  0  0  0  0  0  0  0
    3.7320    0.1574    0.0000 C   0  0  0  0  0  0  0  0  0  0  0  0
    4.5981    1.6574    0.0000 C   0  0  0  0  0  0  0  0  0  0  0  0
    4.5981    0.6574    0.0000 C   0  0  0  0  0  0  0  0  0  0  0  0
    2.0000    2.1574    0.0000 C   0  0  0  0  0  0  0  0  0  0  0  0
    6.1279    1.1574    0.0000 C   0  0  0  0  0  0  0  0  0  0  0  0
    8.6279    0.2913    0.0000 C   0  0  3  0  0  0  0  0  0  0  0  0
    7.6279    0.2913    0.0000 C   0  0  0  0  0  0  0  0  0  0  0  0
    9.1279    1.1574    0.0000 C   0  0  0  0  0  0  0  0  0  0  0  0
   10.1224   -0.6792    0.0000 C   0  0  0  0  0  0  0  0  0  0  0  0
    8.7212   -1.4882    0.0000 C   0  0  0  0  0  0  0  0  0  0  0  0
   10.3303   -1.6574    0.0000 C   0  0  0  0  0  0  0  0  0  0  0  0
    2.8660    2.2774    0.0000 H   0  0  0  0  0  0  0  0  0  0  0  0
    2.2554    0.7650    0.0000 H   0  0  0  0  0  0  0  0  0  0  0  0
    2.6540    0.0748    0.0000 H   0  0  0  0  0  0  0  0  0  0  0  0
    4.1306    2.6323    0.0000 H   0  0  0  0  0  0  0  0  0  0  0  0
    3.3335    2.6323    0.0000 H   0  0  0  0  0  0  0  0  0  0  0  0
    3.3335   -0.3176    0.0000 H   0  0  0  0  0  0  0  0  0  0  0  0
    4.1306   -0.3176    0.0000 H   0  0  0  0  0  0  0  0  0  0  0  0
    2.3100    2.6943    0.0000 H   0  0  0  0  0  0  0  0  0  0  0  0
    1.4631    2.4674    0.0000 H   0  0  0  0  0  0  0  0  0  0  0  0
    1.6900    1.6204    0.0000 H   0  0  0  0  0  0  0  0  0  0  0  0
    9.2479    0.2913    0.0000 H   0  0  0  0  0  0  0  0  0  0  0  0
    7.4379    1.6943    0.0000 H   0  0  0  0  0  0  0  0  0  0  0  0
    9.6648    0.8474    0.0000 H   0  0  0  0  0  0  0  0  0  0  0  0
    9.4379    1.6943    0.0000 H   0  0  0  0  0  0  0  0  0  0  0  0
    8.5910    1.4674    0.0000 H   0  0  0  0  0  0  0  0  0  0  0  0
   10.5373   -0.2185    0.0000 H   0  0  0  0  0  0  0  0  0  0  0  0
    8.1147   -1.6171    0.0000 H   0  0  0  0  0  0  0  0  0  0  0  0
   10.8967   -1.9095    0.0000 H   0  0  0  0  0  0  0  0  0  0  0  0
  1 11  1  0  0  0  0
  1 14  1  0  0  0  0
  2 16  2  0  0  0  0
  3 12  1  0  0  0  0
  3 14  2  0  0  0  0
  4 14  1  0  0  0  0
  4 16  1  0  0  0  0
  4 32  1  0  0  0  0
  5 15  1  0  0  0  0
  5 18  1  0  0  0  0
  5 19  1  0  0  0  0
  6 19  2  0  0  0  0
  6 20  1  0  0  0  0
  7  8  1  0  0  0  0
  7  9  1  0  0  0  0
  7 13  1  0  0  0  0
  7 21  1  0  0  0  0
  8 10  1  0  0  0  0
  8 22  1  0  0  0  0
  8 23  1  0  0  0  0
  9 11  1  0  0  0  0
  9 24  1  0  0  0  0
  9 25  1  0  0  0  0
 10 12  1  0  0  0  0
 10 26  1  0  0  0  0
 10 27  1  0  0  0  0
 11 12  2  0  0  0  0
 13 28  1  0  0  0  0
 13 29  1  0  0  0  0
 13 30  1  0  0  0  0
 15 16  1  0  0  0  0
 15 17  1  0  0  0  0
 15 31  1  0  0  0  0
 17 33  1  0  0  0  0
 17 34  1  0  0  0  0
 17 35  1  0  0  0  0
 18 20  2  0  0  0  0
 18 36  1  0  0  0  0
 19 37  1  0  0  0  0
 20 38  1  0  0  0  0
M  END
> <PUBCHEM_COMPOUND_CID>
47205500

> <PUBCHEM_COMPOUND_CANONICALIZED>
1

> <PUBCHEM_CACTVS_COMPLEXITY>
367

> <PUBCHEM_CACTVS_HBOND_ACCEPTOR>
4

> <PUBCHEM_CACTVS_HBOND_DONOR>
1

> <PUBCHEM_CACTVS_ROTATABLE_BOND>
3

> <PUBCHEM_CACTVS_SUBSKEYS>
AAADceBzoABAAAAAAAAAAAAAAAAAAWLAAAAwAAAAAAAAAFgB4AAAHgQQAAAADSjB1gQvkRfMEAisARV3dAAA8K1xGrkJWBW4cAiAaAJgmCCUAAAokQLISCMQgAAOAAAAAAAAAAAQAAEAAAACAAAAAAAAAA==

> <PUBCHEM_IUPAC_OPENEYE_NAME>
2-imidazol-1-yl-N-(6-methyl-4,5,6,7-tetrahydro-1,3-benzothiazol-2-yl)propanamide

> <PUBCHEM_IUPAC_CAS_NAME>
2-(1-imidazolyl)-N-(6-methyl-4,5,6,7-tetrahydro-1,3-benzothiazol-2-yl)propanamide

> <PUBCHEM_IUPAC_NAME>
2-imidazol-1-yl-N-(6-methyl-4,5,6,7-tetrahydro-1,3-benzothiazol-2-yl)propanamide

> <PUBCHEM_IUPAC_SYSTEMATIC_NAME>
2-imidazol-1-yl-N-(6-methyl-4,5,6,7-tetrahydro-1,3-benzothiazol-2-yl)propanamide

> <PUBCHEM_IUPAC_TRADITIONAL_NAME>
2-imidazol-1-yl-N-(6-methyl-4,5,6,7-tetrahydro-1,3-benzothiazol-2-yl)propionamide

> <PUBCHEM_IUPAC_INCHI>
InChI=1S/C14H18N4OS/c1-9-3-4-11-12(7-9)20-14(16-11)17-13(19)10(2)18-6-5-15-8-18/h5-6,8-10H,3-4,7H2,1-2H3,(H,16,17,19)

> <PUBCHEM_IUPAC_INCHIKEY>
JKPCWQVLPYXDKN-UHFFFAOYSA-N

> <PUBCHEM_XLOGP3_AA>
2.3

> <PUBCHEM_EXACT_MASS>
290.120132

> <PUBCHEM_MOLECULAR_FORMULA>
C14H18N4OS

> <PUBCHEM_MOLECULAR_WEIGHT>
290.38392

> <PUBCHEM_OPENEYE_CAN_SMILES>
CC1CCC2=C(C1)SC(=N2)NC(=O)C(C)N3C=CN=C3

> <PUBCHEM_OPENEYE_ISO_SMILES>
CC1CCC2=C(C1)SC(=N2)NC(=O)C(C)N3C=CN=C3

> <PUBCHEM_CACTVS_TPSA>
88

> <PUBCHEM_MONOISOTOPIC_WEIGHT>
290.120132

> <PUBCHEM_TOTAL_CHARGE>
0

> <PUBCHEM_HEAVY_ATOM_COUNT>
20

> <PUBCHEM_ATOM_DEF_STEREO_COUNT>
0

> <PUBCHEM_ATOM_UDEF_STEREO_COUNT>
2

> <PUBCHEM_BOND_DEF_STEREO_COUNT>
0

> <PUBCHEM_BOND_UDEF_STEREO_COUNT>
0

> <PUBCHEM_ISOTOPIC_ATOM_COUNT>
0

> <PUBCHEM_COMPONENT_COUNT>
1

> <PUBCHEM_CACTVS_TAUTO_COUNT>
5

> <PUBCHEM_COORDINATE_TYPE>
1
5
255

> <PUBCHEM_BONDANNOTATIONS>
1  11  8
1  14  8
11  12  8
15  17  3
18  20  8
3  12  8
3  14  8
5  18  8
5  19  8
6  19  8
6  20  8
7  13  3

$$$$

