11725
  -OEChem-06261206023D

 15 15  0     0  0  0  0  0  0999 V2000
   -0.5271    0.0008    0.4393 C   0  0  0  0  0  0  0  0  0  0  0  0
    0.4405    1.0636   -0.1214 C   0  0  0  0  0  0  0  0  0  0  0  0
    0.4391   -1.0637   -0.1210 C   0  0  0  0  0  0  0  0  0  0  0  0
    1.5520   -0.0007   -0.0107 C   0  0  0  0  0  0  0  0  0  0  0  0
   -1.9044    0.0000   -0.1863 C   0  0  0  0  0  0  0  0  0  0  0  0
   -0.5689    0.0010    1.5368 H   0  0  0  0  0  0  0  0  0  0  0  0
    0.5778    1.9543    0.4974 H   0  0  0  0  0  0  0  0  0  0  0  0
    0.2372    1.3758   -1.1526 H   0  0  0  0  0  0  0  0  0  0  0  0
    0.2355   -1.3761   -1.1521 H   0  0  0  0  0  0  0  0  0  0  0  0
    0.5752   -1.9543    0.4981 H   0  0  0  0  0  0  0  0  0  0  0  0
    2.2930   -0.0013   -0.8137 H   0  0  0  0  0  0  0  0  0  0  0  0
    2.0692   -0.0008    0.9557 H   0  0  0  0  0  0  0  0  0  0  0  0
   -2.4691    0.8842    0.1266 H   0  0  0  0  0  0  0  0  0  0  0  0
   -2.4686   -0.8844    0.1273 H   0  0  0  0  0  0  0  0  0  0  0  0
   -1.8590   -0.0004   -1.2805 H   0  0  0  0  0  0  0  0  0  0  0  0
  1  2  1  0  0  0  0
  1  3  1  0  0  0  0
  1  5  1  0  0  0  0
  1  6  1  0  0  0  0
  2  4  1  0  0  0  0
  2  7  1  0  0  0  0
  2  8  1  0  0  0  0
  3  4  1  0  0  0  0
  3  9  1  0  0  0  0
  3 10  1  0  0  0  0
  4 11  1  0  0  0  0
  4 12  1  0  0  0  0
  5 13  1  0  0  0  0
  5 14  1  0  0  0  0
  5 15  1  0  0  0  0
M  END
> <PUBCHEM_COMPOUND_CID>
11725

> <PUBCHEM_CONFORMER_RMSD>
0.4

> <PUBCHEM_CONFORMER_DIVERSEORDER>
1
2

> <PUBCHEM_MMFF94_PARTIAL_CHARGES>
0

> <PUBCHEM_EFFECTIVE_ROTOR_COUNT>
0.8

> <PUBCHEM_PHARMACOPHORE_FEATURES>
1
4 1 2 3 4 rings

> <PUBCHEM_HEAVY_ATOM_COUNT>
5

> <PUBCHEM_ATOM_DEF_STEREO_COUNT>
0

> <PUBCHEM_ATOM_UDEF_STEREO_COUNT>
0

> <PUBCHEM_BOND_DEF_STEREO_COUNT>
0

> <PUBCHEM_BOND_UDEF_STEREO_COUNT>
0

> <PUBCHEM_ISOTOPIC_ATOM_COUNT>
0

> <PUBCHEM_COMPONENT_COUNT>
1

> <PUBCHEM_CACTVS_TAUTO_COUNT>
1

> <PUBCHEM_CONFORMER_ID>
00002DCD00000001

> <PUBCHEM_MMFF94_ENERGY>
11.9166

> <PUBCHEM_FEATURE_SELFOVERLAP>
5.074

> <PUBCHEM_SHAPE_FINGERPRINT>
139733 1 9655278337618263307
20096714 4 18268426845601170901
21015797 1 9077671872860952384
21040471 1 18266458711223813072
29004967 10 18341325669213679147
5943 1 7688577946288056704

> <PUBCHEM_SHAPE_MULTIPOLES>
102.9
1.96
1.07
0.67
0.63
0
0.01
0
-0.13
-0.2
-0.05
0.03
0
0

> <PUBCHEM_SHAPE_SELFOVERLAP>
191.749

> <PUBCHEM_SHAPE_VOLUME>
67.1

> <PUBCHEM_COORDINATE_TYPE>
2
5
10

$$$$

