46173788
  -OEChem-07051213023D

 61 63  0     1  0  0  0  0  0999 V2000
    2.5567    1.5425   -1.3815 P   0  0  1  0  0  0  0  0  0  0  0  0
    0.3737    3.4738   -0.9789 P   0  0  2  0  0  0  0  0  0  0  0  0
   -3.2933    1.5294    0.1951 O   0  0  0  0  0  0  0  0  0  0  0  0
    1.4437   -0.8137    1.1298 O   0  0  0  0  0  0  0  0  0  0  0  0
   -4.1181    1.9520    3.1128 O   0  0  0  0  0  0  0  0  0  0  0  0
    2.7533    0.1473   -0.5935 O   0  0  0  0  0  0  0  0  0  0  0  0
    4.5734   -1.9074   -0.0569 O   0  0  0  0  0  0  0  0  0  0  0  0
    3.2757   -4.0070    1.2587 O   0  0  0  0  0  0  0  0  0  0  0  0
   -1.0973    3.1786   -0.3738 O   0  0  0  0  0  0  0  0  0  0  0  0
    4.8389    0.5795    1.2385 O   0  0  0  0  0  0  0  0  0  0  0  0
    1.0500    2.0063   -1.0235 O   0  0  0  0  0  0  0  0  0  0  0  0
   -4.8363   -2.3004    0.3029 O   0  0  0  0  0  0  0  0  0  0  0  0
    3.4728    2.6010   -0.5703 O   0  0  0  0  0  0  0  0  0  0  0  0
    1.1564    4.1981    0.2375 O   0  0  0  0  0  0  0  0  0  0  0  0
    2.8461    1.4732   -2.8529 O   0  0  0  0  0  0  0  0  0  0  0  0
    0.4045    4.2155   -2.2833 O   0  0  0  0  0  0  0  0  0  0  0  0
   -1.6991   -3.5028   -2.8372 O   0  0  0  0  0  0  0  0  0  0  0  0
   -3.1420   -0.7730   -0.1938 N   0  0  0  0  0  0  0  0  0  0  0  0
   -3.2650   -2.8873   -1.2613 N   0  0  0  0  0  0  0  0  0  0  0  0
   -2.8742    1.5723    2.5282 C   0  0  2  0  0  0  0  0  0  0  0  0
   -2.6657    2.3232    1.2205 C   0  0  1  0  0  0  0  0  0  0  0  0
   -2.9385    0.1283    2.0870 C   0  0  0  0  0  0  0  0  0  0  0  0
   -3.5995    0.2307    0.7221 C   0  0  1  0  0  0  0  0  0  0  0  0
    4.1766   -1.7600    1.3071 C   0  0  2  0  0  0  0  0  0  0  0  0
    2.9728   -2.6603    1.6010 C   0  0  1  0  0  0  0  0  0  0  0  0
    3.7789   -0.3067    1.5714 C   0  0  2  0  0  0  0  0  0  0  0  0
    1.7328   -2.1856    0.8289 C   0  0  1  0  0  0  0  0  0  0  0  0
    2.5086    0.0865    0.8090 C   0  0  2  0  0  0  0  0  0  0  0  0
   -1.1954    2.4816    0.8557 C   0  0  0  0  0  0  0  0  0  0  0  0
    0.4964   -3.0004    1.1978 C   0  0  0  0  0  0  0  0  0  0  0  0
   -2.0051   -0.5127   -0.9490 C   0  0  0  0  0  0  0  0  0  0  0  0
   -3.8230   -2.0019   -0.3326 C   0  0  0  0  0  0  0  0  0  0  0  0
   -1.4737   -1.3622   -1.8367 C   0  0  0  0  0  0  0  0  0  0  0  0
   -2.1357   -2.6785   -2.0384 C   0  0  0  0  0  0  0  0  0  0  0  0
   -0.2496   -1.0600   -2.6401 C   0  0  0  0  0  0  0  0  0  0  0  0
   -2.0915    1.7534    3.2709 H   0  0  0  0  0  0  0  0  0  0  0  0
   -3.1610    3.3005    1.2139 H   0  0  0  0  0  0  0  0  0  0  0  0
   -3.5087   -0.5174    2.7621 H   0  0  0  0  0  0  0  0  0  0  0  0
   -1.9236   -0.2798    2.0049 H   0  0  0  0  0  0  0  0  0  0  0  0
   -4.6894    0.1693    0.8250 H   0  0  0  0  0  0  0  0  0  0  0  0
    5.0403   -2.0536    1.9139 H   0  0  0  0  0  0  0  0  0  0  0  0
    2.7632   -2.6236    2.6777 H   0  0  0  0  0  0  0  0  0  0  0  0
    3.5798   -0.1987    2.6454 H   0  0  0  0  0  0  0  0  0  0  0  0
    1.8858   -2.2940   -0.2521 H   0  0  0  0  0  0  0  0  0  0  0  0
    2.1938    1.0770    1.1555 H   0  0  0  0  0  0  0  0  0  0  0  0
   -0.6796    1.5214    0.7839 H   0  0  0  0  0  0  0  0  0  0  0  0
   -0.7033    3.0694    1.6370 H   0  0  0  0  0  0  0  0  0  0  0  0
    0.2870   -2.9268    2.2708 H   0  0  0  0  0  0  0  0  0  0  0  0
    0.6152   -4.0557    0.9356 H   0  0  0  0  0  0  0  0  0  0  0  0
   -0.3876   -2.6132    0.6835 H   0  0  0  0  0  0  0  0  0  0  0  0
   -4.0562    2.8958    3.3390 H   0  0  0  0  0  0  0  0  0  0  0  0
   -1.5222    0.4416   -0.8142 H   0  0  0  0  0  0  0  0  0  0  0  0
    5.2994   -1.2806   -0.2172 H   0  0  0  0  0  0  0  0  0  0  0  0
    4.0652   -4.2670    1.7632 H   0  0  0  0  0  0  0  0  0  0  0  0
    5.6226    0.3014    1.7424 H   0  0  0  0  0  0  0  0  0  0  0  0
   -3.7389   -3.7787   -1.3777 H   0  0  0  0  0  0  0  0  0  0  0  0
    0.5587   -1.7508   -2.3810 H   0  0  0  0  0  0  0  0  0  0  0  0
    0.1100   -0.0417   -2.4708 H   0  0  0  0  0  0  0  0  0  0  0  0
   -0.4604   -1.1577   -3.7101 H   0  0  0  0  0  0  0  0  0  0  0  0
    3.6118    3.4952   -0.9487 H   0  0  0  0  0  0  0  0  0  0  0  0
    1.2857    3.7210    1.0843 H   0  0  0  0  0  0  0  0  0  0  0  0
  1  6  1  0  0  0  0
  1 11  1  0  0  0  0
  1 13  1  0  0  0  0
  1 15  2  0  0  0  0
  2  9  1  0  0  0  0
  2 11  1  0  0  0  0
  2 14  1  0  0  0  0
  2 16  2  0  0  0  0
  3 21  1  0  0  0  0
  3 23  1  0  0  0  0
  4 27  1  0  0  0  0
  4 28  1  0  0  0  0
  5 20  1  0  0  0  0
  5 51  1  0  0  0  0
  6 28  1  0  0  0  0
  7 24  1  0  0  0  0
  7 53  1  0  0  0  0
  8 25  1  0  0  0  0
  8 54  1  0  0  0  0
  9 29  1  0  0  0  0
 10 26  1  0  0  0  0
 10 55  1  0  0  0  0
 12 32  2  0  0  0  0
 13 60  1  0  0  0  0
 14 61  1  0  0  0  0
 17 34  2  0  0  0  0
 18 23  1  0  0  0  0
 18 31  1  0  0  0  0
 18 32  1  0  0  0  0
 19 32  1  0  0  0  0
 19 34  1  0  0  0  0
 19 56  1  0  0  0  0
 20 21  1  0  0  0  0
 20 22  1  0  0  0  0
 20 36  1  0  0  0  0
 21 29  1  0  0  0  0
 21 37  1  0  0  0  0
 22 23  1  0  0  0  0
 22 38  1  0  0  0  0
 22 39  1  0  0  0  0
 23 40  1  0  0  0  0
 24 25  1  0  0  0  0
 24 26  1  0  0  0  0
 24 41  1  0  0  0  0
 25 27  1  0  0  0  0
 25 42  1  0  0  0  0
 26 28  1  0  0  0  0
 26 43  1  0  0  0  0
 27 30  1  0  0  0  0
 27 44  1  0  0  0  0
 28 45  1  0  0  0  0
 29 46  1  0  0  0  0
 29 47  1  0  0  0  0
 30 48  1  0  0  0  0
 30 49  1  0  0  0  0
 30 50  1  0  0  0  0
 31 33  2  0  0  0  0
 31 52  1  0  0  0  0
 33 34  1  0  0  0  0
 33 35  1  0  0  0  0
 35 57  1  0  0  0  0
 35 58  1  0  0  0  0
 35 59  1  0  0  0  0
M  END
> <PUBCHEM_COMPOUND_CID>
46173788

> <PUBCHEM_CONFORMER_RMSD>
1.4

> <PUBCHEM_CONFORMER_DIVERSEORDER>
1
78
61
70
64
81
31
39
125
20
117
120
87
57
129
40
89
106
44
18
86
130
75
77
131
92
12
45
62
73
132
74
122
102
71
119
10
14
72
63
38
66
34
99
104
69
33
3
54
2
112
85
65
58
84
121
94
9
126
49
91
76
21
26
128
124
56
82
13
116
35
16
48
53
97
80
113
47
123
25
22
36
29
134
52
100
90
15
23
67
11
32
88
46
105
41
43
115
42
37
55
93
27
107
83
109
4
133
60
6
30
103
127
68
95
96
59
28
51
24
19
118
50
108
111
79
98
7
101
110
17
114
5
8

> <PUBCHEM_MMFF94_PARTIAL_CHARGES>
41
1 1.51
10 -0.68
11 -0.54
12 -0.57
13 -0.77
14 -0.77
15 -0.7
16 -0.7
17 -0.57
18 -0.47
19 -0.49
2 1.51
20 0.28
21 0.28
23 0.58
24 0.28
25 0.28
26 0.28
27 0.28
28 0.56
29 0.28
3 -0.56
31 -0.04
32 0.69
33 -0.12
34 0.62
35 0.14
4 -0.56
5 -0.68
51 0.4
52 0.15
53 0.4
54 0.4
55 0.4
56 0.37
6 -0.55
60 0.5
61 0.5
7 -0.68
8 -0.68
9 -0.55

> <PUBCHEM_EFFECTIVE_ROTOR_COUNT>
10.2

> <PUBCHEM_PHARMACOPHORE_FEATURES>
20
1 10 acceptor
1 10 donor
1 12 acceptor
1 13 acceptor
1 14 acceptor
1 15 acceptor
1 16 acceptor
1 17 acceptor
1 19 donor
1 3 acceptor
1 4 acceptor
1 5 acceptor
1 5 donor
1 7 acceptor
1 7 donor
1 8 acceptor
1 8 donor
5 3 20 21 22 23 rings
6 18 19 31 32 33 34 rings
6 4 24 25 26 27 28 rings

> <PUBCHEM_HEAVY_ATOM_COUNT>
35

> <PUBCHEM_ATOM_DEF_STEREO_COUNT>
8

> <PUBCHEM_ATOM_UDEF_STEREO_COUNT>
0

> <PUBCHEM_BOND_DEF_STEREO_COUNT>
0

> <PUBCHEM_BOND_UDEF_STEREO_COUNT>
0

> <PUBCHEM_ISOTOPIC_ATOM_COUNT>
0

> <PUBCHEM_COMPONENT_COUNT>
1

> <PUBCHEM_CACTVS_TAUTO_COUNT>
3

> <PUBCHEM_CONFORMER_ID>
02C08E5C00000001

> <PUBCHEM_MMFF94_ENERGY>
44.0437

> <PUBCHEM_FEATURE_SELFOVERLAP>
101.529

> <PUBCHEM_SHAPE_FINGERPRINT>
10721379 63 16237922289076447983
11552529 35 17968396596796812338
11621639 254 18057863867614839190
12786520 15 17617334761762331800
12788726 201 17898562090906229563
13726171 33 17387108919570279312
13965767 371 17900529379000762201
14117953 113 18191866945417608149
14725015 67 15452293583750737567
14840074 17 18338508767557466913
15403338 16 18131625716922807395
17921350 177 17329157273964665130
19026451 147 17611774217859561799
19319366 153 17689717463660498183
238 59 17557435283857165693
238918 7 16967747840252440135
35225 105 17098656570950001173
469060 322 18272101486607628600

> <PUBCHEM_SHAPE_MULTIPOLES>
629.98
8.4
5.47
2.86
2.12
1.78
-0.64
-3.48
4.12
0.24
-1.66
-1.1
-0.04
-4.44

> <PUBCHEM_SHAPE_SELFOVERLAP>
1283.441

> <PUBCHEM_SHAPE_VOLUME>
366.3

> <PUBCHEM_COORDINATE_TYPE>
2
5
10

$$$$

