46829364
  -OEChem-07051213113D

 20 19  0     1  0  0  0  0  0999 V2000
    0.2230   -0.2018   -1.4699 O   0  0  0  0  0  0  0  0  0  0  0  0
   -3.6677   -0.2005    0.7606 O   0  0  0  0  0  0  0  0  0  0  0  0
   -2.6872    1.3029   -0.6290 O   0  0  0  0  0  0  0  0  0  0  0  0
    4.0090    0.1163   -0.0579 O   0  0  0  0  0  0  0  0  0  0  0  0
    2.2176   -1.2816    0.1451 O   0  0  0  0  0  0  0  0  0  0  0  0
   -1.3204   -0.4375    0.3792 C   0  0  1  0  0  0  0  0  0  0  0  0
   -1.5165   -1.8986   -0.0268 C   0  0  0  0  0  0  0  0  0  0  0  0
   -0.1104    0.1617   -0.3404 C   0  0  0  0  0  0  0  0  0  0  0  0
   -2.6031    0.3229    0.1000 C   0  0  0  0  0  0  0  0  0  0  0  0
    0.7186    1.2081    0.3306 C   0  0  0  0  0  0  0  0  0  0  0  0
    2.0232    1.0779    0.5961 C   0  0  0  0  0  0  0  0  0  0  0  0
    2.7139   -0.1699    0.2124 C   0  0  0  0  0  0  0  0  0  0  0  0
   -1.1209   -0.3843    1.4563 H   0  0  0  0  0  0  0  0  0  0  0  0
   -1.8401   -1.9833   -1.0707 H   0  0  0  0  0  0  0  0  0  0  0  0
   -0.5836   -2.4625    0.0807 H   0  0  0  0  0  0  0  0  0  0  0  0
   -2.2744   -2.3866    0.5952 H   0  0  0  0  0  0  0  0  0  0  0  0
    0.1864    2.0994    0.6474 H   0  0  0  0  0  0  0  0  0  0  0  0
    2.5872    1.8714    1.0716 H   0  0  0  0  0  0  0  0  0  0  0  0
   -4.4926    0.2978    0.5777 H   0  0  0  0  0  0  0  0  0  0  0  0
    4.5149   -0.6825   -0.3192 H   0  0  0  0  0  0  0  0  0  0  0  0
  1  8  2  0  0  0  0
  2  9  1  0  0  0  0
  2 19  1  0  0  0  0
  3  9  2  0  0  0  0
  4 12  1  0  0  0  0
  4 20  1  0  0  0  0
  5 12  2  0  0  0  0
  6  7  1  0  0  0  0
  6  8  1  0  0  0  0
  6  9  1  0  0  0  0
  6 13  1  0  0  0  0
  7 14  1  0  0  0  0
  7 15  1  0  0  0  0
  7 16  1  0  0  0  0
  8 10  1  0  0  0  0
 10 11  2  0  0  0  0
 10 17  1  0  0  0  0
 11 12  1  0  0  0  0
 11 18  1  0  0  0  0
M  END
> <PUBCHEM_COMPOUND_CID>
46829364

> <PUBCHEM_CONFORMER_RMSD>
0.6

> <PUBCHEM_CONFORMER_DIVERSEORDER>
1
99
79
120
121
93
94
48
5
74
87
22
73
9
123
113
76
100
21
104
23
47
109
45
89
106
85
114
86
90
107
72
14
110
35
81
8
122
68
77
65
124
61
26
105
53
95
84
108
118
44
67
103
49
117
88
13
29
78
75
60
28
54
92
70
112
82
7
101
38
96
31
64
62
116
37
56
57
102
19
4
52
51
80
6
33
83
43
46
40
97
42
41
12
32
58
39
59
91
115
17
119
20
98
3
69
27
30
55
50
71
10
111
66
2
16
24
15
36
11
18
34
63
25

> <PUBCHEM_MMFF94_PARTIAL_CHARGES>
15
1 -0.57
10 -0.14
11 -0.14
12 0.71
17 0.15
18 0.15
19 0.5
2 -0.65
20 0.5
3 -0.57
4 -0.65
5 -0.57
6 0.12
8 0.49
9 0.66

> <PUBCHEM_EFFECTIVE_ROTOR_COUNT>
4

> <PUBCHEM_PHARMACOPHORE_FEATURES>
9
1 1 acceptor
1 2 acceptor
1 3 acceptor
1 4 acceptor
1 5 acceptor
1 6 anion
1 7 hydrophobe
3 2 3 9 anion
3 4 5 12 anion

> <PUBCHEM_HEAVY_ATOM_COUNT>
12

> <PUBCHEM_ATOM_DEF_STEREO_COUNT>
0

> <PUBCHEM_ATOM_UDEF_STEREO_COUNT>
1

> <PUBCHEM_BOND_DEF_STEREO_COUNT>
1

> <PUBCHEM_BOND_UDEF_STEREO_COUNT>
0

> <PUBCHEM_ISOTOPIC_ATOM_COUNT>
0

> <PUBCHEM_COMPONENT_COUNT>
1

> <PUBCHEM_CACTVS_TAUTO_COUNT>
7

> <PUBCHEM_CONFORMER_ID>
02CA8F3400000001

> <PUBCHEM_MMFF94_ENERGY>
26.8547

> <PUBCHEM_FEATURE_SELFOVERLAP>
46.039

> <PUBCHEM_SHAPE_FINGERPRINT>
10219947 1 17531245084313367348
11062470 55 17022902358579048336
12251169 10 18334572408745432049
124424 183 18409453612888766905
12500047 106 18341339949869122918
12932764 1 18410016511291907761
13581323 91 18271804597140809763
14144814 61 18409450305753334801
14325111 11 18411984680292819537
14577589 140 18272089400474692171
14993402 34 17167869659845670756
15775835 57 18412259536624752379
16945 1 18335146400938575464
17834069 15 18411702114315131951
18511873 20 18410292514517226304
190213 19 16343703239781464488
19422 9 16845572045341144296
20201158 50 18408041831648420818
20645464 45 18260259750908616863
21501502 16 18192148192243658237
23402539 116 18114189635822937709
23552423 10 18199189477424039024
369184 2 18333734585338250523
69090 78 18334581213766330143

> <PUBCHEM_SHAPE_MULTIPOLES>
217.61
5.56
1.42
0.86
1.01
0.34
0.17
-0.18
-0.73
-0.31
-0.03
-0.15
-0.03
0.29

> <PUBCHEM_SHAPE_SELFOVERLAP>
430.23

> <PUBCHEM_SHAPE_VOLUME>
128.1

> <PUBCHEM_COORDINATE_TYPE>
2
5
10

$$$$

