4499
  -OEChem-06261200102D

 52 53  0     1  0  0  0  0  0999 V2000
    4.5981   -0.6900    0.0000 O   0  0  0  0  0  0  0  0  0  0  0  0
    9.7942   -0.6900    0.0000 O   0  0  0  0  0  0  0  0  0  0  0  0
    5.4641    0.8100    0.0000 O   0  0  0  0  0  0  0  0  0  0  0  0
    9.7942    0.3100    0.0000 O   0  0  0  0  0  0  0  0  0  0  0  0
    8.9282    2.8100    0.0000 O   0  5  0  0  0  0  0  0  0  0  0  0
    9.7942    1.3100    0.0000 O   0  0  0  0  0  0  0  0  0  0  0  0
    7.1962   -2.1900    0.0000 N   0  0  0  0  0  0  0  0  0  0  0  0
    8.9282    1.8100    0.0000 N   0  3  0  0  0  0  0  0  0  0  0  0
    7.1962   -0.1900    0.0000 C   0  0  3  0  0  0  0  0  0  0  0  0
    6.3301   -0.6900    0.0000 C   0  0  0  0  0  0  0  0  0  0  0  0
    8.0622   -0.6900    0.0000 C   0  0  0  0  0  0  0  0  0  0  0  0
    7.1962    0.8100    0.0000 C   0  0  0  0  0  0  0  0  0  0  0  0
    6.3301   -1.6900    0.0000 C   0  0  0  0  0  0  0  0  0  0  0  0
    8.0622   -1.6900    0.0000 C   0  0  0  0  0  0  0  0  0  0  0  0
    5.4641   -0.1900    0.0000 C   0  0  0  0  0  0  0  0  0  0  0  0
    8.0622    1.3100    0.0000 C   0  0  0  0  0  0  0  0  0  0  0  0
    6.3301    1.3100    0.0000 C   0  0  0  0  0  0  0  0  0  0  0  0
    5.4641   -2.1900    0.0000 C   0  0  0  0  0  0  0  0  0  0  0  0
    8.9282   -0.1900    0.0000 C   0  0  0  0  0  0  0  0  0  0  0  0
    8.9282   -2.1900    0.0000 C   0  0  0  0  0  0  0  0  0  0  0  0
    2.8660   -0.6900    0.0000 C   0  0  0  0  0  0  0  0  0  0  0  0
    3.7320   -0.1900    0.0000 C   0  0  0  0  0  0  0  0  0  0  0  0
    8.0622    2.3100    0.0000 C   0  0  0  0  0  0  0  0  0  0  0  0
    6.3301    2.3100    0.0000 C   0  0  0  0  0  0  0  0  0  0  0  0
    7.1962    2.8100    0.0000 C   0  0  0  0  0  0  0  0  0  0  0  0
    2.0000   -0.1900    0.0000 C   0  0  0  0  0  0  0  0  0  0  0  0
    2.8660   -1.6900    0.0000 C   0  0  0  0  0  0  0  0  0  0  0  0
   10.6603   -0.1900    0.0000 C   0  0  0  0  0  0  0  0  0  0  0  0
    6.6592    0.1200    0.0000 H   0  0  0  0  0  0  0  0  0  0  0  0
    7.1962   -2.8100    0.0000 H   0  0  0  0  0  0  0  0  0  0  0  0
    5.7932    1.0000    0.0000 H   0  0  0  0  0  0  0  0  0  0  0  0
    5.1541   -1.6531    0.0000 H   0  0  0  0  0  0  0  0  0  0  0  0
    4.9272   -2.5000    0.0000 H   0  0  0  0  0  0  0  0  0  0  0  0
    5.7741   -2.7269    0.0000 H   0  0  0  0  0  0  0  0  0  0  0  0
    8.6182   -2.7269    0.0000 H   0  0  0  0  0  0  0  0  0  0  0  0
    9.4651   -2.5000    0.0000 H   0  0  0  0  0  0  0  0  0  0  0  0
    9.2382   -1.6531    0.0000 H   0  0  0  0  0  0  0  0  0  0  0  0
    2.8660   -0.0700    0.0000 H   0  0  0  0  0  0  0  0  0  0  0  0
    4.1306    0.2849    0.0000 H   0  0  0  0  0  0  0  0  0  0  0  0
    3.3335    0.2849    0.0000 H   0  0  0  0  0  0  0  0  0  0  0  0
    8.5991    2.6200    0.0000 H   0  0  0  0  0  0  0  0  0  0  0  0
    5.7932    2.6200    0.0000 H   0  0  0  0  0  0  0  0  0  0  0  0
    7.1962    3.4300    0.0000 H   0  0  0  0  0  0  0  0  0  0  0  0
    2.3100    0.3469    0.0000 H   0  0  0  0  0  0  0  0  0  0  0  0
    1.4631    0.1200    0.0000 H   0  0  0  0  0  0  0  0  0  0  0  0
    1.6900   -0.7269    0.0000 H   0  0  0  0  0  0  0  0  0  0  0  0
    2.2460   -1.6900    0.0000 H   0  0  0  0  0  0  0  0  0  0  0  0
    2.8660   -2.3100    0.0000 H   0  0  0  0  0  0  0  0  0  0  0  0
    3.4860   -1.6900    0.0000 H   0  0  0  0  0  0  0  0  0  0  0  0
   10.9703   -0.7269    0.0000 H   0  0  0  0  0  0  0  0  0  0  0  0
   11.1972    0.1200    0.0000 H   0  0  0  0  0  0  0  0  0  0  0  0
   10.3503    0.3469    0.0000 H   0  0  0  0  0  0  0  0  0  0  0  0
  1 15  1  0  0  0  0
  1 22  1  0  0  0  0
  2 19  1  0  0  0  0
  2 28  1  0  0  0  0
  3 15  2  0  0  0  0
  4 19  2  0  0  0  0
  5  8  1  0  0  0  0
  6  8  2  0  0  0  0
  7 13  1  0  0  0  0
  7 14  1  0  0  0  0
  7 30  1  0  0  0  0
  8 16  1  0  0  0  0
  9 10  1  0  0  0  0
  9 11  1  0  0  0  0
  9 12  1  0  0  0  0
  9 29  1  0  0  0  0
 10 13  2  0  0  0  0
 10 15  1  0  0  0  0
 11 14  2  0  0  0  0
 11 19  1  0  0  0  0
 12 16  1  0  0  0  0
 12 17  2  0  0  0  0
 13 18  1  0  0  0  0
 14 20  1  0  0  0  0
 16 23  2  0  0  0  0
 17 24  1  0  0  0  0
 17 31  1  0  0  0  0
 18 32  1  0  0  0  0
 18 33  1  0  0  0  0
 18 34  1  0  0  0  0
 20 35  1  0  0  0  0
 20 36  1  0  0  0  0
 20 37  1  0  0  0  0
 21 22  1  0  0  0  0
 21 26  1  0  0  0  0
 21 27  1  0  0  0  0
 21 38  1  0  0  0  0
 22 39  1  0  0  0  0
 22 40  1  0  0  0  0
 23 25  1  0  0  0  0
 23 41  1  0  0  0  0
 24 25  2  0  0  0  0
 24 42  1  0  0  0  0
 25 43  1  0  0  0  0
 26 44  1  0  0  0  0
 26 45  1  0  0  0  0
 26 46  1  0  0  0  0
 27 47  1  0  0  0  0
 27 48  1  0  0  0  0
 27 49  1  0  0  0  0
 28 50  1  0  0  0  0
 28 51  1  0  0  0  0
 28 52  1  0  0  0  0
M  CHG  2   5  -1   8   1
M  END
> <PUBCHEM_COMPOUND_CID>
4499

> <PUBCHEM_COMPOUND_CANONICALIZED>
1

> <PUBCHEM_CACTVS_COMPLEXITY>
704

> <PUBCHEM_CACTVS_HBOND_ACCEPTOR>
7

> <PUBCHEM_CACTVS_HBOND_DONOR>
1

> <PUBCHEM_CACTVS_ROTATABLE_BOND>
7

> <PUBCHEM_CACTVS_SUBSKEYS>
AAADceB7OAAAAAAAAAAAAAAAAAAAAAAAAAAwQAAAAAAAAAABAAAAHgAUAAAADQihmAIyyILQRACJAiTSSwCCAAAgAgAoiAEAZMoIJDKAsZGCMABkkACI6UeY/+megAAAAAACAAAAAAAAAAQAAAAAAAAAAA==

> <PUBCHEM_IUPAC_OPENEYE_NAME>
O5-isobutyl O3-methyl 2,6-dimethyl-4-(2-nitrophenyl)-1,4-dihydropyridine-3,5-dicarboxylate

> <PUBCHEM_IUPAC_CAS_NAME>
2,6-dimethyl-4-(2-nitrophenyl)-1,4-dihydropyridine-3,5-dicarboxylic acid O3-methyl ester O5-(2-methylpropyl) ester

> <PUBCHEM_IUPAC_NAME>
3-O-methyl 5-O-(2-methylpropyl) 2,6-dimethyl-4-(2-nitrophenyl)-1,4-dihydropyridine-3,5-dicarboxylate

> <PUBCHEM_IUPAC_SYSTEMATIC_NAME>
O3-methyl O5-(2-methylpropyl) 2,6-dimethyl-4-(2-nitrophenyl)-1,4-dihydropyridine-3,5-dicarboxylate

> <PUBCHEM_IUPAC_TRADITIONAL_NAME>
2,6-dimethyl-4-(2-nitrophenyl)-1,4-dihydropyridine-3,5-dicarboxylic acid O5-isobutyl ester O3-methyl ester

> <PUBCHEM_IUPAC_INCHI>
InChI=1S/C20H24N2O6/c1-11(2)10-28-20(24)17-13(4)21-12(3)16(19(23)27-5)18(17)14-8-6-7-9-15(14)22(25)26/h6-9,11,18,21H,10H2,1-5H3

> <PUBCHEM_IUPAC_INCHIKEY>
VKQFCGNPDRICFG-UHFFFAOYSA-N

> <PUBCHEM_XLOGP3>
3.3

> <PUBCHEM_EXACT_MASS>
388.163436

> <PUBCHEM_MOLECULAR_FORMULA>
C20H24N2O6

> <PUBCHEM_MOLECULAR_WEIGHT>
388.41436

> <PUBCHEM_OPENEYE_CAN_SMILES>
CC1=C(C(C(=C(N1)C)C(=O)OCC(C)C)C2=CC=CC=C2[N+](=O)[O-])C(=O)OC

> <PUBCHEM_OPENEYE_ISO_SMILES>
CC1=C(C(C(=C(N1)C)C(=O)OCC(C)C)C2=CC=CC=C2[N+](=O)[O-])C(=O)OC

> <PUBCHEM_CACTVS_TPSA>
110

> <PUBCHEM_MONOISOTOPIC_WEIGHT>
388.163436

> <PUBCHEM_TOTAL_CHARGE>
0

> <PUBCHEM_HEAVY_ATOM_COUNT>
28

> <PUBCHEM_ATOM_DEF_STEREO_COUNT>
0

> <PUBCHEM_ATOM_UDEF_STEREO_COUNT>
1

> <PUBCHEM_BOND_DEF_STEREO_COUNT>
0

> <PUBCHEM_BOND_UDEF_STEREO_COUNT>
0

> <PUBCHEM_ISOTOPIC_ATOM_COUNT>
0

> <PUBCHEM_COMPONENT_COUNT>
1

> <PUBCHEM_CACTVS_TAUTO_COUNT>
5

> <PUBCHEM_COORDINATE_TYPE>
1
5
255

> <PUBCHEM_BONDANNOTATIONS>
12  16  8
12  17  8
16  23  8
17  24  8
23  25  8
24  25  8
9  12  3

$$$$

