72474
  -OEChem-07051213012D

 48 51  0     1  0  0  0  0  0999 V2000
    8.6651    1.7706    0.0000 F   0  0  0  0  0  0  0  0  0  0  0  0
    5.1350    2.7464    0.0000 O   0  0  0  0  0  0  0  0  0  0  0  0
    2.5369    1.2464    0.0000 O   0  0  0  0  0  0  0  0  0  0  0  0
    3.4030    2.7464    0.0000 O   0  0  0  0  0  0  0  0  0  0  0  0
    5.1350   -0.2536    0.0000 N   0  0  0  0  0  0  0  0  0  0  0  0
    8.6651   -0.2777    0.0000 N   0  0  3  0  0  0  0  0  0  0  0  0
   10.3933   -1.2844    0.0000 N   0  0  0  0  0  0  0  0  0  0  0  0
    5.1350   -1.2536    0.0000 C   0  0  0  0  0  0  0  0  0  0  0  0
    4.6350   -2.1196    0.0000 C   0  0  0  0  0  0  0  0  0  0  0  0
    5.6350   -2.1196    0.0000 C   0  0  0  0  0  0  0  0  0  0  0  0
    6.0010    0.2464    0.0000 C   0  0  0  0  0  0  0  0  0  0  0  0
    4.2690    0.2464    0.0000 C   0  0  0  0  0  0  0  0  0  0  0  0
    6.0010    1.2464    0.0000 C   0  0  0  0  0  0  0  0  0  0  0  0
    7.8010    0.2256    0.0000 C   0  0  0  0  0  0  0  0  0  0  0  0
    8.6613   -1.2777    0.0000 C   0  0  0  0  0  0  0  0  0  0  0  0
    6.8950   -0.2882    0.0000 C   0  0  0  0  0  0  0  0  0  0  0  0
    9.5254   -1.7810    0.0000 C   0  0  3  0  0  0  0  0  0  0  0  0
    9.5331    0.2189    0.0000 C   0  0  0  0  0  0  0  0  0  0  0  0
   10.3972   -0.2844    0.0000 C   0  0  0  0  0  0  0  0  0  0  0  0
    6.8950    1.7811    0.0000 C   0  0  0  0  0  0  0  0  0  0  0  0
    4.2690    1.2464    0.0000 C   0  0  0  0  0  0  0  0  0  0  0  0
    5.1350    1.7464    0.0000 C   0  0  0  0  0  0  0  0  0  0  0  0
    7.8010    1.2672    0.0000 C   0  0  0  0  0  0  0  0  0  0  0  0
    9.5215   -2.7810    0.0000 C   0  0  0  0  0  0  0  0  0  0  0  0
    6.8834    2.7810    0.0000 C   0  0  0  0  0  0  0  0  0  0  0  0
    3.4030    1.7464    0.0000 C   0  0  0  0  0  0  0  0  0  0  0  0
    5.7339   -1.0931    0.0000 H   0  0  0  0  0  0  0  0  0  0  0  0
    5.7427   -2.7302    0.0000 H   0  0  0  0  0  0  0  0  0  0  0  0
    6.2176   -1.9075    0.0000 H   0  0  0  0  0  0  0  0  0  0  0  0
    4.0524   -1.9075    0.0000 H   0  0  0  0  0  0  0  0  0  0  0  0
    4.5274   -2.7302    0.0000 H   0  0  0  0  0  0  0  0  0  0  0  0
    3.7320   -0.0636    0.0000 H   0  0  0  0  0  0  0  0  0  0  0  0
    8.0511   -1.1677    0.0000 H   0  0  0  0  0  0  0  0  0  0  0  0
    8.4470   -1.8595    0.0000 H   0  0  0  0  0  0  0  0  0  0  0  0
   10.0611   -2.0931    0.0000 H   0  0  0  0  0  0  0  0  0  0  0  0
    6.8878   -0.9082    0.0000 H   0  0  0  0  0  0  0  0  0  0  0  0
    9.9334    0.6924    0.0000 H   0  0  0  0  0  0  0  0  0  0  0  0
    9.1364    0.6954    0.0000 H   0  0  0  0  0  0  0  0  0  0  0  0
   11.0073   -0.3944    0.0000 H   0  0  0  0  0  0  0  0  0  0  0  0
   10.6115    0.2974    0.0000 H   0  0  0  0  0  0  0  0  0  0  0  0
   10.9291   -1.5964    0.0000 H   0  0  0  0  0  0  0  0  0  0  0  0
    8.9015   -2.7786    0.0000 H   0  0  0  0  0  0  0  0  0  0  0  0
    9.5191   -3.4010    0.0000 H   0  0  0  0  0  0  0  0  0  0  0  0
   10.1415   -2.7834    0.0000 H   0  0  0  0  0  0  0  0  0  0  0  0
    7.5034    2.7882    0.0000 H   0  0  0  0  0  0  0  0  0  0  0  0
    6.8762    3.4010    0.0000 H   0  0  0  0  0  0  0  0  0  0  0  0
    6.2635    2.7739    0.0000 H   0  0  0  0  0  0  0  0  0  0  0  0
    2.0000    1.5564    0.0000 H   0  0  0  0  0  0  0  0  0  0  0  0
  1 23  1  0  0  0  0
  2 22  2  0  0  0  0
  3 26  1  0  0  0  0
  3 48  1  0  0  0  0
  4 26  2  0  0  0  0
  5  8  1  0  0  0  0
  5 11  1  0  0  0  0
  5 12  1  0  0  0  0
  6 14  1  0  0  0  0
  6 15  1  0  0  0  0
  6 18  1  0  0  0  0
  7 17  1  0  0  0  0
  7 19  1  0  0  0  0
  7 41  1  0  0  0  0
  8  9  1  0  0  0  0
  8 10  1  0  0  0  0
  8 27  1  0  0  0  0
  9 10  1  0  0  0  0
  9 30  1  0  0  0  0
  9 31  1  0  0  0  0
 10 28  1  0  0  0  0
 10 29  1  0  0  0  0
 11 13  1  0  0  0  0
 11 16  2  0  0  0  0
 12 21  2  0  0  0  0
 12 32  1  0  0  0  0
 13 20  2  0  0  0  0
 13 22  1  0  0  0  0
 14 16  1  0  0  0  0
 14 23  2  0  0  0  0
 15 17  1  0  0  0  0
 15 33  1  0  0  0  0
 15 34  1  0  0  0  0
 16 36  1  0  0  0  0
 17 24  1  0  0  0  0
 17 35  1  0  0  0  0
 18 19  1  0  0  0  0
 18 37  1  0  0  0  0
 18 38  1  0  0  0  0
 19 39  1  0  0  0  0
 19 40  1  0  0  0  0
 20 23  1  0  0  0  0
 20 25  1  0  0  0  0
 21 22  1  0  0  0  0
 21 26  1  0  0  0  0
 24 42  1  0  0  0  0
 24 43  1  0  0  0  0
 24 44  1  0  0  0  0
 25 45  1  0  0  0  0
 25 46  1  0  0  0  0
 25 47  1  0  0  0  0
M  END
> <PUBCHEM_COMPOUND_CID>
72474

> <PUBCHEM_COMPOUND_CANONICALIZED>
1

> <PUBCHEM_CACTVS_COMPLEXITY>
636

> <PUBCHEM_CACTVS_HBOND_ACCEPTOR>
7

> <PUBCHEM_CACTVS_HBOND_DONOR>
2

> <PUBCHEM_CACTVS_ROTATABLE_BOND>
3

> <PUBCHEM_CACTVS_SUBSKEYS>
AAADceB7MQAAAAAAAAAAAAAAGAAAAAAAAAA8QIAAAAAAAACBAAAAHwAQCAAADCzBmAwyyIPAAgCIAqTWSACCAAAlAgAAiIEIZMgIZD7I1NGUYYhksADI2ceY2bOeiAAAQAQSAAAQAACACCQAAAAAAAAAAA==

> <PUBCHEM_IUPAC_OPENEYE_NAME>
1-cyclopropyl-6-fluoro-5-methyl-7-(3-methylpiperazin-1-yl)-4-oxo-quinoline-3-carboxylic acid

> <PUBCHEM_IUPAC_CAS_NAME>
1-cyclopropyl-6-fluoro-5-methyl-7-(3-methyl-1-piperazinyl)-4-oxo-3-quinolinecarboxylic acid

> <PUBCHEM_IUPAC_NAME>
1-cyclopropyl-6-fluoro-5-methyl-7-(3-methylpiperazin-1-yl)-4-oxoquinoline-3-carboxylic acid

> <PUBCHEM_IUPAC_SYSTEMATIC_NAME>
1-cyclopropyl-6-fluoranyl-5-methyl-7-(3-methylpiperazin-1-yl)-4-oxidanylidene-quinoline-3-carboxylic acid

> <PUBCHEM_IUPAC_TRADITIONAL_NAME>
1-cyclopropyl-6-fluoro-4-keto-5-methyl-7-(3-methylpiperazino)quinoline-3-carboxylic acid

> <PUBCHEM_IUPAC_INCHI>
InChI=1S/C19H22FN3O3/c1-10-8-22(6-5-21-10)15-7-14-16(11(2)17(15)20)18(24)13(19(25)26)9-23(14)12-3-4-12/h7,9-10,12,21H,3-6,8H2,1-2H3,(H,25,26)

> <PUBCHEM_IUPAC_INCHIKEY>
AIJTTZAVMXIJGM-UHFFFAOYSA-N

> <PUBCHEM_XLOGP3>
-0.2

> <PUBCHEM_EXACT_MASS>
359.16452

> <PUBCHEM_MOLECULAR_FORMULA>
C19H22FN3O3

> <PUBCHEM_MOLECULAR_WEIGHT>
359.394683

> <PUBCHEM_OPENEYE_CAN_SMILES>
CC1CN(CCN1)C2=C(C(=C3C(=C2)N(C=C(C3=O)C(=O)O)C4CC4)C)F

> <PUBCHEM_OPENEYE_ISO_SMILES>
CC1CN(CCN1)C2=C(C(=C3C(=C2)N(C=C(C3=O)C(=O)O)C4CC4)C)F

> <PUBCHEM_CACTVS_TPSA>
72.9

> <PUBCHEM_MONOISOTOPIC_WEIGHT>
359.16452

> <PUBCHEM_TOTAL_CHARGE>
0

> <PUBCHEM_HEAVY_ATOM_COUNT>
26

> <PUBCHEM_ATOM_DEF_STEREO_COUNT>
0

> <PUBCHEM_ATOM_UDEF_STEREO_COUNT>
1

> <PUBCHEM_BOND_DEF_STEREO_COUNT>
0

> <PUBCHEM_BOND_UDEF_STEREO_COUNT>
0

> <PUBCHEM_ISOTOPIC_ATOM_COUNT>
0

> <PUBCHEM_COMPONENT_COUNT>
1

> <PUBCHEM_CACTVS_TAUTO_COUNT>
1

> <PUBCHEM_COORDINATE_TYPE>
1
5
255

> <PUBCHEM_BONDANNOTATIONS>
11  13  8
11  16  8
12  21  8
13  20  8
13  22  8
14  16  8
14  23  8
17  24  3
20  23  8
21  22  8
5  11  8
5  12  8

$$$$

