9588
  -OEChem-06261203513D

 15 15  0     0  0  0  0  0  0999 V2000
    2.6563    0.0079   -1.7709 Cl  0  0  0  0  0  0  0  0  0  0  0  0
    2.1110   -0.0027    0.2021 S   0  0  0  0  0  0  0  0  0  0  0  0
   -3.7560    0.0035   -0.1101 F   0  0  0  0  0  0  0  0  0  0  0  0
    2.5572   -1.2756    0.7368 O   0  0  0  0  0  0  0  0  0  0  0  0
    2.5843    1.2634    0.7304 O   0  0  0  0  0  0  0  0  0  0  0  0
    0.3674   -0.0010    0.1093 C   0  0  0  0  0  0  0  0  0  0  0  0
   -0.3280    1.2078    0.0790 C   0  0  0  0  0  0  0  0  0  0  0  0
   -0.3299   -1.2081    0.0656 C   0  0  0  0  0  0  0  0  0  0  0  0
   -1.7209    1.2093    0.0050 C   0  0  0  0  0  0  0  0  0  0  0  0
   -1.7229   -1.2066   -0.0084 C   0  0  0  0  0  0  0  0  0  0  0  0
   -2.4184    0.0021   -0.0388 C   0  0  0  0  0  0  0  0  0  0  0  0
    0.1955    2.1593    0.1067 H   0  0  0  0  0  0  0  0  0  0  0  0
    0.1913   -2.1611    0.0820 H   0  0  0  0  0  0  0  0  0  0  0  0
   -2.2629    2.1501   -0.0200 H   0  0  0  0  0  0  0  0  0  0  0  0
   -2.2663   -2.1463   -0.0439 H   0  0  0  0  0  0  0  0  0  0  0  0
  1  2  1  0  0  0  0
  2  4  2  0  0  0  0
  2  5  2  0  0  0  0
  2  6  1  0  0  0  0
  3 11  1  0  0  0  0
  6  7  2  0  0  0  0
  6  8  1  0  0  0  0
  7  9  1  0  0  0  0
  7 12  1  0  0  0  0
  8 10  2  0  0  0  0
  8 13  1  0  0  0  0
  9 11  2  0  0  0  0
  9 14  1  0  0  0  0
 10 11  1  0  0  0  0
 10 15  1  0  0  0  0
M  END
> <PUBCHEM_COMPOUND_CID>
9588

> <PUBCHEM_CONFORMER_RMSD>
0.4

> <PUBCHEM_CONFORMER_DIVERSEORDER>
1

> <PUBCHEM_MMFF94_PARTIAL_CHARGES>
15
1 -0.19
10 -0.15
11 0.19
12 0.15
13 0.15
14 0.15
15 0.15
2 1.49
3 -0.19
4 -0.65
5 -0.65
6 -0.01
7 -0.15
8 -0.15
9 -0.15

> <PUBCHEM_EFFECTIVE_ROTOR_COUNT>
1

> <PUBCHEM_PHARMACOPHORE_FEATURES>
1
6 6 7 8 9 10 11 rings

> <PUBCHEM_HEAVY_ATOM_COUNT>
11

> <PUBCHEM_ATOM_DEF_STEREO_COUNT>
0

> <PUBCHEM_ATOM_UDEF_STEREO_COUNT>
0

> <PUBCHEM_BOND_DEF_STEREO_COUNT>
0

> <PUBCHEM_BOND_UDEF_STEREO_COUNT>
0

> <PUBCHEM_ISOTOPIC_ATOM_COUNT>
0

> <PUBCHEM_COMPONENT_COUNT>
1

> <PUBCHEM_CACTVS_TAUTO_COUNT>
1

> <PUBCHEM_CONFORMER_ID>
0000257400000001

> <PUBCHEM_MMFF94_ENERGY>
13.7926

> <PUBCHEM_FEATURE_SELFOVERLAP>
5.074

> <PUBCHEM_SHAPE_FINGERPRINT>
12423570 1 5587172666103101340
12524768 44 18186799141072986012
12897270 3 18408880728770805670
12932764 1 18410852161619658737
14325111 11 18410580599680830857
15775835 57 18342173379941517904
16945 1 18411978048878976321
18186145 218 18260545658265489009
20201158 50 17822285799506501214
20645464 45 18113904835971613362
20645476 183 17917417692735568167
20653085 51 17531794857481165665
20711985 344 17970888176050349848
21040471 1 18339923826137213633
23402655 69 18121240903156577261
23552423 10 18199748042226446180
2748010 2 18121782725315977607
3248919 1 17203329983340476195
369184 2 18409738356440935579
5084963 1 17845937454050006112
7364860 26 18335704962073736714
8030462 33 18271801337144535590

> <PUBCHEM_SHAPE_MULTIPOLES>
213.08
4.82
1.39
1.01
0.75
0
-0.4
-0.01
-0.57
0.03
0.2
-1.04
0
-0.01

> <PUBCHEM_SHAPE_SELFOVERLAP>
421.996

> <PUBCHEM_SHAPE_VOLUME>
129.5

> <PUBCHEM_COORDINATE_TYPE>
2
5
10

$$$$

