586283
  -OEChem-06241222462D

 31 32  0     0  0  0  0  0  0999 V2000
    3.4782    1.2445    0.0000 S   0  0  0  0  0  0  0  0  0  0  0  0
    7.0468    0.2500    0.0000 O   0  0  0  0  0  0  0  0  0  0  0  0
    9.6448    1.7500    0.0000 O   0  5  0  0  0  0  0  0  0  0  0  0
    7.9128    1.7500    0.0000 O   0  0  0  0  0  0  0  0  0  0  0  0
    6.1808   -1.2500    0.0000 O   0  0  0  0  0  0  0  0  0  0  0  0
    8.7788    1.2500    0.0000 N   0  3  0  0  0  0  0  0  0  0  0  0
    9.6448   -1.2500    0.0000 C   0  0  0  0  0  0  0  0  0  0  0  0
    8.7788    0.2500    0.0000 C   0  0  0  0  0  0  0  0  0  0  0  0
    7.9128   -0.2500    0.0000 C   0  0  0  0  0  0  0  0  0  0  0  0
    9.6448   -0.2500    0.0000 C   0  0  0  0  0  0  0  0  0  0  0  0
    8.7788   -1.7500    0.0000 C   0  0  0  0  0  0  0  0  0  0  0  0
    7.9128   -1.2500    0.0000 C   0  0  0  0  0  0  0  0  0  0  0  0
   10.5109   -1.7500    0.0000 C   0  0  0  0  0  0  0  0  0  0  0  0
    3.5827    0.2500    0.0000 C   0  0  0  0  0  0  0  0  0  0  0  0
    6.1808   -0.2500    0.0000 C   0  0  0  0  0  0  0  0  0  0  0  0
    4.4487   -0.2500    0.0000 C   0  0  0  0  0  0  0  0  0  0  0  0
    5.3147    0.2500    0.0000 C   0  0  0  0  0  0  0  0  0  0  0  0
    2.6691   -0.1567    0.0000 C   0  0  0  0  0  0  0  0  0  0  0  0
    2.0000    0.5864    0.0000 C   0  0  0  0  0  0  0  0  0  0  0  0
    2.5000    1.4524    0.0000 C   0  0  0  0  0  0  0  0  0  0  0  0
   10.1818    0.0600    0.0000 H   0  0  0  0  0  0  0  0  0  0  0  0
    8.7788   -2.3700    0.0000 H   0  0  0  0  0  0  0  0  0  0  0  0
    7.3759   -1.5600    0.0000 H   0  0  0  0  0  0  0  0  0  0  0  0
   10.2009   -2.2869    0.0000 H   0  0  0  0  0  0  0  0  0  0  0  0
   11.0478   -2.0600    0.0000 H   0  0  0  0  0  0  0  0  0  0  0  0
   10.8209   -1.2131    0.0000 H   0  0  0  0  0  0  0  0  0  0  0  0
    4.4487   -0.8700    0.0000 H   0  0  0  0  0  0  0  0  0  0  0  0
    5.3147    0.8700    0.0000 H   0  0  0  0  0  0  0  0  0  0  0  0
    2.5402   -0.7632    0.0000 H   0  0  0  0  0  0  0  0  0  0  0  0
    1.3834    0.5216    0.0000 H   0  0  0  0  0  0  0  0  0  0  0  0
    2.2478    2.0188    0.0000 H   0  0  0  0  0  0  0  0  0  0  0  0
  1 14  1  0  0  0  0
  1 20  1  0  0  0  0
  2  9  1  0  0  0  0
  2 15  1  0  0  0  0
  3  6  1  0  0  0  0
  4  6  2  0  0  0  0
  5 15  2  0  0  0  0
  6  8  1  0  0  0  0
  7 10  2  0  0  0  0
  7 11  1  0  0  0  0
  7 13  1  0  0  0  0
  8  9  2  0  0  0  0
  8 10  1  0  0  0  0
  9 12  1  0  0  0  0
 10 21  1  0  0  0  0
 11 12  2  0  0  0  0
 11 22  1  0  0  0  0
 12 23  1  0  0  0  0
 13 24  1  0  0  0  0
 13 25  1  0  0  0  0
 13 26  1  0  0  0  0
 14 16  1  0  0  0  0
 14 18  2  0  0  0  0
 15 17  1  0  0  0  0
 16 17  2  3  0  0  0
 16 27  1  0  0  0  0
 17 28  1  0  0  0  0
 18 19  1  0  0  0  0
 18 29  1  0  0  0  0
 19 20  2  0  0  0  0
 19 30  1  0  0  0  0
 20 31  1  0  0  0  0
M  CHG  2   3  -1   6   1
M  END
> <PUBCHEM_COMPOUND_CID>
586283

> <PUBCHEM_COMPOUND_CANONICALIZED>
1

> <PUBCHEM_CACTVS_COMPLEXITY>
393

> <PUBCHEM_CACTVS_HBOND_ACCEPTOR>
5

> <PUBCHEM_CACTVS_HBOND_DONOR>
0

> <PUBCHEM_CACTVS_ROTATABLE_BOND>
4

> <PUBCHEM_CACTVS_SUBSKEYS>
AAADccByOABAAAAAAAAAAAAAAAAAASAAAAAwAAAAAAAAAAABwAAAHgQEAAAADAyF2ACyz4AQRAiNAiTSSwCDCIAgKhBoiBgHbMoOJiKksZuDOiDkwFEo6YeQwAAOIAAAQAAAEABAAACAAAAgAAAAAAAAAA==

> <PUBCHEM_IUPAC_OPENEYE_NAME>
(4-methyl-2-nitro-phenyl) 3-(2-thienyl)prop-2-enoate

> <PUBCHEM_IUPAC_CAS_NAME>
3-thiophen-2-yl-2-propenoic acid (4-methyl-2-nitrophenyl) ester

> <PUBCHEM_IUPAC_NAME>
(4-methyl-2-nitrophenyl) 3-thiophen-2-ylprop-2-enoate

> <PUBCHEM_IUPAC_SYSTEMATIC_NAME>
(4-methyl-2-nitro-phenyl) 3-thiophen-2-ylprop-2-enoate

> <PUBCHEM_IUPAC_TRADITIONAL_NAME>
3-(2-thienyl)acrylic acid (4-methyl-2-nitro-phenyl) ester

> <PUBCHEM_IUPAC_INCHI>
InChI=1S/C14H11NO4S/c1-10-4-6-13(12(9-10)15(17)18)19-14(16)7-5-11-3-2-8-20-11/h2-9H,1H3

> <PUBCHEM_IUPAC_INCHIKEY>
LBLKEBAOEMOTHS-UHFFFAOYSA-N

> <PUBCHEM_XLOGP3_AA>
3.7

> <PUBCHEM_EXACT_MASS>
289.040879

> <PUBCHEM_MOLECULAR_FORMULA>
C14H11NO4S

> <PUBCHEM_MOLECULAR_WEIGHT>
289.30644

> <PUBCHEM_OPENEYE_CAN_SMILES>
CC1=CC(=C(C=C1)OC(=O)C=CC2=CC=CS2)[N+](=O)[O-]

> <PUBCHEM_OPENEYE_ISO_SMILES>
CC1=CC(=C(C=C1)OC(=O)C=CC2=CC=CS2)[N+](=O)[O-]

> <PUBCHEM_CACTVS_TPSA>
100

> <PUBCHEM_MONOISOTOPIC_WEIGHT>
289.040879

> <PUBCHEM_TOTAL_CHARGE>
0

> <PUBCHEM_HEAVY_ATOM_COUNT>
20

> <PUBCHEM_ATOM_DEF_STEREO_COUNT>
0

> <PUBCHEM_ATOM_UDEF_STEREO_COUNT>
0

> <PUBCHEM_BOND_DEF_STEREO_COUNT>
0

> <PUBCHEM_BOND_UDEF_STEREO_COUNT>
1

> <PUBCHEM_ISOTOPIC_ATOM_COUNT>
0

> <PUBCHEM_COMPONENT_COUNT>
1

> <PUBCHEM_CACTVS_TAUTO_COUNT>
1

> <PUBCHEM_COORDINATE_TYPE>
1
5
255

> <PUBCHEM_BONDANNOTATIONS>
1  14  8
1  20  8
11  12  8
14  18  8
16  17  1
18  19  8
19  20  8
7  10  8
7  11  8
8  10  8
8  9  8
9  12  8

$$$$

