7951
  -OEChem-06261202292D

 19 19  0     0  0  0  0  0  0999 V2000
    2.5369   -1.3450    0.0000 N   0  0  0  0  0  0  0  0  0  0  0  0
    4.2690    1.6550    0.0000 N   0  0  0  0  0  0  0  0  0  0  0  0
    5.1350   -0.8450    0.0000 C   0  0  0  0  0  0  0  0  0  0  0  0
    3.4030   -0.8450    0.0000 C   0  0  0  0  0  0  0  0  0  0  0  0
    4.2690    0.6550    0.0000 C   0  0  0  0  0  0  0  0  0  0  0  0
    5.1350    0.1550    0.0000 C   0  0  0  0  0  0  0  0  0  0  0  0
    4.2690   -1.3450    0.0000 C   0  0  0  0  0  0  0  0  0  0  0  0
    3.4030    0.1550    0.0000 C   0  0  0  0  0  0  0  0  0  0  0  0
    6.0010   -1.3450    0.0000 C   0  0  0  0  0  0  0  0  0  0  0  0
    5.6720    0.4650    0.0000 H   0  0  0  0  0  0  0  0  0  0  0  0
    4.2690   -1.9650    0.0000 H   0  0  0  0  0  0  0  0  0  0  0  0
    2.8660    0.4650    0.0000 H   0  0  0  0  0  0  0  0  0  0  0  0
    5.6910   -1.8819    0.0000 H   0  0  0  0  0  0  0  0  0  0  0  0
    6.5380   -1.6550    0.0000 H   0  0  0  0  0  0  0  0  0  0  0  0
    6.3110   -0.8081    0.0000 H   0  0  0  0  0  0  0  0  0  0  0  0
    2.5369   -1.9650    0.0000 H   0  0  0  0  0  0  0  0  0  0  0  0
    2.0000   -1.0350    0.0000 H   0  0  0  0  0  0  0  0  0  0  0  0
    4.8059    1.9650    0.0000 H   0  0  0  0  0  0  0  0  0  0  0  0
    3.7320    1.9650    0.0000 H   0  0  0  0  0  0  0  0  0  0  0  0
  1  4  1  0  0  0  0
  1 16  1  0  0  0  0
  1 17  1  0  0  0  0
  2  5  1  0  0  0  0
  2 18  1  0  0  0  0
  2 19  1  0  0  0  0
  3  6  2  0  0  0  0
  3  7  1  0  0  0  0
  3  9  1  0  0  0  0
  4  7  2  0  0  0  0
  4  8  1  0  0  0  0
  5  6  1  0  0  0  0
  5  8  2  0  0  0  0
  6 10  1  0  0  0  0
  7 11  1  0  0  0  0
  8 12  1  0  0  0  0
  9 13  1  0  0  0  0
  9 14  1  0  0  0  0
  9 15  1  0  0  0  0
M  END
> <PUBCHEM_COMPOUND_CID>
7951

> <PUBCHEM_COMPOUND_CANONICALIZED>
1

> <PUBCHEM_CACTVS_COMPLEXITY>
82.9

> <PUBCHEM_CACTVS_HBOND_ACCEPTOR>
2

> <PUBCHEM_CACTVS_HBOND_DONOR>
2

> <PUBCHEM_CACTVS_ROTATABLE_BOND>
0

> <PUBCHEM_CACTVS_SUBSKEYS>
AAADccBjAAAAAAAAAAAAAAAAAAAAAAAAAAAwAAAAAAAAAAABAAAAHAAQAAAADAiBGAAywIBAAACAAiRCQACCAAAgAgAAiAAAZIgIICKA0dGAIABgkAAIyAcQgAAOAAAAQAQAAAAAAACACAAAAAAAAAAAAA==

> <PUBCHEM_IUPAC_OPENEYE_NAME>
5-methylbenzene-1,3-diamine

> <PUBCHEM_IUPAC_CAS_NAME>
5-methylbenzene-1,3-diamine

> <PUBCHEM_IUPAC_NAME>
5-methylbenzene-1,3-diamine

> <PUBCHEM_IUPAC_SYSTEMATIC_NAME>
5-methylbenzene-1,3-diamine

> <PUBCHEM_IUPAC_TRADITIONAL_NAME>
(3-amino-5-methyl-phenyl)amine

> <PUBCHEM_IUPAC_INCHI>
InChI=1S/C7H10N2/c1-5-2-6(8)4-7(9)3-5/h2-4H,8-9H2,1H3

> <PUBCHEM_IUPAC_INCHIKEY>
LVNDUJYMLJDECN-UHFFFAOYSA-N

> <PUBCHEM_XLOGP3_AA>
0.9

> <PUBCHEM_EXACT_MASS>
122.084398

> <PUBCHEM_MOLECULAR_FORMULA>
C7H10N2

> <PUBCHEM_MOLECULAR_WEIGHT>
122.1677

> <PUBCHEM_OPENEYE_CAN_SMILES>
CC1=CC(=CC(=C1)N)N

> <PUBCHEM_OPENEYE_ISO_SMILES>
CC1=CC(=CC(=C1)N)N

> <PUBCHEM_CACTVS_TPSA>
52

> <PUBCHEM_MONOISOTOPIC_WEIGHT>
122.084398

> <PUBCHEM_TOTAL_CHARGE>
0

> <PUBCHEM_HEAVY_ATOM_COUNT>
9

> <PUBCHEM_ATOM_DEF_STEREO_COUNT>
0

> <PUBCHEM_ATOM_UDEF_STEREO_COUNT>
0

> <PUBCHEM_BOND_DEF_STEREO_COUNT>
0

> <PUBCHEM_BOND_UDEF_STEREO_COUNT>
0

> <PUBCHEM_ISOTOPIC_ATOM_COUNT>
0

> <PUBCHEM_COMPONENT_COUNT>
1

> <PUBCHEM_CACTVS_TAUTO_COUNT>
1

> <PUBCHEM_COORDINATE_TYPE>
1
5
255

> <PUBCHEM_BONDANNOTATIONS>
3  6  8
3  7  8
4  7  8
4  8  8
5  6  8
5  8  8

$$$$

