442320
  -OEChem-07051212572D

 57 60  0     1  0  0  0  0  0999 V2000
    3.7230    1.4491    0.0000 O   0  0  0  0  0  0  0  0  0  0  0  0
    7.0268   -0.5395    0.0000 O   0  0  0  0  0  0  0  0  0  0  0  0
    8.4578   -1.5152    0.0000 O   0  0  0  0  0  0  0  0  0  0  0  0
    8.1534    1.1130    0.0000 O   0  0  0  0  0  0  0  0  0  0  0  0
    2.0000    1.8812    0.0000 O   0  0  0  0  0  0  0  0  0  0  0  0
   10.1478    0.9635    0.0000 O   0  0  0  0  0  0  0  0  0  0  0  0
   11.0156   -0.8384    0.0000 O   0  0  0  0  0  0  0  0  0  0  0  0
    9.3256   -3.3172    0.0000 O   0  0  0  0  0  0  0  0  0  0  0  0
    5.4786    1.5228    0.0000 C   0  0  1  0  0  0  0  0  0  0  0  0
    6.3796    1.9567    0.0000 C   0  0  1  0  0  0  0  0  0  0  0  0
    4.5777    1.9567    0.0000 C   0  0  2  0  0  0  0  0  0  0  0  0
    7.0647    1.2364    0.0000 C   0  0  0  0  0  0  0  0  0  0  0  0
    4.3551    2.9316    0.0000 C   0  0  1  0  0  0  0  0  0  0  0  0
    6.5929    0.3615    0.0000 C   0  0  1  0  0  0  0  0  0  0  0  0
    5.6146    0.5381    0.0000 C   0  0  0  0  0  0  0  0  0  0  0  0
    6.6021    2.9316    0.0000 C   0  0  0  0  0  0  0  0  0  0  0  0
    4.9786    3.7135    0.0000 C   0  0  0  0  0  0  0  0  0  0  0  0
    5.9786    3.7135    0.0000 C   0  0  0  0  0  0  0  0  0  0  0  0
    3.3648    3.0182    0.0000 C   0  0  0  0  0  0  0  0  0  0  0  0
    8.0240   -0.6142    0.0000 C   0  0  2  0  0  0  0  0  0  0  0  0
    2.9749    2.1038    0.0000 C   0  0  0  0  0  0  0  0  0  0  0  0
    4.8930   -0.1542    0.0000 C   0  0  0  0  0  0  0  0  0  0  0  0
    8.5873    0.2120    0.0000 C   0  0  1  0  0  0  0  0  0  0  0  0
    7.5770    3.1542    0.0000 C   0  0  0  0  0  0  0  0  0  0  0  0
    9.5845    0.1373    0.0000 C   0  0  2  0  0  0  0  0  0  0  0  0
   10.0184   -0.7637    0.0000 C   0  0  1  0  0  0  0  0  0  0  0  0
    9.4551   -1.5899    0.0000 C   0  0  1  0  0  0  0  0  0  0  0  0
    2.8504    3.8758    0.0000 C   0  0  0  0  0  0  0  0  0  0  0  0
    9.8889   -2.4909    0.0000 C   0  0  0  0  0  0  0  0  0  0  0  0
    4.7916    1.0223    0.0000 H   0  0  0  0  0  0  0  0  0  0  0  0
    7.1993    2.1818    0.0000 H   0  0  0  0  0  0  0  0  0  0  0  0
    4.6147    1.1075    0.0000 H   0  0  0  0  0  0  0  0  0  0  0  0
    7.5765    0.8864    0.0000 H   0  0  0  0  0  0  0  0  0  0  0  0
    7.4666    1.7086    0.0000 H   0  0  0  0  0  0  0  0  0  0  0  0
    4.0200    3.7128    0.0000 H   0  0  0  0  0  0  0  0  0  0  0  0
    7.2127    0.3473    0.0000 H   0  0  0  0  0  0  0  0  0  0  0  0
    5.1166    4.3179    0.0000 H   0  0  0  0  0  0  0  0  0  0  0  0
    4.4200    3.9825    0.0000 H   0  0  0  0  0  0  0  0  0  0  0  0
    6.5372    3.9825    0.0000 H   0  0  0  0  0  0  0  0  0  0  0  0
    5.8407    4.3179    0.0000 H   0  0  0  0  0  0  0  0  0  0  0  0
    7.7550   -0.0556    0.0000 H   0  0  0  0  0  0  0  0  0  0  0  0
    4.2976    0.0186    0.0000 H   0  0  0  0  0  0  0  0  0  0  0  0
    5.0411   -0.7563    0.0000 H   0  0  0  0  0  0  0  0  0  0  0  0
    7.9690    0.2583    0.0000 H   0  0  0  0  0  0  0  0  0  0  0  0
    7.9988    2.6997    0.0000 H   0  0  0  0  0  0  0  0  0  0  0  0
    7.7598    3.7466    0.0000 H   0  0  0  0  0  0  0  0  0  0  0  0
    9.3155    0.6959    0.0000 H   0  0  0  0  0  0  0  0  0  0  0  0
   10.2874   -1.3223    0.0000 H   0  0  0  0  0  0  0  0  0  0  0  0
    9.1058   -2.1022    0.0000 H   0  0  0  0  0  0  0  0  0  0  0  0
    3.1514    4.4178    0.0000 H   0  0  0  0  0  0  0  0  0  0  0  0
    2.2305    3.8654    0.0000 H   0  0  0  0  0  0  0  0  0  0  0  0
   10.3328   -2.9238    0.0000 H   0  0  0  0  0  0  0  0  0  0  0  0
   10.3923   -2.1290    0.0000 H   0  0  0  0  0  0  0  0  0  0  0  0
    8.5027    1.6252    0.0000 H   0  0  0  0  0  0  0  0  0  0  0  0
   10.7661    0.9172    0.0000 H   0  0  0  0  0  0  0  0  0  0  0  0
   11.2846   -1.3970    0.0000 H   0  0  0  0  0  0  0  0  0  0  0  0
    9.5946   -3.8758    0.0000 H   0  0  0  0  0  0  0  0  0  0  0  0
  1 11  1  0  0  0  0
  1 21  1  0  0  0  0
 14  2  1  6  0  0  0
 20  2  1  1  0  0  0
  3 20  1  0  0  0  0
  3 27  1  0  0  0  0
 23  4  1  6  0  0  0
  4 54  1  0  0  0  0
  5 21  2  0  0  0  0
 25  6  1  1  0  0  0
  6 55  1  0  0  0  0
 26  7  1  6  0  0  0
  7 56  1  0  0  0  0
  8 29  1  0  0  0  0
  8 57  1  0  0  0  0
  9 10  1  0  0  0  0
  9 11  1  0  0  0  0
  9 15  1  0  0  0  0
  9 30  1  1  0  0  0
 10 12  1  0  0  0  0
 10 16  1  0  0  0  0
 10 31  1  1  0  0  0
 11 13  1  0  0  0  0
 11 32  1  6  0  0  0
 12 14  1  0  0  0  0
 12 33  1  0  0  0  0
 12 34  1  0  0  0  0
 13 17  1  0  0  0  0
 13 19  1  0  0  0  0
 13 35  1  1  0  0  0
 14 15  1  0  0  0  0
 14 36  1  0  0  0  0
 15 22  2  0  0  0  0
 16 18  1  0  0  0  0
 16 24  2  0  0  0  0
 17 18  1  0  0  0  0
 17 37  1  0  0  0  0
 17 38  1  0  0  0  0
 18 39  1  0  0  0  0
 18 40  1  0  0  0  0
 19 21  1  0  0  0  0
 19 28  2  0  0  0  0
 20 23  1  0  0  0  0
 20 41  1  0  0  0  0
 22 42  1  0  0  0  0
 22 43  1  0  0  0  0
 23 25  1  0  0  0  0
 23 44  1  0  0  0  0
 24 45  1  0  0  0  0
 24 46  1  0  0  0  0
 25 26  1  0  0  0  0
 25 47  1  0  0  0  0
 26 27  1  0  0  0  0
 26 48  1  0  0  0  0
 27 29  1  1  0  0  0
 27 49  1  0  0  0  0
 28 50  1  0  0  0  0
 28 51  1  0  0  0  0
 29 52  1  0  0  0  0
 29 53  1  0  0  0  0
M  END
> <PUBCHEM_COMPOUND_CID>
442320

> <PUBCHEM_COMPOUND_CANONICALIZED>
1

> <PUBCHEM_CACTVS_COMPLEXITY>
732

> <PUBCHEM_CACTVS_HBOND_ACCEPTOR>
8

> <PUBCHEM_CACTVS_HBOND_DONOR>
4

> <PUBCHEM_CACTVS_ROTATABLE_BOND>
3

> <PUBCHEM_CACTVS_SUBSKEYS>
AAADceB4PAAAAAAAAAAAAAAAAAAAAaIAAAAkAAAABgAAAADQAAAAGgAACAAADRSwgAMACAAABgCIAgDSCAAAAAAgAAAAAAEAAEgRFBIAIQAiQAAFwAAHIIHK6PyOgAAAAAAAAAAAAAAAAAAAAIAACAAAAA==

> <PUBCHEM_IUPAC_OPENEYE_NAME>
(3aS,6aR,8S,9aR,9bS)-3,6,9-trimethylene-8-[(2R,3R,4S,5S,6R)-3,4,5-trihydroxy-6-(hydroxymethyl)tetrahydropyran-2-yl]oxy-3a,4,5,6a,7,8,9a,9b-octahydroazuleno[4,5-b]furan-2-one

> <PUBCHEM_IUPAC_CAS_NAME>
(3aS,6aR,8S,9aR,9bS)-3,6,9-trimethylene-8-[[(2R,3R,4S,5S,6R)-3,4,5-trihydroxy-6-(hydroxymethyl)-2-oxanyl]oxy]-3a,4,5,6a,7,8,9a,9b-octahydroazuleno[4,5-b]furan-2-one

> <PUBCHEM_IUPAC_NAME>
(3aS,6aR,8S,9aR,9bS)-3,6,9-trimethylidene-8-[(2R,3R,4S,5S,6R)-3,4,5-trihydroxy-6-(hydroxymethyl)oxan-2-yl]oxy-3a,4,5,6a,7,8,9a,9b-octahydroazuleno[4,5-b]furan-2-one

> <PUBCHEM_IUPAC_SYSTEMATIC_NAME>
(3aS,6aR,8S,9aR,9bS)-8-[(2R,3R,4S,5S,6R)-6-(hydroxymethyl)-3,4,5-tris(oxidanyl)oxan-2-yl]oxy-3,6,9-trimethylidene-3a,4,5,6a,7,8,9a,9b-octahydroazuleno[4,5-b]furan-2-one

> <PUBCHEM_IUPAC_TRADITIONAL_NAME>
(3aS,6aR,8S,9aR,9bS)-3,6,9-trimethylene-8-[(2R,3R,4S,5S,6R)-3,4,5-trihydroxy-6-methylol-tetrahydropyran-2-yl]oxy-3a,4,5,6a,7,8,9a,9b-octahydroazuleno[4,5-b]furan-2-one

> <PUBCHEM_IUPAC_INCHI>
InChI=1S/C21H28O8/c1-8-4-5-11-9(2)20(26)29-19(11)15-10(3)13(6-12(8)15)27-21-18(25)17(24)16(23)14(7-22)28-21/h11-19,21-25H,1-7H2/t11-,12-,13-,14+,15-,16+,17-,18+,19-,21+/m0/s1

> <PUBCHEM_IUPAC_INCHIKEY>
OIOLZODVFMMERF-GHSWTDDMSA-N

> <PUBCHEM_XLOGP3_AA>
-0.3

> <PUBCHEM_EXACT_MASS>
408.178418

> <PUBCHEM_MOLECULAR_FORMULA>
C21H28O8

> <PUBCHEM_MOLECULAR_WEIGHT>
408.44222

> <PUBCHEM_OPENEYE_CAN_SMILES>
C=C1CCC2C(C3C1CC(C3=C)OC4C(C(C(C(O4)CO)O)O)O)OC(=O)C2=C

> <PUBCHEM_OPENEYE_ISO_SMILES>
C=C1CC[C@@H]2[C@@H]([C@@H]3[C@H]1C[C@@H](C3=C)O[C@H]4[C@@H]([C@H]([C@@H]([C@H](O4)CO)O)O)O)OC(=O)C2=C

> <PUBCHEM_CACTVS_TPSA>
126

> <PUBCHEM_MONOISOTOPIC_WEIGHT>
408.178418

> <PUBCHEM_TOTAL_CHARGE>
0

> <PUBCHEM_HEAVY_ATOM_COUNT>
29

> <PUBCHEM_ATOM_DEF_STEREO_COUNT>
10

> <PUBCHEM_ATOM_UDEF_STEREO_COUNT>
0

> <PUBCHEM_BOND_DEF_STEREO_COUNT>
0

> <PUBCHEM_BOND_UDEF_STEREO_COUNT>
0

> <PUBCHEM_ISOTOPIC_ATOM_COUNT>
0

> <PUBCHEM_COMPONENT_COUNT>
1

> <PUBCHEM_CACTVS_TAUTO_COUNT>
1

> <PUBCHEM_COORDINATE_TYPE>
1
5
255

> <PUBCHEM_BONDANNOTATIONS>
10  31  5
11  32  6
13  35  5
14  2  6
20  2  5
27  29  5
23  4  6
25  6  5
26  7  6
9  30  5

$$$$

