5359965
  -OEChem-07051213133D

 35 36  0     0  0  0  0  0  0999 V2000
    6.0430    2.2978    0.0188 Cl  0  0  0  0  0  0  0  0  0  0  0  0
   -5.9899    2.5157   -0.2460 Cl  0  0  0  0  0  0  0  0  0  0  0  0
   -0.1233   -0.5571    2.6706 S   0  0  0  0  0  0  0  0  0  0  0  0
   -0.0572   -0.9955    0.7678 P   0  0  0  0  0  0  0  0  0  0  0  0
    0.5864    0.1394   -0.1959 O   0  0  0  0  0  0  0  0  0  0  0  0
   -1.5154   -1.2699    0.1105 O   0  0  0  0  0  0  0  0  0  0  0  0
    0.8055   -2.3527    0.6134 N   0  0  0  0  0  0  0  0  0  0  0  0
    1.7194   -4.1910   -0.6083 N   0  0  0  0  0  0  0  0  0  0  0  0
    1.8585    0.6414   -0.1467 C   0  0  0  0  0  0  0  0  0  0  0  0
   -2.5586   -0.3874    0.0260 C   0  0  0  0  0  0  0  0  0  0  0  0
    2.7499    0.1700    0.8116 C   0  0  0  0  0  0  0  0  0  0  0  0
   -2.3022    0.9764   -0.0700 C   0  0  0  0  0  0  0  0  0  0  0  0
    2.2498    1.6203   -1.0546 C   0  0  0  0  0  0  0  0  0  0  0  0
   -3.8661   -0.8619    0.0382 C   0  0  0  0  0  0  0  0  0  0  0  0
    4.0462    0.6826    0.8626 C   0  0  0  0  0  0  0  0  0  0  0  0
   -3.3650    1.8756   -0.1547 C   0  0  0  0  0  0  0  0  0  0  0  0
    3.5460    2.1330   -1.0036 C   0  0  0  0  0  0  0  0  0  0  0  0
   -4.9290    0.0373   -0.0465 C   0  0  0  0  0  0  0  0  0  0  0  0
    0.9942   -3.0342   -0.4741 C   0  0  0  0  0  0  0  0  0  0  0  0
    4.4442    1.6643   -0.0449 C   0  0  0  0  0  0  0  0  0  0  0  0
   -4.6785    1.4062   -0.1429 C   0  0  0  0  0  0  0  0  0  0  0  0
    0.3423   -2.5104   -1.7313 C   0  0  0  0  0  0  0  0  0  0  0  0
    2.5099   -0.6096    1.5212 H   0  0  0  0  0  0  0  0  0  0  0  0
   -1.3058    1.3943   -0.0822 H   0  0  0  0  0  0  0  0  0  0  0  0
    1.5530    1.9882   -1.8024 H   0  0  0  0  0  0  0  0  0  0  0  0
   -4.0653   -1.9271    0.1136 H   0  0  0  0  0  0  0  0  0  0  0  0
    4.7380    0.3038    1.6106 H   0  0  0  0  0  0  0  0  0  0  0  0
   -3.1555    2.9397   -0.2289 H   0  0  0  0  0  0  0  0  0  0  0  0
    3.8420    2.8978   -1.7171 H   0  0  0  0  0  0  0  0  0  0  0  0
   -5.9473   -0.3430   -0.0359 H   0  0  0  0  0  0  0  0  0  0  0  0
    0.7030   -3.0748   -2.5986 H   0  0  0  0  0  0  0  0  0  0  0  0
    0.5825   -1.4662   -1.9227 H   0  0  0  0  0  0  0  0  0  0  0  0
   -0.7384   -2.6593   -1.6876 H   0  0  0  0  0  0  0  0  0  0  0  0
    1.8147   -4.6701   -1.4974 H   0  0  0  0  0  0  0  0  0  0  0  0
    2.1855   -4.6075    0.1905 H   0  0  0  0  0  0  0  0  0  0  0  0
  1 20  1  0  0  0  0
  2 21  1  0  0  0  0
  3  4  2  0  0  0  0
  4  5  1  0  0  0  0
  4  6  1  0  0  0  0
  4  7  1  0  0  0  0
  5  9  1  0  0  0  0
  6 10  1  0  0  0  0
  7 19  2  0  0  0  0
  8 19  1  0  0  0  0
  8 34  1  0  0  0  0
  8 35  1  0  0  0  0
  9 11  2  0  0  0  0
  9 13  1  0  0  0  0
 10 12  2  0  0  0  0
 10 14  1  0  0  0  0
 11 15  1  0  0  0  0
 11 23  1  0  0  0  0
 12 16  1  0  0  0  0
 12 24  1  0  0  0  0
 13 17  2  0  0  0  0
 13 25  1  0  0  0  0
 14 18  2  0  0  0  0
 14 26  1  0  0  0  0
 15 20  2  0  0  0  0
 15 27  1  0  0  0  0
 16 21  2  0  0  0  0
 16 28  1  0  0  0  0
 17 20  1  0  0  0  0
 17 29  1  0  0  0  0
 18 21  1  0  0  0  0
 18 30  1  0  0  0  0
 19 22  1  0  0  0  0
 22 31  1  0  0  0  0
 22 32  1  0  0  0  0
 22 33  1  0  0  0  0
M  END
> <PUBCHEM_COMPOUND_CID>
5359965

> <PUBCHEM_CONFORMER_RMSD>
0.8

> <PUBCHEM_CONFORMER_DIVERSEORDER>
1
22
9
16
10
21
28
11
4
12
26
14
27
25
17
19
15
23
7
5
24
6
18
2
13
3
20
8

> <PUBCHEM_MMFF94_PARTIAL_CHARGES>
32
1 -0.18
10 0.08
11 -0.15
12 -0.15
13 -0.15
14 -0.15
15 -0.15
16 -0.15
17 -0.15
18 -0.15
19 0.44
2 -0.18
20 0.18
21 0.18
22 0.06
23 0.15
24 0.15
25 0.15
26 0.15
27 0.15
28 0.15
29 0.15
3 -0.68
30 0.15
34 0.4
35 0.4
4 1.54
5 -0.35
6 -0.35
7 -0.77
8 -0.85
9 0.08

> <PUBCHEM_EFFECTIVE_ROTOR_COUNT>
5

> <PUBCHEM_PHARMACOPHORE_FEATURES>
4
1 8 donor
3 7 8 19 cation
6 10 12 14 16 18 21 rings
6 9 11 13 15 17 20 rings

> <PUBCHEM_HEAVY_ATOM_COUNT>
22

> <PUBCHEM_ATOM_DEF_STEREO_COUNT>
0

> <PUBCHEM_ATOM_UDEF_STEREO_COUNT>
0

> <PUBCHEM_BOND_DEF_STEREO_COUNT>
1

> <PUBCHEM_BOND_UDEF_STEREO_COUNT>
0

> <PUBCHEM_ISOTOPIC_ATOM_COUNT>
0

> <PUBCHEM_COMPONENT_COUNT>
1

> <PUBCHEM_CACTVS_TAUTO_COUNT>
3

> <PUBCHEM_CONFORMER_ID>
0051C95D00000001

> <PUBCHEM_MMFF94_ENERGY>
59.0432

> <PUBCHEM_FEATURE_SELFOVERLAP>
20.297

> <PUBCHEM_SHAPE_FINGERPRINT>
12236239 1 18130793321958889432
12293681 160 17748820791983017040
12422481 6 17979668884895323762
12500047 106 18189898600676204864
12592029 89 18410289211898885482
12633257 1 16200154227543680588
12788726 201 17551502246257972142
12895837 130 17981885242792336676
13149001 5 16952258599208559034
133893 2 17972571519889238522
13544653 18 7781522546117716268
13590594 115 17546431740653306088
14713325 29 18196650687996635155
15163728 17 18269816688544175900
15238133 3 17703504407718614132
15439362 3 18338234980856955086
15502722 9 18336260245020236079
167882 2 18409725192968157654
17980427 26 18129397045181586823
18222031 100 11743843534152381041
20197701 30 18333732395031777102
20554085 129 18042141936920324368
21033648 29 18189063001614450600
212916 134 18189631470637140112
21452121 103 18270401727968145749
21524375 3 18201441328777416384
23366157 5 18200028593791047563
23402539 116 18263085426914593964
23419403 2 17771922789745366974
23559900 14 18192715772604899951
23598288 3 17697867086847968298
244849 19 17843657058587229859
2838139 119 18339928112652296892
298252 57 18338800005247938698
3411729 13 18342741865902036099
3633792 109 18114176480512144448
46194498 28 18118403084560434871
474 4 17988925574151666257
5104073 3 18200304563616282385
5385378 56 18337102470773787560
7364860 26 18263646336679389119
77188 2 17617941778212331334
81539 233 18409730676981758431
9981440 41 18341608175067190603

> <PUBCHEM_SHAPE_MULTIPOLES>
442.49
11.49
3.7
1.39
3.76
3.24
0.73
-13
-0.81
-1.6
-1.43
-0.53
0.59
0.14

> <PUBCHEM_SHAPE_SELFOVERLAP>
889.587

> <PUBCHEM_SHAPE_VOLUME>
262.3

> <PUBCHEM_COORDINATE_TYPE>
2
5
10

$$$$

