39722
  -OEChem-07051213123D

 35 35  0     0  0  0  0  0  0999 V2000
   -0.8116   -4.0880    1.0144 Cl  0  0  0  0  0  0  0  0  0  0  0  0
    3.7075    1.1136   -0.6323 O   0  0  0  0  0  0  0  0  0  0  0  0
    1.2648   -2.6070   -0.2266 O   0  0  0  0  0  0  0  0  0  0  0  0
    0.3458   -0.4497   -0.3862 N   0  0  0  0  0  0  0  0  0  0  0  0
   -0.7574    0.3743   -0.1380 C   0  0  0  0  0  0  0  0  0  0  0  0
    1.5776    0.1003   -1.0295 C   0  0  0  0  0  0  0  0  0  0  0  0
   -0.8598    1.0562    1.0745 C   0  0  0  0  0  0  0  0  0  0  0  0
   -1.7551    0.5134   -1.1027 C   0  0  0  0  0  0  0  0  0  0  0  0
    2.5469    0.6172    0.0215 C   0  0  0  0  0  0  0  0  0  0  0  0
    0.3160   -1.8452   -0.0263 C   0  0  0  0  0  0  0  0  0  0  0  0
   -1.9600    1.8772    1.3224 C   0  0  0  0  0  0  0  0  0  0  0  0
   -2.8553    1.3344   -0.8550 C   0  0  0  0  0  0  0  0  0  0  0  0
    0.1927    0.9277    2.1278 C   0  0  0  0  0  0  0  0  0  0  0  0
   -1.6738   -0.2038   -2.4114 C   0  0  0  0  0  0  0  0  0  0  0  0
   -2.9577    2.0163    0.3576 C   0  0  0  0  0  0  0  0  0  0  0  0
   -0.9684   -2.3699    0.5921 C   0  0  0  0  0  0  0  0  0  0  0  0
    4.6481    1.6329    0.2979 C   0  0  0  0  0  0  0  0  0  0  0  0
    1.2953    0.8986   -1.7260 H   0  0  0  0  0  0  0  0  0  0  0  0
    2.0535   -0.6868   -1.6253 H   0  0  0  0  0  0  0  0  0  0  0  0
    2.8240   -0.1740    0.7270 H   0  0  0  0  0  0  0  0  0  0  0  0
    2.1066    1.4561    0.5581 H   0  0  0  0  0  0  0  0  0  0  0  0
   -2.0507    2.4153    2.2623 H   0  0  0  0  0  0  0  0  0  0  0  0
   -3.6419    1.4547   -1.5954 H   0  0  0  0  0  0  0  0  0  0  0  0
    0.8161    0.0366    2.0374 H   0  0  0  0  0  0  0  0  0  0  0  0
    0.8158    1.8256    2.1624 H   0  0  0  0  0  0  0  0  0  0  0  0
   -0.2905    0.8352    3.1089 H   0  0  0  0  0  0  0  0  0  0  0  0
   -0.7956    0.1255   -2.9759 H   0  0  0  0  0  0  0  0  0  0  0  0
   -1.6248   -1.2870   -2.2671 H   0  0  0  0  0  0  0  0  0  0  0  0
   -2.5513   -0.0049   -3.0368 H   0  0  0  0  0  0  0  0  0  0  0  0
   -3.8140    2.6559    0.5503 H   0  0  0  0  0  0  0  0  0  0  0  0
   -1.1956   -1.8310    1.5144 H   0  0  0  0  0  0  0  0  0  0  0  0
   -1.7990   -2.2812   -0.1102 H   0  0  0  0  0  0  0  0  0  0  0  0
    4.9754    0.8508    0.9897 H   0  0  0  0  0  0  0  0  0  0  0  0
    4.2170    2.4715    0.8533 H   0  0  0  0  0  0  0  0  0  0  0  0
    5.5181    1.9935   -0.2575 H   0  0  0  0  0  0  0  0  0  0  0  0
  1 16  1  0  0  0  0
  2  9  1  0  0  0  0
  2 17  1  0  0  0  0
  3 10  2  0  0  0  0
  4  5  1  0  0  0  0
  4  6  1  0  0  0  0
  4 10  1  0  0  0  0
  5  7  2  0  0  0  0
  5  8  1  0  0  0  0
  6  9  1  0  0  0  0
  6 18  1  0  0  0  0
  6 19  1  0  0  0  0
  7 11  1  0  0  0  0
  7 13  1  0  0  0  0
  8 12  2  0  0  0  0
  8 14  1  0  0  0  0
  9 20  1  0  0  0  0
  9 21  1  0  0  0  0
 10 16  1  0  0  0  0
 11 15  2  0  0  0  0
 11 22  1  0  0  0  0
 12 15  1  0  0  0  0
 12 23  1  0  0  0  0
 13 24  1  0  0  0  0
 13 25  1  0  0  0  0
 13 26  1  0  0  0  0
 14 27  1  0  0  0  0
 14 28  1  0  0  0  0
 14 29  1  0  0  0  0
 15 30  1  0  0  0  0
 16 31  1  0  0  0  0
 16 32  1  0  0  0  0
 17 33  1  0  0  0  0
 17 34  1  0  0  0  0
 17 35  1  0  0  0  0
M  END
> <PUBCHEM_COMPOUND_CID>
39722

> <PUBCHEM_CONFORMER_RMSD>
0.8

> <PUBCHEM_CONFORMER_DIVERSEORDER>
1
10
18
16
20
14
26
2
21
24
5
15
4
27
3
22
7
17
9
19
8
12
13
11
6
25
23

> <PUBCHEM_MMFF94_PARTIAL_CHARGES>
20
1 -0.29
10 0.57
11 -0.15
12 -0.15
13 0.14
14 0.14
15 -0.15
16 0.35
17 0.28
2 -0.56
22 0.15
23 0.15
3 -0.57
30 0.15
4 -0.48
5 0.12
6 0.3
7 -0.14
8 -0.14
9 0.28

> <PUBCHEM_EFFECTIVE_ROTOR_COUNT>
6

> <PUBCHEM_PHARMACOPHORE_FEATURES>
3
1 2 acceptor
1 3 acceptor
6 5 7 8 11 12 15 rings

> <PUBCHEM_HEAVY_ATOM_COUNT>
17

> <PUBCHEM_ATOM_DEF_STEREO_COUNT>
0

> <PUBCHEM_ATOM_UDEF_STEREO_COUNT>
0

> <PUBCHEM_BOND_DEF_STEREO_COUNT>
0

> <PUBCHEM_BOND_UDEF_STEREO_COUNT>
0

> <PUBCHEM_ISOTOPIC_ATOM_COUNT>
0

> <PUBCHEM_COMPONENT_COUNT>
1

> <PUBCHEM_CACTVS_TAUTO_COUNT>
1

> <PUBCHEM_CONFORMER_ID>
00009B2A00000001

> <PUBCHEM_MMFF94_ENERGY>
69.6405

> <PUBCHEM_FEATURE_SELFOVERLAP>
15.223

> <PUBCHEM_SHAPE_FINGERPRINT>
121448 382 18336559234757106405
12423570 1 8994730591250690309
13583140 156 17258177171515754185
13898156 1 17317618912958275221
14787075 74 18187643549277020281
14817 1 12801997358720425607
16945 1 18125413372766816903
1813 80 10015576268169748968
19765921 60 18261114126903667721
20510252 161 18121213178493301730
20600515 1 17329401979910853910
20645476 183 18410866438355045760
21330990 113 18121762963966052243
21524375 3 18187925148586366428
23419403 2 17470174656668902763
23598291 2 17683522106153184093
2748010 2 18055885887996661883
394222 165 17826785142816149961
4340502 62 18340195389046986041
474 4 18264211481656146992
576247 118 17473268677867760907
81228 2 17983272864508924170
9981440 41 17823152155030244042

> <PUBCHEM_SHAPE_MULTIPOLES>
335
4.98
3.55
1.73
6.71
5.17
0.18
-4.83
0.73
-1.13
-1.59
-0.88
-0.31
0.05

> <PUBCHEM_SHAPE_SELFOVERLAP>
667.86

> <PUBCHEM_SHAPE_VOLUME>
200.4

> <PUBCHEM_COORDINATE_TYPE>
2
5
10

$$$$

