17396262
  -OEChem-06241222552D

 39 40  0     0  0  0  0  0  0999 V2000
    6.3871   -3.3184    0.0000 S   0  0  0  0  0  0  0  0  0  0  0  0
    2.8660    1.7694    0.0000 O   0  0  0  0  0  0  0  0  0  0  0  0
    5.4641    3.2694    0.0000 O   0  0  0  0  0  0  0  0  0  0  0  0
    8.0622   -1.2306    0.0000 O   0  0  0  0  0  0  0  0  0  0  0  0
    3.7320    3.2694    0.0000 O   0  0  0  0  0  0  0  0  0  0  0  0
    6.3301   -1.2306    0.0000 N   0  0  0  0  0  0  0  0  0  0  0  0
    5.4641    0.2694    0.0000 C   0  0  0  0  0  0  0  0  0  0  0  0
    6.3301   -0.2306    0.0000 C   0  0  0  0  0  0  0  0  0  0  0  0
    5.4641    1.2694    0.0000 C   0  0  0  0  0  0  0  0  0  0  0  0
    4.5981    1.7694    0.0000 C   0  0  0  0  0  0  0  0  0  0  0  0
    4.5981   -0.2306    0.0000 C   0  0  0  0  0  0  0  0  0  0  0  0
    3.7320    1.2694    0.0000 C   0  0  0  0  0  0  0  0  0  0  0  0
    3.7320    0.2694    0.0000 C   0  0  0  0  0  0  0  0  0  0  0  0
    7.1962   -2.7306    0.0000 C   0  0  0  0  0  0  0  0  0  0  0  0
    7.1962   -1.7306    0.0000 C   0  0  0  0  0  0  0  0  0  0  0  0
    8.0052   -3.3184    0.0000 C   0  0  0  0  0  0  0  0  0  0  0  0
    7.6962   -4.2694    0.0000 C   0  0  0  0  0  0  0  0  0  0  0  0
    4.5981    2.7694    0.0000 C   0  0  0  0  0  0  0  0  0  0  0  0
    8.9562   -3.0094    0.0000 C   0  0  0  0  0  0  0  0  0  0  0  0
    6.6962   -4.2694    0.0000 C   0  0  0  0  0  0  0  0  0  0  0  0
    2.0000    1.2694    0.0000 C   0  0  0  0  0  0  0  0  0  0  0  0
    5.4641    4.2694    0.0000 C   0  0  0  0  0  0  0  0  0  0  0  0
    6.9407   -0.3382    0.0000 H   0  0  0  0  0  0  0  0  0  0  0  0
    6.5422    0.3520    0.0000 H   0  0  0  0  0  0  0  0  0  0  0  0
    6.0010    1.5794    0.0000 H   0  0  0  0  0  0  0  0  0  0  0  0
    4.5981   -0.8506    0.0000 H   0  0  0  0  0  0  0  0  0  0  0  0
    5.7932   -1.5406    0.0000 H   0  0  0  0  0  0  0  0  0  0  0  0
    3.1951   -0.0406    0.0000 H   0  0  0  0  0  0  0  0  0  0  0  0
    8.0606   -4.7710    0.0000 H   0  0  0  0  0  0  0  0  0  0  0  0
    9.1478   -3.5990    0.0000 H   0  0  0  0  0  0  0  0  0  0  0  0
    9.5459   -2.8178    0.0000 H   0  0  0  0  0  0  0  0  0  0  0  0
    8.7646   -2.4197    0.0000 H   0  0  0  0  0  0  0  0  0  0  0  0
    6.3317   -4.7710    0.0000 H   0  0  0  0  0  0  0  0  0  0  0  0
    1.6900    1.8064    0.0000 H   0  0  0  0  0  0  0  0  0  0  0  0
    1.4631    0.9594    0.0000 H   0  0  0  0  0  0  0  0  0  0  0  0
    2.3100    0.7325    0.0000 H   0  0  0  0  0  0  0  0  0  0  0  0
    6.0841    4.2694    0.0000 H   0  0  0  0  0  0  0  0  0  0  0  0
    5.4641    4.8894    0.0000 H   0  0  0  0  0  0  0  0  0  0  0  0
    4.8441    4.2694    0.0000 H   0  0  0  0  0  0  0  0  0  0  0  0
  1 14  1  0  0  0  0
  1 20  1  0  0  0  0
  2 12  1  0  0  0  0
  2 21  1  0  0  0  0
  3 18  1  0  0  0  0
  3 22  1  0  0  0  0
  4 15  2  0  0  0  0
  5 18  2  0  0  0  0
  6  8  1  0  0  0  0
  6 15  1  0  0  0  0
  6 27  1  0  0  0  0
  7  8  1  0  0  0  0
  7  9  2  0  0  0  0
  7 11  1  0  0  0  0
  8 23  1  0  0  0  0
  8 24  1  0  0  0  0
  9 10  1  0  0  0  0
  9 25  1  0  0  0  0
 10 12  2  0  0  0  0
 10 18  1  0  0  0  0
 11 13  2  0  0  0  0
 11 26  1  0  0  0  0
 12 13  1  0  0  0  0
 13 28  1  0  0  0  0
 14 15  1  0  0  0  0
 14 16  2  0  0  0  0
 16 17  1  0  0  0  0
 16 19  1  0  0  0  0
 17 20  2  0  0  0  0
 17 29  1  0  0  0  0
 19 30  1  0  0  0  0
 19 31  1  0  0  0  0
 19 32  1  0  0  0  0
 20 33  1  0  0  0  0
 21 34  1  0  0  0  0
 21 35  1  0  0  0  0
 21 36  1  0  0  0  0
 22 37  1  0  0  0  0
 22 38  1  0  0  0  0
 22 39  1  0  0  0  0
M  END
> <PUBCHEM_COMPOUND_CID>
17396262

> <PUBCHEM_COMPOUND_CANONICALIZED>
1

> <PUBCHEM_CACTVS_COMPLEXITY>
404

> <PUBCHEM_CACTVS_HBOND_ACCEPTOR>
5

> <PUBCHEM_CACTVS_HBOND_DONOR>
1

> <PUBCHEM_CACTVS_ROTATABLE_BOND>
6

> <PUBCHEM_CACTVS_SUBSKEYS>
AAADceB6OABAAAAAAAAAAAAAAAAAASAAAAAwAAAAAAAAAAABwAAAHgQQAAAADATF2AayD4LABAiMAiHSGACDCIAkKBBIiJkODMgMJzaktRuEMWhl5hGoqYeY2WKOIAACAAAIAABAAAQAABAAAAAAAAAAAA==

> <PUBCHEM_IUPAC_OPENEYE_NAME>
methyl 2-methoxy-5-[[(3-methylthiophene-2-carbonyl)amino]methyl]benzoate

> <PUBCHEM_IUPAC_CAS_NAME>
2-methoxy-5-[[[(3-methyl-2-thiophenyl)-oxomethyl]amino]methyl]benzoic acid methyl ester

> <PUBCHEM_IUPAC_NAME>
methyl 2-methoxy-5-[[(3-methylthiophene-2-carbonyl)amino]methyl]benzoate

> <PUBCHEM_IUPAC_SYSTEMATIC_NAME>
methyl 2-methoxy-5-[[(3-methylthiophen-2-yl)carbonylamino]methyl]benzoate

> <PUBCHEM_IUPAC_TRADITIONAL_NAME>
2-methoxy-5-[[(3-methylthiophene-2-carbonyl)amino]methyl]benzoic acid methyl ester

> <PUBCHEM_IUPAC_INCHI>
InChI=1S/C16H17NO4S/c1-10-6-7-22-14(10)15(18)17-9-11-4-5-13(20-2)12(8-11)16(19)21-3/h4-8H,9H2,1-3H3,(H,17,18)

> <PUBCHEM_IUPAC_INCHIKEY>
HFDNLGHGVIQNJX-UHFFFAOYSA-N

> <PUBCHEM_XLOGP3_AA>
2.9

> <PUBCHEM_EXACT_MASS>
319.087829

> <PUBCHEM_MOLECULAR_FORMULA>
C16H17NO4S

> <PUBCHEM_MOLECULAR_WEIGHT>
319.37548

> <PUBCHEM_OPENEYE_CAN_SMILES>
CC1=C(SC=C1)C(=O)NCC2=CC(=C(C=C2)OC)C(=O)OC

> <PUBCHEM_OPENEYE_ISO_SMILES>
CC1=C(SC=C1)C(=O)NCC2=CC(=C(C=C2)OC)C(=O)OC

> <PUBCHEM_CACTVS_TPSA>
92.9

> <PUBCHEM_MONOISOTOPIC_WEIGHT>
319.087829

> <PUBCHEM_TOTAL_CHARGE>
0

> <PUBCHEM_HEAVY_ATOM_COUNT>
22

> <PUBCHEM_ATOM_DEF_STEREO_COUNT>
0

> <PUBCHEM_ATOM_UDEF_STEREO_COUNT>
0

> <PUBCHEM_BOND_DEF_STEREO_COUNT>
0

> <PUBCHEM_BOND_UDEF_STEREO_COUNT>
0

> <PUBCHEM_ISOTOPIC_ATOM_COUNT>
0

> <PUBCHEM_COMPONENT_COUNT>
1

> <PUBCHEM_CACTVS_TAUTO_COUNT>
2

> <PUBCHEM_COORDINATE_TYPE>
1
5
255

> <PUBCHEM_BONDANNOTATIONS>
1  14  8
1  20  8
10  12  8
11  13  8
12  13  8
14  16  8
16  17  8
17  20  8
7  11  8
7  9  8
9  10  8

$$$$

