5281411
  -OEChem-07051212572D

 92102  0     1  0  0  0  0  0999 V2000
    6.0207   -1.9892    0.0000 O   0  0  0  0  0  0  0  0  0  0  0  0
   13.6811    2.2130    0.0000 O   0  0  0  0  0  0  0  0  0  0  0  0
    2.9088    0.2037    0.0000 N   0  3  1  0  0  0  0  0  0  0  0  0
   12.6270   -1.9182    0.0000 N   0  3  1  0  0  0  0  0  0  0  0  0
    6.8182    0.2950    0.0000 N   0  0  0  0  0  0  0  0  0  0  0  0
    7.6385   -2.4266    0.0000 N   0  0  0  0  0  0  0  0  0  0  0  0
    5.0396    0.2986    0.0000 C   0  0  1  0  0  0  0  0  0  0  0  0
    9.3872   -2.1167    0.0000 C   0  0  1  0  0  0  0  0  0  0  0  0
    3.9888   -0.1596    0.0000 C   0  0  2  0  0  0  0  0  0  0  0  0
   10.9223   -0.8736    0.0000 C   0  0  2  0  0  0  0  0  0  0  0  0
    8.4736   -1.7100    0.0000 C   0  0  2  0  0  0  0  0  0  0  0  0
    5.9564   -0.3894    0.0000 C   0  0  2  0  0  0  0  0  0  0  0  0
    4.3745    1.2239    0.0000 C   0  0  0  0  0  0  0  0  0  0  0  0
    8.9548   -2.9612    0.0000 C   0  0  0  0  0  0  0  0  0  0  0  0
    3.8690   -1.2996    0.0000 C   0  0  0  0  0  0  0  0  0  0  0  0
   10.4445    1.0750    0.0000 C   0  0  0  0  0  0  0  0  0  0  0  0
    4.8016   -1.9662    0.0000 C   0  0  2  0  0  0  0  0  0  0  0  0
   11.1812    0.0923    0.0000 C   0  0  2  0  0  0  0  0  0  0  0  0
    8.0746   -3.3154    0.0000 C   0  0  0  0  0  0  0  0  0  0  0  0
    3.1035    1.1112    0.0000 C   0  0  0  0  0  0  0  0  0  0  0  0
    5.8414   -1.4838    0.0000 C   0  0  0  0  0  0  0  0  0  0  0  0
    8.5782   -0.7155    0.0000 C   0  0  0  0  0  0  0  0  0  0  0  0
    5.3825    1.3407    0.0000 C   0  0  0  0  0  0  0  0  0  0  0  0
    8.8450   -1.2733    0.0000 C   0  0  0  0  0  0  0  0  0  0  0  0
    3.7883   -0.2752    0.0000 C   0  0  0  0  0  0  0  0  0  0  0  0
   13.4042   -1.2889    0.0000 C   0  0  0  0  0  0  0  0  0  0  0  0
    4.4466   -1.0298    0.0000 C   0  0  0  0  0  0  0  0  0  0  0  0
   13.0458   -0.3553    0.0000 C   0  0  0  0  0  0  0  0  0  0  0  0
    6.5421   -2.3324    0.0000 C   0  0  0  0  0  0  0  0  0  0  0  0
    7.9103    0.1592    0.0000 C   0  0  0  0  0  0  0  0  0  0  0  0
    7.8578   -1.4483    0.0000 C   0  0  0  0  0  0  0  0  0  0  0  0
    6.4795    1.3384    0.0000 C   0  0  0  0  0  0  0  0  0  0  0  0
   12.6794   -2.9168    0.0000 C   0  0  0  0  0  0  0  0  0  0  0  0
    2.0000   -0.2135    0.0000 C   0  0  0  0  0  0  0  0  0  0  0  0
    4.7980    2.3225    0.0000 C   0  0  0  0  0  0  0  0  0  0  0  0
    9.6548   -0.6137    0.0000 C   0  0  0  0  0  0  0  0  0  0  0  0
   13.5905    0.4834    0.0000 C   0  0  0  0  0  0  0  0  0  0  0  0
    5.3043   -0.5158    0.0000 C   0  0  0  0  0  0  0  0  0  0  0  0
    7.0681    2.3179    0.0000 C   0  0  0  0  0  0  0  0  0  0  0  0
    7.6597   -0.4229    0.0000 C   0  0  0  0  0  0  0  0  0  0  0  0
    5.3637    3.3154    0.0000 C   0  0  0  0  0  0  0  0  0  0  0  0
    9.4655    0.2437    0.0000 C   0  0  0  0  0  0  0  0  0  0  0  0
    6.5064    3.3131    0.0000 C   0  0  0  0  0  0  0  0  0  0  0  0
    8.4689    0.4276    0.0000 C   0  0  0  0  0  0  0  0  0  0  0  0
   13.1365    1.3744    0.0000 C   0  0  0  0  0  0  0  0  0  0  0  0
    6.1784   -1.0017    0.0000 C   0  0  0  0  0  0  0  0  0  0  0  0
    3.6492    0.6196    0.0000 H   0  0  0  0  0  0  0  0  0  0  0  0
   11.5829   -0.3387    0.0000 H   0  0  0  0  0  0  0  0  0  0  0  0
    5.5117   -1.1138    0.0000 H   0  0  0  0  0  0  0  0  0  0  0  0
    8.1279   -2.4865    0.0000 H   0  0  0  0  0  0  0  0  0  0  0  0
    9.0150   -3.5782    0.0000 H   0  0  0  0  0  0  0  0  0  0  0  0
    9.5638   -3.0770    0.0000 H   0  0  0  0  0  0  0  0  0  0  0  0
    4.9342    1.4907    0.0000 H   0  0  0  0  0  0  0  0  0  0  0  0
    4.2111    1.8220    0.0000 H   0  0  0  0  0  0  0  0  0  0  0  0
    3.2726   -1.1302    0.0000 H   0  0  0  0  0  0  0  0  0  0  0  0
    3.6001   -1.8582    0.0000 H   0  0  0  0  0  0  0  0  0  0  0  0
   10.7624    1.6073    0.0000 H   0  0  0  0  0  0  0  0  0  0  0  0
    9.8314    1.1669    0.0000 H   0  0  0  0  0  0  0  0  0  0  0  0
   11.4012    0.9134    0.0000 H   0  0  0  0  0  0  0  0  0  0  0  0
    4.4807   -2.7533    0.0000 H   0  0  0  0  0  0  0  0  0  0  0  0
    7.5976   -2.9194    0.0000 H   0  0  0  0  0  0  0  0  0  0  0  0
    7.9530   -3.9233    0.0000 H   0  0  0  0  0  0  0  0  0  0  0  0
    3.1106    1.7311    0.0000 H   0  0  0  0  0  0  0  0  0  0  0  0
    2.4873    1.1801    0.0000 H   0  0  0  0  0  0  0  0  0  0  0  0
   13.7419   -1.8089    0.0000 H   0  0  0  0  0  0  0  0  0  0  0  0
   13.9566   -1.0074    0.0000 H   0  0  0  0  0  0  0  0  0  0  0  0
    4.3783   -0.0848    0.0000 H   0  0  0  0  0  0  0  0  0  0  0  0
    3.4003   -0.7588    0.0000 H   0  0  0  0  0  0  0  0  0  0  0  0
    7.9088    0.7792    0.0000 H   0  0  0  0  0  0  0  0  0  0  0  0
    6.2540   -2.8815    0.0000 H   0  0  0  0  0  0  0  0  0  0  0  0
   12.0602   -2.9493    0.0000 H   0  0  0  0  0  0  0  0  0  0  0  0
   12.7118   -3.5360    0.0000 H   0  0  0  0  0  0  0  0  0  0  0  0
   13.2985   -2.8844    0.0000 H   0  0  0  0  0  0  0  0  0  0  0  0
    1.7413    0.3499    0.0000 H   0  0  0  0  0  0  0  0  0  0  0  0
    1.4366   -0.4722    0.0000 H   0  0  0  0  0  0  0  0  0  0  0  0
    2.2587   -0.7770    0.0000 H   0  0  0  0  0  0  0  0  0  0  0  0
    4.1780    2.3166    0.0000 H   0  0  0  0  0  0  0  0  0  0  0  0
   10.2403   -0.8175    0.0000 H   0  0  0  0  0  0  0  0  0  0  0  0
   14.2096    0.4509    0.0000 H   0  0  0  0  0  0  0  0  0  0  0  0
    5.5069    0.0702    0.0000 H   0  0  0  0  0  0  0  0  0  0  0  0
    7.6880    2.3095    0.0000 H   0  0  0  0  0  0  0  0  0  0  0  0
    7.0647   -0.2486    0.0000 H   0  0  0  0  0  0  0  0  0  0  0  0
    5.0527    3.8517    0.0000 H   0  0  0  0  0  0  0  0  0  0  0  0
    9.8962    0.6896    0.0000 H   0  0  0  0  0  0  0  0  0  0  0  0
    6.8195    3.8482    0.0000 H   0  0  0  0  0  0  0  0  0  0  0  0
    8.2774    1.0174    0.0000 H   0  0  0  0  0  0  0  0  0  0  0  0
    6.7751   -1.1698    0.0000 H   0  0  0  0  0  0  0  0  0  0  0  0
    6.4147   -0.4285    0.0000 H   0  0  0  0  0  0  0  0  0  0  0  0
   12.6830    1.7972    0.0000 H   0  0  0  0  0  0  0  0  0  0  0  0
   12.6413    1.0012    0.0000 H   0  0  0  0  0  0  0  0  0  0  0  0
   13.3996    2.7655    0.0000 H   0  0  0  0  0  0  0  0  0  0  0  0
    5.4417   -2.2107    0.0000 H   0  0  0  0  0  0  0  0  0  0  0  0
  1 46  1  0  0  0  0
  1 92  1  0  0  0  0
  2 45  1  0  0  0  0
  2 91  1  0  0  0  0
  3  9  1  0  0  0  0
  3 20  1  0  0  0  0
  3 25  1  0  0  0  0
  3 34  1  1  0  0  0
  4 10  1  0  0  0  0
  4 19  1  0  0  0  0
  4 26  1  0  0  0  0
  4 33  1  1  0  0  0
  5 12  1  0  0  0  0
  5 30  1  0  0  0  0
  5 32  1  0  0  0  0
  6 11  1  0  0  0  0
  6 29  1  0  0  0  0
  6 31  1  0  0  0  0
  7  9  1  0  0  0  0
  7 12  1  0  0  0  0
  7 13  1  0  0  0  0
  7 23  1  1  0  0  0
  8 10  1  0  0  0  0
  8 11  1  0  0  0  0
  8 14  1  0  0  0  0
  8 24  1  1  0  0  0
  9 15  1  0  0  0  0
  9 47  1  1  0  0  0
 10 16  1  0  0  0  0
 10 48  1  1  0  0  0
 11 22  1  0  0  0  0
 11 50  1  6  0  0  0
 12 21  1  0  0  0  0
 12 49  1  6  0  0  0
 13 20  1  0  0  0  0
 13 53  1  0  0  0  0
 13 54  1  0  0  0  0
 14 19  1  0  0  0  0
 14 51  1  0  0  0  0
 14 52  1  0  0  0  0
 15 17  1  0  0  0  0
 15 55  1  0  0  0  0
 15 56  1  0  0  0  0
 16 18  1  0  0  0  0
 16 57  1  0  0  0  0
 16 58  1  0  0  0  0
 17 21  1  0  0  0  0
 17 27  1  0  0  0  0
 17 60  1  6  0  0  0
 18 22  1  0  0  0  0
 18 28  1  0  0  0  0
 18 59  1  6  0  0  0
 19 61  1  0  0  0  0
 19 62  1  0  0  0  0
 20 63  1  0  0  0  0
 20 64  1  0  0  0  0
 21 29  2  0  0  0  0
 22 30  2  0  0  0  0
 23 32  1  0  0  0  0
 23 35  2  0  0  0  0
 24 31  1  0  0  0  0
 24 36  2  0  0  0  0
 25 27  1  0  0  0  0
 25 67  1  0  0  0  0
 25 68  1  0  0  0  0
 26 28  1  0  0  0  0
 26 65  1  0  0  0  0
 26 66  1  0  0  0  0
 27 38  2  0  0  0  0
 28 37  2  0  0  0  0
 29 70  1  0  0  0  0
 30 69  1  0  0  0  0
 31 40  2  0  0  0  0
 32 39  2  0  0  0  0
 33 71  1  0  0  0  0
 33 72  1  0  0  0  0
 33 73  1  0  0  0  0
 34 74  1  0  0  0  0
 34 75  1  0  0  0  0
 34 76  1  0  0  0  0
 35 41  1  0  0  0  0
 35 77  1  0  0  0  0
 36 42  1  0  0  0  0
 36 78  1  0  0  0  0
 37 45  1  0  0  0  0
 37 79  1  0  0  0  0
 38 46  1  0  0  0  0
 38 80  1  0  0  0  0
 39 43  1  0  0  0  0
 39 81  1  0  0  0  0
 40 44  1  0  0  0  0
 40 82  1  0  0  0  0
 41 43  2  0  0  0  0
 41 83  1  0  0  0  0
 42 44  2  0  0  0  0
 42 84  1  0  0  0  0
 43 85  1  0  0  0  0
 44 86  1  0  0  0  0
 45 89  1  0  0  0  0
 45 90  1  0  0  0  0
 46 87  1  0  0  0  0
 46 88  1  0  0  0  0
M  CHG  2   3   1   4   1
M  END
> <PUBCHEM_COMPOUND_CID>
5281411

> <PUBCHEM_COMPOUND_CANONICALIZED>
1

> <PUBCHEM_CACTVS_COMPLEXITY>
1390

> <PUBCHEM_CACTVS_HBOND_ACCEPTOR>
4

> <PUBCHEM_CACTVS_HBOND_DONOR>
2

> <PUBCHEM_CACTVS_ROTATABLE_BOND>
2

> <PUBCHEM_CACTVS_SUBSKEYS>
AAADcfB/sAAAAAAAAAAAAAAAAAAAAWLFiwA8eMGCAAAWLFgBQAAAHgAACAAADyjhmAYywIMAAgCAAiRGQACCAAAhAgAIiAAIZIgINCLA0ZGEMAhggADI2AcQgMAPgAAAAAACAACAAACACAQAAAAAAAAAAA==

> <PUBCHEM_IUPAC_INCHI>
InChI=1S/C40H46N4O2/c1-43-15-13-39-31-7-3-5-9-33(31)41-22-30-28-20-36-40(14-16-44(36,2)24-26(28)12-18-46)32-8-4-6-10-34(32)42(38(30)40)21-29(37(39)41)27(19-35(39)43)25(23-43)11-17-45/h3-12,21-22,27-28,35-38,45-46H,13-20,23-24H2,1-2H3/q+2/b25-11-,26-12-,29-21-,30-22-/t27-,28-,35-,36-,37-,38-,39+,40+,43-,44-/m0/s1

> <PUBCHEM_IUPAC_INCHIKEY>
IIYHWTVUYIYKKG-QQRSFBQTSA-N

> <PUBCHEM_XLOGP3_AA>
1.8

> <PUBCHEM_EXACT_MASS>
614.362077

> <PUBCHEM_MOLECULAR_FORMULA>
C40H46N4O2+2

> <PUBCHEM_MOLECULAR_WEIGHT>
614.81884

> <PUBCHEM_OPENEYE_CAN_SMILES>
C[N+]12CCC34C1CC(C(=CCO)C2)C5=CN6C7C(=CN(C53)C8=CC=CC=C48)C9CC1C7(CC[N+]1(CC9=CCO)C)C1=CC=CC=C16

> <PUBCHEM_OPENEYE_ISO_SMILES>
C[N@@+]12[C@@H]3[C@]4(C5=CC=CC=C5N/6[C@H]4/C(=C\N7[C@H]8/C(=C6)/[C@@H]9/C(=C\CO)/C[N@+]4([C@H]([C@]8(C5=CC=CC=C75)CC4)C9)C)/[C@@H](C3)/C(=C\CO)/C1)CC2

> <PUBCHEM_CACTVS_TPSA>
46.9

> <PUBCHEM_MONOISOTOPIC_WEIGHT>
614.362077

> <PUBCHEM_TOTAL_CHARGE>
2

> <PUBCHEM_HEAVY_ATOM_COUNT>
46

> <PUBCHEM_ATOM_DEF_STEREO_COUNT>
10

> <PUBCHEM_ATOM_UDEF_STEREO_COUNT>
0

> <PUBCHEM_BOND_DEF_STEREO_COUNT>
4

> <PUBCHEM_BOND_UDEF_STEREO_COUNT>
0

> <PUBCHEM_ISOTOPIC_ATOM_COUNT>
0

> <PUBCHEM_COMPONENT_COUNT>
1

> <PUBCHEM_CACTVS_TAUTO_COUNT>
1

> <PUBCHEM_COORDINATE_TYPE>
1
5
255

> <PUBCHEM_BONDANNOTATIONS>
10  48  5
11  50  6
12  49  6
17  60  6
18  59  6
23  32  8
23  35  8
24  31  8
24  36  8
3  34  5
31  40  8
32  39  8
35  41  8
36  42  8
39  43  8
4  33  5
40  44  8
41  43  8
42  44  8
7  23  5
8  24  5
9  47  5

$$$$

