656583
  -OEChem-07051213032D

 51 55  0     1  0  0  0  0  0999 V2000
    6.4305   -2.0268    0.0000 O   0  0  0  0  0  0  0  0  0  0  0  0
    4.2016    3.8093    0.0000 O   0  0  0  0  0  0  0  0  0  0  0  0
    4.6418   -4.0892    0.0000 O   0  0  0  0  0  0  0  0  0  0  0  0
    2.0000   -3.5617    0.0000 N   0  0  0  0  0  0  0  0  0  0  0  0
    4.6539   -1.0200    0.0000 C   0  0  1  0  0  0  0  0  0  0  0  0
    5.5200   -1.5200    0.0000 C   0  0  1  0  0  0  0  0  0  0  0  0
    4.6539   -0.0199    0.0000 C   0  0  2  0  0  0  0  0  0  0  0  0
    5.5200    0.4801    0.0000 C   0  0  2  0  0  0  0  0  0  0  0  0
    5.5360    1.5216    0.0000 C   0  0  1  0  0  0  0  0  0  0  0  0
    4.6380    2.0493    0.0000 C   0  0  2  0  0  0  0  0  0  0  0  0
    5.5360   -2.5614    0.0000 C   0  0  1  0  0  0  0  0  0  0  0  0
    6.3860   -1.0200    0.0000 C   0  0  0  0  0  0  0  0  0  0  0  0
    6.3860   -0.0199    0.0000 C   0  0  0  0  0  0  0  0  0  0  0  0
    3.7439    0.4869    0.0000 C   0  0  0  0  0  0  0  0  0  0  0  0
    3.7359    1.5285    0.0000 C   0  0  0  0  0  0  0  0  0  0  0  0
    3.7439   -1.5268    0.0000 C   0  0  0  0  0  0  0  0  0  0  0  0
    6.3090    2.2105    0.0000 C   0  0  0  0  0  0  0  0  0  0  0  0
    4.8637    3.0599    0.0000 C   0  0  2  0  0  0  0  0  0  0  0  0
    3.7879   -0.5199    0.0000 C   0  0  0  0  0  0  0  0  0  0  0  0
    5.8944    3.1593    0.0000 C   0  0  0  0  0  0  0  0  0  0  0  0
    4.6380   -3.0892    0.0000 C   0  0  0  0  0  0  0  0  0  0  0  0
    3.7758    2.5560    0.0000 C   0  0  0  0  0  0  0  0  0  0  0  0
    3.7359   -2.5684    0.0000 C   0  0  0  0  0  0  0  0  0  0  0  0
    2.8680   -3.0650    0.0000 C   0  0  0  0  0  0  0  0  0  0  0  0
    3.9211   -0.4506    0.0000 H   0  0  0  0  0  0  0  0  0  0  0  0
    6.2593    0.8994    0.0000 H   0  0  0  0  0  0  0  0  0  0  0  0
    6.3089    1.1679    0.0000 H   0  0  0  0  0  0  0  0  0  0  0  0
    5.9694   -3.2927    0.0000 H   0  0  0  0  0  0  0  0  0  0  0  0
    6.5980   -1.6026    0.0000 H   0  0  0  0  0  0  0  0  0  0  0  0
    6.9966   -0.9123    0.0000 H   0  0  0  0  0  0  0  0  0  0  0  0
    6.9966   -0.1276    0.0000 H   0  0  0  0  0  0  0  0  0  0  0  0
    6.5980    0.5627    0.0000 H   0  0  0  0  0  0  0  0  0  0  0  0
    3.1323    0.5883    0.0000 H   0  0  0  0  0  0  0  0  0  0  0  0
    3.5394   -0.0984    0.0000 H   0  0  0  0  0  0  0  0  0  0  0  0
    3.5223    2.1106    0.0000 H   0  0  0  0  0  0  0  0  0  0  0  0
    3.1259    1.4177    0.0000 H   0  0  0  0  0  0  0  0  0  0  0  0
    3.5394   -0.9415    0.0000 H   0  0  0  0  0  0  0  0  0  0  0  0
    3.1323   -1.6282    0.0000 H   0  0  0  0  0  0  0  0  0  0  0  0
    6.6706    1.7068    0.0000 H   0  0  0  0  0  0  0  0  0  0  0  0
    6.8479    2.5171    0.0000 H   0  0  0  0  0  0  0  0  0  0  0  0
    4.2632    2.9053    0.0000 H   0  0  0  0  0  0  0  0  0  0  0  0
    4.0979    0.0170    0.0000 H   0  0  0  0  0  0  0  0  0  0  0  0
    3.2510   -0.2099    0.0000 H   0  0  0  0  0  0  0  0  0  0  0  0
    3.4779   -1.0569    0.0000 H   0  0  0  0  0  0  0  0  0  0  0  0
    6.4854    3.3465    0.0000 H   0  0  0  0  0  0  0  0  0  0  0  0
    5.7703    3.7667    0.0000 H   0  0  0  0  0  0  0  0  0  0  0  0
    4.0900    3.0905    0.0000 H   0  0  0  0  0  0  0  0  0  0  0  0
    3.2413    2.8701    0.0000 H   0  0  0  0  0  0  0  0  0  0  0  0
    3.4617    2.0215    0.0000 H   0  0  0  0  0  0  0  0  0  0  0  0
    4.3987    4.3971    0.0000 H   0  0  0  0  0  0  0  0  0  0  0  0
    5.1800   -4.3971    0.0000 H   0  0  0  0  0  0  0  0  0  0  0  0
  6  1  1  6  0  0  0
  1 11  1  0  0  0  0
 18  2  1  1  0  0  0
  2 50  1  0  0  0  0
  3 21  1  0  0  0  0
  3 51  1  0  0  0  0
  4 24  3  0  0  0  0
  5  6  1  0  0  0  0
  5  7  1  0  0  0  0
  5 16  1  0  0  0  0
  5 19  1  1  0  0  0
  6 11  1  0  0  0  0
  6 12  1  0  0  0  0
  7  8  1  0  0  0  0
  7 14  1  0  0  0  0
  7 25  1  6  0  0  0
  8  9  1  0  0  0  0
  8 13  1  0  0  0  0
  8 26  1  1  0  0  0
  9 10  1  0  0  0  0
  9 17  1  0  0  0  0
  9 27  1  6  0  0  0
 10 15  1  0  0  0  0
 10 18  1  0  0  0  0
 10 22  1  1  0  0  0
 11 21  1  0  0  0  0
 11 28  1  1  0  0  0
 12 13  1  0  0  0  0
 12 29  1  0  0  0  0
 12 30  1  0  0  0  0
 13 31  1  0  0  0  0
 13 32  1  0  0  0  0
 14 15  1  0  0  0  0
 14 33  1  0  0  0  0
 14 34  1  0  0  0  0
 15 35  1  0  0  0  0
 15 36  1  0  0  0  0
 16 23  1  0  0  0  0
 16 37  1  0  0  0  0
 16 38  1  0  0  0  0
 17 20  1  0  0  0  0
 17 39  1  0  0  0  0
 17 40  1  0  0  0  0
 18 20  1  0  0  0  0
 18 41  1  0  0  0  0
 19 42  1  0  0  0  0
 19 43  1  0  0  0  0
 19 44  1  0  0  0  0
 20 45  1  0  0  0  0
 20 46  1  0  0  0  0
 21 23  2  0  0  0  0
 22 47  1  0  0  0  0
 22 48  1  0  0  0  0
 22 49  1  0  0  0  0
 23 24  1  0  0  0  0
M  END
> <PUBCHEM_COMPOUND_CID>
656583

> <PUBCHEM_COMPOUND_CANONICALIZED>
1

> <PUBCHEM_CACTVS_COMPLEXITY>
692

> <PUBCHEM_CACTVS_HBOND_ACCEPTOR>
4

> <PUBCHEM_CACTVS_HBOND_DONOR>
2

> <PUBCHEM_CACTVS_ROTATABLE_BOND>
0

> <PUBCHEM_CACTVS_SUBSKEYS>
AAADceB6MAAAAAAAAAAAAAAAEgAAAYAAAAAwYIAABAAAAGDAAAAAHgAACAAAD1ShgAICAAAABgCQBgBAAAAgAAAgIAAACAAAAAgBlAIAIAACUAAFwAALIAuAwPAPgAAAAAAAAADAAAYAADAAAIAADAAAAA==

> <PUBCHEM_IUPAC_INCHI>
InChI=1S/C20H27NO3/c1-18-7-6-14-12(13(18)3-4-15(18)22)5-8-20-17(24-20)16(23)11(10-21)9-19(14,20)2/h12-15,17,22-23H,3-9H2,1-2H3/t12-,13-,14-,15-,17+,18-,19+,20+/m0/s1

> <PUBCHEM_IUPAC_INCHIKEY>
KVJXBPDAXMEYOA-CXANFOAXSA-N

> <PUBCHEM_XLOGP3_AA>
2.9

> <PUBCHEM_EXACT_MASS>
329.199094

> <PUBCHEM_MOLECULAR_FORMULA>
C20H27NO3

> <PUBCHEM_MOLECULAR_WEIGHT>
329.43328

> <PUBCHEM_OPENEYE_CAN_SMILES>
CC12CCC3C(C1CCC2O)CCC45C3(CC(=C(C4O5)O)C#N)C

> <PUBCHEM_OPENEYE_ISO_SMILES>
C[C@]12CC[C@H]3[C@H]([C@@H]1CC[C@@H]2O)CC[C@]45[C@@]3(CC(=C([C@H]4O5)O)C#N)C

> <PUBCHEM_CACTVS_TPSA>
76.8

> <PUBCHEM_MONOISOTOPIC_WEIGHT>
329.199094

> <PUBCHEM_TOTAL_CHARGE>
0

> <PUBCHEM_HEAVY_ATOM_COUNT>
24

> <PUBCHEM_ATOM_DEF_STEREO_COUNT>
8

> <PUBCHEM_ATOM_UDEF_STEREO_COUNT>
0

> <PUBCHEM_BOND_DEF_STEREO_COUNT>
0

> <PUBCHEM_BOND_UDEF_STEREO_COUNT>
0

> <PUBCHEM_ISOTOPIC_ATOM_COUNT>
0

> <PUBCHEM_COMPONENT_COUNT>
1

> <PUBCHEM_CACTVS_TAUTO_COUNT>
3

> <PUBCHEM_COORDINATE_TYPE>
1
5
255

> <PUBCHEM_BONDANNOTATIONS>
6  1  6
10  22  5
11  28  5
18  2  5
5  19  5
7  25  6
8  26  5
9  27  6

$$$$

