20054873
  -OEChem-07051213093D

 46 49  0     1  0  0  0  0  0999 V2000
   -3.5216    2.7081   -0.7626 O   0  0  0  0  0  0  0  0  0  0  0  0
    1.7758    0.9285    0.9479 N   0  0  1  0  0  0  0  0  0  0  0  0
   -0.5960   -0.9992   -0.5210 N   0  0  0  0  0  0  0  0  0  0  0  0
    3.2454    0.2425   -1.0858 C   0  0  1  0  0  0  0  0  0  0  0  0
    0.9657    0.9700   -0.3052 C   0  0  1  0  0  0  0  0  0  0  0  0
    3.1983   -0.8943   -0.0391 C   0  0  2  0  0  0  0  0  0  0  0  0
    1.7918    0.5067   -1.5287 C   0  0  0  0  0  0  0  0  0  0  0  0
    3.7721    1.5313   -0.4265 C   0  0  0  0  0  0  0  0  0  0  0  0
    2.3658   -0.4137    1.1725 C   0  0  0  0  0  0  0  0  0  0  0  0
    2.9034    1.8805    0.7931 C   0  0  0  0  0  0  0  0  0  0  0  0
   -0.3991    0.3025   -0.1453 C   0  0  0  0  0  0  0  0  0  0  0  0
    4.5632   -1.3632    0.3678 C   0  0  0  0  0  0  0  0  0  0  0  0
   -1.5892    0.7858    0.3475 C   0  0  0  0  0  0  0  0  0  0  0  0
   -2.5482   -0.2626    0.2688 C   0  0  0  0  0  0  0  0  0  0  0  0
   -1.8994   -1.3711   -0.2795 C   0  0  0  0  0  0  0  0  0  0  0  0
   -1.8267    2.1495    0.8656 C   0  0  0  0  0  0  0  0  0  0  0  0
    5.0109   -2.6102    0.1867 C   0  0  0  0  0  0  0  0  0  0  0  0
   -3.9099   -0.3753    0.6126 C   0  0  0  0  0  0  0  0  0  0  0  0
   -2.5470   -2.5914   -0.5022 C   0  0  0  0  0  0  0  0  0  0  0  0
   -2.2870    3.1450   -0.2089 C   0  0  0  0  0  0  0  0  0  0  0  0
   -4.5706   -1.5899    0.3957 C   0  0  0  0  0  0  0  0  0  0  0  0
   -3.8977   -2.6796   -0.1534 C   0  0  0  0  0  0  0  0  0  0  0  0
    3.8620   -0.0307   -1.9495 H   0  0  0  0  0  0  0  0  0  0  0  0
    0.7213    2.0276   -0.4880 H   0  0  0  0  0  0  0  0  0  0  0  0
    2.6620   -1.7392   -0.4950 H   0  0  0  0  0  0  0  0  0  0  0  0
    1.7864    1.2997   -2.2881 H   0  0  0  0  0  0  0  0  0  0  0  0
    1.3919   -0.3856   -2.0197 H   0  0  0  0  0  0  0  0  0  0  0  0
    4.8196    1.4218   -0.1261 H   0  0  0  0  0  0  0  0  0  0  0  0
    3.7371    2.3547   -1.1506 H   0  0  0  0  0  0  0  0  0  0  0  0
    2.9621   -0.3938    2.0947 H   0  0  0  0  0  0  0  0  0  0  0  0
    1.5659   -1.1361    1.3774 H   0  0  0  0  0  0  0  0  0  0  0  0
    2.5191    2.9041    0.7009 H   0  0  0  0  0  0  0  0  0  0  0  0
    3.5165    1.8825    1.7034 H   0  0  0  0  0  0  0  0  0  0  0  0
    5.2247   -0.6532    0.8573 H   0  0  0  0  0  0  0  0  0  0  0  0
    0.1086   -1.6190   -0.8950 H   0  0  0  0  0  0  0  0  0  0  0  0
   -0.9188    2.5377    1.3426 H   0  0  0  0  0  0  0  0  0  0  0  0
   -2.5894    2.1051    1.6535 H   0  0  0  0  0  0  0  0  0  0  0  0
    6.0071   -2.8886    0.5128 H   0  0  0  0  0  0  0  0  0  0  0  0
    4.3998   -3.3709   -0.2861 H   0  0  0  0  0  0  0  0  0  0  0  0
   -4.4507    0.4630    1.0422 H   0  0  0  0  0  0  0  0  0  0  0  0
   -2.0239   -3.4403   -0.9295 H   0  0  0  0  0  0  0  0  0  0  0  0
   -1.5514    3.2215   -1.0163 H   0  0  0  0  0  0  0  0  0  0  0  0
   -2.4342    4.1349    0.2339 H   0  0  0  0  0  0  0  0  0  0  0  0
   -5.6209   -1.6827    0.6590 H   0  0  0  0  0  0  0  0  0  0  0  0
   -4.4303   -3.6137   -0.3134 H   0  0  0  0  0  0  0  0  0  0  0  0
   -3.7806    3.3629   -1.4331 H   0  0  0  0  0  0  0  0  0  0  0  0
  1 20  1  0  0  0  0
  1 46  1  0  0  0  0
  2  5  1  0  0  0  0
  2  9  1  0  0  0  0
  2 10  1  0  0  0  0
  3 11  1  0  0  0  0
  3 15  1  0  0  0  0
  3 35  1  0  0  0  0
  4  6  1  0  0  0  0
  4  7  1  0  0  0  0
  4  8  1  0  0  0  0
  4 23  1  0  0  0  0
  5  7  1  0  0  0  0
  5 11  1  0  0  0  0
  5 24  1  0  0  0  0
  6  9  1  0  0  0  0
  6 12  1  0  0  0  0
  6 25  1  0  0  0  0
  7 26  1  0  0  0  0
  7 27  1  0  0  0  0
  8 10  1  0  0  0  0
  8 28  1  0  0  0  0
  8 29  1  0  0  0  0
  9 30  1  0  0  0  0
  9 31  1  0  0  0  0
 10 32  1  0  0  0  0
 10 33  1  0  0  0  0
 11 13  2  0  0  0  0
 12 17  2  0  0  0  0
 12 34  1  0  0  0  0
 13 14  1  0  0  0  0
 13 16  1  0  0  0  0
 14 15  1  0  0  0  0
 14 18  2  0  0  0  0
 15 19  2  0  0  0  0
 16 20  1  0  0  0  0
 16 36  1  0  0  0  0
 16 37  1  0  0  0  0
 17 38  1  0  0  0  0
 17 39  1  0  0  0  0
 18 21  1  0  0  0  0
 18 40  1  0  0  0  0
 19 22  1  0  0  0  0
 19 41  1  0  0  0  0
 20 42  1  0  0  0  0
 20 43  1  0  0  0  0
 21 22  2  0  0  0  0
 21 44  1  0  0  0  0
 22 45  1  0  0  0  0
M  END
> <PUBCHEM_COMPOUND_CID>
20054873

> <PUBCHEM_CONFORMER_RMSD>
0.8

> <PUBCHEM_CONFORMER_DIVERSEORDER>
1
17
8
6
15
14
12
10
16
9
5
13
7
3
2
11
4

> <PUBCHEM_MMFF94_PARTIAL_CHARGES>
27
1 -0.68
10 0.27
11 -0.33
12 -0.29
13 -0.18
15 -0.15
16 0.18
17 -0.3
18 -0.15
19 -0.15
2 -0.81
20 0.28
21 -0.15
22 -0.15
3 0.03
34 0.15
35 0.27
38 0.15
39 0.15
40 0.15
41 0.15
44 0.15
45 0.15
46 0.4
5 0.45
6 0.14
9 0.27

> <PUBCHEM_EFFECTIVE_ROTOR_COUNT>
5.2

> <PUBCHEM_PHARMACOPHORE_FEATURES>
9
1 1 acceptor
1 1 donor
1 17 hydrophobe
1 2 cation
1 3 cation
1 3 donor
5 3 11 13 14 15 rings
6 14 15 18 19 21 22 rings
8 2 4 5 6 7 8 9 10 rings

> <PUBCHEM_HEAVY_ATOM_COUNT>
22

> <PUBCHEM_ATOM_DEF_STEREO_COUNT>
2

> <PUBCHEM_ATOM_UDEF_STEREO_COUNT>
1

> <PUBCHEM_BOND_DEF_STEREO_COUNT>
0

> <PUBCHEM_BOND_UDEF_STEREO_COUNT>
0

> <PUBCHEM_ISOTOPIC_ATOM_COUNT>
0

> <PUBCHEM_COMPONENT_COUNT>
1

> <PUBCHEM_CACTVS_TAUTO_COUNT>
1

> <PUBCHEM_CONFORMER_ID>
0132035900000001

> <PUBCHEM_MMFF94_ENERGY>
48.3955

> <PUBCHEM_FEATURE_SELFOVERLAP>
45.76

> <PUBCHEM_SHAPE_FINGERPRINT>
10366900 7 18196083353234493392
11578080 2 17986979395368343749
12107183 9 18121211245404513298
12403259 226 18335987497401162185
12507560 40 18335710446488627848
12553582 1 18194686964787690091
12633257 1 17822838853691839907
12643181 29 17977665643682790782
12788726 201 18343021051993578649
13004483 165 18336835195344150631
13140716 1 18261109720446823728
13533116 47 18411136896456110819
13583140 156 17823156604410699408
14178342 30 18197238012258161634
14223421 5 18335709282325799760
14251751 93 18270398420315813963
14289901 80 18341046320525705536
14420673 8 18049155863618562410
15042514 8 18411696613079256393
15295992 7 17459202909176780433
15885798 251 18337952269251416547
15927050 60 15236378882432867732
16752209 62 18339935891238372867
17492 89 18412825767981095746
17804303 29 18335135427460670878
1813 80 17774443767954190557
19141452 34 18125441058384274966
19422 9 18343014515153437490
19784866 135 18409449197752259179
20510252 161 18335135376084743289
20681677 274 18334861580366860274
22907989 373 18413108364287130205
23184049 29 18334857190804905352
23503958 8 18411138069340528034
23557571 272 18261948548907968197
23559900 14 18408047303415767376
23598288 3 18261401056594177335
312423 11 18272640251721343028
3286 77 18412265038931422086
350125 39 18411132575728910787
4214541 1 18411136978281535144
474 4 17628065694918387876
5104073 3 18260258616889876779
53777708 50 18411972564454126884
559249 180 18127413569085660562
633830 44 16630230498714073908
7097593 13 18197783417022602938
7164475 11 18341333314224031916
81228 2 18265878216867278929
90316 7 18337945710920849001
9709674 26 18342454794736179538

> <PUBCHEM_SHAPE_MULTIPOLES>
436.92
9.55
3.29
1.04
2.72
0.47
-0.08
-5.19
0.62
-1.99
-0.13
0.45
0.2
-0.24

> <PUBCHEM_SHAPE_SELFOVERLAP>
947.358

> <PUBCHEM_SHAPE_VOLUME>
235.4

> <PUBCHEM_COORDINATE_TYPE>
2
5
10

$$$$

