7890
  -OEChem-06261202253D

 17 16  0     1  0  0  0  0  0999 V2000
   -1.5201   -1.6396   -0.1869 Br  0  0  0  0  0  0  0  0  0  0  0  0
    0.3449    0.5475   -0.2024 C   0  0  0  0  0  0  0  0  0  0  0  0
   -1.0245    0.1744    0.3708 C   0  0  1  0  0  0  0  0  0  0  0  0
    1.4805   -0.3358    0.3257 C   0  0  0  0  0  0  0  0  0  0  0  0
   -2.1128    1.1234   -0.1119 C   0  0  0  0  0  0  0  0  0  0  0  0
    2.8320    0.1300   -0.1953 C   0  0  0  0  0  0  0  0  0  0  0  0
    0.3253    0.4917   -1.2986 H   0  0  0  0  0  0  0  0  0  0  0  0
    0.5622    1.5921    0.0555 H   0  0  0  0  0  0  0  0  0  0  0  0
   -0.9992    0.1530    1.4651 H   0  0  0  0  0  0  0  0  0  0  0  0
    1.3427   -1.3793    0.0260 H   0  0  0  0  0  0  0  0  0  0  0  0
    1.4915   -0.3096    1.4215 H   0  0  0  0  0  0  0  0  0  0  0  0
   -2.1973    1.1209   -1.2045 H   0  0  0  0  0  0  0  0  0  0  0  0
   -1.8983    2.1489    0.2066 H   0  0  0  0  0  0  0  0  0  0  0  0
   -3.0903    0.8464    0.2981 H   0  0  0  0  0  0  0  0  0  0  0  0
    3.6295   -0.5105    0.1942 H   0  0  0  0  0  0  0  0  0  0  0  0
    2.8660    0.0887   -1.2886 H   0  0  0  0  0  0  0  0  0  0  0  0
    3.0401    1.1583    0.1171 H   0  0  0  0  0  0  0  0  0  0  0  0
  1  3  1  0  0  0  0
  2  3  1  0  0  0  0
  2  4  1  0  0  0  0
  2  7  1  0  0  0  0
  2  8  1  0  0  0  0
  3  5  1  0  0  0  0
  3  9  1  0  0  0  0
  4  6  1  0  0  0  0
  4 10  1  0  0  0  0
  4 11  1  0  0  0  0
  5 12  1  0  0  0  0
  5 13  1  0  0  0  0
  5 14  1  0  0  0  0
  6 15  1  0  0  0  0
  6 16  1  0  0  0  0
  6 17  1  0  0  0  0
M  END
> <PUBCHEM_COMPOUND_CID>
7890

> <PUBCHEM_CONFORMER_RMSD>
0.4

> <PUBCHEM_CONFORMER_DIVERSEORDER>
1
6
5
7
2
8
3
4
9
10

> <PUBCHEM_MMFF94_PARTIAL_CHARGES>
2
1 -0.23
3 0.23

> <PUBCHEM_EFFECTIVE_ROTOR_COUNT>
2

> <PUBCHEM_PHARMACOPHORE_FEATURES>
3
1 1 hydrophobe
1 6 hydrophobe
3 1 3 5 hydrophobe

> <PUBCHEM_HEAVY_ATOM_COUNT>
6

> <PUBCHEM_ATOM_DEF_STEREO_COUNT>
0

> <PUBCHEM_ATOM_UDEF_STEREO_COUNT>
1

> <PUBCHEM_BOND_DEF_STEREO_COUNT>
0

> <PUBCHEM_BOND_UDEF_STEREO_COUNT>
0

> <PUBCHEM_ISOTOPIC_ATOM_COUNT>
0

> <PUBCHEM_COMPONENT_COUNT>
1

> <PUBCHEM_CACTVS_TAUTO_COUNT>
1

> <PUBCHEM_CONFORMER_ID>
00001ED200000001

> <PUBCHEM_MMFF94_ENERGY>
1.0998

> <PUBCHEM_FEATURE_SELFOVERLAP>
16.168

> <PUBCHEM_SHAPE_FINGERPRINT>
12932741 1 17749113266302400168
139733 1 9654761580201809699
14390081 3 18409451392691628160
16714656 1 18412824715676639213
21040471 1 18337957920921800457
23552423 10 18200595765733665950
23552449 1 18335704905548240769
24536 1 17313092051614014704
29004967 10 16732975410600944178
5460574 1 7853565803597086144

> <PUBCHEM_SHAPE_MULTIPOLES>
129.42
3.63
1.45
0.7
2.29
0.4
0
-0.07
0.24
-1.22
0.1
-0.02
0.03
-0.08

> <PUBCHEM_SHAPE_SELFOVERLAP>
209.233

> <PUBCHEM_SHAPE_VOLUME>
91.9

> <PUBCHEM_COORDINATE_TYPE>
2
5
10

$$$$

