70652
  -OEChem-07051212483D

 27 27  0     1  0  0  0  0  0999 V2000
   -3.1248   -1.1597   -0.0796 O   0  0  0  0  0  0  0  0  0  0  0  0
   -3.8527    1.0282   -0.0772 O   0  0  0  0  0  0  0  0  0  0  0  0
    4.8549   -0.3110   -0.4674 O   0  0  0  0  0  0  0  0  0  0  0  0
   -1.3956    1.9575   -0.5971 N   0  0  0  0  0  0  0  0  0  0  0  0
   -0.6307    0.0879    0.7902 C   0  0  0  0  0  0  0  0  0  0  0  0
   -1.4938    0.5092   -0.4069 C   0  0  1  0  0  0  0  0  0  0  0  0
    0.8380   -0.0190    0.4536 C   0  0  0  0  0  0  0  0  0  0  0  0
    1.3445   -1.2275    0.0042 C   0  0  0  0  0  0  0  0  0  0  0  0
    1.6501    1.0936    0.6007 C   0  0  0  0  0  0  0  0  0  0  0  0
   -2.9596    0.1946   -0.1608 C   0  0  0  0  0  0  0  0  0  0  0  0
    2.7008   -1.3262   -0.3065 C   0  0  0  0  0  0  0  0  0  0  0  0
    3.0063    0.9949    0.2899 C   0  0  0  0  0  0  0  0  0  0  0  0
    3.5316   -0.2150   -0.1636 C   0  0  0  0  0  0  0  0  0  0  0  0
   -4.4691   -1.6073    0.1205 C   0  0  0  0  0  0  0  0  0  0  0  0
   -0.9623   -0.8826    1.1836 H   0  0  0  0  0  0  0  0  0  0  0  0
   -0.7699    0.7788    1.6341 H   0  0  0  0  0  0  0  0  0  0  0  0
   -1.1908    0.0057   -1.3325 H   0  0  0  0  0  0  0  0  0  0  0  0
    0.7047   -2.0975   -0.1126 H   0  0  0  0  0  0  0  0  0  0  0  0
    1.2537    2.0392    0.9587 H   0  0  0  0  0  0  0  0  0  0  0  0
   -1.9553    2.2337   -1.4035 H   0  0  0  0  0  0  0  0  0  0  0  0
   -0.4362    2.2117   -0.8267 H   0  0  0  0  0  0  0  0  0  0  0  0
    3.1041   -2.2712   -0.6601 H   0  0  0  0  0  0  0  0  0  0  0  0
    3.6432    1.8676    0.4067 H   0  0  0  0  0  0  0  0  0  0  0  0
   -4.4604   -2.6996    0.1666 H   0  0  0  0  0  0  0  0  0  0  0  0
   -5.1005   -1.2962   -0.7172 H   0  0  0  0  0  0  0  0  0  0  0  0
   -4.8606   -1.2191    1.0655 H   0  0  0  0  0  0  0  0  0  0  0  0
    5.2775    0.5509   -0.3105 H   0  0  0  0  0  0  0  0  0  0  0  0
  1 10  1  0  0  0  0
  1 14  1  0  0  0  0
  2 10  2  0  0  0  0
  3 13  1  0  0  0  0
  3 27  1  0  0  0  0
  4  6  1  0  0  0  0
  4 20  1  0  0  0  0
  4 21  1  0  0  0  0
  5  6  1  0  0  0  0
  5  7  1  0  0  0  0
  5 15  1  0  0  0  0
  5 16  1  0  0  0  0
  6 10  1  0  0  0  0
  6 17  1  0  0  0  0
  7  8  2  0  0  0  0
  7  9  1  0  0  0  0
  8 11  1  0  0  0  0
  8 18  1  0  0  0  0
  9 12  2  0  0  0  0
  9 19  1  0  0  0  0
 11 13  2  0  0  0  0
 11 22  1  0  0  0  0
 12 13  1  0  0  0  0
 12 23  1  0  0  0  0
 14 24  1  0  0  0  0
 14 25  1  0  0  0  0
 14 26  1  0  0  0  0
M  END
> <PUBCHEM_COMPOUND_CID>
70652

> <PUBCHEM_CONFORMER_RMSD>
0.6

> <PUBCHEM_CONFORMER_DIVERSEORDER>
1
12
16
13
2
6
10
11
7
15
8
9
17
4
3
14
5

> <PUBCHEM_MMFF94_PARTIAL_CHARGES>
21
1 -0.43
10 0.66
11 -0.15
12 -0.15
13 0.08
14 0.28
18 0.15
19 0.15
2 -0.57
20 0.36
21 0.36
22 0.15
23 0.15
27 0.45
3 -0.53
4 -0.99
5 0.14
6 0.33
7 -0.14
8 -0.15
9 -0.15

> <PUBCHEM_EFFECTIVE_ROTOR_COUNT>
4

> <PUBCHEM_PHARMACOPHORE_FEATURES>
5
1 2 acceptor
1 3 donor
1 4 cation
1 4 donor
6 7 8 9 11 12 13 rings

> <PUBCHEM_HEAVY_ATOM_COUNT>
14

> <PUBCHEM_ATOM_DEF_STEREO_COUNT>
1

> <PUBCHEM_ATOM_UDEF_STEREO_COUNT>
0

> <PUBCHEM_BOND_DEF_STEREO_COUNT>
0

> <PUBCHEM_BOND_UDEF_STEREO_COUNT>
0

> <PUBCHEM_ISOTOPIC_ATOM_COUNT>
0

> <PUBCHEM_COMPONENT_COUNT>
1

> <PUBCHEM_CACTVS_TAUTO_COUNT>
2

> <PUBCHEM_CONFORMER_ID>
000113FC00000001

> <PUBCHEM_MMFF94_ENERGY>
28.606

> <PUBCHEM_FEATURE_SELFOVERLAP>
25.371

> <PUBCHEM_SHAPE_FINGERPRINT>
10608611 8 18410300219694245625
12032990 46 18408039593680146857
124424 183 10231755586949261982
12932764 1 17846225509101354089
13296908 3 18410296900074454667
13705890 14 18259985989867184642
14252887 29 17022615390877223310
14325111 11 18409169904544821713
14350574 20 18186793669870213406
14993402 34 15841552955229824658
15477762 27 18335137592393115990
17834074 16 18334858307544037551
17844478 74 18409450280194553297
18186145 218 18272096010476742521
190213 19 17312822684139503514
19422 9 18260261936952070473
1986462 14 18412263943450887669
200 152 18040154023928248618
20201158 50 18408322219792677250
20281475 54 18410012182023084235
20645477 70 18041847332117852287
20871999 31 18131079233973985407
221490 88 18337387115600087762
22485316 2 18410858788917863187
23402539 116 17918279761607136078
23402655 69 18341333400097036460
23557571 272 18341328963691128093
23559900 14 18338804536707623362
25610 137 18261109643047462105
2871803 45 18341622486188500575
3268164 11 17346607382542982263
3312278 4 18333731355507058833
4990 188 18259978288943441342
5104073 3 18409169917434947272
77779 3 18408321090395444529
83771 10 18334575703317787315

> <PUBCHEM_SHAPE_MULTIPOLES>
265.52
8.44
1.6
0.75
2
0.03
-0.05
-2.26
0.85
0.72
0.12
-0.07
0.07
0.51

> <PUBCHEM_SHAPE_SELFOVERLAP>
543.982

> <PUBCHEM_SHAPE_VOLUME>
153.8

> <PUBCHEM_COORDINATE_TYPE>
2
5
10

$$$$

