5281610
  -OEChem-07051212582D

 31 33  0     0  0  0  0  0  0999 V2000
    5.4641    0.6154    0.0000 O   0  0  0  0  0  0  0  0  0  0  0  0
    3.7320   -1.3846    0.0000 O   0  0  0  0  0  0  0  0  0  0  0  0
    7.2125   -2.4192    0.0000 O   0  0  0  0  0  0  0  0  0  0  0  0
    5.4641   -2.3846    0.0000 O   0  0  0  0  0  0  0  0  0  0  0  0
    8.9942    0.6395    0.0000 O   0  0  0  0  0  0  0  0  0  0  0  0
    4.5981    2.1154    0.0000 O   0  0  0  0  0  0  0  0  0  0  0  0
    6.3301   -0.8846    0.0000 C   0  0  0  0  0  0  0  0  0  0  0  0
    6.3301    0.1154    0.0000 C   0  0  0  0  0  0  0  0  0  0  0  0
    4.5981    0.1154    0.0000 C   0  0  0  0  0  0  0  0  0  0  0  0
    3.7320    0.6154    0.0000 C   0  0  0  0  0  0  0  0  0  0  0  0
    5.4641   -1.3846    0.0000 C   0  0  0  0  0  0  0  0  0  0  0  0
    4.5981   -0.8846    0.0000 C   0  0  0  0  0  0  0  0  0  0  0  0
    7.2241   -1.4193    0.0000 C   0  0  0  0  0  0  0  0  0  0  0  0
    7.2241    0.6501    0.0000 C   0  0  0  0  0  0  0  0  0  0  0  0
    8.1301    0.1362    0.0000 C   0  0  0  0  0  0  0  0  0  0  0  0
    8.1301   -0.9054    0.0000 C   0  0  0  0  0  0  0  0  0  0  0  0
    3.7320    1.6154    0.0000 C   0  0  0  0  0  0  0  0  0  0  0  0
    2.8660    0.1154    0.0000 C   0  0  0  0  0  0  0  0  0  0  0  0
    2.8660    2.1154    0.0000 C   0  0  0  0  0  0  0  0  0  0  0  0
    2.0000    0.6154    0.0000 C   0  0  0  0  0  0  0  0  0  0  0  0
    2.0000    1.6154    0.0000 C   0  0  0  0  0  0  0  0  0  0  0  0
    7.2169    1.2700    0.0000 H   0  0  0  0  0  0  0  0  0  0  0  0
    8.6659   -1.2175    0.0000 H   0  0  0  0  0  0  0  0  0  0  0  0
    2.8660   -0.5046    0.0000 H   0  0  0  0  0  0  0  0  0  0  0  0
    2.8660    2.7354    0.0000 H   0  0  0  0  0  0  0  0  0  0  0  0
    1.4631    0.3054    0.0000 H   0  0  0  0  0  0  0  0  0  0  0  0
    1.4631    1.9254    0.0000 H   0  0  0  0  0  0  0  0  0  0  0  0
    3.7320   -2.0046    0.0000 H   0  0  0  0  0  0  0  0  0  0  0  0
    7.7458   -2.7354    0.0000 H   0  0  0  0  0  0  0  0  0  0  0  0
    9.5323    0.3316    0.0000 H   0  0  0  0  0  0  0  0  0  0  0  0
    4.5981    2.7354    0.0000 H   0  0  0  0  0  0  0  0  0  0  0  0
  1  8  1  0  0  0  0
  1  9  1  0  0  0  0
  2 12  1  0  0  0  0
  2 28  1  0  0  0  0
  3 13  1  0  0  0  0
  3 29  1  0  0  0  0
  4 11  2  0  0  0  0
  5 15  1  0  0  0  0
  5 30  1  0  0  0  0
  6 17  1  0  0  0  0
  6 31  1  0  0  0  0
  7  8  1  0  0  0  0
  7 11  1  0  0  0  0
  7 13  2  0  0  0  0
  8 14  2  0  0  0  0
  9 10  1  0  0  0  0
  9 12  2  0  0  0  0
 10 17  1  0  0  0  0
 10 18  2  0  0  0  0
 11 12  1  0  0  0  0
 13 16  1  0  0  0  0
 14 15  1  0  0  0  0
 14 22  1  0  0  0  0
 15 16  2  0  0  0  0
 16 23  1  0  0  0  0
 17 19  2  0  0  0  0
 18 20  1  0  0  0  0
 18 24  1  0  0  0  0
 19 21  1  0  0  0  0
 19 25  1  0  0  0  0
 20 21  2  0  0  0  0
 20 26  1  0  0  0  0
 21 27  1  0  0  0  0
M  END
> <PUBCHEM_COMPOUND_CID>
5281610

> <PUBCHEM_COMPOUND_CANONICALIZED>
1

> <PUBCHEM_CACTVS_COMPLEXITY>
459

> <PUBCHEM_CACTVS_HBOND_ACCEPTOR>
6

> <PUBCHEM_CACTVS_HBOND_DONOR>
4

> <PUBCHEM_CACTVS_ROTATABLE_BOND>
1

> <PUBCHEM_CACTVS_SUBSKEYS>
AAADccBwOAAAAAAAAAAAAAAAAAAAAAAAAAAwYIAAAAAAAACBQAAAGgAACAAADASAmAAwBoAABgCIAqBSAAICCAAkIAAIiAFGCMgMJzaGNRqCeWCl4BUIuQfI7KzOIAAACAAIAABAAAAQABAAAAAAAAAAAA==

> <PUBCHEM_IUPAC_OPENEYE_NAME>
3,5,7-trihydroxy-2-(2-hydroxyphenyl)chromen-4-one

> <PUBCHEM_IUPAC_CAS_NAME>
3,5,7-trihydroxy-2-(2-hydroxyphenyl)-1-benzopyran-4-one

> <PUBCHEM_IUPAC_NAME>
3,5,7-trihydroxy-2-(2-hydroxyphenyl)chromen-4-one

> <PUBCHEM_IUPAC_SYSTEMATIC_NAME>
2-(2-hydroxyphenyl)-3,5,7-tris(oxidanyl)chromen-4-one

> <PUBCHEM_IUPAC_TRADITIONAL_NAME>
3,5,7-trihydroxy-2-(2-hydroxyphenyl)chromone

> <PUBCHEM_IUPAC_INCHI>
InChI=1S/C15H10O6/c16-7-5-10(18)12-11(6-7)21-15(14(20)13(12)19)8-3-1-2-4-9(8)17/h1-6,16-18,20H

> <PUBCHEM_IUPAC_INCHIKEY>
WCNLFPKXBGWWDS-UHFFFAOYSA-N

> <PUBCHEM_XLOGP3>
1.9

> <PUBCHEM_EXACT_MASS>
286.047738

> <PUBCHEM_MOLECULAR_FORMULA>
C15H10O6

> <PUBCHEM_MOLECULAR_WEIGHT>
286.2363

> <PUBCHEM_OPENEYE_CAN_SMILES>
C1=CC=C(C(=C1)C2=C(C(=O)C3=C(C=C(C=C3O2)O)O)O)O

> <PUBCHEM_OPENEYE_ISO_SMILES>
C1=CC=C(C(=C1)C2=C(C(=O)C3=C(C=C(C=C3O2)O)O)O)O

> <PUBCHEM_CACTVS_TPSA>
107

> <PUBCHEM_MONOISOTOPIC_WEIGHT>
286.047738

> <PUBCHEM_TOTAL_CHARGE>
0

> <PUBCHEM_HEAVY_ATOM_COUNT>
21

> <PUBCHEM_ATOM_DEF_STEREO_COUNT>
0

> <PUBCHEM_ATOM_UDEF_STEREO_COUNT>
0

> <PUBCHEM_BOND_DEF_STEREO_COUNT>
0

> <PUBCHEM_BOND_UDEF_STEREO_COUNT>
0

> <PUBCHEM_ISOTOPIC_ATOM_COUNT>
0

> <PUBCHEM_COMPONENT_COUNT>
1

> <PUBCHEM_CACTVS_TAUTO_COUNT>
186

> <PUBCHEM_COORDINATE_TYPE>
1
5
255

> <PUBCHEM_BONDANNOTATIONS>
1  8  8
1  9  8
10  17  8
10  18  8
11  12  8
13  16  8
14  15  8
15  16  8
17  19  8
18  20  8
19  21  8
20  21  8
7  11  8
7  13  8
7  8  8
8  14  8
9  12  8

$$$$

