441942
  -OEChem-07051212562D

 79 83  0     1  0  0  0  0  0999 V2000
    4.7950    0.9590    0.0000 O   0  0  0  0  0  0  0  0  0  0  0  0
    2.0000   -2.5933    0.0000 O   0  0  0  0  0  0  0  0  0  0  0  0
   10.9251    0.4932    0.0000 O   0  0  0  0  0  0  0  0  0  0  0  0
   11.0010    2.6034    0.0000 O   0  0  0  0  0  0  0  0  0  0  0  0
   10.0707   -1.0134    0.0000 O   0  0  0  0  0  0  0  0  0  0  0  0
    6.5271   -1.0410    0.0000 C   0  0  2  0  0  0  0  0  0  0  0  0
    5.6610   -0.5410    0.0000 C   0  0  1  0  0  0  0  0  0  0  0  0
    4.7510   -1.0478    0.0000 C   0  0  2  0  0  0  0  0  0  0  0  0
    7.3931   -0.5410    0.0000 C   0  0  1  0  0  0  0  0  0  0  0  0
    4.7430   -2.0894    0.0000 C   0  0  1  0  0  0  0  0  0  0  0  0
    6.5431   -2.0825    0.0000 C   0  0  0  0  0  0  0  0  0  0  0  0
    7.3931    0.4590    0.0000 C   0  0  0  0  0  0  0  0  0  0  0  0
    5.6451   -2.6102    0.0000 C   0  0  0  0  0  0  0  0  0  0  0  0
    5.6610    0.4590    0.0000 C   0  0  1  0  0  0  0  0  0  0  0  0
    8.2870    0.9937    0.0000 C   0  0  1  0  0  0  0  0  0  0  0  0
    8.2870   -1.0756    0.0000 C   0  0  0  0  0  0  0  0  0  0  0  0
    3.8076   -2.6391    0.0000 C   0  0  0  0  0  0  0  0  0  0  0  0
    9.1931    0.4799    0.0000 C   0  0  1  0  0  0  0  0  0  0  0  0
    3.8242   -0.4837    0.0000 C   0  0  0  0  0  0  0  0  0  0  0  0
    7.1698   -1.8070    0.0000 C   0  0  0  0  0  0  0  0  0  0  0  0
    9.1931   -0.5618    0.0000 C   0  0  0  0  0  0  0  0  0  0  0  0
    6.5271    0.9590    0.0000 C   0  0  0  0  0  0  0  0  0  0  0  0
    4.7587   -0.0478    0.0000 C   0  0  0  0  0  0  0  0  0  0  0  0
    7.7352   -1.4806    0.0000 C   0  0  0  0  0  0  0  0  0  0  0  0
    8.2619    2.0784    0.0000 C   0  0  0  0  0  0  0  0  0  0  0  0
    2.8763   -1.0117    0.0000 C   0  0  0  0  0  0  0  0  0  0  0  0
    2.8680   -2.0966    0.0000 C   0  0  0  0  0  0  0  0  0  0  0  0
   10.1369    1.0151    0.0000 C   0  0  0  0  0  0  0  0  0  0  0  0
    9.1931    2.6353    0.0000 C   0  0  0  0  0  0  0  0  0  0  0  0
    3.3109   -3.5071    0.0000 C   0  0  0  0  0  0  0  0  0  0  0  0
    4.3109   -3.5032    0.0000 C   0  0  0  0  0  0  0  0  0  0  0  0
   10.1369    2.1001    0.0000 C   0  0  0  0  0  0  0  0  0  0  0  0
   10.0629   -0.0135    0.0000 C   0  0  0  0  0  0  0  0  0  0  0  0
    9.6830    3.5071    0.0000 C   0  0  0  0  0  0  0  0  0  0  0  0
    8.6831    3.4955    0.0000 C   0  0  0  0  0  0  0  0  0  0  0  0
    6.3972   -0.1160    0.0000 H   0  0  0  0  0  0  0  0  0  0  0  0
    4.7463   -2.9394    0.0000 H   0  0  0  0  0  0  0  0  0  0  0  0
    6.7612   -2.6629    0.0000 H   0  0  0  0  0  0  0  0  0  0  0  0
    7.1523   -1.9670    0.0000 H   0  0  0  0  0  0  0  0  0  0  0  0
    5.2478   -3.0862    0.0000 H   0  0  0  0  0  0  0  0  0  0  0  0
    6.0460   -3.0831    0.0000 H   0  0  0  0  0  0  0  0  0  0  0  0
    5.6610    1.0790    0.0000 H   0  0  0  0  0  0  0  0  0  0  0  0
    9.0165    1.4300    0.0000 H   0  0  0  0  0  0  0  0  0  0  0  0
    7.8824   -1.5454    0.0000 H   0  0  0  0  0  0  0  0  0  0  0  0
    8.6806   -1.5546    0.0000 H   0  0  0  0  0  0  0  0  0  0  0  0
    4.2324   -0.0171    0.0000 H   0  0  0  0  0  0  0  0  0  0  0  0
    3.4343   -0.0017    0.0000 H   0  0  0  0  0  0  0  0  0  0  0  0
    6.6949   -2.2055    0.0000 H   0  0  0  0  0  0  0  0  0  0  0  0
    7.5684   -2.2820    0.0000 H   0  0  0  0  0  0  0  0  0  0  0  0
    7.6448   -1.4085    0.0000 H   0  0  0  0  0  0  0  0  0  0  0  0
    9.4022   -1.1455    0.0000 H   0  0  0  0  0  0  0  0  0  0  0  0
    9.8040   -0.4557    0.0000 H   0  0  0  0  0  0  0  0  0  0  0  0
    6.5271    1.5790    0.0000 H   0  0  0  0  0  0  0  0  0  0  0  0
    5.3787   -0.0526    0.0000 H   0  0  0  0  0  0  0  0  0  0  0  0
    4.7635    0.5721    0.0000 H   0  0  0  0  0  0  0  0  0  0  0  0
    4.1388   -0.0431    0.0000 H   0  0  0  0  0  0  0  0  0  0  0  0
    7.1526   -1.6927    0.0000 H   0  0  0  0  0  0  0  0  0  0  0  0
    7.9473   -2.0632    0.0000 H   0  0  0  0  0  0  0  0  0  0  0  0
    8.3178   -1.2685    0.0000 H   0  0  0  0  0  0  0  0  0  0  0  0
    8.0394    2.6571    0.0000 H   0  0  0  0  0  0  0  0  0  0  0  0
    7.6537    1.9582    0.0000 H   0  0  0  0  0  0  0  0  0  0  0  0
    2.6718   -0.4264    0.0000 H   0  0  0  0  0  0  0  0  0  0  0  0
    2.2647   -1.1131    0.0000 H   0  0  0  0  0  0  0  0  0  0  0  0
   10.3459    0.4314    0.0000 H   0  0  0  0  0  0  0  0  0  0  0  0
   10.7477    1.1212    0.0000 H   0  0  0  0  0  0  0  0  0  0  0  0
    2.7728   -3.1992    0.0000 H   0  0  0  0  0  0  0  0  0  0  0  0
    3.0030   -4.0452    0.0000 H   0  0  0  0  0  0  0  0  0  0  0  0
    3.8490   -3.8150    0.0000 H   0  0  0  0  0  0  0  0  0  0  0  0
    3.7752   -3.8153    0.0000 H   0  0  0  0  0  0  0  0  0  0  0  0
    4.6230   -4.0390    0.0000 H   0  0  0  0  0  0  0  0  0  0  0  0
    4.8466   -3.1912    0.0000 H   0  0  0  0  0  0  0  0  0  0  0  0
    4.7950    1.5790    0.0000 H   0  0  0  0  0  0  0  0  0  0  0  0
   10.2235    3.2033    0.0000 H   0  0  0  0  0  0  0  0  0  0  0  0
    9.9868    4.0476    0.0000 H   0  0  0  0  0  0  0  0  0  0  0  0
    9.1426    3.8108    0.0000 H   0  0  0  0  0  0  0  0  0  0  0  0
    9.2164    3.8117    0.0000 H   0  0  0  0  0  0  0  0  0  0  0  0
    8.3669    4.0288    0.0000 H   0  0  0  0  0  0  0  0  0  0  0  0
    8.1498    3.1793    0.0000 H   0  0  0  0  0  0  0  0  0  0  0  0
   11.4644    0.1874    0.0000 H   0  0  0  0  0  0  0  0  0  0  0  0
 14  1  1  6  0  0  0
  1 72  1  0  0  0  0
  2 27  2  0  0  0  0
  3 33  1  0  0  0  0
  3 79  1  0  0  0  0
  4 32  2  0  0  0  0
  5 33  2  0  0  0  0
  6  7  1  0  0  0  0
  6  9  1  0  0  0  0
  6 11  1  0  0  0  0
  6 20  1  1  0  0  0
  7  8  1  0  0  0  0
  7 14  1  0  0  0  0
  7 36  1  6  0  0  0
  8 10  1  0  0  0  0
  8 19  1  0  0  0  0
  8 23  1  1  0  0  0
  9 12  1  0  0  0  0
  9 16  1  0  0  0  0
  9 24  1  6  0  0  0
 10 13  1  0  0  0  0
 10 17  1  0  0  0  0
 10 37  1  6  0  0  0
 11 13  1  0  0  0  0
 11 38  1  0  0  0  0
 11 39  1  0  0  0  0
 12 15  1  0  0  0  0
 12 22  2  0  0  0  0
 13 40  1  0  0  0  0
 13 41  1  0  0  0  0
 14 22  1  0  0  0  0
 14 42  1  0  0  0  0
 15 18  1  0  0  0  0
 15 25  1  0  0  0  0
 15 43  1  1  0  0  0
 16 21  1  0  0  0  0
 16 44  1  0  0  0  0
 16 45  1  0  0  0  0
 17 27  1  0  0  0  0
 17 30  1  0  0  0  0
 17 31  1  0  0  0  0
 18 21  1  0  0  0  0
 18 28  1  0  0  0  0
 18 33  1  1  0  0  0
 19 26  1  0  0  0  0
 19 46  1  0  0  0  0
 19 47  1  0  0  0  0
 20 48  1  0  0  0  0
 20 49  1  0  0  0  0
 20 50  1  0  0  0  0
 21 51  1  0  0  0  0
 21 52  1  0  0  0  0
 22 53  1  0  0  0  0
 23 54  1  0  0  0  0
 23 55  1  0  0  0  0
 23 56  1  0  0  0  0
 24 57  1  0  0  0  0
 24 58  1  0  0  0  0
 24 59  1  0  0  0  0
 25 29  1  0  0  0  0
 25 60  1  0  0  0  0
 25 61  1  0  0  0  0
 26 27  1  0  0  0  0
 26 62  1  0  0  0  0
 26 63  1  0  0  0  0
 28 32  1  0  0  0  0
 28 64  1  0  0  0  0
 28 65  1  0  0  0  0
 29 32  1  0  0  0  0
 29 34  1  0  0  0  0
 29 35  1  0  0  0  0
 30 66  1  0  0  0  0
 30 67  1  0  0  0  0
 30 68  1  0  0  0  0
 31 69  1  0  0  0  0
 31 70  1  0  0  0  0
 31 71  1  0  0  0  0
 34 73  1  0  0  0  0
 34 74  1  0  0  0  0
 34 75  1  0  0  0  0
 35 76  1  0  0  0  0
 35 77  1  0  0  0  0
 35 78  1  0  0  0  0
M  END
> <PUBCHEM_COMPOUND_CID>
441942

> <PUBCHEM_COMPOUND_CANONICALIZED>
1

> <PUBCHEM_CACTVS_COMPLEXITY>
1040

> <PUBCHEM_CACTVS_HBOND_ACCEPTOR>
5

> <PUBCHEM_CACTVS_HBOND_DONOR>
2

> <PUBCHEM_CACTVS_ROTATABLE_BOND>
1

> <PUBCHEM_CACTVS_SUBSKEYS>
AAADcfB4OAAAAAAAAAAAAAAAAAAAAAAAAAAwYMGCAAAAAADAAAAAGgAACAAADxSggAICCAAAAgCIAqDSCAAAAAAgAAAACAEAAAgAFBIAAQAAUAAEgAAIEAOLyPCPgAAAAAAAAACAAAQAACAAAAAAAAAAAA==

> <PUBCHEM_IUPAC_OPENEYE_NAME>
(4aR,6aR,6aS,6bR,8aR,12aS,13R,14bS)-13-hydroxy-2,2,6a,6b,9,9,12a-heptamethyl-3,10-dioxo-1,4,5,6,6a,7,8,8a,11,12,13,14b-dodecahydropicene-4a-carboxylic acid

> <PUBCHEM_IUPAC_CAS_NAME>
(4aR,6aR,6aS,6bR,8aR,12aS,13R,14bS)-13-hydroxy-2,2,6a,6b,9,9,12a-heptamethyl-3,10-dioxo-1,4,5,6,6a,7,8,8a,11,12,13,14b-dodecahydropicene-4a-carboxylic acid

> <PUBCHEM_IUPAC_NAME>
(4aR,6aR,6aS,6bR,8aR,12aS,13R,14bS)-13-hydroxy-2,2,6a,6b,9,9,12a-heptamethyl-3,10-dioxo-1,4,5,6,6a,7,8,8a,11,12,13,14b-dodecahydropicene-4a-carboxylic acid

> <PUBCHEM_IUPAC_SYSTEMATIC_NAME>
(4aR,6aR,6aS,6bR,8aR,12aS,13R,14bS)-2,2,6a,6b,9,9,12a-heptamethyl-13-oxidanyl-3,10-bis(oxidanylidene)-1,4,5,6,6a,7,8,8a,11,12,13,14b-dodecahydropicene-4a-carboxylic acid

> <PUBCHEM_IUPAC_TRADITIONAL_NAME>
(4aR,6aR,6aS,6bR,8aR,12aS,13R,14bS)-13-hydroxy-3,10-diketo-2,2,6a,6b,9,9,12a-heptamethyl-1,4,5,6,6a,7,8,8a,11,12,13,14b-dodecahydropicene-4a-carboxylic acid

> <PUBCHEM_IUPAC_INCHI>
InChI=1S/C30H44O5/c1-25(2)15-18-17-14-19(31)23-27(5)10-9-21(32)26(3,4)20(27)8-11-29(23,7)28(17,6)12-13-30(18,24(34)35)16-22(25)33/h14,18-20,23,31H,8-13,15-16H2,1-7H3,(H,34,35)/t18-,19+,20-,23+,27-,28+,29+,30+/m0/s1

> <PUBCHEM_IUPAC_INCHIKEY>
LJMPUEBWSQXCRU-LJHQDYJOSA-N

> <PUBCHEM_XLOGP3_AA>
4.4

> <PUBCHEM_EXACT_MASS>
484.318875

> <PUBCHEM_MOLECULAR_FORMULA>
C30H44O5

> <PUBCHEM_MOLECULAR_WEIGHT>
484.66736

> <PUBCHEM_OPENEYE_CAN_SMILES>
CC1(CC2C3=CC(C4C5(CCC(=O)C(C5CCC4(C3(CCC2(CC1=O)C(=O)O)C)C)(C)C)C)O)C

> <PUBCHEM_OPENEYE_ISO_SMILES>
C[C@]12CCC(=O)C([C@@H]1CC[C@@]3([C@@H]2[C@@H](C=C4[C@]3(CC[C@@]5([C@H]4CC(C(=O)C5)(C)C)C(=O)O)C)O)C)(C)C

> <PUBCHEM_CACTVS_TPSA>
91.7

> <PUBCHEM_MONOISOTOPIC_WEIGHT>
484.318875

> <PUBCHEM_TOTAL_CHARGE>
0

> <PUBCHEM_HEAVY_ATOM_COUNT>
35

> <PUBCHEM_ATOM_DEF_STEREO_COUNT>
8

> <PUBCHEM_ATOM_UDEF_STEREO_COUNT>
0

> <PUBCHEM_BOND_DEF_STEREO_COUNT>
0

> <PUBCHEM_BOND_UDEF_STEREO_COUNT>
0

> <PUBCHEM_ISOTOPIC_ATOM_COUNT>
0

> <PUBCHEM_COMPONENT_COUNT>
1

> <PUBCHEM_CACTVS_TAUTO_COUNT>
4

> <PUBCHEM_COORDINATE_TYPE>
1
5
255

> <PUBCHEM_BONDANNOTATIONS>
14  1  6
10  37  6
15  43  5
18  33  5
6  20  5
7  36  6
8  23  5
9  24  6

$$$$

