11908
  -OEChem-06261206163D

 18 18  0     0  0  0  0  0  0999 V2000
    2.8831    0.7507   -0.0121 O   0  0  0  0  0  0  0  0  0  0  0  0
    1.9375   -0.2420    0.0091 N   0  0  0  0  0  0  0  0  0  0  0  0
   -0.3806   -1.0054    0.0001 C   0  0  0  0  0  0  0  0  0  0  0  0
    0.5523    0.0317    0.0048 C   0  0  0  0  0  0  0  0  0  0  0  0
   -1.7452   -0.7160   -0.0042 C   0  0  0  0  0  0  0  0  0  0  0  0
    0.1204    1.3581    0.0053 C   0  0  0  0  0  0  0  0  0  0  0  0
    0.0534   -2.4351   -0.0006 C   0  0  0  0  0  0  0  0  0  0  0  0
   -2.1768    0.6105   -0.0037 C   0  0  0  0  0  0  0  0  0  0  0  0
   -1.2441    1.6475    0.0011 C   0  0  0  0  0  0  0  0  0  0  0  0
   -2.4858   -1.5113   -0.0080 H   0  0  0  0  0  0  0  0  0  0  0  0
    0.8244    2.1859    0.0096 H   0  0  0  0  0  0  0  0  0  0  0  0
    0.6468   -2.6561   -0.8939 H   0  0  0  0  0  0  0  0  0  0  0  0
    0.6438   -2.6579    0.8943 H   0  0  0  0  0  0  0  0  0  0  0  0
   -0.8019   -3.1198   -0.0026 H   0  0  0  0  0  0  0  0  0  0  0  0
   -3.2393    0.8361   -0.0070 H   0  0  0  0  0  0  0  0  0  0  0  0
   -1.5806    2.6801    0.0017 H   0  0  0  0  0  0  0  0  0  0  0  0
    2.2801   -1.1935    0.0027 H   0  0  0  0  0  0  0  0  0  0  0  0
    3.3329    0.6165    0.8394 H   0  0  0  0  0  0  0  0  0  0  0  0
  1  2  1  0  0  0  0
  1 18  1  0  0  0  0
  2  4  1  0  0  0  0
  2 17  1  0  0  0  0
  3  4  1  0  0  0  0
  3  5  2  0  0  0  0
  3  7  1  0  0  0  0
  4  6  2  0  0  0  0
  5  8  1  0  0  0  0
  5 10  1  0  0  0  0
  6  9  1  0  0  0  0
  6 11  1  0  0  0  0
  7 12  1  0  0  0  0
  7 13  1  0  0  0  0
  7 14  1  0  0  0  0
  8  9  2  0  0  0  0
  8 15  1  0  0  0  0
  9 16  1  0  0  0  0
M  END
> <PUBCHEM_COMPOUND_CID>
11908

> <PUBCHEM_CONFORMER_RMSD>
0.4

> <PUBCHEM_CONFORMER_DIVERSEORDER>
1
3
2
4

> <PUBCHEM_MMFF94_PARTIAL_CHARGES>
15
1 -0.38
10 0.15
11 0.15
15 0.15
16 0.15
17 0.4
18 0.4
2 -0.52
3 -0.14
4 0.1
5 -0.15
6 -0.15
7 0.14
8 -0.15
9 -0.15

> <PUBCHEM_EFFECTIVE_ROTOR_COUNT>
1

> <PUBCHEM_PHARMACOPHORE_FEATURES>
2
1 1 anion
6 3 4 5 6 8 9 rings

> <PUBCHEM_HEAVY_ATOM_COUNT>
9

> <PUBCHEM_ATOM_DEF_STEREO_COUNT>
0

> <PUBCHEM_ATOM_UDEF_STEREO_COUNT>
0

> <PUBCHEM_BOND_DEF_STEREO_COUNT>
0

> <PUBCHEM_BOND_UDEF_STEREO_COUNT>
0

> <PUBCHEM_ISOTOPIC_ATOM_COUNT>
0

> <PUBCHEM_COMPONENT_COUNT>
1

> <PUBCHEM_CACTVS_TAUTO_COUNT>
1

> <PUBCHEM_CONFORMER_ID>
00002E8400000001

> <PUBCHEM_MMFF94_ENERGY>
27.8362

> <PUBCHEM_FEATURE_SELFOVERLAP>
10.148

> <PUBCHEM_SHAPE_FINGERPRINT>
12423570 1 10784703283319425823
16714656 1 18410854330557070180
16945 1 18410575046092834241
18185500 45 17040350220921929623
193761 8 17906171007554247809
20871998 184 18044931277592380990
21040471 1 18410574023837818312
23552423 10 18124592243491378711
241688 4 16320345558474491163
2748010 2 18339077193609715927
5084963 1 18114183046614968944

> <PUBCHEM_SHAPE_MULTIPOLES>
174.37
2.77
2.11
0.6
1.2
0.95
0
-0.98
0.01
0
0
-0.05
0.01
0

> <PUBCHEM_SHAPE_SELFOVERLAP>
357.51

> <PUBCHEM_SHAPE_VOLUME>
101.6

> <PUBCHEM_COORDINATE_TYPE>
2
5
10

$$$$

