441552
  -OEChem-07051212553D

 19 18  0     0  0  0  0  0  0999 V2000
   -7.8094   -0.1312    0.0004 C   0  0  0  0  0  0  0  0  0  0  0  0
    6.5577    0.2718    0.0009 C   0  0  0  0  0  0  0  0  0  0  0  0
   -6.3478   -0.0898    0.0003 C   0  0  0  0  0  0  0  0  0  0  0  0
    7.2989   -0.8403    0.0000 C   0  0  0  0  0  0  0  0  0  0  0  0
    5.1386    0.2271    0.0000 C   0  0  0  0  0  0  0  0  0  0  0  0
   -5.1478   -0.0558    0.0003 C   0  0  0  0  0  0  0  0  0  0  0  0
    3.9384    0.1950   -0.0002 C   0  0  0  0  0  0  0  0  0  0  0  0
   -3.7762   -0.0173   -0.0001 C   0  0  0  0  0  0  0  0  0  0  0  0
    2.5667    0.1576   -0.0004 C   0  0  0  0  0  0  0  0  0  0  0  0
   -2.5763    0.0161   -0.0006 C   0  0  0  0  0  0  0  0  0  0  0  0
    1.3669    0.1250    0.0000 C   0  0  0  0  0  0  0  0  0  0  0  0
   -1.2047    0.0542   -0.0005 C   0  0  0  0  0  0  0  0  0  0  0  0
   -0.0049    0.0874   -0.0001 C   0  0  0  0  0  0  0  0  0  0  0  0
   -8.1745   -0.9934   -0.5657 H   0  0  0  0  0  0  0  0  0  0  0  0
   -8.1965   -0.2069    1.0210 H   0  0  0  0  0  0  0  0  0  0  0  0
   -8.2245    0.7735   -0.4538 H   0  0  0  0  0  0  0  0  0  0  0  0
    7.0428    1.2422    0.0024 H   0  0  0  0  0  0  0  0  0  0  0  0
    8.3819   -0.7755    0.0007 H   0  0  0  0  0  0  0  0  0  0  0  0
    6.8521   -1.8292   -0.0015 H   0  0  0  0  0  0  0  0  0  0  0  0
  1  3  1  0  0  0  0
  1 14  1  0  0  0  0
  1 15  1  0  0  0  0
  1 16  1  0  0  0  0
  2  4  2  0  0  0  0
  2  5  1  0  0  0  0
  2 17  1  0  0  0  0
  3  6  3  0  0  0  0
  4 18  1  0  0  0  0
  4 19  1  0  0  0  0
  5  7  3  0  0  0  0
  6  8  1  0  0  0  0
  7  9  1  0  0  0  0
  8 10  3  0  0  0  0
  9 11  3  0  0  0  0
 10 12  1  0  0  0  0
 11 13  1  0  0  0  0
 12 13  3  0  0  0  0
M  END
> <PUBCHEM_COMPOUND_CID>
441552

> <PUBCHEM_CONFORMER_RMSD>
0.4

> <PUBCHEM_CONFORMER_DIVERSEORDER>
1

> <PUBCHEM_MMFF94_PARTIAL_CHARGES>
8
1 0.2
17 0.15
18 0.15
19 0.15
2 -0.09
3 -0.2
4 -0.3
5 -0.06

> <PUBCHEM_EFFECTIVE_ROTOR_COUNT>
0

> <PUBCHEM_PHARMACOPHORE_FEATURES>
2
1 1 hydrophobe
1 4 hydrophobe

> <PUBCHEM_HEAVY_ATOM_COUNT>
13

> <PUBCHEM_ATOM_DEF_STEREO_COUNT>
0

> <PUBCHEM_ATOM_UDEF_STEREO_COUNT>
0

> <PUBCHEM_BOND_DEF_STEREO_COUNT>
0

> <PUBCHEM_BOND_UDEF_STEREO_COUNT>
0

> <PUBCHEM_ISOTOPIC_ATOM_COUNT>
0

> <PUBCHEM_COMPONENT_COUNT>
1

> <PUBCHEM_CACTVS_TAUTO_COUNT>
1

> <PUBCHEM_CONFORMER_ID>
0006BCD000000001

> <PUBCHEM_MMFF94_ENERGY>
0.3215

> <PUBCHEM_FEATURE_SELFOVERLAP>
10.149

> <PUBCHEM_SHAPE_FINGERPRINT>
10968037 39 11672063043399927577
12091667 2 18273496772028330309
13533116 47 18340775939618449530
14251764 18 16950278524779939219
14251764 46 18410573985156738890
14729087 3 5256411574425185667
17834076 25 18410856559645077321
18006028 8 18407760335165471917
20281389 69 18187086152584723600
20621476 8 17846219981372890679
22224240 67 5545193922008419020
23035841 295 18186803573611240663
23402539 116 17603591815407295917
23521765 1 18335420166374993733
28498 318 18411702118826546182
33532 11 18341897424341304250
33684 2 18410856568229730667
42788 4 18411700984902419308
8209 1 18410855460128174805

> <PUBCHEM_SHAPE_MULTIPOLES>
267.53
23.45
0.69
0.62
4.16
0.04
0
2.76
0.01
-0.46
0
0
0
0

> <PUBCHEM_SHAPE_SELFOVERLAP>
521.944

> <PUBCHEM_SHAPE_VOLUME>
154.2

> <PUBCHEM_COORDINATE_TYPE>
2
5
10

$$$$

