34280
  -OEChem-07051213132D

 43 44  0     0  0  0  0  0  0999 V2000
    4.3211    0.5466    0.0000 O   0  0  0  0  0  0  0  0  0  0  0  0
    7.7619   -2.8190    0.0000 O   0  0  0  0  0  0  0  0  0  0  0  0
    6.2619   -3.6850    0.0000 O   0  0  0  0  0  0  0  0  0  0  0  0
    4.6783   -1.1482    0.0000 N   0  0  0  0  0  0  0  0  0  0  0  0
    5.9674    0.0085    0.0000 N   0  0  0  0  0  0  0  0  0  0  0  0
    4.6783   -2.7577    0.0000 N   0  0  0  0  0  0  0  0  0  0  0  0
    6.2619   -1.9529    0.0000 N   0  0  0  0  0  0  0  0  0  0  0  0
   10.8134    3.6850    0.0000 N   0  0  0  0  0  0  0  0  0  0  0  0
    7.2566    1.1653    0.0000 C   0  0  0  0  0  0  0  0  0  0  0  0
    7.5673    2.1158    0.0000 C   0  0  0  0  0  0  0  0  0  0  0  0
    6.2781    0.9591    0.0000 C   0  0  0  0  0  0  0  0  0  0  0  0
    8.5458    2.3220    0.0000 C   0  0  0  0  0  0  0  0  0  0  0  0
    3.7320   -1.4529    0.0000 C   0  0  0  0  0  0  0  0  0  0  0  0
    4.9889   -0.1977    0.0000 C   0  0  0  0  0  0  0  0  0  0  0  0
    3.7320   -2.4529    0.0000 C   0  0  0  0  0  0  0  0  0  0  0  0
    5.2619   -1.9529    0.0000 C   0  0  0  0  0  0  0  0  0  0  0  0
    8.8564    3.2725    0.0000 C   0  0  0  0  0  0  0  0  0  0  0  0
    2.8660   -0.9529    0.0000 C   0  0  0  0  0  0  0  0  0  0  0  0
    2.8660   -2.9529    0.0000 C   0  0  0  0  0  0  0  0  0  0  0  0
    2.0000   -1.4529    0.0000 C   0  0  0  0  0  0  0  0  0  0  0  0
    2.0000   -2.4529    0.0000 C   0  0  0  0  0  0  0  0  0  0  0  0
    9.8349    3.4788    0.0000 C   0  0  0  0  0  0  0  0  0  0  0  0
    6.7619   -2.8190    0.0000 C   0  0  0  0  0  0  0  0  0  0  0  0
    8.2619   -3.6850    0.0000 C   0  0  0  0  0  0  0  0  0  0  0  0
    7.2772    0.5456    0.0000 H   0  0  0  0  0  0  0  0  0  0  0  0
    7.8704    1.0779    0.0000 H   0  0  0  0  0  0  0  0  0  0  0  0
    7.5467    2.7355    0.0000 H   0  0  0  0  0  0  0  0  0  0  0  0
    6.9534    2.2032    0.0000 H   0  0  0  0  0  0  0  0  0  0  0  0
    6.2575    1.5787    0.0000 H   0  0  0  0  0  0  0  0  0  0  0  0
    5.6643    1.0464    0.0000 H   0  0  0  0  0  0  0  0  0  0  0  0
    8.5663    1.7024    0.0000 H   0  0  0  0  0  0  0  0  0  0  0  0
    9.1596    2.2347    0.0000 H   0  0  0  0  0  0  0  0  0  0  0  0
    6.3815   -0.4529    0.0000 H   0  0  0  0  0  0  0  0  0  0  0  0
    8.8359    3.8922    0.0000 H   0  0  0  0  0  0  0  0  0  0  0  0
    8.2426    3.3599    0.0000 H   0  0  0  0  0  0  0  0  0  0  0  0
    2.8660   -0.3329    0.0000 H   0  0  0  0  0  0  0  0  0  0  0  0
    2.8660   -3.5729    0.0000 H   0  0  0  0  0  0  0  0  0  0  0  0
    1.4631   -1.1429    0.0000 H   0  0  0  0  0  0  0  0  0  0  0  0
    1.4631   -2.7629    0.0000 H   0  0  0  0  0  0  0  0  0  0  0  0
    6.5719   -1.4160    0.0000 H   0  0  0  0  0  0  0  0  0  0  0  0
    7.7249   -3.9950    0.0000 H   0  0  0  0  0  0  0  0  0  0  0  0
    8.5719   -4.2219    0.0000 H   0  0  0  0  0  0  0  0  0  0  0  0
    8.7988   -3.3750    0.0000 H   0  0  0  0  0  0  0  0  0  0  0  0
  1 14  2  0  0  0  0
  2 23  1  0  0  0  0
  2 24  1  0  0  0  0
  3 23  2  0  0  0  0
  4 13  1  0  0  0  0
  4 14  1  0  0  0  0
  4 16  1  0  0  0  0
  5 11  1  0  0  0  0
  5 14  1  0  0  0  0
  5 33  1  0  0  0  0
  6 15  1  0  0  0  0
  6 16  2  0  0  0  0
  7 16  1  0  0  0  0
  7 23  1  0  0  0  0
  7 40  1  0  0  0  0
  8 22  3  0  0  0  0
  9 10  1  0  0  0  0
  9 11  1  0  0  0  0
  9 25  1  0  0  0  0
  9 26  1  0  0  0  0
 10 12  1  0  0  0  0
 10 27  1  0  0  0  0
 10 28  1  0  0  0  0
 11 29  1  0  0  0  0
 11 30  1  0  0  0  0
 12 17  1  0  0  0  0
 12 31  1  0  0  0  0
 12 32  1  0  0  0  0
 13 15  1  0  0  0  0
 13 18  2  0  0  0  0
 15 19  2  0  0  0  0
 17 22  1  0  0  0  0
 17 34  1  0  0  0  0
 17 35  1  0  0  0  0
 18 20  1  0  0  0  0
 18 36  1  0  0  0  0
 19 21  1  0  0  0  0
 19 37  1  0  0  0  0
 20 21  2  0  0  0  0
 20 38  1  0  0  0  0
 21 39  1  0  0  0  0
 24 41  1  0  0  0  0
 24 42  1  0  0  0  0
 24 43  1  0  0  0  0
M  END
> <PUBCHEM_COMPOUND_CID>
34280

> <PUBCHEM_COMPOUND_CANONICALIZED>
1

> <PUBCHEM_CACTVS_COMPLEXITY>
489

> <PUBCHEM_CACTVS_HBOND_ACCEPTOR>
5

> <PUBCHEM_CACTVS_HBOND_DONOR>
2

> <PUBCHEM_CACTVS_ROTATABLE_BOND>
7

> <PUBCHEM_CACTVS_SUBSKEYS>
AAADceB7sAAAAAAAAAAAAAAAAAAAAWAAAAAwAAAAAAAAAFgB8AAAHgAQAAAACAjBFgYz2LfMFAC4BSRifACCgC0hEqAJmKA4dJmI6KLAmZGUIAholwJIyC8QAAAAAAAAAAAAACAAAAAAAAAAQAAAAAAAAA==

> <PUBCHEM_IUPAC_OPENEYE_NAME>
methyl N-[1-(5-cyanopentylcarbamoyl)benzimidazol-2-yl]carbamate

> <PUBCHEM_IUPAC_CAS_NAME>
N-[1-[(5-cyanopentylamino)-oxomethyl]-2-benzimidazolyl]carbamic acid methyl ester

> <PUBCHEM_IUPAC_NAME>
methyl N-[1-(5-cyanopentylcarbamoyl)benzimidazol-2-yl]carbamate

> <PUBCHEM_IUPAC_SYSTEMATIC_NAME>
methyl N-[1-(5-cyanopentylcarbamoyl)benzimidazol-2-yl]carbamate

> <PUBCHEM_IUPAC_TRADITIONAL_NAME>
N-[1-(5-cyanopentylcarbamoyl)benzimidazol-2-yl]carbamic acid methyl ester

> <PUBCHEM_IUPAC_INCHI>
InChI=1S/C16H19N5O3/c1-24-16(23)20-14-19-12-8-4-5-9-13(12)21(14)15(22)18-11-7-3-2-6-10-17/h4-5,8-9H,2-3,6-7,11H2,1H3,(H,18,22)(H,19,20,23)

> <PUBCHEM_IUPAC_INCHIKEY>
MKZGVGOBXZJKGV-UHFFFAOYSA-N

> <PUBCHEM_XLOGP3>
1.6

> <PUBCHEM_EXACT_MASS>
329.148789

> <PUBCHEM_MOLECULAR_FORMULA>
C16H19N5O3

> <PUBCHEM_MOLECULAR_WEIGHT>
329.35376

> <PUBCHEM_OPENEYE_CAN_SMILES>
COC(=O)NC1=NC2=CC=CC=C2N1C(=O)NCCCCCC#N

> <PUBCHEM_OPENEYE_ISO_SMILES>
COC(=O)NC1=NC2=CC=CC=C2N1C(=O)NCCCCCC#N

> <PUBCHEM_CACTVS_TPSA>
109

> <PUBCHEM_MONOISOTOPIC_WEIGHT>
329.148789

> <PUBCHEM_TOTAL_CHARGE>
0

> <PUBCHEM_HEAVY_ATOM_COUNT>
24

> <PUBCHEM_ATOM_DEF_STEREO_COUNT>
0

> <PUBCHEM_ATOM_UDEF_STEREO_COUNT>
0

> <PUBCHEM_BOND_DEF_STEREO_COUNT>
0

> <PUBCHEM_BOND_UDEF_STEREO_COUNT>
0

> <PUBCHEM_ISOTOPIC_ATOM_COUNT>
0

> <PUBCHEM_COMPONENT_COUNT>
1

> <PUBCHEM_CACTVS_TAUTO_COUNT>
6

> <PUBCHEM_COORDINATE_TYPE>
1
5
255

> <PUBCHEM_BONDANNOTATIONS>
13  15  8
13  18  8
15  19  8
18  20  8
19  21  8
20  21  8
4  13  8
4  16  8
6  15  8
6  16  8

$$$$

