440399
  -OEChem-07051212492D

 19 19  0     1  0  0  0  0  0999 V2000
    4.2690    1.3450    0.0000 O   0  0  0  0  0  0  0  0  0  0  0  0
    2.5369    0.3450    0.0000 O   0  0  0  0  0  0  0  0  0  0  0  0
    4.2690    0.3450    0.0000 C   0  0  1  0  0  0  0  0  0  0  0  0
    3.4030   -0.1550    0.0000 C   0  0  2  0  0  0  0  0  0  0  0  0
    5.1350   -0.1550    0.0000 C   0  0  0  0  0  0  0  0  0  0  0  0
    3.4030   -1.1550    0.0000 C   0  0  0  0  0  0  0  0  0  0  0  0
    5.1350   -1.1550    0.0000 C   0  0  0  0  0  0  0  0  0  0  0  0
    4.2690   -1.6550    0.0000 C   0  0  0  0  0  0  0  0  0  0  0  0
    6.0010    0.3450    0.0000 C   0  0  0  0  0  0  0  0  0  0  0  0
    4.8059    0.6550    0.0000 H   0  0  0  0  0  0  0  0  0  0  0  0
    3.4030    0.4650    0.0000 H   0  0  0  0  0  0  0  0  0  0  0  0
    2.8660   -1.4650    0.0000 H   0  0  0  0  0  0  0  0  0  0  0  0
    5.6720   -1.4650    0.0000 H   0  0  0  0  0  0  0  0  0  0  0  0
    4.2690   -2.2750    0.0000 H   0  0  0  0  0  0  0  0  0  0  0  0
    6.3110   -0.1919    0.0000 H   0  0  0  0  0  0  0  0  0  0  0  0
    6.5380    0.6550    0.0000 H   0  0  0  0  0  0  0  0  0  0  0  0
    5.6910    0.8819    0.0000 H   0  0  0  0  0  0  0  0  0  0  0  0
    4.8059    1.6550    0.0000 H   0  0  0  0  0  0  0  0  0  0  0  0
    2.0000    0.0350    0.0000 H   0  0  0  0  0  0  0  0  0  0  0  0
  3  1  1  6  0  0  0
  1 18  1  0  0  0  0
  4  2  1  6  0  0  0
  2 19  1  0  0  0  0
  3  4  1  0  0  0  0
  3  5  1  0  0  0  0
  3 10  1  0  0  0  0
  4  6  1  0  0  0  0
  4 11  1  0  0  0  0
  5  7  2  0  0  0  0
  5  9  1  0  0  0  0
  6  8  2  0  0  0  0
  6 12  1  0  0  0  0
  7  8  1  0  0  0  0
  7 13  1  0  0  0  0
  8 14  1  0  0  0  0
  9 15  1  0  0  0  0
  9 16  1  0  0  0  0
  9 17  1  0  0  0  0
M  END
> <PUBCHEM_COMPOUND_CID>
440399

> <PUBCHEM_COMPOUND_CANONICALIZED>
1

> <PUBCHEM_CACTVS_COMPLEXITY>
158

> <PUBCHEM_CACTVS_HBOND_ACCEPTOR>
2

> <PUBCHEM_CACTVS_HBOND_DONOR>
2

> <PUBCHEM_CACTVS_ROTATABLE_BOND>
0

> <PUBCHEM_CACTVS_SUBSKEYS>
AAADccBgMAAAAAAAAAAAAAAAAAAAAAAAAAAgAAAAAAAAAAAAAAAAGgAACAAADBSggAICAAAAAgCAAiBCAAAAAAAgAAAICAAAAAgJFAIAAQAAUAAEwAAJkAIAAAAAAAAAAAAAAAAAAAAAAAAAAAAAAAAAAA==

> <PUBCHEM_IUPAC_OPENEYE_NAME>
(1S,2R)-3-methylcyclohexa-3,5-diene-1,2-diol

> <PUBCHEM_IUPAC_CAS_NAME>
(1S,2R)-3-methylcyclohexa-3,5-diene-1,2-diol

> <PUBCHEM_IUPAC_NAME>
(1S,2R)-3-methylcyclohexa-3,5-diene-1,2-diol

> <PUBCHEM_IUPAC_SYSTEMATIC_NAME>
(1S,2R)-3-methylcyclohexa-3,5-diene-1,2-diol

> <PUBCHEM_IUPAC_TRADITIONAL_NAME>
(1S,2R)-3-methylcyclohexa-3,5-diene-1,2-diol

> <PUBCHEM_IUPAC_INCHI>
InChI=1S/C7H10O2/c1-5-3-2-4-6(8)7(5)9/h2-4,6-9H,1H3/t6-,7+/m0/s1

> <PUBCHEM_IUPAC_INCHIKEY>
FTZZKLFGNQOODA-NKWVEPMBSA-N

> <PUBCHEM_XLOGP3_AA>
-0.1

> <PUBCHEM_EXACT_MASS>
126.06808

> <PUBCHEM_MOLECULAR_FORMULA>
C7H10O2

> <PUBCHEM_MOLECULAR_WEIGHT>
126.1531

> <PUBCHEM_OPENEYE_CAN_SMILES>
CC1=CC=CC(C1O)O

> <PUBCHEM_OPENEYE_ISO_SMILES>
CC1=CC=C[C@@H]([C@@H]1O)O

> <PUBCHEM_CACTVS_TPSA>
40.5

> <PUBCHEM_MONOISOTOPIC_WEIGHT>
126.06808

> <PUBCHEM_TOTAL_CHARGE>
0

> <PUBCHEM_HEAVY_ATOM_COUNT>
9

> <PUBCHEM_ATOM_DEF_STEREO_COUNT>
2

> <PUBCHEM_ATOM_UDEF_STEREO_COUNT>
0

> <PUBCHEM_BOND_DEF_STEREO_COUNT>
0

> <PUBCHEM_BOND_UDEF_STEREO_COUNT>
0

> <PUBCHEM_ISOTOPIC_ATOM_COUNT>
0

> <PUBCHEM_COMPONENT_COUNT>
1

> <PUBCHEM_CACTVS_TAUTO_COUNT>
1

> <PUBCHEM_COORDINATE_TYPE>
1
5
255

> <PUBCHEM_BONDANNOTATIONS>
3  1  6
4  2  6

$$$$

