14375
  -OEChem-06241222433D

 35 35  0     1  0  0  0  0  0999 V2000
    1.6981   -4.1826   -0.2382 Cl  0  0  0  0  0  0  0  0  0  0  0  0
    4.5586   -0.0127    1.4549 F   0  0  0  0  0  0  0  0  0  0  0  0
   -5.4381   -1.1741   -0.8012 O   0  0  0  0  0  0  0  0  0  0  0  0
   -5.0300   -0.4358    1.3077 O   0  0  0  0  0  0  0  0  0  0  0  0
    2.3091   -0.1908   -0.1941 N   0  0  3  0  0  0  0  0  0  0  0  0
    1.1831    0.6587   -0.2051 C   0  0  0  0  0  0  0  0  0  0  0  0
    2.1979   -1.5503    0.2960 C   0  0  0  0  0  0  0  0  0  0  0  0
    3.5950    0.2890   -0.6597 C   0  0  0  0  0  0  0  0  0  0  0  0
   -1.1636    1.0289    0.2343 C   0  0  0  0  0  0  0  0  0  0  0  0
   -0.0505    0.1882    0.2451 C   0  0  0  0  0  0  0  0  0  0  0  0
   -2.4827    0.5263    0.7149 C   0  0  0  0  0  0  0  0  0  0  0  0
    1.3034    1.9697   -0.6661 C   0  0  0  0  0  0  0  0  0  0  0  0
   -1.0431    2.3399   -0.2267 C   0  0  0  0  0  0  0  0  0  0  0  0
   -3.3393   -0.1098   -0.3864 C   0  0  0  0  0  0  0  0  0  0  0  0
    0.1904    2.8103   -0.6769 C   0  0  0  0  0  0  0  0  0  0  0  0
    1.8274   -2.5063   -0.8270 C   0  0  0  0  0  0  0  0  0  0  0  0
    4.3605    0.9208    0.4852 C   0  0  0  0  0  0  0  0  0  0  0  0
   -4.6762   -0.5694    0.1432 C   0  0  0  0  0  0  0  0  0  0  0  0
    1.5402   -1.6466    1.1668 H   0  0  0  0  0  0  0  0  0  0  0  0
    3.1756   -1.8659    0.6858 H   0  0  0  0  0  0  0  0  0  0  0  0
    3.5339    0.9464   -1.5324 H   0  0  0  0  0  0  0  0  0  0  0  0
    4.1807   -0.5708   -1.0114 H   0  0  0  0  0  0  0  0  0  0  0  0
   -0.2046   -0.8277    0.5919 H   0  0  0  0  0  0  0  0  0  0  0  0
   -2.3263   -0.1981    1.5259 H   0  0  0  0  0  0  0  0  0  0  0  0
   -3.0359    1.3525    1.1823 H   0  0  0  0  0  0  0  0  0  0  0  0
    2.2344    2.4041   -1.0120 H   0  0  0  0  0  0  0  0  0  0  0  0
   -1.9030    3.0044   -0.2413 H   0  0  0  0  0  0  0  0  0  0  0  0
   -3.5216    0.6152   -1.1878 H   0  0  0  0  0  0  0  0  0  0  0  0
   -2.8202   -0.9774   -0.8093 H   0  0  0  0  0  0  0  0  0  0  0  0
    0.2840    3.8326   -1.0321 H   0  0  0  0  0  0  0  0  0  0  0  0
    0.8646   -2.2456   -1.2765 H   0  0  0  0  0  0  0  0  0  0  0  0
    2.5803   -2.4945   -1.6215 H   0  0  0  0  0  0  0  0  0  0  0  0
    5.3427    1.2670    0.1513 H   0  0  0  0  0  0  0  0  0  0  0  0
    3.8262    1.7620    0.9354 H   0  0  0  0  0  0  0  0  0  0  0  0
   -6.2975   -1.4784   -0.4390 H   0  0  0  0  0  0  0  0  0  0  0  0
  1 16  1  0  0  0  0
  2 17  1  0  0  0  0
  3 18  1  0  0  0  0
  3 35  1  0  0  0  0
  4 18  2  0  0  0  0
  5  6  1  0  0  0  0
  5  7  1  0  0  0  0
  5  8  1  0  0  0  0
  6 10  1  0  0  0  0
  6 12  2  0  0  0  0
  7 16  1  0  0  0  0
  7 19  1  0  0  0  0
  7 20  1  0  0  0  0
  8 17  1  0  0  0  0
  8 21  1  0  0  0  0
  8 22  1  0  0  0  0
  9 10  2  0  0  0  0
  9 11  1  0  0  0  0
  9 13  1  0  0  0  0
 10 23  1  0  0  0  0
 11 14  1  0  0  0  0
 11 24  1  0  0  0  0
 11 25  1  0  0  0  0
 12 15  1  0  0  0  0
 12 26  1  0  0  0  0
 13 15  2  0  0  0  0
 13 27  1  0  0  0  0
 14 18  1  0  0  0  0
 14 28  1  0  0  0  0
 14 29  1  0  0  0  0
 15 30  1  0  0  0  0
 16 31  1  0  0  0  0
 16 32  1  0  0  0  0
 17 33  1  0  0  0  0
 17 34  1  0  0  0  0
M  END
> <PUBCHEM_COMPOUND_CID>
14375

> <PUBCHEM_CONFORMER_RMSD>
0.8

> <PUBCHEM_CONFORMER_DIVERSEORDER>
16
158
5
140
84
142
198
116
225
54
81
207
218
182
104
161
187
175
91
209
93
62
185
146
136
79
154
119
180
122
215
121
184
55
101
35
147
100
164
57
220
211
44
166
204
61
199
12
31
150
181
102
85
47
160
135
131
183
226
124
163
74
96
186
194
109
51
221
39
210
196
178
103
10
208
11
83
200
149
97
190
129
71
139
157
128
111
222
125
213
137
80
206
22
152
105
168
110
37
202
59
144
70
132
120
159
115
169
13
145
205
188
176
29
41
153
52
143
82
28
192
98
33
49
4
195
90
48
127
107
117
53
72
92
162
88
17
65
73
30
141
201
38
165
189
36
112
32
123
78
212
89
20
167
46
191
108
148
173
60
179
227
151
106
42
118
219
171
15
68
8
170
99
45
75
67
126
1
94
86
21
197
14
58
40
87
155
224
7
77
133
43
2
23
172
138
214
69
216
177
3
24
95
9
193
130
18
27
114
6
26
25
56
64
63
76
134
174
203
34
156
50
113
217
66
19
223

> <PUBCHEM_MMFF94_PARTIAL_CHARGES>
23
1 -0.29
10 -0.15
11 0.14
12 -0.15
13 -0.15
14 0.06
15 -0.15
16 0.29
17 0.34
18 0.66
2 -0.34
23 0.15
26 0.15
27 0.15
3 -0.65
30 0.15
35 0.5
4 -0.57
5 -0.84
6 0.1
7 0.37
8 0.37
9 -0.14

> <PUBCHEM_EFFECTIVE_ROTOR_COUNT>
8

> <PUBCHEM_PHARMACOPHORE_FEATURES>
5
1 3 acceptor
1 4 acceptor
1 5 cation
3 3 4 18 anion
6 6 9 10 12 13 15 rings

> <PUBCHEM_HEAVY_ATOM_COUNT>
18

> <PUBCHEM_ATOM_DEF_STEREO_COUNT>
0

> <PUBCHEM_ATOM_UDEF_STEREO_COUNT>
0

> <PUBCHEM_BOND_DEF_STEREO_COUNT>
0

> <PUBCHEM_BOND_UDEF_STEREO_COUNT>
0

> <PUBCHEM_ISOTOPIC_ATOM_COUNT>
0

> <PUBCHEM_COMPONENT_COUNT>
1

> <PUBCHEM_CACTVS_TAUTO_COUNT>
1

> <PUBCHEM_CONFORMER_ID>
0000382700000010

> <PUBCHEM_MMFF94_ENERGY>
46.4177

> <PUBCHEM_FEATURE_SELFOVERLAP>
25.43

> <PUBCHEM_SHAPE_FINGERPRINT>
10906281 52 18129642158701003240
11796584 16 16271934800264380049
11806522 49 18410855438764517345
12553582 1 18341597227285008929
12596602 18 17022899026264954875
12839892 36 18338253647112131298
13083527 12 18057059093074275178
13140716 1 18193276291015553032
13862211 1 18341899571339025386
14178342 30 18265897045888113360
14252887 29 18410003364386517363
14787075 74 17604718746359692200
14863182 85 18340756096690070270
15422964 175 18341049726165382309
20028762 73 18115591435322470318
20645477 70 18271804563166043793
20871998 22 18339634654758651565
21285901 2 17917997204604661503
22079108 93 17458920232210308152
22224240 67 18187092706878455408
2255824 54 18267857285994105933
23402539 116 18201727270494046328
23559900 14 18051420857597316748
2748010 2 17982727777556485268
2871803 45 18412259570947548054
33824 294 18410009944561543522
465052 167 18060417993659151216
474229 33 18411983538242793506
4990 188 11743843568502044113
81228 2 17842824788166845592
9709674 26 18270672190158281187

> <PUBCHEM_SHAPE_MULTIPOLES>
348.31
9.15
3.5
0.97
9.33
3.12
0.14
3.07
1.73
-2.46
-0.94
-0.07
0.02
0.15

> <PUBCHEM_SHAPE_SELFOVERLAP>
693.413

> <PUBCHEM_SHAPE_VOLUME>
207.2

> <PUBCHEM_COORDINATE_TYPE>
2
5
10

$$$$

