656737
  -OEChem-07051213043D

 45 44  0     1  0  0  0  0  0999 V2000
   -5.9440   -1.0446   -1.2264 O   0  0  0  0  0  0  0  0  0  0  0  0
   -6.0065    1.5192    1.2981 O   0  0  0  0  0  0  0  0  0  0  0  0
   -6.1701    1.6251   -0.9631 O   0  0  0  0  0  0  0  0  0  0  0  0
    0.5992   -0.6477    0.3474 C   0  0  0  0  0  0  0  0  0  0  0  0
    1.8443   -0.0991   -0.3598 C   0  0  0  0  0  0  0  0  0  0  0  0
   -0.7513   -0.2619   -0.2575 C   0  0  0  0  0  0  0  0  0  0  0  0
    3.1774   -0.5630    0.2414 C   0  0  0  0  0  0  0  0  0  0  0  0
   -1.9440   -0.8406    0.5071 C   0  0  0  0  0  0  0  0  0  0  0  0
    4.3932    0.1301   -0.3810 C   0  0  0  0  0  0  0  0  0  0  0  0
    5.7198   -0.2453    0.2900 C   0  0  0  0  0  0  0  0  0  0  0  0
   -3.2694   -0.4010   -0.1214 C   0  0  0  0  0  0  0  0  0  0  0  0
    6.9302    0.4806   -0.3035 C   0  0  0  0  0  0  0  0  0  0  0  0
   -4.4655   -0.9483    0.6689 C   0  0  0  0  0  0  0  0  0  0  0  0
    8.2601    0.0490    0.3207 C   0  0  0  0  0  0  0  0  0  0  0  0
   -5.8233   -0.5363    0.0937 C   0  0  1  0  0  0  0  0  0  0  0  0
    9.4609    0.8156   -0.2118 C   0  0  0  0  0  0  0  0  0  0  0  0
   -6.0109    0.9679    0.0574 C   0  0  0  0  0  0  0  0  0  0  0  0
    0.6225   -0.3184    1.3941 H   0  0  0  0  0  0  0  0  0  0  0  0
    0.6695   -1.7428    0.3694 H   0  0  0  0  0  0  0  0  0  0  0  0
    1.8004    0.9969   -0.3349 H   0  0  0  0  0  0  0  0  0  0  0  0
    1.8128   -0.3893   -1.4172 H   0  0  0  0  0  0  0  0  0  0  0  0
   -0.7868   -0.6031   -1.2994 H   0  0  0  0  0  0  0  0  0  0  0  0
   -0.8294    0.8321   -0.2800 H   0  0  0  0  0  0  0  0  0  0  0  0
    3.1676   -0.3621    1.3198 H   0  0  0  0  0  0  0  0  0  0  0  0
    3.2723   -1.6488    0.1218 H   0  0  0  0  0  0  0  0  0  0  0  0
   -1.8815   -1.9353    0.5122 H   0  0  0  0  0  0  0  0  0  0  0  0
   -1.9035   -0.5083    1.5515 H   0  0  0  0  0  0  0  0  0  0  0  0
    4.4426   -0.1181   -1.4483 H   0  0  0  0  0  0  0  0  0  0  0  0
    4.2596    1.2171   -0.3148 H   0  0  0  0  0  0  0  0  0  0  0  0
    5.8687   -1.3284    0.2010 H   0  0  0  0  0  0  0  0  0  0  0  0
    5.6587   -0.0212    1.3621 H   0  0  0  0  0  0  0  0  0  0  0  0
   -3.3144   -0.7518   -1.1592 H   0  0  0  0  0  0  0  0  0  0  0  0
   -3.3085    0.6941   -0.1472 H   0  0  0  0  0  0  0  0  0  0  0  0
    6.9676    0.2990   -1.3847 H   0  0  0  0  0  0  0  0  0  0  0  0
    6.8004    1.5615   -0.1684 H   0  0  0  0  0  0  0  0  0  0  0  0
   -4.3924   -0.6167    1.7117 H   0  0  0  0  0  0  0  0  0  0  0  0
   -4.4042   -2.0440    0.6712 H   0  0  0  0  0  0  0  0  0  0  0  0
    8.4138   -1.0219    0.1421 H   0  0  0  0  0  0  0  0  0  0  0  0
    8.2110    0.1856    1.4077 H   0  0  0  0  0  0  0  0  0  0  0  0
   -6.6325   -0.9709    0.6909 H   0  0  0  0  0  0  0  0  0  0  0  0
   10.3799    0.4647    0.2678 H   0  0  0  0  0  0  0  0  0  0  0  0
    9.3594    1.8871   -0.0125 H   0  0  0  0  0  0  0  0  0  0  0  0
    9.5645    0.6755   -1.2925 H   0  0  0  0  0  0  0  0  0  0  0  0
   -6.8548   -0.8765   -1.5232 H   0  0  0  0  0  0  0  0  0  0  0  0
   -6.1372    2.4909    1.2669 H   0  0  0  0  0  0  0  0  0  0  0  0
  1 15  1  0  0  0  0
  1 44  1  0  0  0  0
  2 17  1  0  0  0  0
  2 45  1  0  0  0  0
  3 17  2  0  0  0  0
  4  5  1  0  0  0  0
  4  6  1  0  0  0  0
  4 18  1  0  0  0  0
  4 19  1  0  0  0  0
  5  7  1  0  0  0  0
  5 20  1  0  0  0  0
  5 21  1  0  0  0  0
  6  8  1  0  0  0  0
  6 22  1  0  0  0  0
  6 23  1  0  0  0  0
  7  9  1  0  0  0  0
  7 24  1  0  0  0  0
  7 25  1  0  0  0  0
  8 11  1  0  0  0  0
  8 26  1  0  0  0  0
  8 27  1  0  0  0  0
  9 10  1  0  0  0  0
  9 28  1  0  0  0  0
  9 29  1  0  0  0  0
 10 12  1  0  0  0  0
 10 30  1  0  0  0  0
 10 31  1  0  0  0  0
 11 13  1  0  0  0  0
 11 32  1  0  0  0  0
 11 33  1  0  0  0  0
 12 14  1  0  0  0  0
 12 34  1  0  0  0  0
 12 35  1  0  0  0  0
 13 15  1  0  0  0  0
 13 36  1  0  0  0  0
 13 37  1  0  0  0  0
 14 16  1  0  0  0  0
 14 38  1  0  0  0  0
 14 39  1  0  0  0  0
 15 17  1  0  0  0  0
 15 40  1  0  0  0  0
 16 41  1  0  0  0  0
 16 42  1  0  0  0  0
 16 43  1  0  0  0  0
M  END
> <PUBCHEM_COMPOUND_CID>
656737

> <PUBCHEM_CONFORMER_RMSD>
1.2

> <PUBCHEM_CONFORMER_DIVERSEORDER>
1
538
362
465
472
495
33
16
62
54
59
375
517
17
124
552
159
150
183
555
550
125
255
3
7
339
77
293
75
527
467
53
453
19
78
66
288
215
57
513
97
12
428
309
213
163
412
295
346
446
72
6
188
167
20
93
277
282
139
565
464
204
300
171
212
336
196
143
55
539
2
396
402
230
243
202
192
433
157
21
296
326
103
413
271
276
542
41
578
587
383
11
340
203
224
43
102
343
558
81
459
524
473
318
25
571
35
582
87
596
531
556
261
38
304
320
431
503
419
184
56
515
207
445
4
27
471
410
233
377
131
151
483
311
49
421
345
244
240
14
149
337
209
390
22
551
569
269
570

> <PUBCHEM_MMFF94_PARTIAL_CHARGES>
7
1 -0.68
15 0.34
17 0.66
2 -0.65
3 -0.57
44 0.4
45 0.5

> <PUBCHEM_EFFECTIVE_ROTOR_COUNT>
12

> <PUBCHEM_PHARMACOPHORE_FEATURES>
6
1 1 acceptor
1 1 donor
1 16 hydrophobe
1 2 acceptor
1 3 acceptor
3 2 3 17 anion

> <PUBCHEM_HEAVY_ATOM_COUNT>
17

> <PUBCHEM_ATOM_DEF_STEREO_COUNT>
1

> <PUBCHEM_ATOM_UDEF_STEREO_COUNT>
0

> <PUBCHEM_BOND_DEF_STEREO_COUNT>
0

> <PUBCHEM_BOND_UDEF_STEREO_COUNT>
0

> <PUBCHEM_ISOTOPIC_ATOM_COUNT>
0

> <PUBCHEM_COMPONENT_COUNT>
1

> <PUBCHEM_CACTVS_TAUTO_COUNT>
1

> <PUBCHEM_CONFORMER_ID>
000A056100000001

> <PUBCHEM_MMFF94_ENERGY>
0.527

> <PUBCHEM_FEATURE_SELFOVERLAP>
30.512

> <PUBCHEM_SHAPE_FINGERPRINT>
11315181 36 18408604756375149499
12091667 2 18261109660749628963
125118 31 18342455916429889068
13288520 33 7709451724688149667
13533116 47 18341619265311377282
14123256 10 14562527375796889102
14251764 18 17918276459294262968
14251764 46 11671784862410068315
14428016 248 17203601576726398732
14729087 3 18410012143537105552
155225 1 18410011083609176433
15716309 27 10015577312115469603
17093844 174 18201718444921543059
195137 175 18342733006023061212
20621476 8 18342454864162388390
21095123 145 16056584439810289722
21150785 3 14417852544887129088
21304253 13 18059856143202196380
22224240 67 17846782880525533698
23035841 295 9151174251153329530
23402539 116 18334860519937290455
23521765 1 18335420154360627322
246663 6 11527950063158827496
28498 318 18333447669513935638
33532 11 9078847273205430324
33684 2 15626227900712655594
4325135 7 6411296823520095569
8209 1 13840261486420309866

> <PUBCHEM_SHAPE_MULTIPOLES>
332.24
28.68
1.16
0.88
37.64
0.33
0.01
8.94
-0.14
-1.97
0.04
-1.12
0.08
-0.5

> <PUBCHEM_SHAPE_SELFOVERLAP>
608.151

> <PUBCHEM_SHAPE_VOLUME>
210.5

> <PUBCHEM_COORDINATE_TYPE>
2
5
10

$$$$

