10254
  -OEChem-06261204242D

 23 23  0     0  0  0  0  0  0999 V2000
    4.5981    2.2500    0.0000 O   0  0  0  0  0  0  0  0  0  0  0  0
    4.5981    0.2500    0.0000 C   0  0  0  0  0  0  0  0  0  0  0  0
    2.8660    0.2500    0.0000 C   0  0  0  0  0  0  0  0  0  0  0  0
    3.7320    0.7500    0.0000 C   0  0  0  0  0  0  0  0  0  0  0  0
    3.7320   -1.2500    0.0000 C   0  0  0  0  0  0  0  0  0  0  0  0
    4.5981   -0.7500    0.0000 C   0  0  0  0  0  0  0  0  0  0  0  0
    2.8660   -0.7500    0.0000 C   0  0  0  0  0  0  0  0  0  0  0  0
    5.4641    0.7500    0.0000 C   0  0  0  0  0  0  0  0  0  0  0  0
    2.0000    0.7500    0.0000 C   0  0  0  0  0  0  0  0  0  0  0  0
    3.7320   -2.2500    0.0000 C   0  0  0  0  0  0  0  0  0  0  0  0
    3.7320    1.7500    0.0000 C   0  0  0  0  0  0  0  0  0  0  0  0
    5.1350   -1.0600    0.0000 H   0  0  0  0  0  0  0  0  0  0  0  0
    2.3291   -1.0600    0.0000 H   0  0  0  0  0  0  0  0  0  0  0  0
    5.7741    0.2131    0.0000 H   0  0  0  0  0  0  0  0  0  0  0  0
    6.0010    1.0600    0.0000 H   0  0  0  0  0  0  0  0  0  0  0  0
    5.1541    1.2869    0.0000 H   0  0  0  0  0  0  0  0  0  0  0  0
    2.3100    1.2869    0.0000 H   0  0  0  0  0  0  0  0  0  0  0  0
    1.4631    1.0600    0.0000 H   0  0  0  0  0  0  0  0  0  0  0  0
    1.6900    0.2131    0.0000 H   0  0  0  0  0  0  0  0  0  0  0  0
    3.1120   -2.2500    0.0000 H   0  0  0  0  0  0  0  0  0  0  0  0
    3.7320   -2.8700    0.0000 H   0  0  0  0  0  0  0  0  0  0  0  0
    4.3520   -2.2500    0.0000 H   0  0  0  0  0  0  0  0  0  0  0  0
    3.1951    2.0600    0.0000 H   0  0  0  0  0  0  0  0  0  0  0  0
  1 11  2  0  0  0  0
  2  4  2  0  0  0  0
  2  6  1  0  0  0  0
  2  8  1  0  0  0  0
  3  4  1  0  0  0  0
  3  7  2  0  0  0  0
  3  9  1  0  0  0  0
  4 11  1  0  0  0  0
  5  6  2  0  0  0  0
  5  7  1  0  0  0  0
  5 10  1  0  0  0  0
  6 12  1  0  0  0  0
  7 13  1  0  0  0  0
  8 14  1  0  0  0  0
  8 15  1  0  0  0  0
  8 16  1  0  0  0  0
  9 17  1  0  0  0  0
  9 18  1  0  0  0  0
  9 19  1  0  0  0  0
 10 20  1  0  0  0  0
 10 21  1  0  0  0  0
 10 22  1  0  0  0  0
 11 23  1  0  0  0  0
M  END
> <PUBCHEM_COMPOUND_CID>
10254

> <PUBCHEM_COMPOUND_CANONICALIZED>
1

> <PUBCHEM_CACTVS_COMPLEXITY>
130

> <PUBCHEM_CACTVS_HBOND_ACCEPTOR>
1

> <PUBCHEM_CACTVS_HBOND_DONOR>
0

> <PUBCHEM_CACTVS_ROTATABLE_BOND>
1

> <PUBCHEM_CACTVS_SUBSKEYS>
AAADccBwIAAAAAAAAAAAAAAAAAAAAAAAAAAwAAAAAAAAAAABAAAAGgAAAAAADACgmAIyAIAAAACIAihSgAACAAAkAAAAiAEAAMgIIDKAFRCAIQAggAAIiQcIiMCOwAACAAAQAACAAAQAACAAAAAAAAAAAA==

> <PUBCHEM_IUPAC_OPENEYE_NAME>
2,4,6-trimethylbenzaldehyde

> <PUBCHEM_IUPAC_CAS_NAME>
2,4,6-trimethylbenzaldehyde

> <PUBCHEM_IUPAC_NAME>
2,4,6-trimethylbenzaldehyde

> <PUBCHEM_IUPAC_SYSTEMATIC_NAME>
2,4,6-trimethylbenzaldehyde

> <PUBCHEM_IUPAC_TRADITIONAL_NAME>
2,4,6-trimethylbenzaldehyde

> <PUBCHEM_IUPAC_INCHI>
InChI=1S/C10H12O/c1-7-4-8(2)10(6-11)9(3)5-7/h4-6H,1-3H3

> <PUBCHEM_IUPAC_INCHIKEY>
HIKRJHFHGKZKRI-UHFFFAOYSA-N

> <PUBCHEM_XLOGP3_AA>
2.5

> <PUBCHEM_EXACT_MASS>
148.088815

> <PUBCHEM_MOLECULAR_FORMULA>
C10H12O

> <PUBCHEM_MOLECULAR_WEIGHT>
148.20168

> <PUBCHEM_OPENEYE_CAN_SMILES>
CC1=CC(=C(C(=C1)C)C=O)C

> <PUBCHEM_OPENEYE_ISO_SMILES>
CC1=CC(=C(C(=C1)C)C=O)C

> <PUBCHEM_CACTVS_TPSA>
17.1

> <PUBCHEM_MONOISOTOPIC_WEIGHT>
148.088815

> <PUBCHEM_TOTAL_CHARGE>
0

> <PUBCHEM_HEAVY_ATOM_COUNT>
11

> <PUBCHEM_ATOM_DEF_STEREO_COUNT>
0

> <PUBCHEM_ATOM_UDEF_STEREO_COUNT>
0

> <PUBCHEM_BOND_DEF_STEREO_COUNT>
0

> <PUBCHEM_BOND_UDEF_STEREO_COUNT>
0

> <PUBCHEM_ISOTOPIC_ATOM_COUNT>
0

> <PUBCHEM_COMPONENT_COUNT>
1

> <PUBCHEM_CACTVS_TAUTO_COUNT>
4

> <PUBCHEM_COORDINATE_TYPE>
1
5
255

> <PUBCHEM_BONDANNOTATIONS>
2  4  8
2  6  8
3  4  8
3  7  8
5  6  8
5  7  8

$$$$

