9543288
  -OEChem-07051213113D

 28 32  0     1  0  0  0  0  0999 V2000
    3.5613    1.0799   -0.8975 O   0  0  0  0  0  0  0  0  0  0  0  0
   -3.7702    1.8155   -0.0629 O   0  0  0  0  0  0  0  0  0  0  0  0
    2.7841    1.3762    0.2728 C   0  0  2  0  0  0  0  0  0  0  0  0
    3.6226    0.1162    0.1649 C   0  0  1  0  0  0  0  0  0  0  0  0
    1.2884    1.2227    0.1745 C   0  0  0  0  0  0  0  0  0  0  0  0
    0.7026   -0.0608    0.1034 C   0  0  0  0  0  0  0  0  0  0  0  0
    2.8920   -1.1612    0.1201 C   0  0  0  0  0  0  0  0  0  0  0  0
    1.5497   -1.2898    0.0933 C   0  0  0  0  0  0  0  0  0  0  0  0
   -0.7010   -0.2322    0.0318 C   0  0  0  0  0  0  0  0  0  0  0  0
    0.4364    2.3335    0.1596 C   0  0  0  0  0  0  0  0  0  0  0  0
   -1.5338    0.9081    0.0219 C   0  0  0  0  0  0  0  0  0  0  0  0
   -1.2840   -1.5217   -0.0295 C   0  0  0  0  0  0  0  0  0  0  0  0
    0.9139   -2.5983    0.0405 C   0  0  0  0  0  0  0  0  0  0  0  0
   -0.9508    2.1819    0.0839 C   0  0  0  0  0  0  0  0  0  0  0  0
   -0.4217   -2.7172   -0.0173 C   0  0  0  0  0  0  0  0  0  0  0  0
   -2.9259    0.7419   -0.0500 C   0  0  0  0  0  0  0  0  0  0  0  0
   -2.6740   -1.6619   -0.0996 C   0  0  0  0  0  0  0  0  0  0  0  0
   -3.4896   -0.5327   -0.1100 C   0  0  0  0  0  0  0  0  0  0  0  0
    3.1646    2.1556    0.9258 H   0  0  0  0  0  0  0  0  0  0  0  0
    4.5426    0.0819    0.7377 H   0  0  0  0  0  0  0  0  0  0  0  0
    3.5134   -2.0540    0.1056 H   0  0  0  0  0  0  0  0  0  0  0  0
    0.8547    3.3364    0.2109 H   0  0  0  0  0  0  0  0  0  0  0  0
    1.5358   -3.4880    0.0450 H   0  0  0  0  0  0  0  0  0  0  0  0
   -1.5633    3.0812    0.0774 H   0  0  0  0  0  0  0  0  0  0  0  0
   -0.8878   -3.6959   -0.0582 H   0  0  0  0  0  0  0  0  0  0  0  0
   -3.1336   -2.6461   -0.1468 H   0  0  0  0  0  0  0  0  0  0  0  0
   -4.5675   -0.6621   -0.1652 H   0  0  0  0  0  0  0  0  0  0  0  0
   -4.6891    1.5016   -0.1155 H   0  0  0  0  0  0  0  0  0  0  0  0
  1  3  1  0  0  0  0
  1  4  1  0  0  0  0
  2 16  1  0  0  0  0
  2 28  1  0  0  0  0
  3  4  1  0  0  0  0
  3  5  1  0  0  0  0
  3 19  1  0  0  0  0
  4  7  1  0  0  0  0
  4 20  1  0  0  0  0
  5  6  2  0  0  0  0
  5 10  1  0  0  0  0
  6  8  1  0  0  0  0
  6  9  1  0  0  0  0
  7  8  2  0  0  0  0
  7 21  1  0  0  0  0
  8 13  1  0  0  0  0
  9 11  1  0  0  0  0
  9 12  2  0  0  0  0
 10 14  2  0  0  0  0
 10 22  1  0  0  0  0
 11 14  1  0  0  0  0
 11 16  2  0  0  0  0
 12 15  1  0  0  0  0
 12 17  1  0  0  0  0
 13 15  2  0  0  0  0
 13 23  1  0  0  0  0
 14 24  1  0  0  0  0
 15 25  1  0  0  0  0
 16 18  1  0  0  0  0
 17 18  2  0  0  0  0
 17 26  1  0  0  0  0
 18 27  1  0  0  0  0
M  END
> <PUBCHEM_COMPOUND_CID>
9543288

> <PUBCHEM_CONFORMER_RMSD>
0.4

> <PUBCHEM_CONFORMER_DIVERSEORDER>
1
2

> <PUBCHEM_MMFF94_PARTIAL_CHARGES>
26
1 -0.3
10 -0.15
12 0.03
13 -0.15
14 -0.15
15 -0.18
16 0.08
17 -0.15
18 -0.15
19 0.1
2 -0.53
20 0.1
21 0.15
22 0.15
23 0.15
24 0.15
25 0.15
26 0.15
27 0.15
28 0.45
3 0.08
4 0.09
5 -0.03
6 0.03
7 -0.19
8 -0.03

> <PUBCHEM_EFFECTIVE_ROTOR_COUNT>
0.2

> <PUBCHEM_PHARMACOPHORE_FEATURES>
6
1 1 acceptor
1 2 donor
6 5 6 9 10 11 14 rings
6 6 8 9 12 13 15 rings
6 9 11 12 16 17 18 rings
7 1 3 4 5 6 7 8 rings

> <PUBCHEM_HEAVY_ATOM_COUNT>
18

> <PUBCHEM_ATOM_DEF_STEREO_COUNT>
0

> <PUBCHEM_ATOM_UDEF_STEREO_COUNT>
2

> <PUBCHEM_BOND_DEF_STEREO_COUNT>
0

> <PUBCHEM_BOND_UDEF_STEREO_COUNT>
0

> <PUBCHEM_ISOTOPIC_ATOM_COUNT>
0

> <PUBCHEM_COMPONENT_COUNT>
1

> <PUBCHEM_CACTVS_TAUTO_COUNT>
3

> <PUBCHEM_CONFORMER_ID>
00919E7800000001

> <PUBCHEM_MMFF94_ENERGY>
55.0411

> <PUBCHEM_FEATURE_SELFOVERLAP>
30.534

> <PUBCHEM_SHAPE_FINGERPRINT>
10062212 137 18340217348550184099
10411042 1 16897646785045587370
10608611 8 18409452448936954920
10616163 171 18410571790460216119
10759866 29 18060133228938029446
10863032 1 18410013238532122411
10967382 1 18266179611427229713
11132069 177 18409455803496076944
11458722 379 18410284835543105350
12382932 28 18409168826513272827
12403814 3 17632585919920555692
13132413 78 18409728435072029533
13140716 1 18338803410898509090
13221675 6 18338235968425087490
13380535 76 18411140246546114011
13897977 150 18338802320261457197
14790565 3 18338780231208705081
15196674 1 18410575093279426274
15309172 13 18409721868135384929
15442244 35 18194686097046112370
15536298 74 18333733545956320718
16945 1 18122629348879059515
1813 80 17058945536319962850
193761 8 17833833046398487584
19591789 44 18410290289745772419
20510252 161 18188769435861299993
20645476 183 17987220158660336774
20739085 24 17834365176099895873
20905425 154 18263080092570344134
21267235 1 18410847750672817762
21501502 16 18411704304648427531
2334 1 18410576158436713891
23402539 116 18334585628997673606
23419403 2 15805882461441145515
23463225 33 18341335564992408826
23493267 7 17917709084828221098
23559900 14 18261669282652210548
238 59 17408568298800142901
25 1 18412547647315327271
2748010 2 18410292493042493503
335352 9 18194122047375023390
34934 24 18337400429966913741
43471831 8 18413111670910677250
5104073 3 18411139142754993362
528886 8 18409736153091096786
589210 1 17906172106844336004
7364860 26 18119530083520319598
9709674 26 18335979788019365934

> <PUBCHEM_SHAPE_MULTIPOLES>
358.69
5.63
2.94
0.65
0.04
0.6
0.02
-1.17
0.39
-0.38
-0.05
0.15
-0.03
-0.12

> <PUBCHEM_SHAPE_SELFOVERLAP>
834.232

> <PUBCHEM_SHAPE_VOLUME>
182

> <PUBCHEM_COORDINATE_TYPE>
2
5
10

$$$$

