53297402
  -OEChem-07051213122D

 58 62  0     1  0  0  0  0  0999 V2000
    3.4056    3.2022    0.0000 O   0  0  0  0  0  0  0  0  0  0  0  0
    4.2889    1.7123    0.0000 O   0  0  0  0  0  0  0  0  0  0  0  0
    5.9861    4.7322    0.0000 O   0  0  0  0  0  0  0  0  0  0  0  0
    4.2426    5.7121    0.0000 O   0  0  0  0  0  0  0  0  0  0  0  0
    2.5405   -1.3160    0.0000 O   0  0  0  0  0  0  0  0  0  0  0  0
    3.4446    0.1809    0.0000 O   0  0  0  0  0  0  0  0  0  0  0  0
    6.9088   -1.8191    0.0000 O   0  0  0  0  0  0  0  0  0  0  0  0
    7.0009   -2.8647    0.0000 O   0  0  0  0  0  0  0  0  0  0  0  0
    7.8129   -0.3223    0.0000 O   0  0  0  0  0  0  0  0  0  0  0  0
    5.1259    4.2222    0.0000 C   0  0  1  0  0  0  0  0  0  0  0  0
    4.2542    4.7121    0.0000 C   0  0  1  0  0  0  0  0  0  0  0  0
    5.1375    3.2222    0.0000 C   0  0  0  0  0  0  0  0  0  0  0  0
    3.3940    4.2021    0.0000 C   0  0  1  0  0  0  0  0  0  0  0  0
    4.2773    2.7123    0.0000 C   0  0  1  0  0  0  0  0  0  0  0  0
    4.3107   -1.3191    0.0000 C   0  0  0  0  0  0  0  0  0  0  0  0
    3.4007   -1.8260    0.0000 C   0  0  1  0  0  0  0  0  0  0  0  0
    5.1767   -1.8191    0.0000 C   0  0  0  0  0  0  0  0  0  0  0  0
    3.3926   -2.8676    0.0000 C   0  0  0  0  0  0  0  0  0  0  0  0
    5.1928   -2.8606    0.0000 C   0  0  0  0  0  0  0  0  0  0  0  0
    4.2947   -3.3884    0.0000 C   0  0  0  0  0  0  0  0  0  0  0  0
    5.1767    0.1809    0.0000 C   0  0  0  0  0  0  0  0  0  0  0  0
    4.3107   -0.3191    0.0000 C   0  0  0  0  0  0  0  0  0  0  0  0
    2.5223    4.6921    0.0000 C   0  0  0  0  0  0  0  0  0  0  0  0
    6.0427   -0.3191    0.0000 C   0  0  0  0  0  0  0  0  0  0  0  0
    5.1606    1.2224    0.0000 C   0  0  0  0  0  0  0  0  0  0  0  0
    6.0427   -1.3191    0.0000 C   0  0  0  0  0  0  0  0  0  0  0  0
    6.1447   -3.3812    0.0000 C   0  0  0  0  0  0  0  0  0  0  0  0
    4.2864   -4.4734    0.0000 C   0  0  0  0  0  0  0  0  0  0  0  0
    6.9527    0.1877    0.0000 C   0  0  0  0  0  0  0  0  0  0  0  0
    6.0587    1.7501    0.0000 C   0  0  0  0  0  0  0  0  0  0  0  0
    5.2260   -5.0158    0.0000 C   0  0  0  0  0  0  0  0  0  0  0  0
    6.1614   -4.4661    0.0000 C   0  0  0  0  0  0  0  0  0  0  0  0
    6.9608    1.2293    0.0000 C   0  0  0  0  0  0  0  0  0  0  0  0
    5.2298   -6.0158    0.0000 C   0  0  0  0  0  0  0  0  0  0  0  0
    5.6664    3.9184    0.0000 H   0  0  0  0  0  0  0  0  0  0  0  0
    3.7137    5.0159    0.0000 H   0  0  0  0  0  0  0  0  0  0  0  0
    5.3563    2.6421    0.0000 H   0  0  0  0  0  0  0  0  0  0  0  0
    5.7468    3.3370    0.0000 H   0  0  0  0  0  0  0  0  0  0  0  0
    2.8607    3.8860    0.0000 H   0  0  0  0  0  0  0  0  0  0  0  0
    3.7440    2.3961    0.0000 H   0  0  0  0  0  0  0  0  0  0  0  0
    2.8608   -2.1308    0.0000 H   0  0  0  0  0  0  0  0  0  0  0  0
    2.7826   -2.7568    0.0000 H   0  0  0  0  0  0  0  0  0  0  0  0
    3.1791   -3.4496    0.0000 H   0  0  0  0  0  0  0  0  0  0  0  0
    2.8260    5.2326    0.0000 H   0  0  0  0  0  0  0  0  0  0  0  0
    1.9818    4.9959    0.0000 H   0  0  0  0  0  0  0  0  0  0  0  0
    2.2185    4.1516    0.0000 H   0  0  0  0  0  0  0  0  0  0  0  0
    3.7482   -4.7813    0.0000 H   0  0  0  0  0  0  0  0  0  0  0  0
    5.9790    5.3521    0.0000 H   0  0  0  0  0  0  0  0  0  0  0  0
    3.7022    6.0158    0.0000 H   0  0  0  0  0  0  0  0  0  0  0  0
    6.0563    2.3701    0.0000 H   0  0  0  0  0  0  0  0  0  0  0  0
    6.7019   -4.7699    0.0000 H   0  0  0  0  0  0  0  0  0  0  0  0
    7.4989    1.5372    0.0000 H   0  0  0  0  0  0  0  0  0  0  0  0
    2.0000   -1.6198    0.0000 H   0  0  0  0  0  0  0  0  0  0  0  0
    4.6098   -6.0182    0.0000 H   0  0  0  0  0  0  0  0  0  0  0  0
    5.2322   -6.6358    0.0000 H   0  0  0  0  0  0  0  0  0  0  0  0
    5.8498   -6.0134    0.0000 H   0  0  0  0  0  0  0  0  0  0  0  0
    7.5437   -3.1642    0.0000 H   0  0  0  0  0  0  0  0  0  0  0  0
    8.3534   -0.0185    0.0000 H   0  0  0  0  0  0  0  0  0  0  0  0
  1 13  1  0  0  0  0
  1 14  1  0  0  0  0
 14  2  1  6  0  0  0
  2 25  1  0  0  0  0
 10  3  1  6  0  0  0
  3 48  1  0  0  0  0
 11  4  1  1  0  0  0
  4 49  1  0  0  0  0
 16  5  1  1  0  0  0
  5 53  1  0  0  0  0
  6 22  2  0  0  0  0
  7 26  2  0  0  0  0
  8 27  1  0  0  0  0
  8 57  1  0  0  0  0
  9 29  1  0  0  0  0
  9 58  1  0  0  0  0
 10 11  1  0  0  0  0
 10 12  1  0  0  0  0
 10 35  1  0  0  0  0
 11 13  1  0  0  0  0
 11 36  1  0  0  0  0
 12 14  1  0  0  0  0
 12 37  1  0  0  0  0
 12 38  1  0  0  0  0
 13 23  1  6  0  0  0
 13 39  1  0  0  0  0
 14 40  1  0  0  0  0
 15 16  1  0  0  0  0
 15 17  2  0  0  0  0
 15 22  1  0  0  0  0
 16 18  1  0  0  0  0
 16 41  1  0  0  0  0
 17 19  1  0  0  0  0
 17 26  1  0  0  0  0
 18 20  1  0  0  0  0
 18 42  1  0  0  0  0
 18 43  1  0  0  0  0
 19 20  2  0  0  0  0
 19 27  1  0  0  0  0
 20 28  1  0  0  0  0
 21 22  1  0  0  0  0
 21 24  1  0  0  0  0
 21 25  2  0  0  0  0
 23 44  1  0  0  0  0
 23 45  1  0  0  0  0
 23 46  1  0  0  0  0
 24 26  1  0  0  0  0
 24 29  2  0  0  0  0
 25 30  1  0  0  0  0
 27 32  2  0  0  0  0
 28 31  2  0  0  0  0
 28 47  1  0  0  0  0
 29 33  1  0  0  0  0
 30 33  2  0  0  0  0
 30 50  1  0  0  0  0
 31 32  1  0  0  0  0
 31 34  1  0  0  0  0
 32 51  1  0  0  0  0
 33 52  1  0  0  0  0
 34 54  1  0  0  0  0
 34 55  1  0  0  0  0
 34 56  1  0  0  0  0
M  END
> <PUBCHEM_COMPOUND_CID>
53297402

> <PUBCHEM_COMPOUND_CANONICALIZED>
1

> <PUBCHEM_CACTVS_COMPLEXITY>
870

> <PUBCHEM_CACTVS_HBOND_ACCEPTOR>
9

> <PUBCHEM_CACTVS_HBOND_DONOR>
5

> <PUBCHEM_CACTVS_ROTATABLE_BOND>
2

> <PUBCHEM_CACTVS_SUBSKEYS>
AAADceB4PAAAAAAAAAAAAAAAAAAAAAAAAAA0YIECAAAAAADBQAAAGgAACAAADBSwmAMyDoAABgCIAqBSAAACCAAkIAAIiAEGCMgdNjaGNRqieWCl4BEPuQfL6PyOwQADAAAYAACCAAYAADAAAAAAAAAAAA==

> <PUBCHEM_IUPAC_OPENEYE_NAME>
(6R)-8-[(2S,4R,5S,6R)-4,5-dihydroxy-6-methyl-tetrahydropyran-2-yl]oxy-1,6,11-trihydroxy-3-methyl-5,6-dihydrobenzo[a]anthracene-7,12-dione

> <PUBCHEM_IUPAC_CAS_NAME>
(6R)-8-[[(2S,4R,5S,6R)-4,5-dihydroxy-6-methyl-2-oxanyl]oxy]-1,6,11-trihydroxy-3-methyl-5,6-dihydrobenzo[a]anthracene-7,12-dione

> <PUBCHEM_IUPAC_NAME>
(6R)-8-[(2S,4R,5S,6R)-4,5-dihydroxy-6-methyloxan-2-yl]oxy-1,6,11-trihydroxy-3-methyl-5,6-dihydrobenzo[a]anthracene-7,12-dione

> <PUBCHEM_IUPAC_SYSTEMATIC_NAME>
(6R)-3-methyl-8-[(2S,4R,5S,6R)-6-methyl-4,5-bis(oxidanyl)oxan-2-yl]oxy-1,6,11-tris(oxidanyl)-5,6-dihydrobenzo[a]anthracene-7,12-dione

> <PUBCHEM_IUPAC_TRADITIONAL_NAME>
(6R)-8-[(2S,4R,5S,6R)-4,5-dihydroxy-6-methyl-tetrahydropyran-2-yl]oxy-1,6,11-trihydroxy-3-methyl-5,6-dihydrobenz[a]anthracene-7,12-quinone

> <PUBCHEM_IUPAC_INCHI>
InChI=1S/C25H24O9/c1-9-5-11-7-14(28)20-22(18(11)13(27)6-9)25(32)19-12(26)3-4-16(21(19)24(20)31)34-17-8-15(29)23(30)10(2)33-17/h3-6,10,14-15,17,23,26-30H,7-8H2,1-2H3/t10-,14-,15-,17+,23-/m1/s1

> <PUBCHEM_IUPAC_INCHIKEY>
KFUXKXHMNCBEOS-XNZPQWAXSA-N

> <PUBCHEM_XLOGP3_AA>
1.8

> <PUBCHEM_EXACT_MASS>
468.142032

> <PUBCHEM_MOLECULAR_FORMULA>
C25H24O9

> <PUBCHEM_MOLECULAR_WEIGHT>
468.45266

> <PUBCHEM_OPENEYE_CAN_SMILES>
CC1C(C(CC(O1)OC2=C3C(=C(C=C2)O)C(=O)C4=C(C3=O)C(CC5=CC(=CC(=C54)O)C)O)O)O

> <PUBCHEM_OPENEYE_ISO_SMILES>
C[C@@H]1[C@H]([C@@H](C[C@@H](O1)OC2=C3C(=C(C=C2)O)C(=O)C4=C(C3=O)[C@@H](CC5=CC(=CC(=C54)O)C)O)O)O

> <PUBCHEM_CACTVS_TPSA>
154

> <PUBCHEM_MONOISOTOPIC_WEIGHT>
468.142032

> <PUBCHEM_TOTAL_CHARGE>
0

> <PUBCHEM_HEAVY_ATOM_COUNT>
34

> <PUBCHEM_ATOM_DEF_STEREO_COUNT>
5

> <PUBCHEM_ATOM_UDEF_STEREO_COUNT>
0

> <PUBCHEM_BOND_DEF_STEREO_COUNT>
0

> <PUBCHEM_BOND_UDEF_STEREO_COUNT>
0

> <PUBCHEM_ISOTOPIC_ATOM_COUNT>
0

> <PUBCHEM_COMPONENT_COUNT>
1

> <PUBCHEM_CACTVS_TAUTO_COUNT>
132

> <PUBCHEM_COORDINATE_TYPE>
1
5
255

> <PUBCHEM_BONDANNOTATIONS>
13  23  6
19  20  8
19  27  8
14  2  6
20  28  8
21  24  8
21  25  8
24  29  8
25  30  8
27  32  8
28  31  8
29  33  8
10  3  6
30  33  8
31  32  8
11  4  5
16  5  5

$$$$

