14695653
  -OEChem-07051213113D

 16 15  0     0  0  0  0  0  0999 V2000
    2.8581   -0.3715   -0.4715 P   0  3  0  0  0  0  0  0  0  0  0  0
    3.0682   -1.0460    0.9827 O   0  0  0  0  0  0  0  0  0  0  0  0
   -1.3010    1.5972    0.2822 O   0  0  0  0  0  0  0  0  0  0  0  0
    3.7879    0.7431   -0.3241 O   0  0  0  0  0  0  0  0  0  0  0  0
   -3.5364    0.4262    0.2177 O   0  0  0  0  0  0  0  0  0  0  0  0
   -2.5173   -1.5565   -0.3241 O   0  0  0  0  0  0  0  0  0  0  0  0
    0.0618   -0.3586   -0.2391 C   0  0  0  0  0  0  0  0  0  0  0  0
    1.2894    0.5387   -0.1184 C   0  0  0  0  0  0  0  0  0  0  0  0
   -1.2150    0.4053    0.0274 C   0  0  0  0  0  0  0  0  0  0  0  0
   -2.4957   -0.3779   -0.0329 C   0  0  0  0  0  0  0  0  0  0  0  0
   -0.0024   -0.7838   -1.2478 H   0  0  0  0  0  0  0  0  0  0  0  0
    0.1198   -1.1815    0.4829 H   0  0  0  0  0  0  0  0  0  0  0  0
    1.3323    0.9930    0.8790 H   0  0  0  0  0  0  0  0  0  0  0  0
    1.2011    1.3646   -0.8352 H   0  0  0  0  0  0  0  0  0  0  0  0
    2.4604   -1.8068    1.1016 H   0  0  0  0  0  0  0  0  0  0  0  0
   -4.3939   -0.0471    0.1629 H   0  0  0  0  0  0  0  0  0  0  0  0
  1  2  1  0  0  0  0
  1  4  2  0  0  0  0
  1  8  1  0  0  0  0
  2 15  1  0  0  0  0
  3  9  2  0  0  0  0
  5 10  1  0  0  0  0
  5 16  1  0  0  0  0
  6 10  2  0  0  0  0
  7  8  1  0  0  0  0
  7  9  1  0  0  0  0
  7 11  1  0  0  0  0
  7 12  1  0  0  0  0
  8 13  1  0  0  0  0
  8 14  1  0  0  0  0
  9 10  1  0  0  0  0
M  CHG  1   1   1
M  END
> <PUBCHEM_COMPOUND_CID>
14695653

> <PUBCHEM_CONFORMER_RMSD>
0.6

> <PUBCHEM_CONFORMER_DIVERSEORDER>
1
19
33
16
36
29
4
6
18
2
37
22
31
3
32
8
35
26
25
7
34
17
30
20
24
13
21
28
14
5
27
10
12
11
23
15
9

> <PUBCHEM_EFFECTIVE_ROTOR_COUNT>
4

> <PUBCHEM_PHARMACOPHORE_FEATURES>
4
1 3 acceptor
1 5 acceptor
1 6 acceptor
3 5 6 10 anion

> <PUBCHEM_HEAVY_ATOM_COUNT>
10

> <PUBCHEM_ATOM_DEF_STEREO_COUNT>
0

> <PUBCHEM_ATOM_UDEF_STEREO_COUNT>
0

> <PUBCHEM_BOND_DEF_STEREO_COUNT>
0

> <PUBCHEM_BOND_UDEF_STEREO_COUNT>
0

> <PUBCHEM_ISOTOPIC_ATOM_COUNT>
0

> <PUBCHEM_COMPONENT_COUNT>
1

> <PUBCHEM_CACTVS_TAUTO_COUNT>
2

> <PUBCHEM_CONFORMER_ID>
00E03CE500000001

> <PUBCHEM_MMFF94_ENERGY>
9.7017

> <PUBCHEM_FEATURE_SELFOVERLAP>
20.367

> <PUBCHEM_SHAPE_FINGERPRINT>
10857977 72 17894634733712754883
11062470 55 18131067129996554749
12932764 1 18202281428907589932
14325111 11 18410572890182710614
177051 138 18409449193631358390
18342897 69 18408606971744824352
20281407 28 17967812734394509738
23552423 10 18198622129556176949
3248919 1 18113621235044145948

> <PUBCHEM_SHAPE_MULTIPOLES>
180.3
6.36
1.23
0.72
1.9
0.01
-0.05
0.49
-0.15
-0.38
-0.05
0.36
0.11
-0.45

> <PUBCHEM_SHAPE_SELFOVERLAP>
333.704

> <PUBCHEM_SHAPE_VOLUME>
113.2

> <PUBCHEM_COORDINATE_TYPE>
2
5
10

$$$$

