11245
  -OEChem-06261205263D

  9  8  0     0  0  0  0  0  0999 V2000
   -1.9300   -0.8623    0.0004 Cl  0  0  0  0  0  0  0  0  0  0  0  0
   -0.5000    1.7132    0.0000 Cl  0  0  0  0  0  0  0  0  0  0  0  0
    2.1206   -0.1430    0.0005 C   0  0  0  0  0  0  0  0  0  0  0  0
    0.7309   -0.6968   -0.0005 C   0  0  0  0  0  0  0  0  0  0  0  0
   -0.4214   -0.0111   -0.0004 C   0  0  0  0  0  0  0  0  0  0  0  0
    2.6574   -0.4960   -0.8857 H   0  0  0  0  0  0  0  0  0  0  0  0
    2.6566   -0.4972    0.8866 H   0  0  0  0  0  0  0  0  0  0  0  0
    2.1569    0.9491    0.0012 H   0  0  0  0  0  0  0  0  0  0  0  0
    0.6867   -1.7852   -0.0006 H   0  0  0  0  0  0  0  0  0  0  0  0
  1  5  1  0  0  0  0
  2  5  1  0  0  0  0
  3  4  1  0  0  0  0
  3  6  1  0  0  0  0
  3  7  1  0  0  0  0
  3  8  1  0  0  0  0
  4  5  2  0  0  0  0
  4  9  1  0  0  0  0
M  END
> <PUBCHEM_COMPOUND_CID>
11245

> <PUBCHEM_CONFORMER_RMSD>
0.4

> <PUBCHEM_CONFORMER_DIVERSEORDER>
1

> <PUBCHEM_MMFF94_PARTIAL_CHARGES>
6
1 -0.14
2 -0.14
3 0.14
4 -0.29
5 0.28
9 0.15

> <PUBCHEM_EFFECTIVE_ROTOR_COUNT>
0

> <PUBCHEM_PHARMACOPHORE_FEATURES>
1
1 3 hydrophobe

> <PUBCHEM_HEAVY_ATOM_COUNT>
5

> <PUBCHEM_ATOM_DEF_STEREO_COUNT>
0

> <PUBCHEM_ATOM_UDEF_STEREO_COUNT>
0

> <PUBCHEM_BOND_DEF_STEREO_COUNT>
0

> <PUBCHEM_BOND_UDEF_STEREO_COUNT>
0

> <PUBCHEM_ISOTOPIC_ATOM_COUNT>
0

> <PUBCHEM_COMPONENT_COUNT>
1

> <PUBCHEM_CACTVS_TAUTO_COUNT>
1

> <PUBCHEM_CONFORMER_ID>
00002BED00000001

> <PUBCHEM_MMFF94_ENERGY>
1.8696

> <PUBCHEM_FEATURE_SELFOVERLAP>
5.074

> <PUBCHEM_SHAPE_FINGERPRINT>
139733 1 9223239541545973955
16714656 1 18334572442989268758
20096714 4 17762899166313827280
21015797 1 8790301344719317387
21040471 1 17834396005052788612
23552449 1 18337677519771628096
29004967 10 18339638936751394483
5460574 1 9223240645268322402
5943 1 12602406075051922493

> <PUBCHEM_SHAPE_MULTIPOLES>
106.64
2.47
1.5
0.63
0.51
0.86
0
-0.83
0
-0.48
0
-0.02
0.01
0

> <PUBCHEM_SHAPE_SELFOVERLAP>
171.759

> <PUBCHEM_SHAPE_VOLUME>
73.1

> <PUBCHEM_COORDINATE_TYPE>
2
5
10

$$$$

