36022
  -OEChem-07051212482D

 17 17  0     0  0  0  0  0  0999 V2000
    4.2690   -2.1550    0.0000 Cl  0  0  0  0  0  0  0  0  0  0  0  0
    4.2690    1.8450    0.0000 O   0  0  0  0  0  0  0  0  0  0  0  0
    2.5369    0.8450    0.0000 O   0  0  0  0  0  0  0  0  0  0  0  0
    5.1350    0.3450    0.0000 C   0  0  0  0  0  0  0  0  0  0  0  0
    4.2690    0.8450    0.0000 C   0  0  0  0  0  0  0  0  0  0  0  0
    5.1350   -0.6550    0.0000 C   0  0  0  0  0  0  0  0  0  0  0  0
    3.4030    0.3450    0.0000 C   0  0  0  0  0  0  0  0  0  0  0  0
    6.0010    0.8450    0.0000 C   0  0  0  0  0  0  0  0  0  0  0  0
    4.2690   -1.1550    0.0000 C   0  0  0  0  0  0  0  0  0  0  0  0
    3.4030   -0.6550    0.0000 C   0  0  0  0  0  0  0  0  0  0  0  0
    5.6720   -0.9650    0.0000 H   0  0  0  0  0  0  0  0  0  0  0  0
    6.3110    0.3081    0.0000 H   0  0  0  0  0  0  0  0  0  0  0  0
    6.5380    1.1550    0.0000 H   0  0  0  0  0  0  0  0  0  0  0  0
    5.6910    1.3819    0.0000 H   0  0  0  0  0  0  0  0  0  0  0  0
    2.8660   -0.9650    0.0000 H   0  0  0  0  0  0  0  0  0  0  0  0
    4.8059    2.1550    0.0000 H   0  0  0  0  0  0  0  0  0  0  0  0
    2.0000    0.5350    0.0000 H   0  0  0  0  0  0  0  0  0  0  0  0
  1  9  1  0  0  0  0
  2  5  1  0  0  0  0
  2 16  1  0  0  0  0
  3  7  1  0  0  0  0
  3 17  1  0  0  0  0
  4  5  1  0  0  0  0
  4  6  2  0  0  0  0
  4  8  1  0  0  0  0
  5  7  2  0  0  0  0
  6  9  1  0  0  0  0
  6 11  1  0  0  0  0
  7 10  1  0  0  0  0
  8 12  1  0  0  0  0
  8 13  1  0  0  0  0
  8 14  1  0  0  0  0
  9 10  2  0  0  0  0
 10 15  1  0  0  0  0
M  END
> <PUBCHEM_COMPOUND_CID>
36022

> <PUBCHEM_COMPOUND_CANONICALIZED>
1

> <PUBCHEM_CACTVS_COMPLEXITY>
118

> <PUBCHEM_CACTVS_HBOND_ACCEPTOR>
2

> <PUBCHEM_CACTVS_HBOND_DONOR>
2

> <PUBCHEM_CACTVS_ROTATABLE_BOND>
0

> <PUBCHEM_CACTVS_SUBSKEYS>
AAADcYBgMAAEAAAAAAAAAAAAAAAAAAAAAAAwAAAAAAAAAAABAAAAGgIACAAADAaAmCAyBoAAAgCAAiBCAAACAAAgJQAAiAAGiogJJiKDExKAcAEkwBEJmAeAwDAOACABIQAIQAAAQAJCABCAAAAAAAAAAA==

> <PUBCHEM_IUPAC_OPENEYE_NAME>
5-chloro-3-methyl-benzene-1,2-diol

> <PUBCHEM_IUPAC_CAS_NAME>
5-chloro-3-methylbenzene-1,2-diol

> <PUBCHEM_IUPAC_NAME>
5-chloro-3-methylbenzene-1,2-diol

> <PUBCHEM_IUPAC_SYSTEMATIC_NAME>
5-chloranyl-3-methyl-benzene-1,2-diol

> <PUBCHEM_IUPAC_TRADITIONAL_NAME>
5-chloro-3-methyl-pyrocatechol

> <PUBCHEM_IUPAC_INCHI>
InChI=1S/C7H7ClO2/c1-4-2-5(8)3-6(9)7(4)10/h2-3,9-10H,1H3

> <PUBCHEM_IUPAC_INCHIKEY>
DEMKYMVOIBWYAM-UHFFFAOYSA-N

> <PUBCHEM_XLOGP3>
1.3

> <PUBCHEM_EXACT_MASS>
158.013457

> <PUBCHEM_MOLECULAR_FORMULA>
C7H7ClO2

> <PUBCHEM_MOLECULAR_WEIGHT>
158.58228

> <PUBCHEM_OPENEYE_CAN_SMILES>
CC1=CC(=CC(=C1O)O)Cl

> <PUBCHEM_OPENEYE_ISO_SMILES>
CC1=CC(=CC(=C1O)O)Cl

> <PUBCHEM_CACTVS_TPSA>
40.5

> <PUBCHEM_MONOISOTOPIC_WEIGHT>
158.013457

> <PUBCHEM_TOTAL_CHARGE>
0

> <PUBCHEM_HEAVY_ATOM_COUNT>
10

> <PUBCHEM_ATOM_DEF_STEREO_COUNT>
0

> <PUBCHEM_ATOM_UDEF_STEREO_COUNT>
0

> <PUBCHEM_BOND_DEF_STEREO_COUNT>
0

> <PUBCHEM_BOND_UDEF_STEREO_COUNT>
0

> <PUBCHEM_ISOTOPIC_ATOM_COUNT>
0

> <PUBCHEM_COMPONENT_COUNT>
1

> <PUBCHEM_CACTVS_TAUTO_COUNT>
15

> <PUBCHEM_COORDINATE_TYPE>
1
5
255

> <PUBCHEM_BONDANNOTATIONS>
4  5  8
4  6  8
5  7  8
6  9  8
7  10  8
9  10  8

$$$$

