17396029
  -OEChem-06241222532D

 63 67  0     1  0  0  0  0  0999 V2000
   10.0972    0.5839    0.0000 S   0  0  0  0  0  0  0  0  0  0  0  0
    6.6331   -2.4161    0.0000 O   0  0  0  0  0  0  0  0  0  0  0  0
    9.5972    1.4499    0.0000 O   0  0  0  0  0  0  0  0  0  0  0  0
   10.5972   -0.2821    0.0000 O   0  0  0  0  0  0  0  0  0  0  0  0
    4.9010   -1.4161    0.0000 N   0  0  3  0  0  0  0  0  0  0  0  0
    7.4991   -0.9161    0.0000 N   0  0  0  0  0  0  0  0  0  0  0  0
    9.2312    0.0839    0.0000 N   0  0  0  0  0  0  0  0  0  0  0  0
    2.8660    0.3755    0.0000 N   0  0  0  0  0  0  0  0  0  0  0  0
    3.9875   -1.0094    0.0000 C   0  0  3  0  0  0  0  0  0  0  0  0
    3.3184   -1.7525    0.0000 C   0  0  0  0  0  0  0  0  0  0  0  0
    4.7965   -2.4106    0.0000 C   0  0  0  0  0  0  0  0  0  0  0  0
    3.8184   -2.6186    0.0000 C   0  0  0  0  0  0  0  0  0  0  0  0
    5.7670   -0.9161    0.0000 C   0  0  0  0  0  0  0  0  0  0  0  0
    3.7796   -0.0312    0.0000 C   0  0  0  0  0  0  0  0  0  0  0  0
    6.6331   -1.4161    0.0000 C   0  0  0  0  0  0  0  0  0  0  0  0
    8.3651   -1.4161    0.0000 C   0  0  0  0  0  0  0  0  0  0  0  0
    7.4991    0.0839    0.0000 C   0  0  0  0  0  0  0  0  0  0  0  0
    9.2312   -0.9161    0.0000 C   0  0  0  0  0  0  0  0  0  0  0  0
    8.3651    0.5839    0.0000 C   0  0  0  0  0  0  0  0  0  0  0  0
    4.4487    0.7119    0.0000 C   0  0  0  0  0  0  0  0  0  0  0  0
    2.9705    1.3700    0.0000 C   0  0  0  0  0  0  0  0  0  0  0  0
    3.9487    1.5779    0.0000 C   0  0  0  0  0  0  0  0  0  0  0  0
    2.0000   -0.1245    0.0000 C   0  0  0  0  0  0  0  0  0  0  0  0
   10.9632    1.0839    0.0000 C   0  0  0  0  0  0  0  0  0  0  0  0
   11.8292    0.5839    0.0000 C   0  0  0  0  0  0  0  0  0  0  0  0
   10.9632    2.0839    0.0000 C   0  0  0  0  0  0  0  0  0  0  0  0
   12.6953    1.0839    0.0000 C   0  0  0  0  0  0  0  0  0  0  0  0
   12.6953    2.0839    0.0000 C   0  0  0  0  0  0  0  0  0  0  0  0
   11.8292    2.5839    0.0000 C   0  0  0  0  0  0  0  0  0  0  0  0
   13.5892    0.5492    0.0000 C   0  0  0  0  0  0  0  0  0  0  0  0
   13.5892    2.6186    0.0000 C   0  0  0  0  0  0  0  0  0  0  0  0
   14.4953    1.0631    0.0000 C   0  0  0  0  0  0  0  0  0  0  0  0
   14.4953    2.1047    0.0000 C   0  0  0  0  0  0  0  0  0  0  0  0
    3.3886   -0.8489    0.0000 H   0  0  0  0  0  0  0  0  0  0  0  0
    2.9035   -1.2918    0.0000 H   0  0  0  0  0  0  0  0  0  0  0  0
    2.8168   -2.1170    0.0000 H   0  0  0  0  0  0  0  0  0  0  0  0
    4.8613   -3.0272    0.0000 H   0  0  0  0  0  0  0  0  0  0  0  0
    5.4165   -2.4106    0.0000 H   0  0  0  0  0  0  0  0  0  0  0  0
    3.2520   -2.8707    0.0000 H   0  0  0  0  0  0  0  0  0  0  0  0
    4.0099   -3.2082    0.0000 H   0  0  0  0  0  0  0  0  0  0  0  0
    6.1656   -0.4412    0.0000 H   0  0  0  0  0  0  0  0  0  0  0  0
    5.3685   -0.4412    0.0000 H   0  0  0  0  0  0  0  0  0  0  0  0
    7.2870    0.6665    0.0000 H   0  0  0  0  0  0  0  0  0  0  0  0
    6.8885   -0.0238    0.0000 H   0  0  0  0  0  0  0  0  0  0  0  0
    7.9666   -1.8911    0.0000 H   0  0  0  0  0  0  0  0  0  0  0  0
    8.7637   -1.8911    0.0000 H   0  0  0  0  0  0  0  0  0  0  0  0
    8.7637    1.0588    0.0000 H   0  0  0  0  0  0  0  0  0  0  0  0
    9.4432   -1.4987    0.0000 H   0  0  0  0  0  0  0  0  0  0  0  0
    9.8417   -0.8085    0.0000 H   0  0  0  0  0  0  0  0  0  0  0  0
    7.9666    1.0588    0.0000 H   0  0  0  0  0  0  0  0  0  0  0  0
    5.0653    0.6471    0.0000 H   0  0  0  0  0  0  0  0  0  0  0  0
    2.5098    1.7849    0.0000 H   0  0  0  0  0  0  0  0  0  0  0  0
    4.2009    2.1443    0.0000 H   0  0  0  0  0  0  0  0  0  0  0  0
    1.6900    0.4124    0.0000 H   0  0  0  0  0  0  0  0  0  0  0  0
    1.4631   -0.4345    0.0000 H   0  0  0  0  0  0  0  0  0  0  0  0
    2.3100   -0.6614    0.0000 H   0  0  0  0  0  0  0  0  0  0  0  0
   11.8292   -0.0361    0.0000 H   0  0  0  0  0  0  0  0  0  0  0  0
   10.4263    2.3939    0.0000 H   0  0  0  0  0  0  0  0  0  0  0  0
   11.8292    3.2039    0.0000 H   0  0  0  0  0  0  0  0  0  0  0  0
   13.5820   -0.0707    0.0000 H   0  0  0  0  0  0  0  0  0  0  0  0
   13.5820    3.2385    0.0000 H   0  0  0  0  0  0  0  0  0  0  0  0
   15.0310    0.7510    0.0000 H   0  0  0  0  0  0  0  0  0  0  0  0
   15.0310    2.4168    0.0000 H   0  0  0  0  0  0  0  0  0  0  0  0
  1  3  2  0  0  0  0
  1  4  2  0  0  0  0
  1  7  1  0  0  0  0
  1 24  1  0  0  0  0
  2 15  2  0  0  0  0
  5  9  1  0  0  0  0
  5 11  1  0  0  0  0
  5 13  1  0  0  0  0
  6 15  1  0  0  0  0
  6 16  1  0  0  0  0
  6 17  1  0  0  0  0
  7 18  1  0  0  0  0
  7 19  1  0  0  0  0
  8 14  1  0  0  0  0
  8 21  1  0  0  0  0
  8 23  1  0  0  0  0
  9 10  1  0  0  0  0
  9 14  1  0  0  0  0
  9 34  1  0  0  0  0
 10 12  1  0  0  0  0
 10 35  1  0  0  0  0
 10 36  1  0  0  0  0
 11 12  1  0  0  0  0
 11 37  1  0  0  0  0
 11 38  1  0  0  0  0
 12 39  1  0  0  0  0
 12 40  1  0  0  0  0
 13 15  1  0  0  0  0
 13 41  1  0  0  0  0
 13 42  1  0  0  0  0
 14 20  2  0  0  0  0
 16 18  1  0  0  0  0
 16 45  1  0  0  0  0
 16 46  1  0  0  0  0
 17 19  1  0  0  0  0
 17 43  1  0  0  0  0
 17 44  1  0  0  0  0
 18 48  1  0  0  0  0
 18 49  1  0  0  0  0
 19 47  1  0  0  0  0
 19 50  1  0  0  0  0
 20 22  1  0  0  0  0
 20 51  1  0  0  0  0
 21 22  2  0  0  0  0
 21 52  1  0  0  0  0
 22 53  1  0  0  0  0
 23 54  1  0  0  0  0
 23 55  1  0  0  0  0
 23 56  1  0  0  0  0
 24 25  2  0  0  0  0
 24 26  1  0  0  0  0
 25 27  1  0  0  0  0
 25 57  1  0  0  0  0
 26 29  2  0  0  0  0
 26 58  1  0  0  0  0
 27 28  1  0  0  0  0
 27 30  2  0  0  0  0
 28 29  1  0  0  0  0
 28 31  2  0  0  0  0
 29 59  1  0  0  0  0
 30 32  1  0  0  0  0
 30 60  1  0  0  0  0
 31 33  1  0  0  0  0
 31 61  1  0  0  0  0
 32 33  2  0  0  0  0
 32 62  1  0  0  0  0
 33 63  1  0  0  0  0
M  END
> <PUBCHEM_COMPOUND_CID>
17396029

> <PUBCHEM_COMPOUND_CANONICALIZED>
1

> <PUBCHEM_CACTVS_COMPLEXITY>
792

> <PUBCHEM_CACTVS_HBOND_ACCEPTOR>
5

> <PUBCHEM_CACTVS_HBOND_DONOR>
0

> <PUBCHEM_CACTVS_ROTATABLE_BOND>
5

> <PUBCHEM_CACTVS_SUBSKEYS>
AAADceB7sABAAAAAAAAAAAAAAAAAAWLAAAA8YIAAAAAAAADB1AAAHgQAQAAADCjB3gQ+gdMMEAKoAzV3VHDCgDAxAiAI2Di4ZJgIYOLAkbGUIAhghgDIyAcQgIAOkAAAgAAQAAAgAAEAACAAAAAAAAAAAA==

> <PUBCHEM_IUPAC_OPENEYE_NAME>
2-[2-(1-methylpyrrol-2-yl)pyrrolidin-1-yl]-1-[4-(2-naphthylsulfonyl)piperazin-1-yl]ethanone

> <PUBCHEM_IUPAC_CAS_NAME>
2-[2-(1-methyl-2-pyrrolyl)-1-pyrrolidinyl]-1-[4-(2-naphthalenylsulfonyl)-1-piperazinyl]ethanone

> <PUBCHEM_IUPAC_NAME>
2-[2-(1-methylpyrrol-2-yl)pyrrolidin-1-yl]-1-(4-naphthalen-2-ylsulfonylpiperazin-1-yl)ethanone

> <PUBCHEM_IUPAC_SYSTEMATIC_NAME>
2-[2-(1-methylpyrrol-2-yl)pyrrolidin-1-yl]-1-(4-naphthalen-2-ylsulfonylpiperazin-1-yl)ethanone

> <PUBCHEM_IUPAC_TRADITIONAL_NAME>
2-[2-(1-methylpyrrol-2-yl)pyrrolidino]-1-[4-(2-naphthylsulfonyl)piperazino]ethanone

> <PUBCHEM_IUPAC_INCHI>
InChI=1S/C25H30N4O3S/c1-26-12-4-8-23(26)24-9-5-13-28(24)19-25(30)27-14-16-29(17-15-27)33(31,32)22-11-10-20-6-2-3-7-21(20)18-22/h2-4,6-8,10-12,18,24H,5,9,13-17,19H2,1H3

> <PUBCHEM_IUPAC_INCHIKEY>
RFXUFRVBWGEHCS-UHFFFAOYSA-N

> <PUBCHEM_XLOGP3_AA>
2.5

> <PUBCHEM_EXACT_MASS>
466.203862

> <PUBCHEM_MOLECULAR_FORMULA>
C25H30N4O3S

> <PUBCHEM_MOLECULAR_WEIGHT>
466.5957

> <PUBCHEM_OPENEYE_CAN_SMILES>
CN1C=CC=C1C2CCCN2CC(=O)N3CCN(CC3)S(=O)(=O)C4=CC5=CC=CC=C5C=C4

> <PUBCHEM_OPENEYE_ISO_SMILES>
CN1C=CC=C1C2CCCN2CC(=O)N3CCN(CC3)S(=O)(=O)C4=CC5=CC=CC=C5C=C4

> <PUBCHEM_CACTVS_TPSA>
74.2

> <PUBCHEM_MONOISOTOPIC_WEIGHT>
466.203862

> <PUBCHEM_TOTAL_CHARGE>
0

> <PUBCHEM_HEAVY_ATOM_COUNT>
33

> <PUBCHEM_ATOM_DEF_STEREO_COUNT>
0

> <PUBCHEM_ATOM_UDEF_STEREO_COUNT>
1

> <PUBCHEM_BOND_DEF_STEREO_COUNT>
0

> <PUBCHEM_BOND_UDEF_STEREO_COUNT>
0

> <PUBCHEM_ISOTOPIC_ATOM_COUNT>
0

> <PUBCHEM_COMPONENT_COUNT>
1

> <PUBCHEM_CACTVS_TAUTO_COUNT>
1

> <PUBCHEM_COORDINATE_TYPE>
1
5
255

> <PUBCHEM_BONDANNOTATIONS>
14  20  8
20  22  8
21  22  8
24  25  8
24  26  8
25  27  8
26  29  8
27  28  8
27  30  8
28  29  8
28  31  8
30  32  8
31  33  8
32  33  8
8  14  8
8  21  8
9  14  3

$$$$

