9102
  -OEChem-06261203243D

 17 19  0     1  0  0  0  0  0999 V2000
   -0.7077   -0.9131   -0.3018 C   0  0  2  0  0  0  0  0  0  0  0  0
    0.7076   -0.9131    0.3019 C   0  0  2  0  0  0  0  0  0  0  0  0
   -1.1089    0.5362   -0.5137 C   0  0  1  0  0  0  0  0  0  0  0  0
    1.1090    0.5361    0.5137 C   0  0  1  0  0  0  0  0  0  0  0  0
   -1.9053   -0.3417    0.4110 C   0  0  0  0  0  0  0  0  0  0  0  0
    1.9053   -0.3418   -0.4112 C   0  0  0  0  0  0  0  0  0  0  0  0
    0.0001    1.4373    0.0000 C   0  0  0  0  0  0  0  0  0  0  0  0
   -0.9010   -1.6142   -1.1056 H   0  0  0  0  0  0  0  0  0  0  0  0
    0.9009   -1.6143    1.1056 H   0  0  0  0  0  0  0  0  0  0  0  0
   -1.5338    0.8349   -1.4600 H   0  0  0  0  0  0  0  0  0  0  0  0
    1.5340    0.8349    1.4601 H   0  0  0  0  0  0  0  0  0  0  0  0
   -1.8328   -0.1693    1.4780 H   0  0  0  0  0  0  0  0  0  0  0  0
   -2.8862   -0.6610    0.0796 H   0  0  0  0  0  0  0  0  0  0  0  0
    1.8326   -0.1693   -1.4781 H   0  0  0  0  0  0  0  0  0  0  0  0
    2.8861   -0.6611   -0.0798 H   0  0  0  0  0  0  0  0  0  0  0  0
    0.3782    2.0766   -0.8044 H   0  0  0  0  0  0  0  0  0  0  0  0
   -0.3781    2.0766    0.8044 H   0  0  0  0  0  0  0  0  0  0  0  0
  1  2  1  0  0  0  0
  1  3  1  0  0  0  0
  1  5  1  0  0  0  0
  1  8  1  0  0  0  0
  2  4  1  0  0  0  0
  2  6  1  0  0  0  0
  2  9  1  0  0  0  0
  3  5  1  0  0  0  0
  3  7  1  0  0  0  0
  3 10  1  0  0  0  0
  4  6  1  0  0  0  0
  4  7  1  0  0  0  0
  4 11  1  0  0  0  0
  5 12  1  0  0  0  0
  5 13  1  0  0  0  0
  6 14  1  0  0  0  0
  6 15  1  0  0  0  0
  7 16  1  0  0  0  0
  7 17  1  0  0  0  0
M  END
> <PUBCHEM_COMPOUND_CID>
9102

> <PUBCHEM_CONFORMER_RMSD>
0.4

> <PUBCHEM_CONFORMER_DIVERSEORDER>
1
2
3

> <PUBCHEM_MMFF94_PARTIAL_CHARGES>
15
1 -0.1
10 0.1
11 0.1
12 0.1
13 0.1
14 0.1
15 0.1
2 -0.1
3 -0.19
4 -0.19
5 -0.2
6 -0.2
7 0.19
8 0.1
9 0.1

> <PUBCHEM_EFFECTIVE_ROTOR_COUNT>
0.6

> <PUBCHEM_PHARMACOPHORE_FEATURES>
1
7 1 2 3 4 5 6 7 rings

> <PUBCHEM_HEAVY_ATOM_COUNT>
7

> <PUBCHEM_ATOM_DEF_STEREO_COUNT>
0

> <PUBCHEM_ATOM_UDEF_STEREO_COUNT>
4

> <PUBCHEM_BOND_DEF_STEREO_COUNT>
0

> <PUBCHEM_BOND_UDEF_STEREO_COUNT>
0

> <PUBCHEM_ISOTOPIC_ATOM_COUNT>
0

> <PUBCHEM_COMPONENT_COUNT>
1

> <PUBCHEM_CACTVS_TAUTO_COUNT>
1

> <PUBCHEM_CONFORMER_ID>
0000238E00000001

> <PUBCHEM_MMFF94_ENERGY>
29.709

> <PUBCHEM_FEATURE_SELFOVERLAP>
5.074

> <PUBCHEM_SHAPE_FINGERPRINT>
137420 1 14373773226281465584
16714656 1 18409440414612437558
20096714 4 18335704879788687659
21040471 1 17835248122148093396
23552423 10 18056752359210279998
24536 1 18337968830033289161
29004967 10 18412538795287412642

> <PUBCHEM_SHAPE_MULTIPOLES>
144.06
2.15
1.27
0.77
0
0.24
0
-0.3
0
0
0
0
0
0.11

> <PUBCHEM_SHAPE_SELFOVERLAP>
304.21

> <PUBCHEM_SHAPE_VOLUME>
80.6

> <PUBCHEM_COORDINATE_TYPE>
2
5
10

$$$$

