146495
  -OEChem-07051213053D

 38 40  0     1  0  0  0  0  0999 V2000
    5.4615    1.2046   -0.0265 O   0  0  0  0  0  0  0  0  0  0  0  0
   -5.9337    0.2371   -0.1493 O   0  0  0  0  0  0  0  0  0  0  0  0
    0.4235   -1.2516   -0.4024 C   0  0  1  0  0  0  0  0  0  0  0  0
   -0.3319    0.0500   -0.1422 C   0  0  0  0  0  0  0  0  0  0  0  0
    1.8471   -0.7693   -0.3314 C   0  0  0  0  0  0  0  0  0  0  0  0
    0.4957    1.1043    0.0288 C   0  0  0  0  0  0  0  0  0  0  0  0
    1.8706    0.6085   -0.0774 C   0  0  0  0  0  0  0  0  0  0  0  0
    0.1273   -2.3336    0.6319 C   0  0  0  0  0  0  0  0  0  0  0  0
   -1.7789    0.0977   -0.1434 C   0  0  0  0  0  0  0  0  0  0  0  0
    3.0188   -1.4925   -0.4926 C   0  0  0  0  0  0  0  0  0  0  0  0
    3.0767    1.2856    0.0295 C   0  0  0  0  0  0  0  0  0  0  0  0
    0.1789    2.5342    0.2803 C   0  0  0  0  0  0  0  0  0  0  0  0
    0.3384   -1.7934    2.0340 C   0  0  0  0  0  0  0  0  0  0  0  0
    4.2343   -0.8150   -0.3857 C   0  0  0  0  0  0  0  0  0  0  0  0
    4.2631    0.5635   -0.1255 C   0  0  0  0  0  0  0  0  0  0  0  0
   -2.4520    1.0599    0.6155 C   0  0  0  0  0  0  0  0  0  0  0  0
   -2.5128   -0.8172   -0.9042 C   0  0  0  0  0  0  0  0  0  0  0  0
   -3.8461    1.1065    0.6138 C   0  0  0  0  0  0  0  0  0  0  0  0
   -3.9069   -0.7704   -0.9062 C   0  0  0  0  0  0  0  0  0  0  0  0
   -4.5736    0.1914   -0.1470 C   0  0  0  0  0  0  0  0  0  0  0  0
    0.2340   -1.6176   -1.4185 H   0  0  0  0  0  0  0  0  0  0  0  0
    0.7812   -3.2001    0.4769 H   0  0  0  0  0  0  0  0  0  0  0  0
   -0.9011   -2.6985    0.5360 H   0  0  0  0  0  0  0  0  0  0  0  0
    2.9991   -2.5574   -0.6977 H   0  0  0  0  0  0  0  0  0  0  0  0
    3.1119    2.3515    0.2305 H   0  0  0  0  0  0  0  0  0  0  0  0
    0.9520    3.1852   -0.1433 H   0  0  0  0  0  0  0  0  0  0  0  0
    0.1306    2.7419    1.3537 H   0  0  0  0  0  0  0  0  0  0  0  0
   -0.7460    2.8566   -0.2054 H   0  0  0  0  0  0  0  0  0  0  0  0
    1.3622   -1.4503    2.2101 H   0  0  0  0  0  0  0  0  0  0  0  0
   -0.3534   -0.9861    2.2907 H   0  0  0  0  0  0  0  0  0  0  0  0
    0.1528   -2.5976    2.7556 H   0  0  0  0  0  0  0  0  0  0  0  0
    5.1608   -1.3707   -0.5084 H   0  0  0  0  0  0  0  0  0  0  0  0
   -1.9462    1.7425    1.2885 H   0  0  0  0  0  0  0  0  0  0  0  0
   -2.0301   -1.5720   -1.5187 H   0  0  0  0  0  0  0  0  0  0  0  0
   -4.3546    1.8491    1.2229 H   0  0  0  0  0  0  0  0  0  0  0  0
   -4.4684   -1.4839   -1.5032 H   0  0  0  0  0  0  0  0  0  0  0  0
    6.1764    0.5588   -0.1598 H   0  0  0  0  0  0  0  0  0  0  0  0
   -6.2255    0.9630    0.4285 H   0  0  0  0  0  0  0  0  0  0  0  0
  1 15  1  0  0  0  0
  1 37  1  0  0  0  0
  2 20  1  0  0  0  0
  2 38  1  0  0  0  0
  3  4  1  0  0  0  0
  3  5  1  0  0  0  0
  3  8  1  0  0  0  0
  3 21  1  0  0  0  0
  4  6  2  0  0  0  0
  4  9  1  0  0  0  0
  5  7  2  0  0  0  0
  5 10  1  0  0  0  0
  6  7  1  0  0  0  0
  6 12  1  0  0  0  0
  7 11  1  0  0  0  0
  8 13  1  0  0  0  0
  8 22  1  0  0  0  0
  8 23  1  0  0  0  0
  9 16  2  0  0  0  0
  9 17  1  0  0  0  0
 10 14  2  0  0  0  0
 10 24  1  0  0  0  0
 11 15  2  0  0  0  0
 11 25  1  0  0  0  0
 12 26  1  0  0  0  0
 12 27  1  0  0  0  0
 12 28  1  0  0  0  0
 13 29  1  0  0  0  0
 13 30  1  0  0  0  0
 13 31  1  0  0  0  0
 14 15  1  0  0  0  0
 14 32  1  0  0  0  0
 16 18  1  0  0  0  0
 16 33  1  0  0  0  0
 17 19  2  0  0  0  0
 17 34  1  0  0  0  0
 18 20  2  0  0  0  0
 18 35  1  0  0  0  0
 19 20  1  0  0  0  0
 19 36  1  0  0  0  0
M  END
> <PUBCHEM_COMPOUND_CID>
146495

> <PUBCHEM_CONFORMER_RMSD>
0.6

> <PUBCHEM_CONFORMER_DIVERSEORDER>
1
2

> <PUBCHEM_MMFF94_PARTIAL_CHARGES>
27
1 -0.53
10 -0.15
11 -0.15
12 0.14
14 -0.15
15 0.08
16 -0.15
17 -0.15
18 -0.15
19 -0.15
2 -0.53
20 0.08
24 0.15
25 0.15
3 0.28
32 0.15
33 0.15
34 0.15
35 0.15
36 0.15
37 0.45
38 0.45
4 -0.17
5 -0.14
6 -0.17
7 0.03
9 0.03

> <PUBCHEM_EFFECTIVE_ROTOR_COUNT>
2.2

> <PUBCHEM_PHARMACOPHORE_FEATURES>
6
1 1 donor
1 13 hydrophobe
1 2 donor
5 3 4 5 6 7 rings
6 5 7 10 11 14 15 rings
6 9 16 17 18 19 20 rings

> <PUBCHEM_HEAVY_ATOM_COUNT>
20

> <PUBCHEM_ATOM_DEF_STEREO_COUNT>
1

> <PUBCHEM_ATOM_UDEF_STEREO_COUNT>
0

> <PUBCHEM_BOND_DEF_STEREO_COUNT>
0

> <PUBCHEM_BOND_UDEF_STEREO_COUNT>
0

> <PUBCHEM_ISOTOPIC_ATOM_COUNT>
0

> <PUBCHEM_COMPONENT_COUNT>
1

> <PUBCHEM_CACTVS_TAUTO_COUNT>
16

> <PUBCHEM_CONFORMER_ID>
00023C3F00000001

> <PUBCHEM_MMFF94_ENERGY>
62.9805

> <PUBCHEM_FEATURE_SELFOVERLAP>
30.529

> <PUBCHEM_SHAPE_FINGERPRINT>
10906281 52 18338781335510620180
11471102 20 18409729573470244108
11578080 2 14259339200089935940
11806522 49 18335703819227164789
12107183 9 17466776504182256115
12236239 1 18113899381748269189
12592029 89 15985107444057469730
13140716 1 18196094340061731192
14787075 74 18410856538397380016
14790565 3 18409724092892131301
15048467 5 17022621974523991896
15196674 1 18334856168486754877
15209289 33 18411699855304759121
15536298 74 18186801400452533134
15848702 151 17968652842930001974
16945 1 18338785732876246470
18186145 218 18273215313487950486
200 152 18040719160658314013
204376 136 17775281642822143698
20645477 70 18335138747264942142
21033648 29 17417830404174373844
21120745 212 16330498401833811722
21267235 1 18260820518976538415
21421861 104 17841432836526040593
221490 88 18193554472169286679
23402539 116 18333737892373410902
23402655 69 18259985980712890788
23419403 2 17099180793067686170
23559900 14 18189057504193240368
25 1 18342741810014915006
2748010 2 17905601113097800764
2871803 45 18341333387386077965
298252 57 18113899338255790662
335352 9 18410290299300538916
34797466 226 16153705384434771208
34934 24 18336548325978277821
3545911 37 18261110759817956821
4340502 62 17346598577501537122
474 4 18342454816068480548
5104073 3 18261390083010843051
633830 44 18343581858383798599
69090 78 18335139786852625870
7495541 125 15482093999870447237
9709674 26 18334849516204912310
9981440 41 17179982734467536337

> <PUBCHEM_SHAPE_MULTIPOLES>
399.85
9.63
2.07
1.01
3.23
0.01
-0.38
1.96
1.53
-0.84
-0.5
0.24
-0.48
-0.32

> <PUBCHEM_SHAPE_SELFOVERLAP>
883.104

> <PUBCHEM_SHAPE_VOLUME>
218.3

> <PUBCHEM_COORDINATE_TYPE>
2
5
10

$$$$

