13577
  -OEChem-06241222393D

 19 18  0     0  0  0  0  0  0999 V2000
    3.1534    0.9566   -0.1047 O   0  0  0  0  0  0  0  0  0  0  0  0
   -1.2848   -0.6207   -0.2163 C   0  0  0  0  0  0  0  0  0  0  0  0
   -2.1728    0.4861    0.3530 C   0  0  0  0  0  0  0  0  0  0  0  0
    0.1006   -0.5561    0.3579 C   0  0  0  0  0  0  0  0  0  0  0  0
   -3.5851    0.4079   -0.2057 C   0  0  0  0  0  0  0  0  0  0  0  0
    1.2050   -0.3634   -0.3780 C   0  0  0  0  0  0  0  0  0  0  0  0
    2.5838   -0.3103    0.1939 C   0  0  0  0  0  0  0  0  0  0  0  0
   -1.7135   -1.6010    0.0243 H   0  0  0  0  0  0  0  0  0  0  0  0
   -1.2575   -0.5456   -1.3102 H   0  0  0  0  0  0  0  0  0  0  0  0
   -1.7468    1.4685    0.1156 H   0  0  0  0  0  0  0  0  0  0  0  0
   -2.2165    0.4101    1.4463 H   0  0  0  0  0  0  0  0  0  0  0  0
    0.1919   -0.6869    1.4334 H   0  0  0  0  0  0  0  0  0  0  0  0
   -4.2035    1.2075    0.2139 H   0  0  0  0  0  0  0  0  0  0  0  0
   -3.5827    0.5165   -1.2950 H   0  0  0  0  0  0  0  0  0  0  0  0
   -4.0531   -0.5498    0.0435 H   0  0  0  0  0  0  0  0  0  0  0  0
    1.1156   -0.2402   -1.4544 H   0  0  0  0  0  0  0  0  0  0  0  0
    2.6004   -0.4552    1.2787 H   0  0  0  0  0  0  0  0  0  0  0  0
    3.2078   -1.0833   -0.2644 H   0  0  0  0  0  0  0  0  0  0  0  0
    2.6218    1.6336    0.3484 H   0  0  0  0  0  0  0  0  0  0  0  0
  1  7  1  0  0  0  0
  1 19  1  0  0  0  0
  2  3  1  0  0  0  0
  2  4  1  0  0  0  0
  2  8  1  0  0  0  0
  2  9  1  0  0  0  0
  3  5  1  0  0  0  0
  3 10  1  0  0  0  0
  3 11  1  0  0  0  0
  4  6  2  0  0  0  0
  4 12  1  0  0  0  0
  5 13  1  0  0  0  0
  5 14  1  0  0  0  0
  5 15  1  0  0  0  0
  6  7  1  0  0  0  0
  6 16  1  0  0  0  0
  7 17  1  0  0  0  0
  7 18  1  0  0  0  0
M  END
> <PUBCHEM_COMPOUND_CID>
13577

> <PUBCHEM_CONFORMER_RMSD>
0.4

> <PUBCHEM_CONFORMER_DIVERSEORDER>
1
8
2
7
14
5
9
10
12
6
4
3
13
11

> <PUBCHEM_MMFF94_PARTIAL_CHARGES>
8
1 -0.68
12 0.15
16 0.15
19 0.4
2 0.14
4 -0.29
6 -0.29
7 0.42

> <PUBCHEM_EFFECTIVE_ROTOR_COUNT>
3

> <PUBCHEM_PHARMACOPHORE_FEATURES>
3
1 1 acceptor
1 1 donor
1 5 hydrophobe

> <PUBCHEM_HEAVY_ATOM_COUNT>
7

> <PUBCHEM_ATOM_DEF_STEREO_COUNT>
0

> <PUBCHEM_ATOM_UDEF_STEREO_COUNT>
0

> <PUBCHEM_BOND_DEF_STEREO_COUNT>
0

> <PUBCHEM_BOND_UDEF_STEREO_COUNT>
1

> <PUBCHEM_ISOTOPIC_ATOM_COUNT>
0

> <PUBCHEM_COMPONENT_COUNT>
1

> <PUBCHEM_CACTVS_TAUTO_COUNT>
1

> <PUBCHEM_CONFORMER_ID>
0000350900000001

> <PUBCHEM_MMFF94_ENERGY>
-1.1732

> <PUBCHEM_FEATURE_SELFOVERLAP>
15.223

> <PUBCHEM_SHAPE_FINGERPRINT>
11062470 55 17418375809407410189
12897270 3 16008750216540112427
14325111 11 18411699898170230883
14390081 3 18408603673304983993
21293036 1 15430039837729196496
29004967 10 14476964493082533038
5460574 1 11527942361644292099

> <PUBCHEM_SHAPE_MULTIPOLES>
138.19
5.72
0.89
0.68
0.76
0.06
-0.01
1.72
0.25
-0.21
0.01
0.05
-0.02
-0.09

> <PUBCHEM_SHAPE_SELFOVERLAP>
241.822

> <PUBCHEM_SHAPE_VOLUME>
91.3

> <PUBCHEM_COORDINATE_TYPE>
2
5
10

$$$$

