442872
  -OEChem-07051213002D

 31 34  0     1  0  0  0  0  0999 V2000
    4.3697   -1.2077    0.0000 O   0  0  0  0  0  0  0  0  0  0  0  0
    5.4910   -2.5668    0.0000 O   0  0  0  0  0  0  0  0  0  0  0  0
    3.6931    1.3529    0.0000 N   0  0  3  0  0  0  0  0  0  0  0  0
    4.4573   -0.2341    0.0000 C   0  0  1  0  0  0  0  0  0  0  0  0
    3.6931    0.3754    0.0000 C   0  0  1  0  0  0  0  0  0  0  0  0
    4.4573    1.9623    0.0000 C   0  0  1  0  0  0  0  0  0  0  0  0
    4.8884    0.9293    0.0000 C   0  0  0  0  0  0  0  0  0  0  0  0
    2.8465   -0.1134    0.0000 C   0  0  0  0  0  0  0  0  0  0  0  0
    2.8465    1.8416    0.0000 C   0  0  0  0  0  0  0  0  0  0  0  0
    5.4103   -0.0166    0.0000 C   0  0  0  0  0  0  0  0  0  0  0  0
    2.0000    0.3754    0.0000 C   0  0  0  0  0  0  0  0  0  0  0  0
    2.0000    1.3529    0.0000 C   0  0  0  0  0  0  0  0  0  0  0  0
    5.4103    1.7448    0.0000 C   0  0  0  0  0  0  0  0  0  0  0  0
    5.8344    0.8641    0.0000 C   0  0  0  0  0  0  0  0  0  0  0  0
    5.9116   -0.8557    0.0000 C   0  0  0  0  0  0  0  0  0  0  0  0
    5.2685   -1.5918    0.0000 C   0  0  0  0  0  0  0  0  0  0  0  0
    3.6296   -0.4723    0.0000 H   0  0  0  0  0  0  0  0  0  0  0  0
    4.2682    2.7910    0.0000 H   0  0  0  0  0  0  0  0  0  0  0  0
    5.3900    0.5648    0.0000 H   0  0  0  0  0  0  0  0  0  0  0  0
    5.3748    1.3137    0.0000 H   0  0  0  0  0  0  0  0  0  0  0  0
    2.4480   -0.5883    0.0000 H   0  0  0  0  0  0  0  0  0  0  0  0
    3.2451   -0.5883    0.0000 H   0  0  0  0  0  0  0  0  0  0  0  0
    3.2451    2.3166    0.0000 H   0  0  0  0  0  0  0  0  0  0  0  0
    2.4480    2.3166    0.0000 H   0  0  0  0  0  0  0  0  0  0  0  0
    1.3894    0.4830    0.0000 H   0  0  0  0  0  0  0  0  0  0  0  0
    1.7880   -0.2073    0.0000 H   0  0  0  0  0  0  0  0  0  0  0  0
    1.7880    1.9355    0.0000 H   0  0  0  0  0  0  0  0  0  0  0  0
    1.3894    1.2452    0.0000 H   0  0  0  0  0  0  0  0  0  0  0  0
    5.7969    2.2295    0.0000 H   0  0  0  0  0  0  0  0  0  0  0  0
    6.4544    0.8641    0.0000 H   0  0  0  0  0  0  0  0  0  0  0  0
    6.5291   -0.9113    0.0000 H   0  0  0  0  0  0  0  0  0  0  0  0
  4  1  1  1  0  0  0
  1 16  1  0  0  0  0
  2 16  2  0  0  0  0
  3  5  1  0  0  0  0
  3  6  1  0  0  0  0
  3  9  1  0  0  0  0
  4  5  1  0  0  0  0
  4  7  1  0  0  0  0
  4 10  1  0  0  0  0
  5  8  1  0  0  0  0
  5 17  1  6  0  0  0
  6  7  1  0  0  0  0
  6 13  1  0  0  0  0
  6 18  1  1  0  0  0
  7 19  1  0  0  0  0
  7 20  1  0  0  0  0
  8 11  1  0  0  0  0
  8 21  1  0  0  0  0
  8 22  1  0  0  0  0
  9 12  1  0  0  0  0
  9 23  1  0  0  0  0
  9 24  1  0  0  0  0
 10 14  1  0  0  0  0
 10 15  2  0  0  0  0
 11 12  1  0  0  0  0
 11 25  1  0  0  0  0
 11 26  1  0  0  0  0
 12 27  1  0  0  0  0
 12 28  1  0  0  0  0
 13 14  2  0  0  0  0
 13 29  1  0  0  0  0
 14 30  1  0  0  0  0
 15 16  1  0  0  0  0
 15 31  1  0  0  0  0
M  END
> <PUBCHEM_COMPOUND_CID>
442872

> <PUBCHEM_COMPOUND_CANONICALIZED>
1

> <PUBCHEM_CACTVS_COMPLEXITY>
426

> <PUBCHEM_CACTVS_HBOND_ACCEPTOR>
3

> <PUBCHEM_CACTVS_HBOND_DONOR>
0

> <PUBCHEM_CACTVS_ROTATABLE_BOND>
0

> <PUBCHEM_CACTVS_SUBSKEYS>
AAADccByMAAAAAAAAAAAAAAAAAAAAWIAAAAsQAAABAAAAFiAAAAAHgAAAAAADGzBgAQACAMABACIAiDSCACAAAAgAAAICAAIAEgKBAIAoQAHEAAGwACYoQOQwMAOAAAAAAAAAAAAAAAAAAAAAAAAAAAAAA==

> <PUBCHEM_IUPAC_INCHI>
InChI=1S/C13H15NO2/c15-12-7-9-4-5-10-8-13(9,16-12)11-3-1-2-6-14(10)11/h4-5,7,10-11H,1-3,6,8H2/t10-,11-,13+/m1/s1

> <PUBCHEM_IUPAC_INCHIKEY>
SWZMSZQQJRKFBP-WZRBSPASSA-N

> <PUBCHEM_XLOGP3_AA>
1.1

> <PUBCHEM_EXACT_MASS>
217.110279

> <PUBCHEM_MOLECULAR_FORMULA>
C13H15NO2

> <PUBCHEM_MOLECULAR_WEIGHT>
217.2637

> <PUBCHEM_OPENEYE_CAN_SMILES>
C1CCN2C(C1)C34CC2C=CC3=CC(=O)O4

> <PUBCHEM_OPENEYE_ISO_SMILES>
C1CCN2[C@H](C1)[C@]34C[C@H]2C=CC3=CC(=O)O4

> <PUBCHEM_CACTVS_TPSA>
29.5

> <PUBCHEM_MONOISOTOPIC_WEIGHT>
217.110279

> <PUBCHEM_TOTAL_CHARGE>
0

> <PUBCHEM_HEAVY_ATOM_COUNT>
16

> <PUBCHEM_ATOM_DEF_STEREO_COUNT>
3

> <PUBCHEM_ATOM_UDEF_STEREO_COUNT>
0

> <PUBCHEM_BOND_DEF_STEREO_COUNT>
0

> <PUBCHEM_BOND_UDEF_STEREO_COUNT>
0

> <PUBCHEM_ISOTOPIC_ATOM_COUNT>
0

> <PUBCHEM_COMPONENT_COUNT>
1

> <PUBCHEM_CACTVS_TAUTO_COUNT>
1

> <PUBCHEM_COORDINATE_TYPE>
1
5
255

> <PUBCHEM_BONDANNOTATIONS>
4  1  5
5  17  6
6  18  5

$$$$

