442425
  -OEChem-07051212583D

 54 56  0     1  0  0  0  0  0999 V2000
    2.2272   -0.9762    1.7039 O   0  0  0  0  0  0  0  0  0  0  0  0
    2.3259    3.2982    1.6813 O   0  0  0  0  0  0  0  0  0  0  0  0
    0.4077    0.6152   -1.2912 O   0  0  0  0  0  0  0  0  0  0  0  0
   -0.5316   -0.1064    0.7432 O   0  0  0  0  0  0  0  0  0  0  0  0
   -2.5654    0.8200    0.0729 O   0  0  0  0  0  0  0  0  0  0  0  0
   -1.7182   -2.6752    0.7167 O   0  0  0  0  0  0  0  0  0  0  0  0
    3.7646   -2.3267   -0.0090 O   0  0  0  0  0  0  0  0  0  0  0  0
   -4.6215   -2.5508    1.2028 O   0  0  0  0  0  0  0  0  0  0  0  0
   -5.8636   -0.6361   -0.5714 O   0  0  0  0  0  0  0  0  0  0  0  0
    3.6633   -1.7862   -2.2578 O   0  0  0  0  0  0  0  0  0  0  0  0
   -3.6705    2.8989   -1.3461 O   0  0  0  0  0  0  0  0  0  0  0  0
    1.4967    1.1943    0.8730 C   0  0  1  0  0  0  0  0  0  0  0  0
    2.4922    0.0118    0.7136 C   0  0  1  0  0  0  0  0  0  0  0  0
    2.3083    2.4758    0.5027 C   0  0  2  0  0  0  0  0  0  0  0  0
    3.8448    0.6805    0.9831 C   0  0  0  0  0  0  0  0  0  0  0  0
    3.7474    2.0037    0.2384 C   0  0  0  0  0  0  0  0  0  0  0  0
    0.1974    0.9368    0.0882 C   0  0  1  0  0  0  0  0  0  0  0  0
    2.3743   -0.6172   -0.6481 C   0  0  0  0  0  0  0  0  0  0  0  0
    1.7844    3.3434   -0.6371 C   0  0  0  0  0  0  0  0  0  0  0  0
    1.4201   -0.2778   -1.5226 C   0  0  0  0  0  0  0  0  0  0  0  0
   -1.7720   -0.3644    0.0860 C   0  0  2  0  0  0  0  0  0  0  0  0
   -2.4862   -1.4795    0.8495 C   0  0  1  0  0  0  0  0  0  0  0  0
   -3.8932   -1.7165    0.3005 C   0  0  2  0  0  0  0  0  0  0  0  0
    3.3346   -1.6310   -1.0921 C   0  0  0  0  0  0  0  0  0  0  0  0
   -4.6578   -0.4011    0.1512 C   0  0  1  0  0  0  0  0  0  0  0  0
   -3.8146    0.6355   -0.5953 C   0  0  1  0  0  0  0  0  0  0  0  0
   -4.5096    1.9921   -0.6541 C   0  0  0  0  0  0  0  0  0  0  0  0
    4.7155   -3.3610   -0.2824 C   0  0  0  0  0  0  0  0  0  0  0  0
    1.2144    1.2492    1.9358 H   0  0  0  0  0  0  0  0  0  0  0  0
    4.7045    0.0910    0.6495 H   0  0  0  0  0  0  0  0  0  0  0  0
    3.9798    0.8511    2.0591 H   0  0  0  0  0  0  0  0  0  0  0  0
    4.4991    2.7125    0.6012 H   0  0  0  0  0  0  0  0  0  0  0  0
    3.9200    1.8359   -0.8314 H   0  0  0  0  0  0  0  0  0  0  0  0
   -0.4071    1.8494    0.1274 H   0  0  0  0  0  0  0  0  0  0  0  0
    1.7690    2.8116   -1.5921 H   0  0  0  0  0  0  0  0  0  0  0  0
    0.7792    3.7219   -0.4237 H   0  0  0  0  0  0  0  0  0  0  0  0
    2.4184    4.2297   -0.7601 H   0  0  0  0  0  0  0  0  0  0  0  0
    1.3180   -1.2969    1.5750 H   0  0  0  0  0  0  0  0  0  0  0  0
    1.4120    3.5789    1.8601 H   0  0  0  0  0  0  0  0  0  0  0  0
    1.3380   -0.6631   -2.5303 H   0  0  0  0  0  0  0  0  0  0  0  0
   -1.5740   -0.6978   -0.9410 H   0  0  0  0  0  0  0  0  0  0  0  0
   -2.5277   -1.2400    1.9195 H   0  0  0  0  0  0  0  0  0  0  0  0
   -3.8573   -2.2496   -0.6578 H   0  0  0  0  0  0  0  0  0  0  0  0
   -4.9341   -0.0229    1.1438 H   0  0  0  0  0  0  0  0  0  0  0  0
   -3.6159    0.3110   -1.6258 H   0  0  0  0  0  0  0  0  0  0  0  0
   -4.6839    2.3972    0.3483 H   0  0  0  0  0  0  0  0  0  0  0  0
   -5.4654    1.9352   -1.1826 H   0  0  0  0  0  0  0  0  0  0  0  0
   -2.1290   -3.3537    1.2784 H   0  0  0  0  0  0  0  0  0  0  0  0
   -4.1791   -3.4159    1.2267 H   0  0  0  0  0  0  0  0  0  0  0  0
   -6.3652   -1.3142   -0.0874 H   0  0  0  0  0  0  0  0  0  0  0  0
    4.2783   -4.1109   -0.9486 H   0  0  0  0  0  0  0  0  0  0  0  0
    4.9765   -3.8413    0.6643 H   0  0  0  0  0  0  0  0  0  0  0  0
    5.6221   -2.9344   -0.7219 H   0  0  0  0  0  0  0  0  0  0  0  0
   -2.8229    2.9370   -0.8707 H   0  0  0  0  0  0  0  0  0  0  0  0
  1 13  1  0  0  0  0
  1 38  1  0  0  0  0
  2 14  1  0  0  0  0
  2 39  1  0  0  0  0
  3 17  1  0  0  0  0
  3 20  1  0  0  0  0
  4 17  1  0  0  0  0
  4 21  1  0  0  0  0
  5 21  1  0  0  0  0
  5 26  1  0  0  0  0
  6 22  1  0  0  0  0
  6 48  1  0  0  0  0
  7 24  1  0  0  0  0
  7 28  1  0  0  0  0
  8 23  1  0  0  0  0
  8 49  1  0  0  0  0
  9 25  1  0  0  0  0
  9 50  1  0  0  0  0
 10 24  2  0  0  0  0
 11 27  1  0  0  0  0
 11 54  1  0  0  0  0
 12 13  1  0  0  0  0
 12 14  1  0  0  0  0
 12 17  1  0  0  0  0
 12 29  1  0  0  0  0
 13 15  1  0  0  0  0
 13 18  1  0  0  0  0
 14 16  1  0  0  0  0
 14 19  1  0  0  0  0
 15 16  1  0  0  0  0
 15 30  1  0  0  0  0
 15 31  1  0  0  0  0
 16 32  1  0  0  0  0
 16 33  1  0  0  0  0
 17 34  1  0  0  0  0
 18 20  2  0  0  0  0
 18 24  1  0  0  0  0
 19 35  1  0  0  0  0
 19 36  1  0  0  0  0
 19 37  1  0  0  0  0
 20 40  1  0  0  0  0
 21 22  1  0  0  0  0
 21 41  1  0  0  0  0
 22 23  1  0  0  0  0
 22 42  1  0  0  0  0
 23 25  1  0  0  0  0
 23 43  1  0  0  0  0
 25 26  1  0  0  0  0
 25 44  1  0  0  0  0
 26 27  1  0  0  0  0
 26 45  1  0  0  0  0
 27 46  1  0  0  0  0
 27 47  1  0  0  0  0
 28 51  1  0  0  0  0
 28 52  1  0  0  0  0
 28 53  1  0  0  0  0
M  END
> <PUBCHEM_COMPOUND_CID>
442425

> <PUBCHEM_CONFORMER_RMSD>
0.8

> <PUBCHEM_CONFORMER_DIVERSEORDER>
2
5
126
19
104
97
84
16
77
55
132
111
108
39
29
9
116
14
80
141
107
57
88
85
59
34
128
74
56
123
1
135
48
28
11
93
38
31
89
114
134
22
67
87
27
82
102
127
136
99
86
140
69
37
64
52
60
131
4
94
6
36
54
96
50
105
137
81
17
61
45
21
90
112
122
71
95
32
65
113
24
62
119
47
139
18
129
103
33
30
115
83
68
46
76
133
23
138
42
101
109
10
125
70
40
13
124
44
117
15
118
51
35
91
120
53
3
25
100
79
8
130
75
92
43
66
73
58
72
110
49
26
98
41
20
63
121
78
7
106
12

> <PUBCHEM_MMFF94_PARTIAL_CHARGES>
31
1 -0.68
10 -0.57
11 -0.68
13 0.42
14 0.28
17 0.56
18 -0.12
2 -0.68
20 -0.07
21 0.56
22 0.28
23 0.28
24 0.71
25 0.28
26 0.28
27 0.28
28 0.28
3 -0.36
38 0.4
39 0.4
4 -0.56
40 0.15
48 0.4
49 0.4
5 -0.56
50 0.4
54 0.4
6 -0.68
7 -0.43
8 -0.68
9 -0.68

> <PUBCHEM_EFFECTIVE_ROTOR_COUNT>
7.2

> <PUBCHEM_PHARMACOPHORE_FEATURES>
19
1 1 acceptor
1 1 donor
1 10 acceptor
1 11 acceptor
1 11 donor
1 2 acceptor
1 2 donor
1 3 acceptor
1 4 acceptor
1 5 acceptor
1 6 acceptor
1 6 donor
1 8 acceptor
1 8 donor
1 9 acceptor
1 9 donor
5 12 13 14 15 16 rings
6 3 12 13 17 18 20 rings
6 5 21 22 23 25 26 rings

> <PUBCHEM_HEAVY_ATOM_COUNT>
28

> <PUBCHEM_ATOM_DEF_STEREO_COUNT>
9

> <PUBCHEM_ATOM_UDEF_STEREO_COUNT>
0

> <PUBCHEM_BOND_DEF_STEREO_COUNT>
0

> <PUBCHEM_BOND_UDEF_STEREO_COUNT>
0

> <PUBCHEM_ISOTOPIC_ATOM_COUNT>
0

> <PUBCHEM_COMPONENT_COUNT>
1

> <PUBCHEM_CACTVS_TAUTO_COUNT>
1

> <PUBCHEM_CONFORMER_ID>
0006C03900000002

> <PUBCHEM_MMFF94_ENERGY>
90.0449

> <PUBCHEM_FEATURE_SELFOVERLAP>
96.754

> <PUBCHEM_SHAPE_FINGERPRINT>
10369192 42 18124597484085385532
10646746 165 18271531913972963401
1100329 8 16537080173918660311
11405975 8 18334570278789838945
11578080 2 17775020023975225804
11796584 16 18127687347639602542
12403259 226 18411419527226981741
12422481 6 18117026358853474472
12553582 1 17973700744258965042
12633257 1 17986979408532404552
12788726 201 17763744686766782962
13134695 92 17530974608816779272
13140716 1 18043525234617967112
13224815 77 18129940070954860049
13533116 47 18335421240728948955
13544592 145 18341333412965860743
13583140 156 18261115110688392997
13757389 114 16971099667575884724
14223421 5 18267302040974311849
14251757 17 18410858776201656377
14866123 147 17253706586963773178
14955137 171 18188215308709818488
15961568 22 17844248415243889365
17349148 13 16225767428163832479
17492 89 18411137996421373627
17844677 252 18410007762981751969
18186145 218 18410574028650062265
20600515 1 18120077644832818572
20645477 70 17967531289556501518
20832881 197 18266738176140161099
21065198 57 18410575072216013947
21065201 7 18273497888108047171
21756936 100 17471017973967938800
23557571 272 18058168324165257009
23559900 14 18408888463917241400
3004659 81 17986947643366090350
3421961 26 18334858342294140162
460360 51 18341883117219237481
46194498 28 18339354167466274204
5104073 3 18187638124712259715
5281201 14 18408885139897709309
5895379 119 17846494820425163196
621550 34 18048877399212725889
6823239 73 18411699906976404594
7399639 24 17903646185259809177
9709674 26 18411138000663151667

> <PUBCHEM_SHAPE_MULTIPOLES>
511.66
10.69
3.78
1.42
10.27
0.64
0.23
-3.85
0.88
-2.52
-0.07
-0.82
-0.06
2.72

> <PUBCHEM_SHAPE_SELFOVERLAP>
1082.127

> <PUBCHEM_SHAPE_VOLUME>
282.4

> <PUBCHEM_COORDINATE_TYPE>
2
5
10

$$$$

