5281466
  -OEChem-07051212572D

 37 38  0     1  0  0  0  0  0999 V2000
    4.3723    1.7514    0.0000 O   0  0  0  0  0  0  0  0  0  0  0  0
    2.8836    2.7204    0.0000 O   0  0  0  0  0  0  0  0  0  0  0  0
    4.5816    0.7796    0.0000 C   0  0  3  0  0  0  0  0  0  0  0  0
    3.7155    0.2796    0.0000 C   0  0  0  0  0  0  0  0  0  0  0  0
    5.4476    0.2796    0.0000 C   0  0  0  0  0  0  0  0  0  0  0  0
    3.7155   -0.7204    0.0000 C   0  0  0  0  0  0  0  0  0  0  0  0
    2.9785    0.9466    0.0000 C   0  0  0  0  0  0  0  0  0  0  0  0
    5.4476   -0.7204    0.0000 C   0  0  0  0  0  0  0  0  0  0  0  0
    5.4476   -2.7204    0.0000 C   0  0  0  0  0  0  0  0  0  0  0  0
    6.3136   -2.2204    0.0000 C   0  0  0  0  0  0  0  0  0  0  0  0
    4.5816   -1.2204    0.0000 C   0  0  0  0  0  0  0  0  0  0  0  0
    4.5816   -2.2204    0.0000 C   0  0  0  0  0  0  0  0  0  0  0  0
    3.3836    1.8544    0.0000 C   0  0  0  0  0  0  0  0  0  0  0  0
    6.3136   -1.2204    0.0000 C   0  0  0  0  0  0  0  0  0  0  0  0
    2.0000    0.7404    0.0000 C   0  0  0  0  0  0  0  0  0  0  0  0
    3.9910   -1.2505    0.0000 C   0  0  0  0  0  0  0  0  0  0  0  0
    3.7155   -2.7204    0.0000 C   0  0  0  0  0  0  0  0  0  0  0  0
    5.2686    1.2801    0.0000 H   0  0  0  0  0  0  0  0  0  0  0  0
    6.0582    0.1719    0.0000 H   0  0  0  0  0  0  0  0  0  0  0  0
    5.6596    0.8622    0.0000 H   0  0  0  0  0  0  0  0  0  0  0  0
    3.1049   -0.6128    0.0000 H   0  0  0  0  0  0  0  0  0  0  0  0
    3.5035   -1.3031    0.0000 H   0  0  0  0  0  0  0  0  0  0  0  0
    5.0490   -3.1954    0.0000 H   0  0  0  0  0  0  0  0  0  0  0  0
    5.8461   -3.1954    0.0000 H   0  0  0  0  0  0  0  0  0  0  0  0
    6.5256   -2.8031    0.0000 H   0  0  0  0  0  0  0  0  0  0  0  0
    6.9242   -2.1128    0.0000 H   0  0  0  0  0  0  0  0  0  0  0  0
    5.1921   -1.3281    0.0000 H   0  0  0  0  0  0  0  0  0  0  0  0
    6.8505   -0.9104    0.0000 H   0  0  0  0  0  0  0  0  0  0  0  0
    1.8721    1.3471    0.0000 H   0  0  0  0  0  0  0  0  0  0  0  0
    1.3933    0.6126    0.0000 H   0  0  0  0  0  0  0  0  0  0  0  0
    2.1279    0.1337    0.0000 H   0  0  0  0  0  0  0  0  0  0  0  0
    3.7790   -0.6679    0.0000 H   0  0  0  0  0  0  0  0  0  0  0  0
    3.4084   -1.4626    0.0000 H   0  0  0  0  0  0  0  0  0  0  0  0
    4.2031   -1.8332    0.0000 H   0  0  0  0  0  0  0  0  0  0  0  0
    3.4055   -2.1835    0.0000 H   0  0  0  0  0  0  0  0  0  0  0  0
    3.1786   -3.0304    0.0000 H   0  0  0  0  0  0  0  0  0  0  0  0
    4.0255   -3.2574    0.0000 H   0  0  0  0  0  0  0  0  0  0  0  0
  1  3  1  0  0  0  0
  1 13  1  0  0  0  0
  2 13  2  0  0  0  0
  3  4  1  0  0  0  0
  3  5  1  0  0  0  0
  3 18  1  0  0  0  0
  4  6  1  0  0  0  0
  4  7  2  0  0  0  0
  5  8  1  0  0  0  0
  5 19  1  0  0  0  0
  5 20  1  0  0  0  0
  6 11  1  0  0  0  0
  6 21  1  0  0  0  0
  6 22  1  0  0  0  0
  7 13  1  0  0  0  0
  7 15  1  0  0  0  0
  8 14  2  0  0  0  0
  8 16  1  0  0  0  0
  9 10  1  0  0  0  0
  9 12  1  0  0  0  0
  9 23  1  0  0  0  0
  9 24  1  0  0  0  0
 10 14  1  0  0  0  0
 10 25  1  0  0  0  0
 10 26  1  0  0  0  0
 11 12  2  0  0  0  0
 11 27  1  0  0  0  0
 12 17  1  0  0  0  0
 14 28  1  0  0  0  0
 15 29  1  0  0  0  0
 15 30  1  0  0  0  0
 15 31  1  0  0  0  0
 16 32  1  0  0  0  0
 16 33  1  0  0  0  0
 16 34  1  0  0  0  0
 17 35  1  0  0  0  0
 17 36  1  0  0  0  0
 17 37  1  0  0  0  0
M  END
> <PUBCHEM_COMPOUND_CID>
5281466

> <PUBCHEM_COMPOUND_CANONICALIZED>
1

> <PUBCHEM_CACTVS_COMPLEXITY>
424

> <PUBCHEM_CACTVS_HBOND_ACCEPTOR>
2

> <PUBCHEM_CACTVS_HBOND_DONOR>
0

> <PUBCHEM_CACTVS_ROTATABLE_BOND>
0

> <PUBCHEM_CACTVS_SUBSKEYS>
AAADceBwMAAAAAAAAAAAAAAAAAAAAQAAAAAAAAAAAAAAAACAAAAAGgAAAAAADBSggAICCAAABACIAiDSCAAAAAAgAAAACAEAAEgABAIAIQACEAAEwAAIIQMAgAAAAAAAAAAAAAAAAAAAAAAAAAAAAAAAAA==

> <PUBCHEM_IUPAC_OPENEYE_NAME>
(5E,9E)-3,6,10-trimethyl-7,8,11,11a-tetrahydro-4H-cyclodeca[b]furan-2-one

> <PUBCHEM_IUPAC_CAS_NAME>
(5E,9E)-3,6,10-trimethyl-7,8,11,11a-tetrahydro-4H-cyclodeca[b]furan-2-one

> <PUBCHEM_IUPAC_NAME>
(5E,9E)-3,6,10-trimethyl-7,8,11,11a-tetrahydro-4H-cyclodeca[b]furan-2-one

> <PUBCHEM_IUPAC_SYSTEMATIC_NAME>
(5E,9E)-3,6,10-trimethyl-7,8,11,11a-tetrahydro-4H-cyclodeca[b]furan-2-one

> <PUBCHEM_IUPAC_TRADITIONAL_NAME>
(5E,9E)-3,6,10-trimethyl-7,8,11,11a-tetrahydro-4H-cyclodeca[b]furan-2-one

> <PUBCHEM_IUPAC_INCHI>
InChI=1S/C15H20O2/c1-10-5-4-6-11(2)9-14-13(8-7-10)12(3)15(16)17-14/h6-7,14H,4-5,8-9H2,1-3H3/b10-7+,11-6+

> <PUBCHEM_IUPAC_INCHIKEY>
SLGKCOCDZZQQLY-NXAIOARDSA-N

> <PUBCHEM_XLOGP3_AA>
2.5

> <PUBCHEM_EXACT_MASS>
232.14633

> <PUBCHEM_MOLECULAR_FORMULA>
C15H20O2

> <PUBCHEM_MOLECULAR_WEIGHT>
232.3181

> <PUBCHEM_OPENEYE_CAN_SMILES>
CC1=CCC2=C(C(=O)OC2CC(=CCC1)C)C

> <PUBCHEM_OPENEYE_ISO_SMILES>
C/C/1=C\CC2=C(C(=O)OC2C/C(=C/CC1)/C)C

> <PUBCHEM_CACTVS_TPSA>
26.3

> <PUBCHEM_MONOISOTOPIC_WEIGHT>
232.14633

> <PUBCHEM_TOTAL_CHARGE>
0

> <PUBCHEM_HEAVY_ATOM_COUNT>
17

> <PUBCHEM_ATOM_DEF_STEREO_COUNT>
0

> <PUBCHEM_ATOM_UDEF_STEREO_COUNT>
1

> <PUBCHEM_BOND_DEF_STEREO_COUNT>
2

> <PUBCHEM_BOND_UDEF_STEREO_COUNT>
0

> <PUBCHEM_ISOTOPIC_ATOM_COUNT>
0

> <PUBCHEM_COMPONENT_COUNT>
1

> <PUBCHEM_CACTVS_TAUTO_COUNT>
1

> <PUBCHEM_COORDINATE_TYPE>
1
5
255

> <PUBCHEM_BONDANNOTATIONS>
3  18  3

$$$$

