6075
  -OEChem-06261201052D

 44 47  0     1  0  0  0  0  0999 V2000
    4.6660   -2.9827    0.0000 S   0  0  0  0  0  0  0  0  0  0  0  0
    6.3981    2.0173    0.0000 N   0  0  3  0  0  0  0  0  0  0  0  0
    4.6660   -0.9827    0.0000 N   0  0  0  0  0  0  0  0  0  0  0  0
    5.5321    0.5173    0.0000 C   0  0  3  0  0  0  0  0  0  0  0  0
    6.3981    0.0173    0.0000 C   0  0  0  0  0  0  0  0  0  0  0  0
    5.5321    1.5173    0.0000 C   0  0  0  0  0  0  0  0  0  0  0  0
    7.2641    0.5173    0.0000 C   0  0  0  0  0  0  0  0  0  0  0  0
    4.6660    0.0173    0.0000 C   0  0  0  0  0  0  0  0  0  0  0  0
    7.2641    1.5173    0.0000 C   0  0  0  0  0  0  0  0  0  0  0  0
    6.3981    3.0173    0.0000 C   0  0  0  0  0  0  0  0  0  0  0  0
    5.5321   -1.4827    0.0000 C   0  0  0  0  0  0  0  0  0  0  0  0
    3.8000   -1.4827    0.0000 C   0  0  0  0  0  0  0  0  0  0  0  0
    5.5321   -2.4827    0.0000 C   0  0  0  0  0  0  0  0  0  0  0  0
    3.8000   -2.4827    0.0000 C   0  0  0  0  0  0  0  0  0  0  0  0
    2.9061   -0.9480    0.0000 C   0  0  0  0  0  0  0  0  0  0  0  0
    6.4260   -0.9480    0.0000 C   0  0  0  0  0  0  0  0  0  0  0  0
    6.4260   -3.0173    0.0000 C   0  0  0  0  0  0  0  0  0  0  0  0
    2.9061   -3.0173    0.0000 C   0  0  0  0  0  0  0  0  0  0  0  0
    7.3321   -1.4619    0.0000 C   0  0  0  0  0  0  0  0  0  0  0  0
    2.0000   -1.4619    0.0000 C   0  0  0  0  0  0  0  0  0  0  0  0
    7.3321   -2.5035    0.0000 C   0  0  0  0  0  0  0  0  0  0  0  0
    2.0000   -2.5035    0.0000 C   0  0  0  0  0  0  0  0  0  0  0  0
    5.5321   -0.1027    0.0000 H   0  0  0  0  0  0  0  0  0  0  0  0
    5.9996   -0.4576    0.0000 H   0  0  0  0  0  0  0  0  0  0  0  0
    6.7966   -0.4576    0.0000 H   0  0  0  0  0  0  0  0  0  0  0  0
    5.3200    2.0999    0.0000 H   0  0  0  0  0  0  0  0  0  0  0  0
    4.9215    1.4097    0.0000 H   0  0  0  0  0  0  0  0  0  0  0  0
    7.4762   -0.0653    0.0000 H   0  0  0  0  0  0  0  0  0  0  0  0
    7.8747    0.6250    0.0000 H   0  0  0  0  0  0  0  0  0  0  0  0
    4.4540    0.5999    0.0000 H   0  0  0  0  0  0  0  0  0  0  0  0
    4.0555   -0.0903    0.0000 H   0  0  0  0  0  0  0  0  0  0  0  0
    7.8747    1.4097    0.0000 H   0  0  0  0  0  0  0  0  0  0  0  0
    7.4762    2.0999    0.0000 H   0  0  0  0  0  0  0  0  0  0  0  0
    7.0181    3.0173    0.0000 H   0  0  0  0  0  0  0  0  0  0  0  0
    6.3981    3.6373    0.0000 H   0  0  0  0  0  0  0  0  0  0  0  0
    5.7781    3.0173    0.0000 H   0  0  0  0  0  0  0  0  0  0  0  0
    2.9132   -0.3280    0.0000 H   0  0  0  0  0  0  0  0  0  0  0  0
    6.4188   -0.3280    0.0000 H   0  0  0  0  0  0  0  0  0  0  0  0
    2.9132   -3.6373    0.0000 H   0  0  0  0  0  0  0  0  0  0  0  0
    6.4188   -3.6373    0.0000 H   0  0  0  0  0  0  0  0  0  0  0  0
    7.8678   -1.1498    0.0000 H   0  0  0  0  0  0  0  0  0  0  0  0
    1.4643   -1.1498    0.0000 H   0  0  0  0  0  0  0  0  0  0  0  0
    7.8678   -2.8156    0.0000 H   0  0  0  0  0  0  0  0  0  0  0  0
    1.4643   -2.8156    0.0000 H   0  0  0  0  0  0  0  0  0  0  0  0
  1 13  1  0  0  0  0
  1 14  1  0  0  0  0
  2  6  1  0  0  0  0
  2  9  1  0  0  0  0
  2 10  1  0  0  0  0
  3  8  1  0  0  0  0
  3 11  1  0  0  0  0
  3 12  1  0  0  0  0
  4  5  1  0  0  0  0
  4  6  1  0  0  0  0
  4  8  1  0  0  0  0
  4 23  1  0  0  0  0
  5  7  1  0  0  0  0
  5 24  1  0  0  0  0
  5 25  1  0  0  0  0
  6 26  1  0  0  0  0
  6 27  1  0  0  0  0
  7  9  1  0  0  0  0
  7 28  1  0  0  0  0
  7 29  1  0  0  0  0
  8 30  1  0  0  0  0
  8 31  1  0  0  0  0
  9 32  1  0  0  0  0
  9 33  1  0  0  0  0
 10 34  1  0  0  0  0
 10 35  1  0  0  0  0
 10 36  1  0  0  0  0
 11 13  1  0  0  0  0
 11 16  2  0  0  0  0
 12 14  1  0  0  0  0
 12 15  2  0  0  0  0
 13 17  2  0  0  0  0
 14 18  2  0  0  0  0
 15 20  1  0  0  0  0
 15 37  1  0  0  0  0
 16 19  1  0  0  0  0
 16 38  1  0  0  0  0
 17 21  1  0  0  0  0
 17 40  1  0  0  0  0
 18 22  1  0  0  0  0
 18 39  1  0  0  0  0
 19 21  2  0  0  0  0
 19 41  1  0  0  0  0
 20 22  2  0  0  0  0
 20 42  1  0  0  0  0
 21 43  1  0  0  0  0
 22 44  1  0  0  0  0
M  END
> <PUBCHEM_COMPOUND_CID>
6075

> <PUBCHEM_COMPOUND_CANONICALIZED>
1

> <PUBCHEM_CACTVS_COMPLEXITY>
352

> <PUBCHEM_CACTVS_HBOND_ACCEPTOR>
3

> <PUBCHEM_CACTVS_HBOND_DONOR>
0

> <PUBCHEM_CACTVS_ROTATABLE_BOND>
2

> <PUBCHEM_CACTVS_SUBSKEYS>
AAADceB7AABAAAAAAAAAAAAAAAAAAAAAAAA8eIEAAAAAAACxQAAAHAQAAAAADQjBUAQywYMAAAiAACRCQACCAAAhChAIiBwIZIgIIGLg0ZGEIAhggADoyAcQAAAMAAAAAAAAAQAAAAAAAAACAAAAAAAAAA==

> <PUBCHEM_IUPAC_OPENEYE_NAME>
10-[(1-methyl-3-piperidyl)methyl]phenothiazine

> <PUBCHEM_IUPAC_CAS_NAME>
10-[(1-methyl-3-piperidinyl)methyl]phenothiazine

> <PUBCHEM_IUPAC_NAME>
10-[(1-methylpiperidin-3-yl)methyl]phenothiazine

> <PUBCHEM_IUPAC_SYSTEMATIC_NAME>
10-[(1-methylpiperidin-3-yl)methyl]phenothiazine

> <PUBCHEM_IUPAC_TRADITIONAL_NAME>
10-[(1-methyl-3-piperidyl)methyl]phenothiazine

> <PUBCHEM_IUPAC_INCHI>
InChI=1S/C19H22N2S/c1-20-12-6-7-15(13-20)14-21-16-8-2-4-10-18(16)22-19-11-5-3-9-17(19)21/h2-5,8-11,15H,6-7,12-14H2,1H3

> <PUBCHEM_IUPAC_INCHIKEY>
CBHCDHNUZWWAPP-UHFFFAOYSA-N

> <PUBCHEM_XLOGP3>
5.6

> <PUBCHEM_EXACT_MASS>
310.15037

> <PUBCHEM_MOLECULAR_FORMULA>
C19H22N2S

> <PUBCHEM_MOLECULAR_WEIGHT>
310.45638

> <PUBCHEM_OPENEYE_CAN_SMILES>
CN1CCCC(C1)CN2C3=CC=CC=C3SC4=CC=CC=C42

> <PUBCHEM_OPENEYE_ISO_SMILES>
CN1CCCC(C1)CN2C3=CC=CC=C3SC4=CC=CC=C42

> <PUBCHEM_CACTVS_TPSA>
31.8

> <PUBCHEM_MONOISOTOPIC_WEIGHT>
310.15037

> <PUBCHEM_TOTAL_CHARGE>
0

> <PUBCHEM_HEAVY_ATOM_COUNT>
22

> <PUBCHEM_ATOM_DEF_STEREO_COUNT>
0

> <PUBCHEM_ATOM_UDEF_STEREO_COUNT>
1

> <PUBCHEM_BOND_DEF_STEREO_COUNT>
0

> <PUBCHEM_BOND_UDEF_STEREO_COUNT>
0

> <PUBCHEM_ISOTOPIC_ATOM_COUNT>
0

> <PUBCHEM_COMPONENT_COUNT>
1

> <PUBCHEM_CACTVS_TAUTO_COUNT>
1

> <PUBCHEM_COORDINATE_TYPE>
1
5
255

> <PUBCHEM_BONDANNOTATIONS>
11  13  8
11  16  8
12  14  8
12  15  8
13  17  8
14  18  8
15  20  8
16  19  8
17  21  8
18  22  8
19  21  8
20  22  8
4  8  3

$$$$

