442864
  -OEChem-07051213003D

 72 76  0     1  0  0  0  0  0999 V2000
    1.4375   -2.0221    0.6172 O   0  0  0  0  0  0  0  0  0  0  0  0
    0.9114    2.3243   -0.6297 O   0  0  0  0  0  0  0  0  0  0  0  0
    0.5030    4.5442   -1.1215 O   0  0  0  0  0  0  0  0  0  0  0  0
   -4.5815   -1.3115    1.3964 O   0  0  0  0  0  0  0  0  0  0  0  0
   -4.2420    0.5149   -1.2384 O   0  0  0  0  0  0  0  0  0  0  0  0
    3.4520   -0.7514    1.0757 N   0  0  1  0  0  0  0  0  0  0  0  0
    4.2331   -1.6813    0.2258 C   0  0  2  0  0  0  0  0  0  0  0  0
    3.0356    0.4796    0.3437 C   0  0  2  0  0  0  0  0  0  0  0  0
    5.4711   -0.9999   -0.3676 C   0  0  0  0  0  0  0  0  0  0  0  0
    4.2824    1.1944   -0.2216 C   0  0  0  0  0  0  0  0  0  0  0  0
    3.3526   -2.3497   -0.8520 C   0  0  0  0  0  0  0  0  0  0  0  0
    5.1292    0.2852   -1.1028 C   0  0  0  0  0  0  0  0  0  0  0  0
    2.0729   -2.9611   -0.2513 C   0  0  2  0  0  0  0  0  0  0  0  0
    2.2295    1.4664    1.2371 C   0  0  0  0  0  0  0  0  0  0  0  0
    2.3249   -1.5266    1.6201 C   0  0  0  0  0  0  0  0  0  0  0  0
    1.6731    2.7078    0.5118 C   0  0  2  0  0  0  0  0  0  0  0  0
    1.1044   -3.3617   -1.3800 C   0  0  0  0  0  0  0  0  0  0  0  0
    0.7991    3.6107    1.4047 C   0  0  0  0  0  0  0  0  0  0  0  0
   -0.1756   -4.0791   -0.9178 C   0  0  0  0  0  0  0  0  0  0  0  0
   -0.3815    2.9536    2.1408 C   0  0  0  0  0  0  0  0  0  0  0  0
   -1.3165   -3.2813   -0.3248 C   0  0  0  0  0  0  0  0  0  0  0  0
   -1.4184    2.3081    1.2569 C   0  0  0  0  0  0  0  0  0  0  0  0
    0.3816    3.3502   -1.3597 C   0  0  0  0  0  0  0  0  0  0  0  0
   -1.3856   -1.8816   -0.3339 C   0  0  0  0  0  0  0  0  0  0  0  0
   -2.3899   -3.9894    0.2384 C   0  0  0  0  0  0  0  0  0  0  0  0
   -2.4618   -1.1890    0.2559 C   0  0  0  0  0  0  0  0  0  0  0  0
   -1.5036    0.9106    1.1755 C   0  0  0  0  0  0  0  0  0  0  0  0
   -2.4383    0.2755    0.3394 C   0  0  0  0  0  0  0  0  0  0  0  0
   -2.3033    3.0807    0.4984 C   0  0  0  0  0  0  0  0  0  0  0  0
   -3.4824   -3.3207    0.7918 C   0  0  0  0  0  0  0  0  0  0  0  0
   -3.5165   -1.9278    0.8059 C   0  0  0  0  0  0  0  0  0  0  0  0
   -0.3880    2.8003   -2.5221 C   0  0  0  0  0  0  0  0  0  0  0  0
   -3.3182    1.0725   -0.4028 C   0  0  0  0  0  0  0  0  0  0  0  0
   -3.2501    2.4655   -0.3227 C   0  0  0  0  0  0  0  0  0  0  0  0
   -3.8401    0.2896   -2.5870 C   0  0  0  0  0  0  0  0  0  0  0  0
    4.6141   -2.4834    0.8743 H   0  0  0  0  0  0  0  0  0  0  0  0
    2.3908    0.2014   -0.4992 H   0  0  0  0  0  0  0  0  0  0  0  0
    5.9959   -1.6848   -1.0439 H   0  0  0  0  0  0  0  0  0  0  0  0
    6.1718   -0.7656    0.4447 H   0  0  0  0  0  0  0  0  0  0  0  0
    4.8985    1.5742    0.6041 H   0  0  0  0  0  0  0  0  0  0  0  0
    3.9908    2.0605   -0.8249 H   0  0  0  0  0  0  0  0  0  0  0  0
    3.0731   -1.6144   -1.6155 H   0  0  0  0  0  0  0  0  0  0  0  0
    3.9239   -3.1304   -1.3691 H   0  0  0  0  0  0  0  0  0  0  0  0
    6.0501    0.8030   -1.3942 H   0  0  0  0  0  0  0  0  0  0  0  0
    4.5892    0.0607   -2.0297 H   0  0  0  0  0  0  0  0  0  0  0  0
    2.3322   -3.8518    0.3353 H   0  0  0  0  0  0  0  0  0  0  0  0
    1.3751    0.9270    1.6444 H   0  0  0  0  0  0  0  0  0  0  0  0
    2.8430    1.7853    2.0891 H   0  0  0  0  0  0  0  0  0  0  0  0
    2.6989   -2.3726    2.2133 H   0  0  0  0  0  0  0  0  0  0  0  0
    1.7392   -0.9413    2.3336 H   0  0  0  0  0  0  0  0  0  0  0  0
    2.5195    3.3135    0.1660 H   0  0  0  0  0  0  0  0  0  0  0  0
    1.6408   -4.0492   -2.0477 H   0  0  0  0  0  0  0  0  0  0  0  0
    0.8419   -2.4865   -1.9857 H   0  0  0  0  0  0  0  0  0  0  0  0
    0.4334    4.5275    0.9466 H   0  0  0  0  0  0  0  0  0  0  0  0
    1.4668    3.9827    2.1965 H   0  0  0  0  0  0  0  0  0  0  0  0
    0.1101   -4.8616   -0.2026 H   0  0  0  0  0  0  0  0  0  0  0  0
   -0.5883   -4.5925   -1.7971 H   0  0  0  0  0  0  0  0  0  0  0  0
   -0.8835    3.7181    2.7496 H   0  0  0  0  0  0  0  0  0  0  0  0
   -0.0054    2.2254    2.8700 H   0  0  0  0  0  0  0  0  0  0  0  0
   -0.5879   -1.2979   -0.7871 H   0  0  0  0  0  0  0  0  0  0  0  0
   -2.3807   -5.0772    0.2476 H   0  0  0  0  0  0  0  0  0  0  0  0
   -0.8261    0.3006    1.7707 H   0  0  0  0  0  0  0  0  0  0  0  0
   -2.2618    4.1659    0.5420 H   0  0  0  0  0  0  0  0  0  0  0  0
   -4.2982   -3.8943    1.2239 H   0  0  0  0  0  0  0  0  0  0  0  0
   -0.8076    1.8204   -2.2794 H   0  0  0  0  0  0  0  0  0  0  0  0
    0.2749    2.7109   -3.3857 H   0  0  0  0  0  0  0  0  0  0  0  0
   -1.2177    3.4722   -2.7574 H   0  0  0  0  0  0  0  0  0  0  0  0
   -3.9297    3.0814   -0.9061 H   0  0  0  0  0  0  0  0  0  0  0  0
   -4.4270   -0.3580    1.4832 H   0  0  0  0  0  0  0  0  0  0  0  0
   -3.6392    1.2417   -3.0883 H   0  0  0  0  0  0  0  0  0  0  0  0
   -4.6592   -0.2128   -3.1087 H   0  0  0  0  0  0  0  0  0  0  0  0
   -2.9535   -0.3501   -2.6330 H   0  0  0  0  0  0  0  0  0  0  0  0
  1 13  1  0  0  0  0
  1 15  1  0  0  0  0
  2 16  1  0  0  0  0
  2 23  1  0  0  0  0
  3 23  2  0  0  0  0
  4 31  1  0  0  0  0
  4 69  1  0  0  0  0
  5 33  1  0  0  0  0
  5 35  1  0  0  0  0
  6  7  1  0  0  0  0
  6  8  1  0  0  0  0
  6 15  1  0  0  0  0
  7  9  1  0  0  0  0
  7 11  1  0  0  0  0
  7 36  1  0  0  0  0
  8 10  1  0  0  0  0
  8 14  1  0  0  0  0
  8 37  1  0  0  0  0
  9 12  1  0  0  0  0
  9 38  1  0  0  0  0
  9 39  1  0  0  0  0
 10 12  1  0  0  0  0
 10 40  1  0  0  0  0
 10 41  1  0  0  0  0
 11 13  1  0  0  0  0
 11 42  1  0  0  0  0
 11 43  1  0  0  0  0
 12 44  1  0  0  0  0
 12 45  1  0  0  0  0
 13 17  1  0  0  0  0
 13 46  1  0  0  0  0
 14 16  1  0  0  0  0
 14 47  1  0  0  0  0
 14 48  1  0  0  0  0
 15 49  1  0  0  0  0
 15 50  1  0  0  0  0
 16 18  1  0  0  0  0
 16 51  1  0  0  0  0
 17 19  1  0  0  0  0
 17 52  1  0  0  0  0
 17 53  1  0  0  0  0
 18 20  1  0  0  0  0
 18 54  1  0  0  0  0
 18 55  1  0  0  0  0
 19 21  1  0  0  0  0
 19 56  1  0  0  0  0
 19 57  1  0  0  0  0
 20 22  1  0  0  0  0
 20 58  1  0  0  0  0
 20 59  1  0  0  0  0
 21 24  2  0  0  0  0
 21 25  1  0  0  0  0
 22 27  2  0  0  0  0
 22 29  1  0  0  0  0
 23 32  1  0  0  0  0
 24 26  1  0  0  0  0
 24 60  1  0  0  0  0
 25 30  2  0  0  0  0
 25 61  1  0  0  0  0
 26 28  1  0  0  0  0
 26 31  2  0  0  0  0
 27 28  1  0  0  0  0
 27 62  1  0  0  0  0
 28 33  2  0  0  0  0
 29 34  2  0  0  0  0
 29 63  1  0  0  0  0
 30 31  1  0  0  0  0
 30 64  1  0  0  0  0
 32 65  1  0  0  0  0
 32 66  1  0  0  0  0
 32 67  1  0  0  0  0
 33 34  1  0  0  0  0
 34 68  1  0  0  0  0
 35 70  1  0  0  0  0
 35 71  1  0  0  0  0
 35 72  1  0  0  0  0
M  END
> <PUBCHEM_COMPOUND_CID>
442864

> <PUBCHEM_CONFORMER_RMSD>
0.8

> <PUBCHEM_CONFORMER_DIVERSEORDER>
1
3
17
21
23
2
7
8
6
14
18
25
26
28
20
10
11
4
12
27
5
22
9
24
19
13
16
15

> <PUBCHEM_MMFF94_PARTIAL_CHARGES>
33
1 -0.56
13 0.28
15 0.55
16 0.28
19 0.14
2 -0.43
20 0.14
21 -0.14
22 -0.14
23 0.66
24 -0.15
25 -0.15
27 -0.15
29 -0.15
3 -0.57
30 -0.15
31 0.08
32 0.06
33 0.08
34 -0.15
35 0.28
4 -0.53
5 -0.36
6 -0.81
60 0.15
61 0.15
62 0.15
63 0.15
64 0.15
68 0.15
69 0.45
7 0.27
8 0.27

> <PUBCHEM_EFFECTIVE_ROTOR_COUNT>
5.4

> <PUBCHEM_PHARMACOPHORE_FEATURES>
9
1 1 acceptor
1 3 acceptor
1 4 donor
1 5 acceptor
1 6 cation
6 1 6 7 11 13 15 rings
6 21 24 25 26 30 31 rings
6 22 27 28 29 33 34 rings
6 6 7 8 9 10 12 rings

> <PUBCHEM_HEAVY_ATOM_COUNT>
35

> <PUBCHEM_ATOM_DEF_STEREO_COUNT>
4

> <PUBCHEM_ATOM_UDEF_STEREO_COUNT>
0

> <PUBCHEM_BOND_DEF_STEREO_COUNT>
0

> <PUBCHEM_BOND_UDEF_STEREO_COUNT>
0

> <PUBCHEM_ISOTOPIC_ATOM_COUNT>
0

> <PUBCHEM_COMPONENT_COUNT>
1

> <PUBCHEM_CACTVS_TAUTO_COUNT>
3

> <PUBCHEM_CONFORMER_ID>
0006C1F000000001

> <PUBCHEM_MMFF94_ENERGY>
108.2316

> <PUBCHEM_FEATURE_SELFOVERLAP>
45.739

> <PUBCHEM_SHAPE_FINGERPRINT>
10675989 125 17401777813582029576
11285246 1 18193588651645649255
11513181 2 17751359718745120462
12156800 1 16757393338902573522
12553582 1 18333453123009143322
13122387 1 18336831875054855994
13402501 40 18193562391740730158
1361 2 17834109024039255449
14068700 675 17968392198808609013
14725015 67 17907884020779232523
15297060 5 18042114530833955978
19930381 70 16752961568108041657
20764821 26 16537920200818469254
20775438 99 16959903482345848391
20775530 9 18267587905328308825
23559900 14 18269000782577132349
25265897 201 16664008728601016493
3027735 51 17834128806632077957
35225 105 18044107966752897596
354706 35 18054813911483264788
463206 1 18334582334393987889
508706 21 18122341552122374854
6287921 2 17761775066135568146

> <PUBCHEM_SHAPE_MULTIPOLES>
685.96
8.51
6.4
1.83
5.2
0.25
0.6
3.19
0.91
-1.83
0.53
-0.78
-1.18
0.86

> <PUBCHEM_SHAPE_SELFOVERLAP>
1466.501

> <PUBCHEM_SHAPE_VOLUME>
374.6

> <PUBCHEM_COORDINATE_TYPE>
2
5
10

$$$$

