82035
  -OEChem-07051212453D

 32 31  0     1  0  0  0  0  0999 V2000
    1.8536   -0.3787    0.6435 O   0  0  0  0  0  0  0  0  0  0  0  0
    1.1234    0.6545   -1.2734 O   0  0  0  0  0  0  0  0  0  0  0  0
   -2.2969    2.6821   -0.8685 O   0  0  0  0  0  0  0  0  0  0  0  0
   -1.4001    2.5142    1.2094 O   0  0  0  0  0  0  0  0  0  0  0  0
   -1.9813   -2.1939   -1.0261 O   0  0  0  0  0  0  0  0  0  0  0  0
   -0.3418    0.0496    0.4212 N   0  0  0  0  0  0  0  0  0  0  0  0
   -3.2908   -2.6006    0.8204 N   0  0  0  0  0  0  0  0  0  0  0  0
    3.1965   -0.3355    0.1480 C   0  0  0  0  0  0  0  0  0  0  0  0
   -1.5645    0.5191   -0.1804 C   0  0  1  0  0  0  0  0  0  0  0  0
    3.5831    1.1248   -0.0823 C   0  0  0  0  0  0  0  0  0  0  0  0
    4.0977   -0.9695    1.2056 C   0  0  0  0  0  0  0  0  0  0  0  0
    3.2596   -1.1281   -1.1568 C   0  0  0  0  0  0  0  0  0  0  0  0
   -2.7813   -0.3039    0.2376 C   0  0  0  0  0  0  0  0  0  0  0  0
    0.8992    0.1564   -0.1751 C   0  0  0  0  0  0  0  0  0  0  0  0
   -1.7187    1.9919    0.1492 C   0  0  0  0  0  0  0  0  0  0  0  0
   -2.6377   -1.7824   -0.0724 C   0  0  0  0  0  0  0  0  0  0  0  0
   -1.4303    0.4412   -1.2674 H   0  0  0  0  0  0  0  0  0  0  0  0
    3.2685    1.7519    0.7600 H   0  0  0  0  0  0  0  0  0  0  0  0
    4.6708    1.2205   -0.1834 H   0  0  0  0  0  0  0  0  0  0  0  0
    3.1649    1.5688   -0.9891 H   0  0  0  0  0  0  0  0  0  0  0  0
    3.7913   -2.0022    1.4082 H   0  0  0  0  0  0  0  0  0  0  0  0
    4.0181   -0.4308    2.1569 H   0  0  0  0  0  0  0  0  0  0  0  0
    5.1482   -0.9741    0.8971 H   0  0  0  0  0  0  0  0  0  0  0  0
    2.8362   -0.6137   -2.0230 H   0  0  0  0  0  0  0  0  0  0  0  0
    4.3011   -1.3457   -1.4221 H   0  0  0  0  0  0  0  0  0  0  0  0
    2.7314   -2.0839   -1.0601 H   0  0  0  0  0  0  0  0  0  0  0  0
   -3.6794    0.0592   -0.2763 H   0  0  0  0  0  0  0  0  0  0  0  0
   -2.9574   -0.1757    1.3134 H   0  0  0  0  0  0  0  0  0  0  0  0
   -0.3826   -0.3392    1.3587 H   0  0  0  0  0  0  0  0  0  0  0  0
   -3.2612   -3.6098    0.7198 H   0  0  0  0  0  0  0  0  0  0  0  0
   -3.8292   -2.2372    1.6002 H   0  0  0  0  0  0  0  0  0  0  0  0
   -2.4116    3.6310   -0.6475 H   0  0  0  0  0  0  0  0  0  0  0  0
  1  8  1  0  0  0  0
  1 14  1  0  0  0  0
  2 14  2  0  0  0  0
  3 15  1  0  0  0  0
  3 32  1  0  0  0  0
  4 15  2  0  0  0  0
  5 16  2  0  0  0  0
  6  9  1  0  0  0  0
  6 14  1  0  0  0  0
  6 29  1  0  0  0  0
  7 16  1  0  0  0  0
  7 30  1  0  0  0  0
  7 31  1  0  0  0  0
  8 10  1  0  0  0  0
  8 11  1  0  0  0  0
  8 12  1  0  0  0  0
  9 13  1  0  0  0  0
  9 15  1  0  0  0  0
  9 17  1  0  0  0  0
 10 18  1  0  0  0  0
 10 19  1  0  0  0  0
 10 20  1  0  0  0  0
 11 21  1  0  0  0  0
 11 22  1  0  0  0  0
 11 23  1  0  0  0  0
 12 24  1  0  0  0  0
 12 25  1  0  0  0  0
 12 26  1  0  0  0  0
 13 16  1  0  0  0  0
 13 27  1  0  0  0  0
 13 28  1  0  0  0  0
M  END
> <PUBCHEM_COMPOUND_CID>
82035

> <PUBCHEM_CONFORMER_RMSD>
0.8

> <PUBCHEM_CONFORMER_DIVERSEORDER>
1
87
29
48
90
83
95
23
56
91
73
19
68
86
103
43
81
64
49
10
31
15
77
55
88
101
85
100
71
3
24
35
14
107
25
104
92
106
97
22
99
21
80
28
46
53
52
75
13
27
54
84
67
9
34
98
63
44
58
8
72
69
102
82
105
60
89
37
32
17
5
40
74
94
45
36
78
16
42
4
51
11
7
6
12
50
38
30
57
59
33
96
66
20
41
65
47
70
2
62
39
93
26
76
18
79
61

> <PUBCHEM_MMFF94_PARTIAL_CHARGES>
17
1 -0.43
13 0.06
14 0.78
15 0.66
16 0.57
2 -0.57
29 0.37
3 -0.65
30 0.37
31 0.37
32 0.5
4 -0.57
5 -0.57
6 -0.73
7 -0.8
8 0.28
9 0.36

> <PUBCHEM_EFFECTIVE_ROTOR_COUNT>
7

> <PUBCHEM_PHARMACOPHORE_FEATURES>
8
1 2 acceptor
1 3 acceptor
1 4 acceptor
1 5 acceptor
1 6 donor
1 7 donor
3 3 4 15 anion
4 8 10 11 12 hydrophobe

> <PUBCHEM_HEAVY_ATOM_COUNT>
16

> <PUBCHEM_ATOM_DEF_STEREO_COUNT>
1

> <PUBCHEM_ATOM_UDEF_STEREO_COUNT>
0

> <PUBCHEM_BOND_DEF_STEREO_COUNT>
0

> <PUBCHEM_BOND_UDEF_STEREO_COUNT>
0

> <PUBCHEM_ISOTOPIC_ATOM_COUNT>
0

> <PUBCHEM_COMPONENT_COUNT>
1

> <PUBCHEM_CACTVS_TAUTO_COUNT>
4

> <PUBCHEM_CONFORMER_ID>
0001407300000001

> <PUBCHEM_MMFF94_ENERGY>
36.2432

> <PUBCHEM_FEATURE_SELFOVERLAP>
40.653

> <PUBCHEM_SHAPE_FINGERPRINT>
10618630 7 18340765927596020687
11357001 24 18412545431365345315
12346177 29 18339089305623316462
12500047 106 18194404617900729692
12553582 1 18117838798208000711
12932764 1 18059567061806365460
13296908 3 17894628201563382998
14178342 30 18268437995816449546
14289901 80 18410577275724141296
14965852 173 18341053007789402096
15375462 189 18122617254551957787
15375462 6 18260546689157652612
19049666 15 17678170710199192158
20510252 161 18408038498468806818
20524608 308 18337952423448122557
20645477 56 18336547243182464600
20645477 70 16588873532881914414
20671657 53 17560527183357939015
20871998 184 18260543416281868359
21061003 4 17022899012820552507
21296965 67 18267300933315828627
21524375 3 17770783725653082349
22943178 12 18113619036374467606
23557571 272 18259978293043547996
23559900 14 18408611374682499272
23598294 1 18335414660242751354
3086196 2 18410019827075277698
312423 11 18272920618918244670
3248919 1 18115031930196109148
6049 1 17967807267428506700
633830 44 4823216139243491072
6992083 37 18058161907136178308
74978 22 18266176313230164380
7615 1 17918269861960869460
81228 2 18409441497250222769
9709674 26 18261111932317992918

> <PUBCHEM_SHAPE_MULTIPOLES>
289.96
7.02
2.69
1.1
4.77
0.45
-0.05
-2.52
0.83
-3.4
0.08
0.41
-0.07
0.03

> <PUBCHEM_SHAPE_SELFOVERLAP>
569.217

> <PUBCHEM_SHAPE_VOLUME>
172.8

> <PUBCHEM_COORDINATE_TYPE>
2
5
10

$$$$

