14355861
  -OEChem-07051213022D

 39 40  0     1  0  0  0  0  0999 V2000
    4.0000   -0.1751    0.0000 C   0  0  2  0  0  0  0  0  0  0  0  0
    4.5878    0.6339    0.0000 C   0  0  0  0  0  0  0  0  0  0  0  0
    3.5000   -1.0412    0.0000 C   0  0  1  0  0  0  0  0  0  0  0  0
    4.5878   -0.9841    0.0000 C   0  0  0  0  0  0  0  0  0  0  0  0
    5.5388    0.3249    0.0000 C   0  0  1  0  0  0  0  0  0  0  0  0
    5.5388   -0.6751    0.0000 C   0  0  0  0  0  0  0  0  0  0  0  0
    3.5000    0.6909    0.0000 C   0  0  0  0  0  0  0  0  0  0  0  0
    2.5000   -1.0412    0.0000 C   0  0  0  0  0  0  0  0  0  0  0  0
    2.0000   -0.1751    0.0000 C   0  0  0  0  0  0  0  0  0  0  0  0
    4.0000   -1.9072    0.0000 C   0  0  0  0  0  0  0  0  0  0  0  0
    2.5000    0.6909    0.0000 C   0  0  0  0  0  0  0  0  0  0  0  0
    6.3479    0.9127    0.0000 C   0  0  0  0  0  0  0  0  0  0  0  0
    4.0000    1.5569    0.0000 C   0  0  0  0  0  0  0  0  0  0  0  0
    7.2614    0.5059    0.0000 C   0  0  0  0  0  0  0  0  0  0  0  0
    6.2433    1.9072    0.0000 C   0  0  0  0  0  0  0  0  0  0  0  0
    4.8400    1.2003    0.0000 H   0  0  0  0  0  0  0  0  0  0  0  0
    4.0508    0.9439    0.0000 H   0  0  0  0  0  0  0  0  0  0  0  0
    4.1200   -1.0412    0.0000 H   0  0  0  0  0  0  0  0  0  0  0  0
    4.0508   -1.2942    0.0000 H   0  0  0  0  0  0  0  0  0  0  0  0
    4.8400   -1.5505    0.0000 H   0  0  0  0  0  0  0  0  0  0  0  0
    5.4418    0.9372    0.0000 H   0  0  0  0  0  0  0  0  0  0  0  0
    5.6678   -1.2816    0.0000 H   0  0  0  0  0  0  0  0  0  0  0  0
    6.1554   -0.6103    0.0000 H   0  0  0  0  0  0  0  0  0  0  0  0
    1.9174   -1.2532    0.0000 H   0  0  0  0  0  0  0  0  0  0  0  0
    2.6077   -1.6517    0.0000 H   0  0  0  0  0  0  0  0  0  0  0  0
    1.5250    0.2234    0.0000 H   0  0  0  0  0  0  0  0  0  0  0  0
    1.5250   -0.5737    0.0000 H   0  0  0  0  0  0  0  0  0  0  0  0
    3.4631   -2.2172    0.0000 H   0  0  0  0  0  0  0  0  0  0  0  0
    4.3100   -2.4441    0.0000 H   0  0  0  0  0  0  0  0  0  0  0  0
    4.5369   -1.5972    0.0000 H   0  0  0  0  0  0  0  0  0  0  0  0
    2.1900    1.2278    0.0000 H   0  0  0  0  0  0  0  0  0  0  0  0
    4.5369    1.2469    0.0000 H   0  0  0  0  0  0  0  0  0  0  0  0
    4.3100    2.0939    0.0000 H   0  0  0  0  0  0  0  0  0  0  0  0
    3.4631    1.8669    0.0000 H   0  0  0  0  0  0  0  0  0  0  0  0
    7.0092   -0.0605    0.0000 H   0  0  0  0  0  0  0  0  0  0  0  0
    7.8278    0.2537    0.0000 H   0  0  0  0  0  0  0  0  0  0  0  0
    7.5136    1.0723    0.0000 H   0  0  0  0  0  0  0  0  0  0  0  0
    6.7449    2.2716    0.0000 H   0  0  0  0  0  0  0  0  0  0  0  0
    5.6769    2.1594    0.0000 H   0  0  0  0  0  0  0  0  0  0  0  0
  1  2  1  1  0  0  0
  1  3  1  0  0  0  0
  1  4  1  0  0  0  0
  1  7  1  0  0  0  0
  2  5  1  0  0  0  0
  2 16  1  0  0  0  0
  2 17  1  0  0  0  0
  3  8  1  0  0  0  0
  3 10  1  6  0  0  0
  3 18  1  0  0  0  0
  4  6  1  0  0  0  0
  4 19  1  0  0  0  0
  4 20  1  0  0  0  0
  5  6  1  0  0  0  0
  5 12  1  6  0  0  0
  5 21  1  0  0  0  0
  6 22  1  0  0  0  0
  6 23  1  0  0  0  0
  7 11  2  0  0  0  0
  7 13  1  0  0  0  0
  8  9  1  0  0  0  0
  8 24  1  0  0  0  0
  8 25  1  0  0  0  0
  9 11  1  0  0  0  0
  9 26  1  0  0  0  0
  9 27  1  0  0  0  0
 10 28  1  0  0  0  0
 10 29  1  0  0  0  0
 10 30  1  0  0  0  0
 11 31  1  0  0  0  0
 12 14  1  0  0  0  0
 12 15  2  0  0  0  0
 13 32  1  0  0  0  0
 13 33  1  0  0  0  0
 13 34  1  0  0  0  0
 14 35  1  0  0  0  0
 14 36  1  0  0  0  0
 14 37  1  0  0  0  0
 15 38  1  0  0  0  0
 15 39  1  0  0  0  0
M  END
> <PUBCHEM_COMPOUND_CID>
14355861

> <PUBCHEM_COMPOUND_CANONICALIZED>
1

> <PUBCHEM_CACTVS_COMPLEXITY>
297

> <PUBCHEM_CACTVS_HBOND_ACCEPTOR>
0

> <PUBCHEM_CACTVS_HBOND_DONOR>
0

> <PUBCHEM_CACTVS_ROTATABLE_BOND>
1

> <PUBCHEM_CACTVS_SUBSKEYS>
AAADceBwAAAAAAAAAAAAAAAAAAAAAYAAAAAgAAAAAAAAAAAAAAAAGAAAAAAADwCAAAACAAAAAACAAiBCAAAAAAAgAAAACAAAAAgAAAIAAQAAAAAAgAAIAAMAgMAPgAAAAAAAAAAAAAAAAAAAAQAAAAAAAA==

> <PUBCHEM_IUPAC_OPENEYE_NAME>
(3R,5S,6R)-3-isopropenyl-6,10-dimethyl-spiro[4.5]dec-9-ene

> <PUBCHEM_IUPAC_CAS_NAME>
(3R,5S,6R)-6,10-dimethyl-3-(1-methylethenyl)spiro[4.5]dec-9-ene

> <PUBCHEM_IUPAC_NAME>
(3R,5S,6R)-6,10-dimethyl-3-prop-1-en-2-ylspiro[4.5]dec-9-ene

> <PUBCHEM_IUPAC_SYSTEMATIC_NAME>
(3R,5S,6R)-6,10-dimethyl-3-prop-1-en-2-yl-spiro[4.5]dec-9-ene

> <PUBCHEM_IUPAC_TRADITIONAL_NAME>
(3R,5S,6R)-3-isopropenyl-6,10-dimethyl-spiro[4.5]dec-9-ene

> <PUBCHEM_IUPAC_INCHI>
InChI=1S/C15H24/c1-11(2)14-8-9-15(10-14)12(3)6-5-7-13(15)4/h6,13-14H,1,5,7-10H2,2-4H3/t13-,14-,15-/m1/s1

> <PUBCHEM_IUPAC_INCHIKEY>
WEZDOYDDKIHCLM-RBSFLKMASA-N

> <PUBCHEM_XLOGP3_AA>
5.4

> <PUBCHEM_EXACT_MASS>
204.187801

> <PUBCHEM_MOLECULAR_FORMULA>
C15H24

> <PUBCHEM_MOLECULAR_WEIGHT>
204.35106

> <PUBCHEM_OPENEYE_CAN_SMILES>
CC1CCC=C(C12CCC(C2)C(=C)C)C

> <PUBCHEM_OPENEYE_ISO_SMILES>
C[C@@H]1CCC=C([C@]12CC[C@H](C2)C(=C)C)C

> <PUBCHEM_CACTVS_TPSA>
0

> <PUBCHEM_MONOISOTOPIC_WEIGHT>
204.187801

> <PUBCHEM_TOTAL_CHARGE>
0

> <PUBCHEM_HEAVY_ATOM_COUNT>
15

> <PUBCHEM_ATOM_DEF_STEREO_COUNT>
3

> <PUBCHEM_ATOM_UDEF_STEREO_COUNT>
0

> <PUBCHEM_BOND_DEF_STEREO_COUNT>
0

> <PUBCHEM_BOND_UDEF_STEREO_COUNT>
0

> <PUBCHEM_ISOTOPIC_ATOM_COUNT>
0

> <PUBCHEM_COMPONENT_COUNT>
1

> <PUBCHEM_CACTVS_TAUTO_COUNT>
1

> <PUBCHEM_COORDINATE_TYPE>
1
5
255

> <PUBCHEM_BONDANNOTATIONS>
1  2  5
3  10  6
5  12  6

$$$$

