13972
  -OEChem-06241222412D

 48 50  0     1  0  0  0  0  0999 V2000
    7.1962   -0.2500    0.0000 O   0  0  0  0  0  0  0  0  0  0  0  0
    3.7320   -0.2500    0.0000 O   0  0  0  0  0  0  0  0  0  0  0  0
    5.4641    2.7500    0.0000 O   0  0  0  0  0  0  0  0  0  0  0  0
    5.4641   -0.2500    0.0000 N   0  0  0  0  0  0  0  0  0  0  0  0
    4.5981    1.2500    0.0000 N   0  0  0  0  0  0  0  0  0  0  0  0
    5.4641   -1.2500    0.0000 C   0  0  0  0  0  0  0  0  0  0  0  0
    4.5981   -1.7500    0.0000 C   0  0  0  0  0  0  0  0  0  0  0  0
    6.3301   -1.7500    0.0000 C   0  0  0  0  0  0  0  0  0  0  0  0
    6.3301   -2.7500    0.0000 C   0  0  0  0  0  0  0  0  0  0  0  0
    4.5981   -2.7500    0.0000 C   0  0  0  0  0  0  0  0  0  0  0  0
    5.4641   -3.2500    0.0000 C   0  0  0  0  0  0  0  0  0  0  0  0
    6.3301    1.2500    0.0000 C   0  0  3  0  0  0  0  0  0  0  0  0
    6.3301    0.2500    0.0000 C   0  0  0  0  0  0  0  0  0  0  0  0
    7.1962    1.7500    0.0000 C   0  0  0  0  0  0  0  0  0  0  0  0
    4.5981    0.2500    0.0000 C   0  0  0  0  0  0  0  0  0  0  0  0
    5.4641    1.7500    0.0000 C   0  0  0  0  0  0  0  0  0  0  0  0
    8.0622    1.2500    0.0000 C   0  0  0  0  0  0  0  0  0  0  0  0
    7.1962    2.7500    0.0000 C   0  0  0  0  0  0  0  0  0  0  0  0
    3.7320    1.7500    0.0000 C   0  0  0  0  0  0  0  0  0  0  0  0
    3.7320    2.7500    0.0000 C   0  0  0  0  0  0  0  0  0  0  0  0
    2.8660    1.2500    0.0000 C   0  0  0  0  0  0  0  0  0  0  0  0
    2.8660    3.2500    0.0000 C   0  0  0  0  0  0  0  0  0  0  0  0
    2.0000    1.7500    0.0000 C   0  0  0  0  0  0  0  0  0  0  0  0
    2.0000    2.7500    0.0000 C   0  0  0  0  0  0  0  0  0  0  0  0
    6.0010   -0.9400    0.0000 H   0  0  0  0  0  0  0  0  0  0  0  0
    6.9407   -1.8577    0.0000 H   0  0  0  0  0  0  0  0  0  0  0  0
    6.5422   -1.1674    0.0000 H   0  0  0  0  0  0  0  0  0  0  0  0
    4.3860   -1.1674    0.0000 H   0  0  0  0  0  0  0  0  0  0  0  0
    3.9875   -1.8577    0.0000 H   0  0  0  0  0  0  0  0  0  0  0  0
    6.5422   -3.3326    0.0000 H   0  0  0  0  0  0  0  0  0  0  0  0
    6.9407   -2.6423    0.0000 H   0  0  0  0  0  0  0  0  0  0  0  0
    3.9875   -2.6423    0.0000 H   0  0  0  0  0  0  0  0  0  0  0  0
    4.3860   -3.3326    0.0000 H   0  0  0  0  0  0  0  0  0  0  0  0
    5.0656   -3.7250    0.0000 H   0  0  0  0  0  0  0  0  0  0  0  0
    5.8626   -3.7250    0.0000 H   0  0  0  0  0  0  0  0  0  0  0  0
    6.8671    0.9400    0.0000 H   0  0  0  0  0  0  0  0  0  0  0  0
    6.6592    2.0600    0.0000 H   0  0  0  0  0  0  0  0  0  0  0  0
    7.7522    0.7131    0.0000 H   0  0  0  0  0  0  0  0  0  0  0  0
    7.8162    2.7500    0.0000 H   0  0  0  0  0  0  0  0  0  0  0  0
    7.1962    3.3700    0.0000 H   0  0  0  0  0  0  0  0  0  0  0  0
    8.5991    0.9400    0.0000 H   0  0  0  0  0  0  0  0  0  0  0  0
    6.5762    2.7500    0.0000 H   0  0  0  0  0  0  0  0  0  0  0  0
    8.3722    1.7869    0.0000 H   0  0  0  0  0  0  0  0  0  0  0  0
    4.2690    3.0600    0.0000 H   0  0  0  0  0  0  0  0  0  0  0  0
    2.8660    0.6300    0.0000 H   0  0  0  0  0  0  0  0  0  0  0  0
    2.8660    3.8700    0.0000 H   0  0  0  0  0  0  0  0  0  0  0  0
    1.4631    1.4400    0.0000 H   0  0  0  0  0  0  0  0  0  0  0  0
    1.4631    3.0600    0.0000 H   0  0  0  0  0  0  0  0  0  0  0  0
  1 13  2  0  0  0  0
  2 15  2  0  0  0  0
  3 16  2  0  0  0  0
  4  6  1  0  0  0  0
  4 13  1  0  0  0  0
  4 15  1  0  0  0  0
  5 15  1  0  0  0  0
  5 16  1  0  0  0  0
  5 19  1  0  0  0  0
  6  7  1  0  0  0  0
  6  8  1  0  0  0  0
  6 25  1  0  0  0  0
  7 10  1  0  0  0  0
  7 28  1  0  0  0  0
  7 29  1  0  0  0  0
  8  9  1  0  0  0  0
  8 26  1  0  0  0  0
  8 27  1  0  0  0  0
  9 11  1  0  0  0  0
  9 30  1  0  0  0  0
  9 31  1  0  0  0  0
 10 11  1  0  0  0  0
 10 32  1  0  0  0  0
 10 33  1  0  0  0  0
 11 34  1  0  0  0  0
 11 35  1  0  0  0  0
 12 13  1  0  0  0  0
 12 14  1  0  0  0  0
 12 16  1  0  0  0  0
 12 36  1  0  0  0  0
 14 17  1  0  0  0  0
 14 18  1  0  0  0  0
 14 37  1  0  0  0  0
 17 38  1  0  0  0  0
 17 41  1  0  0  0  0
 17 43  1  0  0  0  0
 18 39  1  0  0  0  0
 18 40  1  0  0  0  0
 18 42  1  0  0  0  0
 19 20  2  0  0  0  0
 19 21  1  0  0  0  0
 20 22  1  0  0  0  0
 20 44  1  0  0  0  0
 21 23  2  0  0  0  0
 21 45  1  0  0  0  0
 22 24  2  0  0  0  0
 22 46  1  0  0  0  0
 23 24  1  0  0  0  0
 23 47  1  0  0  0  0
 24 48  1  0  0  0  0
M  END
> <PUBCHEM_COMPOUND_CID>
13972

> <PUBCHEM_COMPOUND_CANONICALIZED>
1

> <PUBCHEM_CACTVS_COMPLEXITY>
505

> <PUBCHEM_CACTVS_HBOND_ACCEPTOR>
3

> <PUBCHEM_CACTVS_HBOND_DONOR>
0

> <PUBCHEM_CACTVS_ROTATABLE_BOND>
3

> <PUBCHEM_CACTVS_SUBSKEYS>
AAADceB7MAAAAAAAAAAAAAAAAAAAAAAAAAA8YIAAAAAAAAABAAAAHgAAAAAADSjBkAQzwIMAAACIACVSUACCAAAhAgAIiAEIZIiIIDrI0ZGEIAhohyLIyCcQAAAIgAAAAAAAAAAAAAAAAAAAAAAAAAAAAA==

> <PUBCHEM_IUPAC_OPENEYE_NAME>
1-cyclohexyl-5-isopropyl-3-phenyl-hexahydropyrimidine-2,4,6-trione

> <PUBCHEM_IUPAC_CAS_NAME>
1-cyclohexyl-3-phenyl-5-propan-2-yl-1,3-diazinane-2,4,6-trione

> <PUBCHEM_IUPAC_NAME>
1-cyclohexyl-3-phenyl-5-propan-2-yl-1,3-diazinane-2,4,6-trione

> <PUBCHEM_IUPAC_SYSTEMATIC_NAME>
1-cyclohexyl-3-phenyl-5-propan-2-yl-1,3-diazinane-2,4,6-trione

> <PUBCHEM_IUPAC_TRADITIONAL_NAME>
1-cyclohexyl-5-isopropyl-3-phenyl-barbituric acid

> <PUBCHEM_IUPAC_INCHI>
InChI=1S/C19H24N2O3/c1-13(2)16-17(22)20(14-9-5-3-6-10-14)19(24)21(18(16)23)15-11-7-4-8-12-15/h3,5-6,9-10,13,15-16H,4,7-8,11-12H2,1-2H3

> <PUBCHEM_IUPAC_INCHIKEY>
ZUZOWTTZFWBVCD-UHFFFAOYSA-N

> <PUBCHEM_XLOGP3_AA>
3.9

> <PUBCHEM_EXACT_MASS>
328.178693

> <PUBCHEM_MOLECULAR_FORMULA>
C19H24N2O3

> <PUBCHEM_MOLECULAR_WEIGHT>
328.40546

> <PUBCHEM_OPENEYE_CAN_SMILES>
CC(C)C1C(=O)N(C(=O)N(C1=O)C2=CC=CC=C2)C3CCCCC3

> <PUBCHEM_OPENEYE_ISO_SMILES>
CC(C)C1C(=O)N(C(=O)N(C1=O)C2=CC=CC=C2)C3CCCCC3

> <PUBCHEM_CACTVS_TPSA>
57.7

> <PUBCHEM_MONOISOTOPIC_WEIGHT>
328.178693

> <PUBCHEM_TOTAL_CHARGE>
0

> <PUBCHEM_HEAVY_ATOM_COUNT>
24

> <PUBCHEM_ATOM_DEF_STEREO_COUNT>
0

> <PUBCHEM_ATOM_UDEF_STEREO_COUNT>
1

> <PUBCHEM_BOND_DEF_STEREO_COUNT>
0

> <PUBCHEM_BOND_UDEF_STEREO_COUNT>
0

> <PUBCHEM_ISOTOPIC_ATOM_COUNT>
0

> <PUBCHEM_COMPONENT_COUNT>
1

> <PUBCHEM_CACTVS_TAUTO_COUNT>
3

> <PUBCHEM_COORDINATE_TYPE>
1
5
255

> <PUBCHEM_BONDANNOTATIONS>
12  14  3
19  20  8
19  21  8
20  22  8
21  23  8
22  24  8
23  24  8

$$$$

