12314278
  -OEChem-07051213023D

 52 54  0     1  0  0  0  0  0999 V2000
   -0.9805   -0.6553    0.0546 C   0  0  2  0  0  0  0  0  0  0  0  0
   -1.8293    0.6395   -0.2506 C   0  0  1  0  0  0  0  0  0  0  0  0
    0.4573   -0.4332   -0.5795 C   0  0  1  0  0  0  0  0  0  0  0  0
   -3.3862    0.5422   -0.0463 C   0  0  0  0  0  0  0  0  0  0  0  0
   -1.6596   -1.8746   -0.6181 C   0  0  0  0  0  0  0  0  0  0  0  0
   -1.1763    1.8731    0.4079 C   0  0  0  0  0  0  0  0  0  0  0  0
   -3.9168   -0.7661   -0.6825 C   0  0  0  0  0  0  0  0  0  0  0  0
    1.1023    0.8474   -0.0654 C   0  0  0  0  0  0  0  0  0  0  0  0
   -3.1390   -2.0103   -0.2750 C   0  0  0  0  0  0  0  0  0  0  0  0
    0.2473    2.0890   -0.1072 C   0  0  0  0  0  0  0  0  0  0  0  0
    1.3796   -1.6705   -0.4616 C   0  0  0  0  0  0  0  0  0  0  0  0
   -0.8360   -0.9391    1.5733 C   0  0  0  0  0  0  0  0  0  0  0  0
    2.8482   -1.3227   -0.6929 C   0  0  0  0  0  0  0  0  0  0  0  0
   -3.8561    0.6398    1.4181 C   0  0  0  0  0  0  0  0  0  0  0  0
   -4.0760    1.7140   -0.7969 C   0  0  0  0  0  0  0  0  0  0  0  0
    3.3530   -0.2470    0.2935 C   0  0  1  0  0  0  0  0  0  0  0  0
    2.3786    0.9085    0.3560 C   0  0  0  0  0  0  0  0  0  0  0  0
    3.5238   -0.8189    1.7112 C   0  0  0  0  0  0  0  0  0  0  0  0
    4.6983    0.2287   -0.1993 C   0  0  0  0  0  0  0  0  0  0  0  0
    4.8674    1.2554   -1.0394 C   0  0  0  0  0  0  0  0  0  0  0  0
   -1.7187    0.7946   -1.3372 H   0  0  0  0  0  0  0  0  0  0  0  0
    0.3165   -0.2707   -1.6597 H   0  0  0  0  0  0  0  0  0  0  0  0
   -1.1518   -2.8043   -0.3344 H   0  0  0  0  0  0  0  0  0  0  0  0
   -1.5624   -1.7920   -1.7089 H   0  0  0  0  0  0  0  0  0  0  0  0
   -1.1632    1.7753    1.4988 H   0  0  0  0  0  0  0  0  0  0  0  0
   -1.7476    2.7807    0.1890 H   0  0  0  0  0  0  0  0  0  0  0  0
   -3.8726   -0.6828   -1.7772 H   0  0  0  0  0  0  0  0  0  0  0  0
   -4.9761   -0.9076   -0.4325 H   0  0  0  0  0  0  0  0  0  0  0  0
   -3.5495   -2.8766   -0.8079 H   0  0  0  0  0  0  0  0  0  0  0  0
   -3.2722   -2.2174    0.7917 H   0  0  0  0  0  0  0  0  0  0  0  0
    0.7056    2.9092    0.4588 H   0  0  0  0  0  0  0  0  0  0  0  0
    0.1950    2.4252   -1.1512 H   0  0  0  0  0  0  0  0  0  0  0  0
    1.0754   -2.4212   -1.2013 H   0  0  0  0  0  0  0  0  0  0  0  0
    1.2910   -2.1552    0.5135 H   0  0  0  0  0  0  0  0  0  0  0  0
   -0.2310   -0.1861    2.0866 H   0  0  0  0  0  0  0  0  0  0  0  0
   -1.7919   -0.9873    2.0886 H   0  0  0  0  0  0  0  0  0  0  0  0
   -0.3623   -1.9083    1.7587 H   0  0  0  0  0  0  0  0  0  0  0  0
    3.4529   -2.2352   -0.6069 H   0  0  0  0  0  0  0  0  0  0  0  0
    2.9588   -0.9806   -1.7320 H   0  0  0  0  0  0  0  0  0  0  0  0
   -3.4247    1.5056    1.9295 H   0  0  0  0  0  0  0  0  0  0  0  0
   -4.9463    0.7559    1.4655 H   0  0  0  0  0  0  0  0  0  0  0  0
   -3.6316   -0.2518    2.0026 H   0  0  0  0  0  0  0  0  0  0  0  0
   -3.8631    2.6811   -0.3309 H   0  0  0  0  0  0  0  0  0  0  0  0
   -3.7526    1.7649   -1.8427 H   0  0  0  0  0  0  0  0  0  0  0  0
   -5.1659    1.5923   -0.7990 H   0  0  0  0  0  0  0  0  0  0  0  0
    2.7480    1.8510    0.7582 H   0  0  0  0  0  0  0  0  0  0  0  0
    3.9689   -0.0808    2.3904 H   0  0  0  0  0  0  0  0  0  0  0  0
    2.5659   -1.1212    2.1495 H   0  0  0  0  0  0  0  0  0  0  0  0
    4.1772   -1.6995    1.7106 H   0  0  0  0  0  0  0  0  0  0  0  0
    5.5799   -0.3324    0.1033 H   0  0  0  0  0  0  0  0  0  0  0  0
    5.8669    1.5203   -1.3698 H   0  0  0  0  0  0  0  0  0  0  0  0
    4.0489    1.8443   -1.4359 H   0  0  0  0  0  0  0  0  0  0  0  0
  1  2  1  0  0  0  0
  1  3  1  0  0  0  0
  1  5  1  0  0  0  0
  1 12  1  0  0  0  0
  2  4  1  0  0  0  0
  2  6  1  0  0  0  0
  2 21  1  0  0  0  0
  3  8  1  0  0  0  0
  3 11  1  0  0  0  0
  3 22  1  0  0  0  0
  4  7  1  0  0  0  0
  4 14  1  0  0  0  0
  4 15  1  0  0  0  0
  5  9  1  0  0  0  0
  5 23  1  0  0  0  0
  5 24  1  0  0  0  0
  6 10  1  0  0  0  0
  6 25  1  0  0  0  0
  6 26  1  0  0  0  0
  7  9  1  0  0  0  0
  7 27  1  0  0  0  0
  7 28  1  0  0  0  0
  8 10  1  0  0  0  0
  8 17  2  0  0  0  0
  9 29  1  0  0  0  0
  9 30  1  0  0  0  0
 10 31  1  0  0  0  0
 10 32  1  0  0  0  0
 11 13  1  0  0  0  0
 11 33  1  0  0  0  0
 11 34  1  0  0  0  0
 12 35  1  0  0  0  0
 12 36  1  0  0  0  0
 12 37  1  0  0  0  0
 13 16  1  0  0  0  0
 13 38  1  0  0  0  0
 13 39  1  0  0  0  0
 14 40  1  0  0  0  0
 14 41  1  0  0  0  0
 14 42  1  0  0  0  0
 15 43  1  0  0  0  0
 15 44  1  0  0  0  0
 15 45  1  0  0  0  0
 16 17  1  0  0  0  0
 16 18  1  0  0  0  0
 16 19  1  0  0  0  0
 17 46  1  0  0  0  0
 18 47  1  0  0  0  0
 18 48  1  0  0  0  0
 18 49  1  0  0  0  0
 19 20  2  0  0  0  0
 19 50  1  0  0  0  0
 20 51  1  0  0  0  0
 20 52  1  0  0  0  0
M  END
> <PUBCHEM_COMPOUND_CID>
12314278

> <PUBCHEM_CONFORMER_RMSD>
0.6

> <PUBCHEM_CONFORMER_DIVERSEORDER>
1
2

> <PUBCHEM_MMFF94_PARTIAL_CHARGES>
11
10 0.14
16 0.28
17 -0.29
19 -0.29
20 -0.3
3 0.14
46 0.15
50 0.15
51 0.15
52 0.15
8 -0.28

> <PUBCHEM_EFFECTIVE_ROTOR_COUNT>
2.8

> <PUBCHEM_PHARMACOPHORE_FEATURES>
5
1 20 hydrophobe
3 4 14 15 hydrophobe
6 1 2 3 6 8 10 rings
6 1 2 4 5 7 9 rings
6 3 8 11 13 16 17 rings

> <PUBCHEM_HEAVY_ATOM_COUNT>
20

> <PUBCHEM_ATOM_DEF_STEREO_COUNT>
4

> <PUBCHEM_ATOM_UDEF_STEREO_COUNT>
0

> <PUBCHEM_BOND_DEF_STEREO_COUNT>
0

> <PUBCHEM_BOND_UDEF_STEREO_COUNT>
0

> <PUBCHEM_ISOTOPIC_ATOM_COUNT>
0

> <PUBCHEM_COMPONENT_COUNT>
1

> <PUBCHEM_CACTVS_TAUTO_COUNT>
1

> <PUBCHEM_CONFORMER_ID>
00BBE6A600000001

> <PUBCHEM_MMFF94_ENERGY>
66.2484

> <PUBCHEM_FEATURE_SELFOVERLAP>
25.404

> <PUBCHEM_SHAPE_FINGERPRINT>
10062212 137 18411145714313632503
10366900 7 17458069286855065336
10498660 4 18335698339049550092
10616163 171 18335980887393609862
10759866 29 18273215313857078974
10863032 1 18040436615712650031
10967382 1 18335701714514017039
11132069 177 18335990847295954169
11578080 2 5038300344236551097
12011746 2 18261392277908013844
12236239 1 18060702788165663366
12403814 3 17847065501678068965
12553582 1 18407759235405924392
12633257 1 18187931719775391192
12670545 47 17821740424474846160
12788726 201 18340203111119148848
13140716 1 18335420106382887873
13224815 77 18408602561098260958
13583140 156 17275105037482087921
13675066 3 17417809586293374307
13760787 19 18201722851309971070
14787075 74 18272645701802674833
14790565 3 18265608785037297676
15196674 1 18409167727086144990
15209294 21 17604138350502270345
15375358 24 18409169930420068604
15375462 189 18202286905038261376
15415430 112 18409163281910953788
15788980 27 18202284731705785378
1601671 61 18334009493531765092
16945 1 18335140937824596849
17349148 13 18261122854572307037
17804303 29 18187365389503476233
18186145 218 17968935417676822383
200 152 16225766324156842006
20281475 54 18334576867016411168
20715895 44 17840038664599490597
21267235 1 18335976472204308679
21421861 104 17986115338511453666
21501502 16 18266737987499099613
2334 1 18120377557813661789
23402539 116 18412271652753692708
23557571 272 17821720603274809999
23559900 14 18261956379203022214
2748010 2 18118974593787791885
2838139 119 17129605676463728517
296302 2 18343862216874597558
335352 9 18264489661949862940
34934 24 18339929311116386271
350125 39 18336541617487014961
4340502 62 16773226427155591809
474 4 17273970247531182284
5104073 3 18408324384619816450
633830 44 17917149510682372015
69090 78 18334862744477148615
9709674 26 18335416880878402662

> <PUBCHEM_SHAPE_MULTIPOLES>
411.59
8.81
2.12
1.2
3.62
0.04
0.45
1.25
-0.79
-0.91
-0.3
0.14
-0.14
-0.51

> <PUBCHEM_SHAPE_SELFOVERLAP>
856.202

> <PUBCHEM_SHAPE_VOLUME>
233.8

> <PUBCHEM_COORDINATE_TYPE>
2
5
10

$$$$

