442617
  -OEChem-07051212582D

 55 58  0     1  0  0  0  0  0999 V2000
    5.1350    1.0000    0.0000 O   0  0  0  0  0  0  0  0  0  0  0  0
    4.2690   -0.5000    0.0000 O   0  0  0  0  0  0  0  0  0  0  0  0
    2.5369    2.5000    0.0000 O   0  0  0  0  0  0  0  0  0  0  0  0
    4.2690    3.5000    0.0000 O   0  0  0  0  0  0  0  0  0  0  0  0
    2.5369    0.5000    0.0000 O   0  0  0  0  0  0  0  0  0  0  0  0
    7.7610   -0.4653    0.0000 O   0  0  0  0  0  0  0  0  0  0  0  0
    4.2690   -2.5000    0.0000 O   0  0  0  0  0  0  0  0  0  0  0  0
    6.0010   -3.5000    0.0000 O   0  0  0  0  0  0  0  0  0  0  0  0
    7.7494   -3.5346    0.0000 O   0  0  0  0  0  0  0  0  0  0  0  0
   12.1311   -0.9658    0.0000 O   0  0  0  0  0  0  0  0  0  0  0  0
   12.1234    1.0341    0.0000 O   0  0  0  0  0  0  0  0  0  0  0  0
    3.4030    2.0000    0.0000 C   0  0  2  0  0  0  0  0  0  0  0  0
    4.2690    2.5000    0.0000 C   0  0  2  0  0  0  0  0  0  0  0  0
    3.4030    1.0000    0.0000 C   0  0  2  0  0  0  0  0  0  0  0  0
    5.1350    2.0000    0.0000 C   0  0  2  0  0  0  0  0  0  0  0  0
    4.2690    0.5000    0.0000 C   0  0  1  0  0  0  0  0  0  0  0  0
    6.0010    2.5000    0.0000 C   0  0  0  0  0  0  0  0  0  0  0  0
    5.1350   -1.0000    0.0000 C   0  0  0  0  0  0  0  0  0  0  0  0
    5.1350   -2.0000    0.0000 C   0  0  0  0  0  0  0  0  0  0  0  0
    6.0010   -0.5000    0.0000 C   0  0  0  0  0  0  0  0  0  0  0  0
    6.8671   -1.0000    0.0000 C   0  0  0  0  0  0  0  0  0  0  0  0
    6.8671   -2.0000    0.0000 C   0  0  0  0  0  0  0  0  0  0  0  0
    6.0010   -2.5000    0.0000 C   0  0  0  0  0  0  0  0  0  0  0  0
    7.7610   -2.5347    0.0000 C   0  0  0  0  0  0  0  0  0  0  0  0
    8.6671   -0.9792    0.0000 C   0  0  0  0  0  0  0  0  0  0  0  0
    8.6671   -2.0208    0.0000 C   0  0  0  0  0  0  0  0  0  0  0  0
    9.5312   -0.4758    0.0000 C   0  0  0  0  0  0  0  0  0  0  0  0
    3.4030   -2.0000    0.0000 C   0  0  0  0  0  0  0  0  0  0  0  0
   10.3991   -0.9725    0.0000 C   0  0  0  0  0  0  0  0  0  0  0  0
    9.5273    0.5241    0.0000 C   0  0  0  0  0  0  0  0  0  0  0  0
   11.2632   -0.4692    0.0000 C   0  0  0  0  0  0  0  0  0  0  0  0
   10.3914    1.0275    0.0000 C   0  0  0  0  0  0  0  0  0  0  0  0
   11.2593    0.5308    0.0000 C   0  0  0  0  0  0  0  0  0  0  0  0
    3.4030    2.6200    0.0000 H   0  0  0  0  0  0  0  0  0  0  0  0
    4.8059    2.8100    0.0000 H   0  0  0  0  0  0  0  0  0  0  0  0
    3.4030    0.3800    0.0000 H   0  0  0  0  0  0  0  0  0  0  0  0
    5.6720    1.6900    0.0000 H   0  0  0  0  0  0  0  0  0  0  0  0
    3.7320    0.1900    0.0000 H   0  0  0  0  0  0  0  0  0  0  0  0
    6.3110    1.9631    0.0000 H   0  0  0  0  0  0  0  0  0  0  0  0
    6.5380    2.8100    0.0000 H   0  0  0  0  0  0  0  0  0  0  0  0
    5.6910    3.0369    0.0000 H   0  0  0  0  0  0  0  0  0  0  0  0
    2.5369    3.1200    0.0000 H   0  0  0  0  0  0  0  0  0  0  0  0
    4.8059    3.8100    0.0000 H   0  0  0  0  0  0  0  0  0  0  0  0
    2.0000    0.8100    0.0000 H   0  0  0  0  0  0  0  0  0  0  0  0
    6.0010    0.1200    0.0000 H   0  0  0  0  0  0  0  0  0  0  0  0
    9.2028   -2.3329    0.0000 H   0  0  0  0  0  0  0  0  0  0  0  0
    5.4641   -3.8100    0.0000 H   0  0  0  0  0  0  0  0  0  0  0  0
    3.7130   -1.4631    0.0000 H   0  0  0  0  0  0  0  0  0  0  0  0
    2.8660   -1.6900    0.0000 H   0  0  0  0  0  0  0  0  0  0  0  0
    3.0930   -2.5369    0.0000 H   0  0  0  0  0  0  0  0  0  0  0  0
   10.4015   -1.5925    0.0000 H   0  0  0  0  0  0  0  0  0  0  0  0
    8.9892    0.8321    0.0000 H   0  0  0  0  0  0  0  0  0  0  0  0
   10.3890    1.6475    0.0000 H   0  0  0  0  0  0  0  0  0  0  0  0
   12.1335   -1.5858    0.0000 H   0  0  0  0  0  0  0  0  0  0  0  0
   12.1210    1.6542    0.0000 H   0  0  0  0  0  0  0  0  0  0  0  0
  1 15  1  0  0  0  0
  1 16  1  0  0  0  0
 16  2  1  1  0  0  0
  2 18  1  0  0  0  0
 12  3  1  6  0  0  0
  3 42  1  0  0  0  0
 13  4  1  1  0  0  0
  4 43  1  0  0  0  0
 14  5  1  6  0  0  0
  5 44  1  0  0  0  0
  6 21  1  0  0  0  0
  6 25  1  0  0  0  0
  7 19  1  0  0  0  0
  7 28  1  0  0  0  0
  8 23  1  0  0  0  0
  8 47  1  0  0  0  0
  9 24  2  0  0  0  0
 10 31  1  0  0  0  0
 10 54  1  0  0  0  0
 11 33  1  0  0  0  0
 11 55  1  0  0  0  0
 12 13  1  0  0  0  0
 12 14  1  0  0  0  0
 12 34  1  0  0  0  0
 13 15  1  0  0  0  0
 13 35  1  0  0  0  0
 14 16  1  0  0  0  0
 14 36  1  0  0  0  0
 15 17  1  6  0  0  0
 15 37  1  0  0  0  0
 16 38  1  0  0  0  0
 17 39  1  0  0  0  0
 17 40  1  0  0  0  0
 17 41  1  0  0  0  0
 18 19  2  0  0  0  0
 18 20  1  0  0  0  0
 19 23  1  0  0  0  0
 20 21  2  0  0  0  0
 20 45  1  0  0  0  0
 21 22  1  0  0  0  0
 22 23  2  0  0  0  0
 22 24  1  0  0  0  0
 24 26  1  0  0  0  0
 25 26  2  0  0  0  0
 25 27  1  0  0  0  0
 26 46  1  0  0  0  0
 27 29  2  0  0  0  0
 27 30  1  0  0  0  0
 28 48  1  0  0  0  0
 28 49  1  0  0  0  0
 28 50  1  0  0  0  0
 29 31  1  0  0  0  0
 29 51  1  0  0  0  0
 30 32  2  0  0  0  0
 30 52  1  0  0  0  0
 31 33  2  0  0  0  0
 32 33  1  0  0  0  0
 32 53  1  0  0  0  0
M  END
> <PUBCHEM_COMPOUND_CID>
442617

> <PUBCHEM_COMPOUND_CANONICALIZED>
1

> <PUBCHEM_CACTVS_COMPLEXITY>
744

> <PUBCHEM_CACTVS_HBOND_ACCEPTOR>
11

> <PUBCHEM_CACTVS_HBOND_DONOR>
6

> <PUBCHEM_CACTVS_ROTATABLE_BOND>
4

> <PUBCHEM_CACTVS_SUBSKEYS>
AAADceB4PAAAAAAAAAAAAAAAAAAAAAAAAAA0YIEAAAAAAACBQAAAGgAACAAADBSwmAMyDoAABgCIAqBSAAACCAAkIAAIiAEGiMgdNzaGNRqieWOl4BUPuQfK7LzOIQABCAAIQABCAAIQABCAAAAAAAAAAA==

> <PUBCHEM_IUPAC_OPENEYE_NAME>
2-(3,4-dihydroxyphenyl)-5-hydroxy-6-methoxy-7-[(2S,3R,4R,5R,6S)-3,4,5-trihydroxy-6-methyl-tetrahydropyran-2-yl]oxy-chromen-4-one

> <PUBCHEM_IUPAC_CAS_NAME>
2-(3,4-dihydroxyphenyl)-5-hydroxy-6-methoxy-7-[[(2S,3R,4R,5R,6S)-3,4,5-trihydroxy-6-methyl-2-oxanyl]oxy]-1-benzopyran-4-one

> <PUBCHEM_IUPAC_NAME>
2-(3,4-dihydroxyphenyl)-5-hydroxy-6-methoxy-7-[(2S,3R,4R,5R,6S)-3,4,5-trihydroxy-6-methyloxan-2-yl]oxychromen-4-one

> <PUBCHEM_IUPAC_SYSTEMATIC_NAME>
2-[3,4-bis(oxidanyl)phenyl]-6-methoxy-7-[(2S,3R,4R,5R,6S)-6-methyl-3,4,5-tris(oxidanyl)oxan-2-yl]oxy-5-oxidanyl-chromen-4-one

> <PUBCHEM_IUPAC_TRADITIONAL_NAME>
2-(3,4-dihydroxyphenyl)-5-hydroxy-6-methoxy-7-[(2S,3R,4R,5R,6S)-3,4,5-trihydroxy-6-methyl-tetrahydropyran-2-yl]oxy-chromone

> <PUBCHEM_IUPAC_INCHI>
InChI=1S/C22H22O11/c1-8-17(26)19(28)20(29)22(31-8)33-15-7-14-16(18(27)21(15)30-2)12(25)6-13(32-14)9-3-4-10(23)11(24)5-9/h3-8,17,19-20,22-24,26-29H,1-2H3/t8-,17-,19+,20+,22-/m0/s1

> <PUBCHEM_IUPAC_INCHIKEY>
UXCXDWDJBSJZOU-CKPDRDNLSA-N

> <PUBCHEM_XLOGP3_AA>
1

> <PUBCHEM_EXACT_MASS>
462.116212

> <PUBCHEM_MOLECULAR_FORMULA>
C22H22O11

> <PUBCHEM_MOLECULAR_WEIGHT>
462.40348

> <PUBCHEM_OPENEYE_CAN_SMILES>
CC1C(C(C(C(O1)OC2=C(C(=C3C(=C2)OC(=CC3=O)C4=CC(=C(C=C4)O)O)O)OC)O)O)O

> <PUBCHEM_OPENEYE_ISO_SMILES>
C[C@H]1[C@@H]([C@H]([C@H]([C@@H](O1)OC2=C(C(=C3C(=C2)OC(=CC3=O)C4=CC(=C(C=C4)O)O)O)OC)O)O)O

> <PUBCHEM_CACTVS_TPSA>
175

> <PUBCHEM_MONOISOTOPIC_WEIGHT>
462.116212

> <PUBCHEM_TOTAL_CHARGE>
0

> <PUBCHEM_HEAVY_ATOM_COUNT>
33

> <PUBCHEM_ATOM_DEF_STEREO_COUNT>
5

> <PUBCHEM_ATOM_UDEF_STEREO_COUNT>
0

> <PUBCHEM_BOND_DEF_STEREO_COUNT>
0

> <PUBCHEM_BOND_UDEF_STEREO_COUNT>
0

> <PUBCHEM_ISOTOPIC_ATOM_COUNT>
0

> <PUBCHEM_COMPONENT_COUNT>
1

> <PUBCHEM_CACTVS_TAUTO_COUNT>
68

> <PUBCHEM_COORDINATE_TYPE>
1
5
255

> <PUBCHEM_BONDANNOTATIONS>
15  17  6
18  19  8
18  20  8
19  23  8
16  2  5
20  21  8
21  22  8
22  23  8
22  24  8
24  26  8
25  26  8
27  29  8
27  30  8
29  31  8
12  3  6
30  32  8
31  33  8
32  33  8
13  4  5
14  5  6
6  21  8
6  25  8

$$$$

