5282250
  -OEChem-07051213043D

 43 44  0     0  0  0  0  0  0999 V2000
    1.6020   -2.9123   -0.0573 S   0  0  0  0  0  0  0  0  0  0  0  0
   -2.1325    2.6145    0.2258 S   0  0  0  0  0  0  0  0  0  0  0  0
   -7.3223   -0.7025   -2.1648 S   0  0  0  0  0  0  0  0  0  0  0  0
    0.8509   -2.9456    1.3925 O   0  0  0  0  0  0  0  0  0  0  0  0
   -1.3802    2.5546   -1.2226 O   0  0  0  0  0  0  0  0  0  0  0  0
    0.5679   -2.9740   -1.0770 O   0  0  0  0  0  0  0  0  0  0  0  0
    2.6843   -3.8810   -0.0318 O   0  0  0  0  0  0  0  0  0  0  0  0
   -3.1813    3.6156    0.1228 O   0  0  0  0  0  0  0  0  0  0  0  0
   -1.1184    2.6993    1.2626 O   0  0  0  0  0  0  0  0  0  0  0  0
    6.1936    2.3874   -0.2320 O   0  0  0  0  0  0  0  0  0  0  0  0
    5.7588    0.0760   -0.0681 N   0  0  0  0  0  0  0  0  0  0  0  0
   -6.3416   -0.2991    0.3990 N   0  0  0  0  0  0  0  0  0  0  0  0
    1.6026   -0.1660   -0.2852 C   0  0  0  0  0  0  0  0  0  0  0  0
    2.3462   -1.3279   -0.1464 C   0  0  0  0  0  0  0  0  0  0  0  0
   -2.1627   -0.1144    0.6077 C   0  0  0  0  0  0  0  0  0  0  0  0
   -2.9028    1.0500    0.4020 C   0  0  0  0  0  0  0  0  0  0  0  0
    3.7367   -1.2472   -0.0738 C   0  0  0  0  0  0  0  0  0  0  0  0
    0.1317   -0.2040   -0.3658 C   0  0  0  0  0  0  0  0  0  0  0  0
    4.3678   -0.0051   -0.1408 C   0  0  0  0  0  0  0  0  0  0  0  0
    2.2175    1.0759   -0.3533 C   0  0  0  0  0  0  0  0  0  0  0  0
   -0.7076   -0.0960    0.6890 C   0  0  0  0  0  0  0  0  0  0  0  0
    3.6081    1.1565   -0.2806 C   0  0  0  0  0  0  0  0  0  0  0  0
   -2.8143   -1.3402    0.7436 C   0  0  0  0  0  0  0  0  0  0  0  0
   -4.2945    0.9884    0.3320 C   0  0  0  0  0  0  0  0  0  0  0  0
   -4.9462   -0.2374    0.4679 C   0  0  0  0  0  0  0  0  0  0  0  0
   -4.2060   -1.4016    0.6736 C   0  0  0  0  0  0  0  0  0  0  0  0
    6.5623    1.2230   -0.1175 C   0  0  0  0  0  0  0  0  0  0  0  0
    8.0276    0.8844   -0.0057 C   0  0  0  0  0  0  0  0  0  0  0  0
   -6.7474   -0.4713   -0.6960 C   0  0  0  0  0  0  0  0  0  0  0  0
    4.3495   -2.1375    0.0385 H   0  0  0  0  0  0  0  0  0  0  0  0
   -0.2696   -0.3040   -1.3719 H   0  0  0  0  0  0  0  0  0  0  0  0
    1.6379    1.9891   -0.4627 H   0  0  0  0  0  0  0  0  0  0  0  0
   -0.3020    0.0061    1.6932 H   0  0  0  0  0  0  0  0  0  0  0  0
    4.0242    2.1524   -0.3398 H   0  0  0  0  0  0  0  0  0  0  0  0
   -2.2566   -2.2594    0.9035 H   0  0  0  0  0  0  0  0  0  0  0  0
   -4.8928    1.8815    0.1727 H   0  0  0  0  0  0  0  0  0  0  0  0
   -4.7032   -2.3621    0.7830 H   0  0  0  0  0  0  0  0  0  0  0  0
    6.2414   -0.8144    0.0331 H   0  0  0  0  0  0  0  0  0  0  0  0
   -0.0390   -2.5275    1.4267 H   0  0  0  0  0  0  0  0  0  0  0  0
   -1.9694    2.4107   -2.0001 H   0  0  0  0  0  0  0  0  0  0  0  0
    8.2232    0.4043    0.9572 H   0  0  0  0  0  0  0  0  0  0  0  0
    8.6255    1.7973   -0.0760 H   0  0  0  0  0  0  0  0  0  0  0  0
    8.3156    0.2091   -0.8163 H   0  0  0  0  0  0  0  0  0  0  0  0
  1  4  1  0  0  0  0
  1  6  2  0  0  0  0
  1  7  2  0  0  0  0
  1 14  1  0  0  0  0
  2  5  1  0  0  0  0
  2  8  2  0  0  0  0
  2  9  2  0  0  0  0
  2 16  1  0  0  0  0
  3 29  2  0  0  0  0
  4 39  1  0  0  0  0
  5 40  1  0  0  0  0
 10 27  2  0  0  0  0
 11 19  1  0  0  0  0
 11 27  1  0  0  0  0
 11 38  1  0  0  0  0
 12 25  1  0  0  0  0
 12 29  2  0  0  0  0
 13 14  2  0  0  0  0
 13 18  1  0  0  0  0
 13 20  1  0  0  0  0
 14 17  1  0  0  0  0
 15 16  2  0  0  0  0
 15 21  1  0  0  0  0
 15 23  1  0  0  0  0
 16 24  1  0  0  0  0
 17 19  2  0  0  0  0
 17 30  1  0  0  0  0
 18 21  2  0  0  0  0
 18 31  1  0  0  0  0
 19 22  1  0  0  0  0
 20 22  2  0  0  0  0
 20 32  1  0  0  0  0
 21 33  1  0  0  0  0
 22 34  1  0  0  0  0
 23 26  2  0  0  0  0
 23 35  1  0  0  0  0
 24 25  2  0  0  0  0
 24 36  1  0  0  0  0
 25 26  1  0  0  0  0
 26 37  1  0  0  0  0
 27 28  1  0  0  0  0
 28 41  1  0  0  0  0
 28 42  1  0  0  0  0
 28 43  1  0  0  0  0
M  END
> <PUBCHEM_COMPOUND_CID>
5282250

> <PUBCHEM_CONFORMER_RMSD>
0.8

> <PUBCHEM_CONFORMER_DIVERSEORDER>
1
22
28
31
5
25
26
30
13
20
8
37
16
24
29
14
33
19
32
18
21
11
10
36
6
23
34
38
3
12
9
27
2
15
35
17
7
4

> <PUBCHEM_MMFF94_PARTIAL_CHARGES>
40
1 1.49
10 -0.57
11 -0.55
12 -0.48
13 0.03
14 -0.01
15 0.03
16 -0.01
17 -0.15
18 -0.18
19 0.12
2 1.49
20 -0.15
21 -0.18
22 -0.15
23 -0.15
24 -0.15
25 0.18
26 -0.15
27 0.57
28 0.06
29 0.57
3 -0.27
30 0.15
31 0.15
32 0.15
33 0.15
34 0.15
35 0.15
36 0.15
37 0.15
38 0.37
39 0.5
4 -0.68
40 0.5
5 -0.68
6 -0.65
7 -0.65
8 -0.65
9 -0.65

> <PUBCHEM_EFFECTIVE_ROTOR_COUNT>
7

> <PUBCHEM_PHARMACOPHORE_FEATURES>
14
1 10 acceptor
1 11 donor
1 12 acceptor
1 3 acceptor
1 4 acceptor
1 5 acceptor
1 6 acceptor
1 7 acceptor
1 8 acceptor
1 9 acceptor
4 1 4 6 7 anion
4 2 5 8 9 anion
6 13 14 17 19 20 22 rings
6 15 16 23 24 25 26 rings

> <PUBCHEM_HEAVY_ATOM_COUNT>
29

> <PUBCHEM_ATOM_DEF_STEREO_COUNT>
0

> <PUBCHEM_ATOM_UDEF_STEREO_COUNT>
0

> <PUBCHEM_BOND_DEF_STEREO_COUNT>
1

> <PUBCHEM_BOND_UDEF_STEREO_COUNT>
0

> <PUBCHEM_ISOTOPIC_ATOM_COUNT>
0

> <PUBCHEM_COMPONENT_COUNT>
1

> <PUBCHEM_CACTVS_TAUTO_COUNT>
2

> <PUBCHEM_CONFORMER_ID>
005099CA00000001

> <PUBCHEM_MMFF94_ENERGY>
75.0033

> <PUBCHEM_FEATURE_SELFOVERLAP>
71.161

> <PUBCHEM_SHAPE_FINGERPRINT>
10 15 18338240367616636072
10050765 1 18194399119989078371
10366900 7 18407757036624892187
10595046 47 18335138739217968889
10835480 77 18342180016025121869
11135926 11 18411136922858625063
11315181 36 17917705773398295193
11578080 2 16987170528636851919
11719270 70 18411421713629378386
12107183 9 10087640416311660389
12788726 201 18340773736484290875
12838862 33 18338813229620898304
13150687 139 18334005082759082374
13402501 40 18410570656821153752
13631057 29 18259987084820646905
13914758 101 15841562885120717501
14117953 113 18201436956632792996
14394314 77 18335975455072864161
1454969 45 18408888412398739620
14790565 3 18411410693001844092
14840074 17 18113339704728992927
15238133 3 13326853366304131191
15961568 22 18343860030873861948
17492 89 18119808264552799119
18681886 176 18338798910321506480
21033648 29 18260276235515943144
22224240 67 18408888404415511674
22393880 68 18192979642331050342
23559900 14 18341051809594123881
24771750 20 17769641015930007181
335352 9 18409724055418405422
350125 39 18410289173576540896
4325135 7 18040997323608766549
5104073 3 18199176476605605152
54039377 194 17751085718230290951
5486654 2 18335696105624176002
6371009 1 18341891857905374660
9709674 26 18267855263206953779
9961470 85 17831583072574774648
9981440 41 18272640251779554578

> <PUBCHEM_SHAPE_MULTIPOLES>
557.31
17.75
3.54
1.1
5.2
0.61
0.31
-3.88
4.86
1.13
-0.22
-1.8
0.19
-0.65

> <PUBCHEM_SHAPE_SELFOVERLAP>
1159.514

> <PUBCHEM_SHAPE_VOLUME>
317

> <PUBCHEM_COORDINATE_TYPE>
2
5
10

$$$$

