11954213
  -OEChem-07051213072D

 43 44  0     1  0  0  0  0  0999 V2000
    6.0981    1.2890    0.0000 O   0  0  0  0  0  0  0  0  0  0  0  0
    6.3301   -0.5771    0.0000 O   0  0  0  0  0  0  0  0  0  0  0  0
    2.8660   -0.5771    0.0000 O   0  0  0  0  0  0  0  0  0  0  0  0
    3.0981    3.0210    0.0000 O   0  0  0  0  0  0  0  0  0  0  0  0
    4.5981   -3.5770    0.0000 O   0  0  0  0  0  0  0  0  0  0  0  0
    6.0981    3.0210    0.0000 O   0  0  0  0  0  0  0  0  0  0  0  0
    2.0000   -2.0770    0.0000 O   0  0  0  0  0  0  0  0  0  0  0  0
    4.5981    0.4229    0.0000 C   0  0  1  0  0  0  0  0  0  0  0  0
    4.5981   -0.5771    0.0000 C   0  0  0  0  0  0  0  0  0  0  0  0
    5.0981    1.2890    0.0000 C   0  0  0  0  0  0  0  0  0  0  0  0
    5.4641   -0.0771    0.0000 C   0  0  0  0  0  0  0  0  0  0  0  0
    3.5981    0.4229    0.0000 C   0  0  0  0  0  0  0  0  0  0  0  0
    5.4641   -1.0770    0.0000 C   0  0  0  0  0  0  0  0  0  0  0  0
    3.7320   -1.0770    0.0000 C   0  0  0  0  0  0  0  0  0  0  0  0
    4.5981    2.1550    0.0000 C   0  0  0  0  0  0  0  0  0  0  0  0
    5.4641   -2.0770    0.0000 C   0  0  0  0  0  0  0  0  0  0  0  0
    3.7320   -2.0770    0.0000 C   0  0  0  0  0  0  0  0  0  0  0  0
    3.0981    1.2890    0.0000 C   0  0  0  0  0  0  0  0  0  0  0  0
    3.5981    2.1550    0.0000 C   0  0  0  0  0  0  0  0  0  0  0  0
    4.5981   -2.5770    0.0000 C   0  0  0  0  0  0  0  0  0  0  0  0
    6.3301   -2.5770    0.0000 C   0  0  0  0  0  0  0  0  0  0  0  0
    5.0981    3.0210    0.0000 C   0  0  0  0  0  0  0  0  0  0  0  0
    2.8660   -2.5770    0.0000 C   0  0  0  0  0  0  0  0  0  0  0  0
    4.5981    3.8870    0.0000 C   0  0  0  0  0  0  0  0  0  0  0  0
    2.8660   -3.5770    0.0000 C   0  0  0  0  0  0  0  0  0  0  0  0
    5.1541   -0.6140    0.0000 H   0  0  0  0  0  0  0  0  0  0  0  0
    6.0010   -0.3871    0.0000 H   0  0  0  0  0  0  0  0  0  0  0  0
    5.7741    0.4599    0.0000 H   0  0  0  0  0  0  0  0  0  0  0  0
    3.2881   -0.1140    0.0000 H   0  0  0  0  0  0  0  0  0  0  0  0
    2.4781    1.2890    0.0000 H   0  0  0  0  0  0  0  0  0  0  0  0
    6.0201   -3.1140    0.0000 H   0  0  0  0  0  0  0  0  0  0  0  0
    6.8671   -2.8870    0.0000 H   0  0  0  0  0  0  0  0  0  0  0  0
    6.6401   -2.0401    0.0000 H   0  0  0  0  0  0  0  0  0  0  0  0
    6.8671   -0.8871    0.0000 H   0  0  0  0  0  0  0  0  0  0  0  0
    2.3291   -0.8871    0.0000 H   0  0  0  0  0  0  0  0  0  0  0  0
    5.1350    4.1970    0.0000 H   0  0  0  0  0  0  0  0  0  0  0  0
    4.2881    4.4240    0.0000 H   0  0  0  0  0  0  0  0  0  0  0  0
    4.0611    3.5770    0.0000 H   0  0  0  0  0  0  0  0  0  0  0  0
    2.4781    3.0210    0.0000 H   0  0  0  0  0  0  0  0  0  0  0  0
    5.1350   -3.8870    0.0000 H   0  0  0  0  0  0  0  0  0  0  0  0
    2.2460   -3.5770    0.0000 H   0  0  0  0  0  0  0  0  0  0  0  0
    2.8660   -4.1970    0.0000 H   0  0  0  0  0  0  0  0  0  0  0  0
    3.4860   -3.5770    0.0000 H   0  0  0  0  0  0  0  0  0  0  0  0
  1 10  2  0  0  0  0
  2 13  1  0  0  0  0
  2 34  1  0  0  0  0
  3 14  1  0  0  0  0
  3 35  1  0  0  0  0
  4 19  1  0  0  0  0
  4 39  1  0  0  0  0
  5 20  1  0  0  0  0
  5 40  1  0  0  0  0
  6 22  2  0  0  0  0
  7 23  2  0  0  0  0
  8  9  1  0  0  0  0
  8 10  1  0  0  0  0
  8 11  1  6  0  0  0
  8 12  1  0  0  0  0
  9 13  2  0  0  0  0
  9 14  1  0  0  0  0
 10 15  1  0  0  0  0
 11 26  1  0  0  0  0
 11 27  1  0  0  0  0
 11 28  1  0  0  0  0
 12 18  2  0  0  0  0
 12 29  1  0  0  0  0
 13 16  1  0  0  0  0
 14 17  2  0  0  0  0
 15 19  2  0  0  0  0
 15 22  1  0  0  0  0
 16 20  2  0  0  0  0
 16 21  1  0  0  0  0
 17 20  1  0  0  0  0
 17 23  1  0  0  0  0
 18 19  1  0  0  0  0
 18 30  1  0  0  0  0
 21 31  1  0  0  0  0
 21 32  1  0  0  0  0
 21 33  1  0  0  0  0
 22 24  1  0  0  0  0
 23 25  1  0  0  0  0
 24 36  1  0  0  0  0
 24 37  1  0  0  0  0
 24 38  1  0  0  0  0
 25 41  1  0  0  0  0
 25 42  1  0  0  0  0
 25 43  1  0  0  0  0
M  END
> <PUBCHEM_COMPOUND_CID>
11954213

> <PUBCHEM_COMPOUND_CANONICALIZED>
1

> <PUBCHEM_CACTVS_COMPLEXITY>
677

> <PUBCHEM_CACTVS_HBOND_ACCEPTOR>
7

> <PUBCHEM_CACTVS_HBOND_DONOR>
4

> <PUBCHEM_CACTVS_ROTATABLE_BOND>
3

> <PUBCHEM_CACTVS_SUBSKEYS>
AAADceB4OAAAAAAAAAAAAAAAAAAAAAAAAAAwQAAAAAAAAAABAAAAGgAACAAADgSAmAACBoAAAgCIAqBSAAACAAAkIAAIiAEECMgIJzaKFBKAcUAl4BUImQeK7PTPoAACCAAIAABAAAQQABAAAAAAAAAAAA==

> <PUBCHEM_IUPAC_OPENEYE_NAME>
(6R)-2-acetyl-6-(3-acetyl-2,4,6-trihydroxy-5-methyl-phenyl)-3-hydroxy-6-methyl-cyclohexa-2,4-dien-1-one

> <PUBCHEM_IUPAC_CAS_NAME>
(6R)-2-acetyl-6-(3-acetyl-2,4,6-trihydroxy-5-methylphenyl)-3-hydroxy-6-methyl-1-cyclohexa-2,4-dienone

> <PUBCHEM_IUPAC_NAME>
(6R)-2-acetyl-6-(3-acetyl-2,4,6-trihydroxy-5-methylphenyl)-3-hydroxy-6-methylcyclohexa-2,4-dien-1-one

> <PUBCHEM_IUPAC_SYSTEMATIC_NAME>
(6R)-2-ethanoyl-6-[3-ethanoyl-5-methyl-2,4,6-tris(oxidanyl)phenyl]-6-methyl-3-oxidanyl-cyclohexa-2,4-dien-1-one

> <PUBCHEM_IUPAC_TRADITIONAL_NAME>
(6R)-2-acetyl-6-(3-acetyl-2,4,6-trihydroxy-5-methyl-phenyl)-3-hydroxy-6-methyl-cyclohexa-2,4-dien-1-one

> <PUBCHEM_IUPAC_INCHI>
InChI=1S/C18H18O7/c1-7-14(22)12(9(3)20)16(24)13(15(7)23)18(4)6-5-10(21)11(8(2)19)17(18)25/h5-6,21-24H,1-4H3/t18-/m1/s1

> <PUBCHEM_IUPAC_INCHIKEY>
AMFXPHNKTUIKLV-GOSISDBHSA-N

> <PUBCHEM_XLOGP3_AA>
2.4

> <PUBCHEM_EXACT_MASS>
346.105253

> <PUBCHEM_MOLECULAR_FORMULA>
C18H18O7

> <PUBCHEM_MOLECULAR_WEIGHT>
346.33132

> <PUBCHEM_OPENEYE_CAN_SMILES>
CC1=C(C(=C(C(=C1O)C2(C=CC(=C(C2=O)C(=O)C)O)C)O)C(=O)C)O

> <PUBCHEM_OPENEYE_ISO_SMILES>
CC1=C(C(=C(C(=C1O)[C@]2(C=CC(=C(C2=O)C(=O)C)O)C)O)C(=O)C)O

> <PUBCHEM_CACTVS_TPSA>
132

> <PUBCHEM_MONOISOTOPIC_WEIGHT>
346.105253

> <PUBCHEM_TOTAL_CHARGE>
0

> <PUBCHEM_HEAVY_ATOM_COUNT>
25

> <PUBCHEM_ATOM_DEF_STEREO_COUNT>
1

> <PUBCHEM_ATOM_UDEF_STEREO_COUNT>
0

> <PUBCHEM_BOND_DEF_STEREO_COUNT>
0

> <PUBCHEM_BOND_UDEF_STEREO_COUNT>
0

> <PUBCHEM_ISOTOPIC_ATOM_COUNT>
0

> <PUBCHEM_COMPONENT_COUNT>
1

> <PUBCHEM_CACTVS_TAUTO_COUNT>
294

> <PUBCHEM_COORDINATE_TYPE>
1
5
255

> <PUBCHEM_BONDANNOTATIONS>
13  16  8
14  17  8
16  20  8
17  20  8
8  11  6
9  13  8
9  14  8

$$$$

