440899
  -OEChem-07051212512D

 21 21  0     0  0  0  0  0  0999 V2000
    6.3301   -0.0600    0.0000 O   0  0  0  0  0  0  0  0  0  0  0  0
    5.4641    1.4400    0.0000 O   0  0  0  0  0  0  0  0  0  0  0  0
    2.0000   -0.5600    0.0000 O   0  0  0  0  0  0  0  0  0  0  0  0
    4.5981   -2.0600    0.0000 N   0  0  0  0  0  0  0  0  0  0  0  0
    4.5981   -0.0600    0.0000 C   0  0  0  0  0  0  0  0  0  0  0  0
    5.4641   -0.5600    0.0000 C   0  0  0  0  0  0  0  0  0  0  0  0
    3.7320   -0.5600    0.0000 C   0  0  0  0  0  0  0  0  0  0  0  0
    5.4641   -1.5600    0.0000 C   0  0  0  0  0  0  0  0  0  0  0  0
    4.5981    0.9400    0.0000 C   0  0  0  0  0  0  0  0  0  0  0  0
    3.7320   -1.5600    0.0000 C   0  0  0  0  0  0  0  0  0  0  0  0
    6.3301   -2.0600    0.0000 C   0  0  0  0  0  0  0  0  0  0  0  0
    2.8660   -0.0600    0.0000 C   0  0  0  0  0  0  0  0  0  0  0  0
    4.3860    1.5226    0.0000 H   0  0  0  0  0  0  0  0  0  0  0  0
    3.9875    0.8323    0.0000 H   0  0  0  0  0  0  0  0  0  0  0  0
    3.1951   -1.8700    0.0000 H   0  0  0  0  0  0  0  0  0  0  0  0
    6.0201   -2.5969    0.0000 H   0  0  0  0  0  0  0  0  0  0  0  0
    6.8671   -2.3700    0.0000 H   0  0  0  0  0  0  0  0  0  0  0  0
    6.6401   -1.5231    0.0000 H   0  0  0  0  0  0  0  0  0  0  0  0
    2.8660    0.5600    0.0000 H   0  0  0  0  0  0  0  0  0  0  0  0
    6.8671   -0.3700    0.0000 H   0  0  0  0  0  0  0  0  0  0  0  0
    5.4641    2.0600    0.0000 H   0  0  0  0  0  0  0  0  0  0  0  0
  1  6  1  0  0  0  0
  1 20  1  0  0  0  0
  2  9  1  0  0  0  0
  2 21  1  0  0  0  0
  3 12  2  0  0  0  0
  4  8  2  0  0  0  0
  4 10  1  0  0  0  0
  5  6  2  0  0  0  0
  5  7  1  0  0  0  0
  5  9  1  0  0  0  0
  6  8  1  0  0  0  0
  7 10  2  0  0  0  0
  7 12  1  0  0  0  0
  8 11  1  0  0  0  0
  9 13  1  0  0  0  0
  9 14  1  0  0  0  0
 10 15  1  0  0  0  0
 11 16  1  0  0  0  0
 11 17  1  0  0  0  0
 11 18  1  0  0  0  0
 12 19  1  0  0  0  0
M  END
> <PUBCHEM_COMPOUND_CID>
440899

> <PUBCHEM_COMPOUND_CANONICALIZED>
1

> <PUBCHEM_CACTVS_COMPLEXITY>
162

> <PUBCHEM_CACTVS_HBOND_ACCEPTOR>
4

> <PUBCHEM_CACTVS_HBOND_DONOR>
2

> <PUBCHEM_CACTVS_ROTATABLE_BOND>
2

> <PUBCHEM_CACTVS_SUBSKEYS>
AAADccByMAAAAAAAAAAAAAAAAAAAAAAAAAAsAAAAAAAAAAABgAAAHgAACAAADAzhngYuhpIIEgCoAxx3xASCgCA1YCAA2CE9TNgKN3rSlZOEcYhlwBHY2ce6CQAegAAAAAAAAAAAAAAAAAAAAAAAAAAAAA==

> <PUBCHEM_IUPAC_OPENEYE_NAME>
5-hydroxy-4-(hydroxymethyl)-6-methyl-pyridine-3-carbaldehyde

> <PUBCHEM_IUPAC_CAS_NAME>
5-hydroxy-4-(hydroxymethyl)-6-methyl-3-pyridinecarboxaldehyde

> <PUBCHEM_IUPAC_NAME>
5-hydroxy-4-(hydroxymethyl)-6-methylpyridine-3-carbaldehyde

> <PUBCHEM_IUPAC_SYSTEMATIC_NAME>
4-(hydroxymethyl)-6-methyl-5-oxidanyl-pyridine-3-carbaldehyde

> <PUBCHEM_IUPAC_TRADITIONAL_NAME>
5-hydroxy-6-methyl-4-methylol-nicotinaldehyde

> <PUBCHEM_IUPAC_INCHI>
InChI=1S/C8H9NO3/c1-5-8(12)7(4-11)6(3-10)2-9-5/h2-3,11-12H,4H2,1H3

> <PUBCHEM_IUPAC_INCHIKEY>
GNKXHPULSPWUAK-UHFFFAOYSA-N

> <PUBCHEM_XLOGP3_AA>
0

> <PUBCHEM_EXACT_MASS>
167.058243

> <PUBCHEM_MOLECULAR_FORMULA>
C8H9NO3

> <PUBCHEM_MOLECULAR_WEIGHT>
167.16196

> <PUBCHEM_OPENEYE_CAN_SMILES>
CC1=NC=C(C(=C1O)CO)C=O

> <PUBCHEM_OPENEYE_ISO_SMILES>
CC1=NC=C(C(=C1O)CO)C=O

> <PUBCHEM_CACTVS_TPSA>
70.4

> <PUBCHEM_MONOISOTOPIC_WEIGHT>
167.058243

> <PUBCHEM_TOTAL_CHARGE>
0

> <PUBCHEM_HEAVY_ATOM_COUNT>
12

> <PUBCHEM_ATOM_DEF_STEREO_COUNT>
0

> <PUBCHEM_ATOM_UDEF_STEREO_COUNT>
0

> <PUBCHEM_BOND_DEF_STEREO_COUNT>
0

> <PUBCHEM_BOND_UDEF_STEREO_COUNT>
0

> <PUBCHEM_ISOTOPIC_ATOM_COUNT>
0

> <PUBCHEM_COMPONENT_COUNT>
1

> <PUBCHEM_CACTVS_TAUTO_COUNT>
9

> <PUBCHEM_COORDINATE_TYPE>
1
5
255

> <PUBCHEM_BONDANNOTATIONS>
4  10  8
4  8  8
5  6  8
5  7  8
6  8  8
7  10  8

$$$$

