15301053
  -OEChem-07051213153D

 32 35  0     0  0  0  0  0  0999 V2000
   -1.7364    2.0367   -0.0382 O   0  0  0  0  0  0  0  0  0  0  0  0
    4.6585   -0.0913   -1.7065 O   0  0  0  0  0  0  0  0  0  0  0  0
    5.6584   -0.1968    0.4837 O   0  0  0  0  0  0  0  0  0  0  0  0
   -0.4181   -1.8211    0.1316 O   0  0  0  0  0  0  0  0  0  0  0  0
   -2.8735   -2.6738    0.0479 O   0  0  0  0  0  0  0  0  0  0  0  0
   -6.2670    0.6330   -0.2528 O   0  0  0  0  0  0  0  0  0  0  0  0
    1.5875    0.3139    0.2655 C   0  0  0  0  0  0  0  0  0  0  0  0
    0.1323    0.4955    0.1373 C   0  0  0  0  0  0  0  0  0  0  0  0
   -2.2415   -0.3369    0.0105 C   0  0  0  0  0  0  0  0  0  0  0  0
   -0.8056   -0.6603    0.1008 C   0  0  0  0  0  0  0  0  0  0  0  0
    3.7385    0.0349   -0.7115 C   0  0  0  0  0  0  0  0  0  0  0  0
    2.3798    0.2042   -0.8820 C   0  0  0  0  0  0  0  0  0  0  0  0
    4.3095   -0.0254    0.5391 C   0  0  0  0  0  0  0  0  0  0  0  0
   -2.6336    0.9997   -0.0557 C   0  0  0  0  0  0  0  0  0  0  0  0
    2.1746    0.2518    1.5436 C   0  0  0  0  0  0  0  0  0  0  0  0
    3.5533    0.0800    1.6882 C   0  0  0  0  0  0  0  0  0  0  0  0
   -0.4028    1.7238    0.0672 C   0  0  0  0  0  0  0  0  0  0  0  0
   -3.2007   -1.3528   -0.0125 C   0  0  0  0  0  0  0  0  0  0  0  0
   -3.9867    1.3281   -0.1452 C   0  0  0  0  0  0  0  0  0  0  0  0
    5.8727   -0.2371   -0.9418 C   0  0  0  0  0  0  0  0  0  0  0  0
   -4.5535   -1.0219   -0.1016 C   0  0  0  0  0  0  0  0  0  0  0  0
   -4.9459    0.3156   -0.1678 C   0  0  0  0  0  0  0  0  0  0  0  0
    1.9482    0.2482   -1.8769 H   0  0  0  0  0  0  0  0  0  0  0  0
    1.5586    0.3362    2.4365 H   0  0  0  0  0  0  0  0  0  0  0  0
    4.0070    0.0314    2.6716 H   0  0  0  0  0  0  0  0  0  0  0  0
    0.1805    2.6361    0.0894 H   0  0  0  0  0  0  0  0  0  0  0  0
   -4.2945    2.3694   -0.1968 H   0  0  0  0  0  0  0  0  0  0  0  0
    6.5597    0.5716   -1.2164 H   0  0  0  0  0  0  0  0  0  0  0  0
    6.3368   -1.1959   -1.2000 H   0  0  0  0  0  0  0  0  0  0  0  0
   -5.3002   -1.8124   -0.1192 H   0  0  0  0  0  0  0  0  0  0  0  0
   -1.9138   -2.7846    0.1268 H   0  0  0  0  0  0  0  0  0  0  0  0
   -6.7890   -0.1877   -0.2561 H   0  0  0  0  0  0  0  0  0  0  0  0
  1 14  1  0  0  0  0
  1 17  1  0  0  0  0
  2 11  1  0  0  0  0
  2 20  1  0  0  0  0
  3 13  1  0  0  0  0
  3 20  1  0  0  0  0
  4 10  2  0  0  0  0
  5 18  1  0  0  0  0
  5 31  1  0  0  0  0
  6 22  1  0  0  0  0
  6 32  1  0  0  0  0
  7  8  1  0  0  0  0
  7 12  2  0  0  0  0
  7 15  1  0  0  0  0
  8 10  1  0  0  0  0
  8 17  2  0  0  0  0
  9 10  1  0  0  0  0
  9 14  1  0  0  0  0
  9 18  2  0  0  0  0
 11 12  1  0  0  0  0
 11 13  2  0  0  0  0
 12 23  1  0  0  0  0
 13 16  1  0  0  0  0
 14 19  2  0  0  0  0
 15 16  2  0  0  0  0
 15 24  1  0  0  0  0
 16 25  1  0  0  0  0
 17 26  1  0  0  0  0
 18 21  1  0  0  0  0
 19 22  1  0  0  0  0
 19 27  1  0  0  0  0
 20 28  1  0  0  0  0
 20 29  1  0  0  0  0
 21 22  2  0  0  0  0
 21 30  1  0  0  0  0
M  END
> <PUBCHEM_COMPOUND_CID>
15301053

> <PUBCHEM_CONFORMER_RMSD>
0.6

> <PUBCHEM_CONFORMER_DIVERSEORDER>
2
6
3
4
5
1

> <PUBCHEM_MMFF94_PARTIAL_CHARGES>
30
1 -0.16
10 0.47
11 0.08
12 -0.15
13 0.08
14 0.08
15 -0.15
16 -0.15
17 -0.07
18 0.08
19 -0.15
2 -0.36
20 0.56
21 -0.15
22 0.08
23 0.15
24 0.15
25 0.15
26 0.15
27 0.15
3 -0.36
30 0.15
31 0.45
32 0.45
4 -0.57
5 -0.53
6 -0.53
7 0.03
8 -0.01
9 0.09

> <PUBCHEM_EFFECTIVE_ROTOR_COUNT>
1.6

> <PUBCHEM_PHARMACOPHORE_FEATURES>
10
1 1 acceptor
1 2 acceptor
1 3 acceptor
1 4 acceptor
1 5 donor
1 6 donor
5 2 3 11 13 20 rings
6 1 8 9 10 14 17 rings
6 7 11 12 13 15 16 rings
6 9 14 18 19 21 22 rings

> <PUBCHEM_HEAVY_ATOM_COUNT>
22

> <PUBCHEM_ATOM_DEF_STEREO_COUNT>
0

> <PUBCHEM_ATOM_UDEF_STEREO_COUNT>
0

> <PUBCHEM_BOND_DEF_STEREO_COUNT>
0

> <PUBCHEM_BOND_UDEF_STEREO_COUNT>
0

> <PUBCHEM_ISOTOPIC_ATOM_COUNT>
0

> <PUBCHEM_COMPONENT_COUNT>
1

> <PUBCHEM_CACTVS_TAUTO_COUNT>
12

> <PUBCHEM_CONFORMER_ID>
00E979BD00000002

> <PUBCHEM_MMFF94_ENERGY>
67.7884

> <PUBCHEM_FEATURE_SELFOVERLAP>
50.927

> <PUBCHEM_SHAPE_FINGERPRINT>
10 15 17677065573039640490
11128504 68 17775563122526234500
11315181 36 17821725026874710632
11646440 116 18114454596871850905
11796584 16 18335136506062471414
11963148 33 18341057320249167971
12011746 2 18335708252044994309
12107183 9 16839405056509740376
12236239 1 17704354377044725744
12390115 104 18116708715794451993
12403259 415 18113345223176639424
12403814 3 17274829081981302277
12616971 3 16917077654756784522
12788726 201 18130228267155164169
13140716 1 18267024960471896777
13288520 33 18408602556887793653
13402501 40 18040430005737045374
13544592 145 17967814933486285250
13631057 29 16126951998830253075
13760787 19 17632859711353683099
13862211 1 18411143511380557455
14386348 63 17894347778727033254
14573314 32 17894909654696115264
14617045 38 18335134314985318767
15196674 1 18339081471771851377
15880784 105 16371015061776955751
16752209 62 18342746208061335347
16988056 13 14886811154630665060
17804303 29 18336831905451917033
17844677 252 18186516605361251064
18681886 176 18342175523636717764
19141452 34 17458348498806043439
19489759 90 18186802495811715737
200 152 16630530643565389092
20374829 77 18335702723704620551
20645477 70 16443060638702105084
20681677 155 18202002105445809155
21033648 29 16950859084020237976
21033650 10 17984116400881895196
21065201 7 18335146379595737930
21267235 1 18339638946227591211
22122407 14 16271632486486644749
2215653 11 17894351094104162831
2297311 6 18334570252582457861
23175994 123 17240201019314924689
23402539 116 18410297999143010127
23536379 177 16128379293951394221
23557571 272 18187077399230462028
23559900 14 18335140843509701520
23569943 247 17460302489920172519
26918003 58 16298105371617665634
29717793 49 17917710236512595182
300161 21 17704358757842834852
3004659 81 18343861109200517732
335352 9 18411420601512079501
34797466 226 18260820480712560948
3545911 37 18409448107025549543
474 4 16915930765730265404
5104073 3 18338515227293775713
5385378 56 18264481962012900619
542803 24 17489870440179688484
602551 16 18408608028787099994
7495541 125 18113338588069157064

> <PUBCHEM_SHAPE_MULTIPOLES>
417.53
12.98
1.6
1.09
2.97
0.4
-0.13
0.63
2.15
-2.18
-0.01
1.77
-0.02
0.26

> <PUBCHEM_SHAPE_SELFOVERLAP>
951.642

> <PUBCHEM_SHAPE_VOLUME>
215.7

> <PUBCHEM_COORDINATE_TYPE>
2
5
10

$$$$

