9118
  -OEChem-07051213132D

 34 39  0     0  0  0  0  0  0999 V2000
    4.6153   -0.2084    0.0000 C   0  0  0  0  0  0  0  0  0  0  0  0
    3.7493    0.2916    0.0000 C   0  0  0  0  0  0  0  0  0  0  0  0
    4.6314   -1.2499    0.0000 C   0  0  0  0  0  0  0  0  0  0  0  0
    3.7493    1.2916    0.0000 C   0  0  0  0  0  0  0  0  0  0  0  0
    2.8393   -0.2153    0.0000 C   0  0  0  0  0  0  0  0  0  0  0  0
    5.4814    0.2916    0.0000 C   0  0  0  0  0  0  0  0  0  0  0  0
    4.6153    1.7916    0.0000 C   0  0  0  0  0  0  0  0  0  0  0  0
    3.7334   -1.7777    0.0000 C   0  0  0  0  0  0  0  0  0  0  0  0
    2.8911    1.7885    0.0000 C   0  0  0  0  0  0  0  0  0  0  0  0
    5.5085   -1.7127    0.0000 C   0  0  0  0  0  0  0  0  0  0  0  0
    5.4814    1.2916    0.0000 C   0  0  0  0  0  0  0  0  0  0  0  0
    2.8313   -1.2568    0.0000 C   0  0  0  0  0  0  0  0  0  0  0  0
    2.0000    0.3130    0.0000 C   0  0  0  0  0  0  0  0  0  0  0  0
    6.3408   -0.2032    0.0000 C   0  0  0  0  0  0  0  0  0  0  0  0
    2.0256    1.3043    0.0000 C   0  0  0  0  0  0  0  0  0  0  0  0
    6.3543   -1.1948    0.0000 C   0  0  0  0  0  0  0  0  0  0  0  0
    4.6252    2.8028    0.0000 C   0  0  0  0  0  0  0  0  0  0  0  0
    3.7594   -2.8192    0.0000 C   0  0  0  0  0  0  0  0  0  0  0  0
    5.5587   -2.7533    0.0000 C   0  0  0  0  0  0  0  0  0  0  0  0
    2.8776    2.7997    0.0000 C   0  0  0  0  0  0  0  0  0  0  0  0
    4.6782   -3.3102    0.0000 C   0  0  0  0  0  0  0  0  0  0  0  0
    3.7505    3.3102    0.0000 C   0  0  0  0  0  0  0  0  0  0  0  0
    6.0183    1.6016    0.0000 H   0  0  0  0  0  0  0  0  0  0  0  0
    2.2932   -1.5648    0.0000 H   0  0  0  0  0  0  0  0  0  0  0  0
    1.4534    0.0203    0.0000 H   0  0  0  0  0  0  0  0  0  0  0  0
    6.8755    0.1108    0.0000 H   0  0  0  0  0  0  0  0  0  0  0  0
    1.4949    1.6249    0.0000 H   0  0  0  0  0  0  0  0  0  0  0  0
    6.8972   -1.4942    0.0000 H   0  0  0  0  0  0  0  0  0  0  0  0
    5.1640    3.1096    0.0000 H   0  0  0  0  0  0  0  0  0  0  0  0
    3.2317   -3.1445    0.0000 H   0  0  0  0  0  0  0  0  0  0  0  0
    2.3378    3.1046    0.0000 H   0  0  0  0  0  0  0  0  0  0  0  0
    6.1088   -3.0392    0.0000 H   0  0  0  0  0  0  0  0  0  0  0  0
    3.7494    3.9302    0.0000 H   0  0  0  0  0  0  0  0  0  0  0  0
    4.7009   -3.9298    0.0000 H   0  0  0  0  0  0  0  0  0  0  0  0
  1  2  2  0  0  0  0
  1  3  1  0  0  0  0
  1  6  1  0  0  0  0
  2  4  1  0  0  0  0
  2  5  1  0  0  0  0
  3  8  1  0  0  0  0
  3 10  2  0  0  0  0
  4  7  1  0  0  0  0
  4  9  2  0  0  0  0
  5 12  2  0  0  0  0
  5 13  1  0  0  0  0
  6 11  2  0  0  0  0
  6 14  1  0  0  0  0
  7 11  1  0  0  0  0
  7 17  2  0  0  0  0
  8 12  1  0  0  0  0
  8 18  2  0  0  0  0
  9 15  1  0  0  0  0
  9 20  1  0  0  0  0
 10 16  1  0  0  0  0
 10 19  1  0  0  0  0
 11 23  1  0  0  0  0
 12 24  1  0  0  0  0
 13 15  2  0  0  0  0
 13 25  1  0  0  0  0
 14 16  2  0  0  0  0
 14 26  1  0  0  0  0
 15 27  1  0  0  0  0
 16 28  1  0  0  0  0
 17 22  1  0  0  0  0
 17 29  1  0  0  0  0
 18 21  1  0  0  0  0
 18 30  1  0  0  0  0
 19 21  2  0  0  0  0
 19 32  1  0  0  0  0
 20 22  2  0  0  0  0
 20 31  1  0  0  0  0
 21 34  1  0  0  0  0
 22 33  1  0  0  0  0
M  END
> <PUBCHEM_COMPOUND_CID>
9118

> <PUBCHEM_COMPOUND_CANONICALIZED>
1

> <PUBCHEM_CACTVS_COMPLEXITY>
411

> <PUBCHEM_CACTVS_HBOND_ACCEPTOR>
0

> <PUBCHEM_CACTVS_HBOND_DONOR>
0

> <PUBCHEM_CACTVS_ROTATABLE_BOND>
0

> <PUBCHEM_CACTVS_SUBSKEYS>
AAADccB4AAAAAAAAAAAAAAAAAAAAAAAAAAAwYMGDAAAAAADBVAAAGAAAAAAADACAGAAwAMAAAACAAiBCAAACAAAgAAAIiAAAAIgIICKAERCAIAAggAAIiAcAgMAOwAACAAAQAACAAAQAACAAAAAAAAAAAA==

> <PUBCHEM_IUPAC_INCHI>
InChI=1S/C22H12/c1-3-13-7-9-18-12-16-6-2-4-14-8-10-17-11-15(5-1)19(13)21(18)22(17)20(14)16/h1-12H

> <PUBCHEM_IUPAC_INCHIKEY>
YFIJJNAKSZUOLT-UHFFFAOYSA-N

> <PUBCHEM_XLOGP3>
6.7

> <PUBCHEM_EXACT_MASS>
276.0939

> <PUBCHEM_MOLECULAR_FORMULA>
C22H12

> <PUBCHEM_MOLECULAR_WEIGHT>
276.33068

> <PUBCHEM_OPENEYE_CAN_SMILES>
C1=CC2=C3C(=C1)C=C4C=CC5=C6C4=C3C(=CC6=CC=C5)C=C2

> <PUBCHEM_OPENEYE_ISO_SMILES>
C1=CC2=C3C(=C1)C=C4C=CC5=C6C4=C3C(=CC6=CC=C5)C=C2

> <PUBCHEM_CACTVS_TPSA>
0

> <PUBCHEM_MONOISOTOPIC_WEIGHT>
276.0939

> <PUBCHEM_TOTAL_CHARGE>
0

> <PUBCHEM_HEAVY_ATOM_COUNT>
22

> <PUBCHEM_ATOM_DEF_STEREO_COUNT>
0

> <PUBCHEM_ATOM_UDEF_STEREO_COUNT>
0

> <PUBCHEM_BOND_DEF_STEREO_COUNT>
0

> <PUBCHEM_BOND_UDEF_STEREO_COUNT>
0

> <PUBCHEM_ISOTOPIC_ATOM_COUNT>
0

> <PUBCHEM_COMPONENT_COUNT>
1

> <PUBCHEM_CACTVS_TAUTO_COUNT>
1

> <PUBCHEM_COORDINATE_TYPE>
1
5
255

> <PUBCHEM_BONDANNOTATIONS>
1  2  8
1  3  8
1  6  8
10  16  8
10  19  8
13  15  8
14  16  8
17  22  8
18  21  8
19  21  8
2  4  8
2  5  8
20  22  8
3  10  8
3  8  8
4  7  8
4  9  8
5  12  8
5  13  8
6  11  8
6  14  8
7  11  8
7  17  8
8  12  8
8  18  8
9  15  8
9  20  8

$$$$

