47205014
  -OEChem-06241222573D

 32 33  0     0  0  0  0  0  0999 V2000
   -1.2992    1.6450    0.5944 S   0  0  0  0  0  0  0  0  0  0  0  0
    0.5239   -2.5516    0.8586 O   0  0  0  0  0  0  0  0  0  0  0  0
    0.9976   -1.5087   -1.1624 N   0  0  0  0  0  0  0  0  0  0  0  0
    2.6665    1.1663   -0.8826 N   0  0  0  0  0  0  0  0  0  0  0  0
    2.9739    2.2076   -0.0905 N   0  0  0  0  0  0  0  0  0  0  0  0
   -2.3132   -2.1404    0.3883 C   0  0  0  0  0  0  0  0  0  0  0  0
   -2.2373   -0.8867    1.2707 C   0  0  0  0  0  0  0  0  0  0  0  0
   -1.2678   -2.1945   -0.7278 C   0  0  0  0  0  0  0  0  0  0  0  0
   -2.4751    0.4021    0.5250 C   0  0  0  0  0  0  0  0  0  0  0  0
    0.1652   -2.1088   -0.2292 C   0  0  0  0  0  0  0  0  0  0  0  0
    2.4173   -1.3302   -0.9591 C   0  0  0  0  0  0  0  0  0  0  0  0
    2.7261   -0.0419   -0.2525 C   0  0  0  0  0  0  0  0  0  0  0  0
   -3.5573    0.7571   -0.2500 C   0  0  0  0  0  0  0  0  0  0  0  0
    3.0987    0.2277    1.0417 C   0  0  0  0  0  0  0  0  0  0  0  0
   -3.4192    2.0665   -0.7941 C   0  0  0  0  0  0  0  0  0  0  0  0
   -2.2368    2.6626   -0.4142 C   0  0  0  0  0  0  0  0  0  0  0  0
    3.2369    1.6280    1.0838 C   0  0  0  0  0  0  0  0  0  0  0  0
   -3.3107   -2.2228   -0.0606 H   0  0  0  0  0  0  0  0  0  0  0  0
   -2.1910   -3.0188    1.0346 H   0  0  0  0  0  0  0  0  0  0  0  0
   -1.2805   -0.8606    1.8049 H   0  0  0  0  0  0  0  0  0  0  0  0
   -3.0088   -0.9677    2.0479 H   0  0  0  0  0  0  0  0  0  0  0  0
   -1.3651   -3.1433   -1.2688 H   0  0  0  0  0  0  0  0  0  0  0  0
   -1.4621   -1.3952   -1.4519 H   0  0  0  0  0  0  0  0  0  0  0  0
    2.8052   -2.1760   -0.3807 H   0  0  0  0  0  0  0  0  0  0  0  0
    2.8963   -1.3456   -1.9439 H   0  0  0  0  0  0  0  0  0  0  0  0
    0.6052   -1.1689   -2.0355 H   0  0  0  0  0  0  0  0  0  0  0  0
   -4.4109    0.1135   -0.4205 H   0  0  0  0  0  0  0  0  0  0  0  0
    3.2473   -0.4847    1.8400 H   0  0  0  0  0  0  0  0  0  0  0  0
   -4.1500    2.5471   -1.4314 H   0  0  0  0  0  0  0  0  0  0  0  0
    2.4229    1.3542   -1.8472 H   0  0  0  0  0  0  0  0  0  0  0  0
   -1.8787    3.6470   -0.6808 H   0  0  0  0  0  0  0  0  0  0  0  0
    3.5178    2.2501    1.9214 H   0  0  0  0  0  0  0  0  0  0  0  0
  1  9  1  0  0  0  0
  1 16  1  0  0  0  0
  2 10  2  0  0  0  0
  3 10  1  0  0  0  0
  3 11  1  0  0  0  0
  3 26  1  0  0  0  0
  4  5  1  0  0  0  0
  4 12  1  0  0  0  0
  4 30  1  0  0  0  0
  5 17  2  0  0  0  0
  6  7  1  0  0  0  0
  6  8  1  0  0  0  0
  6 18  1  0  0  0  0
  6 19  1  0  0  0  0
  7  9  1  0  0  0  0
  7 20  1  0  0  0  0
  7 21  1  0  0  0  0
  8 10  1  0  0  0  0
  8 22  1  0  0  0  0
  8 23  1  0  0  0  0
  9 13  2  0  0  0  0
 11 12  1  0  0  0  0
 11 24  1  0  0  0  0
 11 25  1  0  0  0  0
 12 14  2  0  0  0  0
 13 15  1  0  0  0  0
 13 27  1  0  0  0  0
 14 17  1  0  0  0  0
 14 28  1  0  0  0  0
 15 16  2  0  0  0  0
 15 29  1  0  0  0  0
 16 31  1  0  0  0  0
 17 32  1  0  0  0  0
M  END
> <PUBCHEM_COMPOUND_CID>
47205014

> <PUBCHEM_CONFORMER_RMSD>
1

> <PUBCHEM_CONFORMER_DIVERSEORDER>
1
112
90
17
72
138
49
133
150
85
13
93
115
43
52
21
110
137
24
128
25
54
9
50
75
118
81
4
131
99
30
56
47
11
34
82
119
22
102
41
5
69
120
44
70
20
121
57
14
96
73
153
12
141
116
106
130
38
123
40
71
143
19
29
113
140
87
26
15
107
74
6
109
67
122
64
145
151
139
154
88
7
42
103
142
86
95
37
36
58
18
31
61
125
23
27
35
3
134
105
46
135
97
101
83
98
32
80
2
77
62
132
76
146
84
79
152
147
48
129
65
94
92
10
53
51
148
55
89
100
114
91
78
68
39
124
60
104
63
33
59
108
136
117
127
144
16
111
45
28
66
149
126
8

> <PUBCHEM_MMFF94_PARTIAL_CHARGES>
23
1 -0.08
10 0.57
11 0.48
12 -0.33
13 -0.15
14 -0.15
15 -0.15
16 -0.11
17 0.14
2 -0.57
26 0.37
27 0.15
28 0.15
29 0.15
3 -0.73
30 0.27
31 0.15
32 0.15
4 0.3
5 -0.71
7 0.18
8 0.06
9 -0.14

> <PUBCHEM_EFFECTIVE_ROTOR_COUNT>
7

> <PUBCHEM_PHARMACOPHORE_FEATURES>
6
1 2 acceptor
1 3 donor
1 4 donor
1 5 acceptor
5 1 9 13 15 16 rings
5 4 5 12 14 17 rings

> <PUBCHEM_HEAVY_ATOM_COUNT>
17

> <PUBCHEM_ATOM_DEF_STEREO_COUNT>
0

> <PUBCHEM_ATOM_UDEF_STEREO_COUNT>
0

> <PUBCHEM_BOND_DEF_STEREO_COUNT>
0

> <PUBCHEM_BOND_UDEF_STEREO_COUNT>
0

> <PUBCHEM_ISOTOPIC_ATOM_COUNT>
0

> <PUBCHEM_COMPONENT_COUNT>
1

> <PUBCHEM_CACTVS_TAUTO_COUNT>
4

> <PUBCHEM_CONFORMER_ID>
02D04A9600000001

> <PUBCHEM_MMFF94_ENERGY>
10.3987

> <PUBCHEM_FEATURE_SELFOVERLAP>
30.446

> <PUBCHEM_SHAPE_FINGERPRINT>
10498660 4 18265328413339174308
10759866 29 18200872881962474200
10871710 139 17617091408867646164
11140007 195 13757233097818720985
11221954 11 18409164407039404438
11370993 70 18339372962343563389
11615756 56 18337953505658548829
12077114 3 18411704292027191906
13294875 104 18055353793199285786
14250199 8 17970343939321736671
14251745 187 18261969431286485009
14251757 17 17830968621688879516
14251764 3 17487358159479924453
14386348 128 18261936493008147120
14957384 54 18129958839682608944
18219364 16 18194098932040312865
18981168 100 18407760347923624094
192875 21 17761227895881196067
21524375 3 18335698368587190078
22749437 52 18409171038384844561
238 59 18118698839960721005
2748010 2 18336529578050366063
3187 122 17986949653283359441
3524813 1 18338509854226254189
43658 37 18266750249889283605
5262128 65 17244696016164804303
526903 126 18408609166990181125
539174 4 16414655871920349209
8050 44 18335699468293502931
9925002 15 15439892265057805926

> <PUBCHEM_SHAPE_MULTIPOLES>
332.89
6.52
3.41
1.17
1.24
0.4
-0.1
-3.87
-0.03
-0.82
0.23
0.23
0.11
1.05

> <PUBCHEM_SHAPE_SELFOVERLAP>
676.07

> <PUBCHEM_SHAPE_VOLUME>
194.7

> <PUBCHEM_COORDINATE_TYPE>
2
5
10

$$$$

