5281578
  -OEChem-07051212582D

 82 85  0     1  0  0  0  0  0999 V2000
    2.8660    0.8100    0.0000 O   0  0  0  0  0  0  0  0  0  0  0  0
    3.7226    0.2933    0.0000 O   0  0  0  0  0  0  0  0  0  0  0  0
    3.7118   -2.6532    0.0000 O   0  0  0  0  0  0  0  0  0  0  0  0
    6.7909    0.1967    0.0000 O   0  0  0  0  0  0  0  0  0  0  0  0
    5.4641   -0.6900    0.0000 N   0  0  0  0  0  0  0  0  0  0  0  0
    5.4641    1.3100    0.0000 N   0  0  0  0  0  0  0  0  0  0  0  0
    6.7497    2.8421    0.0000 N   0  0  0  0  0  0  0  0  0  0  0  0
    4.5981   -3.1900    0.0000 N   0  0  0  0  0  0  0  0  0  0  0  0
    6.3301   -2.1900    0.0000 C   0  0  2  0  0  0  0  0  0  0  0  0
    5.4641   -1.6900    0.0000 C   0  0  1  0  0  0  0  0  0  0  0  0
    4.5981    0.8100    0.0000 C   0  0  1  0  0  0  0  0  0  0  0  0
    3.7320    1.3100    0.0000 C   0  0  1  0  0  0  0  0  0  0  0  0
    7.1962   -1.6900    0.0000 C   0  0  0  0  0  0  0  0  0  0  0  0
    4.5981   -0.1900    0.0000 C   0  0  0  0  0  0  0  0  0  0  0  0
    7.0917    1.9024    0.0000 C   0  0  2  0  0  0  0  0  0  0  0  0
    6.3301   -3.1900    0.0000 C   0  0  0  0  0  0  0  0  0  0  0  0
    4.5981   -2.1900    0.0000 C   0  0  0  0  0  0  0  0  0  0  0  0
    6.4489    1.1364    0.0000 C   0  0  0  0  0  0  0  0  0  0  0  0
    3.7320    2.3100    0.0000 C   0  0  0  0  0  0  0  0  0  0  0  0
    8.0765    1.7288    0.0000 C   0  0  0  0  0  0  0  0  0  0  0  0
    8.0622   -2.1900    0.0000 C   0  0  0  0  0  0  0  0  0  0  0  0
    8.7193    2.4948    0.0000 C   0  0  0  0  0  0  0  0  0  0  0  0
    4.5981    2.8100    0.0000 C   0  0  0  0  0  0  0  0  0  0  0  0
    2.8660    2.8100    0.0000 C   0  0  0  0  0  0  0  0  0  0  0  0
    2.8660   -0.1900    0.0000 C   0  0  0  0  0  0  0  0  0  0  0  0
    7.3925    3.6081    0.0000 C   0  0  0  0  0  0  0  0  0  0  0  0
    5.7649    3.0157    0.0000 C   0  0  0  0  0  0  0  0  0  0  0  0
    4.5981    3.8100    0.0000 C   0  0  0  0  0  0  0  0  0  0  0  0
    2.8660    3.8100    0.0000 C   0  0  0  0  0  0  0  0  0  0  0  0
    3.7320   -3.6900    0.0000 C   0  0  0  0  0  0  0  0  0  0  0  0
    9.7041    2.3212    0.0000 C   0  0  0  0  0  0  0  0  0  0  0  0
    8.3773    3.4345    0.0000 C   0  0  0  0  0  0  0  0  0  0  0  0
    3.7320   -0.6900    0.0000 C   0  0  0  0  0  0  0  0  0  0  0  0
    2.0000   -0.6900    0.0000 C   0  0  0  0  0  0  0  0  0  0  0  0
    3.7320    4.3100    0.0000 C   0  0  0  0  0  0  0  0  0  0  0  0
    2.8660   -2.1900    0.0000 C   0  0  0  0  0  0  0  0  0  0  0  0
    2.8660   -3.1900    0.0000 C   0  0  0  0  0  0  0  0  0  0  0  0
    3.7320   -1.6900    0.0000 C   0  0  0  0  0  0  0  0  0  0  0  0
    2.0000   -1.6900    0.0000 C   0  0  0  0  0  0  0  0  0  0  0  0
   10.3469    3.0872    0.0000 C   0  0  0  0  0  0  0  0  0  0  0  0
    9.0201    4.2005    0.0000 C   0  0  0  0  0  0  0  0  0  0  0  0
   10.0049    4.0269    0.0000 C   0  0  0  0  0  0  0  0  0  0  0  0
    6.8671   -2.5000    0.0000 H   0  0  0  0  0  0  0  0  0  0  0  0
    6.2002   -1.2650    0.0000 H   0  0  0  0  0  0  0  0  0  0  0  0
    5.1350    0.5000    0.0000 H   0  0  0  0  0  0  0  0  0  0  0  0
    4.2690    1.6200    0.0000 H   0  0  0  0  0  0  0  0  0  0  0  0
    7.5947   -1.2150    0.0000 H   0  0  0  0  0  0  0  0  0  0  0  0
    6.7976   -1.2150    0.0000 H   0  0  0  0  0  0  0  0  0  0  0  0
    6.0747   -0.5823    0.0000 H   0  0  0  0  0  0  0  0  0  0  0  0
    7.4902    2.3774    0.0000 H   0  0  0  0  0  0  0  0  0  0  0  0
    5.7101   -3.1900    0.0000 H   0  0  0  0  0  0  0  0  0  0  0  0
    6.3301   -3.8100    0.0000 H   0  0  0  0  0  0  0  0  0  0  0  0
    6.9501   -3.1900    0.0000 H   0  0  0  0  0  0  0  0  0  0  0  0
    5.4641    1.9300    0.0000 H   0  0  0  0  0  0  0  0  0  0  0  0
    7.8645    1.1461    0.0000 H   0  0  0  0  0  0  0  0  0  0  0  0
    8.6134    1.4188    0.0000 H   0  0  0  0  0  0  0  0  0  0  0  0
    7.7522   -2.7269    0.0000 H   0  0  0  0  0  0  0  0  0  0  0  0
    8.5991   -2.5000    0.0000 H   0  0  0  0  0  0  0  0  0  0  0  0
    8.3722   -1.6530    0.0000 H   0  0  0  0  0  0  0  0  0  0  0  0
    5.1350   -3.5000    0.0000 H   0  0  0  0  0  0  0  0  0  0  0  0
    5.1350    2.5000    0.0000 H   0  0  0  0  0  0  0  0  0  0  0  0
    2.3291    2.5000    0.0000 H   0  0  0  0  0  0  0  0  0  0  0  0
    7.8674    3.2096    0.0000 H   0  0  0  0  0  0  0  0  0  0  0  0
    7.7910    4.0831    0.0000 H   0  0  0  0  0  0  0  0  0  0  0  0
    6.9175    4.0067    0.0000 H   0  0  0  0  0  0  0  0  0  0  0  0
    5.8725    3.6263    0.0000 H   0  0  0  0  0  0  0  0  0  0  0  0
    5.1543    3.1234    0.0000 H   0  0  0  0  0  0  0  0  0  0  0  0
    5.6572    2.4052    0.0000 H   0  0  0  0  0  0  0  0  0  0  0  0
    5.1350    4.1200    0.0000 H   0  0  0  0  0  0  0  0  0  0  0  0
    2.3291    4.1200    0.0000 H   0  0  0  0  0  0  0  0  0  0  0  0
    3.7320   -4.3100    0.0000 H   0  0  0  0  0  0  0  0  0  0  0  0
    9.9162    1.7385    0.0000 H   0  0  0  0  0  0  0  0  0  0  0  0
    7.7667    3.5422    0.0000 H   0  0  0  0  0  0  0  0  0  0  0  0
    4.2690   -0.3800    0.0000 H   0  0  0  0  0  0  0  0  0  0  0  0
    1.4631   -0.3800    0.0000 H   0  0  0  0  0  0  0  0  0  0  0  0
    3.7320    4.9300    0.0000 H   0  0  0  0  0  0  0  0  0  0  0  0
    2.3291   -3.5000    0.0000 H   0  0  0  0  0  0  0  0  0  0  0  0
    4.2690   -2.0000    0.0000 H   0  0  0  0  0  0  0  0  0  0  0  0
    1.4631   -2.0000    0.0000 H   0  0  0  0  0  0  0  0  0  0  0  0
   10.9575    2.9795    0.0000 H   0  0  0  0  0  0  0  0  0  0  0  0
    8.8080    4.7831    0.0000 H   0  0  0  0  0  0  0  0  0  0  0  0
   10.4034    4.5018    0.0000 H   0  0  0  0  0  0  0  0  0  0  0  0
  1 12  1  0  0  0  0
  1 25  1  0  0  0  0
  2 14  2  0  0  0  0
  3 17  2  0  0  0  0
  4 18  2  0  0  0  0
  5 10  1  0  0  0  0
  5 14  1  0  0  0  0
  5 49  1  0  0  0  0
 11  6  1  6  0  0  0
  6 18  1  0  0  0  0
  6 54  1  0  0  0  0
 15  7  1  1  0  0  0
  7 26  1  0  0  0  0
  7 27  1  0  0  0  0
  8 17  1  0  0  0  0
  8 30  1  0  0  0  0
  8 60  1  0  0  0  0
  9 10  1  0  0  0  0
  9 13  1  0  0  0  0
  9 16  1  6  0  0  0
  9 43  1  0  0  0  0
 10 17  1  0  0  0  0
 10 44  1  6  0  0  0
 11 12  1  0  0  0  0
 11 14  1  0  0  0  0
 11 45  1  0  0  0  0
 12 19  1  6  0  0  0
 12 46  1  0  0  0  0
 13 21  1  0  0  0  0
 13 47  1  0  0  0  0
 13 48  1  0  0  0  0
 15 18  1  0  0  0  0
 15 20  1  0  0  0  0
 15 50  1  0  0  0  0
 16 51  1  0  0  0  0
 16 52  1  0  0  0  0
 16 53  1  0  0  0  0
 19 23  2  0  0  0  0
 19 24  1  0  0  0  0
 20 22  1  0  0  0  0
 20 55  1  0  0  0  0
 20 56  1  0  0  0  0
 21 57  1  0  0  0  0
 21 58  1  0  0  0  0
 21 59  1  0  0  0  0
 22 31  2  0  0  0  0
 22 32  1  0  0  0  0
 23 28  1  0  0  0  0
 23 61  1  0  0  0  0
 24 29  2  0  0  0  0
 24 62  1  0  0  0  0
 25 33  2  0  0  0  0
 25 34  1  0  0  0  0
 26 63  1  0  0  0  0
 26 64  1  0  0  0  0
 26 65  1  0  0  0  0
 27 66  1  0  0  0  0
 27 67  1  0  0  0  0
 27 68  1  0  0  0  0
 28 35  2  0  0  0  0
 28 69  1  0  0  0  0
 29 35  1  0  0  0  0
 29 70  1  0  0  0  0
 30 37  2  0  0  0  0
 30 71  1  0  0  0  0
 31 40  1  0  0  0  0
 31 72  1  0  0  0  0
 32 41  2  0  0  0  0
 32 73  1  0  0  0  0
 33 38  1  0  0  0  0
 33 74  1  0  0  0  0
 34 39  2  0  0  0  0
 34 75  1  0  0  0  0
 35 76  1  0  0  0  0
 36 37  1  0  0  0  0
 36 38  2  0  0  0  0
 36 39  1  0  0  0  0
 37 77  1  0  0  0  0
 38 78  1  0  0  0  0
 39 79  1  0  0  0  0
 40 42  2  0  0  0  0
 40 80  1  0  0  0  0
 41 42  1  0  0  0  0
 41 81  1  0  0  0  0
 42 82  1  0  0  0  0
M  END
> <PUBCHEM_COMPOUND_CID>
5281578

> <PUBCHEM_COMPOUND_CANONICALIZED>
1

> <PUBCHEM_CACTVS_COMPLEXITY>
903

> <PUBCHEM_CACTVS_HBOND_ACCEPTOR>
5

> <PUBCHEM_CACTVS_HBOND_DONOR>
3

> <PUBCHEM_CACTVS_ROTATABLE_BOND>
8

> <PUBCHEM_CACTVS_SUBSKEYS>
AAADcfB/uAAAAAAAAAAAAAAAAAAAAAAAAAAwYMAAAAAAAAABUAAAHgAQAAAADTzhmAYyBoPABACIAiFWUAACCAAgIgAIiIGOCIgOZjaEsTuXOCCm9hGYqAeYyKCOIAAAAAAAAABAAAAAAAAAAAAAAAAAAA==

> <PUBCHEM_IUPAC_OPENEYE_NAME>
(2S)-2-(dimethylamino)-N-[(2Z,6S,9S,10R)-6-[(1S)-1-methylpropyl]-5,8-dioxo-10-phenyl-11-oxa-4,7-diazabicyclo[10.2.2]hexadeca-1(14),2,12,15-tetraen-9-yl]-3-phenyl-propanamide

> <PUBCHEM_IUPAC_CAS_NAME>
(2S)-N-[(2Z,6S,9S,10R)-6-[(2S)-butan-2-yl]-5,8-dioxo-10-phenyl-11-oxa-4,7-diazabicyclo[10.2.2]hexadeca-1(14),2,12,15-tetraen-9-yl]-2-(dimethylamino)-3-phenylpropanamide

> <PUBCHEM_IUPAC_NAME>
(2S)-N-[(2Z,6S,9S,10R)-6-[(2S)-butan-2-yl]-5,8-dioxo-10-phenyl-11-oxa-4,7-diazabicyclo[10.2.2]hexadeca-1(14),2,12,15-tetraen-9-yl]-2-(dimethylamino)-3-phenylpropanamide

> <PUBCHEM_IUPAC_SYSTEMATIC_NAME>
(2S)-N-[(2Z,6S,9S,10R)-6-[(2S)-butan-2-yl]-5,8-bis(oxidanylidene)-10-phenyl-11-oxa-4,7-diazabicyclo[10.2.2]hexadeca-1(14),2,12,15-tetraen-9-yl]-2-(dimethylamino)-3-phenyl-propanamide

> <PUBCHEM_IUPAC_TRADITIONAL_NAME>
(2S)-N-[(2Z,6S,9S,10R)-5,8-diketo-6-[(1S)-1-methylpropyl]-10-phenyl-11-oxa-4,7-diazabicyclo[10.2.2]hexadeca-1(14),2,12,15-tetraen-9-yl]-2-(dimethylamino)-3-phenyl-propionamide

> <PUBCHEM_IUPAC_INCHI>
InChI=1S/C34H40N4O4/c1-5-23(2)29-33(40)35-21-20-24-16-18-27(19-17-24)42-31(26-14-10-7-11-15-26)30(34(41)36-29)37-32(39)28(38(3)4)22-25-12-8-6-9-13-25/h6-21,23,28-31H,5,22H2,1-4H3,(H,35,40)(H,36,41)(H,37,39)/b21-20-/t23-,28-,29-,30-,31+/m0/s1

> <PUBCHEM_IUPAC_INCHIKEY>
GVFKEVFAPIUOAI-ONQAJXPKSA-N

> <PUBCHEM_XLOGP3_AA>
5.4

> <PUBCHEM_EXACT_MASS>
568.304956

> <PUBCHEM_MOLECULAR_FORMULA>
C34H40N4O4

> <PUBCHEM_MOLECULAR_WEIGHT>
568.7058

> <PUBCHEM_OPENEYE_CAN_SMILES>
CCC(C)C1C(=O)NC=CC2=CC=C(C=C2)OC(C(C(=O)N1)NC(=O)C(CC3=CC=CC=C3)N(C)C)C4=CC=CC=C4

> <PUBCHEM_OPENEYE_ISO_SMILES>
CC[C@H](C)[C@H]1C(=O)N/C=C\C2=CC=C(C=C2)O[C@@H]([C@@H](C(=O)N1)NC(=O)[C@H](CC3=CC=CC=C3)N(C)C)C4=CC=CC=C4

> <PUBCHEM_CACTVS_TPSA>
99.8

> <PUBCHEM_MONOISOTOPIC_WEIGHT>
568.304956

> <PUBCHEM_TOTAL_CHARGE>
0

> <PUBCHEM_HEAVY_ATOM_COUNT>
42

> <PUBCHEM_ATOM_DEF_STEREO_COUNT>
5

> <PUBCHEM_ATOM_UDEF_STEREO_COUNT>
0

> <PUBCHEM_BOND_DEF_STEREO_COUNT>
1

> <PUBCHEM_BOND_UDEF_STEREO_COUNT>
0

> <PUBCHEM_ISOTOPIC_ATOM_COUNT>
0

> <PUBCHEM_COMPONENT_COUNT>
1

> <PUBCHEM_CACTVS_TAUTO_COUNT>
18

> <PUBCHEM_COORDINATE_TYPE>
1
5
255

> <PUBCHEM_BONDANNOTATIONS>
10  44  6
12  19  6
19  23  8
19  24  8
22  31  8
22  32  8
23  28  8
24  29  8
25  33  8
25  34  8
28  35  8
29  35  8
31  40  8
32  41  8
33  38  8
34  39  8
36  38  8
36  39  8
40  42  8
41  42  8
11  6  6
15  7  5
9  16  6

$$$$

