102551
  -OEChem-07051213023D

 24 24  0     1  0  0  0  0  0999 V2000
    3.0286    1.6184    0.4407 O   0  0  0  0  0  0  0  0  0  0  0  0
   -3.7878    0.7990   -0.1373 N   0  0  0  0  0  0  0  0  0  0  0  0
   -2.4543    0.4084    0.3302 C   0  0  2  0  0  0  0  0  0  0  0  0
   -1.4946    0.3141   -0.8709 C   0  0  0  0  0  0  0  0  0  0  0  0
   -0.0846   -0.0423   -0.4915 C   0  0  0  0  0  0  0  0  0  0  0  0
   -2.5797   -0.9124    1.0896 C   0  0  0  0  0  0  0  0  0  0  0  0
    0.8232    0.9674   -0.1990 C   0  0  0  0  0  0  0  0  0  0  0  0
    0.2939   -1.3778   -0.4381 C   0  0  0  0  0  0  0  0  0  0  0  0
    2.1317    0.6362    0.1530 C   0  0  0  0  0  0  0  0  0  0  0  0
    1.6023   -1.7090   -0.0861 C   0  0  0  0  0  0  0  0  0  0  0  0
    2.5212   -0.7019    0.2094 C   0  0  0  0  0  0  0  0  0  0  0  0
   -2.0950    1.1769    1.0256 H   0  0  0  0  0  0  0  0  0  0  0  0
   -1.4850    1.2701   -1.4130 H   0  0  0  0  0  0  0  0  0  0  0  0
   -1.8689   -0.4215   -1.5968 H   0  0  0  0  0  0  0  0  0  0  0  0
   -1.6448   -1.1751    1.5939 H   0  0  0  0  0  0  0  0  0  0  0  0
   -2.8589   -1.7365    0.4237 H   0  0  0  0  0  0  0  0  0  0  0  0
   -3.3446   -0.8423    1.8721 H   0  0  0  0  0  0  0  0  0  0  0  0
    0.5169    2.0096   -0.2415 H   0  0  0  0  0  0  0  0  0  0  0  0
   -0.4107   -2.1713   -0.6705 H   0  0  0  0  0  0  0  0  0  0  0  0
   -3.7351    1.7041   -0.6030 H   0  0  0  0  0  0  0  0  0  0  0  0
   -4.4090    0.9234    0.6612 H   0  0  0  0  0  0  0  0  0  0  0  0
    1.9060   -2.7509   -0.0432 H   0  0  0  0  0  0  0  0  0  0  0  0
    3.5392   -0.9662    0.4826 H   0  0  0  0  0  0  0  0  0  0  0  0
    2.5900    2.4820    0.3520 H   0  0  0  0  0  0  0  0  0  0  0  0
  1  9  1  0  0  0  0
  1 24  1  0  0  0  0
  2  3  1  0  0  0  0
  2 20  1  0  0  0  0
  2 21  1  0  0  0  0
  3  4  1  0  0  0  0
  3  6  1  0  0  0  0
  3 12  1  0  0  0  0
  4  5  1  0  0  0  0
  4 13  1  0  0  0  0
  4 14  1  0  0  0  0
  5  7  2  0  0  0  0
  5  8  1  0  0  0  0
  6 15  1  0  0  0  0
  6 16  1  0  0  0  0
  6 17  1  0  0  0  0
  7  9  1  0  0  0  0
  7 18  1  0  0  0  0
  8 10  2  0  0  0  0
  8 19  1  0  0  0  0
  9 11  2  0  0  0  0
 10 11  1  0  0  0  0
 10 22  1  0  0  0  0
 11 23  1  0  0  0  0
M  END
> <PUBCHEM_COMPOUND_CID>
102551

> <PUBCHEM_CONFORMER_RMSD>
0.4

> <PUBCHEM_CONFORMER_DIVERSEORDER>
3
21
9
15
12
18
1
14
20
4
17
16
7
10
5
13
19
8
2
11
6

> <PUBCHEM_MMFF94_PARTIAL_CHARGES>
17
1 -0.53
10 -0.15
11 -0.15
18 0.15
19 0.15
2 -0.99
20 0.36
21 0.36
22 0.15
23 0.15
24 0.45
3 0.27
4 0.14
5 -0.14
7 -0.15
8 -0.15
9 0.08

> <PUBCHEM_EFFECTIVE_ROTOR_COUNT>
2

> <PUBCHEM_PHARMACOPHORE_FEATURES>
4
1 1 donor
1 2 cation
1 2 donor
6 5 7 8 9 10 11 rings

> <PUBCHEM_HEAVY_ATOM_COUNT>
11

> <PUBCHEM_ATOM_DEF_STEREO_COUNT>
0

> <PUBCHEM_ATOM_UDEF_STEREO_COUNT>
1

> <PUBCHEM_BOND_DEF_STEREO_COUNT>
0

> <PUBCHEM_BOND_UDEF_STEREO_COUNT>
0

> <PUBCHEM_ISOTOPIC_ATOM_COUNT>
0

> <PUBCHEM_COMPONENT_COUNT>
1

> <PUBCHEM_CACTVS_TAUTO_COUNT>
9

> <PUBCHEM_CONFORMER_ID>
0001909700000003

> <PUBCHEM_MMFF94_ENERGY>
16.9961

> <PUBCHEM_FEATURE_SELFOVERLAP>
20.297

> <PUBCHEM_SHAPE_FINGERPRINT>
10219947 1 18411419522483537061
10608611 8 18341617057228486765
10857977 72 17775282746686527135
11471102 22 18411410739301823154
12932764 1 18336254700317300527
14325111 11 18408887312971553101
15219456 202 18343016696643480563
15775835 57 17895196575744182769
16945 1 18335991968614922806
18175812 5 18273494576287361335
20201158 50 18270679891213977883
20279233 1 18060138751907230483
20653085 51 15358248256901810384
20715346 28 18271800224864134855
20871998 22 17755862266369363782
21040471 1 18265340508415225790
2748010 2 18413389847404920910
29004967 10 18341893042983473590
3248919 1 17775282742565561877

> <PUBCHEM_SHAPE_MULTIPOLES>
215.52
5.05
1.56
0.86
2.66
0.22
0.03
-1.19
1.02
-0.9
0.08
0.32
0.08
0.5

> <PUBCHEM_SHAPE_SELFOVERLAP>
438.082

> <PUBCHEM_SHAPE_VOLUME>
126

> <PUBCHEM_COORDINATE_TYPE>
2
5
10

$$$$

