74536
  -OEChem-07051213053D

 36 39  0     0  0  0  0  0  0999 V2000
    0.9575    3.1190   -0.0212 O   0  0  0  0  0  0  0  0  0  0  0  0
    0.5379   -0.3337    0.0041 C   0  0  0  0  0  0  0  0  0  0  0  0
    1.9965   -0.1758    0.0108 C   0  0  0  0  0  0  0  0  0  0  0  0
   -0.0255    0.8982    0.0003 C   0  0  0  0  0  0  0  0  0  0  0  0
    2.3220    1.1722   -0.0024 C   0  0  0  0  0  0  0  0  0  0  0  0
    1.0709    1.9106   -0.0132 C   0  0  0  0  0  0  0  0  0  0  0  0
   -0.2201   -1.5935    0.0001 C   0  0  0  0  0  0  0  0  0  0  0  0
   -1.4452    1.2582    0.0019 C   0  0  0  0  0  0  0  0  0  0  0  0
    3.0083   -1.1231    0.0132 C   0  0  0  0  0  0  0  0  0  0  0  0
    3.6209    1.6430   -0.0059 C   0  0  0  0  0  0  0  0  0  0  0  0
    4.3368   -0.6809    0.0106 C   0  0  0  0  0  0  0  0  0  0  0  0
    4.6401    0.6918    0.0018 C   0  0  0  0  0  0  0  0  0  0  0  0
   -0.5866   -2.1936    1.2063 C   0  0  0  0  0  0  0  0  0  0  0  0
   -0.5761   -2.1927   -1.2095 C   0  0  0  0  0  0  0  0  0  0  0  0
   -2.1259    1.4364    1.2109 C   0  0  0  0  0  0  0  0  0  0  0  0
   -2.1312    1.4272   -1.2050 C   0  0  0  0  0  0  0  0  0  0  0  0
   -1.3063   -3.3886    1.2027 C   0  0  0  0  0  0  0  0  0  0  0  0
   -1.2958   -3.3874   -1.2132 C   0  0  0  0  0  0  0  0  0  0  0  0
   -3.4778    1.7799    1.2127 C   0  0  0  0  0  0  0  0  0  0  0  0
   -3.4831    1.7708   -1.2034 C   0  0  0  0  0  0  0  0  0  0  0  0
   -1.6609   -3.9854   -0.0069 C   0  0  0  0  0  0  0  0  0  0  0  0
   -4.1564    1.9471    0.0056 C   0  0  0  0  0  0  0  0  0  0  0  0
    2.7898   -2.1859    0.0182 H   0  0  0  0  0  0  0  0  0  0  0  0
    3.8465    2.7028   -0.0155 H   0  0  0  0  0  0  0  0  0  0  0  0
    5.1450   -1.4076    0.0144 H   0  0  0  0  0  0  0  0  0  0  0  0
   -0.3179   -1.7407    2.1577 H   0  0  0  0  0  0  0  0  0  0  0  0
   -0.2992   -1.7390   -2.1582 H   0  0  0  0  0  0  0  0  0  0  0  0
    5.6786    1.0118   -0.0008 H   0  0  0  0  0  0  0  0  0  0  0  0
   -1.6112    1.3098    2.1606 H   0  0  0  0  0  0  0  0  0  0  0  0
   -1.6209    1.2935   -2.1561 H   0  0  0  0  0  0  0  0  0  0  0  0
   -1.5907   -3.8540    2.1419 H   0  0  0  0  0  0  0  0  0  0  0  0
   -1.5723   -3.8522   -2.1551 H   0  0  0  0  0  0  0  0  0  0  0  0
   -4.0022    1.9171    2.1539 H   0  0  0  0  0  0  0  0  0  0  0  0
   -4.0117    1.9009   -2.1432 H   0  0  0  0  0  0  0  0  0  0  0  0
   -2.2214   -4.9156   -0.0098 H   0  0  0  0  0  0  0  0  0  0  0  0
   -5.2090    2.2145    0.0069 H   0  0  0  0  0  0  0  0  0  0  0  0
  1  6  2  0  0  0  0
  2  3  1  0  0  0  0
  2  4  2  0  0  0  0
  2  7  1  0  0  0  0
  3  5  1  0  0  0  0
  3  9  2  0  0  0  0
  4  6  1  0  0  0  0
  4  8  1  0  0  0  0
  5  6  1  0  0  0  0
  5 10  2  0  0  0  0
  7 13  2  0  0  0  0
  7 14  1  0  0  0  0
  8 15  2  0  0  0  0
  8 16  1  0  0  0  0
  9 11  1  0  0  0  0
  9 23  1  0  0  0  0
 10 12  1  0  0  0  0
 10 24  1  0  0  0  0
 11 12  2  0  0  0  0
 11 25  1  0  0  0  0
 12 28  1  0  0  0  0
 13 17  1  0  0  0  0
 13 26  1  0  0  0  0
 14 18  2  0  0  0  0
 14 27  1  0  0  0  0
 15 19  1  0  0  0  0
 15 29  1  0  0  0  0
 16 20  2  0  0  0  0
 16 30  1  0  0  0  0
 17 21  2  0  0  0  0
 17 31  1  0  0  0  0
 18 21  1  0  0  0  0
 18 32  1  0  0  0  0
 19 22  2  0  0  0  0
 19 33  1  0  0  0  0
 20 22  1  0  0  0  0
 20 34  1  0  0  0  0
 21 35  1  0  0  0  0
 22 36  1  0  0  0  0
M  END
> <PUBCHEM_COMPOUND_CID>
74536

> <PUBCHEM_CONFORMER_RMSD>
0.6

> <PUBCHEM_CONFORMER_DIVERSEORDER>
1
2

> <PUBCHEM_MMFF94_PARTIAL_CHARGES>
36
1 -0.57
10 -0.15
11 -0.15
12 -0.15
13 -0.15
14 -0.15
15 -0.15
16 -0.15
17 -0.15
18 -0.15
19 -0.15
2 -0.06
20 -0.15
21 -0.15
22 -0.15
23 0.15
24 0.15
25 0.15
26 0.15
27 0.15
28 0.15
29 0.15
3 0.03
30 0.15
31 0.15
32 0.15
33 0.15
34 0.15
35 0.15
36 0.15
4 -0.01
5 0.09
6 0.47
7 0.03
8 0.03
9 -0.15

> <PUBCHEM_EFFECTIVE_ROTOR_COUNT>
2

> <PUBCHEM_PHARMACOPHORE_FEATURES>
5
1 1 acceptor
5 2 3 4 5 6 rings
6 3 5 9 10 11 12 rings
6 7 13 14 17 18 21 rings
6 8 15 16 19 20 22 rings

> <PUBCHEM_HEAVY_ATOM_COUNT>
22

> <PUBCHEM_ATOM_DEF_STEREO_COUNT>
0

> <PUBCHEM_ATOM_UDEF_STEREO_COUNT>
0

> <PUBCHEM_BOND_DEF_STEREO_COUNT>
0

> <PUBCHEM_BOND_UDEF_STEREO_COUNT>
0

> <PUBCHEM_ISOTOPIC_ATOM_COUNT>
0

> <PUBCHEM_COMPONENT_COUNT>
1

> <PUBCHEM_CACTVS_TAUTO_COUNT>
1

> <PUBCHEM_CONFORMER_ID>
0001232800000001

> <PUBCHEM_MMFF94_ENERGY>
73.8672

> <PUBCHEM_FEATURE_SELFOVERLAP>
25.457

> <PUBCHEM_SHAPE_FINGERPRINT>
10382601 240 17684354432397703265
104564 63 18049995597921277966
10906281 52 18115014316894054404
1100329 8 18339932605699258898
11421498 54 17459467947999159377
11578080 2 17025726849390128635
116883 192 18122066407573842046
12236239 1 17677056866371550977
12553582 1 17761204415564403950
12643181 29 18336253657621995134
12715332 25 18338239370487442482
12730499 353 18056200413443307613
12788726 201 18194979451744459147
12969540 114 18271815682335564508
13004483 165 17976824181556984275
13052359 8 18412268319737998483
13140716 1 18195241337506772835
13583140 156 16702314459350711336
13681431 1 17257383362452717179
13911987 19 18270398416147908876
14178342 30 18265910055602353624
14790565 3 18265606770381442864
14866123 147 18413111653979130906
15309172 13 18339641256044459057
16728300 4 16910897501866371642
17138139 8 17754777942119928423
19591789 44 18339924938560389863
20028762 73 18116443728696056895
20197701 30 18339085985724229811
20602899 9 16008750208256296198
20739085 24 17980174685703089720
20775438 99 15807546993746305071
21033648 29 18269570466976541900
21041028 32 17907571424469891155
21197605 99 18338218381578886179
21524375 3 18411981407464313003
21641784 216 17625531298909198700
22182313 1 17968918818087127342
23419403 2 4676530382575276639
23558518 356 17913492337772462912
238 59 17696230188748665365
25147074 1 18129101131067593772
266924 87 17691128136784029580
2748010 2 18267000912185069626
283562 15 17690844458768566784
3060560 45 18268999867258189389
3383291 50 17906732854192919042
34934 24 18341898498293631136
350125 39 17906165149441227280
352729 6 18261383447460332820
38695281 34 18192156116695878269
404807 14 14496631698466962846
4340502 62 18264754632327721121
474 4 18190458461973413361
5104073 3 18338529522042286704
6138700 20 17760926642934340422
633830 44 17970622111231713581
6438718 38 18188207602536201798
6669772 16 18265612272387367902
7164475 11 18123469367499852076
81228 2 18054519001795837609
8272917 22 17976538635441802813
9981440 41 16667162909238614608

> <PUBCHEM_SHAPE_MULTIPOLES>
446.88
6.76
4.51
1.15
4.16
4.62
0
-4.65
-0.02
-3.38
0.01
-1
0.33
-0.02

> <PUBCHEM_SHAPE_SELFOVERLAP>
1011.352

> <PUBCHEM_SHAPE_VOLUME>
235.4

> <PUBCHEM_COORDINATE_TYPE>
2
5
10

$$$$

