17212
  -OEChem-07051213132D

 37 37  0     0  0  0  0  0  0999 V2000
    3.5000    0.5000    0.0000 O   0  0  0  0  0  0  0  0  0  0  0  0
    6.9641   -2.5000    0.0000 O   0  5  0  0  0  0  0  0  0  0  0  0
    7.8301   -1.0000    0.0000 O   0  0  0  0  0  0  0  0  0  0  0  0
    3.5000   -2.5000    0.0000 O   0  5  0  0  0  0  0  0  0  0  0  0
    2.6340   -1.0000    0.0000 O   0  0  0  0  0  0  0  0  0  0  0  0
    3.5000    2.2320    0.0000 O   0  0  0  0  0  0  0  0  0  0  0  0
    6.9641   -1.5000    0.0000 N   0  3  0  0  0  0  0  0  0  0  0  0
    3.5000   -1.5000    0.0000 N   0  3  0  0  0  0  0  0  0  0  0  0
    5.2320    1.5000    0.0000 C   0  0  0  0  0  0  0  0  0  0  0  0
    5.2320    0.5000    0.0000 C   0  0  0  0  0  0  0  0  0  0  0  0
    5.2320    2.5000    0.0000 C   0  0  0  0  0  0  0  0  0  0  0  0
    6.2320    1.5000    0.0000 C   0  0  0  0  0  0  0  0  0  0  0  0
    4.3661    2.0001    0.0000 C   0  0  0  0  0  0  0  0  0  0  0  0
    6.0981    0.0000    0.0000 C   0  0  0  0  0  0  0  0  0  0  0  0
    4.3660    0.0000    0.0000 C   0  0  0  0  0  0  0  0  0  0  0  0
    6.0981   -1.0000    0.0000 C   0  0  0  0  0  0  0  0  0  0  0  0
    4.3660   -1.0000    0.0000 C   0  0  0  0  0  0  0  0  0  0  0  0
    6.9641    0.5000    0.0000 C   0  0  0  0  0  0  0  0  0  0  0  0
    5.2320   -1.5000    0.0000 C   0  0  0  0  0  0  0  0  0  0  0  0
    3.0000    1.3660    0.0000 C   0  0  0  0  0  0  0  0  0  0  0  0
    2.0000    1.3660    0.0000 C   0  0  0  0  0  0  0  0  0  0  0  0
    5.8520    2.5000    0.0000 H   0  0  0  0  0  0  0  0  0  0  0  0
    5.2320    3.1200    0.0000 H   0  0  0  0  0  0  0  0  0  0  0  0
    4.6120    2.5000    0.0000 H   0  0  0  0  0  0  0  0  0  0  0  0
    6.2320    0.8800    0.0000 H   0  0  0  0  0  0  0  0  0  0  0  0
    6.8520    1.5000    0.0000 H   0  0  0  0  0  0  0  0  0  0  0  0
    6.2320    2.1200    0.0000 H   0  0  0  0  0  0  0  0  0  0  0  0
    4.6761    2.5370    0.0000 H   0  0  0  0  0  0  0  0  0  0  0  0
    3.8292    2.3101    0.0000 H   0  0  0  0  0  0  0  0  0  0  0  0
    4.0560    1.4632    0.0000 H   0  0  0  0  0  0  0  0  0  0  0  0
    7.2741   -0.0369    0.0000 H   0  0  0  0  0  0  0  0  0  0  0  0
    7.5010    0.8100    0.0000 H   0  0  0  0  0  0  0  0  0  0  0  0
    6.6541    1.0369    0.0000 H   0  0  0  0  0  0  0  0  0  0  0  0
    5.2320   -2.1200    0.0000 H   0  0  0  0  0  0  0  0  0  0  0  0
    2.0000    1.9860    0.0000 H   0  0  0  0  0  0  0  0  0  0  0  0
    1.3800    1.3660    0.0000 H   0  0  0  0  0  0  0  0  0  0  0  0
    2.0000    0.7460    0.0000 H   0  0  0  0  0  0  0  0  0  0  0  0
  1 15  1  0  0  0  0
  1 20  1  0  0  0  0
  2  7  1  0  0  0  0
  3  7  2  0  0  0  0
  4  8  1  0  0  0  0
  5  8  2  0  0  0  0
  6 20  2  0  0  0  0
  7 16  1  0  0  0  0
  8 17  1  0  0  0  0
  9 10  1  0  0  0  0
  9 11  1  0  0  0  0
  9 12  1  0  0  0  0
  9 13  1  0  0  0  0
 10 14  2  0  0  0  0
 10 15  1  0  0  0  0
 11 22  1  0  0  0  0
 11 23  1  0  0  0  0
 11 24  1  0  0  0  0
 12 25  1  0  0  0  0
 12 26  1  0  0  0  0
 12 27  1  0  0  0  0
 13 28  1  0  0  0  0
 13 29  1  0  0  0  0
 13 30  1  0  0  0  0
 14 16  1  0  0  0  0
 14 18  1  0  0  0  0
 15 17  2  0  0  0  0
 16 19  2  0  0  0  0
 17 19  1  0  0  0  0
 18 31  1  0  0  0  0
 18 32  1  0  0  0  0
 18 33  1  0  0  0  0
 19 34  1  0  0  0  0
 20 21  1  0  0  0  0
 21 35  1  0  0  0  0
 21 36  1  0  0  0  0
 21 37  1  0  0  0  0
M  CHG  4   2  -1   4  -1   7   1   8   1
M  END
> <PUBCHEM_COMPOUND_CID>
17212

> <PUBCHEM_COMPOUND_CANONICALIZED>
1

> <PUBCHEM_CACTVS_COMPLEXITY>
433

> <PUBCHEM_CACTVS_HBOND_ACCEPTOR>
6

> <PUBCHEM_CACTVS_HBOND_DONOR>
0

> <PUBCHEM_CACTVS_ROTATABLE_BOND>
3

> <PUBCHEM_CACTVS_SUBSKEYS>
AAADceBzOAAAAAAAAAAAAAAAAAAAAAAAAAAwAAAAAAAAAAABAAAAHgAEAAAADgyBmAAyzoAQRACJAiTSSwCCCAAgIgAgiAAFbIoOJiKE8NuDOiDkwFEI6AewwPAPiEABQAQaEAAQgAKACDQgAAAAAAAAAA==

> <PUBCHEM_IUPAC_OPENEYE_NAME>
(2-tert-butyl-3-methyl-4,6-dinitro-phenyl) acetate

> <PUBCHEM_IUPAC_CAS_NAME>
acetic acid (2-tert-butyl-3-methyl-4,6-dinitrophenyl) ester

> <PUBCHEM_IUPAC_NAME>
(2-tert-butyl-3-methyl-4,6-dinitrophenyl) acetate

> <PUBCHEM_IUPAC_SYSTEMATIC_NAME>
(2-tert-butyl-3-methyl-4,6-dinitro-phenyl) ethanoate

> <PUBCHEM_IUPAC_TRADITIONAL_NAME>
acetic acid (2-tert-butyl-3-methyl-4,6-dinitro-phenyl) ester

> <PUBCHEM_IUPAC_INCHI>
InChI=1S/C13H16N2O6/c1-7-9(14(17)18)6-10(15(19)20)12(21-8(2)16)11(7)13(3,4)5/h6H,1-5H3

> <PUBCHEM_IUPAC_INCHIKEY>
GZJNBGYLANALSV-UHFFFAOYSA-N

> <PUBCHEM_XLOGP3_AA>
3.4

> <PUBCHEM_EXACT_MASS>
296.100836

> <PUBCHEM_MOLECULAR_FORMULA>
C13H16N2O6

> <PUBCHEM_MOLECULAR_WEIGHT>
296.27594

> <PUBCHEM_OPENEYE_CAN_SMILES>
CC1=C(C(=C(C=C1[N+](=O)[O-])[N+](=O)[O-])OC(=O)C)C(C)(C)C

> <PUBCHEM_OPENEYE_ISO_SMILES>
CC1=C(C(=C(C=C1[N+](=O)[O-])[N+](=O)[O-])OC(=O)C)C(C)(C)C

> <PUBCHEM_CACTVS_TPSA>
118

> <PUBCHEM_MONOISOTOPIC_WEIGHT>
296.100836

> <PUBCHEM_TOTAL_CHARGE>
0

> <PUBCHEM_HEAVY_ATOM_COUNT>
21

> <PUBCHEM_ATOM_DEF_STEREO_COUNT>
0

> <PUBCHEM_ATOM_UDEF_STEREO_COUNT>
0

> <PUBCHEM_BOND_DEF_STEREO_COUNT>
0

> <PUBCHEM_BOND_UDEF_STEREO_COUNT>
0

> <PUBCHEM_ISOTOPIC_ATOM_COUNT>
0

> <PUBCHEM_COMPONENT_COUNT>
1

> <PUBCHEM_CACTVS_TAUTO_COUNT>
1

> <PUBCHEM_COORDINATE_TYPE>
1
5
255

> <PUBCHEM_BONDANNOTATIONS>
10  14  8
10  15  8
14  16  8
15  17  8
16  19  8
17  19  8

$$$$

