854048
  -OEChem-06241222473D

 27 28  0     1  0  0  0  0  0999 V2000
    1.1972    0.8396    0.2584 O   0  0  0  0  0  0  0  0  0  0  0  0
   -0.0532   -0.6471   -1.0515 O   0  0  0  0  0  0  0  0  0  0  0  0
   -1.0935    2.0291   -1.0229 O   0  0  0  0  0  0  0  0  0  0  0  0
   -1.9302   -2.2799    0.3833 O   0  0  0  0  0  0  0  0  0  0  0  0
   -1.2185   -0.2048   -0.3884 N   0  0  0  0  0  0  0  0  0  0  0  0
    2.3013   -0.9991   -0.8693 C   0  0  0  0  0  0  0  0  0  0  0  0
    3.5338   -0.8135    0.0071 C   0  0  0  0  0  0  0  0  0  0  0  0
    1.0421   -0.5202   -0.1502 C   0  0  1  0  0  0  0  0  0  0  0  0
    3.5976    0.6123    0.5441 C   0  0  0  0  0  0  0  0  0  0  0  0
    2.2724    1.0071    1.1824 C   0  0  0  0  0  0  0  0  0  0  0  0
   -2.8598    1.1910    0.4042 C   0  0  0  0  0  0  0  0  0  0  0  0
   -3.1376   -0.2395    0.8711 C   0  0  0  0  0  0  0  0  0  0  0  0
   -1.6159    1.0935   -0.4369 C   0  0  0  0  0  0  0  0  0  0  0  0
   -2.0357   -1.0686    0.2686 C   0  0  0  0  0  0  0  0  0  0  0  0
    2.4306   -0.4242   -1.7957 H   0  0  0  0  0  0  0  0  0  0  0  0
    2.1949   -2.0478   -1.1697 H   0  0  0  0  0  0  0  0  0  0  0  0
    4.4408   -1.0430   -0.5628 H   0  0  0  0  0  0  0  0  0  0  0  0
    3.4931   -1.5179    0.8469 H   0  0  0  0  0  0  0  0  0  0  0  0
    0.8546   -1.1495    0.7308 H   0  0  0  0  0  0  0  0  0  0  0  0
    4.4142    0.7114    1.2669 H   0  0  0  0  0  0  0  0  0  0  0  0
    3.8093    1.2908   -0.2914 H   0  0  0  0  0  0  0  0  0  0  0  0
    2.0726    0.4186    2.0855 H   0  0  0  0  0  0  0  0  0  0  0  0
    2.2993    2.0617    1.4744 H   0  0  0  0  0  0  0  0  0  0  0  0
   -2.6820    1.8584    1.2524 H   0  0  0  0  0  0  0  0  0  0  0  0
   -3.6859    1.5790   -0.1989 H   0  0  0  0  0  0  0  0  0  0  0  0
   -4.1077   -0.5934    0.5103 H   0  0  0  0  0  0  0  0  0  0  0  0
   -3.1041   -0.3151    1.9619 H   0  0  0  0  0  0  0  0  0  0  0  0
  1  8  1  0  0  0  0
  1 10  1  0  0  0  0
  2  5  1  0  0  0  0
  2  8  1  0  0  0  0
  3 13  2  0  0  0  0
  4 14  2  0  0  0  0
  5 13  1  0  0  0  0
  5 14  1  0  0  0  0
  6  7  1  0  0  0  0
  6  8  1  0  0  0  0
  6 15  1  0  0  0  0
  6 16  1  0  0  0  0
  7  9  1  0  0  0  0
  7 17  1  0  0  0  0
  7 18  1  0  0  0  0
  8 19  1  0  0  0  0
  9 10  1  0  0  0  0
  9 20  1  0  0  0  0
  9 21  1  0  0  0  0
 10 22  1  0  0  0  0
 10 23  1  0  0  0  0
 11 12  1  0  0  0  0
 11 13  1  0  0  0  0
 11 24  1  0  0  0  0
 11 25  1  0  0  0  0
 12 14  1  0  0  0  0
 12 26  1  0  0  0  0
 12 27  1  0  0  0  0
M  END
> <PUBCHEM_COMPOUND_CID>
854048

> <PUBCHEM_CONFORMER_RMSD>
0.6

> <PUBCHEM_CONFORMER_DIVERSEORDER>
1
7
5
2
3
4
6

> <PUBCHEM_MMFF94_PARTIAL_CHARGES>
11
1 -0.56
10 0.28
11 0.06
12 0.06
13 0.57
14 0.57
2 -0.32
3 -0.57
4 -0.57
5 -0.08
8 0.56

> <PUBCHEM_EFFECTIVE_ROTOR_COUNT>
3.8

> <PUBCHEM_PHARMACOPHORE_FEATURES>
5
1 1 acceptor
1 3 acceptor
1 4 acceptor
5 5 11 12 13 14 rings
6 1 6 7 8 9 10 rings

> <PUBCHEM_HEAVY_ATOM_COUNT>
14

> <PUBCHEM_ATOM_DEF_STEREO_COUNT>
1

> <PUBCHEM_ATOM_UDEF_STEREO_COUNT>
0

> <PUBCHEM_BOND_DEF_STEREO_COUNT>
0

> <PUBCHEM_BOND_UDEF_STEREO_COUNT>
0

> <PUBCHEM_ISOTOPIC_ATOM_COUNT>
0

> <PUBCHEM_COMPONENT_COUNT>
1

> <PUBCHEM_CACTVS_TAUTO_COUNT>
3

> <PUBCHEM_CONFORMER_ID>
000D082000000001

> <PUBCHEM_MMFF94_ENERGY>
24.0763

> <PUBCHEM_FEATURE_SELFOVERLAP>
25.374

> <PUBCHEM_SHAPE_FINGERPRINT>
10608611 8 18333735727631090600
10857977 72 18272082790767794021
11132069 177 18411703157834013912
12251169 10 18409442557822210801
124424 183 18262246641561143598
12696612 119 18337107861158411772
12932764 1 18341615949100336130
13024252 1 15123791799404586669
13380536 127 17418096550438846876
15219456 202 18261110790025009648
15309172 13 17458062672663503838
15653759 3 18412262852539731058
15775835 57 18271523212163233859
16945 1 18343865540999956189
17844478 74 18410852174615590328
19049666 15 18120088648296002166
200 152 17385738975758609519
20201158 50 18187364371685800338
20279233 1 18408889554997235614
20361792 2 16343986875105788710
20528008 55 18409171012957548895
20645464 45 18334011726566462855
20715346 28 18260269646486828134
20871998 184 18335977589143822975
21501502 16 18336825290890888766
23388829 49 17542228956546127215
23402539 116 18408895023086891039
2748010 2 18260834799795441212
598444 67 18194677292273172983
69090 78 18259989279844093759
77492 1 16415189096394493158
81228 2 18271806796353891371
8809292 202 18410006684823738826

> <PUBCHEM_SHAPE_MULTIPOLES>
259.66
5.92
1.74
1.01
2.37
0.15
0.02
-0.07
-1.4
-0.73
0.05
0.04
-0.15
0.83

> <PUBCHEM_SHAPE_SELFOVERLAP>
535.823

> <PUBCHEM_SHAPE_VOLUME>
149

> <PUBCHEM_COORDINATE_TYPE>
2
5
10

$$$$

