439948
  -OEChem-07051212482D

 28 28  0     1  0  0  0  0  0999 V2000
    4.5981    3.1550    0.0000 O   0  0  0  0  0  0  0  0  0  0  0  0
    2.8660   -2.8450    0.0000 O   0  0  0  0  0  0  0  0  0  0  0  0
    4.5981   -2.8450    0.0000 O   0  0  0  0  0  0  0  0  0  0  0  0
    2.0000    1.6550    0.0000 O   0  5  0  0  0  0  0  0  0  0  0  0
    7.1962    1.6550    0.0000 O   0  5  0  0  0  0  0  0  0  0  0  0
    2.8660    3.1550    0.0000 O   0  0  0  0  0  0  0  0  0  0  0  0
    6.3301    3.1550    0.0000 O   0  0  0  0  0  0  0  0  0  0  0  0
    2.8660   -0.8450    0.0000 N   0  0  0  0  0  0  0  0  0  0  0  0
    2.8660    2.1550    0.0000 N   0  3  0  0  0  0  0  0  0  0  0  0
    6.3301    2.1550    0.0000 N   0  3  0  0  0  0  0  0  0  0  0  0
    4.5981   -0.8450    0.0000 C   0  0  0  0  0  0  0  0  0  0  0  0
    4.5981    0.1550    0.0000 C   0  0  0  0  0  0  0  0  0  0  0  0
    3.7320   -1.3450    0.0000 C   0  0  1  0  0  0  0  0  0  0  0  0
    5.4641    0.6550    0.0000 C   0  0  0  0  0  0  0  0  0  0  0  0
    3.7320    0.6550    0.0000 C   0  0  0  0  0  0  0  0  0  0  0  0
    3.7320    1.6550    0.0000 C   0  0  0  0  0  0  0  0  0  0  0  0
    5.4641    1.6550    0.0000 C   0  0  0  0  0  0  0  0  0  0  0  0
    4.5981    2.1550    0.0000 C   0  0  0  0  0  0  0  0  0  0  0  0
    3.7320   -2.3450    0.0000 C   0  0  0  0  0  0  0  0  0  0  0  0
    4.8101   -1.4276    0.0000 H   0  0  0  0  0  0  0  0  0  0  0  0
    5.2087   -0.7373    0.0000 H   0  0  0  0  0  0  0  0  0  0  0  0
    3.7320   -0.7250    0.0000 H   0  0  0  0  0  0  0  0  0  0  0  0
    6.0010    0.3450    0.0000 H   0  0  0  0  0  0  0  0  0  0  0  0
    3.1951    0.3450    0.0000 H   0  0  0  0  0  0  0  0  0  0  0  0
    2.3291   -1.1550    0.0000 H   0  0  0  0  0  0  0  0  0  0  0  0
    2.8660   -0.2250    0.0000 H   0  0  0  0  0  0  0  0  0  0  0  0
    5.1350    3.4650    0.0000 H   0  0  0  0  0  0  0  0  0  0  0  0
    2.8660   -3.4650    0.0000 H   0  0  0  0  0  0  0  0  0  0  0  0
  1 18  1  0  0  0  0
  1 27  1  0  0  0  0
  2 19  1  0  0  0  0
  2 28  1  0  0  0  0
  3 19  2  0  0  0  0
  4  9  1  0  0  0  0
  5 10  1  0  0  0  0
  6  9  2  0  0  0  0
  7 10  2  0  0  0  0
 13  8  1  1  0  0  0
  8 25  1  0  0  0  0
  8 26  1  0  0  0  0
  9 16  1  0  0  0  0
 10 17  1  0  0  0  0
 11 12  1  0  0  0  0
 11 13  1  0  0  0  0
 11 20  1  0  0  0  0
 11 21  1  0  0  0  0
 12 14  2  0  0  0  0
 12 15  1  0  0  0  0
 13 19  1  0  0  0  0
 13 22  1  0  0  0  0
 14 17  1  0  0  0  0
 14 23  1  0  0  0  0
 15 16  2  0  0  0  0
 15 24  1  0  0  0  0
 16 18  1  0  0  0  0
 17 18  2  0  0  0  0
M  CHG  4   4  -1   5  -1   9   1  10   1
M  END
> <PUBCHEM_COMPOUND_CID>
439948

> <PUBCHEM_COMPOUND_CANONICALIZED>
1

> <PUBCHEM_CACTVS_COMPLEXITY>
353

> <PUBCHEM_CACTVS_HBOND_ACCEPTOR>
8

> <PUBCHEM_CACTVS_HBOND_DONOR>
3

> <PUBCHEM_CACTVS_ROTATABLE_BOND>
3

> <PUBCHEM_CACTVS_SUBSKEYS>
AAADccBzOAAAAAAAAAAAAAAAAAAAAAAAAAAwAAAAAAAAAAABAAAAHgAUCAAADCzBmAQwzoBQQgCJAiTSSwCCAAAgIgAgiIGFbIoKJjKS0dOAcABk0FEI2AeYyKCOIAAAQAQAEABAAACACAAgAAAAAAAAAA==

> <PUBCHEM_IUPAC_OPENEYE_NAME>
(2S)-2-amino-3-(4-hydroxy-3,5-dinitro-phenyl)propanoic acid

> <PUBCHEM_IUPAC_CAS_NAME>
(2S)-2-amino-3-(4-hydroxy-3,5-dinitrophenyl)propanoic acid

> <PUBCHEM_IUPAC_NAME>
(2S)-2-amino-3-(4-hydroxy-3,5-dinitrophenyl)propanoic acid

> <PUBCHEM_IUPAC_SYSTEMATIC_NAME>
(2S)-2-azanyl-3-(3,5-dinitro-4-oxidanyl-phenyl)propanoic acid

> <PUBCHEM_IUPAC_TRADITIONAL_NAME>
(2S)-2-amino-3-(4-hydroxy-3,5-dinitro-phenyl)propionic acid

> <PUBCHEM_IUPAC_INCHI>
InChI=1S/C9H9N3O7/c10-5(9(14)15)1-4-2-6(11(16)17)8(13)7(3-4)12(18)19/h2-3,5,13H,1,10H2,(H,14,15)/t5-/m0/s1

> <PUBCHEM_IUPAC_INCHIKEY>
SAZOSDSFLRXREA-YFKPBYRVSA-N

> <PUBCHEM_XLOGP3_AA>
-1.6

> <PUBCHEM_EXACT_MASS>
271.04405

> <PUBCHEM_MOLECULAR_FORMULA>
C9H9N3O7

> <PUBCHEM_MOLECULAR_WEIGHT>
271.18366

> <PUBCHEM_OPENEYE_CAN_SMILES>
C1=C(C=C(C(=C1[N+](=O)[O-])O)[N+](=O)[O-])CC(C(=O)O)N

> <PUBCHEM_OPENEYE_ISO_SMILES>
C1=C(C=C(C(=C1[N+](=O)[O-])O)[N+](=O)[O-])C[C@@H](C(=O)O)N

> <PUBCHEM_CACTVS_TPSA>
175

> <PUBCHEM_MONOISOTOPIC_WEIGHT>
271.04405

> <PUBCHEM_TOTAL_CHARGE>
0

> <PUBCHEM_HEAVY_ATOM_COUNT>
19

> <PUBCHEM_ATOM_DEF_STEREO_COUNT>
1

> <PUBCHEM_ATOM_UDEF_STEREO_COUNT>
0

> <PUBCHEM_BOND_DEF_STEREO_COUNT>
0

> <PUBCHEM_BOND_UDEF_STEREO_COUNT>
0

> <PUBCHEM_ISOTOPIC_ATOM_COUNT>
0

> <PUBCHEM_COMPONENT_COUNT>
1

> <PUBCHEM_CACTVS_TAUTO_COUNT>
3

> <PUBCHEM_COORDINATE_TYPE>
1
5
255

> <PUBCHEM_BONDANNOTATIONS>
12  14  8
12  15  8
14  17  8
15  16  8
16  18  8
17  18  8
13  8  5

$$$$

