35953
  -OEChem-07051213133D

 29 29  0     0  0  0  0  0  0999 V2000
    0.9868   -0.2278   -1.1642 S   0  0  0  0  0  0  0  0  0  0  0  0
    3.2338   -2.0381   -0.4870 S   0  0  0  0  0  0  0  0  0  0  0  0
   -4.0984    0.5881    0.2363 O   0  0  0  0  0  0  0  0  0  0  0  0
   -1.4947   -0.5094   -0.1077 N   0  0  0  0  0  0  0  0  0  0  0  0
    3.1584    0.6258    0.2343 N   0  0  0  0  0  0  0  0  0  0  0  0
   -1.8115    0.8633   -0.5262 C   0  0  0  0  0  0  0  0  0  0  0  0
   -2.3519   -0.9026    1.0192 C   0  0  0  0  0  0  0  0  0  0  0  0
   -3.2923    0.9686   -0.8795 C   0  0  0  0  0  0  0  0  0  0  0  0
   -3.8198   -0.7564    0.6286 C   0  0  0  0  0  0  0  0  0  0  0  0
   -0.0824   -0.6307    0.2475 C   0  0  0  0  0  0  0  0  0  0  0  0
    2.5702   -0.4867   -0.3998 C   0  0  0  0  0  0  0  0  0  0  0  0
    4.4561    0.5491    0.9095 C   0  0  0  0  0  0  0  0  0  0  0  0
    2.5457    1.9566    0.2890 C   0  0  0  0  0  0  0  0  0  0  0  0
   -1.2587    1.1753   -1.4171 H   0  0  0  0  0  0  0  0  0  0  0  0
   -1.5810    1.5700    0.2823 H   0  0  0  0  0  0  0  0  0  0  0  0
   -2.1429   -0.2731    1.8940 H   0  0  0  0  0  0  0  0  0  0  0  0
   -2.1605   -1.9452    1.2973 H   0  0  0  0  0  0  0  0  0  0  0  0
   -3.5431    2.0040   -1.1315 H   0  0  0  0  0  0  0  0  0  0  0  0
   -3.5477    0.3455   -1.7454 H   0  0  0  0  0  0  0  0  0  0  0  0
   -4.0921   -1.4393   -0.1854 H   0  0  0  0  0  0  0  0  0  0  0  0
   -4.4586   -0.9919    1.4858 H   0  0  0  0  0  0  0  0  0  0  0  0
    0.1751    0.0208    1.0911 H   0  0  0  0  0  0  0  0  0  0  0  0
    0.1301   -1.6635    0.5435 H   0  0  0  0  0  0  0  0  0  0  0  0
    4.8583   -0.4611    0.9813 H   0  0  0  0  0  0  0  0  0  0  0  0
    4.3434    0.9443    1.9242 H   0  0  0  0  0  0  0  0  0  0  0  0
    5.1689    1.1698    0.3575 H   0  0  0  0  0  0  0  0  0  0  0  0
    1.9578    2.0239    1.2090 H   0  0  0  0  0  0  0  0  0  0  0  0
    1.9049    2.1609   -0.5697 H   0  0  0  0  0  0  0  0  0  0  0  0
    3.3292    2.7211    0.3051 H   0  0  0  0  0  0  0  0  0  0  0  0
  1 10  1  0  0  0  0
  1 11  1  0  0  0  0
  2 11  2  0  0  0  0
  3  8  1  0  0  0  0
  3  9  1  0  0  0  0
  4  6  1  0  0  0  0
  4  7  1  0  0  0  0
  4 10  1  0  0  0  0
  5 11  1  0  0  0  0
  5 12  1  0  0  0  0
  5 13  1  0  0  0  0
  6  8  1  0  0  0  0
  6 14  1  0  0  0  0
  6 15  1  0  0  0  0
  7  9  1  0  0  0  0
  7 16  1  0  0  0  0
  7 17  1  0  0  0  0
  8 18  1  0  0  0  0
  8 19  1  0  0  0  0
  9 20  1  0  0  0  0
  9 21  1  0  0  0  0
 10 22  1  0  0  0  0
 10 23  1  0  0  0  0
 12 24  1  0  0  0  0
 12 25  1  0  0  0  0
 12 26  1  0  0  0  0
 13 27  1  0  0  0  0
 13 28  1  0  0  0  0
 13 29  1  0  0  0  0
M  END
> <PUBCHEM_COMPOUND_CID>
35953

> <PUBCHEM_CONFORMER_RMSD>
0.6

> <PUBCHEM_CONFORMER_DIVERSEORDER>
1
33
13
32
49
3
54
14
17
50
29
46
24
16
27
23
56
18
57
53
26
38
20
22
51
35
15
25
55
45
6
52
5
2
47
4
48
43
44
41
21
34
36
39
8
37
28
42
40
9
19
10
7
31
30
12
11

> <PUBCHEM_MMFF94_PARTIAL_CHARGES>
13
1 -0.37
10 0.5
11 0.58
12 0.3
13 0.3
2 -0.38
3 -0.56
4 -0.81
5 -0.66
6 0.27
7 0.27
8 0.28
9 0.28

> <PUBCHEM_EFFECTIVE_ROTOR_COUNT>
5.2

> <PUBCHEM_PHARMACOPHORE_FEATURES>
4
1 2 acceptor
1 3 acceptor
1 4 cation
6 3 4 6 7 8 9 rings

> <PUBCHEM_HEAVY_ATOM_COUNT>
13

> <PUBCHEM_ATOM_DEF_STEREO_COUNT>
0

> <PUBCHEM_ATOM_UDEF_STEREO_COUNT>
0

> <PUBCHEM_BOND_DEF_STEREO_COUNT>
0

> <PUBCHEM_BOND_UDEF_STEREO_COUNT>
0

> <PUBCHEM_ISOTOPIC_ATOM_COUNT>
0

> <PUBCHEM_COMPONENT_COUNT>
1

> <PUBCHEM_CACTVS_TAUTO_COUNT>
1

> <PUBCHEM_CONFORMER_ID>
00008C7100000001

> <PUBCHEM_MMFF94_ENERGY>
34.038

> <PUBCHEM_FEATURE_SELFOVERLAP>
20.297

> <PUBCHEM_SHAPE_FINGERPRINT>
10608611 8 18413390959859531133
11132069 177 17989203763694445863
12932764 1 18335411361834793486
13296908 3 18341888614772088222
15219456 202 18410292531676093750
15775835 57 17095246895440521444
18186145 218 18114451336068714494
19026448 4 18411979186934773903
20279233 1 18413386535916622022
20645464 45 18341612603473559475
20645476 183 15285363894518288253
20645477 56 18272087210579233493
20645477 70 18114746044066706246
20671657 53 18044082686844775662
21499 59 17022904527737954078
22096605 113 18114190691693841460
22169311 14 17988648471483239920
22169311 21 18413669123390264623
22943178 12 18342173384089051991
23402539 116 18059864922415710911
23532345 42 17988920072097898796
23557571 272 18272088267009222233
23559900 14 18201433731413014094
351380 180 18411989061101471653
42 15 17418099827577755314
449060 50 18410855434780435772
548570 60 18409171008462426905

> <PUBCHEM_SHAPE_MULTIPOLES>
259.4
8.69
1.68
1.05
0.91
0.02
-0.06
-0.61
1.63
-1.45
-0.02
0.05
0.04
1.25

> <PUBCHEM_SHAPE_SELFOVERLAP>
474.041

> <PUBCHEM_SHAPE_VOLUME>
168.3

> <PUBCHEM_COORDINATE_TYPE>
2
5
10

$$$$

