441793
  -OEChem-07051212562D

 49 52  0     1  0  0  0  0  0999 V2000
   10.1685    0.8553    0.0000 O   0  0  0  0  0  0  0  0  0  0  0  0
    4.9904    1.4754    0.0000 O   0  0  0  0  0  0  0  0  0  0  0  0
    3.7110    0.6730    0.0000 O   0  0  0  0  0  0  0  0  0  0  0  0
    7.5856   -2.0252    0.0000 O   0  0  0  0  0  0  0  0  0  0  0  0
   10.4097   -0.9767    0.0000 O   0  0  0  0  0  0  0  0  0  0  0  0
    2.0000   -0.5302    0.0000 O   0  0  0  0  0  0  0  0  0  0  0  0
    5.6290   -0.1882    0.0000 C   0  0  1  0  0  0  0  0  0  0  0  0
    6.5426   -0.5950    0.0000 C   0  0  2  0  0  0  0  0  0  0  0  0
    4.7770   -0.7874    0.0000 C   0  0  2  0  0  0  0  0  0  0  0  0
    8.0778    0.6482    0.0000 C   0  0  2  0  0  0  0  0  0  0  0  0
    5.7336    0.8063    0.0000 C   0  0  2  0  0  0  0  0  0  0  0  0
    7.6000    2.5967    0.0000 C   0  0  2  0  0  0  0  0  0  0  0  0
    4.8779   -1.8242    0.0000 C   0  0  1  0  0  0  0  0  0  0  0  0
    8.3366    1.6141    0.0000 C   0  0  1  0  0  0  0  0  0  0  0  0
    6.6674   -1.6291    0.0000 C   0  0  0  0  0  0  0  0  0  0  0  0
    5.8295   -2.2478    0.0000 C   0  0  0  0  0  0  0  0  0  0  0  0
    3.7963   -0.3233    0.0000 C   0  0  1  0  0  0  0  0  0  0  0  0
    7.4561   -1.0017    0.0000 C   0  0  0  0  0  0  0  0  0  0  0  0
    4.3456    0.1147    0.0000 C   0  0  0  0  0  0  0  0  0  0  0  0
    9.9097   -0.1106    0.0000 C   0  0  0  0  0  0  0  0  0  0  0  0
    4.0051   -2.4686    0.0000 C   0  0  0  0  0  0  0  0  0  0  0  0
    7.1000    3.4628    0.0000 C   0  0  0  0  0  0  0  0  0  0  0  0
    2.9088   -0.9474    0.0000 C   0  0  0  0  0  0  0  0  0  0  0  0
    3.0139   -2.0273    0.0000 C   0  0  0  0  0  0  0  0  0  0  0  0
    4.1134   -3.4628    0.0000 C   0  0  0  0  0  0  0  0  0  0  0  0
    5.0176    0.4022    0.0000 H   0  0  0  0  0  0  0  0  0  0  0  0
    7.8578   -0.1729    0.0000 H   0  0  0  0  0  0  0  0  0  0  0  0
    5.1548    0.5841    0.0000 H   0  0  0  0  0  0  0  0  0  0  0  0
    8.1174    2.9383    0.0000 H   0  0  0  0  0  0  0  0  0  0  0  0
    4.9700   -2.6691    0.0000 H   0  0  0  0  0  0  0  0  0  0  0  0
    8.5566    2.4352    0.0000 H   0  0  0  0  0  0  0  0  0  0  0  0
    5.4841   -2.7627    0.0000 H   0  0  0  0  0  0  0  0  0  0  0  0
    6.2777   -2.6762    0.0000 H   0  0  0  0  0  0  0  0  0  0  0  0
    4.3055    0.0304    0.0000 H   0  0  0  0  0  0  0  0  0  0  0  0
    7.2040   -1.5681    0.0000 H   0  0  0  0  0  0  0  0  0  0  0  0
    8.0225   -1.2539    0.0000 H   0  0  0  0  0  0  0  0  0  0  0  0
    7.7083   -0.4353    0.0000 H   0  0  0  0  0  0  0  0  0  0  0  0
    4.9049    0.3822    0.0000 H   0  0  0  0  0  0  0  0  0  0  0  0
    4.0781    0.6741    0.0000 H   0  0  0  0  0  0  0  0  0  0  0  0
    3.7862   -0.1528    0.0000 H   0  0  0  0  0  0  0  0  0  0  0  0
    7.6369    3.7728    0.0000 H   0  0  0  0  0  0  0  0  0  0  0  0
    6.7900    3.9997    0.0000 H   0  0  0  0  0  0  0  0  0  0  0  0
    6.5630    3.1528    0.0000 H   0  0  0  0  0  0  0  0  0  0  0  0
    5.1193    2.0819    0.0000 H   0  0  0  0  0  0  0  0  0  0  0  0
    2.5109   -2.3898    0.0000 H   0  0  0  0  0  0  0  0  0  0  0  0
    3.1495    0.9361    0.0000 H   0  0  0  0  0  0  0  0  0  0  0  0
    3.4971   -3.5299    0.0000 H   0  0  0  0  0  0  0  0  0  0  0  0
    4.1806   -4.0791    0.0000 H   0  0  0  0  0  0  0  0  0  0  0  0
    4.7298   -3.3956    0.0000 H   0  0  0  0  0  0  0  0  0  0  0  0
  1 14  1  0  0  0  0
  1 20  1  0  0  0  0
 11  2  1  1  0  0  0
  2 44  1  0  0  0  0
 17  3  1  1  0  0  0
  3 46  1  0  0  0  0
  4 15  2  0  0  0  0
  5 20  2  0  0  0  0
  6 23  2  0  0  0  0
  7  8  1  0  0  0  0
  7  9  1  0  0  0  0
  7 11  1  0  0  0  0
  7 26  1  6  0  0  0
  8 10  1  0  0  0  0
  8 15  1  0  0  0  0
  8 18  1  1  0  0  0
  9 13  1  0  0  0  0
  9 17  1  0  0  0  0
  9 19  1  1  0  0  0
 10 12  1  0  0  0  0
 10 20  1  0  0  0  0
 10 27  1  1  0  0  0
 11 14  1  0  0  0  0
 11 28  1  0  0  0  0
 12 14  1  0  0  0  0
 12 22  1  1  0  0  0
 12 29  1  0  0  0  0
 13 16  1  0  0  0  0
 13 21  1  0  0  0  0
 13 30  1  6  0  0  0
 14 31  1  6  0  0  0
 15 16  1  0  0  0  0
 16 32  1  0  0  0  0
 16 33  1  0  0  0  0
 17 23  1  0  0  0  0
 17 34  1  0  0  0  0
 18 35  1  0  0  0  0
 18 36  1  0  0  0  0
 18 37  1  0  0  0  0
 19 38  1  0  0  0  0
 19 39  1  0  0  0  0
 19 40  1  0  0  0  0
 21 24  2  0  0  0  0
 21 25  1  0  0  0  0
 22 41  1  0  0  0  0
 22 42  1  0  0  0  0
 22 43  1  0  0  0  0
 23 24  1  0  0  0  0
 24 45  1  0  0  0  0
 25 47  1  0  0  0  0
 25 48  1  0  0  0  0
 25 49  1  0  0  0  0
M  END
> <PUBCHEM_COMPOUND_CID>
441793

> <PUBCHEM_COMPOUND_CANONICALIZED>
1

> <PUBCHEM_CACTVS_COMPLEXITY>
725

> <PUBCHEM_CACTVS_HBOND_ACCEPTOR>
6

> <PUBCHEM_CACTVS_HBOND_DONOR>
2

> <PUBCHEM_CACTVS_ROTATABLE_BOND>
0

> <PUBCHEM_CACTVS_SUBSKEYS>
AAADceB4OAAAAAAAAAAAAAAAAAAAASAAAAAwYIAABIAAAADAAAAAGgAACAAADxSggAICCAAABgCIAqDSCAIAAAAgAAAACAFAAEgBEBIAAQACQAAEwAALAQPL7PzPgAAAAAAAAADAAAYAADCAAAAAAAAAAA==

> <PUBCHEM_IUPAC_INCHI>
InChI=1S/C19H24O6/c1-7-5-10(20)16(23)18(3)9(7)6-11(21)19(4)12-8(2)14(25-17(12)24)13(22)15(18)19/h5,8-9,12-16,22-23H,6H2,1-4H3/t8-,9+,12-,13+,14-,15-,16-,18+,19+/m1/s1

> <PUBCHEM_IUPAC_INCHIKEY>
OGHYZHNTIINXEO-MGBQOKOWSA-N

> <PUBCHEM_XLOGP3_AA>
0.1

> <PUBCHEM_EXACT_MASS>
348.157288

> <PUBCHEM_MOLECULAR_FORMULA>
C19H24O6

> <PUBCHEM_MOLECULAR_WEIGHT>
348.39026

> <PUBCHEM_OPENEYE_CAN_SMILES>
CC1C2C(C3C4(C(CC(=O)C3(C1C(=O)O2)C)C(=CC(=O)C4O)C)C)O

> <PUBCHEM_OPENEYE_ISO_SMILES>
C[C@H]1[C@@H]2[C@@H]([C@@H]3[C@@]4([C@@H](CC(=O)[C@]3([C@H]1C(=O)O2)C)C(=CC(=O)[C@H]4O)C)C)O

> <PUBCHEM_CACTVS_TPSA>
101

> <PUBCHEM_MONOISOTOPIC_WEIGHT>
348.157288

> <PUBCHEM_TOTAL_CHARGE>
0

> <PUBCHEM_HEAVY_ATOM_COUNT>
25

> <PUBCHEM_ATOM_DEF_STEREO_COUNT>
9

> <PUBCHEM_ATOM_UDEF_STEREO_COUNT>
0

> <PUBCHEM_BOND_DEF_STEREO_COUNT>
0

> <PUBCHEM_BOND_UDEF_STEREO_COUNT>
0

> <PUBCHEM_ISOTOPIC_ATOM_COUNT>
0

> <PUBCHEM_COMPONENT_COUNT>
1

> <PUBCHEM_CACTVS_TAUTO_COUNT>
30

> <PUBCHEM_COORDINATE_TYPE>
1
5
255

> <PUBCHEM_BONDANNOTATIONS>
10  27  5
12  22  5
13  30  6
14  31  6
11  2  5
17  3  5
7  26  6
8  18  5
9  19  5

$$$$

