443928
  -OEChem-07051213033D

 62 65  0     1  0  0  0  0  0999 V2000
    4.6602    2.5264    0.0133 F   0  0  0  0  0  0  0  0  0  0  0  0
   -2.4473    0.7723   -1.7450 O   0  0  0  0  0  0  0  0  0  0  0  0
    0.4603   -1.7220    1.8470 O   0  0  0  0  0  0  0  0  0  0  0  0
   -4.5133    1.6058    0.5981 O   0  0  0  0  0  0  0  0  0  0  0  0
   -5.5089   -0.8366   -0.2044 O   0  0  0  0  0  0  0  0  0  0  0  0
    6.3990   -1.6512   -1.8782 O   0  0  0  0  0  0  0  0  0  0  0  0
   -5.2796   -3.1332   -0.3078 O   0  0  0  0  0  0  0  0  0  0  0  0
   -1.2131    0.4785    0.3888 C   0  0  1  0  0  0  0  0  0  0  0  0
   -0.0531    1.3875   -0.0740 C   0  0  2  0  0  0  0  0  0  0  0  0
    1.3077    1.0255    0.5443 C   0  0  1  0  0  0  0  0  0  0  0  0
    1.6748   -0.4433    0.1330 C   0  0  2  0  0  0  0  0  0  0  0  0
   -2.3870    1.1608   -0.3780 C   0  0  1  0  0  0  0  0  0  0  0  0
   -0.5967    2.8019    0.1242 C   0  0  0  0  0  0  0  0  0  0  0  0
   -0.8652   -0.9647   -0.0326 C   0  0  0  0  0  0  0  0  0  0  0  0
   -2.1101    2.6851   -0.1952 C   0  0  1  0  0  0  0  0  0  0  0  0
    0.5198   -1.4457    0.4541 C   0  0  2  0  0  0  0  0  0  0  0  0
    3.1217   -0.8633    0.6105 C   0  0  1  0  0  0  0  0  0  0  0  0
    2.3877    2.0164    0.0781 C   0  0  0  0  0  0  0  0  0  0  0  0
   -1.4654    0.5453    1.9204 C   0  0  0  0  0  0  0  0  0  0  0  0
    3.7828    1.6229    0.5407 C   0  0  1  0  0  0  0  0  0  0  0  0
    4.0976    0.2114    0.1128 C   0  0  0  0  0  0  0  0  0  0  0  0
   -3.7477    0.7732    0.1146 C   0  0  0  0  0  0  0  0  0  0  0  0
   -2.5136    3.5568   -1.3809 C   0  0  0  0  0  0  0  0  0  0  0  0
    3.2640   -0.9748    2.1450 C   0  0  0  0  0  0  0  0  0  0  0  0
    3.4752   -2.2328    0.0493 C   0  0  0  0  0  0  0  0  0  0  0  0
    5.1442   -0.0500   -0.6863 C   0  0  0  0  0  0  0  0  0  0  0  0
   -4.1172   -0.6890   -0.0174 C   0  0  0  0  0  0  0  0  0  0  0  0
    4.5146   -2.4966   -0.7481 C   0  0  0  0  0  0  0  0  0  0  0  0
    5.4319   -1.4194   -1.1605 C   0  0  0  0  0  0  0  0  0  0  0  0
   -5.9684   -2.1223   -0.3377 C   0  0  0  0  0  0  0  0  0  0  0  0
   -7.4549   -2.1250   -0.5280 C   0  0  0  0  0  0  0  0  0  0  0  0
    0.0645    1.2639   -1.1637 H   0  0  0  0  0  0  0  0  0  0  0  0
    1.2478    1.0961    1.6351 H   0  0  0  0  0  0  0  0  0  0  0  0
    1.7207   -0.4316   -0.9701 H   0  0  0  0  0  0  0  0  0  0  0  0
   -0.4531    3.1352    1.1588 H   0  0  0  0  0  0  0  0  0  0  0  0
   -0.0876    3.5223   -0.5249 H   0  0  0  0  0  0  0  0  0  0  0  0
   -0.8705   -1.0418   -1.1269 H   0  0  0  0  0  0  0  0  0  0  0  0
   -1.6246   -1.6606    0.3374 H   0  0  0  0  0  0  0  0  0  0  0  0
   -2.6385    3.0769    0.6837 H   0  0  0  0  0  0  0  0  0  0  0  0
    0.7242   -2.3994   -0.0448 H   0  0  0  0  0  0  0  0  0  0  0  0
    2.1684    3.0239    0.4519 H   0  0  0  0  0  0  0  0  0  0  0  0
    2.3810    2.0986   -1.0173 H   0  0  0  0  0  0  0  0  0  0  0  0
   -0.5621    0.3751    2.5094 H   0  0  0  0  0  0  0  0  0  0  0  0
   -1.8579    1.5150    2.2423 H   0  0  0  0  0  0  0  0  0  0  0  0
   -2.1928   -0.2109    2.2331 H   0  0  0  0  0  0  0  0  0  0  0  0
    3.8650    1.7135    1.6285 H   0  0  0  0  0  0  0  0  0  0  0  0
   -1.9517    3.2969   -2.2841 H   0  0  0  0  0  0  0  0  0  0  0  0
   -3.5825    3.4568   -1.5947 H   0  0  0  0  0  0  0  0  0  0  0  0
   -2.3157    4.6119   -1.1626 H   0  0  0  0  0  0  0  0  0  0  0  0
    4.3201   -1.0337    2.4401 H   0  0  0  0  0  0  0  0  0  0  0  0
    2.8319   -0.1181    2.6707 H   0  0  0  0  0  0  0  0  0  0  0  0
    2.7866   -1.8766    2.5435 H   0  0  0  0  0  0  0  0  0  0  0  0
   -3.1633    1.2621   -2.1835 H   0  0  0  0  0  0  0  0  0  0  0  0
    2.8492   -3.0733    0.3411 H   0  0  0  0  0  0  0  0  0  0  0  0
   -0.2341   -2.3875    1.9886 H   0  0  0  0  0  0  0  0  0  0  0  0
    5.8129    0.7315   -1.0307 H   0  0  0  0  0  0  0  0  0  0  0  0
   -3.8194   -1.2002    0.9030 H   0  0  0  0  0  0  0  0  0  0  0  0
   -3.6085   -1.1377   -0.8749 H   0  0  0  0  0  0  0  0  0  0  0  0
    4.7151   -3.5020   -1.0999 H   0  0  0  0  0  0  0  0  0  0  0  0
   -7.7125   -1.5742   -1.4361 H   0  0  0  0  0  0  0  0  0  0  0  0
   -7.9401   -1.6790    0.3437 H   0  0  0  0  0  0  0  0  0  0  0  0
   -7.8056   -3.1555   -0.6336 H   0  0  0  0  0  0  0  0  0  0  0  0
  1 20  1  0  0  0  0
  2 12  1  0  0  0  0
  2 53  1  0  0  0  0
  3 16  1  0  0  0  0
  3 55  1  0  0  0  0
  4 22  2  0  0  0  0
  5 27  1  0  0  0  0
  5 30  1  0  0  0  0
  6 29  2  0  0  0  0
  7 30  2  0  0  0  0
  8  9  1  0  0  0  0
  8 12  1  0  0  0  0
  8 14  1  0  0  0  0
  8 19  1  0  0  0  0
  9 10  1  0  0  0  0
  9 13  1  0  0  0  0
  9 32  1  0  0  0  0
 10 11  1  0  0  0  0
 10 18  1  0  0  0  0
 10 33  1  0  0  0  0
 11 16  1  0  0  0  0
 11 17  1  0  0  0  0
 11 34  1  0  0  0  0
 12 15  1  0  0  0  0
 12 22  1  0  0  0  0
 13 15  1  0  0  0  0
 13 35  1  0  0  0  0
 13 36  1  0  0  0  0
 14 16  1  0  0  0  0
 14 37  1  0  0  0  0
 14 38  1  0  0  0  0
 15 23  1  0  0  0  0
 15 39  1  0  0  0  0
 16 40  1  0  0  0  0
 17 21  1  0  0  0  0
 17 24  1  0  0  0  0
 17 25  1  0  0  0  0
 18 20  1  0  0  0  0
 18 41  1  0  0  0  0
 18 42  1  0  0  0  0
 19 43  1  0  0  0  0
 19 44  1  0  0  0  0
 19 45  1  0  0  0  0
 20 21  1  0  0  0  0
 20 46  1  0  0  0  0
 21 26  2  0  0  0  0
 22 27  1  0  0  0  0
 23 47  1  0  0  0  0
 23 48  1  0  0  0  0
 23 49  1  0  0  0  0
 24 50  1  0  0  0  0
 24 51  1  0  0  0  0
 24 52  1  0  0  0  0
 25 28  2  0  0  0  0
 25 54  1  0  0  0  0
 26 29  1  0  0  0  0
 26 56  1  0  0  0  0
 27 57  1  0  0  0  0
 27 58  1  0  0  0  0
 28 29  1  0  0  0  0
 28 59  1  0  0  0  0
 30 31  1  0  0  0  0
 31 60  1  0  0  0  0
 31 61  1  0  0  0  0
 31 62  1  0  0  0  0
M  END
> <PUBCHEM_COMPOUND_CID>
443928

> <PUBCHEM_CONFORMER_RMSD>
0.8

> <PUBCHEM_CONFORMER_DIVERSEORDER>
2
3
8
4
6
10
11
13
1
12
5
9
7

> <PUBCHEM_MMFF94_PARTIAL_CHARGES>
25
1 -0.34
12 0.34
16 0.28
17 0.28
2 -0.68
20 0.48
21 -0.28
22 0.45
25 -0.29
26 -0.14
27 0.34
28 -0.14
29 0.54
3 -0.68
30 0.66
31 0.06
4 -0.57
5 -0.43
53 0.4
54 0.15
55 0.4
56 0.15
59 0.15
6 -0.57
7 -0.57

> <PUBCHEM_EFFECTIVE_ROTOR_COUNT>
5.4

> <PUBCHEM_PHARMACOPHORE_FEATURES>
11
1 2 acceptor
1 2 donor
1 3 acceptor
1 3 donor
1 4 acceptor
1 6 acceptor
1 7 acceptor
5 8 9 12 13 15 rings
6 10 11 17 18 20 21 rings
6 17 21 25 26 28 29 rings
6 8 9 10 11 14 16 rings

> <PUBCHEM_HEAVY_ATOM_COUNT>
31

> <PUBCHEM_ATOM_DEF_STEREO_COUNT>
9

> <PUBCHEM_ATOM_UDEF_STEREO_COUNT>
0

> <PUBCHEM_BOND_DEF_STEREO_COUNT>
0

> <PUBCHEM_BOND_UDEF_STEREO_COUNT>
0

> <PUBCHEM_ISOTOPIC_ATOM_COUNT>
0

> <PUBCHEM_COMPONENT_COUNT>
1

> <PUBCHEM_CACTVS_TAUTO_COUNT>
2

> <PUBCHEM_CONFORMER_ID>
0006C61800000002

> <PUBCHEM_MMFF94_ENERGY>
99.4955

> <PUBCHEM_FEATURE_SELFOVERLAP>
55.916

> <PUBCHEM_SHAPE_FINGERPRINT>
10366900 7 17774999102693323216
11135609 187 17911240516674390965
11497681 19 18188490168402619607
11578080 2 12894779269135643151
11961588 58 17203034219809398942
12236239 1 17967808332580591337
12403259 226 18410298046572883544
12422481 6 17385723578327675823
12623949 98 18040987436625914623
12788726 201 18202005438678275083
12916754 54 18335137630541666513
13224815 77 18270966855222280856
13383661 66 17169811488129148966
13533116 47 18040714719240149952
1361 2 18338517434796325218
13690498 29 18342454885199284455
13782708 43 17603871100257147607
14251764 30 18113899355730890007
14347332 77 18339645641095155591
14787075 74 18201159866907179833
14955137 171 17894349964965925633
15196674 1 18410294718009814625
15361156 5 18129364025456788205
15788980 27 14563110185520974576
15927050 60 17327179845415001429
17349148 13 17346312738922332409
17492 89 18338241573573861958
17909252 39 18333729135157134002
18608769 82 18409451362768853050
20028762 73 18334861614542917559
20775438 99 17976557013095438919
21267235 1 18408879621212854439
221357 26 18410573994026332846
22149856 69 18261382318247957571
22393880 68 18271248347436843948
23522609 53 18048560907168022296
23559900 14 18263087781020999528
3004659 81 18343868796981052151
350125 39 18197489825774507201
4017518 198 17332515779207972068
46194498 28 18187641419289610326
465052 167 17967247594324259622
484989 97 18338506457398357038
497634 4 18261669359317822721
5104073 3 18186809105365477953
9709674 26 18341891905133807440

> <PUBCHEM_SHAPE_MULTIPOLES>
595.48
14.34
3.55
1.36
8.64
0.98
-0.26
-11.32
4.98
2.31
0.85
-0.96
-0.21
0.7

> <PUBCHEM_SHAPE_SELFOVERLAP>
1280.059

> <PUBCHEM_SHAPE_VOLUME>
329.3

> <PUBCHEM_COORDINATE_TYPE>
2
5
10

$$$$

