23267
  -OEChem-07051213102D

 80 82  0     1  0  0  0  0  0999 V2000
    5.8520    0.0006    0.0000 O   0  0  0  0  0  0  0  0  0  0  0  0
    7.6316    0.0938    0.0000 O   0  0  0  0  0  0  0  0  0  0  0  0
    6.0794    2.1642    0.0000 O   0  0  0  0  0  0  0  0  0  0  0  0
    7.2384    3.4514    0.0000 O   0  0  0  0  0  0  0  0  0  0  0  0
    7.5928    2.6812    0.0000 O   0  0  0  0  0  0  0  0  0  0  0  0
    7.5841   -0.9994    0.0000 O   0  0  0  0  0  0  0  0  0  0  0  0
    4.1200   -2.9994    0.0000 O   0  0  0  0  0  0  0  0  0  0  0  0
    7.5841   -2.9994    0.0000 O   0  0  0  0  0  0  0  0  0  0  0  0
    5.0090    5.4588    0.0000 O   0  0  0  0  0  0  0  0  0  0  0  0
    6.9111    6.0768    0.0000 O   0  0  0  0  0  0  0  0  0  0  0  0
    9.7020   -0.1811    0.0000 O   0  0  0  0  0  0  0  0  0  0  0  0
    8.6668    3.2030    0.0000 O   0  0  0  0  0  0  0  0  0  0  0  0
    9.1405    4.0694    0.0000 O   0  0  0  0  0  0  0  0  0  0  0  0
    4.1200   -0.9994    0.0000 N   0  0  0  0  0  0  0  0  0  0  0  0
    5.8520   -3.9994    0.0000 N   0  0  0  0  0  0  0  0  0  0  0  0
    4.5932    3.5025    0.0000 N   0  0  0  0  0  0  0  0  0  0  0  0
    2.6200   -0.1333    0.0000 N   0  0  0  0  0  0  0  0  0  0  0  0
    2.6200   -1.8655    0.0000 N   0  0  0  0  0  0  0  0  0  0  0  0
    5.8520   -5.7315    0.0000 N   0  0  0  0  0  0  0  0  0  0  0  0
    7.3520   -4.8654    0.0000 N   0  0  0  0  0  0  0  0  0  0  0  0
    6.8226    1.4951    0.0000 C   0  0  2  0  0  0  0  0  0  0  0  0
    5.8520   -0.9994    0.0000 C   0  0  2  0  0  0  0  0  0  0  0  0
    7.8008    1.7030    0.0000 C   0  0  1  0  0  0  0  0  0  0  0  0
    6.7181    0.5006    0.0000 C   0  0  2  0  0  0  0  0  0  0  0  0
    4.9860   -1.4994    0.0000 C   0  0  2  0  0  0  0  0  0  0  0  0
    6.7181   -1.4994    0.0000 C   0  0  1  0  0  0  0  0  0  0  0  0
    8.3008    0.8370    0.0000 C   0  0  2  0  0  0  0  0  0  0  0  0
    4.9860   -2.4994    0.0000 C   0  0  1  0  0  0  0  0  0  0  0  0
    6.7181   -2.4994    0.0000 C   0  0  2  0  0  0  0  0  0  0  0  0
    5.8520   -2.9994    0.0000 C   0  0  2  0  0  0  0  0  0  0  0  0
    6.2874    3.1424    0.0000 C   0  0  2  0  0  0  0  0  0  0  0  0
    5.5442    3.8115    0.0000 C   0  0  2  0  0  0  0  0  0  0  0  0
    5.7521    4.7896    0.0000 C   0  0  1  0  0  0  0  0  0  0  0  0
    6.7032    5.0987    0.0000 C   0  0  2  0  0  0  0  0  0  0  0  0
    7.4463    4.4295    0.0000 C   0  0  2  0  0  0  0  0  0  0  0  0
    9.2953    0.7325    0.0000 C   0  0  0  0  0  0  0  0  0  0  0  0
    8.6668    2.2030    0.0000 C   0  0  0  0  0  0  0  0  0  0  0  0
    8.3974    4.7386    0.0000 C   0  0  0  0  0  0  0  0  0  0  0  0
    3.1200   -0.9994    0.0000 C   0  0  0  0  0  0  0  0  0  0  0  0
    3.8500    4.1716    0.0000 C   0  0  0  0  0  0  0  0  0  0  0  0
    6.3520   -4.8654    0.0000 C   0  0  0  0  0  0  0  0  0  0  0  0
    6.9831    2.0940    0.0000 H   0  0  0  0  0  0  0  0  0  0  0  0
    6.3890   -0.6894    0.0000 H   0  0  0  0  0  0  0  0  0  0  0  0
    6.7505   -0.1186    0.0000 H   0  0  0  0  0  0  0  0  0  0  0  0
    4.9860   -0.8794    0.0000 H   0  0  0  0  0  0  0  0  0  0  0  0
    6.7181   -0.8794    0.0000 H   0  0  0  0  0  0  0  0  0  0  0  0
    8.5229    0.2582    0.0000 H   0  0  0  0  0  0  0  0  0  0  0  0
    4.9860   -3.1194    0.0000 H   0  0  0  0  0  0  0  0  0  0  0  0
    6.7181   -3.1194    0.0000 H   0  0  0  0  0  0  0  0  0  0  0  0
    6.3890   -3.3094    0.0000 H   0  0  0  0  0  0  0  0  0  0  0  0
    5.6977    2.9508    0.0000 H   0  0  0  0  0  0  0  0  0  0  0  0
    5.4153    3.2051    0.0000 H   0  0  0  0  0  0  0  0  0  0  0  0
    5.1625    4.5981    0.0000 H   0  0  0  0  0  0  0  0  0  0  0  0
    7.2928    5.2903    0.0000 H   0  0  0  0  0  0  0  0  0  0  0  0
    7.9071    4.0147    0.0000 H   0  0  0  0  0  0  0  0  0  0  0  0
    9.8968    0.8824    0.0000 H   0  0  0  0  0  0  0  0  0  0  0  0
    9.2520    1.3510    0.0000 H   0  0  0  0  0  0  0  0  0  0  0  0
    9.2037    1.8930    0.0000 H   0  0  0  0  0  0  0  0  0  0  0  0
    7.0032    2.8728    0.0000 H   0  0  0  0  0  0  0  0  0  0  0  0
    8.1210   -1.3094    0.0000 H   0  0  0  0  0  0  0  0  0  0  0  0
    4.4643    2.8960    0.0000 H   0  0  0  0  0  0  0  0  0  0  0  0
    4.1200   -3.6194    0.0000 H   0  0  0  0  0  0  0  0  0  0  0  0
    8.1210   -2.6894    0.0000 H   0  0  0  0  0  0  0  0  0  0  0  0
    8.8860    5.1203    0.0000 H   0  0  0  0  0  0  0  0  0  0  0  0
    8.1063    5.2860    0.0000 H   0  0  0  0  0  0  0  0  0  0  0  0
    5.1379    6.0652    0.0000 H   0  0  0  0  0  0  0  0  0  0  0  0
    7.5008    6.2684    0.0000 H   0  0  0  0  0  0  0  0  0  0  0  0
   10.3186   -0.2459    0.0000 H   0  0  0  0  0  0  0  0  0  0  0  0
    4.2649    4.6324    0.0000 H   0  0  0  0  0  0  0  0  0  0  0  0
    3.3893    4.5865    0.0000 H   0  0  0  0  0  0  0  0  0  0  0  0
    3.4352    3.7109    0.0000 H   0  0  0  0  0  0  0  0  0  0  0  0
    9.7302    4.2610    0.0000 H   0  0  0  0  0  0  0  0  0  0  0  0
    2.0000   -0.1333    0.0000 H   0  0  0  0  0  0  0  0  0  0  0  0
    2.9300    0.4035    0.0000 H   0  0  0  0  0  0  0  0  0  0  0  0
    2.0000   -1.8655    0.0000 H   0  0  0  0  0  0  0  0  0  0  0  0
    2.9300   -2.4024    0.0000 H   0  0  0  0  0  0  0  0  0  0  0  0
    7.6620   -5.4024    0.0000 H   0  0  0  0  0  0  0  0  0  0  0  0
    7.6620   -4.3285    0.0000 H   0  0  0  0  0  0  0  0  0  0  0  0
    6.1620   -6.2684    0.0000 H   0  0  0  0  0  0  0  0  0  0  0  0
    5.2320   -5.7315    0.0000 H   0  0  0  0  0  0  0  0  0  0  0  0
 22  1  1  1  0  0  0
 24  1  1  1  0  0  0
  2 24  1  0  0  0  0
  2 27  1  0  0  0  0
 21  3  1  6  0  0  0
 31  3  1  1  0  0  0
  4 31  1  0  0  0  0
  4 35  1  0  0  0  0
 23  5  1  6  0  0  0
  5 59  1  0  0  0  0
 26  6  1  6  0  0  0
  6 60  1  0  0  0  0
 28  7  1  1  0  0  0
  7 62  1  0  0  0  0
 29  8  1  1  0  0  0
  8 63  1  0  0  0  0
 33  9  1  6  0  0  0
  9 66  1  0  0  0  0
 34 10  1  1  0  0  0
 10 67  1  0  0  0  0
 11 36  1  0  0  0  0
 11 68  1  0  0  0  0
 12 37  2  0  0  0  0
 13 38  1  0  0  0  0
 13 72  1  0  0  0  0
 25 14  1  6  0  0  0
 14 39  2  0  0  0  0
 30 15  1  6  0  0  0
 15 41  2  0  0  0  0
 32 16  1  1  0  0  0
 16 40  1  0  0  0  0
 16 61  1  0  0  0  0
 17 39  1  0  0  0  0
 17 73  1  0  0  0  0
 17 74  1  0  0  0  0
 18 39  1  0  0  0  0
 18 75  1  0  0  0  0
 18 76  1  0  0  0  0
 19 41  1  0  0  0  0
 19 79  1  0  0  0  0
 19 80  1  0  0  0  0
 20 41  1  0  0  0  0
 20 77  1  0  0  0  0
 20 78  1  0  0  0  0
 21 23  1  0  0  0  0
 21 24  1  0  0  0  0
 21 42  1  0  0  0  0
 22 25  1  0  0  0  0
 22 26  1  0  0  0  0
 22 43  1  0  0  0  0
 23 27  1  0  0  0  0
 23 37  1  0  0  0  0
 24 44  1  0  0  0  0
 25 28  1  0  0  0  0
 25 45  1  0  0  0  0
 26 29  1  0  0  0  0
 26 46  1  0  0  0  0
 27 36  1  6  0  0  0
 27 47  1  0  0  0  0
 28 30  1  0  0  0  0
 28 48  1  0  0  0  0
 29 30  1  0  0  0  0
 29 49  1  0  0  0  0
 30 50  1  0  0  0  0
 31 32  1  0  0  0  0
 31 51  1  0  0  0  0
 32 33  1  0  0  0  0
 32 52  1  0  0  0  0
 33 34  1  0  0  0  0
 33 53  1  0  0  0  0
 34 35  1  0  0  0  0
 34 54  1  0  0  0  0
 35 38  1  6  0  0  0
 35 55  1  0  0  0  0
 36 56  1  0  0  0  0
 36 57  1  0  0  0  0
 37 58  1  0  0  0  0
 38 64  1  0  0  0  0
 38 65  1  0  0  0  0
 40 69  1  0  0  0  0
 40 70  1  0  0  0  0
 40 71  1  0  0  0  0
M  END
> <PUBCHEM_COMPOUND_CID>
23267

> <PUBCHEM_COMPOUND_CANONICALIZED>
1

> <PUBCHEM_CACTVS_COMPLEXITY>
957

> <PUBCHEM_CACTVS_HBOND_ACCEPTOR>
16

> <PUBCHEM_CACTVS_HBOND_DONOR>
13

> <PUBCHEM_CACTVS_ROTATABLE_BOND>
10

> <PUBCHEM_CACTVS_SUBSKEYS>
AAADcfB7vAAAAAAAAAAAAAAAAAAAASAAAAA0QAAAAAAAAAAAAAAAHgAQCAAADHzxgAcDCALABgAoAAgQpAIAAAEAAAAAAIFIAAATEBYAwAAnQAAHMAAXAAHycA8KAAAAAAAAAAACgAAUCACgAAAAAAAAAA==

> <PUBCHEM_IUPAC_OPENEYE_NAME>
2-[(1S,2R,3R,4S,5R,6R)-2-[(2R,3R,4R,5S)-3-[(2S,3S,4S,5R,6S)-4,5-dihydroxy-6-(hydroxymethyl)-3-(methylamino)tetrahydropyran-2-yl]oxy-4-formyl-4-hydroxy-5-(hydroxymethyl)tetrahydrofuran-2-yl]oxy-5-guanidino-3,4,6-trihydroxy-cyclohexyl]guanidine

> <PUBCHEM_IUPAC_CAS_NAME>
2-[(1R,2R,3S,4R,5R,6S)-3-(diaminomethylideneamino)-4-[[(2R,3R,4R,5S)-3-[[(2S,3S,4S,5R,6S)-4,5-dihydroxy-6-(hydroxymethyl)-3-(methylamino)-2-oxanyl]oxy]-4-formyl-4-hydroxy-5-(hydroxymethyl)-2-oxolanyl]oxy]-2,5,6-trihydroxycyclohexyl]guanidine

> <PUBCHEM_IUPAC_NAME>
2-[(1R,2R,3S,4R,5R,6S)-3-(diaminomethylideneamino)-4-[(2R,3R,4R,5S)-3-[(2S,3S,4S,5R,6S)-4,5-dihydroxy-6-(hydroxymethyl)-3-(methylamino)oxan-2-yl]oxy-4-formyl-4-hydroxy-5-(hydroxymethyl)oxolan-2-yl]oxy-2,5,6-trihydroxycyclohexyl]guanidine

> <PUBCHEM_IUPAC_SYSTEMATIC_NAME>
2-[(1R,2R,3S,4R,5R,6S)-3-[bis(azanyl)methylideneamino]-4-[(2R,3R,4R,5S)-5-(hydroxymethyl)-3-[(2S,3S,4S,5R,6S)-6-(hydroxymethyl)-3-(methylamino)-4,5-bis(oxidanyl)oxan-2-yl]oxy-4-methanoyl-4-oxidanyl-oxolan-2-yl]oxy-2,5,6-tris(oxidanyl)cyclohexyl]guanidine

> <PUBCHEM_IUPAC_TRADITIONAL_NAME>
2-[(1S,2R,3R,4S,5R,6R)-2-[(2R,3R,4R,5S)-3-[(2S,3S,4S,5R,6S)-4,5-dihydroxy-3-(methylamino)-6-methylol-tetrahydropyran-2-yl]oxy-4-formyl-4-hydroxy-5-methylol-tetrahydrofuran-2-yl]oxy-5-guanidino-3,4,6-trihydroxy-cyclohexyl]guanidine

> <PUBCHEM_IUPAC_INCHI>
InChI=1S/C21H39N7O13/c1-26-9-13(35)10(32)5(2-29)38-17(9)41-16-18(39-6(3-30)21(16,37)4-31)40-15-8(28-20(24)25)11(33)7(27-19(22)23)12(34)14(15)36/h4-18,26,29-30,32-37H,2-3H2,1H3,(H4,22,23,27)(H4,24,25,28)/t5-,6-,7+,8-,9-,10-,11+,12-,13-,14+,15+,16-,17-,18-,21+/m0/s1

> <PUBCHEM_IUPAC_INCHIKEY>
OFNXOACBUMGOPC-HZYVHMACSA-N

> <PUBCHEM_XLOGP3_AA>
-8.5

> <PUBCHEM_EXACT_MASS>
597.260584

> <PUBCHEM_MOLECULAR_FORMULA>
C21H39N7O13

> <PUBCHEM_MOLECULAR_WEIGHT>
597.57346

> <PUBCHEM_OPENEYE_CAN_SMILES>
CNC1C(C(C(OC1OC2C(OC(C2(C=O)O)CO)OC3C(C(C(C(C3O)O)N=C(N)N)O)N=C(N)N)CO)O)O

> <PUBCHEM_OPENEYE_ISO_SMILES>
CN[C@H]1[C@@H]([C@H]([C@@H](O[C@H]1O[C@H]2[C@@H](O[C@H]([C@@]2(C=O)O)CO)O[C@@H]3[C@H]([C@@H]([C@H]([C@@H]([C@H]3O)O)N=C(N)N)O)N=C(N)N)CO)O)O

> <PUBCHEM_CACTVS_TPSA>
357

> <PUBCHEM_MONOISOTOPIC_WEIGHT>
597.260584

> <PUBCHEM_TOTAL_CHARGE>
0

> <PUBCHEM_HEAVY_ATOM_COUNT>
41

> <PUBCHEM_ATOM_DEF_STEREO_COUNT>
15

> <PUBCHEM_ATOM_UDEF_STEREO_COUNT>
0

> <PUBCHEM_BOND_DEF_STEREO_COUNT>
0

> <PUBCHEM_BOND_UDEF_STEREO_COUNT>
0

> <PUBCHEM_ISOTOPIC_ATOM_COUNT>
0

> <PUBCHEM_COMPONENT_COUNT>
1

> <PUBCHEM_CACTVS_TAUTO_COUNT>
4

> <PUBCHEM_COORDINATE_TYPE>
1
5
255

> <PUBCHEM_BONDANNOTATIONS>
22  1  5
24  1  5
34  10  5
25  14  6
30  15  6
32  16  5
27  36  6
21  3  6
31  3  5
35  38  6
23  5  6
26  6  6
28  7  5
29  8  5
33  9  6

$$$$

