287955
  -OEChem-07051212523D

 10  9  0     0  0  0  0  0  0999 V2000
   -2.6147    0.3087    0.0517 Cl  0  0  0  0  0  0  0  0  0  0  0  0
    2.2581    0.5613   -0.1354 O   0  0  0  0  0  0  0  0  0  0  0  0
    1.3879   -0.5472    0.0436 C   0  0  0  0  0  0  0  0  0  0  0  0
    0.0269   -0.0392    0.3899 C   0  0  0  0  0  0  0  0  0  0  0  0
   -1.0582   -0.2836   -0.3497 C   0  0  0  0  0  0  0  0  0  0  0  0
    1.7771   -1.1599    0.8621 H   0  0  0  0  0  0  0  0  0  0  0  0
    1.3960   -1.1506   -0.8698 H   0  0  0  0  0  0  0  0  0  0  0  0
   -0.0589    0.5566    1.2953 H   0  0  0  0  0  0  0  0  0  0  0  0
   -1.0579   -0.8660   -1.2613 H   0  0  0  0  0  0  0  0  0  0  0  0
    1.9342    1.0711   -0.8979 H   0  0  0  0  0  0  0  0  0  0  0  0
  1  5  1  0  0  0  0
  2  3  1  0  0  0  0
  2 10  1  0  0  0  0
  3  4  1  0  0  0  0
  3  6  1  0  0  0  0
  3  7  1  0  0  0  0
  4  5  2  0  0  0  0
  4  8  1  0  0  0  0
  5  9  1  0  0  0  0
M  END
> <PUBCHEM_COMPOUND_CID>
287955

> <PUBCHEM_CONFORMER_RMSD>
0.4

> <PUBCHEM_CONFORMER_DIVERSEORDER>
2
3
1

> <PUBCHEM_MMFF94_PARTIAL_CHARGES>
8
1 -0.14
10 0.4
2 -0.68
3 0.42
4 -0.29
5 -0.01
8 0.15
9 0.15

> <PUBCHEM_EFFECTIVE_ROTOR_COUNT>
1

> <PUBCHEM_PHARMACOPHORE_FEATURES>
2
1 2 acceptor
1 2 donor

> <PUBCHEM_HEAVY_ATOM_COUNT>
5

> <PUBCHEM_ATOM_DEF_STEREO_COUNT>
0

> <PUBCHEM_ATOM_UDEF_STEREO_COUNT>
0

> <PUBCHEM_BOND_DEF_STEREO_COUNT>
1

> <PUBCHEM_BOND_UDEF_STEREO_COUNT>
0

> <PUBCHEM_ISOTOPIC_ATOM_COUNT>
0

> <PUBCHEM_COMPONENT_COUNT>
1

> <PUBCHEM_CACTVS_TAUTO_COUNT>
1

> <PUBCHEM_CONFORMER_ID>
000464D300000002

> <PUBCHEM_MMFF94_ENERGY>
1.6883

> <PUBCHEM_FEATURE_SELFOVERLAP>
10.148

> <PUBCHEM_SHAPE_FINGERPRINT>
139733 1 18059858358972212522
14390081 3 18335706022345258777
16714656 1 17458062672869134381
20096714 4 18342177739206709788
29004967 10 16773793718708902241
5460574 1 9439404631526162027

> <PUBCHEM_SHAPE_MULTIPOLES>
98.9
3.52
0.75
0.67
0.69
0.01
0.01
-0.62
-0.14
-0.11
-0.01
0.06
0.01
-0.08

> <PUBCHEM_SHAPE_SELFOVERLAP>
163.92

> <PUBCHEM_SHAPE_VOLUME>
68.4

> <PUBCHEM_COORDINATE_TYPE>
2
5
10

$$$$

