21632
  -OEChem-07051213072D

 25 25  0     0  0  0  0  0  0999 V2000
    3.4030    1.9050    0.0000 O   0  0  0  0  0  0  0  0  0  0  0  0
    2.5369   -1.5950    0.0000 O   0  0  0  0  0  0  0  0  0  0  0  0
    4.2690   -2.5950    0.0000 O   0  0  0  0  0  0  0  0  0  0  0  0
    5.1350    1.9050    0.0000 C   0  0  0  0  0  0  0  0  0  0  0  0
    4.2690    1.4050    0.0000 C   0  0  0  0  0  0  0  0  0  0  0  0
    4.2690    0.4050    0.0000 C   0  0  0  0  0  0  0  0  0  0  0  0
    5.1350    2.9050    0.0000 C   0  0  0  0  0  0  0  0  0  0  0  0
    6.0010    1.4050    0.0000 C   0  0  0  0  0  0  0  0  0  0  0  0
    3.4030   -0.0950    0.0000 C   0  0  0  0  0  0  0  0  0  0  0  0
    5.1350   -0.0950    0.0000 C   0  0  0  0  0  0  0  0  0  0  0  0
    3.4030   -1.0950    0.0000 C   0  0  0  0  0  0  0  0  0  0  0  0
    5.1350   -1.0950    0.0000 C   0  0  0  0  0  0  0  0  0  0  0  0
    4.2690   -1.5950    0.0000 C   0  0  0  0  0  0  0  0  0  0  0  0
    5.1350    1.2850    0.0000 H   0  0  0  0  0  0  0  0  0  0  0  0
    5.6910    0.8681    0.0000 H   0  0  0  0  0  0  0  0  0  0  0  0
    6.5380    1.0950    0.0000 H   0  0  0  0  0  0  0  0  0  0  0  0
    5.7550    2.9050    0.0000 H   0  0  0  0  0  0  0  0  0  0  0  0
    5.1350    3.5250    0.0000 H   0  0  0  0  0  0  0  0  0  0  0  0
    4.5150    2.9050    0.0000 H   0  0  0  0  0  0  0  0  0  0  0  0
    6.3110    1.9419    0.0000 H   0  0  0  0  0  0  0  0  0  0  0  0
    2.8660    0.2150    0.0000 H   0  0  0  0  0  0  0  0  0  0  0  0
    5.6720    0.2150    0.0000 H   0  0  0  0  0  0  0  0  0  0  0  0
    5.6720   -1.4050    0.0000 H   0  0  0  0  0  0  0  0  0  0  0  0
    2.0000   -1.2850    0.0000 H   0  0  0  0  0  0  0  0  0  0  0  0
    4.8059   -2.9050    0.0000 H   0  0  0  0  0  0  0  0  0  0  0  0
  1  5  2  0  0  0  0
  2 11  1  0  0  0  0
  2 24  1  0  0  0  0
  3 13  1  0  0  0  0
  3 25  1  0  0  0  0
  4  5  1  0  0  0  0
  4  7  1  0  0  0  0
  4  8  1  0  0  0  0
  4 14  1  0  0  0  0
  5  6  1  0  0  0  0
  6  9  2  0  0  0  0
  6 10  1  0  0  0  0
  7 17  1  0  0  0  0
  7 18  1  0  0  0  0
  7 19  1  0  0  0  0
  8 15  1  0  0  0  0
  8 16  1  0  0  0  0
  8 20  1  0  0  0  0
  9 11  1  0  0  0  0
  9 21  1  0  0  0  0
 10 12  2  0  0  0  0
 10 22  1  0  0  0  0
 11 13  2  0  0  0  0
 12 13  1  0  0  0  0
 12 23  1  0  0  0  0
M  END
> <PUBCHEM_COMPOUND_CID>
21632

> <PUBCHEM_COMPOUND_CANONICALIZED>
1

> <PUBCHEM_CACTVS_COMPLEXITY>
189

> <PUBCHEM_CACTVS_HBOND_ACCEPTOR>
3

> <PUBCHEM_CACTVS_HBOND_DONOR>
2

> <PUBCHEM_CACTVS_ROTATABLE_BOND>
2

> <PUBCHEM_CACTVS_SUBSKEYS>
AAADccBwMAAAAAAAAAAAAAAAAAAAAAAAAAAwAAAAAAAAAAABAAAAGgAACAAADQSAmAAyBoAAAgCIAqBSAAACAAAkIAAIiAEGiMgJJjKCFRKAcQEkwBEJmYeKzPDOIAABAAAAQABAAAIAAACAAAAAAAAAAA==

> <PUBCHEM_IUPAC_OPENEYE_NAME>
1-(3,4-dihydroxyphenyl)-2-methyl-propan-1-one

> <PUBCHEM_IUPAC_CAS_NAME>
1-(3,4-dihydroxyphenyl)-2-methyl-1-propanone

> <PUBCHEM_IUPAC_NAME>
1-(3,4-dihydroxyphenyl)-2-methylpropan-1-one

> <PUBCHEM_IUPAC_SYSTEMATIC_NAME>
1-[3,4-bis(oxidanyl)phenyl]-2-methyl-propan-1-one

> <PUBCHEM_IUPAC_TRADITIONAL_NAME>
1-(3,4-dihydroxyphenyl)-2-methyl-propan-1-one

> <PUBCHEM_IUPAC_INCHI>
InChI=1S/C10H12O3/c1-6(2)10(13)7-3-4-8(11)9(12)5-7/h3-6,11-12H,1-2H3

> <PUBCHEM_IUPAC_INCHIKEY>
VDQLKIBLTMPAHI-UHFFFAOYSA-N

> <PUBCHEM_XLOGP3>
2.6

> <PUBCHEM_EXACT_MASS>
180.078644

> <PUBCHEM_MOLECULAR_FORMULA>
C10H12O3

> <PUBCHEM_MOLECULAR_WEIGHT>
180.20048

> <PUBCHEM_OPENEYE_CAN_SMILES>
CC(C)C(=O)C1=CC(=C(C=C1)O)O

> <PUBCHEM_OPENEYE_ISO_SMILES>
CC(C)C(=O)C1=CC(=C(C=C1)O)O

> <PUBCHEM_CACTVS_TPSA>
57.5

> <PUBCHEM_MONOISOTOPIC_WEIGHT>
180.078644

> <PUBCHEM_TOTAL_CHARGE>
0

> <PUBCHEM_HEAVY_ATOM_COUNT>
13

> <PUBCHEM_ATOM_DEF_STEREO_COUNT>
0

> <PUBCHEM_ATOM_UDEF_STEREO_COUNT>
0

> <PUBCHEM_BOND_DEF_STEREO_COUNT>
0

> <PUBCHEM_BOND_UDEF_STEREO_COUNT>
0

> <PUBCHEM_ISOTOPIC_ATOM_COUNT>
0

> <PUBCHEM_COMPONENT_COUNT>
1

> <PUBCHEM_CACTVS_TAUTO_COUNT>
47

> <PUBCHEM_COORDINATE_TYPE>
1
5
255

> <PUBCHEM_BONDANNOTATIONS>
10  12  8
11  13  8
12  13  8
6  10  8
6  9  8
9  11  8

$$$$

