9296
  -OEChem-06261203343D

 30 29  0     1  0  0  0  0  0999 V2000
   -4.5263    0.2042    0.1323 S   0  0  0  0  0  0  0  0  0  0  0  0
    4.5349   -0.1784    0.1374 S   0  0  0  0  0  0  0  0  0  0  0  0
   -3.0374   -0.4612    0.1694 O   0  0  0  0  0  0  0  0  0  0  0  0
    3.0351    0.4630    0.1508 O   0  0  0  0  0  0  0  0  0  0  0  0
   -0.6601   -1.3206   -0.9653 O   0  0  0  0  0  0  0  0  0  0  0  0
    0.6188    1.2459   -1.0133 O   0  0  0  0  0  0  0  0  0  0  0  0
   -4.7597    0.7918   -1.1713 O   0  0  0  0  0  0  0  0  0  0  0  0
   -4.7568    0.9399    1.3590 O   0  0  0  0  0  0  0  0  0  0  0  0
    4.7788   -0.8078   -1.1446 O   0  0  0  0  0  0  0  0  0  0  0  0
    4.7768   -0.8664    1.3893 O   0  0  0  0  0  0  0  0  0  0  0  0
   -0.6355   -0.4480    0.1656 C   0  0  1  0  0  0  0  0  0  0  0  0
    0.6361    0.4128    0.1477 C   0  0  1  0  0  0  0  0  0  0  0  0
   -1.9044    0.4007    0.1175 C   0  0  0  0  0  0  0  0  0  0  0  0
    1.9167   -0.4187    0.1295 C   0  0  0  0  0  0  0  0  0  0  0  0
   -5.4324   -1.3191    0.2225 C   0  0  0  0  0  0  0  0  0  0  0  0
    5.4156    1.3619    0.1736 C   0  0  0  0  0  0  0  0  0  0  0  0
   -0.6575   -1.0815    1.0604 H   0  0  0  0  0  0  0  0  0  0  0  0
    0.6429    1.0820    1.0162 H   0  0  0  0  0  0  0  0  0  0  0  0
   -1.9360    1.0935    0.9652 H   0  0  0  0  0  0  0  0  0  0  0  0
   -1.9571    0.9706   -0.8168 H   0  0  0  0  0  0  0  0  0  0  0  0
    1.9580   -1.0821    0.9998 H   0  0  0  0  0  0  0  0  0  0  0  0
    1.9811   -1.0156   -0.7864 H   0  0  0  0  0  0  0  0  0  0  0  0
    0.0051   -2.0139   -0.8187 H   0  0  0  0  0  0  0  0  0  0  0  0
    1.4335    1.7769   -1.0026 H   0  0  0  0  0  0  0  0  0  0  0  0
   -5.1751   -1.8294    1.1524 H   0  0  0  0  0  0  0  0  0  0  0  0
   -6.4982   -1.0815    0.2096 H   0  0  0  0  0  0  0  0  0  0  0  0
   -5.1769   -1.9346   -0.6421 H   0  0  0  0  0  0  0  0  0  0  0  0
    5.1502    1.9421   -0.7121 H   0  0  0  0  0  0  0  0  0  0  0  0
    5.1494    1.9004    1.0850 H   0  0  0  0  0  0  0  0  0  0  0  0
    6.4852    1.1417    0.1690 H   0  0  0  0  0  0  0  0  0  0  0  0
  1  3  1  0  0  0  0
  1  7  2  0  0  0  0
  1  8  2  0  0  0  0
  1 15  1  0  0  0  0
  2  4  1  0  0  0  0
  2  9  2  0  0  0  0
  2 10  2  0  0  0  0
  2 16  1  0  0  0  0
  3 13  1  0  0  0  0
  4 14  1  0  0  0  0
  5 11  1  0  0  0  0
  5 23  1  0  0  0  0
  6 12  1  0  0  0  0
  6 24  1  0  0  0  0
 11 12  1  0  0  0  0
 11 13  1  0  0  0  0
 11 17  1  0  0  0  0
 12 14  1  0  0  0  0
 12 18  1  0  0  0  0
 13 19  1  0  0  0  0
 13 20  1  0  0  0  0
 14 21  1  0  0  0  0
 14 22  1  0  0  0  0
 15 25  1  0  0  0  0
 15 26  1  0  0  0  0
 15 27  1  0  0  0  0
 16 28  1  0  0  0  0
 16 29  1  0  0  0  0
 16 30  1  0  0  0  0
M  END
> <PUBCHEM_COMPOUND_CID>
9296

> <PUBCHEM_CONFORMER_RMSD>
0.8

> <PUBCHEM_CONFORMER_DIVERSEORDER>
1
26
163
76
215
138
130
188
5
152
115
134
169
118
208
11
69
87
184
113
63
92
2
148
86
32
204
129
102
89
8
131
93
136
125
47
105
21
88
145
218
171
162
167
197
104
9
98
156
194
13
7
84
122
62
140
52
135
119
31
143
22
217
90
25
30
209
183
56
14
137
187
164
4
95
48
159
78
114
49
16
6
139
132
147
12
198
199
100
175
146
144
97
81
214
203
17
126
73
44
213
178
33
65
101
70
195
38
191
212
74
106
58
173
3
29
141
19
127
149
166
99
53
121
170
77
55
61
181
15
185
28
111
60
160
66
192
51
54
91
193
27
71
50
40
79
207
182
210
85
75
190
37
155
201
200
39
196
116
153
211
108
142
151
133
36
220
110
57
24
174
206
177
150
10
64
157
158
180
20
45
128
59
117
189
68
80
154
103
43
161
205
219
46
172
23
165
109
176
202
179
216
67
34
41
42
120
18
82
83
72
94
112
168
123
96
35
107
124
186

> <PUBCHEM_MMFF94_PARTIAL_CHARGES>
18
1 1.38
10 -0.65
11 0.28
12 0.28
13 0.28
14 0.28
15 0.11
16 0.11
2 1.38
23 0.4
24 0.4
3 -0.46
4 -0.46
5 -0.68
6 -0.68
7 -0.65
8 -0.65
9 -0.65

> <PUBCHEM_EFFECTIVE_ROTOR_COUNT>
7

> <PUBCHEM_PHARMACOPHORE_FEATURES>
8
1 10 acceptor
1 5 acceptor
1 5 donor
1 6 acceptor
1 6 donor
1 7 acceptor
1 8 acceptor
1 9 acceptor

> <PUBCHEM_HEAVY_ATOM_COUNT>
16

> <PUBCHEM_ATOM_DEF_STEREO_COUNT>
0

> <PUBCHEM_ATOM_UDEF_STEREO_COUNT>
2

> <PUBCHEM_BOND_DEF_STEREO_COUNT>
0

> <PUBCHEM_BOND_UDEF_STEREO_COUNT>
0

> <PUBCHEM_ISOTOPIC_ATOM_COUNT>
0

> <PUBCHEM_COMPONENT_COUNT>
1

> <PUBCHEM_CACTVS_TAUTO_COUNT>
1

> <PUBCHEM_CONFORMER_ID>
0000245000000001

> <PUBCHEM_MMFF94_ENERGY>
19.6435

> <PUBCHEM_FEATURE_SELFOVERLAP>
40.633

> <PUBCHEM_SHAPE_FINGERPRINT>
11287383 113 18410855434542993978
117890 112 17530963592320435064
12091667 2 17489869340905463585
12596602 18 18411419501024415145
13533116 47 16153701068551691534
14123238 8 18410855451538227243
1420 363 18187359918152951955
14251718 22 18341613685436150467
14251732 16 18339079259473122115
15048467 5 18187646869445229768
17834072 33 18060138721541889515
17834076 25 17530963571051112168
17844677 252 17989204849831094228
18785283 64 16199009597395432132
20281389 69 17632019749316941637
20645477 70 17604140524103868742
21150785 3 18339360755924682518
220451 1 18131344224069921259
23402539 116 18130793365108528781
23559900 14 17749105561589896532
300161 21 18187936036750227528
42788 4 18335138687298494704
5374978 207 18060144245661175104
542803 24 17967532376119806752

> <PUBCHEM_SHAPE_MULTIPOLES>
290.02
14.38
1.22
1.02
0.08
0
0
0.13
1.59
0
-0.07
0
0
-0.07

> <PUBCHEM_SHAPE_SELFOVERLAP>
529.69

> <PUBCHEM_SHAPE_VOLUME>
185.4

> <PUBCHEM_COORDINATE_TYPE>
2
5
10

$$$$

