4396
  -OEChem-06261200052D

 47 50  0     1  0  0  0  0  0999 V2000
    5.2686    3.1419    0.0000 O   0  0  0  0  0  0  0  0  0  0  0  0
    7.6146    2.0500    0.0000 O   0  0  0  0  0  0  0  0  0  0  0  0
    7.6183    4.2256    0.0000 O   0  0  0  0  0  0  0  0  0  0  0  0
    6.2208    5.6434    0.0000 O   0  0  0  0  0  0  0  0  0  0  0  0
    5.5443    1.3813    0.0000 N   0  0  0  0  0  0  0  0  0  0  0  0
    5.5443   -0.2282    0.0000 N   0  0  0  0  0  0  0  0  0  0  0  0
    3.7320    1.5766    0.0000 N   0  0  0  0  0  0  0  0  0  0  0  0
    3.7320   -1.4234    0.0000 N   0  0  0  0  0  0  0  0  0  0  0  0
    2.8660    0.0766    0.0000 N   0  0  0  0  0  0  0  0  0  0  0  0
    2.8660   -5.9234    0.0000 N   0  0  0  0  0  0  0  0  0  0  0  0
    6.8066    2.6392    0.0000 C   0  0  3  0  0  0  0  0  0  0  0  0
    5.8550    2.3318    0.0000 C   0  0  3  0  0  0  0  0  0  0  0  0
    6.8083    3.6392    0.0000 C   0  0  3  0  0  0  0  0  0  0  0  0
    5.8578    3.9499    0.0000 C   0  0  3  0  0  0  0  0  0  0  0  0
    5.5504    4.9014    0.0000 C   0  0  0  0  0  0  0  0  0  0  0  0
    4.5981    1.0766    0.0000 C   0  0  0  0  0  0  0  0  0  0  0  0
    6.1279    0.5766    0.0000 C   0  0  0  0  0  0  0  0  0  0  0  0
    4.5981    0.0766    0.0000 C   0  0  0  0  0  0  0  0  0  0  0  0
    3.7320   -0.4234    0.0000 C   0  0  0  0  0  0  0  0  0  0  0  0
    2.8660    1.0766    0.0000 C   0  0  0  0  0  0  0  0  0  0  0  0
    2.8660   -1.9234    0.0000 C   0  0  0  0  0  0  0  0  0  0  0  0
    2.8660   -2.9234    0.0000 C   0  0  0  0  0  0  0  0  0  0  0  0
    2.0000   -3.4234    0.0000 C   0  0  0  0  0  0  0  0  0  0  0  0
    3.7320   -3.4234    0.0000 C   0  0  0  0  0  0  0  0  0  0  0  0
    2.0000   -4.4234    0.0000 C   0  0  0  0  0  0  0  0  0  0  0  0
    3.7320   -4.4234    0.0000 C   0  0  0  0  0  0  0  0  0  0  0  0
    2.8660   -4.9234    0.0000 C   0  0  0  0  0  0  0  0  0  0  0  0
    7.5646    3.0238    0.0000 H   0  0  0  0  0  0  0  0  0  0  0  0
    6.4550    1.7298    0.0000 H   0  0  0  0  0  0  0  0  0  0  0  0
    7.5650    3.2520    0.0000 H   0  0  0  0  0  0  0  0  0  0  0  0
    5.0184    4.0843    0.0000 H   0  0  0  0  0  0  0  0  0  0  0  0
    5.1695    5.3907    0.0000 H   0  0  0  0  0  0  0  0  0  0  0  0
    5.0025    4.6113    0.0000 H   0  0  0  0  0  0  0  0  0  0  0  0
    8.1814    2.3012    0.0000 H   0  0  0  0  0  0  0  0  0  0  0  0
    8.1843    3.9724    0.0000 H   0  0  0  0  0  0  0  0  0  0  0  0
    6.7479    0.5766    0.0000 H   0  0  0  0  0  0  0  0  0  0  0  0
    6.0302    6.2334    0.0000 H   0  0  0  0  0  0  0  0  0  0  0  0
    4.2690   -1.7334    0.0000 H   0  0  0  0  0  0  0  0  0  0  0  0
    2.3291    1.3866    0.0000 H   0  0  0  0  0  0  0  0  0  0  0  0
    2.6540   -1.3408    0.0000 H   0  0  0  0  0  0  0  0  0  0  0  0
    2.2554   -2.0311    0.0000 H   0  0  0  0  0  0  0  0  0  0  0  0
    1.4631   -3.1134    0.0000 H   0  0  0  0  0  0  0  0  0  0  0  0
    4.2690   -3.1134    0.0000 H   0  0  0  0  0  0  0  0  0  0  0  0
    1.4631   -4.7334    0.0000 H   0  0  0  0  0  0  0  0  0  0  0  0
    4.2690   -4.7334    0.0000 H   0  0  0  0  0  0  0  0  0  0  0  0
    2.3291   -6.2334    0.0000 H   0  0  0  0  0  0  0  0  0  0  0  0
    3.4030   -6.2334    0.0000 H   0  0  0  0  0  0  0  0  0  0  0  0
  1 12  1  0  0  0  0
  1 14  1  0  0  0  0
  2 11  1  0  0  0  0
  2 34  1  0  0  0  0
  3 13  1  0  0  0  0
  3 35  1  0  0  0  0
  4 15  1  0  0  0  0
  4 37  1  0  0  0  0
  5 12  1  0  0  0  0
  5 16  1  0  0  0  0
  5 17  1  0  0  0  0
  6 17  2  0  0  0  0
  6 18  1  0  0  0  0
  7 16  1  0  0  0  0
  7 20  2  0  0  0  0
  8 19  1  0  0  0  0
  8 21  1  0  0  0  0
  8 38  1  0  0  0  0
  9 19  2  0  0  0  0
  9 20  1  0  0  0  0
 10 27  1  0  0  0  0
 10 46  1  0  0  0  0
 10 47  1  0  0  0  0
 11 12  1  0  0  0  0
 11 13  1  0  0  0  0
 11 28  1  0  0  0  0
 12 29  1  0  0  0  0
 13 14  1  0  0  0  0
 13 30  1  0  0  0  0
 14 15  1  0  0  0  0
 14 31  1  0  0  0  0
 15 32  1  0  0  0  0
 15 33  1  0  0  0  0
 16 18  2  0  0  0  0
 17 36  1  0  0  0  0
 18 19  1  0  0  0  0
 20 39  1  0  0  0  0
 21 22  1  0  0  0  0
 21 40  1  0  0  0  0
 21 41  1  0  0  0  0
 22 23  2  0  0  0  0
 22 24  1  0  0  0  0
 23 25  1  0  0  0  0
 23 42  1  0  0  0  0
 24 26  2  0  0  0  0
 24 43  1  0  0  0  0
 25 27  2  0  0  0  0
 25 44  1  0  0  0  0
 26 27  1  0  0  0  0
 26 45  1  0  0  0  0
M  END
> <PUBCHEM_COMPOUND_CID>
4396

> <PUBCHEM_COMPOUND_CANONICALIZED>
1

> <PUBCHEM_CACTVS_COMPLEXITY>
494

> <PUBCHEM_CACTVS_HBOND_ACCEPTOR>
9

> <PUBCHEM_CACTVS_HBOND_DONOR>
5

> <PUBCHEM_CACTVS_ROTATABLE_BOND>
5

> <PUBCHEM_CACTVS_SUBSKEYS>
AAADceB7uAAAAAAAAAAAAAAAAAAAAWJAAAA8QAAAAAAAAFgB/AAAHgAQCAAADBzhnwY18L/MFgCgAyZjZACCgC0xEqAJ2KAodJiLeCLA2dGeZAhvkALbyCfwsAIOCAAAAAAAAAAQAAAAAAAAAAAAAAAAAA==

> <PUBCHEM_IUPAC_OPENEYE_NAME>
2-[6-[(4-aminophenyl)methylamino]purin-9-yl]-5-(hydroxymethyl)tetrahydrofuran-3,4-diol

> <PUBCHEM_IUPAC_CAS_NAME>
2-[6-[(4-aminophenyl)methylamino]-9-purinyl]-5-(hydroxymethyl)oxolane-3,4-diol

> <PUBCHEM_IUPAC_NAME>
2-[6-[(4-aminophenyl)methylamino]purin-9-yl]-5-(hydroxymethyl)oxolane-3,4-diol

> <PUBCHEM_IUPAC_SYSTEMATIC_NAME>
2-[6-[(4-aminophenyl)methylamino]purin-9-yl]-5-(hydroxymethyl)oxolane-3,4-diol

> <PUBCHEM_IUPAC_TRADITIONAL_NAME>
2-[6-[(4-aminobenzyl)amino]purin-9-yl]-5-methylol-tetrahydrofuran-3,4-diol

> <PUBCHEM_IUPAC_INCHI>
InChI=1S/C17H20N6O4/c18-10-3-1-9(2-4-10)5-19-15-12-16(21-7-20-15)23(8-22-12)17-14(26)13(25)11(6-24)27-17/h1-4,7-8,11,13-14,17,24-26H,5-6,18H2,(H,19,20,21)

> <PUBCHEM_IUPAC_INCHIKEY>
PMUVNAUPWLXPSA-UHFFFAOYSA-N

> <PUBCHEM_XLOGP3>
0.4

> <PUBCHEM_EXACT_MASS>
372.154603

> <PUBCHEM_MOLECULAR_FORMULA>
C17H20N6O4

> <PUBCHEM_MOLECULAR_WEIGHT>
372.3785

> <PUBCHEM_OPENEYE_CAN_SMILES>
C1=CC(=CC=C1CNC2=NC=NC3=C2N=CN3C4C(C(C(O4)CO)O)O)N

> <PUBCHEM_OPENEYE_ISO_SMILES>
C1=CC(=CC=C1CNC2=NC=NC3=C2N=CN3C4C(C(C(O4)CO)O)O)N

> <PUBCHEM_CACTVS_TPSA>
152

> <PUBCHEM_MONOISOTOPIC_WEIGHT>
372.154603

> <PUBCHEM_TOTAL_CHARGE>
0

> <PUBCHEM_HEAVY_ATOM_COUNT>
27

> <PUBCHEM_ATOM_DEF_STEREO_COUNT>
0

> <PUBCHEM_ATOM_UDEF_STEREO_COUNT>
4

> <PUBCHEM_BOND_DEF_STEREO_COUNT>
0

> <PUBCHEM_BOND_UDEF_STEREO_COUNT>
0

> <PUBCHEM_ISOTOPIC_ATOM_COUNT>
0

> <PUBCHEM_COMPONENT_COUNT>
1

> <PUBCHEM_CACTVS_TAUTO_COUNT>
3

> <PUBCHEM_COORDINATE_TYPE>
1
5
255

> <PUBCHEM_BONDANNOTATIONS>
11  28  3
12  29  3
13  30  3
14  31  3
16  18  8
18  19  8
22  23  8
22  24  8
23  25  8
24  26  8
25  27  8
26  27  8
5  16  8
5  17  8
6  17  8
6  18  8
7  16  8
7  20  8
9  19  8
9  20  8

$$$$

