22179
  -OEChem-07051213092D

 42 45  0     1  0  0  0  0  0999 V2000
    5.5103    1.4129    0.0000 O   0  0  0  0  0  0  0  0  0  0  0  0
    7.2762    2.4507    0.0000 O   0  0  0  0  0  0  0  0  0  0  0  0
    2.8680   -0.0944    0.0000 O   0  0  0  0  0  0  0  0  0  0  0  0
    2.8680   -2.1427    0.0000 O   0  0  0  0  0  0  0  0  0  0  0  0
    8.1223   -2.1155    0.0000 N   0  0  0  0  0  0  0  0  0  0  0  0
    7.2641   -1.6186    0.0000 C   0  0  2  0  0  0  0  0  0  0  0  0
    7.2641   -0.6186    0.0000 C   0  0  0  0  0  0  0  0  0  0  0  0
    6.3981   -2.1186    0.0000 C   0  0  0  0  0  0  0  0  0  0  0  0
    8.1741   -0.1117    0.0000 C   0  0  0  0  0  0  0  0  0  0  0  0
    6.3981   -0.1186    0.0000 C   0  0  0  0  0  0  0  0  0  0  0  0
    9.0134   -0.6400    0.0000 C   0  0  0  0  0  0  0  0  0  0  0  0
    5.5320   -1.6186    0.0000 C   0  0  0  0  0  0  0  0  0  0  0  0
    8.9878   -1.6313    0.0000 C   0  0  0  0  0  0  0  0  0  0  0  0
    5.5320   -0.6186    0.0000 C   0  0  0  0  0  0  0  0  0  0  0  0
    6.3820    0.9229    0.0000 C   0  0  0  0  0  0  0  0  0  0  0  0
    8.1821    0.9299    0.0000 C   0  0  0  0  0  0  0  0  0  0  0  0
    7.2800    1.4507    0.0000 C   0  0  0  0  0  0  0  0  0  0  0  0
    4.6381   -2.1532    0.0000 C   0  0  0  0  0  0  0  0  0  0  0  0
    4.6381   -0.0839    0.0000 C   0  0  0  0  0  0  0  0  0  0  0  0
    3.7320   -0.5978    0.0000 C   0  0  0  0  0  0  0  0  0  0  0  0
    3.7320   -1.6394    0.0000 C   0  0  0  0  0  0  0  0  0  0  0  0
    5.4987    2.4128    0.0000 C   0  0  0  0  0  0  0  0  0  0  0  0
    2.0000   -0.5911    0.0000 C   0  0  0  0  0  0  0  0  0  0  0  0
    7.2636   -2.4686    0.0000 H   0  0  0  0  0  0  0  0  0  0  0  0
    5.9995   -2.5935    0.0000 H   0  0  0  0  0  0  0  0  0  0  0  0
    6.7966   -2.5935    0.0000 H   0  0  0  0  0  0  0  0  0  0  0  0
    8.1177   -2.7355    0.0000 H   0  0  0  0  0  0  0  0  0  0  0  0
    9.6205   -0.7659    0.0000 H   0  0  0  0  0  0  0  0  0  0  0  0
    9.2452   -0.0649    0.0000 H   0  0  0  0  0  0  0  0  0  0  0  0
    9.1895   -2.2176    0.0000 H   0  0  0  0  0  0  0  0  0  0  0  0
    9.6006   -1.5370    0.0000 H   0  0  0  0  0  0  0  0  0  0  0  0
    8.7203    1.2378    0.0000 H   0  0  0  0  0  0  0  0  0  0  0  0
    4.6453   -2.7732    0.0000 H   0  0  0  0  0  0  0  0  0  0  0  0
    4.6453    0.5360    0.0000 H   0  0  0  0  0  0  0  0  0  0  0  0
    7.8119    2.7627    0.0000 H   0  0  0  0  0  0  0  0  0  0  0  0
    6.1187    2.4200    0.0000 H   0  0  0  0  0  0  0  0  0  0  0  0
    5.4915    3.0328    0.0000 H   0  0  0  0  0  0  0  0  0  0  0  0
    4.8787    2.4056    0.0000 H   0  0  0  0  0  0  0  0  0  0  0  0
    2.8703   -2.7627    0.0000 H   0  0  0  0  0  0  0  0  0  0  0  0
    1.6921   -0.0530    0.0000 H   0  0  0  0  0  0  0  0  0  0  0  0
    1.4619   -0.8990    0.0000 H   0  0  0  0  0  0  0  0  0  0  0  0
    2.3079   -1.1292    0.0000 H   0  0  0  0  0  0  0  0  0  0  0  0
  1 15  1  0  0  0  0
  1 22  1  0  0  0  0
  2 17  1  0  0  0  0
  2 35  1  0  0  0  0
  3 20  1  0  0  0  0
  3 23  1  0  0  0  0
  4 21  1  0  0  0  0
  4 39  1  0  0  0  0
  5  6  1  0  0  0  0
  5 13  1  0  0  0  0
  5 27  1  0  0  0  0
  6  7  1  0  0  0  0
  6  8  1  0  0  0  0
  6 24  1  6  0  0  0
  7  9  1  0  0  0  0
  7 10  2  0  0  0  0
  8 12  1  0  0  0  0
  8 25  1  0  0  0  0
  8 26  1  0  0  0  0
  9 11  1  0  0  0  0
  9 16  2  0  0  0  0
 10 14  1  0  0  0  0
 10 15  1  0  0  0  0
 11 13  1  0  0  0  0
 11 28  1  0  0  0  0
 11 29  1  0  0  0  0
 12 14  1  0  0  0  0
 12 18  2  0  0  0  0
 13 30  1  0  0  0  0
 13 31  1  0  0  0  0
 14 19  2  0  0  0  0
 15 17  2  0  0  0  0
 16 17  1  0  0  0  0
 16 32  1  0  0  0  0
 18 21  1  0  0  0  0
 18 33  1  0  0  0  0
 19 20  1  0  0  0  0
 19 34  1  0  0  0  0
 20 21  2  0  0  0  0
 22 36  1  0  0  0  0
 22 37  1  0  0  0  0
 22 38  1  0  0  0  0
 23 40  1  0  0  0  0
 23 41  1  0  0  0  0
 23 42  1  0  0  0  0
M  END
> <PUBCHEM_COMPOUND_CID>
22179

> <PUBCHEM_COMPOUND_CANONICALIZED>
1

> <PUBCHEM_CACTVS_COMPLEXITY>
433

> <PUBCHEM_CACTVS_HBOND_ACCEPTOR>
5

> <PUBCHEM_CACTVS_HBOND_DONOR>
3

> <PUBCHEM_CACTVS_ROTATABLE_BOND>
2

> <PUBCHEM_CACTVS_SUBSKEYS>
AAADceB6OAAAAAAAAAAAAAAAAAAAAAAAAAA8YMEAAAAAAADxQAAAHgAQCAAADCzBmAYyBoLABgCAAiBCAACCCAAgIAAAiIAOjIgNJiKGsRuEcCtk0BGLuAew8P8OoAADAAAYQADQAAaAADSAAAAAAAAAAA==

> <PUBCHEM_IUPAC_OPENEYE_NAME>
(8S)-1,13-dimethoxy-5,6,6a,7-tetrahydro-4H-dibenzo[de,g]quinoline-2,12-diol

> <PUBCHEM_IUPAC_CAS_NAME>
(8S)-1,13-dimethoxy-5,6,6a,7-tetrahydro-4H-dibenzo[de,g]quinoline-2,12-diol

> <PUBCHEM_IUPAC_NAME>
(8S)-1,13-dimethoxy-5,6,6a,7-tetrahydro-4H-dibenzo[de,g]quinoline-2,12-diol

> <PUBCHEM_IUPAC_SYSTEMATIC_NAME>
(8S)-1,13-dimethoxy-5,6,6a,7-tetrahydro-4H-dibenzo[de,g]quinoline-2,12-diol

> <PUBCHEM_IUPAC_TRADITIONAL_NAME>
(8S)-1,13-dimethoxy-5,6,6a,7-tetrahydro-4H-dibenzo[de,g]quinoline-2,12-diol

> <PUBCHEM_IUPAC_INCHI>
InChI=1S/C18H19NO4/c1-22-15-8-11-10(7-13(15)20)5-12-16-9(3-4-19-12)6-14(21)18(23-2)17(11)16/h6-8,12,19-21H,3-5H2,1-2H3/t12-/m0/s1

> <PUBCHEM_IUPAC_INCHIKEY>
KYVJVURXKAZJRK-LBPRGKRZSA-N

> <PUBCHEM_XLOGP3_AA>
2.3

> <PUBCHEM_EXACT_MASS>
313.131408

> <PUBCHEM_MOLECULAR_FORMULA>
C18H19NO4

> <PUBCHEM_MOLECULAR_WEIGHT>
313.34776

> <PUBCHEM_OPENEYE_CAN_SMILES>
COC1=C(C=C2CC3C4=C(C2=C1)C(=C(C=C4CCN3)O)OC)O

> <PUBCHEM_OPENEYE_ISO_SMILES>
COC1=C(C=C2C[C@H]3C4=C(C2=C1)C(=C(C=C4CCN3)O)OC)O

> <PUBCHEM_CACTVS_TPSA>
71

> <PUBCHEM_MONOISOTOPIC_WEIGHT>
313.131408

> <PUBCHEM_TOTAL_CHARGE>
0

> <PUBCHEM_HEAVY_ATOM_COUNT>
23

> <PUBCHEM_ATOM_DEF_STEREO_COUNT>
1

> <PUBCHEM_ATOM_UDEF_STEREO_COUNT>
0

> <PUBCHEM_BOND_DEF_STEREO_COUNT>
0

> <PUBCHEM_BOND_UDEF_STEREO_COUNT>
0

> <PUBCHEM_ISOTOPIC_ATOM_COUNT>
0

> <PUBCHEM_COMPONENT_COUNT>
1

> <PUBCHEM_CACTVS_TAUTO_COUNT>
105

> <PUBCHEM_COORDINATE_TYPE>
1
5
255

> <PUBCHEM_BONDANNOTATIONS>
10  15  8
12  14  8
12  18  8
14  19  8
15  17  8
16  17  8
18  21  8
19  20  8
20  21  8
6  24  6
7  10  8
7  9  8
9  16  8

$$$$

