256732
  -OEChem-07051213063D

 32 34  0     0  0  0  0  0  0999 V2000
    0.4703   -1.2740    0.0012 O   0  0  0  0  0  0  0  0  0  0  0  0
    5.2471   -1.9689    0.0000 O   0  0  0  0  0  0  0  0  0  0  0  0
   -1.1119    2.6440   -0.0012 O   0  0  0  0  0  0  0  0  0  0  0  0
   -5.8055   -0.8924   -0.0002 O   0  0  0  0  0  0  0  0  0  0  0  0
    1.8871    0.4854   -0.0006 C   0  0  0  0  0  0  0  0  0  0  0  0
    0.5543    0.9743   -0.0010 C   0  0  0  0  0  0  0  0  0  0  0  0
   -0.2644   -0.1314    0.0000 C   0  0  0  0  0  0  0  0  0  0  0  0
    1.7812   -0.9016    0.0003 C   0  0  0  0  0  0  0  0  0  0  0  0
   -1.6881   -0.3264    0.0001 C   0  0  0  0  0  0  0  0  0  0  0  0
    3.1698    1.0608   -0.0006 C   0  0  0  0  0  0  0  0  0  0  0  0
    2.8722   -1.7690    0.0004 C   0  0  0  0  0  0  0  0  0  0  0  0
    0.1078    2.3380   -0.0002 C   0  0  0  0  0  0  0  0  0  0  0  0
    4.2867    0.2140    0.0000 C   0  0  0  0  0  0  0  0  0  0  0  0
    4.1379   -1.1753    0.0000 C   0  0  0  0  0  0  0  0  0  0  0  0
   -2.3842   -0.4229   -1.2078 C   0  0  0  0  0  0  0  0  0  0  0  0
   -2.3846   -0.4211    1.2080 C   0  0  0  0  0  0  0  0  0  0  0  0
    1.1142    3.4967    0.0012 C   0  0  0  0  0  0  0  0  0  0  0  0
   -3.7660   -0.6125   -1.2079 C   0  0  0  0  0  0  0  0  0  0  0  0
   -3.7665   -0.6109    1.2082 C   0  0  0  0  0  0  0  0  0  0  0  0
   -4.4573   -0.7066    0.0000 C   0  0  0  0  0  0  0  0  0  0  0  0
    3.3383    2.1308   -0.0010 H   0  0  0  0  0  0  0  0  0  0  0  0
    2.7431   -2.8452    0.0009 H   0  0  0  0  0  0  0  0  0  0  0  0
    5.2791    0.6595   -0.0001 H   0  0  0  0  0  0  0  0  0  0  0  0
   -1.8605   -0.3517   -2.1585 H   0  0  0  0  0  0  0  0  0  0  0  0
   -1.8610   -0.3485    2.1586 H   0  0  0  0  0  0  0  0  0  0  0  0
    1.7245    3.4639   -0.9041 H   0  0  0  0  0  0  0  0  0  0  0  0
    1.7245    3.4615    0.9064 H   0  0  0  0  0  0  0  0  0  0  0  0
    0.5658    4.4444    0.0025 H   0  0  0  0  0  0  0  0  0  0  0  0
   -4.2987   -0.6864   -2.1521 H   0  0  0  0  0  0  0  0  0  0  0  0
   -4.2933   -0.6826    2.1560 H   0  0  0  0  0  0  0  0  0  0  0  0
    6.0393   -1.4048   -0.0002 H   0  0  0  0  0  0  0  0  0  0  0  0
   -6.1179   -0.9347    0.9200 H   0  0  0  0  0  0  0  0  0  0  0  0
  1  7  1  0  0  0  0
  1  8  1  0  0  0  0
  2 14  1  0  0  0  0
  2 31  1  0  0  0  0
  3 12  2  0  0  0  0
  4 20  1  0  0  0  0
  4 32  1  0  0  0  0
  5  6  1  0  0  0  0
  5  8  2  0  0  0  0
  5 10  1  0  0  0  0
  6  7  2  0  0  0  0
  6 12  1  0  0  0  0
  7  9  1  0  0  0  0
  8 11  1  0  0  0  0
  9 15  2  0  0  0  0
  9 16  1  0  0  0  0
 10 13  2  0  0  0  0
 10 21  1  0  0  0  0
 11 14  2  0  0  0  0
 11 22  1  0  0  0  0
 12 17  1  0  0  0  0
 13 14  1  0  0  0  0
 13 23  1  0  0  0  0
 15 18  1  0  0  0  0
 15 24  1  0  0  0  0
 16 19  2  0  0  0  0
 16 25  1  0  0  0  0
 17 26  1  0  0  0  0
 17 27  1  0  0  0  0
 17 28  1  0  0  0  0
 18 20  2  0  0  0  0
 18 29  1  0  0  0  0
 19 20  1  0  0  0  0
 19 30  1  0  0  0  0
M  END
> <PUBCHEM_COMPOUND_CID>
256732

> <PUBCHEM_CONFORMER_RMSD>
0.6

> <PUBCHEM_CONFORMER_DIVERSEORDER>
1
4
3
2

> <PUBCHEM_MMFF94_PARTIAL_CHARGES>
28
1 -0.28
10 -0.15
11 -0.15
12 0.6
13 -0.15
14 0.08
15 -0.15
16 -0.15
17 0.06
18 -0.15
19 -0.15
2 -0.53
20 0.08
21 0.15
22 0.15
23 0.15
24 0.15
25 0.15
29 0.15
3 -0.57
30 0.15
31 0.45
32 0.45
4 -0.53
6 -0.09
7 0.09
8 0.14
9 0.05

> <PUBCHEM_EFFECTIVE_ROTOR_COUNT>
2

> <PUBCHEM_PHARMACOPHORE_FEATURES>
7
1 1 acceptor
1 2 donor
1 3 acceptor
1 4 donor
5 1 5 6 7 8 rings
6 5 8 10 11 13 14 rings
6 9 15 16 18 19 20 rings

> <PUBCHEM_HEAVY_ATOM_COUNT>
20

> <PUBCHEM_ATOM_DEF_STEREO_COUNT>
0

> <PUBCHEM_ATOM_UDEF_STEREO_COUNT>
0

> <PUBCHEM_BOND_DEF_STEREO_COUNT>
0

> <PUBCHEM_BOND_UDEF_STEREO_COUNT>
0

> <PUBCHEM_ISOTOPIC_ATOM_COUNT>
0

> <PUBCHEM_COMPONENT_COUNT>
1

> <PUBCHEM_CACTVS_TAUTO_COUNT>
22

> <PUBCHEM_CONFORMER_ID>
0003EADC00000001

> <PUBCHEM_MMFF94_ENERGY>
48.6112

> <PUBCHEM_FEATURE_SELFOVERLAP>
35.622

> <PUBCHEM_SHAPE_FINGERPRINT>
10411042 1 18338797922589622338
10967382 1 18338517426738952068
11045515 52 18272655666201103061
11471102 20 18340486673090586580
11578080 2 17460061580867075673
11796584 16 16774083972577947178
12236239 1 17821445738505916715
12553582 1 18336837450033377382
12760667 363 18270119144763720746
13009979 54 17749664095953129211
13134695 92 18410013191330148141
13140716 1 17977952276529524024
13544653 18 18342453750926926310
13862211 1 18411140259884975882
14347332 77 18118392076897287598
14790565 3 17763457314758530252
15042514 8 18121778602058072984
15196674 1 18410856589794621188
15848700 24 18410015429245083188
16945 1 18338797806356577440
17357779 13 18342470243744164373
17492 89 18122629615800911514
1813 80 18188475960893384588
18222031 100 18334861610326324466
18785283 64 17913205356326094149
19784866 140 18202004373241483778
200 152 18409452504792550727
20602899 9 15769482223129688192
20645477 70 18270685268238498370
21029758 11 18411702084187317305
21041028 32 18409162225486661993
21267235 1 18409441510019352822
21296965 67 18410012156232213720
21641784 216 18058994177683643684
221357 26 18343030990938317669
221490 88 18053098428573248899
22182313 1 18267328511137949076
2255824 54 18190739730680943436
23175994 123 18343862217017100293
23184049 59 18260264127153360814
23402539 116 18335704982847050567
23557571 272 18115583880774988028
23559900 14 17489586718935211906
26918003 58 18060138738901256410
2748010 2 18337401546980450044
2871803 45 18272652376572444218
3091708 16 9499182888395963768
312423 11 18340756157140969222
34934 24 18265338318066404646
465052 167 18334851697452492055
474 4 18046350721128502648
5104073 3 18263934409437608050
7471813 234 17968102984570025305
7495541 125 18130220437703693507
77492 1 17676762064237187329
84936 182 17536314730808900841
8863177 126 17915446217496491091
9971528 1 18335708208399184024

> <PUBCHEM_SHAPE_MULTIPOLES>
388.11
9.58
2.54
0.91
3.24
2.68
0
-6
0
-2.11
0
0.95
-0.14
0

> <PUBCHEM_SHAPE_SELFOVERLAP>
867.013

> <PUBCHEM_SHAPE_VOLUME>
209.4

> <PUBCHEM_COORDINATE_TYPE>
2
5
10

$$$$

