442894
  -OEChem-07051213003D

 25 27  0     0  0  0  0  0  0999 V2000
   -1.4807   -0.7020    0.0163 N   0  0  0  0  0  0  0  0  0  0  0  0
   -0.3293    1.3976    0.0653 N   0  0  0  0  0  0  0  0  0  0  0  0
   -2.8383   -1.1909    0.0890 C   0  0  0  0  0  0  0  0  0  0  0  0
   -3.6402    0.0543   -0.3132 C   0  0  0  0  0  0  0  0  0  0  0  0
   -2.7829    1.2535    0.1152 C   0  0  0  0  0  0  0  0  0  0  0  0
   -1.3973    0.6673    0.0541 C   0  0  0  0  0  0  0  0  0  0  0  0
   -0.3234   -1.5601    0.0783 C   0  0  0  0  0  0  0  0  0  0  0  0
    0.9441   -0.7331    0.0230 C   0  0  0  0  0  0  0  0  0  0  0  0
    0.8915    0.6816    0.0228 C   0  0  0  0  0  0  0  0  0  0  0  0
    2.1854   -1.3826   -0.0150 C   0  0  0  0  0  0  0  0  0  0  0  0
    2.0876    1.4077   -0.0191 C   0  0  0  0  0  0  0  0  0  0  0  0
    3.3662   -0.6428   -0.0572 C   0  0  0  0  0  0  0  0  0  0  0  0
    3.3174    0.7494   -0.0595 C   0  0  0  0  0  0  0  0  0  0  0  0
   -3.0775   -1.4963    1.1129 H   0  0  0  0  0  0  0  0  0  0  0  0
   -3.0211   -2.0261   -0.5936 H   0  0  0  0  0  0  0  0  0  0  0  0
   -4.6385    0.0708    0.1335 H   0  0  0  0  0  0  0  0  0  0  0  0
   -3.7627    0.0711   -1.4037 H   0  0  0  0  0  0  0  0  0  0  0  0
   -2.9973    1.5537    1.1454 H   0  0  0  0  0  0  0  0  0  0  0  0
   -2.8924    2.1087   -0.5555 H   0  0  0  0  0  0  0  0  0  0  0  0
   -0.3399   -2.2588   -0.7655 H   0  0  0  0  0  0  0  0  0  0  0  0
   -0.3375   -2.1318    1.0131 H   0  0  0  0  0  0  0  0  0  0  0  0
    2.2365   -2.4684   -0.0113 H   0  0  0  0  0  0  0  0  0  0  0  0
    2.0679    2.4950   -0.0201 H   0  0  0  0  0  0  0  0  0  0  0  0
    4.3249   -1.1524   -0.0873 H   0  0  0  0  0  0  0  0  0  0  0  0
    4.2385    1.3241   -0.0918 H   0  0  0  0  0  0  0  0  0  0  0  0
  1  3  1  0  0  0  0
  1  6  1  0  0  0  0
  1  7  1  0  0  0  0
  2  6  2  0  0  0  0
  2  9  1  0  0  0  0
  3  4  1  0  0  0  0
  3 14  1  0  0  0  0
  3 15  1  0  0  0  0
  4  5  1  0  0  0  0
  4 16  1  0  0  0  0
  4 17  1  0  0  0  0
  5  6  1  0  0  0  0
  5 18  1  0  0  0  0
  5 19  1  0  0  0  0
  7  8  1  0  0  0  0
  7 20  1  0  0  0  0
  7 21  1  0  0  0  0
  8  9  1  0  0  0  0
  8 10  2  0  0  0  0
  9 11  2  0  0  0  0
 10 12  1  0  0  0  0
 10 22  1  0  0  0  0
 11 13  1  0  0  0  0
 11 23  1  0  0  0  0
 12 13  2  0  0  0  0
 12 24  1  0  0  0  0
 13 25  1  0  0  0  0
M  END
> <PUBCHEM_COMPOUND_CID>
442894

> <PUBCHEM_CONFORMER_RMSD>
0.4

> <PUBCHEM_CONFORMER_DIVERSEORDER>
1

> <PUBCHEM_MMFF94_PARTIAL_CHARGES>
16
1 -0.79
10 -0.15
11 -0.15
12 -0.15
13 -0.15
2 -0.63
22 0.15
23 0.15
24 0.15
25 0.15
3 0.37
5 0.06
6 0.44
7 0.51
8 -0.14
9 0.18

> <PUBCHEM_EFFECTIVE_ROTOR_COUNT>
0.8

> <PUBCHEM_PHARMACOPHORE_FEATURES>
4
3 1 2 6 cation
5 1 3 4 5 6 rings
6 1 2 6 7 8 9 rings
6 8 9 10 11 12 13 rings

> <PUBCHEM_HEAVY_ATOM_COUNT>
13

> <PUBCHEM_ATOM_DEF_STEREO_COUNT>
0

> <PUBCHEM_ATOM_UDEF_STEREO_COUNT>
0

> <PUBCHEM_BOND_DEF_STEREO_COUNT>
0

> <PUBCHEM_BOND_UDEF_STEREO_COUNT>
0

> <PUBCHEM_ISOTOPIC_ATOM_COUNT>
0

> <PUBCHEM_COMPONENT_COUNT>
1

> <PUBCHEM_CACTVS_TAUTO_COUNT>
2

> <PUBCHEM_CONFORMER_ID>
0006C20E00000001

> <PUBCHEM_MMFF94_ENERGY>
35.1268

> <PUBCHEM_FEATURE_SELFOVERLAP>
20.428

> <PUBCHEM_SHAPE_FINGERPRINT>
10608611 8 18411141328877950509
10967382 1 18410574010937131154
11132069 177 18409174306928426720
11471102 20 18410860966292079196
12032990 46 18410848854526716691
12491281 212 18336251431562429833
12932764 1 17417818382380985339
13380535 76 18411139121401871466
13897977 150 18410858741583578165
14144814 61 18410292523075505776
14325111 11 18410855460133624928
15196674 1 18410855460133443054
15442244 35 18193838377865268010
15536298 74 18334013900073018242
15775835 57 18412539929127136556
16945 1 18410570682353262050
17844478 74 18060129947245463609
18186145 218 18340767134370567564
193761 8 17617941326907585226
200 152 18041008327836932503
20201158 50 18410292531686727598
20645476 183 17845074191625806158
20645477 70 18337114557170786039
21267235 1 18410283722677349879
21501502 16 18410292531654864728
21501925 9 18339372928273553234
2334 1 18410854334867829283
23402539 116 18261685817136382238
23402655 69 18335991947261470797
23463225 33 18412826910441759758
23552423 10 18272087188534691246
23559900 14 18334577975788022978
2748010 2 18411135818434507095
3312278 4 18409726248959828665
5104073 3 18410573989446419432
528886 8 18410579487025701986
53812653 166 18334299734246602704
69090 78 18333456430408436423
7364860 26 18333450963189284034
8809292 202 18272364261149214586

> <PUBCHEM_SHAPE_MULTIPOLES>
257.57
5.88
1.69
0.62
0.69
0.06
0
-0.17
-0.3
-0.1
0.04
0.02
0
-0.01

> <PUBCHEM_SHAPE_SELFOVERLAP>
563.701

> <PUBCHEM_SHAPE_VOLUME>
137.4

> <PUBCHEM_COORDINATE_TYPE>
2
5
10

$$$$

