247739
  -OEChem-07051213063D

 28 29  0     0  0  0  0  0  0999 V2000
   -1.2503   -3.2499    0.0695 Cl  0  0  0  0  0  0  0  0  0  0  0  0
    1.6262   -3.0386   -0.1604 Cl  0  0  0  0  0  0  0  0  0  0  0  0
    0.0214   -0.8125    0.3934 C   0  0  0  0  0  0  0  0  0  0  0  0
   -1.2424   -0.0367    0.2327 C   0  0  0  0  0  0  0  0  0  0  0  0
    1.2581    0.0747    0.1499 C   0  0  0  0  0  0  0  0  0  0  0  0
    0.0856   -2.1540   -0.4157 C   0  0  0  0  0  0  0  0  0  0  0  0
   -1.7062    0.7648    1.2758 C   0  0  0  0  0  0  0  0  0  0  0  0
    2.3416   -0.0840    0.9743 C   0  0  0  0  0  0  0  0  0  0  0  0
   -1.9606   -0.1129   -0.9606 C   0  0  0  0  0  0  0  0  0  0  0  0
    1.2138    0.9793   -0.8788 C   0  0  0  0  0  0  0  0  0  0  0  0
   -2.8883    1.4900    1.1257 C   0  0  0  0  0  0  0  0  0  0  0  0
    3.4607    0.7191    0.7543 C   0  0  0  0  0  0  0  0  0  0  0  0
   -3.1425    0.6123   -1.1109 C   0  0  0  0  0  0  0  0  0  0  0  0
    2.3329    1.7824   -1.0990 C   0  0  0  0  0  0  0  0  0  0  0  0
   -3.6064    1.4137   -0.0677 C   0  0  0  0  0  0  0  0  0  0  0  0
    3.4562    1.6523   -0.2824 C   0  0  0  0  0  0  0  0  0  0  0  0
    0.0556   -1.1092    1.4548 H   0  0  0  0  0  0  0  0  0  0  0  0
    0.0193   -1.9954   -1.4950 H   0  0  0  0  0  0  0  0  0  0  0  0
   -1.1567    0.8352    2.2109 H   0  0  0  0  0  0  0  0  0  0  0  0
    2.3511   -0.7981    1.7913 H   0  0  0  0  0  0  0  0  0  0  0  0
   -1.6280   -0.7041   -1.8068 H   0  0  0  0  0  0  0  0  0  0  0  0
    0.3713    1.0913   -1.5498 H   0  0  0  0  0  0  0  0  0  0  0  0
   -3.2491    2.1146    1.9376 H   0  0  0  0  0  0  0  0  0  0  0  0
    4.3344    0.6196    1.3915 H   0  0  0  0  0  0  0  0  0  0  0  0
   -3.6992    0.5575   -2.0418 H   0  0  0  0  0  0  0  0  0  0  0  0
    2.3323    2.5050   -1.9099 H   0  0  0  0  0  0  0  0  0  0  0  0
   -4.5260    1.9795   -0.1852 H   0  0  0  0  0  0  0  0  0  0  0  0
    4.3278    2.2771   -0.4544 H   0  0  0  0  0  0  0  0  0  0  0  0
  1  6  1  0  0  0  0
  2  6  1  0  0  0  0
  3  4  1  0  0  0  0
  3  5  1  0  0  0  0
  3  6  1  0  0  0  0
  3 17  1  0  0  0  0
  4  7  2  0  0  0  0
  4  9  1  0  0  0  0
  5  8  2  0  0  0  0
  5 10  1  0  0  0  0
  6 18  1  0  0  0  0
  7 11  1  0  0  0  0
  7 19  1  0  0  0  0
  8 12  1  0  0  0  0
  8 20  1  0  0  0  0
  9 13  2  0  0  0  0
  9 21  1  0  0  0  0
 10 14  2  0  0  0  0
 10 22  1  0  0  0  0
 11 15  2  0  0  0  0
 11 23  1  0  0  0  0
 12 16  2  0  0  0  0
 12 24  1  0  0  0  0
 13 15  1  0  0  0  0
 13 25  1  0  0  0  0
 14 16  1  0  0  0  0
 14 26  1  0  0  0  0
 15 27  1  0  0  0  0
 16 28  1  0  0  0  0
M  END
> <PUBCHEM_COMPOUND_CID>
247739

> <PUBCHEM_CONFORMER_RMSD>
0.6

> <PUBCHEM_CONFORMER_DIVERSEORDER>
1
5
4
3
6
2

> <PUBCHEM_MMFF94_PARTIAL_CHARGES>
26
1 -0.29
10 -0.15
11 -0.15
12 -0.15
13 -0.15
14 -0.15
15 -0.15
16 -0.15
19 0.15
2 -0.29
20 0.15
21 0.15
22 0.15
23 0.15
24 0.15
25 0.15
26 0.15
27 0.15
28 0.15
3 0.29
4 -0.14
5 -0.14
6 0.58
7 -0.15
8 -0.15
9 -0.15

> <PUBCHEM_EFFECTIVE_ROTOR_COUNT>
3

> <PUBCHEM_PHARMACOPHORE_FEATURES>
2
6 4 7 9 11 13 15 rings
6 5 8 10 12 14 16 rings

> <PUBCHEM_HEAVY_ATOM_COUNT>
16

> <PUBCHEM_ATOM_DEF_STEREO_COUNT>
0

> <PUBCHEM_ATOM_UDEF_STEREO_COUNT>
0

> <PUBCHEM_BOND_DEF_STEREO_COUNT>
0

> <PUBCHEM_BOND_UDEF_STEREO_COUNT>
0

> <PUBCHEM_ISOTOPIC_ATOM_COUNT>
0

> <PUBCHEM_COMPONENT_COUNT>
1

> <PUBCHEM_CACTVS_TAUTO_COUNT>
1

> <PUBCHEM_CONFORMER_ID>
0003C7BB00000001

> <PUBCHEM_MMFF94_ENERGY>
51.0052

> <PUBCHEM_FEATURE_SELFOVERLAP>
10.149

> <PUBCHEM_SHAPE_FINGERPRINT>
10465860 228 18264484173113890857
11640471 11 18260268589777570073
11680986 33 18410570733920042506
11725454 13 16628592239315521935
12173636 292 18265052427241023132
12788726 201 17908426849090908098
13132413 78 17396972930593222454
13583140 156 17131841949358318401
14181834 199 18044939214618019478
15309172 13 18343019995036107885
15342168 16 18342166783114922741
15490181 8 18409729560221780414
15775835 57 18272090461316004468
15852999 172 18186800258049449782
16752209 62 18121791525572598654
16945 1 18342457092601373582
1741750 31 18337111142634699848
1813 80 17467339458462942854
18186145 218 18335415811288906708
18981168 100 18265870554102212727
19765921 60 18040994085546174017
20510252 161 17975129842764945530
20645476 183 18410295778676546935
20671657 1 18338510953891005758
21061003 4 17692523829424979295
21524375 3 18343303643355772313
2255824 54 18120651589707312335
23184049 59 18200604695345181912
23402539 116 18042135279478259605
23419403 2 16475923967451383658
23557571 272 17684363954503929960
23558518 356 18270963440612965562
23598291 2 17753332264332906637
2748010 2 18268410464828311419
305870 269 18336543923103815624
350125 39 18338782455790475474
4340502 62 18410851084558748675
474 4 18339080509630514513
6992083 37 18130232545200657356
7164475 11 18123756348661897166
7364860 26 18117841224848263099
74978 22 18339077065177824636
81228 2 17761479301581111378
84936 182 18114752649478448704
90525 40 18269835320270743118

> <PUBCHEM_SHAPE_MULTIPOLES>
333.01
5.69
3.06
1.18
0.17
3.51
0.03
-4.08
0.1
-0.41
-0.28
0.24
-0.41
-0.52

> <PUBCHEM_SHAPE_SELFOVERLAP>
691.427

> <PUBCHEM_SHAPE_VOLUME>
183.3

> <PUBCHEM_COORDINATE_TYPE>
2
5
10

$$$$

