52997
  -OEChem-07051213003D

 41 42  0     0  0  0  0  0  0999 V2000
    2.2456   -0.0420    1.8143 S   0  0  0  0  0  0  0  0  0  0  0  0
    2.0968   -1.1157    2.7855 O   0  0  0  0  0  0  0  0  0  0  0  0
    3.1682    1.0511    2.0812 O   0  0  0  0  0  0  0  0  0  0  0  0
    1.7168    2.0050   -1.0605 O   0  0  0  0  0  0  0  0  0  0  0  0
   -0.3916   -1.3606    0.8997 O   0  0  0  0  0  0  0  0  0  0  0  0
    3.9077    2.2394   -0.4245 O   0  0  0  0  0  0  0  0  0  0  0  0
    0.7003    0.6110    1.4669 N   0  0  0  0  0  0  0  0  0  0  0  0
   -1.5169    0.6802    0.7542 N   0  0  0  0  0  0  0  0  0  0  0  0
   -3.6775    1.3093    0.1157 N   0  0  0  0  0  0  0  0  0  0  0  0
   -2.9982   -1.0025    0.0879 N   0  0  0  0  0  0  0  0  0  0  0  0
    2.6889   -0.7368    0.2697 C   0  0  0  0  0  0  0  0  0  0  0  0
    2.9949    0.0685   -0.8273 C   0  0  0  0  0  0  0  0  0  0  0  0
    2.7327   -2.1258    0.1489 C   0  0  0  0  0  0  0  0  0  0  0  0
    3.3445   -0.5151   -2.0450 C   0  0  0  0  0  0  0  0  0  0  0  0
    3.0823   -2.7093   -1.0688 C   0  0  0  0  0  0  0  0  0  0  0  0
    3.3882   -1.9040   -2.1659 C   0  0  0  0  0  0  0  0  0  0  0  0
   -0.4352   -0.1421    1.0179 C   0  0  0  0  0  0  0  0  0  0  0  0
    2.9588    1.5226   -0.7406 C   0  0  0  0  0  0  0  0  0  0  0  0
   -2.8016    0.3087    0.2944 C   0  0  0  0  0  0  0  0  0  0  0  0
   -4.8920    0.9193   -0.3243 C   0  0  0  0  0  0  0  0  0  0  0  0
   -4.2333   -1.3216   -0.3511 C   0  0  0  0  0  0  0  0  0  0  0  0
   -5.2301   -0.3943   -0.5770 C   0  0  0  0  0  0  0  0  0  0  0  0
   -5.9032    1.9944   -0.5411 C   0  0  0  0  0  0  0  0  0  0  0  0
   -4.5054   -2.7674   -0.5989 C   0  0  0  0  0  0  0  0  0  0  0  0
    1.5592    3.4277   -1.0113 C   0  0  0  0  0  0  0  0  0  0  0  0
    2.4976   -2.7805    0.9827 H   0  0  0  0  0  0  0  0  0  0  0  0
    0.6203    1.6357    1.4709 H   0  0  0  0  0  0  0  0  0  0  0  0
    3.5847    0.1016   -2.9074 H   0  0  0  0  0  0  0  0  0  0  0  0
    3.1156   -3.7908   -1.1634 H   0  0  0  0  0  0  0  0  0  0  0  0
    3.6601   -2.3585   -3.1141 H   0  0  0  0  0  0  0  0  0  0  0  0
   -1.3925    1.6779    0.9021 H   0  0  0  0  0  0  0  0  0  0  0  0
   -6.2136   -0.6790   -0.9306 H   0  0  0  0  0  0  0  0  0  0  0  0
   -5.4896    2.9786   -0.2976 H   0  0  0  0  0  0  0  0  0  0  0  0
   -6.2217    2.0121   -1.5882 H   0  0  0  0  0  0  0  0  0  0  0  0
   -6.7776    1.8290    0.0962 H   0  0  0  0  0  0  0  0  0  0  0  0
   -4.7706   -2.9307   -1.6483 H   0  0  0  0  0  0  0  0  0  0  0  0
   -3.6239   -3.3773   -0.3747 H   0  0  0  0  0  0  0  0  0  0  0  0
   -5.3265   -3.1149    0.0361 H   0  0  0  0  0  0  0  0  0  0  0  0
    2.2286    3.9070   -1.7316 H   0  0  0  0  0  0  0  0  0  0  0  0
    1.7519    3.7939    0.0015 H   0  0  0  0  0  0  0  0  0  0  0  0
    0.5259    3.6637   -1.2790 H   0  0  0  0  0  0  0  0  0  0  0  0
  1  2  2  0  0  0  0
  1  3  2  0  0  0  0
  1  7  1  0  0  0  0
  1 11  1  0  0  0  0
  4 18  1  0  0  0  0
  4 25  1  0  0  0  0
  5 17  2  0  0  0  0
  6 18  2  0  0  0  0
  7 17  1  0  0  0  0
  7 27  1  0  0  0  0
  8 17  1  0  0  0  0
  8 19  1  0  0  0  0
  8 31  1  0  0  0  0
  9 19  1  0  0  0  0
  9 20  2  0  0  0  0
 10 19  2  0  0  0  0
 10 21  1  0  0  0  0
 11 12  1  0  0  0  0
 11 13  2  0  0  0  0
 12 14  2  0  0  0  0
 12 18  1  0  0  0  0
 13 15  1  0  0  0  0
 13 26  1  0  0  0  0
 14 16  1  0  0  0  0
 14 28  1  0  0  0  0
 15 16  2  0  0  0  0
 15 29  1  0  0  0  0
 16 30  1  0  0  0  0
 20 22  1  0  0  0  0
 20 23  1  0  0  0  0
 21 22  2  0  0  0  0
 21 24  1  0  0  0  0
 22 32  1  0  0  0  0
 23 33  1  0  0  0  0
 23 34  1  0  0  0  0
 23 35  1  0  0  0  0
 24 36  1  0  0  0  0
 24 37  1  0  0  0  0
 24 38  1  0  0  0  0
 25 39  1  0  0  0  0
 25 40  1  0  0  0  0
 25 41  1  0  0  0  0
M  END
> <PUBCHEM_COMPOUND_CID>
52997

> <PUBCHEM_CONFORMER_RMSD>
0.8

> <PUBCHEM_CONFORMER_DIVERSEORDER>
1
89
52
143
124
71
43
72
15
114
141
73
19
99
25
106
135
75
67
147
27
94
111
55
69
98
79
126
139
14
32
24
34
82
68
53
128
8
102
101
121
130
122
115
42
145
108
44
93
140
70
129
136
74
64
105
29
100
146
66
63
51
138
36
77
83
65
54
37
123
110
109
40
104
22
45
125
78
85
35
17
58
97
50
2
31
84
47
137
118
56
133
59
127
30
80
95
5
134
88
87
107
132
16
81
39
112
61
57
38
96
7
41
26
21
76
48
142
11
117
12
103
18
49
119
144
86
6
120
3
116
46
91
13
62
148
33
28
113
60
131
9
90
23
149
4
20
92
10

> <PUBCHEM_MMFF94_PARTIAL_CHARGES>
32
1 1.45
10 -0.62
11 -0.01
12 0.09
13 -0.15
14 -0.15
15 -0.15
16 -0.15
17 0.87
18 0.63
19 0.74
2 -0.65
20 0.17
21 0.17
22 -0.15
23 0.14
24 0.14
25 0.28
26 0.15
27 0.42
28 0.15
29 0.15
3 -0.65
30 0.15
31 0.37
32 0.15
4 -0.43
5 -0.57
6 -0.57
7 -0.79
8 -0.55
9 -0.62

> <PUBCHEM_EFFECTIVE_ROTOR_COUNT>
7

> <PUBCHEM_PHARMACOPHORE_FEATURES>
9
1 2 acceptor
1 3 acceptor
1 5 acceptor
1 6 acceptor
1 7 donor
1 8 donor
1 9 acceptor
6 11 12 13 14 15 16 rings
6 9 10 19 20 21 22 rings

> <PUBCHEM_HEAVY_ATOM_COUNT>
25

> <PUBCHEM_ATOM_DEF_STEREO_COUNT>
0

> <PUBCHEM_ATOM_UDEF_STEREO_COUNT>
0

> <PUBCHEM_BOND_DEF_STEREO_COUNT>
0

> <PUBCHEM_BOND_UDEF_STEREO_COUNT>
0

> <PUBCHEM_ISOTOPIC_ATOM_COUNT>
0

> <PUBCHEM_COMPONENT_COUNT>
1

> <PUBCHEM_CACTVS_TAUTO_COUNT>
5

> <PUBCHEM_CONFORMER_ID>
0000CF0500000001

> <PUBCHEM_MMFF94_ENERGY>
50.921

> <PUBCHEM_FEATURE_SELFOVERLAP>
45.734

> <PUBCHEM_SHAPE_FINGERPRINT>
12363563 72 15936687168015245955
12616971 3 17560813155803478203
13583140 156 17386296406610639269
15210252 30 16486672745632183724
15664445 248 18412262809617185228
17844677 252 18341606023863256475
17980427 23 18051162240378728608
20775530 9 16811481837651840446
21756936 100 10373286867704708958
21860390 5 18201151057934842940
21864079 5 18202844349107489505
23419403 2 17609240170823663858
23466295 7 7918958137000472508
23557571 272 18114755939539519977
23559900 14 18261392282139534583
238 59 18125703618177307940
3004659 81 18188208809511611183
312425 83 18411694387853596221
513532 50 18412546513987202048
5281201 14 18411132541780655207
5895379 119 18411422829788151432
633830 44 17989205958470440835
7471813 234 17630898298964198962
960060 61 17822010930120913453

> <PUBCHEM_SHAPE_MULTIPOLES>
469.07
11.47
3.09
1.93
17.49
0.46
-0.73
-0.33
3.8
-0.95
1.42
-2.78
-0.25
0.37

> <PUBCHEM_SHAPE_SELFOVERLAP>
980.747

> <PUBCHEM_SHAPE_VOLUME>
266

> <PUBCHEM_COORDINATE_TYPE>
2
5
10

$$$$

