441742
  -OEChem-07051212563D

 62 67  0     1  0  0  0  0  0999 V2000
    1.8559    0.1583    2.6834 O   0  0  0  0  0  0  0  0  0  0  0  0
   -1.6960   -0.1653   -2.5999 O   0  0  0  0  0  0  0  0  0  0  0  0
    3.9651    1.4479    0.8936 O   0  0  0  0  0  0  0  0  0  0  0  0
    4.2448   -1.1524   -0.8837 O   0  0  0  0  0  0  0  0  0  0  0  0
   -1.8396   -1.4901   -0.1419 N   0  0  2  0  0  0  0  0  0  0  0  0
   -0.8272    0.7817   -0.4856 C   0  0  2  0  0  0  0  0  0  0  0  0
    0.5547    1.5376   -0.5570 C   0  0  1  0  0  0  0  0  0  0  0  0
   -1.6897    1.2026    0.7538 C   0  0  2  0  0  0  0  0  0  0  0  0
   -0.5891   -0.6989   -0.0784 C   0  0  1  0  0  0  0  0  0  0  0  0
   -0.0163   -0.4857    1.3496 C   0  0  1  0  0  0  0  0  0  0  0  0
    1.5151    1.4186    0.6510 C   0  0  1  0  0  0  0  0  0  0  0  0
    1.4490    0.0194    1.3072 C   0  0  1  0  0  0  0  0  0  0  0  0
   -0.9219    0.6159    1.9628 C   0  0  0  0  0  0  0  0  0  0  0  0
   -3.1045    0.5371    0.6367 C   0  0  2  0  0  0  0  0  0  0  0  0
   -1.5677    1.0331   -1.8396 C   0  0  2  0  0  0  0  0  0  0  0  0
    1.4422    1.1103   -1.7597 C   0  0  0  0  0  0  0  0  0  0  0  0
    2.8219    0.7635   -1.1782 C   0  0  1  0  0  0  0  0  0  0  0  0
    2.8839    1.7008    0.0224 C   0  0  2  0  0  0  0  0  0  0  0  0
    2.4198   -1.0093    0.6782 C   0  0  0  0  0  0  0  0  0  0  0  0
   -2.9265   -1.0091    0.7182 C   0  0  0  0  0  0  0  0  0  0  0  0
   -3.8113    0.9124   -0.6972 C   0  0  0  0  0  0  0  0  0  0  0  0
    2.8855   -0.7181   -0.7589 C   0  0  2  0  0  0  0  0  0  0  0  0
   -2.9316    1.6863   -1.6631 C   0  0  0  0  0  0  0  0  0  0  0  0
   -4.0258    0.9890    1.7904 C   0  0  0  0  0  0  0  0  0  0  0  0
   -1.6014   -2.9172    0.0561 C   0  0  0  0  0  0  0  0  0  0  0  0
   -2.8524   -3.7283   -0.2360 C   0  0  0  0  0  0  0  0  0  0  0  0
    4.3631   -2.5404   -0.6243 C   0  0  0  0  0  0  0  0  0  0  0  0
    0.3287    2.6071   -0.6850 H   0  0  0  0  0  0  0  0  0  0  0  0
   -1.7786    2.2917    0.8411 H   0  0  0  0  0  0  0  0  0  0  0  0
    0.1361   -1.1685   -0.7461 H   0  0  0  0  0  0  0  0  0  0  0  0
   -0.0652   -1.3905    1.9663 H   0  0  0  0  0  0  0  0  0  0  0  0
    1.3063    2.2059    1.3849 H   0  0  0  0  0  0  0  0  0  0  0  0
   -1.5688    0.1892    2.7334 H   0  0  0  0  0  0  0  0  0  0  0  0
   -0.3828    1.4154    2.4761 H   0  0  0  0  0  0  0  0  0  0  0  0
   -0.9967    1.7218   -2.4731 H   0  0  0  0  0  0  0  0  0  0  0  0
    1.0399    0.2890   -2.3546 H   0  0  0  0  0  0  0  0  0  0  0  0
    1.5432    1.9669   -2.4391 H   0  0  0  0  0  0  0  0  0  0  0  0
    3.6198    0.9835   -1.8965 H   0  0  0  0  0  0  0  0  0  0  0  0
    2.9517    2.7446   -0.3097 H   0  0  0  0  0  0  0  0  0  0  0  0
    1.9835   -2.0161    0.7263 H   0  0  0  0  0  0  0  0  0  0  0  0
    3.2993   -1.0703    1.3352 H   0  0  0  0  0  0  0  0  0  0  0  0
   -2.7572   -1.3237    1.7561 H   0  0  0  0  0  0  0  0  0  0  0  0
   -3.8802   -1.4654    0.4267 H   0  0  0  0  0  0  0  0  0  0  0  0
   -4.7045    1.5216   -0.5073 H   0  0  0  0  0  0  0  0  0  0  0  0
   -4.1847    0.0132   -1.2038 H   0  0  0  0  0  0  0  0  0  0  0  0
    2.2955   -1.3102   -1.4693 H   0  0  0  0  0  0  0  0  0  0  0  0
   -3.4448    1.7508   -2.6303 H   0  0  0  0  0  0  0  0  0  0  0  0
   -2.8056    2.7139   -1.3004 H   0  0  0  0  0  0  0  0  0  0  0  0
   -5.0238    0.5465    1.6891 H   0  0  0  0  0  0  0  0  0  0  0  0
   -3.6463    0.6969    2.7736 H   0  0  0  0  0  0  0  0  0  0  0  0
   -4.1407    2.0788    1.7925 H   0  0  0  0  0  0  0  0  0  0  0  0
    1.4764    0.9666    3.0623 H   0  0  0  0  0  0  0  0  0  0  0  0
   -0.8206   -3.2545   -0.6367 H   0  0  0  0  0  0  0  0  0  0  0  0
   -1.2508   -3.1398    1.0705 H   0  0  0  0  0  0  0  0  0  0  0  0
   -0.8068   -0.5017   -2.7950 H   0  0  0  0  0  0  0  0  0  0  0  0
    3.8381    1.9998    1.6839 H   0  0  0  0  0  0  0  0  0  0  0  0
   -3.6086   -3.6270    0.5486 H   0  0  0  0  0  0  0  0  0  0  0  0
   -3.2987   -3.4517   -1.1975 H   0  0  0  0  0  0  0  0  0  0  0  0
   -2.5950   -4.7920   -0.2893 H   0  0  0  0  0  0  0  0  0  0  0  0
    5.3476   -2.8604   -0.9792 H   0  0  0  0  0  0  0  0  0  0  0  0
    3.6099   -3.1214   -1.1667 H   0  0  0  0  0  0  0  0  0  0  0  0
    4.3226   -2.7635    0.4452 H   0  0  0  0  0  0  0  0  0  0  0  0
  1 12  1  0  0  0  0
  1 52  1  0  0  0  0
  2 15  1  0  0  0  0
  2 55  1  0  0  0  0
  3 18  1  0  0  0  0
  3 56  1  0  0  0  0
  4 22  1  0  0  0  0
  4 27  1  0  0  0  0
  5  9  1  0  0  0  0
  5 20  1  0  0  0  0
  5 25  1  0  0  0  0
  6  7  1  0  0  0  0
  6  8  1  0  0  0  0
  6  9  1  0  0  0  0
  6 15  1  0  0  0  0
  7 11  1  0  0  0  0
  7 16  1  0  0  0  0
  7 28  1  0  0  0  0
  8 13  1  0  0  0  0
  8 14  1  0  0  0  0
  8 29  1  0  0  0  0
  9 10  1  0  0  0  0
  9 30  1  0  0  0  0
 10 12  1  0  0  0  0
 10 13  1  0  0  0  0
 10 31  1  0  0  0  0
 11 12  1  0  0  0  0
 11 18  1  0  0  0  0
 11 32  1  0  0  0  0
 12 19  1  0  0  0  0
 13 33  1  0  0  0  0
 13 34  1  0  0  0  0
 14 20  1  0  0  0  0
 14 21  1  0  0  0  0
 14 24  1  0  0  0  0
 15 23  1  0  0  0  0
 15 35  1  0  0  0  0
 16 17  1  0  0  0  0
 16 36  1  0  0  0  0
 16 37  1  0  0  0  0
 17 18  1  0  0  0  0
 17 22  1  0  0  0  0
 17 38  1  0  0  0  0
 18 39  1  0  0  0  0
 19 22  1  0  0  0  0
 19 40  1  0  0  0  0
 19 41  1  0  0  0  0
 20 42  1  0  0  0  0
 20 43  1  0  0  0  0
 21 23  1  0  0  0  0
 21 44  1  0  0  0  0
 21 45  1  0  0  0  0
 22 46  1  0  0  0  0
 23 47  1  0  0  0  0
 23 48  1  0  0  0  0
 24 49  1  0  0  0  0
 24 50  1  0  0  0  0
 24 51  1  0  0  0  0
 25 26  1  0  0  0  0
 25 53  1  0  0  0  0
 25 54  1  0  0  0  0
 26 57  1  0  0  0  0
 26 58  1  0  0  0  0
 26 59  1  0  0  0  0
 27 60  1  0  0  0  0
 27 61  1  0  0  0  0
 27 62  1  0  0  0  0
M  END
> <PUBCHEM_COMPOUND_CID>
441742

> <PUBCHEM_CONFORMER_RMSD>
0.8

> <PUBCHEM_CONFORMER_DIVERSEORDER>
1

> <PUBCHEM_MMFF94_PARTIAL_CHARGES>
16
1 -0.68
12 0.28
15 0.28
18 0.28
2 -0.68
20 0.27
22 0.28
25 0.27
27 0.28
3 -0.68
4 -0.56
5 -0.81
52 0.4
55 0.4
56 0.4
9 0.27

> <PUBCHEM_EFFECTIVE_ROTOR_COUNT>
4

> <PUBCHEM_PHARMACOPHORE_FEATURES>
12
1 1 acceptor
1 1 donor
1 2 acceptor
1 2 donor
1 3 acceptor
1 3 donor
1 4 acceptor
1 5 cation
6 6 8 14 15 21 23 rings
8 5 6 8 9 10 13 14 20 rings
8 6 7 8 9 10 11 12 13 rings
8 7 11 12 16 17 18 19 22 rings

> <PUBCHEM_HEAVY_ATOM_COUNT>
27

> <PUBCHEM_ATOM_DEF_STEREO_COUNT>
11

> <PUBCHEM_ATOM_UDEF_STEREO_COUNT>
1

> <PUBCHEM_BOND_DEF_STEREO_COUNT>
0

> <PUBCHEM_BOND_UDEF_STEREO_COUNT>
0

> <PUBCHEM_ISOTOPIC_ATOM_COUNT>
0

> <PUBCHEM_COMPONENT_COUNT>
1

> <PUBCHEM_CACTVS_TAUTO_COUNT>
1

> <PUBCHEM_CONFORMER_ID>
0006BD8E00000001

> <PUBCHEM_MMFF94_ENERGY>
144.6609

> <PUBCHEM_FEATURE_SELFOVERLAP>
62.314

> <PUBCHEM_SHAPE_FINGERPRINT>
10498660 4 15410889686694903141
10863032 1 18261101938023676480
10948715 1 17417809594946833637
11370993 70 18334853922203002334
11578080 2 18189333480973476544
12173636 292 18334851753693060377
12403814 3 17917713461922271201
12553582 1 18119527880703328094
12633257 1 18115569556674369043
13140716 1 18334007294260771538
13224815 77 14908180841356254680
13583140 156 17458627744478300304
14115302 16 18260818337022382234
14178342 30 18264210223141156184
14223421 5 18191589635883629136
14863182 85 16463048291090169739
15664445 248 17624418580420030063
16945 1 18269007533774838665
17980427 23 17416131573348281604
1813 80 17771057195079700679
18981168 100 18339372893560484249
19930381 70 17690266536179733351
20775530 9 18336260129167538742
21069387 34 17749119923258992654
23557571 272 18197230160604140035
23559900 14 18259701208087390162
2748010 2 17274277156576128040
296302 2 16153707630765730416
394222 165 15144104078252687674
4340502 62 18042941321298270505
81228 2 18055072052129437547
9981440 41 16303786458125346027

> <PUBCHEM_SHAPE_MULTIPOLES>
527.19
6.96
2.7
2.03
2.78
2.86
-0.15
1.08
0.38
-0.78
0.71
-0.43
-0.61
0.41

> <PUBCHEM_SHAPE_SELFOVERLAP>
1166.91

> <PUBCHEM_SHAPE_VOLUME>
277.9

> <PUBCHEM_COORDINATE_TYPE>
2
5
10

$$$$

