51090939
  -OEChem-06241223002D

 43 45  0     1  0  0  0  0  0999 V2000
    2.2212    1.6750    0.0000 F   0  0  0  0  0  0  0  0  0  0  0  0
    2.0000    0.2782    0.0000 F   0  0  0  0  0  0  0  0  0  0  0  0
    3.6180    1.4537    0.0000 F   0  0  0  0  0  0  0  0  0  0  0  0
    8.5721   -1.6750    0.0000 O   0  0  0  0  0  0  0  0  0  0  0  0
    4.3913    0.1615    0.0000 N   0  0  3  0  0  0  0  0  0  0  0  0
    7.7060   -0.1750    0.0000 N   0  0  0  0  0  0  0  0  0  0  0  0
    5.9740   -0.1750    0.0000 C   0  0  3  0  0  0  0  0  0  0  0  0
    5.8695    0.8196    0.0000 C   0  0  0  0  0  0  0  0  0  0  0  0
    5.0604   -0.5817    0.0000 C   0  0  0  0  0  0  0  0  0  0  0  0
    4.8913    1.0275    0.0000 C   0  0  0  0  0  0  0  0  0  0  0  0
    6.8400   -0.6750    0.0000 C   0  0  0  0  0  0  0  0  0  0  0  0
    3.3968    0.0569    0.0000 C   0  0  0  0  0  0  0  0  0  0  0  0
    2.8090    0.8659    0.0000 C   0  0  0  0  0  0  0  0  0  0  0  0
    8.5721   -0.6750    0.0000 C   0  0  0  0  0  0  0  0  0  0  0  0
    9.4381   -0.1750    0.0000 C   0  0  0  0  0  0  0  0  0  0  0  0
   10.3041   -0.6750    0.0000 C   0  0  0  0  0  0  0  0  0  0  0  0
    9.4381    0.8250    0.0000 C   0  0  0  0  0  0  0  0  0  0  0  0
   11.1702   -0.1750    0.0000 C   0  0  0  0  0  0  0  0  0  0  0  0
   11.1702    0.8250    0.0000 C   0  0  0  0  0  0  0  0  0  0  0  0
   10.3041    1.3250    0.0000 C   0  0  0  0  0  0  0  0  0  0  0  0
   12.0641   -0.7096    0.0000 C   0  0  0  0  0  0  0  0  0  0  0  0
   12.0641    1.3597    0.0000 C   0  0  0  0  0  0  0  0  0  0  0  0
   12.9702   -0.1958    0.0000 C   0  0  0  0  0  0  0  0  0  0  0  0
   12.9702    0.8459    0.0000 C   0  0  0  0  0  0  0  0  0  0  0  0
    6.4940    0.1627    0.0000 H   0  0  0  0  0  0  0  0  0  0  0  0
    6.4895    0.8196    0.0000 H   0  0  0  0  0  0  0  0  0  0  0  0
    5.9343    1.4362    0.0000 H   0  0  0  0  0  0  0  0  0  0  0  0
    4.5589   -0.9461    0.0000 H   0  0  0  0  0  0  0  0  0  0  0  0
    5.3704   -1.1186    0.0000 H   0  0  0  0  0  0  0  0  0  0  0  0
    5.0829    1.6171    0.0000 H   0  0  0  0  0  0  0  0  0  0  0  0
    4.3249    1.2796    0.0000 H   0  0  0  0  0  0  0  0  0  0  0  0
    6.4415   -1.1499    0.0000 H   0  0  0  0  0  0  0  0  0  0  0  0
    7.2386   -1.1499    0.0000 H   0  0  0  0  0  0  0  0  0  0  0  0
    2.8396   -0.2149    0.0000 H   0  0  0  0  0  0  0  0  0  0  0  0
    3.5677   -0.5391    0.0000 H   0  0  0  0  0  0  0  0  0  0  0  0
    7.7060    0.4450    0.0000 H   0  0  0  0  0  0  0  0  0  0  0  0
   10.3041   -1.2950    0.0000 H   0  0  0  0  0  0  0  0  0  0  0  0
    8.9012    1.1350    0.0000 H   0  0  0  0  0  0  0  0  0  0  0  0
   10.3041    1.9450    0.0000 H   0  0  0  0  0  0  0  0  0  0  0  0
   12.0569   -1.3296    0.0000 H   0  0  0  0  0  0  0  0  0  0  0  0
   12.0569    1.9797    0.0000 H   0  0  0  0  0  0  0  0  0  0  0  0
   13.5059   -0.5078    0.0000 H   0  0  0  0  0  0  0  0  0  0  0  0
   13.5059    1.1579    0.0000 H   0  0  0  0  0  0  0  0  0  0  0  0
  1 13  1  0  0  0  0
  2 13  1  0  0  0  0
  3 13  1  0  0  0  0
  4 14  2  0  0  0  0
  5  9  1  0  0  0  0
  5 10  1  0  0  0  0
  5 12  1  0  0  0  0
  6 11  1  0  0  0  0
  6 14  1  0  0  0  0
  6 36  1  0  0  0  0
  7  8  1  0  0  0  0
  7  9  1  0  0  0  0
  7 11  1  0  0  0  0
  7 25  1  0  0  0  0
  8 10  1  0  0  0  0
  8 26  1  0  0  0  0
  8 27  1  0  0  0  0
  9 28  1  0  0  0  0
  9 29  1  0  0  0  0
 10 30  1  0  0  0  0
 10 31  1  0  0  0  0
 11 32  1  0  0  0  0
 11 33  1  0  0  0  0
 12 13  1  0  0  0  0
 12 34  1  0  0  0  0
 12 35  1  0  0  0  0
 14 15  1  0  0  0  0
 15 16  2  0  0  0  0
 15 17  1  0  0  0  0
 16 18  1  0  0  0  0
 16 37  1  0  0  0  0
 17 20  2  0  0  0  0
 17 38  1  0  0  0  0
 18 19  1  0  0  0  0
 18 21  2  0  0  0  0
 19 20  1  0  0  0  0
 19 22  2  0  0  0  0
 20 39  1  0  0  0  0
 21 23  1  0  0  0  0
 21 40  1  0  0  0  0
 22 24  1  0  0  0  0
 22 41  1  0  0  0  0
 23 24  2  0  0  0  0
 23 42  1  0  0  0  0
 24 43  1  0  0  0  0
M  END
> <PUBCHEM_COMPOUND_CID>
51090939

> <PUBCHEM_COMPOUND_CANONICALIZED>
1

> <PUBCHEM_CACTVS_COMPLEXITY>
441

> <PUBCHEM_CACTVS_HBOND_ACCEPTOR>
5

> <PUBCHEM_CACTVS_HBOND_DONOR>
1

> <PUBCHEM_CACTVS_ROTATABLE_BOND>
4

> <PUBCHEM_CACTVS_SUBSKEYS>
AAADceB7IYAAAAAAAAAAAAAAAAAAAWAAAAAwYAAAAAAAAADBUAAAHwAQAAAADQDBmBQwAMPAAACIAiFSEACCAAAkAAAIiIEIBMgIIDKA1RGEIQhglgCIiYcYiMCOwAACAAAQAACAAAQAACAAAAAAAAAAAA==

> <PUBCHEM_IUPAC_OPENEYE_NAME>
N-[[1-(2,2,2-trifluoroethyl)pyrrolidin-3-yl]methyl]naphthalene-2-carboxamide

> <PUBCHEM_IUPAC_CAS_NAME>
N-[[1-(2,2,2-trifluoroethyl)-3-pyrrolidinyl]methyl]-2-naphthalenecarboxamide

> <PUBCHEM_IUPAC_NAME>
N-[[1-(2,2,2-trifluoroethyl)pyrrolidin-3-yl]methyl]naphthalene-2-carboxamide

> <PUBCHEM_IUPAC_SYSTEMATIC_NAME>
N-[[1-[2,2,2-tris(fluoranyl)ethyl]pyrrolidin-3-yl]methyl]naphthalene-2-carboxamide

> <PUBCHEM_IUPAC_TRADITIONAL_NAME>
N-[[1-(2,2,2-trifluoroethyl)pyrrolidin-3-yl]methyl]-2-naphthamide

> <PUBCHEM_IUPAC_INCHI>
InChI=1S/C18H19F3N2O/c19-18(20,21)12-23-8-7-13(11-23)10-22-17(24)16-6-5-14-3-1-2-4-15(14)9-16/h1-6,9,13H,7-8,10-12H2,(H,22,24)

> <PUBCHEM_IUPAC_INCHIKEY>
QRRLRSWKQPASIS-UHFFFAOYSA-N

> <PUBCHEM_XLOGP3_AA>
4

> <PUBCHEM_EXACT_MASS>
336.144948

> <PUBCHEM_MOLECULAR_FORMULA>
C18H19F3N2O

> <PUBCHEM_MOLECULAR_WEIGHT>
336.35147

> <PUBCHEM_OPENEYE_CAN_SMILES>
C1CN(CC1CNC(=O)C2=CC3=CC=CC=C3C=C2)CC(F)(F)F

> <PUBCHEM_OPENEYE_ISO_SMILES>
C1CN(CC1CNC(=O)C2=CC3=CC=CC=C3C=C2)CC(F)(F)F

> <PUBCHEM_CACTVS_TPSA>
32.3

> <PUBCHEM_MONOISOTOPIC_WEIGHT>
336.144948

> <PUBCHEM_TOTAL_CHARGE>
0

> <PUBCHEM_HEAVY_ATOM_COUNT>
24

> <PUBCHEM_ATOM_DEF_STEREO_COUNT>
0

> <PUBCHEM_ATOM_UDEF_STEREO_COUNT>
1

> <PUBCHEM_BOND_DEF_STEREO_COUNT>
0

> <PUBCHEM_BOND_UDEF_STEREO_COUNT>
0

> <PUBCHEM_ISOTOPIC_ATOM_COUNT>
0

> <PUBCHEM_COMPONENT_COUNT>
1

> <PUBCHEM_CACTVS_TAUTO_COUNT>
2

> <PUBCHEM_COORDINATE_TYPE>
1
5
255

> <PUBCHEM_BONDANNOTATIONS>
15  16  8
15  17  8
16  18  8
17  20  8
18  19  8
18  21  8
19  20  8
19  22  8
21  23  8
22  24  8
23  24  8
7  11  3

$$$$

