104944
  -OEChem-07051212463D

 13 14  0     1  0  0  0  0  0999 V2000
   -1.6739    0.0000   -0.6240 O   0  0  0  0  0  0  0  0  0  0  0  0
   -0.9644   -0.7641    0.3618 C   0  0  2  0  0  0  0  0  0  0  0  0
   -0.9643    0.7644    0.3617 C   0  0  1  0  0  0  0  0  0  0  0  0
    0.3336   -1.4114    0.0887 C   0  0  0  0  0  0  0  0  0  0  0  0
    0.3339    1.4115    0.0886 C   0  0  0  0  0  0  0  0  0  0  0  0
    1.4675   -0.7249   -0.1384 C   0  0  0  0  0  0  0  0  0  0  0  0
    1.4677    0.7246   -0.1383 C   0  0  0  0  0  0  0  0  0  0  0  0
   -1.5609   -1.2611    1.1184 H   0  0  0  0  0  0  0  0  0  0  0  0
   -1.5608    1.2617    1.1181 H   0  0  0  0  0  0  0  0  0  0  0  0
    0.3591   -2.4968    0.0769 H   0  0  0  0  0  0  0  0  0  0  0  0
    0.3596    2.4968    0.0769 H   0  0  0  0  0  0  0  0  0  0  0  0
    2.4028   -1.2370   -0.3334 H   0  0  0  0  0  0  0  0  0  0  0  0
    2.4032    1.2364   -0.3332 H   0  0  0  0  0  0  0  0  0  0  0  0
  1  2  1  0  0  0  0
  1  3  1  0  0  0  0
  2  3  1  0  0  0  0
  2  4  1  0  0  0  0
  2  8  1  0  0  0  0
  3  5  1  0  0  0  0
  3  9  1  0  0  0  0
  4  6  2  0  0  0  0
  4 10  1  0  0  0  0
  5  7  2  0  0  0  0
  5 11  1  0  0  0  0
  6  7  1  0  0  0  0
  6 12  1  0  0  0  0
  7 13  1  0  0  0  0
M  END
> <PUBCHEM_COMPOUND_CID>
104944

> <PUBCHEM_CONFORMER_RMSD>
0.4

> <PUBCHEM_CONFORMER_DIVERSEORDER>
1
2
3

> <PUBCHEM_MMFF94_PARTIAL_CHARGES>
13
1 -0.3
10 0.15
11 0.15
12 0.15
13 0.15
2 0.09
3 0.09
4 -0.19
5 -0.19
6 -0.15
7 -0.15
8 0.1
9 0.1

> <PUBCHEM_EFFECTIVE_ROTOR_COUNT>
0.2

> <PUBCHEM_PHARMACOPHORE_FEATURES>
2
1 1 acceptor
7 1 2 3 4 5 6 7 rings

> <PUBCHEM_HEAVY_ATOM_COUNT>
7

> <PUBCHEM_ATOM_DEF_STEREO_COUNT>
0

> <PUBCHEM_ATOM_UDEF_STEREO_COUNT>
2

> <PUBCHEM_BOND_DEF_STEREO_COUNT>
0

> <PUBCHEM_BOND_UDEF_STEREO_COUNT>
0

> <PUBCHEM_ISOTOPIC_ATOM_COUNT>
0

> <PUBCHEM_COMPONENT_COUNT>
1

> <PUBCHEM_CACTVS_TAUTO_COUNT>
1

> <PUBCHEM_CONFORMER_ID>
000199F000000001

> <PUBCHEM_MMFF94_ENERGY>
12.7135

> <PUBCHEM_FEATURE_SELFOVERLAP>
10.148

> <PUBCHEM_SHAPE_FINGERPRINT>
18185500 45 18193559097400541634
20096714 4 18411132541411409410
21040471 1 18267304227091514464
29004967 10 18341322362051873059

> <PUBCHEM_SHAPE_MULTIPOLES>
138.19
1.85
1.53
0.69
0.01
0
0
0
-0.18
0.21
0.09
-0.09
0
0

> <PUBCHEM_SHAPE_SELFOVERLAP>
287.555

> <PUBCHEM_SHAPE_VOLUME>
78.3

> <PUBCHEM_COORDINATE_TYPE>
2
5
10

$$$$

