46173847
  -OEChem-07051213093D

 22 24  0     1  0  0  0  0  0999 V2000
    1.7560   -0.2782   -0.7358 O   0  0  0  0  0  0  0  0  0  0  0  0
   -1.7565   -0.2782    0.7359 O   0  0  0  0  0  0  0  0  0  0  0  0
    3.5463    1.1746   -0.7453 O   0  0  0  0  0  0  0  0  0  0  0  0
   -3.5446    1.1774    0.7447 O   0  0  0  0  0  0  0  0  0  0  0  0
    0.7421   -0.6095    0.2450 C   0  0  1  0  0  0  0  0  0  0  0  0
   -0.7425   -0.6107   -0.2445 C   0  0  1  0  0  0  0  0  0  0  0  0
    0.5714   -2.1271    0.5199 C   0  0  0  0  0  0  0  0  0  0  0  0
   -0.5706   -2.1286   -0.5163 C   0  0  0  0  0  0  0  0  0  0  0  0
    1.0461    0.2151    1.4225 C   0  0  0  0  0  0  0  0  0  0  0  0
   -1.0471    0.2117   -1.4235 C   0  0  0  0  0  0  0  0  0  0  0  0
   -2.1202    0.9606   -1.1697 C   0  0  0  0  0  0  0  0  0  0  0  0
    2.1195    0.9633    1.1679 C   0  0  0  0  0  0  0  0  0  0  0  0
   -2.5849    0.6650    0.1972 C   0  0  0  0  0  0  0  0  0  0  0  0
    2.5852    0.6646   -0.1979 C   0  0  0  0  0  0  0  0  0  0  0  0
    0.2456   -2.3799    1.5361 H   0  0  0  0  0  0  0  0  0  0  0  0
    1.4255   -2.7594    0.2600 H   0  0  0  0  0  0  0  0  0  0  0  0
   -0.2446   -2.3833   -1.5320 H   0  0  0  0  0  0  0  0  0  0  0  0
   -1.4243   -2.7610   -0.2550 H   0  0  0  0  0  0  0  0  0  0  0  0
    0.4957    0.2202    2.3520 H   0  0  0  0  0  0  0  0  0  0  0  0
   -0.4973    0.2149   -2.3534 H   0  0  0  0  0  0  0  0  0  0  0  0
    2.5917    1.6705    1.8285 H   0  0  0  0  0  0  0  0  0  0  0  0
   -2.5926    1.6668   -1.8313 H   0  0  0  0  0  0  0  0  0  0  0  0
  1  5  1  0  0  0  0
  1 14  1  0  0  0  0
  2  6  1  0  0  0  0
  2 13  1  0  0  0  0
  3 14  2  0  0  0  0
  4 13  2  0  0  0  0
  5  6  1  0  0  0  0
  5  7  1  0  0  0  0
  5  9  1  0  0  0  0
  6  8  1  0  0  0  0
  6 10  1  0  0  0  0
  7  8  1  0  0  0  0
  7 15  1  0  0  0  0
  7 16  1  0  0  0  0
  8 17  1  0  0  0  0
  8 18  1  0  0  0  0
  9 12  2  0  0  0  0
  9 19  1  0  0  0  0
 10 11  2  0  0  0  0
 10 20  1  0  0  0  0
 11 13  1  0  0  0  0
 11 22  1  0  0  0  0
 12 14  1  0  0  0  0
 12 21  1  0  0  0  0
M  END
> <PUBCHEM_COMPOUND_CID>
46173847

> <PUBCHEM_CONFORMER_RMSD>
0.4

> <PUBCHEM_CONFORMER_DIVERSEORDER>
1
2

> <PUBCHEM_MMFF94_PARTIAL_CHARGES>
16
1 -0.41
10 -0.27
11 -0.14
12 -0.14
13 0.71
14 0.71
19 0.15
2 -0.41
20 0.15
21 0.15
22 0.15
3 -0.57
4 -0.57
5 0.37
6 0.37
9 -0.27

> <PUBCHEM_EFFECTIVE_ROTOR_COUNT>
0.8

> <PUBCHEM_PHARMACOPHORE_FEATURES>
5
1 3 acceptor
1 4 acceptor
4 5 6 7 8 rings
5 1 5 9 12 14 rings
5 2 6 10 11 13 rings

> <PUBCHEM_HEAVY_ATOM_COUNT>
14

> <PUBCHEM_ATOM_DEF_STEREO_COUNT>
2

> <PUBCHEM_ATOM_UDEF_STEREO_COUNT>
0

> <PUBCHEM_BOND_DEF_STEREO_COUNT>
0

> <PUBCHEM_BOND_UDEF_STEREO_COUNT>
0

> <PUBCHEM_ISOTOPIC_ATOM_COUNT>
0

> <PUBCHEM_COMPONENT_COUNT>
1

> <PUBCHEM_CACTVS_TAUTO_COUNT>
1

> <PUBCHEM_CONFORMER_ID>
02C08E9700000001

> <PUBCHEM_MMFF94_ENERGY>
26.1744

> <PUBCHEM_FEATURE_SELFOVERLAP>
25.473

> <PUBCHEM_SHAPE_FINGERPRINT>
1 1 18339082712753909270
10857977 72 16844998122163006501
11031198 65 18187642543848315749
12423570 1 17123448371933658574
12808571 1 18410572885645189069
13024252 1 14763522434443762518
13299463 15 14202826432609242398
13380535 21 18410570686617035523
13549 16 15575263406445673836
13764800 53 18410571743484549617
14648413 74 17625832925756033709
15557651 10 18410859858174796324
15775835 57 18410857663446501573
16945 1 18338529585253082496
19837323 101 18043262257379727626
20379382 53 18050281771898256439
20653085 51 17095525050180698073
21501502 16 18410862057209147043
21524375 3 18410864256221476330
21930827 45 18263087621637438346
22802520 49 17531525369705501904
23419403 2 17326551220658032759
23557571 272 17543927702163885272
25 1 18041272248860434432
276578 36 18410008870592606611
430814 3 18411980269123880231
5084963 1 18269012958376685494
549884 4 17385731313083623545
81228 2 17907308649627852043

> <PUBCHEM_SHAPE_MULTIPOLES>
264.64
4.38
1.73
1.29
0
1.07
0
-2.91
0
0
0
0
-0.27
-0.2

> <PUBCHEM_SHAPE_SELFOVERLAP>
588.442

> <PUBCHEM_SHAPE_VOLUME>
145.3

> <PUBCHEM_COORDINATE_TYPE>
2
5
10

$$$$

