13044
  -OEChem-06261207413D

 18 18  0     0  0  0  0  0  0999 V2000
    2.9694    2.0169   -0.9964 Br  0  0  0  0  0  0  0  0  0  0  0  0
    2.7003   -1.5367    0.1256 O   0  0  0  0  0  0  0  0  0  0  0  0
   -3.4522   -0.3822   -0.2866 O   0  5  0  0  0  0  0  0  0  0  0  0
   -2.7231    1.6293    0.2046 O   0  0  0  0  0  0  0  0  0  0  0  0
   -2.5176    0.4128   -0.0243 N   0  3  0  0  0  0  0  0  0  0  0  0
    1.1769    0.3013    0.3431 C   0  0  0  0  0  0  0  0  0  0  0  0
   -0.1307    0.7853    0.3046 C   0  0  0  0  0  0  0  0  0  0  0  0
    1.4290   -1.0475    0.0924 C   0  0  0  0  0  0  0  0  0  0  0  0
   -1.1862   -0.0795    0.0152 C   0  0  0  0  0  0  0  0  0  0  0  0
    0.3736   -1.9122   -0.1969 C   0  0  0  0  0  0  0  0  0  0  0  0
   -0.9341   -1.4283   -0.2356 C   0  0  0  0  0  0  0  0  0  0  0  0
    2.2948    1.2410    0.6543 C   0  0  0  0  0  0  0  0  0  0  0  0
   -0.3046    1.8407    0.5022 H   0  0  0  0  0  0  0  0  0  0  0  0
    0.5560   -2.9652   -0.3943 H   0  0  0  0  0  0  0  0  0  0  0  0
   -1.7313   -2.1309   -0.4645 H   0  0  0  0  0  0  0  0  0  0  0  0
    3.1358    0.7517    1.1540 H   0  0  0  0  0  0  0  0  0  0  0  0
    1.9675    2.0729    1.2858 H   0  0  0  0  0  0  0  0  0  0  0  0
    2.6794   -2.4887   -0.0723 H   0  0  0  0  0  0  0  0  0  0  0  0
  1 12  1  0  0  0  0
  2  8  1  0  0  0  0
  2 18  1  0  0  0  0
  3  5  1  0  0  0  0
  4  5  2  0  0  0  0
  5  9  1  0  0  0  0
  6  7  1  0  0  0  0
  6  8  2  0  0  0  0
  6 12  1  0  0  0  0
  7  9  2  0  0  0  0
  7 13  1  0  0  0  0
  8 10  1  0  0  0  0
  9 11  1  0  0  0  0
 10 11  2  0  0  0  0
 10 14  1  0  0  0  0
 11 15  1  0  0  0  0
 12 16  1  0  0  0  0
 12 17  1  0  0  0  0
M  CHG  2   3  -1   5   1
M  END
> <PUBCHEM_COMPOUND_CID>
13044

> <PUBCHEM_CONFORMER_RMSD>
0.6

> <PUBCHEM_CONFORMER_DIVERSEORDER>
1
2

> <PUBCHEM_MMFF94_PARTIAL_CHARGES>
16
1 -0.23
10 -0.15
11 -0.15
12 0.37
13 0.15
14 0.15
15 0.15
18 0.45
2 -0.53
3 -0.52
4 -0.52
5 0.91
6 -0.14
7 -0.15
8 0.08
9 0.13

> <PUBCHEM_EFFECTIVE_ROTOR_COUNT>
2

> <PUBCHEM_PHARMACOPHORE_FEATURES>
6
1 1 hydrophobe
1 2 donor
1 3 acceptor
1 3 anion
1 4 acceptor
6 6 7 8 9 10 11 rings

> <PUBCHEM_HEAVY_ATOM_COUNT>
12

> <PUBCHEM_ATOM_DEF_STEREO_COUNT>
0

> <PUBCHEM_ATOM_UDEF_STEREO_COUNT>
0

> <PUBCHEM_BOND_DEF_STEREO_COUNT>
0

> <PUBCHEM_BOND_UDEF_STEREO_COUNT>
0

> <PUBCHEM_ISOTOPIC_ATOM_COUNT>
0

> <PUBCHEM_COMPONENT_COUNT>
1

> <PUBCHEM_CACTVS_TAUTO_COUNT>
5

> <PUBCHEM_CONFORMER_ID>
000032F400000001

> <PUBCHEM_MMFF94_ENERGY>
31.7299

> <PUBCHEM_FEATURE_SELFOVERLAP>
30.528

> <PUBCHEM_SHAPE_FINGERPRINT>
12932764 1 17603873269257277489
13380535 21 18338224951929003314
13380535 76 18338522932654936578
14325111 11 18408608067267517897
14897335 6 18337678507787880640
15219459 52 18410291436728536494
15775835 57 18334289829877925005
16945 1 18048040670579099610
20511035 2 18334304149626106378
20653085 51 18056465159216107244
20671657 1 18412261718879530292
21040471 1 18335708178508252354
21501502 16 18409450267299277299
21524375 3 18271247097585464936
23552423 10 18338801220660295059
241688 4 17254830296389958410
2748010 2 18409166575913759086
3071541 158 18196370540454209196
5084963 1 18187370977403498099
528862 383 18342746212667434938
7364860 26 18333170574765361806

> <PUBCHEM_SHAPE_MULTIPOLES>
230.31
4.74
2.17
0.78
0.92
0.38
-0.06
-2.49
-0.74
-0.78
-0.21
-0.42
-0.19
-0.51

> <PUBCHEM_SHAPE_SELFOVERLAP>
467.067

> <PUBCHEM_SHAPE_VOLUME>
139

> <PUBCHEM_COORDINATE_TYPE>
2
5
10

$$$$

