8691
  -OEChem-06261203002D

 29 29  0     0  0  0  0  0  0999 V2000
    3.0680    0.0000    0.0000 Cl  0  0  0  0  0  0  0  0  0  0  0  0
    4.8671    3.1200    0.0000 N   0  0  0  0  0  0  0  0  0  0  0  0
    3.1350    5.1200    0.0000 N   0  0  0  0  0  0  0  0  0  0  0  0
    3.1350    6.1200    0.0000 N   0  0  0  0  0  0  0  0  0  0  0  0
    3.1350    3.1200    0.0000 N   0  0  0  0  0  0  0  0  0  0  0  0
    6.5991    3.1200    0.0000 N   0  0  0  0  0  0  0  0  0  0  0  0
    4.0010    4.6200    0.0000 C   0  0  0  0  0  0  0  0  0  0  0  0
    4.0010    3.6200    0.0000 C   0  0  0  0  0  0  0  0  0  0  0  0
    4.8671    5.1200    0.0000 C   0  0  0  0  0  0  0  0  0  0  0  0
    5.7331    4.6200    0.0000 C   0  0  0  0  0  0  0  0  0  0  0  0
    5.7331    3.6200    0.0000 C   0  0  0  0  0  0  0  0  0  0  0  0
    2.2690    6.6200    0.0000 C   0  0  0  0  0  0  0  0  0  0  0  0
    2.2690    7.6200    0.0000 C   0  0  0  0  0  0  0  0  0  0  0  0
    1.4030    6.1200    0.0000 C   0  0  0  0  0  0  0  0  0  0  0  0
    1.4030    8.1200    0.0000 C   0  0  0  0  0  0  0  0  0  0  0  0
    0.5369    6.6200    0.0000 C   0  0  0  0  0  0  0  0  0  0  0  0
    0.5369    7.6200    0.0000 C   0  0  0  0  0  0  0  0  0  0  0  0
    4.8671    5.7400    0.0000 H   0  0  0  0  0  0  0  0  0  0  0  0
    6.2700    4.9300    0.0000 H   0  0  0  0  0  0  0  0  0  0  0  0
    2.8059    7.9300    0.0000 H   0  0  0  0  0  0  0  0  0  0  0  0
    1.4030    5.5000    0.0000 H   0  0  0  0  0  0  0  0  0  0  0  0
    1.4030    8.7400    0.0000 H   0  0  0  0  0  0  0  0  0  0  0  0
    0.0000    6.3100    0.0000 H   0  0  0  0  0  0  0  0  0  0  0  0
    0.0000    7.9300    0.0000 H   0  0  0  0  0  0  0  0  0  0  0  0
    3.1350    2.5000    0.0000 H   0  0  0  0  0  0  0  0  0  0  0  0
    2.5981    3.4300    0.0000 H   0  0  0  0  0  0  0  0  0  0  0  0
    7.1360    3.4300    0.0000 H   0  0  0  0  0  0  0  0  0  0  0  0
    6.5991    2.5000    0.0000 H   0  0  0  0  0  0  0  0  0  0  0  0
    4.0680    0.0000    0.0000 H   0  0  0  0  0  0  0  0  0  0  0  0
  1 29  1  0  0  0  0
  2  8  1  0  0  0  0
  2 11  2  0  0  0  0
  3  4  2  0  0  0  0
  3  7  1  0  0  0  0
  4 12  1  0  0  0  0
  5  8  1  0  0  0  0
  5 25  1  0  0  0  0
  5 26  1  0  0  0  0
  6 11  1  0  0  0  0
  6 27  1  0  0  0  0
  6 28  1  0  0  0  0
  7  8  2  0  0  0  0
  7  9  1  0  0  0  0
  9 10  2  0  0  0  0
  9 18  1  0  0  0  0
 10 11  1  0  0  0  0
 10 19  1  0  0  0  0
 12 13  2  0  0  0  0
 12 14  1  0  0  0  0
 13 15  1  0  0  0  0
 13 20  1  0  0  0  0
 14 16  2  0  0  0  0
 14 21  1  0  0  0  0
 15 17  2  0  0  0  0
 15 22  1  0  0  0  0
 16 17  1  0  0  0  0
 16 23  1  0  0  0  0
 17 24  1  0  0  0  0
M  END
> <PUBCHEM_COMPOUND_CID>
8691

> <PUBCHEM_COMPOUND_CANONICALIZED>
1

> <PUBCHEM_CACTVS_COMPLEXITY>
237

> <PUBCHEM_CACTVS_HBOND_ACCEPTOR>
5

> <PUBCHEM_CACTVS_HBOND_DONOR>
3

> <PUBCHEM_CACTVS_ROTATABLE_BOND>
2

> <PUBCHEM_CACTVS_SUBSKEYS>
AAADccBzgAAEAAAAAAAAAAAAAAAAAAAAAAA8QAAAAAAAAAABwAAAHAAYAAAACAiBEgAx8JJIEACiACZiZACCgCkhEiAImCAwdJiIYOLAkZGUIAhgkALIyCcQAAAAAAAAAAAAAAAAAAAAAAAAAAAAAAAAAA==

> <PUBCHEM_IUPAC_OPENEYE_NAME>
3-phenylazopyridine-2,6-diamine hydrochloride

> <PUBCHEM_IUPAC_CAS_NAME>
3-phenyldiazenylpyridine-2,6-diamine hydrochloride

> <PUBCHEM_IUPAC_NAME>
3-phenyldiazenylpyridine-2,6-diamine hydrochloride

> <PUBCHEM_IUPAC_SYSTEMATIC_NAME>
3-phenyldiazenylpyridine-2,6-diamine hydrochloride

> <PUBCHEM_IUPAC_TRADITIONAL_NAME>
(6-amino-3-phenylazo-2-pyridyl)amine hydrochloride

> <PUBCHEM_IUPAC_INCHI>
InChI=1S/C11H11N5.ClH/c12-10-7-6-9(11(13)14-10)16-15-8-4-2-1-3-5-8;/h1-7H,(H4,12,13,14);1H

> <PUBCHEM_IUPAC_INCHIKEY>
QQBPIHBUCMDKFG-UHFFFAOYSA-N

> <PUBCHEM_EXACT_MASS>
249.078123

> <PUBCHEM_MOLECULAR_FORMULA>
C11H12ClN5

> <PUBCHEM_MOLECULAR_WEIGHT>
249.69948

> <PUBCHEM_OPENEYE_CAN_SMILES>
C1=CC=C(C=C1)N=NC2=C(N=C(C=C2)N)N.Cl

> <PUBCHEM_OPENEYE_ISO_SMILES>
C1=CC=C(C=C1)N=NC2=C(N=C(C=C2)N)N.Cl

> <PUBCHEM_CACTVS_TPSA>
89.6

> <PUBCHEM_MONOISOTOPIC_WEIGHT>
249.078123

> <PUBCHEM_TOTAL_CHARGE>
0

> <PUBCHEM_HEAVY_ATOM_COUNT>
17

> <PUBCHEM_ATOM_DEF_STEREO_COUNT>
0

> <PUBCHEM_ATOM_UDEF_STEREO_COUNT>
0

> <PUBCHEM_BOND_DEF_STEREO_COUNT>
0

> <PUBCHEM_BOND_UDEF_STEREO_COUNT>
0

> <PUBCHEM_ISOTOPIC_ATOM_COUNT>
0

> <PUBCHEM_COMPONENT_COUNT>
2

> <PUBCHEM_CACTVS_TAUTO_COUNT>
12

> <PUBCHEM_COORDINATE_TYPE>
1
5
255

> <PUBCHEM_BONDANNOTATIONS>
10  11  8
12  13  8
12  14  8
13  15  8
14  16  8
15  17  8
16  17  8
2  11  8
2  8  8
7  8  8
7  9  8
9  10  8

$$$$

