21350392
  -OEChem-07051213093D

 25 26  0     1  0  0  0  0  0999 V2000
    1.8825   -0.8945    1.0384 O   0  0  0  0  0  0  0  0  0  0  0  0
    2.1986    2.2101   -0.3222 O   0  0  0  0  0  0  0  0  0  0  0  0
    2.7837   -1.9654   -0.7327 O   0  0  0  0  0  0  0  0  0  0  0  0
    1.7844    0.0596   -1.1016 N   0  0  0  0  0  0  0  0  0  0  0  0
    0.3314    1.0183    0.6259 C   0  0  2  0  0  0  0  0  0  0  0  0
    1.1678    1.2753   -0.6246 C   0  0  1  0  0  0  0  0  0  0  0  0
    1.1930    0.2355    1.6209 C   0  0  0  0  0  0  0  0  0  0  0  0
   -1.0185    0.4035    0.2809 C   0  0  0  0  0  0  0  0  0  0  0  0
   -2.0923    1.2257   -0.0609 C   0  0  0  0  0  0  0  0  0  0  0  0
   -1.1813   -0.9816    0.3064 C   0  0  0  0  0  0  0  0  0  0  0  0
    2.1889   -0.9828   -0.2919 C   0  0  0  0  0  0  0  0  0  0  0  0
   -3.3288    0.6629   -0.3771 C   0  0  0  0  0  0  0  0  0  0  0  0
   -2.4178   -1.5445   -0.0099 C   0  0  0  0  0  0  0  0  0  0  0  0
   -3.4915   -0.7222   -0.3516 C   0  0  0  0  0  0  0  0  0  0  0  0
    0.1140    1.9788    1.1154 H   0  0  0  0  0  0  0  0  0  0  0  0
    0.5701    1.6924   -1.4423 H   0  0  0  0  0  0  0  0  0  0  0  0
    1.9671    0.8821    2.0505 H   0  0  0  0  0  0  0  0  0  0  0  0
    0.5922   -0.1399    2.4567 H   0  0  0  0  0  0  0  0  0  0  0  0
    2.0126    0.0028   -2.0893 H   0  0  0  0  0  0  0  0  0  0  0  0
   -1.9777    2.3061   -0.0866 H   0  0  0  0  0  0  0  0  0  0  0  0
   -0.3814   -1.6621    0.5702 H   0  0  0  0  0  0  0  0  0  0  0  0
    2.8014    2.2162   -1.0850 H   0  0  0  0  0  0  0  0  0  0  0  0
   -4.1648    1.3030   -0.6437 H   0  0  0  0  0  0  0  0  0  0  0  0
   -2.5456   -2.6229    0.0109 H   0  0  0  0  0  0  0  0  0  0  0  0
   -4.4543   -1.1604   -0.5976 H   0  0  0  0  0  0  0  0  0  0  0  0
  1  7  1  0  0  0  0
  1 11  1  0  0  0  0
  2  6  1  0  0  0  0
  2 22  1  0  0  0  0
  3 11  2  0  0  0  0
  4  6  1  0  0  0  0
  4 11  1  0  0  0  0
  4 19  1  0  0  0  0
  5  6  1  0  0  0  0
  5  7  1  0  0  0  0
  5  8  1  0  0  0  0
  5 15  1  0  0  0  0
  6 16  1  0  0  0  0
  7 17  1  0  0  0  0
  7 18  1  0  0  0  0
  8  9  2  0  0  0  0
  8 10  1  0  0  0  0
  9 12  1  0  0  0  0
  9 20  1  0  0  0  0
 10 13  2  0  0  0  0
 10 21  1  0  0  0  0
 12 14  2  0  0  0  0
 12 23  1  0  0  0  0
 13 14  1  0  0  0  0
 13 24  1  0  0  0  0
 14 25  1  0  0  0  0
M  END
> <PUBCHEM_COMPOUND_CID>
21350392

> <PUBCHEM_CONFORMER_RMSD>
0.6

> <PUBCHEM_CONFORMER_DIVERSEORDER>
3
1
7
4
2
6
8
5

> <PUBCHEM_MMFF94_PARTIAL_CHARGES>
21
1 -0.43
10 -0.15
11 0.78
12 -0.15
13 -0.15
14 -0.15
19 0.37
2 -0.68
20 0.15
21 0.15
22 0.4
23 0.15
24 0.15
25 0.15
3 -0.57
4 -0.73
5 0.14
6 0.58
7 0.28
8 -0.14
9 -0.15

> <PUBCHEM_EFFECTIVE_ROTOR_COUNT>
2

> <PUBCHEM_PHARMACOPHORE_FEATURES>
6
1 2 acceptor
1 2 donor
1 3 acceptor
1 4 donor
6 1 4 5 6 7 11 rings
6 8 9 10 12 13 14 rings

> <PUBCHEM_HEAVY_ATOM_COUNT>
14

> <PUBCHEM_ATOM_DEF_STEREO_COUNT>
0

> <PUBCHEM_ATOM_UDEF_STEREO_COUNT>
2

> <PUBCHEM_BOND_DEF_STEREO_COUNT>
0

> <PUBCHEM_BOND_UDEF_STEREO_COUNT>
0

> <PUBCHEM_ISOTOPIC_ATOM_COUNT>
0

> <PUBCHEM_COMPONENT_COUNT>
1

> <PUBCHEM_CACTVS_TAUTO_COUNT>
2

> <PUBCHEM_CONFORMER_ID>
0145C7F800000003

> <PUBCHEM_MMFF94_ENERGY>
37.5331

> <PUBCHEM_FEATURE_SELFOVERLAP>
30.491

> <PUBCHEM_SHAPE_FINGERPRINT>
10465860 71 18339350989401393646
10922523 26 18335991947203233919
12897270 3 18196364823562795669
12932764 1 17418099836341866933
13571099 22 18261116317647939183
14128692 85 18337665407968803298
14350558 41 18186802495395068771
14648413 74 18412821369818091773
15775835 57 17632295704901402453
16945 1 18270687600769691641
17990270 104 18409730646895647822
18186145 218 17918280852929749455
20201158 50 18260267490207913615
20645477 70 18410862023497976167
20671657 53 18262501711068220038
21069387 34 16588606304090152301
21501502 16 18334852797338178717
21524375 3 17625260814806824580
22802520 49 18271231747293033059
230 275 16773519875699406445
23552423 10 18343306942180864459
23559900 14 18044663237922374394
2748010 2 18341899541627591155
3248919 1 18336840710118958465
369184 2 14201399395892889747
5084963 1 18334860549717127377
549884 4 17846776334093021469
7364860 26 18336267847128057280
74978 22 18413389856311275297
8030462 33 17060344037014747769

> <PUBCHEM_SHAPE_MULTIPOLES>
265.52
5.02
1.87
1.06
2.44
0.01
-0.25
-1.06
1.02
-0.78
0.29
-0.61
0
0.11

> <PUBCHEM_SHAPE_SELFOVERLAP>
563.026

> <PUBCHEM_SHAPE_VOLUME>
145.4

> <PUBCHEM_COORDINATE_TYPE>
2
5
10

$$$$

