4772
  -OEChem-06261200203D

 43 45  0     0  0  0  0  0  0999 V2000
    3.4210   -1.8478    1.9638 O   0  0  0  0  0  0  0  0  0  0  0  0
   -0.1235    0.0386   -0.6955 N   0  0  0  0  0  0  0  0  0  0  0  0
    0.3795    3.0646    0.1519 N   0  3  0  0  0  0  0  0  0  0  0  0
    2.2993    2.0839   -0.4031 N   0  0  0  0  0  0  0  0  0  0  0  0
    0.2725    1.2273   -1.4600 C   0  0  0  0  0  0  0  0  0  0  0  0
   -1.4133   -0.0876   -0.2616 C   0  0  0  0  0  0  0  0  0  0  0  0
   -2.4698    0.6222   -1.0798 C   0  0  0  0  0  0  0  0  0  0  0  0
    0.9901    2.1371   -0.5614 C   0  0  0  0  0  0  0  0  0  0  0  0
   -3.9080    0.1164   -0.8630 C   0  0  0  0  0  0  0  0  0  0  0  0
    1.3797    3.7931    0.9387 C   0  0  0  0  0  0  0  0  0  0  0  0
    2.7038    3.1158    0.5568 C   0  0  0  0  0  0  0  0  0  0  0  0
   -4.1602   -0.4817    0.4984 C   0  0  0  0  0  0  0  0  0  0  0  0
    0.8806   -0.9529   -0.4957 C   0  0  0  0  0  0  0  0  0  0  0  0
   -1.7690   -0.7875    0.8302 C   0  0  0  0  0  0  0  0  0  0  0  0
   -3.1387   -0.8832    1.2723 C   0  0  0  0  0  0  0  0  0  0  0  0
   -5.5911   -0.6230    0.9201 C   0  0  0  0  0  0  0  0  0  0  0  0
    1.6634   -0.9100    0.6491 C   0  0  0  0  0  0  0  0  0  0  0  0
    1.0596   -1.9456   -1.4486 C   0  0  0  0  0  0  0  0  0  0  0  0
    2.6462   -1.8805    0.8454 C   0  0  0  0  0  0  0  0  0  0  0  0
    2.0424   -2.9157   -1.2524 C   0  0  0  0  0  0  0  0  0  0  0  0
    2.8356   -2.8834   -0.1055 C   0  0  0  0  0  0  0  0  0  0  0  0
    0.9272    0.9340   -2.2920 H   0  0  0  0  0  0  0  0  0  0  0  0
   -0.5454    1.7738   -1.9372 H   0  0  0  0  0  0  0  0  0  0  0  0
   -2.4479    1.6913   -0.8301 H   0  0  0  0  0  0  0  0  0  0  0  0
   -2.2647    0.5238   -2.1534 H   0  0  0  0  0  0  0  0  0  0  0  0
   -4.1412   -0.6464   -1.6175 H   0  0  0  0  0  0  0  0  0  0  0  0
   -4.5968    0.9518   -1.0395 H   0  0  0  0  0  0  0  0  0  0  0  0
    1.1571    3.6844    2.0037 H   0  0  0  0  0  0  0  0  0  0  0  0
    1.3654    4.8502    0.6601 H   0  0  0  0  0  0  0  0  0  0  0  0
    3.3960    3.8122    0.0760 H   0  0  0  0  0  0  0  0  0  0  0  0
    3.1855    2.6448    1.4181 H   0  0  0  0  0  0  0  0  0  0  0  0
   -0.6251    3.1929    0.1109 H   0  0  0  0  0  0  0  0  0  0  0  0
    2.8708    1.4111   -0.9013 H   0  0  0  0  0  0  0  0  0  0  0  0
   -1.0433   -1.2997    1.4532 H   0  0  0  0  0  0  0  0  0  0  0  0
   -3.3117   -1.3255    2.2481 H   0  0  0  0  0  0  0  0  0  0  0  0
   -6.1379   -1.2445    0.2037 H   0  0  0  0  0  0  0  0  0  0  0  0
   -6.0721    0.3592    0.9670 H   0  0  0  0  0  0  0  0  0  0  0  0
   -5.6855   -1.0887    1.9067 H   0  0  0  0  0  0  0  0  0  0  0  0
    1.5177   -0.1341    1.3963 H   0  0  0  0  0  0  0  0  0  0  0  0
    0.4464   -1.9788   -2.3449 H   0  0  0  0  0  0  0  0  0  0  0  0
    2.1899   -3.6965   -1.9929 H   0  0  0  0  0  0  0  0  0  0  0  0
    3.5979   -3.6450    0.0353 H   0  0  0  0  0  0  0  0  0  0  0  0
    4.0469   -2.5918    1.9353 H   0  0  0  0  0  0  0  0  0  0  0  0
  1 19  1  0  0  0  0
  1 43  1  0  0  0  0
  2  5  1  0  0  0  0
  2  6  1  0  0  0  0
  2 13  1  0  0  0  0
  3  8  2  0  0  0  0
  3 10  1  0  0  0  0
  3 32  1  0  0  0  0
  4  8  1  0  0  0  0
  4 11  1  0  0  0  0
  4 33  1  0  0  0  0
  5  8  1  0  0  0  0
  5 22  1  0  0  0  0
  5 23  1  0  0  0  0
  6  7  1  0  0  0  0
  6 14  2  0  0  0  0
  7  9  1  0  0  0  0
  7 24  1  0  0  0  0
  7 25  1  0  0  0  0
  9 12  1  0  0  0  0
  9 26  1  0  0  0  0
  9 27  1  0  0  0  0
 10 11  1  0  0  0  0
 10 28  1  0  0  0  0
 10 29  1  0  0  0  0
 11 30  1  0  0  0  0
 11 31  1  0  0  0  0
 12 15  2  0  0  0  0
 12 16  1  0  0  0  0
 13 17  2  0  0  0  0
 13 18  1  0  0  0  0
 14 15  1  0  0  0  0
 14 34  1  0  0  0  0
 15 35  1  0  0  0  0
 16 36  1  0  0  0  0
 16 37  1  0  0  0  0
 16 38  1  0  0  0  0
 17 19  1  0  0  0  0
 17 39  1  0  0  0  0
 18 20  2  0  0  0  0
 18 40  1  0  0  0  0
 19 21  2  0  0  0  0
 20 21  1  0  0  0  0
 20 41  1  0  0  0  0
 21 42  1  0  0  0  0
M  CHG  1   3   1
M  END
> <PUBCHEM_COMPOUND_CID>
4772

> <PUBCHEM_CONFORMER_RMSD>
0.8

> <PUBCHEM_CONFORMER_DIVERSEORDER>
1
16
20
26
18
23
10
7
17
15
14
25
12
19
24
11
8
13
4
22
9
28
2
6
21
27
3
5

> <PUBCHEM_MMFF94_PARTIAL_CHARGES>
30
1 -0.53
10 0.49
11 0.49
12 -0.28
13 0.1
14 -0.15
15 -0.15
16 0.14
17 -0.15
18 -0.15
19 0.08
2 -0.57
20 -0.15
21 -0.15
3 -0.79
32 0.45
33 0.45
34 0.15
35 0.15
39 0.15
4 -0.79
40 0.15
41 0.15
42 0.15
43 0.45
5 0.47
6 -0.04
7 0.14
8 0.6
9 0.14

> <PUBCHEM_EFFECTIVE_ROTOR_COUNT>
5

> <PUBCHEM_PHARMACOPHORE_FEATURES>
8
1 1 donor
1 2 cation
1 3 donor
1 4 donor
3 3 4 8 cation
5 3 4 8 10 11 rings
6 13 17 18 19 20 21 rings
6 6 7 9 12 14 15 rings

> <PUBCHEM_HEAVY_ATOM_COUNT>
21

> <PUBCHEM_ATOM_DEF_STEREO_COUNT>
0

> <PUBCHEM_ATOM_UDEF_STEREO_COUNT>
0

> <PUBCHEM_BOND_DEF_STEREO_COUNT>
0

> <PUBCHEM_BOND_UDEF_STEREO_COUNT>
0

> <PUBCHEM_ISOTOPIC_ATOM_COUNT>
0

> <PUBCHEM_COMPONENT_COUNT>
1

> <PUBCHEM_CACTVS_TAUTO_COUNT>
6

> <PUBCHEM_CONFORMER_ID>
000012A400000001

> <PUBCHEM_MMFF94_ENERGY>
71.8936

> <PUBCHEM_FEATURE_SELFOVERLAP>
40.67

> <PUBCHEM_SHAPE_FINGERPRINT>
11578080 2 16772973513204945838
11582403 64 16186721485371139077
12363563 72 18269551817990711119
12553582 1 18335701701592575599
12644460 14 18336533946237665435
12707595 3 18342170124435922679
12788726 201 17691964186342739530
12839892 36 17836932196326607907
13134695 92 18338525230330344117
13140716 1 18121780521734218520
13533116 47 18340193121641857507
13681431 1 18340195384171685612
14022349 108 18338807719061916984
14178342 30 17767954343301384339
14787075 74 18060132142253755506
14955137 171 18335132073513277318
15420108 30 18116721720242533468
17876694 64 17677603327886832489
1813 80 17679561579307377110
19765921 60 17534054169324741049
20369508 70 18272928345559629251
20600515 1 17698738222005667204
21041028 32 18336824316049707845
21344244 78 18113621209712244793
21421861 104 18335967736488787785
21524375 3 17832982750258715524
21731228 192 17834675998160423648
22182313 1 17703520917762147983
23419403 2 17914927372039434180
23557571 272 17905616858231747262
23558518 356 17111859712982464596
23559900 14 17775563126916192863
31174 14 18413103944638622743
3286 77 18201715180920555647
3411729 13 18342173319606591784
35225 105 17112393534341279216
394222 165 17896307026911942865
4340502 62 17974271146328707347
474 4 17971463010436846097
495365 180 18338513041730044389
5104073 3 18341033144420357299
5845 1 12148070711912825812
5895379 119 17243269881202264705
7364860 26 18337663140178643887
81228 2 17690559014925154324
84936 31 18261680285186856166
9841814 1 18342165700556102987

> <PUBCHEM_SHAPE_MULTIPOLES>
411.36
7.18
4.17
1.47
10.83
3.04
-0.08
-2.74
-2.58
-6.25
-0.38
-0.24
-0.46
0.59

> <PUBCHEM_SHAPE_SELFOVERLAP>
878.77

> <PUBCHEM_SHAPE_VOLUME>
229

> <PUBCHEM_COORDINATE_TYPE>
2
5
10

$$$$

