12981
  -OEChem-06261207373D

 25 24  0     1  0  0  0  0  0999 V2000
   -2.0343   -0.8836   -0.3852 O   0  0  0  0  0  0  0  0  0  0  0  0
   -3.3464   -1.3206    0.0578 O   0  0  0  0  0  0  0  0  0  0  0  0
    0.6976   -0.1160    0.2945 C   0  0  0  0  0  0  0  0  0  0  0  0
   -0.4146    0.8730   -0.0715 C   0  0  0  0  0  0  0  0  0  0  0  0
    2.0721    0.4197   -0.1116 C   0  0  0  0  0  0  0  0  0  0  0  0
   -1.8028    0.3436    0.3008 C   0  0  1  0  0  0  0  0  0  0  0  0
    3.1785   -0.5827    0.2161 C   0  0  0  0  0  0  0  0  0  0  0  0
   -2.8923    1.3352   -0.0845 C   0  0  0  0  0  0  0  0  0  0  0  0
    4.5422   -0.0683   -0.2165 C   0  0  0  0  0  0  0  0  0  0  0  0
    0.6796   -0.3054    1.3746 H   0  0  0  0  0  0  0  0  0  0  0  0
    0.5247   -1.0763   -0.2055 H   0  0  0  0  0  0  0  0  0  0  0  0
   -0.2355    1.8311    0.4308 H   0  0  0  0  0  0  0  0  0  0  0  0
   -0.3744    1.0556   -1.1530 H   0  0  0  0  0  0  0  0  0  0  0  0
    2.2664    1.3665    0.4067 H   0  0  0  0  0  0  0  0  0  0  0  0
    2.0791    0.6329   -1.1876 H   0  0  0  0  0  0  0  0  0  0  0  0
   -1.8377    0.1574    1.3815 H   0  0  0  0  0  0  0  0  0  0  0  0
    3.1929   -0.7817    1.2940 H   0  0  0  0  0  0  0  0  0  0  0  0
    2.9794   -1.5360   -0.2874 H   0  0  0  0  0  0  0  0  0  0  0  0
   -2.6861    2.3262    0.3328 H   0  0  0  0  0  0  0  0  0  0  0  0
   -2.9736    1.4256   -1.1735 H   0  0  0  0  0  0  0  0  0  0  0  0
   -3.8757    1.0248    0.2833 H   0  0  0  0  0  0  0  0  0  0  0  0
    4.7868    0.8698    0.2919 H   0  0  0  0  0  0  0  0  0  0  0  0
    4.5707    0.1081   -1.2964 H   0  0  0  0  0  0  0  0  0  0  0  0
    5.3185   -0.8000    0.0286 H   0  0  0  0  0  0  0  0  0  0  0  0
   -3.0220   -1.9608    0.7141 H   0  0  0  0  0  0  0  0  0  0  0  0
  1  2  1  0  0  0  0
  1  6  1  0  0  0  0
  2 25  1  0  0  0  0
  3  4  1  0  0  0  0
  3  5  1  0  0  0  0
  3 10  1  0  0  0  0
  3 11  1  0  0  0  0
  4  6  1  0  0  0  0
  4 12  1  0  0  0  0
  4 13  1  0  0  0  0
  5  7  1  0  0  0  0
  5 14  1  0  0  0  0
  5 15  1  0  0  0  0
  6  8  1  0  0  0  0
  6 16  1  0  0  0  0
  7  9  1  0  0  0  0
  7 17  1  0  0  0  0
  7 18  1  0  0  0  0
  8 19  1  0  0  0  0
  8 20  1  0  0  0  0
  8 21  1  0  0  0  0
  9 22  1  0  0  0  0
  9 23  1  0  0  0  0
  9 24  1  0  0  0  0
M  END
> <PUBCHEM_COMPOUND_CID>
12981

> <PUBCHEM_CONFORMER_RMSD>
0.6

> <PUBCHEM_CONFORMER_DIVERSEORDER>
1
118
140
6
141
48
88
132
2
114
5
126
79
133
86
57
130
8
121
71
119
16
127
30
134
10
135
58
95
7
116
40
131
9
4
122
39
12
24
102
59
123
111
3
139
38
29
142
136
17
80
117
84
143
129
138
68
78
35
69
124
70
137
128
120
101
19
72
115
81
56
97
125
46
60
96
11
103
99
100
51
15
85
22
73
43
18
67
62
45
90
54
89
82
13
87
20
36
65
63
64
74
47
49
107
110
112
105
53
75
113
25
92
27
76
14
109
106
41
33
55
66
37
23
91
28
42
31
52
61
83
77
32
44
21
26
93
98
104
34
108
50
94

> <PUBCHEM_MMFF94_PARTIAL_CHARGES>
4
1 -0.28
2 -0.4
25 0.4
6 0.28

> <PUBCHEM_EFFECTIVE_ROTOR_COUNT>
5

> <PUBCHEM_PHARMACOPHORE_FEATURES>
2
1 9 hydrophobe
4 3 4 5 7 hydrophobe

> <PUBCHEM_HEAVY_ATOM_COUNT>
9

> <PUBCHEM_ATOM_DEF_STEREO_COUNT>
0

> <PUBCHEM_ATOM_UDEF_STEREO_COUNT>
1

> <PUBCHEM_BOND_DEF_STEREO_COUNT>
0

> <PUBCHEM_BOND_UDEF_STEREO_COUNT>
0

> <PUBCHEM_ISOTOPIC_ATOM_COUNT>
0

> <PUBCHEM_COMPONENT_COUNT>
1

> <PUBCHEM_CACTVS_TAUTO_COUNT>
1

> <PUBCHEM_CONFORMER_ID>
000032B500000001

> <PUBCHEM_MMFF94_ENERGY>
1.1541

> <PUBCHEM_FEATURE_SELFOVERLAP>
10.149

> <PUBCHEM_SHAPE_FINGERPRINT>
11062470 55 18273212036628324416
12932764 1 17703518773866916328
14325111 11 18411138052239487600
14577589 140 17967536787204064365
177051 138 18334294253973736862
190213 19 17749390386456572672
20645477 70 16516246395968137828
21061003 4 16877943819346513777
21293036 1 16559032666670468386
22485316 2 18411985792995154890
3248919 1 17313379054372066160

> <PUBCHEM_SHAPE_MULTIPOLES>
173.48
7.48
1.18
0.64
5.09
0.08
-0.01
0.89
0.42
-1.21
0.04
0.05
-0.01
-0.11

> <PUBCHEM_SHAPE_SELFOVERLAP>
304.989

> <PUBCHEM_SHAPE_VOLUME>
115.2

> <PUBCHEM_COORDINATE_TYPE>
2
5
10

$$$$

