38854
  -OEChem-07051213002D

 25 26  0     0  0  0  0  0  0999 V2000
    3.7320   -1.0950    0.0000 O   0  0  0  0  0  0  0  0  0  0  0  0
    5.4641   -1.0950    0.0000 N   0  0  0  0  0  0  0  0  0  0  0  0
    5.4641    0.9050    0.0000 N   0  0  0  0  0  0  0  0  0  0  0  0
    6.3301    0.4050    0.0000 N   0  0  0  0  0  0  0  0  0  0  0  0
    5.4641   -2.0950    0.0000 N   0  0  0  0  0  0  0  0  0  0  0  0
    4.5981    0.4050    0.0000 C   0  0  0  0  0  0  0  0  0  0  0  0
    3.7320    0.9050    0.0000 C   0  0  0  0  0  0  0  0  0  0  0  0
    4.5981   -0.5950    0.0000 C   0  0  0  0  0  0  0  0  0  0  0  0
    6.3301   -0.5950    0.0000 C   0  0  0  0  0  0  0  0  0  0  0  0
    3.7320    1.9050    0.0000 C   0  0  0  0  0  0  0  0  0  0  0  0
    2.8660    0.4050    0.0000 C   0  0  0  0  0  0  0  0  0  0  0  0
    7.1962   -1.0950    0.0000 C   0  0  0  0  0  0  0  0  0  0  0  0
    2.8660    2.4050    0.0000 C   0  0  0  0  0  0  0  0  0  0  0  0
    2.0000    0.9050    0.0000 C   0  0  0  0  0  0  0  0  0  0  0  0
    2.0000    1.9050    0.0000 C   0  0  0  0  0  0  0  0  0  0  0  0
    4.2690    2.2150    0.0000 H   0  0  0  0  0  0  0  0  0  0  0  0
    2.8660   -0.2150    0.0000 H   0  0  0  0  0  0  0  0  0  0  0  0
    6.8862   -1.6319    0.0000 H   0  0  0  0  0  0  0  0  0  0  0  0
    7.7331   -1.4050    0.0000 H   0  0  0  0  0  0  0  0  0  0  0  0
    7.5062   -0.5581    0.0000 H   0  0  0  0  0  0  0  0  0  0  0  0
    2.8660    3.0250    0.0000 H   0  0  0  0  0  0  0  0  0  0  0  0
    1.4631    0.5950    0.0000 H   0  0  0  0  0  0  0  0  0  0  0  0
    1.4631    2.2150    0.0000 H   0  0  0  0  0  0  0  0  0  0  0  0
    6.0010   -2.4050    0.0000 H   0  0  0  0  0  0  0  0  0  0  0  0
    4.9272   -2.4050    0.0000 H   0  0  0  0  0  0  0  0  0  0  0  0
  1  8  2  0  0  0  0
  2  5  1  0  0  0  0
  2  8  1  0  0  0  0
  2  9  1  0  0  0  0
  3  4  1  0  0  0  0
  3  6  2  0  0  0  0
  4  9  2  0  0  0  0
  5 24  1  0  0  0  0
  5 25  1  0  0  0  0
  6  7  1  0  0  0  0
  6  8  1  0  0  0  0
  7 10  2  0  0  0  0
  7 11  1  0  0  0  0
  9 12  1  0  0  0  0
 10 13  1  0  0  0  0
 10 16  1  0  0  0  0
 11 14  2  0  0  0  0
 11 17  1  0  0  0  0
 12 18  1  0  0  0  0
 12 19  1  0  0  0  0
 12 20  1  0  0  0  0
 13 15  2  0  0  0  0
 13 21  1  0  0  0  0
 14 15  1  0  0  0  0
 14 22  1  0  0  0  0
 15 23  1  0  0  0  0
M  END
> <PUBCHEM_COMPOUND_CID>
38854

> <PUBCHEM_COMPOUND_CANONICALIZED>
1

> <PUBCHEM_CACTVS_COMPLEXITY>
328

> <PUBCHEM_CACTVS_HBOND_ACCEPTOR>
4

> <PUBCHEM_CACTVS_HBOND_DONOR>
1

> <PUBCHEM_CACTVS_ROTATABLE_BOND>
1

> <PUBCHEM_CACTVS_SUBSKEYS>
AAADccBzoAAAAAAAAAAAAAAAAAAAAAAAAAAwQAAAAAAAAAABAAAAHgAYAAAADAiBmAAzAIICAACoAyNyMAACAAAgAAAbqAEwAJgIILKAnRGEIAAghACIiAcYiICOAAAAAAAAAAAAAAAAAAAAAAAAAAAAAA==

> <PUBCHEM_IUPAC_OPENEYE_NAME>
4-amino-3-methyl-6-phenyl-1,2,4-triazin-5-one

> <PUBCHEM_IUPAC_CAS_NAME>
4-amino-3-methyl-6-phenyl-1,2,4-triazin-5-one

> <PUBCHEM_IUPAC_NAME>
4-amino-3-methyl-6-phenyl-1,2,4-triazin-5-one

> <PUBCHEM_IUPAC_SYSTEMATIC_NAME>
4-azanyl-3-methyl-6-phenyl-1,2,4-triazin-5-one

> <PUBCHEM_IUPAC_TRADITIONAL_NAME>
4-amino-3-methyl-6-phenyl-1,2,4-triazin-5-one

> <PUBCHEM_IUPAC_INCHI>
InChI=1S/C10H10N4O/c1-7-12-13-9(10(15)14(7)11)8-5-3-2-4-6-8/h2-6H,11H2,1H3

> <PUBCHEM_IUPAC_INCHIKEY>
VHCNQEUWZYOAEV-UHFFFAOYSA-N

> <PUBCHEM_XLOGP3>
0.7

> <PUBCHEM_EXACT_MASS>
202.085461

> <PUBCHEM_MOLECULAR_FORMULA>
C10H10N4O

> <PUBCHEM_MOLECULAR_WEIGHT>
202.2126

> <PUBCHEM_OPENEYE_CAN_SMILES>
CC1=NN=C(C(=O)N1N)C2=CC=CC=C2

> <PUBCHEM_OPENEYE_ISO_SMILES>
CC1=NN=C(C(=O)N1N)C2=CC=CC=C2

> <PUBCHEM_CACTVS_TPSA>
71

> <PUBCHEM_MONOISOTOPIC_WEIGHT>
202.085461

> <PUBCHEM_TOTAL_CHARGE>
0

> <PUBCHEM_HEAVY_ATOM_COUNT>
15

> <PUBCHEM_ATOM_DEF_STEREO_COUNT>
0

> <PUBCHEM_ATOM_UDEF_STEREO_COUNT>
0

> <PUBCHEM_BOND_DEF_STEREO_COUNT>
0

> <PUBCHEM_BOND_UDEF_STEREO_COUNT>
0

> <PUBCHEM_ISOTOPIC_ATOM_COUNT>
0

> <PUBCHEM_COMPONENT_COUNT>
1

> <PUBCHEM_CACTVS_TAUTO_COUNT>
1

> <PUBCHEM_COORDINATE_TYPE>
1
5
255

> <PUBCHEM_BONDANNOTATIONS>
10  13  8
11  14  8
13  15  8
14  15  8
2  8  8
2  9  8
3  4  8
3  6  8
4  9  8
6  8  8
7  10  8
7  11  8

$$$$

