91523
  -OEChem-07051213133D

 31 30  0     1  0  0  0  0  0999 V2000
   -2.9089   -0.3520   -0.2593 S   0  0  1  0  0  0  0  0  0  0  0  0
    0.2736   -0.5323    0.3792 S   0  0  0  0  0  0  0  0  0  0  0  0
    2.1947   -0.3101   -0.4435 P   0  0  0  0  0  0  0  0  0  0  0  0
    3.0525   -1.6641   -0.1698 O   0  0  0  0  0  0  0  0  0  0  0  0
    3.0385    0.8205    0.3643 O   0  0  0  0  0  0  0  0  0  0  0  0
   -3.1690    0.1513   -1.6431 O   0  0  0  0  0  0  0  0  0  0  0  0
    2.0969    0.0142   -1.9119 O   0  0  0  0  0  0  0  0  0  0  0  0
   -0.5427    1.0541    0.1139 C   0  0  1  0  0  0  0  0  0  0  0  0
   -1.9829    0.9545    0.6159 C   0  0  0  0  0  0  0  0  0  0  0  0
    0.2632    2.1380    0.8276 C   0  0  0  0  0  0  0  0  0  0  0  0
   -4.4287   -0.1474    0.6978 C   0  0  0  0  0  0  0  0  0  0  0  0
   -5.5066   -1.1114    0.2464 C   0  0  0  0  0  0  0  0  0  0  0  0
    3.2327   -2.0996    1.1669 C   0  0  0  0  0  0  0  0  0  0  0  0
    4.3867    1.0841    0.0157 C   0  0  0  0  0  0  0  0  0  0  0  0
   -0.5441    1.2641   -0.9619 H   0  0  0  0  0  0  0  0  0  0  0  0
   -2.5062    1.9026    0.4493 H   0  0  0  0  0  0  0  0  0  0  0  0
   -2.0118    0.7381    1.6903 H   0  0  0  0  0  0  0  0  0  0  0  0
    0.4870    1.8814    1.8689 H   0  0  0  0  0  0  0  0  0  0  0  0
    1.1939    2.3637    0.3023 H   0  0  0  0  0  0  0  0  0  0  0  0
   -0.3071    3.0744    0.8415 H   0  0  0  0  0  0  0  0  0  0  0  0
   -4.1972   -0.3245    1.7527 H   0  0  0  0  0  0  0  0  0  0  0  0
   -4.7785    0.8839    0.5873 H   0  0  0  0  0  0  0  0  0  0  0  0
   -5.7698   -0.9497   -0.8043 H   0  0  0  0  0  0  0  0  0  0  0  0
   -5.1790   -2.1510    0.3536 H   0  0  0  0  0  0  0  0  0  0  0  0
   -6.4119   -0.9772    0.8468 H   0  0  0  0  0  0  0  0  0  0  0  0
    2.3448   -2.6434    1.4986 H   0  0  0  0  0  0  0  0  0  0  0  0
    3.4240   -1.2586    1.8380 H   0  0  0  0  0  0  0  0  0  0  0  0
    4.0906   -2.7761    1.1985 H   0  0  0  0  0  0  0  0  0  0  0  0
    5.0058    0.2057    0.2127 H   0  0  0  0  0  0  0  0  0  0  0  0
    4.7483    1.9185    0.6214 H   0  0  0  0  0  0  0  0  0  0  0  0
    4.4521    1.3553   -1.0410 H   0  0  0  0  0  0  0  0  0  0  0  0
  1  6  2  0  0  0  0
  1  9  1  0  0  0  0
  1 11  1  0  0  0  0
  2  3  1  0  0  0  0
  2  8  1  0  0  0  0
  3  4  1  0  0  0  0
  3  5  1  0  0  0  0
  3  7  2  0  0  0  0
  4 13  1  0  0  0  0
  5 14  1  0  0  0  0
  8  9  1  0  0  0  0
  8 10  1  0  0  0  0
  8 15  1  0  0  0  0
  9 16  1  0  0  0  0
  9 17  1  0  0  0  0
 10 18  1  0  0  0  0
 10 19  1  0  0  0  0
 10 20  1  0  0  0  0
 11 12  1  0  0  0  0
 11 21  1  0  0  0  0
 11 22  1  0  0  0  0
 12 23  1  0  0  0  0
 12 24  1  0  0  0  0
 12 25  1  0  0  0  0
 13 26  1  0  0  0  0
 13 27  1  0  0  0  0
 13 28  1  0  0  0  0
 14 29  1  0  0  0  0
 14 30  1  0  0  0  0
 14 31  1  0  0  0  0
M  END
> <PUBCHEM_COMPOUND_CID>
91523

> <PUBCHEM_CONFORMER_RMSD>
0.8

> <PUBCHEM_CONFORMER_DIVERSEORDER>
1
105
155
176
183
172
37
130
34
117
167
11
136
191
20
111
151
157
23
4
86
169
152
41
39
208
36
19
213
109
166
162
30
202
89
67
45
26
43
78
42
58
12
160
95
113
66
211
100
190
146
125
10
31
77
144
62
175
54
121
196
214
137
153
44
150
48
174
73
132
51
207
80
68
32
96
126
209
142
13
173
187
199
74
57
93
140
163
88
79
206
154
22
101
139
84
25
47
29
143
61
40
210
186
200
120
195
181
138
115
194
33
35
133
192
24
91
177
112
204
107
17
122
46
114
189
108
16
159
104
81
98
184
180
99
28
158
129
178
198
123
70
59
127
94
55
161
56
63
14
124
49
197
92
205
134
15
106
18
52
185
110
145
97
75
9
5
102
212
149
215
148
203
76
71
165
2
64
135
21
171
147
182
168
65
193
53
141
90
164
3
27
179
50
188
8
85
7
38
170
156
131
201
118
103
119
82
116
60
6
69
128
87
72
83

> <PUBCHEM_MMFF94_PARTIAL_CHARGES>
12
1 0.11
11 0.19
13 0.28
14 0.28
2 -0.48
3 1.49
4 -0.55
5 -0.55
6 -0.5
7 -0.7
8 0.23
9 0.19

> <PUBCHEM_EFFECTIVE_ROTOR_COUNT>
7

> <PUBCHEM_PHARMACOPHORE_FEATURES>
3
1 10 hydrophobe
1 6 acceptor
1 7 acceptor

> <PUBCHEM_HEAVY_ATOM_COUNT>
14

> <PUBCHEM_ATOM_DEF_STEREO_COUNT>
0

> <PUBCHEM_ATOM_UDEF_STEREO_COUNT>
2

> <PUBCHEM_BOND_DEF_STEREO_COUNT>
0

> <PUBCHEM_BOND_UDEF_STEREO_COUNT>
0

> <PUBCHEM_ISOTOPIC_ATOM_COUNT>
0

> <PUBCHEM_COMPONENT_COUNT>
1

> <PUBCHEM_CACTVS_TAUTO_COUNT>
1

> <PUBCHEM_CONFORMER_ID>
0001658300000001

> <PUBCHEM_MMFF94_ENERGY>
12.7631

> <PUBCHEM_FEATURE_SELFOVERLAP>
15.223

> <PUBCHEM_SHAPE_FINGERPRINT>
12553582 1 17748834007439234405
12616999 72 17846204541065779430
13705890 14 17775284988564549094
14123238 8 17704071759474871557
14252887 29 17749376057881255221
15375462 189 18187368705365817889
18186145 218 17346035687819783601
20645477 70 18411981394648470146
20671657 53 17559675225292656706
21503847 285 6483353330957807770
21524375 3 12103851154884540617
22485316 2 18411418406377472587
22959321 4 18340206392062153834
23402539 116 18186241740602536916
23557571 272 17346326985592935413
265663 24 14692575390352658609
351380 180 14620798163137027637
4990 188 15841550756591509243

> <PUBCHEM_SHAPE_MULTIPOLES>
276.18
9.79
1.84
1.21
7.22
0.11
-0.47
3.11
0.42
-1.55
0.68
-0.14
0.06
-0.37

> <PUBCHEM_SHAPE_SELFOVERLAP>
467.294

> <PUBCHEM_SHAPE_VOLUME>
187.7

> <PUBCHEM_COORDINATE_TYPE>
2
5
10

$$$$

