17395390
  -OEChem-06241222492D

 49 51  0     0  0  0  0  0  0999 V2000
    5.4641    1.0000    0.0000 Cl  0  0  0  0  0  0  0  0  0  0  0  0
    4.5981   -3.5000    0.0000 O   0  0  0  0  0  0  0  0  0  0  0  0
    5.4641    3.0000    0.0000 O   0  0  0  0  0  0  0  0  0  0  0  0
    3.7320   -2.0000    0.0000 N   0  0  0  0  0  0  0  0  0  0  0  0
    3.7320    0.0000    0.0000 N   0  0  0  0  0  0  0  0  0  0  0  0
    3.7320    3.0000    0.0000 N   0  0  0  0  0  0  0  0  0  0  0  0
    2.8660    2.5000    0.0000 N   0  0  0  0  0  0  0  0  0  0  0  0
    4.5981   -1.5000    0.0000 C   0  0  0  0  0  0  0  0  0  0  0  0
    2.8660   -1.5000    0.0000 C   0  0  0  0  0  0  0  0  0  0  0  0
    4.5981   -0.5000    0.0000 C   0  0  0  0  0  0  0  0  0  0  0  0
    2.8660   -0.5000    0.0000 C   0  0  0  0  0  0  0  0  0  0  0  0
    3.7320   -3.0000    0.0000 C   0  0  0  0  0  0  0  0  0  0  0  0
    3.7320    1.0000    0.0000 C   0  0  0  0  0  0  0  0  0  0  0  0
    2.8660   -3.5000    0.0000 C   0  0  0  0  0  0  0  0  0  0  0  0
    2.8660   -4.5000    0.0000 C   0  0  0  0  0  0  0  0  0  0  0  0
    4.5981    1.5000    0.0000 C   0  0  0  0  0  0  0  0  0  0  0  0
    2.8660    1.5000    0.0000 C   0  0  0  0  0  0  0  0  0  0  0  0
    2.0000   -5.0000    0.0000 C   0  0  0  0  0  0  0  0  0  0  0  0
    4.5981    2.5000    0.0000 C   0  0  0  0  0  0  0  0  0  0  0  0
    2.0000   -6.0000    0.0000 C   0  0  0  0  0  0  0  0  0  0  0  0
    3.7320    4.0000    0.0000 C   0  0  0  0  0  0  0  0  0  0  0  0
    4.5981    4.5000    0.0000 C   0  0  0  0  0  0  0  0  0  0  0  0
    2.8660    4.5000    0.0000 C   0  0  0  0  0  0  0  0  0  0  0  0
    4.5981    5.5000    0.0000 C   0  0  0  0  0  0  0  0  0  0  0  0
    2.8660    5.5000    0.0000 C   0  0  0  0  0  0  0  0  0  0  0  0
    3.7320    6.0000    0.0000 C   0  0  0  0  0  0  0  0  0  0  0  0
    4.8101   -2.0826    0.0000 H   0  0  0  0  0  0  0  0  0  0  0  0
    5.2087   -1.3923    0.0000 H   0  0  0  0  0  0  0  0  0  0  0  0
    2.2554   -1.3923    0.0000 H   0  0  0  0  0  0  0  0  0  0  0  0
    2.6540   -2.0826    0.0000 H   0  0  0  0  0  0  0  0  0  0  0  0
    5.2087   -0.6077    0.0000 H   0  0  0  0  0  0  0  0  0  0  0  0
    4.8101    0.0826    0.0000 H   0  0  0  0  0  0  0  0  0  0  0  0
    2.6540    0.0826    0.0000 H   0  0  0  0  0  0  0  0  0  0  0  0
    2.2554   -0.6077    0.0000 H   0  0  0  0  0  0  0  0  0  0  0  0
    2.6540   -2.9174    0.0000 H   0  0  0  0  0  0  0  0  0  0  0  0
    2.2554   -3.6077    0.0000 H   0  0  0  0  0  0  0  0  0  0  0  0
    3.0781   -5.0826    0.0000 H   0  0  0  0  0  0  0  0  0  0  0  0
    3.4766   -4.3923    0.0000 H   0  0  0  0  0  0  0  0  0  0  0  0
    2.3291    1.1900    0.0000 H   0  0  0  0  0  0  0  0  0  0  0  0
    1.7880   -4.4174    0.0000 H   0  0  0  0  0  0  0  0  0  0  0  0
    1.3894   -5.1077    0.0000 H   0  0  0  0  0  0  0  0  0  0  0  0
    1.3800   -6.0000    0.0000 H   0  0  0  0  0  0  0  0  0  0  0  0
    2.0000   -6.6200    0.0000 H   0  0  0  0  0  0  0  0  0  0  0  0
    2.6200   -6.0000    0.0000 H   0  0  0  0  0  0  0  0  0  0  0  0
    5.1350    4.1900    0.0000 H   0  0  0  0  0  0  0  0  0  0  0  0
    2.3291    4.1900    0.0000 H   0  0  0  0  0  0  0  0  0  0  0  0
    5.1350    5.8100    0.0000 H   0  0  0  0  0  0  0  0  0  0  0  0
    2.3291    5.8100    0.0000 H   0  0  0  0  0  0  0  0  0  0  0  0
    3.7320    6.6200    0.0000 H   0  0  0  0  0  0  0  0  0  0  0  0
  1 16  1  0  0  0  0
  2 12  2  0  0  0  0
  3 19  2  0  0  0  0
  4  8  1  0  0  0  0
  4  9  1  0  0  0  0
  4 12  1  0  0  0  0
  5 10  1  0  0  0  0
  5 11  1  0  0  0  0
  5 13  1  0  0  0  0
  6  7  1  0  0  0  0
  6 19  1  0  0  0  0
  6 21  1  0  0  0  0
  7 17  2  0  0  0  0
  8 10  1  0  0  0  0
  8 27  1  0  0  0  0
  8 28  1  0  0  0  0
  9 11  1  0  0  0  0
  9 29  1  0  0  0  0
  9 30  1  0  0  0  0
 10 31  1  0  0  0  0
 10 32  1  0  0  0  0
 11 33  1  0  0  0  0
 11 34  1  0  0  0  0
 12 14  1  0  0  0  0
 13 16  2  0  0  0  0
 13 17  1  0  0  0  0
 14 15  1  0  0  0  0
 14 35  1  0  0  0  0
 14 36  1  0  0  0  0
 15 18  1  0  0  0  0
 15 37  1  0  0  0  0
 15 38  1  0  0  0  0
 16 19  1  0  0  0  0
 17 39  1  0  0  0  0
 18 20  1  0  0  0  0
 18 40  1  0  0  0  0
 18 41  1  0  0  0  0
 20 42  1  0  0  0  0
 20 43  1  0  0  0  0
 20 44  1  0  0  0  0
 21 22  2  0  0  0  0
 21 23  1  0  0  0  0
 22 24  1  0  0  0  0
 22 45  1  0  0  0  0
 23 25  2  0  0  0  0
 23 46  1  0  0  0  0
 24 26  2  0  0  0  0
 24 47  1  0  0  0  0
 25 26  1  0  0  0  0
 25 48  1  0  0  0  0
 26 49  1  0  0  0  0
M  END
> <PUBCHEM_COMPOUND_CID>
17395390

> <PUBCHEM_COMPOUND_CANONICALIZED>
1

> <PUBCHEM_CACTVS_COMPLEXITY>
590

> <PUBCHEM_CACTVS_HBOND_ACCEPTOR>
4

> <PUBCHEM_CACTVS_HBOND_DONOR>
0

> <PUBCHEM_CACTVS_ROTATABLE_BOND>
5

> <PUBCHEM_CACTVS_SUBSKEYS>
AAADceB7sAAEAAAAAAAAAAAAAAAAAAAAAAA8QIAAAAAAAAABAAAAHgIIAAAACArBkAQywIMAAACoADVzUACSBAAhAgAaiAEIZNhIYDLAkZHUIAhgjgDIyUcYAAAAAAAAAAAAAAAAAAAAAAAAAAAAAAAAAA==

> <PUBCHEM_IUPAC_OPENEYE_NAME>
4-chloro-5-(4-pentanoylpiperazin-1-yl)-2-phenyl-pyridazin-3-one

> <PUBCHEM_IUPAC_CAS_NAME>
4-chloro-5-[4-(1-oxopentyl)-1-piperazinyl]-2-phenyl-3-pyridazinone

> <PUBCHEM_IUPAC_NAME>
4-chloro-5-(4-pentanoylpiperazin-1-yl)-2-phenylpyridazin-3-one

> <PUBCHEM_IUPAC_SYSTEMATIC_NAME>
4-chloranyl-5-(4-pentanoylpiperazin-1-yl)-2-phenyl-pyridazin-3-one

> <PUBCHEM_IUPAC_TRADITIONAL_NAME>
4-chloro-2-phenyl-5-(4-valerylpiperazino)pyridazin-3-one

> <PUBCHEM_IUPAC_INCHI>
InChI=1S/C19H23ClN4O2/c1-2-3-9-17(25)23-12-10-22(11-13-23)16-14-21-24(19(26)18(16)20)15-7-5-4-6-8-15/h4-8,14H,2-3,9-13H2,1H3

> <PUBCHEM_IUPAC_INCHIKEY>
NNBSVPBSTQUFML-UHFFFAOYSA-N

> <PUBCHEM_XLOGP3_AA>
2.8

> <PUBCHEM_EXACT_MASS>
374.150954

> <PUBCHEM_MOLECULAR_FORMULA>
C19H23ClN4O2

> <PUBCHEM_MOLECULAR_WEIGHT>
374.86452

> <PUBCHEM_OPENEYE_CAN_SMILES>
CCCCC(=O)N1CCN(CC1)C2=C(C(=O)N(N=C2)C3=CC=CC=C3)Cl

> <PUBCHEM_OPENEYE_ISO_SMILES>
CCCCC(=O)N1CCN(CC1)C2=C(C(=O)N(N=C2)C3=CC=CC=C3)Cl

> <PUBCHEM_CACTVS_TPSA>
56.2

> <PUBCHEM_MONOISOTOPIC_WEIGHT>
374.150954

> <PUBCHEM_TOTAL_CHARGE>
0

> <PUBCHEM_HEAVY_ATOM_COUNT>
26

> <PUBCHEM_ATOM_DEF_STEREO_COUNT>
0

> <PUBCHEM_ATOM_UDEF_STEREO_COUNT>
0

> <PUBCHEM_BOND_DEF_STEREO_COUNT>
0

> <PUBCHEM_BOND_UDEF_STEREO_COUNT>
0

> <PUBCHEM_ISOTOPIC_ATOM_COUNT>
0

> <PUBCHEM_COMPONENT_COUNT>
1

> <PUBCHEM_CACTVS_TAUTO_COUNT>
1

> <PUBCHEM_COORDINATE_TYPE>
1
5
255

> <PUBCHEM_BONDANNOTATIONS>
13  16  8
13  17  8
16  19  8
21  22  8
21  23  8
22  24  8
23  25  8
24  26  8
25  26  8
6  19  8
6  7  8
7  17  8

$$$$

