10378981
  -OEChem-07051213092D

 36 40  0     1  0  0  0  0  0999 V2000
    2.5099   -0.9467    0.0000 O   0  0  0  0  0  0  0  0  0  0  0  0
    6.9742    0.7936    0.0000 O   0  0  0  0  0  0  0  0  0  0  0  0
    6.9742    2.4031    0.0000 O   0  0  0  0  0  0  0  0  0  0  0  0
    2.5466    1.1197    0.0000 N   0  0  0  0  0  0  0  0  0  0  0  0
    3.3859    0.5915    0.0000 C   0  0  1  0  0  0  0  0  0  0  0  0
    4.2959    1.0984    0.0000 C   0  0  0  0  0  0  0  0  0  0  0  0
    3.3779   -0.4501    0.0000 C   0  0  1  0  0  0  0  0  0  0  0  0
    5.1619    0.5984    0.0000 C   0  0  0  0  0  0  0  0  0  0  0  0
    4.2959    2.0984    0.0000 C   0  0  0  0  0  0  0  0  0  0  0  0
    3.4377    2.5953    0.0000 C   0  0  0  0  0  0  0  0  0  0  0  0
    4.2799   -0.9709    0.0000 C   0  0  0  0  0  0  0  0  0  0  0  0
    2.5722    2.1111    0.0000 C   0  0  0  0  0  0  0  0  0  0  0  0
    5.1780   -0.4431    0.0000 C   0  0  0  0  0  0  0  0  0  0  0  0
    6.0279    1.0984    0.0000 C   0  0  0  0  0  0  0  0  0  0  0  0
    5.1619    2.5984    0.0000 C   0  0  0  0  0  0  0  0  0  0  0  0
    6.0279    2.0984    0.0000 C   0  0  0  0  0  0  0  0  0  0  0  0
    4.2716   -2.0559    0.0000 C   0  0  0  0  0  0  0  0  0  0  0  0
    6.1299   -0.9638    0.0000 C   0  0  0  0  0  0  0  0  0  0  0  0
    7.5578    1.5984    0.0000 C   0  0  0  0  0  0  0  0  0  0  0  0
    5.2112   -2.5984    0.0000 C   0  0  0  0  0  0  0  0  0  0  0  0
    6.1466   -2.0486    0.0000 C   0  0  0  0  0  0  0  0  0  0  0  0
    2.6402    0.1835    0.0000 H   0  0  0  0  0  0  0  0  0  0  0  0
    3.3767   -1.0701    0.0000 H   0  0  0  0  0  0  0  0  0  0  0  0
    3.8387    3.0681    0.0000 H   0  0  0  0  0  0  0  0  0  0  0  0
    3.0436    3.0740    0.0000 H   0  0  0  0  0  0  0  0  0  0  0  0
    2.0000    0.8271    0.0000 H   0  0  0  0  0  0  0  0  0  0  0  0
    2.3704    2.6974    0.0000 H   0  0  0  0  0  0  0  0  0  0  0  0
    1.9594    2.0168    0.0000 H   0  0  0  0  0  0  0  0  0  0  0  0
    5.1619    3.2184    0.0000 H   0  0  0  0  0  0  0  0  0  0  0  0
    3.7334   -2.3638    0.0000 H   0  0  0  0  0  0  0  0  0  0  0  0
    6.6608   -0.6435    0.0000 H   0  0  0  0  0  0  0  0  0  0  0  0
    2.5075   -1.5667    0.0000 H   0  0  0  0  0  0  0  0  0  0  0  0
    8.0186    1.1836    0.0000 H   0  0  0  0  0  0  0  0  0  0  0  0
    8.0186    2.0131    0.0000 H   0  0  0  0  0  0  0  0  0  0  0  0
    5.2136   -3.2184    0.0000 H   0  0  0  0  0  0  0  0  0  0  0  0
    6.6871   -2.3524    0.0000 H   0  0  0  0  0  0  0  0  0  0  0  0
  7  1  1  1  0  0  0
  1 32  1  0  0  0  0
  2 14  1  0  0  0  0
  2 19  1  0  0  0  0
  3 16  1  0  0  0  0
  3 19  1  0  0  0  0
  4  5  1  0  0  0  0
  4 12  1  0  0  0  0
  4 26  1  0  0  0  0
  5  6  1  0  0  0  0
  5  7  1  0  0  0  0
  5 22  1  6  0  0  0
  6  8  2  0  0  0  0
  6  9  1  0  0  0  0
  7 11  1  0  0  0  0
  7 23  1  0  0  0  0
  8 13  1  0  0  0  0
  8 14  1  0  0  0  0
  9 10  1  0  0  0  0
  9 15  2  0  0  0  0
 10 12  1  0  0  0  0
 10 24  1  0  0  0  0
 10 25  1  0  0  0  0
 11 13  1  0  0  0  0
 11 17  2  0  0  0  0
 12 27  1  0  0  0  0
 12 28  1  0  0  0  0
 13 18  2  0  0  0  0
 14 16  2  0  0  0  0
 15 16  1  0  0  0  0
 15 29  1  0  0  0  0
 17 20  1  0  0  0  0
 17 30  1  0  0  0  0
 18 21  1  0  0  0  0
 18 31  1  0  0  0  0
 19 33  1  0  0  0  0
 19 34  1  0  0  0  0
 20 21  2  0  0  0  0
 20 35  1  0  0  0  0
 21 36  1  0  0  0  0
M  END
> <PUBCHEM_COMPOUND_CID>
10378981

> <PUBCHEM_COMPOUND_CANONICALIZED>
1

> <PUBCHEM_CACTVS_COMPLEXITY>
417

> <PUBCHEM_CACTVS_HBOND_ACCEPTOR>
4

> <PUBCHEM_CACTVS_HBOND_DONOR>
2

> <PUBCHEM_CACTVS_ROTATABLE_BOND>
0

> <PUBCHEM_CACTVS_SUBSKEYS>
AAADccB6MAAAAAAAAAAAAAAAAAAAASAAAAA8YMEAAAAAAEjxQAAAHgAQCAAADDzhmAcwDoLABgCAAiBCAACCCAAgIAAIiIAOjIgfNiKEsRukcCpk0BGeuAew8P8OoAADAAAYQADQAAaAADSgAAAAAAAAAA==

> <PUBCHEM_IUPAC_INCHI>
InChI=1S/C17H15NO3/c19-16-11-4-2-1-3-10(11)14-13-9(5-6-18-15(13)16)7-12-17(14)21-8-20-12/h1-4,7,15-16,18-19H,5-6,8H2/t15-,16+/m0/s1

> <PUBCHEM_IUPAC_INCHIKEY>
CKIYSMRPIBQTHQ-JKSUJKDBSA-N

> <PUBCHEM_XLOGP3_AA>
1.7

> <PUBCHEM_EXACT_MASS>
281.105193

> <PUBCHEM_MOLECULAR_FORMULA>
C17H15NO3

> <PUBCHEM_MOLECULAR_WEIGHT>
281.3059

> <PUBCHEM_OPENEYE_CAN_SMILES>
C1CNC2C(C3=CC=CC=C3C4=C2C1=CC5=C4OCO5)O

> <PUBCHEM_OPENEYE_ISO_SMILES>
C1CN[C@@H]2[C@@H](C3=CC=CC=C3C4=C2C1=CC5=C4OCO5)O

> <PUBCHEM_CACTVS_TPSA>
50.7

> <PUBCHEM_MONOISOTOPIC_WEIGHT>
281.105193

> <PUBCHEM_TOTAL_CHARGE>
0

> <PUBCHEM_HEAVY_ATOM_COUNT>
21

> <PUBCHEM_ATOM_DEF_STEREO_COUNT>
2

> <PUBCHEM_ATOM_UDEF_STEREO_COUNT>
0

> <PUBCHEM_BOND_DEF_STEREO_COUNT>
0

> <PUBCHEM_BOND_UDEF_STEREO_COUNT>
0

> <PUBCHEM_ISOTOPIC_ATOM_COUNT>
0

> <PUBCHEM_COMPONENT_COUNT>
1

> <PUBCHEM_CACTVS_TAUTO_COUNT>
1

> <PUBCHEM_COORDINATE_TYPE>
1
5
255

> <PUBCHEM_BONDANNOTATIONS>
7  1  5
11  13  8
11  17  8
13  18  8
14  16  8
15  16  8
17  20  8
18  21  8
20  21  8
5  22  6
6  8  8
6  9  8
8  14  8
9  15  8

$$$$

