17396559
  -OEChem-06241222572D

 43 44  0     0  0  0  0  0  0999 V2000
   12.2217   -1.4420    0.0000 F   0  0  0  0  0  0  0  0  0  0  0  0
    8.7576    0.5580    0.0000 O   0  0  0  0  0  0  0  0  0  0  0  0
    2.9945   -0.9829    0.0000 O   0  0  0  0  0  0  0  0  0  0  0  0
    7.0255    1.5580    0.0000 O   0  0  0  0  0  0  0  0  0  0  0  0
    3.1756    0.7397    0.0000 O   0  0  0  0  0  0  0  0  0  0  0  0
    9.6236    2.0580    0.0000 O   0  0  0  0  0  0  0  0  0  0  0  0
    6.0550   -0.9365    0.0000 N   0  0  0  0  0  0  0  0  0  0  0  0
    5.2460    0.4647    0.0000 C   0  0  0  0  0  0  0  0  0  0  0  0
    6.1595    0.0580    0.0000 C   0  0  0  0  0  0  0  0  0  0  0  0
    4.5768   -0.2784    0.0000 C   0  0  0  0  0  0  0  0  0  0  0  0
    5.0768   -1.1444    0.0000 C   0  0  0  0  0  0  0  0  0  0  0  0
    7.0255    0.5580    0.0000 C   0  0  0  0  0  0  0  0  0  0  0  0
    5.0380    1.4429    0.0000 C   0  0  0  0  0  0  0  0  0  0  0  0
    4.6701   -2.0580    0.0000 C   0  0  0  0  0  0  0  0  0  0  0  0
    7.8916    0.0580    0.0000 C   0  0  0  0  0  0  0  0  0  0  0  0
    3.5823   -0.1739    0.0000 C   0  0  0  0  0  0  0  0  0  0  0  0
    9.6236    0.0580    0.0000 C   0  0  0  0  0  0  0  0  0  0  0  0
   10.4896    0.5580    0.0000 C   0  0  0  0  0  0  0  0  0  0  0  0
    9.6236   -0.9420    0.0000 C   0  0  0  0  0  0  0  0  0  0  0  0
   11.3557    0.0580    0.0000 C   0  0  0  0  0  0  0  0  0  0  0  0
   10.4896    1.5580    0.0000 C   0  0  0  0  0  0  0  0  0  0  0  0
   10.4896   -1.4420    0.0000 C   0  0  0  0  0  0  0  0  0  0  0  0
   11.3557   -0.9420    0.0000 C   0  0  0  0  0  0  0  0  0  0  0  0
    2.0000   -0.8784    0.0000 C   0  0  0  0  0  0  0  0  0  0  0  0
   11.3557    2.0580    0.0000 C   0  0  0  0  0  0  0  0  0  0  0  0
    6.5157   -1.3514    0.0000 H   0  0  0  0  0  0  0  0  0  0  0  0
    5.6445    1.5718    0.0000 H   0  0  0  0  0  0  0  0  0  0  0  0
    4.9091    2.0493    0.0000 H   0  0  0  0  0  0  0  0  0  0  0  0
    4.4316    1.3140    0.0000 H   0  0  0  0  0  0  0  0  0  0  0  0
    4.1037   -1.8058    0.0000 H   0  0  0  0  0  0  0  0  0  0  0  0
    4.4179   -2.6244    0.0000 H   0  0  0  0  0  0  0  0  0  0  0  0
    5.2365   -2.3102    0.0000 H   0  0  0  0  0  0  0  0  0  0  0  0
    7.4930   -0.4170    0.0000 H   0  0  0  0  0  0  0  0  0  0  0  0
    8.2901   -0.4170    0.0000 H   0  0  0  0  0  0  0  0  0  0  0  0
    9.0867   -1.2520    0.0000 H   0  0  0  0  0  0  0  0  0  0  0  0
   11.8926    0.3680    0.0000 H   0  0  0  0  0  0  0  0  0  0  0  0
   10.4896   -2.0620    0.0000 H   0  0  0  0  0  0  0  0  0  0  0  0
    2.0648   -0.2618    0.0000 H   0  0  0  0  0  0  0  0  0  0  0  0
    1.3834   -0.8136    0.0000 H   0  0  0  0  0  0  0  0  0  0  0  0
    1.9352   -1.4950    0.0000 H   0  0  0  0  0  0  0  0  0  0  0  0
   11.6657    1.5210    0.0000 H   0  0  0  0  0  0  0  0  0  0  0  0
   11.8926    2.3680    0.0000 H   0  0  0  0  0  0  0  0  0  0  0  0
   11.0457    2.5949    0.0000 H   0  0  0  0  0  0  0  0  0  0  0  0
  1 23  1  0  0  0  0
  2 15  1  0  0  0  0
  2 17  1  0  0  0  0
  3 16  1  0  0  0  0
  3 24  1  0  0  0  0
  4 12  2  0  0  0  0
  5 16  2  0  0  0  0
  6 21  2  0  0  0  0
  7  9  1  0  0  0  0
  7 11  1  0  0  0  0
  7 26  1  0  0  0  0
  8  9  2  0  0  0  0
  8 10  1  0  0  0  0
  8 13  1  0  0  0  0
  9 12  1  0  0  0  0
 10 11  2  0  0  0  0
 10 16  1  0  0  0  0
 11 14  1  0  0  0  0
 12 15  1  0  0  0  0
 13 27  1  0  0  0  0
 13 28  1  0  0  0  0
 13 29  1  0  0  0  0
 14 30  1  0  0  0  0
 14 31  1  0  0  0  0
 14 32  1  0  0  0  0
 15 33  1  0  0  0  0
 15 34  1  0  0  0  0
 17 18  2  0  0  0  0
 17 19  1  0  0  0  0
 18 20  1  0  0  0  0
 18 21  1  0  0  0  0
 19 22  2  0  0  0  0
 19 35  1  0  0  0  0
 20 23  2  0  0  0  0
 20 36  1  0  0  0  0
 21 25  1  0  0  0  0
 22 23  1  0  0  0  0
 22 37  1  0  0  0  0
 24 38  1  0  0  0  0
 24 39  1  0  0  0  0
 24 40  1  0  0  0  0
 25 41  1  0  0  0  0
 25 42  1  0  0  0  0
 25 43  1  0  0  0  0
M  END
> <PUBCHEM_COMPOUND_CID>
17396559

> <PUBCHEM_COMPOUND_CANONICALIZED>
1

> <PUBCHEM_CACTVS_COMPLEXITY>
526

> <PUBCHEM_CACTVS_HBOND_ACCEPTOR>
6

> <PUBCHEM_CACTVS_HBOND_DONOR>
1

> <PUBCHEM_CACTVS_ROTATABLE_BOND>
7

> <PUBCHEM_CACTVS_SUBSKEYS>
AAADceB6OQAAAAAAAAAAAAAAAAAAAWAAAAAwAAAAAAAAAAABwAAAHwAQAAAADAyhngoyjpLJlACoA6TyTAKCiCAnICAImSH2TNgMJn7Etb+GOejm8BHI6ce8z7C+gAAAAAAIAAAAAAAAABAAAAAAAAAAAA==

> <PUBCHEM_IUPAC_OPENEYE_NAME>
methyl 5-[2-(2-acetyl-4-fluoro-phenoxy)acetyl]-2,4-dimethyl-1H-pyrrole-3-carboxylate

> <PUBCHEM_IUPAC_CAS_NAME>
5-[2-(2-acetyl-4-fluorophenoxy)-1-oxoethyl]-2,4-dimethyl-1H-pyrrole-3-carboxylic acid methyl ester

> <PUBCHEM_IUPAC_NAME>
methyl 5-[2-(2-acetyl-4-fluorophenoxy)acetyl]-2,4-dimethyl-1H-pyrrole-3-carboxylate

> <PUBCHEM_IUPAC_SYSTEMATIC_NAME>
methyl 5-[2-(2-ethanoyl-4-fluoranyl-phenoxy)ethanoyl]-2,4-dimethyl-1H-pyrrole-3-carboxylate

> <PUBCHEM_IUPAC_TRADITIONAL_NAME>
5-[2-(2-acetyl-4-fluoro-phenoxy)acetyl]-2,4-dimethyl-1H-pyrrole-3-carboxylic acid methyl ester

> <PUBCHEM_IUPAC_INCHI>
InChI=1S/C18H18FNO5/c1-9-16(18(23)24-4)10(2)20-17(9)14(22)8-25-15-6-5-12(19)7-13(15)11(3)21/h5-7,20H,8H2,1-4H3

> <PUBCHEM_IUPAC_INCHIKEY>
ZEXKCYGTCJIRSU-UHFFFAOYSA-N

> <PUBCHEM_XLOGP3_AA>
2.8

> <PUBCHEM_EXACT_MASS>
347.116901

> <PUBCHEM_MOLECULAR_FORMULA>
C18H18FNO5

> <PUBCHEM_MOLECULAR_WEIGHT>
347.337623

> <PUBCHEM_OPENEYE_CAN_SMILES>
CC1=C(NC(=C1C(=O)OC)C)C(=O)COC2=C(C=C(C=C2)F)C(=O)C

> <PUBCHEM_OPENEYE_ISO_SMILES>
CC1=C(NC(=C1C(=O)OC)C)C(=O)COC2=C(C=C(C=C2)F)C(=O)C

> <PUBCHEM_CACTVS_TPSA>
85.5

> <PUBCHEM_MONOISOTOPIC_WEIGHT>
347.116901

> <PUBCHEM_TOTAL_CHARGE>
0

> <PUBCHEM_HEAVY_ATOM_COUNT>
25

> <PUBCHEM_ATOM_DEF_STEREO_COUNT>
0

> <PUBCHEM_ATOM_UDEF_STEREO_COUNT>
0

> <PUBCHEM_BOND_DEF_STEREO_COUNT>
0

> <PUBCHEM_BOND_UDEF_STEREO_COUNT>
0

> <PUBCHEM_ISOTOPIC_ATOM_COUNT>
0

> <PUBCHEM_COMPONENT_COUNT>
1

> <PUBCHEM_CACTVS_TAUTO_COUNT>
66

> <PUBCHEM_COORDINATE_TYPE>
1
5
255

> <PUBCHEM_BONDANNOTATIONS>
10  11  8
17  18  8
17  19  8
18  20  8
19  22  8
20  23  8
22  23  8
7  11  8
7  9  8
8  10  8
8  9  8

$$$$

