9543198
  -OEChem-07051213113D

 19 19  0     1  0  0  0  0  0999 V2000
    2.7150   -1.7065    0.1137 Cl  0  0  0  0  0  0  0  0  0  0  0  0
   -2.6182   -1.8571    0.1189 Cl  0  0  0  0  0  0  0  0  0  0  0  0
    0.1298    1.9086    1.0819 O   0  0  0  0  0  0  0  0  0  0  0  0
    2.3861    1.2469   -0.1721 O   0  0  0  0  0  0  0  0  0  0  0  0
   -0.0269    1.3259   -0.2151 C   0  0  1  0  0  0  0  0  0  0  0  0
    1.2360    0.5234   -0.6024 C   0  0  2  0  0  0  0  0  0  0  0  0
   -1.2975    0.4943   -0.1745 C   0  0  0  0  0  0  0  0  0  0  0  0
    1.2098   -0.8816   -0.0621 C   0  0  0  0  0  0  0  0  0  0  0  0
   -1.2208   -0.8385    0.0263 C   0  0  0  0  0  0  0  0  0  0  0  0
    0.0552   -1.4987    0.2280 C   0  0  0  0  0  0  0  0  0  0  0  0
   -2.5685    1.2834   -0.3426 C   0  0  0  0  0  0  0  0  0  0  0  0
   -0.1386    2.1547   -0.9249 H   0  0  0  0  0  0  0  0  0  0  0  0
    1.2903    0.4446   -1.6964 H   0  0  0  0  0  0  0  0  0  0  0  0
    0.0505   -2.5195    0.5995 H   0  0  0  0  0  0  0  0  0  0  0  0
   -3.4744    0.6751   -0.2874 H   0  0  0  0  0  0  0  0  0  0  0  0
   -2.5716    1.7836   -1.3168 H   0  0  0  0  0  0  0  0  0  0  0  0
   -2.6428    2.0485    0.4373 H   0  0  0  0  0  0  0  0  0  0  0  0
    0.9415    2.4435    1.0653 H   0  0  0  0  0  0  0  0  0  0  0  0
    2.3777    2.1061   -0.6279 H   0  0  0  0  0  0  0  0  0  0  0  0
  1  8  1  0  0  0  0
  2  9  1  0  0  0  0
  3  5  1  0  0  0  0
  3 18  1  0  0  0  0
  4  6  1  0  0  0  0
  4 19  1  0  0  0  0
  5  6  1  0  0  0  0
  5  7  1  0  0  0  0
  5 12  1  0  0  0  0
  6  8  1  0  0  0  0
  6 13  1  0  0  0  0
  7  9  2  0  0  0  0
  7 11  1  0  0  0  0
  8 10  2  0  0  0  0
  9 10  1  0  0  0  0
 10 14  1  0  0  0  0
 11 15  1  0  0  0  0
 11 16  1  0  0  0  0
 11 17  1  0  0  0  0
M  END
> <PUBCHEM_COMPOUND_CID>
9543198

> <PUBCHEM_CONFORMER_RMSD>
0.4

> <PUBCHEM_CONFORMER_DIVERSEORDER>
1
2

> <PUBCHEM_MMFF94_PARTIAL_CHARGES>
13
1 -0.14
10 -0.15
11 0.14
14 0.15
18 0.4
19 0.4
2 -0.14
3 -0.68
4 -0.68
5 0.42
6 0.42
7 -0.28
9 0.14

> <PUBCHEM_EFFECTIVE_ROTOR_COUNT>
0.4

> <PUBCHEM_PHARMACOPHORE_FEATURES>
5
1 3 acceptor
1 3 donor
1 4 acceptor
1 4 donor
6 5 6 7 8 9 10 rings

> <PUBCHEM_HEAVY_ATOM_COUNT>
11

> <PUBCHEM_ATOM_DEF_STEREO_COUNT>
2

> <PUBCHEM_ATOM_UDEF_STEREO_COUNT>
0

> <PUBCHEM_BOND_DEF_STEREO_COUNT>
0

> <PUBCHEM_BOND_UDEF_STEREO_COUNT>
0

> <PUBCHEM_ISOTOPIC_ATOM_COUNT>
0

> <PUBCHEM_COMPONENT_COUNT>
1

> <PUBCHEM_CACTVS_TAUTO_COUNT>
1

> <PUBCHEM_CONFORMER_ID>
00919E1E00000001

> <PUBCHEM_MMFF94_ENERGY>
18.8756

> <PUBCHEM_FEATURE_SELFOVERLAP>
25.388

> <PUBCHEM_SHAPE_FINGERPRINT>
11206711 2 18268424633956667157
13380535 220 18272087223026396183
14128692 85 18342452668737878414
14713566 1 18195814200065339187
161256 15 18120937209474753927
16945 1 18126008401551208911
18185500 45 18125159591443734334
193761 8 18412262817889939703
20588541 1 18052529972191938826
21040471 1 18413106173389182221
21501502 16 18412262818095706999
22344851 341 18272377481179611242
2334 1 18411698751197724039
23552423 10 18201715145970038494
241688 4 18343584061765201449
2748010 2 18411700980280398119
5084963 1 17703516488812368263
53812653 166 18262520273558462729

> <PUBCHEM_SHAPE_MULTIPOLES>
218.38
3.66
2.31
0.75
0.27
0.17
-0.07
1.06
0.21
-0.29
-0.27
0.01
-0.17
0.03

> <PUBCHEM_SHAPE_SELFOVERLAP>
427.61

> <PUBCHEM_SHAPE_VOLUME>
133.3

> <PUBCHEM_COORDINATE_TYPE>
2
5
10

$$$$

