3749
  -OEChem-07051212533D

 60 64  0     0  0  0  0  0  0999 V2000
   -2.8657   -2.3022   -1.6205 O   0  0  0  0  0  0  0  0  0  0  0  0
   -3.7323   -0.0407    0.9757 N   0  0  0  0  0  0  0  0  0  0  0  0
   -2.5174   -0.1004   -0.9194 N   0  0  0  0  0  0  0  0  0  0  0  0
    2.9573   -0.3878    2.4133 N   0  0  0  0  0  0  0  0  0  0  0  0
    3.4280    1.7149    1.7173 N   0  0  0  0  0  0  0  0  0  0  0  0
    2.3752    0.5728    3.1448 N   0  0  0  0  0  0  0  0  0  0  0  0
    2.6266    1.8344    2.7687 N   0  0  0  0  0  0  0  0  0  0  0  0
   -3.8562   -1.4076    0.4183 C   0  0  0  0  0  0  0  0  0  0  0  0
   -3.3502   -2.4446    1.4262 C   0  0  0  0  0  0  0  0  0  0  0  0
   -5.3276   -1.7338    0.1427 C   0  0  0  0  0  0  0  0  0  0  0  0
   -4.6049   -3.1571    1.9181 C   0  0  0  0  0  0  0  0  0  0  0  0
   -5.5249   -3.1341    0.7100 C   0  0  0  0  0  0  0  0  0  0  0  0
   -3.0232   -1.3695   -0.8479 C   0  0  0  0  0  0  0  0  0  0  0  0
   -2.9638    0.5930    0.1453 C   0  0  0  0  0  0  0  0  0  0  0  0
   -2.5801    2.0239    0.3462 C   0  0  0  0  0  0  0  0  0  0  0  0
   -1.6531    0.3847   -1.9809 C   0  0  0  0  0  0  0  0  0  0  0  0
   -3.6198    2.9575   -0.2635 C   0  0  0  0  0  0  0  0  0  0  0  0
   -0.2011    0.1677   -1.6665 C   0  0  0  0  0  0  0  0  0  0  0  0
   -3.2945    4.4341   -0.0257 C   0  0  0  0  0  0  0  0  0  0  0  0
    0.2160   -1.0551   -1.1540 C   0  0  0  0  0  0  0  0  0  0  0  0
    0.7113    1.1916   -1.8910 C   0  0  0  0  0  0  0  0  0  0  0  0
   -4.3813    5.3393   -0.5850 C   0  0  0  0  0  0  0  0  0  0  0  0
    1.5650   -1.2567   -0.8617 C   0  0  0  0  0  0  0  0  0  0  0  0
    2.0604    0.9901   -1.5989 C   0  0  0  0  0  0  0  0  0  0  0  0
    2.4871   -0.2342   -1.0842 C   0  0  0  0  0  0  0  0  0  0  0  0
    3.8865   -0.4436   -0.7819 C   0  0  0  0  0  0  0  0  0  0  0  0
    4.4203   -0.1497    0.4754 C   0  0  0  0  0  0  0  0  0  0  0  0
    4.7155   -0.9546   -1.7834 C   0  0  0  0  0  0  0  0  0  0  0  0
    5.7748   -0.3654    0.7291 C   0  0  0  0  0  0  0  0  0  0  0  0
    6.0700   -1.1702   -1.5296 C   0  0  0  0  0  0  0  0  0  0  0  0
    3.6022    0.3788    1.5361 C   0  0  0  0  0  0  0  0  0  0  0  0
    6.5997   -0.8757   -0.2734 C   0  0  0  0  0  0  0  0  0  0  0  0
   -2.7990   -2.0012    2.2625 H   0  0  0  0  0  0  0  0  0  0  0  0
   -2.6852   -3.1727    0.9458 H   0  0  0  0  0  0  0  0  0  0  0  0
   -5.9897   -1.0333    0.6668 H   0  0  0  0  0  0  0  0  0  0  0  0
   -5.5893   -1.7007   -0.9202 H   0  0  0  0  0  0  0  0  0  0  0  0
   -4.3956   -4.1732    2.2642 H   0  0  0  0  0  0  0  0  0  0  0  0
   -5.0547   -2.5983    2.7474 H   0  0  0  0  0  0  0  0  0  0  0  0
   -6.5675   -3.3306    0.9757 H   0  0  0  0  0  0  0  0  0  0  0  0
   -5.2092   -3.8867   -0.0221 H   0  0  0  0  0  0  0  0  0  0  0  0
   -1.5892    2.2329   -0.0647 H   0  0  0  0  0  0  0  0  0  0  0  0
   -2.5181    2.2054    1.4264 H   0  0  0  0  0  0  0  0  0  0  0  0
   -1.8639    1.4424   -2.1655 H   0  0  0  0  0  0  0  0  0  0  0  0
   -1.8895   -0.1631   -2.9013 H   0  0  0  0  0  0  0  0  0  0  0  0
   -4.6054    2.7296    0.1626 H   0  0  0  0  0  0  0  0  0  0  0  0
   -3.7033    2.7704   -1.3411 H   0  0  0  0  0  0  0  0  0  0  0  0
   -3.1884    4.6230    1.0488 H   0  0  0  0  0  0  0  0  0  0  0  0
   -2.3362    4.6826   -0.4962 H   0  0  0  0  0  0  0  0  0  0  0  0
   -0.4617   -1.8814   -0.9811 H   0  0  0  0  0  0  0  0  0  0  0  0
    0.3917    2.1496   -2.2916 H   0  0  0  0  0  0  0  0  0  0  0  0
   -4.1284    6.3892   -0.4072 H   0  0  0  0  0  0  0  0  0  0  0  0
   -4.4946    5.1950   -1.6642 H   0  0  0  0  0  0  0  0  0  0  0  0
   -5.3453    5.1365   -0.1076 H   0  0  0  0  0  0  0  0  0  0  0  0
    1.8818   -2.2181   -0.4641 H   0  0  0  0  0  0  0  0  0  0  0  0
    2.7661    1.7980   -1.7777 H   0  0  0  0  0  0  0  0  0  0  0  0
    4.3218   -1.1908   -2.7695 H   0  0  0  0  0  0  0  0  0  0  0  0
    6.2054   -0.1411    1.7023 H   0  0  0  0  0  0  0  0  0  0  0  0
    6.7123   -1.5675   -2.3100 H   0  0  0  0  0  0  0  0  0  0  0  0
    7.6544   -1.0436   -0.0759 H   0  0  0  0  0  0  0  0  0  0  0  0
    1.7783    0.3576    3.9363 H   0  0  0  0  0  0  0  0  0  0  0  0
  1 13  2  0  0  0  0
  2  8  1  0  0  0  0
  2 14  2  0  0  0  0
  3 13  1  0  0  0  0
  3 14  1  0  0  0  0
  3 16  1  0  0  0  0
  4  6  1  0  0  0  0
  4 31  2  0  0  0  0
  5  7  2  0  0  0  0
  5 31  1  0  0  0  0
  6  7  1  0  0  0  0
  6 60  1  0  0  0  0
  8  9  1  0  0  0  0
  8 10  1  0  0  0  0
  8 13  1  0  0  0  0
  9 11  1  0  0  0  0
  9 33  1  0  0  0  0
  9 34  1  0  0  0  0
 10 12  1  0  0  0  0
 10 35  1  0  0  0  0
 10 36  1  0  0  0  0
 11 12  1  0  0  0  0
 11 37  1  0  0  0  0
 11 38  1  0  0  0  0
 12 39  1  0  0  0  0
 12 40  1  0  0  0  0
 14 15  1  0  0  0  0
 15 17  1  0  0  0  0
 15 41  1  0  0  0  0
 15 42  1  0  0  0  0
 16 18  1  0  0  0  0
 16 43  1  0  0  0  0
 16 44  1  0  0  0  0
 17 19  1  0  0  0  0
 17 45  1  0  0  0  0
 17 46  1  0  0  0  0
 18 20  2  0  0  0  0
 18 21  1  0  0  0  0
 19 22  1  0  0  0  0
 19 47  1  0  0  0  0
 19 48  1  0  0  0  0
 20 23  1  0  0  0  0
 20 49  1  0  0  0  0
 21 24  2  0  0  0  0
 21 50  1  0  0  0  0
 22 51  1  0  0  0  0
 22 52  1  0  0  0  0
 22 53  1  0  0  0  0
 23 25  2  0  0  0  0
 23 54  1  0  0  0  0
 24 25  1  0  0  0  0
 24 55  1  0  0  0  0
 25 26  1  0  0  0  0
 26 27  1  0  0  0  0
 26 28  2  0  0  0  0
 27 29  2  0  0  0  0
 27 31  1  0  0  0  0
 28 30  1  0  0  0  0
 28 56  1  0  0  0  0
 29 32  1  0  0  0  0
 29 57  1  0  0  0  0
 30 32  2  0  0  0  0
 30 58  1  0  0  0  0
 32 59  1  0  0  0  0
M  END
> <PUBCHEM_COMPOUND_CID>
3749

> <PUBCHEM_CONFORMER_RMSD>
1

> <PUBCHEM_CONFORMER_DIVERSEORDER>
1
18
4
15
17
11
10
37
26
27
20
38
34
28
39
25
7
12
35
29
31
21
19
3
32
36
33
24
2
6
14
5
8
13
9
23
30
22
16

> <PUBCHEM_MMFF94_PARTIAL_CHARGES>
32
1 -0.57
13 0.57
14 0.45
15 0.06
16 0.44
18 -0.14
2 -0.7
20 -0.15
21 -0.15
23 -0.15
24 -0.15
27 0.05
28 -0.15
29 -0.15
3 -0.42
30 -0.15
31 0.46
32 -0.15
4 -0.71
49 0.15
5 -0.23
50 0.15
54 0.15
55 0.15
56 0.15
57 0.15
58 0.15
59 0.15
6 0.57
60 0.27
7 -0.42
8 0.31

> <PUBCHEM_EFFECTIVE_ROTOR_COUNT>
8

> <PUBCHEM_PHARMACOPHORE_FEATURES>
8
1 1 acceptor
1 22 hydrophobe
3 4 5 31 cation
5 2 3 8 13 14 rings
5 4 5 6 7 31 rings
5 8 9 10 11 12 rings
6 18 20 21 23 24 25 rings
6 26 27 28 29 30 32 rings

> <PUBCHEM_HEAVY_ATOM_COUNT>
32

> <PUBCHEM_ATOM_DEF_STEREO_COUNT>
0

> <PUBCHEM_ATOM_UDEF_STEREO_COUNT>
0

> <PUBCHEM_BOND_DEF_STEREO_COUNT>
0

> <PUBCHEM_BOND_UDEF_STEREO_COUNT>
0

> <PUBCHEM_ISOTOPIC_ATOM_COUNT>
0

> <PUBCHEM_COMPONENT_COUNT>
1

> <PUBCHEM_CACTVS_TAUTO_COUNT>
2

> <PUBCHEM_CONFORMER_ID>
00000EA500000001

> <PUBCHEM_MMFF94_ENERGY>
76.7607

> <PUBCHEM_FEATURE_SELFOVERLAP>
40.613

> <PUBCHEM_SHAPE_FINGERPRINT>
10074138 170 18340755027950069593
11007060 377 16271348718297408958
11069576 57 15194746566047596906
11135926 11 13686299106365377120
11377469 6 17489297530767138855
11545043 162 18335138708915762470
12128747 34 18117556442910271919
12422481 6 17458339698312383465
12596602 18 17917149390660463220
12788726 201 18129930205705183321
131258 38 17049917093245138259
13583140 156 17749393697296181222
13782708 43 18260260859153397174
14068700 675 18130501921407579839
14178342 30 18342733065762122703
14705955 166 18335140920940413385
15001296 14 16556780742071286042
15081414 286 16660646242192766008
15131766 46 16517668936233825729
15183329 4 16415213239255711335
15484559 13 13461176530796631836
15537594 2 16559030480279264611
15721738 202 18338786807283007564
16067689 68 17842300300584226978
17138139 8 16271362964387866738
20028762 73 18270392772545745694
20554085 129 17979364380489243541
21033648 144 16081671992885436520
21033648 29 17967828175150098640
21315759 148 18410009936456847138
21315764 371 17203061668549898760
21792934 111 18114173100621146723
21792961 116 17677042564878905774
23522609 53 17415527009493412892
23559900 14 18057598772820637415
3004659 81 17488743359737724959
3459 110 17241330144621185711
376196 1 17611191842423155869
392239 28 17458617861864741771
4169191 19 15430906232488232450
463206 1 15912485671837641603
508706 21 18261967343853770917
6009941 240 18190739928919027204
6086070 43 17097234915674488508
6371380 46 17618777398137318551
9896288 288 18340195393115600007

> <PUBCHEM_SHAPE_MULTIPOLES>
622.79
14.48
4.3
2.44
9.91
5.48
1.38
-5.37
1.8
-12.19
0.76
2.43
0.03
2.31

> <PUBCHEM_SHAPE_SELFOVERLAP>
1363.688

> <PUBCHEM_SHAPE_VOLUME>
343

> <PUBCHEM_COORDINATE_TYPE>
2
5
10

$$$$

