17396124
  -OEChem-06241222542D

 28 30  0     0  0  0  0  0  0999 V2000
    4.6783   -0.9387    0.0000 S   0  0  0  0  0  0  0  0  0  0  0  0
    2.8660    1.8660    0.0000 F   0  0  0  0  0  0  0  0  0  0  0  0
    6.7619    0.7321    0.0000 O   0  0  0  0  0  0  0  0  0  0  0  0
    6.7619   -1.0000    0.0000 N   0  0  0  0  0  0  0  0  0  0  0  0
    9.2619   -0.1340    0.0000 N   0  0  0  0  0  0  0  0  0  0  0  0
    3.7320    0.3660    0.0000 C   0  0  0  0  0  0  0  0  0  0  0  0
    3.7320   -0.6340    0.0000 C   0  0  0  0  0  0  0  0  0  0  0  0
    5.2619   -0.1340    0.0000 C   0  0  0  0  0  0  0  0  0  0  0  0
    4.6783    0.6708    0.0000 C   0  0  0  0  0  0  0  0  0  0  0  0
    2.8660    0.8660    0.0000 C   0  0  0  0  0  0  0  0  0  0  0  0
    2.8660   -1.1340    0.0000 C   0  0  0  0  0  0  0  0  0  0  0  0
    6.2619   -0.1340    0.0000 C   0  0  0  0  0  0  0  0  0  0  0  0
    2.0000    0.3660    0.0000 C   0  0  0  0  0  0  0  0  0  0  0  0
    2.0000   -0.6340    0.0000 C   0  0  0  0  0  0  0  0  0  0  0  0
    7.7619   -1.0000    0.0000 C   0  0  0  0  0  0  0  0  0  0  0  0
    8.2619   -1.8660    0.0000 C   0  0  0  0  0  0  0  0  0  0  0  0
    8.2619   -0.1340    0.0000 C   0  0  0  0  0  0  0  0  0  0  0  0
    9.2619   -1.8660    0.0000 C   0  0  0  0  0  0  0  0  0  0  0  0
    9.7619   -1.0000    0.0000 C   0  0  0  0  0  0  0  0  0  0  0  0
    4.8709    1.2601    0.0000 H   0  0  0  0  0  0  0  0  0  0  0  0
    2.8660   -1.7540    0.0000 H   0  0  0  0  0  0  0  0  0  0  0  0
    1.4631    0.6760    0.0000 H   0  0  0  0  0  0  0  0  0  0  0  0
    1.4631   -0.9440    0.0000 H   0  0  0  0  0  0  0  0  0  0  0  0
    6.4519   -1.5369    0.0000 H   0  0  0  0  0  0  0  0  0  0  0  0
    7.9519   -2.4030    0.0000 H   0  0  0  0  0  0  0  0  0  0  0  0
    7.9519    0.4030    0.0000 H   0  0  0  0  0  0  0  0  0  0  0  0
    9.5719   -2.4030    0.0000 H   0  0  0  0  0  0  0  0  0  0  0  0
   10.3819   -1.0000    0.0000 H   0  0  0  0  0  0  0  0  0  0  0  0
  1  7  1  0  0  0  0
  1  8  1  0  0  0  0
  2 10  1  0  0  0  0
  3 12  2  0  0  0  0
  4 12  1  0  0  0  0
  4 15  1  0  0  0  0
  4 24  1  0  0  0  0
  5 17  1  0  0  0  0
  5 19  2  0  0  0  0
  6  7  1  0  0  0  0
  6  9  1  0  0  0  0
  6 10  2  0  0  0  0
  7 11  2  0  0  0  0
  8  9  2  0  0  0  0
  8 12  1  0  0  0  0
  9 20  1  0  0  0  0
 10 13  1  0  0  0  0
 11 14  1  0  0  0  0
 11 21  1  0  0  0  0
 13 14  2  0  0  0  0
 13 22  1  0  0  0  0
 14 23  1  0  0  0  0
 15 16  1  0  0  0  0
 15 17  2  0  0  0  0
 16 18  2  0  0  0  0
 16 25  1  0  0  0  0
 17 26  1  0  0  0  0
 18 19  1  0  0  0  0
 18 27  1  0  0  0  0
 19 28  1  0  0  0  0
M  END
> <PUBCHEM_COMPOUND_CID>
17396124

> <PUBCHEM_COMPOUND_CANONICALIZED>
1

> <PUBCHEM_CACTVS_COMPLEXITY>
341

> <PUBCHEM_CACTVS_HBOND_ACCEPTOR>
4

> <PUBCHEM_CACTVS_HBOND_DONOR>
1

> <PUBCHEM_CACTVS_ROTATABLE_BOND>
2

> <PUBCHEM_CACTVS_SUBSKEYS>
AAADccBzIQBAAAAAAAAAAAAAAAAAASAAAAA8QAAAAAAAAEgB/AAAHwQQAAAADAjB2gw8wdLIEAisAjV3VACDgKA1GjBI2Dk4dNgIYPLglZGUIQhglADoyYcYiICOAAAAAAAEAAAAAAAAAAgAAAAAAAAAAA==

> <PUBCHEM_IUPAC_OPENEYE_NAME>
4-fluoro-N-(3-pyridyl)benzothiophene-2-carboxamide

> <PUBCHEM_IUPAC_CAS_NAME>
4-fluoro-N-(3-pyridinyl)-1-benzothiophene-2-carboxamide

> <PUBCHEM_IUPAC_NAME>
4-fluoro-N-pyridin-3-yl-1-benzothiophene-2-carboxamide

> <PUBCHEM_IUPAC_SYSTEMATIC_NAME>
4-fluoranyl-N-pyridin-3-yl-1-benzothiophene-2-carboxamide

> <PUBCHEM_IUPAC_TRADITIONAL_NAME>
4-fluoro-N-(3-pyridyl)benzothiophene-2-carboxamide

> <PUBCHEM_IUPAC_INCHI>
InChI=1S/C14H9FN2OS/c15-11-4-1-5-12-10(11)7-13(19-12)14(18)17-9-3-2-6-16-8-9/h1-8H,(H,17,18)

> <PUBCHEM_IUPAC_INCHIKEY>
ASPQRHGWPNGSEC-UHFFFAOYSA-N

> <PUBCHEM_XLOGP3_AA>
3.1

> <PUBCHEM_EXACT_MASS>
272.041962

> <PUBCHEM_MOLECULAR_FORMULA>
C14H9FN2OS

> <PUBCHEM_MOLECULAR_WEIGHT>
272.297463

> <PUBCHEM_OPENEYE_CAN_SMILES>
C1=CC(=C2C=C(SC2=C1)C(=O)NC3=CN=CC=C3)F

> <PUBCHEM_OPENEYE_ISO_SMILES>
C1=CC(=C2C=C(SC2=C1)C(=O)NC3=CN=CC=C3)F

> <PUBCHEM_CACTVS_TPSA>
70.2

> <PUBCHEM_MONOISOTOPIC_WEIGHT>
272.041962

> <PUBCHEM_TOTAL_CHARGE>
0

> <PUBCHEM_HEAVY_ATOM_COUNT>
19

> <PUBCHEM_ATOM_DEF_STEREO_COUNT>
0

> <PUBCHEM_ATOM_UDEF_STEREO_COUNT>
0

> <PUBCHEM_BOND_DEF_STEREO_COUNT>
0

> <PUBCHEM_BOND_UDEF_STEREO_COUNT>
0

> <PUBCHEM_ISOTOPIC_ATOM_COUNT>
0

> <PUBCHEM_COMPONENT_COUNT>
1

> <PUBCHEM_CACTVS_TAUTO_COUNT>
2

> <PUBCHEM_COORDINATE_TYPE>
1
5
255

> <PUBCHEM_BONDANNOTATIONS>
1  7  8
1  8  8
10  13  8
11  14  8
13  14  8
15  16  8
15  17  8
16  18  8
18  19  8
5  17  8
5  19  8
6  10  8
6  7  8
6  9  8
7  11  8
8  9  8

$$$$

