441711
  -OEChem-07051212553D

 94101  0     1  0  0  0  0  0999 V2000
   -1.9356   -2.4151    0.3912 O   0  0  0  0  0  0  0  0  0  0  0  0
   -1.6964   -1.0882   -2.6341 O   0  0  0  0  0  0  0  0  0  0  0  0
   -3.8082   -2.3498   -1.6483 O   0  0  0  0  0  0  0  0  0  0  0  0
   -2.5954    2.9637    1.5788 O   0  0  0  0  0  0  0  0  0  0  0  0
   -6.9640   -0.9655    1.2648 O   0  0  0  0  0  0  0  0  0  0  0  0
   -6.4008   -0.0576   -2.2737 O   0  0  0  0  0  0  0  0  0  0  0  0
    2.7448    0.6583   -0.7180 O   0  0  0  0  0  0  0  0  0  0  0  0
    3.8278    1.0299   -2.7153 O   0  0  0  0  0  0  0  0  0  0  0  0
    4.1920   -1.1185    2.5021 O   0  0  0  0  0  0  0  0  0  0  0  0
    5.1353   -1.9004   -1.9843 O   0  0  0  0  0  0  0  0  0  0  0  0
   -0.8464    0.0781    1.6185 N   0  0  2  0  0  0  0  0  0  0  0  0
    4.8911   -1.1266    0.2416 N   0  0  0  0  0  0  0  0  0  0  0  0
   -2.1396    1.2174   -0.1486 C   0  0  2  0  0  0  0  0  0  0  0  0
   -1.0164    0.7068   -1.1365 C   0  0  2  0  0  0  0  0  0  0  0  0
   -2.1043    0.0214    0.8419 C   0  0  1  0  0  0  0  0  0  0  0  0
   -2.2930   -1.1599   -0.1754 C   0  0  2  0  0  0  0  0  0  0  0  0
   -3.5655    1.2986   -0.8401 C   0  0  1  0  0  0  0  0  0  0  0  0
   -3.7568   -1.2502   -0.7133 C   0  0  1  0  0  0  0  0  0  0  0  0
   -1.2805   -0.8159   -1.3059 C   0  0  1  0  0  0  0  0  0  0  0  0
   -4.0938    0.0182   -1.5171 C   0  0  1  0  0  0  0  0  0  0  0  0
    0.3798    0.8802   -0.4555 C   0  0  2  0  0  0  0  0  0  0  0  0
   -1.8094    2.6416    0.4337 C   0  0  2  0  0  0  0  0  0  0  0  0
   -4.7349    1.7530    0.0816 C   0  0  0  0  0  0  0  0  0  0  0  0
    0.4065    0.0203    0.8495 C   0  0  0  0  0  0  0  0  0  0  0  0
   -5.8763    0.7403   -0.0514 C   0  0  1  0  0  0  0  0  0  0  0  0
    0.6222    2.3726   -0.1577 C   0  0  0  0  0  0  0  0  0  0  0  0
   -4.8393   -1.5979    0.3572 C   0  0  0  0  0  0  0  0  0  0  0  0
   -0.3685    2.9374    0.8287 C   0  0  0  0  0  0  0  0  0  0  0  0
   -5.5774    0.2326   -1.4214 C   0  0  0  0  0  0  0  0  0  0  0  0
   -5.6806   -0.4332    0.9197 C   0  0  2  0  0  0  0  0  0  0  0  0
    1.5267    0.4390   -1.3933 C   0  0  0  0  0  0  0  0  0  0  0  0
   -0.8167   -0.8034    2.7768 C   0  0  0  0  0  0  0  0  0  0  0  0
   -0.5925   -1.1420   -3.5297 C   0  0  0  0  0  0  0  0  0  0  0  0
    0.3112   -0.4285    3.7233 C   0  0  0  0  0  0  0  0  0  0  0  0
   -2.8214    4.3615    1.6731 C   0  0  0  0  0  0  0  0  0  0  0  0
   -6.9238   -1.6304    2.5167 C   0  0  0  0  0  0  0  0  0  0  0  0
    3.8302    0.9475   -1.4968 C   0  0  0  0  0  0  0  0  0  0  0  0
    5.0453    1.1544   -0.6690 C   0  0  0  0  0  0  0  0  0  0  0  0
    5.5401    0.1476    0.1601 C   0  0  0  0  0  0  0  0  0  0  0  0
    5.6951    2.3871   -0.7333 C   0  0  0  0  0  0  0  0  0  0  0  0
    6.6847    0.3737    0.9248 C   0  0  0  0  0  0  0  0  0  0  0  0
    6.8395    2.6130    0.0316 C   0  0  0  0  0  0  0  0  0  0  0  0
    7.3342    1.6064    0.8606 C   0  0  0  0  0  0  0  0  0  0  0  0
    4.3518   -1.6512    1.4120 C   0  0  0  0  0  0  0  0  0  0  0  0
    4.7085   -1.9793   -0.8403 C   0  0  0  0  0  0  0  0  0  0  0  0
    3.9565   -3.0807    1.1261 C   0  0  2  0  0  0  0  0  0  0  0  0
    3.8385   -3.1163   -0.3863 C   0  0  0  0  0  0  0  0  0  0  0  0
    2.6758   -3.4901    1.8311 C   0  0  0  0  0  0  0  0  0  0  0  0
   -1.0624    1.2614   -2.0808 H   0  0  0  0  0  0  0  0  0  0  0  0
   -2.9377    0.0765    1.5468 H   0  0  0  0  0  0  0  0  0  0  0  0
   -3.4831    2.0577   -1.6333 H   0  0  0  0  0  0  0  0  0  0  0  0
   -0.3964   -1.4366   -1.1376 H   0  0  0  0  0  0  0  0  0  0  0  0
   -3.8169   -0.0240   -2.5742 H   0  0  0  0  0  0  0  0  0  0  0  0
   -2.0496    3.3438   -0.3791 H   0  0  0  0  0  0  0  0  0  0  0  0
   -4.4723    1.8564    1.1333 H   0  0  0  0  0  0  0  0  0  0  0  0
   -5.0805    2.7393   -0.2552 H   0  0  0  0  0  0  0  0  0  0  0  0
    1.2386    0.3891    1.4609 H   0  0  0  0  0  0  0  0  0  0  0  0
    0.6499   -1.0224    0.6155 H   0  0  0  0  0  0  0  0  0  0  0  0
   -6.8594    1.2125    0.0152 H   0  0  0  0  0  0  0  0  0  0  0  0
    0.5679    2.9483   -1.0915 H   0  0  0  0  0  0  0  0  0  0  0  0
    1.6255    2.5454    0.2503 H   0  0  0  0  0  0  0  0  0  0  0  0
   -4.3887   -2.1408    1.1949 H   0  0  0  0  0  0  0  0  0  0  0  0
   -5.5333   -2.3365   -0.0727 H   0  0  0  0  0  0  0  0  0  0  0  0
   -0.1570    2.5795    1.8437 H   0  0  0  0  0  0  0  0  0  0  0  0
   -0.2059    4.0207    0.8858 H   0  0  0  0  0  0  0  0  0  0  0  0
   -5.2139   -0.0524    1.8366 H   0  0  0  0  0  0  0  0  0  0  0  0
    1.4727    1.0092   -2.3287 H   0  0  0  0  0  0  0  0  0  0  0  0
    1.4812   -0.6249   -1.6360 H   0  0  0  0  0  0  0  0  0  0  0  0
   -2.4002   -2.5133    1.2378 H   0  0  0  0  0  0  0  0  0  0  0  0
   -4.6715   -2.3286   -2.0957 H   0  0  0  0  0  0  0  0  0  0  0  0
   -1.7573   -0.7134    3.3334 H   0  0  0  0  0  0  0  0  0  0  0  0
   -0.7055   -1.8553    2.4953 H   0  0  0  0  0  0  0  0  0  0  0  0
   -0.1187   -0.1641   -3.6369 H   0  0  0  0  0  0  0  0  0  0  0  0
    0.1348   -1.8986   -3.2200 H   0  0  0  0  0  0  0  0  0  0  0  0
   -0.9768   -1.4312   -4.5122 H   0  0  0  0  0  0  0  0  0  0  0  0
    1.2945   -0.7065    3.3320 H   0  0  0  0  0  0  0  0  0  0  0  0
    0.3098    0.6434    3.9492 H   0  0  0  0  0  0  0  0  0  0  0  0
    0.1872   -0.9632    4.6716 H   0  0  0  0  0  0  0  0  0  0  0  0
   -1.9006    4.9098    1.8860 H   0  0  0  0  0  0  0  0  0  0  0  0
   -3.2979    4.7487    0.7667 H   0  0  0  0  0  0  0  0  0  0  0  0
   -3.5065    4.5323    2.5088 H   0  0  0  0  0  0  0  0  0  0  0  0
   -7.9323   -1.9904    2.7402 H   0  0  0  0  0  0  0  0  0  0  0  0
   -6.6261   -0.9436    3.3154 H   0  0  0  0  0  0  0  0  0  0  0  0
   -6.2565   -2.4962    2.4921 H   0  0  0  0  0  0  0  0  0  0  0  0
    5.3188    3.1802   -1.3742 H   0  0  0  0  0  0  0  0  0  0  0  0
    7.0843   -0.4027    1.5723 H   0  0  0  0  0  0  0  0  0  0  0  0
    7.3453    3.5728   -0.0184 H   0  0  0  0  0  0  0  0  0  0  0  0
    8.2259    1.7821    1.4553 H   0  0  0  0  0  0  0  0  0  0  0  0
    4.7845   -3.7209    1.4553 H   0  0  0  0  0  0  0  0  0  0  0  0
    2.8170   -2.9310   -0.7354 H   0  0  0  0  0  0  0  0  0  0  0  0
    4.1978   -4.0649   -0.7951 H   0  0  0  0  0  0  0  0  0  0  0  0
    2.8029   -3.4576    2.9184 H   0  0  0  0  0  0  0  0  0  0  0  0
    1.8474   -2.8203    1.5805 H   0  0  0  0  0  0  0  0  0  0  0  0
    2.3879   -4.5090    1.5533 H   0  0  0  0  0  0  0  0  0  0  0  0
  1 16  1  0  0  0  0
  1 69  1  0  0  0  0
  2 19  1  0  0  0  0
  2 33  1  0  0  0  0
  3 18  1  0  0  0  0
  3 70  1  0  0  0  0
  4 22  1  0  0  0  0
  4 35  1  0  0  0  0
  5 30  1  0  0  0  0
  5 36  1  0  0  0  0
  6 29  2  0  0  0  0
  7 31  1  0  0  0  0
  7 37  1  0  0  0  0
  8 37  2  0  0  0  0
  9 44  2  0  0  0  0
 10 45  2  0  0  0  0
 11 15  1  0  0  0  0
 11 24  1  0  0  0  0
 11 32  1  0  0  0  0
 12 39  1  0  0  0  0
 12 44  1  0  0  0  0
 12 45  1  0  0  0  0
 13 14  1  0  0  0  0
 13 15  1  0  0  0  0
 13 17  1  0  0  0  0
 13 22  1  0  0  0  0
 14 19  1  0  0  0  0
 14 21  1  0  0  0  0
 14 49  1  0  0  0  0
 15 16  1  0  0  0  0
 15 50  1  0  0  0  0
 16 18  1  0  0  0  0
 16 19  1  0  0  0  0
 17 20  1  0  0  0  0
 17 23  1  0  0  0  0
 17 51  1  0  0  0  0
 18 20  1  0  0  0  0
 18 27  1  0  0  0  0
 19 52  1  0  0  0  0
 20 29  1  0  0  0  0
 20 53  1  0  0  0  0
 21 24  1  0  0  0  0
 21 26  1  0  0  0  0
 21 31  1  0  0  0  0
 22 28  1  0  0  0  0
 22 54  1  0  0  0  0
 23 25  1  0  0  0  0
 23 55  1  0  0  0  0
 23 56  1  0  0  0  0
 24 57  1  0  0  0  0
 24 58  1  0  0  0  0
 25 29  1  0  0  0  0
 25 30  1  0  0  0  0
 25 59  1  0  0  0  0
 26 28  1  0  0  0  0
 26 60  1  0  0  0  0
 26 61  1  0  0  0  0
 27 30  1  0  0  0  0
 27 62  1  0  0  0  0
 27 63  1  0  0  0  0
 28 64  1  0  0  0  0
 28 65  1  0  0  0  0
 30 66  1  0  0  0  0
 31 67  1  0  0  0  0
 31 68  1  0  0  0  0
 32 34  1  0  0  0  0
 32 71  1  0  0  0  0
 32 72  1  0  0  0  0
 33 73  1  0  0  0  0
 33 74  1  0  0  0  0
 33 75  1  0  0  0  0
 34 76  1  0  0  0  0
 34 77  1  0  0  0  0
 34 78  1  0  0  0  0
 35 79  1  0  0  0  0
 35 80  1  0  0  0  0
 35 81  1  0  0  0  0
 36 82  1  0  0  0  0
 36 83  1  0  0  0  0
 36 84  1  0  0  0  0
 37 38  1  0  0  0  0
 38 39  1  0  0  0  0
 38 40  2  0  0  0  0
 39 41  2  0  0  0  0
 40 42  1  0  0  0  0
 40 85  1  0  0  0  0
 41 43  1  0  0  0  0
 41 86  1  0  0  0  0
 42 43  2  0  0  0  0
 42 87  1  0  0  0  0
 43 88  1  0  0  0  0
 44 46  1  0  0  0  0
 45 47  1  0  0  0  0
 46 47  1  0  0  0  0
 46 48  1  0  0  0  0
 46 89  1  0  0  0  0
 47 90  1  0  0  0  0
 47 91  1  0  0  0  0
 48 92  1  0  0  0  0
 48 93  1  0  0  0  0
 48 94  1  0  0  0  0
M  END
> <PUBCHEM_COMPOUND_CID>
441711

> <PUBCHEM_CONFORMER_RMSD>
1.2

> <PUBCHEM_CONFORMER_DIVERSEORDER>
1
36
21
22
27
28
42
33
24
14
34
17
32
40
6
12
18
26
2
38
4
37
23
16
20
35
11
25
9
19
41
13
15
31
5
29
10
39
8
30
43
7
3

> <PUBCHEM_MMFF94_PARTIAL_CHARGES>
44
1 -0.68
10 -0.57
11 -0.81
12 -0.24
15 0.27
16 0.28
18 0.28
19 0.28
2 -0.56
20 0.06
22 0.28
24 0.27
25 0.06
29 0.45
3 -0.68
30 0.28
31 0.28
32 0.27
33 0.28
35 0.28
36 0.28
37 0.63
38 0.09
39 0.12
4 -0.56
40 -0.15
41 -0.15
42 -0.15
43 -0.15
44 0.57
45 0.57
46 0.06
47 0.06
5 -0.56
6 -0.57
69 0.4
7 -0.43
70 0.4
8 -0.57
85 0.15
86 0.15
87 0.15
88 0.15
9 -0.57

> <PUBCHEM_EFFECTIVE_ROTOR_COUNT>
11.4

> <PUBCHEM_PHARMACOPHORE_FEATURES>
18
1 1 acceptor
1 1 donor
1 10 acceptor
1 11 cation
1 2 acceptor
1 3 acceptor
1 3 donor
1 4 acceptor
1 5 acceptor
1 6 acceptor
1 8 acceptor
1 9 acceptor
5 12 44 45 46 47 rings
6 13 14 21 22 26 28 rings
6 38 39 40 41 42 43 rings
8 11 13 14 15 16 19 21 24 rings
8 13 14 15 16 17 18 19 20 rings
8 17 18 20 23 25 27 29 30 rings

> <PUBCHEM_HEAVY_ATOM_COUNT>
48

> <PUBCHEM_ATOM_DEF_STEREO_COUNT>
12

> <PUBCHEM_ATOM_UDEF_STEREO_COUNT>
1

> <PUBCHEM_BOND_DEF_STEREO_COUNT>
0

> <PUBCHEM_BOND_UDEF_STEREO_COUNT>
0

> <PUBCHEM_ISOTOPIC_ATOM_COUNT>
0

> <PUBCHEM_COMPONENT_COUNT>
1

> <PUBCHEM_CACTVS_TAUTO_COUNT>
4

> <PUBCHEM_CONFORMER_ID>
0006BD6F00000001

> <PUBCHEM_MMFF94_ENERGY>
235.7911

> <PUBCHEM_FEATURE_SELFOVERLAP>
92.848

> <PUBCHEM_SHAPE_FINGERPRINT>
11991303 11 10015577282035849257
12422481 6 17677608838530481959
12788726 201 18260266369216174737
13782708 43 16988271006985541337
13811026 1 17918277528187387779
14118638 360 18409448115858499692
14394314 77 18408322164000579817
14840074 17 17894354375475332711
15001296 14 18413393154846535694
15183329 4 18407761421755002197
15274700 34 16771805677306269755
19319366 153 18412272731281672486
20511986 3 18334871519227313900
23559900 14 18337682892628301776
3383291 50 18342730798019916627
3633792 109 18129675208727443573
404807 14 17055004988628119187
463206 1 18268430131610420106
77296 10 18270960262109826028

> <PUBCHEM_SHAPE_MULTIPOLES>
919.16
17.27
3.65
2.79
6.39
0.61
0.1
0.02
1.18
2.07
1.56
-1.08
-0.98
-0.87

> <PUBCHEM_SHAPE_SELFOVERLAP>
2033.766

> <PUBCHEM_SHAPE_VOLUME>
485

> <PUBCHEM_COORDINATE_TYPE>
2
5
10

$$$$

