7914
  -OEChem-06261202273D

 21 20  0     0  0  0  0  0  0999 V2000
    0.0020    0.0000    0.5661 O   0  0  0  0  0  0  0  0  0  0  0  0
   -1.1712   -0.0998   -0.2354 C   0  0  0  0  0  0  0  0  0  0  0  0
    1.1704    0.0999   -0.2348 C   0  0  0  0  0  0  0  0  0  0  0  0
   -2.2081   -0.9379    0.4970 C   0  0  0  0  0  0  0  0  0  0  0  0
   -1.6872    1.2973   -0.5442 C   0  0  0  0  0  0  0  0  0  0  0  0
    2.2083    0.9377    0.4962 C   0  0  0  0  0  0  0  0  0  0  0  0
    1.6859   -1.2972   -0.5449 C   0  0  0  0  0  0  0  0  0  0  0  0
   -0.9574   -0.6140   -1.1812 H   0  0  0  0  0  0  0  0  0  0  0  0
    0.9567    0.6142   -1.1806 H   0  0  0  0  0  0  0  0  0  0  0  0
   -3.1247   -1.0437   -0.0911 H   0  0  0  0  0  0  0  0  0  0  0  0
   -1.8102   -1.9365    0.7079 H   0  0  0  0  0  0  0  0  0  0  0  0
   -2.4609   -0.4895    1.4641 H   0  0  0  0  0  0  0  0  0  0  0  0
   -2.6065    1.2575   -1.1370 H   0  0  0  0  0  0  0  0  0  0  0  0
   -0.9480    1.8834   -1.0991 H   0  0  0  0  0  0  0  0  0  0  0  0
   -1.8928    1.8486    0.3802 H   0  0  0  0  0  0  0  0  0  0  0  0
    3.1242    1.0433   -0.0932 H   0  0  0  0  0  0  0  0  0  0  0  0
    1.8111    1.9364    0.7077 H   0  0  0  0  0  0  0  0  0  0  0  0
    2.4625    0.4893    1.4630 H   0  0  0  0  0  0  0  0  0  0  0  0
    2.6044   -1.2572   -1.1387 H   0  0  0  0  0  0  0  0  0  0  0  0
    0.9459   -1.8832   -1.0991 H   0  0  0  0  0  0  0  0  0  0  0  0
    1.8927   -1.8489    0.3790 H   0  0  0  0  0  0  0  0  0  0  0  0
  1  2  1  0  0  0  0
  1  3  1  0  0  0  0
  2  4  1  0  0  0  0
  2  5  1  0  0  0  0
  2  8  1  0  0  0  0
  3  6  1  0  0  0  0
  3  7  1  0  0  0  0
  3  9  1  0  0  0  0
  4 10  1  0  0  0  0
  4 11  1  0  0  0  0
  4 12  1  0  0  0  0
  5 13  1  0  0  0  0
  5 14  1  0  0  0  0
  5 15  1  0  0  0  0
  6 16  1  0  0  0  0
  6 17  1  0  0  0  0
  6 18  1  0  0  0  0
  7 19  1  0  0  0  0
  7 20  1  0  0  0  0
  7 21  1  0  0  0  0
M  END
> <PUBCHEM_COMPOUND_CID>
7914

> <PUBCHEM_CONFORMER_RMSD>
0.4

> <PUBCHEM_CONFORMER_DIVERSEORDER>
1
6
4
5
3
2

> <PUBCHEM_MMFF94_PARTIAL_CHARGES>
3
1 -0.56
2 0.28
3 0.28

> <PUBCHEM_EFFECTIVE_ROTOR_COUNT>
2

> <PUBCHEM_PHARMACOPHORE_FEATURES>
3
1 1 acceptor
3 2 4 5 hydrophobe
3 3 6 7 hydrophobe

> <PUBCHEM_HEAVY_ATOM_COUNT>
7

> <PUBCHEM_ATOM_DEF_STEREO_COUNT>
0

> <PUBCHEM_ATOM_UDEF_STEREO_COUNT>
0

> <PUBCHEM_BOND_DEF_STEREO_COUNT>
0

> <PUBCHEM_BOND_UDEF_STEREO_COUNT>
0

> <PUBCHEM_ISOTOPIC_ATOM_COUNT>
0

> <PUBCHEM_COMPONENT_COUNT>
1

> <PUBCHEM_CACTVS_TAUTO_COUNT>
1

> <PUBCHEM_CONFORMER_ID>
00001EEA00000001

> <PUBCHEM_MMFF94_ENERGY>
10.4106

> <PUBCHEM_FEATURE_SELFOVERLAP>
15.223

> <PUBCHEM_SHAPE_FINGERPRINT>
10857977 72 18127413354305257561
12932741 1 18410574028101124381
14390081 3 18336273387414374944
20096714 4 18129386079923656741
20711978 78 17604135017101122750
21040471 1 17772478038605842685
23552423 10 18059849597202167806
24536 1 18338809995099119741
29004967 10 18334008363401283482
5460574 1 9222964663501717609

> <PUBCHEM_SHAPE_MULTIPOLES>
138.19
3.31
1.37
0.82
0
0
0
0
0.22
0
-0.13
0
0
0.65

> <PUBCHEM_SHAPE_SELFOVERLAP>
241.906

> <PUBCHEM_SHAPE_VOLUME>
93.5

> <PUBCHEM_COORDINATE_TYPE>
2
5
10

$$$$

