33572
  -OEChem-07051212533D

 42 43  0     1  0  0  0  0  0999 V2000
    3.3606    2.7122   -0.8480 O   0  0  0  0  0  0  0  0  0  0  0  0
    5.1802   -3.1616   -0.0017 O   0  0  0  0  0  0  0  0  0  0  0  0
   -7.0996   -0.7714   -0.7257 O   0  0  0  0  0  0  0  0  0  0  0  0
    0.4053    0.8984    0.4920 N   0  0  0  0  0  0  0  0  0  0  0  0
    1.1403    1.8140   -0.3896 C   0  0  2  0  0  0  0  0  0  0  0  0
    2.6237    1.8676    0.0404 C   0  0  1  0  0  0  0  0  0  0  0  0
   -0.9746    0.7707    0.0569 C   0  0  0  0  0  0  0  0  0  0  0  0
    0.4589    3.1822   -0.3230 C   0  0  0  0  0  0  0  0  0  0  0  0
    3.3092    0.5180    0.0292 C   0  0  0  0  0  0  0  0  0  0  0  0
   -1.7522   -0.1758    0.9720 C   0  0  0  0  0  0  0  0  0  0  0  0
   -3.1814   -0.3347    0.5180 C   0  0  0  0  0  0  0  0  0  0  0  0
    3.9045    0.0537    1.1887 C   0  0  0  0  0  0  0  0  0  0  0  0
    3.3257   -0.2205   -1.1409 C   0  0  0  0  0  0  0  0  0  0  0  0
   -4.1507    0.5283    1.0058 C   0  0  0  0  0  0  0  0  0  0  0  0
   -3.5021   -1.3420   -0.3793 C   0  0  0  0  0  0  0  0  0  0  0  0
    4.5369   -1.1895    1.1778 C   0  0  0  0  0  0  0  0  0  0  0  0
    3.9581   -1.4637   -1.1517 C   0  0  0  0  0  0  0  0  0  0  0  0
    4.5637   -1.9483    0.0077 C   0  0  0  0  0  0  0  0  0  0  0  0
   -5.4728    0.3805    0.5862 C   0  0  0  0  0  0  0  0  0  0  0  0
   -4.8242   -1.4897   -0.7990 C   0  0  0  0  0  0  0  0  0  0  0  0
   -5.8095   -0.6285   -0.3161 C   0  0  0  0  0  0  0  0  0  0  0  0
    1.0786    1.4659   -1.4288 H   0  0  0  0  0  0  0  0  0  0  0  0
    2.7010    2.3215    1.0363 H   0  0  0  0  0  0  0  0  0  0  0  0
    0.4380    1.2371    1.4532 H   0  0  0  0  0  0  0  0  0  0  0  0
   -1.5074    1.7265    0.0771 H   0  0  0  0  0  0  0  0  0  0  0  0
   -1.0105    0.3922   -0.9724 H   0  0  0  0  0  0  0  0  0  0  0  0
   -0.4771    3.2159   -0.8894 H   0  0  0  0  0  0  0  0  0  0  0  0
    0.2625    3.4966    0.7087 H   0  0  0  0  0  0  0  0  0  0  0  0
    1.0984    3.9512   -0.7714 H   0  0  0  0  0  0  0  0  0  0  0  0
   -1.7362    0.1931    2.0063 H   0  0  0  0  0  0  0  0  0  0  0  0
   -1.2669   -1.1606    1.0006 H   0  0  0  0  0  0  0  0  0  0  0  0
    3.8898    0.6351    2.1058 H   0  0  0  0  0  0  0  0  0  0  0  0
    2.8691    0.1441   -2.0558 H   0  0  0  0  0  0  0  0  0  0  0  0
    2.9740    2.6419   -1.7372 H   0  0  0  0  0  0  0  0  0  0  0  0
   -3.8980    1.3182    1.7073 H   0  0  0  0  0  0  0  0  0  0  0  0
   -2.7415   -2.0163   -0.7623 H   0  0  0  0  0  0  0  0  0  0  0  0
    5.0047   -1.5558    2.0878 H   0  0  0  0  0  0  0  0  0  0  0  0
    3.9776   -2.0493   -2.0667 H   0  0  0  0  0  0  0  0  0  0  0  0
   -6.2358    1.0548    0.9653 H   0  0  0  0  0  0  0  0  0  0  0  0
   -5.0734   -2.2793   -1.5028 H   0  0  0  0  0  0  0  0  0  0  0  0
    5.5432   -3.3376    0.8835 H   0  0  0  0  0  0  0  0  0  0  0  0
   -7.1516   -1.5170   -1.3482 H   0  0  0  0  0  0  0  0  0  0  0  0
  1  6  1  0  0  0  0
  1 34  1  0  0  0  0
  2 18  1  0  0  0  0
  2 41  1  0  0  0  0
  3 21  1  0  0  0  0
  3 42  1  0  0  0  0
  4  5  1  0  0  0  0
  4  7  1  0  0  0  0
  4 24  1  0  0  0  0
  5  6  1  0  0  0  0
  5  8  1  0  0  0  0
  5 22  1  0  0  0  0
  6  9  1  0  0  0  0
  6 23  1  0  0  0  0
  7 10  1  0  0  0  0
  7 25  1  0  0  0  0
  7 26  1  0  0  0  0
  8 27  1  0  0  0  0
  8 28  1  0  0  0  0
  8 29  1  0  0  0  0
  9 12  2  0  0  0  0
  9 13  1  0  0  0  0
 10 11  1  0  0  0  0
 10 30  1  0  0  0  0
 10 31  1  0  0  0  0
 11 14  2  0  0  0  0
 11 15  1  0  0  0  0
 12 16  1  0  0  0  0
 12 32  1  0  0  0  0
 13 17  2  0  0  0  0
 13 33  1  0  0  0  0
 14 19  1  0  0  0  0
 14 35  1  0  0  0  0
 15 20  2  0  0  0  0
 15 36  1  0  0  0  0
 16 18  2  0  0  0  0
 16 37  1  0  0  0  0
 17 18  1  0  0  0  0
 17 38  1  0  0  0  0
 19 21  2  0  0  0  0
 19 39  1  0  0  0  0
 20 21  1  0  0  0  0
 20 40  1  0  0  0  0
M  END
> <PUBCHEM_COMPOUND_CID>
33572

> <PUBCHEM_CONFORMER_RMSD>
0.8

> <PUBCHEM_CONFORMER_DIVERSEORDER>
1
30
19
15
4
3
12
20
2
9
18
10
23
24
17
21
26
5
27
29
22
13
16
11
7
8
6
28
25
14

> <PUBCHEM_MMFF94_PARTIAL_CHARGES>
32
1 -0.68
10 0.14
11 -0.14
12 -0.15
13 -0.15
14 -0.15
15 -0.15
16 -0.15
17 -0.15
18 0.08
19 -0.15
2 -0.53
20 -0.15
21 0.08
24 0.36
3 -0.53
32 0.15
33 0.15
34 0.4
35 0.15
36 0.15
37 0.15
38 0.15
39 0.15
4 -0.9
40 0.15
41 0.45
42 0.45
5 0.27
6 0.42
7 0.27
9 -0.14

> <PUBCHEM_EFFECTIVE_ROTOR_COUNT>
6

> <PUBCHEM_PHARMACOPHORE_FEATURES>
8
1 1 acceptor
1 1 donor
1 2 donor
1 3 donor
1 4 cation
1 4 donor
6 11 14 15 19 20 21 rings
6 9 12 13 16 17 18 rings

> <PUBCHEM_HEAVY_ATOM_COUNT>
21

> <PUBCHEM_ATOM_DEF_STEREO_COUNT>
2

> <PUBCHEM_ATOM_UDEF_STEREO_COUNT>
0

> <PUBCHEM_BOND_DEF_STEREO_COUNT>
0

> <PUBCHEM_BOND_UDEF_STEREO_COUNT>
0

> <PUBCHEM_ISOTOPIC_ATOM_COUNT>
0

> <PUBCHEM_COMPONENT_COUNT>
1

> <PUBCHEM_CACTVS_TAUTO_COUNT>
4

> <PUBCHEM_CONFORMER_ID>
0000832400000001

> <PUBCHEM_MMFF94_ENERGY>
49.6241

> <PUBCHEM_FEATURE_SELFOVERLAP>
40.594

> <PUBCHEM_SHAPE_FINGERPRINT>
10670039 82 14836136501740604535
11858739 19 18408889538096889311
12107183 9 18191012616076802313
12895836 83 13973385938452162234
13073987 5 18335134255362114225
13167823 11 18334293133129612891
13533116 47 18334576806929236265
13782708 43 17560227017664972467
13911852 28 18338237197002336758
13914758 101 18409733989535524389
14211702 104 18337670790154507043
14251740 57 17458616852547057670
14347332 77 18334860511579561757
14429115 67 18187363237861790240
1454969 45 18410852141284467652
14565420 104 17606136000433060952
146900 427 8862947177805205293
15183329 4 18408882937080451573
15188451 53 17749114421574931619
15210252 30 10087628309116228382
15250474 111 17970638389469112727
15419008 42 17824824696936849405
15885798 251 18411698815828163192
17349148 13 17967522468115460465
17818456 19 18042671966007866233
17857418 61 18187085040256375599
1813 80 18272931635066669764
18222031 100 18261383473272230860
18335252 114 18341062852730586565
20028762 73 18113620109710961366
20369508 70 18131074822742028416
20403669 9 18411417340766868158
20621476 91 14707503455907969845
20645477 70 18271806787563646248
21279426 13 18131081475841899709
21478907 32 18340206404931659977
21728266 224 17313393275552024599
22061861 79 18131918148208005215
2215653 11 18060419114561407563
2303208 19 17346308264331087209
23081809 10 18114174212748371665
23559900 14 18340204077069532665
23622692 118 18340202003323144860
29717793 49 18410295804984531113
3004659 81 18334008384955260708
3421961 26 18409730656029128800
34797466 226 15913034375421101157
463206 1 18343865519599811050
5104073 3 18041269990214026739
5207 123 18411699928124063324
543368 44 10879983654184957331
559249 180 18261111920134346891
573450 72 17822003212428653625
6025842 7 18269834234013483868
7164475 11 18412259566869618388
7808743 9 8501498115211247858
7970288 3 18339644563549650258
8988823 20 17458352900741482856
960060 61 18131060520300368732
9971528 1 18411983529020427993
9981440 41 17184757892350931145

> <PUBCHEM_SHAPE_MULTIPOLES>
409.58
15.51
2.79
1.11
16.6
0.88
-0.06
-9.58
0.77
-4.1
0.62
-0.43
-0.13
-1.03

> <PUBCHEM_SHAPE_SELFOVERLAP>
859.416

> <PUBCHEM_SHAPE_VOLUME>
232.1

> <PUBCHEM_COORDINATE_TYPE>
2
5
10

$$$$

