11561034
  -OEChem-07051213083D

 51 53  0     1  0  0  0  0  0999 V2000
    2.2778   -3.6141   -0.4837 P   0  0  0  0  0  0  0  0  0  0  0  0
    2.9420    0.6363   -0.8324 O   0  0  0  0  0  0  0  0  0  0  0  0
    3.1376    2.9243    1.9331 O   0  0  0  0  0  0  0  0  0  0  0  0
    5.2867    1.7138    0.7922 O   0  0  0  0  0  0  0  0  0  0  0  0
    2.9682   -2.1640   -0.6892 O   0  0  0  0  0  0  0  0  0  0  0  0
    3.2672   -4.3393    0.5700 O   0  0  0  0  0  0  0  0  0  0  0  0
    0.9636   -3.2913    0.4017 O   0  0  0  0  0  0  0  0  0  0  0  0
    2.0267   -4.3814   -1.7488 O   0  0  0  0  0  0  0  0  0  0  0  0
   -4.9749   -1.7381    2.6621 O   0  0  0  0  0  0  0  0  0  0  0  0
    1.1187    2.0855   -0.3786 N   0  0  0  0  0  0  0  0  0  0  0  0
   -0.7902    3.2013   -0.6764 N   0  0  0  0  0  0  0  0  0  0  0  0
    0.2828   -0.1942   -0.4586 N   0  0  0  0  0  0  0  0  0  0  0  0
   -3.4373    1.7497   -1.0380 N   0  0  0  0  0  0  0  0  0  0  0  0
   -2.1318   -0.2430   -0.8095 N   0  0  0  0  0  0  0  0  0  0  0  0
    2.9357    1.6806    1.2932 C   0  0  2  0  0  0  0  0  0  0  0  0
    4.2058    0.8621    1.1723 C   0  0  1  0  0  0  0  0  0  0  0  0
    2.5453    1.8509   -0.1671 C   0  0  1  0  0  0  0  0  0  0  0  0
    3.8822   -0.0706    0.0093 C   0  0  1  0  0  0  0  0  0  0  0  0
    3.2390   -1.3757    0.4565 C   0  0  0  0  0  0  0  0  0  0  0  0
    0.1405    1.1389   -0.5038 C   0  0  0  0  0  0  0  0  0  0  0  0
    0.5086    3.3082   -0.4888 C   0  0  0  0  0  0  0  0  0  0  0  0
   -1.0340    1.8509   -0.6879 C   0  0  0  0  0  0  0  0  0  0  0  0
   -2.2009    1.1097   -0.8446 C   0  0  0  0  0  0  0  0  0  0  0  0
   -0.9122   -0.8025   -0.6215 C   0  0  0  0  0  0  0  0  0  0  0  0
   -4.6689    1.0365   -1.2046 C   0  0  0  0  0  0  0  0  0  0  0  0
   -5.1582    0.5862    0.1371 C   0  0  0  0  0  0  0  0  0  0  0  0
   -5.3709   -0.6773    0.5536 C   0  0  0  0  0  0  0  0  0  0  0  0
   -5.9034   -0.9399    1.9399 C   0  0  0  0  0  0  0  0  0  0  0  0
   -5.1457   -1.9035   -0.2878 C   0  0  0  0  0  0  0  0  0  0  0  0
    2.1729    1.1214    1.8471 H   0  0  0  0  0  0  0  0  0  0  0  0
    4.4876    0.3575    2.1008 H   0  0  0  0  0  0  0  0  0  0  0  0
    3.0737    2.6853   -0.6450 H   0  0  0  0  0  0  0  0  0  0  0  0
    4.7601   -0.2822   -0.6115 H   0  0  0  0  0  0  0  0  0  0  0  0
    2.3042   -1.1922    0.9930 H   0  0  0  0  0  0  0  0  0  0  0  0
    3.9219   -1.9189    1.1174 H   0  0  0  0  0  0  0  0  0  0  0  0
    3.8525    3.3899    1.4667 H   0  0  0  0  0  0  0  0  0  0  0  0
    6.0721    1.1518    0.6781 H   0  0  0  0  0  0  0  0  0  0  0  0
    1.0596    4.2364   -0.4231 H   0  0  0  0  0  0  0  0  0  0  0  0
   -0.9026   -1.8856   -0.6120 H   0  0  0  0  0  0  0  0  0  0  0  0
   -3.4469    2.7636   -1.0435 H   0  0  0  0  0  0  0  0  0  0  0  0
   -4.5609    0.2375   -1.9416 H   0  0  0  0  0  0  0  0  0  0  0  0
   -5.4172    1.7225   -1.6191 H   0  0  0  0  0  0  0  0  0  0  0  0
    3.1140   -5.2822    0.7931 H   0  0  0  0  0  0  0  0  0  0  0  0
    0.3346   -4.0173    0.5998 H   0  0  0  0  0  0  0  0  0  0  0  0
   -5.3760    1.3954    0.8340 H   0  0  0  0  0  0  0  0  0  0  0  0
   -6.8529   -1.4821    1.8840 H   0  0  0  0  0  0  0  0  0  0  0  0
   -6.0796   -0.0211    2.5090 H   0  0  0  0  0  0  0  0  0  0  0  0
   -4.8570   -1.6911   -1.3181 H   0  0  0  0  0  0  0  0  0  0  0  0
   -6.0633   -2.5002   -0.3311 H   0  0  0  0  0  0  0  0  0  0  0  0
   -4.3553   -2.5224    0.1497 H   0  0  0  0  0  0  0  0  0  0  0  0
   -4.1449   -1.2355    2.7307 H   0  0  0  0  0  0  0  0  0  0  0  0
  1  5  1  0  0  0  0
  1  6  1  0  0  0  0
  1  7  1  0  0  0  0
  1  8  2  0  0  0  0
  2 17  1  0  0  0  0
  2 18  1  0  0  0  0
  3 15  1  0  0  0  0
  3 36  1  0  0  0  0
  4 16  1  0  0  0  0
  4 37  1  0  0  0  0
  5 19  1  0  0  0  0
  6 43  1  0  0  0  0
  7 44  1  0  0  0  0
  9 28  1  0  0  0  0
  9 51  1  0  0  0  0
 10 17  1  0  0  0  0
 10 20  1  0  0  0  0
 10 21  1  0  0  0  0
 11 21  2  0  0  0  0
 11 22  1  0  0  0  0
 12 20  2  0  0  0  0
 12 24  1  0  0  0  0
 13 23  1  0  0  0  0
 13 25  1  0  0  0  0
 13 40  1  0  0  0  0
 14 23  1  0  0  0  0
 14 24  2  0  0  0  0
 15 16  1  0  0  0  0
 15 17  1  0  0  0  0
 15 30  1  0  0  0  0
 16 18  1  0  0  0  0
 16 31  1  0  0  0  0
 17 32  1  0  0  0  0
 18 19  1  0  0  0  0
 18 33  1  0  0  0  0
 19 34  1  0  0  0  0
 19 35  1  0  0  0  0
 20 22  1  0  0  0  0
 21 38  1  0  0  0  0
 22 23  2  0  0  0  0
 24 39  1  0  0  0  0
 25 26  1  0  0  0  0
 25 41  1  0  0  0  0
 25 42  1  0  0  0  0
 26 27  2  0  0  0  0
 26 45  1  0  0  0  0
 27 28  1  0  0  0  0
 27 29  1  0  0  0  0
 28 46  1  0  0  0  0
 28 47  1  0  0  0  0
 29 48  1  0  0  0  0
 29 49  1  0  0  0  0
 29 50  1  0  0  0  0
M  END
> <PUBCHEM_COMPOUND_CID>
11561034

> <PUBCHEM_CONFORMER_RMSD>
1

> <PUBCHEM_CONFORMER_DIVERSEORDER>
15
103
27
89
24
52
21
35
79
38
96
46
77
60
99
19
61
63
73
81
31
97
55
107
50
72
56
109
57
92
95
33
82
29
58
85
25
26
13
102
86
49
23
65
22
36
54
106
71
66
5
18
83
84
105
94
30
70
100
98
43
53
93
40
47
69
111
10
37
41
20
104
88
75
42
9
90
44
76
108
7
39
64
62
67
110
59
14
80
74
68
101
8
12
17
28
6
11
51
32
87
45
3
4
91
34
48
16
78
2
1

> <PUBCHEM_MMFF94_PARTIAL_CHARGES>
38
1 1.51
10 0.05
11 -0.57
12 -0.57
13 -0.87
14 -0.62
15 0.28
16 0.28
17 0.54
18 0.28
19 0.28
2 -0.56
20 0.11
21 0.04
22 0.23
23 0.41
24 0.47
25 0.51
26 -0.29
27 -0.28
28 0.42
29 0.14
3 -0.68
36 0.4
37 0.4
38 0.15
39 0.15
4 -0.68
40 0.4
43 0.5
44 0.5
45 0.15
5 -0.55
51 0.4
6 -0.77
7 -0.77
8 -0.7
9 -0.68

> <PUBCHEM_EFFECTIVE_ROTOR_COUNT>
9

> <PUBCHEM_PHARMACOPHORE_FEATURES>
20
1 13 cation
1 13 donor
1 2 acceptor
1 29 hydrophobe
1 3 acceptor
1 3 donor
1 4 acceptor
1 4 donor
1 6 acceptor
1 7 acceptor
1 8 acceptor
1 9 acceptor
1 9 donor
3 10 11 21 cation
3 10 12 20 cation
3 12 14 24 cation
4 1 6 7 8 anion
5 10 11 20 21 22 rings
5 2 15 16 17 18 rings
6 12 14 20 22 23 24 rings

> <PUBCHEM_HEAVY_ATOM_COUNT>
29

> <PUBCHEM_ATOM_DEF_STEREO_COUNT>
4

> <PUBCHEM_ATOM_UDEF_STEREO_COUNT>
0

> <PUBCHEM_BOND_DEF_STEREO_COUNT>
1

> <PUBCHEM_BOND_UDEF_STEREO_COUNT>
0

> <PUBCHEM_ISOTOPIC_ATOM_COUNT>
0

> <PUBCHEM_COMPONENT_COUNT>
1

> <PUBCHEM_CACTVS_TAUTO_COUNT>
3

> <PUBCHEM_CONFORMER_ID>
00B0684A0000000F

> <PUBCHEM_MMFF94_ENERGY>
27.5874

> <PUBCHEM_FEATURE_SELFOVERLAP>
102.142

> <PUBCHEM_SHAPE_FINGERPRINT>
1100329 8 5006442510059846596
11070050 100 17750818570424956152
11445158 3 17701826479279488397
114674 6 18339928220268994442
11796584 16 17346607370011884545
12596602 18 17313381176418168123
13140716 1 18192441774770697316
13402501 40 18343019995273549890
14790565 3 18052251795803294692
14863182 85 18341330016253456388
17909252 39 18266730458136976322
17913733 40 18260832561917312435
1979834 28 18409727335481157155
20028762 73 18119533133290186479
21623969 137 18413389813023953457
21781051 124 18343298155479364002
23559900 14 18129101297832522237
25222932 49 17632306622518618826
3117164 225 17900250103438093601
3178227 256 18408604752127733184
3737641 26 18336259153881849231
460360 51 18192416679614241189
465052 167 17703791366719474721
5047190 48 17909543965567486433
5104073 3 18265055902086110057
653340 110 17758408365678800250

> <PUBCHEM_SHAPE_MULTIPOLES>
528.8
11.95
4.88
1.54
14.05
4.58
0.84
2.86
5.36
-5.32
-0.77
1.17
0.3
2.97

> <PUBCHEM_SHAPE_SELFOVERLAP>
1102

> <PUBCHEM_SHAPE_VOLUME>
303.1

> <PUBCHEM_COORDINATE_TYPE>
2
5
10

$$$$

