656547
  -OEChem-07051212553D

 38 38  0     1  0  0  0  0  0999 V2000
    0.1641   -2.4239   -0.0827 S   0  0  0  0  0  0  0  0  0  0  0  0
   -3.5467    1.0265    0.9672 S   0  0  0  0  0  0  0  0  0  0  0  0
    0.9865    0.0391   -0.7156 O   0  0  0  0  0  0  0  0  0  0  0  0
    4.8364   -0.4114    0.6496 O   0  0  0  0  0  0  0  0  0  0  0  0
    3.7861    2.2610    0.0705 O   0  0  0  0  0  0  0  0  0  0  0  0
    2.7561   -2.1443    1.6452 O   0  0  0  0  0  0  0  0  0  0  0  0
   -0.0941    2.4049   -1.5965 O   0  0  0  0  0  0  0  0  0  0  0  0
   -3.1110   -0.3074    0.1324 O   0  0  0  0  0  0  0  0  0  0  0  0
   -5.0172    1.3702    0.3533 O   0  0  0  0  0  0  0  0  0  0  0  0
   -2.6529    2.1092    0.6003 O   0  0  0  0  0  0  0  0  0  0  0  0
   -3.7275    0.6561    2.3584 O   0  0  0  0  0  0  0  0  0  0  0  0
   -1.7963   -0.6834    0.4216 N   0  0  0  0  0  0  0  0  0  0  0  0
    3.4605   -0.0359    0.7375 C   0  0  1  0  0  0  0  0  0  0  0  0
    3.1584    1.0389   -0.3075 C   0  0  1  0  0  0  0  0  0  0  0  0
    1.6494    1.2696   -0.4229 C   0  0  1  0  0  0  0  0  0  0  0  0
    2.6132   -1.2918    0.5096 C   0  0  2  0  0  0  0  0  0  0  0  0
    1.1366   -0.9282    0.3232 C   0  0  2  0  0  0  0  0  0  0  0  0
    1.3121    2.2496   -1.5421 C   0  0  0  0  0  0  0  0  0  0  0  0
   -1.4514   -1.7421   -0.2414 C   0  0  0  0  0  0  0  0  0  0  0  0
   -2.3308   -2.4913   -1.2242 C   0  0  0  0  0  0  0  0  0  0  0  0
   -2.1317   -1.9654   -2.6360 C   0  0  0  0  0  0  0  0  0  0  0  0
    3.3111    0.3608    1.7493 H   0  0  0  0  0  0  0  0  0  0  0  0
    3.5749    0.7358   -1.2764 H   0  0  0  0  0  0  0  0  0  0  0  0
    1.2442    1.6705    0.5163 H   0  0  0  0  0  0  0  0  0  0  0  0
    3.0047   -1.8269   -0.3657 H   0  0  0  0  0  0  0  0  0  0  0  0
    0.7319   -0.5282    1.2613 H   0  0  0  0  0  0  0  0  0  0  0  0
    1.6341    1.8615   -2.5138 H   0  0  0  0  0  0  0  0  0  0  0  0
    1.7697    3.2309   -1.3854 H   0  0  0  0  0  0  0  0  0  0  0  0
    4.9931   -1.1011    1.3172 H   0  0  0  0  0  0  0  0  0  0  0  0
    4.7373    2.0819    0.1654 H   0  0  0  0  0  0  0  0  0  0  0  0
    2.2020   -2.9283    1.4904 H   0  0  0  0  0  0  0  0  0  0  0  0
   -0.3848    2.7724   -0.7444 H   0  0  0  0  0  0  0  0  0  0  0  0
   -3.3833   -2.4021   -0.9370 H   0  0  0  0  0  0  0  0  0  0  0  0
   -2.0962   -3.5619   -1.1953 H   0  0  0  0  0  0  0  0  0  0  0  0
   -2.3616   -0.8961   -2.6925 H   0  0  0  0  0  0  0  0  0  0  0  0
   -1.0983   -2.1006   -2.9714 H   0  0  0  0  0  0  0  0  0  0  0  0
   -2.7875   -2.4940   -3.3345 H   0  0  0  0  0  0  0  0  0  0  0  0
   -5.6342    0.6043    0.2824 H   0  0  0  0  0  0  0  0  0  0  0  0
  1 17  1  0  0  0  0
  1 19  1  0  0  0  0
  2  8  1  0  0  0  0
  2  9  1  0  0  0  0
  2 10  2  0  0  0  0
  2 11  2  0  0  0  0
  3 15  1  0  0  0  0
  3 17  1  0  0  0  0
  4 13  1  0  0  0  0
  4 29  1  0  0  0  0
  5 14  1  0  0  0  0
  5 30  1  0  0  0  0
  6 16  1  0  0  0  0
  6 31  1  0  0  0  0
  7 18  1  0  0  0  0
  7 32  1  0  0  0  0
  8 12  1  0  0  0  0
  9 38  1  0  0  0  0
 12 19  2  0  0  0  0
 13 14  1  0  0  0  0
 13 16  1  0  0  0  0
 13 22  1  0  0  0  0
 14 15  1  0  0  0  0
 14 23  1  0  0  0  0
 15 18  1  0  0  0  0
 15 24  1  0  0  0  0
 16 17  1  0  0  0  0
 16 25  1  0  0  0  0
 17 26  1  0  0  0  0
 18 27  1  0  0  0  0
 18 28  1  0  0  0  0
 19 20  1  0  0  0  0
 20 21  1  0  0  0  0
 20 33  1  0  0  0  0
 20 34  1  0  0  0  0
 21 35  1  0  0  0  0
 21 36  1  0  0  0  0
 21 37  1  0  0  0  0
M  END
> <PUBCHEM_COMPOUND_CID>
656547

> <PUBCHEM_CONFORMER_RMSD>
0.8

> <PUBCHEM_CONFORMER_DIVERSEORDER>
1
21
58
48
12
9
57
31
45
38
52
53
49
29
42
28
6
7
60
46
40
44
39
34
47
23
55
14
5
3
36
16
50
10
13
26
54
20
56
32
51
24
27
8
35
33
41
17
59
37
43
30
4
11
22
25
19
18
2
15

> <PUBCHEM_MMFF94_PARTIAL_CHARGES>
25
1 -0.37
10 -0.65
11 -0.65
12 -0.51
13 0.28
14 0.28
15 0.28
16 0.28
17 0.51
18 0.28
19 0.53
2 1.67
20 0.06
29 0.4
3 -0.56
30 0.4
31 0.4
32 0.4
38 0.5
4 -0.68
5 -0.68
6 -0.68
7 -0.68
8 -0.12
9 -0.68

> <PUBCHEM_EFFECTIVE_ROTOR_COUNT>
7.2

> <PUBCHEM_PHARMACOPHORE_FEATURES>
16
1 10 acceptor
1 11 acceptor
1 12 acceptor
1 21 hydrophobe
1 3 acceptor
1 4 acceptor
1 4 donor
1 5 acceptor
1 5 donor
1 6 acceptor
1 6 donor
1 7 acceptor
1 7 donor
1 9 acceptor
4 2 9 10 11 anion
6 3 13 14 15 16 17 rings

> <PUBCHEM_HEAVY_ATOM_COUNT>
21

> <PUBCHEM_ATOM_DEF_STEREO_COUNT>
5

> <PUBCHEM_ATOM_UDEF_STEREO_COUNT>
0

> <PUBCHEM_BOND_DEF_STEREO_COUNT>
0

> <PUBCHEM_BOND_UDEF_STEREO_COUNT>
1

> <PUBCHEM_ISOTOPIC_ATOM_COUNT>
0

> <PUBCHEM_COMPONENT_COUNT>
1

> <PUBCHEM_CACTVS_TAUTO_COUNT>
1

> <PUBCHEM_CONFORMER_ID>
000A04A300000001

> <PUBCHEM_MMFF94_ENERGY>
37.0809

> <PUBCHEM_FEATURE_SELFOVERLAP>
81.267

> <PUBCHEM_SHAPE_FINGERPRINT>
10382601 240 18201719544506874450
11086676 242 18130791204592253224
11582403 64 14059293101018124618
11640471 11 18261104175627934475
12553582 1 18059587914120592066
12633257 1 18261118482417283000
12788726 201 17970350304806843023
13583140 156 17846776334631150539
14178342 30 18126290731727636658
14251764 3 15357701881158683975
14464042 87 18189622631721266359
14790565 3 17700115609808206292
15209294 21 18335144155050533432
1741750 31 17749380482077644787
18219364 16 17345486876746064295
192875 21 18120670032106769879
20261772 1 18341330071655540080
20600515 1 17312811685008236912
20715895 44 18051412074711762137
20739085 24 17846213333328291780
21197605 99 17838062855622243397
21524375 3 18186798123656665635
23184049 59 18341609373194020314
23419403 2 16816932979925339338
23557571 272 17168430359368312135
23558518 356 18125436406481415602
23559900 14 17385994097159090958
23598288 3 18115871806872393727
23598291 2 18338519638409901950
2748010 2 17329724626222316790
4409770 3 15527408602236202999
474 4 18058731273765120568
6438718 38 17968091971935885247
6992083 37 18413109446148831159
7064713 232 18261956353048090209
7164475 11 18114468842656490063
7471813 234 17754759133735517223
7615 1 18263943080280823818
7832392 63 18410008814953268846

> <PUBCHEM_SHAPE_MULTIPOLES>
382.06
7.96
3.16
1.76
0.73
0.15
-0.47
-2.89
3.03
0.85
-0.97
1.16
0.16
-2.69

> <PUBCHEM_SHAPE_SELFOVERLAP>
734.973

> <PUBCHEM_SHAPE_VOLUME>
233.6

> <PUBCHEM_COORDINATE_TYPE>
2
5
10

$$$$

