440256
  -OEChem-07051212492D

 31 31  0     1  0  0  0  0  0999 V2000
    5.1350    3.1900    0.0000 S   0  0  0  0  0  0  0  0  0  0  0  0
    2.5369   -3.3100    0.0000 O   0  0  0  0  0  0  0  0  0  0  0  0
    4.2690    2.6900    0.0000 O   0  0  0  0  0  0  0  0  0  0  0  0
    4.2690   -3.3100    0.0000 O   0  0  0  0  0  0  0  0  0  0  0  0
    6.0010    3.6900    0.0000 O   0  0  0  0  0  0  0  0  0  0  0  0
    4.6350    4.0560    0.0000 O   0  0  0  0  0  0  0  0  0  0  0  0
    5.6350    2.3240    0.0000 O   0  0  0  0  0  0  0  0  0  0  0  0
    2.5369   -1.3100    0.0000 N   0  0  0  0  0  0  0  0  0  0  0  0
    4.2690   -1.3100    0.0000 C   0  0  0  0  0  0  0  0  0  0  0  0
    3.4030   -1.8100    0.0000 C   0  0  1  0  0  0  0  0  0  0  0  0
    4.2690   -0.3100    0.0000 C   0  0  0  0  0  0  0  0  0  0  0  0
    5.1350    0.1900    0.0000 C   0  0  0  0  0  0  0  0  0  0  0  0
    3.4030    0.1900    0.0000 C   0  0  0  0  0  0  0  0  0  0  0  0
    3.4030   -2.8100    0.0000 C   0  0  0  0  0  0  0  0  0  0  0  0
    5.1350    1.1900    0.0000 C   0  0  0  0  0  0  0  0  0  0  0  0
    3.4030    1.1900    0.0000 C   0  0  0  0  0  0  0  0  0  0  0  0
    4.2690    1.6900    0.0000 C   0  0  0  0  0  0  0  0  0  0  0  0
    2.5369   -4.3100    0.0000 C   0  0  0  0  0  0  0  0  0  0  0  0
    4.4810   -1.8926    0.0000 H   0  0  0  0  0  0  0  0  0  0  0  0
    4.8796   -1.2023    0.0000 H   0  0  0  0  0  0  0  0  0  0  0  0
    3.4030   -1.1900    0.0000 H   0  0  0  0  0  0  0  0  0  0  0  0
    5.6720   -0.1200    0.0000 H   0  0  0  0  0  0  0  0  0  0  0  0
    2.8660   -0.1200    0.0000 H   0  0  0  0  0  0  0  0  0  0  0  0
    5.6720    1.5000    0.0000 H   0  0  0  0  0  0  0  0  0  0  0  0
    2.8660    1.5000    0.0000 H   0  0  0  0  0  0  0  0  0  0  0  0
    2.0000   -1.6200    0.0000 H   0  0  0  0  0  0  0  0  0  0  0  0
    2.5369   -0.6900    0.0000 H   0  0  0  0  0  0  0  0  0  0  0  0
    1.9169   -4.3100    0.0000 H   0  0  0  0  0  0  0  0  0  0  0  0
    2.5369   -4.9300    0.0000 H   0  0  0  0  0  0  0  0  0  0  0  0
    3.1569   -4.3100    0.0000 H   0  0  0  0  0  0  0  0  0  0  0  0
    6.0010    4.3100    0.0000 H   0  0  0  0  0  0  0  0  0  0  0  0
  1  3  1  0  0  0  0
  1  5  1  0  0  0  0
  1  6  2  0  0  0  0
  1  7  2  0  0  0  0
  2 14  1  0  0  0  0
  2 18  1  0  0  0  0
  3 17  1  0  0  0  0
  4 14  2  0  0  0  0
  5 31  1  0  0  0  0
 10  8  1  1  0  0  0
  8 26  1  0  0  0  0
  8 27  1  0  0  0  0
  9 10  1  0  0  0  0
  9 11  1  0  0  0  0
  9 19  1  0  0  0  0
  9 20  1  0  0  0  0
 10 14  1  0  0  0  0
 10 21  1  0  0  0  0
 11 12  2  0  0  0  0
 11 13  1  0  0  0  0
 12 15  1  0  0  0  0
 12 22  1  0  0  0  0
 13 16  2  0  0  0  0
 13 23  1  0  0  0  0
 15 17  2  0  0  0  0
 15 24  1  0  0  0  0
 16 17  1  0  0  0  0
 16 25  1  0  0  0  0
 18 28  1  0  0  0  0
 18 29  1  0  0  0  0
 18 30  1  0  0  0  0
M  END
> <PUBCHEM_COMPOUND_CID>
440256

> <PUBCHEM_COMPOUND_CANONICALIZED>
1

> <PUBCHEM_CACTVS_COMPLEXITY>
368

> <PUBCHEM_CACTVS_HBOND_ACCEPTOR>
7

> <PUBCHEM_CACTVS_HBOND_DONOR>
2

> <PUBCHEM_CACTVS_ROTATABLE_BOND>
6

> <PUBCHEM_CACTVS_SUBSKEYS>
AAADccByOABAAAAAAAAAAAAAAAAAAAAAAAAwAAAAAAAAAAABAAAAHgAQCAAADCzBmAYyDoBABICIAiDSCDACAAAgIAAIiIGGCIgKJjKAkROBMAAk0BEIiAeYyKCOIAAAAAAAAABAAAAAAAAAAAAAAAAAAA==

> <PUBCHEM_IUPAC_OPENEYE_NAME>
methyl (2S)-2-amino-3-(4-sulfooxyphenyl)propanoate

> <PUBCHEM_IUPAC_CAS_NAME>
(2S)-2-amino-3-(4-sulfooxyphenyl)propanoic acid methyl ester

> <PUBCHEM_IUPAC_NAME>
methyl (2S)-2-amino-3-(4-sulfooxyphenyl)propanoate

> <PUBCHEM_IUPAC_SYSTEMATIC_NAME>
methyl (2S)-2-azanyl-3-(4-sulfooxyphenyl)propanoate

> <PUBCHEM_IUPAC_TRADITIONAL_NAME>
(2S)-2-amino-3-(4-sulfoxyphenyl)propionic acid methyl ester

> <PUBCHEM_IUPAC_INCHI>
InChI=1S/C10H13NO6S/c1-16-10(12)9(11)6-7-2-4-8(5-3-7)17-18(13,14)15/h2-5,9H,6,11H2,1H3,(H,13,14,15)/t9-/m0/s1

> <PUBCHEM_IUPAC_INCHIKEY>
VBDFIILFQPTRLI-VIFPVBQESA-N

> <PUBCHEM_XLOGP3_AA>
-2

> <PUBCHEM_EXACT_MASS>
275.046358

> <PUBCHEM_MOLECULAR_FORMULA>
C10H13NO6S

> <PUBCHEM_MOLECULAR_WEIGHT>
275.27832

> <PUBCHEM_OPENEYE_CAN_SMILES>
COC(=O)C(CC1=CC=C(C=C1)OS(=O)(=O)O)N

> <PUBCHEM_OPENEYE_ISO_SMILES>
COC(=O)[C@H](CC1=CC=C(C=C1)OS(=O)(=O)O)N

> <PUBCHEM_CACTVS_TPSA>
124

> <PUBCHEM_MONOISOTOPIC_WEIGHT>
275.046358

> <PUBCHEM_TOTAL_CHARGE>
0

> <PUBCHEM_HEAVY_ATOM_COUNT>
18

> <PUBCHEM_ATOM_DEF_STEREO_COUNT>
1

> <PUBCHEM_ATOM_UDEF_STEREO_COUNT>
0

> <PUBCHEM_BOND_DEF_STEREO_COUNT>
0

> <PUBCHEM_BOND_UDEF_STEREO_COUNT>
0

> <PUBCHEM_ISOTOPIC_ATOM_COUNT>
0

> <PUBCHEM_COMPONENT_COUNT>
1

> <PUBCHEM_CACTVS_TAUTO_COUNT>
1

> <PUBCHEM_COORDINATE_TYPE>
1
5
255

> <PUBCHEM_BONDANNOTATIONS>
11  12  8
11  13  8
12  15  8
13  16  8
15  17  8
16  17  8
10  8  5

$$$$

