443720
  -OEChem-07051213033D

 48 52  0     0  0  0  0  0  0999 V2000
    5.4402    1.7972    0.0152 O   0  0  0  0  0  0  0  0  0  0  0  0
    6.2686   -0.4636    0.0568 O   0  0  0  0  0  0  0  0  0  0  0  0
   -2.3136   -2.9462    0.1001 O   0  0  0  0  0  0  0  0  0  0  0  0
   -3.8564    2.3288    0.0011 O   0  0  0  0  0  0  0  0  0  0  0  0
   -5.6939    0.2990    0.0401 O   0  0  0  0  0  0  0  0  0  0  0  0
    0.2001    1.5053    0.0157 N   0  3  0  0  0  0  0  0  0  0  0  0
    0.7316    0.2649    0.0400 C   0  0  0  0  0  0  0  0  0  0  0  0
   -0.1683   -0.8387    0.0607 C   0  0  0  0  0  0  0  0  0  0  0  0
   -1.5838   -0.5961    0.0557 C   0  0  0  0  0  0  0  0  0  0  0  0
    2.1507    0.0847    0.0444 C   0  0  0  0  0  0  0  0  0  0  0  0
   -2.0418    0.7374    0.0300 C   0  0  0  0  0  0  0  0  0  0  0  0
    2.6669   -1.2441    0.0697 C   0  0  0  0  0  0  0  0  0  0  0  0
   -1.1100    1.7618    0.0102 C   0  0  0  0  0  0  0  0  0  0  0  0
    0.4032   -2.1265    0.0854 C   0  0  0  0  0  0  0  0  0  0  0  0
    1.7845   -2.3243    0.0899 C   0  0  0  0  0  0  0  0  0  0  0  0
    3.0843    1.1526    0.0252 C   0  0  0  0  0  0  0  0  0  0  0  0
   -2.5787   -1.6072    0.0752 C   0  0  0  0  0  0  0  0  0  0  0  0
   -3.4151    1.0343    0.0248 C   0  0  0  0  0  0  0  0  0  0  0  0
    4.0530   -1.4850    0.0750 C   0  0  0  0  0  0  0  0  0  0  0  0
    4.4378    0.8766    0.0314 C   0  0  0  0  0  0  0  0  0  0  0  0
    4.9096   -0.4078    0.0552 C   0  0  0  0  0  0  0  0  0  0  0  0
    0.9190    2.7784   -0.0161 C   0  0  0  0  0  0  0  0  0  0  0  0
   -4.3623    0.0158    0.0449 C   0  0  0  0  0  0  0  0  0  0  0  0
   -3.9439   -1.3062    0.0700 C   0  0  0  0  0  0  0  0  0  0  0  0
    6.5997    0.9397    0.0301 C   0  0  0  0  0  0  0  0  0  0  0  0
   -2.1891   -3.6028   -1.1583 C   0  0  0  0  0  0  0  0  0  0  0  0
   -4.0641    2.9135   -1.2803 C   0  0  0  0  0  0  0  0  0  0  0  0
   -6.3282    0.4585    1.3079 C   0  0  0  0  0  0  0  0  0  0  0  0
   -1.4376    2.7964    0.0009 H   0  0  0  0  0  0  0  0  0  0  0  0
   -0.1597   -3.0419    0.1646 H   0  0  0  0  0  0  0  0  0  0  0  0
    2.1607   -3.3456    0.1224 H   0  0  0  0  0  0  0  0  0  0  0  0
    2.9421    2.2096    0.0096 H   0  0  0  0  0  0  0  0  0  0  0  0
    4.4511   -2.4957    0.0941 H   0  0  0  0  0  0  0  0  0  0  0  0
    0.2537    3.6503   -0.0449 H   0  0  0  0  0  0  0  0  0  0  0  0
    1.4567    2.9009    0.9285 H   0  0  0  0  0  0  0  0  0  0  0  0
    1.4656    2.8491   -0.9609 H   0  0  0  0  0  0  0  0  0  0  0  0
   -4.6813   -2.1056    0.0866 H   0  0  0  0  0  0  0  0  0  0  0  0
    7.2000    1.1760    0.9161 H   0  0  0  0  0  0  0  0  0  0  0  0
    7.1982    1.1426   -0.8655 H   0  0  0  0  0  0  0  0  0  0  0  0
   -1.5939   -3.0193   -1.8686 H   0  0  0  0  0  0  0  0  0  0  0  0
   -3.1836   -3.7815   -1.5794 H   0  0  0  0  0  0  0  0  0  0  0  0
   -1.7042   -4.5701   -0.9994 H   0  0  0  0  0  0  0  0  0  0  0  0
   -4.3160    3.9681   -1.1385 H   0  0  0  0  0  0  0  0  0  0  0  0
   -4.8981    2.4232   -1.7922 H   0  0  0  0  0  0  0  0  0  0  0  0
   -3.1619    2.8514   -1.8971 H   0  0  0  0  0  0  0  0  0  0  0  0
   -6.2632   -0.4676    1.8878 H   0  0  0  0  0  0  0  0  0  0  0  0
   -7.3828    0.6908    1.1364 H   0  0  0  0  0  0  0  0  0  0  0  0
   -5.8742    1.2838    1.8655 H   0  0  0  0  0  0  0  0  0  0  0  0
  1 20  1  0  0  0  0
  1 25  1  0  0  0  0
  2 21  1  0  0  0  0
  2 25  1  0  0  0  0
  3 17  1  0  0  0  0
  3 26  1  0  0  0  0
  4 18  1  0  0  0  0
  4 27  1  0  0  0  0
  5 23  1  0  0  0  0
  5 28  1  0  0  0  0
  6  7  2  0  0  0  0
  6 13  1  0  0  0  0
  6 22  1  0  0  0  0
  7  8  1  0  0  0  0
  7 10  1  0  0  0  0
  8  9  2  0  0  0  0
  8 14  1  0  0  0  0
  9 11  1  0  0  0  0
  9 17  1  0  0  0  0
 10 12  1  0  0  0  0
 10 16  2  0  0  0  0
 11 13  2  0  0  0  0
 11 18  1  0  0  0  0
 12 15  1  0  0  0  0
 12 19  2  0  0  0  0
 13 29  1  0  0  0  0
 14 15  2  0  0  0  0
 14 30  1  0  0  0  0
 15 31  1  0  0  0  0
 16 20  1  0  0  0  0
 16 32  1  0  0  0  0
 17 24  2  0  0  0  0
 18 23  2  0  0  0  0
 19 21  1  0  0  0  0
 19 33  1  0  0  0  0
 20 21  2  0  0  0  0
 22 34  1  0  0  0  0
 22 35  1  0  0  0  0
 22 36  1  0  0  0  0
 23 24  1  0  0  0  0
 24 37  1  0  0  0  0
 25 38  1  0  0  0  0
 25 39  1  0  0  0  0
 26 40  1  0  0  0  0
 26 41  1  0  0  0  0
 26 42  1  0  0  0  0
 27 43  1  0  0  0  0
 27 44  1  0  0  0  0
 27 45  1  0  0  0  0
 28 46  1  0  0  0  0
 28 47  1  0  0  0  0
 28 48  1  0  0  0  0
M  CHG  1   6   1
M  END
> <PUBCHEM_COMPOUND_CID>
443720

> <PUBCHEM_CONFORMER_RMSD>
0.8

> <PUBCHEM_CONFORMER_DIVERSEORDER>
1
2

> <PUBCHEM_MMFF94_PARTIAL_CHARGES>
29
1 -0.36
13 0.21
14 -0.15
15 -0.15
16 -0.15
17 0.08
18 0.08
19 -0.15
2 -0.36
20 0.08
21 0.08
22 0.49
23 0.08
24 -0.15
25 0.56
26 0.28
27 0.28
28 0.28
29 0.15
3 -0.36
30 0.15
31 0.15
32 0.15
33 0.15
37 0.15
4 -0.36
5 -0.36
6 -0.21
7 0.36

> <PUBCHEM_EFFECTIVE_ROTOR_COUNT>
3.6

> <PUBCHEM_PHARMACOPHORE_FEATURES>
10
1 1 acceptor
1 2 acceptor
1 3 acceptor
1 4 acceptor
1 5 acceptor
5 1 2 20 21 25 rings
6 10 12 16 19 20 21 rings
6 6 7 8 9 11 13 rings
6 7 8 10 12 14 15 rings
6 9 11 17 18 23 24 rings

> <PUBCHEM_HEAVY_ATOM_COUNT>
28

> <PUBCHEM_ATOM_DEF_STEREO_COUNT>
0

> <PUBCHEM_ATOM_UDEF_STEREO_COUNT>
0

> <PUBCHEM_BOND_DEF_STEREO_COUNT>
0

> <PUBCHEM_BOND_UDEF_STEREO_COUNT>
0

> <PUBCHEM_ISOTOPIC_ATOM_COUNT>
0

> <PUBCHEM_COMPONENT_COUNT>
1

> <PUBCHEM_CACTVS_TAUTO_COUNT>
1

> <PUBCHEM_CONFORMER_ID>
0006C54800000001

> <PUBCHEM_MMFF94_ENERGY>
162.6816

> <PUBCHEM_FEATURE_SELFOVERLAP>
50.977

> <PUBCHEM_SHAPE_FINGERPRINT>
10 15 18201998811612191968
10290309 65 18338234976304070647
10411042 1 17834395614464907703
10616163 171 18409729521641005806
10675989 125 17331972023816375709
10906281 52 18188473740516676303
10967382 1 18410575119176051451
1100329 8 18337106752882730753
11112241 14 16373282164580567376
11578080 2 16843342313106473135
12236239 1 17894629257866803403
12788726 201 17313944254735377209
12838862 33 18338816562310019009
13140716 1 18194958544349382305
13402501 40 18411419518431325200
14765038 42 18187910816501974921
14790565 3 18265048209662564937
15042514 8 18268425738365103267
15131766 46 15623945202935951350
15196674 1 18411701015114727562
1601671 61 18408887330404603984
1813 80 17060614525132812996
18608769 82 18341327800161393707
19141452 34 18335419032683222599
19319366 153 18060419127067164266
19591789 44 18267024036552748323
20511986 3 18059027154204547296
20642791 178 18128244589364755116
21033648 29 18262815050360528593
21133410 171 17108532191413887846
21236236 1 18336548209465690591
21267235 1 18411973680665329162
21279426 13 18266741470717421068
21421861 104 17987527081614136914
23227448 37 18408324367234225006
23402539 116 18335988563011903174
23559900 14 18262244304846143136
3004659 81 18343581863665105320
3178227 256 18340752794382160529
335352 9 18410011009866082805
338550 245 18271240522043308700
34797466 226 17894904123268933212
34934 24 18410858754373937306
350125 39 18410572899326987889
3545911 37 18409728469658400128
3680242 22 18270402818910912666
4073 2 18059288765575069754
4093350 32 16878213272741612775
4214541 1 18411419518325862600
5104073 3 18200311164089440329

> <PUBCHEM_SHAPE_MULTIPOLES>
541.9
13.47
3.28
0.78
7.11
0.9
0.05
-4.19
-1.46
-2.11
0.88
-0.78
-0.02
0.1

> <PUBCHEM_SHAPE_SELFOVERLAP>
1232.73

> <PUBCHEM_SHAPE_VOLUME>
284.8

> <PUBCHEM_COORDINATE_TYPE>
2
5
10

$$$$

