46174061
  -OEChem-07051213112D

 80 84  0     1  0  0  0  0  0999 V2000
    6.2625   -0.1191    0.0000 Mg  0  2  0  0  0  0  0  0  0  0  0  0
    7.6606   -4.4966    0.0000 O   0  0  0  0  0  0  0  0  0  0  0  0
    9.9646   -3.6030    0.0000 O   0  0  0  0  0  0  0  0  0  0  0  0
   10.1702   -1.8832    0.0000 O   0  0  0  0  0  0  0  0  0  0  0  0
   12.6702   -0.9662    0.0000 O   0  0  0  0  0  0  0  0  0  0  0  0
   11.6275   -2.3492    0.0000 O   0  0  0  0  0  0  0  0  0  0  0  0
    4.1979    3.4700    0.0000 O   0  0  0  0  0  0  0  0  0  0  0  0
    6.3000   -1.4139    0.0000 N   0  5  0  0  0  0  0  0  0  0  0  0
    7.7490   -0.0924    0.0000 N   0  0  0  0  0  0  0  0  0  0  0  0
    6.2676    1.2290    0.0000 N   0  5  0  0  0  0  0  0  0  0  0  0
    4.8490   -0.0924    0.0000 N   0  0  0  0  0  0  0  0  0  0  0  0
    9.2320   -0.5432    0.0000 C   0  0  1  0  0  0  0  0  0  0  0  0
    9.2320    0.4228    0.0000 C   0  0  1  0  0  0  0  0  0  0  0  0
    8.3290   -0.8017    0.0000 C   0  0  0  0  0  0  0  0  0  0  0  0
    8.0399   -1.7355    0.0000 C   0  0  0  0  0  0  0  0  0  0  0  0
    7.0738   -1.9940    0.0000 C   0  0  0  0  0  0  0  0  0  0  0  0
    8.5780   -2.5650    0.0000 C   0  0  2  0  0  0  0  0  0  0  0  0
   10.0305   -1.1452    0.0000 C   0  0  0  0  0  0  0  0  0  0  0  0
    8.2966    0.6814    0.0000 C   0  0  0  0  0  0  0  0  0  0  0  0
    6.7830   -2.9278    0.0000 C   0  0  0  0  0  0  0  0  0  0  0  0
    7.5900   -3.4991    0.0000 C   0  0  0  0  0  0  0  0  0  0  0  0
   10.0278    1.0284    0.0000 C   0  0  0  0  0  0  0  0  0  0  0  0
    5.8167   -2.9278    0.0000 C   0  0  0  0  0  0  0  0  0  0  0  0
    5.5260   -2.0263    0.0000 C   0  0  0  0  0  0  0  0  0  0  0  0
    8.0074    1.5829    0.0000 C   0  0  0  0  0  0  0  0  0  0  0  0
   10.9511   -0.7547    0.0000 C   0  0  0  0  0  0  0  0  0  0  0  0
    7.0738    1.8737    0.0000 C   0  0  0  0  0  0  0  0  0  0  0  0
    9.5710   -2.6837    0.0000 C   0  0  0  0  0  0  0  0  0  0  0  0
    5.4937    1.8414    0.0000 C   0  0  0  0  0  0  0  0  0  0  0  0
    6.7506    2.7752    0.0000 C   0  0  0  0  0  0  0  0  0  0  0  0
    4.5922   -1.7355    0.0000 C   0  0  0  0  0  0  0  0  0  0  0  0
    5.2281   -3.7362    0.0000 C   0  0  0  0  0  0  0  0  0  0  0  0
    5.7845    2.7752    0.0000 C   0  0  0  0  0  0  0  0  0  0  0  0
    4.3015   -0.8340    0.0000 C   0  0  0  0  0  0  0  0  0  0  0  0
    3.3677    0.3906    0.0000 C   0  0  3  0  0  0  0  0  0  0  0  0
    4.3015    0.6490    0.0000 C   0  0  0  0  0  0  0  0  0  0  0  0
    4.5599    1.5829    0.0000 C   0  0  0  0  0  0  0  0  0  0  0  0
    3.3677   -0.5754    0.0000 C   0  0  0  0  0  0  0  0  0  0  0  0
   11.7496   -1.3567    0.0000 C   0  0  0  0  0  0  0  0  0  0  0  0
    7.3262    3.5929    0.0000 C   0  0  0  0  0  0  0  0  0  0  0  0
    5.1918    3.5806    0.0000 C   0  0  0  0  0  0  0  0  0  0  0  0
    2.5718    0.9961    0.0000 C   0  0  0  0  0  0  0  0  0  0  0  0
    2.5718   -1.1809    0.0000 C   0  0  0  0  0  0  0  0  0  0  0  0
   10.9576   -3.7217    0.0000 C   0  0  0  0  0  0  0  0  0  0  0  0
    5.5929    4.4966    0.0000 C   0  0  0  0  0  0  0  0  0  0  0  0
    2.6982   -2.1729    0.0000 C   0  0  0  0  0  0  0  0  0  0  0  0
    9.1188   -1.1528    0.0000 H   0  0  0  0  0  0  0  0  0  0  0  0
    9.1147    1.0316    0.0000 H   0  0  0  0  0  0  0  0  0  0  0  0
    8.9059   -2.0388    0.0000 H   0  0  0  0  0  0  0  0  0  0  0  0
    9.5770   -1.5679    0.0000 H   0  0  0  0  0  0  0  0  0  0  0  0
   10.3681   -1.6653    0.0000 H   0  0  0  0  0  0  0  0  0  0  0  0
   10.4032    0.5350    0.0000 H   0  0  0  0  0  0  0  0  0  0  0  0
   10.5212    1.4039    0.0000 H   0  0  0  0  0  0  0  0  0  0  0  0
    9.6523    1.5218    0.0000 H   0  0  0  0  0  0  0  0  0  0  0  0
    8.4440    2.0232    0.0000 H   0  0  0  0  0  0  0  0  0  0  0  0
   11.4046   -0.3320    0.0000 H   0  0  0  0  0  0  0  0  0  0  0  0
   10.6135   -0.2346    0.0000 H   0  0  0  0  0  0  0  0  0  0  0  0
    4.1560   -2.1761    0.0000 H   0  0  0  0  0  0  0  0  0  0  0  0
    4.7269   -3.3713    0.0000 H   0  0  0  0  0  0  0  0  0  0  0  0
    4.8632   -4.2374    0.0000 H   0  0  0  0  0  0  0  0  0  0  0  0
    5.7293   -4.1011    0.0000 H   0  0  0  0  0  0  0  0  0  0  0  0
    3.4849    0.9994    0.0000 H   0  0  0  0  0  0  0  0  0  0  0  0
    4.1215    2.0213    0.0000 H   0  0  0  0  0  0  0  0  0  0  0  0
    7.8332    3.2360    0.0000 H   0  0  0  0  0  0  0  0  0  0  0  0
    7.6831    4.0999    0.0000 H   0  0  0  0  0  0  0  0  0  0  0  0
    6.8192    3.9498    0.0000 H   0  0  0  0  0  0  0  0  0  0  0  0
    2.9472    1.4895    0.0000 H   0  0  0  0  0  0  0  0  0  0  0  0
    2.0784    1.3715    0.0000 H   0  0  0  0  0  0  0  0  0  0  0  0
    2.1964    0.5026    0.0000 H   0  0  0  0  0  0  0  0  0  0  0  0
    2.0000   -0.9413    0.0000 H   0  0  0  0  0  0  0  0  0  0  0  0
   10.8840   -4.3373    0.0000 H   0  0  0  0  0  0  0  0  0  0  0  0
   11.5732   -3.7953    0.0000 H   0  0  0  0  0  0  0  0  0  0  0  0
   11.0312   -3.1061    0.0000 H   0  0  0  0  0  0  0  0  0  0  0  0
    6.1609    4.2479    0.0000 H   0  0  0  0  0  0  0  0  0  0  0  0
    5.8417    5.0645    0.0000 H   0  0  0  0  0  0  0  0  0  0  0  0
    5.0250    4.7453    0.0000 H   0  0  0  0  0  0  0  0  0  0  0  0
   13.1653   -1.3394    0.0000 H   0  0  0  0  0  0  0  0  0  0  0  0
    2.0832   -2.2513    0.0000 H   0  0  0  0  0  0  0  0  0  0  0  0
    2.7766   -2.7879    0.0000 H   0  0  0  0  0  0  0  0  0  0  0  0
    3.3133   -2.0945    0.0000 H   0  0  0  0  0  0  0  0  0  0  0  0
  2 21  2  0  0  0  0
  3 28  1  0  0  0  0
  3 44  1  0  0  0  0
  4 28  2  0  0  0  0
  5 39  1  0  0  0  0
  5 77  1  0  0  0  0
  6 39  2  0  0  0  0
  7 41  2  0  0  0  0
  8 16  1  0  0  0  0
  8 24  1  0  0  0  0
  9 14  1  0  0  0  0
  9 19  2  0  0  0  0
 10 27  1  0  0  0  0
 10 29  1  0  0  0  0
 11 34  1  0  0  0  0
 11 36  2  0  0  0  0
 12 13  1  0  0  0  0
 12 14  1  0  0  0  0
 12 18  1  6  0  0  0
 12 47  1  0  0  0  0
 13 19  1  0  0  0  0
 13 22  1  1  0  0  0
 13 48  1  0  0  0  0
 14 15  2  0  0  0  0
 15 16  1  0  0  0  0
 15 17  1  0  0  0  0
 16 20  2  0  0  0  0
 17 21  1  0  0  0  0
 17 28  1  1  0  0  0
 17 49  1  0  0  0  0
 18 26  1  0  0  0  0
 18 50  1  0  0  0  0
 18 51  1  0  0  0  0
 19 25  1  0  0  0  0
 20 21  1  0  0  0  0
 20 23  1  0  0  0  0
 22 52  1  0  0  0  0
 22 53  1  0  0  0  0
 22 54  1  0  0  0  0
 23 24  2  0  0  0  0
 23 32  1  0  0  0  0
 24 31  1  0  0  0  0
 25 27  2  0  0  0  0
 25 55  1  0  0  0  0
 26 39  1  0  0  0  0
 26 56  1  0  0  0  0
 26 57  1  0  0  0  0
 27 30  1  0  0  0  0
 29 33  1  0  0  0  0
 29 37  2  0  0  0  0
 30 33  2  0  0  0  0
 30 40  1  0  0  0  0
 31 34  2  0  0  0  0
 31 58  1  0  0  0  0
 32 59  1  0  0  0  0
 32 60  1  0  0  0  0
 32 61  1  0  0  0  0
 33 41  1  0  0  0  0
 34 38  1  0  0  0  0
 35 36  1  0  0  0  0
 35 38  1  0  0  0  0
 35 42  1  0  0  0  0
 35 62  1  0  0  0  0
 36 37  1  0  0  0  0
 37 63  1  0  0  0  0
 38 43  2  0  0  0  0
 40 64  1  0  0  0  0
 40 65  1  0  0  0  0
 40 66  1  0  0  0  0
 41 45  1  0  0  0  0
 42 67  1  0  0  0  0
 42 68  1  0  0  0  0
 42 69  1  0  0  0  0
 43 46  1  0  0  0  0
 43 70  1  0  0  0  0
 44 71  1  0  0  0  0
 44 72  1  0  0  0  0
 44 73  1  0  0  0  0
 45 74  1  0  0  0  0
 45 75  1  0  0  0  0
 45 76  1  0  0  0  0
 46 78  1  0  0  0  0
 46 79  1  0  0  0  0
 46 80  1  0  0  0  0
M  CHG  3   1   2   8  -1  10  -1
M  END
> <PUBCHEM_COMPOUND_CID>
46174061

> <PUBCHEM_COMPOUND_CANONICALIZED>
1

> <PUBCHEM_CACTVS_COMPLEXITY>
1690

> <PUBCHEM_CACTVS_HBOND_ACCEPTOR>
10

> <PUBCHEM_CACTVS_HBOND_DONOR>
1

> <PUBCHEM_CACTVS_ROTATABLE_BOND>
6

> <PUBCHEM_CACTVS_SUBSKEYS>
AAADcfB/uAAAACAAAAAAAAAAAAAAAeIECBAAAAAAAAAWAACBgAAAHgAACAAADQyBngICiJIIFgCoA6TyTACCgCAlAiAAmCEwRNgIIH7IlZGEQYhk4ADIyUe82fOegAAAAAAAAAAAAAAAAAAAASAAAQAAAA==

> <PUBCHEM_IUPAC_INCHI>
InChI=1S/C35H36N4O6.Mg/c1-8-19-14(2)21-13-26-28(18(6)40)16(4)23(37-26)11-22-15(3)20(9-10-27(41)42)32(38-22)30-31(35(44)45-7)34(43)29-17(5)24(39-33(29)30)12-25(19)36-21;/h8,11-15,20,31H,9-10H2,1-7H3,(H3,36,37,38,39,40,41,42,43);/q;+2/p-2/b19-8-;/t14?,15-,20-,31+;/m0./s1

> <PUBCHEM_IUPAC_INCHIKEY>
PHSJREAVLQHRMS-QKPRITNQSA-L

> <PUBCHEM_EXACT_MASS>
630.232877

> <PUBCHEM_MOLECULAR_FORMULA>
C35H34MgN4O6

> <PUBCHEM_MOLECULAR_WEIGHT>
630.97266

> <PUBCHEM_OPENEYE_CAN_SMILES>
CC=C1C(C2=CC3=C(C(=C([N-]3)C=C4C(C(C(=N4)C5=C6C(=C(C(=CC1=N2)[N-]6)C)C(=O)C5C(=O)OC)CCC(=O)O)C)C)C(=O)C)C.[Mg+2]

> <PUBCHEM_OPENEYE_ISO_SMILES>
C/C=C\1/C(C2=CC3=C(C(=C([N-]3)C=C4[C@H]([C@@H](C(=N4)C5=C6C(=C(C(=CC1=N2)[N-]6)C)C(=O)[C@@H]5C(=O)OC)CCC(=O)O)C)C)C(=O)C)C.[Mg+2]

> <PUBCHEM_CACTVS_TPSA>
125

> <PUBCHEM_MONOISOTOPIC_WEIGHT>
630.232877

> <PUBCHEM_TOTAL_CHARGE>
0

> <PUBCHEM_HEAVY_ATOM_COUNT>
46

> <PUBCHEM_ATOM_DEF_STEREO_COUNT>
3

> <PUBCHEM_ATOM_UDEF_STEREO_COUNT>
1

> <PUBCHEM_BOND_DEF_STEREO_COUNT>
1

> <PUBCHEM_BOND_UDEF_STEREO_COUNT>
0

> <PUBCHEM_ISOTOPIC_ATOM_COUNT>
0

> <PUBCHEM_COMPONENT_COUNT>
2

> <PUBCHEM_CACTVS_TAUTO_COUNT>
176

> <PUBCHEM_NONSTANDARDBOND>
1  10  7
1  8  7

> <PUBCHEM_COORDINATE_TYPE>
1
5
255

> <PUBCHEM_BONDANNOTATIONS>
10  27  8
10  29  8
11  34  8
11  36  8
12  18  6
13  22  5
14  15  8
15  16  8
16  20  8
17  28  5
19  25  8
20  23  8
23  24  8
24  31  8
25  27  8
27  30  8
29  33  8
29  37  8
30  33  8
31  34  8
35  42  3
36  37  8
8  16  8
8  24  8
9  14  8
9  19  8

$$$$

