25092366
  -OEChem-07051212552D

 45 49  0     1  0  0  0  0  0999 V2000
    5.4390    0.6033    0.0000 O   0  0  0  0  0  0  0  0  0  0  0  0
    8.9116    2.0448    0.0000 O   0  0  0  0  0  0  0  0  0  0  0  0
    4.5112   -2.5349    0.0000 O   0  0  0  0  0  0  0  0  0  0  0  0
    2.6079    0.3380    0.0000 O   0  0  0  0  0  0  0  0  0  0  0  0
    2.6079   -1.3385    0.0000 O   0  0  0  0  0  0  0  0  0  0  0  0
    7.1256   -1.0003    0.0000 N   0  0  3  0  0  0  0  0  0  0  0  0
    6.2596    0.4997    0.0000 C   0  0  2  0  0  0  0  0  0  0  0  0
    7.1256   -0.0003    0.0000 C   0  0  1  0  0  0  0  0  0  0  0  0
    6.1461   -0.1038    0.0000 C   0  0  2  0  0  0  0  0  0  0  0  0
    6.5462   -0.7967    0.0000 C   0  0  0  0  0  0  0  0  0  0  0  0
    5.3935   -0.0003    0.0000 C   0  0  0  0  0  0  0  0  0  0  0  0
    8.0356    0.5066    0.0000 C   0  0  0  0  0  0  0  0  0  0  0  0
    6.2596   -1.5003    0.0000 C   0  0  0  0  0  0  0  0  0  0  0  0
    6.2435    1.5412    0.0000 C   0  0  0  0  0  0  0  0  0  0  0  0
    5.3935   -1.0003    0.0000 C   0  0  0  0  0  0  0  0  0  0  0  0
    8.0436    1.5482    0.0000 C   0  0  2  0  0  0  0  0  0  0  0  0
    7.1415    2.0690    0.0000 C   0  0  0  0  0  0  0  0  0  0  0  0
    4.4996    0.5344    0.0000 C   0  0  0  0  0  0  0  0  0  0  0  0
    4.4996   -1.5349    0.0000 C   0  0  0  0  0  0  0  0  0  0  0  0
    3.5935    0.0206    0.0000 C   0  0  0  0  0  0  0  0  0  0  0  0
    3.5935   -1.0211    0.0000 C   0  0  0  0  0  0  0  0  0  0  0  0
    8.9154    3.0448    0.0000 C   0  0  0  0  0  0  0  0  0  0  0  0
    2.0000   -0.5003    0.0000 C   0  0  0  0  0  0  0  0  0  0  0  0
    3.6510   -3.0448    0.0000 C   0  0  0  0  0  0  0  0  0  0  0  0
    7.8617   -0.4253    0.0000 H   0  0  0  0  0  0  0  0  0  0  0  0
    5.6543   -0.4813    0.0000 H   0  0  0  0  0  0  0  0  0  0  0  0
    5.9434   -0.9419    0.0000 H   0  0  0  0  0  0  0  0  0  0  0  0
    6.5147   -1.4159    0.0000 H   0  0  0  0  0  0  0  0  0  0  0  0
    8.2401   -0.0787    0.0000 H   0  0  0  0  0  0  0  0  0  0  0  0
    8.6472    0.6080    0.0000 H   0  0  0  0  0  0  0  0  0  0  0  0
    5.8610   -1.9752    0.0000 H   0  0  0  0  0  0  0  0  0  0  0  0
    6.6581   -1.9752    0.0000 H   0  0  0  0  0  0  0  0  0  0  0  0
    5.7030    1.8450    0.0000 H   0  0  0  0  0  0  0  0  0  0  0  0
    8.0448    2.1682    0.0000 H   0  0  0  0  0  0  0  0  0  0  0  0
    7.1391    2.6890    0.0000 H   0  0  0  0  0  0  0  0  0  0  0  0
    4.5068    1.1544    0.0000 H   0  0  0  0  0  0  0  0  0  0  0  0
    5.5995    1.2021    0.0000 H   0  0  0  0  0  0  0  0  0  0  0  0
    9.5354    3.0424    0.0000 H   0  0  0  0  0  0  0  0  0  0  0  0
    8.9178    3.6648    0.0000 H   0  0  0  0  0  0  0  0  0  0  0  0
    8.2954    3.0472    0.0000 H   0  0  0  0  0  0  0  0  0  0  0  0
    1.5391   -0.0855    0.0000 H   0  0  0  0  0  0  0  0  0  0  0  0
    1.5391   -0.9150    0.0000 H   0  0  0  0  0  0  0  0  0  0  0  0
    3.3348   -2.5115    0.0000 H   0  0  0  0  0  0  0  0  0  0  0  0
    3.1176   -3.3610    0.0000 H   0  0  0  0  0  0  0  0  0  0  0  0
    3.9672   -3.5782    0.0000 H   0  0  0  0  0  0  0  0  0  0  0  0
  9  1  1  6  0  0  0
  1 37  1  0  0  0  0
 16  2  1  6  0  0  0
  2 22  1  0  0  0  0
  3 19  1  0  0  0  0
  3 24  1  0  0  0  0
  4 20  1  0  0  0  0
  4 23  1  0  0  0  0
  5 21  1  0  0  0  0
  5 23  1  0  0  0  0
  6  8  1  0  0  0  0
  6 10  1  0  0  0  0
  6 13  1  0  0  0  0
  7  8  1  0  0  0  0
  7  9  1  0  0  0  0
  7 11  1  0  0  0  0
  7 14  1  1  0  0  0
  8 12  1  0  0  0  0
  8 25  1  6  0  0  0
  9 10  1  0  0  0  0
  9 26  1  0  0  0  0
 10 27  1  0  0  0  0
 10 28  1  0  0  0  0
 11 15  1  0  0  0  0
 11 18  2  0  0  0  0
 12 16  1  0  0  0  0
 12 29  1  0  0  0  0
 12 30  1  0  0  0  0
 13 15  1  0  0  0  0
 13 31  1  0  0  0  0
 13 32  1  0  0  0  0
 14 17  2  0  0  0  0
 14 33  1  0  0  0  0
 15 19  2  0  0  0  0
 16 17  1  0  0  0  0
 16 34  1  0  0  0  0
 17 35  1  0  0  0  0
 18 20  1  0  0  0  0
 18 36  1  0  0  0  0
 19 21  1  0  0  0  0
 20 21  2  0  0  0  0
 22 38  1  0  0  0  0
 22 39  1  0  0  0  0
 22 40  1  0  0  0  0
 23 41  1  0  0  0  0
 23 42  1  0  0  0  0
 24 43  1  0  0  0  0
 24 44  1  0  0  0  0
 24 45  1  0  0  0  0
M  END
> <PUBCHEM_COMPOUND_CID>
25092366

> <PUBCHEM_COMPOUND_CANONICALIZED>
1

> <PUBCHEM_CACTVS_COMPLEXITY>
542

> <PUBCHEM_CACTVS_HBOND_ACCEPTOR>
6

> <PUBCHEM_CACTVS_HBOND_DONOR>
1

> <PUBCHEM_CACTVS_ROTATABLE_BOND>
2

> <PUBCHEM_CACTVS_SUBSKEYS>
AAADceB6OAAAAAAAAAAAAAAAAAAAAWJAAAA8QIAABYAAAEixAAAAHgAACAAADjzhmAcyDoMABgCAAiBCAACCCAAgIAAIiAAOjIgfNyKEsRukcCpnwBWeqAew8P8PoAABCAAYQABAAAIQADCAAAAAAAAAAA==

> <PUBCHEM_IUPAC_INCHI>
InChI=1S/C18H21NO5/c1-21-10-3-4-18-12-6-13-17(24-9-23-13)16(22-2)11(12)7-19(8-15(18)20)14(18)5-10/h3-4,6,10,14-15,20H,5,7-9H2,1-2H3/t10-,14+,15-,18+/m0/s1

> <PUBCHEM_IUPAC_INCHIKEY>
QAHZAHIPKNLGAS-KZRPXEQKSA-N

> <PUBCHEM_XLOGP3_AA>
1.2

> <PUBCHEM_EXACT_MASS>
331.141973

> <PUBCHEM_MOLECULAR_FORMULA>
C18H21NO5

> <PUBCHEM_MOLECULAR_WEIGHT>
331.36304

> <PUBCHEM_OPENEYE_CAN_SMILES>
COC1CC2C3(C=C1)C(CN2CC4=C(C5=C(C=C34)OCO5)OC)O

> <PUBCHEM_OPENEYE_ISO_SMILES>
CO[C@@H]1C[C@@H]2[C@]3(C=C1)[C@H](CN2CC4=C(C5=C(C=C34)OCO5)OC)O

> <PUBCHEM_CACTVS_TPSA>
60.4

> <PUBCHEM_MONOISOTOPIC_WEIGHT>
331.141973

> <PUBCHEM_TOTAL_CHARGE>
0

> <PUBCHEM_HEAVY_ATOM_COUNT>
24

> <PUBCHEM_ATOM_DEF_STEREO_COUNT>
4

> <PUBCHEM_ATOM_UDEF_STEREO_COUNT>
0

> <PUBCHEM_BOND_DEF_STEREO_COUNT>
0

> <PUBCHEM_BOND_UDEF_STEREO_COUNT>
0

> <PUBCHEM_ISOTOPIC_ATOM_COUNT>
0

> <PUBCHEM_COMPONENT_COUNT>
1

> <PUBCHEM_CACTVS_TAUTO_COUNT>
1

> <PUBCHEM_COORDINATE_TYPE>
1
5
255

> <PUBCHEM_BONDANNOTATIONS>
9  1  6
11  15  8
11  18  8
15  19  8
18  20  8
19  21  8
16  2  6
20  21  8
7  14  5
8  25  6

$$$$

