178795
  -OEChem-07051213122D

 37 39  0     1  0  0  0  0  0999 V2000
   13.8613    0.5415    0.0000 Cl  0  0  0  0  0  0  0  0  0  0  0  0
    5.1350    0.5173    0.0000 O   0  0  0  0  0  0  0  0  0  0  0  0
    8.5991   -1.4827    0.0000 O   0  0  0  0  0  0  0  0  0  0  0  0
    2.5369    0.0173    0.0000 O   0  0  0  0  0  0  0  0  0  0  0  0
    3.4030    1.5173    0.0000 O   0  0  0  0  0  0  0  0  0  0  0  0
   10.3312   -1.4827    0.0000 N   0  0  0  0  0  0  0  0  0  0  0  0
   10.3312    0.5173    0.0000 N   0  0  0  0  0  0  0  0  0  0  0  0
    4.2690    0.0173    0.0000 C   0  0  3  0  0  0  0  0  0  0  0  0
    6.0010    0.0173    0.0000 C   0  0  0  0  0  0  0  0  0  0  0  0
    7.7331   -0.9827    0.0000 C   0  0  0  0  0  0  0  0  0  0  0  0
   11.1972   -0.9827    0.0000 C   0  0  0  0  0  0  0  0  0  0  0  0
   11.1972    0.0173    0.0000 C   0  0  0  0  0  0  0  0  0  0  0  0
    6.0010   -0.9827    0.0000 C   0  0  0  0  0  0  0  0  0  0  0  0
    6.8671    0.5173    0.0000 C   0  0  0  0  0  0  0  0  0  0  0  0
    6.8671   -1.4827    0.0000 C   0  0  0  0  0  0  0  0  0  0  0  0
    7.7331    0.0173    0.0000 C   0  0  0  0  0  0  0  0  0  0  0  0
    9.4651   -0.9827    0.0000 C   0  0  0  0  0  0  0  0  0  0  0  0
    4.2690   -0.9827    0.0000 C   0  0  0  0  0  0  0  0  0  0  0  0
   12.0911   -1.5173    0.0000 C   0  0  0  0  0  0  0  0  0  0  0  0
   12.0911    0.5520    0.0000 C   0  0  0  0  0  0  0  0  0  0  0  0
    9.4651    0.0173    0.0000 C   0  0  0  0  0  0  0  0  0  0  0  0
   12.9972   -1.0035    0.0000 C   0  0  0  0  0  0  0  0  0  0  0  0
   12.9972    0.0381    0.0000 C   0  0  0  0  0  0  0  0  0  0  0  0
    3.4030    0.5173    0.0000 C   0  0  0  0  0  0  0  0  0  0  0  0
    4.2690    0.6373    0.0000 H   0  0  0  0  0  0  0  0  0  0  0  0
    5.4641   -1.2927    0.0000 H   0  0  0  0  0  0  0  0  0  0  0  0
    6.8671    1.1373    0.0000 H   0  0  0  0  0  0  0  0  0  0  0  0
    6.8671   -2.1027    0.0000 H   0  0  0  0  0  0  0  0  0  0  0  0
    8.2700    0.3273    0.0000 H   0  0  0  0  0  0  0  0  0  0  0  0
    3.6490   -0.9827    0.0000 H   0  0  0  0  0  0  0  0  0  0  0  0
    4.2690   -1.6027    0.0000 H   0  0  0  0  0  0  0  0  0  0  0  0
    4.8890   -0.9827    0.0000 H   0  0  0  0  0  0  0  0  0  0  0  0
   12.0840   -2.1373    0.0000 H   0  0  0  0  0  0  0  0  0  0  0  0
   12.0840    1.1720    0.0000 H   0  0  0  0  0  0  0  0  0  0  0  0
    8.9282    0.3273    0.0000 H   0  0  0  0  0  0  0  0  0  0  0  0
   13.5329   -1.3156    0.0000 H   0  0  0  0  0  0  0  0  0  0  0  0
    2.0000    0.3273    0.0000 H   0  0  0  0  0  0  0  0  0  0  0  0
  1 23  1  0  0  0  0
  2  8  1  0  0  0  0
  2  9  1  0  0  0  0
  3 10  1  0  0  0  0
  3 17  1  0  0  0  0
  4 24  1  0  0  0  0
  4 37  1  0  0  0  0
  5 24  2  0  0  0  0
  6 11  2  0  0  0  0
  6 17  1  0  0  0  0
  7 12  2  0  0  0  0
  7 21  1  0  0  0  0
  8 18  1  0  0  0  0
  8 24  1  0  0  0  0
  8 25  1  0  0  0  0
  9 13  2  0  0  0  0
  9 14  1  0  0  0  0
 10 15  2  0  0  0  0
 10 16  1  0  0  0  0
 11 12  1  0  0  0  0
 11 19  1  0  0  0  0
 12 20  1  0  0  0  0
 13 15  1  0  0  0  0
 13 26  1  0  0  0  0
 14 16  2  0  0  0  0
 14 27  1  0  0  0  0
 15 28  1  0  0  0  0
 16 29  1  0  0  0  0
 17 21  2  0  0  0  0
 18 30  1  0  0  0  0
 18 31  1  0  0  0  0
 18 32  1  0  0  0  0
 19 22  2  0  0  0  0
 19 33  1  0  0  0  0
 20 23  2  0  0  0  0
 20 34  1  0  0  0  0
 21 35  1  0  0  0  0
 22 23  1  0  0  0  0
 22 36  1  0  0  0  0
M  END
> <PUBCHEM_COMPOUND_CID>
178795

> <PUBCHEM_COMPOUND_CANONICALIZED>
1

> <PUBCHEM_CACTVS_COMPLEXITY>
431

> <PUBCHEM_CACTVS_HBOND_ACCEPTOR>
6

> <PUBCHEM_CACTVS_HBOND_DONOR>
1

> <PUBCHEM_CACTVS_ROTATABLE_BOND>
5

> <PUBCHEM_CACTVS_SUBSKEYS>
AAADccB7OAAEAAAAAAAAAAAAAAAAAAAAAAA8YIAAAAAAAACx9AAAHgIACAAACB7hliY+zrIIFgCoATT3TAaCiCQxdyAI2CF/fpgPZuLFs5+feCjkwBHb6AfQQAAAAQBAAAIAACACAIAABAAAQAAAAAAAAA==

> <PUBCHEM_IUPAC_OPENEYE_NAME>
2-[4-(6-chloroquinoxalin-2-yl)oxyphenoxy]propanoic acid

> <PUBCHEM_IUPAC_CAS_NAME>
2-[4-[(6-chloro-2-quinoxalinyl)oxy]phenoxy]propanoic acid

> <PUBCHEM_IUPAC_NAME>
2-[4-(6-chloroquinoxalin-2-yl)oxyphenoxy]propanoic acid

> <PUBCHEM_IUPAC_SYSTEMATIC_NAME>
2-[4-(6-chloranylquinoxalin-2-yl)oxyphenoxy]propanoic acid

> <PUBCHEM_IUPAC_TRADITIONAL_NAME>
2-[4-(6-chloroquinoxalin-2-yl)oxyphenoxy]propionic acid

> <PUBCHEM_IUPAC_INCHI>
InChI=1S/C17H13ClN2O4/c1-10(17(21)22)23-12-3-5-13(6-4-12)24-16-9-19-15-8-11(18)2-7-14(15)20-16/h2-10H,1H3,(H,21,22)

> <PUBCHEM_IUPAC_INCHIKEY>
ABOOPXYCKNFDNJ-UHFFFAOYSA-N

> <PUBCHEM_XLOGP3>
3.6

> <PUBCHEM_EXACT_MASS>
344.056385

> <PUBCHEM_MOLECULAR_FORMULA>
C17H13ClN2O4

> <PUBCHEM_MOLECULAR_WEIGHT>
344.74912

> <PUBCHEM_OPENEYE_CAN_SMILES>
CC(C(=O)O)OC1=CC=C(C=C1)OC2=CN=C3C=C(C=CC3=N2)Cl

> <PUBCHEM_OPENEYE_ISO_SMILES>
CC(C(=O)O)OC1=CC=C(C=C1)OC2=CN=C3C=C(C=CC3=N2)Cl

> <PUBCHEM_CACTVS_TPSA>
81.5

> <PUBCHEM_MONOISOTOPIC_WEIGHT>
344.056385

> <PUBCHEM_TOTAL_CHARGE>
0

> <PUBCHEM_HEAVY_ATOM_COUNT>
24

> <PUBCHEM_ATOM_DEF_STEREO_COUNT>
0

> <PUBCHEM_ATOM_UDEF_STEREO_COUNT>
1

> <PUBCHEM_BOND_DEF_STEREO_COUNT>
0

> <PUBCHEM_BOND_UDEF_STEREO_COUNT>
0

> <PUBCHEM_ISOTOPIC_ATOM_COUNT>
0

> <PUBCHEM_COMPONENT_COUNT>
1

> <PUBCHEM_CACTVS_TAUTO_COUNT>
1

> <PUBCHEM_COORDINATE_TYPE>
1
5
255

> <PUBCHEM_BONDANNOTATIONS>
10  15  8
10  16  8
11  12  8
11  19  8
12  20  8
13  15  8
14  16  8
17  21  8
19  22  8
20  23  8
22  23  8
6  11  8
6  17  8
7  12  8
7  21  8
8  18  3
9  13  8
9  14  8

$$$$

