442638
  -OEChem-07051212583D

 32 33  0     1  0  0  0  0  0999 V2000
   -4.7117   -1.0875    0.3966 O   0  0  0  0  0  0  0  0  0  0  0  0
    1.5148    0.0668    0.0759 N   0  0  0  0  0  0  0  0  0  0  0  0
    0.7424    3.4010    0.3050 N   0  0  0  0  0  0  0  0  0  0  0  0
    1.3730   -1.3212   -0.3858 C   0  0  0  0  0  0  0  0  0  0  0  0
    2.8525    0.5939   -0.2286 C   0  0  0  0  0  0  0  0  0  0  0  0
    2.4146   -2.2297    0.2691 C   0  0  0  0  0  0  0  0  0  0  0  0
    3.9425   -0.2520    0.4316 C   0  0  0  0  0  0  0  0  0  0  0  0
    3.8295   -1.7169    0.0255 C   0  0  0  0  0  0  0  0  0  0  0  0
    0.4829    0.9130   -0.5228 C   0  0  1  0  0  0  0  0  0  0  0  0
   -0.9137    0.3749   -0.2754 C   0  0  0  0  0  0  0  0  0  0  0  0
    0.6280    2.3044   -0.0576 C   0  0  0  0  0  0  0  0  0  0  0  0
   -1.6878   -0.0053   -1.3553 C   0  0  0  0  0  0  0  0  0  0  0  0
   -1.3762    0.2790    1.0236 C   0  0  0  0  0  0  0  0  0  0  0  0
   -2.9721   -0.4998   -1.1279 C   0  0  0  0  0  0  0  0  0  0  0  0
   -2.6604   -0.2156    1.2510 C   0  0  0  0  0  0  0  0  0  0  0  0
   -3.4584   -0.6051    0.1752 C   0  0  0  0  0  0  0  0  0  0  0  0
    0.3998   -1.7470   -0.1205 H   0  0  0  0  0  0  0  0  0  0  0  0
    1.4708   -1.3828   -1.4780 H   0  0  0  0  0  0  0  0  0  0  0  0
    3.0240    0.6262   -1.3131 H   0  0  0  0  0  0  0  0  0  0  0  0
    2.9883    1.6115    0.1532 H   0  0  0  0  0  0  0  0  0  0  0  0
    2.3190   -3.2478   -0.1252 H   0  0  0  0  0  0  0  0  0  0  0  0
    2.2269   -2.2858    1.3490 H   0  0  0  0  0  0  0  0  0  0  0  0
    3.8630   -0.1679    1.5230 H   0  0  0  0  0  0  0  0  0  0  0  0
    4.9302    0.1325    0.1526 H   0  0  0  0  0  0  0  0  0  0  0  0
    4.5505   -2.3202    0.5878 H   0  0  0  0  0  0  0  0  0  0  0  0
    4.0793   -1.8225   -1.0373 H   0  0  0  0  0  0  0  0  0  0  0  0
    0.6453    0.9371   -1.6113 H   0  0  0  0  0  0  0  0  0  0  0  0
   -1.3211    0.0704   -2.3746 H   0  0  0  0  0  0  0  0  0  0  0  0
   -0.7659    0.5761    1.8716 H   0  0  0  0  0  0  0  0  0  0  0  0
   -3.5889   -0.8018   -1.9700 H   0  0  0  0  0  0  0  0  0  0  0  0
   -3.0273   -0.2931    2.2710 H   0  0  0  0  0  0  0  0  0  0  0  0
   -4.8833   -1.0910    1.3540 H   0  0  0  0  0  0  0  0  0  0  0  0
  1 16  1  0  0  0  0
  1 32  1  0  0  0  0
  2  4  1  0  0  0  0
  2  5  1  0  0  0  0
  2  9  1  0  0  0  0
  3 11  3  0  0  0  0
  4  6  1  0  0  0  0
  4 17  1  0  0  0  0
  4 18  1  0  0  0  0
  5  7  1  0  0  0  0
  5 19  1  0  0  0  0
  5 20  1  0  0  0  0
  6  8  1  0  0  0  0
  6 21  1  0  0  0  0
  6 22  1  0  0  0  0
  7  8  1  0  0  0  0
  7 23  1  0  0  0  0
  7 24  1  0  0  0  0
  8 25  1  0  0  0  0
  8 26  1  0  0  0  0
  9 10  1  0  0  0  0
  9 11  1  0  0  0  0
  9 27  1  0  0  0  0
 10 12  2  0  0  0  0
 10 13  1  0  0  0  0
 12 14  1  0  0  0  0
 12 28  1  0  0  0  0
 13 15  2  0  0  0  0
 13 29  1  0  0  0  0
 14 16  2  0  0  0  0
 14 30  1  0  0  0  0
 15 16  1  0  0  0  0
 15 31  1  0  0  0  0
M  END
> <PUBCHEM_COMPOUND_CID>
442638

> <PUBCHEM_CONFORMER_RMSD>
0.6

> <PUBCHEM_CONFORMER_DIVERSEORDER>
1
7
6
8
5
4
2
3

> <PUBCHEM_MMFF94_PARTIAL_CHARGES>
18
1 -0.53
10 -0.14
11 0.36
12 -0.15
13 -0.15
14 -0.15
15 -0.15
16 0.08
2 -0.81
28 0.15
29 0.15
3 -0.56
30 0.15
31 0.15
32 0.45
4 0.27
5 0.27
9 0.61

> <PUBCHEM_EFFECTIVE_ROTOR_COUNT>
3.2

> <PUBCHEM_PHARMACOPHORE_FEATURES>
5
1 1 donor
1 2 cation
1 3 acceptor
6 10 12 13 14 15 16 rings
6 2 4 5 6 7 8 rings

> <PUBCHEM_HEAVY_ATOM_COUNT>
16

> <PUBCHEM_ATOM_DEF_STEREO_COUNT>
0

> <PUBCHEM_ATOM_UDEF_STEREO_COUNT>
1

> <PUBCHEM_BOND_DEF_STEREO_COUNT>
0

> <PUBCHEM_BOND_UDEF_STEREO_COUNT>
0

> <PUBCHEM_ISOTOPIC_ATOM_COUNT>
0

> <PUBCHEM_COMPONENT_COUNT>
1

> <PUBCHEM_CACTVS_TAUTO_COUNT>
2

> <PUBCHEM_CONFORMER_ID>
0006C10E00000001

> <PUBCHEM_MMFF94_ENERGY>
29.5781

> <PUBCHEM_FEATURE_SELFOVERLAP>
25.371

> <PUBCHEM_SHAPE_FINGERPRINT>
10618630 7 18341330106189273790
108231 29 18343019991068084474
11543360 7 15482375513517785086
11578080 2 17388294266314787161
12032990 46 18412825819678556094
12202030 40 17488443201425845555
12236239 1 17749105569467785047
12553582 1 18335425668507928502
13296908 3 18342461494816459422
14251717 144 18412543184796976826
14252887 29 18187076278439033718
15375462 189 18259989257799467022
15375462 478 17894907447309733137
16945 1 18338241457403821933
1813 80 18187630440989328220
200 152 18412268362645473382
20201158 50 18060416932359468010
20361792 2 18334863839319204388
20645477 70 18200318702089411839
20871998 22 18261947569829186374
21061003 4 18412544318662899349
21296965 67 18411140268031337549
2255824 54 18191864526776020212
23388829 49 18260547818412492792
23402539 116 18270403914085465522
23526113 38 18057068953902162989
25610 137 18412825819905162604
2748010 2 18264784327151148980
3286 77 18271805675377989775
7364860 26 18266177236215720304
77492 1 17749105556640944485
81228 2 17980759655916602344
83771 10 18413106190553142558

> <PUBCHEM_SHAPE_MULTIPOLES>
313.44
7.05
2.35
1.04
1.16
1.83
0.05
-4.3
-0.8
-1.65
-0.21
0.78
-0.06
-0.01

> <PUBCHEM_SHAPE_SELFOVERLAP>
655.354

> <PUBCHEM_SHAPE_VOLUME>
176.2

> <PUBCHEM_COORDINATE_TYPE>
2
5
10

$$$$

