15942876
  -OEChem-07051212493D

 32 31  0     1  0  0  0  0  0999 V2000
    3.9325    0.8085   -0.0335 P   0  0  0  0  0  0  0  0  0  0  0  0
   -0.6719   -1.7224    1.4825 O   0  0  0  0  0  0  0  0  0  0  0  0
   -1.5868    0.1628   -1.5414 O   0  0  0  0  0  0  0  0  0  0  0  0
    1.3446   -2.6587   -0.2177 O   0  0  0  0  0  0  0  0  0  0  0  0
    2.8544   -0.3030   -0.5043 O   0  0  0  0  0  0  0  0  0  0  0  0
   -3.6790   -1.2104   -0.1633 O   0  0  0  0  0  0  0  0  0  0  0  0
   -4.7485    1.1841   -0.5148 O   0  0  0  0  0  0  0  0  0  0  0  0
    3.9645    0.6549    1.5760 O   0  0  0  0  0  0  0  0  0  0  0  0
    3.1381    2.1988   -0.2587 O   0  0  0  0  0  0  0  0  0  0  0  0
    5.2681    0.7244   -0.7128 O   0  0  0  0  0  0  0  0  0  0  0  0
   -0.7283   -1.4435    0.0845 C   0  0  1  0  0  0  0  0  0  0  0  0
   -1.5197   -0.1357   -0.1497 C   0  0  2  0  0  0  0  0  0  0  0  0
    0.7058   -1.4132   -0.4878 C   0  0  1  0  0  0  0  0  0  0  0  0
   -2.9507   -0.1365    0.4151 C   0  0  1  0  0  0  0  0  0  0  0  0
    1.5671   -0.2905    0.0912 C   0  0  0  0  0  0  0  0  0  0  0  0
   -3.7192    1.1584    0.1611 C   0  0  0  0  0  0  0  0  0  0  0  0
   -3.1711    2.4220    0.7735 C   0  0  0  0  0  0  0  0  0  0  0  0
   -1.2456   -2.2879   -0.3886 H   0  0  0  0  0  0  0  0  0  0  0  0
   -0.9934    0.6940    0.3327 H   0  0  0  0  0  0  0  0  0  0  0  0
    0.6722   -1.3143   -1.5785 H   0  0  0  0  0  0  0  0  0  0  0  0
   -2.9434   -0.2967    1.4981 H   0  0  0  0  0  0  0  0  0  0  0  0
    1.6852   -0.4243    1.1714 H   0  0  0  0  0  0  0  0  0  0  0  0
    1.1135    0.6848   -0.0988 H   0  0  0  0  0  0  0  0  0  0  0  0
   -1.5614   -1.9907    1.7675 H   0  0  0  0  0  0  0  0  0  0  0  0
   -1.9119   -0.6282   -2.0034 H   0  0  0  0  0  0  0  0  0  0  0  0
    1.3562   -2.7823    0.7469 H   0  0  0  0  0  0  0  0  0  0  0  0
   -3.7100   -1.0716   -1.1249 H   0  0  0  0  0  0  0  0  0  0  0  0
   -3.9288    3.2094    0.7284 H   0  0  0  0  0  0  0  0  0  0  0  0
   -2.2859    2.7470    0.2224 H   0  0  0  0  0  0  0  0  0  0  0  0
   -2.9202    2.2451    1.8224 H   0  0  0  0  0  0  0  0  0  0  0  0
    4.6062    1.1889    2.0910 H   0  0  0  0  0  0  0  0  0  0  0  0
    3.6166    3.0452   -0.1288 H   0  0  0  0  0  0  0  0  0  0  0  0
  1  5  1  0  0  0  0
  1  8  1  0  0  0  0
  1  9  1  0  0  0  0
  1 10  2  0  0  0  0
  2 11  1  0  0  0  0
  2 24  1  0  0  0  0
  3 12  1  0  0  0  0
  3 25  1  0  0  0  0
  4 13  1  0  0  0  0
  4 26  1  0  0  0  0
  5 15  1  0  0  0  0
  6 14  1  0  0  0  0
  6 27  1  0  0  0  0
  7 16  2  0  0  0  0
  8 31  1  0  0  0  0
  9 32  1  0  0  0  0
 11 12  1  0  0  0  0
 11 13  1  0  0  0  0
 11 18  1  0  0  0  0
 12 14  1  0  0  0  0
 12 19  1  0  0  0  0
 13 15  1  0  0  0  0
 13 20  1  0  0  0  0
 14 16  1  0  0  0  0
 14 21  1  0  0  0  0
 15 22  1  0  0  0  0
 15 23  1  0  0  0  0
 16 17  1  0  0  0  0
 17 28  1  0  0  0  0
 17 29  1  0  0  0  0
 17 30  1  0  0  0  0
M  END
> <PUBCHEM_COMPOUND_CID>
15942876

> <PUBCHEM_CONFORMER_RMSD>
0.8

> <PUBCHEM_CONFORMER_DIVERSEORDER>
1
144
87
57
30
73
41
67
138
149
5
79
22
4
106
20
65
147
80
121
48
71
96
55
24
110
60
46
45
103
122
58
142
6
50
152
98
3
35
117
124
84
150
93
42
77
136
116
127
143
111
15
120
148
31
133
104
49
128
108
64
85
21
7
37
119
19
54
123
112
17
139
52
39
11
91
59
113
83
97
95
151
10
102
62
92
130
12
81
25
69
40
34
101
132
43
135
36
13
89
126
51
63
141
114
137
75
90
2
76
140
99
53
26
129
78
125
56
118
109
9
27
38
145
16
66
107
18
61
32
146
28
131
88
14
105
100
29
33
23
94
68
115
70
134
44
72
8
82
47
86
74

> <PUBCHEM_MMFF94_PARTIAL_CHARGES>
23
1 1.51
10 -0.7
11 0.28
12 0.28
13 0.28
14 0.34
15 0.28
16 0.45
17 0.06
2 -0.68
24 0.4
25 0.4
26 0.4
27 0.4
3 -0.68
31 0.5
32 0.5
4 -0.68
5 -0.55
6 -0.68
7 -0.57
8 -0.77
9 -0.77

> <PUBCHEM_EFFECTIVE_ROTOR_COUNT>
7

> <PUBCHEM_PHARMACOPHORE_FEATURES>
13
1 10 acceptor
1 2 acceptor
1 2 donor
1 3 acceptor
1 3 donor
1 4 acceptor
1 4 donor
1 6 acceptor
1 6 donor
1 7 acceptor
1 8 acceptor
1 9 acceptor
4 1 8 9 10 anion

> <PUBCHEM_HEAVY_ATOM_COUNT>
17

> <PUBCHEM_ATOM_DEF_STEREO_COUNT>
4

> <PUBCHEM_ATOM_UDEF_STEREO_COUNT>
0

> <PUBCHEM_BOND_DEF_STEREO_COUNT>
0

> <PUBCHEM_BOND_UDEF_STEREO_COUNT>
0

> <PUBCHEM_ISOTOPIC_ATOM_COUNT>
0

> <PUBCHEM_COMPONENT_COUNT>
1

> <PUBCHEM_CACTVS_TAUTO_COUNT>
11

> <PUBCHEM_CONFORMER_ID>
00F344DC00000001

> <PUBCHEM_MMFF94_ENERGY>
-2.7979

> <PUBCHEM_FEATURE_SELFOVERLAP>
66.026

> <PUBCHEM_SHAPE_FINGERPRINT>
11046707 91 9151174246573545105
11132069 177 18131347531595315045
11543360 7 16588032307280398341
11715629 250 18337391651217141789
12006461 19 10087629395283082317
122479 349 18342454803315408434
12346645 44 18411417340935627639
12596602 18 16988837259384289088
12633257 1 17632025195218850392
14123255 352 18341894090945178324
14123255 52 18333734619439578046
14123260 362 18335413573626860641
14252887 29 12823301208589674864
15209294 21 18343582966627811613
17834072 32 18411696560901851872
18186145 218 17895461592490533218
200 152 5617262520137316996
20281407 28 9079123262653958966
20281475 54 8646775499292430970
20871999 31 5328466969012505643
21524375 3 18342460322311577422
23402539 116 18334019367476793596
23403322 49 8358268029062292628
23500284 214 18343014488993380162
23557571 272 18262508209169447159
23559900 14 18336541707555085070
4028521 119 17821728346868762088
449060 50 18340200882262437815
474 4 18412823603132481444
76465 3 10015567386256339497
84936 182 18188772889051740906
90316 7 16917354714227397509

> <PUBCHEM_SHAPE_MULTIPOLES>
300.88
9.45
2.32
1.04
3.95
0.01
-0.17
-6.02
0.39
-0.35
-0.28
0.2
0
-0.09

> <PUBCHEM_SHAPE_SELFOVERLAP>
566.992

> <PUBCHEM_SHAPE_VOLUME>
187.2

> <PUBCHEM_COORDINATE_TYPE>
2
5
10

$$$$

