9925873
  -OEChem-07051213092D

 40 44  0     1  0  0  0  0  0999 V2000
    2.2314   -0.1372    0.0000 O   0  0  0  0  0  0  0  0  0  0  0  0
    2.0000   -2.5922    0.0000 O   0  0  0  0  0  0  0  0  0  0  0  0
    2.0000    2.2122    0.0000 O   0  0  0  0  0  0  0  0  0  0  0  0
    6.1607   -1.1411    0.0000 N   0  0  0  0  0  0  0  0  0  0  0  0
    3.6897   -0.6655    0.0000 C   0  0  2  0  0  0  0  0  0  0  0  0
    4.5133   -1.1411    0.0000 C   0  0  2  0  0  0  0  0  0  0  0  0
    2.8660   -1.1411    0.0000 C   0  0  2  0  0  0  0  0  0  0  0  0
    5.3370   -0.6655    0.0000 C   0  0  1  0  0  0  0  0  0  0  0  0
    3.6897    0.2855    0.0000 C   0  0  0  0  0  0  0  0  0  0  0  0
    4.2392    0.0319    0.0000 C   0  0  0  0  0  0  0  0  0  0  0  0
    5.3370    0.2855    0.0000 C   0  0  0  0  0  0  0  0  0  0  0  0
    4.5133    0.7611    0.0000 C   0  0  0  0  0  0  0  0  0  0  0  0
    5.5918    0.0319    0.0000 C   0  0  0  0  0  0  0  0  0  0  0  0
    2.8660   -2.0922    0.0000 C   0  0  2  0  0  0  0  0  0  0  0  0
    4.5133   -2.0922    0.0000 C   0  0  0  0  0  0  0  0  0  0  0  0
    2.8660    0.7611    0.0000 C   0  0  0  0  0  0  0  0  0  0  0  0
    3.6897   -2.5677    0.0000 C   0  0  0  0  0  0  0  0  0  0  0  0
    4.5133    1.7122    0.0000 C   0  0  0  0  0  0  0  0  0  0  0  0
    2.8660    1.7122    0.0000 C   0  0  0  0  0  0  0  0  0  0  0  0
    3.6897    2.1877    0.0000 C   0  0  0  0  0  0  0  0  0  0  0  0
    2.0000    3.2122    0.0000 C   0  0  0  0  0  0  0  0  0  0  0  0
    5.0597   -1.7922    0.0000 H   0  0  0  0  0  0  0  0  0  0  0  0
    2.0496   -1.3775    0.0000 H   0  0  0  0  0  0  0  0  0  0  0  0
    5.6284   -1.4640    0.0000 H   0  0  0  0  0  0  0  0  0  0  0  0
    4.3760    0.6366    0.0000 H   0  0  0  0  0  0  0  0  0  0  0  0
    3.6795    0.2987    0.0000 H   0  0  0  0  0  0  0  0  0  0  0  0
    5.9476    0.1779    0.0000 H   0  0  0  0  0  0  0  0  0  0  0  0
    5.5490    0.8681    0.0000 H   0  0  0  0  0  0  0  0  0  0  0  0
    6.1840    0.2157    0.0000 H   0  0  0  0  0  0  0  0  0  0  0  0
    5.4989    0.6449    0.0000 H   0  0  0  0  0  0  0  0  0  0  0  0
    2.8660   -2.7122    0.0000 H   0  0  0  0  0  0  0  0  0  0  0  0
    6.5830   -1.5950    0.0000 H   0  0  0  0  0  0  0  0  0  0  0  0
    5.0503   -2.4021    0.0000 H   0  0  0  0  0  0  0  0  0  0  0  0
    3.6897   -3.1877    0.0000 H   0  0  0  0  0  0  0  0  0  0  0  0
    5.0503    2.0222    0.0000 H   0  0  0  0  0  0  0  0  0  0  0  0
    3.6897    2.8077    0.0000 H   0  0  0  0  0  0  0  0  0  0  0  0
    2.0000   -3.2122    0.0000 H   0  0  0  0  0  0  0  0  0  0  0  0
    2.6200    3.2122    0.0000 H   0  0  0  0  0  0  0  0  0  0  0  0
    2.0000    3.8322    0.0000 H   0  0  0  0  0  0  0  0  0  0  0  0
    1.3800    3.2122    0.0000 H   0  0  0  0  0  0  0  0  0  0  0  0
  1  7  1  0  0  0  0
  1 16  1  0  0  0  0
 14  2  1  6  0  0  0
  2 37  1  0  0  0  0
  3 19  1  0  0  0  0
  3 21  1  0  0  0  0
  4  8  1  0  0  0  0
  4 13  1  0  0  0  0
  4 32  1  0  0  0  0
  5  6  1  0  0  0  0
  5  7  1  0  0  0  0
  5  9  1  0  0  0  0
  5 10  1  1  0  0  0
  6  8  1  0  0  0  0
  6 15  1  0  0  0  0
  6 22  1  1  0  0  0
  7 14  1  0  0  0  0
  7 23  1  1  0  0  0
  8 11  1  0  0  0  0
  8 24  1  6  0  0  0
  9 12  2  0  0  0  0
  9 16  1  0  0  0  0
 10 13  1  0  0  0  0
 10 25  1  0  0  0  0
 10 26  1  0  0  0  0
 11 12  1  0  0  0  0
 11 27  1  0  0  0  0
 11 28  1  0  0  0  0
 12 18  1  0  0  0  0
 13 29  1  0  0  0  0
 13 30  1  0  0  0  0
 14 17  1  0  0  0  0
 14 31  1  0  0  0  0
 15 17  2  0  0  0  0
 15 33  1  0  0  0  0
 16 19  2  0  0  0  0
 17 34  1  0  0  0  0
 18 20  2  0  0  0  0
 18 35  1  0  0  0  0
 19 20  1  0  0  0  0
 20 36  1  0  0  0  0
 21 38  1  0  0  0  0
 21 39  1  0  0  0  0
 21 40  1  0  0  0  0
M  END
> <PUBCHEM_COMPOUND_CID>
9925873

> <PUBCHEM_COMPOUND_CANONICALIZED>
1

> <PUBCHEM_CACTVS_COMPLEXITY>
481

> <PUBCHEM_CACTVS_HBOND_ACCEPTOR>
4

> <PUBCHEM_CACTVS_HBOND_DONOR>
2

> <PUBCHEM_CACTVS_ROTATABLE_BOND>
1

> <PUBCHEM_CACTVS_SUBSKEYS>
AAADceB6MAAAAAAAAAAAAAAAAAAAASAAAAA8YIEAAAAWAEjBAAAAHgAQCAAADzzhmAYyBoLABgCAAiBCAAACCAAgIAAIiIAOiIgNNiKEsRuGeCKk0BGLuAew8P8PoAABAAAYQADQAAaAADSAAAAAAAAAAA==

> <PUBCHEM_IUPAC_OPENEYE_NAME>
(4R,4aR,7S,7aR,12bS)-9-methoxy-1,2,3,4,4a,7,7a,13-octahydro-4,12-methanobenzofuro[3,2-e]isoquinoline-7-ol

> <PUBCHEM_IUPAC_CAS_NAME>
(4R,4aR,7S,7aR,12bS)-9-methoxy-1,2,3,4,4a,7,7a,13-octahydro-4,12-methanobenzofuro[3,2-e]isoquinoline-7-ol

> <PUBCHEM_IUPAC_NAME>
(4R,4aR,7S,7aR,12bS)-9-methoxy-1,2,3,4,4a,7,7a,13-octahydro-4,12-methanobenzofuro[3,2-e]isoquinoline-7-ol

> <PUBCHEM_IUPAC_SYSTEMATIC_NAME>
(4R,4aR,7S,7aR,12bS)-9-methoxy-1,2,3,4,4a,7,7a,13-octahydro-4,12-methanobenzofuro[3,2-e]isoquinoline-7-ol

> <PUBCHEM_IUPAC_TRADITIONAL_NAME>
(4R,4aR,7S,7aR,12bS)-9-methoxy-1,2,3,4,4a,7,7a,13-octahydro-4,12-methanobenzofuro[3,2-e]isoquinoline-7-ol

> <PUBCHEM_IUPAC_INCHI>
InChI=1S/C17H19NO3/c1-20-13-5-2-9-8-11-10-3-4-12(19)16-17(10,6-7-18-11)14(9)15(13)21-16/h2-5,10-12,16,18-19H,6-8H2,1H3/t10-,11+,12-,16-,17-/m0/s1

> <PUBCHEM_IUPAC_INCHIKEY>
HKOIXWVRNLGFOR-KOFBORESSA-N

> <PUBCHEM_XLOGP3>
0.7

> <PUBCHEM_EXACT_MASS>
285.136493

> <PUBCHEM_MOLECULAR_FORMULA>
C17H19NO3

> <PUBCHEM_MOLECULAR_WEIGHT>
285.33766

> <PUBCHEM_OPENEYE_CAN_SMILES>
COC1=C2C3=C(CC4C5C3(CCN4)C(O2)C(C=C5)O)C=C1

> <PUBCHEM_OPENEYE_ISO_SMILES>
COC1=C2C3=C(C[C@@H]4[C@H]5[C@]3(CCN4)[C@@H](O2)[C@H](C=C5)O)C=C1

> <PUBCHEM_CACTVS_TPSA>
50.7

> <PUBCHEM_MONOISOTOPIC_WEIGHT>
285.136493

> <PUBCHEM_TOTAL_CHARGE>
0

> <PUBCHEM_HEAVY_ATOM_COUNT>
21

> <PUBCHEM_ATOM_DEF_STEREO_COUNT>
5

> <PUBCHEM_ATOM_UDEF_STEREO_COUNT>
0

> <PUBCHEM_BOND_DEF_STEREO_COUNT>
0

> <PUBCHEM_BOND_UDEF_STEREO_COUNT>
0

> <PUBCHEM_ISOTOPIC_ATOM_COUNT>
0

> <PUBCHEM_COMPONENT_COUNT>
1

> <PUBCHEM_CACTVS_TAUTO_COUNT>
1

> <PUBCHEM_COORDINATE_TYPE>
1
5
255

> <PUBCHEM_BONDANNOTATIONS>
12  18  8
16  19  8
18  20  8
19  20  8
14  2  6
5  10  5
6  22  5
7  23  5
8  24  6
9  12  8
9  16  8

$$$$

