165331
  -OEChem-07051212463D

 15 14  0     1  0  0  0  0  0999 V2000
    1.9182    0.1371   -1.0209 S   0  0  0  0  0  0  0  0  0  0  0  0
    2.7777    0.4899    0.8070 S   0  0  0  0  0  0  0  0  0  0  0  0
   -0.9410    1.6689    0.7501 O   0  0  0  0  0  0  0  0  0  0  0  0
   -1.7463    0.5900   -1.0756 O   0  0  0  0  0  0  0  0  0  0  0  0
   -1.2971   -1.6868    0.7355 N   0  0  0  0  0  0  0  0  0  0  0  0
   -0.3184   -0.6381    0.4415 C   0  0  1  0  0  0  0  0  0  0  0  0
    0.6910   -1.1391   -0.5930 C   0  0  0  0  0  0  0  0  0  0  0  0
   -1.0840    0.5782   -0.0446 C   0  0  0  0  0  0  0  0  0  0  0  0
    0.1713   -0.3954    1.3896 H   0  0  0  0  0  0  0  0  0  0  0  0
    1.2178   -2.0315   -0.2359 H   0  0  0  0  0  0  0  0  0  0  0  0
    0.1831   -1.4168   -1.5242 H   0  0  0  0  0  0  0  0  0  0  0  0
   -1.9065   -1.3836    1.4947 H   0  0  0  0  0  0  0  0  0  0  0  0
   -0.8154   -2.5191    1.0739 H   0  0  0  0  0  0  0  0  0  0  0  0
   -1.4334    2.4425    0.4019 H   0  0  0  0  0  0  0  0  0  0  0  0
    1.9248    1.4147    1.2714 H   0  0  0  0  0  0  0  0  0  0  0  0
  1  2  1  0  0  0  0
  1  7  1  0  0  0  0
  2 15  1  0  0  0  0
  3  8  1  0  0  0  0
  3 14  1  0  0  0  0
  4  8  2  0  0  0  0
  5  6  1  0  0  0  0
  5 12  1  0  0  0  0
  5 13  1  0  0  0  0
  6  7  1  0  0  0  0
  6  8  1  0  0  0  0
  6  9  1  0  0  0  0
  7 10  1  0  0  0  0
  7 11  1  0  0  0  0
M  END
> <PUBCHEM_COMPOUND_CID>
165331

> <PUBCHEM_CONFORMER_RMSD>
0.6

> <PUBCHEM_CONFORMER_DIVERSEORDER>
1
7
15
9
14
11
8
10
12
6
4
13
2
5
3

> <PUBCHEM_MMFF94_PARTIAL_CHARGES>
12
1 -0.23
12 0.36
13 0.36
14 0.5
15 0.18
2 -0.18
3 -0.65
4 -0.57
5 -0.99
6 0.33
7 0.23
8 0.66

> <PUBCHEM_EFFECTIVE_ROTOR_COUNT>
3

> <PUBCHEM_PHARMACOPHORE_FEATURES>
5
1 3 acceptor
1 4 acceptor
1 5 cation
1 5 donor
3 3 4 8 anion

> <PUBCHEM_HEAVY_ATOM_COUNT>
8

> <PUBCHEM_ATOM_DEF_STEREO_COUNT>
1

> <PUBCHEM_ATOM_UDEF_STEREO_COUNT>
0

> <PUBCHEM_BOND_DEF_STEREO_COUNT>
0

> <PUBCHEM_BOND_UDEF_STEREO_COUNT>
0

> <PUBCHEM_ISOTOPIC_ATOM_COUNT>
0

> <PUBCHEM_COMPONENT_COUNT>
1

> <PUBCHEM_CACTVS_TAUTO_COUNT>
1

> <PUBCHEM_CONFORMER_ID>
000285D300000001

> <PUBCHEM_MMFF94_ENERGY>
-0.3562

> <PUBCHEM_FEATURE_SELFOVERLAP>
25.43

> <PUBCHEM_SHAPE_FINGERPRINT>
10857977 72 18119514454039241114
12897270 3 17095820874717140708
20096714 4 17833252491368832269
20651381 17 18264511592411604508
20653085 51 17096355314672272320
21040471 1 18198328744619122334
21922407 69 16342561848307373932
23235685 24 18339910619345140524
23552449 1 18191028906660395430
24536 1 18339063973974653060
5084963 1 18129373963820804422

> <PUBCHEM_SHAPE_MULTIPOLES>
155.62
3.1
1.5
1.16
1.98
0.02
0.14
-0.58
-0.26
-0.65
-0.3
0.22
-0.01
0.42

> <PUBCHEM_SHAPE_SELFOVERLAP>
267.034

> <PUBCHEM_SHAPE_VOLUME>
106.3

> <PUBCHEM_COORDINATE_TYPE>
2
5
10

$$$$

