6983
  -OEChem-06261201393D

 14 14  0     0  0  0  0  0  0999 V2000
   -1.6837   -2.3679   -0.0011 Cl  0  0  0  0  0  0  0  0  0  0  0  0
    2.7196    2.0627   -0.0013 Cl  0  0  0  0  0  0  0  0  0  0  0  0
    3.5078   -1.0759    0.0000 Cl  0  0  0  0  0  0  0  0  0  0  0  0
   -2.4220    1.8821    0.0002 O   0  5  0  0  0  0  0  0  0  0  0  0
   -3.0830   -0.2113   -0.0003 O   0  0  0  0  0  0  0  0  0  0  0  0
   -2.1762    0.6535    0.0002 N   0  3  0  0  0  0  0  0  0  0  0  0
   -0.8187    0.2249    0.0003 C   0  0  0  0  0  0  0  0  0  0  0  0
   -0.4787   -1.1279    0.0004 C   0  0  0  0  0  0  0  0  0  0  0  0
    0.1831    1.1956    0.0003 C   0  0  0  0  0  0  0  0  0  0  0  0
    1.5246    0.8135    0.0004 C   0  0  0  0  0  0  0  0  0  0  0  0
    0.8628   -1.5100    0.0005 C   0  0  0  0  0  0  0  0  0  0  0  0
    1.8644   -0.5393    0.0005 C   0  0  0  0  0  0  0  0  0  0  0  0
   -0.0560    2.2571    0.0000 H   0  0  0  0  0  0  0  0  0  0  0  0
    1.1271   -2.5657    0.0003 H   0  0  0  0  0  0  0  0  0  0  0  0
  1  8  1  0  0  0  0
  2 10  1  0  0  0  0
  3 12  1  0  0  0  0
  4  6  1  0  0  0  0
  5  6  2  0  0  0  0
  6  7  1  0  0  0  0
  7  8  1  0  0  0  0
  7  9  2  0  0  0  0
  8 11  2  0  0  0  0
  9 10  1  0  0  0  0
  9 13  1  0  0  0  0
 10 12  2  0  0  0  0
 11 12  1  0  0  0  0
 11 14  1  0  0  0  0
M  CHG  2   4  -1   6   1
M  END
> <PUBCHEM_COMPOUND_CID>
6983

> <PUBCHEM_CONFORMER_RMSD>
0.4

> <PUBCHEM_CONFORMER_DIVERSEORDER>
1

> <PUBCHEM_MMFF94_PARTIAL_CHARGES>
14
1 -0.18
10 0.18
11 -0.15
12 0.18
13 0.15
14 0.15
2 -0.18
3 -0.18
4 -0.52
5 -0.52
6 0.91
7 0.13
8 0.18
9 -0.15

> <PUBCHEM_EFFECTIVE_ROTOR_COUNT>
1

> <PUBCHEM_PHARMACOPHORE_FEATURES>
4
1 4 acceptor
1 4 anion
1 5 acceptor
6 7 8 9 10 11 12 rings

> <PUBCHEM_HEAVY_ATOM_COUNT>
12

> <PUBCHEM_ATOM_DEF_STEREO_COUNT>
0

> <PUBCHEM_ATOM_UDEF_STEREO_COUNT>
0

> <PUBCHEM_BOND_DEF_STEREO_COUNT>
0

> <PUBCHEM_BOND_UDEF_STEREO_COUNT>
0

> <PUBCHEM_ISOTOPIC_ATOM_COUNT>
0

> <PUBCHEM_COMPONENT_COUNT>
1

> <PUBCHEM_CACTVS_TAUTO_COUNT>
1

> <PUBCHEM_CONFORMER_ID>
00001B4700000001

> <PUBCHEM_MMFF94_ENERGY>
38.4782

> <PUBCHEM_FEATURE_SELFOVERLAP>
20.379

> <PUBCHEM_SHAPE_FINGERPRINT>
10608611 8 18410295778861481376
13380535 21 18266447729213970296
13380535 76 18338521816005384202
14325111 11 18410575080368410432
14648413 74 18410571773744505722
14911166 2 18338233885677114174
14993402 34 18339363096951039758
16945 1 18410855511810382534
193761 8 18338516318378809926
19973954 147 18338797810471969314
20511035 2 18188219727703229166
20871998 184 18044650906422213463
21040471 1 18410575097548013281
21501502 16 18337954472210891190
2334 1 18266740173558364358
23402655 69 17976839897464936357
23463225 33 18412827988737078874
23552423 10 18271527481624638694
23559900 14 18262796398071701926
241688 4 17327732306815387530
2748010 2 18338515223141057070
5084963 1 18187086190901370721
528886 8 18194407911897961609
53812653 166 18264495168335351912
7364860 26 18334575707776271824

> <PUBCHEM_SHAPE_MULTIPOLES>
235.84
4.64
2.41
0.6
0.71
0.04
0
-0.31
0
-0.1
0
0.07
0.03
0

> <PUBCHEM_SHAPE_SELFOVERLAP>
470.909

> <PUBCHEM_SHAPE_VOLUME>
142.6

> <PUBCHEM_COORDINATE_TYPE>
2
5
10

$$$$

