5421
  -OEChem-06261200413D

 54 57  0     0  0  0  0  0  0999 V2000
   -0.5536    2.3751    0.0641 O   0  0  0  0  0  0  0  0  0  0  0  0
    1.2861   -2.7502   -2.9194 O   0  0  0  0  0  0  0  0  0  0  0  0
   -0.2521   -1.1692   -2.3709 O   0  0  0  0  0  0  0  0  0  0  0  0
    4.0884    3.3709    0.0741 N   0  3  0  0  0  0  0  0  0  0  0  0
   -5.2642    1.5753    0.0432 N   0  0  0  0  0  0  0  0  0  0  0  0
    1.3806   -5.8808    0.9154 N   0  0  0  0  0  0  0  0  0  0  0  0
    0.0867   -0.4063    0.3141 C   0  0  0  0  0  0  0  0  0  0  0  0
    1.0831    0.5192    0.2542 C   0  0  0  0  0  0  0  0  0  0  0  0
   -1.3140    0.0838    0.2460 C   0  0  0  0  0  0  0  0  0  0  0  0
    0.7664    1.9519    0.1263 C   0  0  0  0  0  0  0  0  0  0  0  0
   -1.5611    1.4510    0.1240 C   0  0  0  0  0  0  0  0  0  0  0  0
    0.4229   -1.8291    0.4414 C   0  0  0  0  0  0  0  0  0  0  0  0
    2.5038    0.1443    0.3128 C   0  0  0  0  0  0  0  0  0  0  0  0
   -2.4173   -0.7841    0.2997 C   0  0  0  0  0  0  0  0  0  0  0  0
    1.7329    2.8807    0.0670 C   0  0  0  0  0  0  0  0  0  0  0  0
   -2.8657    1.9502    0.0565 C   0  0  0  0  0  0  0  0  0  0  0  0
    3.1592    2.4863    0.1292 C   0  0  0  0  0  0  0  0  0  0  0  0
   -3.9476    1.0770    0.1109 C   0  0  0  0  0  0  0  0  0  0  0  0
    0.6102   -2.6269   -0.6811 C   0  0  0  0  0  0  0  0  0  0  0  0
    3.4890    1.0500    0.2554 C   0  0  0  0  0  0  0  0  0  0  0  0
   -3.7233   -0.2905    0.2327 C   0  0  0  0  0  0  0  0  0  0  0  0
    0.5498   -2.3608    1.7194 C   0  0  0  0  0  0  0  0  0  0  0  0
    0.9290   -3.9758   -0.5237 C   0  0  0  0  0  0  0  0  0  0  0  0
    0.8688   -3.7095    1.8769 C   0  0  0  0  0  0  0  0  0  0  0  0
    1.0583   -4.5172    0.7554 C   0  0  0  0  0  0  0  0  0  0  0  0
    3.7765    4.8178   -0.0527 C   0  0  0  0  0  0  0  0  0  0  0  0
    5.5240    2.9939    0.1342 C   0  0  0  0  0  0  0  0  0  0  0  0
    0.4849   -2.0987   -2.0347 C   0  0  0  0  0  0  0  0  0  0  0  0
   -6.3961    0.6710    0.0995 C   0  0  0  0  0  0  0  0  0  0  0  0
   -5.5056    3.0006   -0.0697 C   0  0  0  0  0  0  0  0  0  0  0  0
    2.7924   -0.8971    0.4047 H   0  0  0  0  0  0  0  0  0  0  0  0
   -2.2858   -1.8592    0.3939 H   0  0  0  0  0  0  0  0  0  0  0  0
    1.4451    3.9215   -0.0270 H   0  0  0  0  0  0  0  0  0  0  0  0
   -2.9902    3.0250   -0.0384 H   0  0  0  0  0  0  0  0  0  0  0  0
    4.5135    0.7017    0.3037 H   0  0  0  0  0  0  0  0  0  0  0  0
   -4.5292   -1.0165    0.2798 H   0  0  0  0  0  0  0  0  0  0  0  0
    0.4046   -1.7456    2.6040 H   0  0  0  0  0  0  0  0  0  0  0  0
    1.0669   -4.6261   -1.3847 H   0  0  0  0  0  0  0  0  0  0  0  0
    0.9667   -4.1196    2.8789 H   0  0  0  0  0  0  0  0  0  0  0  0
    3.2355    4.9847   -0.9887 H   0  0  0  0  0  0  0  0  0  0  0  0
    3.1969    5.1349    0.8190 H   0  0  0  0  0  0  0  0  0  0  0  0
    4.7030    5.3978   -0.0810 H   0  0  0  0  0  0  0  0  0  0  0  0
    6.1478    3.8897    0.0724 H   0  0  0  0  0  0  0  0  0  0  0  0
    5.7587    2.3494   -0.7178 H   0  0  0  0  0  0  0  0  0  0  0  0
    5.7224    2.4994    1.0895 H   0  0  0  0  0  0  0  0  0  0  0  0
   -7.3482    1.2090    0.0304 H   0  0  0  0  0  0  0  0  0  0  0  0
   -6.3784   -0.0378   -0.7359 H   0  0  0  0  0  0  0  0  0  0  0  0
   -6.4165    0.1215    1.0472 H   0  0  0  0  0  0  0  0  0  0  0  0
   -5.1027    3.5399    0.7948 H   0  0  0  0  0  0  0  0  0  0  0  0
   -6.5768    3.2282   -0.1070 H   0  0  0  0  0  0  0  0  0  0  0  0
   -5.0698    3.4040   -0.9905 H   0  0  0  0  0  0  0  0  0  0  0  0
    1.4736   -6.2734    1.8427 H   0  0  0  0  0  0  0  0  0  0  0  0
    1.5175   -6.4676    0.1032 H   0  0  0  0  0  0  0  0  0  0  0  0
    1.1971   -2.3891   -3.8271 H   0  0  0  0  0  0  0  0  0  0  0  0
  1 10  1  0  0  0  0
  1 11  1  0  0  0  0
  2 28  1  0  0  0  0
  2 54  1  0  0  0  0
  3 28  2  0  0  0  0
  4 17  2  0  0  0  0
  4 26  1  0  0  0  0
  4 27  1  0  0  0  0
  5 18  1  0  0  0  0
  5 29  1  0  0  0  0
  5 30  1  0  0  0  0
  6 25  1  0  0  0  0
  6 52  1  0  0  0  0
  6 53  1  0  0  0  0
  7  8  2  0  0  0  0
  7  9  1  0  0  0  0
  7 12  1  0  0  0  0
  8 10  1  0  0  0  0
  8 13  1  0  0  0  0
  9 11  2  0  0  0  0
  9 14  1  0  0  0  0
 10 15  2  0  0  0  0
 11 16  1  0  0  0  0
 12 19  2  0  0  0  0
 12 22  1  0  0  0  0
 13 20  2  0  0  0  0
 13 31  1  0  0  0  0
 14 21  2  0  0  0  0
 14 32  1  0  0  0  0
 15 17  1  0  0  0  0
 15 33  1  0  0  0  0
 16 18  2  0  0  0  0
 16 34  1  0  0  0  0
 17 20  1  0  0  0  0
 18 21  1  0  0  0  0
 19 23  1  0  0  0  0
 19 28  1  0  0  0  0
 20 35  1  0  0  0  0
 21 36  1  0  0  0  0
 22 24  2  0  0  0  0
 22 37  1  0  0  0  0
 23 25  2  0  0  0  0
 23 38  1  0  0  0  0
 24 25  1  0  0  0  0
 24 39  1  0  0  0  0
 26 40  1  0  0  0  0
 26 41  1  0  0  0  0
 26 42  1  0  0  0  0
 27 43  1  0  0  0  0
 27 44  1  0  0  0  0
 27 45  1  0  0  0  0
 29 46  1  0  0  0  0
 29 47  1  0  0  0  0
 29 48  1  0  0  0  0
 30 49  1  0  0  0  0
 30 50  1  0  0  0  0
 30 51  1  0  0  0  0
M  CHG  1   4   1
M  END
> <PUBCHEM_COMPOUND_CID>
5421

> <PUBCHEM_CONFORMER_RMSD>
0.8

> <PUBCHEM_CONFORMER_DIVERSEORDER>
1
2

> <PUBCHEM_MMFF94_PARTIAL_CHARGES>
41
1 -0.16
10 0.08
11 0.08
12 0.03
13 -0.15
14 -0.15
15 -0.14
16 -0.15
17 0.37
18 0.1
19 0.09
2 -0.65
20 -0.14
21 -0.15
22 -0.15
23 -0.15
24 -0.15
25 0.1
26 0.35
27 0.35
28 0.63
29 0.37
3 -0.57
30 0.37
31 0.15
32 0.15
33 0.15
34 0.15
35 0.15
36 0.15
37 0.15
38 0.15
39 0.15
4 -0.09
5 -0.84
52 0.4
53 0.4
54 0.5
6 -0.9
7 -0.06
9 0.03

> <PUBCHEM_EFFECTIVE_ROTOR_COUNT>
3

> <PUBCHEM_PHARMACOPHORE_FEATURES>
11
1 1 acceptor
1 2 acceptor
1 3 acceptor
1 5 cation
1 6 cation
1 6 donor
3 2 3 28 anion
6 1 7 8 9 10 11 rings
6 12 19 22 23 24 25 rings
6 8 10 13 15 17 20 rings
6 9 11 14 16 18 21 rings

> <PUBCHEM_HEAVY_ATOM_COUNT>
30

> <PUBCHEM_ATOM_DEF_STEREO_COUNT>
0

> <PUBCHEM_ATOM_UDEF_STEREO_COUNT>
0

> <PUBCHEM_BOND_DEF_STEREO_COUNT>
0

> <PUBCHEM_BOND_UDEF_STEREO_COUNT>
0

> <PUBCHEM_ISOTOPIC_ATOM_COUNT>
0

> <PUBCHEM_COMPONENT_COUNT>
1

> <PUBCHEM_CACTVS_TAUTO_COUNT>
1

> <PUBCHEM_CONFORMER_ID>
0000152D00000001

> <PUBCHEM_MMFF94_ENERGY>
140.5985

> <PUBCHEM_FEATURE_SELFOVERLAP>
55.932

> <PUBCHEM_SHAPE_FINGERPRINT>
10411042 1 17619352451751632691
10721379 63 18192981845512363129
107951 10 18268702823520779454
11578080 2 16984342666329355166
12160290 23 17540788634794483245
12293681 4 16754671300162628397
12553582 1 17471558306485591315
12788726 201 17760384192331853874
13140716 1 18411984645780483969
133893 2 18117823620041145977
13757389 114 17911222941225046012
138480 1 18051696843020286976
14725015 67 18265333005719386758
14790565 3 18339923706042452305
15042514 8 17619623579703526530
15629462 23 17614292060906556454
15664445 248 18119240907645907854
15927050 60 18339643318219793474
17980427 26 18339654398755181246
1813 80 17611749307465514475
20600515 1 10591225563648545187
20905425 154 17615971445154186902
21033648 29 18191592951630979353
21133410 32 16049781873366346891
21133665 82 18335977607078124732
23366157 5 18196644305906971329
23419403 2 17251118031581225614
23559900 14 18124038090274350155
244849 19 17771880952959573249
3411729 13 18336546114091329873
376196 1 18187645752162973352
38695281 34 18334857190810375117
394222 165 18408890658814361355
4058900 60 18339629101208176016
5219985 13 18338238150448549581
6669772 16 18335978701703434926
6673363 416 17616240821726126782
77188 2 17763749088622899722
9841814 1 18049154772685508027
9981440 41 18342175510456586465

> <PUBCHEM_SHAPE_MULTIPOLES>
584.83
8.95
7.16
1.42
9.38
6.83
-0.96
-15.05
0.61
-6.79
1.08
-0.47
2.06
0.02

> <PUBCHEM_SHAPE_SELFOVERLAP>
1292.717

> <PUBCHEM_SHAPE_VOLUME>
314.8

> <PUBCHEM_COORDINATE_TYPE>
2
5
10

$$$$

