9571
  -OEChem-06261203493D

 37 37  0     1  0  0  0  0  0999 V2000
   -4.6483   -0.5957    2.0719 Cl  0  0  0  0  0  0  0  0  0  0  0  0
   -2.0360    3.6142   -1.9027 Cl  0  0  0  0  0  0  0  0  0  0  0  0
    2.9062    0.6109   -1.3022 O   0  0  0  0  0  0  0  0  0  0  0  0
    2.2961    2.4223   -0.0825 O   0  0  0  0  0  0  0  0  0  0  0  0
   -1.1881    0.2568    0.1739 N   0  0  0  0  0  0  0  0  0  0  0  0
    3.2037    1.1243    2.1802 N   0  0  0  0  0  0  0  0  0  0  0  0
   -0.4445   -0.8719   -0.2345 C   0  0  0  0  0  0  0  0  0  0  0  0
    0.7832   -1.1716    0.3451 C   0  0  0  0  0  0  0  0  0  0  0  0
    1.3573   -0.3004    1.4275 C   0  0  0  0  0  0  0  0  0  0  0  0
   -2.1514    0.1489    1.2503 C   0  0  0  0  0  0  0  0  0  0  0  0
   -0.9858    1.5389   -0.4695 C   0  0  0  0  0  0  0  0  0  0  0  0
    2.7181    0.3104    1.0627 C   0  0  1  0  0  0  0  0  0  0  0  0
   -0.9545   -1.6969   -1.2370 C   0  0  0  0  0  0  0  0  0  0  0  0
    1.5075   -2.2856   -0.0647 C   0  0  0  0  0  0  0  0  0  0  0  0
   -3.4589   -0.4483    0.7542 C   0  0  0  0  0  0  0  0  0  0  0  0
   -2.2700    2.0329   -1.1169 C   0  0  0  0  0  0  0  0  0  0  0  0
   -0.2337   -2.8162   -1.6532 C   0  0  0  0  0  0  0  0  0  0  0  0
    0.9972   -3.1105   -1.0671 C   0  0  0  0  0  0  0  0  0  0  0  0
    2.6019    1.2376   -0.1356 C   0  0  0  0  0  0  0  0  0  0  0  0
    1.4629   -0.9212    2.3286 H   0  0  0  0  0  0  0  0  0  0  0  0
    0.6722    0.5043    1.7161 H   0  0  0  0  0  0  0  0  0  0  0  0
   -2.3363    1.1347    1.6956 H   0  0  0  0  0  0  0  0  0  0  0  0
   -1.7411   -0.4703    2.0587 H   0  0  0  0  0  0  0  0  0  0  0  0
   -0.2007    1.4704   -1.2332 H   0  0  0  0  0  0  0  0  0  0  0  0
   -0.6360    2.2648    0.2749 H   0  0  0  0  0  0  0  0  0  0  0  0
    3.4719   -0.4556    0.8514 H   0  0  0  0  0  0  0  0  0  0  0  0
   -1.9080   -1.4757   -1.7096 H   0  0  0  0  0  0  0  0  0  0  0  0
    2.4620   -2.5371    0.3887 H   0  0  0  0  0  0  0  0  0  0  0  0
   -3.9242    0.1457   -0.0348 H   0  0  0  0  0  0  0  0  0  0  0  0
   -3.3112   -1.4585    0.3629 H   0  0  0  0  0  0  0  0  0  0  0  0
   -2.6278    1.3325   -1.8779 H   0  0  0  0  0  0  0  0  0  0  0  0
   -3.0642    2.1825   -0.3816 H   0  0  0  0  0  0  0  0  0  0  0  0
   -0.6302   -3.4578   -2.4348 H   0  0  0  0  0  0  0  0  0  0  0  0
    1.5573   -3.9833   -1.3898 H   0  0  0  0  0  0  0  0  0  0  0  0
    3.2946    0.5418    3.0118 H   0  0  0  0  0  0  0  0  0  0  0  0
    4.1409    1.4671    1.9711 H   0  0  0  0  0  0  0  0  0  0  0  0
    2.8372    1.2163   -2.0708 H   0  0  0  0  0  0  0  0  0  0  0  0
  1 15  1  0  0  0  0
  2 16  1  0  0  0  0
  3 19  1  0  0  0  0
  3 37  1  0  0  0  0
  4 19  2  0  0  0  0
  5  7  1  0  0  0  0
  5 10  1  0  0  0  0
  5 11  1  0  0  0  0
  6 12  1  0  0  0  0
  6 35  1  0  0  0  0
  6 36  1  0  0  0  0
  7  8  1  0  0  0  0
  7 13  2  0  0  0  0
  8  9  1  0  0  0  0
  8 14  2  0  0  0  0
  9 12  1  0  0  0  0
  9 20  1  0  0  0  0
  9 21  1  0  0  0  0
 10 15  1  0  0  0  0
 10 22  1  0  0  0  0
 10 23  1  0  0  0  0
 11 16  1  0  0  0  0
 11 24  1  0  0  0  0
 11 25  1  0  0  0  0
 12 19  1  0  0  0  0
 12 26  1  0  0  0  0
 13 17  1  0  0  0  0
 13 27  1  0  0  0  0
 14 18  1  0  0  0  0
 14 28  1  0  0  0  0
 15 29  1  0  0  0  0
 15 30  1  0  0  0  0
 16 31  1  0  0  0  0
 16 32  1  0  0  0  0
 17 18  2  0  0  0  0
 17 33  1  0  0  0  0
 18 34  1  0  0  0  0
M  END
> <PUBCHEM_COMPOUND_CID>
9571

> <PUBCHEM_CONFORMER_RMSD>
0.8

> <PUBCHEM_CONFORMER_DIVERSEORDER>
1
67
37
69
92
88
33
105
145
125
139
107
52
137
104
144
85
15
20
56
141
9
103
138
136
82
74
80
142
133
59
127
98
84
150
29
95
66
120
70
132
102
147
48
140
86
41
12
10
143
89
17
64
75
148
126
71
16
76
4
7
111
78
130
90
34
13
114
51
27
83
81
118
124
106
93
101
108
99
135
77
110
58
53
39
62
65
44
112
22
2
63
57
94
61
18
117
49
128
35
60
100
97
115
31
72
55
119
113
96
131
42
91
30
3
5
28
79
21
46
149
123
43
50
38
122
54
47
32
14
8
134
26
40
68
129
116
109
6
23
24
19
11
36
45
25
73
87
121
146

> <PUBCHEM_MMFF94_PARTIAL_CHARGES>
26
1 -0.29
10 0.37
11 0.37
12 0.33
13 -0.15
14 -0.15
15 0.29
16 0.29
17 -0.15
18 -0.15
19 0.66
2 -0.29
27 0.15
28 0.15
3 -0.65
33 0.15
34 0.15
35 0.36
36 0.36
37 0.5
4 -0.57
5 -0.84
6 -0.99
7 0.1
8 -0.14
9 0.14

> <PUBCHEM_EFFECTIVE_ROTOR_COUNT>
8

> <PUBCHEM_PHARMACOPHORE_FEATURES>
7
1 3 acceptor
1 4 acceptor
1 5 cation
1 6 cation
1 6 donor
3 3 4 19 anion
6 7 8 13 14 17 18 rings

> <PUBCHEM_HEAVY_ATOM_COUNT>
19

> <PUBCHEM_ATOM_DEF_STEREO_COUNT>
0

> <PUBCHEM_ATOM_UDEF_STEREO_COUNT>
1

> <PUBCHEM_BOND_DEF_STEREO_COUNT>
0

> <PUBCHEM_BOND_UDEF_STEREO_COUNT>
0

> <PUBCHEM_ISOTOPIC_ATOM_COUNT>
0

> <PUBCHEM_COMPONENT_COUNT>
1

> <PUBCHEM_CACTVS_TAUTO_COUNT>
1

> <PUBCHEM_CONFORMER_ID>
0000256300000001

> <PUBCHEM_MMFF94_ENERGY>
56.9203

> <PUBCHEM_FEATURE_SELFOVERLAP>
35.579

> <PUBCHEM_SHAPE_FINGERPRINT>
10165383 225 18115005434273867472
10906281 52 17399243435163490362
11221954 11 18055368073912739213
12532896 13 17749952133402887658
14142880 1 17689158907073745744
14614273 12 18044402476739196694
16945 1 18272376342923619730
17357779 13 16892032162718301742
18981168 100 18337116777257070596
20511035 2 18054530246099320208
21524375 3 18336546032244208946
22112679 90 17907595635389929584
22182313 1 18264494068960971526
23419403 2 18047747384574265215
23526113 38 17545319039692692607
23557571 272 18059562651175496373
23558518 356 17912381002368837557
23559900 14 17773872180785068051
238 59 17827383246913248101
2748010 2 18193284210956345748
3060560 45 18264189357894626348
31174 14 18044080474883838187
3250762 1 18053937626633221965
458136 41 18042102350238573955
5845 1 15365023812429577703
6049 1 18124021588719822387
633830 44 16877651362571021985
6442390 28 17823406098634156107
81228 2 17757567252184199794
9999458 23 17677871505692267097

> <PUBCHEM_SHAPE_MULTIPOLES>
373.05
5.59
3.69
2.02
3.59
0.98
-0.34
1.39
-3.23
0.15
2.72
0.6
0.09
2.43

> <PUBCHEM_SHAPE_SELFOVERLAP>
734.932

> <PUBCHEM_SHAPE_VOLUME>
225.2

> <PUBCHEM_COORDINATE_TYPE>
2
5
10

$$$$

