11953963
  -OEChem-07051213023D

 20 20  0     0  0  0  0  0  0999 V2000
   -3.7203   -0.0891    0.0085 O   0  0  0  0  0  0  0  0  0  0  0  0
    0.7909    1.0218   -0.0056 N   0  0  0  0  0  0  0  0  0  0  0  0
   -2.4487   -0.6125    0.2578 N   0  0  0  0  0  0  0  0  0  0  0  0
    1.6933   -1.7342   -0.0179 C   0  0  0  0  0  0  0  0  0  0  0  0
   -0.1258   -0.0351   -0.1019 C   0  0  0  0  0  0  0  0  0  0  0  0
    0.2405   -1.3321   -0.1121 C   0  0  0  0  0  0  0  0  0  0  0  0
    2.1443    0.6994    0.0835 C   0  0  0  0  0  0  0  0  0  0  0  0
    2.6241   -0.5541    0.0830 C   0  0  0  0  0  0  0  0  0  0  0  0
    0.3722    2.4229    0.0043 C   0  0  0  0  0  0  0  0  0  0  0  0
   -1.5706    0.2130   -0.1995 C   0  0  0  0  0  0  0  0  0  0  0  0
    1.9580   -2.3226   -0.9034 H   0  0  0  0  0  0  0  0  0  0  0  0
    1.8297   -2.3729    0.8618 H   0  0  0  0  0  0  0  0  0  0  0  0
   -0.4771   -2.1428   -0.1979 H   0  0  0  0  0  0  0  0  0  0  0  0
    2.8109    1.5515    0.1537 H   0  0  0  0  0  0  0  0  0  0  0  0
    3.6917   -0.7334    0.1545 H   0  0  0  0  0  0  0  0  0  0  0  0
   -0.3989    2.5920    0.7641 H   0  0  0  0  0  0  0  0  0  0  0  0
   -0.0247    2.7076   -0.9760 H   0  0  0  0  0  0  0  0  0  0  0  0
    1.2026    3.1002    0.2343 H   0  0  0  0  0  0  0  0  0  0  0  0
   -1.8707    1.1617   -0.6774 H   0  0  0  0  0  0  0  0  0  0  0  0
   -4.2925   -0.7782    0.3864 H   0  0  0  0  0  0  0  0  0  0  0  0
  1  3  1  0  0  0  0
  1 20  1  0  0  0  0
  2  5  1  0  0  0  0
  2  7  1  0  0  0  0
  2  9  1  0  0  0  0
  3 10  2  0  0  0  0
  4  6  1  0  0  0  0
  4  8  1  0  0  0  0
  4 11  1  0  0  0  0
  4 12  1  0  0  0  0
  5  6  2  0  0  0  0
  5 10  1  0  0  0  0
  6 13  1  0  0  0  0
  7  8  2  0  0  0  0
  7 14  1  0  0  0  0
  8 15  1  0  0  0  0
  9 16  1  0  0  0  0
  9 17  1  0  0  0  0
  9 18  1  0  0  0  0
 10 19  1  0  0  0  0
M  END
> <PUBCHEM_COMPOUND_CID>
11953963

> <PUBCHEM_CONFORMER_RMSD>
0.4

> <PUBCHEM_CONFORMER_DIVERSEORDER>
1
2
3

> <PUBCHEM_MMFF94_PARTIAL_CHARGES>
15
1 -0.34
10 0.38
13 0.15
14 0.15
15 0.15
19 0.06
2 -0.57
20 0.4
3 -0.51
4 0.28
5 0.11
6 -0.29
7 -0.05
8 -0.29
9 0.37

> <PUBCHEM_EFFECTIVE_ROTOR_COUNT>
1.4

> <PUBCHEM_PHARMACOPHORE_FEATURES>
4
1 1 anion
1 2 cation
1 3 acceptor
6 2 4 5 6 7 8 rings

> <PUBCHEM_HEAVY_ATOM_COUNT>
10

> <PUBCHEM_ATOM_DEF_STEREO_COUNT>
0

> <PUBCHEM_ATOM_UDEF_STEREO_COUNT>
0

> <PUBCHEM_BOND_DEF_STEREO_COUNT>
1

> <PUBCHEM_BOND_UDEF_STEREO_COUNT>
0

> <PUBCHEM_ISOTOPIC_ATOM_COUNT>
0

> <PUBCHEM_COMPONENT_COUNT>
1

> <PUBCHEM_CACTVS_TAUTO_COUNT>
2

> <PUBCHEM_CONFORMER_ID>
00B6672B00000001

> <PUBCHEM_MMFF94_ENERGY>
18.7097

> <PUBCHEM_FEATURE_SELFOVERLAP>
20.297

> <PUBCHEM_SHAPE_FINGERPRINT>
10219947 1 18408603660340954275
14325111 11 18338235960114610799
161256 15 18262799687261782724
16945 1 18410579452739823038
193761 8 17689716784797228414
20201158 50 18343302586910121883
20871998 22 18117835727580645022
21040471 1 17905890275638625340
23402655 69 18336841878682561309
23552423 10 18056189409230173150
241688 4 18122902290072303376
2748010 2 18265622167769705044
29004967 10 18412262856650185946

> <PUBCHEM_SHAPE_MULTIPOLES>
189.96
4.03
1.95
0.6
3.39
0.91
0.01
-0.98
-0.21
-0.77
0.01
-0.03
-0.01
0.06

> <PUBCHEM_SHAPE_SELFOVERLAP>
379.859

> <PUBCHEM_SHAPE_VOLUME>
112

> <PUBCHEM_COORDINATE_TYPE>
2
5
10

$$$$

