47205779
  -OEChem-06241223002D

 42 42  0     0  0  0  0  0  0999 V2000
    2.8660   -2.5000    0.0000 O   0  0  0  0  0  0  0  0  0  0  0  0
    4.5981    0.5000    0.0000 O   0  0  0  0  0  0  0  0  0  0  0  0
    8.0622    1.5000    0.0000 O   0  0  0  0  0  0  0  0  0  0  0  0
    5.4641   -1.0000    0.0000 N   0  0  0  0  0  0  0  0  0  0  0  0
    6.3301    1.5000    0.0000 N   0  0  0  0  0  0  0  0  0  0  0  0
    4.5981   -1.5000    0.0000 C   0  0  0  0  0  0  0  0  0  0  0  0
    4.5981   -2.5000    0.0000 C   0  0  0  0  0  0  0  0  0  0  0  0
    5.4641    0.0000    0.0000 C   0  0  0  0  0  0  0  0  0  0  0  0
    6.3301    0.5000    0.0000 C   0  0  0  0  0  0  0  0  0  0  0  0
    3.7320   -3.0000    0.0000 C   0  0  0  0  0  0  0  0  0  0  0  0
    7.1962    3.0000    0.0000 C   0  0  0  0  0  0  0  0  0  0  0  0
    6.3301   -1.5000    0.0000 C   0  0  0  0  0  0  0  0  0  0  0  0
    8.0622    3.5000    0.0000 C   0  0  0  0  0  0  0  0  0  0  0  0
    5.4641   -3.0000    0.0000 C   0  0  0  0  0  0  0  0  0  0  0  0
    7.1962    2.0000    0.0000 C   0  0  0  0  0  0  0  0  0  0  0  0
    3.7320   -4.0000    0.0000 C   0  0  0  0  0  0  0  0  0  0  0  0
    5.4641   -4.0000    0.0000 C   0  0  0  0  0  0  0  0  0  0  0  0
    4.5981   -4.5000    0.0000 C   0  0  0  0  0  0  0  0  0  0  0  0
    8.0622    4.5000    0.0000 C   0  0  0  0  0  0  0  0  0  0  0  0
    2.0000   -3.0000    0.0000 C   0  0  0  0  0  0  0  0  0  0  0  0
    4.3860   -0.9174    0.0000 H   0  0  0  0  0  0  0  0  0  0  0  0
    3.9875   -1.6077    0.0000 H   0  0  0  0  0  0  0  0  0  0  0  0
    6.5422   -0.0826    0.0000 H   0  0  0  0  0  0  0  0  0  0  0  0
    6.9407    0.6077    0.0000 H   0  0  0  0  0  0  0  0  0  0  0  0
    6.9841    3.5826    0.0000 H   0  0  0  0  0  0  0  0  0  0  0  0
    6.5856    2.8923    0.0000 H   0  0  0  0  0  0  0  0  0  0  0  0
    6.0201   -2.0369    0.0000 H   0  0  0  0  0  0  0  0  0  0  0  0
    6.8671   -1.8100    0.0000 H   0  0  0  0  0  0  0  0  0  0  0  0
    6.6401   -0.9631    0.0000 H   0  0  0  0  0  0  0  0  0  0  0  0
    8.2742    2.9174    0.0000 H   0  0  0  0  0  0  0  0  0  0  0  0
    8.6728    3.6077    0.0000 H   0  0  0  0  0  0  0  0  0  0  0  0
    5.7932    1.8100    0.0000 H   0  0  0  0  0  0  0  0  0  0  0  0
    6.0010   -2.6900    0.0000 H   0  0  0  0  0  0  0  0  0  0  0  0
    3.1951   -4.3100    0.0000 H   0  0  0  0  0  0  0  0  0  0  0  0
    6.0010   -4.3100    0.0000 H   0  0  0  0  0  0  0  0  0  0  0  0
    4.5981   -5.1200    0.0000 H   0  0  0  0  0  0  0  0  0  0  0  0
    8.6822    4.5000    0.0000 H   0  0  0  0  0  0  0  0  0  0  0  0
    8.0622    5.1200    0.0000 H   0  0  0  0  0  0  0  0  0  0  0  0
    7.4422    4.5000    0.0000 H   0  0  0  0  0  0  0  0  0  0  0  0
    1.6900   -2.4631    0.0000 H   0  0  0  0  0  0  0  0  0  0  0  0
    1.4631   -3.3100    0.0000 H   0  0  0  0  0  0  0  0  0  0  0  0
    2.3100   -3.5369    0.0000 H   0  0  0  0  0  0  0  0  0  0  0  0
  1 10  1  0  0  0  0
  1 20  1  0  0  0  0
  2  8  2  0  0  0  0
  3 15  2  0  0  0  0
  4  6  1  0  0  0  0
  4  8  1  0  0  0  0
  4 12  1  0  0  0  0
  5  9  1  0  0  0  0
  5 15  1  0  0  0  0
  5 32  1  0  0  0  0
  6  7  1  0  0  0  0
  6 21  1  0  0  0  0
  6 22  1  0  0  0  0
  7 10  1  0  0  0  0
  7 14  2  0  0  0  0
  8  9  1  0  0  0  0
  9 23  1  0  0  0  0
  9 24  1  0  0  0  0
 10 16  2  0  0  0  0
 11 13  1  0  0  0  0
 11 15  1  0  0  0  0
 11 25  1  0  0  0  0
 11 26  1  0  0  0  0
 12 27  1  0  0  0  0
 12 28  1  0  0  0  0
 12 29  1  0  0  0  0
 13 19  1  0  0  0  0
 13 30  1  0  0  0  0
 13 31  1  0  0  0  0
 14 17  1  0  0  0  0
 14 33  1  0  0  0  0
 16 18  1  0  0  0  0
 16 34  1  0  0  0  0
 17 18  2  0  0  0  0
 17 35  1  0  0  0  0
 18 36  1  0  0  0  0
 19 37  1  0  0  0  0
 19 38  1  0  0  0  0
 19 39  1  0  0  0  0
 20 40  1  0  0  0  0
 20 41  1  0  0  0  0
 20 42  1  0  0  0  0
M  END
> <PUBCHEM_COMPOUND_CID>
47205779

> <PUBCHEM_COMPOUND_CANONICALIZED>
1

> <PUBCHEM_CACTVS_COMPLEXITY>
320

> <PUBCHEM_CACTVS_HBOND_ACCEPTOR>
3

> <PUBCHEM_CACTVS_HBOND_DONOR>
1

> <PUBCHEM_CACTVS_ROTATABLE_BOND>
7

> <PUBCHEM_CACTVS_SUBSKEYS>
AAADceBzMAAAAAAAAAAAAAAAAAAAAAAAAAAwAAAAAAAAAAABAAAAHgAQAAAADATBmAYyBoPABACIAiFSEACCCAAgIAAIiIGODIgMZjKEsTuUMChm1hGIqAeQwCAOAAAAAAAIAAAAAAAAABAAAAAAAAAAAA==

> <PUBCHEM_IUPAC_OPENEYE_NAME>
N-[2-[(2-methoxyphenyl)methyl-methyl-amino]-2-oxo-ethyl]butanamide

> <PUBCHEM_IUPAC_CAS_NAME>
N-[2-[(2-methoxyphenyl)methyl-methylamino]-2-oxoethyl]butanamide

> <PUBCHEM_IUPAC_NAME>
N-[2-[(2-methoxyphenyl)methyl-methylamino]-2-oxoethyl]butanamide

> <PUBCHEM_IUPAC_SYSTEMATIC_NAME>
N-[2-[(2-methoxyphenyl)methyl-methyl-amino]-2-oxidanylidene-ethyl]butanamide

> <PUBCHEM_IUPAC_TRADITIONAL_NAME>
N-[2-keto-2-[methyl(o-anisyl)amino]ethyl]butyramide

> <PUBCHEM_IUPAC_INCHI>
InChI=1S/C15H22N2O3/c1-4-7-14(18)16-10-15(19)17(2)11-12-8-5-6-9-13(12)20-3/h5-6,8-9H,4,7,10-11H2,1-3H3,(H,16,18)

> <PUBCHEM_IUPAC_INCHIKEY>
ISLONKNPQKVVAC-UHFFFAOYSA-N

> <PUBCHEM_XLOGP3_AA>
1.4

> <PUBCHEM_EXACT_MASS>
278.163043

> <PUBCHEM_MOLECULAR_FORMULA>
C15H22N2O3

> <PUBCHEM_MOLECULAR_WEIGHT>
278.34678

> <PUBCHEM_OPENEYE_CAN_SMILES>
CCCC(=O)NCC(=O)N(C)CC1=CC=CC=C1OC

> <PUBCHEM_OPENEYE_ISO_SMILES>
CCCC(=O)NCC(=O)N(C)CC1=CC=CC=C1OC

> <PUBCHEM_CACTVS_TPSA>
58.6

> <PUBCHEM_MONOISOTOPIC_WEIGHT>
278.163043

> <PUBCHEM_TOTAL_CHARGE>
0

> <PUBCHEM_HEAVY_ATOM_COUNT>
20

> <PUBCHEM_ATOM_DEF_STEREO_COUNT>
0

> <PUBCHEM_ATOM_UDEF_STEREO_COUNT>
0

> <PUBCHEM_BOND_DEF_STEREO_COUNT>
0

> <PUBCHEM_BOND_UDEF_STEREO_COUNT>
0

> <PUBCHEM_ISOTOPIC_ATOM_COUNT>
0

> <PUBCHEM_COMPONENT_COUNT>
1

> <PUBCHEM_CACTVS_TAUTO_COUNT>
2

> <PUBCHEM_COORDINATE_TYPE>
1
5
255

> <PUBCHEM_BONDANNOTATIONS>
10  16  8
14  17  8
16  18  8
17  18  8
7  10  8
7  14  8

$$$$

