177033
  -OEChem-07051213053D

 48 50  0     1  0  0  0  0  0999 V2000
    0.1864    0.1272   -0.4481 C   0  0  1  0  0  0  0  0  0  0  0  0
   -1.3196   -0.1336   -0.7155 C   0  0  0  0  0  0  0  0  0  0  0  0
    1.0007   -0.1891   -1.7336 C   0  0  0  0  0  0  0  0  0  0  0  0
   -2.2125   -0.1228    0.5379 C   0  0  0  0  0  0  0  0  0  0  0  0
    0.4740    1.5356    0.0491 C   0  0  0  0  0  0  0  0  0  0  0  0
    2.5061   -0.1851   -1.5433 C   0  0  0  0  0  0  0  0  0  0  0  0
   -3.6481   -0.5296    0.3222 C   0  0  0  0  0  0  0  0  0  0  0  0
    1.5061    1.7299    0.9450 C   0  0  0  0  0  0  0  0  0  0  0  0
   -0.3050    2.5784   -0.4105 C   0  0  0  0  0  0  0  0  0  0  0  0
    3.1020   -1.0843   -0.5269 C   0  0  0  0  0  0  0  0  0  0  0  0
   -4.5901    0.4377    0.0054 C   0  0  0  0  0  0  0  0  0  0  0  0
   -4.0037   -1.8648    0.4434 C   0  0  0  0  0  0  0  0  0  0  0  0
    1.7702    3.0215    1.4008 C   0  0  0  0  0  0  0  0  0  0  0  0
   -0.0408    3.8700    0.0454 C   0  0  0  0  0  0  0  0  0  0  0  0
    3.2967    0.5900   -2.3057 C   0  0  0  0  0  0  0  0  0  0  0  0
    0.9969    4.0915    0.9509 C   0  0  0  0  0  0  0  0  0  0  0  0
    4.2914   -0.7208    0.0742 C   0  0  0  0  0  0  0  0  0  0  0  0
    2.4513   -2.2606   -0.2092 C   0  0  0  0  0  0  0  0  0  0  0  0
   -5.9183    0.0615   -0.1945 C   0  0  0  0  0  0  0  0  0  0  0  0
   -5.3319   -2.2409    0.2434 C   0  0  0  0  0  0  0  0  0  0  0  0
   -6.2892   -1.2777   -0.0755 C   0  0  0  0  0  0  0  0  0  0  0  0
    4.8524   -1.5671    1.0306 C   0  0  0  0  0  0  0  0  0  0  0  0
    3.0123   -3.1068    0.7474 C   0  0  0  0  0  0  0  0  0  0  0  0
    4.2129   -2.7600    1.3672 C   0  0  0  0  0  0  0  0  0  0  0  0
    0.4658   -0.5698    0.3514 H   0  0  0  0  0  0  0  0  0  0  0  0
   -1.7313    0.5275   -1.4861 H   0  0  0  0  0  0  0  0  0  0  0  0
   -1.4029   -1.1403   -1.1508 H   0  0  0  0  0  0  0  0  0  0  0  0
    0.7237    0.5399   -2.5086 H   0  0  0  0  0  0  0  0  0  0  0  0
    0.6980   -1.1616   -2.1426 H   0  0  0  0  0  0  0  0  0  0  0  0
   -2.1987    0.8739    0.9967 H   0  0  0  0  0  0  0  0  0  0  0  0
   -1.7729   -0.7859    1.2955 H   0  0  0  0  0  0  0  0  0  0  0  0
    2.0991    0.9066    1.3268 H   0  0  0  0  0  0  0  0  0  0  0  0
   -1.1023    2.4566   -1.1334 H   0  0  0  0  0  0  0  0  0  0  0  0
   -4.3102    1.4829   -0.0920 H   0  0  0  0  0  0  0  0  0  0  0  0
   -3.2652   -2.6226    0.6891 H   0  0  0  0  0  0  0  0  0  0  0  0
    2.5742    3.1931    2.1105 H   0  0  0  0  0  0  0  0  0  0  0  0
   -0.6389    4.7046   -0.3090 H   0  0  0  0  0  0  0  0  0  0  0  0
    2.8650    1.2425   -3.0594 H   0  0  0  0  0  0  0  0  0  0  0  0
    4.3790    0.5992   -2.2464 H   0  0  0  0  0  0  0  0  0  0  0  0
    1.2025    5.0971    1.3057 H   0  0  0  0  0  0  0  0  0  0  0  0
    4.8052    0.2123   -0.1355 H   0  0  0  0  0  0  0  0  0  0  0  0
    1.5276   -2.5768   -0.6823 H   0  0  0  0  0  0  0  0  0  0  0  0
   -6.6635    0.8113   -0.4435 H   0  0  0  0  0  0  0  0  0  0  0  0
   -5.6208   -3.2839    0.3353 H   0  0  0  0  0  0  0  0  0  0  0  0
   -7.3233   -1.5707   -0.2316 H   0  0  0  0  0  0  0  0  0  0  0  0
    5.7834   -1.2942    1.5188 H   0  0  0  0  0  0  0  0  0  0  0  0
    2.5169   -4.0378    1.0070 H   0  0  0  0  0  0  0  0  0  0  0  0
    4.6491   -3.4185    2.1125 H   0  0  0  0  0  0  0  0  0  0  0  0
  1  2  1  0  0  0  0
  1  3  1  0  0  0  0
  1  5  1  0  0  0  0
  1 25  1  0  0  0  0
  2  4  1  0  0  0  0
  2 26  1  0  0  0  0
  2 27  1  0  0  0  0
  3  6  1  0  0  0  0
  3 28  1  0  0  0  0
  3 29  1  0  0  0  0
  4  7  1  0  0  0  0
  4 30  1  0  0  0  0
  4 31  1  0  0  0  0
  5  8  2  0  0  0  0
  5  9  1  0  0  0  0
  6 10  1  0  0  0  0
  6 15  2  0  0  0  0
  7 11  2  0  0  0  0
  7 12  1  0  0  0  0
  8 13  1  0  0  0  0
  8 32  1  0  0  0  0
  9 14  2  0  0  0  0
  9 33  1  0  0  0  0
 10 17  2  0  0  0  0
 10 18  1  0  0  0  0
 11 19  1  0  0  0  0
 11 34  1  0  0  0  0
 12 20  2  0  0  0  0
 12 35  1  0  0  0  0
 13 16  2  0  0  0  0
 13 36  1  0  0  0  0
 14 16  1  0  0  0  0
 14 37  1  0  0  0  0
 15 38  1  0  0  0  0
 15 39  1  0  0  0  0
 16 40  1  0  0  0  0
 17 22  1  0  0  0  0
 17 41  1  0  0  0  0
 18 23  2  0  0  0  0
 18 42  1  0  0  0  0
 19 21  2  0  0  0  0
 19 43  1  0  0  0  0
 20 21  1  0  0  0  0
 20 44  1  0  0  0  0
 21 45  1  0  0  0  0
 22 24  2  0  0  0  0
 22 46  1  0  0  0  0
 23 24  1  0  0  0  0
 23 47  1  0  0  0  0
 24 48  1  0  0  0  0
M  END
> <PUBCHEM_COMPOUND_CID>
177033

> <PUBCHEM_CONFORMER_RMSD>
0.8

> <PUBCHEM_CONFORMER_DIVERSEORDER>
1
67
33
29
125
122
112
103
117
5
63
115
64
61
20
110
113
84
82
74
62
37
101
109
120
46
88
49
95
28
68
41
22
89
97
132
114
90
42
78
6
26
138
56
139
34
102
73
60
98
15
123
2
77
128
92
39
133
107
119
14
66
32
116
13
108
27
76
121
130
7
124
105
38
8
104
134
93
3
126
80
127
100
51
106
129
83
118
79
75
4
58
10
31
71
44
131
87
21
136
30
43
53
70
135
91
47
55
137
57
69
16
12
65
96
9
85
45
59
18
11
40
17
54
86
99
50
36
24
111
94
23
25
48
81
72
35
52
19

> <PUBCHEM_MMFF94_PARTIAL_CHARGES>
40
1 0.14
10 0.03
11 -0.15
12 -0.15
13 -0.15
14 -0.15
15 -0.3
16 -0.15
17 -0.15
18 -0.15
19 -0.15
20 -0.15
21 -0.15
22 -0.15
23 -0.15
24 -0.15
3 0.14
32 0.15
33 0.15
34 0.15
35 0.15
36 0.15
37 0.15
38 0.15
39 0.15
4 0.14
40 0.15
41 0.15
42 0.15
43 0.15
44 0.15
45 0.15
46 0.15
47 0.15
48 0.15
5 -0.14
6 -0.17
7 -0.14
8 -0.15
9 -0.15

> <PUBCHEM_EFFECTIVE_ROTOR_COUNT>
7

> <PUBCHEM_PHARMACOPHORE_FEATURES>
5
1 15 hydrophobe
5 1 2 3 4 6 hydrophobe
6 10 17 18 22 23 24 rings
6 5 8 9 13 14 16 rings
6 7 11 12 19 20 21 rings

> <PUBCHEM_HEAVY_ATOM_COUNT>
24

> <PUBCHEM_ATOM_DEF_STEREO_COUNT>
0

> <PUBCHEM_ATOM_UDEF_STEREO_COUNT>
1

> <PUBCHEM_BOND_DEF_STEREO_COUNT>
0

> <PUBCHEM_BOND_UDEF_STEREO_COUNT>
0

> <PUBCHEM_ISOTOPIC_ATOM_COUNT>
0

> <PUBCHEM_COMPONENT_COUNT>
1

> <PUBCHEM_CACTVS_TAUTO_COUNT>
1

> <PUBCHEM_CONFORMER_ID>
0002B38900000001

> <PUBCHEM_MMFF94_ENERGY>
75.2725

> <PUBCHEM_FEATURE_SELFOVERLAP>
25.371

> <PUBCHEM_SHAPE_FINGERPRINT>
11405975 8 18334566907704702835
11963148 33 17542514830050397383
12160290 23 17620440925070981417
12516196 113 18409452509093046291
12553582 1 18191843769293809731
12788726 201 18196075849815818178
12895837 130 7707441860008735242
133893 2 17753924660297610900
13533116 47 18341049598097591747
13583140 156 18338528456304672143
13631057 29 18268988855848369362
13955234 65 18120369861601721481
14068700 675 18200594834417333586
14251751 18 18060425754343652279
14251757 17 16271059584549997290
14466204 15 18263078972084740769
15420108 30 17315652707253842284
15927050 60 17830738647712019036
17492 89 18050573134270172786
17857418 61 18413109459656751319
17980427 23 16661227848497839981
18222031 100 17895464895114526135
18681886 176 17313933113547883197
20369508 70 18336261262964077239
20567600 70 18410857637777165315
20642791 105 17912372218548715845
20832881 197 18343020017164968579
21033648 29 16298948783352305891
21250096 35 18341048605279579811
21344244 78 17386006144336492097
23557571 272 17898285263131437220
23559900 14 18129659678536735301
244849 19 18127721299540278709
3004659 81 18059850696856610438
3411729 13 17969787371832733280
3421961 26 18409735027867889009
345986 75 18057898032824742250
4058900 60 17906721510434892128
463206 1 18343582928095237595
5104073 3 18188759541280017147
7164475 11 18127121099113705836
7495541 125 18410853231483357503
79837 15 17254556517883943888
9841814 1 18261662697369645101

> <PUBCHEM_SHAPE_MULTIPOLES>
493.91
11.84
4.39
1.44
17.82
3.84
0.54
-11.2
-1.3
-3.15
-2.08
-1.87
0.17
-0.46

> <PUBCHEM_SHAPE_SELFOVERLAP>
1058.63

> <PUBCHEM_SHAPE_VOLUME>
260.2

> <PUBCHEM_COORDINATE_TYPE>
2
5
10

$$$$

