5281231
  -OEChem-07051212553D

 97 99  0     1  0  0  0  0  0999 V2000
   12.0311   -0.7118   -0.3332 O   0  0  0  0  0  0  0  0  0  0  0  0
   10.9589    0.2125   -0.1255 C   0  0  2  0  0  0  0  0  0  0  0  0
   11.6942    0.1445   -1.4409 C   0  0  1  0  0  0  0  0  0  0  0  0
   11.2328    1.3287    0.8583 C   0  0  0  0  0  0  0  0  0  0  0  0
   12.7828    1.1081   -1.7879 C   0  0  0  0  0  0  0  0  0  0  0  0
   12.5775    2.0367    0.5530 C   0  0  0  0  0  0  0  0  0  0  0  0
   12.7454    2.3702   -0.9306 C   0  0  0  0  0  0  0  0  0  0  0  0
   11.1384   -0.6352   -2.5863 C   0  0  0  0  0  0  0  0  0  0  0  0
    9.5839   -0.3213   -0.1184 C   0  0  0  0  0  0  0  0  0  0  0  0
   10.0736    2.3433    0.7856 C   0  0  0  0  0  0  0  0  0  0  0  0
   11.2816    0.7549    2.2855 C   0  0  0  0  0  0  0  0  0  0  0  0
    9.1447   -1.3399    0.6396 C   0  0  0  0  0  0  0  0  0  0  0  0
    7.7895   -1.8687    0.6124 C   0  0  0  0  0  0  0  0  0  0  0  0
    7.7232   -3.3687    0.7268 C   0  0  0  0  0  0  0  0  0  0  0  0
    6.6631   -1.1341    0.5138 C   0  0  0  0  0  0  0  0  0  0  0  0
    5.3020   -1.6312    0.4843 C   0  0  0  0  0  0  0  0  0  0  0  0
  -12.8698    0.5471    0.5796 C   0  0  0  0  0  0  0  0  0  0  0  0
    4.2286   -0.8294    0.3839 C   0  0  0  0  0  0  0  0  0  0  0  0
  -14.1587   -0.2821    0.3264 C   0  0  0  0  0  0  0  0  0  0  0  0
  -13.8875   -1.7758    0.3116 C   0  0  0  0  0  0  0  0  0  0  0  0
  -11.6814    0.0226   -0.2601 C   0  0  0  0  0  0  0  0  0  0  0  0
  -12.9015   -2.1155   -0.7959 C   0  0  0  0  0  0  0  0  0  0  0  0
  -11.7191   -1.1735   -0.8997 C   0  0  0  0  0  0  0  0  0  0  0  0
  -12.5127    0.4748    2.0821 C   0  0  0  0  0  0  0  0  0  0  0  0
  -13.2296    2.0118    0.2293 C   0  0  0  0  0  0  0  0  0  0  0  0
    2.8357   -1.2780    0.3560 C   0  0  0  0  0  0  0  0  0  0  0  0
  -10.5104    0.8834   -0.2986 C   0  0  0  0  0  0  0  0  0  0  0  0
  -10.6292   -1.7376   -1.7817 C   0  0  0  0  0  0  0  0  0  0  0  0
    2.6972   -2.7770    0.4009 C   0  0  0  0  0  0  0  0  0  0  0  0
    1.8190   -0.3972    0.2526 C   0  0  0  0  0  0  0  0  0  0  0  0
   -9.2540    0.4171   -0.2196 C   0  0  0  0  0  0  0  0  0  0  0  0
   -8.0208    1.2111   -0.2494 C   0  0  0  0  0  0  0  0  0  0  0  0
    0.3983   -0.6851    0.2125 C   0  0  0  0  0  0  0  0  0  0  0  0
   -8.1679    2.7069   -0.3784 C   0  0  0  0  0  0  0  0  0  0  0  0
   -6.8405    0.5612   -0.1571 C   0  0  0  0  0  0  0  0  0  0  0  0
   -0.5922    0.2179    0.1086 C   0  0  0  0  0  0  0  0  0  0  0  0
   -5.5080    1.1355   -0.1617 C   0  0  0  0  0  0  0  0  0  0  0  0
   -2.0175   -0.0348    0.0659 C   0  0  0  0  0  0  0  0  0  0  0  0
   -4.3974    0.3843   -0.0632 C   0  0  0  0  0  0  0  0  0  0  0  0
   -3.0153    0.8683   -0.0383 C   0  0  0  0  0  0  0  0  0  0  0  0
   -2.7881    2.3559   -0.1424 C   0  0  0  0  0  0  0  0  0  0  0  0
   12.7128    1.4066   -2.8410 H   0  0  0  0  0  0  0  0  0  0  0  0
   13.7558    0.6143   -1.6711 H   0  0  0  0  0  0  0  0  0  0  0  0
   12.6626    2.9571    1.1441 H   0  0  0  0  0  0  0  0  0  0  0  0
   13.4153    1.3960    0.8599 H   0  0  0  0  0  0  0  0  0  0  0  0
   11.9285    3.0201   -1.2638 H   0  0  0  0  0  0  0  0  0  0  0  0
   13.6737    2.9340   -1.0790 H   0  0  0  0  0  0  0  0  0  0  0  0
   10.6054   -1.5403   -2.2763 H   0  0  0  0  0  0  0  0  0  0  0  0
   11.9424   -0.9590   -3.2567 H   0  0  0  0  0  0  0  0  0  0  0  0
   10.4478   -0.0139   -3.1660 H   0  0  0  0  0  0  0  0  0  0  0  0
    8.8901    0.1633   -0.8031 H   0  0  0  0  0  0  0  0  0  0  0  0
    9.1331    1.9347    1.1728 H   0  0  0  0  0  0  0  0  0  0  0  0
   10.2972    3.2318    1.3877 H   0  0  0  0  0  0  0  0  0  0  0  0
    9.8866    2.6776   -0.2409 H   0  0  0  0  0  0  0  0  0  0  0  0
   12.0258   -0.0453    2.3681 H   0  0  0  0  0  0  0  0  0  0  0  0
   10.3187    0.3423    2.6034 H   0  0  0  0  0  0  0  0  0  0  0  0
   11.5504    1.5340    3.0085 H   0  0  0  0  0  0  0  0  0  0  0  0
    9.8404   -1.8409    1.3090 H   0  0  0  0  0  0  0  0  0  0  0  0
    7.4238   -3.6636    1.7383 H   0  0  0  0  0  0  0  0  0  0  0  0
    7.0266   -3.8049    0.0030 H   0  0  0  0  0  0  0  0  0  0  0  0
    8.6941   -3.8356    0.5215 H   0  0  0  0  0  0  0  0  0  0  0  0
    6.7577   -0.0504    0.4508 H   0  0  0  0  0  0  0  0  0  0  0  0
    5.1877   -2.7056    0.5634 H   0  0  0  0  0  0  0  0  0  0  0  0
    4.3805    0.2471    0.3171 H   0  0  0  0  0  0  0  0  0  0  0  0
  -14.9155   -0.0573    1.0887 H   0  0  0  0  0  0  0  0  0  0  0  0
  -14.6029    0.0005   -0.6385 H   0  0  0  0  0  0  0  0  0  0  0  0
  -14.8223   -2.3252    0.1515 H   0  0  0  0  0  0  0  0  0  0  0  0
  -13.4944   -2.1052    1.2802 H   0  0  0  0  0  0  0  0  0  0  0  0
  -13.4274   -2.1126   -1.7594 H   0  0  0  0  0  0  0  0  0  0  0  0
  -12.5448   -3.1399   -0.6309 H   0  0  0  0  0  0  0  0  0  0  0  0
  -11.6808    1.1448    2.3290 H   0  0  0  0  0  0  0  0  0  0  0  0
  -13.3634    0.7728    2.7055 H   0  0  0  0  0  0  0  0  0  0  0  0
  -12.2154   -0.5357    2.3828 H   0  0  0  0  0  0  0  0  0  0  0  0
  -14.1689    2.3089    0.7114 H   0  0  0  0  0  0  0  0  0  0  0  0
  -12.4689    2.7209    0.5731 H   0  0  0  0  0  0  0  0  0  0  0  0
  -13.3562    2.1439   -0.8516 H   0  0  0  0  0  0  0  0  0  0  0  0
  -10.6891    1.9431   -0.4381 H   0  0  0  0  0  0  0  0  0  0  0  0
  -11.0758   -2.2905   -2.6173 H   0  0  0  0  0  0  0  0  0  0  0  0
  -10.0064   -0.9730   -2.2524 H   0  0  0  0  0  0  0  0  0  0  0  0
  -10.0028   -2.4390   -1.2218 H   0  0  0  0  0  0  0  0  0  0  0  0
    3.2084   -3.2500   -0.4456 H   0  0  0  0  0  0  0  0  0  0  0  0
    3.0916   -3.1824    1.3399 H   0  0  0  0  0  0  0  0  0  0  0  0
    1.6590   -3.1128    0.3438 H   0  0  0  0  0  0  0  0  0  0  0  0
    2.0607    0.6649    0.2054 H   0  0  0  0  0  0  0  0  0  0  0  0
   -9.0935   -0.6445   -0.0422 H   0  0  0  0  0  0  0  0  0  0  0  0
    0.1069   -1.7296    0.2744 H   0  0  0  0  0  0  0  0  0  0  0  0
   -8.7479    3.1091    0.4599 H   0  0  0  0  0  0  0  0  0  0  0  0
   -8.6776    2.9626   -1.3141 H   0  0  0  0  0  0  0  0  0  0  0  0
   -7.2182    3.2454   -0.3848 H   0  0  0  0  0  0  0  0  0  0  0  0
   -6.8547   -0.5258   -0.0681 H   0  0  0  0  0  0  0  0  0  0  0  0
   -0.2834    1.2577    0.0496 H   0  0  0  0  0  0  0  0  0  0  0  0
   -5.4245    2.2124   -0.2396 H   0  0  0  0  0  0  0  0  0  0  0  0
   -2.2745   -1.0925    0.1311 H   0  0  0  0  0  0  0  0  0  0  0  0
   -4.5156   -0.6966    0.0152 H   0  0  0  0  0  0  0  0  0  0  0  0
   -3.2722    2.8739    0.6933 H   0  0  0  0  0  0  0  0  0  0  0  0
   -1.7397    2.6572   -0.1263 H   0  0  0  0  0  0  0  0  0  0  0  0
   -3.2056    2.7401   -1.0801 H   0  0  0  0  0  0  0  0  0  0  0  0
  1  2  1  0  0  0  0
  1  3  1  0  0  0  0
  2  3  1  0  0  0  0
  2  4  1  0  0  0  0
  2  9  1  0  0  0  0
  3  5  1  0  0  0  0
  3  8  1  0  0  0  0
  4  6  1  0  0  0  0
  4 10  1  0  0  0  0
  4 11  1  0  0  0  0
  5  7  1  0  0  0  0
  5 42  1  0  0  0  0
  5 43  1  0  0  0  0
  6  7  1  0  0  0  0
  6 44  1  0  0  0  0
  6 45  1  0  0  0  0
  7 46  1  0  0  0  0
  7 47  1  0  0  0  0
  8 48  1  0  0  0  0
  8 49  1  0  0  0  0
  8 50  1  0  0  0  0
  9 12  2  0  0  0  0
  9 51  1  0  0  0  0
 10 52  1  0  0  0  0
 10 53  1  0  0  0  0
 10 54  1  0  0  0  0
 11 55  1  0  0  0  0
 11 56  1  0  0  0  0
 11 57  1  0  0  0  0
 12 13  1  0  0  0  0
 12 58  1  0  0  0  0
 13 14  1  0  0  0  0
 13 15  2  0  0  0  0
 14 59  1  0  0  0  0
 14 60  1  0  0  0  0
 14 61  1  0  0  0  0
 15 16  1  0  0  0  0
 15 62  1  0  0  0  0
 16 18  2  0  0  0  0
 16 63  1  0  0  0  0
 17 19  1  0  0  0  0
 17 21  1  0  0  0  0
 17 24  1  0  0  0  0
 17 25  1  0  0  0  0
 18 26  1  0  0  0  0
 18 64  1  0  0  0  0
 19 20  1  0  0  0  0
 19 65  1  0  0  0  0
 19 66  1  0  0  0  0
 20 22  1  0  0  0  0
 20 67  1  0  0  0  0
 20 68  1  0  0  0  0
 21 23  2  0  0  0  0
 21 27  1  0  0  0  0
 22 23  1  0  0  0  0
 22 69  1  0  0  0  0
 22 70  1  0  0  0  0
 23 28  1  0  0  0  0
 24 71  1  0  0  0  0
 24 72  1  0  0  0  0
 24 73  1  0  0  0  0
 25 74  1  0  0  0  0
 25 75  1  0  0  0  0
 25 76  1  0  0  0  0
 26 29  1  0  0  0  0
 26 30  2  0  0  0  0
 27 31  2  0  0  0  0
 27 77  1  0  0  0  0
 28 78  1  0  0  0  0
 28 79  1  0  0  0  0
 28 80  1  0  0  0  0
 29 81  1  0  0  0  0
 29 82  1  0  0  0  0
 29 83  1  0  0  0  0
 30 33  1  0  0  0  0
 30 84  1  0  0  0  0
 31 32  1  0  0  0  0
 31 85  1  0  0  0  0
 32 34  1  0  0  0  0
 32 35  2  0  0  0  0
 33 36  2  0  0  0  0
 33 86  1  0  0  0  0
 34 87  1  0  0  0  0
 34 88  1  0  0  0  0
 34 89  1  0  0  0  0
 35 37  1  0  0  0  0
 35 90  1  0  0  0  0
 36 38  1  0  0  0  0
 36 91  1  0  0  0  0
 37 39  2  0  0  0  0
 37 92  1  0  0  0  0
 38 40  2  0  0  0  0
 38 93  1  0  0  0  0
 39 40  1  0  0  0  0
 39 94  1  0  0  0  0
 40 41  1  0  0  0  0
 41 95  1  0  0  0  0
 41 96  1  0  0  0  0
 41 97  1  0  0  0  0
M  END
> <PUBCHEM_COMPOUND_CID>
5281231

> <PUBCHEM_CONFORMER_RMSD>
1.2

> <PUBCHEM_CONFORMER_DIVERSEORDER>
15
176
168
287
162
6
198
188
213
272
34
263
239
35
63
28
231
219
247
78
145
21
205
166
240
33
37
211
121
232
256
149
94
164
151
65
156
180
202
261
7
253
126
165
285
217
244
264
163
216
40
127
268
115
286
45
66
191
144
19
224
59
72
227
31
172
96
67
177
161
190
24
214
56
170
267
124
152
153
260
36
265
2
250
70
32
91
206
292
194
52
271
280
25
203
234
85
41
221
187
173
183
295
27
104
95
189
55
294
1
196
279
89
90
158
186
68
137
275
212
5
174
17
143
88
169
160
44
255
193
109
98
246
51
228
184
43
215
208
252
97
220
110
10
64
266
30
50
8
185
102
133
181
262
200
201
147
81
210
282
249
179
222
129
99
242
155
107
157
142
14
226
135
38
223
117
118
74
105
114
276
13
257
60
167
258
233
192
159
209
225
125
245
46
237
120
199
283
100
171
150
39
122
111
204
289
112
291
62
61
49
83
80
235
87
281
146
113
248
195
130
128
218
274
79
273
269
71
53
84
9
73
132
259
106
22
288
230
134
75
229
278
139
119
148
103
251
254
3
243
154
82
197
12
178
141
23
54
207
47
136
277
175
16
238
131
290
48
76
241
138
18
116
182
284
140
92
236
11
123
4
69
108
293
20
270
57
86
93
26
101
29
42
58
77

> <PUBCHEM_MMFF94_PARTIAL_CHARGES>
47
1 -0.3
12 -0.15
13 -0.14
14 0.14
15 -0.15
16 -0.15
17 0.14
18 -0.15
2 0.09
21 -0.14
22 0.14
23 -0.28
26 -0.14
27 -0.15
28 0.14
29 0.14
3 -0.04
30 -0.15
31 -0.15
32 -0.14
33 -0.15
34 0.14
35 -0.15
36 -0.15
37 -0.15
38 -0.15
39 -0.15
4 0.09
40 -0.14
41 0.14
5 0.09
51 0.15
58 0.15
62 0.15
63 0.15
64 0.15
77 0.15
8 0.09
84 0.15
85 0.15
86 0.15
9 -0.19
90 0.15
91 0.15
92 0.15
93 0.15
94 0.15

> <PUBCHEM_EFFECTIVE_ROTOR_COUNT>
11.8

> <PUBCHEM_PHARMACOPHORE_FEATURES>
9
1 1 acceptor
1 14 hydrophobe
1 29 hydrophobe
1 34 hydrophobe
1 41 hydrophobe
3 17 24 25 hydrophobe
3 4 10 11 hydrophobe
6 17 19 20 21 22 23 rings
7 1 2 3 4 5 6 7 rings

> <PUBCHEM_HEAVY_ATOM_COUNT>
41

> <PUBCHEM_ATOM_DEF_STEREO_COUNT>
0

> <PUBCHEM_ATOM_UDEF_STEREO_COUNT>
2

> <PUBCHEM_BOND_DEF_STEREO_COUNT>
9

> <PUBCHEM_BOND_UDEF_STEREO_COUNT>
0

> <PUBCHEM_ISOTOPIC_ATOM_COUNT>
0

> <PUBCHEM_COMPONENT_COUNT>
1

> <PUBCHEM_CACTVS_TAUTO_COUNT>
1

> <PUBCHEM_CONFORMER_ID>
005095CF0000000F

> <PUBCHEM_MMFF94_ENERGY>
105.6726

> <PUBCHEM_FEATURE_SELFOVERLAP>
45.669

> <PUBCHEM_SHAPE_FINGERPRINT>
12013929 2 8070022273202217799
12013929 94 18409167719387727923
12559415 86 14418127439857911379
12559415 90 11600005457340660951
14251920 17 18272088301005132396
14344974 52 18410577279396648424
14359421 15 4967342254576083132
15061470 23 18060140981386037365
15145343 36 18187933854848786727
15145343 6 17603595131243186603
15538507 75 6843923875361427401
16728433 110 18413671318034208776
21026386 69 17561092445555901684
232437 2 18411140264807346451
3092352 35 18340770438451320578
9663363 56 14979955873943759647
9937071 3 10159695803675680604

> <PUBCHEM_SHAPE_MULTIPOLES>
837.89
89.44
2.71
1.41
61.24
0.4
-0.25
-13.9
-7.15
-2.45
0.15
-3.15
0.03
-2.05

> <PUBCHEM_SHAPE_SELFOVERLAP>
1712.578

> <PUBCHEM_SHAPE_VOLUME>
485.3

> <PUBCHEM_COORDINATE_TYPE>
2
5
10

$$$$

