92158
  -OEChem-07051213092D

 79 83  0     1  0  0  0  0  0999 V2000
    2.0000   -2.6896    0.0000 O   0  0  0  0  0  0  0  0  0  0  0  0
    7.3931   -0.6372    0.0000 C   0  0  1  0  0  0  0  0  0  0  0  0
    6.5271   -1.1372    0.0000 C   0  0  1  0  0  0  0  0  0  0  0  0
    7.3931    0.3628    0.0000 C   0  0  1  0  0  0  0  0  0  0  0  0
    5.6610   -0.6372    0.0000 C   0  0  1  0  0  0  0  0  0  0  0  0
    8.2870    0.8974    0.0000 C   0  0  2  0  0  0  0  0  0  0  0  0
    4.7510   -1.1441    0.0000 C   0  0  2  0  0  0  0  0  0  0  0  0
    9.1931    0.3836    0.0000 C   0  0  1  0  0  0  0  0  0  0  0  0
    8.2870   -1.1719    0.0000 C   0  0  0  0  0  0  0  0  0  0  0  0
    4.7430   -2.1857    0.0000 C   0  0  1  0  0  0  0  0  0  0  0  0
    6.5271    0.8628    0.0000 C   0  0  0  0  0  0  0  0  0  0  0  0
    5.6610    0.3628    0.0000 C   0  0  0  0  0  0  0  0  0  0  0  0
    6.5431   -2.1788    0.0000 C   0  0  0  0  0  0  0  0  0  0  0  0
    9.1931   -0.6581    0.0000 C   0  0  0  0  0  0  0  0  0  0  0  0
    8.4971    1.9113    0.0000 C   0  0  1  0  0  0  0  0  0  0  0  0
    5.6451   -2.7065    0.0000 C   0  0  0  0  0  0  0  0  0  0  0  0
    9.9554    1.0843    0.0000 C   0  0  0  0  0  0  0  0  0  0  0  0
    7.7352   -1.5769    0.0000 C   0  0  0  0  0  0  0  0  0  0  0  0
    7.1698   -1.9033    0.0000 C   0  0  0  0  0  0  0  0  0  0  0  0
    3.8242   -0.5800    0.0000 C   0  0  0  0  0  0  0  0  0  0  0  0
    3.8076   -2.7354    0.0000 C   0  0  0  0  0  0  0  0  0  0  0  0
    9.5262    2.0266    0.0000 C   0  0  0  0  0  0  0  0  0  0  0  0
    4.7587   -0.1441    0.0000 C   0  0  0  0  0  0  0  0  0  0  0  0
   10.0629   -0.1097    0.0000 C   0  0  0  0  0  0  0  0  0  0  0  0
    2.8763   -1.1080    0.0000 C   0  0  0  0  0  0  0  0  0  0  0  0
    2.8680   -2.1929    0.0000 C   0  0  0  0  0  0  0  0  0  0  0  0
    7.8236    2.6505    0.0000 C   0  0  0  0  0  0  0  0  0  0  0  0
    3.3109   -3.6034    0.0000 C   0  0  0  0  0  0  0  0  0  0  0  0
    4.3109   -3.5995    0.0000 C   0  0  0  0  0  0  0  0  0  0  0  0
    8.1269    3.6034    0.0000 C   0  0  0  0  0  0  0  0  0  0  0  0
    6.8467    2.4367    0.0000 C   0  0  0  0  0  0  0  0  0  0  0  0
    7.3865    1.2127    0.0000 H   0  0  0  0  0  0  0  0  0  0  0  0
    6.3972   -0.2122    0.0000 H   0  0  0  0  0  0  0  0  0  0  0  0
    7.5943    1.3900    0.0000 H   0  0  0  0  0  0  0  0  0  0  0  0
    7.8824   -1.6417    0.0000 H   0  0  0  0  0  0  0  0  0  0  0  0
    8.6806   -1.6509    0.0000 H   0  0  0  0  0  0  0  0  0  0  0  0
    4.7463   -3.0357    0.0000 H   0  0  0  0  0  0  0  0  0  0  0  0
    6.9256    1.3377    0.0000 H   0  0  0  0  0  0  0  0  0  0  0  0
    6.1285    1.3377    0.0000 H   0  0  0  0  0  0  0  0  0  0  0  0
    5.4490    0.9454    0.0000 H   0  0  0  0  0  0  0  0  0  0  0  0
    5.0504    0.2551    0.0000 H   0  0  0  0  0  0  0  0  0  0  0  0
    6.7612   -2.7592    0.0000 H   0  0  0  0  0  0  0  0  0  0  0  0
    7.1523   -2.0632    0.0000 H   0  0  0  0  0  0  0  0  0  0  0  0
    9.4022   -1.2418    0.0000 H   0  0  0  0  0  0  0  0  0  0  0  0
    9.8040   -0.5520    0.0000 H   0  0  0  0  0  0  0  0  0  0  0  0
    7.8992    1.7476    0.0000 H   0  0  0  0  0  0  0  0  0  0  0  0
    5.2478   -3.1825    0.0000 H   0  0  0  0  0  0  0  0  0  0  0  0
    6.0460   -3.1794    0.0000 H   0  0  0  0  0  0  0  0  0  0  0  0
   10.3247    0.5863    0.0000 H   0  0  0  0  0  0  0  0  0  0  0  0
   10.4895    1.3992    0.0000 H   0  0  0  0  0  0  0  0  0  0  0  0
    7.1526   -1.7890    0.0000 H   0  0  0  0  0  0  0  0  0  0  0  0
    7.9473   -2.1595    0.0000 H   0  0  0  0  0  0  0  0  0  0  0  0
    8.3178   -1.3648    0.0000 H   0  0  0  0  0  0  0  0  0  0  0  0
    6.6949   -2.3018    0.0000 H   0  0  0  0  0  0  0  0  0  0  0  0
    7.5684   -2.3782    0.0000 H   0  0  0  0  0  0  0  0  0  0  0  0
    7.6448   -1.5048    0.0000 H   0  0  0  0  0  0  0  0  0  0  0  0
    4.2324   -0.1134    0.0000 H   0  0  0  0  0  0  0  0  0  0  0  0
    3.4343   -0.0980    0.0000 H   0  0  0  0  0  0  0  0  0  0  0  0
   10.1143    2.2229    0.0000 H   0  0  0  0  0  0  0  0  0  0  0  0
    9.3928    2.6321    0.0000 H   0  0  0  0  0  0  0  0  0  0  0  0
    5.3787   -0.1489    0.0000 H   0  0  0  0  0  0  0  0  0  0  0  0
    4.7635    0.4759    0.0000 H   0  0  0  0  0  0  0  0  0  0  0  0
    4.1388   -0.1393    0.0000 H   0  0  0  0  0  0  0  0  0  0  0  0
    9.7571   -0.6490    0.0000 H   0  0  0  0  0  0  0  0  0  0  0  0
   10.6023   -0.4156    0.0000 H   0  0  0  0  0  0  0  0  0  0  0  0
   10.3688    0.4296    0.0000 H   0  0  0  0  0  0  0  0  0  0  0  0
    2.6718   -0.5227    0.0000 H   0  0  0  0  0  0  0  0  0  0  0  0
    2.2647   -1.2093    0.0000 H   0  0  0  0  0  0  0  0  0  0  0  0
    2.7728   -3.2954    0.0000 H   0  0  0  0  0  0  0  0  0  0  0  0
    3.0030   -4.1415    0.0000 H   0  0  0  0  0  0  0  0  0  0  0  0
    3.8490   -3.9113    0.0000 H   0  0  0  0  0  0  0  0  0  0  0  0
    3.7752   -3.9116    0.0000 H   0  0  0  0  0  0  0  0  0  0  0  0
    4.6230   -4.1352    0.0000 H   0  0  0  0  0  0  0  0  0  0  0  0
    4.8466   -3.2874    0.0000 H   0  0  0  0  0  0  0  0  0  0  0  0
    8.7177    3.4153    0.0000 H   0  0  0  0  0  0  0  0  0  0  0  0
    8.3150    4.1941    0.0000 H   0  0  0  0  0  0  0  0  0  0  0  0
    7.5361    3.7914    0.0000 H   0  0  0  0  0  0  0  0  0  0  0  0
    6.4291    2.8950    0.0000 H   0  0  0  0  0  0  0  0  0  0  0  0
    6.6586    1.8459    0.0000 H   0  0  0  0  0  0  0  0  0  0  0  0
  1 26  2  0  0  0  0
  2  3  1  0  0  0  0
  2  4  1  0  0  0  0
  2  9  1  0  0  0  0
  2 18  1  6  0  0  0
  3  5  1  0  0  0  0
  3 13  1  0  0  0  0
  3 19  1  1  0  0  0
  4  6  1  0  0  0  0
  4 11  1  0  0  0  0
  4 32  1  1  0  0  0
  5  7  1  0  0  0  0
  5 12  1  0  0  0  0
  5 33  1  6  0  0  0
  6  8  1  0  0  0  0
  6 15  1  0  0  0  0
  6 34  1  6  0  0  0
  7 10  1  0  0  0  0
  7 20  1  0  0  0  0
  7 23  1  1  0  0  0
  8 14  1  0  0  0  0
  8 17  1  0  0  0  0
  8 24  1  1  0  0  0
  9 14  1  0  0  0  0
  9 35  1  0  0  0  0
  9 36  1  0  0  0  0
 10 16  1  0  0  0  0
 10 21  1  0  0  0  0
 10 37  1  6  0  0  0
 11 12  1  0  0  0  0
 11 38  1  0  0  0  0
 11 39  1  0  0  0  0
 12 40  1  0  0  0  0
 12 41  1  0  0  0  0
 13 16  1  0  0  0  0
 13 42  1  0  0  0  0
 13 43  1  0  0  0  0
 14 44  1  0  0  0  0
 14 45  1  0  0  0  0
 15 22  1  0  0  0  0
 15 27  1  6  0  0  0
 15 46  1  0  0  0  0
 16 47  1  0  0  0  0
 16 48  1  0  0  0  0
 17 22  1  0  0  0  0
 17 49  1  0  0  0  0
 17 50  1  0  0  0  0
 18 51  1  0  0  0  0
 18 52  1  0  0  0  0
 18 53  1  0  0  0  0
 19 54  1  0  0  0  0
 19 55  1  0  0  0  0
 19 56  1  0  0  0  0
 20 25  1  0  0  0  0
 20 57  1  0  0  0  0
 20 58  1  0  0  0  0
 21 26  1  0  0  0  0
 21 28  1  0  0  0  0
 21 29  1  0  0  0  0
 22 59  1  0  0  0  0
 22 60  1  0  0  0  0
 23 61  1  0  0  0  0
 23 62  1  0  0  0  0
 23 63  1  0  0  0  0
 24 64  1  0  0  0  0
 24 65  1  0  0  0  0
 24 66  1  0  0  0  0
 25 26  1  0  0  0  0
 25 67  1  0  0  0  0
 25 68  1  0  0  0  0
 27 30  1  0  0  0  0
 27 31  2  0  0  0  0
 28 69  1  0  0  0  0
 28 70  1  0  0  0  0
 28 71  1  0  0  0  0
 29 72  1  0  0  0  0
 29 73  1  0  0  0  0
 29 74  1  0  0  0  0
 30 75  1  0  0  0  0
 30 76  1  0  0  0  0
 30 77  1  0  0  0  0
 31 78  1  0  0  0  0
 31 79  1  0  0  0  0
M  END
> <PUBCHEM_COMPOUND_CID>
92158

> <PUBCHEM_COMPOUND_CANONICALIZED>
1

> <PUBCHEM_CACTVS_COMPLEXITY>
807

> <PUBCHEM_CACTVS_HBOND_ACCEPTOR>
1

> <PUBCHEM_CACTVS_HBOND_DONOR>
0

> <PUBCHEM_CACTVS_ROTATABLE_BOND>
1

> <PUBCHEM_CACTVS_SUBSKEYS>
AAADcfB4IAAAAAAAAAAAAAAAAAAAAYAAAAAwYMGAAAAAAGDAAAAAGgAAAAAADwSAgAACAAAAAACIAoBSAAAAAAAgAAAAAAEAAAgAABIAAQAAAAAAgAAAAAEIiMCPgAAAAAAAAACAAAQAACAAAQAACAAAAA==

> <PUBCHEM_IUPAC_OPENEYE_NAME>
(1R,3aR,5aR,5bR,7aR,11aR,11bR,13aR,13bR)-1-isopropenyl-3a,5a,5b,8,8,11a-hexamethyl-2,3,4,5,6,7,7a,10,11,11b,12,13,13a,13b-tetradecahydro-1H-cyclopenta[a]chrysen-9-one

> <PUBCHEM_IUPAC_CAS_NAME>
(1R,3aR,5aR,5bR,7aR,11aR,11bR,13aR,13bR)-3a,5a,5b,8,8,11a-hexamethyl-1-(1-methylethenyl)-2,3,4,5,6,7,7a,10,11,11b,12,13,13a,13b-tetradecahydro-1H-cyclopenta[a]chrysen-9-one

> <PUBCHEM_IUPAC_NAME>
(1R,3aR,5aR,5bR,7aR,11aR,11bR,13aR,13bR)-3a,5a,5b,8,8,11a-hexamethyl-1-prop-1-en-2-yl-2,3,4,5,6,7,7a,10,11,11b,12,13,13a,13b-tetradecahydro-1H-cyclopenta[a]chrysen-9-one

> <PUBCHEM_IUPAC_SYSTEMATIC_NAME>
(1R,3aR,5aR,5bR,7aR,11aR,11bR,13aR,13bR)-3a,5a,5b,8,8,11a-hexamethyl-1-prop-1-en-2-yl-2,3,4,5,6,7,7a,10,11,11b,12,13,13a,13b-tetradecahydro-1H-cyclopenta[a]chrysen-9-one

> <PUBCHEM_IUPAC_TRADITIONAL_NAME>
(1R,3aR,5aR,5bR,7aR,11aR,11bR,13aR,13bR)-1-isopropenyl-3a,5a,5b,8,8,11a-hexamethyl-2,3,4,5,6,7,7a,10,11,11b,12,13,13a,13b-tetradecahydro-1H-cyclopenta[a]chrysen-9-one

> <PUBCHEM_IUPAC_INCHI>
InChI=1S/C30H48O/c1-19(2)20-11-14-27(5)17-18-29(7)21(25(20)27)9-10-23-28(6)15-13-24(31)26(3,4)22(28)12-16-30(23,29)8/h20-23,25H,1,9-18H2,2-8H3/t20-,21+,22-,23+,25+,27+,28-,29+,30+/m0/s1

> <PUBCHEM_IUPAC_INCHIKEY>
GRBHNQFQFHLCHO-BHMAJAPKSA-N

> <PUBCHEM_XLOGP3_AA>
9.6

> <PUBCHEM_EXACT_MASS>
424.370516

> <PUBCHEM_MOLECULAR_FORMULA>
C30H48O

> <PUBCHEM_MOLECULAR_WEIGHT>
424.70152

> <PUBCHEM_OPENEYE_CAN_SMILES>
CC(=C)C1CCC2(C1C3CCC4C5(CCC(=O)C(C5CCC4(C3(CC2)C)C)(C)C)C)C

> <PUBCHEM_OPENEYE_ISO_SMILES>
CC(=C)[C@@H]1CC[C@]2([C@H]1[C@H]3CC[C@@H]4[C@]5(CCC(=O)C([C@@H]5CC[C@]4([C@@]3(CC2)C)C)(C)C)C)C

> <PUBCHEM_CACTVS_TPSA>
17.1

> <PUBCHEM_MONOISOTOPIC_WEIGHT>
424.370516

> <PUBCHEM_TOTAL_CHARGE>
0

> <PUBCHEM_HEAVY_ATOM_COUNT>
31

> <PUBCHEM_ATOM_DEF_STEREO_COUNT>
9

> <PUBCHEM_ATOM_UDEF_STEREO_COUNT>
0

> <PUBCHEM_BOND_DEF_STEREO_COUNT>
0

> <PUBCHEM_BOND_UDEF_STEREO_COUNT>
0

> <PUBCHEM_ISOTOPIC_ATOM_COUNT>
0

> <PUBCHEM_COMPONENT_COUNT>
1

> <PUBCHEM_CACTVS_TAUTO_COUNT>
2

> <PUBCHEM_COORDINATE_TYPE>
1
5
255

> <PUBCHEM_BONDANNOTATIONS>
10  37  6
15  27  6
2  18  6
3  19  5
4  32  5
5  33  6
6  34  6
7  23  5
8  24  5

$$$$

