3878
  -OEChem-06251223443D

 23 24  0     0  0  0  0  0  0999 V2000
   -1.0017    2.2965   -0.1127 Cl  0  0  0  0  0  0  0  0  0  0  0  0
   -4.1511    1.7166   -0.0594 Cl  0  0  0  0  0  0  0  0  0  0  0  0
    1.2737   -0.0193    1.3300 N   0  0  0  0  0  0  0  0  0  0  0  0
    2.8011   -0.0380   -0.9795 N   0  0  0  0  0  0  0  0  0  0  0  0
    0.8518   -0.4162   -2.2701 N   0  0  0  0  0  0  0  0  0  0  0  0
    2.6087    0.1627    1.4011 N   0  0  0  0  0  0  0  0  0  0  0  0
    4.7019    0.3371    0.3458 N   0  0  0  0  0  0  0  0  0  0  0  0
   -0.7220   -0.3938    0.1420 C   0  0  0  0  0  0  0  0  0  0  0  0
    0.7176   -0.2067    0.1234 C   0  0  0  0  0  0  0  0  0  0  0  0
   -1.6123    0.6751    0.0405 C   0  0  0  0  0  0  0  0  0  0  0  0
   -1.2065   -1.6959    0.2661 C   0  0  0  0  0  0  0  0  0  0  0  0
    1.4719   -0.2158   -1.0158 C   0  0  0  0  0  0  0  0  0  0  0  0
   -2.9875    0.4419    0.0632 C   0  0  0  0  0  0  0  0  0  0  0  0
   -2.5814   -1.9291    0.2888 C   0  0  0  0  0  0  0  0  0  0  0  0
   -3.4719   -0.8603    0.1875 C   0  0  0  0  0  0  0  0  0  0  0  0
    3.3076    0.1451    0.2490 C   0  0  0  0  0  0  0  0  0  0  0  0
   -0.5283   -2.5423    0.3467 H   0  0  0  0  0  0  0  0  0  0  0  0
   -2.9587   -2.9430    0.3855 H   0  0  0  0  0  0  0  0  0  0  0  0
   -4.5402   -1.0612    0.2068 H   0  0  0  0  0  0  0  0  0  0  0  0
    1.4591   -0.4197   -3.0806 H   0  0  0  0  0  0  0  0  0  0  0  0
   -0.1007   -0.0995   -2.4011 H   0  0  0  0  0  0  0  0  0  0  0  0
    5.1228    0.4782    1.2537 H   0  0  0  0  0  0  0  0  0  0  0  0
    5.2642    0.3309   -0.4940 H   0  0  0  0  0  0  0  0  0  0  0  0
  1 10  1  0  0  0  0
  2 13  1  0  0  0  0
  3  6  2  0  0  0  0
  3  9  1  0  0  0  0
  4 12  1  0  0  0  0
  4 16  2  0  0  0  0
  5 12  1  0  0  0  0
  5 20  1  0  0  0  0
  5 21  1  0  0  0  0
  6 16  1  0  0  0  0
  7 16  1  0  0  0  0
  7 22  1  0  0  0  0
  7 23  1  0  0  0  0
  8  9  1  0  0  0  0
  8 10  2  0  0  0  0
  8 11  1  0  0  0  0
  9 12  2  0  0  0  0
 10 13  1  0  0  0  0
 11 14  2  0  0  0  0
 11 17  1  0  0  0  0
 13 15  2  0  0  0  0
 14 15  1  0  0  0  0
 14 18  1  0  0  0  0
 15 19  1  0  0  0  0
M  END
> <PUBCHEM_COMPOUND_CID>
3878

> <PUBCHEM_CONFORMER_RMSD>
0.6

> <PUBCHEM_CONFORMER_DIVERSEORDER>
1
3
2

> <PUBCHEM_MMFF94_PARTIAL_CHARGES>
22
1 -0.18
10 0.18
11 -0.15
12 0.41
13 0.18
14 -0.15
15 -0.15
16 0.72
17 0.15
18 0.15
19 0.15
2 -0.18
20 0.4
21 0.4
22 0.4
23 0.4
3 -0.31
4 -0.62
5 -0.9
6 -0.31
7 -0.9
9 0.31

> <PUBCHEM_EFFECTIVE_ROTOR_COUNT>
1

> <PUBCHEM_PHARMACOPHORE_FEATURES>
6
1 5 cation
1 5 donor
1 7 donor
4 4 6 7 16 cation
6 3 4 6 9 12 16 rings
6 8 10 11 13 14 15 rings

> <PUBCHEM_HEAVY_ATOM_COUNT>
16

> <PUBCHEM_ATOM_DEF_STEREO_COUNT>
0

> <PUBCHEM_ATOM_UDEF_STEREO_COUNT>
0

> <PUBCHEM_BOND_DEF_STEREO_COUNT>
0

> <PUBCHEM_BOND_UDEF_STEREO_COUNT>
0

> <PUBCHEM_ISOTOPIC_ATOM_COUNT>
0

> <PUBCHEM_COMPONENT_COUNT>
1

> <PUBCHEM_CACTVS_TAUTO_COUNT>
9

> <PUBCHEM_CONFORMER_ID>
00000F2600000001

> <PUBCHEM_MMFF94_ENERGY>
59.2673

> <PUBCHEM_FEATURE_SELFOVERLAP>
30.446

> <PUBCHEM_SHAPE_FINGERPRINT>
11132069 177 18410852187716789461
12119455 92 17385731304667469758
12236239 1 17561366166633000499
124424 183 17967817171459762530
12500047 106 18409453591498514883
13214271 11 18260270728718541965
13538477 17 17988923370796286147
13581323 91 18343585126869806418
14115302 16 17416967219074953699
15219456 202 17894624876789353366
15375358 24 18113054960838927877
15775835 57 18131350847173138217
16945 1 18411979174355612673
17846911 113 18339364162287701265
18175812 5 17967817106734436136
18186145 218 18041546057447031267
19049666 15 17823685559117684799
200 152 15841276960794953187
20201158 50 17603299375426505591
20279233 1 17894908529451652591
20344682 1 17821730528680402541
20510252 161 18335980956429604361
20645477 56 18410852183543096065
20645477 70 16733259165888778574
22112679 90 17845926360175900245
22802520 49 17970889279962147911
232386 152 18200872859996897415
23402539 116 18336273396062033269
23557571 272 18334286548422482725
23559900 14 18335415816301311822
2748010 2 18266465304621254121
350125 39 17691963087274528793
474 4 16771814456356644004
7364860 26 18119811571234479363
77492 1 17489587844232506739
81228 2 18264466533947002345

> <PUBCHEM_SHAPE_MULTIPOLES>
308.11
6.91
1.76
1.19
2.66
0.27
-0.44
1.33
0.84
-2.17
0.08
0.94
-0.09
0.23

> <PUBCHEM_SHAPE_SELFOVERLAP>
650.01

> <PUBCHEM_SHAPE_VOLUME>
172.7

> <PUBCHEM_COORDINATE_TYPE>
2
5
10

$$$$

