442896
  -OEChem-07051213003D

 60 62  0     1  0  0  0  0  0999 V2000
   -1.0681   -2.4861   -0.7323 O   0  0  0  0  0  0  0  0  0  0  0  0
   -3.6182    1.6917    1.8158 O   0  0  0  0  0  0  0  0  0  0  0  0
    1.7979   -1.8020   -2.1360 O   0  0  0  0  0  0  0  0  0  0  0  0
   -3.1086   -2.9618    1.0486 O   0  0  0  0  0  0  0  0  0  0  0  0
    2.9632    1.4397    2.1701 O   0  0  0  0  0  0  0  0  0  0  0  0
    4.7804   -0.4906    1.3345 O   0  0  0  0  0  0  0  0  0  0  0  0
   -0.1387    0.1492   -1.3596 C   0  0  2  0  0  0  0  0  0  0  0  0
   -0.1857    1.5801   -1.9860 C   0  0  2  0  0  0  0  0  0  0  0  0
   -1.2863   -0.1146   -0.3970 C   0  0  0  0  0  0  0  0  0  0  0  0
   -0.7114    2.6422   -1.0342 C   0  0  0  0  0  0  0  0  0  0  0  0
    1.1742   -0.0289   -0.6487 C   0  0  0  0  0  0  0  0  0  0  0  0
   -1.9356    0.9524    0.2493 C   0  0  0  0  0  0  0  0  0  0  0  0
   -1.0476    1.5639   -3.2593 C   0  0  0  0  0  0  0  0  0  0  0  0
   -1.5220    2.3345   -0.0073 C   0  0  0  0  0  0  0  0  0  0  0  0
   -1.6855   -1.4320   -0.1224 C   0  0  0  0  0  0  0  0  0  0  0  0
   -2.9638    0.6875    1.1629 C   0  0  0  0  0  0  0  0  0  0  0  0
   -0.2809    4.0582   -1.2931 C   0  0  0  0  0  0  0  0  0  0  0  0
    2.0765   -0.9967   -1.0728 C   0  0  0  0  0  0  0  0  0  0  0  0
    1.4666    0.7887    0.4363 C   0  0  0  0  0  0  0  0  0  0  0  0
   -2.7164   -1.6846    0.7817 C   0  0  0  0  0  0  0  0  0  0  0  0
   -3.3537   -0.6264    1.4241 C   0  0  0  0  0  0  0  0  0  0  0  0
    2.6799    0.6360    1.1073 C   0  0  0  0  0  0  0  0  0  0  0  0
    3.2898   -1.1496   -0.4017 C   0  0  0  0  0  0  0  0  0  0  0  0
    3.5915   -0.3333    0.6885 C   0  0  0  0  0  0  0  0  0  0  0  0
   -1.6180   -2.9271   -1.9705 C   0  0  0  0  0  0  0  0  0  0  0  0
   -4.7789    2.2239    1.1833 C   0  0  0  0  0  0  0  0  0  0  0  0
    2.2043   -1.3402   -3.4226 C   0  0  0  0  0  0  0  0  0  0  0  0
   -2.4499   -3.6309    2.1220 C   0  0  0  0  0  0  0  0  0  0  0  0
    3.6363    2.6663    1.8937 C   0  0  0  0  0  0  0  0  0  0  0  0
    4.8087   -1.4094    2.4251 C   0  0  0  0  0  0  0  0  0  0  0  0
   -0.2234   -0.5573   -2.1900 H   0  0  0  0  0  0  0  0  0  0  0  0
    0.8297    1.8610   -2.3008 H   0  0  0  0  0  0  0  0  0  0  0  0
   -2.0845    1.2831   -3.0429 H   0  0  0  0  0  0  0  0  0  0  0  0
   -1.0603    2.5451   -3.7455 H   0  0  0  0  0  0  0  0  0  0  0  0
   -0.6499    0.8475   -3.9866 H   0  0  0  0  0  0  0  0  0  0  0  0
   -1.8823    3.1141    0.6560 H   0  0  0  0  0  0  0  0  0  0  0  0
    0.8108    4.1336   -1.2566 H   0  0  0  0  0  0  0  0  0  0  0  0
   -0.6849    4.7538   -0.5499 H   0  0  0  0  0  0  0  0  0  0  0  0
   -0.6205    4.3924   -2.2779 H   0  0  0  0  0  0  0  0  0  0  0  0
    0.7938    1.5443    0.8154 H   0  0  0  0  0  0  0  0  0  0  0  0
   -4.1556   -0.8252    2.1312 H   0  0  0  0  0  0  0  0  0  0  0  0
    4.0006   -1.9046   -0.7284 H   0  0  0  0  0  0  0  0  0  0  0  0
   -1.9091   -2.0888   -2.6118 H   0  0  0  0  0  0  0  0  0  0  0  0
   -2.4886   -3.5624   -1.7811 H   0  0  0  0  0  0  0  0  0  0  0  0
   -0.8604   -3.5194   -2.4910 H   0  0  0  0  0  0  0  0  0  0  0  0
   -5.1518    3.0517    1.7927 H   0  0  0  0  0  0  0  0  0  0  0  0
   -5.5604    1.4603    1.1166 H   0  0  0  0  0  0  0  0  0  0  0  0
   -4.5426    2.6048    0.1848 H   0  0  0  0  0  0  0  0  0  0  0  0
    1.7941   -2.0193   -4.1748 H   0  0  0  0  0  0  0  0  0  0  0  0
    3.2961   -1.3521   -3.4982 H   0  0  0  0  0  0  0  0  0  0  0  0
    1.8288   -0.3316   -3.6205 H   0  0  0  0  0  0  0  0  0  0  0  0
   -2.6253   -3.1056    3.0662 H   0  0  0  0  0  0  0  0  0  0  0  0
   -1.3753   -3.7067    1.9282 H   0  0  0  0  0  0  0  0  0  0  0  0
   -2.8628   -4.6403    2.2014 H   0  0  0  0  0  0  0  0  0  0  0  0
    4.6100    2.4760    1.4313 H   0  0  0  0  0  0  0  0  0  0  0  0
    3.7950    3.1908    2.8399 H   0  0  0  0  0  0  0  0  0  0  0  0
    3.0269    3.2990    1.2405 H   0  0  0  0  0  0  0  0  0  0  0  0
    4.1123   -1.0978    3.2099 H   0  0  0  0  0  0  0  0  0  0  0  0
    5.8207   -1.4185    2.8392 H   0  0  0  0  0  0  0  0  0  0  0  0
    4.5615   -2.4191    2.0822 H   0  0  0  0  0  0  0  0  0  0  0  0
  1 15  1  0  0  0  0
  1 25  1  0  0  0  0
  2 16  1  0  0  0  0
  2 26  1  0  0  0  0
  3 18  1  0  0  0  0
  3 27  1  0  0  0  0
  4 20  1  0  0  0  0
  4 28  1  0  0  0  0
  5 22  1  0  0  0  0
  5 29  1  0  0  0  0
  6 24  1  0  0  0  0
  6 30  1  0  0  0  0
  7  8  1  0  0  0  0
  7  9  1  0  0  0  0
  7 11  1  0  0  0  0
  7 31  1  0  0  0  0
  8 10  1  0  0  0  0
  8 13  1  0  0  0  0
  8 32  1  0  0  0  0
  9 12  2  0  0  0  0
  9 15  1  0  0  0  0
 10 14  2  0  0  0  0
 10 17  1  0  0  0  0
 11 18  1  0  0  0  0
 11 19  2  0  0  0  0
 12 14  1  0  0  0  0
 12 16  1  0  0  0  0
 13 33  1  0  0  0  0
 13 34  1  0  0  0  0
 13 35  1  0  0  0  0
 14 36  1  0  0  0  0
 15 20  2  0  0  0  0
 16 21  2  0  0  0  0
 17 37  1  0  0  0  0
 17 38  1  0  0  0  0
 17 39  1  0  0  0  0
 18 23  2  0  0  0  0
 19 22  1  0  0  0  0
 19 40  1  0  0  0  0
 20 21  1  0  0  0  0
 21 41  1  0  0  0  0
 22 24  2  0  0  0  0
 23 24  1  0  0  0  0
 23 42  1  0  0  0  0
 25 43  1  0  0  0  0
 25 44  1  0  0  0  0
 25 45  1  0  0  0  0
 26 46  1  0  0  0  0
 26 47  1  0  0  0  0
 26 48  1  0  0  0  0
 27 49  1  0  0  0  0
 27 50  1  0  0  0  0
 27 51  1  0  0  0  0
 28 52  1  0  0  0  0
 28 53  1  0  0  0  0
 28 54  1  0  0  0  0
 29 55  1  0  0  0  0
 29 56  1  0  0  0  0
 29 57  1  0  0  0  0
 30 58  1  0  0  0  0
 30 59  1  0  0  0  0
 30 60  1  0  0  0  0
M  END
> <PUBCHEM_COMPOUND_CID>
442896

> <PUBCHEM_CONFORMER_RMSD>
1

> <PUBCHEM_CONFORMER_DIVERSEORDER>
1
7
3
5
4
2
6

> <PUBCHEM_MMFF94_PARTIAL_CHARGES>
33
1 -0.36
10 -0.28
11 -0.14
12 0.03
14 -0.18
15 0.08
16 0.08
17 0.14
18 0.08
19 -0.15
2 -0.36
20 0.08
21 -0.15
22 0.08
23 -0.15
24 0.08
25 0.28
26 0.28
27 0.28
28 0.28
29 0.28
3 -0.36
30 0.28
36 0.15
4 -0.36
40 0.15
41 0.15
42 0.15
5 -0.36
6 -0.36
7 0.29
8 0.14
9 -0.14

> <PUBCHEM_EFFECTIVE_ROTOR_COUNT>
7.4

> <PUBCHEM_PHARMACOPHORE_FEATURES>
9
1 1 acceptor
1 2 acceptor
1 3 acceptor
1 4 acceptor
1 5 acceptor
1 6 acceptor
6 11 18 19 22 23 24 rings
6 7 8 9 10 12 14 rings
6 9 12 15 16 20 21 rings

> <PUBCHEM_HEAVY_ATOM_COUNT>
30

> <PUBCHEM_ATOM_DEF_STEREO_COUNT>
2

> <PUBCHEM_ATOM_UDEF_STEREO_COUNT>
0

> <PUBCHEM_BOND_DEF_STEREO_COUNT>
0

> <PUBCHEM_BOND_UDEF_STEREO_COUNT>
0

> <PUBCHEM_ISOTOPIC_ATOM_COUNT>
0

> <PUBCHEM_COMPONENT_COUNT>
1

> <PUBCHEM_CACTVS_TAUTO_COUNT>
1

> <PUBCHEM_CONFORMER_ID>
0006C21000000001

> <PUBCHEM_MMFF94_ENERGY>
151.8985

> <PUBCHEM_FEATURE_SELFOVERLAP>
45.701

> <PUBCHEM_SHAPE_FINGERPRINT>
11578080 2 17461965887740234985
12403259 327 18337674234216397834
12633257 1 18335427906254396824
12655364 131 15865774243693955478
13004483 165 17535494542268339799
13083527 12 17766565642618771985
13140716 1 18411418393012698432
133893 2 16913684394254049629
13583140 156 18054822630915422856
14856354 85 18200327511737386066
16945 1 18126826408358971677
20600515 1 18341884208468192109
21033648 29 17822838871014205347
21421861 104 17695040233915652833
21756936 100 16590566531865696272
23419403 2 17758156659352189285
23559900 14 18118377722266959540
23598288 3 17131270293369148580
25222932 49 16541819554825791971
3380486 145 18124618404311174357
3493558 16 5034061495014740041
35225 105 17343532138366648608
394222 165 17190081736152216337
469060 322 17401247419807142792
484985 159 17344375425341769122
6287921 2 17972311811965045752
81228 2 18412267229095678999
90316 7 18272933838358466597

> <PUBCHEM_SHAPE_MULTIPOLES>
582.17
7.42
4.08
3.04
3.85
0.18
-1.69
-1.15
6.8
-2.98
0.06
1.49
-0.28
0.95

> <PUBCHEM_SHAPE_SELFOVERLAP>
1244.452

> <PUBCHEM_SHAPE_VOLUME>
325.1

> <PUBCHEM_COORDINATE_TYPE>
2
5
10

$$$$

