442432
  -OEChem-07051212582D

 52 55  0     1  0  0  0  0  0999 V2000
    2.9986   -4.2597    0.0000 S   0  0  0  0  0  0  0  0  0  0  0  0
    8.4700   -3.0717    0.0000 O   0  0  0  0  0  0  0  0  0  0  0  0
    5.5401    0.0031    0.0000 O   0  0  0  0  0  0  0  0  0  0  0  0
    7.2721    0.0031    0.0000 O   0  0  0  0  0  0  0  0  0  0  0  0
    6.4061    1.5031    0.0000 O   0  0  0  0  0  0  0  0  0  0  0  0
    3.8080    1.0031    0.0000 O   0  0  0  0  0  0  0  0  0  0  0  0
    4.4501   -3.3147    0.0000 O   0  0  0  0  0  0  0  0  0  0  0  0
    3.8080    3.0031    0.0000 O   0  0  0  0  0  0  0  0  0  0  0  0
    5.5401    4.0031    0.0000 O   0  0  0  0  0  0  0  0  0  0  0  0
    9.8537   -1.9577    0.0000 O   0  0  0  0  0  0  0  0  0  0  0  0
    7.2721    4.0031    0.0000 O   0  0  0  0  0  0  0  0  0  0  0  0
    2.9060   -2.5301    0.0000 O   0  0  0  0  0  0  0  0  0  0  0  0
    7.2721   -1.9969    0.0000 C   0  0  2  0  0  0  0  0  0  0  0  0
    6.4061   -1.4969    0.0000 C   0  0  2  0  0  0  0  0  0  0  0  0
    7.4813   -2.9687    0.0000 C   0  0  2  0  0  0  0  0  0  0  0  0
    6.4061   -0.4969    0.0000 C   0  0  2  0  0  0  0  0  0  0  0  0
    5.9017   -2.3697    0.0000 C   0  0  0  0  0  0  0  0  0  0  0  0
    8.1381   -1.4969    0.0000 C   0  0  0  0  0  0  0  0  0  0  0  0
    6.4964   -3.1838    0.0000 C   0  0  0  0  0  0  0  0  0  0  0  0
    5.5401    1.0031    0.0000 C   0  0  2  0  0  0  0  0  0  0  0  0
    8.8752   -2.1639    0.0000 C   0  0  0  0  0  0  0  0  0  0  0  0
    4.6740    1.5031    0.0000 C   0  0  1  0  0  0  0  0  0  0  0  0
    8.1381   -0.4969    0.0000 C   0  0  0  0  0  0  0  0  0  0  0  0
    4.9031   -2.4232    0.0000 C   0  0  0  0  0  0  0  0  0  0  0  0
    4.6740    2.5031    0.0000 C   0  0  2  0  0  0  0  0  0  0  0  0
    5.5401    3.0031    0.0000 C   0  0  1  0  0  0  0  0  0  0  0  0
    6.4061    2.5031    0.0000 C   0  0  1  0  0  0  0  0  0  0  0  0
    7.2721    3.0031    0.0000 C   0  0  0  0  0  0  0  0  0  0  0  0
    3.4516   -3.3682    0.0000 C   0  0  0  0  0  0  0  0  0  0  0  0
    2.0000   -4.3131    0.0000 C   0  0  0  0  0  0  0  0  0  0  0  0
    8.0082   -2.4219    0.0000 H   0  0  0  0  0  0  0  0  0  0  0  0
    5.5851   -1.2767    0.0000 H   0  0  0  0  0  0  0  0  0  0  0  0
    7.5286   -3.8174    0.0000 H   0  0  0  0  0  0  0  0  0  0  0  0
    6.4061    0.1231    0.0000 H   0  0  0  0  0  0  0  0  0  0  0  0
    6.2766   -3.7635    0.0000 H   0  0  0  0  0  0  0  0  0  0  0  0
    5.0031    0.6931    0.0000 H   0  0  0  0  0  0  0  0  0  0  0  0
    4.1371    1.8131    0.0000 H   0  0  0  0  0  0  0  0  0  0  0  0
    8.6751   -0.1869    0.0000 H   0  0  0  0  0  0  0  0  0  0  0  0
    4.9780   -1.8077    0.0000 H   0  0  0  0  0  0  0  0  0  0  0  0
    4.3100   -2.2426    0.0000 H   0  0  0  0  0  0  0  0  0  0  0  0
    4.1371    2.1931    0.0000 H   0  0  0  0  0  0  0  0  0  0  0  0
    6.0770    3.3131    0.0000 H   0  0  0  0  0  0  0  0  0  0  0  0
    6.9430    2.1931    0.0000 H   0  0  0  0  0  0  0  0  0  0  0  0
    7.4842    2.4205    0.0000 H   0  0  0  0  0  0  0  0  0  0  0  0
    7.8827    3.1108    0.0000 H   0  0  0  0  0  0  0  0  0  0  0  0
    3.2711    1.3131    0.0000 H   0  0  0  0  0  0  0  0  0  0  0  0
    3.8080    3.6231    0.0000 H   0  0  0  0  0  0  0  0  0  0  0  0
    5.0031    4.3131    0.0000 H   0  0  0  0  0  0  0  0  0  0  0  0
    7.8090    4.3131    0.0000 H   0  0  0  0  0  0  0  0  0  0  0  0
    1.9669   -3.6940    0.0000 H   0  0  0  0  0  0  0  0  0  0  0  0
    1.3809   -4.3463    0.0000 H   0  0  0  0  0  0  0  0  0  0  0  0
    2.0331   -4.9323    0.0000 H   0  0  0  0  0  0  0  0  0  0  0  0
  1 29  1  0  0  0  0
  1 30  1  0  0  0  0
  2 15  1  0  0  0  0
  2 21  1  0  0  0  0
 16  3  1  6  0  0  0
 20  3  1  1  0  0  0
  4 16  1  0  0  0  0
  4 23  1  0  0  0  0
  5 20  1  0  0  0  0
  5 27  1  0  0  0  0
 22  6  1  6  0  0  0
  6 46  1  0  0  0  0
  7 24  1  0  0  0  0
  7 29  1  0  0  0  0
 25  8  1  1  0  0  0
  8 47  1  0  0  0  0
 26  9  1  6  0  0  0
  9 48  1  0  0  0  0
 10 21  2  0  0  0  0
 11 28  1  0  0  0  0
 11 49  1  0  0  0  0
 12 29  2  0  0  0  0
 13 14  1  0  0  0  0
 13 15  1  0  0  0  0
 13 18  1  0  0  0  0
 13 31  1  6  0  0  0
 14 16  1  0  0  0  0
 14 17  1  0  0  0  0
 14 32  1  6  0  0  0
 15 19  1  0  0  0  0
 15 33  1  6  0  0  0
 16 34  1  0  0  0  0
 17 19  2  0  0  0  0
 17 24  1  0  0  0  0
 18 21  1  0  0  0  0
 18 23  2  0  0  0  0
 19 35  1  0  0  0  0
 20 22  1  0  0  0  0
 20 36  1  0  0  0  0
 22 25  1  0  0  0  0
 22 37  1  0  0  0  0
 23 38  1  0  0  0  0
 24 39  1  0  0  0  0
 24 40  1  0  0  0  0
 25 26  1  0  0  0  0
 25 41  1  0  0  0  0
 26 27  1  0  0  0  0
 26 42  1  0  0  0  0
 27 28  1  1  0  0  0
 27 43  1  0  0  0  0
 28 44  1  0  0  0  0
 28 45  1  0  0  0  0
 30 50  1  0  0  0  0
 30 51  1  0  0  0  0
 30 52  1  0  0  0  0
M  END
> <PUBCHEM_COMPOUND_CID>
442432

> <PUBCHEM_COMPOUND_CANONICALIZED>
1

> <PUBCHEM_CACTVS_COMPLEXITY>
767

> <PUBCHEM_CACTVS_HBOND_ACCEPTOR>
12

> <PUBCHEM_CACTVS_HBOND_DONOR>
4

> <PUBCHEM_CACTVS_ROTATABLE_BOND>
7

> <PUBCHEM_CACTVS_SUBSKEYS>
AAADceB4PABAAAAAAAAAAAAAAAAAASIAAAAkQAAAAAAQAEAAAAAAGgQACAAADRSwgAOCCAAABgiIAiDSCAAACAAgIAAACAEAAEgRFBIAIQAiUAAFwAAPIIPKbAwOgAAAAAAAAAAAAAAAAAAAAAAAAAAAAA==

> <PUBCHEM_IUPAC_INCHI>
InChI=1S/C18H22O11S/c1-30-18(24)26-4-6-2-8-11-7(15(23)27-8)5-25-16(10(6)11)29-17-14(22)13(21)12(20)9(3-19)28-17/h2,5,8-14,16-17,19-22H,3-4H2,1H3/t8-,9+,10+,11-,12+,13-,14+,16-,17-/m0/s1

> <PUBCHEM_IUPAC_INCHIKEY>
OJISWUQNQQWEND-FCVLBCLDSA-N

> <PUBCHEM_XLOGP3_AA>
-1.5

> <PUBCHEM_EXACT_MASS>
446.088283

> <PUBCHEM_MOLECULAR_FORMULA>
C18H22O11S

> <PUBCHEM_MOLECULAR_WEIGHT>
446.42568

> <PUBCHEM_OPENEYE_CAN_SMILES>
CSC(=O)OCC1=CC2C3C1C(OC=C3C(=O)O2)OC4C(C(C(C(O4)CO)O)O)O

> <PUBCHEM_OPENEYE_ISO_SMILES>
CSC(=O)OCC1=C[C@H]2[C@H]3[C@@H]1[C@@H](OC=C3C(=O)O2)O[C@H]4[C@@H]([C@H]([C@@H]([C@H](O4)CO)O)O)O

> <PUBCHEM_CACTVS_TPSA>
187

> <PUBCHEM_MONOISOTOPIC_WEIGHT>
446.088283

> <PUBCHEM_TOTAL_CHARGE>
0

> <PUBCHEM_HEAVY_ATOM_COUNT>
30

> <PUBCHEM_ATOM_DEF_STEREO_COUNT>
9

> <PUBCHEM_ATOM_UDEF_STEREO_COUNT>
0

> <PUBCHEM_BOND_DEF_STEREO_COUNT>
0

> <PUBCHEM_BOND_UDEF_STEREO_COUNT>
0

> <PUBCHEM_ISOTOPIC_ATOM_COUNT>
0

> <PUBCHEM_COMPONENT_COUNT>
1

> <PUBCHEM_CACTVS_TAUTO_COUNT>
1

> <PUBCHEM_COORDINATE_TYPE>
1
5
255

> <PUBCHEM_BONDANNOTATIONS>
13  31  6
14  32  6
15  33  6
27  28  5
16  3  6
20  3  5
22  6  6
25  8  5
26  9  6

$$$$

