47205757
  -OEChem-06241223002D

 39 39  0     1  0  0  0  0  0999 V2000
    4.9849    0.5361    0.0000 O   0  0  0  0  0  0  0  0  0  0  0  0
    4.8479    4.2525    0.0000 O   0  0  0  0  0  0  0  0  0  0  0  0
    2.0000    2.1834    0.0000 O   0  0  0  0  0  0  0  0  0  0  0  0
   10.3639   -3.9434    0.0000 O   0  0  0  0  0  0  0  0  0  0  0  0
   10.8992   -2.2962    0.0000 O   0  0  0  0  0  0  0  0  0  0  0  0
    6.6791    0.8962    0.0000 N   0  0  0  0  0  0  0  0  0  0  0  0
    3.7601    1.9046    0.0000 N   0  0  0  0  0  0  0  0  0  0  0  0
    3.2601    3.4434    0.0000 N   0  0  0  0  0  0  0  0  0  0  0  0
    4.5691    2.4924    0.0000 C   0  0  3  0  0  0  0  0  0  0  0  0
    7.8381   -0.3910    0.0000 C   0  0  0  0  0  0  0  0  0  0  0  0
    8.0460   -1.3691    0.0000 C   0  0  0  0  0  0  0  0  0  0  0  0
    5.5202    2.1834    0.0000 C   0  0  0  0  0  0  0  0  0  0  0  0
    6.8870   -0.0819    0.0000 C   0  0  0  0  0  0  0  0  0  0  0  0
    8.9970   -1.6781    0.0000 C   0  0  0  0  0  0  0  0  0  0  0  0
    5.7281    1.2052    0.0000 C   0  0  0  0  0  0  0  0  0  0  0  0
    4.2601    3.4434    0.0000 C   0  0  0  0  0  0  0  0  0  0  0  0
    9.2050   -2.6563    0.0000 C   0  0  0  0  0  0  0  0  0  0  0  0
    2.9511    2.4924    0.0000 C   0  0  0  0  0  0  0  0  0  0  0  0
   10.1560   -2.9653    0.0000 C   0  0  0  0  0  0  0  0  0  0  0  0
   11.3150   -4.2525    0.0000 C   0  0  0  0  0  0  0  0  0  0  0  0
    4.6661    1.8800    0.0000 H   0  0  0  0  0  0  0  0  0  0  0  0
    8.4577   -0.3693    0.0000 H   0  0  0  0  0  0  0  0  0  0  0  0
    7.9244    0.2230    0.0000 H   0  0  0  0  0  0  0  0  0  0  0  0
    7.4264   -1.3908    0.0000 H   0  0  0  0  0  0  0  0  0  0  0  0
    7.9597   -1.9831    0.0000 H   0  0  0  0  0  0  0  0  0  0  0  0
    6.1398    2.2050    0.0000 H   0  0  0  0  0  0  0  0  0  0  0  0
    5.6064    2.7973    0.0000 H   0  0  0  0  0  0  0  0  0  0  0  0
    6.2674   -0.1036    0.0000 H   0  0  0  0  0  0  0  0  0  0  0  0
    6.8007   -0.6959    0.0000 H   0  0  0  0  0  0  0  0  0  0  0  0
    9.6167   -1.6565    0.0000 H   0  0  0  0  0  0  0  0  0  0  0  0
    9.0833   -1.0642    0.0000 H   0  0  0  0  0  0  0  0  0  0  0  0
    7.1399    1.3111    0.0000 H   0  0  0  0  0  0  0  0  0  0  0  0
    3.7601    1.2846    0.0000 H   0  0  0  0  0  0  0  0  0  0  0  0
    8.5853   -2.6779    0.0000 H   0  0  0  0  0  0  0  0  0  0  0  0
    9.1187   -3.2702    0.0000 H   0  0  0  0  0  0  0  0  0  0  0  0
    2.8956    3.9450    0.0000 H   0  0  0  0  0  0  0  0  0  0  0  0
   11.1234   -4.8421    0.0000 H   0  0  0  0  0  0  0  0  0  0  0  0
   11.9046   -4.4440    0.0000 H   0  0  0  0  0  0  0  0  0  0  0  0
   11.5066   -3.6628    0.0000 H   0  0  0  0  0  0  0  0  0  0  0  0
  1 15  2  0  0  0  0
  2 16  2  0  0  0  0
  3 18  2  0  0  0  0
  4 19  1  0  0  0  0
  4 20  1  0  0  0  0
  5 19  2  0  0  0  0
  6 13  1  0  0  0  0
  6 15  1  0  0  0  0
  6 32  1  0  0  0  0
  7  9  1  0  0  0  0
  7 18  1  0  0  0  0
  7 33  1  0  0  0  0
  8 16  1  0  0  0  0
  8 18  1  0  0  0  0
  8 36  1  0  0  0  0
  9 12  1  0  0  0  0
  9 16  1  0  0  0  0
  9 21  1  0  0  0  0
 10 11  1  0  0  0  0
 10 13  1  0  0  0  0
 10 22  1  0  0  0  0
 10 23  1  0  0  0  0
 11 14  1  0  0  0  0
 11 24  1  0  0  0  0
 11 25  1  0  0  0  0
 12 15  1  0  0  0  0
 12 26  1  0  0  0  0
 12 27  1  0  0  0  0
 13 28  1  0  0  0  0
 13 29  1  0  0  0  0
 14 17  1  0  0  0  0
 14 30  1  0  0  0  0
 14 31  1  0  0  0  0
 17 19  1  0  0  0  0
 17 34  1  0  0  0  0
 17 35  1  0  0  0  0
 20 37  1  0  0  0  0
 20 38  1  0  0  0  0
 20 39  1  0  0  0  0
M  END
> <PUBCHEM_COMPOUND_CID>
47205757

> <PUBCHEM_COMPOUND_CANONICALIZED>
1

> <PUBCHEM_CACTVS_COMPLEXITY>
397

> <PUBCHEM_CACTVS_HBOND_ACCEPTOR>
5

> <PUBCHEM_CACTVS_HBOND_DONOR>
3

> <PUBCHEM_CACTVS_ROTATABLE_BOND>
9

> <PUBCHEM_CACTVS_SUBSKEYS>
AAADceBzOAAAAAAAAAAAAAAAAAAAAWAAAAAAAAAAAAAAAAAAAAAAHgAQAAAACCjBgAYDCALABAAIAAGQGAAAAAAAAAAAAIGIAACAQBoAwCAUAAAMFyKAAAGdSAAAAAAAAAAAAAAAAAAAAAAAAAAAAAAAAA==

> <PUBCHEM_IUPAC_OPENEYE_NAME>
methyl 6-[[2-(2,5-dioxoimidazolidin-4-yl)acetyl]amino]hexanoate

> <PUBCHEM_IUPAC_CAS_NAME>
6-[[2-(2,5-dioxo-4-imidazolidinyl)-1-oxoethyl]amino]hexanoic acid methyl ester

> <PUBCHEM_IUPAC_NAME>
methyl 6-[[2-(2,5-dioxoimidazolidin-4-yl)acetyl]amino]hexanoate

> <PUBCHEM_IUPAC_SYSTEMATIC_NAME>
methyl 6-[2-[2,5-bis(oxidanylidene)imidazolidin-4-yl]ethanoylamino]hexanoate

> <PUBCHEM_IUPAC_TRADITIONAL_NAME>
6-[[2-(2,5-diketoimidazolidin-4-yl)acetyl]amino]hexanoic acid methyl ester

> <PUBCHEM_IUPAC_INCHI>
InChI=1S/C12H19N3O5/c1-20-10(17)5-3-2-4-6-13-9(16)7-8-11(18)15-12(19)14-8/h8H,2-7H2,1H3,(H,13,16)(H2,14,15,18,19)

> <PUBCHEM_IUPAC_INCHIKEY>
GOOMEYICBFLEIC-UHFFFAOYSA-N

> <PUBCHEM_XLOGP3_AA>
-0.9

> <PUBCHEM_EXACT_MASS>
285.132471

> <PUBCHEM_MOLECULAR_FORMULA>
C12H19N3O5

> <PUBCHEM_MOLECULAR_WEIGHT>
285.29636

> <PUBCHEM_OPENEYE_CAN_SMILES>
COC(=O)CCCCCNC(=O)CC1C(=O)NC(=O)N1

> <PUBCHEM_OPENEYE_ISO_SMILES>
COC(=O)CCCCCNC(=O)CC1C(=O)NC(=O)N1

> <PUBCHEM_CACTVS_TPSA>
114

> <PUBCHEM_MONOISOTOPIC_WEIGHT>
285.132471

> <PUBCHEM_TOTAL_CHARGE>
0

> <PUBCHEM_HEAVY_ATOM_COUNT>
20

> <PUBCHEM_ATOM_DEF_STEREO_COUNT>
0

> <PUBCHEM_ATOM_UDEF_STEREO_COUNT>
1

> <PUBCHEM_BOND_DEF_STEREO_COUNT>
0

> <PUBCHEM_BOND_UDEF_STEREO_COUNT>
0

> <PUBCHEM_ISOTOPIC_ATOM_COUNT>
0

> <PUBCHEM_COMPONENT_COUNT>
1

> <PUBCHEM_CACTVS_TAUTO_COUNT>
16

> <PUBCHEM_COORDINATE_TYPE>
1
5
255

> <PUBCHEM_BONDANNOTATIONS>
9  12  3

$$$$

