36342
  -OEChem-07051213053D

 22 23  0     0  0  0  0  0  0999 V2000
    0.5325    2.7405   -0.0001 Cl  0  0  0  0  0  0  0  0  0  0  0  0
    0.5321   -2.7405   -0.0002 Cl  0  0  0  0  0  0  0  0  0  0  0  0
    0.6313    0.0000    0.0000 C   0  0  0  0  0  0  0  0  0  0  0  0
   -0.8157    0.0001    0.0000 C   0  0  0  0  0  0  0  0  0  0  0  0
    1.3372    1.2080    0.0000 C   0  0  0  0  0  0  0  0  0  0  0  0
    1.3369   -1.2080    0.0000 C   0  0  0  0  0  0  0  0  0  0  0  0
   -1.5131    0.0001   -1.2079 C   0  0  0  0  0  0  0  0  0  0  0  0
   -1.5130    0.0001    1.2079 C   0  0  0  0  0  0  0  0  0  0  0  0
    2.7321    1.2078    0.0000 C   0  0  0  0  0  0  0  0  0  0  0  0
    2.7318   -1.2081    0.0001 C   0  0  0  0  0  0  0  0  0  0  0  0
   -2.9080    0.0001   -1.2079 C   0  0  0  0  0  0  0  0  0  0  0  0
   -2.9079    0.0000    1.2081 C   0  0  0  0  0  0  0  0  0  0  0  0
    3.4294   -0.0001    0.0001 C   0  0  0  0  0  0  0  0  0  0  0  0
   -3.6054    0.0000    0.0001 C   0  0  0  0  0  0  0  0  0  0  0  0
   -0.9850    0.0000   -2.1586 H   0  0  0  0  0  0  0  0  0  0  0  0
   -0.9849    0.0001    2.1586 H   0  0  0  0  0  0  0  0  0  0  0  0
    3.2919    2.1397   -0.0001 H   0  0  0  0  0  0  0  0  0  0  0  0
    3.2915   -2.1401    0.0000 H   0  0  0  0  0  0  0  0  0  0  0  0
   -3.4512    0.0001   -2.1484 H   0  0  0  0  0  0  0  0  0  0  0  0
   -3.4510    0.0000    2.1486 H   0  0  0  0  0  0  0  0  0  0  0  0
    4.5155   -0.0003    0.0000 H   0  0  0  0  0  0  0  0  0  0  0  0
   -4.6915   -0.0001    0.0001 H   0  0  0  0  0  0  0  0  0  0  0  0
  1  5  1  0  0  0  0
  2  6  1  0  0  0  0
  3  4  1  0  0  0  0
  3  5  2  0  0  0  0
  3  6  1  0  0  0  0
  4  7  2  0  0  0  0
  4  8  1  0  0  0  0
  5  9  1  0  0  0  0
  6 10  2  0  0  0  0
  7 11  1  0  0  0  0
  7 15  1  0  0  0  0
  8 12  2  0  0  0  0
  8 16  1  0  0  0  0
  9 13  2  0  0  0  0
  9 17  1  0  0  0  0
 10 13  1  0  0  0  0
 10 18  1  0  0  0  0
 11 14  2  0  0  0  0
 11 19  1  0  0  0  0
 12 14  1  0  0  0  0
 12 20  1  0  0  0  0
 13 21  1  0  0  0  0
 14 22  1  0  0  0  0
M  END
> <PUBCHEM_COMPOUND_CID>
36342

> <PUBCHEM_CONFORMER_RMSD>
0.4

> <PUBCHEM_CONFORMER_DIVERSEORDER>
1

> <PUBCHEM_MMFF94_PARTIAL_CHARGES>
20
1 -0.18
10 -0.15
11 -0.15
12 -0.15
13 -0.15
14 -0.15
15 0.15
16 0.15
17 0.15
18 0.15
19 0.15
2 -0.18
20 0.15
21 0.15
22 0.15
5 0.18
6 0.18
7 -0.15
8 -0.15
9 -0.15

> <PUBCHEM_EFFECTIVE_ROTOR_COUNT>
1

> <PUBCHEM_PHARMACOPHORE_FEATURES>
2
6 3 5 6 9 10 13 rings
6 4 7 8 11 12 14 rings

> <PUBCHEM_HEAVY_ATOM_COUNT>
14

> <PUBCHEM_ATOM_DEF_STEREO_COUNT>
0

> <PUBCHEM_ATOM_UDEF_STEREO_COUNT>
0

> <PUBCHEM_BOND_DEF_STEREO_COUNT>
0

> <PUBCHEM_BOND_UDEF_STEREO_COUNT>
0

> <PUBCHEM_ISOTOPIC_ATOM_COUNT>
0

> <PUBCHEM_COMPONENT_COUNT>
1

> <PUBCHEM_CACTVS_TAUTO_COUNT>
1

> <PUBCHEM_CONFORMER_ID>
00008DF600000001

> <PUBCHEM_MMFF94_ENERGY>
42.7731

> <PUBCHEM_FEATURE_SELFOVERLAP>
10.149

> <PUBCHEM_SHAPE_FINGERPRINT>
10219947 1 18410854365127766168
11471102 20 18411986870610070061
11578080 2 12605174421955921015
12236239 1 17676487250427672683
12326174 3 18200885066167397850
124424 183 17632026307288397064
13140716 1 18266745675986256570
13538477 17 17386012741232223783
13581323 91 15195567896626951241
14251717 144 18410296904068969063
14993402 34 18260829284867503108
15219456 202 17989207048980469261
15309172 13 18411978035777998042
15775835 57 18335139752271068740
16945 1 18410856559998472710
17844478 74 17917988390957424541
18175812 5 17703788098233317207
18186145 218 18334293145650505076
19049666 15 17773322442150633437
193761 8 17762337324656919780
19422 9 17676486159369141535
200 152 18261119564938653079
20201158 50 18202565115623743875
20279233 1 17775287166244869507
20645477 70 18339370776463653367
21061003 4 18341041995171592721
21501502 16 18053102006301735096
21639500 275 18337962168613113085
22802520 49 17915752078753688941
23236772 104 17749108885330373667
23402539 116 18260837007619601854
23419403 2 16114940100737577154
23728640 28 15243141982450644539
25 1 18343306997846536735
2748010 2 18194111916116948878
3060560 45 18410022017461288591
350125 39 17475225808940099272
474 4 17679317273283737512
528886 8 18409170995677492090
568465 68 18129929122550531282
589210 1 17690565186887974132
77492 1 17676487246064127109
81228 2 17331692751988095330
8272917 22 18263073478774343207

> <PUBCHEM_SHAPE_MULTIPOLES>
291.85
5.31
2.19
1.03
1.29
0
0
0
0
-1.44
0
0.91
0
0

> <PUBCHEM_SHAPE_SELFOVERLAP>
616.709

> <PUBCHEM_SHAPE_VOLUME>
157.9

> <PUBCHEM_COORDINATE_TYPE>
2
5
10

$$$$

