36982
  -OEChem-07051213043D

 22 23  0     0  0  0  0  0  0999 V2000
   -1.0930    2.5325    0.0012 Cl  0  0  0  0  0  0  0  0  0  0  0  0
    4.9144   -0.0448   -0.0004 Cl  0  0  0  0  0  0  0  0  0  0  0  0
    0.4054   -0.1646    0.0002 C   0  0  0  0  0  0  0  0  0  0  0  0
   -1.0410   -0.2043    0.0002 C   0  0  0  0  0  0  0  0  0  0  0  0
    1.1023   -0.1445   -1.2079 C   0  0  0  0  0  0  0  0  0  0  0  0
    1.1028   -0.1470    1.2081 C   0  0  0  0  0  0  0  0  0  0  0  0
   -1.8130    0.9598    0.0005 C   0  0  0  0  0  0  0  0  0  0  0  0
   -1.6691   -1.4518   -0.0005 C   0  0  0  0  0  0  0  0  0  0  0  0
    2.4967   -0.1072   -1.2081 C   0  0  0  0  0  0  0  0  0  0  0  0
    2.4972   -0.1096    1.2078 C   0  0  0  0  0  0  0  0  0  0  0  0
   -3.2053    0.8768    0.0002 C   0  0  0  0  0  0  0  0  0  0  0  0
   -3.0615   -1.5349   -0.0008 C   0  0  0  0  0  0  0  0  0  0  0  0
    3.1941   -0.0897   -0.0002 C   0  0  0  0  0  0  0  0  0  0  0  0
   -3.8297   -0.3707   -0.0004 C   0  0  0  0  0  0  0  0  0  0  0  0
    0.5740   -0.1576   -2.1584 H   0  0  0  0  0  0  0  0  0  0  0  0
    0.5749   -0.1620    2.1587 H   0  0  0  0  0  0  0  0  0  0  0  0
   -1.0883   -2.3716   -0.0009 H   0  0  0  0  0  0  0  0  0  0  0  0
    3.0266   -0.0922   -2.1570 H   0  0  0  0  0  0  0  0  0  0  0  0
    3.0275   -0.0963    2.1566 H   0  0  0  0  0  0  0  0  0  0  0  0
   -3.8192    1.7740    0.0005 H   0  0  0  0  0  0  0  0  0  0  0  0
   -3.5478   -2.5061   -0.0014 H   0  0  0  0  0  0  0  0  0  0  0  0
   -4.9139   -0.4356   -0.0007 H   0  0  0  0  0  0  0  0  0  0  0  0
  1  7  1  0  0  0  0
  2 13  1  0  0  0  0
  3  4  1  0  0  0  0
  3  5  2  0  0  0  0
  3  6  1  0  0  0  0
  4  7  1  0  0  0  0
  4  8  2  0  0  0  0
  5  9  1  0  0  0  0
  5 15  1  0  0  0  0
  6 10  2  0  0  0  0
  6 16  1  0  0  0  0
  7 11  2  0  0  0  0
  8 12  1  0  0  0  0
  8 17  1  0  0  0  0
  9 13  2  0  0  0  0
  9 18  1  0  0  0  0
 10 13  1  0  0  0  0
 10 19  1  0  0  0  0
 11 14  1  0  0  0  0
 11 20  1  0  0  0  0
 12 14  2  0  0  0  0
 12 21  1  0  0  0  0
 14 22  1  0  0  0  0
M  END
> <PUBCHEM_COMPOUND_CID>
36982

> <PUBCHEM_CONFORMER_RMSD>
0.4

> <PUBCHEM_CONFORMER_DIVERSEORDER>
1
2
3

> <PUBCHEM_MMFF94_PARTIAL_CHARGES>
20
1 -0.18
10 -0.15
11 -0.15
12 -0.15
13 0.18
14 -0.15
15 0.15
16 0.15
17 0.15
18 0.15
19 0.15
2 -0.18
20 0.15
21 0.15
22 0.15
5 -0.15
6 -0.15
7 0.18
8 -0.15
9 -0.15

> <PUBCHEM_EFFECTIVE_ROTOR_COUNT>
1

> <PUBCHEM_PHARMACOPHORE_FEATURES>
2
6 3 5 6 9 10 13 rings
6 4 7 8 11 12 14 rings

> <PUBCHEM_HEAVY_ATOM_COUNT>
14

> <PUBCHEM_ATOM_DEF_STEREO_COUNT>
0

> <PUBCHEM_ATOM_UDEF_STEREO_COUNT>
0

> <PUBCHEM_BOND_DEF_STEREO_COUNT>
0

> <PUBCHEM_BOND_UDEF_STEREO_COUNT>
0

> <PUBCHEM_ISOTOPIC_ATOM_COUNT>
0

> <PUBCHEM_COMPONENT_COUNT>
1

> <PUBCHEM_CACTVS_TAUTO_COUNT>
1

> <PUBCHEM_CONFORMER_ID>
0000907600000001

> <PUBCHEM_MMFF94_ENERGY>
41.1113

> <PUBCHEM_FEATURE_SELFOVERLAP>
10.149

> <PUBCHEM_SHAPE_FINGERPRINT>
10465860 250 18113341933632227530
11471102 20 16008749113166086050
12236239 1 17703791422532631987
124424 183 17822014233040558130
13538477 17 18131073744388576395
13581323 91 18412267246127900306
14993402 34 17275106119771654970
15219456 202 17676202506838542102
15653759 3 18186242827065602666
15775835 57 17917711339665133825
16945 1 18410575115160470597
17844478 74 17676203580538226513
18175812 5 17749112153578803301
18186145 218 16988843843584600950
19049666 15 17678449994441706606
19868273 325 18411981343224595309
200 152 16702305633097530867
20201158 50 17458059378323412790
20279233 1 17676483947434577839
20344682 1 17821728333952075405
20510252 161 18335137656570037145
20645477 70 16226604220831604324
21061003 4 16950283983546190385
22094290 60 18408601474476848708
22802520 49 17824532204551138341
2297311 6 18335408076490442188
23175994 123 16877936144524870352
23402539 116 18408892840520545399
23557571 272 18260542346782439252
23559900 14 18261671588574596182
2748010 2 18265064526691409929
474 4 17201911528043089276
7364860 26 17901385598059230017
77492 1 17704071802292649667
81228 2 18336813299579965129

> <PUBCHEM_SHAPE_MULTIPOLES>
291.85
7.28
1.57
1.03
4.14
0.84
0
-0.95
0
-1.64
0
0.74
-0.05
0

> <PUBCHEM_SHAPE_SELFOVERLAP>
615.56

> <PUBCHEM_SHAPE_VOLUME>
157.3

> <PUBCHEM_COORDINATE_TYPE>
2
5
10

$$$$

