442925
  -OEChem-07051213002D

 41 44  0     1  0  0  0  0  0999 V2000
    6.2838   -0.1930    0.0000 O   0  0  0  0  0  0  0  0  0  0  0  0
    9.7479    0.8070    0.0000 O   0  0  0  0  0  0  0  0  0  0  0  0
    8.0159   -1.1930    0.0000 O   0  0  0  0  0  0  0  0  0  0  0  0
    3.4519   -2.7745    0.0000 O   0  0  0  0  0  0  0  0  0  0  0  0
    2.0000   -1.9363    0.0000 O   0  0  0  0  0  0  0  0  0  0  0  0
    4.7610    2.7788    0.0000 O   0  0  0  0  0  0  0  0  0  0  0  0
    3.6857    1.3070    0.0000 N   0  0  0  0  0  0  0  0  0  0  0  0
    8.8819    0.3070    0.0000 C   0  0  0  0  0  0  0  0  0  0  0  0
    8.0159   -0.1930    0.0000 C   0  0  3  0  0  0  0  0  0  0  0  0
    7.1498    0.3070    0.0000 C   0  0  0  0  0  0  0  0  0  0  0  0
    9.3819   -0.5590    0.0000 C   0  0  0  0  0  0  0  0  0  0  0  0
    8.3819    1.1730    0.0000 C   0  0  0  0  0  0  0  0  0  0  0  0
    5.4178    0.3070    0.0000 C   0  0  0  0  0  0  0  0  0  0  0  0
    4.5518   -0.1930    0.0000 C   0  0  0  0  0  0  0  0  0  0  0  0
    5.4178    1.3070    0.0000 C   0  0  0  0  0  0  0  0  0  0  0  0
    3.6857    0.3070    0.0000 C   0  0  0  0  0  0  0  0  0  0  0  0
    4.5678   -1.2345    0.0000 C   0  0  0  0  0  0  0  0  0  0  0  0
    4.5518    1.8070    0.0000 C   0  0  0  0  0  0  0  0  0  0  0  0
    3.6698   -1.7623    0.0000 C   0  0  0  0  0  0  0  0  0  0  0  0
    2.7677   -1.2414    0.0000 C   0  0  0  0  0  0  0  0  0  0  0  0
    2.7757   -0.1998    0.0000 C   0  0  0  0  0  0  0  0  0  0  0  0
    6.1548    1.9741    0.0000 C   0  0  0  0  0  0  0  0  0  0  0  0
    2.4220   -2.8819    0.0000 C   0  0  0  0  0  0  0  0  0  0  0  0
    5.7497    2.8819    0.0000 C   0  0  0  0  0  0  0  0  0  0  0  0
    8.7520   -0.6180    0.0000 H   0  0  0  0  0  0  0  0  0  0  0  0
    7.5484    0.7820    0.0000 H   0  0  0  0  0  0  0  0  0  0  0  0
    6.7513    0.7820    0.0000 H   0  0  0  0  0  0  0  0  0  0  0  0
    8.8450   -0.8690    0.0000 H   0  0  0  0  0  0  0  0  0  0  0  0
    9.6919   -1.0960    0.0000 H   0  0  0  0  0  0  0  0  0  0  0  0
    9.9188   -0.2490    0.0000 H   0  0  0  0  0  0  0  0  0  0  0  0
    8.9188    1.4830    0.0000 H   0  0  0  0  0  0  0  0  0  0  0  0
    8.0719    1.7100    0.0000 H   0  0  0  0  0  0  0  0  0  0  0  0
    7.8450    0.8630    0.0000 H   0  0  0  0  0  0  0  0  0  0  0  0
    5.1083   -1.5383    0.0000 H   0  0  0  0  0  0  0  0  0  0  0  0
   10.2848    0.4970    0.0000 H   0  0  0  0  0  0  0  0  0  0  0  0
    2.2424    0.1163    0.0000 H   0  0  0  0  0  0  0  0  0  0  0  0
    8.5528   -1.5030    0.0000 H   0  0  0  0  0  0  0  0  0  0  0  0
    6.7615    1.8462    0.0000 H   0  0  0  0  0  0  0  0  0  0  0  0
    1.8324   -3.0736    0.0000 H   0  0  0  0  0  0  0  0  0  0  0  0
    2.5507   -3.4884    0.0000 H   0  0  0  0  0  0  0  0  0  0  0  0
    6.0597    3.4188    0.0000 H   0  0  0  0  0  0  0  0  0  0  0  0
  1 10  1  0  0  0  0
  1 13  1  0  0  0  0
  2  8  1  0  0  0  0
  2 35  1  0  0  0  0
  3  9  1  0  0  0  0
  3 37  1  0  0  0  0
  4 19  1  0  0  0  0
  4 23  1  0  0  0  0
  5 20  1  0  0  0  0
  5 23  1  0  0  0  0
  6 18  1  0  0  0  0
  6 24  1  0  0  0  0
  7 16  1  0  0  0  0
  7 18  2  0  0  0  0
  8  9  1  0  0  0  0
  8 11  1  0  0  0  0
  8 12  1  0  0  0  0
  9 10  1  0  0  0  0
  9 25  1  0  0  0  0
 10 26  1  0  0  0  0
 10 27  1  0  0  0  0
 11 28  1  0  0  0  0
 11 29  1  0  0  0  0
 11 30  1  0  0  0  0
 12 31  1  0  0  0  0
 12 32  1  0  0  0  0
 12 33  1  0  0  0  0
 13 14  1  0  0  0  0
 13 15  2  0  0  0  0
 14 16  1  0  0  0  0
 14 17  2  0  0  0  0
 15 18  1  0  0  0  0
 15 22  1  0  0  0  0
 16 21  2  0  0  0  0
 17 19  1  0  0  0  0
 17 34  1  0  0  0  0
 19 20  2  0  0  0  0
 20 21  1  0  0  0  0
 21 36  1  0  0  0  0
 22 24  2  0  0  0  0
 22 38  1  0  0  0  0
 23 39  1  0  0  0  0
 23 40  1  0  0  0  0
 24 41  1  0  0  0  0
M  END
> <PUBCHEM_COMPOUND_CID>
442925

> <PUBCHEM_COMPOUND_CANONICALIZED>
1

> <PUBCHEM_CACTVS_COMPLEXITY>
460

> <PUBCHEM_CACTVS_HBOND_ACCEPTOR>
7

> <PUBCHEM_CACTVS_HBOND_DONOR>
2

> <PUBCHEM_CACTVS_ROTATABLE_BOND>
4

> <PUBCHEM_CACTVS_SUBSKEYS>
AAADceB6OAAAAAAAAAAAAAAAAAAAASJAAAA8QAAAAAAAAFix/gAAHgAACAAADFyhngMyzvIIFkCoAy1y1ACCiCAtIiAImCE27NgdN/bEtJuueWrn5B3P6Yf++f+eIEABAgACQABAgAIEAASAAAAAAAAAAA==

> <PUBCHEM_IUPAC_INCHI>
InChI=1S/C17H17NO6/c1-17(2,20)14(19)7-22-15-9-3-4-21-16(9)18-11-6-13-12(5-10(11)15)23-8-24-13/h3-6,14,19-20H,7-8H2,1-2H3

> <PUBCHEM_IUPAC_INCHIKEY>
WRQKGGQCQJIVGY-UHFFFAOYSA-N

> <PUBCHEM_XLOGP3_AA>
1.8

> <PUBCHEM_EXACT_MASS>
331.105587

> <PUBCHEM_MOLECULAR_FORMULA>
C17H17NO6

> <PUBCHEM_MOLECULAR_WEIGHT>
331.31998

> <PUBCHEM_OPENEYE_CAN_SMILES>
CC(C)(C(COC1=C2C=COC2=NC3=CC4=C(C=C31)OCO4)O)O

> <PUBCHEM_OPENEYE_ISO_SMILES>
CC(C)(C(COC1=C2C=COC2=NC3=CC4=C(C=C31)OCO4)O)O

> <PUBCHEM_CACTVS_TPSA>
94.2

> <PUBCHEM_MONOISOTOPIC_WEIGHT>
331.105587

> <PUBCHEM_TOTAL_CHARGE>
0

> <PUBCHEM_HEAVY_ATOM_COUNT>
24

> <PUBCHEM_ATOM_DEF_STEREO_COUNT>
0

> <PUBCHEM_ATOM_UDEF_STEREO_COUNT>
1

> <PUBCHEM_BOND_DEF_STEREO_COUNT>
0

> <PUBCHEM_BOND_UDEF_STEREO_COUNT>
0

> <PUBCHEM_ISOTOPIC_ATOM_COUNT>
0

> <PUBCHEM_COMPONENT_COUNT>
1

> <PUBCHEM_CACTVS_TAUTO_COUNT>
1

> <PUBCHEM_COORDINATE_TYPE>
1
5
255

> <PUBCHEM_BONDANNOTATIONS>
13  14  8
13  15  8
14  16  8
14  17  8
15  18  8
15  22  8
16  21  8
17  19  8
19  20  8
20  21  8
22  24  8
6  18  8
6  24  8
7  16  8
7  18  8
9  25  3

$$$$

