46174065
  -OEChem-07051213113D

 32 31  0     1  0  0  0  0  0999 V2000
   -3.3095   -1.8632   -0.5895 O   0  0  0  0  0  0  0  0  0  0  0  0
   -4.3941   -0.8783    1.1413 O   0  0  0  0  0  0  0  0  0  0  0  0
    0.5281    0.6625    0.2000 N   0  0  0  0  0  0  0  0  0  0  0  0
   -4.2624    1.5273   -0.1955 N   0  0  0  0  0  0  0  0  0  0  0  0
    6.6563   -0.5706   -0.1306 N   0  0  0  0  0  0  0  0  0  0  0  0
   -0.7026    0.2069   -0.4307 C   0  0  0  0  0  0  0  0  0  0  0  0
    1.6814   -0.0535   -0.3324 C   0  0  0  0  0  0  0  0  0  0  0  0
   -1.9035    0.9619    0.1456 C   0  0  0  0  0  0  0  0  0  0  0  0
    2.9644    0.4267    0.3458 C   0  0  0  0  0  0  0  0  0  0  0  0
    4.1886   -0.3094   -0.2084 C   0  0  0  0  0  0  0  0  0  0  0  0
   -3.2338    0.5238   -0.4799 C   0  0  1  0  0  0  0  0  0  0  0  0
    5.5099    0.1477    0.4131 C   0  0  0  0  0  0  0  0  0  0  0  0
   -3.7230   -0.7817    0.1213 C   0  0  0  0  0  0  0  0  0  0  0  0
   -0.8294   -0.8671   -0.2546 H   0  0  0  0  0  0  0  0  0  0  0  0
   -0.6587    0.3686   -1.5146 H   0  0  0  0  0  0  0  0  0  0  0  0
   -1.9360    0.8271    1.2354 H   0  0  0  0  0  0  0  0  0  0  0  0
   -1.7494    2.0347   -0.0361 H   0  0  0  0  0  0  0  0  0  0  0  0
    1.7598    0.1075   -1.4146 H   0  0  0  0  0  0  0  0  0  0  0  0
    1.5667   -1.1304   -0.1598 H   0  0  0  0  0  0  0  0  0  0  0  0
    3.0893    1.5054    0.1886 H   0  0  0  0  0  0  0  0  0  0  0  0
    2.8999    0.2626    1.4287 H   0  0  0  0  0  0  0  0  0  0  0  0
    0.6443    1.6642    0.0496 H   0  0  0  0  0  0  0  0  0  0  0  0
    4.0650   -1.3873   -0.0412 H   0  0  0  0  0  0  0  0  0  0  0  0
    4.2329   -0.1622   -1.2954 H   0  0  0  0  0  0  0  0  0  0  0  0
   -3.1509    0.4196   -1.5674 H   0  0  0  0  0  0  0  0  0  0  0  0
    5.6465    1.2212    0.2407 H   0  0  0  0  0  0  0  0  0  0  0  0
    5.4790   -0.0078    1.4970 H   0  0  0  0  0  0  0  0  0  0  0  0
   -3.9815    2.4257   -0.5869 H   0  0  0  0  0  0  0  0  0  0  0  0
   -5.1284    1.2723   -0.6694 H   0  0  0  0  0  0  0  0  0  0  0  0
    6.7129   -0.4142   -1.1361 H   0  0  0  0  0  0  0  0  0  0  0  0
    7.5139   -0.1900    0.2672 H   0  0  0  0  0  0  0  0  0  0  0  0
   -3.6180   -2.7037   -0.1886 H   0  0  0  0  0  0  0  0  0  0  0  0
  1 13  1  0  0  0  0
  1 32  1  0  0  0  0
  2 13  2  0  0  0  0
  3  6  1  0  0  0  0
  3  7  1  0  0  0  0
  3 22  1  0  0  0  0
  4 11  1  0  0  0  0
  4 28  1  0  0  0  0
  4 29  1  0  0  0  0
  5 12  1  0  0  0  0
  5 30  1  0  0  0  0
  5 31  1  0  0  0  0
  6  8  1  0  0  0  0
  6 14  1  0  0  0  0
  6 15  1  0  0  0  0
  7  9  1  0  0  0  0
  7 18  1  0  0  0  0
  7 19  1  0  0  0  0
  8 11  1  0  0  0  0
  8 16  1  0  0  0  0
  8 17  1  0  0  0  0
  9 10  1  0  0  0  0
  9 20  1  0  0  0  0
  9 21  1  0  0  0  0
 10 12  1  0  0  0  0
 10 23  1  0  0  0  0
 10 24  1  0  0  0  0
 11 13  1  0  0  0  0
 11 25  1  0  0  0  0
 12 26  1  0  0  0  0
 12 27  1  0  0  0  0
M  END
> <PUBCHEM_COMPOUND_CID>
46174065

> <PUBCHEM_CONFORMER_RMSD>
1

> <PUBCHEM_CONFORMER_DIVERSEORDER>
1
16
50
20
21
43
30
44
24
2
37
15
38
53
3
12
29
41
7
10
4
32
46
14
17
25
22
39
51
42
31
36
5
55
49
28
54
26
52
18
40
6
45
33
48
35
9
34
19
47
13
8
11
27
23

> <PUBCHEM_MMFF94_PARTIAL_CHARGES>
16
1 -0.65
11 0.33
12 0.27
13 0.66
2 -0.57
22 0.36
28 0.36
29 0.36
3 -0.9
30 0.36
31 0.36
32 0.5
4 -0.99
5 -0.99
6 0.27
7 0.27

> <PUBCHEM_EFFECTIVE_ROTOR_COUNT>
8

> <PUBCHEM_PHARMACOPHORE_FEATURES>
9
1 1 acceptor
1 2 acceptor
1 3 cation
1 3 donor
1 4 cation
1 4 donor
1 5 cation
1 5 donor
3 1 2 13 anion

> <PUBCHEM_HEAVY_ATOM_COUNT>
13

> <PUBCHEM_ATOM_DEF_STEREO_COUNT>
0

> <PUBCHEM_ATOM_UDEF_STEREO_COUNT>
1

> <PUBCHEM_BOND_DEF_STEREO_COUNT>
0

> <PUBCHEM_BOND_UDEF_STEREO_COUNT>
0

> <PUBCHEM_ISOTOPIC_ATOM_COUNT>
0

> <PUBCHEM_COMPONENT_COUNT>
1

> <PUBCHEM_CACTVS_TAUTO_COUNT>
1

> <PUBCHEM_CONFORMER_ID>
02C08F7100000001

> <PUBCHEM_MMFF94_ENERGY>
-3.281

> <PUBCHEM_FEATURE_SELFOVERLAP>
45.728

> <PUBCHEM_SHAPE_FINGERPRINT>
10680689 15 18411139130086485241
11287383 113 18408605838696553448
12091667 2 17385729110266449868
13167823 11 18201723976691811546
13288520 33 18202281394705989997
14123238 8 17346881152685875956
1420 363 18186516614509750310
14251718 22 18060699481758172640
14251731 8 18335140899459866198
17834072 33 18343298137867250852
17834076 25 16200148815684381964
17844677 252 18335135384722449360
20279233 1 18040149630683094245
20645477 56 18270685384936403829
20645477 70 16951408899921372876
20828058 44 18410576192864985084
220451 1 17703789258438703866
22485316 2 18412830213345456902
23402539 116 17346601889237683812
23402655 69 11167946861816640248
42788 4 18411702093325761060
49783359 22 18259707778823285838

> <PUBCHEM_SHAPE_MULTIPOLES>
240.85
13.99
1.22
0.76
17.03
0.2
-0.07
2.39
-1.05
-1.78
0.07
-0.35
0.09
0.35

> <PUBCHEM_SHAPE_SELFOVERLAP>
442.087

> <PUBCHEM_SHAPE_VOLUME>
152.4

> <PUBCHEM_COORDINATE_TYPE>
2
5
10

$$$$

