440376
  -OEChem-07051212493D

 50 51  0     1  0  0  0  0  0999 V2000
    2.4724   -3.5191   -0.5807 P   0  0  0  0  0  0  0  0  0  0  0  0
   -0.9192    1.5859    0.6483 O   0  0  0  0  0  0  0  0  0  0  0  0
    1.0663    0.4190    0.2735 O   0  0  0  0  0  0  0  0  0  0  0  0
   -3.7968   -0.0497   -0.9194 O   0  0  0  0  0  0  0  0  0  0  0  0
    0.4595    4.0217    0.2313 O   0  0  0  0  0  0  0  0  0  0  0  0
   -0.8124   -1.1058    1.6969 O   0  0  0  0  0  0  0  0  0  0  0  0
    3.3201    3.7947    0.8990 O   0  0  0  0  0  0  0  0  0  0  0  0
    4.4912    1.5097   -0.4289 O   0  0  0  0  0  0  0  0  0  0  0  0
   -3.5309   -2.1924    2.0282 O   0  0  0  0  0  0  0  0  0  0  0  0
   -5.0761   -1.9085   -0.3255 O   0  0  0  0  0  0  0  0  0  0  0  0
    2.0725   -1.9530   -0.6842 O   0  0  0  0  0  0  0  0  0  0  0  0
   -3.8969    2.3478   -2.2601 O   0  0  0  0  0  0  0  0  0  0  0  0
    2.7391   -3.7431    0.9985 O   0  0  0  0  0  0  0  0  0  0  0  0
    3.9583   -3.5562   -1.2178 O   0  0  0  0  0  0  0  0  0  0  0  0
    1.4907   -4.4661   -1.2064 O   0  0  0  0  0  0  0  0  0  0  0  0
   -1.6919    0.4963    0.1514 C   0  0  1  0  0  0  0  0  0  0  0  0
    0.3655    1.6361    0.0284 C   0  0  2  0  0  0  0  0  0  0  0  0
    1.1275    2.8218    0.6201 C   0  0  1  0  0  0  0  0  0  0  0  0
   -2.0213   -0.4557    1.3014 C   0  0  1  0  0  0  0  0  0  0  0  0
    2.5717    2.8601    0.1200 C   0  0  2  0  0  0  0  0  0  0  0  0
   -2.9721    1.0354   -0.4909 C   0  0  1  0  0  0  0  0  0  0  0  0
    3.2399    1.4915    0.2530 C   0  0  1  0  0  0  0  0  0  0  0  0
    2.3546    0.3947   -0.3434 C   0  0  1  0  0  0  0  0  0  0  0  0
   -3.0474   -1.5054    0.8742 C   0  0  2  0  0  0  0  0  0  0  0  0
   -4.2393   -0.8618    0.1657 C   0  0  1  0  0  0  0  0  0  0  0  0
   -2.6712    1.8952   -1.7146 C   0  0  0  0  0  0  0  0  0  0  0  0
    2.9462   -0.9932   -0.1183 C   0  0  0  0  0  0  0  0  0  0  0  0
   -1.1446   -0.0730   -0.6149 H   0  0  0  0  0  0  0  0  0  0  0  0
    0.2232    1.7734   -1.0520 H   0  0  0  0  0  0  0  0  0  0  0  0
    1.1056    2.7875    1.7159 H   0  0  0  0  0  0  0  0  0  0  0  0
   -2.3728    0.0993    2.1791 H   0  0  0  0  0  0  0  0  0  0  0  0
    2.6117    3.2183   -0.9160 H   0  0  0  0  0  0  0  0  0  0  0  0
   -3.5412    1.6467    0.2227 H   0  0  0  0  0  0  0  0  0  0  0  0
    3.4459    1.2882    1.3111 H   0  0  0  0  0  0  0  0  0  0  0  0
    2.2254    0.5366   -1.4252 H   0  0  0  0  0  0  0  0  0  0  0  0
   -2.5654   -2.2546    0.2336 H   0  0  0  0  0  0  0  0  0  0  0  0
   -4.8489   -0.2644    0.8536 H   0  0  0  0  0  0  0  0  0  0  0  0
   -2.0705    2.7717   -1.4570 H   0  0  0  0  0  0  0  0  0  0  0  0
   -2.1503    1.3236   -2.4898 H   0  0  0  0  0  0  0  0  0  0  0  0
    3.0369   -1.1937    0.9544 H   0  0  0  0  0  0  0  0  0  0  0  0
    3.9330   -1.0752   -0.5836 H   0  0  0  0  0  0  0  0  0  0  0  0
    0.4641    4.0684   -0.7400 H   0  0  0  0  0  0  0  0  0  0  0  0
   -0.4724   -1.6045    0.9345 H   0  0  0  0  0  0  0  0  0  0  0  0
    4.2339    3.7854    0.5660 H   0  0  0  0  0  0  0  0  0  0  0  0
    4.3178    1.6821   -1.3701 H   0  0  0  0  0  0  0  0  0  0  0  0
   -4.1845   -2.8461    1.7261 H   0  0  0  0  0  0  0  0  0  0  0  0
   -4.5106   -2.6244   -0.6599 H   0  0  0  0  0  0  0  0  0  0  0  0
   -4.4260    1.5637   -2.4855 H   0  0  0  0  0  0  0  0  0  0  0  0
    2.9327   -4.6482    1.3233 H   0  0  0  0  0  0  0  0  0  0  0  0
    4.3943   -4.4241   -1.3549 H   0  0  0  0  0  0  0  0  0  0  0  0
  1 11  1  0  0  0  0
  1 13  1  0  0  0  0
  1 14  1  0  0  0  0
  1 15  2  0  0  0  0
  2 16  1  0  0  0  0
  2 17  1  0  0  0  0
  3 17  1  0  0  0  0
  3 23  1  0  0  0  0
  4 21  1  0  0  0  0
  4 25  1  0  0  0  0
  5 18  1  0  0  0  0
  5 42  1  0  0  0  0
  6 19  1  0  0  0  0
  6 43  1  0  0  0  0
  7 20  1  0  0  0  0
  7 44  1  0  0  0  0
  8 22  1  0  0  0  0
  8 45  1  0  0  0  0
  9 24  1  0  0  0  0
  9 46  1  0  0  0  0
 10 25  1  0  0  0  0
 10 47  1  0  0  0  0
 11 27  1  0  0  0  0
 12 26  1  0  0  0  0
 12 48  1  0  0  0  0
 13 49  1  0  0  0  0
 14 50  1  0  0  0  0
 16 19  1  0  0  0  0
 16 21  1  0  0  0  0
 16 28  1  0  0  0  0
 17 18  1  0  0  0  0
 17 29  1  0  0  0  0
 18 20  1  0  0  0  0
 18 30  1  0  0  0  0
 19 24  1  0  0  0  0
 19 31  1  0  0  0  0
 20 22  1  0  0  0  0
 20 32  1  0  0  0  0
 21 26  1  0  0  0  0
 21 33  1  0  0  0  0
 22 23  1  0  0  0  0
 22 34  1  0  0  0  0
 23 27  1  0  0  0  0
 23 35  1  0  0  0  0
 24 25  1  0  0  0  0
 24 36  1  0  0  0  0
 25 37  1  0  0  0  0
 26 38  1  0  0  0  0
 26 39  1  0  0  0  0
 27 40  1  0  0  0  0
 27 41  1  0  0  0  0
M  END
> <PUBCHEM_COMPOUND_CID>
440376

> <PUBCHEM_CONFORMER_RMSD>
1

> <PUBCHEM_CONFORMER_DIVERSEORDER>
1
17
79
147
9
25
146
68
180
54
37
93
113
174
149
166
22
119
125
71
139
183
132
179
40
157
136
73
6
173
117
84
128
38
70
18
138
101
154
44
20
145
161
171
43
90
24
10
35
181
153
41
158
109
74
135
46
182
34
39
104
178
3
77
111
141
19
55
57
170
167
115
105
14
60
185
26
61
160
27
56
129
36
16
155
78
7
123
126
15
82
2
23
64
176
137
47
45
72
124
85
48
86
151
83
91
112
31
103
92
89
140
51
148
95
152
98
164
184
65
33
21
4
11
42
29
108
94
118
177
87
121
122
69
67
162
5
52
59
76
30
96
81
172
100
143
133
144
120
110
58
28
134
168
102
165
142
13
80
97
66
159
53
127
99
63
114
12
131
8
88
32
62
169
106
116
75
156
107
163
49
150
175
130
50

> <PUBCHEM_MMFF94_PARTIAL_CHARGES>
36
1 1.51
10 -0.68
11 -0.55
12 -0.68
13 -0.77
14 -0.77
15 -0.7
16 0.28
17 0.56
18 0.28
19 0.28
2 -0.56
20 0.28
21 0.28
22 0.28
23 0.28
24 0.28
25 0.56
26 0.28
27 0.28
3 -0.56
4 -0.56
42 0.4
43 0.4
44 0.4
45 0.4
46 0.4
47 0.4
48 0.4
49 0.5
5 -0.68
50 0.5
6 -0.68
7 -0.68
8 -0.68
9 -0.68

> <PUBCHEM_EFFECTIVE_ROTOR_COUNT>
8.4

> <PUBCHEM_PHARMACOPHORE_FEATURES>
23
1 10 acceptor
1 10 donor
1 12 acceptor
1 12 donor
1 13 acceptor
1 14 acceptor
1 15 acceptor
1 2 acceptor
1 3 acceptor
1 4 acceptor
1 5 acceptor
1 5 donor
1 6 acceptor
1 6 donor
1 7 acceptor
1 7 donor
1 8 acceptor
1 8 donor
1 9 acceptor
1 9 donor
4 1 13 14 15 anion
6 3 17 18 20 22 23 rings
6 4 16 19 21 24 25 rings

> <PUBCHEM_HEAVY_ATOM_COUNT>
27

> <PUBCHEM_ATOM_DEF_STEREO_COUNT>
10

> <PUBCHEM_ATOM_UDEF_STEREO_COUNT>
0

> <PUBCHEM_BOND_DEF_STEREO_COUNT>
0

> <PUBCHEM_BOND_UDEF_STEREO_COUNT>
0

> <PUBCHEM_ISOTOPIC_ATOM_COUNT>
0

> <PUBCHEM_COMPONENT_COUNT>
1

> <PUBCHEM_CACTVS_TAUTO_COUNT>
1

> <PUBCHEM_CONFORMER_ID>
0006B83800000001

> <PUBCHEM_MMFF94_ENERGY>
37.0365

> <PUBCHEM_FEATURE_SELFOVERLAP>
116.87

> <PUBCHEM_SHAPE_FINGERPRINT>
1100329 8 17761490696061224184
12107183 9 17899959811120085617
12553582 1 17904752633375831890
12788726 201 17547570843606250922
1361 2 17976828588630993975
138480 1 18336259154246118926
13911987 19 18122887764852254204
14251757 17 18200316648878617225
14251757 5 17255372334474851710
14659021 117 17257096394451010750
14844126 61 17260740171774682050
14866123 147 17183622637782946065
15635459 17 18340484474046199737
17138139 8 16738067068656066471
19930381 70 18408885144203258487
20028762 73 17897162412746768862
20645477 70 18338801100395806251
20693207 138 18271236218216877527
21133410 32 16482418731171844554
21285901 2 18059582322125667007
21857420 4 14671523419326034365
22440779 20 16982597612901543697
23526113 38 18341333370111185481
23557571 272 17774725256064015053
23558518 356 18050844717631011736
23559900 14 18267031729002563016
23598288 3 17168688852148920313
3298306 158 18412547578780395494
4280585 95 17981894348085743186
5309563 4 18335414729268774174
613672 6 17976272553158603718
621550 34 18268429032166915909
7399639 24 18196653991026348121
9709674 26 18342457058204939299

> <PUBCHEM_SHAPE_MULTIPOLES>
477.33
8.51
5.62
1.44
4.36
2.54
-0.14
2.5
-1.49
-6.39
-0.63
1.33
0.23
2.97

> <PUBCHEM_SHAPE_SELFOVERLAP>
961.026

> <PUBCHEM_SHAPE_VOLUME>
280

> <PUBCHEM_COORDINATE_TYPE>
2
5
10

$$$$

