11954142
  -OEChem-07051213073D

 68 71  0     1  0  0  0  0  0999 V2000
   -1.3180   -1.8161   -0.1828 O   0  0  0  0  0  0  0  0  0  0  0  0
    4.5133   -0.3223   -1.2044 O   0  0  0  0  0  0  0  0  0  0  0  0
   -5.9811   -0.2284    0.0783 O   0  0  0  0  0  0  0  0  0  0  0  0
   -0.5255   -3.2664    1.4313 O   0  0  0  0  0  0  0  0  0  0  0  0
    6.1072   -1.1655    0.2397 O   0  0  0  0  0  0  0  0  0  0  0  0
    0.1908    0.7294    0.5443 C   0  0  1  0  0  0  0  0  0  0  0  0
   -0.7460    1.7671   -0.1537 C   0  0  2  0  0  0  0  0  0  0  0  0
   -1.8902    1.0175   -0.8487 C   0  0  1  0  0  0  0  0  0  0  0  0
   -2.7384    0.1672    0.1271 C   0  0  2  0  0  0  0  0  0  0  0  0
    1.4213    1.4225    1.2441 C   0  0  2  0  0  0  0  0  0  0  0  0
    2.1787    2.3134    0.2020 C   0  0  2  0  0  0  0  0  0  0  0  0
   -1.8240   -0.8911    0.7793 C   0  0  2  0  0  0  0  0  0  0  0  0
   -0.6089   -0.2337    1.4678 C   0  0  0  0  0  0  0  0  0  0  0  0
   -3.7982   -0.3566   -0.8731 C   0  0  2  0  0  0  0  0  0  0  0  0
    0.0309    2.6413   -1.1472 C   0  0  0  0  0  0  0  0  0  0  0  0
   -2.9320    1.8274   -1.6171 C   0  0  0  0  0  0  0  0  0  0  0  0
    1.2428    3.3083   -0.5038 C   0  0  0  0  0  0  0  0  0  0  0  0
   -4.1203    0.8615   -1.7630 C   0  0  0  0  0  0  0  0  0  0  0  0
    2.4274    0.3921    1.8362 C   0  0  0  0  0  0  0  0  0  0  0  0
    2.9554    1.4820   -0.8412 C   0  0  0  0  0  0  0  0  0  0  0  0
   -3.4150    1.0065    1.2477 C   0  0  0  0  0  0  0  0  0  0  0  0
    0.9614    2.3043    2.4344 C   0  0  0  0  0  0  0  0  0  0  0  0
    3.1610   -0.4322    0.7859 C   0  0  0  0  0  0  0  0  0  0  0  0
    3.8976    0.4710   -0.1949 C   0  0  1  0  0  0  0  0  0  0  0  0
   -5.0193   -0.9324   -0.2259 C   0  0  0  0  0  0  0  0  0  0  0  0
   -5.0136   -2.4149    0.0318 C   0  0  0  0  0  0  0  0  0  0  0  0
   -0.4888   -2.7840    0.3075 C   0  0  0  0  0  0  0  0  0  0  0  0
    5.4099   -1.2538   -0.7619 C   0  0  0  0  0  0  0  0  0  0  0  0
    0.4982   -3.1858   -0.7464 C   0  0  0  0  0  0  0  0  0  0  0  0
    5.4235   -2.4281   -1.6930 C   0  0  0  0  0  0  0  0  0  0  0  0
    0.5925    0.0966   -0.2580 H   0  0  0  0  0  0  0  0  0  0  0  0
   -1.1726    2.4393    0.5977 H   0  0  0  0  0  0  0  0  0  0  0  0
   -1.4240    0.3459   -1.5884 H   0  0  0  0  0  0  0  0  0  0  0  0
    2.9286    2.9087    0.7430 H   0  0  0  0  0  0  0  0  0  0  0  0
   -2.3990   -1.4563    1.5232 H   0  0  0  0  0  0  0  0  0  0  0  0
    0.0695   -0.9845    1.8749 H   0  0  0  0  0  0  0  0  0  0  0  0
   -0.9704    0.3225    2.3389 H   0  0  0  0  0  0  0  0  0  0  0  0
   -3.3687   -1.1287   -1.5254 H   0  0  0  0  0  0  0  0  0  0  0  0
   -0.6246    3.4246   -1.5462 H   0  0  0  0  0  0  0  0  0  0  0  0
    0.3494    2.0412   -2.0077 H   0  0  0  0  0  0  0  0  0  0  0  0
   -2.5614    2.1504   -2.5952 H   0  0  0  0  0  0  0  0  0  0  0  0
   -3.2316    2.7245   -1.0640 H   0  0  0  0  0  0  0  0  0  0  0  0
    1.7972    3.8641   -1.2701 H   0  0  0  0  0  0  0  0  0  0  0  0
    0.8962    4.0592    0.2162 H   0  0  0  0  0  0  0  0  0  0  0  0
   -5.0507    1.3745   -1.4983 H   0  0  0  0  0  0  0  0  0  0  0  0
   -4.2249    0.5411   -2.8064 H   0  0  0  0  0  0  0  0  0  0  0  0
    1.9377   -0.2776    2.5506 H   0  0  0  0  0  0  0  0  0  0  0  0
    3.1847    0.9319    2.4229 H   0  0  0  0  0  0  0  0  0  0  0  0
    2.2773    0.9524   -1.5205 H   0  0  0  0  0  0  0  0  0  0  0  0
    3.5402    2.1489   -1.4882 H   0  0  0  0  0  0  0  0  0  0  0  0
   -3.9644    0.3573    1.9394 H   0  0  0  0  0  0  0  0  0  0  0  0
   -2.6981    1.5675    1.8522 H   0  0  0  0  0  0  0  0  0  0  0  0
   -4.1290    1.7370    0.8543 H   0  0  0  0  0  0  0  0  0  0  0  0
    0.5418    1.6982    3.2440 H   0  0  0  0  0  0  0  0  0  0  0  0
    1.8081    2.8570    2.8588 H   0  0  0  0  0  0  0  0  0  0  0  0
    0.2084    3.0440    2.1530 H   0  0  0  0  0  0  0  0  0  0  0  0
    3.8502   -1.1066    1.3054 H   0  0  0  0  0  0  0  0  0  0  0  0
    2.4666   -1.0883    0.2502 H   0  0  0  0  0  0  0  0  0  0  0  0
    4.6831    1.0291    0.3324 H   0  0  0  0  0  0  0  0  0  0  0  0
   -4.8573   -2.9523   -0.9070 H   0  0  0  0  0  0  0  0  0  0  0  0
   -4.2311   -2.6710    0.7478 H   0  0  0  0  0  0  0  0  0  0  0  0
   -5.9795   -2.7162    0.4472 H   0  0  0  0  0  0  0  0  0  0  0  0
    0.8913   -2.3011   -1.2542 H   0  0  0  0  0  0  0  0  0  0  0  0
    0.0154   -3.8513   -1.4656 H   0  0  0  0  0  0  0  0  0  0  0  0
    1.3382   -3.7050   -0.2764 H   0  0  0  0  0  0  0  0  0  0  0  0
    5.7265   -2.1055   -2.6921 H   0  0  0  0  0  0  0  0  0  0  0  0
    4.4330   -2.8893   -1.7206 H   0  0  0  0  0  0  0  0  0  0  0  0
    6.1430   -3.1688   -1.3324 H   0  0  0  0  0  0  0  0  0  0  0  0
  1 12  1  0  0  0  0
  1 27  1  0  0  0  0
  2 24  1  0  0  0  0
  2 28  1  0  0  0  0
  3 25  2  0  0  0  0
  4 27  2  0  0  0  0
  5 28  2  0  0  0  0
  6  7  1  0  0  0  0
  6 10  1  0  0  0  0
  6 13  1  0  0  0  0
  6 31  1  0  0  0  0
  7  8  1  0  0  0  0
  7 15  1  0  0  0  0
  7 32  1  0  0  0  0
  8  9  1  0  0  0  0
  8 16  1  0  0  0  0
  8 33  1  0  0  0  0
  9 12  1  0  0  0  0
  9 14  1  0  0  0  0
  9 21  1  0  0  0  0
 10 11  1  0  0  0  0
 10 19  1  0  0  0  0
 10 22  1  0  0  0  0
 11 17  1  0  0  0  0
 11 20  1  0  0  0  0
 11 34  1  0  0  0  0
 12 13  1  0  0  0  0
 12 35  1  0  0  0  0
 13 36  1  0  0  0  0
 13 37  1  0  0  0  0
 14 18  1  0  0  0  0
 14 25  1  0  0  0  0
 14 38  1  0  0  0  0
 15 17  1  0  0  0  0
 15 39  1  0  0  0  0
 15 40  1  0  0  0  0
 16 18  1  0  0  0  0
 16 41  1  0  0  0  0
 16 42  1  0  0  0  0
 17 43  1  0  0  0  0
 17 44  1  0  0  0  0
 18 45  1  0  0  0  0
 18 46  1  0  0  0  0
 19 23  1  0  0  0  0
 19 47  1  0  0  0  0
 19 48  1  0  0  0  0
 20 24  1  0  0  0  0
 20 49  1  0  0  0  0
 20 50  1  0  0  0  0
 21 51  1  0  0  0  0
 21 52  1  0  0  0  0
 21 53  1  0  0  0  0
 22 54  1  0  0  0  0
 22 55  1  0  0  0  0
 22 56  1  0  0  0  0
 23 24  1  0  0  0  0
 23 57  1  0  0  0  0
 23 58  1  0  0  0  0
 24 59  1  0  0  0  0
 25 26  1  0  0  0  0
 26 60  1  0  0  0  0
 26 61  1  0  0  0  0
 26 62  1  0  0  0  0
 27 29  1  0  0  0  0
 28 30  1  0  0  0  0
 29 63  1  0  0  0  0
 29 64  1  0  0  0  0
 29 65  1  0  0  0  0
 30 66  1  0  0  0  0
 30 67  1  0  0  0  0
 30 68  1  0  0  0  0
M  END
> <PUBCHEM_COMPOUND_CID>
11954142

> <PUBCHEM_CONFORMER_RMSD>
0.8

> <PUBCHEM_CONFORMER_DIVERSEORDER>
1
5
6
3
2
4
7

> <PUBCHEM_MMFF94_PARTIAL_CHARGES>
14
1 -0.43
12 0.28
14 0.06
2 -0.43
24 0.28
25 0.45
26 0.06
27 0.66
28 0.66
29 0.06
3 -0.57
30 0.06
4 -0.57
5 -0.57

> <PUBCHEM_EFFECTIVE_ROTOR_COUNT>
7.2

> <PUBCHEM_PHARMACOPHORE_FEATURES>
7
1 3 acceptor
1 4 acceptor
1 5 acceptor
5 8 9 14 16 18 rings
6 10 11 19 20 23 24 rings
6 6 7 10 11 15 17 rings
6 6 7 8 9 12 13 rings

> <PUBCHEM_HEAVY_ATOM_COUNT>
30

> <PUBCHEM_ATOM_DEF_STEREO_COUNT>
9

> <PUBCHEM_ATOM_UDEF_STEREO_COUNT>
0

> <PUBCHEM_BOND_DEF_STEREO_COUNT>
0

> <PUBCHEM_BOND_UDEF_STEREO_COUNT>
0

> <PUBCHEM_ISOTOPIC_ATOM_COUNT>
0

> <PUBCHEM_COMPONENT_COUNT>
1

> <PUBCHEM_CACTVS_TAUTO_COUNT>
3

> <PUBCHEM_CONFORMER_ID>
00B667DE00000001

> <PUBCHEM_MMFF94_ENERGY>
99.986

> <PUBCHEM_FEATURE_SELFOVERLAP>
35.648

> <PUBCHEM_SHAPE_FINGERPRINT>
107951 10 17203601631479720794
11513181 2 17903914452938226654
11578080 2 17321266701866466137
12422481 6 13912589581033929913
12596602 18 14201410382720160462
13402501 40 18409165519663190358
13533116 47 17968940781985545129
13544592 145 18335989683491770368
14790565 3 17040635561533471109
15209289 33 18259702319677038545
15420108 30 17466486220592151289
17349148 13 17894904109777129287
19591789 44 18271253720604279579
20465049 17 18201998811248396562
20600515 1 18262782052189875892
20775438 99 17686368385275588047
20832881 197 17967812747617035233
20905425 154 17906755934581022663
21756936 100 9583219619290719612
22393880 68 18130799966014645253
23559900 14 18337677395265088281
2838139 119 13542463198379604062
3004659 81 18341608227355682678
3027735 51 18048309235342846508
3298306 158 18270693063767963583
3383291 50 18408040710852698762
340366 18 18200873972535670214
3729539 64 18337669827390612878
46194498 28 18200593588423007484
463206 1 17967819336060398974
563151 74 16734968726582517018
6138700 20 18339922714015458414

> <PUBCHEM_SHAPE_MULTIPOLES>
588.04
10.88
3.65
1.73
2.87
1.15
-0.34
6.32
3.8
1.12
0.32
0.38
-0.51
1.65

> <PUBCHEM_SHAPE_SELFOVERLAP>
1238.861

> <PUBCHEM_SHAPE_VOLUME>
327.6

> <PUBCHEM_COORDINATE_TYPE>
2
5
10

$$$$

