44299148
  -OEChem-07051212462D

 61 68  0     1  0  0  0  0  0999 V2000
    7.7141    2.8707    0.0000 O   0  0  0  0  0  0  0  0  0  0  0  0
    9.9489   -1.1211    0.0000 O   0  0  0  0  0  0  0  0  0  0  0  0
    2.0000   -0.0099    0.0000 O   0  0  0  0  0  0  0  0  0  0  0  0
    6.8258   -0.4438    0.0000 N   0  0  0  0  0  0  0  0  0  0  0  0
    5.8258    1.2882    0.0000 N   0  0  0  0  0  0  0  0  0  0  0  0
   11.6396    0.2480    0.0000 N   0  0  0  0  0  0  0  0  0  0  0  0
    2.6370   -1.7076    0.0000 N   0  0  0  0  0  0  0  0  0  0  0  0
    8.1919    0.9222    0.0000 C   0  0  2  0  0  0  0  0  0  0  0  0
    9.8966   -0.1225    0.0000 C   0  0  1  0  0  0  0  0  0  0  0  0
    8.4507    1.8881    0.0000 C   0  0  3  0  0  0  0  0  0  0  0  0
   10.6737    0.5069    0.0000 C   0  0  1  0  0  0  0  0  0  0  0  0
   10.3153    1.4404    0.0000 C   0  0  0  0  0  0  0  0  0  0  0  0
    5.8258   -0.4438    0.0000 C   0  0  0  0  0  0  0  0  0  0  0  0
    5.3258    0.4222    0.0000 C   0  0  0  0  0  0  0  0  0  0  0  0
    5.3190   -1.3538    0.0000 C   0  0  0  0  0  0  0  0  0  0  0  0
    4.2843    0.4382    0.0000 C   0  0  0  0  0  0  0  0  0  0  0  0
    6.9718   -1.4269    0.0000 C   0  0  0  0  0  0  0  0  0  0  0  0
    7.9330   -0.0437    0.0000 C   0  0  0  0  0  0  0  0  0  0  0  0
    5.0475    1.9061    0.0000 C   0  0  0  0  0  0  0  0  0  0  0  0
    6.1211   -1.9406    0.0000 C   0  0  0  0  0  0  0  0  0  0  0  0
    4.2774   -1.3619    0.0000 C   0  0  0  0  0  0  0  0  0  0  0  0
    3.7566   -0.4598    0.0000 C   0  0  0  0  0  0  0  0  0  0  0  0
    4.1772    1.4263    0.0000 C   0  0  0  0  0  0  0  0  0  0  0  0
    3.5825   -2.1296    0.0000 C   0  0  0  0  0  0  0  0  0  0  0  0
    7.8859   -1.9127    0.0000 C   0  0  0  0  0  0  0  0  0  0  0  0
    2.7443   -0.6777    0.0000 C   0  0  0  0  0  0  0  0  0  0  0  0
    6.1255   -2.9758    0.0000 C   0  0  0  0  0  0  0  0  0  0  0  0
    5.0838    2.9407    0.0000 C   0  0  0  0  0  0  0  0  0  0  0  0
    3.2829    1.9477    0.0000 C   0  0  0  0  0  0  0  0  0  0  0  0
   12.3467    0.9551    0.0000 C   0  0  0  0  0  0  0  0  0  0  0  0
   10.8399   -1.5751    0.0000 C   0  0  0  0  0  0  0  0  0  0  0  0
    7.9143   -2.9475    0.0000 C   0  0  0  0  0  0  0  0  0  0  0  0
    7.0281   -3.4826    0.0000 C   0  0  0  0  0  0  0  0  0  0  0  0
    4.2018    3.4826    0.0000 C   0  0  0  0  0  0  0  0  0  0  0  0
    3.2953    2.9828    0.0000 C   0  0  0  0  0  0  0  0  0  0  0  0
   10.4630   -0.3746    0.0000 H   0  0  0  0  0  0  0  0  0  0  0  0
    8.7913    2.4062    0.0000 H   0  0  0  0  0  0  0  0  0  0  0  0
   10.8026   -0.0996    0.0000 H   0  0  0  0  0  0  0  0  0  0  0  0
   10.9268    1.5428    0.0000 H   0  0  0  0  0  0  0  0  0  0  0  0
   10.3370    2.0601    0.0000 H   0  0  0  0  0  0  0  0  0  0  0  0
    7.3342    0.1167    0.0000 H   0  0  0  0  0  0  0  0  0  0  0  0
    7.7726   -0.6426    0.0000 H   0  0  0  0  0  0  0  0  0  0  0  0
    8.5319   -0.2042    0.0000 H   0  0  0  0  0  0  0  0  0  0  0  0
   11.8001   -0.3508    0.0000 H   0  0  0  0  0  0  0  0  0  0  0  0
    3.2718   -2.6661    0.0000 H   0  0  0  0  0  0  0  0  0  0  0  0
    4.0834   -2.4950    0.0000 H   0  0  0  0  0  0  0  0  0  0  0  0
    8.4129   -1.5861    0.0000 H   0  0  0  0  0  0  0  0  0  0  0  0
    5.5911   -3.2902    0.0000 H   0  0  0  0  0  0  0  0  0  0  0  0
    5.6302    3.2338    0.0000 H   0  0  0  0  0  0  0  0  0  0  0  0
    2.1000   -2.0176    0.0000 H   0  0  0  0  0  0  0  0  0  0  0  0
    2.7435    1.6421    0.0000 H   0  0  0  0  0  0  0  0  0  0  0  0
   12.7851    0.5167    0.0000 H   0  0  0  0  0  0  0  0  0  0  0  0
   12.7851    1.3936    0.0000 H   0  0  0  0  0  0  0  0  0  0  0  0
   11.9083    1.3936    0.0000 H   0  0  0  0  0  0  0  0  0  0  0  0
   10.5584   -2.1275    0.0000 H   0  0  0  0  0  0  0  0  0  0  0  0
   11.3923   -1.8566    0.0000 H   0  0  0  0  0  0  0  0  0  0  0  0
   11.1214   -1.0227    0.0000 H   0  0  0  0  0  0  0  0  0  0  0  0
    8.4584   -3.2448    0.0000 H   0  0  0  0  0  0  0  0  0  0  0  0
    7.0380   -4.1026    0.0000 H   0  0  0  0  0  0  0  0  0  0  0  0
    4.2164    4.1025    0.0000 H   0  0  0  0  0  0  0  0  0  0  0  0
    2.7634    3.3013    0.0000 H   0  0  0  0  0  0  0  0  0  0  0  0
  1  8  1  0  0  0  0
  1 10  1  0  0  0  0
  9  2  1  1  0  0  0
  2 31  1  0  0  0  0
  3 26  2  0  0  0  0
  4  8  1  0  0  0  0
  4 13  1  0  0  0  0
  4 17  1  0  0  0  0
  5 10  1  0  0  0  0
  5 14  1  0  0  0  0
  5 19  1  0  0  0  0
 11  6  1  1  0  0  0
  6 30  1  0  0  0  0
  6 44  1  0  0  0  0
  7 24  1  0  0  0  0
  7 26  1  0  0  0  0
  7 50  1  0  0  0  0
  8  9  1  0  0  0  0
  8 18  1  6  0  0  0
  9 11  1  0  0  0  0
  9 36  1  0  0  0  0
 10 12  1  0  0  0  0
 10 37  1  0  0  0  0
 11 12  1  0  0  0  0
 11 38  1  0  0  0  0
 12 39  1  0  0  0  0
 12 40  1  0  0  0  0
 13 14  2  0  0  0  0
 13 15  1  0  0  0  0
 14 16  1  0  0  0  0
 15 20  1  0  0  0  0
 15 21  2  0  0  0  0
 16 22  2  0  0  0  0
 16 23  1  0  0  0  0
 17 20  1  0  0  0  0
 17 25  2  0  0  0  0
 18 41  1  0  0  0  0
 18 42  1  0  0  0  0
 18 43  1  0  0  0  0
 19 23  1  0  0  0  0
 19 28  2  0  0  0  0
 20 27  2  0  0  0  0
 21 22  1  0  0  0  0
 21 24  1  0  0  0  0
 22 26  1  0  0  0  0
 23 29  2  0  0  0  0
 24 45  1  0  0  0  0
 24 46  1  0  0  0  0
 25 32  1  0  0  0  0
 25 47  1  0  0  0  0
 27 33  1  0  0  0  0
 27 48  1  0  0  0  0
 28 34  1  0  0  0  0
 28 49  1  0  0  0  0
 29 35  1  0  0  0  0
 29 51  1  0  0  0  0
 30 52  1  0  0  0  0
 30 53  1  0  0  0  0
 30 54  1  0  0  0  0
 31 55  1  0  0  0  0
 31 56  1  0  0  0  0
 31 57  1  0  0  0  0
 32 33  2  0  0  0  0
 32 58  1  0  0  0  0
 33 59  1  0  0  0  0
 34 35  2  0  0  0  0
 34 60  1  0  0  0  0
 35 61  1  0  0  0  0
M  END
> <PUBCHEM_COMPOUND_CID>
44299148

> <PUBCHEM_COMPOUND_CANONICALIZED>
1

> <PUBCHEM_CACTVS_COMPLEXITY>
901

> <PUBCHEM_CACTVS_HBOND_ACCEPTOR>
4

> <PUBCHEM_CACTVS_HBOND_DONOR>
2

> <PUBCHEM_CACTVS_ROTATABLE_BOND>
2

> <PUBCHEM_CACTVS_SUBSKEYS>
AAADceB7sAAAAAAAAAAAAAAAAAAAAWLFgAA0YMEABYAAAFix/gAAHgAQAAAADDzhngYywPPMFACoAyVyVACCgCQlEiAI2KE4dNgLYPLA1ZGfIQhmlgDayQf82cOeyAACQAASACCQAASAACQAQAAAAAAAAA==

> <PUBCHEM_IUPAC_INCHI>
InChI=1S/C28H26N4O3/c1-28-26(34-3)17(29-2)12-20(35-28)31-18-10-6-4-8-14(18)22-23-16(13-30-27(23)33)21-15-9-5-7-11-19(15)32(28)25(21)24(22)31/h4-11,17,20,26,29H,12-13H2,1-3H3,(H,30,33)/t17-,20?,26-,28+/m1/s1

> <PUBCHEM_IUPAC_INCHIKEY>
HKSZLNNOFSGOKW-ZGQXJOJZSA-N

> <PUBCHEM_XLOGP3_AA>
3.2

> <PUBCHEM_EXACT_MASS>
466.200491

> <PUBCHEM_MOLECULAR_FORMULA>
C28H26N4O3

> <PUBCHEM_MOLECULAR_WEIGHT>
466.53104

> <PUBCHEM_OPENEYE_CAN_SMILES>
CC12C(C(CC(O1)N3C4=CC=CC=C4C5=C6C(=C7C8=CC=CC=C8N2C7=C53)CNC6=O)NC)OC

> <PUBCHEM_OPENEYE_ISO_SMILES>
C[C@@]12[C@@H]([C@@H](CC(O1)N3C4=CC=CC=C4C5=C6C(=C7C8=CC=CC=C8N2C7=C53)CNC6=O)NC)OC

> <PUBCHEM_CACTVS_TPSA>
69.4

> <PUBCHEM_MONOISOTOPIC_WEIGHT>
466.200491

> <PUBCHEM_TOTAL_CHARGE>
0

> <PUBCHEM_HEAVY_ATOM_COUNT>
35

> <PUBCHEM_ATOM_DEF_STEREO_COUNT>
3

> <PUBCHEM_ATOM_UDEF_STEREO_COUNT>
1

> <PUBCHEM_BOND_DEF_STEREO_COUNT>
0

> <PUBCHEM_BOND_UDEF_STEREO_COUNT>
0

> <PUBCHEM_ISOTOPIC_ATOM_COUNT>
0

> <PUBCHEM_COMPONENT_COUNT>
1

> <PUBCHEM_CACTVS_TAUTO_COUNT>
2

> <PUBCHEM_COORDINATE_TYPE>
1
5
255

> <PUBCHEM_BONDANNOTATIONS>
10  12  3
13  14  8
13  15  8
14  16  8
15  20  8
15  21  8
16  22  8
16  23  8
17  20  8
17  25  8
19  23  8
19  28  8
9  2  5
20  27  8
21  22  8
23  29  8
25  32  8
27  33  8
28  34  8
29  35  8
32  33  8
34  35  8
4  13  8
4  17  8
5  14  8
5  19  8
11  6  5
8  18  6

$$$$

