56928161
  -OEChem-07051213153D

 70 75  0     1  0  0  0  0  0999 V2000
   -2.1251    1.5613    1.6895 O   0  0  0  0  0  0  0  0  0  0  0  0
   -1.4072    3.4330   -0.1320 O   0  0  0  0  0  0  0  0  0  0  0  0
    1.4723   -2.1015   -1.9244 O   0  0  0  0  0  0  0  0  0  0  0  0
    1.6769   -2.3433   -0.5013 O   0  0  0  0  0  0  0  0  0  0  0  0
   -2.7016   -2.4084    0.8843 O   0  0  0  0  0  0  0  0  0  0  0  0
   -4.0277    2.4572   -0.7406 O   0  0  0  0  0  0  0  0  0  0  0  0
    4.7373    0.6437    0.0691 O   0  0  0  0  0  0  0  0  0  0  0  0
   -1.9828   -0.2814    0.2106 N   0  0  0  0  0  0  0  0  0  0  0  0
   -4.5552    0.4735    0.3073 N   0  0  0  0  0  0  0  0  0  0  0  0
    1.7300    0.0241   -0.1270 N   0  0  0  0  0  0  0  0  0  0  0  0
   -2.2306    1.1929    0.3157 C   0  0  2  0  0  0  0  0  0  0  0  0
   -0.6894   -0.8284   -0.2965 C   0  0  2  0  0  0  0  0  0  0  0  0
   -1.2540    2.0685   -0.5194 C   0  0  2  0  0  0  0  0  0  0  0  0
   -4.1779   -0.5564    1.2555 C   0  0  2  0  0  0  0  0  0  0  0  0
    0.3761    0.2214   -0.2380 C   0  0  0  0  0  0  0  0  0  0  0  0
    0.1416    1.5755   -0.3521 C   0  0  0  0  0  0  0  0  0  0  0  0
   -0.8749   -1.3330   -1.7479 C   0  0  0  0  0  0  0  0  0  0  0  0
   -2.9127   -1.2047    0.7390 C   0  0  0  0  0  0  0  0  0  0  0  0
   -3.6806    1.4480   -0.1300 C   0  0  0  0  0  0  0  0  0  0  0  0
   -5.3924   -1.4794    1.2958 C   0  0  0  0  0  0  0  0  0  0  0  0
   -5.9767    0.4450    0.0084 C   0  0  0  0  0  0  0  0  0  0  0  0
   -6.5529   -0.5240    1.0302 C   0  0  0  0  0  0  0  0  0  0  0  0
    0.1066   -2.4384   -2.2148 C   0  0  0  0  0  0  0  0  0  0  0  0
    1.3957    2.2439   -0.3089 C   0  0  0  0  0  0  0  0  0  0  0  0
    2.3770    1.2547   -0.1657 C   0  0  0  0  0  0  0  0  0  0  0  0
    2.4418   -1.2508    0.0026 C   0  0  1  0  0  0  0  0  0  0  0  0
    0.0345   -2.5404   -3.7475 C   0  0  0  0  0  0  0  0  0  0  0  0
   -0.2728   -3.8129   -1.6352 C   0  0  0  0  0  0  0  0  0  0  0  0
    1.8042    3.5936   -0.3846 C   0  0  0  0  0  0  0  0  0  0  0  0
    3.7443    1.5757   -0.0879 C   0  0  0  0  0  0  0  0  0  0  0  0
    2.7574   -1.5347    1.4329 C   0  0  0  0  0  0  0  0  0  0  0  0
    3.1628    3.9161   -0.3084 C   0  0  0  0  0  0  0  0  0  0  0  0
    4.1184    2.9190   -0.1608 C   0  0  0  0  0  0  0  0  0  0  0  0
    3.7943   -2.2295    1.9375 C   0  0  0  0  0  0  0  0  0  0  0  0
    4.0509   -2.4772    3.3970 C   0  0  0  0  0  0  0  0  0  0  0  0
    4.8210   -2.8373    1.0181 C   0  0  0  0  0  0  0  0  0  0  0  0
    6.0710    1.1346    0.1296 C   0  0  0  0  0  0  0  0  0  0  0  0
   -0.4393   -1.6582    0.3710 H   0  0  0  0  0  0  0  0  0  0  0  0
   -1.5009    1.9995   -1.5873 H   0  0  0  0  0  0  0  0  0  0  0  0
   -4.0054   -0.0992    2.2350 H   0  0  0  0  0  0  0  0  0  0  0  0
   -0.7915   -0.4717   -2.4261 H   0  0  0  0  0  0  0  0  0  0  0  0
   -1.8978   -1.7103   -1.8845 H   0  0  0  0  0  0  0  0  0  0  0  0
   -5.4884   -2.0001    2.2532 H   0  0  0  0  0  0  0  0  0  0  0  0
   -5.3473   -2.2369    0.5035 H   0  0  0  0  0  0  0  0  0  0  0  0
   -6.0920    0.0690   -1.0138 H   0  0  0  0  0  0  0  0  0  0  0  0
   -6.4111    1.4469    0.0696 H   0  0  0  0  0  0  0  0  0  0  0  0
   -7.4519   -1.0318    0.6705 H   0  0  0  0  0  0  0  0  0  0  0  0
   -6.8070    0.0119    1.9527 H   0  0  0  0  0  0  0  0  0  0  0  0
    3.3370   -1.1741   -0.6201 H   0  0  0  0  0  0  0  0  0  0  0  0
   -2.0317    0.7455    2.2076 H   0  0  0  0  0  0  0  0  0  0  0  0
   -2.3151    3.7039   -0.3488 H   0  0  0  0  0  0  0  0  0  0  0  0
    0.7191   -3.3118   -4.1194 H   0  0  0  0  0  0  0  0  0  0  0  0
    0.3480   -1.6005   -4.2167 H   0  0  0  0  0  0  0  0  0  0  0  0
   -0.9771   -2.7793   -4.0920 H   0  0  0  0  0  0  0  0  0  0  0  0
    0.4644   -4.5713   -1.9228 H   0  0  0  0  0  0  0  0  0  0  0  0
   -1.2585   -4.1362   -1.9871 H   0  0  0  0  0  0  0  0  0  0  0  0
   -0.3022   -3.8052   -0.5409 H   0  0  0  0  0  0  0  0  0  0  0  0
    1.0743    4.3895   -0.5031 H   0  0  0  0  0  0  0  0  0  0  0  0
    2.0407   -1.1463    2.1575 H   0  0  0  0  0  0  0  0  0  0  0  0
    3.4697    4.9570   -0.3657 H   0  0  0  0  0  0  0  0  0  0  0  0
    5.1425    3.2728   -0.1096 H   0  0  0  0  0  0  0  0  0  0  0  0
    4.5442   -2.8272   -0.0384 H   0  0  0  0  0  0  0  0  0  0  0  0
    4.9819   -3.8884    1.2833 H   0  0  0  0  0  0  0  0  0  0  0  0
    5.7751   -2.3103    1.1233 H   0  0  0  0  0  0  0  0  0  0  0  0
    3.2886   -2.0050    4.0252 H   0  0  0  0  0  0  0  0  0  0  0  0
    5.0240   -2.0684    3.6877 H   0  0  0  0  0  0  0  0  0  0  0  0
    4.0427   -3.5508    3.6106 H   0  0  0  0  0  0  0  0  0  0  0  0
    6.7256    0.2644    0.2488 H   0  0  0  0  0  0  0  0  0  0  0  0
    6.2337    1.7673    1.0091 H   0  0  0  0  0  0  0  0  0  0  0  0
    6.3703    1.6219   -0.8048 H   0  0  0  0  0  0  0  0  0  0  0  0
  1 11  1  0  0  0  0
  1 50  1  0  0  0  0
  2 13  1  0  0  0  0
  2 51  1  0  0  0  0
  3  4  1  0  0  0  0
  3 23  1  0  0  0  0
  4 26  1  0  0  0  0
  5 18  2  0  0  0  0
  6 19  2  0  0  0  0
  7 30  1  0  0  0  0
  7 37  1  0  0  0  0
  8 11  1  0  0  0  0
  8 12  1  0  0  0  0
  8 18  1  0  0  0  0
  9 14  1  0  0  0  0
  9 19  1  0  0  0  0
  9 21  1  0  0  0  0
 10 15  1  0  0  0  0
 10 25  1  0  0  0  0
 10 26  1  0  0  0  0
 11 13  1  0  0  0  0
 11 19  1  0  0  0  0
 12 15  1  0  0  0  0
 12 17  1  0  0  0  0
 12 38  1  0  0  0  0
 13 16  1  0  0  0  0
 13 39  1  0  0  0  0
 14 18  1  0  0  0  0
 14 20  1  0  0  0  0
 14 40  1  0  0  0  0
 15 16  2  0  0  0  0
 16 24  1  0  0  0  0
 17 23  1  0  0  0  0
 17 41  1  0  0  0  0
 17 42  1  0  0  0  0
 20 22  1  0  0  0  0
 20 43  1  0  0  0  0
 20 44  1  0  0  0  0
 21 22  1  0  0  0  0
 21 45  1  0  0  0  0
 21 46  1  0  0  0  0
 22 47  1  0  0  0  0
 22 48  1  0  0  0  0
 23 27  1  0  0  0  0
 23 28  1  0  0  0  0
 24 25  2  0  0  0  0
 24 29  1  0  0  0  0
 25 30  1  0  0  0  0
 26 31  1  0  0  0  0
 26 49  1  0  0  0  0
 27 52  1  0  0  0  0
 27 53  1  0  0  0  0
 27 54  1  0  0  0  0
 28 55  1  0  0  0  0
 28 56  1  0  0  0  0
 28 57  1  0  0  0  0
 29 32  2  0  0  0  0
 29 58  1  0  0  0  0
 30 33  2  0  0  0  0
 31 34  2  0  0  0  0
 31 59  1  0  0  0  0
 32 33  1  0  0  0  0
 32 60  1  0  0  0  0
 33 61  1  0  0  0  0
 34 35  1  0  0  0  0
 34 36  1  0  0  0  0
 35 65  1  0  0  0  0
 35 66  1  0  0  0  0
 35 67  1  0  0  0  0
 36 62  1  0  0  0  0
 36 63  1  0  0  0  0
 36 64  1  0  0  0  0
 37 68  1  0  0  0  0
 37 69  1  0  0  0  0
 37 70  1  0  0  0  0
M  END
> <PUBCHEM_COMPOUND_CID>
56928161

> <PUBCHEM_CONFORMER_RMSD>
0.8

> <PUBCHEM_CONFORMER_DIVERSEORDER>
1
2

> <PUBCHEM_MMFF94_PARTIAL_CHARGES>
37
1 -0.68
10 0.05
11 0.64
12 0.48
13 0.46
14 0.36
15 -0.33
16 -0.18
18 0.57
19 0.57
2 -0.68
21 0.3
23 0.28
25 -0.15
26 0.67
29 -0.15
3 -0.28
30 0.08
31 -0.29
32 -0.15
33 -0.15
34 -0.28
35 0.14
36 0.14
37 0.28
4 -0.28
5 -0.57
50 0.4
51 0.4
58 0.15
59 0.15
6 -0.57
60 0.15
61 0.15
7 -0.36
8 -0.66
9 -0.66

> <PUBCHEM_EFFECTIVE_ROTOR_COUNT>
3.8

> <PUBCHEM_PHARMACOPHORE_FEATURES>
15
1 1 acceptor
1 1 donor
1 10 cation
1 2 acceptor
1 2 donor
1 5 acceptor
1 6 acceptor
1 7 acceptor
3 23 27 28 hydrophobe
3 34 35 36 hydrophobe
5 10 15 16 24 25 rings
5 9 14 20 21 22 rings
6 24 25 29 30 32 33 rings
6 8 11 12 13 15 16 rings
6 8 9 11 14 18 19 rings

> <PUBCHEM_HEAVY_ATOM_COUNT>
37

> <PUBCHEM_ATOM_DEF_STEREO_COUNT>
5

> <PUBCHEM_ATOM_UDEF_STEREO_COUNT>
0

> <PUBCHEM_BOND_DEF_STEREO_COUNT>
0

> <PUBCHEM_BOND_UDEF_STEREO_COUNT>
0

> <PUBCHEM_ISOTOPIC_ATOM_COUNT>
0

> <PUBCHEM_COMPONENT_COUNT>
1

> <PUBCHEM_CACTVS_TAUTO_COUNT>
2

> <PUBCHEM_CONFORMER_ID>
0364A7A100000001

> <PUBCHEM_MMFF94_ENERGY>
120.5603

> <PUBCHEM_FEATURE_SELFOVERLAP>
76.426

> <PUBCHEM_SHAPE_FINGERPRINT>
10006869 2 18410579487010124504
10675989 125 15750094865157394293
1100329 8 18116994373531062960
11578080 2 16629703862635040902
11963148 33 18058449803168560075
12107698 1 18341333369979505235
12128747 34 17703515479632047915
12160290 23 17170132351475373343
12422481 6 18115317802903066591
12633257 1 18197210571453585929
13140716 1 18124035895324996344
13583140 156 18059308590305045590
13782708 43 16271379607412291938
140371 6 17831298676497679852
14790565 3 18046617907192208949
14955137 171 18264773332456967986
15064986 96 18187925148617898222
15274700 242 17985003518267198720
15297060 5 17096072589670518966
15324884 4 17539430012733631470
15403338 16 18059866111414893778
16112460 7 18268417096521678361
17349148 13 18260832635226888889
18681886 176 18113613452790622776
19319366 153 18127970806964777692
1979834 28 17967811699782320483
21033648 29 17462030913534553610
23559900 14 18263913505504821071
23569917 315 17823405025008631015
25222932 49 18056747733699593683
3411729 13 18340198596981289520
350125 39 18339073770885518316
4073 2 17845082979228945489
484985 159 15976130163645802594
5104073 3 18342444972879268673

> <PUBCHEM_SHAPE_MULTIPOLES>
705.41
11.49
4.69
2.19
7.55
0.93
0.7
0.65
-6.52
-4.32
1.03
-0.95
-3.23
-1.63

> <PUBCHEM_SHAPE_SELFOVERLAP>
1548.575

> <PUBCHEM_SHAPE_VOLUME>
377.2

> <PUBCHEM_COORDINATE_TYPE>
2
5
10

$$$$

