14174
  -OEChem-06241222423D

 48 50  0     1  0  0  0  0  0999 V2000
   -5.0043    2.3381   -1.0747 F   0  0  0  0  0  0  0  0  0  0  0  0
   -1.4309   -1.6232    2.2259 O   0  0  0  0  0  0  0  0  0  0  0  0
    1.5976   -0.9871   -0.4075 N   0  0  1  0  0  0  0  0  0  0  0  0
    2.3643    0.2712   -0.2866 C   0  0  0  0  0  0  0  0  0  0  0  0
    2.5461    0.5969   -1.7826 C   0  0  0  0  0  0  0  0  0  0  0  0
    3.7285    0.1236    0.4385 C   0  0  0  0  0  0  0  0  0  0  0  0
    1.5252    1.3670    0.4070 C   0  0  0  0  0  0  0  0  0  0  0  0
    2.7608   -0.7505   -2.4579 C   0  0  0  0  0  0  0  0  0  0  0  0
    2.2073   -1.7762   -1.4806 C   0  0  0  0  0  0  0  0  0  0  0  0
    4.4753    1.4515    0.5916 C   0  0  0  0  0  0  0  0  0  0  0  0
    2.2764    2.6938    0.5242 C   0  0  0  0  0  0  0  0  0  0  0  0
    3.6074    2.5199    1.2473 C   0  0  0  0  0  0  0  0  0  0  0  0
    1.4121   -1.7713    0.8039 C   0  0  0  0  0  0  0  0  0  0  0  0
    0.4842   -2.9566    0.5299 C   0  0  0  0  0  0  0  0  0  0  0  0
   -0.8988   -2.5118    0.0460 C   0  0  0  0  0  0  0  0  0  0  0  0
   -1.6013   -1.5665    1.0103 C   0  0  0  0  0  0  0  0  0  0  0  0
   -2.5099   -0.5240    0.4535 C   0  0  0  0  0  0  0  0  0  0  0  0
   -3.1751   -0.7869   -0.7231 C   0  0  0  0  0  0  0  0  0  0  0  0
   -2.6506    0.6633    1.1367 C   0  0  0  0  0  0  0  0  0  0  0  0
   -4.0252    0.1886   -1.2438 C   0  0  0  0  0  0  0  0  0  0  0  0
   -3.5008    1.6389    0.6161 C   0  0  0  0  0  0  0  0  0  0  0  0
   -4.1883    1.4015   -0.5743 C   0  0  0  0  0  0  0  0  0  0  0  0
    3.3710    1.2817   -1.9976 H   0  0  0  0  0  0  0  0  0  0  0  0
    1.6359    1.0533   -2.1952 H   0  0  0  0  0  0  0  0  0  0  0  0
    4.3801   -0.5889   -0.0809 H   0  0  0  0  0  0  0  0  0  0  0  0
    3.5709   -0.2777    1.4475 H   0  0  0  0  0  0  0  0  0  0  0  0
    1.2444    1.0467    1.4181 H   0  0  0  0  0  0  0  0  0  0  0  0
    0.5846    1.5346   -0.1332 H   0  0  0  0  0  0  0  0  0  0  0  0
    2.2494   -0.7861   -3.4255 H   0  0  0  0  0  0  0  0  0  0  0  0
    3.8280   -0.9275   -2.6328 H   0  0  0  0  0  0  0  0  0  0  0  0
    1.4759   -2.4131   -1.9885 H   0  0  0  0  0  0  0  0  0  0  0  0
    3.0252   -2.4122   -1.1194 H   0  0  0  0  0  0  0  0  0  0  0  0
    4.8203    1.8064   -0.3858 H   0  0  0  0  0  0  0  0  0  0  0  0
    5.3754    1.2929    1.1973 H   0  0  0  0  0  0  0  0  0  0  0  0
    1.6573    3.4157    1.0691 H   0  0  0  0  0  0  0  0  0  0  0  0
    2.4494    3.1162   -0.4726 H   0  0  0  0  0  0  0  0  0  0  0  0
    3.4192    2.2433    2.2921 H   0  0  0  0  0  0  0  0  0  0  0  0
    4.1463    3.4739    1.2637 H   0  0  0  0  0  0  0  0  0  0  0  0
    2.3662   -2.1676    1.1729 H   0  0  0  0  0  0  0  0  0  0  0  0
    1.0026   -1.1557    1.6096 H   0  0  0  0  0  0  0  0  0  0  0  0
    0.9198   -3.6651   -0.1833 H   0  0  0  0  0  0  0  0  0  0  0  0
    0.3678   -3.5157    1.4676 H   0  0  0  0  0  0  0  0  0  0  0  0
   -1.5377   -3.3950   -0.0704 H   0  0  0  0  0  0  0  0  0  0  0  0
   -0.8008   -2.0426   -0.9381 H   0  0  0  0  0  0  0  0  0  0  0  0
   -3.0825   -1.7293   -1.2530 H   0  0  0  0  0  0  0  0  0  0  0  0
   -2.1165    0.8643    2.0604 H   0  0  0  0  0  0  0  0  0  0  0  0
   -4.5641    0.0028   -2.1682 H   0  0  0  0  0  0  0  0  0  0  0  0
   -3.6264    2.5840    1.1362 H   0  0  0  0  0  0  0  0  0  0  0  0
  1 22  1  0  0  0  0
  2 16  2  0  0  0  0
  3  4  1  0  0  0  0
  3  9  1  0  0  0  0
  3 13  1  0  0  0  0
  4  5  1  0  0  0  0
  4  6  1  0  0  0  0
  4  7  1  0  0  0  0
  5  8  1  0  0  0  0
  5 23  1  0  0  0  0
  5 24  1  0  0  0  0
  6 10  1  0  0  0  0
  6 25  1  0  0  0  0
  6 26  1  0  0  0  0
  7 11  1  0  0  0  0
  7 27  1  0  0  0  0
  7 28  1  0  0  0  0
  8  9  1  0  0  0  0
  8 29  1  0  0  0  0
  8 30  1  0  0  0  0
  9 31  1  0  0  0  0
  9 32  1  0  0  0  0
 10 12  1  0  0  0  0
 10 33  1  0  0  0  0
 10 34  1  0  0  0  0
 11 12  1  0  0  0  0
 11 35  1  0  0  0  0
 11 36  1  0  0  0  0
 12 37  1  0  0  0  0
 12 38  1  0  0  0  0
 13 14  1  0  0  0  0
 13 39  1  0  0  0  0
 13 40  1  0  0  0  0
 14 15  1  0  0  0  0
 14 41  1  0  0  0  0
 14 42  1  0  0  0  0
 15 16  1  0  0  0  0
 15 43  1  0  0  0  0
 15 44  1  0  0  0  0
 16 17  1  0  0  0  0
 17 18  2  0  0  0  0
 17 19  1  0  0  0  0
 18 20  1  0  0  0  0
 18 45  1  0  0  0  0
 19 21  2  0  0  0  0
 19 46  1  0  0  0  0
 20 22  2  0  0  0  0
 20 47  1  0  0  0  0
 21 22  1  0  0  0  0
 21 48  1  0  0  0  0
M  END
> <PUBCHEM_COMPOUND_CID>
14174

> <PUBCHEM_CONFORMER_RMSD>
0.8

> <PUBCHEM_CONFORMER_DIVERSEORDER>
2
3
93
66
68
120
124
16
62
20
64
109
85
41
58
139
127
52
119
61
96
140
71
130
92
103
77
69
95
135
94
11
122
27
45
98
57
76
105
129
7
15
22
38
86
132
83
31
106
42
110
141
30
13
90
46
117
67
131
78
134
35
138
112
74
47
126
5
121
44
108
33
10
115
136
54
70
32
107
113
8
128
24
137
88
63
17
82
102
36
49
87
9
80
118
101
6
89
125
116
23
123
4
56
79
55
97
75
65
133
114
34
51
21
111
40
59
19
1
100
18
28
37
12
73
81
43
99
26
72
60
25
53
50
91
14
39
84
48
29
104

> <PUBCHEM_MMFF94_PARTIAL_CHARGES>
18
1 -0.19
13 0.27
15 0.06
16 0.42
17 0.09
18 -0.15
19 -0.15
2 -0.57
20 -0.15
21 -0.15
22 0.19
3 -0.81
4 0.27
45 0.15
46 0.15
47 0.15
48 0.15
9 0.27

> <PUBCHEM_EFFECTIVE_ROTOR_COUNT>
6.8

> <PUBCHEM_PHARMACOPHORE_FEATURES>
5
1 2 acceptor
1 3 cation
5 3 4 5 8 9 rings
6 17 18 19 20 21 22 rings
6 4 6 7 10 11 12 rings

> <PUBCHEM_HEAVY_ATOM_COUNT>
22

> <PUBCHEM_ATOM_DEF_STEREO_COUNT>
0

> <PUBCHEM_ATOM_UDEF_STEREO_COUNT>
0

> <PUBCHEM_BOND_DEF_STEREO_COUNT>
0

> <PUBCHEM_BOND_UDEF_STEREO_COUNT>
0

> <PUBCHEM_ISOTOPIC_ATOM_COUNT>
0

> <PUBCHEM_COMPONENT_COUNT>
1

> <PUBCHEM_CACTVS_TAUTO_COUNT>
2

> <PUBCHEM_CONFORMER_ID>
0000375E00000002

> <PUBCHEM_MMFF94_ENERGY>
41.1948

> <PUBCHEM_FEATURE_SELFOVERLAP>
25.378

> <PUBCHEM_SHAPE_FINGERPRINT>
10165383 225 17769048550222569499
10498660 4 18410291441213375389
10646746 165 18339922611009693522
10764073 3 18197237999874217674
10871710 139 15741634471100206864
11221954 11 18191581956698414232
11370993 70 18337680719411461521
11552529 35 13541880371017272217
11725454 13 17970082066728758770
12077114 3 18197218053381496010
12596599 1 17894905278330013341
12633257 1 18271544034544830840
12778500 126 12966572053208110757
13103583 49 13254528620482873437
13134695 92 17981053225294651218
13294875 104 18342455971879244730
13965767 371 17845951721815364430
14251732 17 18411708664583422208
14251764 38 18266745670911164748
14957384 54 18198917924270402936
15375358 24 18335140864826159024
15664445 248 5039078871583921611
17093844 170 18272092759308371156
18186145 218 18335408102123271035
18219364 16 18270101483746858339
18981168 100 18266160773679973290
19752476 56 18188492492159501833
21279426 13 18336535080789468342
21860390 5 18187083979520935644
21864079 5 18188482609793039065
22393880 68 18408324410389412007
22749437 52 18339360768899553529
23559900 14 18186518830581123226
238 59 17749959838431493112
43658 37 18412268367515252283
474 4 18338805606117173761
5262128 65 17604131735835577813
5895379 119 17606123028666144112
6328613 192 18272367526416265532
7808743 9 17844224273210618964
9709674 26 18260261915308383493
9981440 41 18340218379400585507

> <PUBCHEM_SHAPE_MULTIPOLES>
434.63
8.82
3.19
1.77
4.42
0.08
-0.53
-6.54
-1.72
-0.53
0.7
-0.38
0.45
1.87

> <PUBCHEM_SHAPE_SELFOVERLAP>
912.421

> <PUBCHEM_SHAPE_VOLUME>
246.7

> <PUBCHEM_COORDINATE_TYPE>
2
5
10

$$$$

