56927801
  -OEChem-07051213153D

 55 56  0     1  0  0  0  0  0999 V2000
   -3.5663   -1.3751   -1.9259 O   0  0  0  0  0  0  0  0  0  0  0  0
   -0.1395    0.9388    0.7170 C   0  0  1  0  0  0  0  0  0  0  0  0
    0.9180   -0.1908    0.3586 C   0  0  1  0  0  0  0  0  0  0  0  0
   -0.1137    2.0049   -0.4275 C   0  0  2  0  0  0  0  0  0  0  0  0
    2.2380    0.3212   -0.2410 C   0  0  0  0  0  0  0  0  0  0  0  0
    3.3429   -0.7294   -0.4915 C   0  0  0  0  0  0  0  0  0  0  0  0
    1.1939   -1.1322    1.5536 C   0  0  0  0  0  0  0  0  0  0  0  0
   -1.5473    0.3005    0.7989 C   0  0  0  0  0  0  0  0  0  0  0  0
    1.2821    2.6323   -0.5552 C   0  0  0  0  0  0  0  0  0  0  0  0
    3.4874   -1.6720    0.7270 C   0  0  0  0  0  0  0  0  0  0  0  0
    2.1643   -2.2520    1.2063 C   0  0  0  0  0  0  0  0  0  0  0  0
    0.1523    1.5896    2.0906 C   0  0  0  0  0  0  0  0  0  0  0  0
    2.3749    1.6126   -0.5992 C   0  0  0  0  0  0  0  0  0  0  0  0
   -1.1575    3.1244   -0.3218 C   0  0  0  0  0  0  0  0  0  0  0  0
   -1.9023   -0.3675   -0.5224 C   0  0  0  0  0  0  0  0  0  0  0  0
    4.7461   -0.1254   -0.7477 C   0  0  0  0  0  0  0  0  0  0  0  0
    2.9686   -1.5437   -1.7508 C   0  0  0  0  0  0  0  0  0  0  0  0
   -3.3240   -0.9766   -0.5657 C   0  0  2  0  0  0  0  0  0  0  0  0
   -3.4139   -2.2491    0.2879 C   0  0  0  0  0  0  0  0  0  0  0  0
   -4.3665    0.0750   -0.2555 C   0  0  0  0  0  0  0  0  0  0  0  0
   -5.3373    0.0144    0.6643 C   0  0  0  0  0  0  0  0  0  0  0  0
    0.5365   -0.8129   -0.4493 H   0  0  0  0  0  0  0  0  0  0  0  0
   -0.2809    1.5098   -1.3916 H   0  0  0  0  0  0  0  0  0  0  0  0
    0.2625   -1.5872    1.9058 H   0  0  0  0  0  0  0  0  0  0  0  0
    1.6180   -0.5717    2.3952 H   0  0  0  0  0  0  0  0  0  0  0  0
   -2.2871    1.0606    1.0712 H   0  0  0  0  0  0  0  0  0  0  0  0
   -1.5832   -0.4391    1.6060 H   0  0  0  0  0  0  0  0  0  0  0  0
    1.4813    3.3346    0.2628 H   0  0  0  0  0  0  0  0  0  0  0  0
    1.3227    3.2181   -1.4827 H   0  0  0  0  0  0  0  0  0  0  0  0
    3.9488   -1.1250    1.5610 H   0  0  0  0  0  0  0  0  0  0  0  0
    4.1691   -2.4987    0.4887 H   0  0  0  0  0  0  0  0  0  0  0  0
    2.3400   -2.8695    2.0949 H   0  0  0  0  0  0  0  0  0  0  0  0
    1.7282   -2.9117    0.4484 H   0  0  0  0  0  0  0  0  0  0  0  0
   -0.5157    2.4330    2.2901 H   0  0  0  0  0  0  0  0  0  0  0  0
    1.1816    1.9534    2.1642 H   0  0  0  0  0  0  0  0  0  0  0  0
   -0.0055    0.8824    2.9125 H   0  0  0  0  0  0  0  0  0  0  0  0
    3.3063    1.9774   -1.0197 H   0  0  0  0  0  0  0  0  0  0  0  0
   -1.0334    3.7211    0.5862 H   0  0  0  0  0  0  0  0  0  0  0  0
   -2.1787    2.7356   -0.3455 H   0  0  0  0  0  0  0  0  0  0  0  0
   -1.0633    3.8096   -1.1723 H   0  0  0  0  0  0  0  0  0  0  0  0
   -1.2361   -1.1926   -0.7816 H   0  0  0  0  0  0  0  0  0  0  0  0
   -1.8481    0.3323   -1.3613 H   0  0  0  0  0  0  0  0  0  0  0  0
    5.5034   -0.9143   -0.8324 H   0  0  0  0  0  0  0  0  0  0  0  0
    5.0525    0.5353    0.0717 H   0  0  0  0  0  0  0  0  0  0  0  0
    4.7824    0.4467   -1.6816 H   0  0  0  0  0  0  0  0  0  0  0  0
    3.7226   -2.3116   -1.9602 H   0  0  0  0  0  0  0  0  0  0  0  0
    2.9056   -0.8961   -2.6337 H   0  0  0  0  0  0  0  0  0  0  0  0
    2.0054   -2.0544   -1.6559 H   0  0  0  0  0  0  0  0  0  0  0  0
   -3.2678   -2.0468    1.3535 H   0  0  0  0  0  0  0  0  0  0  0  0
   -4.3826   -2.7468    0.1603 H   0  0  0  0  0  0  0  0  0  0  0  0
   -2.6589   -2.9790   -0.0274 H   0  0  0  0  0  0  0  0  0  0  0  0
   -4.3253    0.9761   -0.8666 H   0  0  0  0  0  0  0  0  0  0  0  0
   -4.4470   -1.7862   -1.9693 H   0  0  0  0  0  0  0  0  0  0  0  0
   -6.0293    0.8423    0.7790 H   0  0  0  0  0  0  0  0  0  0  0  0
   -5.4692   -0.8395    1.3174 H   0  0  0  0  0  0  0  0  0  0  0  0
  1 18  1  0  0  0  0
  1 53  1  0  0  0  0
  2  3  1  0  0  0  0
  2  4  1  0  0  0  0
  2  8  1  0  0  0  0
  2 12  1  0  0  0  0
  3  5  1  0  0  0  0
  3  7  1  0  0  0  0
  3 22  1  0  0  0  0
  4  9  1  0  0  0  0
  4 14  1  0  0  0  0
  4 23  1  0  0  0  0
  5  6  1  0  0  0  0
  5 13  2  0  0  0  0
  6 10  1  0  0  0  0
  6 16  1  0  0  0  0
  6 17  1  0  0  0  0
  7 11  1  0  0  0  0
  7 24  1  0  0  0  0
  7 25  1  0  0  0  0
  8 15  1  0  0  0  0
  8 26  1  0  0  0  0
  8 27  1  0  0  0  0
  9 13  1  0  0  0  0
  9 28  1  0  0  0  0
  9 29  1  0  0  0  0
 10 11  1  0  0  0  0
 10 30  1  0  0  0  0
 10 31  1  0  0  0  0
 11 32  1  0  0  0  0
 11 33  1  0  0  0  0
 12 34  1  0  0  0  0
 12 35  1  0  0  0  0
 12 36  1  0  0  0  0
 13 37  1  0  0  0  0
 14 38  1  0  0  0  0
 14 39  1  0  0  0  0
 14 40  1  0  0  0  0
 15 18  1  0  0  0  0
 15 41  1  0  0  0  0
 15 42  1  0  0  0  0
 16 43  1  0  0  0  0
 16 44  1  0  0  0  0
 16 45  1  0  0  0  0
 17 46  1  0  0  0  0
 17 47  1  0  0  0  0
 17 48  1  0  0  0  0
 18 19  1  0  0  0  0
 18 20  1  0  0  0  0
 19 49  1  0  0  0  0
 19 50  1  0  0  0  0
 19 51  1  0  0  0  0
 20 21  2  0  0  0  0
 20 52  1  0  0  0  0
 21 54  1  0  0  0  0
 21 55  1  0  0  0  0
M  END
> <PUBCHEM_COMPOUND_CID>
56927801

> <PUBCHEM_CONFORMER_RMSD>
0.8

> <PUBCHEM_CONFORMER_DIVERSEORDER>
1
8
15
11
14
5
9
7
6
16
2
10
12
13
3
4

> <PUBCHEM_MMFF94_PARTIAL_CHARGES>
14
1 -0.68
13 -0.29
18 0.42
20 -0.29
21 -0.3
3 0.14
37 0.15
5 -0.28
52 0.15
53 0.4
54 0.15
55 0.15
6 0.14
9 0.14

> <PUBCHEM_EFFECTIVE_ROTOR_COUNT>
5.4

> <PUBCHEM_PHARMACOPHORE_FEATURES>
6
1 1 acceptor
1 1 donor
1 21 hydrophobe
3 6 16 17 hydrophobe
6 2 3 4 5 9 13 rings
6 3 5 6 7 10 11 rings

> <PUBCHEM_HEAVY_ATOM_COUNT>
21

> <PUBCHEM_ATOM_DEF_STEREO_COUNT>
4

> <PUBCHEM_ATOM_UDEF_STEREO_COUNT>
0

> <PUBCHEM_BOND_DEF_STEREO_COUNT>
0

> <PUBCHEM_BOND_UDEF_STEREO_COUNT>
0

> <PUBCHEM_ISOTOPIC_ATOM_COUNT>
0

> <PUBCHEM_COMPONENT_COUNT>
1

> <PUBCHEM_CACTVS_TAUTO_COUNT>
1

> <PUBCHEM_CONFORMER_ID>
0364A63900000001

> <PUBCHEM_MMFF94_ENERGY>
63.7803

> <PUBCHEM_FEATURE_SELFOVERLAP>
30.463

> <PUBCHEM_SHAPE_FINGERPRINT>
104564 63 18264773336350813769
10906281 52 18128241291194427012
11221954 11 12533617221878606398
11578080 2 18115608022396802193
116883 192 18336541719923035469
12011746 2 7060388032562542128
12035759 4 18343295989845363624
12202030 40 17314796419644981774
12251169 10 7276827978552727520
12403259 327 15357698591372257199
12553582 1 18340778112639571243
12596599 1 18261938696284633171
12714826 92 18188778373819981497
12788726 201 18263923405051341833
13083527 12 18268736968642885384
13583140 156 15194416652872722316
13911987 19 17630296711584962918
14787075 74 18115877304593835640
15664445 248 18337377323253721948
16752209 62 18121234314048561793
16945 1 18201710761130098392
17492 54 18199171928884006812
17818456 19 17895463843512651081
1813 80 18336258024468935373
18186145 218 17917718946336876327
19784866 140 18201152255998459667
200 152 18131070480524765130
20291156 8 18410576197302292743
20626108 58 17896049754060244591
20645477 70 18336827485782837551
20671657 53 18343021111785393316
20775530 9 17389654512501200278
21250096 35 18040434395240814847
21285901 2 18042117833837854045
21634736 98 18412823564504013100
22112679 90 18041260128452481417
221490 88 18055906606939964603
23402539 116 18411417319787910294
23419403 2 17901710125825065320
23557571 272 18117003376182994130
23559900 14 17312824861682823512
238 59 17763473811510986791
25147074 1 17843959480535608602
2748010 2 17769348562636598728
2838139 119 14979385146411558830
2871803 45 18342452664769685916
314173 41 18412538795493173351
3323516 105 17988922219840243411
46194498 28 17346037741199254127
6287921 2 17269462142345623821
7164475 11 18127977622866405494
7471813 234 18058187179166931098
7495541 125 17203320075135735219

> <PUBCHEM_SHAPE_MULTIPOLES>
426.3
8.37
2.86
1.51
5.89
1.36
-0.15
-4.31
1.98
-0.27
0.02
-0.25
-0.34
-0.67

> <PUBCHEM_SHAPE_SELFOVERLAP>
863.515

> <PUBCHEM_SHAPE_VOLUME>
247.4

> <PUBCHEM_COORDINATE_TYPE>
2
5
10

$$$$

