193530
  -OEChem-07051212473D

 21 20  0     1  0  0  0  0  0999 V2000
   -1.6052    1.7029    0.2015 O   0  0  0  0  0  0  0  0  0  0  0  0
   -3.2156   -1.4353   -0.6165 O   0  0  0  0  0  0  0  0  0  0  0  0
    4.3567   -0.7561    0.5032 O   0  0  0  0  0  0  0  0  0  0  0  0
   -3.8482    0.2784    0.7314 O   0  0  0  0  0  0  0  0  0  0  0  0
    3.4641    1.0135   -0.6089 O   0  0  0  0  0  0  0  0  0  0  0  0
   -0.5446   -0.4589    0.0915 C   0  0  0  0  0  0  0  0  0  0  0  0
    0.8171    0.1770   -0.2149 C   0  0  0  0  0  0  0  0  0  0  0  0
   -1.7059    0.4160   -0.3815 C   0  0  1  0  0  0  0  0  0  0  0  0
    1.9822   -0.6652    0.2970 C   0  0  0  0  0  0  0  0  0  0  0  0
   -3.0216   -0.2381   -0.0107 C   0  0  0  0  0  0  0  0  0  0  0  0
    3.3211   -0.0341    0.0079 C   0  0  0  0  0  0  0  0  0  0  0  0
   -0.5985   -1.4512   -0.3723 H   0  0  0  0  0  0  0  0  0  0  0  0
   -0.6220   -0.6091    1.1764 H   0  0  0  0  0  0  0  0  0  0  0  0
    0.9140    0.3205   -1.2985 H   0  0  0  0  0  0  0  0  0  0  0  0
    0.8758    1.1743    0.2382 H   0  0  0  0  0  0  0  0  0  0  0  0
   -1.6777    0.5406   -1.4699 H   0  0  0  0  0  0  0  0  0  0  0  0
    1.9630   -1.6521   -0.1783 H   0  0  0  0  0  0  0  0  0  0  0  0
    1.8957   -0.7924    1.3819 H   0  0  0  0  0  0  0  0  0  0  0  0
   -2.3049    2.2555   -0.1867 H   0  0  0  0  0  0  0  0  0  0  0  0
   -4.0808   -1.8311   -0.3774 H   0  0  0  0  0  0  0  0  0  0  0  0
    5.2219   -0.3371    0.3078 H   0  0  0  0  0  0  0  0  0  0  0  0
  1  8  1  0  0  0  0
  1 19  1  0  0  0  0
  2 10  1  0  0  0  0
  2 20  1  0  0  0  0
  3 11  1  0  0  0  0
  3 21  1  0  0  0  0
  4 10  2  0  0  0  0
  5 11  2  0  0  0  0
  6  7  1  0  0  0  0
  6  8  1  0  0  0  0
  6 12  1  0  0  0  0
  6 13  1  0  0  0  0
  7  9  1  0  0  0  0
  7 14  1  0  0  0  0
  7 15  1  0  0  0  0
  8 10  1  0  0  0  0
  8 16  1  0  0  0  0
  9 11  1  0  0  0  0
  9 17  1  0  0  0  0
  9 18  1  0  0  0  0
M  END
> <PUBCHEM_COMPOUND_CID>
193530

> <PUBCHEM_CONFORMER_RMSD>
0.6

> <PUBCHEM_CONFORMER_DIVERSEORDER>
1
87
11
76
75
34
86
64
67
88
83
23
71
89
10
27
47
49
19
60
53
31
78
8
80
36
6
84
42
82
24
90
50
52
17
66
59
85
18
77
40
61
35
26
41
72
14
4
70
25
3
57
20
22
81
30
28
29
7
68
43
44
2
46
13
55
69
62
37
15
21
63
79
74
12
32
58
73
9
91
56
48
33
16
39
38
54
65
5
51
45

> <PUBCHEM_MMFF94_PARTIAL_CHARGES>
12
1 -0.68
10 0.66
11 0.66
19 0.4
2 -0.65
20 0.5
21 0.5
3 -0.65
4 -0.57
5 -0.57
8 0.34
9 0.06

> <PUBCHEM_EFFECTIVE_ROTOR_COUNT>
5

> <PUBCHEM_PHARMACOPHORE_FEATURES>
8
1 1 acceptor
1 1 donor
1 2 acceptor
1 3 acceptor
1 4 acceptor
1 5 acceptor
3 2 4 10 anion
3 3 5 11 anion

> <PUBCHEM_HEAVY_ATOM_COUNT>
11

> <PUBCHEM_ATOM_DEF_STEREO_COUNT>
0

> <PUBCHEM_ATOM_UDEF_STEREO_COUNT>
1

> <PUBCHEM_BOND_DEF_STEREO_COUNT>
0

> <PUBCHEM_BOND_UDEF_STEREO_COUNT>
0

> <PUBCHEM_ISOTOPIC_ATOM_COUNT>
0

> <PUBCHEM_COMPONENT_COUNT>
1

> <PUBCHEM_CACTVS_TAUTO_COUNT>
1

> <PUBCHEM_CONFORMER_ID>
0002F3FA00000001

> <PUBCHEM_MMFF94_ENERGY>
5.9711

> <PUBCHEM_FEATURE_SELFOVERLAP>
40.718

> <PUBCHEM_SHAPE_FINGERPRINT>
11062470 55 9007056872591483138
12162725 195 18343018908873508204
12932764 1 17168157757593204550
14325111 11 18341613737096999334
14445660 50 18187355541570474707
190213 19 13767925710764651694
19050596 39 18411138034790658154
20279233 1 15502376729300943830
23402539 116 18410302414485486806

> <PUBCHEM_SHAPE_MULTIPOLES>
197.03
7.87
1.16
0.72
3
0.18
0
-0.89
0.54
-0.36
-0.06
-0.11
-0.01
-0.61

> <PUBCHEM_SHAPE_SELFOVERLAP>
374.442

> <PUBCHEM_SHAPE_VOLUME>
120.4

> <PUBCHEM_COORDINATE_TYPE>
2
5
10

$$$$

