6843
  -OEChem-07051212542D

 47 47  0     0  0  0  0  0  0999 V2000
    7.1962    0.4050    0.0000 O   0  0  0  0  0  0  0  0  0  0  0  0
    4.5981   -1.0950    0.0000 O   0  0  0  0  0  0  0  0  0  0  0  0
    5.4641    0.4050    0.0000 O   0  0  0  0  0  0  0  0  0  0  0  0
    8.0622    2.9050    0.0000 N   0  0  0  0  0  0  0  0  0  0  0  0
    6.3301   -4.0950    0.0000 N   0  0  0  0  0  0  0  0  0  0  0  0
    8.0622    1.9050    0.0000 C   0  0  0  0  0  0  0  0  0  0  0  0
    8.9282    3.4050    0.0000 C   0  0  0  0  0  0  0  0  0  0  0  0
    7.1962    3.4050    0.0000 C   0  0  0  0  0  0  0  0  0  0  0  0
    7.1962    1.4050    0.0000 C   0  0  0  0  0  0  0  0  0  0  0  0
    8.9282    4.4050    0.0000 C   0  0  0  0  0  0  0  0  0  0  0  0
    7.1962    4.4050    0.0000 C   0  0  0  0  0  0  0  0  0  0  0  0
    6.3301   -1.0950    0.0000 C   0  0  0  0  0  0  0  0  0  0  0  0
    5.4641   -1.5950    0.0000 C   0  0  0  0  0  0  0  0  0  0  0  0
    6.3301   -0.0950    0.0000 C   0  0  0  0  0  0  0  0  0  0  0  0
    3.7320   -1.5950    0.0000 C   0  0  0  0  0  0  0  0  0  0  0  0
    7.1962   -1.5950    0.0000 C   0  0  0  0  0  0  0  0  0  0  0  0
    2.8660   -1.0950    0.0000 C   0  0  0  0  0  0  0  0  0  0  0  0
    5.4641   -2.5950    0.0000 C   0  0  0  0  0  0  0  0  0  0  0  0
    6.3301   -3.0950    0.0000 C   0  0  0  0  0  0  0  0  0  0  0  0
    7.1962   -2.5950    0.0000 C   0  0  0  0  0  0  0  0  0  0  0  0
    2.0000   -1.5950    0.0000 C   0  0  0  0  0  0  0  0  0  0  0  0
    8.2742    1.3224    0.0000 H   0  0  0  0  0  0  0  0  0  0  0  0
    8.6728    2.0127    0.0000 H   0  0  0  0  0  0  0  0  0  0  0  0
    6.5856    3.5127    0.0000 H   0  0  0  0  0  0  0  0  0  0  0  0
    6.9841    2.8224    0.0000 H   0  0  0  0  0  0  0  0  0  0  0  0
    9.1403    2.8224    0.0000 H   0  0  0  0  0  0  0  0  0  0  0  0
    9.5388    3.5127    0.0000 H   0  0  0  0  0  0  0  0  0  0  0  0
    6.9841    1.9876    0.0000 H   0  0  0  0  0  0  0  0  0  0  0  0
    6.5856    1.2973    0.0000 H   0  0  0  0  0  0  0  0  0  0  0  0
    7.8162    4.4050    0.0000 H   0  0  0  0  0  0  0  0  0  0  0  0
    7.1962    5.0250    0.0000 H   0  0  0  0  0  0  0  0  0  0  0  0
    6.5762    4.4050    0.0000 H   0  0  0  0  0  0  0  0  0  0  0  0
    9.5482    4.4050    0.0000 H   0  0  0  0  0  0  0  0  0  0  0  0
    8.9282    5.0250    0.0000 H   0  0  0  0  0  0  0  0  0  0  0  0
    8.3082    4.4050    0.0000 H   0  0  0  0  0  0  0  0  0  0  0  0
    3.3335   -2.0700    0.0000 H   0  0  0  0  0  0  0  0  0  0  0  0
    4.1306   -2.0700    0.0000 H   0  0  0  0  0  0  0  0  0  0  0  0
    7.7331   -1.2850    0.0000 H   0  0  0  0  0  0  0  0  0  0  0  0
    3.2646   -0.6201    0.0000 H   0  0  0  0  0  0  0  0  0  0  0  0
    2.4675   -0.6201    0.0000 H   0  0  0  0  0  0  0  0  0  0  0  0
    4.9272   -2.9050    0.0000 H   0  0  0  0  0  0  0  0  0  0  0  0
    7.7331   -2.9050    0.0000 H   0  0  0  0  0  0  0  0  0  0  0  0
    1.6900   -1.0581    0.0000 H   0  0  0  0  0  0  0  0  0  0  0  0
    1.4631   -1.9050    0.0000 H   0  0  0  0  0  0  0  0  0  0  0  0
    2.3100   -2.1319    0.0000 H   0  0  0  0  0  0  0  0  0  0  0  0
    6.8671   -4.4050    0.0000 H   0  0  0  0  0  0  0  0  0  0  0  0
    5.7932   -4.4050    0.0000 H   0  0  0  0  0  0  0  0  0  0  0  0
  1  9  1  0  0  0  0
  1 14  1  0  0  0  0
  2 13  1  0  0  0  0
  2 15  1  0  0  0  0
  3 14  2  0  0  0  0
  4  6  1  0  0  0  0
  4  7  1  0  0  0  0
  4  8  1  0  0  0  0
  5 19  1  0  0  0  0
  5 46  1  0  0  0  0
  5 47  1  0  0  0  0
  6  9  1  0  0  0  0
  6 22  1  0  0  0  0
  6 23  1  0  0  0  0
  7 10  1  0  0  0  0
  7 26  1  0  0  0  0
  7 27  1  0  0  0  0
  8 11  1  0  0  0  0
  8 24  1  0  0  0  0
  8 25  1  0  0  0  0
  9 28  1  0  0  0  0
  9 29  1  0  0  0  0
 10 33  1  0  0  0  0
 10 34  1  0  0  0  0
 10 35  1  0  0  0  0
 11 30  1  0  0  0  0
 11 31  1  0  0  0  0
 11 32  1  0  0  0  0
 12 13  2  0  0  0  0
 12 14  1  0  0  0  0
 12 16  1  0  0  0  0
 13 18  1  0  0  0  0
 15 17  1  0  0  0  0
 15 36  1  0  0  0  0
 15 37  1  0  0  0  0
 16 20  2  0  0  0  0
 16 38  1  0  0  0  0
 17 21  1  0  0  0  0
 17 39  1  0  0  0  0
 17 40  1  0  0  0  0
 18 19  2  0  0  0  0
 18 41  1  0  0  0  0
 19 20  1  0  0  0  0
 20 42  1  0  0  0  0
 21 43  1  0  0  0  0
 21 44  1  0  0  0  0
 21 45  1  0  0  0  0
M  END
> <PUBCHEM_COMPOUND_CID>
6843

> <PUBCHEM_COMPOUND_CANONICALIZED>
1

> <PUBCHEM_CACTVS_COMPLEXITY>
295

> <PUBCHEM_CACTVS_HBOND_ACCEPTOR>
5

> <PUBCHEM_CACTVS_HBOND_DONOR>
1

> <PUBCHEM_CACTVS_ROTATABLE_BOND>
10

> <PUBCHEM_CACTVS_SUBSKEYS>
AAADceB7MAAAAAAAAAAAAAAAAAAAAAAAAAAwAAAAAAAAAAABAAAAHgAQAAAADAzhmAYyzoNABACIAiTSSACCCAAkIgAIiAEObMgOJzaEtZuDOWDn8BmY6YeY2SGeCAAAAgAIAAAQAAAEABAAAAAAAAAAAA==

> <PUBCHEM_IUPAC_OPENEYE_NAME>
2-(diethylamino)ethyl 4-amino-2-propoxy-benzoate

> <PUBCHEM_IUPAC_CAS_NAME>
4-amino-2-propoxybenzoic acid 2-(diethylamino)ethyl ester

> <PUBCHEM_IUPAC_NAME>
2-(diethylamino)ethyl 4-amino-2-propoxybenzoate

> <PUBCHEM_IUPAC_SYSTEMATIC_NAME>
2-(diethylamino)ethyl 4-azanyl-2-propoxy-benzoate

> <PUBCHEM_IUPAC_TRADITIONAL_NAME>
4-amino-2-propoxy-benzoic acid 2-(diethylamino)ethyl ester

> <PUBCHEM_IUPAC_INCHI>
InChI=1S/C16H26N2O3/c1-4-10-20-15-12-13(17)7-8-14(15)16(19)21-11-9-18(5-2)6-3/h7-8,12H,4-6,9-11,17H2,1-3H3

> <PUBCHEM_IUPAC_INCHIKEY>
CAJIGINSTLKQMM-UHFFFAOYSA-N

> <PUBCHEM_XLOGP3>
3.1

> <PUBCHEM_EXACT_MASS>
294.194343

> <PUBCHEM_MOLECULAR_FORMULA>
C16H26N2O3

> <PUBCHEM_MOLECULAR_WEIGHT>
294.38924

> <PUBCHEM_OPENEYE_CAN_SMILES>
CCCOC1=C(C=CC(=C1)N)C(=O)OCCN(CC)CC

> <PUBCHEM_OPENEYE_ISO_SMILES>
CCCOC1=C(C=CC(=C1)N)C(=O)OCCN(CC)CC

> <PUBCHEM_CACTVS_TPSA>
64.8

> <PUBCHEM_MONOISOTOPIC_WEIGHT>
294.194343

> <PUBCHEM_TOTAL_CHARGE>
0

> <PUBCHEM_HEAVY_ATOM_COUNT>
21

> <PUBCHEM_ATOM_DEF_STEREO_COUNT>
0

> <PUBCHEM_ATOM_UDEF_STEREO_COUNT>
0

> <PUBCHEM_BOND_DEF_STEREO_COUNT>
0

> <PUBCHEM_BOND_UDEF_STEREO_COUNT>
0

> <PUBCHEM_ISOTOPIC_ATOM_COUNT>
0

> <PUBCHEM_COMPONENT_COUNT>
1

> <PUBCHEM_CACTVS_TAUTO_COUNT>
3

> <PUBCHEM_COORDINATE_TYPE>
1
5
255

> <PUBCHEM_BONDANNOTATIONS>
12  13  8
12  16  8
13  18  8
16  20  8
18  19  8
19  20  8

$$$$

