24892806
  -OEChem-07051213092D

 32 34  0     0  0  0  0  0  0999 V2000
    2.5932   -0.7052    0.0000 O   0  0  0  0  0  0  0  0  0  0  0  0
    2.1374    1.2917    0.0000 O   0  0  0  0  0  0  0  0  0  0  0  0
    5.1088   -1.5353    0.0000 O   0  0  0  0  0  0  0  0  0  0  0  0
    5.9748   -0.0353    0.0000 N   0  0  0  0  0  0  0  0  0  0  0  0
    6.8408   -1.5353    0.0000 N   0  0  0  0  0  0  0  0  0  0  0  0
    5.0738    0.3986    0.0000 C   0  0  0  0  0  0  0  0  0  0  0  0
    6.8758    0.3986    0.0000 C   0  0  0  0  0  0  0  0  0  0  0  0
    4.8513    1.3735    0.0000 C   0  0  0  0  0  0  0  0  0  0  0  0
    7.0983    1.3735    0.0000 C   0  0  0  0  0  0  0  0  0  0  0  0
    5.4748    2.1553    0.0000 C   0  0  0  0  0  0  0  0  0  0  0  0
    4.3213   -0.3216    0.0000 C   0  0  0  0  0  0  0  0  0  0  0  0
    6.4748    2.1553    0.0000 C   0  0  0  0  0  0  0  0  0  0  0  0
    3.8608    1.6958    0.0000 C   0  0  0  0  0  0  0  0  0  0  0  0
    7.6283   -0.3216    0.0000 C   0  0  0  0  0  0  0  0  0  0  0  0
    8.0888    1.6958    0.0000 C   0  0  0  0  0  0  0  0  0  0  0  0
    3.3236   -0.0222    0.0000 C   0  0  0  0  0  0  0  0  0  0  0  0
    3.0918    0.9933    0.0000 C   0  0  0  0  0  0  0  0  0  0  0  0
    5.9748   -1.0353    0.0000 C   0  0  0  0  0  0  0  0  0  0  0  0
    8.6260   -0.0223    0.0000 C   0  0  0  0  0  0  0  0  0  0  0  0
    8.8578    0.9932    0.0000 C   0  0  0  0  0  0  0  0  0  0  0  0
    5.2058    2.7139    0.0000 H   0  0  0  0  0  0  0  0  0  0  0  0
    4.4662   -0.9244    0.0000 H   0  0  0  0  0  0  0  0  0  0  0  0
    6.7438    2.7139    0.0000 H   0  0  0  0  0  0  0  0  0  0  0  0
    3.7299    2.3018    0.0000 H   0  0  0  0  0  0  0  0  0  0  0  0
    7.4834   -0.9244    0.0000 H   0  0  0  0  0  0  0  0  0  0  0  0
    8.2198    2.3018    0.0000 H   0  0  0  0  0  0  0  0  0  0  0  0
    9.0789   -0.4457    0.0000 H   0  0  0  0  0  0  0  0  0  0  0  0
    9.4496    1.1782    0.0000 H   0  0  0  0  0  0  0  0  0  0  0  0
    6.8408   -2.1553    0.0000 H   0  0  0  0  0  0  0  0  0  0  0  0
    7.3778   -1.2253    0.0000 H   0  0  0  0  0  0  0  0  0  0  0  0
    2.0000   -0.5248    0.0000 H   0  0  0  0  0  0  0  0  0  0  0  0
    2.0018    1.8967    0.0000 H   0  0  0  0  0  0  0  0  0  0  0  0
  1 16  1  0  0  0  0
  1 31  1  0  0  0  0
  2 17  1  0  0  0  0
  2 32  1  0  0  0  0
  3 18  2  0  0  0  0
  4  6  1  0  0  0  0
  4  7  1  0  0  0  0
  4 18  1  0  0  0  0
  5 18  1  0  0  0  0
  5 29  1  0  0  0  0
  5 30  1  0  0  0  0
  6  8  1  0  0  0  0
  6 11  2  0  0  0  0
  7  9  1  0  0  0  0
  7 14  2  0  0  0  0
  8 10  1  0  0  0  0
  8 13  2  0  0  0  0
  9 12  1  0  0  0  0
  9 15  2  0  0  0  0
 10 12  2  0  0  0  0
 10 21  1  0  0  0  0
 11 16  1  0  0  0  0
 11 22  1  0  0  0  0
 12 23  1  0  0  0  0
 13 17  1  0  0  0  0
 13 24  1  0  0  0  0
 14 19  1  0  0  0  0
 14 25  1  0  0  0  0
 15 20  1  0  0  0  0
 15 26  1  0  0  0  0
 16 17  2  0  0  0  0
 19 20  2  0  0  0  0
 19 27  1  0  0  0  0
 20 28  1  0  0  0  0
M  END
> <PUBCHEM_COMPOUND_CID>
24892806

> <PUBCHEM_COMPOUND_CANONICALIZED>
1

> <PUBCHEM_CACTVS_COMPLEXITY>
412

> <PUBCHEM_CACTVS_HBOND_ACCEPTOR>
3

> <PUBCHEM_CACTVS_HBOND_DONOR>
3

> <PUBCHEM_CACTVS_ROTATABLE_BOND>
0

> <PUBCHEM_CACTVS_SUBSKEYS>
AAADccBzMAAAAAAAAAAAAAAAAAAAAAAAAAAwYAAABAAAAAABQAAAHgAQCAAADAyBmAAxxoNAAgCIAiRCUACCAAAhIgAIiAAG7IiJJmLCkZOEcAlmxBvJ2Cew0BMOIEABAgACQABAgAIEAASAAAAAAAAAAA==

> <PUBCHEM_IUPAC_OPENEYE_NAME>
2,3-dihydroxybenzo[b][1]benzazepine-11-carboxamide

> <PUBCHEM_IUPAC_CAS_NAME>
2,3-dihydroxy-11-benzo[b][1]benzazepinecarboxamide

> <PUBCHEM_IUPAC_NAME>
2,3-dihydroxybenzo[b][1]benzazepine-11-carboxamide

> <PUBCHEM_IUPAC_SYSTEMATIC_NAME>
2,3-bis(oxidanyl)benzo[b][1]benzazepine-11-carboxamide

> <PUBCHEM_IUPAC_TRADITIONAL_NAME>
2,3-dihydroxybenzo[b][1]benzazepine-11-carboxamide

> <PUBCHEM_IUPAC_INCHI>
InChI=1S/C15H12N2O3/c16-15(20)17-11-4-2-1-3-9(11)5-6-10-7-13(18)14(19)8-12(10)17/h1-8,18-19H,(H2,16,20)

> <PUBCHEM_IUPAC_INCHIKEY>
YITIUNLDWDJVSI-UHFFFAOYSA-N

> <PUBCHEM_XLOGP3>
1.7

> <PUBCHEM_EXACT_MASS>
268.084792

> <PUBCHEM_MOLECULAR_FORMULA>
C15H12N2O3

> <PUBCHEM_MOLECULAR_WEIGHT>
268.26738

> <PUBCHEM_OPENEYE_CAN_SMILES>
C1=CC=C2C(=C1)C=CC3=CC(=C(C=C3N2C(=O)N)O)O

> <PUBCHEM_OPENEYE_ISO_SMILES>
C1=CC=C2C(=C1)C=CC3=CC(=C(C=C3N2C(=O)N)O)O

> <PUBCHEM_CACTVS_TPSA>
86.8

> <PUBCHEM_MONOISOTOPIC_WEIGHT>
268.084792

> <PUBCHEM_TOTAL_CHARGE>
0

> <PUBCHEM_HEAVY_ATOM_COUNT>
20

> <PUBCHEM_ATOM_DEF_STEREO_COUNT>
0

> <PUBCHEM_ATOM_UDEF_STEREO_COUNT>
0

> <PUBCHEM_BOND_DEF_STEREO_COUNT>
0

> <PUBCHEM_BOND_UDEF_STEREO_COUNT>
0

> <PUBCHEM_ISOTOPIC_ATOM_COUNT>
0

> <PUBCHEM_COMPONENT_COUNT>
1

> <PUBCHEM_CACTVS_TAUTO_COUNT>
22

> <PUBCHEM_COORDINATE_TYPE>
1
5
255

> <PUBCHEM_BONDANNOTATIONS>
11  16  8
13  17  8
14  19  8
15  20  8
16  17  8
19  20  8
6  11  8
6  8  8
7  14  8
7  9  8
8  13  8
9  15  8

$$$$

