24892777
  -OEChem-07051213033D

 59 61  0     1  0  0  0  0  0999 V2000
   -1.3866   -2.2262   -0.8414 P   0  0  2  0  0  0  0  0  0  0  0  0
   -4.2703   -1.7418   -0.5137 P   0  0  1  0  0  0  0  0  0  0  0  0
    2.2171   -1.6385    1.4549 O   0  0  0  0  0  0  0  0  0  0  0  0
    1.7905   -0.6678    4.3269 O   0  0  0  0  0  0  0  0  0  0  0  0
   -2.4792    1.3753   -0.6184 O   0  0  0  0  0  0  0  0  0  0  0  0
   -0.2742   -2.2700    0.3324 O   0  0  0  0  0  0  0  0  0  0  0  0
   -4.1756   -0.1994   -0.9813 O   0  0  0  0  0  0  0  0  0  0  0  0
   -3.0721    4.2202   -0.6018 O   0  0  0  0  0  0  0  0  0  0  0  0
   -2.7755   -2.1130   -0.0223 O   0  0  0  0  0  0  0  0  0  0  0  0
    5.6813    0.5988    1.2069 O   0  0  0  0  0  0  0  0  0  0  0  0
   -1.4186   -3.7426   -1.4038 O   0  0  0  0  0  0  0  0  0  0  0  0
   -5.1138   -1.6979    0.8660 O   0  0  0  0  0  0  0  0  0  0  0  0
   -1.1895   -1.1668   -1.8860 O   0  0  0  0  0  0  0  0  0  0  0  0
   -4.8267   -2.6745   -1.5503 O   0  0  0  0  0  0  0  0  0  0  0  0
    4.9316    0.9976   -3.3127 O   0  0  0  0  0  0  0  0  0  0  0  0
    3.6210   -0.1126    0.3705 N   0  0  0  0  0  0  0  0  0  0  0  0
    5.2937    0.7928   -1.0452 N   0  0  0  0  0  0  0  0  0  0  0  0
    1.2554   -0.2120    3.0862 C   0  0  2  0  0  0  0  0  0  0  0  0
    0.9896   -1.3981    2.1698 C   0  0  1  0  0  0  0  0  0  0  0  0
    2.3069    0.5717    2.3354 C   0  0  0  0  0  0  0  0  0  0  0  0
    3.1003   -0.5234    1.6415 C   0  0  1  0  0  0  0  0  0  0  0  0
   -0.1027   -1.1218    1.1447 C   0  0  0  0  0  0  0  0  0  0  0  0
   -2.8421    3.4660    0.5877 C   0  0  1  0  0  0  0  0  0  0  0  0
   -4.1768    2.9332    1.1083 C   0  0  0  0  0  0  0  0  0  0  0  0
   -1.8767    2.3118    0.2840 C   0  0  2  0  0  0  0  0  0  0  0  0
   -4.7248    1.8450    0.1903 C   0  0  0  0  0  0  0  0  0  0  0  0
   -3.6633    0.7820   -0.0840 C   0  0  2  0  0  0  0  0  0  0  0  0
    2.8196   -0.2643   -0.7539 C   0  0  0  0  0  0  0  0  0  0  0  0
    4.9164    0.4355    0.2540 C   0  0  0  0  0  0  0  0  0  0  0  0
   -0.5798    2.7924   -0.3571 C   0  0  0  0  0  0  0  0  0  0  0  0
    3.1837    0.0786   -1.9957 C   0  0  0  0  0  0  0  0  0  0  0  0
    4.5360    0.6629   -2.1992 C   0  0  0  0  0  0  0  0  0  0  0  0
    2.3049   -0.0933   -3.1928 C   0  0  0  0  0  0  0  0  0  0  0  0
    0.3638    0.3817    3.3091 H   0  0  0  0  0  0  0  0  0  0  0  0
    0.7597   -2.3144    2.7246 H   0  0  0  0  0  0  0  0  0  0  0  0
    1.8247    1.2333    1.6057 H   0  0  0  0  0  0  0  0  0  0  0  0
    2.9460    1.1857    2.9777 H   0  0  0  0  0  0  0  0  0  0  0  0
    3.9204   -0.8614    2.2862 H   0  0  0  0  0  0  0  0  0  0  0  0
    0.1237   -0.2628    0.5105 H   0  0  0  0  0  0  0  0  0  0  0  0
   -1.0465   -0.9165    1.6614 H   0  0  0  0  0  0  0  0  0  0  0  0
   -2.3953    4.1434    1.3241 H   0  0  0  0  0  0  0  0  0  0  0  0
   -4.9121    3.7422    1.1839 H   0  0  0  0  0  0  0  0  0  0  0  0
   -4.0357    2.5185    2.1137 H   0  0  0  0  0  0  0  0  0  0  0  0
   -1.6263    1.7850    1.2139 H   0  0  0  0  0  0  0  0  0  0  0  0
   -5.6197    1.3867    0.6264 H   0  0  0  0  0  0  0  0  0  0  0  0
   -5.0413    2.2936   -0.7599 H   0  0  0  0  0  0  0  0  0  0  0  0
   -3.3945    0.2929    0.8605 H   0  0  0  0  0  0  0  0  0  0  0  0
    1.1051   -1.2063    4.7582 H   0  0  0  0  0  0  0  0  0  0  0  0
    1.8403   -0.6939   -0.6175 H   0  0  0  0  0  0  0  0  0  0  0  0
    0.0949    1.9472   -0.5304 H   0  0  0  0  0  0  0  0  0  0  0  0
   -0.0677    3.5195    0.2801 H   0  0  0  0  0  0  0  0  0  0  0  0
   -0.7604    3.2452   -1.3380 H   0  0  0  0  0  0  0  0  0  0  0  0
   -3.6701    4.9522   -0.3736 H   0  0  0  0  0  0  0  0  0  0  0  0
    6.2230    1.1895   -1.1534 H   0  0  0  0  0  0  0  0  0  0  0  0
    2.0984    0.8763   -3.6574 H   0  0  0  0  0  0  0  0  0  0  0  0
    1.3446   -0.5498   -2.9342 H   0  0  0  0  0  0  0  0  0  0  0  0
    2.7889   -0.7383   -3.9334 H   0  0  0  0  0  0  0  0  0  0  0  0
   -1.5730   -4.4784   -0.7737 H   0  0  0  0  0  0  0  0  0  0  0  0
   -5.4136   -2.5420    1.2658 H   0  0  0  0  0  0  0  0  0  0  0  0
  1  6  1  0  0  0  0
  1  9  1  0  0  0  0
  1 11  1  0  0  0  0
  1 13  2  0  0  0  0
  2  7  1  0  0  0  0
  2  9  1  0  0  0  0
  2 12  1  0  0  0  0
  2 14  2  0  0  0  0
  3 19  1  0  0  0  0
  3 21  1  0  0  0  0
  4 18  1  0  0  0  0
  4 48  1  0  0  0  0
  5 25  1  0  0  0  0
  5 27  1  0  0  0  0
  6 22  1  0  0  0  0
  7 27  1  0  0  0  0
  8 23  1  0  0  0  0
  8 53  1  0  0  0  0
 10 29  2  0  0  0  0
 11 58  1  0  0  0  0
 12 59  1  0  0  0  0
 15 32  2  0  0  0  0
 16 21  1  0  0  0  0
 16 28  1  0  0  0  0
 16 29  1  0  0  0  0
 17 29  1  0  0  0  0
 17 32  1  0  0  0  0
 17 54  1  0  0  0  0
 18 19  1  0  0  0  0
 18 20  1  0  0  0  0
 18 34  1  0  0  0  0
 19 22  1  0  0  0  0
 19 35  1  0  0  0  0
 20 21  1  0  0  0  0
 20 36  1  0  0  0  0
 20 37  1  0  0  0  0
 21 38  1  0  0  0  0
 22 39  1  0  0  0  0
 22 40  1  0  0  0  0
 23 24  1  0  0  0  0
 23 25  1  0  0  0  0
 23 41  1  0  0  0  0
 24 26  1  0  0  0  0
 24 42  1  0  0  0  0
 24 43  1  0  0  0  0
 25 30  1  0  0  0  0
 25 44  1  0  0  0  0
 26 27  1  0  0  0  0
 26 45  1  0  0  0  0
 26 46  1  0  0  0  0
 27 47  1  0  0  0  0
 28 31  2  0  0  0  0
 28 49  1  0  0  0  0
 30 50  1  0  0  0  0
 30 51  1  0  0  0  0
 30 52  1  0  0  0  0
 31 32  1  0  0  0  0
 31 33  1  0  0  0  0
 33 55  1  0  0  0  0
 33 56  1  0  0  0  0
 33 57  1  0  0  0  0
M  END
> <PUBCHEM_COMPOUND_CID>
24892777

> <PUBCHEM_CONFORMER_RMSD>
1.4

> <PUBCHEM_CONFORMER_DIVERSEORDER>
1
94
70
93
82
7
43
57
52
117
80
98
91
104
54
74
109
20
45
60
26
55
22
33
9
64
51
99
75
63
73
66
46
86
103
87
28
78
59
53
49
31
32
50
42
61
25
107
44
65
89
81
115
105
79
41
96
83
23
110
116
95
21
27
15
2
10
88
111
72
68
30
102
69
39
29
67
112
36
14
13
58
114
34
113
76
62
84
48
3
90
71
19
118
35
100
106
38
6
8
56
97
101
108
11
16
85
18
12
17
47
77
92
24
37
5
4
40

> <PUBCHEM_MMFF94_PARTIAL_CHARGES>
35
1 1.51
10 -0.57
11 -0.77
12 -0.77
13 -0.7
14 -0.7
15 -0.57
16 -0.47
17 -0.49
18 0.28
19 0.28
2 1.51
21 0.58
22 0.28
23 0.28
25 0.28
27 0.56
28 -0.04
29 0.69
3 -0.56
31 -0.12
32 0.62
33 0.14
4 -0.68
48 0.4
49 0.15
5 -0.56
53 0.4
54 0.37
58 0.5
59 0.5
6 -0.55
7 -0.55
8 -0.68
9 -0.54

> <PUBCHEM_EFFECTIVE_ROTOR_COUNT>
10.2

> <PUBCHEM_PHARMACOPHORE_FEATURES>
16
1 10 acceptor
1 11 acceptor
1 12 acceptor
1 13 acceptor
1 14 acceptor
1 15 acceptor
1 17 donor
1 3 acceptor
1 4 acceptor
1 4 donor
1 5 acceptor
1 8 acceptor
1 8 donor
5 3 18 19 20 21 rings
6 16 17 28 29 31 32 rings
6 5 23 24 25 26 27 rings

> <PUBCHEM_HEAVY_ATOM_COUNT>
33

> <PUBCHEM_ATOM_DEF_STEREO_COUNT>
6

> <PUBCHEM_ATOM_UDEF_STEREO_COUNT>
0

> <PUBCHEM_BOND_DEF_STEREO_COUNT>
0

> <PUBCHEM_BOND_UDEF_STEREO_COUNT>
0

> <PUBCHEM_ISOTOPIC_ATOM_COUNT>
0

> <PUBCHEM_COMPONENT_COUNT>
1

> <PUBCHEM_CACTVS_TAUTO_COUNT>
3

> <PUBCHEM_CONFORMER_ID>
017BD56900000001

> <PUBCHEM_MMFF94_ENERGY>
31.8891

> <PUBCHEM_FEATURE_SELFOVERLAP>
81.215

> <PUBCHEM_SHAPE_FINGERPRINT>
10369192 42 16159650276413137848
10615611 76 17917423267613433861
10670039 82 18409454703794505899
11421498 54 18201721725786362731
12596602 18 17704067357302510087
12788726 201 18341321193810297079
13617811 41 18336271124694812279
13726171 33 18335689576847573656
13782708 43 17458344100411964246
13947920 75 18341885286868662556
14251757 17 17313098708829128196
14840074 17 18271798086445837753
15021287 119 17487628648146641194
15297060 5 18188206619246933257
15484559 13 13922669018969135128
16067690 210 18341047398245914341
17138139 8 17915738669728542903
19319366 153 17846497083872681473
20511986 3 17917439751656192453
21033650 10 18336248086342179082
21987440 362 17177736904990175848
22122407 14 16630257995025774591
23559900 14 17185313687205022933
3052486 1 18411141341773070600
3459 110 14835826344871888800
38570 142 17416375810963271430
46194498 28 17459193971528821480
50150288 127 16908564049896340388
508706 21 17822017501536778349
5252454 2 17970348329205613873
5895379 119 18411976971153655596
6823239 73 18114189626531766848
7808743 9 18335989773839259393

> <PUBCHEM_SHAPE_MULTIPOLES>
600.56
11.52
3.82
3.26
2.49
1.12
1.27
2.79
-3.73
-7.34
-0.85
5.14
-0.5
-1.48

> <PUBCHEM_SHAPE_SELFOVERLAP>
1215.773

> <PUBCHEM_SHAPE_VOLUME>
352

> <PUBCHEM_COORDINATE_TYPE>
2
5
10

$$$$

