75648
  -OEChem-07051213023D

 37 37  0     0  0  0  0  0  0999 V2000
    4.9719    1.7108   -0.5713 Cl  0  0  0  0  0  0  0  0  0  0  0  0
   -3.6609   -0.0798    0.1553 N   0  0  0  0  0  0  0  0  0  0  0  0
   -0.0420    0.7539   -0.2213 N   0  0  0  0  0  0  0  0  0  0  0  0
   -2.4977    0.7583   -0.1334 C   0  0  0  0  0  0  0  0  0  0  0  0
   -1.2136   -0.0358    0.0496 C   0  0  0  0  0  0  0  0  0  0  0  0
   -3.6911   -1.2373   -0.7379 C   0  0  0  0  0  0  0  0  0  0  0  0
   -4.8941    0.6960    0.0283 C   0  0  0  0  0  0  0  0  0  0  0  0
   -4.8649   -2.1333   -0.3922 C   0  0  0  0  0  0  0  0  0  0  0  0
   -4.8552    1.8942    0.9574 C   0  0  0  0  0  0  0  0  0  0  0  0
    1.2575    0.2873   -0.0732 C   0  0  0  0  0  0  0  0  0  0  0  0
    2.3566    1.1167   -0.3569 C   0  0  0  0  0  0  0  0  0  0  0  0
    1.5041   -1.0258    0.3642 C   0  0  0  0  0  0  0  0  0  0  0  0
    3.8880   -0.6583    0.2273 C   0  0  0  0  0  0  0  0  0  0  0  0
    3.6617    0.6476   -0.2079 C   0  0  0  0  0  0  0  0  0  0  0  0
    2.8091   -1.4951    0.5132 C   0  0  0  0  0  0  0  0  0  0  0  0
    5.2706   -1.1992    0.3990 C   0  0  0  0  0  0  0  0  0  0  0  0
   -2.4267    1.6053    0.5572 H   0  0  0  0  0  0  0  0  0  0  0  0
   -2.5438    1.1731   -1.1495 H   0  0  0  0  0  0  0  0  0  0  0  0
   -1.1671   -0.8797   -0.6426 H   0  0  0  0  0  0  0  0  0  0  0  0
   -1.1782   -0.4227    1.0760 H   0  0  0  0  0  0  0  0  0  0  0  0
   -3.7344   -0.9478   -1.7950 H   0  0  0  0  0  0  0  0  0  0  0  0
   -2.8178   -1.8791   -0.5997 H   0  0  0  0  0  0  0  0  0  0  0  0
   -5.0698    1.0293   -1.0022 H   0  0  0  0  0  0  0  0  0  0  0  0
   -5.7615    0.1057    0.3408 H   0  0  0  0  0  0  0  0  0  0  0  0
   -0.1618    1.7063   -0.5486 H   0  0  0  0  0  0  0  0  0  0  0  0
   -4.9280   -2.3302    0.6838 H   0  0  0  0  0  0  0  0  0  0  0  0
   -5.8205   -1.7269   -0.7377 H   0  0  0  0  0  0  0  0  0  0  0  0
   -4.7454   -3.1022   -0.8912 H   0  0  0  0  0  0  0  0  0  0  0  0
   -4.5248    1.6233    1.9662 H   0  0  0  0  0  0  0  0  0  0  0  0
   -4.2242    2.7033    0.5765 H   0  0  0  0  0  0  0  0  0  0  0  0
   -5.8637    2.3134    1.0517 H   0  0  0  0  0  0  0  0  0  0  0  0
    2.1805    2.1360   -0.6966 H   0  0  0  0  0  0  0  0  0  0  0  0
    0.6951   -1.7129    0.5967 H   0  0  0  0  0  0  0  0  0  0  0  0
    2.9667   -2.5155    0.8527 H   0  0  0  0  0  0  0  0  0  0  0  0
    5.2621   -2.2380    0.7472 H   0  0  0  0  0  0  0  0  0  0  0  0
    5.8112   -1.1831   -0.5531 H   0  0  0  0  0  0  0  0  0  0  0  0
    5.8228   -0.6150    1.1426 H   0  0  0  0  0  0  0  0  0  0  0  0
  1 14  1  0  0  0  0
  2  4  1  0  0  0  0
  2  6  1  0  0  0  0
  2  7  1  0  0  0  0
  3  5  1  0  0  0  0
  3 10  1  0  0  0  0
  3 25  1  0  0  0  0
  4  5  1  0  0  0  0
  4 17  1  0  0  0  0
  4 18  1  0  0  0  0
  5 19  1  0  0  0  0
  5 20  1  0  0  0  0
  6  8  1  0  0  0  0
  6 21  1  0  0  0  0
  6 22  1  0  0  0  0
  7  9  1  0  0  0  0
  7 23  1  0  0  0  0
  7 24  1  0  0  0  0
  8 26  1  0  0  0  0
  8 27  1  0  0  0  0
  8 28  1  0  0  0  0
  9 29  1  0  0  0  0
  9 30  1  0  0  0  0
  9 31  1  0  0  0  0
 10 11  2  0  0  0  0
 10 12  1  0  0  0  0
 11 14  1  0  0  0  0
 11 32  1  0  0  0  0
 12 15  2  0  0  0  0
 12 33  1  0  0  0  0
 13 14  2  0  0  0  0
 13 15  1  0  0  0  0
 13 16  1  0  0  0  0
 15 34  1  0  0  0  0
 16 35  1  0  0  0  0
 16 36  1  0  0  0  0
 16 37  1  0  0  0  0
M  END
> <PUBCHEM_COMPOUND_CID>
75648

> <PUBCHEM_CONFORMER_RMSD>
0.8

> <PUBCHEM_CONFORMER_DIVERSEORDER>
1
44
17
12
24
14
22
6
18
5
34
35
42
25
43
15
21
2
46
41
28
11
47
23
36
32
40
19
4
20
30
29
26
27
3
37
10
45
33
16
8
38
7
39
13
31
9

> <PUBCHEM_MMFF94_PARTIAL_CHARGES>
18
1 -0.18
10 0.1
11 -0.15
12 -0.15
13 -0.14
14 0.18
15 -0.15
16 0.14
2 -0.81
25 0.4
3 -0.87
32 0.15
33 0.15
34 0.15
4 0.27
5 0.37
6 0.27
7 0.27

> <PUBCHEM_EFFECTIVE_ROTOR_COUNT>
6

> <PUBCHEM_PHARMACOPHORE_FEATURES>
4
1 2 cation
1 3 cation
1 3 donor
6 10 11 12 13 14 15 rings

> <PUBCHEM_HEAVY_ATOM_COUNT>
16

> <PUBCHEM_ATOM_DEF_STEREO_COUNT>
0

> <PUBCHEM_ATOM_UDEF_STEREO_COUNT>
0

> <PUBCHEM_BOND_DEF_STEREO_COUNT>
0

> <PUBCHEM_BOND_UDEF_STEREO_COUNT>
0

> <PUBCHEM_ISOTOPIC_ATOM_COUNT>
0

> <PUBCHEM_COMPONENT_COUNT>
1

> <PUBCHEM_CACTVS_TAUTO_COUNT>
1

> <PUBCHEM_CONFORMER_ID>
0001278000000001

> <PUBCHEM_MMFF94_ENERGY>
41.5199

> <PUBCHEM_FEATURE_SELFOVERLAP>
20.297

> <PUBCHEM_SHAPE_FINGERPRINT>
10595046 47 18410575041898152277
10680689 15 17203612605648338005
10912923 1 18412263930281240201
11471102 20 18273496763095595364
12107183 9 17761492891089420113
12236239 1 18408040714682467772
12616971 3 18272651276712416400
13073987 5 18410293575358330595
13167823 11 18409732846103708111
13760787 19 18335137596487571269
13760787 5 18060699489672932692
14251764 18 18260827086735667497
14528608 73 18340484474431464652
15196674 1 18412263921659793334
15242433 33 18410292523423600319
17834072 33 18410855443001066188
17844677 252 18259979349484112137
18186145 218 16917350329065839777
19050596 39 18410856581257096369
19489759 90 17168150083024853345
200 152 18409450267293840283
20281475 54 18411425016015577959
20645477 70 18342739628841591022
21065198 48 18409730651454242303
22485316 2 18411420617974432597
22646028 1 18411704274657366631
23402539 116 18410579499958031101
23402655 69 18410011039593321420
29717793 49 18261396675680004182
300161 21 18412832386694088157
4214541 1 18409168827104168225
5104073 3 18411983546189235184
542803 24 18187363242125271225
573450 72 18334862731687114323
602551 16 16443637770147330438
7495541 125 17895481336571127448
77779 3 18410011039709281485

> <PUBCHEM_SHAPE_MULTIPOLES>
321.18
13.62
1.97
0.79
4.73
0.18
0.02
-0.14
0.26
0.81
0.03
0.19
-0.05
-1.84

> <PUBCHEM_SHAPE_SELFOVERLAP>
630.143

> <PUBCHEM_SHAPE_VOLUME>
194.6

> <PUBCHEM_COORDINATE_TYPE>
2
5
10

$$$$

