5280406
  -OEChem-07051212452D

 49 50  0     1  0  0  0  0  0999 V2000
    4.2690   -1.3450    0.0000 O   0  0  0  0  0  0  0  0  0  0  0  0
    2.5369   -3.3450    0.0000 O   0  0  0  0  0  0  0  0  0  0  0  0
    4.2690   -4.3450    0.0000 O   0  0  0  0  0  0  0  0  0  0  0  0
    6.0010   -3.3450    0.0000 O   0  0  0  0  0  0  0  0  0  0  0  0
    6.0010   -1.3450    0.0000 O   0  0  0  0  0  0  0  0  0  0  0  0
    2.5369   -0.3450    0.0000 O   0  0  0  0  0  0  0  0  0  0  0  0
    5.1350    0.1550    0.0000 O   0  0  0  0  0  0  0  0  0  0  0  0
    8.5991    4.1550    0.0000 O   0  0  0  0  0  0  0  0  0  0  0  0
   10.3312    1.1550    0.0000 O   0  0  0  0  0  0  0  0  0  0  0  0
   10.3312    3.1550    0.0000 O   0  0  0  0  0  0  0  0  0  0  0  0
    3.4030   -2.8450    0.0000 C   0  0  1  0  0  0  0  0  0  0  0  0
    4.2690   -3.3450    0.0000 C   0  0  1  0  0  0  0  0  0  0  0  0
    3.4030   -1.8450    0.0000 C   0  0  1  0  0  0  0  0  0  0  0  0
    5.1350   -2.8450    0.0000 C   0  0  2  0  0  0  0  0  0  0  0  0
    5.1350   -1.8450    0.0000 C   0  0  1  0  0  0  0  0  0  0  0  0
    2.5369   -1.3450    0.0000 C   0  0  0  0  0  0  0  0  0  0  0  0
    6.0010   -0.3450    0.0000 C   0  0  0  0  0  0  0  0  0  0  0  0
    6.8671    0.1550    0.0000 C   0  0  0  0  0  0  0  0  0  0  0  0
    6.8671    1.1550    0.0000 C   0  0  0  0  0  0  0  0  0  0  0  0
    7.7331    1.6550    0.0000 C   0  0  0  0  0  0  0  0  0  0  0  0
    8.5991    1.1550    0.0000 C   0  0  0  0  0  0  0  0  0  0  0  0
    7.7331    2.6550    0.0000 C   0  0  0  0  0  0  0  0  0  0  0  0
    8.5991    3.1550    0.0000 C   0  0  0  0  0  0  0  0  0  0  0  0
    9.4651    1.6550    0.0000 C   0  0  0  0  0  0  0  0  0  0  0  0
    9.4651    2.6550    0.0000 C   0  0  0  0  0  0  0  0  0  0  0  0
    7.7331    4.6550    0.0000 C   0  0  0  0  0  0  0  0  0  0  0  0
   10.3312    0.1550    0.0000 C   0  0  0  0  0  0  0  0  0  0  0  0
    3.4030   -3.4650    0.0000 H   0  0  0  0  0  0  0  0  0  0  0  0
    4.8059   -3.6550    0.0000 H   0  0  0  0  0  0  0  0  0  0  0  0
    3.4030   -1.2250    0.0000 H   0  0  0  0  0  0  0  0  0  0  0  0
    5.1350   -3.4650    0.0000 H   0  0  0  0  0  0  0  0  0  0  0  0
    5.1350   -1.2250    0.0000 H   0  0  0  0  0  0  0  0  0  0  0  0
    1.9264   -1.2373    0.0000 H   0  0  0  0  0  0  0  0  0  0  0  0
    2.3249   -1.9276    0.0000 H   0  0  0  0  0  0  0  0  0  0  0  0
    2.0000   -3.0350    0.0000 H   0  0  0  0  0  0  0  0  0  0  0  0
    3.7320   -4.6550    0.0000 H   0  0  0  0  0  0  0  0  0  0  0  0
    6.5380   -3.0350    0.0000 H   0  0  0  0  0  0  0  0  0  0  0  0
    2.0000   -0.0350    0.0000 H   0  0  0  0  0  0  0  0  0  0  0  0
    7.4040   -0.1550    0.0000 H   0  0  0  0  0  0  0  0  0  0  0  0
    6.3301    1.4650    0.0000 H   0  0  0  0  0  0  0  0  0  0  0  0
    8.5991    0.5350    0.0000 H   0  0  0  0  0  0  0  0  0  0  0  0
    7.1962    2.9650    0.0000 H   0  0  0  0  0  0  0  0  0  0  0  0
   10.3312    3.7750    0.0000 H   0  0  0  0  0  0  0  0  0  0  0  0
    8.0431    5.1919    0.0000 H   0  0  0  0  0  0  0  0  0  0  0  0
    7.1962    4.9650    0.0000 H   0  0  0  0  0  0  0  0  0  0  0  0
    7.4231    4.1181    0.0000 H   0  0  0  0  0  0  0  0  0  0  0  0
    9.7112    0.1550    0.0000 H   0  0  0  0  0  0  0  0  0  0  0  0
   10.3312   -0.4650    0.0000 H   0  0  0  0  0  0  0  0  0  0  0  0
   10.9512    0.1550    0.0000 H   0  0  0  0  0  0  0  0  0  0  0  0
  1 13  1  0  0  0  0
  1 15  1  0  0  0  0
 11  2  1  6  0  0  0
  2 35  1  0  0  0  0
 12  3  1  1  0  0  0
  3 36  1  0  0  0  0
 14  4  1  6  0  0  0
  4 37  1  0  0  0  0
 15  5  1  1  0  0  0
  5 17  1  0  0  0  0
  6 16  1  0  0  0  0
  6 38  1  0  0  0  0
  7 17  2  0  0  0  0
  8 23  1  0  0  0  0
  8 26  1  0  0  0  0
  9 24  1  0  0  0  0
  9 27  1  0  0  0  0
 10 25  1  0  0  0  0
 10 43  1  0  0  0  0
 11 12  1  0  0  0  0
 11 13  1  0  0  0  0
 11 28  1  0  0  0  0
 12 14  1  0  0  0  0
 12 29  1  0  0  0  0
 13 16  1  1  0  0  0
 13 30  1  0  0  0  0
 14 15  1  0  0  0  0
 14 31  1  0  0  0  0
 15 32  1  0  0  0  0
 16 33  1  0  0  0  0
 16 34  1  0  0  0  0
 17 18  1  0  0  0  0
 18 19  2  0  0  0  0
 18 39  1  0  0  0  0
 19 20  1  0  0  0  0
 19 40  1  0  0  0  0
 20 21  2  0  0  0  0
 20 22  1  0  0  0  0
 21 24  1  0  0  0  0
 21 41  1  0  0  0  0
 22 23  2  0  0  0  0
 22 42  1  0  0  0  0
 23 25  1  0  0  0  0
 24 25  2  0  0  0  0
 26 44  1  0  0  0  0
 26 45  1  0  0  0  0
 26 46  1  0  0  0  0
 27 47  1  0  0  0  0
 27 48  1  0  0  0  0
 27 49  1  0  0  0  0
M  END
> <PUBCHEM_COMPOUND_CID>
5280406

> <PUBCHEM_COMPOUND_CANONICALIZED>
1

> <PUBCHEM_CACTVS_COMPLEXITY>
498

> <PUBCHEM_CACTVS_HBOND_ACCEPTOR>
10

> <PUBCHEM_CACTVS_HBOND_DONOR>
5

> <PUBCHEM_CACTVS_ROTATABLE_BOND>
7

> <PUBCHEM_CACTVS_SUBSKEYS>
AAADceB4PAAAAAAAAAAAAAAAAAAAAAAAAAA0QAAAAAAAAAABAAAAGgAACAAADBSwmAMyDoAABgCIAiDSCAACCAAgIAAIiAAGiMgdNyKGMRqicCMlwBUPuYfA4BwOIAABCAAAQABAAAIQAACAAAAAAAAAAA==

> <PUBCHEM_IUPAC_OPENEYE_NAME>
[(2S,3R,4S,5S,6R)-3,4,5-trihydroxy-6-(hydroxymethyl)tetrahydropyran-2-yl] (E)-3-(4-hydroxy-3,5-dimethoxy-phenyl)prop-2-enoate

> <PUBCHEM_IUPAC_CAS_NAME>
(E)-3-(4-hydroxy-3,5-dimethoxyphenyl)-2-propenoic acid [(2S,3R,4S,5S,6R)-3,4,5-trihydroxy-6-(hydroxymethyl)-2-oxanyl] ester

> <PUBCHEM_IUPAC_NAME>
[(2S,3R,4S,5S,6R)-3,4,5-trihydroxy-6-(hydroxymethyl)oxan-2-yl] (E)-3-(4-hydroxy-3,5-dimethoxyphenyl)prop-2-enoate

> <PUBCHEM_IUPAC_SYSTEMATIC_NAME>
[(2S,3R,4S,5S,6R)-6-(hydroxymethyl)-3,4,5-tris(oxidanyl)oxan-2-yl] (E)-3-(3,5-dimethoxy-4-oxidanyl-phenyl)prop-2-enoate

> <PUBCHEM_IUPAC_TRADITIONAL_NAME>
(E)-3-(4-hydroxy-3,5-dimethoxy-phenyl)acrylic acid [(2S,3R,4S,5S,6R)-3,4,5-trihydroxy-6-methylol-tetrahydropyran-2-yl] ester

> <PUBCHEM_IUPAC_INCHI>
InChI=1S/C17H22O10/c1-24-9-5-8(6-10(25-2)13(9)20)3-4-12(19)27-17-16(23)15(22)14(21)11(7-18)26-17/h3-6,11,14-18,20-23H,7H2,1-2H3/b4-3+/t11-,14-,15+,16-,17+/m1/s1

> <PUBCHEM_IUPAC_INCHIKEY>
XRKBRPFTFKKHEF-DGDBGZAXSA-N

> <PUBCHEM_XLOGP3_AA>
-0.3

> <PUBCHEM_EXACT_MASS>
386.121297

> <PUBCHEM_MOLECULAR_FORMULA>
C17H22O10

> <PUBCHEM_MOLECULAR_WEIGHT>
386.35058

> <PUBCHEM_OPENEYE_CAN_SMILES>
COC1=CC(=CC(=C1O)OC)C=CC(=O)OC2C(C(C(C(O2)CO)O)O)O

> <PUBCHEM_OPENEYE_ISO_SMILES>
COC1=CC(=CC(=C1O)OC)/C=C/C(=O)O[C@H]2[C@@H]([C@H]([C@@H]([C@H](O2)CO)O)O)O

> <PUBCHEM_CACTVS_TPSA>
155

> <PUBCHEM_MONOISOTOPIC_WEIGHT>
386.121297

> <PUBCHEM_TOTAL_CHARGE>
0

> <PUBCHEM_HEAVY_ATOM_COUNT>
27

> <PUBCHEM_ATOM_DEF_STEREO_COUNT>
5

> <PUBCHEM_ATOM_UDEF_STEREO_COUNT>
0

> <PUBCHEM_BOND_DEF_STEREO_COUNT>
1

> <PUBCHEM_BOND_UDEF_STEREO_COUNT>
0

> <PUBCHEM_ISOTOPIC_ATOM_COUNT>
0

> <PUBCHEM_COMPONENT_COUNT>
1

> <PUBCHEM_CACTVS_TAUTO_COUNT>
3

> <PUBCHEM_COORDINATE_TYPE>
1
5
255

> <PUBCHEM_BONDANNOTATIONS>
13  16  5
11  2  6
20  21  8
20  22  8
21  24  8
22  23  8
23  25  8
24  25  8
12  3  5
14  4  6
15  5  5

$$$$

