51605
  -OEChem-07051213013D

 41 42  0     0  0  0  0  0  0999 V2000
    1.7565   -2.3224   -0.0621 O   0  0  0  0  0  0  0  0  0  0  0  0
   -3.3758   -0.7335    1.1691 O   0  0  0  0  0  0  0  0  0  0  0  0
    4.6617    1.2802    0.5660 O   0  0  0  0  0  0  0  0  0  0  0  0
    4.1774    1.0899   -1.6710 O   0  0  0  0  0  0  0  0  0  0  0  0
    4.1475   -0.7457   -0.2524 N   0  0  0  0  0  0  0  0  0  0  0  0
    2.2720   -1.9055   -1.3197 C   0  0  0  0  0  0  0  0  0  0  0  0
    3.7788   -1.7521   -1.2211 C   0  0  0  0  0  0  0  0  0  0  0  0
    0.4806   -1.9270    0.2443 C   0  0  0  0  0  0  0  0  0  0  0  0
   -2.1082   -1.1246    0.8647 C   0  0  0  0  0  0  0  0  0  0  0  0
    0.1235   -1.7219    1.5722 C   0  0  0  0  0  0  0  0  0  0  0  0
   -0.4437   -1.7351   -0.7763 C   0  0  0  0  0  0  0  0  0  0  0  0
   -1.1752   -1.3193    1.8834 C   0  0  0  0  0  0  0  0  0  0  0  0
   -1.7424   -1.3325   -0.4650 C   0  0  0  0  0  0  0  0  0  0  0  0
   -3.9381    0.2767    0.4068 C   0  0  0  0  0  0  0  0  0  0  0  0
    4.3153    0.5881   -0.5601 C   0  0  0  0  0  0  0  0  0  0  0  0
   -3.1855    1.4001    0.1162 C   0  0  0  0  0  0  0  0  0  0  0  0
   -5.2383    0.1361   -0.0437 C   0  0  0  0  0  0  0  0  0  0  0  0
    4.8695    2.6867    0.3953 C   0  0  0  0  0  0  0  0  0  0  0  0
   -3.7523    2.4179   -0.6509 C   0  0  0  0  0  0  0  0  0  0  0  0
   -5.8050    1.1539   -0.8109 C   0  0  0  0  0  0  0  0  0  0  0  0
   -5.0619    2.2948   -1.1145 C   0  0  0  0  0  0  0  0  0  0  0  0
    5.2437    3.2955    1.7299 C   0  0  0  0  0  0  0  0  0  0  0  0
    2.0313   -2.6640   -2.0732 H   0  0  0  0  0  0  0  0  0  0  0  0
    1.8552   -0.9388   -1.6318 H   0  0  0  0  0  0  0  0  0  0  0  0
    4.2356   -2.6886   -0.8846 H   0  0  0  0  0  0  0  0  0  0  0  0
    4.1985   -1.4855   -2.1965 H   0  0  0  0  0  0  0  0  0  0  0  0
    0.8473   -1.8718    2.3681 H   0  0  0  0  0  0  0  0  0  0  0  0
   -0.2095   -1.9195   -1.8203 H   0  0  0  0  0  0  0  0  0  0  0  0
   -1.4544   -1.1587    2.9211 H   0  0  0  0  0  0  0  0  0  0  0  0
   -2.4566   -1.2177   -1.2761 H   0  0  0  0  0  0  0  0  0  0  0  0
    4.2827   -1.0342    0.7118 H   0  0  0  0  0  0  0  0  0  0  0  0
   -2.1724    1.5307    0.4853 H   0  0  0  0  0  0  0  0  0  0  0  0
   -5.8176   -0.7514    0.1917 H   0  0  0  0  0  0  0  0  0  0  0  0
    3.9485    3.1489    0.0228 H   0  0  0  0  0  0  0  0  0  0  0  0
    5.6775    2.8512   -0.3262 H   0  0  0  0  0  0  0  0  0  0  0  0
   -3.1758    3.3087   -0.8827 H   0  0  0  0  0  0  0  0  0  0  0  0
   -6.8248    1.0582   -1.1718 H   0  0  0  0  0  0  0  0  0  0  0  0
   -5.5037    3.0878   -1.7107 H   0  0  0  0  0  0  0  0  0  0  0  0
    5.4101    4.3722    1.6358 H   0  0  0  0  0  0  0  0  0  0  0  0
    4.4529    3.1230    2.4674 H   0  0  0  0  0  0  0  0  0  0  0  0
    6.1531    2.8302    2.1243 H   0  0  0  0  0  0  0  0  0  0  0  0
  1  6  1  0  0  0  0
  1  8  1  0  0  0  0
  2  9  1  0  0  0  0
  2 14  1  0  0  0  0
  3 15  1  0  0  0  0
  3 18  1  0  0  0  0
  4 15  2  0  0  0  0
  5  7  1  0  0  0  0
  5 15  1  0  0  0  0
  5 31  1  0  0  0  0
  6  7  1  0  0  0  0
  6 23  1  0  0  0  0
  6 24  1  0  0  0  0
  7 25  1  0  0  0  0
  7 26  1  0  0  0  0
  8 10  2  0  0  0  0
  8 11  1  0  0  0  0
  9 12  2  0  0  0  0
  9 13  1  0  0  0  0
 10 12  1  0  0  0  0
 10 27  1  0  0  0  0
 11 13  2  0  0  0  0
 11 28  1  0  0  0  0
 12 29  1  0  0  0  0
 13 30  1  0  0  0  0
 14 16  2  0  0  0  0
 14 17  1  0  0  0  0
 16 19  1  0  0  0  0
 16 32  1  0  0  0  0
 17 20  2  0  0  0  0
 17 33  1  0  0  0  0
 18 22  1  0  0  0  0
 18 34  1  0  0  0  0
 18 35  1  0  0  0  0
 19 21  2  0  0  0  0
 19 36  1  0  0  0  0
 20 21  1  0  0  0  0
 20 37  1  0  0  0  0
 21 38  1  0  0  0  0
 22 39  1  0  0  0  0
 22 40  1  0  0  0  0
 22 41  1  0  0  0  0
M  END
> <PUBCHEM_COMPOUND_CID>
51605

> <PUBCHEM_CONFORMER_RMSD>
0.8

> <PUBCHEM_CONFORMER_DIVERSEORDER>
1
169
45
208
3
144
96
15
211
59
207
10
191
200
110
72
212
226
163
225
48
64
97
14
221
150
124
88
86
82
42
108
50
35
22
93
158
114
118
194
85
16
37
32
185
84
90
215
75
87
213
189
161
61
9
63
120
128
83
126
198
214
109
65
100
125
51
174
122
73
34
209
177
175
197
162
129
107
19
6
167
190
76
106
205
140
101
195
60
29
157
53
218
68
203
193
192
183
105
216
187
2
210
206
104
147
113
123
78
103
70
217
57
41
5
155
165
77
56
196
181
184
11
168
137
127
69
92
202
170
220
79
164
116
152
24
119
178
89
4
12
21
111
136
204
74
54
173
222
115
142
91
94
99
46
47
138
7
80
130
121
143
151
67
156
28
135
13
98
52
223
33
188
201
160
71
58
112
66
153
49
186
36
154
146
95
133
117
139
199
134
30
180
8
159
31
23
132
219
20
18
141
102
224
176
81
55
44
145
38
17
25
43
62
148
171
27
172
179
40
182
26
131
166
227
149
39

> <PUBCHEM_MMFF94_PARTIAL_CHARGES>
31
1 -0.36
10 -0.15
11 -0.15
12 -0.15
13 -0.15
14 0.08
15 0.78
16 -0.15
17 -0.15
18 0.28
19 -0.15
2 -0.17
20 -0.15
21 -0.15
27 0.15
28 0.15
29 0.15
3 -0.43
30 0.15
31 0.37
32 0.15
33 0.15
36 0.15
37 0.15
38 0.15
4 -0.57
5 -0.73
6 0.28
7 0.3
8 0.08
9 0.08

> <PUBCHEM_EFFECTIVE_ROTOR_COUNT>
9

> <PUBCHEM_PHARMACOPHORE_FEATURES>
6
1 1 acceptor
1 2 acceptor
1 4 acceptor
1 5 donor
6 14 16 17 19 20 21 rings
6 8 9 10 11 12 13 rings

> <PUBCHEM_HEAVY_ATOM_COUNT>
22

> <PUBCHEM_ATOM_DEF_STEREO_COUNT>
0

> <PUBCHEM_ATOM_UDEF_STEREO_COUNT>
0

> <PUBCHEM_BOND_DEF_STEREO_COUNT>
0

> <PUBCHEM_BOND_UDEF_STEREO_COUNT>
0

> <PUBCHEM_ISOTOPIC_ATOM_COUNT>
0

> <PUBCHEM_COMPONENT_COUNT>
1

> <PUBCHEM_CACTVS_TAUTO_COUNT>
2

> <PUBCHEM_CONFORMER_ID>
0000C99500000001

> <PUBCHEM_MMFF94_ENERGY>
61.0856

> <PUBCHEM_FEATURE_SELFOVERLAP>
30.446

> <PUBCHEM_SHAPE_FINGERPRINT>
10498660 4 17896027759875450530
10764073 3 11167403750365093411
11089746 13 18270682094379603358
11112241 14 18261963955166882733
12422481 6 14692021318065229839
12596602 18 14979088333605051196
12633257 1 16343423908473534502
12769317 202 18186522094771949784
133061 13 18270138845673738756
13402501 40 18412546509339398116
13551218 46 9006759996321283869
14187579 7 18190180268668825633
14251757 17 18336262426700144304
14251764 38 18335979890972045464
14428016 6 17822865173130552257
14468879 13 18339918213016021346
14739800 52 18130518529681766257
14848178 96 18272079547914524388
15003188 100 18334010601538148334
15209294 21 17203036491531042111
15342816 4 5039381129923142494
15475509 35 10879402025170644861
16120349 189 18118130165385943780
1813 80 13840559496472705275
193927 3 5905750177767988199
21033648 29 18272645706757180862
212916 134 17418087728454916163
21388113 180 18335985259971523608
21475661 188 18273210893950642204
22864921 267 9727063339611528581
23559900 14 17773582996236968750
2838139 119 18410300245637791557
328310 1195 18335698407510434230
341906 21 17703496749111027182
3459 39 17346328136627989349
345986 75 14045748136028967190
34797466 226 18186799227605549431
4371632 12 16300656118567034072
44317340 157 18261950855843047431
5104073 3 17130415999374102691
56616090 13 18412266150821776955
56633871 153 12175628360314196833
7237137 82 17458635462941258999
9981440 41 17846494842580118187

> <PUBCHEM_SHAPE_MULTIPOLES>
424.29
13.99
3.54
1.57
2
2.04
0.33
13.59
-2.04
3.58
0.4
0.8
-0.1
3.37

> <PUBCHEM_SHAPE_SELFOVERLAP>
887.768

> <PUBCHEM_SHAPE_VOLUME>
239.4

> <PUBCHEM_COORDINATE_TYPE>
2
5
10

$$$$

