14057
  -OEChem-06241222412D

 20 19  0     0  0  0  0  0  0999 V2000
    5.4641    0.5670    0.0000 O   0  0  0  0  0  0  0  0  0  0  0  0
    4.5981   -0.9330    0.0000 O   0  0  0  0  0  0  0  0  0  0  0  0
    2.8660    0.0670    0.0000 C   0  0  0  0  0  0  0  0  0  0  0  0
    3.7320    0.5670    0.0000 C   0  0  0  0  0  0  0  0  0  0  0  0
    2.0000   -0.4330    0.0000 C   0  0  0  0  0  0  0  0  0  0  0  0
    2.3660    0.9330    0.0000 C   0  0  0  0  0  0  0  0  0  0  0  0
    3.3660   -0.7990    0.0000 C   0  0  0  0  0  0  0  0  0  0  0  0
    4.5981    0.0670    0.0000 C   0  0  0  0  0  0  0  0  0  0  0  0
    4.1306    1.0419    0.0000 H   0  0  0  0  0  0  0  0  0  0  0  0
    3.3335    1.0419    0.0000 H   0  0  0  0  0  0  0  0  0  0  0  0
    1.6900    0.1039    0.0000 H   0  0  0  0  0  0  0  0  0  0  0  0
    1.4631   -0.7430    0.0000 H   0  0  0  0  0  0  0  0  0  0  0  0
    2.3100   -0.9699    0.0000 H   0  0  0  0  0  0  0  0  0  0  0  0
    2.9030    1.2430    0.0000 H   0  0  0  0  0  0  0  0  0  0  0  0
    2.0560    1.4700    0.0000 H   0  0  0  0  0  0  0  0  0  0  0  0
    1.8291    0.6230    0.0000 H   0  0  0  0  0  0  0  0  0  0  0  0
    2.8291   -1.1090    0.0000 H   0  0  0  0  0  0  0  0  0  0  0  0
    3.6760   -1.3360    0.0000 H   0  0  0  0  0  0  0  0  0  0  0  0
    3.9030   -0.4890    0.0000 H   0  0  0  0  0  0  0  0  0  0  0  0
    6.0010    0.2570    0.0000 H   0  0  0  0  0  0  0  0  0  0  0  0
  1  8  1  0  0  0  0
  1 20  1  0  0  0  0
  2  8  2  0  0  0  0
  3  4  1  0  0  0  0
  3  5  1  0  0  0  0
  3  6  1  0  0  0  0
  3  7  1  0  0  0  0
  4  8  1  0  0  0  0
  4  9  1  0  0  0  0
  4 10  1  0  0  0  0
  5 11  1  0  0  0  0
  5 12  1  0  0  0  0
  5 13  1  0  0  0  0
  6 14  1  0  0  0  0
  6 15  1  0  0  0  0
  6 16  1  0  0  0  0
  7 17  1  0  0  0  0
  7 18  1  0  0  0  0
  7 19  1  0  0  0  0
M  END
> <PUBCHEM_COMPOUND_CID>
14057

> <PUBCHEM_COMPOUND_CANONICALIZED>
1

> <PUBCHEM_CACTVS_COMPLEXITY>
89.2

> <PUBCHEM_CACTVS_HBOND_ACCEPTOR>
2

> <PUBCHEM_CACTVS_HBOND_DONOR>
1

> <PUBCHEM_CACTVS_ROTATABLE_BOND>
2

> <PUBCHEM_CACTVS_SUBSKEYS>
AAADccBgMAAAAAAAAAAAAAAAAAAAAAAAAAAAAAAAAAAAAAAAAAAAGgAACAAADgCAgAACCAAAAgAIAACQCAAAAAAAAAAAAAEAAAAAABAAAAAAQAAEAAAAAAAAAAAJAAAAAAAAAAAAAAAAAAAAAAAAAAAAAA==

> <PUBCHEM_IUPAC_OPENEYE_NAME>
3,3-dimethylbutanoic acid

> <PUBCHEM_IUPAC_CAS_NAME>
3,3-dimethylbutanoic acid

> <PUBCHEM_IUPAC_NAME>
3,3-dimethylbutanoic acid

> <PUBCHEM_IUPAC_SYSTEMATIC_NAME>
3,3-dimethylbutanoic acid

> <PUBCHEM_IUPAC_TRADITIONAL_NAME>
3,3-dimethylbutyric acid

> <PUBCHEM_IUPAC_INCHI>
InChI=1S/C6H12O2/c1-6(2,3)4-5(7)8/h4H2,1-3H3,(H,7,8)

> <PUBCHEM_IUPAC_INCHIKEY>
MLMQPDHYNJCQAO-UHFFFAOYSA-N

> <PUBCHEM_XLOGP3_AA>
1.4

> <PUBCHEM_EXACT_MASS>
116.08373

> <PUBCHEM_MOLECULAR_FORMULA>
C6H12O2

> <PUBCHEM_MOLECULAR_WEIGHT>
116.15828

> <PUBCHEM_OPENEYE_CAN_SMILES>
CC(C)(C)CC(=O)O

> <PUBCHEM_OPENEYE_ISO_SMILES>
CC(C)(C)CC(=O)O

> <PUBCHEM_CACTVS_TPSA>
37.3

> <PUBCHEM_MONOISOTOPIC_WEIGHT>
116.08373

> <PUBCHEM_TOTAL_CHARGE>
0

> <PUBCHEM_HEAVY_ATOM_COUNT>
8

> <PUBCHEM_ATOM_DEF_STEREO_COUNT>
0

> <PUBCHEM_ATOM_UDEF_STEREO_COUNT>
0

> <PUBCHEM_BOND_DEF_STEREO_COUNT>
0

> <PUBCHEM_BOND_UDEF_STEREO_COUNT>
0

> <PUBCHEM_ISOTOPIC_ATOM_COUNT>
0

> <PUBCHEM_COMPONENT_COUNT>
1

> <PUBCHEM_CACTVS_TAUTO_COUNT>
1

> <PUBCHEM_COORDINATE_TYPE>
1
5
255

$$$$

