237413
  -OEChem-07051213072D

 22 23  0     1  0  0  0  0  0999 V2000
    4.2320    2.5280    0.0000 O   0  0  0  0  0  0  0  0  0  0  0  0
    5.0981    1.0280    0.0000 O   0  0  0  0  0  0  0  0  0  0  0  0
    2.8660    0.1620    0.0000 C   0  0  1  0  0  0  0  0  0  0  0  0
    3.3660    1.0280    0.0000 C   0  0  1  0  0  0  0  0  0  0  0  0
    2.3660    1.0280    0.0000 C   0  0  0  0  0  0  0  0  0  0  0  0
    2.8660   -0.8380    0.0000 C   0  0  0  0  0  0  0  0  0  0  0  0
    4.2320    1.5280    0.0000 C   0  0  0  0  0  0  0  0  0  0  0  0
    2.0000   -1.3380    0.0000 C   0  0  0  0  0  0  0  0  0  0  0  0
    3.7320   -1.3380    0.0000 C   0  0  0  0  0  0  0  0  0  0  0  0
    2.0000   -2.3380    0.0000 C   0  0  0  0  0  0  0  0  0  0  0  0
    3.7320   -2.3380    0.0000 C   0  0  0  0  0  0  0  0  0  0  0  0
    2.8660   -2.8380    0.0000 C   0  0  0  0  0  0  0  0  0  0  0  0
    3.4649    0.0015    0.0000 H   0  0  0  0  0  0  0  0  0  0  0  0
    3.2056    1.6269    0.0000 H   0  0  0  0  0  0  0  0  0  0  0  0
    2.2584    1.6386    0.0000 H   0  0  0  0  0  0  0  0  0  0  0  0
    1.7834    0.8160    0.0000 H   0  0  0  0  0  0  0  0  0  0  0  0
    1.4631   -1.0280    0.0000 H   0  0  0  0  0  0  0  0  0  0  0  0
    4.2690   -1.0280    0.0000 H   0  0  0  0  0  0  0  0  0  0  0  0
    1.4631   -2.6480    0.0000 H   0  0  0  0  0  0  0  0  0  0  0  0
    4.2690   -2.6480    0.0000 H   0  0  0  0  0  0  0  0  0  0  0  0
    4.7690    2.8380    0.0000 H   0  0  0  0  0  0  0  0  0  0  0  0
    2.8660   -3.4580    0.0000 H   0  0  0  0  0  0  0  0  0  0  0  0
  1  7  1  0  0  0  0
  1 21  1  0  0  0  0
  2  7  2  0  0  0  0
  3  4  1  0  0  0  0
  3  5  1  0  0  0  0
  3  6  1  6  0  0  0
  3 13  1  0  0  0  0
  4  5  1  0  0  0  0
  4  7  1  1  0  0  0
  4 14  1  0  0  0  0
  5 15  1  0  0  0  0
  5 16  1  0  0  0  0
  6  8  2  0  0  0  0
  6  9  1  0  0  0  0
  8 10  1  0  0  0  0
  8 17  1  0  0  0  0
  9 11  2  0  0  0  0
  9 18  1  0  0  0  0
 10 12  2  0  0  0  0
 10 19  1  0  0  0  0
 11 12  1  0  0  0  0
 11 20  1  0  0  0  0
 12 22  1  0  0  0  0
M  END
> <PUBCHEM_COMPOUND_CID>
237413

> <PUBCHEM_COMPOUND_CANONICALIZED>
1

> <PUBCHEM_CACTVS_COMPLEXITY>
182

> <PUBCHEM_CACTVS_HBOND_ACCEPTOR>
2

> <PUBCHEM_CACTVS_HBOND_DONOR>
1

> <PUBCHEM_CACTVS_ROTATABLE_BOND>
2

> <PUBCHEM_CACTVS_SUBSKEYS>
AAADccBwMAAAAAAAAAAAAAAAGAAAAAAAAAAwAAAAAAAAAAABAAAAGgAACAAADQCAmAAwCIAAAgCIAiDSCAACAAAgAAAIiAEAAIgIIDKAERCAYAAkgAAIiAeIyPCOgAAAAAAAAAAAAAAAAAAAAAAAAAAAAA==

> <PUBCHEM_IUPAC_OPENEYE_NAME>
(1R,2R)-2-phenylcyclopropanecarboxylic acid

> <PUBCHEM_IUPAC_CAS_NAME>
(1R,2R)-2-phenyl-1-cyclopropanecarboxylic acid

> <PUBCHEM_IUPAC_NAME>
(1R,2R)-2-phenylcyclopropane-1-carboxylic acid

> <PUBCHEM_IUPAC_SYSTEMATIC_NAME>
(1R,2R)-2-phenylcyclopropane-1-carboxylic acid

> <PUBCHEM_IUPAC_TRADITIONAL_NAME>
(1R,2R)-2-phenylcyclopropanecarboxylic acid

> <PUBCHEM_IUPAC_INCHI>
InChI=1S/C10H10O2/c11-10(12)9-6-8(9)7-4-2-1-3-5-7/h1-5,8-9H,6H2,(H,11,12)/t8-,9+/m0/s1

> <PUBCHEM_IUPAC_INCHIKEY>
AHDDRJBFJBDEPW-DTWKUNHWSA-N

> <PUBCHEM_XLOGP3_AA>
1.6

> <PUBCHEM_EXACT_MASS>
162.06808

> <PUBCHEM_MOLECULAR_FORMULA>
C10H10O2

> <PUBCHEM_MOLECULAR_WEIGHT>
162.1852

> <PUBCHEM_OPENEYE_CAN_SMILES>
C1C(C1C(=O)O)C2=CC=CC=C2

> <PUBCHEM_OPENEYE_ISO_SMILES>
C1[C@H]([C@@H]1C(=O)O)C2=CC=CC=C2

> <PUBCHEM_CACTVS_TPSA>
37.3

> <PUBCHEM_MONOISOTOPIC_WEIGHT>
162.06808

> <PUBCHEM_TOTAL_CHARGE>
0

> <PUBCHEM_HEAVY_ATOM_COUNT>
12

> <PUBCHEM_ATOM_DEF_STEREO_COUNT>
2

> <PUBCHEM_ATOM_UDEF_STEREO_COUNT>
0

> <PUBCHEM_BOND_DEF_STEREO_COUNT>
0

> <PUBCHEM_BOND_UDEF_STEREO_COUNT>
0

> <PUBCHEM_ISOTOPIC_ATOM_COUNT>
0

> <PUBCHEM_COMPONENT_COUNT>
1

> <PUBCHEM_CACTVS_TAUTO_COUNT>
1

> <PUBCHEM_COORDINATE_TYPE>
1
5
255

> <PUBCHEM_BONDANNOTATIONS>
10  12  8
11  12  8
3  6  6
4  7  5
6  8  8
6  9  8
8  10  8
9  11  8

$$$$

