439437
  -OEChem-07051213093D

 25 24  0     1  0  0  0  0  0999 V2000
   -2.4421   -1.7990   -0.0302 O   0  0  0  0  0  0  0  0  0  0  0  0
    2.3647    1.5770   -0.9767 O   0  0  0  0  0  0  0  0  0  0  0  0
    2.2801    1.0599    1.2311 O   0  0  0  0  0  0  0  0  0  0  0  0
    2.7517   -1.5941    0.0742 N   0  0  0  0  0  0  0  0  0  0  0  0
   -3.0691    1.8602    0.1521 N   0  0  0  0  0  0  0  0  0  0  0  0
   -0.7451   -0.1106   -0.3253 C   0  0  0  0  0  0  0  0  0  0  0  0
    0.3618   -1.0708    0.1255 C   0  0  0  0  0  0  0  0  0  0  0  0
   -2.1193   -0.4409    0.2747 C   0  0  1  0  0  0  0  0  0  0  0  0
    1.7404   -0.6584   -0.4117 C   0  0  1  0  0  0  0  0  0  0  0  0
   -3.2814    0.4534   -0.1743 C   0  0  0  0  0  0  0  0  0  0  0  0
    2.1583    0.7232    0.0606 C   0  0  0  0  0  0  0  0  0  0  0  0
   -0.8109   -0.1518   -1.4200 H   0  0  0  0  0  0  0  0  0  0  0  0
   -0.4765    0.9161   -0.0557 H   0  0  0  0  0  0  0  0  0  0  0  0
    0.3811   -1.0940    1.2232 H   0  0  0  0  0  0  0  0  0  0  0  0
    0.1283   -2.0881   -0.2127 H   0  0  0  0  0  0  0  0  0  0  0  0
   -2.0410   -0.3834    1.3675 H   0  0  0  0  0  0  0  0  0  0  0  0
    1.7296   -0.6820   -1.5076 H   0  0  0  0  0  0  0  0  0  0  0  0
   -4.2071    0.1082    0.3011 H   0  0  0  0  0  0  0  0  0  0  0  0
   -3.4379    0.3476   -1.2544 H   0  0  0  0  0  0  0  0  0  0  0  0
    3.6499   -1.3840   -0.3601 H   0  0  0  0  0  0  0  0  0  0  0  0
    2.5117   -2.5409   -0.2177 H   0  0  0  0  0  0  0  0  0  0  0  0
   -2.5095   -1.8766   -0.9973 H   0  0  0  0  0  0  0  0  0  0  0  0
   -3.8759    2.4015   -0.1562 H   0  0  0  0  0  0  0  0  0  0  0  0
   -2.2735    2.2200   -0.3730 H   0  0  0  0  0  0  0  0  0  0  0  0
    2.6225    2.4715   -0.6675 H   0  0  0  0  0  0  0  0  0  0  0  0
  1  8  1  0  0  0  0
  1 22  1  0  0  0  0
  2 11  1  0  0  0  0
  2 25  1  0  0  0  0
  3 11  2  0  0  0  0
  4  9  1  0  0  0  0
  4 20  1  0  0  0  0
  4 21  1  0  0  0  0
  5 10  1  0  0  0  0
  5 23  1  0  0  0  0
  5 24  1  0  0  0  0
  6  7  1  0  0  0  0
  6  8  1  0  0  0  0
  6 12  1  0  0  0  0
  6 13  1  0  0  0  0
  7  9  1  0  0  0  0
  7 14  1  0  0  0  0
  7 15  1  0  0  0  0
  8 10  1  0  0  0  0
  8 16  1  0  0  0  0
  9 11  1  0  0  0  0
  9 17  1  0  0  0  0
 10 18  1  0  0  0  0
 10 19  1  0  0  0  0
M  END
> <PUBCHEM_COMPOUND_CID>
439437

> <PUBCHEM_CONFORMER_RMSD>
0.6

> <PUBCHEM_CONFORMER_DIVERSEORDER>
3
79
24
71
49
55
22
78
17
74
1
75
73
58
47
32
33
81
65
51
72
13
29
54
60
38
19
68
30
70
67
31
12
80
11
26
10
9
77
61
56
7
34
36
57
66
48
53
21
37
69
63
64
16
76
5
2
42
27
20
62
35
28
59
6
41
40
23
15
14
25
39
45
46
18
50
8
43
4
44
52

> <PUBCHEM_MMFF94_PARTIAL_CHARGES>
15
1 -0.68
10 0.27
11 0.66
2 -0.65
20 0.36
21 0.36
22 0.4
23 0.36
24 0.36
25 0.5
3 -0.57
4 -0.99
5 -0.99
8 0.28
9 0.33

> <PUBCHEM_EFFECTIVE_ROTOR_COUNT>
5

> <PUBCHEM_PHARMACOPHORE_FEATURES>
9
1 1 acceptor
1 1 donor
1 2 acceptor
1 3 acceptor
1 4 cation
1 4 donor
1 5 cation
1 5 donor
3 2 3 11 anion

> <PUBCHEM_HEAVY_ATOM_COUNT>
11

> <PUBCHEM_ATOM_DEF_STEREO_COUNT>
2

> <PUBCHEM_ATOM_UDEF_STEREO_COUNT>
0

> <PUBCHEM_BOND_DEF_STEREO_COUNT>
0

> <PUBCHEM_BOND_UDEF_STEREO_COUNT>
0

> <PUBCHEM_ISOTOPIC_ATOM_COUNT>
0

> <PUBCHEM_COMPONENT_COUNT>
1

> <PUBCHEM_CACTVS_TAUTO_COUNT>
1

> <PUBCHEM_CONFORMER_ID>
0006B48D00000003

> <PUBCHEM_MMFF94_ENERGY>
7.3798

> <PUBCHEM_FEATURE_SELFOVERLAP>
45.728

> <PUBCHEM_SHAPE_FINGERPRINT>
12162725 195 18409450314707188117
12932764 1 17895470324064171975
13618510 140 18342172241622593677
13922767 16 18261964062514041898
14325111 11 18411136918093970775
14390081 3 18334297561066834785
15775835 57 18261107448245255593
18511873 20 18267866270743656387
19973954 147 18411979148285167541
20653085 51 18340758343031422619
230 275 18412830178806441976
23552423 10 18343019982193572891
3248919 1 18201165355785778063
9939556 21 18410293639904484015

> <PUBCHEM_SHAPE_MULTIPOLES>
198.8
5.59
1.81
0.8
2.21
0.1
-0.06
1.22
-0.08
0.04
0.02
-0.4
0.22
-0.05

> <PUBCHEM_SHAPE_SELFOVERLAP>
369.81

> <PUBCHEM_SHAPE_VOLUME>
124.4

> <PUBCHEM_COORDINATE_TYPE>
2
5
10

$$$$

