5281777
  -OEChem-07051212592D

 63 66  0     1  0  0  0  0  0999 V2000
    4.2690    1.8604    0.0000 O   0  0  0  0  0  0  0  0  0  0  0  0
    5.1350    0.3604    0.0000 O   0  0  0  0  0  0  0  0  0  0  0  0
    6.8671    3.3604    0.0000 O   0  0  0  0  0  0  0  0  0  0  0  0
    5.1350    4.3604    0.0000 O   0  0  0  0  0  0  0  0  0  0  0  0
    6.8671    1.3604    0.0000 O   0  0  0  0  0  0  0  0  0  0  0  0
    2.5369    2.8604    0.0000 O   0  0  0  0  0  0  0  0  0  0  0  0
    5.1350   -1.6396    0.0000 O   0  0  0  0  0  0  0  0  0  0  0  0
    8.6270    0.3951    0.0000 O   0  0  0  0  0  0  0  0  0  0  0  0
    6.8671   -2.6396    0.0000 O   0  0  0  0  0  0  0  0  0  0  0  0
    8.6155   -2.6742    0.0000 O   0  0  0  0  0  0  0  0  0  0  0  0
   11.2536   -4.1671    0.0000 O   0  0  0  0  0  0  0  0  0  0  0  0
   12.9895   -3.1738    0.0000 O   0  0  0  0  0  0  0  0  0  0  0  0
   12.9972   -1.1738    0.0000 O   0  0  0  0  0  0  0  0  0  0  0  0
    6.0010    2.8604    0.0000 C   0  0  1  0  0  0  0  0  0  0  0  0
    5.1350    3.3604    0.0000 C   0  0  1  0  0  0  0  0  0  0  0  0
    6.0010    1.8604    0.0000 C   0  0  2  0  0  0  0  0  0  0  0  0
    4.2690    2.8604    0.0000 C   0  0  1  0  0  0  0  0  0  0  0  0
    5.1350    1.3604    0.0000 C   0  0  1  0  0  0  0  0  0  0  0  0
    3.4030    3.3604    0.0000 C   0  0  0  0  0  0  0  0  0  0  0  0
    6.0010   -0.1396    0.0000 C   0  0  0  0  0  0  0  0  0  0  0  0
    6.0010   -1.1396    0.0000 C   0  0  0  0  0  0  0  0  0  0  0  0
    6.8671    0.3604    0.0000 C   0  0  0  0  0  0  0  0  0  0  0  0
    7.7331   -0.1396    0.0000 C   0  0  0  0  0  0  0  0  0  0  0  0
    7.7331   -1.1396    0.0000 C   0  0  0  0  0  0  0  0  0  0  0  0
    6.8671   -1.6396    0.0000 C   0  0  0  0  0  0  0  0  0  0  0  0
    8.6270   -1.6743    0.0000 C   0  0  0  0  0  0  0  0  0  0  0  0
    9.5331   -1.1604    0.0000 C   0  0  0  0  0  0  0  0  0  0  0  0
    9.5331   -0.1188    0.0000 C   0  0  0  0  0  0  0  0  0  0  0  0
   10.3972   -1.6638    0.0000 C   0  0  0  0  0  0  0  0  0  0  0  0
    4.2690   -1.1396    0.0000 C   0  0  0  0  0  0  0  0  0  0  0  0
   10.3933   -2.6637    0.0000 C   0  0  0  0  0  0  0  0  0  0  0  0
   11.2651   -1.1671    0.0000 C   0  0  0  0  0  0  0  0  0  0  0  0
   11.2574   -3.1671    0.0000 C   0  0  0  0  0  0  0  0  0  0  0  0
   12.1292   -1.6704    0.0000 C   0  0  0  0  0  0  0  0  0  0  0  0
   12.1254   -2.6704    0.0000 C   0  0  0  0  0  0  0  0  0  0  0  0
   12.1177   -4.6704    0.0000 C   0  0  0  0  0  0  0  0  0  0  0  0
   13.8574   -2.6771    0.0000 C   0  0  0  0  0  0  0  0  0  0  0  0
    6.5380    2.5504    0.0000 H   0  0  0  0  0  0  0  0  0  0  0  0
    5.6720    3.6704    0.0000 H   0  0  0  0  0  0  0  0  0  0  0  0
    6.5380    2.1704    0.0000 H   0  0  0  0  0  0  0  0  0  0  0  0
    3.7320    2.5504    0.0000 H   0  0  0  0  0  0  0  0  0  0  0  0
    5.6720    1.0504    0.0000 H   0  0  0  0  0  0  0  0  0  0  0  0
    3.8015    3.8354    0.0000 H   0  0  0  0  0  0  0  0  0  0  0  0
    3.0044    3.8354    0.0000 H   0  0  0  0  0  0  0  0  0  0  0  0
    6.8671    3.9804    0.0000 H   0  0  0  0  0  0  0  0  0  0  0  0
    4.5981    4.6704    0.0000 H   0  0  0  0  0  0  0  0  0  0  0  0
    7.4040    1.6704    0.0000 H   0  0  0  0  0  0  0  0  0  0  0  0
    2.0000    3.1704    0.0000 H   0  0  0  0  0  0  0  0  0  0  0  0
    6.8671    0.9804    0.0000 H   0  0  0  0  0  0  0  0  0  0  0  0
   10.0688    0.1933    0.0000 H   0  0  0  0  0  0  0  0  0  0  0  0
    6.3301   -2.9496    0.0000 H   0  0  0  0  0  0  0  0  0  0  0  0
    9.8552   -2.9717    0.0000 H   0  0  0  0  0  0  0  0  0  0  0  0
    4.5790   -0.6027    0.0000 H   0  0  0  0  0  0  0  0  0  0  0  0
    3.7320   -0.8296    0.0000 H   0  0  0  0  0  0  0  0  0  0  0  0
    3.9590   -1.6765    0.0000 H   0  0  0  0  0  0  0  0  0  0  0  0
   11.2675   -0.5471    0.0000 H   0  0  0  0  0  0  0  0  0  0  0  0
   12.9996   -0.5538    0.0000 H   0  0  0  0  0  0  0  0  0  0  0  0
   11.8056   -5.2061    0.0000 H   0  0  0  0  0  0  0  0  0  0  0  0
   12.6534   -4.9825    0.0000 H   0  0  0  0  0  0  0  0  0  0  0  0
   12.4297   -4.1347    0.0000 H   0  0  0  0  0  0  0  0  0  0  0  0
   14.1653   -3.2152    0.0000 H   0  0  0  0  0  0  0  0  0  0  0  0
   14.3955   -2.3692    0.0000 H   0  0  0  0  0  0  0  0  0  0  0  0
   13.5495   -2.1390    0.0000 H   0  0  0  0  0  0  0  0  0  0  0  0
  1 17  1  0  0  0  0
  1 18  1  0  0  0  0
 18  2  1  6  0  0  0
  2 20  1  0  0  0  0
 14  3  1  6  0  0  0
  3 45  1  0  0  0  0
 15  4  1  1  0  0  0
  4 46  1  0  0  0  0
 16  5  1  1  0  0  0
  5 47  1  0  0  0  0
  6 19  1  0  0  0  0
  6 48  1  0  0  0  0
  7 21  1  0  0  0  0
  7 30  1  0  0  0  0
  8 23  1  0  0  0  0
  8 28  1  0  0  0  0
  9 25  1  0  0  0  0
  9 51  1  0  0  0  0
 10 26  2  0  0  0  0
 11 33  1  0  0  0  0
 11 36  1  0  0  0  0
 12 35  1  0  0  0  0
 12 37  1  0  0  0  0
 13 34  1  0  0  0  0
 13 57  1  0  0  0  0
 14 15  1  0  0  0  0
 14 16  1  0  0  0  0
 14 38  1  0  0  0  0
 15 17  1  0  0  0  0
 15 39  1  0  0  0  0
 16 18  1  0  0  0  0
 16 40  1  0  0  0  0
 17 19  1  6  0  0  0
 17 41  1  0  0  0  0
 18 42  1  0  0  0  0
 19 43  1  0  0  0  0
 19 44  1  0  0  0  0
 20 21  2  0  0  0  0
 20 22  1  0  0  0  0
 21 25  1  0  0  0  0
 22 23  2  0  0  0  0
 22 49  1  0  0  0  0
 23 24  1  0  0  0  0
 24 25  2  0  0  0  0
 24 26  1  0  0  0  0
 26 27  1  0  0  0  0
 27 28  2  0  0  0  0
 27 29  1  0  0  0  0
 28 50  1  0  0  0  0
 29 31  1  0  0  0  0
 29 32  2  0  0  0  0
 30 53  1  0  0  0  0
 30 54  1  0  0  0  0
 30 55  1  0  0  0  0
 31 33  2  0  0  0  0
 31 52  1  0  0  0  0
 32 34  1  0  0  0  0
 32 56  1  0  0  0  0
 33 35  1  0  0  0  0
 34 35  2  0  0  0  0
 36 58  1  0  0  0  0
 36 59  1  0  0  0  0
 36 60  1  0  0  0  0
 37 61  1  0  0  0  0
 37 62  1  0  0  0  0
 37 63  1  0  0  0  0
M  END
> <PUBCHEM_COMPOUND_CID>
5281777

> <PUBCHEM_COMPOUND_CANONICALIZED>
1

> <PUBCHEM_CACTVS_COMPLEXITY>
823

> <PUBCHEM_CACTVS_HBOND_ACCEPTOR>
13

> <PUBCHEM_CACTVS_HBOND_DONOR>
6

> <PUBCHEM_CACTVS_ROTATABLE_BOND>
7

> <PUBCHEM_CACTVS_SUBSKEYS>
AAADceB4PAAAAAAAAAAAAAAAAAAAAAAAAAA0YIEAAAAAAACBQAAAGgAACAAADBSwmAMyDoAABgCIAqBSAAACCAAkIAAAiAEGiMgdNzaGNRqieWOl4BUPuYfK7PzOIQABCAAIQABCAAIQABCAAAAAAAAAAA==

> <PUBCHEM_IUPAC_OPENEYE_NAME>
5-hydroxy-3-(3-hydroxy-4,5-dimethoxy-phenyl)-6-methoxy-7-[(2S,3R,4S,5S,6R)-3,4,5-trihydroxy-6-(hydroxymethyl)tetrahydropyran-2-yl]oxy-chromen-4-one

> <PUBCHEM_IUPAC_CAS_NAME>
5-hydroxy-3-(3-hydroxy-4,5-dimethoxyphenyl)-6-methoxy-7-[[(2S,3R,4S,5S,6R)-3,4,5-trihydroxy-6-(hydroxymethyl)-2-oxanyl]oxy]-1-benzopyran-4-one

> <PUBCHEM_IUPAC_NAME>
5-hydroxy-3-(3-hydroxy-4,5-dimethoxyphenyl)-6-methoxy-7-[(2S,3R,4S,5S,6R)-3,4,5-trihydroxy-6-(hydroxymethyl)oxan-2-yl]oxychromen-4-one

> <PUBCHEM_IUPAC_SYSTEMATIC_NAME>
3-(3,4-dimethoxy-5-oxidanyl-phenyl)-7-[(2S,3R,4S,5S,6R)-6-(hydroxymethyl)-3,4,5-tris(oxidanyl)oxan-2-yl]oxy-6-methoxy-5-oxidanyl-chromen-4-one

> <PUBCHEM_IUPAC_TRADITIONAL_NAME>
5-hydroxy-3-(3-hydroxy-4,5-dimethoxy-phenyl)-6-methoxy-7-[(2S,3R,4S,5S,6R)-3,4,5-trihydroxy-6-methylol-tetrahydropyran-2-yl]oxy-chromone

> <PUBCHEM_IUPAC_INCHI>
InChI=1S/C24H26O13/c1-32-13-5-9(4-11(26)22(13)33-2)10-8-35-12-6-14(23(34-3)19(29)16(12)17(10)27)36-24-21(31)20(30)18(28)15(7-25)37-24/h4-6,8,15,18,20-21,24-26,28-31H,7H2,1-3H3/t15-,18-,20+,21-,24-/m1/s1

> <PUBCHEM_IUPAC_INCHIKEY>
LNQCUTNLHUQZLR-OZJWLQQPSA-N

> <PUBCHEM_XLOGP3_AA>
0.8

> <PUBCHEM_EXACT_MASS>
522.137341

> <PUBCHEM_MOLECULAR_FORMULA>
C24H26O13

> <PUBCHEM_MOLECULAR_WEIGHT>
522.45544

> <PUBCHEM_OPENEYE_CAN_SMILES>
COC1=CC(=CC(=C1OC)O)C2=COC3=CC(=C(C(=C3C2=O)O)OC)OC4C(C(C(C(O4)CO)O)O)O

> <PUBCHEM_OPENEYE_ISO_SMILES>
COC1=CC(=CC(=C1OC)O)C2=COC3=CC(=C(C(=C3C2=O)O)OC)O[C@H]4[C@@H]([C@H]([C@@H]([C@H](O4)CO)O)O)O

> <PUBCHEM_CACTVS_TPSA>
194

> <PUBCHEM_MONOISOTOPIC_WEIGHT>
522.137341

> <PUBCHEM_TOTAL_CHARGE>
0

> <PUBCHEM_HEAVY_ATOM_COUNT>
37

> <PUBCHEM_ATOM_DEF_STEREO_COUNT>
5

> <PUBCHEM_ATOM_UDEF_STEREO_COUNT>
0

> <PUBCHEM_BOND_DEF_STEREO_COUNT>
0

> <PUBCHEM_BOND_UDEF_STEREO_COUNT>
0

> <PUBCHEM_ISOTOPIC_ATOM_COUNT>
0

> <PUBCHEM_COMPONENT_COUNT>
1

> <PUBCHEM_CACTVS_TAUTO_COUNT>
14

> <PUBCHEM_COORDINATE_TYPE>
1
5
255

> <PUBCHEM_BONDANNOTATIONS>
17  19  6
18  2  6
20  21  8
20  22  8
21  25  8
22  23  8
23  24  8
24  25  8
24  26  8
26  27  8
27  28  8
29  31  8
29  32  8
14  3  6
31  33  8
32  34  8
33  35  8
34  35  8
15  4  5
16  5  5
8  23  8
8  28  8

$$$$

