17395802
  -OEChem-06241222523D

 42 44  0     1  0  0  0  0  0999 V2000
    3.5898   -3.6669   -0.5744 Cl  0  0  0  0  0  0  0  0  0  0  0  0
    5.3566    1.8647    0.7214 F   0  0  0  0  0  0  0  0  0  0  0  0
   -0.9119    1.7301    0.3752 O   0  0  0  0  0  0  0  0  0  0  0  0
   -2.9001   -1.5443   -1.0801 O   0  0  0  0  0  0  0  0  0  0  0  0
   -4.3098    0.6775    0.2315 N   0  0  1  0  0  0  0  0  0  0  0  0
   -1.6625   -1.3568    0.9061 N   0  0  0  0  0  0  0  0  0  0  0  0
   -1.9613    1.3343   -1.5604 N   0  0  0  0  0  0  0  0  0  0  0  0
   -0.6000    1.3028   -1.7984 N   0  0  0  0  0  0  0  0  0  0  0  0
   -3.3479    1.7342    0.5426 C   0  0  0  0  0  0  0  0  0  0  0  0
   -3.9208   -0.5748    0.8793 C   0  0  0  0  0  0  0  0  0  0  0  0
   -2.0966    1.5863   -0.2794 C   0  0  0  0  0  0  0  0  0  0  0  0
   -5.6549    1.0719    0.6483 C   0  0  0  0  0  0  0  0  0  0  0  0
   -2.7885   -1.2178    0.0972 C   0  0  0  0  0  0  0  0  0  0  0  0
   -0.0272    1.5390   -0.6413 C   0  0  0  0  0  0  0  0  0  0  0  0
    1.3607    1.6234   -0.2902 C   0  0  0  0  0  0  0  0  0  0  0  0
   -0.4078   -1.9077    0.5523 C   0  0  0  0  0  0  0  0  0  0  0  0
    1.7317    1.8877    1.0283 C   0  0  0  0  0  0  0  0  0  0  0  0
    2.3397    1.4405   -1.2668 C   0  0  0  0  0  0  0  0  0  0  0  0
    0.6179   -1.9694    1.4957 C   0  0  0  0  0  0  0  0  0  0  0  0
   -0.1970   -2.3899   -0.7395 C   0  0  0  0  0  0  0  0  0  0  0  0
    3.0816    1.9690    1.3700 C   0  0  0  0  0  0  0  0  0  0  0  0
    3.6896    1.5219   -0.9252 C   0  0  0  0  0  0  0  0  0  0  0  0
    1.8542   -2.5130    1.1473 C   0  0  0  0  0  0  0  0  0  0  0  0
    1.0392   -2.9335   -1.0880 C   0  0  0  0  0  0  0  0  0  0  0  0
    4.0605    1.7862    0.3933 C   0  0  0  0  0  0  0  0  0  0  0  0
    2.0648   -2.9951   -0.1446 C   0  0  0  0  0  0  0  0  0  0  0  0
   -3.1114    1.7794    1.6131 H   0  0  0  0  0  0  0  0  0  0  0  0
   -3.7634    2.7137    0.2714 H   0  0  0  0  0  0  0  0  0  0  0  0
   -3.6890   -0.4403    1.9424 H   0  0  0  0  0  0  0  0  0  0  0  0
   -4.7424   -1.3025    0.8328 H   0  0  0  0  0  0  0  0  0  0  0  0
   -6.3848    0.2995    0.3809 H   0  0  0  0  0  0  0  0  0  0  0  0
   -5.9686    1.9854    0.1306 H   0  0  0  0  0  0  0  0  0  0  0  0
   -5.7169    1.2473    1.7285 H   0  0  0  0  0  0  0  0  0  0  0  0
   -1.7226   -1.0287    1.8673 H   0  0  0  0  0  0  0  0  0  0  0  0
    0.9983    2.0343    1.8172 H   0  0  0  0  0  0  0  0  0  0  0  0
    2.0736    1.2321   -2.3003 H   0  0  0  0  0  0  0  0  0  0  0  0
    0.4674   -1.5955    2.5052 H   0  0  0  0  0  0  0  0  0  0  0  0
   -0.9402   -2.3754   -1.5241 H   0  0  0  0  0  0  0  0  0  0  0  0
    3.3714    2.1740    2.3964 H   0  0  0  0  0  0  0  0  0  0  0  0
    4.4521    1.3788   -1.6851 H   0  0  0  0  0  0  0  0  0  0  0  0
    2.6446   -2.5533    1.8923 H   0  0  0  0  0  0  0  0  0  0  0  0
    1.1907   -3.3051   -2.0984 H   0  0  0  0  0  0  0  0  0  0  0  0
  1 26  1  0  0  0  0
  2 25  1  0  0  0  0
  3 11  1  0  0  0  0
  3 14  1  0  0  0  0
  4 13  2  0  0  0  0
  5  9  1  0  0  0  0
  5 10  1  0  0  0  0
  5 12  1  0  0  0  0
  6 13  1  0  0  0  0
  6 16  1  0  0  0  0
  6 34  1  0  0  0  0
  7  8  1  0  0  0  0
  7 11  2  0  0  0  0
  8 14  2  0  0  0  0
  9 11  1  0  0  0  0
  9 27  1  0  0  0  0
  9 28  1  0  0  0  0
 10 13  1  0  0  0  0
 10 29  1  0  0  0  0
 10 30  1  0  0  0  0
 12 31  1  0  0  0  0
 12 32  1  0  0  0  0
 12 33  1  0  0  0  0
 14 15  1  0  0  0  0
 15 17  2  0  0  0  0
 15 18  1  0  0  0  0
 16 19  2  0  0  0  0
 16 20  1  0  0  0  0
 17 21  1  0  0  0  0
 17 35  1  0  0  0  0
 18 22  2  0  0  0  0
 18 36  1  0  0  0  0
 19 23  1  0  0  0  0
 19 37  1  0  0  0  0
 20 24  2  0  0  0  0
 20 38  1  0  0  0  0
 21 25  2  0  0  0  0
 21 39  1  0  0  0  0
 22 25  1  0  0  0  0
 22 40  1  0  0  0  0
 23 26  2  0  0  0  0
 23 41  1  0  0  0  0
 24 26  1  0  0  0  0
 24 42  1  0  0  0  0
M  END
> <PUBCHEM_COMPOUND_CID>
17395802

> <PUBCHEM_CONFORMER_RMSD>
1

> <PUBCHEM_CONFORMER_DIVERSEORDER>
2
64
12
94
58
31
47
39
34
8
100
1
27
51
17
63
33
5
96
84
42
30
60
71
78
13
65
106
25
69
41
59
16
104
7
4
44
108
110
98
95
80
102
109
90
3
28
32
101
62
91
18
107
49
99
61
38
67
88
54
82
26
10
72
57
24
83
22
50
85
52
55
37
79
87
81
36
11
48
23
75
21
46
73
92
45
103
76
14
77
70
93
19
20
6
105
66
35
53
40
68
97
15
86
74
9
56
43
29
89

> <PUBCHEM_MMFF94_PARTIAL_CHARGES>
35
1 -0.18
10 0.33
11 0.3
12 0.27
13 0.57
14 0.43
15 0.05
16 0.12
17 -0.15
18 -0.15
19 -0.15
2 -0.19
20 -0.15
21 -0.15
22 -0.15
23 -0.15
24 -0.15
25 0.19
26 0.18
3 -0.28
34 0.37
35 0.15
36 0.15
37 0.15
38 0.15
39 0.15
4 -0.57
40 0.15
41 0.15
42 0.15
5 -0.81
6 -0.55
7 -0.34
8 -0.34
9 0.45

> <PUBCHEM_EFFECTIVE_ROTOR_COUNT>
7

> <PUBCHEM_PHARMACOPHORE_FEATURES>
6
1 4 acceptor
1 5 cation
1 6 donor
5 3 7 8 11 14 rings
6 15 17 18 21 22 25 rings
6 16 19 20 23 24 26 rings

> <PUBCHEM_HEAVY_ATOM_COUNT>
26

> <PUBCHEM_ATOM_DEF_STEREO_COUNT>
0

> <PUBCHEM_ATOM_UDEF_STEREO_COUNT>
0

> <PUBCHEM_BOND_DEF_STEREO_COUNT>
0

> <PUBCHEM_BOND_UDEF_STEREO_COUNT>
0

> <PUBCHEM_ISOTOPIC_ATOM_COUNT>
0

> <PUBCHEM_COMPONENT_COUNT>
1

> <PUBCHEM_CACTVS_TAUTO_COUNT>
2

> <PUBCHEM_CONFORMER_ID>
0109705A00000002

> <PUBCHEM_MMFF94_ENERGY>
58.5469

> <PUBCHEM_FEATURE_SELFOVERLAP>
30.446

> <PUBCHEM_SHAPE_FINGERPRINT>
1100329 8 17543339914009085201
11370993 70 18262798454279446200
11513181 2 18259983768979658223
11578080 2 16987733465826892183
12156800 1 15480098356301360146
12422481 6 18271260399220221402
12788726 201 17403168201705773431
13140716 1 18268992158145255939
13149001 5 17695930090550925349
13533116 47 18334858372569985769
14787075 74 17842256349392828814
14955137 171 17181902958995714865
15209289 33 18264488382097464261
15420108 30 18334579023348957023
16752209 62 18055088578762704612
17093844 170 18342167852577233316
20028762 73 17758389678498076943
20642791 35 18267581497379703435
20691752 17 17346309440867367203
20905425 154 18411129242929598647
22182313 1 17773886461946843165
22956985 138 17844535602526720498
23419403 2 18057615462958087463
23559900 14 18340477958607672893
23728640 28 17979354162296972010
3298306 158 18411418410219051628
3411729 13 18340763827784099217
350125 39 18341326811622297132
4340502 62 18408315593064620233
465052 167 17058640773539716025
5265222 85 18195797472207263340
5895379 119 16592505301293019721
6287921 2 18042979850511379166
81228 2 17549281241333159128

> <PUBCHEM_SHAPE_MULTIPOLES>
498
8.39
4.33
1.41
4.71
2.87
-0.11
-3.49
1.56
-4.82
-0.14
-0.35
-0.1
0.62

> <PUBCHEM_SHAPE_SELFOVERLAP>
1064.523

> <PUBCHEM_SHAPE_VOLUME>
278.4

> <PUBCHEM_COORDINATE_TYPE>
2
5
10

$$$$

