442671
  -OEChem-07051212592D

 66 71  0     1  0  0  0  0  0999 V2000
    6.7942   -2.1586    0.0000 O   0  0  0  0  0  0  0  0  0  0  0  0
    9.5801    0.6258    0.0000 O   0  0  0  0  0  0  0  0  0  0  0  0
    5.8505    0.3132    0.0000 O   0  0  0  0  0  0  0  0  0  0  0  0
   11.3503    2.6846    0.0000 O   0  0  0  0  0  0  0  0  0  0  0  0
    5.9693    1.3342    0.0000 O   0  0  0  0  0  0  0  0  0  0  0  0
    7.8201    3.6605    0.0000 O   0  0  0  0  0  0  0  0  0  0  0  0
    9.9024   -0.1970    0.0000 O   0  0  0  0  0  0  0  0  0  0  0  0
   10.1030   -3.3887    0.0000 O   0  0  0  0  0  0  0  0  0  0  0  0
    2.2120   -2.0872    0.0000 O   0  0  0  0  0  0  0  0  0  0  0  0
   13.9425   -0.8737    0.0000 O   0  0  0  0  0  0  0  0  0  0  0  0
    7.4782   -0.2793    0.0000 C   0  0  2  0  0  0  0  0  0  0  0  0
    6.4933   -0.4529    0.0000 C   0  0  1  0  0  0  0  0  0  0  0  0
    7.8201    0.6605    0.0000 C   0  0  0  0  0  0  0  0  0  0  0  0
    6.1513   -1.3926    0.0000 C   0  0  1  0  0  0  0  0  0  0  0  0
    8.1209   -1.0453    0.0000 C   0  0  0  0  0  0  0  0  0  0  0  0
    8.6862    1.1605    0.0000 C   0  0  0  0  0  0  0  0  0  0  0  0
    8.6862    2.1605    0.0000 C   0  0  0  0  0  0  0  0  0  0  0  0
   10.4862    2.1813    0.0000 C   0  0  2  0  0  0  0  0  0  0  0  0
   10.4862    1.1396    0.0000 C   0  0  1  0  0  0  0  0  0  0  0  0
    9.5801    2.6951    0.0000 C   0  0  0  0  0  0  0  0  0  0  0  0
    7.7789   -1.9850    0.0000 C   0  0  0  0  0  0  0  0  0  0  0  0
    6.9541    1.1605    0.0000 C   0  0  0  0  0  0  0  0  0  0  0  0
    5.1665   -1.5662    0.0000 C   0  0  0  0  0  0  0  0  0  0  0  0
    7.8201    2.6605    0.0000 C   0  0  0  0  0  0  0  0  0  0  0  0
    9.1438   -0.8486    0.0000 C   0  0  0  0  0  0  0  0  0  0  0  0
    6.9541    2.1605    0.0000 C   0  0  0  0  0  0  0  0  0  0  0  0
   11.3503    0.6363    0.0000 C   0  0  0  0  0  0  0  0  0  0  0  0
    8.4360   -2.7931    0.0000 C   0  0  0  0  0  0  0  0  0  0  0  0
    9.8195   -1.6414    0.0000 C   0  0  0  0  0  0  0  0  0  0  0  0
    9.4632   -2.6202    0.0000 C   0  0  0  0  0  0  0  0  0  0  0  0
    4.8245   -2.5059    0.0000 C   0  0  0  0  0  0  0  0  0  0  0  0
    4.5237   -0.8002    0.0000 C   0  0  0  0  0  0  0  0  0  0  0  0
   11.3464   -0.3637    0.0000 C   0  0  0  0  0  0  0  0  0  0  0  0
   12.2182    1.1330    0.0000 C   0  0  0  0  0  0  0  0  0  0  0  0
    3.8397   -2.6796    0.0000 C   0  0  0  0  0  0  0  0  0  0  0  0
    3.5389   -0.9738    0.0000 C   0  0  0  0  0  0  0  0  0  0  0  0
    3.1969   -1.9135    0.0000 C   0  0  0  0  0  0  0  0  0  0  0  0
   12.2105   -0.8670    0.0000 C   0  0  0  0  0  0  0  0  0  0  0  0
   13.0823    0.6296    0.0000 C   0  0  0  0  0  0  0  0  0  0  0  0
   13.0784   -0.3704    0.0000 C   0  0  0  0  0  0  0  0  0  0  0  0
    6.9318    0.3719    0.0000 H   0  0  0  0  0  0  0  0  0  0  0  0
    5.8827   -0.5606    0.0000 H   0  0  0  0  0  0  0  0  0  0  0  0
    5.9393   -1.9752    0.0000 H   0  0  0  0  0  0  0  0  0  0  0  0
   11.0237    1.8723    0.0000 H   0  0  0  0  0  0  0  0  0  0  0  0
   11.0237    1.4486    0.0000 H   0  0  0  0  0  0  0  0  0  0  0  0
    9.9737    3.1742    0.0000 H   0  0  0  0  0  0  0  0  0  0  0  0
    9.1755    3.1649    0.0000 H   0  0  0  0  0  0  0  0  0  0  0  0
    6.4172    2.4705    0.0000 H   0  0  0  0  0  0  0  0  0  0  0  0
    5.2399    0.2055    0.0000 H   0  0  0  0  0  0  0  0  0  0  0  0
    8.2173   -3.3732    0.0000 H   0  0  0  0  0  0  0  0  0  0  0  0
   10.4296   -1.5313    0.0000 H   0  0  0  0  0  0  0  0  0  0  0  0
    5.2230   -2.9809    0.0000 H   0  0  0  0  0  0  0  0  0  0  0  0
    4.7357   -0.2176    0.0000 H   0  0  0  0  0  0  0  0  0  0  0  0
   11.3479    3.3046    0.0000 H   0  0  0  0  0  0  0  0  0  0  0  0
   10.8083   -0.6716    0.0000 H   0  0  0  0  0  0  0  0  0  0  0  0
   12.2206    1.7530    0.0000 H   0  0  0  0  0  0  0  0  0  0  0  0
    5.7573    1.9168    0.0000 H   0  0  0  0  0  0  0  0  0  0  0  0
    7.2832    3.9705    0.0000 H   0  0  0  0  0  0  0  0  0  0  0  0
   10.4874   -0.4023    0.0000 H   0  0  0  0  0  0  0  0  0  0  0  0
    3.6276   -3.2622    0.0000 H   0  0  0  0  0  0  0  0  0  0  0  0
    3.1403   -0.4989    0.0000 H   0  0  0  0  0  0  0  0  0  0  0  0
   12.2081   -1.4870    0.0000 H   0  0  0  0  0  0  0  0  0  0  0  0
   13.6204    0.9376    0.0000 H   0  0  0  0  0  0  0  0  0  0  0  0
    9.8887   -3.9705    0.0000 H   0  0  0  0  0  0  0  0  0  0  0  0
    2.0000   -2.6698    0.0000 H   0  0  0  0  0  0  0  0  0  0  0  0
   14.4807   -0.5658    0.0000 H   0  0  0  0  0  0  0  0  0  0  0  0
  1 14  1  0  0  0  0
  1 21  1  0  0  0  0
  2 16  1  0  0  0  0
  2 19  1  0  0  0  0
 12  3  1  1  0  0  0
  3 49  1  0  0  0  0
 18  4  1  6  0  0  0
  4 54  1  0  0  0  0
  5 22  1  0  0  0  0
  5 57  1  0  0  0  0
  6 24  1  0  0  0  0
  6 58  1  0  0  0  0
  7 25  1  0  0  0  0
  7 59  1  0  0  0  0
  8 30  1  0  0  0  0
  8 64  1  0  0  0  0
  9 37  1  0  0  0  0
  9 65  1  0  0  0  0
 10 40  1  0  0  0  0
 10 66  1  0  0  0  0
 11 12  1  0  0  0  0
 11 13  1  0  0  0  0
 11 15  1  0  0  0  0
 11 41  1  1  0  0  0
 12 14  1  0  0  0  0
 12 42  1  0  0  0  0
 13 16  1  0  0  0  0
 13 22  2  0  0  0  0
 14 23  1  6  0  0  0
 14 43  1  0  0  0  0
 15 21  1  0  0  0  0
 15 25  2  0  0  0  0
 16 17  2  0  0  0  0
 17 20  1  0  0  0  0
 17 24  1  0  0  0  0
 18 19  1  0  0  0  0
 18 20  1  0  0  0  0
 18 44  1  0  0  0  0
 19 27  1  1  0  0  0
 19 45  1  0  0  0  0
 20 46  1  0  0  0  0
 20 47  1  0  0  0  0
 21 28  2  0  0  0  0
 22 26  1  0  0  0  0
 23 31  2  0  0  0  0
 23 32  1  0  0  0  0
 24 26  2  0  0  0  0
 25 29  1  0  0  0  0
 26 48  1  0  0  0  0
 27 33  2  0  0  0  0
 27 34  1  0  0  0  0
 28 30  1  0  0  0  0
 28 50  1  0  0  0  0
 29 30  2  0  0  0  0
 29 51  1  0  0  0  0
 31 35  1  0  0  0  0
 31 52  1  0  0  0  0
 32 36  2  0  0  0  0
 32 53  1  0  0  0  0
 33 38  1  0  0  0  0
 33 55  1  0  0  0  0
 34 39  2  0  0  0  0
 34 56  1  0  0  0  0
 35 37  2  0  0  0  0
 35 60  1  0  0  0  0
 36 37  1  0  0  0  0
 36 61  1  0  0  0  0
 38 40  2  0  0  0  0
 38 62  1  0  0  0  0
 39 40  1  0  0  0  0
 39 63  1  0  0  0  0
M  END
> <PUBCHEM_COMPOUND_CID>
442671

> <PUBCHEM_COMPOUND_CANONICALIZED>
1

> <PUBCHEM_CACTVS_COMPLEXITY>
844

> <PUBCHEM_CACTVS_HBOND_ACCEPTOR>
10

> <PUBCHEM_CACTVS_HBOND_DONOR>
8

> <PUBCHEM_CACTVS_ROTATABLE_BOND>
3

> <PUBCHEM_CACTVS_SUBSKEYS>
AAADceB4PAAAAAAAAAAAAAAAAAAAAAAAAAA0aMGCAAAAAACRVAAAGgAACAAADRSgmAIwBoAABgCAAiBCAAACCAAgIAAIiAAGCIgNNyKGMRqCeCClwBULuAfA4PwOoAACCAAIAABAAAQQABAAAAAAAAAAAA==

> <PUBCHEM_IUPAC_OPENEYE_NAME>
(2R,3S)-2-(4-hydroxyphenyl)-8-[(2R,3S,4S)-3,5,7-trihydroxy-2-(4-hydroxyphenyl)chroman-4-yl]chromane-3,5,7-triol

> <PUBCHEM_IUPAC_CAS_NAME>
(2R,3S)-2-(4-hydroxyphenyl)-8-[(2R,3S,4S)-3,5,7-trihydroxy-2-(4-hydroxyphenyl)-3,4-dihydro-2H-1-benzopyran-4-yl]-3,4-dihydro-2H-1-benzopyran-3,5,7-triol

> <PUBCHEM_IUPAC_NAME>
(2R,3S)-2-(4-hydroxyphenyl)-8-[(2R,3S,4S)-3,5,7-trihydroxy-2-(4-hydroxyphenyl)-3,4-dihydro-2H-chromen-4-yl]-3,4-dihydro-2H-chromene-3,5,7-triol

> <PUBCHEM_IUPAC_SYSTEMATIC_NAME>
(2R,3S)-2-(4-hydroxyphenyl)-8-[(2R,3S,4S)-2-(4-hydroxyphenyl)-3,5,7-tris(oxidanyl)-3,4-dihydro-2H-chromen-4-yl]-3,4-dihydro-2H-chromene-3,5,7-triol

> <PUBCHEM_IUPAC_TRADITIONAL_NAME>
(2R,3S)-2-(4-hydroxyphenyl)-8-[(2R,3S,4S)-3,5,7-trihydroxy-2-(4-hydroxyphenyl)chroman-4-yl]chroman-3,5,7-triol

> <PUBCHEM_IUPAC_INCHI>
InChI=1S/C30H26O10/c31-15-5-1-13(2-6-15)28-22(37)11-18-19(34)12-21(36)25(30(18)40-28)26-24-20(35)9-17(33)10-23(24)39-29(27(26)38)14-3-7-16(32)8-4-14/h1-10,12,22,26-29,31-38H,11H2/t22-,26-,27-,28+,29+/m0/s1

> <PUBCHEM_IUPAC_INCHIKEY>
JESPWQGCCOLVKQ-AVFWISQGSA-N

> <PUBCHEM_XLOGP3_AA>
3.1

> <PUBCHEM_EXACT_MASS>
546.152597

> <PUBCHEM_MOLECULAR_FORMULA>
C30H26O10

> <PUBCHEM_MOLECULAR_WEIGHT>
546.52144

> <PUBCHEM_OPENEYE_CAN_SMILES>
C1C(C(OC2=C1C(=CC(=C2C3C(C(OC4=CC(=CC(=C34)O)O)C5=CC=C(C=C5)O)O)O)O)C6=CC=C(C=C6)O)O

> <PUBCHEM_OPENEYE_ISO_SMILES>
C1[C@@H]([C@H](OC2=C1C(=CC(=C2[C@H]3[C@@H]([C@H](OC4=CC(=CC(=C34)O)O)C5=CC=C(C=C5)O)O)O)O)C6=CC=C(C=C6)O)O

> <PUBCHEM_CACTVS_TPSA>
180

> <PUBCHEM_MONOISOTOPIC_WEIGHT>
546.152597

> <PUBCHEM_TOTAL_CHARGE>
0

> <PUBCHEM_HEAVY_ATOM_COUNT>
40

> <PUBCHEM_ATOM_DEF_STEREO_COUNT>
5

> <PUBCHEM_ATOM_UDEF_STEREO_COUNT>
0

> <PUBCHEM_BOND_DEF_STEREO_COUNT>
0

> <PUBCHEM_BOND_UDEF_STEREO_COUNT>
0

> <PUBCHEM_ISOTOPIC_ATOM_COUNT>
0

> <PUBCHEM_COMPONENT_COUNT>
1

> <PUBCHEM_CACTVS_TAUTO_COUNT>
324

> <PUBCHEM_COORDINATE_TYPE>
1
5
255

> <PUBCHEM_BONDANNOTATIONS>
11  41  5
13  16  8
13  22  8
14  23  6
15  21  8
15  25  8
16  17  8
17  24  8
19  27  5
21  28  8
22  26  8
23  31  8
23  32  8
24  26  8
25  29  8
27  33  8
27  34  8
28  30  8
29  30  8
12  3  5
31  35  8
32  36  8
33  38  8
34  39  8
35  37  8
36  37  8
38  40  8
39  40  8
18  4  6

$$$$

