582942
  -OEChem-06241222443D

 43 44  0     0  0  0  0  0  0999 V2000
   -1.1345    2.0476   -1.2394 O   0  5  0  0  0  0  0  0  0  0  0  0
    1.8523    1.0344    2.4404 O   0  0  0  0  0  0  0  0  0  0  0  0
   -2.7747   -2.3287   -0.0690 O   0  0  0  0  0  0  0  0  0  0  0  0
   -0.5615    0.9919   -0.8177 N   0  3  0  0  0  0  0  0  0  0  0  0
    1.0623    1.2215    1.3028 N   0  0  0  0  0  0  0  0  0  0  0  0
    0.8786    0.8405   -1.1056 C   0  0  0  0  0  0  0  0  0  0  0  0
    1.6004    0.6887    0.2439 C   0  0  0  0  0  0  0  0  0  0  0  0
    1.3024    2.1292   -1.8036 C   0  0  0  0  0  0  0  0  0  0  0  0
    0.9629   -0.3658   -2.0355 C   0  0  0  0  0  0  0  0  0  0  0  0
    2.8993   -0.0211    0.2574 C   0  0  0  0  0  0  0  0  0  0  0  0
   -1.2009    0.0368   -0.1816 C   0  0  0  0  0  0  0  0  0  0  0  0
   -2.6261    0.0528    0.1748 C   0  0  0  0  0  0  0  0  0  0  0  0
    4.0622    0.7028    0.0743 C   0  0  0  0  0  0  0  0  0  0  0  0
    2.9145   -1.3892    0.4524 C   0  0  0  0  0  0  0  0  0  0  0  0
   -3.3538   -1.1286    0.2168 C   0  0  0  0  0  0  0  0  0  0  0  0
   -3.2254    1.2709    0.4672 C   0  0  0  0  0  0  0  0  0  0  0  0
    5.2861    0.0338    0.0868 C   0  0  0  0  0  0  0  0  0  0  0  0
    4.1384   -2.0583    0.4650 C   0  0  0  0  0  0  0  0  0  0  0  0
    5.3241   -1.3468    0.2821 C   0  0  0  0  0  0  0  0  0  0  0  0
   -4.7060   -1.0918    0.5575 C   0  0  0  0  0  0  0  0  0  0  0  0
   -4.5776    1.3077    0.8078 C   0  0  0  0  0  0  0  0  0  0  0  0
   -5.3179    0.1264    0.8530 C   0  0  0  0  0  0  0  0  0  0  0  0
   -2.8049   -2.7546   -1.4296 C   0  0  0  0  0  0  0  0  0  0  0  0
    2.3659    2.0845   -2.0668 H   0  0  0  0  0  0  0  0  0  0  0  0
    0.7612    2.3026   -2.7417 H   0  0  0  0  0  0  0  0  0  0  0  0
    1.1832    3.0106   -1.1614 H   0  0  0  0  0  0  0  0  0  0  0  0
    0.7361   -1.3148   -1.5392 H   0  0  0  0  0  0  0  0  0  0  0  0
    1.9725   -0.4636   -2.4517 H   0  0  0  0  0  0  0  0  0  0  0  0
    0.2753   -0.2688   -2.8847 H   0  0  0  0  0  0  0  0  0  0  0  0
   -0.6268   -0.8610    0.1002 H   0  0  0  0  0  0  0  0  0  0  0  0
    4.0409    1.7784   -0.0748 H   0  0  0  0  0  0  0  0  0  0  0  0
    1.9959   -1.9493    0.6009 H   0  0  0  0  0  0  0  0  0  0  0  0
   -2.6781    2.2067    0.5017 H   0  0  0  0  0  0  0  0  0  0  0  0
    6.2094    0.5879   -0.0547 H   0  0  0  0  0  0  0  0  0  0  0  0
    4.1681   -3.1331    0.6184 H   0  0  0  0  0  0  0  0  0  0  0  0
    6.2770   -1.8677    0.2923 H   0  0  0  0  0  0  0  0  0  0  0  0
   -5.2888   -2.0082    0.5961 H   0  0  0  0  0  0  0  0  0  0  0  0
   -5.0515    2.2543    1.0510 H   0  0  0  0  0  0  0  0  0  0  0  0
   -6.3699    0.1547    1.1214 H   0  0  0  0  0  0  0  0  0  0  0  0
    1.3206    1.4787    3.1221 H   0  0  0  0  0  0  0  0  0  0  0  0
   -2.2920   -2.0334   -2.0738 H   0  0  0  0  0  0  0  0  0  0  0  0
   -3.8379   -2.8896   -1.7654 H   0  0  0  0  0  0  0  0  0  0  0  0
   -2.2864   -3.7147   -1.4993 H   0  0  0  0  0  0  0  0  0  0  0  0
  1  4  1  0  0  0  0
  2  5  1  0  0  0  0
  2 40  1  0  0  0  0
  3 15  1  0  0  0  0
  3 23  1  0  0  0  0
  4  6  1  0  0  0  0
  4 11  2  0  0  0  0
  5  7  2  0  0  0  0
  6  7  1  0  0  0  0
  6  8  1  0  0  0  0
  6  9  1  0  0  0  0
  7 10  1  0  0  0  0
  8 24  1  0  0  0  0
  8 25  1  0  0  0  0
  8 26  1  0  0  0  0
  9 27  1  0  0  0  0
  9 28  1  0  0  0  0
  9 29  1  0  0  0  0
 10 13  2  0  0  0  0
 10 14  1  0  0  0  0
 11 12  1  0  0  0  0
 11 30  1  0  0  0  0
 12 15  1  0  0  0  0
 12 16  2  0  0  0  0
 13 17  1  0  0  0  0
 13 31  1  0  0  0  0
 14 18  2  0  0  0  0
 14 32  1  0  0  0  0
 15 20  2  0  0  0  0
 16 21  1  0  0  0  0
 16 33  1  0  0  0  0
 17 19  2  0  0  0  0
 17 34  1  0  0  0  0
 18 19  1  0  0  0  0
 18 35  1  0  0  0  0
 19 36  1  0  0  0  0
 20 22  1  0  0  0  0
 20 37  1  0  0  0  0
 21 22  2  0  0  0  0
 21 38  1  0  0  0  0
 22 39  1  0  0  0  0
 23 41  1  0  0  0  0
 23 42  1  0  0  0  0
 23 43  1  0  0  0  0
M  CHG  2   1  -1   4   1
M  END
> <PUBCHEM_COMPOUND_CID>
582942

> <PUBCHEM_CONFORMER_RMSD>
0.8

> <PUBCHEM_CONFORMER_DIVERSEORDER>
1
31
60
69
68
23
37
50
38
71
59
57
16
52
26
61
44
39
29
67
15
64
58
19
66
55
27
33
43
6
41
9
62
70
42
34
46
72
28
32
18
20
25
17
54
65
5
48
56
13
45
49
40
11
47
51
10
14
35
12
2
63
3
36
30
22
7
53
21
24
8
4

> <PUBCHEM_MMFF94_PARTIAL_CHARGES>
32
1 -0.63
10 0.09
11 -0.14
12 0.09
13 -0.15
14 -0.15
15 0.08
16 -0.15
17 -0.15
18 -0.15
19 -0.15
2 -0.34
20 -0.15
21 -0.15
22 -0.15
23 0.28
3 -0.36
30 0.06
31 0.15
32 0.15
33 0.15
34 0.15
35 0.15
36 0.15
37 0.15
38 0.15
39 0.15
4 0.53
40 0.4
5 -0.51
6 0.16
7 0.3

> <PUBCHEM_EFFECTIVE_ROTOR_COUNT>
5

> <PUBCHEM_PHARMACOPHORE_FEATURES>
7
1 1 anion
1 2 anion
1 3 acceptor
1 5 acceptor
3 6 8 9 hydrophobe
6 10 13 14 17 18 19 rings
6 12 15 16 20 21 22 rings

> <PUBCHEM_HEAVY_ATOM_COUNT>
23

> <PUBCHEM_ATOM_DEF_STEREO_COUNT>
0

> <PUBCHEM_ATOM_UDEF_STEREO_COUNT>
0

> <PUBCHEM_BOND_DEF_STEREO_COUNT>
0

> <PUBCHEM_BOND_UDEF_STEREO_COUNT>
2

> <PUBCHEM_ISOTOPIC_ATOM_COUNT>
0

> <PUBCHEM_COMPONENT_COUNT>
1

> <PUBCHEM_CACTVS_TAUTO_COUNT>
2

> <PUBCHEM_CONFORMER_ID>
0008E51E00000001

> <PUBCHEM_MMFF94_ENERGY>
98.6525

> <PUBCHEM_FEATURE_SELFOVERLAP>
35.52

> <PUBCHEM_SHAPE_FINGERPRINT>
10366900 7 17458348545982137569
11045977 3 17894634738171239858
11552529 35 18114472149601595695
12107183 9 17761488488426292440
12236239 1 18202276988333535417
12403259 327 17749108881109045051
12507557 5 15574716876605529377
12553582 1 17632307769179687459
12596602 18 17385447587992559842
12633257 1 17603580807817644467
12670546 177 11239997858394515299
13149001 5 15625355958391268936
13167823 11 18411136926557441418
13544653 18 17703789240937120188
13551218 46 18341609373590165939
13583140 156 17458355095490571051
14251764 38 9295281777061076058
14341114 176 18259980466191336064
14787075 74 17346590860184057236
15238133 3 17676755565466905041
15537594 2 18201999958347744106
17349148 13 18114467782183988197
17492 89 17984694529139250155
17804303 29 18334856125726700177
1813 80 17203323433742171086
19141452 34 18411418427462139767
19784866 140 16558753455109894112
20645477 70 17274540906491521789
21033648 29 18263099849668338953
221357 26 11383828255784520735
22950370 63 18202559601107093370
23402539 116 17346604101456927968
23503958 8 18337673010145677387
235170 7 13470408915287142906
23559900 14 18262245421716825793
2838139 119 8718532905592940866
351380 3 17846780723755547450
3633792 109 18201452333375244207
3737641 26 17987519389043145690
4325135 7 18060695096812854630
5924683 9 17895202043659907967
7970288 3 17703791422644143331
83771 10 18202284727542771396

> <PUBCHEM_SHAPE_MULTIPOLES>
445.76
11.31
2.31
1.54
0.19
0.87
0.24
3.73
-3.69
-0.71
0.71
0.22
-0.43
-0.96

> <PUBCHEM_SHAPE_SELFOVERLAP>
949.599

> <PUBCHEM_SHAPE_VOLUME>
249.6

> <PUBCHEM_COORDINATE_TYPE>
2
5
10

$$$$

