604248
  -OEChem-07051213153D

 24 25  0     0  0  0  0  0  0999 V2000
    2.9962    2.3870    0.0020 O   0  0  0  0  0  0  0  0  0  0  0  0
    2.9980   -2.3859   -0.0006 O   0  0  0  0  0  0  0  0  0  0  0  0
    0.2238   -0.0006   -0.0002 C   0  0  0  0  0  0  0  0  0  0  0  0
   -1.2229   -0.0014   -0.0004 C   0  0  0  0  0  0  0  0  0  0  0  0
    0.9220   -1.2083   -0.0010 C   0  0  0  0  0  0  0  0  0  0  0  0
    0.9208    1.2078    0.0002 C   0  0  0  0  0  0  0  0  0  0  0  0
   -1.9207    0.0011   -1.2082 C   0  0  0  0  0  0  0  0  0  0  0  0
   -1.9200   -0.0026    1.2078 C   0  0  0  0  0  0  0  0  0  0  0  0
    2.3157    1.2085    0.0003 C   0  0  0  0  0  0  0  0  0  0  0  0
    2.3168   -1.2076   -0.0009 C   0  0  0  0  0  0  0  0  0  0  0  0
    3.0136    0.0007   -0.0002 C   0  0  0  0  0  0  0  0  0  0  0  0
   -3.3156    0.0022   -1.2077 C   0  0  0  0  0  0  0  0  0  0  0  0
   -3.3149   -0.0017    1.2083 C   0  0  0  0  0  0  0  0  0  0  0  0
   -4.0127    0.0007    0.0006 C   0  0  0  0  0  0  0  0  0  0  0  0
    0.3884   -2.1565   -0.0015 H   0  0  0  0  0  0  0  0  0  0  0  0
    0.3798    2.1520    0.0009 H   0  0  0  0  0  0  0  0  0  0  0  0
   -1.3929    0.0025   -2.1591 H   0  0  0  0  0  0  0  0  0  0  0  0
   -1.3917   -0.0041    2.1583 H   0  0  0  0  0  0  0  0  0  0  0  0
    4.1008    0.0085    0.0002 H   0  0  0  0  0  0  0  0  0  0  0  0
   -3.8592    0.0043   -2.1480 H   0  0  0  0  0  0  0  0  0  0  0  0
   -3.8577   -0.0026    2.1490 H   0  0  0  0  0  0  0  0  0  0  0  0
   -5.0988    0.0016    0.0010 H   0  0  0  0  0  0  0  0  0  0  0  0
    2.3574    3.1204    0.0024 H   0  0  0  0  0  0  0  0  0  0  0  0
    3.9523   -2.1984   -0.0004 H   0  0  0  0  0  0  0  0  0  0  0  0
  1  9  1  0  0  0  0
  1 23  1  0  0  0  0
  2 10  1  0  0  0  0
  2 24  1  0  0  0  0
  3  4  1  0  0  0  0
  3  5  2  0  0  0  0
  3  6  1  0  0  0  0
  4  7  2  0  0  0  0
  4  8  1  0  0  0  0
  5 10  1  0  0  0  0
  5 15  1  0  0  0  0
  6  9  2  0  0  0  0
  6 16  1  0  0  0  0
  7 12  1  0  0  0  0
  7 17  1  0  0  0  0
  8 13  2  0  0  0  0
  8 18  1  0  0  0  0
  9 11  1  0  0  0  0
 10 11  2  0  0  0  0
 11 19  1  0  0  0  0
 12 14  2  0  0  0  0
 12 20  1  0  0  0  0
 13 14  1  0  0  0  0
 13 21  1  0  0  0  0
 14 22  1  0  0  0  0
M  END
> <PUBCHEM_COMPOUND_CID>
604248

> <PUBCHEM_CONFORMER_RMSD>
0.4

> <PUBCHEM_CONFORMER_DIVERSEORDER>
1
2

> <PUBCHEM_MMFF94_PARTIAL_CHARGES>
22
1 -0.53
10 0.08
11 -0.15
12 -0.15
13 -0.15
14 -0.15
15 0.15
16 0.15
17 0.15
18 0.15
19 0.15
2 -0.53
20 0.15
21 0.15
22 0.15
23 0.45
24 0.45
5 -0.15
6 -0.15
7 -0.15
8 -0.15
9 0.08

> <PUBCHEM_EFFECTIVE_ROTOR_COUNT>
1

> <PUBCHEM_PHARMACOPHORE_FEATURES>
4
1 1 donor
1 2 donor
6 3 5 6 9 10 11 rings
6 4 7 8 12 13 14 rings

> <PUBCHEM_HEAVY_ATOM_COUNT>
14

> <PUBCHEM_ATOM_DEF_STEREO_COUNT>
0

> <PUBCHEM_ATOM_UDEF_STEREO_COUNT>
0

> <PUBCHEM_BOND_DEF_STEREO_COUNT>
0

> <PUBCHEM_BOND_UDEF_STEREO_COUNT>
0

> <PUBCHEM_ISOTOPIC_ATOM_COUNT>
0

> <PUBCHEM_COMPONENT_COUNT>
1

> <PUBCHEM_CACTVS_TAUTO_COUNT>
5

> <PUBCHEM_CONFORMER_ID>
0009385800000001

> <PUBCHEM_MMFF94_ENERGY>
42.3731

> <PUBCHEM_FEATURE_SELFOVERLAP>
20.297

> <PUBCHEM_SHAPE_FINGERPRINT>
10608611 8 18130794464267118493
107287 299 18201711821749578492
10980938 120 18408604734278061024
11031198 65 18341890745197186452
11471102 20 18411700989213094012
12236239 1 17676487250469864203
12932764 1 18411416211248251439
13296908 3 17632293484413944259
13380535 21 18268702827399274974
13538477 17 17386013836295897055
13581323 91 15051740767776084713
14144814 61 17530683208275706873
15219456 202 18060138726005596853
15279307 12 18041564632980549166
15669948 3 16733270054000125741
15775835 57 18113897109283600517
16945 1 18410575089390582374
17844478 74 17989483035184323493
1813 80 17897712400552181414
18175812 5 17846215540403138839
18186145 218 18335136492433062983
19026448 4 18131633387676031109
19026448 5 18113337514189838469
19049666 15 17702675499945600805
19422 9 17967814946703645991
200 152 18260839210895626639
20201158 50 18202564003174486243
20279233 1 17775569727906256899
204376 136 18195529177973409352
20559304 39 17313103076858380138
20645464 45 17489594424549672209
20645476 183 17749675082542607455
20645477 70 18339651121763679887
20715346 28 17846777390844821771
20871998 22 17972876136381829078
21499 59 18193558870084072004
21639500 275 18336837385329189052
21730867 7 18343581832735242422
22096605 113 18339370655908857845
2255824 54 18335136505740308806
22802520 49 18058739142082241501
22854114 111 18408603630387147904
22943178 12 17989487420393333987
23048698 100 18187080650747038617
23557571 272 17203607073493220477
23559900 14 16845577551747907770
3248919 1 17458062677158879215
474 4 17898300402649160488
581208 293 18409453557280934960
6049 1 17846213392903692717
7364860 26 18334295366618010882
7615 1 17821732757974111961
77492 1 17748545944040518917
8030462 33 17749109954719039145
81228 2 17402336365841490816
88987 49 15719395044493952909

> <PUBCHEM_SHAPE_MULTIPOLES>
276.37
6.64
1.64
1.04
2.37
0
0
0
0
-2.61
0
1.12
0
0

> <PUBCHEM_SHAPE_SELFOVERLAP>
603.719

> <PUBCHEM_SHAPE_VOLUME>
150.9

> <PUBCHEM_COORDINATE_TYPE>
2
5
10

$$$$

