51090871
  -OEChem-06241223003D

 48 50  0     0  0  0  0  0  0999 V2000
   -3.3818   -0.4670    0.4200 O   0  0  0  0  0  0  0  0  0  0  0  0
   -1.5964   -2.3363    0.0588 O   0  0  0  0  0  0  0  0  0  0  0  0
    0.2116   -0.8358    0.1652 N   0  0  0  0  0  0  0  0  0  0  0  0
    3.7690    2.0406    0.6682 N   0  0  0  0  0  0  0  0  0  0  0  0
    1.9768    1.1900   -0.2482 N   0  0  0  0  0  0  0  0  0  0  0  0
    3.9932    0.7190    0.7241 N   0  0  0  0  0  0  0  0  0  0  0  0
   -4.2872    0.6113    0.6205 C   0  0  0  0  0  0  0  0  0  0  0  0
   -4.6502    1.2527   -0.7101 C   0  0  0  0  0  0  0  0  0  0  0  0
   -5.6192    0.0679    1.1140 C   0  0  0  0  0  0  0  0  0  0  0  0
   -5.6720    0.2968   -1.3204 C   0  0  0  0  0  0  0  0  0  0  0  0
   -6.3160   -0.4418   -0.1468 C   0  0  0  0  0  0  0  0  0  0  0  0
   -2.0334   -0.0195    0.4084 C   0  0  0  0  0  0  0  0  0  0  0  0
   -1.1256   -1.2107    0.1918 C   0  0  0  0  0  0  0  0  0  0  0  0
    2.0769    3.6866   -0.0979 C   0  0  0  0  0  0  0  0  0  0  0  0
    1.3376   -1.6734   -0.0155 C   0  0  0  0  0  0  0  0  0  0  0  0
    2.6334   -1.1576   -0.0213 C   0  0  0  0  0  0  0  0  0  0  0  0
    2.5688    2.3122    0.0888 C   0  0  0  0  0  0  0  0  0  0  0  0
    2.8798    0.2493    0.1574 C   0  0  0  0  0  0  0  0  0  0  0  0
    0.7662    3.9739    0.6741 C   0  0  0  0  0  0  0  0  0  0  0  0
    1.8796    4.0657   -1.5859 C   0  0  0  0  0  0  0  0  0  0  0  0
    1.1308   -3.0416   -0.1912 C   0  0  0  0  0  0  0  0  0  0  0  0
    3.7226   -2.0099   -0.2028 C   0  0  0  0  0  0  0  0  0  0  0  0
    2.2199   -3.8941   -0.3727 C   0  0  0  0  0  0  0  0  0  0  0  0
    3.5158   -3.3782   -0.3785 C   0  0  0  0  0  0  0  0  0  0  0  0
   -3.8782    1.3329    1.3371 H   0  0  0  0  0  0  0  0  0  0  0  0
   -5.1230    2.2271   -0.5379 H   0  0  0  0  0  0  0  0  0  0  0  0
   -3.8009    1.3973   -1.3832 H   0  0  0  0  0  0  0  0  0  0  0  0
   -5.5074   -0.7304    1.8542 H   0  0  0  0  0  0  0  0  0  0  0  0
   -6.2148    0.8749    1.5569 H   0  0  0  0  0  0  0  0  0  0  0  0
   -6.4130    0.8337   -1.9212 H   0  0  0  0  0  0  0  0  0  0  0  0
   -5.1732   -0.4223   -1.9808 H   0  0  0  0  0  0  0  0  0  0  0  0
   -6.1650   -1.5217   -0.2589 H   0  0  0  0  0  0  0  0  0  0  0  0
   -7.3956   -0.2662   -0.0996 H   0  0  0  0  0  0  0  0  0  0  0  0
   -1.8685    0.6995   -0.4008 H   0  0  0  0  0  0  0  0  0  0  0  0
   -1.7811    0.4385    1.3717 H   0  0  0  0  0  0  0  0  0  0  0  0
    2.8278    4.3833    0.3004 H   0  0  0  0  0  0  0  0  0  0  0  0
    0.4061    0.1526    0.2976 H   0  0  0  0  0  0  0  0  0  0  0  0
    0.4671    5.0209    0.5587 H   0  0  0  0  0  0  0  0  0  0  0  0
   -0.0510    3.3399    0.3119 H   0  0  0  0  0  0  0  0  0  0  0  0
    0.8968    3.7720    1.7430 H   0  0  0  0  0  0  0  0  0  0  0  0
    1.1127    3.4382   -2.0535 H   0  0  0  0  0  0  0  0  0  0  0  0
    2.8115    3.9279   -2.1452 H   0  0  0  0  0  0  0  0  0  0  0  0
    1.5746    5.1127   -1.6841 H   0  0  0  0  0  0  0  0  0  0  0  0
    4.4662    2.6765    1.0372 H   0  0  0  0  0  0  0  0  0  0  0  0
    0.1653   -3.5250   -0.2000 H   0  0  0  0  0  0  0  0  0  0  0  0
    4.7444   -1.6384   -0.2207 H   0  0  0  0  0  0  0  0  0  0  0  0
    2.0605   -4.9598   -0.5100 H   0  0  0  0  0  0  0  0  0  0  0  0
    4.3635   -4.0419   -0.5218 H   0  0  0  0  0  0  0  0  0  0  0  0
  1  7  1  0  0  0  0
  1 12  1  0  0  0  0
  2 13  2  0  0  0  0
  3 13  1  0  0  0  0
  3 15  1  0  0  0  0
  3 37  1  0  0  0  0
  4  6  1  0  0  0  0
  4 17  1  0  0  0  0
  4 44  1  0  0  0  0
  5 17  2  0  0  0  0
  5 18  1  0  0  0  0
  6 18  2  0  0  0  0
  7  8  1  0  0  0  0
  7  9  1  0  0  0  0
  7 25  1  0  0  0  0
  8 10  1  0  0  0  0
  8 26  1  0  0  0  0
  8 27  1  0  0  0  0
  9 11  1  0  0  0  0
  9 28  1  0  0  0  0
  9 29  1  0  0  0  0
 10 11  1  0  0  0  0
 10 30  1  0  0  0  0
 10 31  1  0  0  0  0
 11 32  1  0  0  0  0
 11 33  1  0  0  0  0
 12 13  1  0  0  0  0
 12 34  1  0  0  0  0
 12 35  1  0  0  0  0
 14 17  1  0  0  0  0
 14 19  1  0  0  0  0
 14 20  1  0  0  0  0
 14 36  1  0  0  0  0
 15 16  1  0  0  0  0
 15 21  2  0  0  0  0
 16 18  1  0  0  0  0
 16 22  2  0  0  0  0
 19 38  1  0  0  0  0
 19 39  1  0  0  0  0
 19 40  1  0  0  0  0
 20 41  1  0  0  0  0
 20 42  1  0  0  0  0
 20 43  1  0  0  0  0
 21 23  1  0  0  0  0
 21 45  1  0  0  0  0
 22 24  1  0  0  0  0
 22 46  1  0  0  0  0
 23 24  2  0  0  0  0
 23 47  1  0  0  0  0
 24 48  1  0  0  0  0
M  END
> <PUBCHEM_COMPOUND_CID>
51090871

> <PUBCHEM_CONFORMER_RMSD>
0.8

> <PUBCHEM_CONFORMER_DIVERSEORDER>
1
99
25
102
74
27
90
30
75
66
85
33
37
81
67
52
91
35
28
2
105
39
98
95
43
41
93
56
64
55
92
17
15
40
79
61
60
84
51
103
86
94
24
4
104
31
5
42
58
76
38
20
21
73
71
23
57
7
59
101
82
46
36
62
12
89
70
80
83
87
68
8
49
26
54
3
65
29
97
63
69
11
10
50
18
13
48
47
22
34
44
78
19
16
9
45
14
53
100
96
72
6
77
32
88

> <PUBCHEM_MMFF94_PARTIAL_CHARGES>
24
1 -0.56
12 0.34
13 0.57
14 0.18
15 0.12
16 0.05
17 0.01
18 0.46
2 -0.57
21 -0.15
22 -0.15
23 -0.15
24 -0.15
3 -0.55
37 0.37
4 0.3
44 0.27
45 0.15
46 0.15
47 0.15
48 0.15
5 -0.57
6 -0.71
7 0.28

> <PUBCHEM_EFFECTIVE_ROTOR_COUNT>
8

> <PUBCHEM_PHARMACOPHORE_FEATURES>
10
1 1 acceptor
1 2 acceptor
1 3 donor
1 4 donor
3 14 19 20 hydrophobe
3 4 5 17 cation
3 5 6 18 cation
5 4 5 6 17 18 rings
5 7 8 9 10 11 rings
6 15 16 21 22 23 24 rings

> <PUBCHEM_HEAVY_ATOM_COUNT>
24

> <PUBCHEM_ATOM_DEF_STEREO_COUNT>
0

> <PUBCHEM_ATOM_UDEF_STEREO_COUNT>
0

> <PUBCHEM_BOND_DEF_STEREO_COUNT>
0

> <PUBCHEM_BOND_UDEF_STEREO_COUNT>
0

> <PUBCHEM_ISOTOPIC_ATOM_COUNT>
0

> <PUBCHEM_COMPONENT_COUNT>
1

> <PUBCHEM_CACTVS_TAUTO_COUNT>
77

> <PUBCHEM_CONFORMER_ID>
030B95B700000001

> <PUBCHEM_MMFF94_ENERGY>
52.6849

> <PUBCHEM_FEATURE_SELFOVERLAP>
53.503

> <PUBCHEM_SHAPE_FINGERPRINT>
10411042 1 18049439545981642370
10763959 59 18343303708318670517
10937287 8 17906168456212221028
12166972 35 18187082901204569563
12173636 292 17544195978626967766
12403259 327 17203337658863740336
12616971 3 17895472635458262259
12769317 202 18337397045527520417
13422730 153 18189918464831332431
13583140 156 18343007896709873547
13590594 115 18193838382081380330
138480 1 18338231673705815328
14114211 80 17835774445101112165
14289585 56 18046070616283062727
15081414 286 18411132562976260948
151778 21 18198054773035459805
15322535 138 17183071241382241889
15420108 30 18117860819422965218
15483637 11 18050849119846292201
17844677 252 18335697312868740883
18681886 176 18263088854214769163
18785283 64 18342174440539918686
20157964 124 18409733954711490783
20621476 13 18411982451162718289
20642791 105 17902242113459210362
21033648 29 17632016446618485599
21641784 216 17839152428657961526
21860390 5 18334571369257981926
22149856 69 18261097536648108739
22289505 5 18270119153063167246
23559900 14 18409729560464497307
328310 1195 18199767950096533749
4015057 19 18411419527633293907
474 4 18409731716463843435
508706 21 17559965488358291189
513532 50 18040707083057232556
53794403 172 18198615545382063389
6443956 14 18340483473593093884
9981440 41 17978233755368347914

> <PUBCHEM_SHAPE_MULTIPOLES>
462.25
11.7
5.41
0.97
23.1
3.09
0.19
-1.21
0.33
-8.47
1.06
0.58
0.57
0.47

> <PUBCHEM_SHAPE_SELFOVERLAP>
978.496

> <PUBCHEM_SHAPE_VOLUME>
262.3

> <PUBCHEM_COORDINATE_TYPE>
2
5
10

$$$$

