96
  -OEChem-07051212442D

 13 12  0     0  0  0  0  0  0999 V2000
    5.1350   -0.7500    0.0000 O   0  0  0  0  0  0  0  0  0  0  0  0
    2.5369    0.7500    0.0000 O   0  0  0  0  0  0  0  0  0  0  0  0
    3.4030   -0.7500    0.0000 O   0  0  0  0  0  0  0  0  0  0  0  0
    4.2690    0.7500    0.0000 C   0  0  0  0  0  0  0  0  0  0  0  0
    5.1350    0.2500    0.0000 C   0  0  0  0  0  0  0  0  0  0  0  0
    6.0010    0.7500    0.0000 C   0  0  0  0  0  0  0  0  0  0  0  0
    3.4030    0.2500    0.0000 C   0  0  0  0  0  0  0  0  0  0  0  0
    4.6675    1.2250    0.0000 H   0  0  0  0  0  0  0  0  0  0  0  0
    3.8705    1.2250    0.0000 H   0  0  0  0  0  0  0  0  0  0  0  0
    6.3110    0.2131    0.0000 H   0  0  0  0  0  0  0  0  0  0  0  0
    6.5380    1.0600    0.0000 H   0  0  0  0  0  0  0  0  0  0  0  0
    5.6910    1.2869    0.0000 H   0  0  0  0  0  0  0  0  0  0  0  0
    2.0000    0.4400    0.0000 H   0  0  0  0  0  0  0  0  0  0  0  0
  1  5  2  0  0  0  0
  2  7  1  0  0  0  0
  2 13  1  0  0  0  0
  3  7  2  0  0  0  0
  4  5  1  0  0  0  0
  4  7  1  0  0  0  0
  4  8  1  0  0  0  0
  4  9  1  0  0  0  0
  5  6  1  0  0  0  0
  6 10  1  0  0  0  0
  6 11  1  0  0  0  0
  6 12  1  0  0  0  0
M  END
> <PUBCHEM_COMPOUND_CID>
96

> <PUBCHEM_COMPOUND_CANONICALIZED>
1

> <PUBCHEM_CACTVS_COMPLEXITY>
95.1

> <PUBCHEM_CACTVS_HBOND_ACCEPTOR>
3

> <PUBCHEM_CACTVS_HBOND_DONOR>
1

> <PUBCHEM_CACTVS_ROTATABLE_BOND>
2

> <PUBCHEM_CACTVS_SUBSKEYS>
AAADcYBgMAAAAAAAAAAAAAAAAAAAAAAAAAAAAAAAAAAAAAAAAAAAGgAACAAACASAgAACCAAAAgAIAICQCAAAAAAAAAAAAAEAAAAAABQIAAAAQAAEIAAAAAAAAAAAAAAAAAAAAAAAAAAAAAAAAAAAAAAAAA==

> <PUBCHEM_IUPAC_OPENEYE_NAME>
3-oxobutanoic acid

> <PUBCHEM_IUPAC_CAS_NAME>
3-oxobutanoic acid

> <PUBCHEM_IUPAC_NAME>
3-oxobutanoic acid

> <PUBCHEM_IUPAC_SYSTEMATIC_NAME>
3-oxidanylidenebutanoic acid

> <PUBCHEM_IUPAC_TRADITIONAL_NAME>
acetoacetic acid

> <PUBCHEM_IUPAC_INCHI>
InChI=1S/C4H6O3/c1-3(5)2-4(6)7/h2H2,1H3,(H,6,7)

> <PUBCHEM_IUPAC_INCHIKEY>
WDJHALXBUFZDSR-UHFFFAOYSA-N

> <PUBCHEM_XLOGP3_AA>
-0.4

> <PUBCHEM_EXACT_MASS>
102.031694

> <PUBCHEM_MOLECULAR_FORMULA>
C4H6O3

> <PUBCHEM_MOLECULAR_WEIGHT>
102.08864

> <PUBCHEM_OPENEYE_CAN_SMILES>
CC(=O)CC(=O)O

> <PUBCHEM_OPENEYE_ISO_SMILES>
CC(=O)CC(=O)O

> <PUBCHEM_CACTVS_TPSA>
54.4

> <PUBCHEM_MONOISOTOPIC_WEIGHT>
102.031694

> <PUBCHEM_TOTAL_CHARGE>
0

> <PUBCHEM_HEAVY_ATOM_COUNT>
7

> <PUBCHEM_ATOM_DEF_STEREO_COUNT>
0

> <PUBCHEM_ATOM_UDEF_STEREO_COUNT>
0

> <PUBCHEM_BOND_DEF_STEREO_COUNT>
0

> <PUBCHEM_BOND_UDEF_STEREO_COUNT>
0

> <PUBCHEM_ISOTOPIC_ATOM_COUNT>
0

> <PUBCHEM_COMPONENT_COUNT>
1

> <PUBCHEM_CACTVS_TAUTO_COUNT>
5

> <PUBCHEM_COORDINATE_TYPE>
1
5
255

$$$$

