40585
  -OEChem-07051213003D

 47 49  0     1  0  0  0  0  0999 V2000
    6.1352   -0.6721    1.8299 Br  0  0  0  0  0  0  0  0  0  0  0  0
    5.9278    0.2451   -1.1971 Br  0  0  0  0  0  0  0  0  0  0  0  0
    0.7681   -0.5408   -0.3465 O   0  0  0  0  0  0  0  0  0  0  0  0
    2.9768   -1.0257   -0.8309 O   0  0  0  0  0  0  0  0  0  0  0  0
   -4.2065   -0.5816   -0.1953 O   0  0  0  0  0  0  0  0  0  0  0  0
    1.0034   -3.2095   -2.4349 N   0  0  0  0  0  0  0  0  0  0  0  0
    1.8821    2.1458    0.3023 C   0  0  0  0  0  0  0  0  0  0  0  0
    3.3243    1.8853   -0.0201 C   0  0  2  0  0  0  0  0  0  0  0  0
    2.2457    1.2255   -0.8186 C   0  0  1  0  0  0  0  0  0  0  0  0
    1.3518    1.5775    1.5756 C   0  0  0  0  0  0  0  0  0  0  0  0
    1.2662    3.4542   -0.0675 C   0  0  0  0  0  0  0  0  0  0  0  0
    4.1389    1.0581    0.8573 C   0  0  0  0  0  0  0  0  0  0  0  0
    2.0541   -0.2397   -0.6697 C   0  0  0  0  0  0  0  0  0  0  0  0
    5.2235    0.3324    0.5352 C   0  0  0  0  0  0  0  0  0  0  0  0
    0.4884   -1.9376   -0.1823 C   0  0  1  0  0  0  0  0  0  0  0  0
   -0.9215   -2.1249    0.2658 C   0  0  0  0  0  0  0  0  0  0  0  0
    0.7824   -2.6472   -1.4440 C   0  0  0  0  0  0  0  0  0  0  0  0
   -1.9166   -1.2548   -0.1797 C   0  0  0  0  0  0  0  0  0  0  0  0
   -1.2453   -3.1707    1.1302 C   0  0  0  0  0  0  0  0  0  0  0  0
   -3.2354   -1.4305    0.2391 C   0  0  0  0  0  0  0  0  0  0  0  0
   -2.5641   -3.3462    1.5491 C   0  0  0  0  0  0  0  0  0  0  0  0
   -3.5591   -2.4762    1.1036 C   0  0  0  0  0  0  0  0  0  0  0  0
   -3.9289    0.7751   -0.1811 C   0  0  0  0  0  0  0  0  0  0  0  0
   -3.3235    1.3274    0.9333 C   0  0  0  0  0  0  0  0  0  0  0  0
   -4.2644    1.5429   -1.2815 C   0  0  0  0  0  0  0  0  0  0  0  0
   -3.0439    2.6938    0.9475 C   0  0  0  0  0  0  0  0  0  0  0  0
   -3.9849    2.9095   -1.2672 C   0  0  0  0  0  0  0  0  0  0  0  0
   -3.3745    3.4849   -0.1527 C   0  0  0  0  0  0  0  0  0  0  0  0
    3.8685    2.6965   -0.4948 H   0  0  0  0  0  0  0  0  0  0  0  0
    2.1209    1.5824   -1.8365 H   0  0  0  0  0  0  0  0  0  0  0  0
    0.2569    1.5311    1.5394 H   0  0  0  0  0  0  0  0  0  0  0  0
    1.6191    2.2264    2.4178 H   0  0  0  0  0  0  0  0  0  0  0  0
    1.6965    0.5685    1.8217 H   0  0  0  0  0  0  0  0  0  0  0  0
    1.4129    4.1887    0.7315 H   0  0  0  0  0  0  0  0  0  0  0  0
    0.1897    3.3403   -0.2335 H   0  0  0  0  0  0  0  0  0  0  0  0
    1.7003    3.8723   -0.9825 H   0  0  0  0  0  0  0  0  0  0  0  0
    3.8668    1.0674    1.9112 H   0  0  0  0  0  0  0  0  0  0  0  0
    1.1550   -2.3059    0.6096 H   0  0  0  0  0  0  0  0  0  0  0  0
   -1.6669   -0.4628   -0.8815 H   0  0  0  0  0  0  0  0  0  0  0  0
   -0.4805   -3.8571    1.4839 H   0  0  0  0  0  0  0  0  0  0  0  0
   -2.8164   -4.1606    2.2220 H   0  0  0  0  0  0  0  0  0  0  0  0
   -4.5846   -2.6178    1.4337 H   0  0  0  0  0  0  0  0  0  0  0  0
   -3.0768    0.7378    1.8113 H   0  0  0  0  0  0  0  0  0  0  0  0
   -4.7389    1.0962   -2.1499 H   0  0  0  0  0  0  0  0  0  0  0  0
   -2.5718    3.1427    1.8166 H   0  0  0  0  0  0  0  0  0  0  0  0
   -4.2421    3.5254   -2.1240 H   0  0  0  0  0  0  0  0  0  0  0  0
   -3.1568    4.5489   -0.1414 H   0  0  0  0  0  0  0  0  0  0  0  0
  1 14  1  0  0  0  0
  2 14  1  0  0  0  0
  3 13  1  0  0  0  0
  3 15  1  0  0  0  0
  4 13  2  0  0  0  0
  5 20  1  0  0  0  0
  5 23  1  0  0  0  0
  6 17  3  0  0  0  0
  7  8  1  0  0  0  0
  7  9  1  0  0  0  0
  7 10  1  0  0  0  0
  7 11  1  0  0  0  0
  8  9  1  0  0  0  0
  8 12  1  0  0  0  0
  8 29  1  0  0  0  0
  9 13  1  0  0  0  0
  9 30  1  0  0  0  0
 10 31  1  0  0  0  0
 10 32  1  0  0  0  0
 10 33  1  0  0  0  0
 11 34  1  0  0  0  0
 11 35  1  0  0  0  0
 11 36  1  0  0  0  0
 12 14  2  0  0  0  0
 12 37  1  0  0  0  0
 15 16  1  0  0  0  0
 15 17  1  0  0  0  0
 15 38  1  0  0  0  0
 16 18  2  0  0  0  0
 16 19  1  0  0  0  0
 18 20  1  0  0  0  0
 18 39  1  0  0  0  0
 19 21  2  0  0  0  0
 19 40  1  0  0  0  0
 20 22  2  0  0  0  0
 21 22  1  0  0  0  0
 21 41  1  0  0  0  0
 22 42  1  0  0  0  0
 23 24  2  0  0  0  0
 23 25  1  0  0  0  0
 24 26  1  0  0  0  0
 24 43  1  0  0  0  0
 25 27  2  0  0  0  0
 25 44  1  0  0  0  0
 26 28  2  0  0  0  0
 26 45  1  0  0  0  0
 27 28  1  0  0  0  0
 27 46  1  0  0  0  0
 28 47  1  0  0  0  0
M  END
> <PUBCHEM_COMPOUND_CID>
40585

> <PUBCHEM_CONFORMER_RMSD>
1.2

> <PUBCHEM_CONFORMER_DIVERSEORDER>
1
307
210
230
196
2
428
167
477
441
400
11
16
79
406
100
181
213
165
207
348
334
40
225
510
389
494
493
133
427
41
424
15
124
373
56
496
530
232
67
240
347
143
257
408
462
289
142
485
35
370
49
251
177
153
152
337
58
451
491
358
111
453
84
82
21
113
380
72
345
48
75
366
44
163
403
362
132
3
24
139
300
422
126
449
308
26
12
283
208
407
218
39
74
467
17
430
57
83
454
478
110
145
182
63
244
5
116
102
350
172
115
78
89
53
4
117
303
7
367
280
243
86
42
76
248
147
219
201
70
224
234
47
68
6
125
137
20
486
397
498
353
404
260
237
88
23
93
508
27
10
77
105
8

> <PUBCHEM_MMFF94_PARTIAL_CHARGES>
40
1 -0.11
10 0.09
11 0.09
12 -0.19
13 0.72
14 0.22
15 0.62
16 -0.14
17 0.36
18 -0.15
19 -0.15
2 -0.11
20 0.08
21 -0.15
22 -0.15
23 0.08
24 -0.15
25 -0.15
26 -0.15
27 -0.15
28 -0.15
29 0.1
3 -0.43
30 0.1
37 0.15
39 0.15
4 -0.57
40 0.15
41 0.15
42 0.15
43 0.15
44 0.15
45 0.15
46 0.15
47 0.15
5 -0.17
6 -0.56
7 -0.19
8 -0.06
9 -0.1

> <PUBCHEM_EFFECTIVE_ROTOR_COUNT>
7.6

> <PUBCHEM_PHARMACOPHORE_FEATURES>
9
1 1 hydrophobe
1 2 hydrophobe
1 4 acceptor
1 5 acceptor
1 6 acceptor
3 1 2 14 hydrophobe
3 7 10 11 hydrophobe
6 16 18 19 20 21 22 rings
6 23 24 25 26 27 28 rings

> <PUBCHEM_HEAVY_ATOM_COUNT>
28

> <PUBCHEM_ATOM_DEF_STEREO_COUNT>
3

> <PUBCHEM_ATOM_UDEF_STEREO_COUNT>
0

> <PUBCHEM_BOND_DEF_STEREO_COUNT>
0

> <PUBCHEM_BOND_UDEF_STEREO_COUNT>
0

> <PUBCHEM_ISOTOPIC_ATOM_COUNT>
0

> <PUBCHEM_COMPONENT_COUNT>
1

> <PUBCHEM_CACTVS_TAUTO_COUNT>
1

> <PUBCHEM_CONFORMER_ID>
00009E8900000001

> <PUBCHEM_MMFF94_ENERGY>
82.181

> <PUBCHEM_FEATURE_SELFOVERLAP>
47.144

> <PUBCHEM_SHAPE_FINGERPRINT>
10675989 125 17189544594594843893
10764073 3 18055365888238667830
1100329 8 17908704282081387146
11370993 70 18411423942395619037
12107183 9 18059025007063895258
12107698 1 18198908019669720827
12403259 226 18046341925166920403
12422481 6 18196666292239900010
12645989 146 18116991087780946350
12838863 1 18265073395672373255
13122387 1 18122058969175944261
13402501 40 18335979788277516873
13726171 33 18123721237616008572
14466204 15 18411142441769949882
14725015 67 18339653230982525241
14931854 50 18263088867568806125
15021287 119 16845294960538720836
21033648 144 17388825171922718780
21033648 29 17748830687883234810
21279426 13 18263636420248619686
22182313 1 18042103454324555806
238918 7 18260270784785102030
3117164 225 18271817851789862778
3886686 26 18058742436238424690
392239 28 18341036425458976939
460360 51 18271792558437436010
508706 21 18411695487212301397
6328613 192 18343863304235040308
9862522 239 18188210879659597622
9981440 41 18408889550993010171

> <PUBCHEM_SHAPE_MULTIPOLES>
565.52
11.64
4.76
1.64
10.88
0.29
0.21
-3.66
-1.35
-5.06
-0.08
0.88
0.84
1.53

> <PUBCHEM_SHAPE_SELFOVERLAP>
1184.7

> <PUBCHEM_SHAPE_VOLUME>
326.2

> <PUBCHEM_COORDINATE_TYPE>
2
5
10

$$$$

