11954148
  -OEChem-07051213072D

 66 69  0     1  0  0  0  0  0999 V2000
   11.2375    1.4952    0.0000 O   0  0  0  0  0  0  0  0  0  0  0  0
    4.6037   -0.7208    0.0000 O   0  0  0  0  0  0  0  0  0  0  0  0
    4.5876   -2.8124    0.0000 O   0  0  0  0  0  0  0  0  0  0  0  0
   12.8839    0.9572    0.0000 O   0  0  0  0  0  0  0  0  0  0  0  0
    3.7204   -2.2106    0.0000 O   0  0  0  0  0  0  0  0  0  0  0  0
    9.9806   -0.7600    0.0000 C   0  0  2  0  0  0  0  0  0  0  0  0
    9.9806    0.2400    0.0000 C   0  0  2  0  0  0  0  0  0  0  0  0
    9.1146   -1.2600    0.0000 C   0  0  1  0  0  0  0  0  0  0  0  0
    8.2486   -0.7600    0.0000 C   0  0  1  0  0  0  0  0  0  0  0  0
    7.3386   -1.2669    0.0000 C   0  0  2  0  0  0  0  0  0  0  0  0
    9.1146    0.7400    0.0000 C   0  0  0  0  0  0  0  0  0  0  0  0
    8.2486    0.2400    0.0000 C   0  0  0  0  0  0  0  0  0  0  0  0
   10.9269    0.5447    0.0000 C   0  0  2  0  0  0  0  0  0  0  0  0
   10.9269   -1.0648    0.0000 C   0  0  0  0  0  0  0  0  0  0  0  0
    9.1307   -2.3015    0.0000 C   0  0  0  0  0  0  0  0  0  0  0  0
   11.5105   -0.2600    0.0000 C   0  0  0  0  0  0  0  0  0  0  0  0
    7.3306   -2.3085    0.0000 C   0  0  0  0  0  0  0  0  0  0  0  0
    8.2326   -2.8293    0.0000 C   0  0  0  0  0  0  0  0  0  0  0  0
    9.9806    1.2400    0.0000 C   0  0  0  0  0  0  0  0  0  0  0  0
    6.4118   -0.7028    0.0000 C   0  0  0  0  0  0  0  0  0  0  0  0
    7.3463   -0.2669    0.0000 C   0  0  0  0  0  0  0  0  0  0  0  0
    5.4639   -1.2307    0.0000 C   0  0  2  0  0  0  0  0  0  0  0  0
    6.3951   -2.8582    0.0000 C   0  0  0  0  0  0  0  0  0  0  0  0
    5.4555   -2.3157    0.0000 C   0  0  0  0  0  0  0  0  0  0  0  0
   12.2160    1.7014    0.0000 C   0  0  0  0  0  0  0  0  0  0  0  0
   12.5267    2.6520    0.0000 C   0  0  0  0  0  0  0  0  0  0  0  0
    3.7319   -1.2107    0.0000 C   0  0  0  0  0  0  0  0  0  0  0  0
   13.5052    2.8582    0.0000 C   0  0  0  0  0  0  0  0  0  0  0  0
    2.8718   -0.7007    0.0000 C   0  0  0  0  0  0  0  0  0  0  0  0
    2.0000   -1.1907    0.0000 C   0  0  0  0  0  0  0  0  0  0  0  0
   10.0706   -1.6052    0.0000 H   0  0  0  0  0  0  0  0  0  0  0  0
    9.8540   -1.6793    0.0000 H   0  0  0  0  0  0  0  0  0  0  0  0
    8.9847   -0.3350    0.0000 H   0  0  0  0  0  0  0  0  0  0  0  0
    9.5132    1.2149    0.0000 H   0  0  0  0  0  0  0  0  0  0  0  0
    8.7161    1.2149    0.0000 H   0  0  0  0  0  0  0  0  0  0  0  0
    8.0365    0.8226    0.0000 H   0  0  0  0  0  0  0  0  0  0  0  0
    7.6380    0.1323    0.0000 H   0  0  0  0  0  0  0  0  0  0  0  0
   11.5394    0.6409    0.0000 H   0  0  0  0  0  0  0  0  0  0  0  0
   10.6758   -1.6317    0.0000 H   0  0  0  0  0  0  0  0  0  0  0  0
   11.4642   -1.3740    0.0000 H   0  0  0  0  0  0  0  0  0  0  0  0
    9.3487   -2.8819    0.0000 H   0  0  0  0  0  0  0  0  0  0  0  0
    9.7398   -2.1860    0.0000 H   0  0  0  0  0  0  0  0  0  0  0  0
   11.9713   -0.6747    0.0000 H   0  0  0  0  0  0  0  0  0  0  0  0
   11.9713    0.1547    0.0000 H   0  0  0  0  0  0  0  0  0  0  0  0
    7.8353   -3.3052    0.0000 H   0  0  0  0  0  0  0  0  0  0  0  0
    8.6336   -3.3022    0.0000 H   0  0  0  0  0  0  0  0  0  0  0  0
   10.6006    1.2400    0.0000 H   0  0  0  0  0  0  0  0  0  0  0  0
    9.9806    1.8600    0.0000 H   0  0  0  0  0  0  0  0  0  0  0  0
    9.3606    1.2400    0.0000 H   0  0  0  0  0  0  0  0  0  0  0  0
    6.8200   -0.2361    0.0000 H   0  0  0  0  0  0  0  0  0  0  0  0
    6.0218   -0.2207    0.0000 H   0  0  0  0  0  0  0  0  0  0  0  0
    7.9663   -0.2717    0.0000 H   0  0  0  0  0  0  0  0  0  0  0  0
    7.3511    0.3531    0.0000 H   0  0  0  0  0  0  0  0  0  0  0  0
    6.7263   -0.2621    0.0000 H   0  0  0  0  0  0  0  0  0  0  0  0
    5.4722   -0.6108    0.0000 H   0  0  0  0  0  0  0  0  0  0  0  0
    6.3975   -3.4782    0.0000 H   0  0  0  0  0  0  0  0  0  0  0  0
   12.5061    3.2716    0.0000 H   0  0  0  0  0  0  0  0  0  0  0  0
   11.9129    2.7393    0.0000 H   0  0  0  0  0  0  0  0  0  0  0  0
   13.6331    2.2515    0.0000 H   0  0  0  0  0  0  0  0  0  0  0  0
   14.1119    2.9860    0.0000 H   0  0  0  0  0  0  0  0  0  0  0  0
   13.3773    3.4649    0.0000 H   0  0  0  0  0  0  0  0  0  0  0  0
    3.2757   -0.2304    0.0000 H   0  0  0  0  0  0  0  0  0  0  0  0
    2.4787   -0.2212    0.0000 H   0  0  0  0  0  0  0  0  0  0  0  0
    1.6962   -0.6502    0.0000 H   0  0  0  0  0  0  0  0  0  0  0  0
    1.4595   -1.4944    0.0000 H   0  0  0  0  0  0  0  0  0  0  0  0
    2.3038   -1.7312    0.0000 H   0  0  0  0  0  0  0  0  0  0  0  0
 13  1  1  1  0  0  0
  1 25  1  0  0  0  0
 22  2  1  6  0  0  0
  2 27  1  0  0  0  0
  3 24  2  0  0  0  0
  4 25  2  0  0  0  0
  5 27  2  0  0  0  0
  6  7  1  0  0  0  0
  6  8  1  0  0  0  0
  6 14  1  0  0  0  0
  6 31  1  6  0  0  0
  7 11  1  0  0  0  0
  7 13  1  0  0  0  0
  7 19  1  1  0  0  0
  8  9  1  0  0  0  0
  8 15  1  0  0  0  0
  8 32  1  1  0  0  0
  9 10  1  0  0  0  0
  9 12  1  0  0  0  0
  9 33  1  6  0  0  0
 10 17  1  0  0  0  0
 10 20  1  0  0  0  0
 10 21  1  1  0  0  0
 11 12  1  0  0  0  0
 11 34  1  0  0  0  0
 11 35  1  0  0  0  0
 12 36  1  0  0  0  0
 12 37  1  0  0  0  0
 13 16  1  0  0  0  0
 13 38  1  0  0  0  0
 14 16  1  0  0  0  0
 14 39  1  0  0  0  0
 14 40  1  0  0  0  0
 15 18  1  0  0  0  0
 15 41  1  0  0  0  0
 15 42  1  0  0  0  0
 16 43  1  0  0  0  0
 16 44  1  0  0  0  0
 17 18  1  0  0  0  0
 17 23  2  0  0  0  0
 18 45  1  0  0  0  0
 18 46  1  0  0  0  0
 19 47  1  0  0  0  0
 19 48  1  0  0  0  0
 19 49  1  0  0  0  0
 20 22  1  0  0  0  0
 20 50  1  0  0  0  0
 20 51  1  0  0  0  0
 21 52  1  0  0  0  0
 21 53  1  0  0  0  0
 21 54  1  0  0  0  0
 22 24  1  0  0  0  0
 22 55  1  0  0  0  0
 23 24  1  0  0  0  0
 23 56  1  0  0  0  0
 25 26  1  0  0  0  0
 26 28  1  0  0  0  0
 26 57  1  0  0  0  0
 26 58  1  0  0  0  0
 27 29  1  0  0  0  0
 28 59  1  0  0  0  0
 28 60  1  0  0  0  0
 28 61  1  0  0  0  0
 29 30  1  0  0  0  0
 29 62  1  0  0  0  0
 29 63  1  0  0  0  0
 30 64  1  0  0  0  0
 30 65  1  0  0  0  0
 30 66  1  0  0  0  0
M  END
> <PUBCHEM_COMPOUND_CID>
11954148

> <PUBCHEM_COMPOUND_CANONICALIZED>
1

> <PUBCHEM_CACTVS_COMPLEXITY>
770

> <PUBCHEM_CACTVS_HBOND_ACCEPTOR>
5

> <PUBCHEM_CACTVS_HBOND_DONOR>
0

> <PUBCHEM_CACTVS_ROTATABLE_BOND>
6

> <PUBCHEM_CACTVS_SUBSKEYS>
AAADcfB4OAAAAAAAAAAAAAAAAAAAAYAAAAAwYIAAAAAAAGDAAAAAGgAAAAAADxSggAICCAAABACIAqDSCAIAAAAgAAAACAFAAEgAABIAAQQCAAAEwAAIAQOIyPCPgAAAAAAAAACAAAQAACAAAIAADAAAAA==

> <PUBCHEM_IUPAC_OPENEYE_NAME>
[(2R,8R,9S,10R,13S,14S,17S)-10,13-dimethyl-3-oxo-2-propanoyloxy-1,2,6,7,8,9,11,12,14,15,16,17-dodecahydrocyclopenta[a]phenanthren-17-yl] propanoate

> <PUBCHEM_IUPAC_CAS_NAME>
propanoic acid [(2R,8R,9S,10R,13S,14S,17S)-10,13-dimethyl-3-oxo-2-(1-oxopropoxy)-1,2,6,7,8,9,11,12,14,15,16,17-dodecahydrocyclopenta[a]phenanthren-17-yl] ester

> <PUBCHEM_IUPAC_NAME>
[(2R,8R,9S,10R,13S,14S,17S)-10,13-dimethyl-3-oxo-2-propanoyloxy-1,2,6,7,8,9,11,12,14,15,16,17-dodecahydrocyclopenta[a]phenanthren-17-yl] propanoate

> <PUBCHEM_IUPAC_SYSTEMATIC_NAME>
[(2R,8R,9S,10R,13S,14S,17S)-10,13-dimethyl-3-oxidanylidene-2-propanoyloxy-1,2,6,7,8,9,11,12,14,15,16,17-dodecahydrocyclopenta[a]phenanthren-17-yl] propanoate

> <PUBCHEM_IUPAC_TRADITIONAL_NAME>
propionic acid [(2R,8R,9S,10R,13S,14S,17S)-3-keto-10,13-dimethyl-2-propionyloxy-1,2,6,7,8,9,11,12,14,15,16,17-dodecahydrocyclopenta[a]phenanthren-17-yl] ester

> <PUBCHEM_IUPAC_INCHI>
InChI=1S/C25H36O5/c1-5-22(27)29-20-14-25(4)15(13-19(20)26)7-8-16-17-9-10-21(30-23(28)6-2)24(17,3)12-11-18(16)25/h13,16-18,20-21H,5-12,14H2,1-4H3/t16-,17-,18-,20+,21-,24-,25-/m0/s1

> <PUBCHEM_IUPAC_INCHIKEY>
YXMVVUNPKPIUQA-QEALOGQNSA-N

> <PUBCHEM_XLOGP3>
4.9

> <PUBCHEM_EXACT_MASS>
416.256274

> <PUBCHEM_MOLECULAR_FORMULA>
C25H36O5

> <PUBCHEM_MOLECULAR_WEIGHT>
416.55034

> <PUBCHEM_OPENEYE_CAN_SMILES>
CCC(=O)OC1CCC2C1(CCC3C2CCC4=CC(=O)C(CC34C)OC(=O)CC)C

> <PUBCHEM_OPENEYE_ISO_SMILES>
CCC(=O)O[C@H]1CC[C@@H]2[C@@]1(CC[C@H]3[C@H]2CCC4=CC(=O)[C@@H](C[C@]34C)OC(=O)CC)C

> <PUBCHEM_CACTVS_TPSA>
69.7

> <PUBCHEM_MONOISOTOPIC_WEIGHT>
416.256274

> <PUBCHEM_TOTAL_CHARGE>
0

> <PUBCHEM_HEAVY_ATOM_COUNT>
30

> <PUBCHEM_ATOM_DEF_STEREO_COUNT>
7

> <PUBCHEM_ATOM_UDEF_STEREO_COUNT>
0

> <PUBCHEM_BOND_DEF_STEREO_COUNT>
0

> <PUBCHEM_BOND_UDEF_STEREO_COUNT>
0

> <PUBCHEM_ISOTOPIC_ATOM_COUNT>
0

> <PUBCHEM_COMPONENT_COUNT>
1

> <PUBCHEM_CACTVS_TAUTO_COUNT>
5

> <PUBCHEM_COORDINATE_TYPE>
1
5
255

> <PUBCHEM_BONDANNOTATIONS>
13  1  5
10  21  5
22  2  6
6  31  6
7  19  5
8  32  5
9  33  6

$$$$

