13415
  -OEChem-06261209473D

 30 30  0     0  0  0  0  0  0999 V2000
    0.5809   -0.6073    0.2531 C   0  0  0  0  0  0  0  0  0  0  0  0
    1.0350    0.6108   -0.2524 C   0  0  0  0  0  0  0  0  0  0  0  0
   -1.6765    0.2524    0.2966 C   0  0  0  0  0  0  0  0  0  0  0  0
    1.5273   -1.7340    0.5080 C   0  0  0  0  0  0  0  0  0  0  0  0
   -0.7748   -0.7865    0.5276 C   0  0  0  0  0  0  0  0  0  0  0  0
    2.4815    0.8264   -0.5544 C   0  0  0  0  0  0  0  0  0  0  0  0
    0.1334    1.6498   -0.4833 C   0  0  0  0  0  0  0  0  0  0  0  0
   -3.1261    0.0613    0.5900 C   0  0  0  0  0  0  0  0  0  0  0  0
   -1.2223    1.4705   -0.2089 C   0  0  0  0  0  0  0  0  0  0  0  0
    1.6897   -2.6399   -0.7090 C   0  0  0  0  0  0  0  0  0  0  0  0
    3.2467    1.3799    0.6440 C   0  0  0  0  0  0  0  0  0  0  0  0
   -3.8949   -0.4831   -0.6112 C   0  0  0  0  0  0  0  0  0  0  0  0
    2.5065   -1.3851    0.8488 H   0  0  0  0  0  0  0  0  0  0  0  0
    1.1516   -2.3394    1.3438 H   0  0  0  0  0  0  0  0  0  0  0  0
   -1.1317   -1.7369    0.9180 H   0  0  0  0  0  0  0  0  0  0  0  0
    2.9687   -0.0808   -0.9237 H   0  0  0  0  0  0  0  0  0  0  0  0
    2.5746    1.5391   -1.3850 H   0  0  0  0  0  0  0  0  0  0  0  0
    0.4729    2.6051   -0.8752 H   0  0  0  0  0  0  0  0  0  0  0  0
   -3.2495   -0.6208    1.4405 H   0  0  0  0  0  0  0  0  0  0  0  0
   -3.5724    1.0122    0.9069 H   0  0  0  0  0  0  0  0  0  0  0  0
   -1.9149    2.2873   -0.3946 H   0  0  0  0  0  0  0  0  0  0  0  0
    0.7324   -3.0887   -0.9957 H   0  0  0  0  0  0  0  0  0  0  0  0
    2.3875   -3.4525   -0.4826 H   0  0  0  0  0  0  0  0  0  0  0  0
    2.0737   -2.0953   -1.5769 H   0  0  0  0  0  0  0  0  0  0  0  0
    2.8404    2.3479    0.9572 H   0  0  0  0  0  0  0  0  0  0  0  0
    4.2997    1.5258    0.3831 H   0  0  0  0  0  0  0  0  0  0  0  0
    3.2009    0.7067    1.5057 H   0  0  0  0  0  0  0  0  0  0  0  0
   -3.8291    0.1989   -1.4657 H   0  0  0  0  0  0  0  0  0  0  0  0
   -4.9521   -0.6095   -0.3572 H   0  0  0  0  0  0  0  0  0  0  0  0
   -3.5015   -1.4558   -0.9254 H   0  0  0  0  0  0  0  0  0  0  0  0
  1  2  2  0  0  0  0
  1  4  1  0  0  0  0
  1  5  1  0  0  0  0
  2  6  1  0  0  0  0
  2  7  1  0  0  0  0
  3  5  2  0  0  0  0
  3  8  1  0  0  0  0
  3  9  1  0  0  0  0
  4 10  1  0  0  0  0
  4 13  1  0  0  0  0
  4 14  1  0  0  0  0
  5 15  1  0  0  0  0
  6 11  1  0  0  0  0
  6 16  1  0  0  0  0
  6 17  1  0  0  0  0
  7  9  2  0  0  0  0
  7 18  1  0  0  0  0
  8 12  1  0  0  0  0
  8 19  1  0  0  0  0
  8 20  1  0  0  0  0
  9 21  1  0  0  0  0
 10 22  1  0  0  0  0
 10 23  1  0  0  0  0
 10 24  1  0  0  0  0
 11 25  1  0  0  0  0
 11 26  1  0  0  0  0
 11 27  1  0  0  0  0
 12 28  1  0  0  0  0
 12 29  1  0  0  0  0
 12 30  1  0  0  0  0
M  END
> <PUBCHEM_COMPOUND_CID>
13415

> <PUBCHEM_CONFORMER_RMSD>
0.6

> <PUBCHEM_CONFORMER_DIVERSEORDER>
1
5
10
4
9
11
7
3
6
2
8

> <PUBCHEM_MMFF94_PARTIAL_CHARGES>
12
1 -0.14
15 0.15
18 0.15
2 -0.14
21 0.15
3 -0.14
4 0.14
5 -0.15
6 0.14
7 -0.15
8 0.14
9 -0.15

> <PUBCHEM_EFFECTIVE_ROTOR_COUNT>
3

> <PUBCHEM_PHARMACOPHORE_FEATURES>
4
1 10 hydrophobe
1 11 hydrophobe
1 12 hydrophobe
6 1 2 3 5 7 9 rings

> <PUBCHEM_HEAVY_ATOM_COUNT>
12

> <PUBCHEM_ATOM_DEF_STEREO_COUNT>
0

> <PUBCHEM_ATOM_UDEF_STEREO_COUNT>
0

> <PUBCHEM_BOND_DEF_STEREO_COUNT>
0

> <PUBCHEM_BOND_UDEF_STEREO_COUNT>
0

> <PUBCHEM_ISOTOPIC_ATOM_COUNT>
0

> <PUBCHEM_COMPONENT_COUNT>
1

> <PUBCHEM_CACTVS_TAUTO_COUNT>
1

> <PUBCHEM_CONFORMER_ID>
0000346700000001

> <PUBCHEM_MMFF94_ENERGY>
23.0217

> <PUBCHEM_FEATURE_SELFOVERLAP>
20.297

> <PUBCHEM_SHAPE_FINGERPRINT>
10219947 1 18272370823917141456
11132069 177 18341618049107209480
11206711 2 17771337866585998631
12423570 1 5396641057895141426
12524768 44 18342167908016188755
12932764 1 17676210178103793913
13380535 76 18342459192582256498
14128692 85 18122334937497938958
14251717 144 18410296895473720727
14576447 43 18117573842482463295
15207287 21 18059864908876421577
161256 15 18269267027314448718
16945 1 18342163432707777929
17990270 104 18194963169628473506
193761 8 18125159595796970748
20201158 50 18202001002029428497
20588541 1 18271519810586084385
20645476 183 16914520053392826428
20645477 70 18339084886661378495
20871998 184 17906721515224809018
20871998 22 18122058968748663394
21501502 16 18267861877060671232
22213442 358 18048594021576409878
2334 1 17621026569631334949
23402655 69 18270415953379911141
23552423 10 18057878241625581859
23559900 14 17114106024330319830
241688 4 17912918675875063256
2748010 2 18128536157451229741
4072396 5 18129403551724055569
528886 8 18340489945765995512
581208 293 18410856542528622148
7364860 26 18262235633391217322
81539 233 18273216370023479470

> <PUBCHEM_SHAPE_MULTIPOLES>
246.95
5.05
2.21
0.86
3.12
1.11
-0.01
-0.35
-0.03
-1.75
-0.34
-0.04
0.07
0.21

> <PUBCHEM_SHAPE_SELFOVERLAP>
496.347

> <PUBCHEM_SHAPE_VOLUME>
142.1

> <PUBCHEM_COORDINATE_TYPE>
2
5
10

$$$$

