6441116
  -OEChem-07051213152D

 44 44  0     1  0  0  0  0  0999 V2000
    5.5981    2.0000    0.0000 O   0  0  0  0  0  0  0  0  0  0  0  0
    3.0000    2.5000    0.0000 O   0  0  0  0  0  0  0  0  0  0  0  0
    3.8660    4.0000    0.0000 O   0  0  0  0  0  0  0  0  0  0  0  0
    3.0000   -2.5000    0.0000 C   0  0  0  0  0  0  0  0  0  0  0  0
    3.8660   -2.0000    0.0000 C   0  0  3  0  0  0  0  0  0  0  0  0
    3.0000   -3.5000    0.0000 C   0  0  0  0  0  0  0  0  0  0  0  0
    3.8660   -4.0000    0.0000 C   0  0  0  0  0  0  0  0  0  0  0  0
    4.7320   -2.5000    0.0000 C   0  0  0  0  0  0  0  0  0  0  0  0
    4.7320   -3.5000    0.0000 C   0  0  0  0  0  0  0  0  0  0  0  0
    2.0000   -2.5000    0.0000 C   0  0  0  0  0  0  0  0  0  0  0  0
    2.5000   -1.6340    0.0000 C   0  0  0  0  0  0  0  0  0  0  0  0
    3.8660   -1.0000    0.0000 C   0  0  0  0  0  0  0  0  0  0  0  0
    5.5981   -2.0000    0.0000 C   0  0  0  0  0  0  0  0  0  0  0  0
    4.7320   -0.5000    0.0000 C   0  0  0  0  0  0  0  0  0  0  0  0
    4.7320    0.5000    0.0000 C   0  0  0  0  0  0  0  0  0  0  0  0
    3.8660    1.0000    0.0000 C   0  0  0  0  0  0  0  0  0  0  0  0
    5.5981    1.0000    0.0000 C   0  0  0  0  0  0  0  0  0  0  0  0
    3.8660    2.0000    0.0000 C   0  0  0  0  0  0  0  0  0  0  0  0
    3.0000    3.5000    0.0000 C   0  0  0  0  0  0  0  0  0  0  0  0
    2.1340    4.0000    0.0000 C   0  0  0  0  0  0  0  0  0  0  0  0
    4.6022   -1.5750    0.0000 H   0  0  0  0  0  0  0  0  0  0  0  0
    2.3894   -3.3923    0.0000 H   0  0  0  0  0  0  0  0  0  0  0  0
    2.7880   -4.0826    0.0000 H   0  0  0  0  0  0  0  0  0  0  0  0
    3.4675   -4.4750    0.0000 H   0  0  0  0  0  0  0  0  0  0  0  0
    4.2646   -4.4750    0.0000 H   0  0  0  0  0  0  0  0  0  0  0  0
    4.9441   -4.0826    0.0000 H   0  0  0  0  0  0  0  0  0  0  0  0
    5.3426   -3.3923    0.0000 H   0  0  0  0  0  0  0  0  0  0  0  0
    3.0369   -1.3240    0.0000 H   0  0  0  0  0  0  0  0  0  0  0  0
    2.1900   -1.0970    0.0000 H   0  0  0  0  0  0  0  0  0  0  0  0
    2.0000   -1.8800    0.0000 H   0  0  0  0  0  0  0  0  0  0  0  0
    1.3800   -2.5000    0.0000 H   0  0  0  0  0  0  0  0  0  0  0  0
    2.0000   -3.1200    0.0000 H   0  0  0  0  0  0  0  0  0  0  0  0
    1.9631   -1.9440    0.0000 H   0  0  0  0  0  0  0  0  0  0  0  0
    3.6540   -0.4174    0.0000 H   0  0  0  0  0  0  0  0  0  0  0  0
    3.2554   -1.1077    0.0000 H   0  0  0  0  0  0  0  0  0  0  0  0
    6.1350   -2.3100    0.0000 H   0  0  0  0  0  0  0  0  0  0  0  0
    5.5981   -1.3800    0.0000 H   0  0  0  0  0  0  0  0  0  0  0  0
    5.2690   -0.8100    0.0000 H   0  0  0  0  0  0  0  0  0  0  0  0
    3.3291    0.6900    0.0000 H   0  0  0  0  0  0  0  0  0  0  0  0
    6.1350    0.6900    0.0000 H   0  0  0  0  0  0  0  0  0  0  0  0
    4.4030    2.3100    0.0000 H   0  0  0  0  0  0  0  0  0  0  0  0
    2.4440    4.5369    0.0000 H   0  0  0  0  0  0  0  0  0  0  0  0
    1.5970    4.3100    0.0000 H   0  0  0  0  0  0  0  0  0  0  0  0
    1.8240    3.4631    0.0000 H   0  0  0  0  0  0  0  0  0  0  0  0
  1 17  2  0  0  0  0
  2 18  1  0  0  0  0
  2 19  1  0  0  0  0
  3 19  2  0  0  0  0
  4  5  1  0  0  0  0
  4  6  1  0  0  0  0
  4 10  1  0  0  0  0
  4 11  1  0  0  0  0
  5  8  1  0  0  0  0
  5 12  1  0  0  0  0
  5 21  1  0  0  0  0
  6  7  1  0  0  0  0
  6 22  1  0  0  0  0
  6 23  1  0  0  0  0
  7  9  1  0  0  0  0
  7 24  1  0  0  0  0
  7 25  1  0  0  0  0
  8  9  1  0  0  0  0
  8 13  2  0  0  0  0
  9 26  1  0  0  0  0
  9 27  1  0  0  0  0
 10 30  1  0  0  0  0
 10 31  1  0  0  0  0
 10 32  1  0  0  0  0
 11 28  1  0  0  0  0
 11 29  1  0  0  0  0
 11 33  1  0  0  0  0
 12 14  1  0  0  0  0
 12 34  1  0  0  0  0
 12 35  1  0  0  0  0
 13 36  1  0  0  0  0
 13 37  1  0  0  0  0
 14 15  2  0  0  0  0
 14 38  1  0  0  0  0
 15 16  1  0  0  0  0
 15 17  1  0  0  0  0
 16 18  2  0  0  0  0
 16 39  1  0  0  0  0
 17 40  1  0  0  0  0
 18 41  1  0  0  0  0
 19 20  1  0  0  0  0
 20 42  1  0  0  0  0
 20 43  1  0  0  0  0
 20 44  1  0  0  0  0
M  END
> <PUBCHEM_COMPOUND_CID>
6441116

> <PUBCHEM_COMPOUND_CANONICALIZED>
1

> <PUBCHEM_CACTVS_COMPLEXITY>
441

> <PUBCHEM_CACTVS_HBOND_ACCEPTOR>
3

> <PUBCHEM_CACTVS_HBOND_DONOR>
0

> <PUBCHEM_CACTVS_ROTATABLE_BOND>
6

> <PUBCHEM_CACTVS_SUBSKEYS>
AAADceB4MAAAAAAAAAAAAAAAAAAAAAAAAAAwAAAAAAAAAAAAAAAAGgAAAAAADwCggAICCAAABACIAijSiAAACAAgIAAICAEAAEgIAAIAAQAAAAAAgAAIgYMAgMAPgAAAAAAAAAAAAAAAACAAAAAAAAAAAA==

> <PUBCHEM_IUPAC_OPENEYE_NAME>
[(1E,3E)-5-(2,2-dimethyl-6-methylene-cyclohexyl)-3-formyl-penta-1,3-dienyl] acetate

> <PUBCHEM_IUPAC_CAS_NAME>
acetic acid [(1E,3E)-5-(2,2-dimethyl-6-methylenecyclohexyl)-3-formylpenta-1,3-dienyl] ester

> <PUBCHEM_IUPAC_NAME>
[(1E,3E)-5-(2,2-dimethyl-6-methylidenecyclohexyl)-3-formylpenta-1,3-dienyl] acetate

> <PUBCHEM_IUPAC_SYSTEMATIC_NAME>
[(1E,3E)-5-(2,2-dimethyl-6-methylidene-cyclohexyl)-3-methanoyl-penta-1,3-dienyl] ethanoate

> <PUBCHEM_IUPAC_TRADITIONAL_NAME>
acetic acid [(1E,3E)-5-(2,2-dimethyl-6-methylene-cyclohexyl)-3-formyl-penta-1,3-dienyl] ester

> <PUBCHEM_IUPAC_INCHI>
InChI=1S/C17H24O3/c1-13-6-5-10-17(3,4)16(13)8-7-15(12-18)9-11-20-14(2)19/h7,9,11-12,16H,1,5-6,8,10H2,2-4H3/b11-9+,15-7+

> <PUBCHEM_IUPAC_INCHIKEY>
BEKQPDFPPJFVJP-AHSQCEKMSA-N

> <PUBCHEM_XLOGP3_AA>
3.5

> <PUBCHEM_EXACT_MASS>
276.172545

> <PUBCHEM_MOLECULAR_FORMULA>
C17H24O3

> <PUBCHEM_MOLECULAR_WEIGHT>
276.37066

> <PUBCHEM_OPENEYE_CAN_SMILES>
CC(=O)OC=CC(=CCC1C(=C)CCCC1(C)C)C=O

> <PUBCHEM_OPENEYE_ISO_SMILES>
CC(=O)O/C=C/C(=C\CC1C(=C)CCCC1(C)C)/C=O

> <PUBCHEM_CACTVS_TPSA>
43.4

> <PUBCHEM_MONOISOTOPIC_WEIGHT>
276.172545

> <PUBCHEM_TOTAL_CHARGE>
0

> <PUBCHEM_HEAVY_ATOM_COUNT>
20

> <PUBCHEM_ATOM_DEF_STEREO_COUNT>
0

> <PUBCHEM_ATOM_UDEF_STEREO_COUNT>
1

> <PUBCHEM_BOND_DEF_STEREO_COUNT>
2

> <PUBCHEM_BOND_UDEF_STEREO_COUNT>
0

> <PUBCHEM_ISOTOPIC_ATOM_COUNT>
0

> <PUBCHEM_COMPONENT_COUNT>
1

> <PUBCHEM_CACTVS_TAUTO_COUNT>
1

> <PUBCHEM_COORDINATE_TYPE>
1
5
255

> <PUBCHEM_BONDANNOTATIONS>
5  21  3

$$$$

