25010766
  -OEChem-07051213103D

 38 37  0     1  0  0  0  0  0999 V2000
   -7.0932   -0.2006   -0.3669 S   0  0  0  0  0  0  0  0  0  0  0  0
    4.9181    1.1979   -1.4272 O   0  0  0  0  0  0  0  0  0  0  0  0
    5.0270    1.6547    0.7917 O   0  0  0  0  0  0  0  0  0  0  0  0
    4.7125   -0.9456    1.4951 N   0  0  0  0  0  0  0  0  0  0  0  0
   -0.4314   -0.1088    0.1634 C   0  0  0  0  0  0  0  0  0  0  0  0
    0.7471   -0.8615   -0.4607 C   0  0  0  0  0  0  0  0  0  0  0  0
   -1.7611   -0.5589   -0.4451 C   0  0  0  0  0  0  0  0  0  0  0  0
    2.0791   -0.3842    0.1217 C   0  0  0  0  0  0  0  0  0  0  0  0
   -2.9830    0.0973    0.2052 C   0  0  0  0  0  0  0  0  0  0  0  0
    3.2999   -1.0428   -0.5332 C   0  0  0  0  0  0  0  0  0  0  0  0
   -4.3478   -0.3568   -0.3256 C   0  0  0  0  0  0  0  0  0  0  0  0
    4.6574   -0.6476    0.0640 C   0  0  1  0  0  0  0  0  0  0  0  0
   -5.5148    0.3995    0.3027 C   0  0  0  0  0  0  0  0  0  0  0  0
    4.8885    0.8436   -0.1148 C   0  0  0  0  0  0  0  0  0  0  0  0
   -8.1981    0.9137    0.5297 C   0  0  0  0  0  0  0  0  0  0  0  0
   -0.3086    0.9702    0.0109 H   0  0  0  0  0  0  0  0  0  0  0  0
   -0.4443   -0.2837    1.2460 H   0  0  0  0  0  0  0  0  0  0  0  0
    0.7470   -0.7053   -1.5463 H   0  0  0  0  0  0  0  0  0  0  0  0
    0.6352   -1.9386   -0.2880 H   0  0  0  0  0  0  0  0  0  0  0  0
   -1.8536   -1.6476   -0.3458 H   0  0  0  0  0  0  0  0  0  0  0  0
   -1.7642   -0.3381   -1.5195 H   0  0  0  0  0  0  0  0  0  0  0  0
    2.0783   -0.5862    1.1994 H   0  0  0  0  0  0  0  0  0  0  0  0
    2.1488    0.7038    0.0035 H   0  0  0  0  0  0  0  0  0  0  0  0
   -2.8998    1.1844    0.0783 H   0  0  0  0  0  0  0  0  0  0  0  0
   -2.9512   -0.0899    1.2862 H   0  0  0  0  0  0  0  0  0  0  0  0
    3.2891   -0.8136   -1.6064 H   0  0  0  0  0  0  0  0  0  0  0  0
    3.1903   -2.1329   -0.4567 H   0  0  0  0  0  0  0  0  0  0  0  0
   -4.4527   -1.4332   -0.1385 H   0  0  0  0  0  0  0  0  0  0  0  0
   -4.3606   -0.2177   -1.4143 H   0  0  0  0  0  0  0  0  0  0  0  0
    5.4681   -1.1834   -0.4420 H   0  0  0  0  0  0  0  0  0  0  0  0
   -5.5121    0.2575    1.3884 H   0  0  0  0  0  0  0  0  0  0  0  0
   -5.4221    1.4700    0.0921 H   0  0  0  0  0  0  0  0  0  0  0  0
    4.5508   -1.9412    1.6421 H   0  0  0  0  0  0  0  0  0  0  0  0
    5.6496   -0.7546    1.8482 H   0  0  0  0  0  0  0  0  0  0  0  0
    5.0619    2.1614   -1.5421 H   0  0  0  0  0  0  0  0  0  0  0  0
   -9.2327    0.6959    0.2515 H   0  0  0  0  0  0  0  0  0  0  0  0
   -7.9816    1.9539    0.2728 H   0  0  0  0  0  0  0  0  0  0  0  0
   -8.0914    0.7705    1.6081 H   0  0  0  0  0  0  0  0  0  0  0  0
  1 13  1  0  0  0  0
  1 15  1  0  0  0  0
  2 14  1  0  0  0  0
  2 35  1  0  0  0  0
  3 14  2  0  0  0  0
  4 12  1  0  0  0  0
  4 33  1  0  0  0  0
  4 34  1  0  0  0  0
  5  6  1  0  0  0  0
  5  7  1  0  0  0  0
  5 16  1  0  0  0  0
  5 17  1  0  0  0  0
  6  8  1  0  0  0  0
  6 18  1  0  0  0  0
  6 19  1  0  0  0  0
  7  9  1  0  0  0  0
  7 20  1  0  0  0  0
  7 21  1  0  0  0  0
  8 10  1  0  0  0  0
  8 22  1  0  0  0  0
  8 23  1  0  0  0  0
  9 11  1  0  0  0  0
  9 24  1  0  0  0  0
  9 25  1  0  0  0  0
 10 12  1  0  0  0  0
 10 26  1  0  0  0  0
 10 27  1  0  0  0  0
 11 13  1  0  0  0  0
 11 28  1  0  0  0  0
 11 29  1  0  0  0  0
 12 14  1  0  0  0  0
 12 30  1  0  0  0  0
 13 31  1  0  0  0  0
 13 32  1  0  0  0  0
 15 36  1  0  0  0  0
 15 37  1  0  0  0  0
 15 38  1  0  0  0  0
M  END
> <PUBCHEM_COMPOUND_CID>
25010766

> <PUBCHEM_CONFORMER_RMSD>
1.2

> <PUBCHEM_CONFORMER_DIVERSEORDER>
1
48
41
51
10
33
22
3
20
16
44
53
18
59
31
19
37
6
38
39
27
2
9
23
25
54
29
4
57
61
42
46
32
50
13
14
17
12
36
34
11
45
62
5
58
15
30
28
43
56
8
40
7
24
26
60
49
52
55
21
47
35

> <PUBCHEM_MMFF94_PARTIAL_CHARGES>
11
1 -0.46
12 0.33
13 0.23
14 0.66
15 0.23
2 -0.65
3 -0.57
33 0.36
34 0.36
35 0.5
4 -0.99

> <PUBCHEM_EFFECTIVE_ROTOR_COUNT>
10

> <PUBCHEM_PHARMACOPHORE_FEATURES>
6
1 15 hydrophobe
1 2 acceptor
1 3 acceptor
1 4 cation
1 4 donor
3 2 3 14 anion

> <PUBCHEM_HEAVY_ATOM_COUNT>
15

> <PUBCHEM_ATOM_DEF_STEREO_COUNT>
0

> <PUBCHEM_ATOM_UDEF_STEREO_COUNT>
1

> <PUBCHEM_BOND_DEF_STEREO_COUNT>
0

> <PUBCHEM_BOND_UDEF_STEREO_COUNT>
0

> <PUBCHEM_ISOTOPIC_ATOM_COUNT>
0

> <PUBCHEM_COMPONENT_COUNT>
1

> <PUBCHEM_CACTVS_TAUTO_COUNT>
1

> <PUBCHEM_CONFORMER_ID>
017DA24E00000001

> <PUBCHEM_MMFF94_ENERGY>
8.2392

> <PUBCHEM_FEATURE_SELFOVERLAP>
30.505

> <PUBCHEM_SHAPE_FINGERPRINT>
125118 31 18201718492266916837
13167372 99 18270963552439993885
13533116 47 17774728670325879346
1420 363 13901905622758219915
14251732 16 18408886201171330195
14251752 14 9367356916498973631
14251764 18 18411698773753735303
14251764 46 18187364341937605454
15048467 5 18260829298105832621
17834072 33 18041001717465707879
17834076 25 17676488358745694847
20281389 69 18412265056148454889
20397935 70 14908190776132549728
20621476 66 18040713689249793415
20767249 213 18334575746446782311
21130983 4 18335416877179144257
21150785 3 6338953386455034922
220451 1 17847061081930302875
22224240 67 17632576051103879547
23035841 295 9943804483331581981
23402539 116 13470687028074509067
33532 11 10159697989323592825
34797466 226 16805599239920872268
42788 4 18335139808533041175
4463277 17 18259703411358302433
522135 26 6266901269080703262
5374978 207 18272093807717494024
6438161 24 15068893218458456884

> <PUBCHEM_SHAPE_MULTIPOLES>
295.82
21.48
1.18
0.95
28.81
0.28
-0.02
6.31
-1.19
-1.27
0
-1.17
0.05
-0.79

> <PUBCHEM_SHAPE_SELFOVERLAP>
529.894

> <PUBCHEM_SHAPE_VOLUME>
191.5

> <PUBCHEM_COORDINATE_TYPE>
2
5
10

$$$$

