440233
  -OEChem-07051212493D

 19 18  0     1  0  0  0  0  0999 V2000
   -1.5785   -0.0037    0.0006 P   0  0  0  0  0  0  0  0  0  0  0  0
   -0.1294   -0.5477   -0.4571 O   0  0  0  0  0  0  0  0  0  0  0  0
   -1.7213   -0.5205    1.5263 O   0  0  0  0  0  0  0  0  0  0  0  0
   -2.5901   -0.9665   -0.8145 O   0  0  0  0  0  0  0  0  0  0  0  0
   -1.8012    1.4666   -0.2024 O   0  0  0  0  0  0  0  0  0  0  0  0
    3.4941   -0.2215    0.2459 N   0  0  0  0  0  0  0  0  0  0  0  0
    1.0270    0.0033    0.1727 C   0  0  1  0  0  0  0  0  0  0  0  0
    2.2677   -0.7113   -0.3685 C   0  0  0  0  0  0  0  0  0  0  0  0
    1.0318    1.5015   -0.1029 C   0  0  0  0  0  0  0  0  0  0  0  0
    0.9540   -0.1736    1.2526 H   0  0  0  0  0  0  0  0  0  0  0  0
    2.3267   -0.5827   -1.4557 H   0  0  0  0  0  0  0  0  0  0  0  0
    2.1728   -1.7897   -0.1946 H   0  0  0  0  0  0  0  0  0  0  0  0
    0.3480    2.0282    0.5685 H   0  0  0  0  0  0  0  0  0  0  0  0
    0.7453    1.7260   -1.1359 H   0  0  0  0  0  0  0  0  0  0  0  0
    2.0150    1.9461    0.0818 H   0  0  0  0  0  0  0  0  0  0  0  0
    4.2848   -0.7664   -0.0952 H   0  0  0  0  0  0  0  0  0  0  0  0
    3.4564   -0.3708    1.2533 H   0  0  0  0  0  0  0  0  0  0  0  0
   -2.5105   -0.2557    2.0450 H   0  0  0  0  0  0  0  0  0  0  0  0
   -3.5526   -0.7805   -0.7810 H   0  0  0  0  0  0  0  0  0  0  0  0
  1  2  1  0  0  0  0
  1  3  1  0  0  0  0
  1  4  1  0  0  0  0
  1  5  2  0  0  0  0
  2  7  1  0  0  0  0
  3 18  1  0  0  0  0
  4 19  1  0  0  0  0
  6  8  1  0  0  0  0
  6 16  1  0  0  0  0
  6 17  1  0  0  0  0
  7  8  1  0  0  0  0
  7  9  1  0  0  0  0
  7 10  1  0  0  0  0
  8 11  1  0  0  0  0
  8 12  1  0  0  0  0
  9 13  1  0  0  0  0
  9 14  1  0  0  0  0
  9 15  1  0  0  0  0
M  END
> <PUBCHEM_COMPOUND_CID>
440233

> <PUBCHEM_CONFORMER_RMSD>
0.6

> <PUBCHEM_CONFORMER_DIVERSEORDER>
1
2
6
4
5
7
3

> <PUBCHEM_MMFF94_PARTIAL_CHARGES>
12
1 1.51
16 0.36
17 0.36
18 0.5
19 0.5
2 -0.55
3 -0.77
4 -0.77
5 -0.7
6 -0.99
7 0.28
8 0.27

> <PUBCHEM_EFFECTIVE_ROTOR_COUNT>
3

> <PUBCHEM_PHARMACOPHORE_FEATURES>
6
1 3 acceptor
1 4 acceptor
1 5 acceptor
1 6 cation
1 6 donor
4 1 3 4 5 anion

> <PUBCHEM_HEAVY_ATOM_COUNT>
9

> <PUBCHEM_ATOM_DEF_STEREO_COUNT>
1

> <PUBCHEM_ATOM_UDEF_STEREO_COUNT>
0

> <PUBCHEM_BOND_DEF_STEREO_COUNT>
0

> <PUBCHEM_BOND_UDEF_STEREO_COUNT>
0

> <PUBCHEM_ISOTOPIC_ATOM_COUNT>
0

> <PUBCHEM_COMPONENT_COUNT>
1

> <PUBCHEM_CACTVS_TAUTO_COUNT>
1

> <PUBCHEM_CONFORMER_ID>
0006B7A900000001

> <PUBCHEM_MMFF94_ENERGY>
-21.4879

> <PUBCHEM_FEATURE_SELFOVERLAP>
30.482

> <PUBCHEM_SHAPE_FINGERPRINT>
12932741 1 17417814972166428813
12932764 1 18260541255992367982
23552423 10 18341334409371886692
24536 1 17703224018787906037
29004967 10 18340759416762742490
3248919 1 17703785938186520638
5084963 1 18040720233756611627
5460574 1 11024107659527777182

> <PUBCHEM_SHAPE_MULTIPOLES>
160.61
4.25
1.26
0.9
1.89
0.53
0.26
-0.91
-0.03
-0.2
-0.14
-0.48
-0.18
0.01

> <PUBCHEM_SHAPE_SELFOVERLAP>
281.921

> <PUBCHEM_SHAPE_VOLUME>
106.6

> <PUBCHEM_COORDINATE_TYPE>
2
5
10

$$$$

