443143
  -OEChem-07051213013D

 40 41  0     1  0  0  0  0  0999 V2000
   -0.0052   -0.0109   -1.3062 O   0  0  0  0  0  0  0  0  0  0  0  0
   -3.5310    1.0640    0.8628 N   0  0  0  0  0  0  0  0  0  0  0  0
    3.5335   -1.0586    0.8665 N   0  0  0  0  0  0  0  0  0  0  0  0
   -2.4899    0.4483    0.0304 C   0  0  2  0  0  0  0  0  0  0  0  0
    2.4920   -0.4484    0.0304 C   0  0  2  0  0  0  0  0  0  0  0  0
   -2.8134   -1.0270   -0.2428 C   0  0  0  0  0  0  0  0  0  0  0  0
    2.8130    1.0262   -0.2489 C   0  0  0  0  0  0  0  0  0  0  0  0
   -1.1422    0.5791    0.7379 C   0  0  0  0  0  0  0  0  0  0  0  0
    1.1440   -0.5788    0.7371 C   0  0  0  0  0  0  0  0  0  0  0  0
   -4.1927   -1.1819   -0.8776 C   0  0  0  0  0  0  0  0  0  0  0  0
    4.1925    1.1811   -0.8831 C   0  0  0  0  0  0  0  0  0  0  0  0
   -5.2488   -0.4633   -0.0452 C   0  0  0  0  0  0  0  0  0  0  0  0
    5.2492    0.4681   -0.0463 C   0  0  0  0  0  0  0  0  0  0  0  0
   -4.8470    0.9840    0.2283 C   0  0  0  0  0  0  0  0  0  0  0  0
    4.8499   -0.9789    0.2330 C   0  0  0  0  0  0  0  0  0  0  0  0
   -0.0037   -0.0031   -0.0762 C   0  0  0  0  0  0  0  0  0  0  0  0
   -2.4381    0.9843   -0.9272 H   0  0  0  0  0  0  0  0  0  0  0  0
    2.4416   -0.9885   -0.9249 H   0  0  0  0  0  0  0  0  0  0  0  0
   -2.7844   -1.5984    0.6947 H   0  0  0  0  0  0  0  0  0  0  0  0
   -2.0758   -1.4823   -0.9118 H   0  0  0  0  0  0  0  0  0  0  0  0
    2.7816    1.6019    0.6859 H   0  0  0  0  0  0  0  0  0  0  0  0
    2.0743    1.4760   -0.9207 H   0  0  0  0  0  0  0  0  0  0  0  0
   -0.8985    1.6302    0.9330 H   0  0  0  0  0  0  0  0  0  0  0  0
   -1.1815    0.0599    1.7039 H   0  0  0  0  0  0  0  0  0  0  0  0
    0.9032   -1.6297    0.9372 H   0  0  0  0  0  0  0  0  0  0  0  0
    1.1825   -0.0563    1.7013 H   0  0  0  0  0  0  0  0  0  0  0  0
   -4.4467   -2.2436   -0.9708 H   0  0  0  0  0  0  0  0  0  0  0  0
   -4.1780   -0.7634   -1.8915 H   0  0  0  0  0  0  0  0  0  0  0  0
    4.4445    2.2428   -0.9807 H   0  0  0  0  0  0  0  0  0  0  0  0
    4.1797    0.7580   -1.8950 H   0  0  0  0  0  0  0  0  0  0  0  0
   -6.2120   -0.4889   -0.5668 H   0  0  0  0  0  0  0  0  0  0  0  0
   -5.3857   -0.9929    0.9062 H   0  0  0  0  0  0  0  0  0  0  0  0
    6.2130    0.4934   -0.5671 H   0  0  0  0  0  0  0  0  0  0  0  0
    5.3842    1.0021    0.9029 H   0  0  0  0  0  0  0  0  0  0  0  0
   -3.2984    2.0423    1.0325 H   0  0  0  0  0  0  0  0  0  0  0  0
    3.3025   -2.0365    1.0403 H   0  0  0  0  0  0  0  0  0  0  0  0
   -4.8518    1.5623   -0.7037 H   0  0  0  0  0  0  0  0  0  0  0  0
   -5.5882    1.4420    0.8924 H   0  0  0  0  0  0  0  0  0  0  0  0
    4.8567   -1.5612   -0.6965 H   0  0  0  0  0  0  0  0  0  0  0  0
    5.5912   -1.4326    0.8999 H   0  0  0  0  0  0  0  0  0  0  0  0
  1 16  2  0  0  0  0
  2  4  1  0  0  0  0
  2 14  1  0  0  0  0
  2 35  1  0  0  0  0
  3  5  1  0  0  0  0
  3 15  1  0  0  0  0
  3 36  1  0  0  0  0
  4  6  1  0  0  0  0
  4  8  1  0  0  0  0
  4 17  1  0  0  0  0
  5  7  1  0  0  0  0
  5  9  1  0  0  0  0
  5 18  1  0  0  0  0
  6 10  1  0  0  0  0
  6 19  1  0  0  0  0
  6 20  1  0  0  0  0
  7 11  1  0  0  0  0
  7 21  1  0  0  0  0
  7 22  1  0  0  0  0
  8 16  1  0  0  0  0
  8 23  1  0  0  0  0
  8 24  1  0  0  0  0
  9 16  1  0  0  0  0
  9 25  1  0  0  0  0
  9 26  1  0  0  0  0
 10 12  1  0  0  0  0
 10 27  1  0  0  0  0
 10 28  1  0  0  0  0
 11 13  1  0  0  0  0
 11 29  1  0  0  0  0
 11 30  1  0  0  0  0
 12 14  1  0  0  0  0
 12 31  1  0  0  0  0
 12 32  1  0  0  0  0
 13 15  1  0  0  0  0
 13 33  1  0  0  0  0
 13 34  1  0  0  0  0
 14 37  1  0  0  0  0
 14 38  1  0  0  0  0
 15 39  1  0  0  0  0
 15 40  1  0  0  0  0
M  END
> <PUBCHEM_COMPOUND_CID>
443143

> <PUBCHEM_CONFORMER_RMSD>
0.8

> <PUBCHEM_CONFORMER_DIVERSEORDER>
1
22
51
2
94
60
41
91
97
27
82
68
26
44
33
65
19
17
70
58
77
10
49
75
66
29
67
9
32
88
11
23
52
61
101
83
7
20
69
12
87
47
90
79
4
99
3
40
86
42
13
55
73
18
36
100
78
85
104
38
93
81
59
31
84
16
6
80
15
76
102
96
43
98
37
50
24
8
71
92
89
64
95
14
39
57
63
72
56
48
25
35
5
28
74
30
21
62
103
54
34
45
53
46

> <PUBCHEM_MMFF94_PARTIAL_CHARGES>
12
1 -0.57
14 0.27
15 0.27
16 0.45
2 -0.9
3 -0.9
35 0.36
36 0.36
4 0.27
5 0.27
8 0.06
9 0.06

> <PUBCHEM_EFFECTIVE_ROTOR_COUNT>
6.4

> <PUBCHEM_PHARMACOPHORE_FEATURES>
7
1 1 acceptor
1 2 cation
1 2 donor
1 3 cation
1 3 donor
6 2 4 6 10 12 14 rings
6 3 5 7 11 13 15 rings

> <PUBCHEM_HEAVY_ATOM_COUNT>
16

> <PUBCHEM_ATOM_DEF_STEREO_COUNT>
2

> <PUBCHEM_ATOM_UDEF_STEREO_COUNT>
0

> <PUBCHEM_BOND_DEF_STEREO_COUNT>
0

> <PUBCHEM_BOND_UDEF_STEREO_COUNT>
0

> <PUBCHEM_ISOTOPIC_ATOM_COUNT>
0

> <PUBCHEM_COMPONENT_COUNT>
1

> <PUBCHEM_CACTVS_TAUTO_COUNT>
2

> <PUBCHEM_CONFORMER_ID>
0006C30700000001

> <PUBCHEM_MMFF94_ENERGY>
-1.8215

> <PUBCHEM_FEATURE_SELFOVERLAP>
35.52

> <PUBCHEM_SHAPE_FINGERPRINT>
10680689 15 15697999626554903691
10912923 1 18410855468718096723
11287383 113 17418371363720600603
11401426 45 15985386676961011627
11471102 20 17989204837768657028
12107183 9 17690280838303849569
12236239 1 18410855464423129092
13167823 11 18411420613442328803
13675066 3 4823215026161289323
13760787 19 18334013895446014487
14123238 8 18410575084663078928
1420 363 17418087715822812627
14251718 22 18187645773547697269
14528608 73 18340764854207306540
14573314 32 16009020717865027201
15375358 24 15913610570594746859
17834072 33 18410576162705144972
17834076 25 18343864407466173963
18186145 218 17203892950478957090
19026448 5 18410855468718096410
19489759 90 17676489462573200577
200 152 18413392033516790113
20279233 1 15647053767649755574
20645477 70 17846222197871856538
22646028 1 18410576188490799018
2297311 6 17240474802189759081
23402539 116 18408326601039107893
23402655 69 18413107281554028464
23557571 272 16950831600498545913
23559900 14 18261119521392978904
265663 24 18409448085450401846
26918003 58 17275100630597703161
29717793 49 18334858341972088214
300161 21 18411425011456925056
34797466 226 17385997326320642532
4214541 1 18408041831722260809
42788 4 18411138038911467547
4990 188 17530676606995466588
5104073 3 18410855442948293560
522135 26 18202282516045888674
542803 24 18342455945613048913
573450 72 18334299790139050331
7495541 125 17822296747283147864
77779 3 18410292510180021746

> <PUBCHEM_SHAPE_MULTIPOLES>
313.44
12.88
1.26
0.94
0.02
0
-0.08
0.01
-0.51
0
-0.01
0
0
-1.21

> <PUBCHEM_SHAPE_SELFOVERLAP>
622.225

> <PUBCHEM_SHAPE_VOLUME>
183.5

> <PUBCHEM_COORDINATE_TYPE>
2
5
10

$$$$

