440912
  -OEChem-07051212513D

 58 63  0     1  0  0  0  0  0999 V2000
    1.6773    2.1517    0.7711 O   0  0  0  0  0  0  0  0  0  0  0  0
   -3.3337   -2.1599    0.0582 O   0  0  0  0  0  0  0  0  0  0  0  0
    3.0753    0.8872   -0.6356 N   0  0  2  0  0  0  0  0  0  0  0  0
    0.6212    0.1378   -0.2804 C   0  0  2  0  0  0  0  0  0  0  0  0
   -0.7525    0.7130    0.2672 C   0  0  2  0  0  0  0  0  0  0  0  0
   -1.8091   -0.3538    0.7534 C   0  0  1  0  0  0  0  0  0  0  0  0
    1.1618   -0.9207    0.7260 C   0  0  2  0  0  0  0  0  0  0  0  0
    2.5329   -1.4534    0.2147 C   0  0  2  0  0  0  0  0  0  0  0  0
    1.6848    1.2935   -0.3812 C   0  0  1  0  0  0  0  0  0  0  0  0
   -1.1323   -1.3937    1.6587 C   0  0  0  0  0  0  0  0  0  0  0  0
    0.1164   -2.0087    1.0356 C   0  0  0  0  0  0  0  0  0  0  0  0
    0.4737   -0.5234   -1.6862 C   0  0  0  0  0  0  0  0  0  0  0  0
   -2.8799    0.4196    1.5688 C   0  0  0  0  0  0  0  0  0  0  0  0
   -1.3962    1.7885   -0.6388 C   0  0  0  0  0  0  0  0  0  0  0  0
   -2.7198   -0.9479   -0.3703 C   0  0  2  0  0  0  0  0  0  0  0  0
   -3.6208    1.1848    0.4735 C   0  0  1  0  0  0  0  0  0  0  0  0
    3.5147   -0.2476    0.1881 C   0  0  0  0  0  0  0  0  0  0  0  0
    2.3960   -2.1022   -1.1827 C   0  0  0  0  0  0  0  0  0  0  0  0
   -2.7264    2.3085   -0.0691 C   0  0  0  0  0  0  0  0  0  0  0  0
    1.7237   -1.2172   -2.2255 C   0  0  0  0  0  0  0  0  0  0  0  0
   -3.7921    0.1021   -0.5598 C   0  0  0  0  0  0  0  0  0  0  0  0
    3.1272   -2.5050    1.1760 C   0  0  0  0  0  0  0  0  0  0  0  0
    3.7998    2.1096   -0.2733 C   0  0  0  0  0  0  0  0  0  0  0  0
    3.0115    2.6633    0.9014 C   0  0  0  0  0  0  0  0  0  0  0  0
   -4.7535    0.0737   -1.4900 C   0  0  0  0  0  0  0  0  0  0  0  0
   -0.4808    1.2492    1.1902 H   0  0  0  0  0  0  0  0  0  0  0  0
    1.3526   -0.4094    1.6828 H   0  0  0  0  0  0  0  0  0  0  0  0
    1.3866    1.9333   -1.2237 H   0  0  0  0  0  0  0  0  0  0  0  0
   -1.8268   -2.1920    1.9440 H   0  0  0  0  0  0  0  0  0  0  0  0
   -0.8421   -0.9128    2.6034 H   0  0  0  0  0  0  0  0  0  0  0  0
    0.5218   -2.7248    1.7584 H   0  0  0  0  0  0  0  0  0  0  0  0
   -0.1533   -2.5845    0.1451 H   0  0  0  0  0  0  0  0  0  0  0  0
    0.1477    0.2159   -2.4265 H   0  0  0  0  0  0  0  0  0  0  0  0
   -0.2970   -1.2922   -1.6605 H   0  0  0  0  0  0  0  0  0  0  0  0
   -2.4463    1.0855    2.3238 H   0  0  0  0  0  0  0  0  0  0  0  0
   -3.5573   -0.2693    2.0920 H   0  0  0  0  0  0  0  0  0  0  0  0
   -1.5761    1.3850   -1.6411 H   0  0  0  0  0  0  0  0  0  0  0  0
   -0.7223    2.6421   -0.7682 H   0  0  0  0  0  0  0  0  0  0  0  0
   -2.1977   -1.1393   -1.3045 H   0  0  0  0  0  0  0  0  0  0  0  0
   -4.5735    1.5803    0.8396 H   0  0  0  0  0  0  0  0  0  0  0  0
    3.6903    0.0684    1.2258 H   0  0  0  0  0  0  0  0  0  0  0  0
    4.4879   -0.5831   -0.1941 H   0  0  0  0  0  0  0  0  0  0  0  0
    1.8139   -3.0291   -1.0969 H   0  0  0  0  0  0  0  0  0  0  0  0
    3.3825   -2.4042   -1.5575 H   0  0  0  0  0  0  0  0  0  0  0  0
   -2.5138    3.0174    0.7413 H   0  0  0  0  0  0  0  0  0  0  0  0
   -3.2539    2.8721   -0.8482 H   0  0  0  0  0  0  0  0  0  0  0  0
    1.4479   -1.8314   -3.0920 H   0  0  0  0  0  0  0  0  0  0  0  0
    2.4313   -0.4799   -2.6180 H   0  0  0  0  0  0  0  0  0  0  0  0
    4.1529   -2.7636    0.8880 H   0  0  0  0  0  0  0  0  0  0  0  0
    3.1555   -2.1302    2.2051 H   0  0  0  0  0  0  0  0  0  0  0  0
    2.5511   -3.4360    1.1714 H   0  0  0  0  0  0  0  0  0  0  0  0
    3.7494    2.8104   -1.1160 H   0  0  0  0  0  0  0  0  0  0  0  0
    4.8606    1.9590   -0.0464 H   0  0  0  0  0  0  0  0  0  0  0  0
    3.4095    2.3219    1.8623 H   0  0  0  0  0  0  0  0  0  0  0  0
    2.9804    3.7567    0.9002 H   0  0  0  0  0  0  0  0  0  0  0  0
   -3.8437   -2.5144   -0.6901 H   0  0  0  0  0  0  0  0  0  0  0  0
   -4.8185   -0.7411   -2.2026 H   0  0  0  0  0  0  0  0  0  0  0  0
   -5.4903    0.8667   -1.5566 H   0  0  0  0  0  0  0  0  0  0  0  0
  1  9  1  0  0  0  0
  1 24  1  0  0  0  0
  2 15  1  0  0  0  0
  2 56  1  0  0  0  0
  3  9  1  0  0  0  0
  3 17  1  0  0  0  0
  3 23  1  0  0  0  0
  4  5  1  0  0  0  0
  4  7  1  0  0  0  0
  4  9  1  0  0  0  0
  4 12  1  0  0  0  0
  5  6  1  0  0  0  0
  5 14  1  0  0  0  0
  5 26  1  0  0  0  0
  6 10  1  0  0  0  0
  6 13  1  0  0  0  0
  6 15  1  0  0  0  0
  7  8  1  0  0  0  0
  7 11  1  0  0  0  0
  7 27  1  0  0  0  0
  8 17  1  0  0  0  0
  8 18  1  0  0  0  0
  8 22  1  0  0  0  0
  9 28  1  0  0  0  0
 10 11  1  0  0  0  0
 10 29  1  0  0  0  0
 10 30  1  0  0  0  0
 11 31  1  0  0  0  0
 11 32  1  0  0  0  0
 12 20  1  0  0  0  0
 12 33  1  0  0  0  0
 12 34  1  0  0  0  0
 13 16  1  0  0  0  0
 13 35  1  0  0  0  0
 13 36  1  0  0  0  0
 14 19  1  0  0  0  0
 14 37  1  0  0  0  0
 14 38  1  0  0  0  0
 15 21  1  0  0  0  0
 15 39  1  0  0  0  0
 16 19  1  0  0  0  0
 16 21  1  0  0  0  0
 16 40  1  0  0  0  0
 17 41  1  0  0  0  0
 17 42  1  0  0  0  0
 18 20  1  0  0  0  0
 18 43  1  0  0  0  0
 18 44  1  0  0  0  0
 19 45  1  0  0  0  0
 19 46  1  0  0  0  0
 20 47  1  0  0  0  0
 20 48  1  0  0  0  0
 21 25  2  0  0  0  0
 22 49  1  0  0  0  0
 22 50  1  0  0  0  0
 22 51  1  0  0  0  0
 23 24  1  0  0  0  0
 23 52  1  0  0  0  0
 23 53  1  0  0  0  0
 24 54  1  0  0  0  0
 24 55  1  0  0  0  0
 25 57  1  0  0  0  0
 25 58  1  0  0  0  0
M  END
> <PUBCHEM_COMPOUND_CID>
440912

> <PUBCHEM_CONFORMER_RMSD>
0.6

> <PUBCHEM_CONFORMER_DIVERSEORDER>
1
9
11
5
4
3
12
8
2
10
6
7

> <PUBCHEM_MMFF94_PARTIAL_CHARGES>
14
1 -0.56
15 0.42
16 0.14
17 0.27
2 -0.68
21 -0.28
23 0.27
24 0.28
25 -0.3
3 -0.81
56 0.4
57 0.15
58 0.15
9 0.55

> <PUBCHEM_EFFECTIVE_ROTOR_COUNT>
2.6

> <PUBCHEM_PHARMACOPHORE_FEATURES>
9
1 1 acceptor
1 2 acceptor
1 2 donor
1 3 cation
5 1 3 9 23 24 rings
6 3 4 7 8 9 17 rings
6 4 5 6 7 10 11 rings
6 4 7 8 12 18 20 rings
8 5 6 13 14 15 16 19 21 rings

> <PUBCHEM_HEAVY_ATOM_COUNT>
25

> <PUBCHEM_ATOM_DEF_STEREO_COUNT>
3

> <PUBCHEM_ATOM_UDEF_STEREO_COUNT>
5

> <PUBCHEM_BOND_DEF_STEREO_COUNT>
0

> <PUBCHEM_BOND_UDEF_STEREO_COUNT>
0

> <PUBCHEM_ISOTOPIC_ATOM_COUNT>
0

> <PUBCHEM_COMPONENT_COUNT>
1

> <PUBCHEM_CACTVS_TAUTO_COUNT>
1

> <PUBCHEM_CONFORMER_ID>
0006BA5000000001

> <PUBCHEM_MMFF94_ENERGY>
100.8841

> <PUBCHEM_FEATURE_SELFOVERLAP>
47.63

> <PUBCHEM_SHAPE_FINGERPRINT>
10366900 7 18412539886473168116
10863032 1 18410858724498635019
10871710 139 16031265642182400692
10948715 1 18263925428307628292
1100329 8 16038594608698389336
11370993 70 18200600193960947456
11578080 2 17488197056776577508
12011746 2 18272370888942803870
12403260 363 18340780341511079817
12553582 1 18121769784205436122
12596599 1 17970340632160034321
12633257 1 18341615949094944984
12788726 201 17547558736541855802
13009979 54 16661752461773753750
13134695 92 18337677532967499988
13140716 1 18343013415552386411
13224815 77 17988634190679914417
13464514 151 18338220635808630696
13583140 156 18339929212142357919
14178342 30 17631721656594596882
14223421 5 18409442561932496625
14955137 171 17620743325434015195
15163728 17 17342338984199895628
16945 1 18268142244162698851
17349148 13 17822018660956661567
17492 89 18409167710086513759
17980427 23 17896056479868195434
18186145 218 18201711890548176471
18681886 176 17676213455248106694
192875 21 18189348998958900059
20600515 1 17614573961411362152
20691752 17 17775281711752714365
20905425 154 18409165506688441940
21033648 29 17489598882467548701
21501502 16 18409166636185674081
21524375 3 18117557323800781064
22149856 69 17703494577229180345
22182313 1 18129649817033653355
22393880 68 18334854983202089862
23419403 2 16195416594932222738
23493267 7 14418670598570331731
23557571 272 18058156242285317899
23558518 356 18341606049391006201
23559900 14 18272655632173368280
238 59 18261116214284101720
2748010 2 18129080265441197923
296302 2 17560803190841216716
3286 77 18129669732375017918
4280585 95 17535449741844316550
474 4 18271244906888575476
495365 180 18341062847216586010
5104073 3 18412541042172663009
5262128 65 17969771059166576052
5895379 119 17606113137309332952
7364860 26 18335419093034141848
9709674 26 18335416902432158991
9981440 41 18055078657683559832

> <PUBCHEM_SHAPE_MULTIPOLES>
497.77
7.35
2.82
1.57
3.52
0.59
0.36
1.09
0.78
-2.04
-0.54
0.03
-0.6
0.22

> <PUBCHEM_SHAPE_SELFOVERLAP>
1096.47

> <PUBCHEM_SHAPE_VOLUME>
260.5

> <PUBCHEM_COORDINATE_TYPE>
2
5
10

$$$$

