47205554
  -OEChem-06241222592D

 33 33  0     1  0  0  0  0  0999 V2000
    6.8671    2.8170    0.0000 S   0  0  0  0  0  0  0  0  0  0  0  0
    6.3671    3.6830    0.0000 O   0  0  0  0  0  0  0  0  0  0  0  0
    7.3671    1.9510    0.0000 O   0  0  0  0  0  0  0  0  0  0  0  0
    6.8671    0.8170    0.0000 O   0  0  0  0  0  0  0  0  0  0  0  0
    3.4030   -0.1830    0.0000 O   0  0  0  0  0  0  0  0  0  0  0  0
    2.5369   -1.6830    0.0000 O   0  0  0  0  0  0  0  0  0  0  0  0
    5.1350    0.8170    0.0000 N   0  0  0  0  0  0  0  0  0  0  0  0
    5.1350   -0.1830    0.0000 N   0  0  0  0  0  0  0  0  0  0  0  0
    6.0010    2.3170    0.0000 C   0  0  3  0  0  0  0  0  0  0  0  0
    5.1350    2.8170    0.0000 C   0  0  0  0  0  0  0  0  0  0  0  0
    6.0010    1.3170    0.0000 C   0  0  0  0  0  0  0  0  0  0  0  0
    7.7331    3.3170    0.0000 C   0  0  0  0  0  0  0  0  0  0  0  0
    4.2690   -1.6830    0.0000 C   0  0  0  0  0  0  0  0  0  0  0  0
    4.2690   -0.6830    0.0000 C   0  0  0  0  0  0  0  0  0  0  0  0
    3.4030   -2.1830    0.0000 C   0  0  0  0  0  0  0  0  0  0  0  0
    5.1350   -2.1830    0.0000 C   0  0  0  0  0  0  0  0  0  0  0  0
    3.4030   -3.1830    0.0000 C   0  0  0  0  0  0  0  0  0  0  0  0
    5.1350   -3.1830    0.0000 C   0  0  0  0  0  0  0  0  0  0  0  0
    4.2690   -3.6830    0.0000 C   0  0  0  0  0  0  0  0  0  0  0  0
    6.0010    2.9370    0.0000 H   0  0  0  0  0  0  0  0  0  0  0  0
    5.4450    3.3539    0.0000 H   0  0  0  0  0  0  0  0  0  0  0  0
    4.5981    3.1270    0.0000 H   0  0  0  0  0  0  0  0  0  0  0  0
    4.8250    2.2800    0.0000 H   0  0  0  0  0  0  0  0  0  0  0  0
    8.0431    2.7800    0.0000 H   0  0  0  0  0  0  0  0  0  0  0  0
    8.2700    3.6270    0.0000 H   0  0  0  0  0  0  0  0  0  0  0  0
    7.4231    3.8539    0.0000 H   0  0  0  0  0  0  0  0  0  0  0  0
    4.5981    1.1270    0.0000 H   0  0  0  0  0  0  0  0  0  0  0  0
    5.6720   -0.4930    0.0000 H   0  0  0  0  0  0  0  0  0  0  0  0
    5.6720   -1.8730    0.0000 H   0  0  0  0  0  0  0  0  0  0  0  0
    2.8660   -3.4930    0.0000 H   0  0  0  0  0  0  0  0  0  0  0  0
    5.6720   -3.4930    0.0000 H   0  0  0  0  0  0  0  0  0  0  0  0
    4.2690   -4.3030    0.0000 H   0  0  0  0  0  0  0  0  0  0  0  0
    2.0000   -1.9930    0.0000 H   0  0  0  0  0  0  0  0  0  0  0  0
  1  2  2  0  0  0  0
  1  3  2  0  0  0  0
  1  9  1  0  0  0  0
  1 12  1  0  0  0  0
  4 11  2  0  0  0  0
  5 14  2  0  0  0  0
  6 15  1  0  0  0  0
  6 33  1  0  0  0  0
  7  8  1  0  0  0  0
  7 11  1  0  0  0  0
  7 27  1  0  0  0  0
  8 14  1  0  0  0  0
  8 28  1  0  0  0  0
  9 10  1  0  0  0  0
  9 11  1  0  0  0  0
  9 20  1  0  0  0  0
 10 21  1  0  0  0  0
 10 22  1  0  0  0  0
 10 23  1  0  0  0  0
 12 24  1  0  0  0  0
 12 25  1  0  0  0  0
 12 26  1  0  0  0  0
 13 14  1  0  0  0  0
 13 15  1  0  0  0  0
 13 16  2  0  0  0  0
 15 17  2  0  0  0  0
 16 18  1  0  0  0  0
 16 29  1  0  0  0  0
 17 19  1  0  0  0  0
 17 30  1  0  0  0  0
 18 19  2  0  0  0  0
 18 31  1  0  0  0  0
 19 32  1  0  0  0  0
M  END
> <PUBCHEM_COMPOUND_CID>
47205554

> <PUBCHEM_COMPOUND_CANONICALIZED>
1

> <PUBCHEM_CACTVS_COMPLEXITY>
443

> <PUBCHEM_CACTVS_HBOND_ACCEPTOR>
5

> <PUBCHEM_CACTVS_HBOND_DONOR>
3

> <PUBCHEM_CACTVS_ROTATABLE_BOND>
3

> <PUBCHEM_CACTVS_SUBSKEYS>
AAADccBzOABAAAAAAAAAAAAAAAAAAAAAAAAwAAAAAAAAAAABAAAAHgQYCAAADASF2ACyBoBiAgqIAiFSEHDCAAAkIBIaqAEGDMgIJjaClROAcUBm8BEImYeYyCCOAAAAAAAIAAAAAAAAABAAAAAAAAAAAA==

> <PUBCHEM_IUPAC_OPENEYE_NAME>
2-hydroxy-N'-(2-methylsulfonylpropanoyl)benzohydrazide

> <PUBCHEM_IUPAC_CAS_NAME>
2-hydroxy-N'-(2-methylsulfonyl-1-oxopropyl)benzohydrazide

> <PUBCHEM_IUPAC_NAME>
2-hydroxy-N'-(2-methylsulfonylpropanoyl)benzohydrazide

> <PUBCHEM_IUPAC_SYSTEMATIC_NAME>
N'-(2-methylsulfonylpropanoyl)-2-oxidanyl-benzohydrazide

> <PUBCHEM_IUPAC_TRADITIONAL_NAME>
2-hydroxy-N'-(2-mesylpropanoyl)benzohydrazide

> <PUBCHEM_IUPAC_INCHI>
InChI=1S/C11H14N2O5S/c1-7(19(2,17)18)10(15)12-13-11(16)8-5-3-4-6-9(8)14/h3-7,14H,1-2H3,(H,12,15)(H,13,16)

> <PUBCHEM_IUPAC_INCHIKEY>
SEZBVIDFEUMTKQ-UHFFFAOYSA-N

> <PUBCHEM_XLOGP3_AA>
0.7

> <PUBCHEM_EXACT_MASS>
286.062343

> <PUBCHEM_MOLECULAR_FORMULA>
C11H14N2O5S

> <PUBCHEM_MOLECULAR_WEIGHT>
286.30426

> <PUBCHEM_OPENEYE_CAN_SMILES>
CC(C(=O)NNC(=O)C1=CC=CC=C1O)S(=O)(=O)C

> <PUBCHEM_OPENEYE_ISO_SMILES>
CC(C(=O)NNC(=O)C1=CC=CC=C1O)S(=O)(=O)C

> <PUBCHEM_CACTVS_TPSA>
121

> <PUBCHEM_MONOISOTOPIC_WEIGHT>
286.062343

> <PUBCHEM_TOTAL_CHARGE>
0

> <PUBCHEM_HEAVY_ATOM_COUNT>
19

> <PUBCHEM_ATOM_DEF_STEREO_COUNT>
0

> <PUBCHEM_ATOM_UDEF_STEREO_COUNT>
1

> <PUBCHEM_BOND_DEF_STEREO_COUNT>
0

> <PUBCHEM_BOND_UDEF_STEREO_COUNT>
0

> <PUBCHEM_ISOTOPIC_ATOM_COUNT>
0

> <PUBCHEM_COMPONENT_COUNT>
1

> <PUBCHEM_CACTVS_TAUTO_COUNT>
33

> <PUBCHEM_COORDINATE_TYPE>
1
5
255

> <PUBCHEM_BONDANNOTATIONS>
13  15  8
13  16  8
15  17  8
16  18  8
17  19  8
18  19  8
9  10  3

$$$$

