440456
  -OEChem-07051212493D

 29 30  0     1  0  0  0  0  0999 V2000
    0.8094   -0.6343    0.9489 O   0  0  0  0  0  0  0  0  0  0  0  0
   -1.5157   -0.6125    0.3758 O   0  0  0  0  0  0  0  0  0  0  0  0
   -2.9331    1.1135    0.3710 O   0  0  0  0  0  0  0  0  0  0  0  0
    0.6001    1.0254   -0.8722 C   0  0  1  0  0  0  0  0  0  0  0  0
    1.3994    0.5256    0.3575 C   0  0  0  0  0  0  0  0  0  0  0  0
    0.4512   -0.0753   -1.9289 C   0  0  0  0  0  0  0  0  0  0  0  0
   -0.2302   -1.2583    0.1982 C   0  0  1  0  0  0  0  0  0  0  0  0
    0.1016   -1.4114   -1.2884 C   0  0  0  0  0  0  0  0  0  0  0  0
   -0.7858    1.5758   -0.5212 C   0  0  0  0  0  0  0  0  0  0  0  0
    1.4853    1.5835    1.4679 C   0  0  0  0  0  0  0  0  0  0  0  0
    2.8389    0.1452   -0.0345 C   0  0  0  0  0  0  0  0  0  0  0  0
   -0.4078   -2.6489    0.8158 C   0  0  0  0  0  0  0  0  0  0  0  0
   -1.8132    0.6716    0.1101 C   0  0  0  0  0  0  0  0  0  0  0  0
    1.1542    1.8550   -1.3334 H   0  0  0  0  0  0  0  0  0  0  0  0
    1.3842   -0.1807   -2.4962 H   0  0  0  0  0  0  0  0  0  0  0  0
   -0.3092    0.1972   -2.6712 H   0  0  0  0  0  0  0  0  0  0  0  0
   -0.7387   -1.8613   -1.8309 H   0  0  0  0  0  0  0  0  0  0  0  0
    0.9614   -2.0824   -1.4090 H   0  0  0  0  0  0  0  0  0  0  0  0
   -1.2448    1.9529   -1.4453 H   0  0  0  0  0  0  0  0  0  0  0  0
   -0.6766    2.4436    0.1392 H   0  0  0  0  0  0  0  0  0  0  0  0
    2.1346    1.2422    2.2832 H   0  0  0  0  0  0  0  0  0  0  0  0
    1.8790    2.5327    1.0908 H   0  0  0  0  0  0  0  0  0  0  0  0
    0.5087    1.7615    1.9307 H   0  0  0  0  0  0  0  0  0  0  0  0
    2.8654   -0.7010   -0.7280 H   0  0  0  0  0  0  0  0  0  0  0  0
    3.3655    0.9883   -0.4935 H   0  0  0  0  0  0  0  0  0  0  0  0
    3.4085   -0.1788    0.8448 H   0  0  0  0  0  0  0  0  0  0  0  0
   -0.6739   -2.5656    1.8763 H   0  0  0  0  0  0  0  0  0  0  0  0
   -1.2125   -3.2064    0.3243 H   0  0  0  0  0  0  0  0  0  0  0  0
    0.5182   -3.2315    0.7612 H   0  0  0  0  0  0  0  0  0  0  0  0
  1  5  1  0  0  0  0
  1  7  1  0  0  0  0
  2  7  1  0  0  0  0
  2 13  1  0  0  0  0
  3 13  2  0  0  0  0
  4  5  1  0  0  0  0
  4  6  1  0  0  0  0
  4  9  1  0  0  0  0
  4 14  1  0  0  0  0
  5 10  1  0  0  0  0
  5 11  1  0  0  0  0
  6  8  1  0  0  0  0
  6 15  1  0  0  0  0
  6 16  1  0  0  0  0
  7  8  1  0  0  0  0
  7 12  1  0  0  0  0
  8 17  1  0  0  0  0
  8 18  1  0  0  0  0
  9 13  1  0  0  0  0
  9 19  1  0  0  0  0
  9 20  1  0  0  0  0
 10 21  1  0  0  0  0
 10 22  1  0  0  0  0
 10 23  1  0  0  0  0
 11 24  1  0  0  0  0
 11 25  1  0  0  0  0
 11 26  1  0  0  0  0
 12 27  1  0  0  0  0
 12 28  1  0  0  0  0
 12 29  1  0  0  0  0
M  END
> <PUBCHEM_COMPOUND_CID>
440456

> <PUBCHEM_CONFORMER_RMSD>
0.4

> <PUBCHEM_CONFORMER_DIVERSEORDER>
1
2

> <PUBCHEM_MMFF94_PARTIAL_CHARGES>
7
1 -0.56
13 0.66
2 -0.43
3 -0.57
5 0.28
7 0.56
9 0.06

> <PUBCHEM_EFFECTIVE_ROTOR_COUNT>
1.2

> <PUBCHEM_PHARMACOPHORE_FEATURES>
4
1 1 acceptor
1 3 acceptor
3 5 10 11 hydrophobe
9 1 2 4 5 6 7 8 9 13 rings

> <PUBCHEM_HEAVY_ATOM_COUNT>
13

> <PUBCHEM_ATOM_DEF_STEREO_COUNT>
0

> <PUBCHEM_ATOM_UDEF_STEREO_COUNT>
2

> <PUBCHEM_BOND_DEF_STEREO_COUNT>
0

> <PUBCHEM_BOND_UDEF_STEREO_COUNT>
0

> <PUBCHEM_ISOTOPIC_ATOM_COUNT>
0

> <PUBCHEM_COMPONENT_COUNT>
1

> <PUBCHEM_CACTVS_TAUTO_COUNT>
1

> <PUBCHEM_CONFORMER_ID>
0006B88800000001

> <PUBCHEM_MMFF94_ENERGY>
46.0168

> <PUBCHEM_FEATURE_SELFOVERLAP>
20.297

> <PUBCHEM_SHAPE_FINGERPRINT>
10702982 57 17531832202005461582
12326174 3 17899700347180554413
12423570 1 14712320269608256894
13024252 1 13035862163277382816
137420 1 8196521265854835108
14817 1 5825576310404266308
15557651 10 18261685864486816084
16945 1 18200876283053975876
20511035 2 18116993295414910084
21040471 1 18341605988828362729
21922407 69 17339274520153311568
22344851 341 17761760063614096328
23419403 2 17391866553796759838
2748010 2 18342733022817626511
5084963 1 18408325458192698121
54276843 12 17203322321308743644

> <PUBCHEM_SHAPE_MULTIPOLES>
249.93
2.67
2.14
1.44
0.22
0.86
0.43
-1.02
-0.68
-0.8
-0.47
0.34
0.08
0.29

> <PUBCHEM_SHAPE_SELFOVERLAP>
520.6

> <PUBCHEM_SHAPE_VOLUME>
138.9

> <PUBCHEM_COORDINATE_TYPE>
2
5
10

$$$$

