13248
  -OEChem-06261208062D

 30 30  0     1  0  0  0  0  0999 V2000
    2.4607   -0.5064    0.0000 S   0  0  0  0  0  0  0  0  0  0  0  0
    5.9809   -0.5064    0.0000 O   0  0  0  0  0  0  0  0  0  0  0  0
    4.2208   -0.7852    0.0000 N   0  0  0  0  0  0  0  0  0  0  0  0
    3.7208    0.7536    0.0000 N   0  0  0  0  0  0  0  0  0  0  0  0
    5.3086    1.5626    0.0000 C   0  0  0  0  0  0  0  0  0  0  0  0
    4.7208    0.7536    0.0000 C   0  0  3  0  0  0  0  0  0  0  0  0
    4.9019    2.4762    0.0000 C   0  0  0  0  0  0  0  0  0  0  0  0
    5.0298   -0.1974    0.0000 C   0  0  0  0  0  0  0  0  0  0  0  0
    5.4897    3.2852    0.0000 C   0  0  0  0  0  0  0  0  0  0  0  0
    3.9074    2.5807    0.0000 C   0  0  0  0  0  0  0  0  0  0  0  0
    3.4118   -0.1974    0.0000 C   0  0  0  0  0  0  0  0  0  0  0  0
    4.2208   -1.7852    0.0000 C   0  0  0  0  0  0  0  0  0  0  0  0
    3.3548   -2.2852    0.0000 C   0  0  0  0  0  0  0  0  0  0  0  0
    3.3548   -3.2852    0.0000 C   0  0  0  0  0  0  0  0  0  0  0  0
    5.7393    1.1167    0.0000 H   0  0  0  0  0  0  0  0  0  0  0  0
    5.8226    1.9093    0.0000 H   0  0  0  0  0  0  0  0  0  0  0  0
    4.4393    1.3061    0.0000 H   0  0  0  0  0  0  0  0  0  0  0  0
    4.6497    3.0426    0.0000 H   0  0  0  0  0  0  0  0  0  0  0  0
    5.9912    2.9208    0.0000 H   0  0  0  0  0  0  0  0  0  0  0  0
    5.8541    3.7868    0.0000 H   0  0  0  0  0  0  0  0  0  0  0  0
    4.9881    3.6496    0.0000 H   0  0  0  0  0  0  0  0  0  0  0  0
    3.9722    3.1973    0.0000 H   0  0  0  0  0  0  0  0  0  0  0  0
    3.2907    2.6455    0.0000 H   0  0  0  0  0  0  0  0  0  0  0  0
    3.8425    1.9641    0.0000 H   0  0  0  0  0  0  0  0  0  0  0  0
    4.4329   -2.3678    0.0000 H   0  0  0  0  0  0  0  0  0  0  0  0
    4.8314   -1.6775    0.0000 H   0  0  0  0  0  0  0  0  0  0  0  0
    2.8179   -1.9752    0.0000 H   0  0  0  0  0  0  0  0  0  0  0  0
    2.0000   -0.0916    0.0000 H   0  0  0  0  0  0  0  0  0  0  0  0
    2.8179   -3.5952    0.0000 H   0  0  0  0  0  0  0  0  0  0  0  0
    3.8917   -3.5952    0.0000 H   0  0  0  0  0  0  0  0  0  0  0  0
  1 11  1  0  0  0  0
  1 28  1  0  0  0  0
  2  8  2  0  0  0  0
  3  8  1  0  0  0  0
  3 11  1  0  0  0  0
  3 12  1  0  0  0  0
  4  6  1  0  0  0  0
  4 11  2  0  0  0  0
  5  6  1  0  0  0  0
  5  7  1  0  0  0  0
  5 15  1  0  0  0  0
  5 16  1  0  0  0  0
  6  8  1  0  0  0  0
  6 17  1  0  0  0  0
  7  9  1  0  0  0  0
  7 10  1  0  0  0  0
  7 18  1  0  0  0  0
  9 19  1  0  0  0  0
  9 20  1  0  0  0  0
  9 21  1  0  0  0  0
 10 22  1  0  0  0  0
 10 23  1  0  0  0  0
 10 24  1  0  0  0  0
 12 13  1  0  0  0  0
 12 25  1  0  0  0  0
 12 26  1  0  0  0  0
 13 14  2  0  0  0  0
 13 27  1  0  0  0  0
 14 29  1  0  0  0  0
 14 30  1  0  0  0  0
M  END
> <PUBCHEM_COMPOUND_CID>
13248

> <PUBCHEM_COMPOUND_CANONICALIZED>
1

> <PUBCHEM_CACTVS_COMPLEXITY>
273

> <PUBCHEM_CACTVS_HBOND_ACCEPTOR>
3

> <PUBCHEM_CACTVS_HBOND_DONOR>
1

> <PUBCHEM_CACTVS_ROTATABLE_BOND>
4

> <PUBCHEM_CACTVS_SUBSKEYS>
AAADceBzIABAAAAAAAAAAAAAAAAAAQAAAAAAAAAAAAAAAAAAAAAAHgQAAAAADSjBgAQDAAMAAASoACFSNACAEAEAAAAJAAGIAAAAQBIAiQAUAAAABgCAAAAYAAAMAAAAAAAAAAAAAAAAAAAAAAAAAAAAAA==

> <PUBCHEM_IUPAC_OPENEYE_NAME>
1-allyl-4-isobutyl-2-sulfanyl-4H-imidazol-5-one

> <PUBCHEM_IUPAC_CAS_NAME>
2-mercapto-4-(2-methylpropyl)-1-prop-2-enyl-4H-imidazol-5-one

> <PUBCHEM_IUPAC_NAME>
4-(2-methylpropyl)-1-prop-2-enyl-2-sulfanyl-4H-imidazol-5-one

> <PUBCHEM_IUPAC_SYSTEMATIC_NAME>
4-(2-methylpropyl)-1-prop-2-enyl-2-sulfanyl-4H-imidazol-5-one

> <PUBCHEM_IUPAC_TRADITIONAL_NAME>
3-allyl-5-isobutyl-2-mercapto-2-imidazolin-4-one

> <PUBCHEM_IUPAC_INCHI>
InChI=1S/C10H16N2OS/c1-4-5-12-9(13)8(6-7(2)3)11-10(12)14/h4,7-8H,1,5-6H2,2-3H3,(H,11,14)

> <PUBCHEM_IUPAC_INCHIKEY>
RATGSRSDPNECNO-UHFFFAOYSA-N

> <PUBCHEM_XLOGP3_AA>
2.3

> <PUBCHEM_EXACT_MASS>
212.098334

> <PUBCHEM_MOLECULAR_FORMULA>
C10H16N2OS

> <PUBCHEM_MOLECULAR_WEIGHT>
212.31184

> <PUBCHEM_OPENEYE_CAN_SMILES>
CC(C)CC1C(=O)N(C(=N1)S)CC=C

> <PUBCHEM_OPENEYE_ISO_SMILES>
CC(C)CC1C(=O)N(C(=N1)S)CC=C

> <PUBCHEM_CACTVS_TPSA>
33.7

> <PUBCHEM_MONOISOTOPIC_WEIGHT>
212.098334

> <PUBCHEM_TOTAL_CHARGE>
0

> <PUBCHEM_HEAVY_ATOM_COUNT>
14

> <PUBCHEM_ATOM_DEF_STEREO_COUNT>
0

> <PUBCHEM_ATOM_UDEF_STEREO_COUNT>
1

> <PUBCHEM_BOND_DEF_STEREO_COUNT>
0

> <PUBCHEM_BOND_UDEF_STEREO_COUNT>
0

> <PUBCHEM_ISOTOPIC_ATOM_COUNT>
0

> <PUBCHEM_COMPONENT_COUNT>
1

> <PUBCHEM_CACTVS_TAUTO_COUNT>
2

> <PUBCHEM_COORDINATE_TYPE>
1
5
255

> <PUBCHEM_BONDANNOTATIONS>
6  5  3

$$$$

