7346
  -OEChem-06261202013D

 25 24  0     0  0  0  0  0  0999 V2000
    0.0002   -0.2468   -0.3058 O   0  0  0  0  0  0  0  0  0  0  0  0
    1.2991    1.3958    0.6949 O   0  0  0  0  0  0  0  0  0  0  0  0
   -1.2976    1.3952    0.6970 O   0  0  0  0  0  0  0  0  0  0  0  0
    2.3339   -0.4893   -0.4369 C   0  0  0  0  0  0  0  0  0  0  0  0
   -2.3339   -0.4884   -0.4368 C   0  0  0  0  0  0  0  0  0  0  0  0
    1.1727    0.3566    0.0612 C   0  0  0  0  0  0  0  0  0  0  0  0
   -1.1721    0.3561    0.0631 C   0  0  0  0  0  0  0  0  0  0  0  0
    3.5348    0.3871   -0.7834 C   0  0  0  0  0  0  0  0  0  0  0  0
    2.7013   -1.5279    0.6163 C   0  0  0  0  0  0  0  0  0  0  0  0
   -2.7051   -1.5276    0.6149 C   0  0  0  0  0  0  0  0  0  0  0  0
   -3.5336    0.3891   -0.7844 C   0  0  0  0  0  0  0  0  0  0  0  0
    2.0201   -0.9963   -1.3580 H   0  0  0  0  0  0  0  0  0  0  0  0
   -2.0195   -0.9954   -1.3578 H   0  0  0  0  0  0  0  0  0  0  0  0
    4.3473   -0.2146   -1.2037 H   0  0  0  0  0  0  0  0  0  0  0  0
    3.2592    1.1487   -1.5209 H   0  0  0  0  0  0  0  0  0  0  0  0
    3.9201    0.9078    0.1004 H   0  0  0  0  0  0  0  0  0  0  0  0
    3.5194   -2.1666    0.2676 H   0  0  0  0  0  0  0  0  0  0  0  0
    3.0134   -1.0517    1.5524 H   0  0  0  0  0  0  0  0  0  0  0  0
    1.8440   -2.1702    0.8455 H   0  0  0  0  0  0  0  0  0  0  0  0
   -3.0182   -1.0517    1.5508 H   0  0  0  0  0  0  0  0  0  0  0  0
   -1.8490   -2.1711    0.8452 H   0  0  0  0  0  0  0  0  0  0  0  0
   -3.5232   -2.1648    0.2640 H   0  0  0  0  0  0  0  0  0  0  0  0
   -3.9197    0.9096    0.0990 H   0  0  0  0  0  0  0  0  0  0  0  0
   -4.3461   -0.2117   -1.2062 H   0  0  0  0  0  0  0  0  0  0  0  0
   -3.2563    1.1509   -1.5211 H   0  0  0  0  0  0  0  0  0  0  0  0
  1  6  1  0  0  0  0
  1  7  1  0  0  0  0
  2  6  2  0  0  0  0
  3  7  2  0  0  0  0
  4  6  1  0  0  0  0
  4  8  1  0  0  0  0
  4  9  1  0  0  0  0
  4 12  1  0  0  0  0
  5  7  1  0  0  0  0
  5 10  1  0  0  0  0
  5 11  1  0  0  0  0
  5 13  1  0  0  0  0
  8 14  1  0  0  0  0
  8 15  1  0  0  0  0
  8 16  1  0  0  0  0
  9 17  1  0  0  0  0
  9 18  1  0  0  0  0
  9 19  1  0  0  0  0
 10 20  1  0  0  0  0
 10 21  1  0  0  0  0
 10 22  1  0  0  0  0
 11 23  1  0  0  0  0
 11 24  1  0  0  0  0
 11 25  1  0  0  0  0
M  END
> <PUBCHEM_COMPOUND_CID>
7346

> <PUBCHEM_CONFORMER_RMSD>
0.6

> <PUBCHEM_CONFORMER_DIVERSEORDER>
1
23
11
10
22
25
24
9
20
4
18
6
15
21
26
8
16
2
17
12
19
13
7
3
5
14

> <PUBCHEM_MMFF94_PARTIAL_CHARGES>
7
1 -0.3
2 -0.57
3 -0.57
4 0.06
5 0.06
6 0.66
7 0.66

> <PUBCHEM_EFFECTIVE_ROTOR_COUNT>
4

> <PUBCHEM_PHARMACOPHORE_FEATURES>
4
1 2 acceptor
1 3 acceptor
3 4 8 9 hydrophobe
3 5 10 11 hydrophobe

> <PUBCHEM_HEAVY_ATOM_COUNT>
11

> <PUBCHEM_ATOM_DEF_STEREO_COUNT>
0

> <PUBCHEM_ATOM_UDEF_STEREO_COUNT>
0

> <PUBCHEM_BOND_DEF_STEREO_COUNT>
0

> <PUBCHEM_BOND_UDEF_STEREO_COUNT>
0

> <PUBCHEM_ISOTOPIC_ATOM_COUNT>
0

> <PUBCHEM_COMPONENT_COUNT>
1

> <PUBCHEM_CACTVS_TAUTO_COUNT>
1

> <PUBCHEM_CONFORMER_ID>
00001CB200000001

> <PUBCHEM_MMFF94_ENERGY>
12.1316

> <PUBCHEM_FEATURE_SELFOVERLAP>
20.309

> <PUBCHEM_SHAPE_FINGERPRINT>
10130415 120 18333454265707827105
11062470 55 18060138743027139317
12716758 59 18272943717257585499
12897270 3 18411981338560213509
12932764 1 18335423422144976471
14144814 61 18259982699373726706
14325111 11 18202563977373040350
14390081 3 13110963119369429919
18619055 16 18272656778539363174
20201158 50 18335140907781113327
20279233 1 18410301276255888667
20281407 28 17748827414474537471
20645477 56 17632301181159051333
20645477 70 18411421755940845454
20653085 51 17060340777187376397
23552423 10 18340487746869392365
3248919 1 18335982068525349390
3312278 4 18412822465087499851
8030462 33 18408602582478190852
93112 12 18060701701586378031

> <PUBCHEM_SHAPE_MULTIPOLES>
208.77
6.08
1.43
0.89
0
0.35
-0.01
0.84
-1.27
0
0.39
0
-0.1
0

> <PUBCHEM_SHAPE_SELFOVERLAP>
396.137

> <PUBCHEM_SHAPE_VOLUME>
130.3

> <PUBCHEM_COORDINATE_TYPE>
2
5
10

$$$$

