10067
  -OEChem-06261204172D

 98104  0     1  0  0  0  0  0999 V2000
    3.9782   -0.6234    0.0000 O   0  0  0  0  0  0  0  0  0  0  0  0
    5.0435    1.6057    0.0000 O   0  0  0  0  0  0  0  0  0  0  0  0
    2.3121   -2.0817    0.0000 O   0  0  0  0  0  0  0  0  0  0  0  0
    3.7474    1.4796    0.0000 O   0  0  0  0  0  0  0  0  0  0  0  0
    5.0435    2.6057    0.0000 O   0  0  0  0  0  0  0  0  0  0  0  0
    3.1677   -3.8823    0.0000 O   0  0  0  0  0  0  0  0  0  0  0  0
    6.7755    3.6057    0.0000 O   0  0  0  0  0  0  0  0  0  0  0  0
    9.0254    3.5121    0.0000 O   0  0  0  0  0  0  0  0  0  0  0  0
    5.9095    4.1057    0.0000 O   0  0  0  0  0  0  0  0  0  0  0  0
    4.5737   -4.8937    0.0000 O   0  0  0  0  0  0  0  0  0  0  0  0
    9.4416    1.0849    0.0000 N   0  0  3  0  0  0  0  0  0  0  0  0
    5.5776   -0.4692    0.0000 C   0  0  1  0  0  0  0  0  0  0  0  0
    4.9827   -1.3167    0.0000 C   0  0  2  0  0  0  0  0  0  0  0  0
    5.1725    0.4386    0.0000 C   0  0  3  0  0  0  0  0  0  0  0  0
    5.9095    1.1057    0.0000 C   0  0  2  0  0  0  0  0  0  0  0  0
    6.7755    0.6057    0.0000 C   0  0  3  0  0  0  0  0  0  0  0  0
    3.9520   -1.2173    0.0000 C   0  0  3  0  0  0  0  0  0  0  0  0
    6.5663   -0.3662    0.0000 C   0  0  0  0  0  0  0  0  0  0  0  0
    3.3121   -2.0855    0.0000 C   0  0  1  0  0  0  0  0  0  0  0  0
    7.6415    1.1057    0.0000 C   0  0  3  0  0  0  0  0  0  0  0  0
    4.1444    0.5618    0.0000 C   0  0  1  0  0  0  0  0  0  0  0  0
    3.5300   -0.2717    0.0000 C   0  0  0  0  0  0  0  0  0  0  0  0
    5.9095    2.1057    0.0000 C   0  0  2  0  0  0  0  0  0  0  0  0
    5.4449   -2.2912    0.0000 C   0  0  0  0  0  0  0  0  0  0  0  0
    7.6415    2.1057    0.0000 C   0  0  3  0  0  0  0  0  0  0  0  0
    6.7755    2.6057    0.0000 C   0  0  1  0  0  0  0  0  0  0  0  0
    3.7516   -3.0705    0.0000 C   0  0  2  0  0  0  0  0  0  0  0  0
    5.9781   -1.4127    0.0000 C   0  0  0  0  0  0  0  0  0  0  0  0
    4.8252   -3.1740    0.0000 C   0  0  0  0  0  0  0  0  0  0  0  0
    8.5355    2.6403    0.0000 C   0  0  1  0  0  0  0  0  0  0  0  0
    8.5355    0.5710    0.0000 C   0  0  0  0  0  0  0  0  0  0  0  0
    9.4416    2.1265    0.0000 C   0  0  2  0  0  0  0  0  0  0  0  0
    8.0255    3.5005    0.0000 C   0  0  0  0  0  0  0  0  0  0  0  0
   10.3727    2.6834    0.0000 C   0  0  0  0  0  0  0  0  0  0  0  0
   10.3727    0.5279    0.0000 C   0  0  0  0  0  0  0  0  0  0  0  0
   11.3165    1.0632    0.0000 C   0  0  2  0  0  0  0  0  0  0  0  0
   11.3165    2.1482    0.0000 C   0  0  0  0  0  0  0  0  0  0  0  0
    5.0435    3.6057    0.0000 C   0  0  0  0  0  0  0  0  0  0  0  0
    3.5787   -4.7939    0.0000 C   0  0  0  0  0  0  0  0  0  0  0  0
   12.1806    0.5598    0.0000 C   0  0  0  0  0  0  0  0  0  0  0  0
    4.1774    4.1057    0.0000 C   0  0  3  0  0  0  0  0  0  0  0  0
    2.9947   -5.6057    0.0000 C   0  0  0  0  0  0  0  0  0  0  0  0
    4.1774    5.1057    0.0000 C   0  0  0  0  0  0  0  0  0  0  0  0
    3.3114    3.6057    0.0000 C   0  0  0  0  0  0  0  0  0  0  0  0
    3.3114    5.6057    0.0000 C   0  0  0  0  0  0  0  0  0  0  0  0
    4.9146    1.2485    0.0000 H   0  0  0  0  0  0  0  0  0  0  0  0
    7.4625    0.1052    0.0000 H   0  0  0  0  0  0  0  0  0  0  0  0
    3.1069   -1.1259    0.0000 H   0  0  0  0  0  0  0  0  0  0  0  0
    6.5654   -0.9862    0.0000 H   0  0  0  0  0  0  0  0  0  0  0  0
    7.1828   -0.4322    0.0000 H   0  0  0  0  0  0  0  0  0  0  0  0
    7.6350    0.2557    0.0000 H   0  0  0  0  0  0  0  0  0  0  0  0
    3.5284    0.6320    0.0000 H   0  0  0  0  0  0  0  0  0  0  0  0
    3.1012    0.1761    0.0000 H   0  0  0  0  0  0  0  0  0  0  0  0
    3.0154   -0.6176    0.0000 H   0  0  0  0  0  0  0  0  0  0  0  0
    5.9095    2.7257    0.0000 H   0  0  0  0  0  0  0  0  0  0  0  0
    5.8839   -2.7290    0.0000 H   0  0  0  0  0  0  0  0  0  0  0  0
    5.9513   -1.9336    0.0000 H   0  0  0  0  0  0  0  0  0  0  0  0
    7.6350    2.9556    0.0000 H   0  0  0  0  0  0  0  0  0  0  0  0
    7.3124    2.9157    0.0000 H   0  0  0  0  0  0  0  0  0  0  0  0
    3.1348   -3.0074    0.0000 H   0  0  0  0  0  0  0  0  0  0  0  0
    5.9185   -2.0298    0.0000 H   0  0  0  0  0  0  0  0  0  0  0  0
    6.5952   -1.4722    0.0000 H   0  0  0  0  0  0  0  0  0  0  0  0
    6.0376   -0.7956    0.0000 H   0  0  0  0  0  0  0  0  0  0  0  0
    4.6610   -3.7719    0.0000 H   0  0  0  0  0  0  0  0  0  0  0  0
    5.3861   -3.4381    0.0000 H   0  0  0  0  0  0  0  0  0  0  0  0
    8.1309    0.1012    0.0000 H   0  0  0  0  0  0  0  0  0  0  0  0
    8.9291    0.0920    0.0000 H   0  0  0  0  0  0  0  0  0  0  0  0
    4.5065    1.2957    0.0000 H   0  0  0  0  0  0  0  0  0  0  0  0
    9.4317    2.9764    0.0000 H   0  0  0  0  0  0  0  0  0  0  0  0
    2.0000   -2.6174    0.0000 H   0  0  0  0  0  0  0  0  0  0  0  0
    3.1316    1.5510    0.0000 H   0  0  0  0  0  0  0  0  0  0  0  0
    8.5588    3.8167    0.0000 H   0  0  0  0  0  0  0  0  0  0  0  0
    7.7093    4.0338    0.0000 H   0  0  0  0  0  0  0  0  0  0  0  0
    7.4922    3.1843    0.0000 H   0  0  0  0  0  0  0  0  0  0  0  0
   10.7663    3.1624    0.0000 H   0  0  0  0  0  0  0  0  0  0  0  0
    9.9681    3.1532    0.0000 H   0  0  0  0  0  0  0  0  0  0  0  0
    9.9681    0.0581    0.0000 H   0  0  0  0  0  0  0  0  0  0  0  0
   10.7663    0.0489    0.0000 H   0  0  0  0  0  0  0  0  0  0  0  0
    7.3124    3.9157    0.0000 H   0  0  0  0  0  0  0  0  0  0  0  0
    8.7093    4.0454    0.0000 H   0  0  0  0  0  0  0  0  0  0  0  0
   11.3129    0.4432    0.0000 H   0  0  0  0  0  0  0  0  0  0  0  0
   11.9274    2.0421    0.0000 H   0  0  0  0  0  0  0  0  0  0  0  0
   11.5255    2.7318    0.0000 H   0  0  0  0  0  0  0  0  0  0  0  0
   11.8685    0.0241    0.0000 H   0  0  0  0  0  0  0  0  0  0  0  0
   12.7163    0.2478    0.0000 H   0  0  0  0  0  0  0  0  0  0  0  0
   12.4927    1.0956    0.0000 H   0  0  0  0  0  0  0  0  0  0  0  0
    4.1774    3.2557    0.0000 H   0  0  0  0  0  0  0  0  0  0  0  0
    2.4914   -5.2436    0.0000 H   0  0  0  0  0  0  0  0  0  0  0  0
    2.6327   -6.1090    0.0000 H   0  0  0  0  0  0  0  0  0  0  0  0
    3.4980   -5.9677    0.0000 H   0  0  0  0  0  0  0  0  0  0  0  0
    4.7880    4.9980    0.0000 H   0  0  0  0  0  0  0  0  0  0  0  0
    4.3895    5.6883    0.0000 H   0  0  0  0  0  0  0  0  0  0  0  0
    3.0014    4.1426    0.0000 H   0  0  0  0  0  0  0  0  0  0  0  0
    2.7745    3.2957    0.0000 H   0  0  0  0  0  0  0  0  0  0  0  0
    3.6214    3.0687    0.0000 H   0  0  0  0  0  0  0  0  0  0  0  0
    3.6214    6.1426    0.0000 H   0  0  0  0  0  0  0  0  0  0  0  0
    2.7745    5.9157    0.0000 H   0  0  0  0  0  0  0  0  0  0  0  0
    3.0014    5.0687    0.0000 H   0  0  0  0  0  0  0  0  0  0  0  0
  1 12  1  0  0  0  0
  1 19  1  0  0  0  0
 15  2  1  1  0  0  0
  2 68  1  0  0  0  0
 19  3  1  6  0  0  0
  3 70  1  0  0  0  0
 21  4  1  1  0  0  0
  4 71  1  0  0  0  0
 23  5  1  1  0  0  0
  5 38  1  0  0  0  0
 27  6  1  6  0  0  0
  6 39  1  0  0  0  0
 26  7  1  6  0  0  0
  7 79  1  0  0  0  0
 30  8  1  6  0  0  0
  8 80  1  0  0  0  0
  9 38  2  0  0  0  0
 10 39  2  0  0  0  0
 11 31  1  0  0  0  0
 11 32  1  0  0  0  0
 11 35  1  0  0  0  0
 12 13  1  0  0  0  0
 12 14  1  0  0  0  0
 12 18  1  1  0  0  0
 13 17  1  0  0  0  0
 13 24  1  0  0  0  0
 13 28  1  6  0  0  0
 14 15  1  0  0  0  0
 14 21  1  0  0  0  0
 14 46  1  0  0  0  0
 15 16  1  0  0  0  0
 15 23  1  0  0  0  0
 16 18  1  0  0  0  0
 16 20  1  0  0  0  0
 16 47  1  0  0  0  0
 17 19  1  0  0  0  0
 17 22  1  0  0  0  0
 17 48  1  0  0  0  0
 18 49  1  0  0  0  0
 18 50  1  0  0  0  0
 19 27  1  0  0  0  0
 20 25  1  0  0  0  0
 20 31  1  0  0  0  0
 20 51  1  0  0  0  0
 21 22  1  0  0  0  0
 21 52  1  0  0  0  0
 22 53  1  0  0  0  0
 22 54  1  0  0  0  0
 23 26  1  0  0  0  0
 23 55  1  0  0  0  0
 24 29  1  0  0  0  0
 24 56  1  0  0  0  0
 24 57  1  0  0  0  0
 25 26  1  0  0  0  0
 25 30  1  0  0  0  0
 25 58  1  0  0  0  0
 26 59  1  0  0  0  0
 27 29  1  0  0  0  0
 27 60  1  0  0  0  0
 28 61  1  0  0  0  0
 28 62  1  0  0  0  0
 28 63  1  0  0  0  0
 29 64  1  0  0  0  0
 29 65  1  0  0  0  0
 30 32  1  0  0  0  0
 30 33  1  0  0  0  0
 31 66  1  0  0  0  0
 31 67  1  0  0  0  0
 32 34  1  0  0  0  0
 32 69  1  1  0  0  0
 33 72  1  0  0  0  0
 33 73  1  0  0  0  0
 33 74  1  0  0  0  0
 34 37  1  0  0  0  0
 34 75  1  0  0  0  0
 34 76  1  0  0  0  0
 35 36  1  0  0  0  0
 35 77  1  0  0  0  0
 35 78  1  0  0  0  0
 36 37  1  0  0  0  0
 36 40  1  6  0  0  0
 36 81  1  0  0  0  0
 37 82  1  0  0  0  0
 37 83  1  0  0  0  0
 38 41  1  0  0  0  0
 39 42  1  0  0  0  0
 40 84  1  0  0  0  0
 40 85  1  0  0  0  0
 40 86  1  0  0  0  0
 41 43  1  0  0  0  0
 41 44  1  0  0  0  0
 41 87  1  0  0  0  0
 42 88  1  0  0  0  0
 42 89  1  0  0  0  0
 42 90  1  0  0  0  0
 43 45  1  0  0  0  0
 43 91  1  0  0  0  0
 43 92  1  0  0  0  0
 44 93  1  0  0  0  0
 44 94  1  0  0  0  0
 44 95  1  0  0  0  0
 45 96  1  0  0  0  0
 45 97  1  0  0  0  0
 45 98  1  0  0  0  0
M  END
> <PUBCHEM_COMPOUND_CID>
10067

> <PUBCHEM_COMPOUND_CANONICALIZED>
1

> <PUBCHEM_CACTVS_COMPLEXITY>
1250

> <PUBCHEM_CACTVS_HBOND_ACCEPTOR>
11

> <PUBCHEM_CACTVS_HBOND_DONOR>
5

> <PUBCHEM_CACTVS_ROTATABLE_BOND>
6

> <PUBCHEM_CACTVS_SUBSKEYS>
AAADcfB+PAAAAAAAAAAAAAAAAAAAAaIAAAA8eMECBIkAAGCwAAAAHgAACAAAD3zhgAYCCAMABgAIAACQCAAAAAAAAAAAAAEIAAATEBIAgAAGQAAFAACXAAHw8P8PgAAAAAAAAADAAAYQADCAAYQADAAAAA==

> <PUBCHEM_IUPAC_INCHI>
InChI=1S/C34H53NO10/c1-7-17(3)29(39)44-28-26(38)25-19(15-35-14-16(2)8-9-23(35)31(25,6)40)20-13-32-27(33(20,28)41)21(37)12-22-30(32,5)11-10-24(43-18(4)36)34(22,42)45-32/h16-17,19-28,37-38,40-42H,7-15H2,1-6H3/t16-,17?,19?,20?,21+,22?,23-,24-,25?,26+,27?,28-,30-,31+,32+,33-,34-/m0/s1

> <PUBCHEM_IUPAC_INCHIKEY>
OPCXCFMPHIBOMS-JAYPKBCLSA-N

> <PUBCHEM_XLOGP3_AA>
1.5

> <PUBCHEM_EXACT_MASS>
635.366947

> <PUBCHEM_MOLECULAR_FORMULA>
C34H53NO10

> <PUBCHEM_MOLECULAR_WEIGHT>
635.78532

> <PUBCHEM_OPENEYE_CAN_SMILES>
CCC(C)C(=O)OC1C(C2C(CN3CC(CCC3C2(C)O)C)C4C1(C5C(CC6C7(C5(C4)OC6(C(CC7)OC(=O)C)O)C)O)O)O

> <PUBCHEM_OPENEYE_ISO_SMILES>
CCC(C)C(=O)O[C@H]1[C@@H](C2C(CN3C[C@H](CC[C@H]3[C@@]2(C)O)C)C4[C@@]1(C5[C@@H](CC6[C@]7([C@]5(C4)O[C@@]6([C@H](CC7)OC(=O)C)O)C)O)O)O

> <PUBCHEM_CACTVS_TPSA>
166

> <PUBCHEM_MONOISOTOPIC_WEIGHT>
635.366947

> <PUBCHEM_TOTAL_CHARGE>
0

> <PUBCHEM_HEAVY_ATOM_COUNT>
45

> <PUBCHEM_ATOM_DEF_STEREO_COUNT>
11

> <PUBCHEM_ATOM_UDEF_STEREO_COUNT>
6

> <PUBCHEM_BOND_DEF_STEREO_COUNT>
0

> <PUBCHEM_BOND_UDEF_STEREO_COUNT>
0

> <PUBCHEM_ISOTOPIC_ATOM_COUNT>
0

> <PUBCHEM_COMPONENT_COUNT>
1

> <PUBCHEM_CACTVS_TAUTO_COUNT>
1

> <PUBCHEM_COORDINATE_TYPE>
1
5
255

> <PUBCHEM_BONDANNOTATIONS>
12  18  5
13  28  6
14  46  3
16  47  3
17  48  3
15  2  5
20  51  3
25  58  3
19  3  6
32  69  5
36  40  6
21  4  5
41  87  3
23  5  5
27  6  6
26  7  6
30  8  6

$$$$

