51090975
  -OEChem-06241223013D

 41 43  0     0  0  0  0  0  0999 V2000
   -6.3348   -1.2227   -0.6895 Cl  0  0  0  0  0  0  0  0  0  0  0  0
   -0.8332    0.1190    0.6484 O   0  0  0  0  0  0  0  0  0  0  0  0
    3.6492   -2.8260   -0.2450 O   0  0  0  0  0  0  0  0  0  0  0  0
    1.5433   -1.9416    1.7183 O   0  0  0  0  0  0  0  0  0  0  0  0
    2.0736   -0.4299    0.0161 N   0  0  0  0  0  0  0  0  0  0  0  0
    1.9161    2.1679    0.6388 N   0  0  0  0  0  0  0  0  0  0  0  0
    3.5209   -0.4741    0.2133 C   0  0  0  0  0  0  0  0  0  0  0  0
    1.6089    0.4478   -1.0490 C   0  0  0  0  0  0  0  0  0  0  0  0
    1.1559   -1.1833    0.7994 C   0  0  0  0  0  0  0  0  0  0  0  0
   -0.2406   -1.0985    0.5396 C   0  0  0  0  0  0  0  0  0  0  0  0
    4.1658   -1.5587   -0.6302 C   0  0  0  0  0  0  0  0  0  0  0  0
   -2.4066   -1.3902    0.0572 C   0  0  0  0  0  0  0  0  0  0  0  0
    1.3857    1.8509   -0.5635 C   0  0  0  0  0  0  0  0  0  0  0  0
   -1.1592   -2.0572    0.1799 C   0  0  0  0  0  0  0  0  0  0  0  0
   -2.1526   -0.0555    0.3553 C   0  0  0  0  0  0  0  0  0  0  0  0
   -3.7205   -1.7664   -0.2725 C   0  0  0  0  0  0  0  0  0  0  0  0
   -3.1228    0.9450    0.3500 C   0  0  0  0  0  0  0  0  0  0  0  0
    0.6650    2.7345   -1.3508 C   0  0  0  0  0  0  0  0  0  0  0  0
   -4.7182   -0.7820   -0.2866 C   0  0  0  0  0  0  0  0  0  0  0  0
   -4.4221    0.5486    0.0197 C   0  0  0  0  0  0  0  0  0  0  0  0
    0.4770    4.0268   -0.8733 C   0  0  0  0  0  0  0  0  0  0  0  0
    1.7128    3.4329    1.0702 C   0  0  0  0  0  0  0  0  0  0  0  0
    1.0078    4.3907    0.3593 C   0  0  0  0  0  0  0  0  0  0  0  0
    4.2285   -3.8778   -1.0050 C   0  0  0  0  0  0  0  0  0  0  0  0
    3.7029   -0.6897    1.2724 H   0  0  0  0  0  0  0  0  0  0  0  0
    3.9605    0.5029   -0.0123 H   0  0  0  0  0  0  0  0  0  0  0  0
    0.6878    0.0522   -1.4888 H   0  0  0  0  0  0  0  0  0  0  0  0
    2.3570    0.4595   -1.8507 H   0  0  0  0  0  0  0  0  0  0  0  0
    5.2504   -1.5446   -0.4726 H   0  0  0  0  0  0  0  0  0  0  0  0
    3.9633   -1.3900   -1.6941 H   0  0  0  0  0  0  0  0  0  0  0  0
   -0.9590   -3.1082    0.0238 H   0  0  0  0  0  0  0  0  0  0  0  0
   -3.9504   -2.8012   -0.5105 H   0  0  0  0  0  0  0  0  0  0  0  0
   -2.8846    1.9749    0.5878 H   0  0  0  0  0  0  0  0  0  0  0  0
    0.2557    2.4394   -2.3109 H   0  0  0  0  0  0  0  0  0  0  0  0
   -5.2066    1.3026    0.0046 H   0  0  0  0  0  0  0  0  0  0  0  0
   -0.0823    4.7489   -1.4604 H   0  0  0  0  0  0  0  0  0  0  0  0
    2.1466    3.6660    2.0370 H   0  0  0  0  0  0  0  0  0  0  0  0
    0.8735    5.3923    0.7513 H   0  0  0  0  0  0  0  0  0  0  0  0
    4.0027   -3.7520   -2.0684 H   0  0  0  0  0  0  0  0  0  0  0  0
    5.3112   -3.9120   -0.8504 H   0  0  0  0  0  0  0  0  0  0  0  0
    3.7977   -4.8240   -0.6668 H   0  0  0  0  0  0  0  0  0  0  0  0
  1 19  1  0  0  0  0
  2 10  1  0  0  0  0
  2 15  1  0  0  0  0
  3 11  1  0  0  0  0
  3 24  1  0  0  0  0
  4  9  2  0  0  0  0
  5  7  1  0  0  0  0
  5  8  1  0  0  0  0
  5  9  1  0  0  0  0
  6 13  1  0  0  0  0
  6 22  2  0  0  0  0
  7 11  1  0  0  0  0
  7 25  1  0  0  0  0
  7 26  1  0  0  0  0
  8 13  1  0  0  0  0
  8 27  1  0  0  0  0
  8 28  1  0  0  0  0
  9 10  1  0  0  0  0
 10 14  2  0  0  0  0
 11 29  1  0  0  0  0
 11 30  1  0  0  0  0
 12 14  1  0  0  0  0
 12 15  2  0  0  0  0
 12 16  1  0  0  0  0
 13 18  2  0  0  0  0
 14 31  1  0  0  0  0
 15 17  1  0  0  0  0
 16 19  2  0  0  0  0
 16 32  1  0  0  0  0
 17 20  2  0  0  0  0
 17 33  1  0  0  0  0
 18 21  1  0  0  0  0
 18 34  1  0  0  0  0
 19 20  1  0  0  0  0
 20 35  1  0  0  0  0
 21 23  2  0  0  0  0
 21 36  1  0  0  0  0
 22 23  1  0  0  0  0
 22 37  1  0  0  0  0
 23 38  1  0  0  0  0
 24 39  1  0  0  0  0
 24 40  1  0  0  0  0
 24 41  1  0  0  0  0
M  END
> <PUBCHEM_COMPOUND_CID>
51090975

> <PUBCHEM_CONFORMER_RMSD>
1.2

> <PUBCHEM_CONFORMER_DIVERSEORDER>
1
76
81
61
78
62
57
34
66
35
30
33
59
14
56
46
36
86
11
72
26
8
77
74
12
38
5
64
85
60
84
18
68
49
79
65
10
3
71
17
51
37
54
40
48
69
31
82
13
15
75
83
39
47
22
27
55
50
58
67
63
16
53
73
28
52
42
21
70
43
29
7
19
24
9
80
32
45
44
20
25
2
6
41
4
23

> <PUBCHEM_MMFF94_PARTIAL_CHARGES>
31
1 -0.18
10 0.05
11 0.28
13 0.17
14 -0.15
15 0.14
16 -0.15
17 -0.15
18 -0.15
19 0.18
2 -0.28
20 -0.15
21 -0.15
22 0.16
23 -0.15
24 0.28
3 -0.56
31 0.15
32 0.15
33 0.15
34 0.15
35 0.15
36 0.15
37 0.15
38 0.15
4 -0.57
5 -0.66
6 -0.62
7 0.3
8 0.44
9 0.71

> <PUBCHEM_EFFECTIVE_ROTOR_COUNT>
7

> <PUBCHEM_PHARMACOPHORE_FEATURES>
7
1 2 acceptor
1 3 acceptor
1 4 acceptor
1 6 acceptor
5 2 10 12 14 15 rings
6 12 15 16 17 19 20 rings
6 6 13 18 21 22 23 rings

> <PUBCHEM_HEAVY_ATOM_COUNT>
24

> <PUBCHEM_ATOM_DEF_STEREO_COUNT>
0

> <PUBCHEM_ATOM_UDEF_STEREO_COUNT>
0

> <PUBCHEM_BOND_DEF_STEREO_COUNT>
0

> <PUBCHEM_BOND_UDEF_STEREO_COUNT>
0

> <PUBCHEM_ISOTOPIC_ATOM_COUNT>
0

> <PUBCHEM_COMPONENT_COUNT>
1

> <PUBCHEM_CACTVS_TAUTO_COUNT>
1

> <PUBCHEM_CONFORMER_ID>
030B961F00000001

> <PUBCHEM_MMFF94_ENERGY>
57.1002

> <PUBCHEM_FEATURE_SELFOVERLAP>
35.624

> <PUBCHEM_SHAPE_FINGERPRINT>
10366900 7 17346597487239135835
104564 63 17910389820769454152
11370993 70 17763187938572381897
116883 192 18122054566950497750
12166972 35 18259703406868260603
12403259 226 18341896299001356845
12788726 201 18126277778349358634
12954195 1 17689429812679357422
13134695 92 18409446981707143236
13533116 47 18338234856824993727
13590594 115 18339913930981515649
138480 1 18410854343569014340
14866123 147 17472975585221175674
14955137 171 18195784453606936235
15420108 30 17831038835945842560
17492 89 18265332811708166295
17980427 23 17901698997421804888
18335252 114 18339088206987486261
18681886 176 18335710429203582019
20775438 99 18049178674274319991
21285901 2 18044087084796439078
21478907 32 18123185977052428494
23558518 356 17767413374474087218
23559900 14 18265617589366365347
283562 15 18126842935836731858
345986 75 17415026782851823066
4409770 3 17764591314519220156
44317340 157 18265340509069600839
474 4 17985554342921015289
6443956 14 18412545405537636052
7164475 11 18124868221722373022
7364860 26 18337391513604199408
81228 2 18128241493262832400
84936 182 18120932802633086841
9709674 26 18268427924081470235
9971528 1 18408606967639962482
9981440 41 17545888122395196080

> <PUBCHEM_SHAPE_MULTIPOLES>
468.21
9.24
5.14
1.1
12.07
4.02
-0.01
-7.8
2.18
-6.95
0.66
-0.52
0.14
0.54

> <PUBCHEM_SHAPE_SELFOVERLAP>
1000.081

> <PUBCHEM_SHAPE_VOLUME>
260.8

> <PUBCHEM_COORDINATE_TYPE>
2
5
10

$$$$

