13679
  -OEChem-06241222393D

 24 25  0     0  0  0  0  0  0999 V2000
   -0.0010    1.4515   -1.1010 S   0  0  0  0  0  0  0  0  0  0  0  0
    0.0132    2.7260   -0.3015 O   0  0  0  0  0  0  0  0  0  0  0  0
   -1.3147    0.4411   -0.4169 C   0  0  0  0  0  0  0  0  0  0  0  0
    1.3235    0.4306   -0.4104 C   0  0  0  0  0  0  0  0  0  0  0  0
   -1.8255    0.7250    0.8497 C   0  0  0  0  0  0  0  0  0  0  0  0
    1.8219   -0.6309   -1.1508 C   0  0  0  0  0  0  0  0  0  0  0  0
   -1.8245   -0.6300   -1.1504 C   0  0  0  0  0  0  0  0  0  0  0  0
    1.8209    0.7221    0.8508 C   0  0  0  0  0  0  0  0  0  0  0  0
   -2.8461   -0.0624    1.3827 C   0  0  0  0  0  0  0  0  0  0  0  0
    2.8416   -1.4192   -0.6176 C   0  0  0  0  0  0  0  0  0  0  0  0
   -2.8453   -1.4174   -0.6175 C   0  0  0  0  0  0  0  0  0  0  0  0
    2.8408   -0.0661    1.3840 C   0  0  0  0  0  0  0  0  0  0  0  0
   -3.3560   -1.1335    0.6491 C   0  0  0  0  0  0  0  0  0  0  0  0
    3.3511   -1.1368    0.6498 C   0  0  0  0  0  0  0  0  0  0  0  0
   -1.4448    1.5508    1.4444 H   0  0  0  0  0  0  0  0  0  0  0  0
    1.4353   -0.8607   -2.1398 H   0  0  0  0  0  0  0  0  0  0  0  0
   -1.4387   -0.8636   -2.1395 H   0  0  0  0  0  0  0  0  0  0  0  0
    1.4383    1.5471    1.4444 H   0  0  0  0  0  0  0  0  0  0  0  0
   -3.2433    0.1578    2.3693 H   0  0  0  0  0  0  0  0  0  0  0  0
    3.2391   -2.2527   -1.1892 H   0  0  0  0  0  0  0  0  0  0  0  0
   -3.2426   -2.2513   -1.1887 H   0  0  0  0  0  0  0  0  0  0  0  0
    3.2369    0.1528    2.3713 H   0  0  0  0  0  0  0  0  0  0  0  0
   -4.1506   -1.7466    1.0640 H   0  0  0  0  0  0  0  0  0  0  0  0
    4.1449   -1.7508    1.0652 H   0  0  0  0  0  0  0  0  0  0  0  0
  1  2  2  0  0  0  0
  1  3  1  0  0  0  0
  1  4  1  0  0  0  0
  3  5  2  0  0  0  0
  3  7  1  0  0  0  0
  4  6  2  0  0  0  0
  4  8  1  0  0  0  0
  5  9  1  0  0  0  0
  5 15  1  0  0  0  0
  6 10  1  0  0  0  0
  6 16  1  0  0  0  0
  7 11  2  0  0  0  0
  7 17  1  0  0  0  0
  8 12  2  0  0  0  0
  8 18  1  0  0  0  0
  9 13  2  0  0  0  0
  9 19  1  0  0  0  0
 10 14  2  0  0  0  0
 10 20  1  0  0  0  0
 11 13  1  0  0  0  0
 11 21  1  0  0  0  0
 12 14  1  0  0  0  0
 12 22  1  0  0  0  0
 13 23  1  0  0  0  0
 14 24  1  0  0  0  0
M  END
> <PUBCHEM_COMPOUND_CID>
13679

> <PUBCHEM_CONFORMER_RMSD>
0.6

> <PUBCHEM_CONFORMER_DIVERSEORDER>
1
4
3
5
2

> <PUBCHEM_MMFF94_PARTIAL_CHARGES>
24
1 0.37
10 -0.15
11 -0.15
12 -0.15
13 -0.15
14 -0.15
15 0.15
16 0.15
17 0.15
18 0.15
19 0.15
2 -0.5
20 0.15
21 0.15
22 0.15
23 0.15
24 0.15
3 0.06
4 0.06
5 -0.15
6 -0.15
7 -0.15
8 -0.15
9 -0.15

> <PUBCHEM_EFFECTIVE_ROTOR_COUNT>
2

> <PUBCHEM_PHARMACOPHORE_FEATURES>
3
1 2 acceptor
6 3 5 7 9 11 13 rings
6 4 6 8 10 12 14 rings

> <PUBCHEM_HEAVY_ATOM_COUNT>
14

> <PUBCHEM_ATOM_DEF_STEREO_COUNT>
0

> <PUBCHEM_ATOM_UDEF_STEREO_COUNT>
0

> <PUBCHEM_BOND_DEF_STEREO_COUNT>
0

> <PUBCHEM_BOND_UDEF_STEREO_COUNT>
0

> <PUBCHEM_ISOTOPIC_ATOM_COUNT>
0

> <PUBCHEM_COMPONENT_COUNT>
1

> <PUBCHEM_CACTVS_TAUTO_COUNT>
1

> <PUBCHEM_CONFORMER_ID>
0000356F00000001

> <PUBCHEM_MMFF94_ENERGY>
37.3316

> <PUBCHEM_FEATURE_SELFOVERLAP>
15.223

> <PUBCHEM_SHAPE_FINGERPRINT>
10618630 7 18273213127244075546
11471102 22 17822019713519015658
12251169 10 17530685407030099466
12382932 28 17312822688381840306
12696612 119 17458347416242104416
12897270 3 13686005480192910903
13296908 3 18202008724000857548
13299463 15 14548723019730956556
14787075 74 15729283776948447549
15276787 5 16806157890543068706
15775835 57 6699804250536758338
15906896 17 17343225430742001829
16945 1 17458062663968002588
17804303 29 17532350127806377407
17834072 14 18189354432303584949
18186145 218 9511466653585701434
19766037 51 17560788931639490715
20281407 28 18339079392912630734
20361792 2 18130786750341921757
20559304 39 18042953286391523197
20645477 70 17986114003024563351
20671657 53 16343989126080023894
20711985 344 17702396232455824413
21524375 3 7348889966342550253
21731516 1 18130782369338136060
22445834 79 18115300073409528263
230 275 6122514479440460450
23419403 2 15083341668224308342
305870 269 7709465995936300012
3082319 5 13973968709368437411
5262128 65 13830126213103668846
549884 4 11527958858392240630
81228 2 18127138690899447077

> <PUBCHEM_SHAPE_MULTIPOLES>
286.09
5.77
1.81
1.43
0.02
0.83
-0.14
-3.25
-1.69
0
0.37
0
-0.03
0

> <PUBCHEM_SHAPE_SELFOVERLAP>
598.083

> <PUBCHEM_SHAPE_VOLUME>
160.9

> <PUBCHEM_COORDINATE_TYPE>
2
5
10

$$$$

