92119
  -OEChem-07051212572D

 36 38  0     1  0  0  0  0  0999 V2000
    3.7230   -0.4117    0.0000 O   0  0  0  0  0  0  0  0  0  0  0  0
    4.8930   -2.0150    0.0000 O   0  0  0  0  0  0  0  0  0  0  0  0
    2.0000    0.0205    0.0000 O   0  0  0  0  0  0  0  0  0  0  0  0
    5.4786   -0.3379    0.0000 C   0  0  2  0  0  0  0  0  0  0  0  0
    6.3796    0.0960    0.0000 C   0  0  2  0  0  0  0  0  0  0  0  0
    4.5777    0.0960    0.0000 C   0  0  1  0  0  0  0  0  0  0  0  0
    4.3551    1.0709    0.0000 C   0  0  1  0  0  0  0  0  0  0  0  0
    6.6021    1.0709    0.0000 C   0  0  2  0  0  0  0  0  0  0  0  0
    4.9786    1.8527    0.0000 C   0  0  0  0  0  0  0  0  0  0  0  0
    5.9786    1.8527    0.0000 C   0  0  0  0  0  0  0  0  0  0  0  0
    5.6146   -1.3227    0.0000 C   0  0  0  0  0  0  0  0  0  0  0  0
    4.5777   -0.7718    0.0000 C   0  0  0  0  0  0  0  0  0  0  0  0
    7.0647   -0.6243    0.0000 C   0  0  0  0  0  0  0  0  0  0  0  0
    3.3648    1.1574    0.0000 C   0  0  0  0  0  0  0  0  0  0  0  0
    6.5929   -1.4993    0.0000 C   0  0  0  0  0  0  0  0  0  0  0  0
    7.5770    1.2934    0.0000 C   0  0  0  0  0  0  0  0  0  0  0  0
    2.9749    0.2430    0.0000 C   0  0  0  0  0  0  0  0  0  0  0  0
    2.8504    2.0150    0.0000 C   0  0  0  0  0  0  0  0  0  0  0  0
    7.1993    0.3210    0.0000 H   0  0  0  0  0  0  0  0  0  0  0  0
    4.6147   -0.7532    0.0000 H   0  0  0  0  0  0  0  0  0  0  0  0
    4.0200    1.8520    0.0000 H   0  0  0  0  0  0  0  0  0  0  0  0
    6.8069    1.6561    0.0000 H   0  0  0  0  0  0  0  0  0  0  0  0
    5.1166    2.4572    0.0000 H   0  0  0  0  0  0  0  0  0  0  0  0
    4.4200    2.1217    0.0000 H   0  0  0  0  0  0  0  0  0  0  0  0
    6.5372    2.1217    0.0000 H   0  0  0  0  0  0  0  0  0  0  0  0
    5.8407    2.4572    0.0000 H   0  0  0  0  0  0  0  0  0  0  0  0
    4.3086   -0.2132    0.0000 H   0  0  0  0  0  0  0  0  0  0  0  0
    4.0191   -1.0408    0.0000 H   0  0  0  0  0  0  0  0  0  0  0  0
    4.8467   -1.3304    0.0000 H   0  0  0  0  0  0  0  0  0  0  0  0
    7.6792   -0.5422    0.0000 H   0  0  0  0  0  0  0  0  0  0  0  0
    6.8619   -2.0579    0.0000 H   0  0  0  0  0  0  0  0  0  0  0  0
    7.7150    0.6889    0.0000 H   0  0  0  0  0  0  0  0  0  0  0  0
    8.1815    1.4314    0.0000 H   0  0  0  0  0  0  0  0  0  0  0  0
    7.4391    1.8979    0.0000 H   0  0  0  0  0  0  0  0  0  0  0  0
    3.1514    2.5570    0.0000 H   0  0  0  0  0  0  0  0  0  0  0  0
    2.2305    2.0046    0.0000 H   0  0  0  0  0  0  0  0  0  0  0  0
  1  6  1  0  0  0  0
  1 17  1  0  0  0  0
  2 11  2  0  0  0  0
  3 17  2  0  0  0  0
  4  5  1  0  0  0  0
  4  6  1  0  0  0  0
  4 11  1  0  0  0  0
  4 12  1  6  0  0  0
  5  8  1  0  0  0  0
  5 13  1  0  0  0  0
  5 19  1  1  0  0  0
  6  7  1  0  0  0  0
  6 20  1  1  0  0  0
  7  9  1  0  0  0  0
  7 14  1  0  0  0  0
  7 21  1  1  0  0  0
  8 10  1  0  0  0  0
  8 16  1  6  0  0  0
  8 22  1  0  0  0  0
  9 10  1  0  0  0  0
  9 23  1  0  0  0  0
  9 24  1  0  0  0  0
 10 25  1  0  0  0  0
 10 26  1  0  0  0  0
 11 15  1  0  0  0  0
 12 27  1  0  0  0  0
 12 28  1  0  0  0  0
 12 29  1  0  0  0  0
 13 15  2  0  0  0  0
 13 30  1  0  0  0  0
 14 17  1  0  0  0  0
 14 18  2  0  0  0  0
 15 31  1  0  0  0  0
 16 32  1  0  0  0  0
 16 33  1  0  0  0  0
 16 34  1  0  0  0  0
 18 35  1  0  0  0  0
 18 36  1  0  0  0  0
M  END
> <PUBCHEM_COMPOUND_CID>
92119

> <PUBCHEM_COMPOUND_CANONICALIZED>
1

> <PUBCHEM_CACTVS_COMPLEXITY>
476

> <PUBCHEM_CACTVS_HBOND_ACCEPTOR>
3

> <PUBCHEM_CACTVS_HBOND_DONOR>
0

> <PUBCHEM_CACTVS_ROTATABLE_BOND>
0

> <PUBCHEM_CACTVS_SUBSKEYS>
AAADceBwMAAAAAAAAAAAAAAAAAAAASIAAAAAAAAABgAAAACQAAAAGgAAAAAADxSggAICCAAABACIAqDSCAAAAAAgAAAICAEAAEgABBYAIQACAAAE4AAIIYOKyPCPgAAAAAAAAAAAAAAAAAAAAAAAAAAAAA==

> <PUBCHEM_IUPAC_OPENEYE_NAME>
(3aS,6S,6aR,9aR,9bR)-6,9a-dimethyl-3-methylene-3a,4,5,6,6a,9b-hexahydroazuleno[8,7-b]furan-2,9-dione

> <PUBCHEM_IUPAC_CAS_NAME>
(3aS,6S,6aR,9aR,9bR)-6,9a-dimethyl-3-methylene-3a,4,5,6,6a,9b-hexahydroazuleno[8,7-b]furan-2,9-dione

> <PUBCHEM_IUPAC_NAME>
(3aS,6S,6aR,9aR,9bR)-6,9a-dimethyl-3-methylidene-3a,4,5,6,6a,9b-hexahydroazuleno[8,7-b]furan-2,9-dione

> <PUBCHEM_IUPAC_SYSTEMATIC_NAME>
(3aS,6S,6aR,9aR,9bR)-6,9a-dimethyl-3-methylidene-3a,4,5,6,6a,9b-hexahydroazuleno[8,7-b]furan-2,9-dione

> <PUBCHEM_IUPAC_TRADITIONAL_NAME>
(3aS,6S,6aR,9aR,9bR)-6,9a-dimethyl-3-methylene-3a,4,5,6,6a,9b-hexahydroazuleno[8,7-b]furan-2,9-quinone

> <PUBCHEM_IUPAC_INCHI>
InChI=1S/C15H18O3/c1-8-4-5-10-9(2)14(17)18-13(10)15(3)11(8)6-7-12(15)16/h6-8,10-11,13H,2,4-5H2,1,3H3/t8-,10-,11-,13+,15-/m0/s1

> <PUBCHEM_IUPAC_INCHIKEY>
IFXGCKRDLITNAU-JHSUYXJUSA-N

> <PUBCHEM_XLOGP3_AA>
2.6

> <PUBCHEM_EXACT_MASS>
246.125594

> <PUBCHEM_MOLECULAR_FORMULA>
C15H18O3

> <PUBCHEM_MOLECULAR_WEIGHT>
246.30162

> <PUBCHEM_OPENEYE_CAN_SMILES>
CC1CCC2C(C3(C1C=CC3=O)C)OC(=O)C2=C

> <PUBCHEM_OPENEYE_ISO_SMILES>
C[C@H]1CC[C@@H]2[C@H]([C@]3([C@H]1C=CC3=O)C)OC(=O)C2=C

> <PUBCHEM_CACTVS_TPSA>
43.4

> <PUBCHEM_MONOISOTOPIC_WEIGHT>
246.125594

> <PUBCHEM_TOTAL_CHARGE>
0

> <PUBCHEM_HEAVY_ATOM_COUNT>
18

> <PUBCHEM_ATOM_DEF_STEREO_COUNT>
5

> <PUBCHEM_ATOM_UDEF_STEREO_COUNT>
0

> <PUBCHEM_BOND_DEF_STEREO_COUNT>
0

> <PUBCHEM_BOND_UDEF_STEREO_COUNT>
0

> <PUBCHEM_ISOTOPIC_ATOM_COUNT>
0

> <PUBCHEM_COMPONENT_COUNT>
1

> <PUBCHEM_CACTVS_TAUTO_COUNT>
3

> <PUBCHEM_COORDINATE_TYPE>
1
5
255

> <PUBCHEM_BONDANNOTATIONS>
4  12  6
5  19  5
6  20  5
7  21  5
8  16  6

$$$$

