23724735
  -OEChem-07051213082D

 91 96  0     1  0  0  0  0  0999 V2000
    9.8105   -0.8893    0.0000 O   0  0  0  0  0  0  0  0  0  0  0  0
    5.4641   -1.3346    0.0000 O   0  0  0  0  0  0  0  0  0  0  0  0
    8.0785   -0.8692    0.0000 O   0  0  0  0  0  0  0  0  0  0  0  0
    4.5981    0.1654    0.0000 O   0  0  0  0  0  0  0  0  0  0  0  0
   11.5193   -2.9092    0.0000 O   0  0  0  0  0  0  0  0  0  0  0  0
    9.7758   -3.8891    0.0000 O   0  0  0  0  0  0  0  0  0  0  0  0
    8.0554   -2.8691    0.0000 O   0  0  0  0  0  0  0  0  0  0  0  0
    2.8660   -2.8346    0.0000 O   0  0  0  0  0  0  0  0  0  0  0  0
    4.5981   -3.8346    0.0000 O   0  0  0  0  0  0  0  0  0  0  0  0
    2.8660   -0.8346    0.0000 O   0  0  0  0  0  0  0  0  0  0  0  0
   12.4026   -1.4193    0.0000 O   0  0  0  0  0  0  0  0  0  0  0  0
    6.3301   -3.8346    0.0000 O   0  0  0  0  0  0  0  0  0  0  0  0
    6.3301    2.1654    0.0000 O   0  3  0  0  0  0  0  0  0  0  0  0
    9.8602    2.1895    0.0000 O   0  0  0  0  0  0  0  0  0  0  0  0
   13.2859    0.0706    0.0000 O   0  0  0  0  0  0  0  0  0  0  0  0
    2.0000    3.6654    0.0000 O   0  0  0  0  0  0  0  0  0  0  0  0
   16.7035   -3.9692    0.0000 O   0  0  0  0  0  0  0  0  0  0  0  0
   18.4470   -2.9893    0.0000 O   0  0  0  0  0  0  0  0  0  0  0  0
   10.6591   -2.3992    0.0000 C   0  0  1  0  0  0  0  0  0  0  0  0
    9.7873   -2.8891    0.0000 C   0  0  1  0  0  0  0  0  0  0  0  0
   10.6707   -1.3992    0.0000 C   0  0  1  0  0  0  0  0  0  0  0  0
    8.9271   -2.3792    0.0000 C   0  0  2  0  0  0  0  0  0  0  0  0
    3.7320   -2.3346    0.0000 C   0  0  1  0  0  0  0  0  0  0  0  0
    4.5981   -2.8346    0.0000 C   0  0  1  0  0  0  0  0  0  0  0  0
    3.7320   -1.3346    0.0000 C   0  0  2  0  0  0  0  0  0  0  0  0
    5.4641   -2.3346    0.0000 C   0  0  1  0  0  0  0  0  0  0  0  0
    8.9387   -1.3792    0.0000 C   0  0  1  0  0  0  0  0  0  0  0  0
    4.5981   -0.8346    0.0000 C   0  0  1  0  0  0  0  0  0  0  0  0
   11.5424   -0.9093    0.0000 C   0  0  0  0  0  0  0  0  0  0  0  0
    6.3301   -2.8346    0.0000 C   0  0  0  0  0  0  0  0  0  0  0  0
    8.0901    0.1307    0.0000 C   0  0  0  0  0  0  0  0  0  0  0  0
    5.4641    0.6654    0.0000 C   0  0  0  0  0  0  0  0  0  0  0  0
    7.1962    0.6654    0.0000 C   0  0  0  0  0  0  0  0  0  0  0  0
    6.3301    0.1654    0.0000 C   0  0  0  0  0  0  0  0  0  0  0  0
    5.4641    1.6654    0.0000 C   0  0  0  0  0  0  0  0  0  0  0  0
    7.1962    1.6654    0.0000 C   0  0  0  0  0  0  0  0  0  0  0  0
    8.9962    0.6445    0.0000 C   0  0  0  0  0  0  0  0  0  0  0  0
    8.0901    2.2000    0.0000 C   0  0  0  0  0  0  0  0  0  0  0  0
    8.9962    1.6862    0.0000 C   0  0  0  0  0  0  0  0  0  0  0  0
    4.5981    2.1654    0.0000 C   0  0  0  0  0  0  0  0  0  0  0  0
   13.2743   -0.9293    0.0000 C   0  0  0  0  0  0  0  0  0  0  0  0
    4.5981    3.1654    0.0000 C   0  0  0  0  0  0  0  0  0  0  0  0
    3.7320    1.6654    0.0000 C   0  0  0  0  0  0  0  0  0  0  0  0
   14.1345   -1.4393    0.0000 C   0  0  0  0  0  0  0  0  0  0  0  0
    3.7320    3.6654    0.0000 C   0  0  0  0  0  0  0  0  0  0  0  0
    2.8660    2.1654    0.0000 C   0  0  0  0  0  0  0  0  0  0  0  0
    2.8660    3.1654    0.0000 C   0  0  0  0  0  0  0  0  0  0  0  0
   15.0063   -0.9493    0.0000 C   0  0  0  0  0  0  0  0  0  0  0  0
   15.8665   -1.4593    0.0000 C   0  0  0  0  0  0  0  0  0  0  0  0
   15.8549   -2.4593    0.0000 C   0  0  0  0  0  0  0  0  0  0  0  0
   16.7382   -0.9694    0.0000 C   0  0  0  0  0  0  0  0  0  0  0  0
   16.7151   -2.9692    0.0000 C   0  0  0  0  0  0  0  0  0  0  0  0
   17.5984   -1.4794    0.0000 C   0  0  0  0  0  0  0  0  0  0  0  0
   17.5868   -2.4793    0.0000 C   0  0  0  0  0  0  0  0  0  0  0  0
   10.6519   -3.0191    0.0000 H   0  0  0  0  0  0  0  0  0  0  0  0
   10.3207   -3.2053    0.0000 H   0  0  0  0  0  0  0  0  0  0  0  0
   10.6778   -0.7793    0.0000 H   0  0  0  0  0  0  0  0  0  0  0  0
    8.3938   -2.0630    0.0000 H   0  0  0  0  0  0  0  0  0  0  0  0
    3.7320   -2.9546    0.0000 H   0  0  0  0  0  0  0  0  0  0  0  0
    5.1350   -3.1446    0.0000 H   0  0  0  0  0  0  0  0  0  0  0  0
    3.1951   -1.6446    0.0000 H   0  0  0  0  0  0  0  0  0  0  0  0
    6.0010   -2.0246    0.0000 H   0  0  0  0  0  0  0  0  0  0  0  0
    8.3982   -1.6830    0.0000 H   0  0  0  0  0  0  0  0  0  0  0  0
    4.0611   -0.5246    0.0000 H   0  0  0  0  0  0  0  0  0  0  0  0
   11.9464   -0.4390    0.0000 H   0  0  0  0  0  0  0  0  0  0  0  0
   11.1494   -0.4298    0.0000 H   0  0  0  0  0  0  0  0  0  0  0  0
    6.9407   -2.9423    0.0000 H   0  0  0  0  0  0  0  0  0  0  0  0
    6.5422   -2.2520    0.0000 H   0  0  0  0  0  0  0  0  0  0  0  0
   11.5121   -3.5291    0.0000 H   0  0  0  0  0  0  0  0  0  0  0  0
   10.3091   -4.2053    0.0000 H   0  0  0  0  0  0  0  0  0  0  0  0
    8.0482   -3.4891    0.0000 H   0  0  0  0  0  0  0  0  0  0  0  0
    2.8660   -3.4546    0.0000 H   0  0  0  0  0  0  0  0  0  0  0  0
    4.0611   -4.1446    0.0000 H   0  0  0  0  0  0  0  0  0  0  0  0
    2.3291   -1.1446    0.0000 H   0  0  0  0  0  0  0  0  0  0  0  0
    6.3301   -0.4546    0.0000 H   0  0  0  0  0  0  0  0  0  0  0  0
    9.5319    0.3325    0.0000 H   0  0  0  0  0  0  0  0  0  0  0  0
    6.8671   -4.1446    0.0000 H   0  0  0  0  0  0  0  0  0  0  0  0
    8.0829    2.8200    0.0000 H   0  0  0  0  0  0  0  0  0  0  0  0
    5.1350    3.4754    0.0000 H   0  0  0  0  0  0  0  0  0  0  0  0
    3.7320    1.0454    0.0000 H   0  0  0  0  0  0  0  0  0  0  0  0
   14.1274   -2.0593    0.0000 H   0  0  0  0  0  0  0  0  0  0  0  0
    9.8579    2.8095    0.0000 H   0  0  0  0  0  0  0  0  0  0  0  0
    3.7320    4.2854    0.0000 H   0  0  0  0  0  0  0  0  0  0  0  0
    2.3291    1.8554    0.0000 H   0  0  0  0  0  0  0  0  0  0  0  0
   15.0134   -0.3294    0.0000 H   0  0  0  0  0  0  0  0  0  0  0  0
    2.0000    4.2854    0.0000 H   0  0  0  0  0  0  0  0  0  0  0  0
   15.3144   -2.7630    0.0000 H   0  0  0  0  0  0  0  0  0  0  0  0
   16.7454   -0.3494    0.0000 H   0  0  0  0  0  0  0  0  0  0  0  0
   18.1389   -1.1756    0.0000 H   0  0  0  0  0  0  0  0  0  0  0  0
   17.2368   -4.2854    0.0000 H   0  0  0  0  0  0  0  0  0  0  0  0
   18.9875   -2.6855    0.0000 H   0  0  0  0  0  0  0  0  0  0  0  0
  1 21  1  0  0  0  0
  1 27  1  0  0  0  0
  2 26  1  0  0  0  0
  2 28  1  0  0  0  0
 27  3  1  6  0  0  0
  3 31  1  0  0  0  0
 28  4  1  6  0  0  0
  4 32  1  0  0  0  0
 19  5  1  1  0  0  0
  5 69  1  0  0  0  0
 20  6  1  6  0  0  0
  6 70  1  0  0  0  0
 22  7  1  1  0  0  0
  7 71  1  0  0  0  0
 23  8  1  6  0  0  0
  8 72  1  0  0  0  0
 24  9  1  1  0  0  0
  9 73  1  0  0  0  0
 25 10  1  1  0  0  0
 10 74  1  0  0  0  0
 11 29  1  0  0  0  0
 11 41  1  0  0  0  0
 12 30  1  0  0  0  0
 12 77  1  0  0  0  0
 13 35  1  0  0  0  0
 13 36  2  0  0  0  0
 14 39  1  0  0  0  0
 14 82  1  0  0  0  0
 15 41  2  0  0  0  0
 16 47  1  0  0  0  0
 16 86  1  0  0  0  0
 17 52  1  0  0  0  0
 17 90  1  0  0  0  0
 18 54  1  0  0  0  0
 18 91  1  0  0  0  0
 19 20  1  0  0  0  0
 19 21  1  0  0  0  0
 19 55  1  0  0  0  0
 20 22  1  0  0  0  0
 20 56  1  0  0  0  0
 21 29  1  6  0  0  0
 21 57  1  0  0  0  0
 22 27  1  0  0  0  0
 22 58  1  0  0  0  0
 23 24  1  0  0  0  0
 23 25  1  0  0  0  0
 23 59  1  0  0  0  0
 24 26  1  0  0  0  0
 24 60  1  0  0  0  0
 25 28  1  0  0  0  0
 25 61  1  0  0  0  0
 26 30  1  6  0  0  0
 26 62  1  0  0  0  0
 27 63  1  0  0  0  0
 28 64  1  0  0  0  0
 29 65  1  0  0  0  0
 29 66  1  0  0  0  0
 30 67  1  0  0  0  0
 30 68  1  0  0  0  0
 31 33  1  0  0  0  0
 31 37  2  0  0  0  0
 32 34  1  0  0  0  0
 32 35  2  0  0  0  0
 33 34  2  0  0  0  0
 33 36  1  0  0  0  0
 34 75  1  0  0  0  0
 35 40  1  0  0  0  0
 36 38  1  0  0  0  0
 37 39  1  0  0  0  0
 37 76  1  0  0  0  0
 38 39  2  0  0  0  0
 38 78  1  0  0  0  0
 40 42  2  0  0  0  0
 40 43  1  0  0  0  0
 41 44  1  0  0  0  0
 42 45  1  0  0  0  0
 42 79  1  0  0  0  0
 43 46  2  0  0  0  0
 43 80  1  0  0  0  0
 44 48  2  0  0  0  0
 44 81  1  0  0  0  0
 45 47  2  0  0  0  0
 45 83  1  0  0  0  0
 46 47  1  0  0  0  0
 46 84  1  0  0  0  0
 48 49  1  0  0  0  0
 48 85  1  0  0  0  0
 49 50  2  0  0  0  0
 49 51  1  0  0  0  0
 50 52  1  0  0  0  0
 50 87  1  0  0  0  0
 51 53  2  0  0  0  0
 51 88  1  0  0  0  0
 52 54  2  0  0  0  0
 53 54  1  0  0  0  0
 53 89  1  0  0  0  0
M  CHG  1  13   1
M  END
> <PUBCHEM_COMPOUND_CID>
23724735

> <PUBCHEM_COMPOUND_CANONICALIZED>
1

> <PUBCHEM_CACTVS_COMPLEXITY>
1230

> <PUBCHEM_CACTVS_HBOND_ACCEPTOR>
17

> <PUBCHEM_CACTVS_HBOND_DONOR>
11

> <PUBCHEM_CACTVS_ROTATABLE_BOND>
11

> <PUBCHEM_CACTVS_SUBSKEYS>
AAADcfB8PgAAAAAAAAAAAAAAAAAAAAAAAAA0aNECAAAAAACR9AAAGgAACAAADBSwmAMwDsAABkCIAqDSCAICCAAkIAAIiAFGiMgdNzaGNR6ieWOl4BUPuYfK7PzOIAABCAAIQABAAAIQABCAAAAAAAAAAA==

> <PUBCHEM_IUPAC_OPENEYE_NAME>
[(2R,3S,4S,5R,6S)-3,4,5-trihydroxy-6-[7-hydroxy-2-(4-hydroxyphenyl)-3-[(2S,3R,4S,5S,6R)-3,4,5-trihydroxy-6-(hydroxymethyl)tetrahydropyran-2-yl]oxy-chromenylium-5-yl]oxy-tetrahydropyran-2-yl]methyl (E)-3-(3,4-dihydroxyphenyl)prop-2-enoate

> <PUBCHEM_IUPAC_CAS_NAME>
(E)-3-(3,4-dihydroxyphenyl)-2-propenoic acid [(2R,3S,4S,5R,6S)-3,4,5-trihydroxy-6-[[7-hydroxy-2-(4-hydroxyphenyl)-3-[[(2S,3R,4S,5S,6R)-3,4,5-trihydroxy-6-(hydroxymethyl)-2-oxanyl]oxy]-1-benzopyrylium-5-yl]oxy]-2-oxanyl]methyl ester

> <PUBCHEM_IUPAC_NAME>
[(2R,3S,4S,5R,6S)-3,4,5-trihydroxy-6-[7-hydroxy-2-(4-hydroxyphenyl)-3-[(2S,3R,4S,5S,6R)-3,4,5-trihydroxy-6-(hydroxymethyl)oxan-2-yl]oxychromenylium-5-yl]oxyoxan-2-yl]methyl (E)-3-(3,4-dihydroxyphenyl)prop-2-enoate

> <PUBCHEM_IUPAC_SYSTEMATIC_NAME>
[(2R,3S,4S,5R,6S)-6-[3-[(2S,3R,4S,5S,6R)-6-(hydroxymethyl)-3,4,5-tris(oxidanyl)oxan-2-yl]oxy-2-(4-hydroxyphenyl)-7-oxidanyl-chromenylium-5-yl]oxy-3,4,5-tris(oxidanyl)oxan-2-yl]methyl (E)-3-[3,4-bis(oxidanyl)phenyl]prop-2-enoate

> <PUBCHEM_IUPAC_TRADITIONAL_NAME>
(E)-3-(3,4-dihydroxyphenyl)acrylic acid [(2R,3S,4S,5R,6S)-3,4,5-trihydroxy-6-[[7-hydroxy-2-(4-hydroxyphenyl)-3-[(2S,3R,4S,5S,6R)-3,4,5-trihydroxy-6-methylol-tetrahydropyran-2-yl]oxy-1-benzopyrylium-5-yl]oxy]tetrahydropyran-2-yl]methyl ester

> <PUBCHEM_IUPAC_INCHI>
InChI=1S/C36H36O18/c37-13-25-28(43)30(45)32(47)36(53-25)52-24-12-19-22(50-34(24)16-3-5-17(38)6-4-16)10-18(39)11-23(19)51-35-33(48)31(46)29(44)26(54-35)14-49-27(42)8-2-15-1-7-20(40)21(41)9-15/h1-12,25-26,28-33,35-37,43-48H,13-14H2,(H3-,38,39,40,41,42)/p+1/t25-,26-,28-,29-,30+,31+,32-,33-,35-,36-/m1/s1

> <PUBCHEM_IUPAC_INCHIKEY>
XVAALFVCJHPAIQ-AQAMAIGXSA-O

> <PUBCHEM_EXACT_MASS>
757.197989

> <PUBCHEM_MOLECULAR_FORMULA>
C36H37O18+

> <PUBCHEM_MOLECULAR_WEIGHT>
757.66818

> <PUBCHEM_OPENEYE_CAN_SMILES>
C1=CC(=CC=C1C2=C(C=C3C(=CC(=CC3=[O+]2)O)OC4C(C(C(C(O4)COC(=O)C=CC5=CC(=C(C=C5)O)O)O)O)O)OC6C(C(C(C(O6)CO)O)O)O)O

> <PUBCHEM_OPENEYE_ISO_SMILES>
C1=CC(=CC=C1C2=C(C=C3C(=CC(=CC3=[O+]2)O)O[C@H]4[C@@H]([C@H]([C@@H]([C@H](O4)COC(=O)/C=C/C5=CC(=C(C=C5)O)O)O)O)O)O[C@H]6[C@@H]([C@H]([C@@H]([C@H](O6)CO)O)O)O)O

> <PUBCHEM_CACTVS_TPSA>
287

> <PUBCHEM_MONOISOTOPIC_WEIGHT>
757.197989

> <PUBCHEM_TOTAL_CHARGE>
1

> <PUBCHEM_HEAVY_ATOM_COUNT>
54

> <PUBCHEM_ATOM_DEF_STEREO_COUNT>
10

> <PUBCHEM_ATOM_UDEF_STEREO_COUNT>
0

> <PUBCHEM_BOND_DEF_STEREO_COUNT>
1

> <PUBCHEM_BOND_UDEF_STEREO_COUNT>
0

> <PUBCHEM_ISOTOPIC_ATOM_COUNT>
0

> <PUBCHEM_COMPONENT_COUNT>
1

> <PUBCHEM_CACTVS_TAUTO_COUNT>
336

> <PUBCHEM_COORDINATE_TYPE>
1
5
255

> <PUBCHEM_BONDANNOTATIONS>
25  10  5
13  35  8
13  36  8
21  29  6
26  30  6
27  3  6
31  33  8
31  37  8
32  34  8
32  35  8
33  34  8
33  36  8
36  38  8
37  39  8
38  39  8
28  4  6
40  42  8
40  43  8
42  45  8
43  46  8
45  47  8
46  47  8
49  50  8
49  51  8
19  5  5
50  52  8
51  53  8
52  54  8
53  54  8
20  6  6
22  7  5
23  8  6
24  9  5

$$$$

