107819
  -OEChem-07051213142D

 23 23  0     0  0  0  0  0  0999 V2000
    4.5981    2.8450    0.0000 O   0  0  0  0  0  0  0  0  0  0  0  0
    2.0000    0.3450    0.0000 O   0  0  0  0  0  0  0  0  0  0  0  0
    3.7320   -2.6550    0.0000 N   0  0  0  0  0  0  0  0  0  0  0  0
    3.7320    0.3450    0.0000 C   0  0  0  0  0  0  0  0  0  0  0  0
    3.7320    1.3450    0.0000 C   0  0  0  0  0  0  0  0  0  0  0  0
    2.8660   -0.1550    0.0000 C   0  0  0  0  0  0  0  0  0  0  0  0
    4.5981    1.8450    0.0000 C   0  0  0  0  0  0  0  0  0  0  0  0
    2.8660   -1.1550    0.0000 C   0  0  0  0  0  0  0  0  0  0  0  0
    2.0000   -1.6550    0.0000 C   0  0  0  0  0  0  0  0  0  0  0  0
    3.7320   -1.6550    0.0000 C   0  0  0  0  0  0  0  0  0  0  0  0
    2.0000   -2.6550    0.0000 C   0  0  0  0  0  0  0  0  0  0  0  0
    2.8660   -3.1550    0.0000 C   0  0  0  0  0  0  0  0  0  0  0  0
    3.9441   -0.2376    0.0000 H   0  0  0  0  0  0  0  0  0  0  0  0
    4.3426    0.4527    0.0000 H   0  0  0  0  0  0  0  0  0  0  0  0
    3.5200    1.9276    0.0000 H   0  0  0  0  0  0  0  0  0  0  0  0
    3.1215    1.2373    0.0000 H   0  0  0  0  0  0  0  0  0  0  0  0
    4.8101    1.2624    0.0000 H   0  0  0  0  0  0  0  0  0  0  0  0
    5.2087    1.9527    0.0000 H   0  0  0  0  0  0  0  0  0  0  0  0
    1.4631   -1.3450    0.0000 H   0  0  0  0  0  0  0  0  0  0  0  0
    4.2690   -1.3450    0.0000 H   0  0  0  0  0  0  0  0  0  0  0  0
    1.4631   -2.9650    0.0000 H   0  0  0  0  0  0  0  0  0  0  0  0
    5.1350    3.1550    0.0000 H   0  0  0  0  0  0  0  0  0  0  0  0
    2.8660   -3.7750    0.0000 H   0  0  0  0  0  0  0  0  0  0  0  0
  1  7  1  0  0  0  0
  1 22  1  0  0  0  0
  2  6  2  0  0  0  0
  3 10  1  0  0  0  0
  3 12  2  0  0  0  0
  4  5  1  0  0  0  0
  4  6  1  0  0  0  0
  4 13  1  0  0  0  0
  4 14  1  0  0  0  0
  5  7  1  0  0  0  0
  5 15  1  0  0  0  0
  5 16  1  0  0  0  0
  6  8  1  0  0  0  0
  7 17  1  0  0  0  0
  7 18  1  0  0  0  0
  8  9  1  0  0  0  0
  8 10  2  0  0  0  0
  9 11  2  0  0  0  0
  9 19  1  0  0  0  0
 10 20  1  0  0  0  0
 11 12  1  0  0  0  0
 11 21  1  0  0  0  0
 12 23  1  0  0  0  0
M  END
> <PUBCHEM_COMPOUND_CID>
107819

> <PUBCHEM_COMPOUND_CANONICALIZED>
1

> <PUBCHEM_CACTVS_COMPLEXITY>
148

> <PUBCHEM_CACTVS_HBOND_ACCEPTOR>
3

> <PUBCHEM_CACTVS_HBOND_DONOR>
1

> <PUBCHEM_CACTVS_ROTATABLE_BOND>
4

> <PUBCHEM_CACTVS_SUBSKEYS>
AAADccByMAAAAAAAAAAAAAAAAAAAAAAAAAAsAAAAAAAAAAABgAAAHgAACAAADAThmgY8gJIIEgCoArB3RACCgCA1AiAI2CE4ZNgIMPrAlZGEYYhkgADIyceawbAOAAAAAAAAAAAAAAAAAAAAAAAAAAAAAA==

> <PUBCHEM_IUPAC_OPENEYE_NAME>
4-hydroxy-1-(3-pyridyl)butan-1-one

> <PUBCHEM_IUPAC_CAS_NAME>
4-hydroxy-1-(3-pyridinyl)-1-butanone

> <PUBCHEM_IUPAC_NAME>
4-hydroxy-1-pyridin-3-ylbutan-1-one

> <PUBCHEM_IUPAC_SYSTEMATIC_NAME>
4-oxidanyl-1-pyridin-3-yl-butan-1-one

> <PUBCHEM_IUPAC_TRADITIONAL_NAME>
4-hydroxy-1-(3-pyridyl)butan-1-one

> <PUBCHEM_IUPAC_INCHI>
InChI=1S/C9H11NO2/c11-6-2-4-9(12)8-3-1-5-10-7-8/h1,3,5,7,11H,2,4,6H2

> <PUBCHEM_IUPAC_INCHIKEY>
KTXUGZHJVRHQGP-UHFFFAOYSA-N

> <PUBCHEM_XLOGP3>
0

> <PUBCHEM_EXACT_MASS>
165.078979

> <PUBCHEM_MOLECULAR_FORMULA>
C9H11NO2

> <PUBCHEM_MOLECULAR_WEIGHT>
165.18914

> <PUBCHEM_OPENEYE_CAN_SMILES>
C1=CC(=CN=C1)C(=O)CCCO

> <PUBCHEM_OPENEYE_ISO_SMILES>
C1=CC(=CN=C1)C(=O)CCCO

> <PUBCHEM_CACTVS_TPSA>
50.2

> <PUBCHEM_MONOISOTOPIC_WEIGHT>
165.078979

> <PUBCHEM_TOTAL_CHARGE>
0

> <PUBCHEM_HEAVY_ATOM_COUNT>
12

> <PUBCHEM_ATOM_DEF_STEREO_COUNT>
0

> <PUBCHEM_ATOM_UDEF_STEREO_COUNT>
0

> <PUBCHEM_BOND_DEF_STEREO_COUNT>
0

> <PUBCHEM_BOND_UDEF_STEREO_COUNT>
0

> <PUBCHEM_ISOTOPIC_ATOM_COUNT>
0

> <PUBCHEM_COMPONENT_COUNT>
1

> <PUBCHEM_CACTVS_TAUTO_COUNT>
2

> <PUBCHEM_COORDINATE_TYPE>
1
5
255

> <PUBCHEM_BONDANNOTATIONS>
11  12  8
3  10  8
3  12  8
8  10  8
8  9  8
9  11  8

$$$$

