193002
  -OEChem-07051212493D

 57 59  0     1  0  0  0  0  0999 V2000
    1.1404    3.3418   -0.9192 P   0  0  2  0  0  0  0  0  0  0  0  0
    3.0489    1.1480   -1.3692 P   0  0  1  0  0  0  0  0  0  0  0  0
   -2.8114    1.8690    0.0184 O   0  0  0  0  0  0  0  0  0  0  0  0
   -3.7238    2.2413    2.8501 O   0  0  0  0  0  0  0  0  0  0  0  0
   -3.4917   -0.4688    2.6511 O   0  0  0  0  0  0  0  0  0  0  0  0
   -0.3802    3.2232   -0.3800 O   0  0  0  0  0  0  0  0  0  0  0  0
    1.5338   -1.1788    0.9695 O   0  0  0  0  0  0  0  0  0  0  0  0
    3.0188   -0.3027   -0.6622 O   0  0  0  0  0  0  0  0  0  0  0  0
    1.6079    1.7984   -1.0315 O   0  0  0  0  0  0  0  0  0  0  0  0
    5.0707   -0.2595    1.2793 O   0  0  0  0  0  0  0  0  0  0  0  0
   -4.8972   -1.6585   -0.1210 O   0  0  0  0  0  0  0  0  0  0  0  0
    1.9670    3.8797    0.3631 O   0  0  0  0  0  0  0  0  0  0  0  0
    2.8064   -4.3784    1.5442 O   0  0  0  0  0  0  0  0  0  0  0  0
    1.3256    4.1433   -2.1745 O   0  0  0  0  0  0  0  0  0  0  0  0
    4.0699    2.0201   -0.4668 O   0  0  0  0  0  0  0  0  0  0  0  0
    3.3842    1.1207   -2.8323 O   0  0  0  0  0  0  0  0  0  0  0  0
   -3.0024   -0.4000   -0.5104 N   0  0  0  0  0  0  0  0  0  0  0  0
   -3.4750   -2.4415   -1.7072 N   0  0  0  0  0  0  0  0  0  0  0  0
   -2.0126   -3.2393   -3.3300 N   0  0  0  0  0  0  0  0  0  0  0  0
   -2.4861    1.7260    2.3604 C   0  0  1  0  0  0  0  0  0  0  0  0
   -2.6793    0.3276    1.8133 C   0  0  2  0  0  0  0  0  0  0  0  0
   -2.1138    2.5096    1.1091 C   0  0  1  0  0  0  0  0  0  0  0  0
   -3.3228    0.6027    0.4651 C   0  0  1  0  0  0  0  0  0  0  0  0
   -0.6227    2.4795    0.8014 C   0  0  0  0  0  0  0  0  0  0  0  0
   -1.8284   -0.2714   -1.2365 C   0  0  0  0  0  0  0  0  0  0  0  0
    3.8890   -1.0206    1.4879 C   0  0  1  0  0  0  0  0  0  0  0  0
   -3.8475   -1.5130   -0.7501 C   0  0  0  0  0  0  0  0  0  0  0  0
    2.7123   -0.4066    0.7261 C   0  0  2  0  0  0  0  0  0  0  0  0
    4.1396   -2.4571    1.0541 C   0  0  0  0  0  0  0  0  0  0  0  0
    1.6252   -2.5260    0.5185 C   0  0  1  0  0  0  0  0  0  0  0  0
    2.8417   -3.2246    1.1197 C   0  0  0  0  0  0  0  0  0  0  0  0
   -1.4518   -1.1537   -2.1600 C   0  0  0  0  0  0  0  0  0  0  0  0
    0.3300   -3.2257    0.9031 C   0  0  0  0  0  0  0  0  0  0  0  0
   -2.3645   -2.3051   -2.3834 C   0  0  0  0  0  0  0  0  0  0  0  0
   -1.7536    1.7796    3.1708 H   0  0  0  0  0  0  0  0  0  0  0  0
   -1.7089   -0.1708    1.6978 H   0  0  0  0  0  0  0  0  0  0  0  0
   -2.4665    3.5466    1.1416 H   0  0  0  0  0  0  0  0  0  0  0  0
   -4.4125    0.6871    0.5547 H   0  0  0  0  0  0  0  0  0  0  0  0
   -0.0825    2.9421    1.6331 H   0  0  0  0  0  0  0  0  0  0  0  0
   -0.2481    1.4608    0.6776 H   0  0  0  0  0  0  0  0  0  0  0  0
   -3.5600    3.1504    3.1543 H   0  0  0  0  0  0  0  0  0  0  0  0
   -3.0638   -0.5056    3.5235 H   0  0  0  0  0  0  0  0  0  0  0  0
   -1.1900    0.5777   -1.0495 H   0  0  0  0  0  0  0  0  0  0  0  0
    3.6559   -1.0083    2.5602 H   0  0  0  0  0  0  0  0  0  0  0  0
    2.5226    0.5950    1.1272 H   0  0  0  0  0  0  0  0  0  0  0  0
    4.5333   -2.5091    0.0330 H   0  0  0  0  0  0  0  0  0  0  0  0
    4.8798   -2.9268    1.7112 H   0  0  0  0  0  0  0  0  0  0  0  0
    1.7262   -2.5407   -0.5731 H   0  0  0  0  0  0  0  0  0  0  0  0
   -0.5361   -1.0601   -2.7285 H   0  0  0  0  0  0  0  0  0  0  0  0
    0.3069   -4.2565    0.5361 H   0  0  0  0  0  0  0  0  0  0  0  0
    0.2061   -3.2470    1.9919 H   0  0  0  0  0  0  0  0  0  0  0  0
   -0.5346   -2.6906    0.4978 H   0  0  0  0  0  0  0  0  0  0  0  0
    5.7839   -0.6767    1.7919 H   0  0  0  0  0  0  0  0  0  0  0  0
    1.9955    3.3427    1.1829 H   0  0  0  0  0  0  0  0  0  0  0  0
   -2.6052   -4.0415   -3.5151 H   0  0  0  0  0  0  0  0  0  0  0  0
   -1.1571   -3.1619   -3.8700 H   0  0  0  0  0  0  0  0  0  0  0  0
    4.3468    2.9053   -0.7858 H   0  0  0  0  0  0  0  0  0  0  0  0
  1  6  1  0  0  0  0
  1  9  1  0  0  0  0
  1 12  1  0  0  0  0
  1 14  2  0  0  0  0
  2  8  1  0  0  0  0
  2  9  1  0  0  0  0
  2 15  1  0  0  0  0
  2 16  2  0  0  0  0
  3 22  1  0  0  0  0
  3 23  1  0  0  0  0
  4 20  1  0  0  0  0
  4 41  1  0  0  0  0
  5 21  1  0  0  0  0
  5 42  1  0  0  0  0
  6 24  1  0  0  0  0
  7 28  1  0  0  0  0
  7 30  1  0  0  0  0
  8 28  1  0  0  0  0
 10 26  1  0  0  0  0
 10 53  1  0  0  0  0
 11 27  2  0  0  0  0
 12 54  1  0  0  0  0
 13 31  2  0  0  0  0
 15 57  1  0  0  0  0
 17 23  1  0  0  0  0
 17 25  1  0  0  0  0
 17 27  1  0  0  0  0
 18 27  1  0  0  0  0
 18 34  2  0  0  0  0
 19 34  1  0  0  0  0
 19 55  1  0  0  0  0
 19 56  1  0  0  0  0
 20 21  1  0  0  0  0
 20 22  1  0  0  0  0
 20 35  1  0  0  0  0
 21 23  1  0  0  0  0
 21 36  1  0  0  0  0
 22 24  1  0  0  0  0
 22 37  1  0  0  0  0
 23 38  1  0  0  0  0
 24 39  1  0  0  0  0
 24 40  1  0  0  0  0
 25 32  2  0  0  0  0
 25 43  1  0  0  0  0
 26 28  1  0  0  0  0
 26 29  1  0  0  0  0
 26 44  1  0  0  0  0
 28 45  1  0  0  0  0
 29 31  1  0  0  0  0
 29 46  1  0  0  0  0
 29 47  1  0  0  0  0
 30 31  1  0  0  0  0
 30 33  1  0  0  0  0
 30 48  1  0  0  0  0
 32 34  1  0  0  0  0
 32 49  1  0  0  0  0
 33 50  1  0  0  0  0
 33 51  1  0  0  0  0
 33 52  1  0  0  0  0
M  END
> <PUBCHEM_COMPOUND_CID>
193002

> <PUBCHEM_CONFORMER_RMSD>
1.2

> <PUBCHEM_CONFORMER_DIVERSEORDER>
2
196
181
173
14
346
46
360
462
104
68
110
49
22
461
456
132
454
262
143
438
296
383
273
436
335
179
371
220
153
190
172
271
386
135
228
215
353
404
106
315
331
170
463
435
458
42
261
281
359
58
432
379
37
423
144
164
193
415
129
430
445
82
214
440
285
410
324
171
156
305
231
340
333
222
100
278
403
32
146
78
457
175
433
180
167
466
411
434
207
291
199
122
375
250
396
79
155
71
306
107
194
234
216
465
1
390
62
219
374
247
224
420
275
174
429
419
406
86
332
145
151
464
252
191
307
355
113
446
120
448
288
269
225
279
347
95
329
373
412
367
218
409
317
323
96
177
258
108
67
11
248
299
309
417
92
124
388
119
123
298
185
112
158
370
109
378
115
343
29
204
103
64
280
85
351
260
311
428
459
257
15
161
28
243
89
84
381
394
286
83
50
130
387
192
3
136
33
372
102
397
56
393
314
268
128
117
75
451
289
316
233
230
267
424
36
276
148
334
223
51
364
405
348
80
249
339
325
413
31
238
308
235
421
266
358
255
57
328
272
203
183
263
447
338
142
368
341
43
270
197
251
349
55
292
327
229
182
450
366
287
60
210
293
4
297
200
81
408
352
139
127
70
213
116
401
422
443
166
202
425
365
91
141
439
20
277
418
105
241
111
186
187
294
402
47
376
322
201
437
147
295
399
244
16
125
240
40
73
217
152
10
398
189
391
345
392
239
384
195
69
300
26
206
427
330
140
377
61
54
369
205
150
169
400
39
87
162
407
301
431
460
76
350
259
34
426
232
98
30
211
114
159
90
154
342
176
361
313
131
254
24
209
25
236
227
442
326
18
38
283
385
184
226
6
357
336
256
63
449
356
101
133
354
208
48
41
221
380
45
318
149
282
455
65
310
44
389
395
178
414
99
165
163
444
319
21
23
157
264
344
237
188
416
74
93
337
13
304
284
118
452
290
126
198
467
242
320
12
168
77
312
7
302
363
138
303
121
253
265
441
137
362
27
321
212
246
274
88
97
94
9
5
19
66
134
8
453
17
160
382
245
53
52
35
59
72

> <PUBCHEM_MMFF94_PARTIAL_CHARGES>
42
1 1.51
10 -0.68
11 -0.57
12 -0.77
13 -0.57
14 -0.7
15 -0.77
16 -0.7
17 -0.47
18 -0.66
19 -0.85
2 1.51
20 0.28
21 0.28
22 0.28
23 0.58
24 0.28
25 -0.04
26 0.28
27 0.84
28 0.56
29 0.06
3 -0.56
30 0.34
31 0.45
32 -0.14
34 0.49
4 -0.68
41 0.4
42 0.4
43 0.15
49 0.15
5 -0.68
53 0.4
54 0.5
55 0.4
56 0.4
57 0.5
6 -0.55
7 -0.56
8 -0.55
9 -0.54

> <PUBCHEM_EFFECTIVE_ROTOR_COUNT>
10

> <PUBCHEM_PHARMACOPHORE_FEATURES>
19
1 10 acceptor
1 10 donor
1 11 acceptor
1 12 acceptor
1 13 acceptor
1 14 acceptor
1 15 acceptor
1 16 acceptor
1 18 donor
1 19 donor
1 3 acceptor
1 4 acceptor
1 4 donor
1 5 acceptor
1 5 donor
1 7 acceptor
5 3 20 21 22 23 rings
6 17 18 25 27 32 34 rings
6 7 26 28 29 30 31 rings

> <PUBCHEM_HEAVY_ATOM_COUNT>
34

> <PUBCHEM_ATOM_DEF_STEREO_COUNT>
7

> <PUBCHEM_ATOM_UDEF_STEREO_COUNT>
0

> <PUBCHEM_BOND_DEF_STEREO_COUNT>
0

> <PUBCHEM_BOND_UDEF_STEREO_COUNT>
0

> <PUBCHEM_ISOTOPIC_ATOM_COUNT>
0

> <PUBCHEM_COMPONENT_COUNT>
1

> <PUBCHEM_CACTVS_TAUTO_COUNT>
9

> <PUBCHEM_CONFORMER_ID>
0002F1EA00000002

> <PUBCHEM_MMFF94_ENERGY>
46.3402

> <PUBCHEM_FEATURE_SELFOVERLAP>
96.497

> <PUBCHEM_SHAPE_FINGERPRINT>
12539773 59 18114444726456762441
12788726 201 17969215647229074651
13965767 371 17755010135866346011
14468879 13 4750012733466508937
14705955 166 15502916598263933075
14725015 67 15813429298832814822
15403338 16 17772451624947232953
17138139 8 17322958837039179076
17974551 9 15828024916555054083
19319366 153 17977668606782171103
20764821 26 17835527015991942954
238 59 17844820178416550893
238918 7 16463062146216693422
35225 105 16836253430776614710
463206 1 17828771633994175201
469060 322 18342471356113917560
5080951 261 16618173486464939466

> <PUBCHEM_SHAPE_MULTIPOLES>
610.29
8.57
5.5
2.88
1.94
1.02
-0.78
-3.29
2.46
2.04
-1.07
-1.69
-0.48
-5.2

> <PUBCHEM_SHAPE_SELFOVERLAP>
1247.603

> <PUBCHEM_SHAPE_VOLUME>
354.5

> <PUBCHEM_COORDINATE_TYPE>
2
5
10

$$$$

