65004
  -OEChem-07051213072D

 84 86  0     1  0  0  0  0  0999 V2000
    8.1374    1.0000    0.0000 O   0  0  0  0  0  0  0  0  0  0  0  0
    5.5393    0.5000    0.0000 O   0  0  0  0  0  0  0  0  0  0  0  0
    4.4374    1.3006    0.0000 O   0  0  0  0  0  0  0  0  0  0  0  0
    9.0034    0.5000    0.0000 O   0  0  0  0  0  0  0  0  0  0  0  0
   11.6015    1.0000    0.0000 O   0  0  0  0  0  0  0  0  0  0  0  0
   11.6015   -2.0000    0.0000 O   0  0  0  0  0  0  0  0  0  0  0  0
    9.8694    1.0000    0.0000 O   0  0  0  0  0  0  0  0  0  0  0  0
    6.4053    2.0000    0.0000 N   0  0  0  0  0  0  0  0  0  0  0  0
    3.9021    2.9479    0.0000 N   0  0  0  0  0  0  0  0  0  0  0  0
    8.1374   -1.0000    0.0000 N   0  0  0  0  0  0  0  0  0  0  0  0
   10.7355   -0.5000    0.0000 N   0  0  0  0  0  0  0  0  0  0  0  0
   10.7355   -3.5000    0.0000 N   0  0  0  0  0  0  0  0  0  0  0  0
    5.5963    2.5878    0.0000 C   0  0  1  0  0  0  0  0  0  0  0  0
    5.9053    3.5388    0.0000 C   0  0  0  0  0  0  0  0  0  0  0  0
    6.9053    3.5388    0.0000 C   0  0  0  0  0  0  0  0  0  0  0  0
    7.2144    2.5878    0.0000 C   0  0  0  0  0  0  0  0  0  0  0  0
    6.4053    1.0000    0.0000 C   0  0  0  0  0  0  0  0  0  0  0  0
    4.6453    2.2788    0.0000 C   0  0  0  0  0  0  0  0  0  0  0  0
    7.2714    0.5000    0.0000 C   0  0  2  0  0  0  0  0  0  0  0  0
    7.2714   -0.5000    0.0000 C   0  0  2  0  0  0  0  0  0  0  0  0
    2.9511    2.6389    0.0000 C   0  0  0  0  0  0  0  0  0  0  0  0
    6.4053   -1.0000    0.0000 C   0  0  0  0  0  0  0  0  0  0  0  0
    2.0000    2.3299    0.0000 C   0  0  0  0  0  0  0  0  0  0  0  0
    2.6420    3.5899    0.0000 C   0  0  0  0  0  0  0  0  0  0  0  0
    3.2601    1.6878    0.0000 C   0  0  0  0  0  0  0  0  0  0  0  0
    6.4053   -2.0000    0.0000 C   0  0  0  0  0  0  0  0  0  0  0  0
    9.0034   -0.5000    0.0000 C   0  0  0  0  0  0  0  0  0  0  0  0
    9.8694   -1.0000    0.0000 C   0  0  2  0  0  0  0  0  0  0  0  0
    5.5393   -2.5000    0.0000 C   0  0  0  0  0  0  0  0  0  0  0  0
    7.2714   -2.5000    0.0000 C   0  0  0  0  0  0  0  0  0  0  0  0
    9.8694   -2.0000    0.0000 C   0  0  0  0  0  0  0  0  0  0  0  0
    5.5393   -3.5000    0.0000 C   0  0  0  0  0  0  0  0  0  0  0  0
    7.2714   -3.5000    0.0000 C   0  0  0  0  0  0  0  0  0  0  0  0
    6.4053   -4.0000    0.0000 C   0  0  0  0  0  0  0  0  0  0  0  0
   10.7355   -2.5000    0.0000 C   0  0  0  0  0  0  0  0  0  0  0  0
   10.7355    0.5000    0.0000 C   0  0  0  0  0  0  0  0  0  0  0  0
   11.6015    2.0000    0.0000 C   0  0  0  0  0  0  0  0  0  0  0  0
   12.4675    2.5000    0.0000 C   0  0  0  0  0  0  0  0  0  0  0  0
   12.4675    3.5000    0.0000 C   0  0  0  0  0  0  0  0  0  0  0  0
   13.3335    2.0000    0.0000 C   0  0  0  0  0  0  0  0  0  0  0  0
   13.3335    4.0000    0.0000 C   0  0  0  0  0  0  0  0  0  0  0  0
   14.1996    2.5000    0.0000 C   0  0  0  0  0  0  0  0  0  0  0  0
   14.1996    3.5000    0.0000 C   0  0  0  0  0  0  0  0  0  0  0  0
    5.4993    1.9754    0.0000 H   0  0  0  0  0  0  0  0  0  0  0  0
    5.9701    4.1554    0.0000 H   0  0  0  0  0  0  0  0  0  0  0  0
    5.2989    3.6678    0.0000 H   0  0  0  0  0  0  0  0  0  0  0  0
    7.5118    3.6678    0.0000 H   0  0  0  0  0  0  0  0  0  0  0  0
    6.8405    4.1554    0.0000 H   0  0  0  0  0  0  0  0  0  0  0  0
    7.5244    2.0508    0.0000 H   0  0  0  0  0  0  0  0  0  0  0  0
    7.7808    2.8400    0.0000 H   0  0  0  0  0  0  0  0  0  0  0  0
    7.2714    1.1200    0.0000 H   0  0  0  0  0  0  0  0  0  0  0  0
    7.2714   -1.1200    0.0000 H   0  0  0  0  0  0  0  0  0  0  0  0
    4.0310    3.5544    0.0000 H   0  0  0  0  0  0  0  0  0  0  0  0
    6.1933   -0.4174    0.0000 H   0  0  0  0  0  0  0  0  0  0  0  0
    5.7947   -1.1077    0.0000 H   0  0  0  0  0  0  0  0  0  0  0  0
    8.1374   -1.6200    0.0000 H   0  0  0  0  0  0  0  0  0  0  0  0
    1.8084    2.9195    0.0000 H   0  0  0  0  0  0  0  0  0  0  0  0
    1.4103    2.1383    0.0000 H   0  0  0  0  0  0  0  0  0  0  0  0
    2.1916    1.7402    0.0000 H   0  0  0  0  0  0  0  0  0  0  0  0
    3.2317    3.7815    0.0000 H   0  0  0  0  0  0  0  0  0  0  0  0
    2.4504    4.1796    0.0000 H   0  0  0  0  0  0  0  0  0  0  0  0
    2.0524    3.3984    0.0000 H   0  0  0  0  0  0  0  0  0  0  0  0
    2.6704    1.4962    0.0000 H   0  0  0  0  0  0  0  0  0  0  0  0
    3.4517    1.0982    0.0000 H   0  0  0  0  0  0  0  0  0  0  0  0
    3.8497    1.8794    0.0000 H   0  0  0  0  0  0  0  0  0  0  0  0
    8.1374    1.6200    0.0000 H   0  0  0  0  0  0  0  0  0  0  0  0
   10.4064   -1.3100    0.0000 H   0  0  0  0  0  0  0  0  0  0  0  0
    5.0024   -2.1900    0.0000 H   0  0  0  0  0  0  0  0  0  0  0  0
    7.8083   -2.1900    0.0000 H   0  0  0  0  0  0  0  0  0  0  0  0
    9.2588   -1.8923    0.0000 H   0  0  0  0  0  0  0  0  0  0  0  0
    9.6574   -2.5826    0.0000 H   0  0  0  0  0  0  0  0  0  0  0  0
   11.2724   -0.8100    0.0000 H   0  0  0  0  0  0  0  0  0  0  0  0
    5.0024   -3.8100    0.0000 H   0  0  0  0  0  0  0  0  0  0  0  0
    7.8083   -3.8100    0.0000 H   0  0  0  0  0  0  0  0  0  0  0  0
    6.4053   -4.6200    0.0000 H   0  0  0  0  0  0  0  0  0  0  0  0
   11.2724   -3.8100    0.0000 H   0  0  0  0  0  0  0  0  0  0  0  0
   10.1985   -3.8100    0.0000 H   0  0  0  0  0  0  0  0  0  0  0  0
   11.3894    2.5826    0.0000 H   0  0  0  0  0  0  0  0  0  0  0  0
   10.9909    1.8923    0.0000 H   0  0  0  0  0  0  0  0  0  0  0  0
   11.9306    3.8100    0.0000 H   0  0  0  0  0  0  0  0  0  0  0  0
   13.3335    1.3800    0.0000 H   0  0  0  0  0  0  0  0  0  0  0  0
   13.3335    4.6200    0.0000 H   0  0  0  0  0  0  0  0  0  0  0  0
   14.7365    2.1900    0.0000 H   0  0  0  0  0  0  0  0  0  0  0  0
   14.7365    3.8100    0.0000 H   0  0  0  0  0  0  0  0  0  0  0  0
 19  1  1  1  0  0  0
  1 66  1  0  0  0  0
  2 17  2  0  0  0  0
  3 18  2  0  0  0  0
  4 27  2  0  0  0  0
  5 36  1  0  0  0  0
  5 37  1  0  0  0  0
  6 35  2  0  0  0  0
  7 36  2  0  0  0  0
  8 13  1  0  0  0  0
  8 16  1  0  0  0  0
  8 17  1  0  0  0  0
  9 18  1  0  0  0  0
  9 21  1  0  0  0  0
  9 53  1  0  0  0  0
 20 10  1  1  0  0  0
 10 27  1  0  0  0  0
 10 56  1  0  0  0  0
 28 11  1  1  0  0  0
 11 36  1  0  0  0  0
 11 72  1  0  0  0  0
 12 35  1  0  0  0  0
 12 76  1  0  0  0  0
 12 77  1  0  0  0  0
 13 14  1  0  0  0  0
 13 18  1  6  0  0  0
 13 44  1  0  0  0  0
 14 15  1  0  0  0  0
 14 45  1  0  0  0  0
 14 46  1  0  0  0  0
 15 16  1  0  0  0  0
 15 47  1  0  0  0  0
 15 48  1  0  0  0  0
 16 49  1  0  0  0  0
 16 50  1  0  0  0  0
 17 19  1  0  0  0  0
 19 20  1  0  0  0  0
 19 51  1  0  0  0  0
 20 22  1  0  0  0  0
 20 52  1  0  0  0  0
 21 23  1  0  0  0  0
 21 24  1  0  0  0  0
 21 25  1  0  0  0  0
 22 26  1  0  0  0  0
 22 54  1  0  0  0  0
 22 55  1  0  0  0  0
 23 57  1  0  0  0  0
 23 58  1  0  0  0  0
 23 59  1  0  0  0  0
 24 60  1  0  0  0  0
 24 61  1  0  0  0  0
 24 62  1  0  0  0  0
 25 63  1  0  0  0  0
 25 64  1  0  0  0  0
 25 65  1  0  0  0  0
 26 29  2  0  0  0  0
 26 30  1  0  0  0  0
 27 28  1  0  0  0  0
 28 31  1  0  0  0  0
 28 67  1  0  0  0  0
 29 32  1  0  0  0  0
 29 68  1  0  0  0  0
 30 33  2  0  0  0  0
 30 69  1  0  0  0  0
 31 35  1  0  0  0  0
 31 70  1  0  0  0  0
 31 71  1  0  0  0  0
 32 34  2  0  0  0  0
 32 73  1  0  0  0  0
 33 34  1  0  0  0  0
 33 74  1  0  0  0  0
 34 75  1  0  0  0  0
 37 38  1  0  0  0  0
 37 78  1  0  0  0  0
 37 79  1  0  0  0  0
 38 39  2  0  0  0  0
 38 40  1  0  0  0  0
 39 41  1  0  0  0  0
 39 80  1  0  0  0  0
 40 42  2  0  0  0  0
 40 81  1  0  0  0  0
 41 43  2  0  0  0  0
 41 82  1  0  0  0  0
 42 43  1  0  0  0  0
 42 83  1  0  0  0  0
 43 84  1  0  0  0  0
M  END
> <PUBCHEM_COMPOUND_CID>
65004

> <PUBCHEM_COMPOUND_CANONICALIZED>
1

> <PUBCHEM_CACTVS_COMPLEXITY>
972

> <PUBCHEM_CACTVS_HBOND_ACCEPTOR>
7

> <PUBCHEM_CACTVS_HBOND_DONOR>
5

> <PUBCHEM_CACTVS_ROTATABLE_BOND>
14

> <PUBCHEM_CACTVS_SUBSKEYS>
AAADcfB7uAAAAAAAAAAAAAAAAAAAAWAAAAAwYAAAAAAAAAABQAAAHgAQCAAADLzhmAYyCIPABgCIAiFSGAICAAAgAAAIiIHICIkKdjqA8TmccAAk1gGYqAedyaCOAAAAAAAAAAAAAAAAAAAAAAAAAAAAAA==

> <PUBCHEM_IUPAC_OPENEYE_NAME>
benzyl N-[(1S)-3-amino-1-[[(1S,2S)-1-benzyl-3-[(2S)-2-(tert-butylcarbamoyl)pyrrolidin-1-yl]-2-hydroxy-3-oxo-propyl]carbamoyl]-3-oxo-propyl]carbamate

> <PUBCHEM_IUPAC_CAS_NAME>
N-[(2S)-4-amino-1-[[(2S,3S)-4-[(2S)-2-[(tert-butylamino)-oxomethyl]-1-pyrrolidinyl]-3-hydroxy-4-oxo-1-phenylbutan-2-yl]amino]-1,4-dioxobutan-2-yl]carbamic acid (phenylmethyl) ester

> <PUBCHEM_IUPAC_NAME>
benzyl N-[(2S)-4-amino-1-[[(2S,3S)-4-[(2S)-2-(tert-butylcarbamoyl)pyrrolidin-1-yl]-3-hydroxy-4-oxo-1-phenylbutan-2-yl]amino]-1,4-dioxobutan-2-yl]carbamate

> <PUBCHEM_IUPAC_SYSTEMATIC_NAME>
(phenylmethyl) N-[(2S)-4-azanyl-1-[[(2S,3S)-4-[(2S)-2-(tert-butylcarbamoyl)pyrrolidin-1-yl]-3-oxidanyl-4-oxidanylidene-1-phenyl-butan-2-yl]amino]-1,4-bis(oxidanylidene)butan-2-yl]carbamate

> <PUBCHEM_IUPAC_TRADITIONAL_NAME>
N-[(1S)-3-amino-1-[[(1S,2S)-1-benzyl-3-[(2S)-2-(tert-butylcarbamoyl)pyrrolidino]-2-hydroxy-3-keto-propyl]carbamoyl]-3-keto-propyl]carbamic acid benzyl ester

> <PUBCHEM_IUPAC_INCHI>
InChI=1S/C31H41N5O7/c1-31(2,3)35-28(40)24-15-10-16-36(24)29(41)26(38)22(17-20-11-6-4-7-12-20)33-27(39)23(18-25(32)37)34-30(42)43-19-21-13-8-5-9-14-21/h4-9,11-14,22-24,26,38H,10,15-19H2,1-3H3,(H2,32,37)(H,33,39)(H,34,42)(H,35,40)/t22-,23-,24-,26-/m0/s1

> <PUBCHEM_IUPAC_INCHIKEY>
XCVUOCMQYKSJJR-IGRGDXOOSA-N

> <PUBCHEM_XLOGP3_AA>
1.4

> <PUBCHEM_EXACT_MASS>
595.300599

> <PUBCHEM_MOLECULAR_FORMULA>
C31H41N5O7

> <PUBCHEM_MOLECULAR_WEIGHT>
595.68654

> <PUBCHEM_OPENEYE_CAN_SMILES>
CC(C)(C)NC(=O)C1CCCN1C(=O)C(C(CC2=CC=CC=C2)NC(=O)C(CC(=O)N)NC(=O)OCC3=CC=CC=C3)O

> <PUBCHEM_OPENEYE_ISO_SMILES>
CC(C)(C)NC(=O)[C@@H]1CCCN1C(=O)[C@H]([C@H](CC2=CC=CC=C2)NC(=O)[C@H](CC(=O)N)NC(=O)OCC3=CC=CC=C3)O

> <PUBCHEM_CACTVS_TPSA>
180

> <PUBCHEM_MONOISOTOPIC_WEIGHT>
595.300599

> <PUBCHEM_TOTAL_CHARGE>
0

> <PUBCHEM_HEAVY_ATOM_COUNT>
43

> <PUBCHEM_ATOM_DEF_STEREO_COUNT>
4

> <PUBCHEM_ATOM_UDEF_STEREO_COUNT>
0

> <PUBCHEM_BOND_DEF_STEREO_COUNT>
0

> <PUBCHEM_BOND_UDEF_STEREO_COUNT>
0

> <PUBCHEM_ISOTOPIC_ATOM_COUNT>
0

> <PUBCHEM_COMPONENT_COUNT>
1

> <PUBCHEM_CACTVS_TAUTO_COUNT>
24

> <PUBCHEM_COORDINATE_TYPE>
1
5
255

> <PUBCHEM_BONDANNOTATIONS>
19  1  5
20  10  5
28  11  5
13  18  6
26  29  8
26  30  8
29  32  8
30  33  8
32  34  8
33  34  8
38  39  8
38  40  8
39  41  8
40  42  8
41  43  8
42  43  8

$$$$

