440784
  -OEChem-07051212503D

 85 88  0     1  0  0  0  0  0999 V2000
    0.8453    1.6178    3.9425 O   0  0  0  0  0  0  0  0  0  0  0  0
   -4.5407    1.4065    1.2534 O   0  0  0  0  0  0  0  0  0  0  0  0
   -2.1719    4.7849   -4.1985 O   0  0  0  0  0  0  0  0  0  0  0  0
    4.4908   -4.3809   -3.3468 O   0  0  0  0  0  0  0  0  0  0  0  0
   -3.1857    3.7323   -2.4624 O   0  0  0  0  0  0  0  0  0  0  0  0
    4.8620   -3.4558   -1.3082 O   0  0  0  0  0  0  0  0  0  0  0  0
    2.5600    1.2360   -0.8141 N   0  0  0  0  0  0  0  0  0  0  0  0
   -1.1331   -1.0089   -1.4917 N   0  0  0  0  0  0  0  0  0  0  0  0
    2.7751    2.4627    2.9231 N   0  0  0  0  0  0  0  0  0  0  0  0
   -3.1849   -0.4645    0.8953 N   0  0  0  0  0  0  0  0  0  0  0  0
    3.8776    1.9403    2.1609 C   0  0  2  0  0  0  0  0  0  0  0  0
    3.9456    2.5812    0.7828 C   0  0  0  0  0  0  0  0  0  0  0  0
    2.6868    2.3374   -0.0084 C   0  0  0  0  0  0  0  0  0  0  0  0
    1.3297    1.2479   -1.4178 C   0  0  0  0  0  0  0  0  0  0  0  0
    0.9253    0.1718   -2.3433 C   0  0  0  0  0  0  0  0  0  0  0  0
    0.2277   -0.9949   -1.6543 C   0  0  0  0  0  0  0  0  0  0  0  0
    0.6609    2.3736   -0.9905 C   0  0  0  0  0  0  0  0  0  0  0  0
    1.5194    3.0628   -0.0986 C   0  0  0  0  0  0  0  0  0  0  0  0
   -1.5068   -2.1593   -0.8473 C   0  0  0  0  0  0  0  0  0  0  0  0
    0.7302   -2.1536   -1.1046 C   0  0  0  0  0  0  0  0  0  0  0  0
   -2.9238   -2.4347   -0.5408 C   0  0  0  0  0  0  0  0  0  0  0  0
    3.5366    0.4747    2.1372 C   0  0  0  0  0  0  0  0  0  0  0  0
   -0.3671   -2.8902   -0.5938 C   0  0  0  0  0  0  0  0  0  0  0  0
   -3.3515   -1.8916    0.8281 C   0  0  2  0  0  0  0  0  0  0  0  0
   -0.7009    2.7832   -1.3914 C   0  0  0  0  0  0  0  0  0  0  0  0
    2.1524   -2.5514   -1.0588 C   0  0  0  0  0  0  0  0  0  0  0  0
    2.3882    0.1983    2.7763 C   0  0  0  0  0  0  0  0  0  0  0  0
   -4.8266   -2.0194    1.1030 C   0  0  0  0  0  0  0  0  0  0  0  0
    4.4601   -0.4899    1.4732 C   0  0  0  0  0  0  0  0  0  0  0  0
    1.8722    1.4848    3.2983 C   0  0  0  0  0  0  0  0  0  0  0  0
    1.2217    4.3268    0.6065 C   0  0  0  0  0  0  0  0  0  0  0  0
   -0.3052   -4.2010    0.0856 C   0  0  0  0  0  0  0  0  0  0  0  0
   -0.7550    3.6860   -2.6404 C   0  0  0  0  0  0  0  0  0  0  0  0
   -5.4262   -0.8297    1.2782 C   0  0  0  0  0  0  0  0  0  0  0  0
    2.6263   -3.3708   -2.2762 C   0  0  0  0  0  0  0  0  0  0  0  0
   -4.3700    0.2034    1.1464 C   0  0  0  0  0  0  0  0  0  0  0  0
    1.6694   -1.0774    3.0073 C   0  0  0  0  0  0  0  0  0  0  0  0
   -5.4442   -3.3766    1.1799 C   0  0  0  0  0  0  0  0  0  0  0  0
    5.5211   -1.0102    2.4280 C   0  0  0  0  0  0  0  0  0  0  0  0
   -6.7922   -0.5217    1.5573 C   0  0  0  0  0  0  0  0  0  0  0  0
   -2.1639    4.0567   -3.0510 C   0  0  0  0  0  0  0  0  0  0  0  0
    4.0959   -3.7295   -2.2213 C   0  0  0  0  0  0  0  0  0  0  0  0
   -7.8306   -1.1569    0.9967 C   0  0  0  0  0  0  0  0  0  0  0  0
    4.7973    2.1256    2.7258 H   0  0  0  0  0  0  0  0  0  0  0  0
    4.1048    3.6617    0.8841 H   0  0  0  0  0  0  0  0  0  0  0  0
    4.8098    2.2032    0.2231 H   0  0  0  0  0  0  0  0  0  0  0  0
    1.8009   -0.2117   -2.8829 H   0  0  0  0  0  0  0  0  0  0  0  0
    0.2597    0.5728   -3.1186 H   0  0  0  0  0  0  0  0  0  0  0  0
   -3.5540   -1.9991   -1.3294 H   0  0  0  0  0  0  0  0  0  0  0  0
   -3.1083   -3.5152   -0.5834 H   0  0  0  0  0  0  0  0  0  0  0  0
    3.2724    0.5343   -0.9578 H   0  0  0  0  0  0  0  0  0  0  0  0
   -2.7605   -2.3345    1.6382 H   0  0  0  0  0  0  0  0  0  0  0  0
   -1.7670   -0.2874   -1.8059 H   0  0  0  0  0  0  0  0  0  0  0  0
   -1.1889    3.3048   -0.5573 H   0  0  0  0  0  0  0  0  0  0  0  0
   -1.3239    1.8992   -1.5674 H   0  0  0  0  0  0  0  0  0  0  0  0
    2.6808    3.4394    3.1840 H   0  0  0  0  0  0  0  0  0  0  0  0
    2.7837   -1.6605   -0.9758 H   0  0  0  0  0  0  0  0  0  0  0  0
    2.3505   -3.1250   -0.1444 H   0  0  0  0  0  0  0  0  0  0  0  0
    4.9452   -0.0405    0.6015 H   0  0  0  0  0  0  0  0  0  0  0  0
    3.8939   -1.3448    1.0897 H   0  0  0  0  0  0  0  0  0  0  0  0
    0.7258    5.0391   -0.0608 H   0  0  0  0  0  0  0  0  0  0  0  0
    2.1239    4.8166    0.9835 H   0  0  0  0  0  0  0  0  0  0  0  0
    0.5577    4.1392    1.4566 H   0  0  0  0  0  0  0  0  0  0  0  0
   -2.2906    0.0091    0.8129 H   0  0  0  0  0  0  0  0  0  0  0  0
    0.3990   -4.1677    0.9235 H   0  0  0  0  0  0  0  0  0  0  0  0
   -1.2743   -4.5078    0.4900 H   0  0  0  0  0  0  0  0  0  0  0  0
    0.0275   -4.9768   -0.6116 H   0  0  0  0  0  0  0  0  0  0  0  0
   -0.2838    3.1682   -3.4843 H   0  0  0  0  0  0  0  0  0  0  0  0
   -0.2021    4.6131   -2.4513 H   0  0  0  0  0  0  0  0  0  0  0  0
    2.4537   -2.7947   -3.1929 H   0  0  0  0  0  0  0  0  0  0  0  0
    2.0524   -4.3024   -2.3392 H   0  0  0  0  0  0  0  0  0  0  0  0
    0.6830   -1.0493    2.5333 H   0  0  0  0  0  0  0  0  0  0  0  0
    2.2120   -1.9347    2.5988 H   0  0  0  0  0  0  0  0  0  0  0  0
    1.5330   -1.2509    4.0793 H   0  0  0  0  0  0  0  0  0  0  0  0
   -6.3981   -3.3816    1.7131 H   0  0  0  0  0  0  0  0  0  0  0  0
   -5.6010   -3.7836    0.1763 H   0  0  0  0  0  0  0  0  0  0  0  0
   -4.7821   -4.0579    1.7253 H   0  0  0  0  0  0  0  0  0  0  0  0
    5.0703   -1.5193    3.2866 H   0  0  0  0  0  0  0  0  0  0  0  0
    6.1708   -1.7271    1.9157 H   0  0  0  0  0  0  0  0  0  0  0  0
    6.1494   -0.1963    2.8050 H   0  0  0  0  0  0  0  0  0  0  0  0
   -6.9848    0.2927    2.2498 H   0  0  0  0  0  0  0  0  0  0  0  0
   -8.8441   -0.8623    1.2495 H   0  0  0  0  0  0  0  0  0  0  0  0
   -7.7126   -1.9524    0.2696 H   0  0  0  0  0  0  0  0  0  0  0  0
   -3.0833    5.0161   -4.4779 H   0  0  0  0  0  0  0  0  0  0  0  0
    5.4459   -4.6035   -3.3240 H   0  0  0  0  0  0  0  0  0  0  0  0
  1 30  2  0  0  0  0
  2 36  2  0  0  0  0
  3 41  1  0  0  0  0
  3 84  1  0  0  0  0
  4 42  1  0  0  0  0
  4 85  1  0  0  0  0
  5 41  2  0  0  0  0
  6 42  2  0  0  0  0
  7 13  1  0  0  0  0
  7 14  1  0  0  0  0
  7 51  1  0  0  0  0
  8 16  1  0  0  0  0
  8 19  1  0  0  0  0
  8 53  1  0  0  0  0
  9 11  1  0  0  0  0
  9 30  1  0  0  0  0
  9 56  1  0  0  0  0
 10 24  1  0  0  0  0
 10 36  1  0  0  0  0
 10 64  1  0  0  0  0
 11 12  1  0  0  0  0
 11 22  1  0  0  0  0
 11 44  1  0  0  0  0
 12 13  1  0  0  0  0
 12 45  1  0  0  0  0
 12 46  1  0  0  0  0
 13 18  2  0  0  0  0
 14 15  1  0  0  0  0
 14 17  2  0  0  0  0
 15 16  1  0  0  0  0
 15 47  1  0  0  0  0
 15 48  1  0  0  0  0
 16 20  2  0  0  0  0
 17 18  1  0  0  0  0
 17 25  1  0  0  0  0
 18 31  1  0  0  0  0
 19 21  1  0  0  0  0
 19 23  2  0  0  0  0
 20 23  1  0  0  0  0
 20 26  1  0  0  0  0
 21 24  1  0  0  0  0
 21 49  1  0  0  0  0
 21 50  1  0  0  0  0
 22 27  2  0  0  0  0
 22 29  1  0  0  0  0
 23 32  1  0  0  0  0
 24 28  1  0  0  0  0
 24 52  1  0  0  0  0
 25 33  1  0  0  0  0
 25 54  1  0  0  0  0
 25 55  1  0  0  0  0
 26 35  1  0  0  0  0
 26 57  1  0  0  0  0
 26 58  1  0  0  0  0
 27 30  1  0  0  0  0
 27 37  1  0  0  0  0
 28 34  2  0  0  0  0
 28 38  1  0  0  0  0
 29 39  1  0  0  0  0
 29 59  1  0  0  0  0
 29 60  1  0  0  0  0
 31 61  1  0  0  0  0
 31 62  1  0  0  0  0
 31 63  1  0  0  0  0
 32 65  1  0  0  0  0
 32 66  1  0  0  0  0
 32 67  1  0  0  0  0
 33 41  1  0  0  0  0
 33 68  1  0  0  0  0
 33 69  1  0  0  0  0
 34 36  1  0  0  0  0
 34 40  1  0  0  0  0
 35 42  1  0  0  0  0
 35 70  1  0  0  0  0
 35 71  1  0  0  0  0
 37 72  1  0  0  0  0
 37 73  1  0  0  0  0
 37 74  1  0  0  0  0
 38 75  1  0  0  0  0
 38 76  1  0  0  0  0
 38 77  1  0  0  0  0
 39 78  1  0  0  0  0
 39 79  1  0  0  0  0
 39 80  1  0  0  0  0
 40 43  2  0  0  0  0
 40 81  1  0  0  0  0
 43 82  1  0  0  0  0
 43 83  1  0  0  0  0
M  END
> <PUBCHEM_COMPOUND_CID>
440784

> <PUBCHEM_CONFORMER_RMSD>
1.4

> <PUBCHEM_CONFORMER_DIVERSEORDER>
1
204
28
76
271
291
171
109
106
42
373
277
269
201
422
334
278
108
214
247
391
259
103
386
292
330
200
169
417
243
320
251
411
270
267
374
394
369
73
161
355
120
306
62
32
213
285
264
298
282
12
329
358
143
234
415
121
399
338
416
102
262
272
124
423
20
258
202
232
209
255
150
55
412
125
308
238
392
13
377
242
195
215
37
324
310
226
426
31
228
127
134
89
356
30
336
151
236
351
317
427
266
256
359
345
299
222
263
354
296
61
17
393
69
186
223
212
206
387
144
239
257
170
156
276
244
178
352
97
133
217
268
159
304
110
117
41
15
19
372
14
68
357
403
395
327
344
283
343
414
420
138
173
265
233
328
107
240
297
315
361
5
396
429
365
220
401
99
400
421
402
286
27
380
224
189
10
183
346
250
146
53
381
101
137
274
225
235
376
8
131
105
141
155
46
360
375
52
350
18
410
157
164
158
199
339
245
252
326
194
132
367
58
57
316
82
408
177
86
370
9
300
211
51
197
152
307
149
221
302
390
64
114
11
136
88
227
130
128
363
378
314
364
385
96
353
111
43
309
203
208
172
241
165
48
279
139
311
93
147
333
398
175
273
176
325
129
425
190
205
362
389
45
174
191
335
119
104
404
54
163
4
115
237
295
248
207
294
188
21
154
59
148
337
140
293
384
90
319
275
94
313
323
348
2
318
34
382
305
181
6
322
113
3
254
321
261
290
340
79
80
72
230
84
179
289
198
50
246
218
135
341
182
162
185
116
100
210
87
166
284
349
47
145
281
193
249
371
123
98
280
26
331
167
56
419
196
388
7
38
25
366
65
303
288
332
407
379
23
36
418
406
253
81
118
66
260
78
231
424
192
77
126
153
347
383
70
85
91
287
122
16
301
342
312
75
229
24
180
40
71
428
397
74
405
92
187
83
67
29
22
184
160
413
44
168
216
35
112
142
33
60
409
63
219
49
95
39
368

> <PUBCHEM_MMFF94_PARTIAL_CHARGES>
51
1 -0.57
10 -0.73
11 0.44
12 0.18
13 -0.33
14 -0.33
15 0.36
16 -0.33
17 -0.18
18 -0.18
19 -0.33
2 -0.57
20 -0.18
21 0.18
22 -0.28
23 -0.18
24 0.44
25 0.18
26 0.18
27 -0.12
28 -0.28
29 0.14
3 -0.65
30 0.62
31 0.18
32 0.18
33 0.06
34 0.01
35 0.06
36 0.62
37 0.14
38 0.14
4 -0.65
40 -0.15
41 0.66
42 0.66
43 -0.3
5 -0.57
51 0.27
53 0.27
56 0.37
6 -0.57
64 0.37
7 0.03
8 0.03
81 0.15
82 0.15
83 0.15
84 0.5
85 0.5
9 -0.73

> <PUBCHEM_EFFECTIVE_ROTOR_COUNT>
14.8

> <PUBCHEM_PHARMACOPHORE_FEATURES>
20
1 1 acceptor
1 10 donor
1 2 acceptor
1 3 acceptor
1 39 hydrophobe
1 4 acceptor
1 43 hydrophobe
1 5 acceptor
1 6 acceptor
1 7 cation
1 7 donor
1 8 cation
1 8 donor
1 9 donor
3 3 5 41 anion
3 4 6 42 anion
5 10 24 28 34 36 rings
5 7 13 14 17 18 rings
5 8 16 19 20 23 rings
5 9 11 22 27 30 rings

> <PUBCHEM_HEAVY_ATOM_COUNT>
43

> <PUBCHEM_ATOM_DEF_STEREO_COUNT>
0

> <PUBCHEM_ATOM_UDEF_STEREO_COUNT>
2

> <PUBCHEM_BOND_DEF_STEREO_COUNT>
0

> <PUBCHEM_BOND_UDEF_STEREO_COUNT>
0

> <PUBCHEM_ISOTOPIC_ATOM_COUNT>
0

> <PUBCHEM_COMPONENT_COUNT>
1

> <PUBCHEM_CACTVS_TAUTO_COUNT>
4

> <PUBCHEM_CONFORMER_ID>
0006B9D000000001

> <PUBCHEM_MMFF94_ENERGY>
42.2974

> <PUBCHEM_FEATURE_SELFOVERLAP>
101.605

> <PUBCHEM_SHAPE_FINGERPRINT>
10305334 12 7753332644313548633
10985338 15 16301452169930396063
11421498 54 17488467369344775844
12156800 1 17700690937513586274
12422481 6 18411146805377705281
15444296 8 17988380246148158992
23559900 14 18337091412030241299
550186 83 17988075587371086085
6609424 69 18342178890601038679
86090 222 17618813656346488565

> <PUBCHEM_SHAPE_MULTIPOLES>
829.78
12.08
6.71
4.23
20.18
1.65
0.1
-6.76
-8.55
-2.77
7.47
-3.2
2.25
6.12

> <PUBCHEM_SHAPE_SELFOVERLAP>
1765.159

> <PUBCHEM_SHAPE_VOLUME>
465.4

> <PUBCHEM_COORDINATE_TYPE>
2
5
10

$$$$

