9168
  -OEChem-06261203283D

 42 47  0     0  0  0  0  0  0999 V2000
    0.3320   -0.6264    0.0004 C   0  0  0  0  0  0  0  0  0  0  0  0
   -0.3320    0.6264    0.0004 C   0  0  0  0  0  0  0  0  0  0  0  0
    1.7815   -0.7102    0.0009 C   0  0  0  0  0  0  0  0  0  0  0  0
   -1.7816    0.7102    0.0006 C   0  0  0  0  0  0  0  0  0  0  0  0
    2.5758    0.4674   -0.0001 C   0  0  0  0  0  0  0  0  0  0  0  0
   -2.5759   -0.4675   -0.0004 C   0  0  0  0  0  0  0  0  0  0  0  0
    4.0204    0.3969   -0.0003 C   0  0  0  0  0  0  0  0  0  0  0  0
   -4.0203   -0.3969   -0.0006 C   0  0  0  0  0  0  0  0  0  0  0  0
   -0.4935   -1.7642   -0.0002 C   0  0  0  0  0  0  0  0  0  0  0  0
    0.4934    1.7643   -0.0001 C   0  0  0  0  0  0  0  0  0  0  0  0
   -1.8876   -1.6888   -0.0008 C   0  0  0  0  0  0  0  0  0  0  0  0
    1.8877    1.6888   -0.0004 C   0  0  0  0  0  0  0  0  0  0  0  0
    2.4782   -1.9392    0.0023 C   0  0  0  0  0  0  0  0  0  0  0  0
   -2.4783    1.9392    0.0022 C   0  0  0  0  0  0  0  0  0  0  0  0
    4.6494   -0.8696    0.0012 C   0  0  0  0  0  0  0  0  0  0  0  0
   -4.6495    0.8696    0.0010 C   0  0  0  0  0  0  0  0  0  0  0  0
    3.8698   -2.0202    0.0027 C   0  0  0  0  0  0  0  0  0  0  0  0
   -3.8698    2.0203    0.0026 C   0  0  0  0  0  0  0  0  0  0  0  0
    4.8851    1.5238   -0.0025 C   0  0  0  0  0  0  0  0  0  0  0  0
   -4.8850   -1.5237   -0.0025 C   0  0  0  0  0  0  0  0  0  0  0  0
    6.0510   -0.9843    0.0008 C   0  0  0  0  0  0  0  0  0  0  0  0
   -6.0510    0.9843    0.0010 C   0  0  0  0  0  0  0  0  0  0  0  0
    6.2780    1.4014   -0.0031 C   0  0  0  0  0  0  0  0  0  0  0  0
   -6.2779   -1.4014   -0.0028 C   0  0  0  0  0  0  0  0  0  0  0  0
    6.8616    0.1452   -0.0013 C   0  0  0  0  0  0  0  0  0  0  0  0
   -6.8617   -0.1453   -0.0011 C   0  0  0  0  0  0  0  0  0  0  0  0
   -0.0784   -2.7687   -0.0005 H   0  0  0  0  0  0  0  0  0  0  0  0
    0.0784    2.7687   -0.0004 H   0  0  0  0  0  0  0  0  0  0  0  0
   -2.4159   -2.6388   -0.0012 H   0  0  0  0  0  0  0  0  0  0  0  0
    2.4160    2.6387   -0.0008 H   0  0  0  0  0  0  0  0  0  0  0  0
    1.9521   -2.8900    0.0034 H   0  0  0  0  0  0  0  0  0  0  0  0
   -1.9522    2.8900    0.0034 H   0  0  0  0  0  0  0  0  0  0  0  0
    4.3307   -3.0064    0.0039 H   0  0  0  0  0  0  0  0  0  0  0  0
   -4.3307    3.0064    0.0038 H   0  0  0  0  0  0  0  0  0  0  0  0
    4.4903    2.5364   -0.0040 H   0  0  0  0  0  0  0  0  0  0  0  0
   -4.4901   -2.5364   -0.0040 H   0  0  0  0  0  0  0  0  0  0  0  0
    6.5261   -1.9638    0.0020 H   0  0  0  0  0  0  0  0  0  0  0  0
   -6.5261    1.9638    0.0023 H   0  0  0  0  0  0  0  0  0  0  0  0
    6.9001    2.2917   -0.0048 H   0  0  0  0  0  0  0  0  0  0  0  0
   -6.8999   -2.2917   -0.0044 H   0  0  0  0  0  0  0  0  0  0  0  0
    7.9423    0.0427   -0.0017 H   0  0  0  0  0  0  0  0  0  0  0  0
   -7.9424   -0.0428   -0.0012 H   0  0  0  0  0  0  0  0  0  0  0  0
  1  2  2  0  0  0  0
  1  3  1  0  0  0  0
  1  9  1  0  0  0  0
  2  4  1  0  0  0  0
  2 10  1  0  0  0  0
  3  5  2  0  0  0  0
  3 13  1  0  0  0  0
  4  6  2  0  0  0  0
  4 14  1  0  0  0  0
  5  7  1  0  0  0  0
  5 12  1  0  0  0  0
  6  8  1  0  0  0  0
  6 11  1  0  0  0  0
  7 15  1  0  0  0  0
  7 19  2  0  0  0  0
  8 16  1  0  0  0  0
  8 20  2  0  0  0  0
  9 11  2  0  0  0  0
  9 27  1  0  0  0  0
 10 12  2  0  0  0  0
 10 28  1  0  0  0  0
 11 29  1  0  0  0  0
 12 30  1  0  0  0  0
 13 17  2  0  0  0  0
 13 31  1  0  0  0  0
 14 18  2  0  0  0  0
 14 32  1  0  0  0  0
 15 17  1  0  0  0  0
 15 21  2  0  0  0  0
 16 18  1  0  0  0  0
 16 22  2  0  0  0  0
 17 33  1  0  0  0  0
 18 34  1  0  0  0  0
 19 23  1  0  0  0  0
 19 35  1  0  0  0  0
 20 24  1  0  0  0  0
 20 36  1  0  0  0  0
 21 25  1  0  0  0  0
 21 37  1  0  0  0  0
 22 26  1  0  0  0  0
 22 38  1  0  0  0  0
 23 25  2  0  0  0  0
 23 39  1  0  0  0  0
 24 26  2  0  0  0  0
 24 40  1  0  0  0  0
 25 41  1  0  0  0  0
 26 42  1  0  0  0  0
M  END
> <PUBCHEM_COMPOUND_CID>
9168

> <PUBCHEM_CONFORMER_RMSD>
0.6

> <PUBCHEM_CONFORMER_DIVERSEORDER>
1

> <PUBCHEM_MMFF94_PARTIAL_CHARGES>
32
10 -0.15
11 -0.15
12 -0.15
13 -0.15
14 -0.15
17 -0.15
18 -0.15
19 -0.15
20 -0.15
21 -0.15
22 -0.15
23 -0.15
24 -0.15
25 -0.15
26 -0.15
27 0.15
28 0.15
29 0.15
30 0.15
31 0.15
32 0.15
33 0.15
34 0.15
35 0.15
36 0.15
37 0.15
38 0.15
39 0.15
40 0.15
41 0.15
42 0.15
9 -0.15

> <PUBCHEM_EFFECTIVE_ROTOR_COUNT>
0

> <PUBCHEM_PHARMACOPHORE_FEATURES>
6
6 1 2 3 5 10 12 rings
6 1 2 4 6 9 11 rings
6 3 5 7 13 15 17 rings
6 4 6 8 14 16 18 rings
6 7 15 19 21 23 25 rings
6 8 16 20 22 24 26 rings

> <PUBCHEM_HEAVY_ATOM_COUNT>
26

> <PUBCHEM_ATOM_DEF_STEREO_COUNT>
0

> <PUBCHEM_ATOM_UDEF_STEREO_COUNT>
0

> <PUBCHEM_BOND_DEF_STEREO_COUNT>
0

> <PUBCHEM_BOND_UDEF_STEREO_COUNT>
0

> <PUBCHEM_ISOTOPIC_ATOM_COUNT>
0

> <PUBCHEM_COMPONENT_COUNT>
1

> <PUBCHEM_CACTVS_TAUTO_COUNT>
1

> <PUBCHEM_CONFORMER_ID>
000023D000000001

> <PUBCHEM_MMFF94_ENERGY>
107.1771

> <PUBCHEM_FEATURE_SELFOVERLAP>
30.557

> <PUBCHEM_SHAPE_FINGERPRINT>
10 15 18341338795441156424
10050765 1 18194682802573710818
10595046 47 18410575106137922010
10835480 77 18340212989570218733
10906281 52 18338216224608179270
11315181 36 18259702294777698985
11524674 6 16370725907599408079
11578080 2 16914552209992710031
11719270 70 18335424586577485910
11963148 33 18411426085331865150
12107183 9 17617940669777576667
12166972 35 18413105043913588204
12236239 1 18410573989446418449
12516196 113 18259705596927203928
12788726 201 17386281098888358600
12838862 33 18338536178170579500
13073987 5 18410855503083122681
13402501 40 18410575088958046208
13533116 47 17822009852311254586
14251764 18 18410573976561516550
14341114 176 18411414025442200331
14790565 3 18410852174947867140
14849402 71 18262796259446306201
14933364 13 18409446990054334817
15131766 46 16198444418780758886
15183329 4 18410855473013063888
15196674 1 18410855490192932865
15849732 13 18411699872178680237
15927050 60 17539695703479033004
16087824 20 18339924944285659709
16993438 75 17986945254821287099
17492 89 18121782987594514314
1813 80 17131830988686305356
18608769 82 18339079290018298443
18681886 176 18337115583456771817
19611394 137 17986659382245613563
21130935 74 18261109698803357403
21236236 1 18409166632360114257
21267235 1 18409442591986763670
21279426 13 18266740357951652276
21315763 28 18411139147567216682
21792934 111 18337687407055167960
23402539 116 18335425651607367775
23522609 53 18192964128851973113
23559900 14 18337398128154951057
255183 451 17971465454875060102
3004659 81 18343582958602119488
3178227 256 18341319025505973067
335352 9 18410575054598308277
34797466 226 17385718076706599548
34934 24 18410015425198302078
350125 39 18409730655802307841
3545911 37 18410012134725507848
4073 2 18059569153081159154
4214541 1 18410575110554487809
4325135 7 18410573980856484124
4463277 17 18410575084663085415
5104073 3 18410856606884430712
9996256 80 18408323280691777855

> <PUBCHEM_SHAPE_MULTIPOLES>
535.07
17.51
2.24
0.62
0
0
0
0
-0.01
0
0
0
0
-0.01

> <PUBCHEM_SHAPE_SELFOVERLAP>
1249.727

> <PUBCHEM_SHAPE_VOLUME>
246.2

> <PUBCHEM_COORDINATE_TYPE>
2
5
10

$$$$

