442926
  -OEChem-07051213003D

 54 56  0     1  0  0  0  0  0999 V2000
   -0.8097   -1.3298   -1.9732 O   0  0  0  0  0  0  0  0  0  0  0  0
    0.9761    1.5021    1.2976 O   0  0  0  0  0  0  0  0  0  0  0  0
   -1.3928   -3.4926   -0.1995 O   0  0  0  0  0  0  0  0  0  0  0  0
    1.7073   -2.4628   -1.1348 O   0  0  0  0  0  0  0  0  0  0  0  0
    3.9291   -1.3658    0.4483 O   0  0  0  0  0  0  0  0  0  0  0  0
   -0.5843   -0.0043    0.1330 C   0  0  2  0  0  0  0  0  0  0  0  0
   -1.5377   -0.3220    1.3295 C   0  0  1  0  0  0  0  0  0  0  0  0
   -2.9271    0.3182    0.9573 C   0  0  0  0  0  0  0  0  0  0  0  0
   -1.2941    1.0987   -0.6615 C   0  0  0  0  0  0  0  0  0  0  0  0
   -0.3839   -1.3375   -0.6396 C   0  0  1  0  0  0  0  0  0  0  0  0
   -2.7727    0.7263   -0.5364 C   0  0  2  0  0  0  0  0  0  0  0  0
   -1.4729   -1.8367    1.5420 C   0  0  0  0  0  0  0  0  0  0  0  0
    0.8178    0.3642    0.5489 C   0  0  0  0  0  0  0  0  0  0  0  0
   -1.1383   -2.3560    0.1782 C   0  0  0  0  0  0  0  0  0  0  0  0
   -4.1418   -0.6047    1.1356 C   0  0  0  0  0  0  0  0  0  0  0  0
   -3.1450    1.5489    1.8732 C   0  0  0  0  0  0  0  0  0  0  0  0
    1.1128   -1.5338   -0.6067 C   0  0  0  0  0  0  0  0  0  0  0  0
    1.7883   -0.4641    0.1475 C   0  0  0  0  0  0  0  0  0  0  0  0
   -3.6872    1.7984   -1.0353 C   0  0  0  0  0  0  0  0  0  0  0  0
    3.2160   -0.3536    0.3993 C   0  0  0  0  0  0  0  0  0  0  0  0
   -4.9885    1.3378   -1.6218 C   0  0  0  0  0  0  0  0  0  0  0  0
   -3.3627    3.0978   -0.9621 C   0  0  0  0  0  0  0  0  0  0  0  0
    3.7953    1.0519    0.5558 C   0  0  0  0  0  0  0  0  0  0  0  0
    5.2358    1.1942    0.0399 C   0  0  0  0  0  0  0  0  0  0  0  0
    5.3045    0.8029   -1.4374 C   0  0  0  0  0  0  0  0  0  0  0  0
    5.7556    2.6224    0.2222 C   0  0  0  0  0  0  0  0  0  0  0  0
   -1.1781    0.1427    2.2570 H   0  0  0  0  0  0  0  0  0  0  0  0
   -0.9682    1.1457   -1.7071 H   0  0  0  0  0  0  0  0  0  0  0  0
   -1.0581    2.0691   -0.2178 H   0  0  0  0  0  0  0  0  0  0  0  0
   -2.9343   -0.1620   -1.1627 H   0  0  0  0  0  0  0  0  0  0  0  0
   -2.3845   -2.2869    1.9332 H   0  0  0  0  0  0  0  0  0  0  0  0
   -0.6400   -2.0941    2.2057 H   0  0  0  0  0  0  0  0  0  0  0  0
   -4.1075   -1.4591    0.4515 H   0  0  0  0  0  0  0  0  0  0  0  0
   -4.1924   -0.9898    2.1603 H   0  0  0  0  0  0  0  0  0  0  0  0
   -5.0841   -0.0779    0.9629 H   0  0  0  0  0  0  0  0  0  0  0  0
   -4.0974    2.0501    1.6700 H   0  0  0  0  0  0  0  0  0  0  0  0
   -3.1715    1.2403    2.9254 H   0  0  0  0  0  0  0  0  0  0  0  0
   -2.3410    2.2854    1.7741 H   0  0  0  0  0  0  0  0  0  0  0  0
   -0.6319   -2.2072   -2.3531 H   0  0  0  0  0  0  0  0  0  0  0  0
    0.0992    1.8484    1.5305 H   0  0  0  0  0  0  0  0  0  0  0  0
   -4.8138    0.5994   -2.4113 H   0  0  0  0  0  0  0  0  0  0  0  0
   -5.6367    0.8929   -0.8647 H   0  0  0  0  0  0  0  0  0  0  0  0
   -5.5436    2.1668   -2.0748 H   0  0  0  0  0  0  0  0  0  0  0  0
   -4.0513    3.8510   -1.3354 H   0  0  0  0  0  0  0  0  0  0  0  0
   -2.4510    3.4850   -0.5291 H   0  0  0  0  0  0  0  0  0  0  0  0
    3.7559    1.3074    1.6212 H   0  0  0  0  0  0  0  0  0  0  0  0
    3.1689    1.7669    0.0094 H   0  0  0  0  0  0  0  0  0  0  0  0
    5.8877    0.5159    0.6045 H   0  0  0  0  0  0  0  0  0  0  0  0
    4.6266    1.4147   -2.0427 H   0  0  0  0  0  0  0  0  0  0  0  0
    6.3191    0.9467   -1.8254 H   0  0  0  0  0  0  0  0  0  0  0  0
    5.0474   -0.2479   -1.5990 H   0  0  0  0  0  0  0  0  0  0  0  0
    5.7289    2.9104    1.2783 H   0  0  0  0  0  0  0  0  0  0  0  0
    5.1505    3.3412   -0.3406 H   0  0  0  0  0  0  0  0  0  0  0  0
    6.7917    2.7068   -0.1224 H   0  0  0  0  0  0  0  0  0  0  0  0
  1 10  1  0  0  0  0
  1 39  1  0  0  0  0
  2 13  1  0  0  0  0
  2 40  1  0  0  0  0
  3 14  2  0  0  0  0
  4 17  2  0  0  0  0
  5 20  2  0  0  0  0
  6  7  1  0  0  0  0
  6  9  1  0  0  0  0
  6 10  1  0  0  0  0
  6 13  1  0  0  0  0
  7  8  1  0  0  0  0
  7 12  1  0  0  0  0
  7 27  1  0  0  0  0
  8 11  1  0  0  0  0
  8 15  1  0  0  0  0
  8 16  1  0  0  0  0
  9 11  1  0  0  0  0
  9 28  1  0  0  0  0
  9 29  1  0  0  0  0
 10 14  1  0  0  0  0
 10 17  1  0  0  0  0
 11 19  1  0  0  0  0
 11 30  1  0  0  0  0
 12 14  1  0  0  0  0
 12 31  1  0  0  0  0
 12 32  1  0  0  0  0
 13 18  2  0  0  0  0
 15 33  1  0  0  0  0
 15 34  1  0  0  0  0
 15 35  1  0  0  0  0
 16 36  1  0  0  0  0
 16 37  1  0  0  0  0
 16 38  1  0  0  0  0
 17 18  1  0  0  0  0
 18 20  1  0  0  0  0
 19 21  1  0  0  0  0
 19 22  2  0  0  0  0
 20 23  1  0  0  0  0
 21 41  1  0  0  0  0
 21 42  1  0  0  0  0
 21 43  1  0  0  0  0
 22 44  1  0  0  0  0
 22 45  1  0  0  0  0
 23 24  1  0  0  0  0
 23 46  1  0  0  0  0
 23 47  1  0  0  0  0
 24 25  1  0  0  0  0
 24 26  1  0  0  0  0
 24 48  1  0  0  0  0
 25 49  1  0  0  0  0
 25 50  1  0  0  0  0
 25 51  1  0  0  0  0
 26 52  1  0  0  0  0
 26 53  1  0  0  0  0
 26 54  1  0  0  0  0
M  END
> <PUBCHEM_COMPOUND_CID>
442926

> <PUBCHEM_CONFORMER_RMSD>
0.8

> <PUBCHEM_CONFORMER_DIVERSEORDER>
1
9
5
10
6
7
4
8
3
2

> <PUBCHEM_MMFF94_PARTIAL_CHARGES>
22
1 -0.68
10 0.4
11 0.14
12 0.06
13 -0.06
14 0.45
17 0.49
18 0.03
19 -0.28
2 -0.53
20 0.49
21 0.14
22 -0.3
23 0.06
3 -0.57
39 0.4
4 -0.57
40 0.45
44 0.15
45 0.15
5 -0.57
6 0.14

> <PUBCHEM_EFFECTIVE_ROTOR_COUNT>
4.8

> <PUBCHEM_PHARMACOPHORE_FEATURES>
12
1 1 acceptor
1 1 donor
1 18 anion
1 2 donor
1 3 acceptor
1 4 acceptor
1 5 acceptor
3 24 25 26 hydrophobe
3 8 15 16 hydrophobe
5 6 10 13 17 18 rings
5 6 7 10 12 14 rings
5 6 7 8 9 11 rings

> <PUBCHEM_HEAVY_ATOM_COUNT>
26

> <PUBCHEM_ATOM_DEF_STEREO_COUNT>
4

> <PUBCHEM_ATOM_UDEF_STEREO_COUNT>
0

> <PUBCHEM_BOND_DEF_STEREO_COUNT>
0

> <PUBCHEM_BOND_UDEF_STEREO_COUNT>
0

> <PUBCHEM_ISOTOPIC_ATOM_COUNT>
0

> <PUBCHEM_COMPONENT_COUNT>
1

> <PUBCHEM_CACTVS_TAUTO_COUNT>
14

> <PUBCHEM_CONFORMER_ID>
0006C22E00000001

> <PUBCHEM_MMFF94_ENERGY>
75.06

> <PUBCHEM_FEATURE_SELFOVERLAP>
61.817

> <PUBCHEM_SHAPE_FINGERPRINT>
10498660 4 18334011654106121144
105312 117 18411420605179442276
10863032 1 17987241217001293355
10948715 1 18199195151381915567
11961588 58 18271261446712485413
12173636 292 18272935999017030558
12403259 118 17775284928778379412
12403259 415 18270107032723259011
12403814 3 18272365335001450961
12788726 201 18056215582550457043
12892183 10 17417805171119800675
12969540 114 18187086148242081940
13103583 49 10879419707683202837
13140716 1 17977092466841622731
13464514 151 17764031659333196385
13544653 18 9439107763207379697
13583140 156 17917991715225013402
13911987 19 18186522094171063021
14251740 79 6266910081863426476
14251764 30 4822631237601840957
14251764 38 18195532729521148444
15061688 2 18059583554538622597
15163728 17 18198620132549780933
16945 1 17241061984427831139
17349148 13 15502371210521396668
17492 54 17894926134823279429
17980427 23 17131826573892253429
1813 80 10375293604582776955
18186145 218 18192138524335857755
18927931 339 11383848064627234520
193927 3 9655586231688164536
20602899 9 15574716863414893798
21033648 144 18334014952430235288
21033648 29 18343309166895419464
21521721 280 18410294735817385817
22182313 1 18268691939741634191
22907989 373 18044940073495271916
23227448 37 18340486647637560604
23559900 14 18196092372777065410
2838139 119 18269849742591965092
350125 39 18118399536284464840
4371632 12 16446751514173803952
463206 1 7132131178949624644
474 4 18190179190399276281
5104073 3 17846217799630147584
633830 44 17824249621657344947
9981440 41 17774443905704861105

> <PUBCHEM_SHAPE_MULTIPOLES>
505.72
10.17
3.05
1.57
11.83
0.54
0.01
-8.44
1.03
-0.86
0.61
-1.15
-0.12
1.23

> <PUBCHEM_SHAPE_SELFOVERLAP>
1087.177

> <PUBCHEM_SHAPE_VOLUME>
282.4

> <PUBCHEM_COORDINATE_TYPE>
2
5
10

$$$$

