14329
  -OEChem-06241222432D

 28 28  0     1  0  0  0  0  0999 V2000
    2.8402    0.0000    0.0000 Br  0  5  0  0  0  0  0  0  0  0  0  0
    2.1200    3.6918    0.0000 N   0  3  3  0  0  0  0  0  0  0  0  0
    0.6200    4.5578    0.0000 N   0  0  0  0  0  0  0  0  0  0  0  0
    0.6200    2.8258    0.0000 N   0  0  0  0  0  0  0  0  0  0  0  0
    2.1200    4.6918    0.0000 C   0  0  0  0  0  0  0  0  0  0  0  0
    2.9860    3.1918    0.0000 C   0  0  0  0  0  0  0  0  0  0  0  0
    2.9860    5.1918    0.0000 C   0  0  0  0  0  0  0  0  0  0  0  0
    3.8520    3.6918    0.0000 C   0  0  0  0  0  0  0  0  0  0  0  0
    3.8520    4.6918    0.0000 C   0  0  0  0  0  0  0  0  0  0  0  0
    1.1200    3.6918    0.0000 C   0  0  0  0  0  0  0  0  0  0  0  0
    4.7460    3.1571    0.0000 C   0  0  0  0  0  0  0  0  0  0  0  0
    4.7460    5.2264    0.0000 C   0  0  0  0  0  0  0  0  0  0  0  0
    5.6521    3.6710    0.0000 C   0  0  0  0  0  0  0  0  0  0  0  0
    5.6521    4.7126    0.0000 C   0  0  0  0  0  0  0  0  0  0  0  0
    1.8100    3.1548    0.0000 H   0  0  0  0  0  0  0  0  0  0  0  0
    1.9080    5.2744    0.0000 H   0  0  0  0  0  0  0  0  0  0  0  0
    1.5094    4.5841    0.0000 H   0  0  0  0  0  0  0  0  0  0  0  0
    2.5875    2.7168    0.0000 H   0  0  0  0  0  0  0  0  0  0  0  0
    3.3846    2.7168    0.0000 H   0  0  0  0  0  0  0  0  0  0  0  0
    3.3846    5.6667    0.0000 H   0  0  0  0  0  0  0  0  0  0  0  0
    2.5875    5.6667    0.0000 H   0  0  0  0  0  0  0  0  0  0  0  0
    4.7388    2.5372    0.0000 H   0  0  0  0  0  0  0  0  0  0  0  0
    4.7388    5.8464    0.0000 H   0  0  0  0  0  0  0  0  0  0  0  0
    6.1878    3.3589    0.0000 H   0  0  0  0  0  0  0  0  0  0  0  0
    6.1878    5.0247    0.0000 H   0  0  0  0  0  0  0  0  0  0  0  0
    0.0000    4.5578    0.0000 H   0  0  0  0  0  0  0  0  0  0  0  0
    0.9300    5.0948    0.0000 H   0  0  0  0  0  0  0  0  0  0  0  0
    0.0000    2.8258    0.0000 H   0  0  0  0  0  0  0  0  0  0  0  0
  2  5  1  0  0  0  0
  2  6  1  0  0  0  0
  2 10  1  0  0  0  0
  2 15  1  0  0  0  0
  3 10  1  0  0  0  0
  3 26  1  0  0  0  0
  3 27  1  0  0  0  0
  4 10  2  0  0  0  0
  4 28  1  0  0  0  0
  5  7  1  0  0  0  0
  5 16  1  0  0  0  0
  5 17  1  0  0  0  0
  6  8  1  0  0  0  0
  6 18  1  0  0  0  0
  6 19  1  0  0  0  0
  7  9  1  0  0  0  0
  7 20  1  0  0  0  0
  7 21  1  0  0  0  0
  8  9  1  0  0  0  0
  8 11  2  0  0  0  0
  9 12  2  0  0  0  0
 11 13  1  0  0  0  0
 11 22  1  0  0  0  0
 12 14  1  0  0  0  0
 12 23  1  0  0  0  0
 13 14  2  0  0  0  0
 13 24  1  0  0  0  0
 14 25  1  0  0  0  0
M  CHG  2   1  -1   2   1
M  END
> <PUBCHEM_COMPOUND_CID>
14329

> <PUBCHEM_COMPOUND_CANONICALIZED>
1

> <PUBCHEM_CACTVS_COMPLEXITY>
202

> <PUBCHEM_CACTVS_HBOND_ACCEPTOR>
2

> <PUBCHEM_CACTVS_HBOND_DONOR>
3

> <PUBCHEM_CACTVS_ROTATABLE_BOND>
1

> <PUBCHEM_CACTVS_SUBSKEYS>
AAADccBzAAAAEAAAAAAAAAAAAAAAAAAAAAA8QAAAAAAAAACxAAAAHAAQAAAADADBGAQxAIPAAACgAiBCIACCAACgAAAJiIAIBIiIICKAmRGEIAhgkAKIiAcQgIAOgAAAAAAQAAAAAAAAACAAAAAAAAAAAA==

> <PUBCHEM_IUPAC_OPENEYE_NAME>
1,2,3,4-tetrahydroisoquinolin-2-ium-2-carboxamidine bromide

> <PUBCHEM_IUPAC_CAS_NAME>
1,2,3,4-tetrahydroisoquinolin-2-ium-2-carboximidamide bromide

> <PUBCHEM_IUPAC_NAME>
1,2,3,4-tetrahydroisoquinolin-2-ium-2-carboximidamide bromide

> <PUBCHEM_IUPAC_SYSTEMATIC_NAME>
1,2,3,4-tetrahydroisoquinolin-2-ium-2-carboximidamide bromide

> <PUBCHEM_IUPAC_TRADITIONAL_NAME>
1,2,3,4-tetrahydroisoquinolin-2-ium-2-carboxamidine bromide

> <PUBCHEM_IUPAC_INCHI>
InChI=1S/C10H13N3.BrH/c11-10(12)13-6-5-8-3-1-2-4-9(8)7-13;/h1-4H,5-7H2,(H3,11,12);1H

> <PUBCHEM_IUPAC_INCHIKEY>
VTSAHPTZGHRJSO-UHFFFAOYSA-N

> <PUBCHEM_EXACT_MASS>
255.03711

> <PUBCHEM_MOLECULAR_FORMULA>
C10H14BrN3

> <PUBCHEM_MOLECULAR_WEIGHT>
256.14226

> <PUBCHEM_OPENEYE_CAN_SMILES>
C1C[NH+](CC2=CC=CC=C21)C(=N)N.[Br-]

> <PUBCHEM_OPENEYE_ISO_SMILES>
C1C[NH+](CC2=CC=CC=C21)C(=N)N.[Br-]

> <PUBCHEM_CACTVS_TPSA>
54.3

> <PUBCHEM_MONOISOTOPIC_WEIGHT>
255.03711

> <PUBCHEM_TOTAL_CHARGE>
0

> <PUBCHEM_HEAVY_ATOM_COUNT>
14

> <PUBCHEM_ATOM_DEF_STEREO_COUNT>
0

> <PUBCHEM_ATOM_UDEF_STEREO_COUNT>
0

> <PUBCHEM_BOND_DEF_STEREO_COUNT>
0

> <PUBCHEM_BOND_UDEF_STEREO_COUNT>
0

> <PUBCHEM_ISOTOPIC_ATOM_COUNT>
0

> <PUBCHEM_COMPONENT_COUNT>
2

> <PUBCHEM_CACTVS_TAUTO_COUNT>
2

> <PUBCHEM_COORDINATE_TYPE>
1
5
255

> <PUBCHEM_BONDANNOTATIONS>
11  13  8
12  14  8
13  14  8
8  11  8
8  9  8
9  12  8

$$$$

