442484
  -OEChem-07051212583D

 26 26  0     1  0  0  0  0  0999 V2000
    0.7497    0.0295   -0.3711 C   0  0  2  0  0  0  0  0  0  0  0  0
    2.0818   -0.0388    0.3761 C   0  0  0  0  0  0  0  0  0  0  0  0
   -0.0354    1.2821    0.0612 C   0  0  0  0  0  0  0  0  0  0  0  0
   -1.4818    1.2354   -0.4353 C   0  0  0  0  0  0  0  0  0  0  0  0
   -0.0531   -1.2310   -0.1603 C   0  0  0  0  0  0  0  0  0  0  0  0
    2.8974   -1.2407   -0.0931 C   0  0  0  0  0  0  0  0  0  0  0  0
    2.8698    1.2545    0.1844 C   0  0  0  0  0  0  0  0  0  0  0  0
   -2.1784   -0.0247    0.0192 C   0  0  0  0  0  0  0  0  0  0  0  0
   -1.3798   -1.2365    0.0383 C   0  0  0  0  0  0  0  0  0  0  0  0
   -3.4701   -0.0300    0.3807 C   0  0  0  0  0  0  0  0  0  0  0  0
    0.9472    0.1046   -1.4500 H   0  0  0  0  0  0  0  0  0  0  0  0
    1.9025   -0.1605    1.4531 H   0  0  0  0  0  0  0  0  0  0  0  0
    0.4297    2.1879   -0.3444 H   0  0  0  0  0  0  0  0  0  0  0  0
   -0.0345    1.3782    1.1556 H   0  0  0  0  0  0  0  0  0  0  0  0
   -1.4908    1.2708   -1.5325 H   0  0  0  0  0  0  0  0  0  0  0  0
   -2.0119    2.1276   -0.0806 H   0  0  0  0  0  0  0  0  0  0  0  0
    0.4369   -2.1980   -0.2002 H   0  0  0  0  0  0  0  0  0  0  0  0
    2.9678   -1.2807   -1.1856 H   0  0  0  0  0  0  0  0  0  0  0  0
    3.9198   -1.1866    0.2985 H   0  0  0  0  0  0  0  0  0  0  0  0
    2.4899   -2.1896    0.2665 H   0  0  0  0  0  0  0  0  0  0  0  0
    2.9783    1.5058   -0.8762 H   0  0  0  0  0  0  0  0  0  0  0  0
    3.8770    1.1583    0.6058 H   0  0  0  0  0  0  0  0  0  0  0  0
    2.4027    2.1007    0.6975 H   0  0  0  0  0  0  0  0  0  0  0  0
   -1.8871   -2.1832    0.2019 H   0  0  0  0  0  0  0  0  0  0  0  0
   -4.0617    0.8796    0.3594 H   0  0  0  0  0  0  0  0  0  0  0  0
   -3.9699   -0.9372    0.7053 H   0  0  0  0  0  0  0  0  0  0  0  0
  1  2  1  0  0  0  0
  1  3  1  0  0  0  0
  1  5  1  0  0  0  0
  1 11  1  0  0  0  0
  2  6  1  0  0  0  0
  2  7  1  0  0  0  0
  2 12  1  0  0  0  0
  3  4  1  0  0  0  0
  3 13  1  0  0  0  0
  3 14  1  0  0  0  0
  4  8  1  0  0  0  0
  4 15  1  0  0  0  0
  4 16  1  0  0  0  0
  5  9  2  0  0  0  0
  5 17  1  0  0  0  0
  6 18  1  0  0  0  0
  6 19  1  0  0  0  0
  6 20  1  0  0  0  0
  7 21  1  0  0  0  0
  7 22  1  0  0  0  0
  7 23  1  0  0  0  0
  8  9  1  0  0  0  0
  8 10  2  0  0  0  0
  9 24  1  0  0  0  0
 10 25  1  0  0  0  0
 10 26  1  0  0  0  0
M  END
> <PUBCHEM_COMPOUND_CID>
442484

> <PUBCHEM_CONFORMER_RMSD>
0.4

> <PUBCHEM_CONFORMER_DIVERSEORDER>
2
5
6
3
1
4

> <PUBCHEM_MMFF94_PARTIAL_CHARGES>
10
1 0.14
10 -0.3
17 0.15
24 0.15
25 0.15
26 0.15
4 0.14
5 -0.29
8 -0.14
9 -0.15

> <PUBCHEM_EFFECTIVE_ROTOR_COUNT>
1.6

> <PUBCHEM_PHARMACOPHORE_FEATURES>
2
3 2 6 7 hydrophobe
6 1 3 4 5 8 9 rings

> <PUBCHEM_HEAVY_ATOM_COUNT>
10

> <PUBCHEM_ATOM_DEF_STEREO_COUNT>
1

> <PUBCHEM_ATOM_UDEF_STEREO_COUNT>
0

> <PUBCHEM_BOND_DEF_STEREO_COUNT>
0

> <PUBCHEM_BOND_UDEF_STEREO_COUNT>
0

> <PUBCHEM_ISOTOPIC_ATOM_COUNT>
0

> <PUBCHEM_COMPONENT_COUNT>
1

> <PUBCHEM_CACTVS_TAUTO_COUNT>
1

> <PUBCHEM_CONFORMER_ID>
0006C07400000002

> <PUBCHEM_MMFF94_ENERGY>
15.0906

> <PUBCHEM_FEATURE_SELFOVERLAP>
10.148

> <PUBCHEM_SHAPE_FINGERPRINT>
10219947 1 18409726262055694499
10857977 72 18343868788222104745
12032990 46 18412819205381505875
12524768 44 18410295791714455534
12932764 1 17775010110710320074
13380535 21 18337944581033018838
14325111 11 18410012139168259145
15775835 57 18334292033137930792
16945 1 18413395331993618671
17844478 74 18202275918490974729
193761 8 17474387976705132135
19973954 147 18410013277487755284
20201158 50 18335139834070892294
20871998 184 18116991087870499879
21040471 1 18411136956579722046
23235685 24 18334579027290158489
23402655 69 18194139619231463533
23552423 10 18272652329232806358
2748010 2 18340211911068813964
29004967 10 15554455088928970652
369184 2 18408609157951762703
5084963 1 18261395597706457522
7364860 26 18334012783682286116

> <PUBCHEM_SHAPE_MULTIPOLES>
205.8
4.86
1.55
0.69
0.06
0.03
0
-0.04
-0.6
-0.45
0.06
0.03
0.02
0.18

> <PUBCHEM_SHAPE_SELFOVERLAP>
405.803

> <PUBCHEM_SHAPE_VOLUME>
122.4

> <PUBCHEM_COORDINATE_TYPE>
2
5
10

$$$$

