245230
  -OEChem-07051213062D

 53 56  0     1  0  0  0  0  0999 V2000
    2.9686   -3.5092    0.0000 O   0  0  0  0  0  0  0  0  0  0  0  0
    2.9316    3.7290    0.0000 O   0  0  0  0  0  0  0  0  0  0  0  0
    2.9847   -0.4677    0.0000 C   0  0  2  0  0  0  0  0  0  0  0  0
    2.9686    0.5738    0.0000 C   0  0  2  0  0  0  0  0  0  0  0  0
    3.8507   -0.9677    0.0000 C   0  0  2  0  0  0  0  0  0  0  0  0
    3.8667    1.1016    0.0000 C   0  0  1  0  0  0  0  0  0  0  0  0
    3.8507   -1.9677    0.0000 C   0  0  1  0  0  0  0  0  0  0  0  0
    2.9847   -2.4677    0.0000 C   0  0  2  0  0  0  0  0  0  0  0  0
    4.7607   -0.4608    0.0000 C   0  0  0  0  0  0  0  0  0  0  0  0
    2.1187   -0.9677    0.0000 C   0  0  0  0  0  0  0  0  0  0  0  0
    4.7688    0.5808    0.0000 C   0  0  0  0  0  0  0  0  0  0  0  0
    2.0167    1.0944    0.0000 C   0  0  0  0  0  0  0  0  0  0  0  0
    2.1187   -1.9677    0.0000 C   0  0  0  0  0  0  0  0  0  0  0  0
    3.8751    2.1865    0.0000 C   0  0  0  0  0  0  0  0  0  0  0  0
    4.7607   -2.4745    0.0000 C   0  0  0  0  0  0  0  0  0  0  0  0
    2.1065    0.0672    0.0000 C   0  0  0  0  0  0  0  0  0  0  0  0
    2.0000    2.1793    0.0000 C   0  0  0  0  0  0  0  0  0  0  0  0
    2.9354    2.7290    0.0000 C   0  0  2  0  0  0  0  0  0  0  0  0
    2.1187   -2.9677    0.0000 C   0  0  0  0  0  0  0  0  0  0  0  0
    4.7688   -3.5161    0.0000 C   0  0  0  0  0  0  0  0  0  0  0  0
    3.8667   -4.0370    0.0000 C   0  0  0  0  0  0  0  0  0  0  0  0
    2.2453   -0.0484    0.0000 H   0  0  0  0  0  0  0  0  0  0  0  0
    4.5836   -1.3984    0.0000 H   0  0  0  0  0  0  0  0  0  0  0  0
    4.6044    1.5237    0.0000 H   0  0  0  0  0  0  0  0  0  0  0  0
    4.5836   -1.5370    0.0000 H   0  0  0  0  0  0  0  0  0  0  0  0
    4.9653   -1.0461    0.0000 H   0  0  0  0  0  0  0  0  0  0  0  0
    5.3724   -0.3595    0.0000 H   0  0  0  0  0  0  0  0  0  0  0  0
    1.9066   -0.3851    0.0000 H   0  0  0  0  0  0  0  0  0  0  0  0
    1.5081   -1.0754    0.0000 H   0  0  0  0  0  0  0  0  0  0  0  0
    5.3788    0.4700    0.0000 H   0  0  0  0  0  0  0  0  0  0  0  0
    4.9823    1.1628    0.0000 H   0  0  0  0  0  0  0  0  0  0  0  0
    1.4043    1.1911    0.0000 H   0  0  0  0  0  0  0  0  0  0  0  0
    1.8167    0.5076    0.0000 H   0  0  0  0  0  0  0  0  0  0  0  0
    1.5081   -1.8600    0.0000 H   0  0  0  0  0  0  0  0  0  0  0  0
    1.9066   -2.5503    0.0000 H   0  0  0  0  0  0  0  0  0  0  0  0
    4.4851    2.0757    0.0000 H   0  0  0  0  0  0  0  0  0  0  0  0
    4.0886    2.7686    0.0000 H   0  0  0  0  0  0  0  0  0  0  0  0
    5.3724   -2.5759    0.0000 H   0  0  0  0  0  0  0  0  0  0  0  0
    4.9653   -1.8892    0.0000 H   0  0  0  0  0  0  0  0  0  0  0  0
    1.7924    0.6017    0.0000 H   0  0  0  0  0  0  0  0  0  0  0  0
    1.5720   -0.2470    0.0000 H   0  0  0  0  0  0  0  0  0  0  0  0
    2.4206   -0.4674    0.0000 H   0  0  0  0  0  0  0  0  0  0  0  0
    1.7820    2.7597    0.0000 H   0  0  0  0  0  0  0  0  0  0  0  0
    1.3908    2.0638    0.0000 H   0  0  0  0  0  0  0  0  0  0  0  0
    3.4718    3.0401    0.0000 H   0  0  0  0  0  0  0  0  0  0  0  0
    1.8087   -2.4308    0.0000 H   0  0  0  0  0  0  0  0  0  0  0  0
    1.5818   -3.2777    0.0000 H   0  0  0  0  0  0  0  0  0  0  0  0
    2.4287   -3.5046    0.0000 H   0  0  0  0  0  0  0  0  0  0  0  0
    4.9823   -4.0982    0.0000 H   0  0  0  0  0  0  0  0  0  0  0  0
    5.3788   -3.4053    0.0000 H   0  0  0  0  0  0  0  0  0  0  0  0
    3.4657   -4.5098    0.0000 H   0  0  0  0  0  0  0  0  0  0  0  0
    4.2640   -4.5129    0.0000 H   0  0  0  0  0  0  0  0  0  0  0  0
    2.3934    4.0370    0.0000 H   0  0  0  0  0  0  0  0  0  0  0  0
  1  8  1  0  0  0  0
  1 21  1  0  0  0  0
 18  2  1  6  0  0  0
  2 53  1  0  0  0  0
  3  4  1  0  0  0  0
  3  5  1  0  0  0  0
  3 10  1  0  0  0  0
  3 22  1  1  0  0  0
  4  6  1  0  0  0  0
  4 12  1  0  0  0  0
  4 16  1  6  0  0  0
  5  7  1  0  0  0  0
  5  9  1  0  0  0  0
  5 23  1  6  0  0  0
  6 11  1  0  0  0  0
  6 14  1  0  0  0  0
  6 24  1  1  0  0  0
  7  8  1  0  0  0  0
  7 15  1  0  0  0  0
  7 25  1  1  0  0  0
  8 13  1  0  0  0  0
  8 19  1  6  0  0  0
  9 11  1  0  0  0  0
  9 26  1  0  0  0  0
  9 27  1  0  0  0  0
 10 13  1  0  0  0  0
 10 28  1  0  0  0  0
 10 29  1  0  0  0  0
 11 30  1  0  0  0  0
 11 31  1  0  0  0  0
 12 17  1  0  0  0  0
 12 32  1  0  0  0  0
 12 33  1  0  0  0  0
 13 34  1  0  0  0  0
 13 35  1  0  0  0  0
 14 18  1  0  0  0  0
 14 36  1  0  0  0  0
 14 37  1  0  0  0  0
 15 20  1  0  0  0  0
 15 38  1  0  0  0  0
 15 39  1  0  0  0  0
 16 40  1  0  0  0  0
 16 41  1  0  0  0  0
 16 42  1  0  0  0  0
 17 18  1  0  0  0  0
 17 43  1  0  0  0  0
 17 44  1  0  0  0  0
 18 45  1  0  0  0  0
 19 46  1  0  0  0  0
 19 47  1  0  0  0  0
 19 48  1  0  0  0  0
 20 21  1  0  0  0  0
 20 49  1  0  0  0  0
 20 50  1  0  0  0  0
 21 51  1  0  0  0  0
 21 52  1  0  0  0  0
M  END
> <PUBCHEM_COMPOUND_CID>
245230

> <PUBCHEM_COMPOUND_CANONICALIZED>
1

> <PUBCHEM_CACTVS_COMPLEXITY>
408

> <PUBCHEM_CACTVS_HBOND_ACCEPTOR>
2

> <PUBCHEM_CACTVS_HBOND_DONOR>
1

> <PUBCHEM_CACTVS_ROTATABLE_BOND>
0

> <PUBCHEM_CACTVS_SUBSKEYS>
AAADcfB4MAAAAAAAAAAAAAAAAAAAAAAAAAA0YMEAAAAAAADQAAAAGgAACAAAD1SggAICAAAABgAAAAAAAAAAAAAAAAAAAAAAAAAAEAIAAAACQAAEAAAAAAGAwPAPgAAAAAAAAADAAAYAADAAAAAAAAAAAA==

> <PUBCHEM_IUPAC_OPENEYE_NAME>
(4aS,4bR,6aS,8S,10aS,10bS,12aS)-10a,12a-dimethyl-3,4,4a,4b,5,6,6a,7,8,9,10,10b,11,12-tetradecahydro-2H-naphtho[2,1-f]chromen-8-ol

> <PUBCHEM_IUPAC_CAS_NAME>
(4aS,4bR,6aS,8S,10aS,10bS,12aS)-10a,12a-dimethyl-3,4,4a,4b,5,6,6a,7,8,9,10,10b,11,12-tetradecahydro-2H-naphtho[2,1-f][1]benzopyran-8-ol

> <PUBCHEM_IUPAC_NAME>
(4aS,4bR,6aS,8S,10aS,10bS,12aS)-10a,12a-dimethyl-3,4,4a,4b,5,6,6a,7,8,9,10,10b,11,12-tetradecahydro-2H-naphtho[2,1-f]chromen-8-ol

> <PUBCHEM_IUPAC_SYSTEMATIC_NAME>
(4aS,4bR,6aS,8S,10aS,10bS,12aS)-10a,12a-dimethyl-3,4,4a,4b,5,6,6a,7,8,9,10,10b,11,12-tetradecahydro-2H-naphtho[2,1-f]chromen-8-ol

> <PUBCHEM_IUPAC_TRADITIONAL_NAME>
(4aS,4bR,6aS,8S,10aS,10bS,12aS)-10a,12a-dimethyl-3,4,4a,4b,5,6,6a,7,8,9,10,10b,11,12-tetradecahydro-2H-naphtho[2,1-f]chromen-8-ol

> <PUBCHEM_IUPAC_INCHI>
InChI=1S/C19H32O2/c1-18-9-7-14(20)12-13(18)5-6-15-16(18)8-10-19(2)17(15)4-3-11-21-19/h13-17,20H,3-12H2,1-2H3/t13-,14-,15+,16-,17-,18-,19-/m0/s1

> <PUBCHEM_IUPAC_INCHIKEY>
VNPJDUYJTSUJJA-JUKXBMAYSA-N

> <PUBCHEM_XLOGP3_AA>
4.1

> <PUBCHEM_EXACT_MASS>
292.24023

> <PUBCHEM_MOLECULAR_FORMULA>
C19H32O2

> <PUBCHEM_MOLECULAR_WEIGHT>
292.45618

> <PUBCHEM_OPENEYE_CAN_SMILES>
CC12CCC(CC1CCC3C2CCC4(C3CCCO4)C)O

> <PUBCHEM_OPENEYE_ISO_SMILES>
C[C@]12CC[C@@H](C[C@@H]1CC[C@@H]3[C@@H]2CC[C@]4([C@H]3CCCO4)C)O

> <PUBCHEM_CACTVS_TPSA>
29.5

> <PUBCHEM_MONOISOTOPIC_WEIGHT>
292.24023

> <PUBCHEM_TOTAL_CHARGE>
0

> <PUBCHEM_HEAVY_ATOM_COUNT>
21

> <PUBCHEM_ATOM_DEF_STEREO_COUNT>
7

> <PUBCHEM_ATOM_UDEF_STEREO_COUNT>
0

> <PUBCHEM_BOND_DEF_STEREO_COUNT>
0

> <PUBCHEM_BOND_UDEF_STEREO_COUNT>
0

> <PUBCHEM_ISOTOPIC_ATOM_COUNT>
0

> <PUBCHEM_COMPONENT_COUNT>
1

> <PUBCHEM_CACTVS_TAUTO_COUNT>
1

> <PUBCHEM_COORDINATE_TYPE>
1
5
255

> <PUBCHEM_BONDANNOTATIONS>
18  2  6
3  22  5
4  16  6
5  23  6
6  24  5
7  25  5
8  19  6

$$$$

