3465817
  -OEChem-07051213143D

 25 25  0     0  0  0  0  0  0999 V2000
    4.1994    0.0848    0.7814 O   0  0  0  0  0  0  0  0  0  0  0  0
   -1.0606   -2.9702   -0.0069 O   0  5  0  0  0  0  0  0  0  0  0  0
    0.9895   -2.1950   -0.1317 O   0  0  0  0  0  0  0  0  0  0  0  0
    1.5100    0.2372   -0.1669 N   0  0  0  0  0  0  0  0  0  0  0  0
   -0.2487   -2.0167   -0.0572 N   0  3  0  0  0  0  0  0  0  0  0  0
   -4.0399    1.0094    0.1649 N   0  0  0  0  0  0  0  0  0  0  0  0
    0.1099    0.4113   -0.0831 C   0  0  0  0  0  0  0  0  0  0  0  0
    2.4111    1.3304   -0.2233 C   0  0  0  0  0  0  0  0  0  0  0  0
   -0.7506   -0.6852   -0.0292 C   0  0  0  0  0  0  0  0  0  0  0  0
   -0.4077    1.7062   -0.0545 C   0  0  0  0  0  0  0  0  0  0  0  0
   -2.1287   -0.4868    0.0533 C   0  0  0  0  0  0  0  0  0  0  0  0
   -2.6465    0.8082    0.0817 C   0  0  0  0  0  0  0  0  0  0  0  0
   -1.7859    1.9047    0.0278 C   0  0  0  0  0  0  0  0  0  0  0  0
    3.8487    0.8618   -0.3564 C   0  0  0  0  0  0  0  0  0  0  0  0
    2.3304    1.9268    0.6939 H   0  0  0  0  0  0  0  0  0  0  0  0
    2.1908    1.9759   -1.0817 H   0  0  0  0  0  0  0  0  0  0  0  0
    1.8720   -0.6961   -0.3061 H   0  0  0  0  0  0  0  0  0  0  0  0
    0.2191    2.5918   -0.0917 H   0  0  0  0  0  0  0  0  0  0  0  0
   -2.8231   -1.3232    0.0966 H   0  0  0  0  0  0  0  0  0  0  0  0
   -2.1777    2.9184    0.0499 H   0  0  0  0  0  0  0  0  0  0  0  0
    4.5289    1.7171   -0.4072 H   0  0  0  0  0  0  0  0  0  0  0  0
    3.9946    0.2499   -1.2527 H   0  0  0  0  0  0  0  0  0  0  0  0
   -4.4152    1.9483    0.1854 H   0  0  0  0  0  0  0  0  0  0  0  0
   -4.6652    0.2156    0.2039 H   0  0  0  0  0  0  0  0  0  0  0  0
    3.6113   -0.6885    0.8069 H   0  0  0  0  0  0  0  0  0  0  0  0
  1 14  1  0  0  0  0
  1 25  1  0  0  0  0
  2  5  1  0  0  0  0
  3  5  2  0  0  0  0
  4  7  1  0  0  0  0
  4  8  1  0  0  0  0
  4 17  1  0  0  0  0
  5  9  1  0  0  0  0
  6 12  1  0  0  0  0
  6 23  1  0  0  0  0
  6 24  1  0  0  0  0
  7  9  2  0  0  0  0
  7 10  1  0  0  0  0
  8 14  1  0  0  0  0
  8 15  1  0  0  0  0
  8 16  1  0  0  0  0
  9 11  1  0  0  0  0
 10 13  2  0  0  0  0
 10 18  1  0  0  0  0
 11 12  2  0  0  0  0
 11 19  1  0  0  0  0
 12 13  1  0  0  0  0
 13 20  1  0  0  0  0
 14 21  1  0  0  0  0
 14 22  1  0  0  0  0
M  CHG  2   2  -1   5   1
M  END
> <PUBCHEM_COMPOUND_CID>
3465817

> <PUBCHEM_CONFORMER_RMSD>
0.6

> <PUBCHEM_CONFORMER_DIVERSEORDER>
1
6
3
2
4
5

> <PUBCHEM_MMFF94_PARTIAL_CHARGES>
21
1 -0.68
10 -0.15
11 -0.15
12 0.1
13 -0.15
14 0.28
17 0.4
18 0.15
19 0.15
2 -0.52
20 0.15
23 0.4
24 0.4
25 0.4
3 -0.52
4 -0.87
5 0.91
6 -0.9
7 0.1
8 0.37
9 0.13

> <PUBCHEM_EFFECTIVE_ROTOR_COUNT>
4

> <PUBCHEM_PHARMACOPHORE_FEATURES>
10
1 1 acceptor
1 1 donor
1 2 acceptor
1 2 anion
1 3 acceptor
1 4 cation
1 4 donor
1 6 cation
1 6 donor
6 7 9 10 11 12 13 rings

> <PUBCHEM_HEAVY_ATOM_COUNT>
14

> <PUBCHEM_ATOM_DEF_STEREO_COUNT>
0

> <PUBCHEM_ATOM_UDEF_STEREO_COUNT>
0

> <PUBCHEM_BOND_DEF_STEREO_COUNT>
0

> <PUBCHEM_BOND_UDEF_STEREO_COUNT>
0

> <PUBCHEM_ISOTOPIC_ATOM_COUNT>
0

> <PUBCHEM_COMPONENT_COUNT>
1

> <PUBCHEM_CACTVS_TAUTO_COUNT>
1

> <PUBCHEM_CONFORMER_ID>
0034E25900000001

> <PUBCHEM_MMFF94_ENERGY>
60.9549

> <PUBCHEM_FEATURE_SELFOVERLAP>
50.828

> <PUBCHEM_SHAPE_FINGERPRINT>
10967382 1 18410571829120151084
13380535 76 18409166627506003822
14614273 12 18199752603835714381
14648413 74 17692248960160587545
15042514 8 18340483357428913075
15536298 74 18189052165131796198
15669948 3 18267582412634947028
16945 1 18410284796513970093
17846911 113 18407761443055992328
193761 8 17762335112533030221
20510252 161 18260545653870672104
20645476 183 17702080505372955838
20711985 365 18122623855906005820
20871998 184 18044648703072231734
21524375 3 18410294730688663283
23402539 116 18334304145014563445
23463225 33 18271810159297596352
23552423 10 18050565450346131677
257057 1 17397271525109491918
2748010 2 18268418217238531909
366044 4 18411418414571891697
43471831 8 18341050821255727970
528862 383 18199191861109899907
53812653 166 18333732424669358257
54173680 148 18123468280625426955
5706482 22 18408890632860018643
69090 78 18409733945525548124
7364860 26 18046907361785060703
81228 2 17907310853045762569
81539 233 18201157771000010549

> <PUBCHEM_SHAPE_MULTIPOLES>
255.56
5.76
2.51
0.63
4.05
1.94
-0.02
-2.51
-0.58
-0.84
0.09
0.19
-0.05
-0.16

> <PUBCHEM_SHAPE_SELFOVERLAP>
527.82

> <PUBCHEM_SHAPE_VOLUME>
146.7

> <PUBCHEM_COORDINATE_TYPE>
2
5
10

$$$$

