441729
  -OEChem-07051212553D

 58 63  0     1  0  0  0  0  0999 V2000
    2.3644    2.1118   -1.5882 O   0  0  0  0  0  0  0  0  0  0  0  0
    2.2698    0.1927    2.4424 O   0  0  0  0  0  0  0  0  0  0  0  0
   -2.4020   -1.0784   -0.4651 N   0  0  2  0  0  0  0  0  0  0  0  0
   -0.4972    0.6221   -0.4558 C   0  0  1  0  0  0  0  0  0  0  0  0
    1.3150   -0.8468    0.3862 C   0  0  1  0  0  0  0  0  0  0  0  0
    1.0570    0.5471   -0.2712 C   0  0  1  0  0  0  0  0  0  0  0  0
   -0.1291   -1.1818    0.8604 C   0  0  2  0  0  0  0  0  0  0  0  0
   -0.9508   -0.8556   -0.4450 C   0  0  1  0  0  0  0  0  0  0  0  0
   -1.1226    1.0367    0.9158 C   0  0  2  0  0  0  0  0  0  0  0  0
   -0.6696   -0.1240    1.8485 C   0  0  0  0  0  0  0  0  0  0  0  0
   -2.6655    1.1045    0.7758 C   0  0  2  0  0  0  0  0  0  0  0  0
   -0.9313    1.4984   -1.6247 C   0  0  0  0  0  0  0  0  0  0  0  0
    2.0650    0.7315   -1.4083 C   0  0  2  0  0  0  0  0  0  0  0  0
    1.8124   -1.9563   -0.6274 C   0  0  0  0  0  0  0  0  0  0  0  0
    2.5413   -0.6448    1.3323 C   0  0  1  0  0  0  0  0  0  0  0  0
    3.3617   -0.0570   -1.0440 C   0  0  2  0  0  0  0  0  0  0  0  0
   -3.2037   -0.3248    0.5011 C   0  0  0  0  0  0  0  0  0  0  0  0
   -3.0395    2.0817   -0.3674 C   0  0  0  0  0  0  0  0  0  0  0  0
    3.0962   -1.5305   -1.3509 C   0  0  0  0  0  0  0  0  0  0  0  0
   -2.4332    1.7266   -1.7187 C   0  0  0  0  0  0  0  0  0  0  0  0
    3.6476   -0.0133    0.4657 C   0  0  0  0  0  0  0  0  0  0  0  0
   -3.3037    1.6418    2.0725 C   0  0  0  0  0  0  0  0  0  0  0  0
   -2.7385   -2.4986   -0.4427 C   0  0  0  0  0  0  0  0  0  0  0  0
    4.7659    0.5360    0.9615 C   0  0  0  0  0  0  0  0  0  0  0  0
   -4.2095   -2.7191   -0.7524 C   0  0  0  0  0  0  0  0  0  0  0  0
    1.2729    1.3606    0.4359 H   0  0  0  0  0  0  0  0  0  0  0  0
   -0.2302   -2.2076    1.2227 H   0  0  0  0  0  0  0  0  0  0  0  0
   -0.5721   -1.3358   -1.3473 H   0  0  0  0  0  0  0  0  0  0  0  0
   -0.7285    1.9987    1.2659 H   0  0  0  0  0  0  0  0  0  0  0  0
   -1.4804   -0.5402    2.4514 H   0  0  0  0  0  0  0  0  0  0  0  0
    0.0608    0.2234    2.5751 H   0  0  0  0  0  0  0  0  0  0  0  0
   -0.5825    1.0726   -2.5725 H   0  0  0  0  0  0  0  0  0  0  0  0
   -0.4480    2.4790   -1.5255 H   0  0  0  0  0  0  0  0  0  0  0  0
    1.6603    0.3700   -2.3599 H   0  0  0  0  0  0  0  0  0  0  0  0
    1.0830   -2.2242   -1.3925 H   0  0  0  0  0  0  0  0  0  0  0  0
    1.9961   -2.8903   -0.0795 H   0  0  0  0  0  0  0  0  0  0  0  0
    2.8771   -1.6115    1.7245 H   0  0  0  0  0  0  0  0  0  0  0  0
    4.2162    0.3109   -1.6231 H   0  0  0  0  0  0  0  0  0  0  0  0
   -3.2822   -0.8811    1.4440 H   0  0  0  0  0  0  0  0  0  0  0  0
   -4.2318   -0.2277    0.1295 H   0  0  0  0  0  0  0  0  0  0  0  0
   -2.7076    3.0936   -0.0974 H   0  0  0  0  0  0  0  0  0  0  0  0
   -4.1304    2.1372   -0.4746 H   0  0  0  0  0  0  0  0  0  0  0  0
    3.9374   -2.1597   -1.0334 H   0  0  0  0  0  0  0  0  0  0  0  0
    2.9836   -1.6843   -2.4311 H   0  0  0  0  0  0  0  0  0  0  0  0
   -2.6321    2.5372   -2.4303 H   0  0  0  0  0  0  0  0  0  0  0  0
   -2.9261    0.8422   -2.1364 H   0  0  0  0  0  0  0  0  0  0  0  0
   -4.3937    1.7034    1.9758 H   0  0  0  0  0  0  0  0  0  0  0  0
   -3.0875    1.0021    2.9340 H   0  0  0  0  0  0  0  0  0  0  0  0
   -2.9323    2.6457    2.3078 H   0  0  0  0  0  0  0  0  0  0  0  0
   -2.1582   -3.0257   -1.2101 H   0  0  0  0  0  0  0  0  0  0  0  0
   -2.4897   -2.9586    0.5212 H   0  0  0  0  0  0  0  0  0  0  0  0
    2.8020    2.4341   -0.7822 H   0  0  0  0  0  0  0  0  0  0  0  0
    2.3323    1.1240    2.1738 H   0  0  0  0  0  0  0  0  0  0  0  0
    4.9561    0.5570    2.0290 H   0  0  0  0  0  0  0  0  0  0  0  0
    5.5154    0.9723    0.3101 H   0  0  0  0  0  0  0  0  0  0  0  0
   -4.8612   -2.3973    0.0658 H   0  0  0  0  0  0  0  0  0  0  0  0
   -4.5104   -2.1988   -1.6682 H   0  0  0  0  0  0  0  0  0  0  0  0
   -4.3966   -3.7877   -0.9056 H   0  0  0  0  0  0  0  0  0  0  0  0
  1 13  1  0  0  0  0
  1 52  1  0  0  0  0
  2 15  1  0  0  0  0
  2 53  1  0  0  0  0
  3  8  1  0  0  0  0
  3 17  1  0  0  0  0
  3 23  1  0  0  0  0
  4  6  1  0  0  0  0
  4  8  1  0  0  0  0
  4  9  1  0  0  0  0
  4 12  1  0  0  0  0
  5  6  1  0  0  0  0
  5  7  1  0  0  0  0
  5 14  1  0  0  0  0
  5 15  1  0  0  0  0
  6 13  1  0  0  0  0
  6 26  1  0  0  0  0
  7  8  1  0  0  0  0
  7 10  1  0  0  0  0
  7 27  1  0  0  0  0
  8 28  1  0  0  0  0
  9 10  1  0  0  0  0
  9 11  1  0  0  0  0
  9 29  1  0  0  0  0
 10 30  1  0  0  0  0
 10 31  1  0  0  0  0
 11 17  1  0  0  0  0
 11 18  1  0  0  0  0
 11 22  1  0  0  0  0
 12 20  1  0  0  0  0
 12 32  1  0  0  0  0
 12 33  1  0  0  0  0
 13 16  1  0  0  0  0
 13 34  1  0  0  0  0
 14 19  1  0  0  0  0
 14 35  1  0  0  0  0
 14 36  1  0  0  0  0
 15 21  1  0  0  0  0
 15 37  1  0  0  0  0
 16 19  1  0  0  0  0
 16 21  1  0  0  0  0
 16 38  1  0  0  0  0
 17 39  1  0  0  0  0
 17 40  1  0  0  0  0
 18 20  1  0  0  0  0
 18 41  1  0  0  0  0
 18 42  1  0  0  0  0
 19 43  1  0  0  0  0
 19 44  1  0  0  0  0
 20 45  1  0  0  0  0
 20 46  1  0  0  0  0
 21 24  2  0  0  0  0
 22 47  1  0  0  0  0
 22 48  1  0  0  0  0
 22 49  1  0  0  0  0
 23 25  1  0  0  0  0
 23 50  1  0  0  0  0
 23 51  1  0  0  0  0
 24 54  1  0  0  0  0
 24 55  1  0  0  0  0
 25 56  1  0  0  0  0
 25 57  1  0  0  0  0
 25 58  1  0  0  0  0
M  END
> <PUBCHEM_COMPOUND_CID>
441729

> <PUBCHEM_CONFORMER_RMSD>
0.6

> <PUBCHEM_CONFORMER_DIVERSEORDER>
1

> <PUBCHEM_MMFF94_PARTIAL_CHARGES>
15
1 -0.68
13 0.28
15 0.42
16 0.14
17 0.27
2 -0.68
21 -0.28
23 0.27
24 -0.3
3 -0.81
52 0.4
53 0.4
54 0.15
55 0.15
8 0.27

> <PUBCHEM_EFFECTIVE_ROTOR_COUNT>
3

> <PUBCHEM_PHARMACOPHORE_FEATURES>
9
1 1 acceptor
1 1 donor
1 2 acceptor
1 2 donor
1 3 cation
6 4 9 11 12 18 20 rings
7 4 5 6 7 8 9 10 rings
8 3 4 7 8 9 10 11 17 rings
8 5 6 13 14 15 16 19 21 rings

> <PUBCHEM_HEAVY_ATOM_COUNT>
25

> <PUBCHEM_ATOM_DEF_STEREO_COUNT>
9

> <PUBCHEM_ATOM_UDEF_STEREO_COUNT>
1

> <PUBCHEM_BOND_DEF_STEREO_COUNT>
0

> <PUBCHEM_BOND_UDEF_STEREO_COUNT>
0

> <PUBCHEM_ISOTOPIC_ATOM_COUNT>
0

> <PUBCHEM_COMPONENT_COUNT>
1

> <PUBCHEM_CACTVS_TAUTO_COUNT>
1

> <PUBCHEM_CONFORMER_ID>
0006BD8100000001

> <PUBCHEM_MMFF94_ENERGY>
130.2236

> <PUBCHEM_FEATURE_SELFOVERLAP>
48.075

> <PUBCHEM_SHAPE_FINGERPRINT>
10369192 42 16953105202241485432
10863032 1 17895469327716109790
10948715 1 17097483448247023585
11132069 177 18342452677116699364
11578080 2 18113907022295070977
12035759 4 18059870436916212295
12173636 292 18042960068239991681
12403814 3 18202277026935506537
12553582 1 17632565063796463532
12788726 201 18192982734792016123
13140716 1 17345170230624960800
13224815 77 18409451401080790794
133893 2 17487042371824973349
13583140 156 17022902367153184466
14178342 30 18335140920702886434
14223421 5 17749393637203691866
14289901 80 18186792561193716170
14787075 74 17315082047617690770
15309172 13 18195516219835076545
15420108 30 14749507264667238828
16752209 62 18410302393501624455
16945 1 18057885934028138101
17349148 13 16917078741219941146
17357779 13 18044117691039189543
17492 54 17769368327490584838
17980427 23 18270966748143543276
1813 80 18270959025787083111
18186145 218 18263636441164059142
18981168 100 18334862769851404296
192875 21 17632025143484083198
200 152 17203620258736974251
20691752 17 18059563715752866638
21033648 29 18046071720100667945
22112679 90 18343295938321671237
23402539 116 17846788385760860422
23419403 2 17831337954205333469
23557571 272 18261402108882347939
23559900 14 17749949003009973742
2748010 2 17553202511766184581
296302 2 17895201029852037592
4340502 62 17751621373222888289
5104073 3 17967814976916513458
7097593 13 15481272827761497832
81228 2 18410573947040551915

> <PUBCHEM_SHAPE_MULTIPOLES>
497.77
7.15
2.4
1.91
2.15
0.99
-0.36
0.58
-0.43
-2.54
0.76
0.26
-0.8
-0.37

> <PUBCHEM_SHAPE_SELFOVERLAP>
1108.6

> <PUBCHEM_SHAPE_VOLUME>
264.7

> <PUBCHEM_COORDINATE_TYPE>
2
5
10

$$$$

