11370451
  -OEChem-07051213073D

 53 56  0     1  0  0  0  0  0999 V2000
    5.5246    0.5753    1.5159 O   0  0  0  0  0  0  0  0  0  0  0  0
   -5.4221    0.0851   -0.3706 O   0  0  0  0  0  0  0  0  0  0  0  0
    0.0758   -1.0144   -0.2918 C   0  0  1  0  0  0  0  0  0  0  0  0
   -1.2468   -0.9124    0.4641 C   0  0  1  0  0  0  0  0  0  0  0  0
    0.8517    0.3284   -0.0672 C   0  0  1  0  0  0  0  0  0  0  0  0
    2.1635    0.3660   -0.9310 C   0  0  2  0  0  0  0  0  0  0  0  0
   -2.1570    0.1843   -0.1528 C   0  0  1  0  0  0  0  0  0  0  0  0
    3.0383   -0.8928   -0.5823 C   0  0  2  0  0  0  0  0  0  0  0  0
    0.9398   -2.2094    0.1084 C   0  0  0  0  0  0  0  0  0  0  0  0
   -3.3529    0.0531    0.8154 C   0  0  2  0  0  0  0  0  0  0  0  0
   -2.1733   -2.1115    0.5888 C   0  0  0  0  0  0  0  0  0  0  0  0
    2.2509   -2.2160   -0.6827 C   0  0  0  0  0  0  0  0  0  0  0  0
   -3.5108   -1.4735    1.0142 C   0  0  0  0  0  0  0  0  0  0  0  0
    3.0241    1.6417   -0.6852 C   0  0  0  0  0  0  0  0  0  0  0  0
   -0.0613    1.5476   -0.1574 C   0  0  0  0  0  0  0  0  0  0  0  0
   -1.4058    1.4913   -0.1586 C   0  0  0  0  0  0  0  0  0  0  0  0
    3.7011   -0.8065    0.8075 C   0  0  0  0  0  0  0  0  0  0  0  0
    1.8247    0.3721   -2.4445 C   0  0  0  0  0  0  0  0  0  0  0  0
   -2.5870   -0.0826   -1.6189 C   0  0  0  0  0  0  0  0  0  0  0  0
    3.5995    1.7503    0.7168 C   0  0  0  0  0  0  0  0  0  0  0  0
    4.4001    0.5125    1.0218 C   0  0  0  0  0  0  0  0  0  0  0  0
   -4.6182    0.6938    0.3338 C   0  0  0  0  0  0  0  0  0  0  0  0
   -4.8590    2.1178    0.7562 C   0  0  0  0  0  0  0  0  0  0  0  0
   -0.1517   -1.1445   -1.3536 H   0  0  0  0  0  0  0  0  0  0  0  0
   -0.9927   -0.6279    1.5006 H   0  0  0  0  0  0  0  0  0  0  0  0
    1.1663    0.3298    0.9864 H   0  0  0  0  0  0  0  0  0  0  0  0
    3.8568   -0.9426   -1.3154 H   0  0  0  0  0  0  0  0  0  0  0  0
    0.4042   -3.1450   -0.0915 H   0  0  0  0  0  0  0  0  0  0  0  0
    1.1424   -2.1909    1.1852 H   0  0  0  0  0  0  0  0  0  0  0  0
   -3.1031    0.4921    1.7916 H   0  0  0  0  0  0  0  0  0  0  0  0
   -1.8197   -2.8316    1.3336 H   0  0  0  0  0  0  0  0  0  0  0  0
   -2.2802   -2.6431   -0.3627 H   0  0  0  0  0  0  0  0  0  0  0  0
    2.8742   -3.0508   -0.3392 H   0  0  0  0  0  0  0  0  0  0  0  0
    2.0281   -2.4246   -1.7362 H   0  0  0  0  0  0  0  0  0  0  0  0
   -4.3310   -1.9179    0.4411 H   0  0  0  0  0  0  0  0  0  0  0  0
   -3.7133   -1.6870    2.0706 H   0  0  0  0  0  0  0  0  0  0  0  0
    2.4578    2.5504   -0.9164 H   0  0  0  0  0  0  0  0  0  0  0  0
    3.8673    1.6358   -1.3912 H   0  0  0  0  0  0  0  0  0  0  0  0
    0.3980    2.5312   -0.1513 H   0  0  0  0  0  0  0  0  0  0  0  0
   -1.9666    2.4184   -0.2148 H   0  0  0  0  0  0  0  0  0  0  0  0
    4.4425   -1.6082    0.9088 H   0  0  0  0  0  0  0  0  0  0  0  0
    2.9802   -0.9259    1.6222 H   0  0  0  0  0  0  0  0  0  0  0  0
    1.2170    1.2441   -2.7105 H   0  0  0  0  0  0  0  0  0  0  0  0
    2.7389    0.4162   -3.0484 H   0  0  0  0  0  0  0  0  0  0  0  0
    1.2825   -0.5187   -2.7691 H   0  0  0  0  0  0  0  0  0  0  0  0
   -3.2520    0.7096   -1.9845 H   0  0  0  0  0  0  0  0  0  0  0  0
   -1.7341   -0.0979   -2.3059 H   0  0  0  0  0  0  0  0  0  0  0  0
   -3.1182   -1.0317   -1.7392 H   0  0  0  0  0  0  0  0  0  0  0  0
    2.8204    1.8663    1.4757 H   0  0  0  0  0  0  0  0  0  0  0  0
    4.2597    2.6223    0.7776 H   0  0  0  0  0  0  0  0  0  0  0  0
   -4.7130    2.2196    1.8344 H   0  0  0  0  0  0  0  0  0  0  0  0
   -4.1889    2.7888    0.2170 H   0  0  0  0  0  0  0  0  0  0  0  0
   -5.8921    2.3936    0.5251 H   0  0  0  0  0  0  0  0  0  0  0  0
  1 21  2  0  0  0  0
  2 22  2  0  0  0  0
  3  4  1  0  0  0  0
  3  5  1  0  0  0  0
  3  9  1  0  0  0  0
  3 24  1  0  0  0  0
  4  7  1  0  0  0  0
  4 11  1  0  0  0  0
  4 25  1  0  0  0  0
  5  6  1  0  0  0  0
  5 15  1  0  0  0  0
  5 26  1  0  0  0  0
  6  8  1  0  0  0  0
  6 14  1  0  0  0  0
  6 18  1  0  0  0  0
  7 10  1  0  0  0  0
  7 16  1  0  0  0  0
  7 19  1  0  0  0  0
  8 12  1  0  0  0  0
  8 17  1  0  0  0  0
  8 27  1  0  0  0  0
  9 12  1  0  0  0  0
  9 28  1  0  0  0  0
  9 29  1  0  0  0  0
 10 13  1  0  0  0  0
 10 22  1  0  0  0  0
 10 30  1  0  0  0  0
 11 13  1  0  0  0  0
 11 31  1  0  0  0  0
 11 32  1  0  0  0  0
 12 33  1  0  0  0  0
 12 34  1  0  0  0  0
 13 35  1  0  0  0  0
 13 36  1  0  0  0  0
 14 20  1  0  0  0  0
 14 37  1  0  0  0  0
 14 38  1  0  0  0  0
 15 16  2  0  0  0  0
 15 39  1  0  0  0  0
 16 40  1  0  0  0  0
 17 21  1  0  0  0  0
 17 41  1  0  0  0  0
 17 42  1  0  0  0  0
 18 43  1  0  0  0  0
 18 44  1  0  0  0  0
 18 45  1  0  0  0  0
 19 46  1  0  0  0  0
 19 47  1  0  0  0  0
 19 48  1  0  0  0  0
 20 21  1  0  0  0  0
 20 49  1  0  0  0  0
 20 50  1  0  0  0  0
 22 23  1  0  0  0  0
 23 51  1  0  0  0  0
 23 52  1  0  0  0  0
 23 53  1  0  0  0  0
M  END
> <PUBCHEM_COMPOUND_CID>
11370451

> <PUBCHEM_CONFORMER_RMSD>
0.6

> <PUBCHEM_CONFORMER_DIVERSEORDER>
1
5
4
3
2

> <PUBCHEM_MMFF94_PARTIAL_CHARGES>
14
1 -0.57
10 0.06
15 -0.29
16 -0.29
17 0.06
2 -0.57
20 0.06
21 0.45
22 0.45
23 0.06
39 0.15
40 0.15
5 0.14
7 0.14

> <PUBCHEM_EFFECTIVE_ROTOR_COUNT>
2.6

> <PUBCHEM_PHARMACOPHORE_FEATURES>
6
1 1 acceptor
1 2 acceptor
5 4 7 10 11 13 rings
6 3 4 5 7 15 16 rings
6 3 5 6 8 9 12 rings
6 6 8 14 17 20 21 rings

> <PUBCHEM_HEAVY_ATOM_COUNT>
23

> <PUBCHEM_ATOM_DEF_STEREO_COUNT>
7

> <PUBCHEM_ATOM_UDEF_STEREO_COUNT>
0

> <PUBCHEM_BOND_DEF_STEREO_COUNT>
0

> <PUBCHEM_BOND_UDEF_STEREO_COUNT>
0

> <PUBCHEM_ISOTOPIC_ATOM_COUNT>
0

> <PUBCHEM_COMPONENT_COUNT>
1

> <PUBCHEM_CACTVS_TAUTO_COUNT>
9

> <PUBCHEM_CONFORMER_ID>
00AD7FD300000001

> <PUBCHEM_MMFF94_ENERGY>
75.7343

> <PUBCHEM_FEATURE_SELFOVERLAP>
30.586

> <PUBCHEM_SHAPE_FINGERPRINT>
10062212 137 18130507427312982187
11132069 177 18343014489204480611
11370993 70 18409729560395763043
11961588 58 5039371324712668154
12011746 2 18409726275462881470
12173636 292 18411411839536130895
12236239 1 17603308176384155471
12403260 363 18195254316760687126
12403814 3 17346598560975438213
12633257 1 17489869314919537898
13140716 1 18270400481952785496
13224815 77 18409442557632423575
13583140 156 17676491597066776643
13675066 3 18343013406914744675
14178342 30 18341045220834593291
14223421 5 18410855507742125750
14289901 80 15791999121628220503
14341114 176 18342459262039886938
14790565 3 18052807049660819492
15142383 8 15410624717324944613
15196674 1 18341044146997784699
15238133 3 18340758338320301997
15375358 24 18335416859540300211
15536298 74 18335695091637536279
16945 1 18342737472382815310
17349148 13 18271815617879113941
17980427 23 18201162027507890716
1813 80 16415481588621857054
18186145 218 17917986204887707631
20715895 44 18059019513785262973
21033648 29 17916049947589335412
21421861 104 17917155030063423362
21452121 103 18334015033780977730
21756936 100 17827083905717253952
21859007 373 17344926319659341061
22149856 69 18265026138917414371
22182313 1 17916031358906958103
23402539 116 18335431131442331348
23503953 91 18201996625273299921
23557571 272 18263346028244815926
23559900 14 18339065073723917766
26918003 58 18272937111049440032
2748010 2 18340753880233809238
296302 2 17530685398466447710
312423 11 5977842925485350157
335352 9 18341043141938599007
34797466 226 16009029445597457257
34934 24 18186804690423888005
350125 39 18196362835066823188
3680242 22 18200875196232039395
394222 165 17128150764681571948
4072396 5 18343027695917523611
4340502 62 18411975880395343155
474 4 18114465574175353776
495365 180 17895194449603463435
5104073 3 18339634650954139635
633830 44 18260265214149443188
7364860 26 18261669393667161150
9709674 26 18337382842144629439

> <PUBCHEM_SHAPE_MULTIPOLES>
461.59
9.97
2.21
1.4
2.96
0.44
-0.55
-3.21
3.5
0.11
0.25
-0.87
-0.14
0.34

> <PUBCHEM_SHAPE_SELFOVERLAP>
986.84

> <PUBCHEM_SHAPE_VOLUME>
254.8

> <PUBCHEM_COORDINATE_TYPE>
2
5
10

$$$$

