821449
  -OEChem-07051213102D

 38 40  0     0  0  0  0  0  0999 V2000
    5.5301    0.7500    0.0000 O   0  0  0  0  0  0  0  0  0  0  0  0
    7.3424   -2.0547    0.0000 O   0  0  0  0  0  0  0  0  0  0  0  0
    3.7702   -2.2847    0.0000 O   0  0  0  0  0  0  0  0  0  0  0  0
    5.5301   -3.2500    0.0000 O   0  0  0  0  0  0  0  0  0  0  0  0
    2.0000   -2.2742    0.0000 O   0  0  0  0  0  0  0  0  0  0  0  0
    6.3961   -0.7500    0.0000 C   0  0  0  0  0  0  0  0  0  0  0  0
    5.5301   -0.2500    0.0000 C   0  0  0  0  0  0  0  0  0  0  0  0
    4.6641   -0.7500    0.0000 C   0  0  0  0  0  0  0  0  0  0  0  0
    6.3961   -1.7500    0.0000 C   0  0  0  0  0  0  0  0  0  0  0  0
    4.6641   -1.7500    0.0000 C   0  0  0  0  0  0  0  0  0  0  0  0
    5.5301   -2.2500    0.0000 C   0  0  0  0  0  0  0  0  0  0  0  0
    7.3424   -0.4453    0.0000 C   0  0  0  0  0  0  0  0  0  0  0  0
    3.7702   -0.2153    0.0000 C   0  0  0  0  0  0  0  0  0  0  0  0
    7.9260   -1.2500    0.0000 C   0  0  0  0  0  0  0  0  0  0  0  0
    6.3961    1.2500    0.0000 C   0  0  0  0  0  0  0  0  0  0  0  0
    2.8641   -0.7292    0.0000 C   0  0  0  0  0  0  0  0  0  0  0  0
    2.8641   -1.7708    0.0000 C   0  0  0  0  0  0  0  0  0  0  0  0
    6.3961    2.2500    0.0000 C   0  0  0  0  0  0  0  0  0  0  0  0
    7.2622    2.7500    0.0000 C   0  0  0  0  0  0  0  0  0  0  0  0
    6.3961   -3.7500    0.0000 C   0  0  0  0  0  0  0  0  0  0  0  0
    7.2622    3.7500    0.0000 C   0  0  0  0  0  0  0  0  0  0  0  0
    8.1282    2.2500    0.0000 C   0  0  0  0  0  0  0  0  0  0  0  0
    7.5350    0.1441    0.0000 H   0  0  0  0  0  0  0  0  0  0  0  0
    3.7773    0.4046    0.0000 H   0  0  0  0  0  0  0  0  0  0  0  0
    8.5460   -1.2500    0.0000 H   0  0  0  0  0  0  0  0  0  0  0  0
    6.6082    0.6674    0.0000 H   0  0  0  0  0  0  0  0  0  0  0  0
    7.0067    1.3577    0.0000 H   0  0  0  0  0  0  0  0  0  0  0  0
    2.3284   -0.4171    0.0000 H   0  0  0  0  0  0  0  0  0  0  0  0
    5.8592    2.5600    0.0000 H   0  0  0  0  0  0  0  0  0  0  0  0
    6.0862   -4.2869    0.0000 H   0  0  0  0  0  0  0  0  0  0  0  0
    6.9331   -4.0600    0.0000 H   0  0  0  0  0  0  0  0  0  0  0  0
    6.7062   -3.2131    0.0000 H   0  0  0  0  0  0  0  0  0  0  0  0
    7.8182    1.7131    0.0000 H   0  0  0  0  0  0  0  0  0  0  0  0
    8.6651    1.9400    0.0000 H   0  0  0  0  0  0  0  0  0  0  0  0
    8.4382    2.7869    0.0000 H   0  0  0  0  0  0  0  0  0  0  0  0
    7.8822    3.7500    0.0000 H   0  0  0  0  0  0  0  0  0  0  0  0
    7.2622    4.3700    0.0000 H   0  0  0  0  0  0  0  0  0  0  0  0
    6.6422    3.7500    0.0000 H   0  0  0  0  0  0  0  0  0  0  0  0
  1  7  1  0  0  0  0
  1 15  1  0  0  0  0
  2  9  1  0  0  0  0
  2 14  1  0  0  0  0
  3 10  1  0  0  0  0
  3 17  1  0  0  0  0
  4 11  1  0  0  0  0
  4 20  1  0  0  0  0
  5 17  2  0  0  0  0
  6  7  2  0  0  0  0
  6  9  1  0  0  0  0
  6 12  1  0  0  0  0
  7  8  1  0  0  0  0
  8 10  2  0  0  0  0
  8 13  1  0  0  0  0
  9 11  2  0  0  0  0
 10 11  1  0  0  0  0
 12 14  2  0  0  0  0
 12 23  1  0  0  0  0
 13 16  2  0  0  0  0
 13 24  1  0  0  0  0
 14 25  1  0  0  0  0
 15 18  1  0  0  0  0
 15 26  1  0  0  0  0
 15 27  1  0  0  0  0
 16 17  1  0  0  0  0
 16 28  1  0  0  0  0
 18 19  2  0  0  0  0
 18 29  1  0  0  0  0
 19 21  1  0  0  0  0
 19 22  1  0  0  0  0
 20 30  1  0  0  0  0
 20 31  1  0  0  0  0
 20 32  1  0  0  0  0
 21 36  1  0  0  0  0
 21 37  1  0  0  0  0
 21 38  1  0  0  0  0
 22 33  1  0  0  0  0
 22 34  1  0  0  0  0
 22 35  1  0  0  0  0
M  END
> <PUBCHEM_COMPOUND_CID>
821449

> <PUBCHEM_COMPOUND_CANONICALIZED>
1

> <PUBCHEM_CACTVS_COMPLEXITY>
479

> <PUBCHEM_CACTVS_HBOND_ACCEPTOR>
5

> <PUBCHEM_CACTVS_HBOND_DONOR>
0

> <PUBCHEM_CACTVS_ROTATABLE_BOND>
4

> <PUBCHEM_CACTVS_SUBSKEYS>
AAADceB4OAAAAAAAAAAAAAAAAAAAASAAAAAwQAAAAAAAAEiB8AAAGgAAAAAADASgmAIyDsAABECIAqjSiAICCAAkIAAIiAFGiMgNJzaENR6CO2Kl4BUKqYfK7PzOIQADCAAIQABCAAYQABCAAAAAAAAAAA==

> <PUBCHEM_IUPAC_OPENEYE_NAME>
9-methoxy-4-(3-methylbut-2-enoxy)furo[3,2-g]chromen-7-one

> <PUBCHEM_IUPAC_CAS_NAME>
9-methoxy-4-(3-methylbut-2-enoxy)-7-furo[3,2-g][1]benzopyranone

> <PUBCHEM_IUPAC_NAME>
9-methoxy-4-(3-methylbut-2-enoxy)furo[3,2-g]chromen-7-one

> <PUBCHEM_IUPAC_SYSTEMATIC_NAME>
9-methoxy-4-(3-methylbut-2-enoxy)furo[3,2-g]chromen-7-one

> <PUBCHEM_IUPAC_TRADITIONAL_NAME>
9-methoxy-4-(3-methylbut-2-enoxy)furo[3,2-g]chromen-7-one

> <PUBCHEM_IUPAC_INCHI>
InChI=1S/C17H16O5/c1-10(2)6-8-20-14-11-4-5-13(18)22-16(11)17(19-3)15-12(14)7-9-21-15/h4-7,9H,8H2,1-3H3

> <PUBCHEM_IUPAC_INCHIKEY>
NNDOCYLWULORAM-UHFFFAOYSA-N

> <PUBCHEM_XLOGP3>
3.4

> <PUBCHEM_EXACT_MASS>
300.099774

> <PUBCHEM_MOLECULAR_FORMULA>
C17H16O5

> <PUBCHEM_MOLECULAR_WEIGHT>
300.30594

> <PUBCHEM_OPENEYE_CAN_SMILES>
CC(=CCOC1=C2C=COC2=C(C3=C1C=CC(=O)O3)OC)C

> <PUBCHEM_OPENEYE_ISO_SMILES>
CC(=CCOC1=C2C=COC2=C(C3=C1C=CC(=O)O3)OC)C

> <PUBCHEM_CACTVS_TPSA>
57.9

> <PUBCHEM_MONOISOTOPIC_WEIGHT>
300.099774

> <PUBCHEM_TOTAL_CHARGE>
0

> <PUBCHEM_HEAVY_ATOM_COUNT>
22

> <PUBCHEM_ATOM_DEF_STEREO_COUNT>
0

> <PUBCHEM_ATOM_UDEF_STEREO_COUNT>
0

> <PUBCHEM_BOND_DEF_STEREO_COUNT>
0

> <PUBCHEM_BOND_UDEF_STEREO_COUNT>
0

> <PUBCHEM_ISOTOPIC_ATOM_COUNT>
0

> <PUBCHEM_COMPONENT_COUNT>
1

> <PUBCHEM_CACTVS_TAUTO_COUNT>
1

> <PUBCHEM_COORDINATE_TYPE>
1
5
255

> <PUBCHEM_BONDANNOTATIONS>
10  11  8
12  14  8
13  16  8
16  17  8
2  14  8
2  9  8
3  10  8
3  17  8
6  12  8
6  7  8
6  9  8
7  8  8
8  10  8
8  13  8
9  11  8

$$$$

