46173947
  -OEChem-07051213102D

 22 22  0     1  0  0  0  0  0999 V2000
    4.2690    1.8450    0.0000 O   0  0  0  0  0  0  0  0  0  0  0  0
    2.5369    0.8450    0.0000 O   0  0  0  0  0  0  0  0  0  0  0  0
    2.5369   -1.1550    0.0000 O   0  0  0  0  0  0  0  0  0  0  0  0
    4.2690   -2.1550    0.0000 O   0  0  0  0  0  0  0  0  0  0  0  0
    6.0010    0.8450    0.0000 N   0  0  0  0  0  0  0  0  0  0  0  0
    4.2690    0.8450    0.0000 C   0  0  2  0  0  0  0  0  0  0  0  0
    5.1350    0.3450    0.0000 C   0  0  2  0  0  0  0  0  0  0  0  0
    3.4030    0.3450    0.0000 C   0  0  1  0  0  0  0  0  0  0  0  0
    3.4030   -0.6550    0.0000 C   0  0  2  0  0  0  0  0  0  0  0  0
    5.1350   -0.6550    0.0000 C   0  0  0  0  0  0  0  0  0  0  0  0
    4.2690   -1.1550    0.0000 C   0  0  0  0  0  0  0  0  0  0  0  0
    4.8059    1.1550    0.0000 H   0  0  0  0  0  0  0  0  0  0  0  0
    5.1350    0.9650    0.0000 H   0  0  0  0  0  0  0  0  0  0  0  0
    3.4030    0.9650    0.0000 H   0  0  0  0  0  0  0  0  0  0  0  0
    3.4030   -1.2750    0.0000 H   0  0  0  0  0  0  0  0  0  0  0  0
    5.3471   -1.2376    0.0000 H   0  0  0  0  0  0  0  0  0  0  0  0
    5.7456   -0.5473    0.0000 H   0  0  0  0  0  0  0  0  0  0  0  0
    6.5380    0.5350    0.0000 H   0  0  0  0  0  0  0  0  0  0  0  0
    6.0010    1.4650    0.0000 H   0  0  0  0  0  0  0  0  0  0  0  0
    3.7320    2.1550    0.0000 H   0  0  0  0  0  0  0  0  0  0  0  0
    2.0000    0.5350    0.0000 H   0  0  0  0  0  0  0  0  0  0  0  0
    2.5369   -1.7750    0.0000 H   0  0  0  0  0  0  0  0  0  0  0  0
  6  1  1  6  0  0  0
  1 20  1  0  0  0  0
  8  2  1  1  0  0  0
  2 21  1  0  0  0  0
  9  3  1  6  0  0  0
  3 22  1  0  0  0  0
  4 11  2  0  0  0  0
  7  5  1  1  0  0  0
  5 18  1  0  0  0  0
  5 19  1  0  0  0  0
  6  7  1  0  0  0  0
  6  8  1  0  0  0  0
  6 12  1  0  0  0  0
  7 10  1  0  0  0  0
  7 13  1  0  0  0  0
  8  9  1  0  0  0  0
  8 14  1  0  0  0  0
  9 11  1  0  0  0  0
  9 15  1  0  0  0  0
 10 11  1  0  0  0  0
 10 16  1  0  0  0  0
 10 17  1  0  0  0  0
M  END
> <PUBCHEM_COMPOUND_CID>
46173947

> <PUBCHEM_COMPOUND_CANONICALIZED>
1

> <PUBCHEM_CACTVS_COMPLEXITY>
172

> <PUBCHEM_CACTVS_HBOND_ACCEPTOR>
5

> <PUBCHEM_CACTVS_HBOND_DONOR>
4

> <PUBCHEM_CACTVS_ROTATABLE_BOND>
0

> <PUBCHEM_CACTVS_SUBSKEYS>
AAADccBiOAAAAAAAAAAAAAAAAAAAAAAAAAAwAAAAAAAAAAAAAAAAHgAQCAAACDzhgAYAAABAAgAIAIAQAAIAAAAAAAAAAIFAAAADEB4AgAAAQAAHMAABAAG6fQVQAAAAAAAAAAAAgAAUAACgAAAAAAAAAA==

> <PUBCHEM_IUPAC_OPENEYE_NAME>
(2R,3S,4R,5S)-5-amino-2,3,4-trihydroxy-cyclohexanone

> <PUBCHEM_IUPAC_CAS_NAME>
(2R,3S,4R,5S)-5-amino-2,3,4-trihydroxy-1-cyclohexanone

> <PUBCHEM_IUPAC_NAME>
(2R,3S,4R,5S)-5-amino-2,3,4-trihydroxycyclohexan-1-one

> <PUBCHEM_IUPAC_SYSTEMATIC_NAME>
(2R,3S,4R,5S)-5-azanyl-2,3,4-tris(oxidanyl)cyclohexan-1-one

> <PUBCHEM_IUPAC_TRADITIONAL_NAME>
(2R,3S,4R,5S)-5-amino-2,3,4-trihydroxy-cyclohexanone

> <PUBCHEM_IUPAC_INCHI>
InChI=1S/C6H11NO4/c7-2-1-3(8)5(10)6(11)4(2)9/h2,4-6,9-11H,1,7H2/t2-,4+,5-,6-/m0/s1

> <PUBCHEM_IUPAC_INCHIKEY>
FSUGCKMUTGKWIE-YGIVHSIPSA-N

> <PUBCHEM_XLOGP3_AA>
-3

> <PUBCHEM_EXACT_MASS>
161.068808

> <PUBCHEM_MOLECULAR_FORMULA>
C6H11NO4

> <PUBCHEM_MOLECULAR_WEIGHT>
161.15584

> <PUBCHEM_OPENEYE_CAN_SMILES>
C1C(C(C(C(C1=O)O)O)O)N

> <PUBCHEM_OPENEYE_ISO_SMILES>
C1[C@@H]([C@H]([C@@H]([C@H](C1=O)O)O)O)N

> <PUBCHEM_CACTVS_TPSA>
104

> <PUBCHEM_MONOISOTOPIC_WEIGHT>
161.068808

> <PUBCHEM_TOTAL_CHARGE>
0

> <PUBCHEM_HEAVY_ATOM_COUNT>
11

> <PUBCHEM_ATOM_DEF_STEREO_COUNT>
4

> <PUBCHEM_ATOM_UDEF_STEREO_COUNT>
0

> <PUBCHEM_BOND_DEF_STEREO_COUNT>
0

> <PUBCHEM_BOND_UDEF_STEREO_COUNT>
0

> <PUBCHEM_ISOTOPIC_ATOM_COUNT>
0

> <PUBCHEM_COMPONENT_COUNT>
1

> <PUBCHEM_CACTVS_TAUTO_COUNT>
11

> <PUBCHEM_COORDINATE_TYPE>
1
5
255

> <PUBCHEM_BONDANNOTATIONS>
6  1  6
8  2  5
9  3  6
7  5  5

$$$$

