439826
  -OEChem-07051212473D

 31 30  0     1  0  0  0  0  0999 V2000
    0.7299   -0.2602    1.5946 O   0  0  0  0  0  0  0  0  0  0  0  0
    0.9738    2.3593    0.4617 O   0  0  0  0  0  0  0  0  0  0  0  0
    2.6500   -0.0223   -1.5285 O   0  0  0  0  0  0  0  0  0  0  0  0
   -1.7741    2.6254   -0.2018 O   0  0  0  0  0  0  0  0  0  0  0  0
    4.4042   -1.5623   -0.0278 O   0  0  0  0  0  0  0  0  0  0  0  0
   -2.7194   -0.5143    0.1957 N   0  0  0  0  0  0  0  0  0  0  0  0
    0.9102   -0.0493    0.1906 C   0  0  1  0  0  0  0  0  0  0  0  0
    0.2623    1.3024   -0.1815 C   0  0  1  0  0  0  0  0  0  0  0  0
    2.4131   -0.1951   -0.1335 C   0  0  1  0  0  0  0  0  0  0  0  0
   -1.2149    1.3938    0.2280 C   0  0  2  0  0  0  0  0  0  0  0  0
    3.0277   -1.5200    0.3099 C   0  0  0  0  0  0  0  0  0  0  0  0
   -2.0237    0.3342   -0.4785 C   0  0  0  0  0  0  0  0  0  0  0  0
   -3.4340   -1.4634   -0.6530 C   0  0  0  0  0  0  0  0  0  0  0  0
   -4.2051   -2.4283    0.2241 C   0  0  0  0  0  0  0  0  0  0  0  0
    0.3722   -0.8509   -0.3289 H   0  0  0  0  0  0  0  0  0  0  0  0
    0.3507    1.4726   -1.2618 H   0  0  0  0  0  0  0  0  0  0  0  0
    2.9727    0.6006    0.3719 H   0  0  0  0  0  0  0  0  0  0  0  0
   -1.3354    1.3302    1.3145 H   0  0  0  0  0  0  0  0  0  0  0  0
    2.9301   -1.6747    1.3886 H   0  0  0  0  0  0  0  0  0  0  0  0
    2.5447   -2.3574   -0.2039 H   0  0  0  0  0  0  0  0  0  0  0  0
   -1.9886    0.3270   -1.5835 H   0  0  0  0  0  0  0  0  0  0  0  0
    1.1935    0.4568    2.0605 H   0  0  0  0  0  0  0  0  0  0  0  0
    1.8375    2.4442    0.0242 H   0  0  0  0  0  0  0  0  0  0  0  0
    2.1531   -0.7129   -1.9996 H   0  0  0  0  0  0  0  0  0  0  0  0
   -2.6713    2.6876    0.1687 H   0  0  0  0  0  0  0  0  0  0  0  0
    4.8427   -0.8278    0.4347 H   0  0  0  0  0  0  0  0  0  0  0  0
   -4.1359   -0.9380   -1.3117 H   0  0  0  0  0  0  0  0  0  0  0  0
   -2.7308   -2.0293   -1.2760 H   0  0  0  0  0  0  0  0  0  0  0  0
   -4.7511   -3.1521   -0.3886 H   0  0  0  0  0  0  0  0  0  0  0  0
   -3.5299   -2.9791    0.8873 H   0  0  0  0  0  0  0  0  0  0  0  0
   -4.9269   -1.8952    0.8517 H   0  0  0  0  0  0  0  0  0  0  0  0
  1  7  1  0  0  0  0
  1 22  1  0  0  0  0
  2  8  1  0  0  0  0
  2 23  1  0  0  0  0
  3  9  1  0  0  0  0
  3 24  1  0  0  0  0
  4 10  1  0  0  0  0
  4 25  1  0  0  0  0
  5 11  1  0  0  0  0
  5 26  1  0  0  0  0
  6 12  2  0  0  0  0
  6 13  1  0  0  0  0
  7  8  1  0  0  0  0
  7  9  1  0  0  0  0
  7 15  1  0  0  0  0
  8 10  1  0  0  0  0
  8 16  1  0  0  0  0
  9 11  1  0  0  0  0
  9 17  1  0  0  0  0
 10 12  1  0  0  0  0
 10 18  1  0  0  0  0
 11 19  1  0  0  0  0
 11 20  1  0  0  0  0
 12 21  1  0  0  0  0
 13 14  1  0  0  0  0
 13 27  1  0  0  0  0
 13 28  1  0  0  0  0
 14 29  1  0  0  0  0
 14 30  1  0  0  0  0
 14 31  1  0  0  0  0
M  END
> <PUBCHEM_COMPOUND_CID>
439826

> <PUBCHEM_CONFORMER_RMSD>
0.6

> <PUBCHEM_CONFORMER_DIVERSEORDER>
1
30
81
64
31
73
3
50
34
54
55
44
42
74
88
16
38
36
12
90
56
72
2
13
49
21
91
67
15
17
41
85
57
71
11
62
10
86
65
83
32
4
89
33
29
19
37
92
14
25
18
39
66
79
78
84
69
27
61
7
6
28
53
47
40
51
8
82
46
76
70
68
5
23
58
22
35
75
45
52
87
48
63
26
59
80
9
43
77
60
20
24

> <PUBCHEM_MMFF94_PARTIAL_CHARGES>
19
1 -0.68
10 0.34
11 0.28
12 0.33
13 0.25
2 -0.68
21 0.06
22 0.4
23 0.4
24 0.4
25 0.4
26 0.4
3 -0.68
4 -0.68
5 -0.68
6 -0.7
7 0.28
8 0.28
9 0.28

> <PUBCHEM_EFFECTIVE_ROTOR_COUNT>
6

> <PUBCHEM_PHARMACOPHORE_FEATURES>
11
1 1 acceptor
1 1 donor
1 2 acceptor
1 2 donor
1 3 acceptor
1 3 donor
1 4 acceptor
1 4 donor
1 5 acceptor
1 5 donor
1 6 acceptor

> <PUBCHEM_HEAVY_ATOM_COUNT>
14

> <PUBCHEM_ATOM_DEF_STEREO_COUNT>
4

> <PUBCHEM_ATOM_UDEF_STEREO_COUNT>
0

> <PUBCHEM_BOND_DEF_STEREO_COUNT>
0

> <PUBCHEM_BOND_UDEF_STEREO_COUNT>
0

> <PUBCHEM_ISOTOPIC_ATOM_COUNT>
0

> <PUBCHEM_COMPONENT_COUNT>
1

> <PUBCHEM_CACTVS_TAUTO_COUNT>
1

> <PUBCHEM_CONFORMER_ID>
0006B61200000001

> <PUBCHEM_MMFF94_ENERGY>
25.5474

> <PUBCHEM_FEATURE_SELFOVERLAP>
55.839

> <PUBCHEM_SHAPE_FINGERPRINT>
11769659 78 18410576188474961822
11806522 49 18342179929919579584
13296908 3 18267030466530084823
13922767 16 9149804259702271349
14252887 29 18194405481378989019
19766037 51 18271803463491275499
20281475 54 18411413990924258405
20645477 70 18051992333298626551
20671657 53 18338796715508509999
20871998 22 18337395916214774561
20871999 31 18342744060777985047
21061003 4 16443638985833746426
21713013 43 17489316226791835743
22213442 358 18408327700371329024
23382010 3 17059770018619374818
23402539 116 18129664244134735822
23557571 272 18042688484625581128
23559900 14 17974016338925341258
4416823 128 18410576154526933375
449060 23 18413109467813649515
5493415 88 18408329886240735304
568465 68 17095529521215422302
5902787 121 18335424590428796032
94968 8 18199187278828486635

> <PUBCHEM_SHAPE_MULTIPOLES>
253.79
6.96
2.59
0.95
1.07
0.79
0
-6.9
0.72
1.2
-0.17
-0.34
-0.08
0.03

> <PUBCHEM_SHAPE_SELFOVERLAP>
477.629

> <PUBCHEM_SHAPE_VOLUME>
157.7

> <PUBCHEM_COORDINATE_TYPE>
2
5
10

$$$$

