12116
  -OEChem-06261206333D

 30 31  0     0  0  0  0  0  0999 V2000
    0.0071   -0.0728   -0.0929 S   0  0  0  0  0  0  0  0  0  0  0  0
   -0.0021    1.3407   -0.5842 O   0  0  0  0  0  0  0  0  0  0  0  0
   -1.3433   -0.2258    1.1198 C   0  0  0  0  0  0  0  0  0  0  0  0
    1.3405   -0.2257    1.1182 C   0  0  0  0  0  0  0  0  0  0  0  0
   -2.6851   -0.1442    0.4739 C   0  0  0  0  0  0  0  0  0  0  0  0
    2.6916   -0.1438    0.4691 C   0  0  0  0  0  0  0  0  0  0  0  0
   -3.3126   -1.3047    0.0206 C   0  0  0  0  0  0  0  0  0  0  0  0
    3.3106    1.0923    0.3230 C   0  0  0  0  0  0  0  0  0  0  0  0
   -3.3130    1.0923    0.3235 C   0  0  0  0  0  0  0  0  0  0  0  0
    3.3109   -1.3048    0.0208 C   0  0  0  0  0  0  0  0  0  0  0  0
   -4.5677   -1.2285   -0.5834 C   0  0  0  0  0  0  0  0  0  0  0  0
    4.5661    1.1686   -0.2800 C   0  0  0  0  0  0  0  0  0  0  0  0
   -4.5681    1.1684   -0.2803 C   0  0  0  0  0  0  0  0  0  0  0  0
    4.5665   -1.2284   -0.5821 C   0  0  0  0  0  0  0  0  0  0  0  0
   -5.1955    0.0079   -0.7337 C   0  0  0  0  0  0  0  0  0  0  0  0
    5.1941    0.0084   -0.7324 C   0  0  0  0  0  0  0  0  0  0  0  0
   -1.2294    0.5635    1.8718 H   0  0  0  0  0  0  0  0  0  0  0  0
   -1.2293   -1.1839    1.6395 H   0  0  0  0  0  0  0  0  0  0  0  0
    1.2311   -1.1837    1.6390 H   0  0  0  0  0  0  0  0  0  0  0  0
    1.2314    0.5632    1.8714 H   0  0  0  0  0  0  0  0  0  0  0  0
   -2.8338   -2.2742    0.1304 H   0  0  0  0  0  0  0  0  0  0  0  0
    2.8307    2.0028    0.6710 H   0  0  0  0  0  0  0  0  0  0  0  0
   -2.8348    2.0041    0.6717 H   0  0  0  0  0  0  0  0  0  0  0  0
    2.8311   -2.2732    0.1314 H   0  0  0  0  0  0  0  0  0  0  0  0
   -5.0561   -2.1319   -0.9368 H   0  0  0  0  0  0  0  0  0  0  0  0
    5.0546    2.1315   -0.3973 H   0  0  0  0  0  0  0  0  0  0  0  0
   -5.0569    2.1311   -0.3978 H   0  0  0  0  0  0  0  0  0  0  0  0
    5.0554   -2.1317   -0.9350 H   0  0  0  0  0  0  0  0  0  0  0  0
   -6.1726    0.0671   -1.2040 H   0  0  0  0  0  0  0  0  0  0  0  0
    6.1716    0.0677   -1.2021 H   0  0  0  0  0  0  0  0  0  0  0  0
  1  2  2  0  0  0  0
  1  3  1  0  0  0  0
  1  4  1  0  0  0  0
  3  5  1  0  0  0  0
  3 17  1  0  0  0  0
  3 18  1  0  0  0  0
  4  6  1  0  0  0  0
  4 19  1  0  0  0  0
  4 20  1  0  0  0  0
  5  7  2  0  0  0  0
  5  9  1  0  0  0  0
  6  8  2  0  0  0  0
  6 10  1  0  0  0  0
  7 11  1  0  0  0  0
  7 21  1  0  0  0  0
  8 12  1  0  0  0  0
  8 22  1  0  0  0  0
  9 13  2  0  0  0  0
  9 23  1  0  0  0  0
 10 14  2  0  0  0  0
 10 24  1  0  0  0  0
 11 15  2  0  0  0  0
 11 25  1  0  0  0  0
 12 16  2  0  0  0  0
 12 26  1  0  0  0  0
 13 15  1  0  0  0  0
 13 27  1  0  0  0  0
 14 16  1  0  0  0  0
 14 28  1  0  0  0  0
 15 29  1  0  0  0  0
 16 30  1  0  0  0  0
M  END
> <PUBCHEM_COMPOUND_CID>
12116

> <PUBCHEM_CONFORMER_RMSD>
0.6

> <PUBCHEM_CONFORMER_DIVERSEORDER>
1
11
7
14
13
4
2
6
3
5
12
9
10
8

> <PUBCHEM_MMFF94_PARTIAL_CHARGES>
26
1 0.11
10 -0.15
11 -0.15
12 -0.15
13 -0.15
14 -0.15
15 -0.15
16 -0.15
2 -0.5
21 0.15
22 0.15
23 0.15
24 0.15
25 0.15
26 0.15
27 0.15
28 0.15
29 0.15
3 0.34
30 0.15
4 0.34
5 -0.14
6 -0.14
7 -0.15
8 -0.15
9 -0.15

> <PUBCHEM_EFFECTIVE_ROTOR_COUNT>
4

> <PUBCHEM_PHARMACOPHORE_FEATURES>
3
1 2 acceptor
6 5 7 9 11 13 15 rings
6 6 8 10 12 14 16 rings

> <PUBCHEM_HEAVY_ATOM_COUNT>
16

> <PUBCHEM_ATOM_DEF_STEREO_COUNT>
0

> <PUBCHEM_ATOM_UDEF_STEREO_COUNT>
0

> <PUBCHEM_BOND_DEF_STEREO_COUNT>
0

> <PUBCHEM_BOND_UDEF_STEREO_COUNT>
0

> <PUBCHEM_ISOTOPIC_ATOM_COUNT>
0

> <PUBCHEM_COMPONENT_COUNT>
1

> <PUBCHEM_CACTVS_TAUTO_COUNT>
1

> <PUBCHEM_CONFORMER_ID>
00002F5400000001

> <PUBCHEM_MMFF94_ENERGY>
34.1277

> <PUBCHEM_FEATURE_SELFOVERLAP>
15.223

> <PUBCHEM_SHAPE_FINGERPRINT>
10354089 29 11024105447978419718
10680689 15 18341889689041231707
11543360 7 18408041788397898858
12107183 9 17615121521974605955
12596602 18 9151172051824236462
13167823 11 18259987071735018551
13668630 136 16732979812552065567
14123238 8 12607401091999813499
14251718 22 18334576810960309758
14528608 73 18341330016005419316
14573314 32 18409167718390669829
15188451 53 6627455307962226533
15375358 24 17846776295686294362
17349148 13 15068338990866285373
17834072 33 18335702723788964620
17834076 25 16773796995684501082
17844677 252 18186515497154057073
17862501 102 6771862974346127523
17870717 6 18113893875589828351
18186145 218 16845570898574274696
18222031 100 15285362812101854057
18785283 64 8862067547123950998
200 152 17822010921298746841
20369508 70 17022908943444356450
20645477 56 13902189274798183107
20645477 70 18334856164730065758
22289505 5 18413673526232948540
22485316 2 18410012143526549498
22646028 1 15357697491554336355
23402539 116 18413392046343656788
23402655 69 18411696595609204322
23559900 14 18114190704547101817
2871803 45 18272650177744243954
2916195 48 11023820648069378886
29717793 49 17676481778860974836
300161 21 18273220797881404544
3004659 81 18337389444042288582
34797466 226 17968088673290504700
351380 3 15429753981812049519
42 15 8142088662715943938
4214541 1 18335420192440398065
465052 167 16443062759872610686
4990 188 18335416885494876182
542803 24 17632577153907875071
633830 44 17917992775987099978
77779 3 18408040714724600888
960060 61 18342450452903817566
9971528 1 18060137635363673884

> <PUBCHEM_SHAPE_MULTIPOLES>
327.25
13.15
1.43
0.95
0.02
0.02
0.11
0.41
-3.7
0
-0.15
0
0.03
0

> <PUBCHEM_SHAPE_SELFOVERLAP>
675.574

> <PUBCHEM_SHAPE_VOLUME>
187.2

> <PUBCHEM_COORDINATE_TYPE>
2
5
10

$$$$

