4206
  -OEChem-06251223572D

 62 62  0     1  0  0  0  0  0999 V2000
   11.9356   -2.1048    0.0000 O   0  0  0  0  0  0  0  0  0  0  0  0
    9.0877   -4.1739    0.0000 O   0  0  0  0  0  0  0  0  0  0  0  0
   11.4075    2.0400    0.0000 O   0  0  0  0  0  0  0  0  0  0  0  0
    2.5896   -3.8543    0.0000 O   0  0  0  0  0  0  0  0  0  0  0  0
    3.1249   -2.2070    0.0000 O   0  0  0  0  0  0  0  0  0  0  0  0
    9.3665   -2.4139    0.0000 C   0  0  3  0  0  0  0  0  0  0  0  0
   10.1755   -1.8261    0.0000 C   0  0  3  0  0  0  0  0  0  0  0  0
   10.9845   -2.4139    0.0000 C   0  0  3  0  0  0  0  0  0  0  0  0
   10.6755   -3.3649    0.0000 C   0  0  0  0  0  0  0  0  0  0  0  0
    8.4154   -2.1048    0.0000 C   0  0  0  0  0  0  0  0  0  0  0  0
    9.6755   -3.3649    0.0000 C   0  0  0  0  0  0  0  0  0  0  0  0
   10.1755   -0.8261    0.0000 C   0  0  0  0  0  0  0  0  0  0  0  0
    7.6723   -2.7740    0.0000 C   0  0  0  0  0  0  0  0  0  0  0  0
    6.7212   -2.4650    0.0000 C   0  0  0  0  0  0  0  0  0  0  0  0
   11.0415   -0.3261    0.0000 C   0  0  0  0  0  0  0  0  0  0  0  0
   11.9075    1.1739    0.0000 C   0  0  3  0  0  0  0  0  0  0  0  0
   11.0415    0.6739    0.0000 C   0  0  0  0  0  0  0  0  0  0  0  0
    5.9781   -3.1341    0.0000 C   0  0  0  0  0  0  0  0  0  0  0  0
   12.7736    1.6739    0.0000 C   0  0  0  0  0  0  0  0  0  0  0  0
   12.4075    0.3079    0.0000 C   0  0  0  0  0  0  0  0  0  0  0  0
   12.7736    2.6739    0.0000 C   0  0  0  0  0  0  0  0  0  0  0  0
    5.0270   -2.8251    0.0000 C   0  0  0  0  0  0  0  0  0  0  0  0
   13.6396    3.1739    0.0000 C   0  0  0  0  0  0  0  0  0  0  0  0
    4.2839   -3.4942    0.0000 C   0  0  0  0  0  0  0  0  0  0  0  0
   13.6396    4.1739    0.0000 C   0  0  0  0  0  0  0  0  0  0  0  0
    3.3328   -3.1852    0.0000 C   0  0  0  0  0  0  0  0  0  0  0  0
    9.2335   -1.5743    0.0000 H   0  0  0  0  0  0  0  0  0  0  0  0
    9.4181   -1.4402    0.0000 H   0  0  0  0  0  0  0  0  0  0  0  0
   11.1175   -1.5743    0.0000 H   0  0  0  0  0  0  0  0  0  0  0  0
   10.6107   -3.9815    0.0000 H   0  0  0  0  0  0  0  0  0  0  0  0
   11.2819   -3.4938    0.0000 H   0  0  0  0  0  0  0  0  0  0  0  0
    8.7065   -1.5574    0.0000 H   0  0  0  0  0  0  0  0  0  0  0  0
    7.9268   -1.7231    0.0000 H   0  0  0  0  0  0  0  0  0  0  0  0
    9.6385   -0.5161    0.0000 H   0  0  0  0  0  0  0  0  0  0  0  0
    7.3812   -3.3214    0.0000 H   0  0  0  0  0  0  0  0  0  0  0  0
    8.1608   -3.1557    0.0000 H   0  0  0  0  0  0  0  0  0  0  0  0
    7.0123   -1.9175    0.0000 H   0  0  0  0  0  0  0  0  0  0  0  0
    6.2326   -2.0832    0.0000 H   0  0  0  0  0  0  0  0  0  0  0  0
   11.5784   -0.6361    0.0000 H   0  0  0  0  0  0  0  0  0  0  0  0
   10.8295    1.2565    0.0000 H   0  0  0  0  0  0  0  0  0  0  0  0
   10.4309    0.5663    0.0000 H   0  0  0  0  0  0  0  0  0  0  0  0
   12.3963   -2.5197    0.0000 H   0  0  0  0  0  0  0  0  0  0  0  0
    5.6870   -3.6815    0.0000 H   0  0  0  0  0  0  0  0  0  0  0  0
    6.4666   -3.5158    0.0000 H   0  0  0  0  0  0  0  0  0  0  0  0
   12.9856    1.0913    0.0000 H   0  0  0  0  0  0  0  0  0  0  0  0
   13.3841    1.7816    0.0000 H   0  0  0  0  0  0  0  0  0  0  0  0
   11.8706   -0.0021    0.0000 H   0  0  0  0  0  0  0  0  0  0  0  0
   12.7175   -0.2290    0.0000 H   0  0  0  0  0  0  0  0  0  0  0  0
   12.9445    0.6179    0.0000 H   0  0  0  0  0  0  0  0  0  0  0  0
   12.5615    3.2565    0.0000 H   0  0  0  0  0  0  0  0  0  0  0  0
   12.1630    2.5663    0.0000 H   0  0  0  0  0  0  0  0  0  0  0  0
    5.3181   -2.2776    0.0000 H   0  0  0  0  0  0  0  0  0  0  0  0
    4.5384   -2.4434    0.0000 H   0  0  0  0  0  0  0  0  0  0  0  0
   10.7875    2.0400    0.0000 H   0  0  0  0  0  0  0  0  0  0  0  0
   13.8516    2.5913    0.0000 H   0  0  0  0  0  0  0  0  0  0  0  0
   14.2502    3.2816    0.0000 H   0  0  0  0  0  0  0  0  0  0  0  0
    3.9928   -4.0416    0.0000 H   0  0  0  0  0  0  0  0  0  0  0  0
    4.7724   -3.8759    0.0000 H   0  0  0  0  0  0  0  0  0  0  0  0
   14.2596    4.1739    0.0000 H   0  0  0  0  0  0  0  0  0  0  0  0
   13.6396    4.7939    0.0000 H   0  0  0  0  0  0  0  0  0  0  0  0
   13.0196    4.1739    0.0000 H   0  0  0  0  0  0  0  0  0  0  0  0
    2.0000   -3.6627    0.0000 H   0  0  0  0  0  0  0  0  0  0  0  0
  1  8  1  0  0  0  0
  1 42  1  0  0  0  0
  2 11  2  0  0  0  0
  3 16  1  0  0  0  0
  3 54  1  0  0  0  0
  4 26  1  0  0  0  0
  4 62  1  0  0  0  0
  5 26  2  0  0  0  0
  6  7  1  0  0  0  0
  6 10  1  0  0  0  0
  6 11  1  0  0  0  0
  6 27  1  0  0  0  0
  7  8  1  0  0  0  0
  7 12  1  0  0  0  0
  7 28  1  0  0  0  0
  8  9  1  0  0  0  0
  8 29  1  0  0  0  0
  9 11  1  0  0  0  0
  9 30  1  0  0  0  0
  9 31  1  0  0  0  0
 10 13  1  0  0  0  0
 10 32  1  0  0  0  0
 10 33  1  0  0  0  0
 12 15  2  3  0  0  0
 12 34  1  0  0  0  0
 13 14  1  0  0  0  0
 13 35  1  0  0  0  0
 13 36  1  0  0  0  0
 14 18  1  0  0  0  0
 14 37  1  0  0  0  0
 14 38  1  0  0  0  0
 15 17  1  0  0  0  0
 15 39  1  0  0  0  0
 16 17  1  0  0  0  0
 16 19  1  0  0  0  0
 16 20  1  0  0  0  0
 17 40  1  0  0  0  0
 17 41  1  0  0  0  0
 18 22  1  0  0  0  0
 18 43  1  0  0  0  0
 18 44  1  0  0  0  0
 19 21  1  0  0  0  0
 19 45  1  0  0  0  0
 19 46  1  0  0  0  0
 20 47  1  0  0  0  0
 20 48  1  0  0  0  0
 20 49  1  0  0  0  0
 21 23  1  0  0  0  0
 21 50  1  0  0  0  0
 21 51  1  0  0  0  0
 22 24  1  0  0  0  0
 22 52  1  0  0  0  0
 22 53  1  0  0  0  0
 23 25  1  0  0  0  0
 23 55  1  0  0  0  0
 23 56  1  0  0  0  0
 24 26  1  0  0  0  0
 24 57  1  0  0  0  0
 24 58  1  0  0  0  0
 25 59  1  0  0  0  0
 25 60  1  0  0  0  0
 25 61  1  0  0  0  0
M  END
> <PUBCHEM_COMPOUND_CID>
4206

> <PUBCHEM_COMPOUND_CANONICALIZED>
1

> <PUBCHEM_CACTVS_COMPLEXITY>
473

> <PUBCHEM_CACTVS_HBOND_ACCEPTOR>
5

> <PUBCHEM_CACTVS_HBOND_DONOR>
3

> <PUBCHEM_CACTVS_ROTATABLE_BOND>
13

> <PUBCHEM_CACTVS_SUBSKEYS>
AAADcfB4OAAAAAAAAAAAAAAAAAAAAYAAAAAAAAAAAAAAAAAAAAAAGgAACAAADVSggAICCAAAAgCIAKDSCAAAAAAgAAAICAEAAAgAEBYAAQAAQAAE4AAIAAOKyOCOgAAAAAAAAAAAAAAAAAAAAIAADAAAAA==

> <PUBCHEM_IUPAC_OPENEYE_NAME>
7-[3-hydroxy-2-(4-hydroxy-4-methyl-oct-1-enyl)-5-oxo-cyclopentyl]heptanoic acid

> <PUBCHEM_IUPAC_CAS_NAME>
7-[3-hydroxy-2-(4-hydroxy-4-methyloct-1-enyl)-5-oxocyclopentyl]heptanoic acid

> <PUBCHEM_IUPAC_NAME>
7-[3-hydroxy-2-(4-hydroxy-4-methyloct-1-enyl)-5-oxocyclopentyl]heptanoic acid

> <PUBCHEM_IUPAC_SYSTEMATIC_NAME>
7-[2-(4-methyl-4-oxidanyl-oct-1-enyl)-3-oxidanyl-5-oxidanylidene-cyclopentyl]heptanoic acid

> <PUBCHEM_IUPAC_TRADITIONAL_NAME>
7-[3-hydroxy-2-(4-hydroxy-4-methyl-oct-1-enyl)-5-keto-cyclopentyl]enanthic acid

> <PUBCHEM_IUPAC_INCHI>
InChI=1S/C21H36O5/c1-3-4-13-21(2,26)14-9-11-17-16(18(22)15-19(17)23)10-7-5-6-8-12-20(24)25/h9,11,16-17,19,23,26H,3-8,10,12-15H2,1-2H3,(H,24,25)

> <PUBCHEM_IUPAC_INCHIKEY>
CNWGPXZGIIOYDL-UHFFFAOYSA-N

> <PUBCHEM_XLOGP3>
3.3

> <PUBCHEM_EXACT_MASS>
368.256274

> <PUBCHEM_MOLECULAR_FORMULA>
C21H36O5

> <PUBCHEM_MOLECULAR_WEIGHT>
368.50754

> <PUBCHEM_OPENEYE_CAN_SMILES>
CCCCC(C)(CC=CC1C(CC(=O)C1CCCCCCC(=O)O)O)O

> <PUBCHEM_OPENEYE_ISO_SMILES>
CCCCC(C)(CC=CC1C(CC(=O)C1CCCCCCC(=O)O)O)O

> <PUBCHEM_CACTVS_TPSA>
94.8

> <PUBCHEM_MONOISOTOPIC_WEIGHT>
368.256274

> <PUBCHEM_TOTAL_CHARGE>
0

> <PUBCHEM_HEAVY_ATOM_COUNT>
26

> <PUBCHEM_ATOM_DEF_STEREO_COUNT>
0

> <PUBCHEM_ATOM_UDEF_STEREO_COUNT>
4

> <PUBCHEM_BOND_DEF_STEREO_COUNT>
0

> <PUBCHEM_BOND_UDEF_STEREO_COUNT>
1

> <PUBCHEM_ISOTOPIC_ATOM_COUNT>
0

> <PUBCHEM_COMPONENT_COUNT>
1

> <PUBCHEM_CACTVS_TAUTO_COUNT>
3

> <PUBCHEM_COORDINATE_TYPE>
1
5
255

> <PUBCHEM_BONDANNOTATIONS>
12  15  1
16  3  3
6  27  3
7  28  3
8  29  3

$$$$

