3971
  -OEChem-06251223473D

 41 44  0     0  0  0  0  0  0999 V2000
   -0.2591    0.2253    0.1029 O   0  0  0  0  0  0  0  0  0  0  0  0
   -0.5850    4.2820    0.0555 O   0  0  0  0  0  0  0  0  0  0  0  0
   -2.5608   -0.0077    0.2706 N   0  0  0  0  0  0  0  0  0  0  0  0
   -4.5721   -1.9849   -0.1873 N   0  0  0  0  0  0  0  0  0  0  0  0
   -2.4498   -1.3214    0.9062 C   0  0  0  0  0  0  0  0  0  0  0  0
   -3.9224    0.4036   -0.0744 C   0  0  0  0  0  0  0  0  0  0  0  0
   -3.1824   -2.3716    0.0719 C   0  0  0  0  0  0  0  0  0  0  0  0
   -4.6137   -0.6947   -0.8815 C   0  0  0  0  0  0  0  0  0  0  0  0
   -1.5004    0.8465    0.1809 C   0  0  0  0  0  0  0  0  0  0  0  0
    0.8687    1.0002    0.0095 C   0  0  0  0  0  0  0  0  0  0  0  0
   -1.6509    2.1815    0.1694 C   0  0  0  0  0  0  0  0  0  0  0  0
    0.8314    2.3924   -0.0114 C   0  0  0  0  0  0  0  0  0  0  0  0
    2.0933    0.3357   -0.0664 C   0  0  0  0  0  0  0  0  0  0  0  0
   -0.4728    3.0642    0.0701 C   0  0  0  0  0  0  0  0  0  0  0  0
    2.0129    3.1312   -0.1082 C   0  0  0  0  0  0  0  0  0  0  0  0
    2.1693   -1.1124   -0.0464 C   0  0  0  0  0  0  0  0  0  0  0  0
    3.2763    1.0691   -0.1630 C   0  0  0  0  0  0  0  0  0  0  0  0
    3.2359    2.4639   -0.1839 C   0  0  0  0  0  0  0  0  0  0  0  0
    2.2910   -1.7843    1.1682 C   0  0  0  0  0  0  0  0  0  0  0  0
    2.1198   -1.8270   -1.2415 C   0  0  0  0  0  0  0  0  0  0  0  0
    2.3638   -3.1771    1.1877 C   0  0  0  0  0  0  0  0  0  0  0  0
    2.1925   -3.2199   -1.2218 C   0  0  0  0  0  0  0  0  0  0  0  0
    2.3145   -3.8948   -0.0071 C   0  0  0  0  0  0  0  0  0  0  0  0
   -2.8882   -1.2667    1.9109 H   0  0  0  0  0  0  0  0  0  0  0  0
   -1.4098   -1.6418    1.0353 H   0  0  0  0  0  0  0  0  0  0  0  0
   -3.9480    1.3084   -0.6919 H   0  0  0  0  0  0  0  0  0  0  0  0
   -4.4826    0.6146    0.8451 H   0  0  0  0  0  0  0  0  0  0  0  0
   -2.6579   -2.5310   -0.8788 H   0  0  0  0  0  0  0  0  0  0  0  0
   -3.1743   -3.3271    0.6075 H   0  0  0  0  0  0  0  0  0  0  0  0
   -5.6597   -0.4156   -1.0490 H   0  0  0  0  0  0  0  0  0  0  0  0
   -4.1444   -0.7909   -1.8689 H   0  0  0  0  0  0  0  0  0  0  0  0
   -5.0166   -2.6949   -0.7686 H   0  0  0  0  0  0  0  0  0  0  0  0
   -2.6080    2.6822    0.2563 H   0  0  0  0  0  0  0  0  0  0  0  0
    2.0004    4.2172   -0.1256 H   0  0  0  0  0  0  0  0  0  0  0  0
    4.2411    0.5704   -0.2230 H   0  0  0  0  0  0  0  0  0  0  0  0
    4.1590    3.0315   -0.2592 H   0  0  0  0  0  0  0  0  0  0  0  0
    2.3297   -1.2397    2.1085 H   0  0  0  0  0  0  0  0  0  0  0  0
    2.0239   -1.3159   -2.1964 H   0  0  0  0  0  0  0  0  0  0  0  0
    2.4583   -3.7028    2.1334 H   0  0  0  0  0  0  0  0  0  0  0  0
    2.1537   -3.7790   -2.1520 H   0  0  0  0  0  0  0  0  0  0  0  0
    2.3707   -4.9793    0.0082 H   0  0  0  0  0  0  0  0  0  0  0  0
  1  9  1  0  0  0  0
  1 10  1  0  0  0  0
  2 14  2  0  0  0  0
  3  5  1  0  0  0  0
  3  6  1  0  0  0  0
  3  9  1  0  0  0  0
  4  7  1  0  0  0  0
  4  8  1  0  0  0  0
  4 32  1  0  0  0  0
  5  7  1  0  0  0  0
  5 24  1  0  0  0  0
  5 25  1  0  0  0  0
  6  8  1  0  0  0  0
  6 26  1  0  0  0  0
  6 27  1  0  0  0  0
  7 28  1  0  0  0  0
  7 29  1  0  0  0  0
  8 30  1  0  0  0  0
  8 31  1  0  0  0  0
  9 11  2  0  0  0  0
 10 12  2  0  0  0  0
 10 13  1  0  0  0  0
 11 14  1  0  0  0  0
 11 33  1  0  0  0  0
 12 14  1  0  0  0  0
 12 15  1  0  0  0  0
 13 16  1  0  0  0  0
 13 17  2  0  0  0  0
 15 18  2  0  0  0  0
 15 34  1  0  0  0  0
 16 19  2  0  0  0  0
 16 20  1  0  0  0  0
 17 18  1  0  0  0  0
 17 35  1  0  0  0  0
 18 36  1  0  0  0  0
 19 21  1  0  0  0  0
 19 37  1  0  0  0  0
 20 22  2  0  0  0  0
 20 38  1  0  0  0  0
 21 23  2  0  0  0  0
 21 39  1  0  0  0  0
 22 23  1  0  0  0  0
 22 40  1  0  0  0  0
 23 41  1  0  0  0  0
M  END
> <PUBCHEM_COMPOUND_CID>
3971

> <PUBCHEM_CONFORMER_RMSD>
0.6

> <PUBCHEM_CONFORMER_DIVERSEORDER>
1
3
7
2
4
5
6

> <PUBCHEM_MMFF94_PARTIAL_CHARGES>
31
1 -0.16
10 0.08
11 -0.14
12 0.09
14 0.47
15 -0.15
17 -0.15
18 -0.15
19 -0.15
2 -0.57
20 -0.15
21 -0.15
22 -0.15
23 -0.15
3 -0.84
32 0.36
33 0.15
34 0.15
35 0.15
36 0.15
37 0.15
38 0.15
39 0.15
4 -0.9
40 0.15
41 0.15
5 0.37
6 0.37
7 0.27
8 0.27
9 0.18

> <PUBCHEM_EFFECTIVE_ROTOR_COUNT>
3.2

> <PUBCHEM_PHARMACOPHORE_FEATURES>
9
1 1 acceptor
1 2 acceptor
1 3 cation
1 4 cation
1 4 donor
6 1 9 10 11 12 14 rings
6 10 12 13 15 17 18 rings
6 16 19 20 21 22 23 rings
6 3 4 5 6 7 8 rings

> <PUBCHEM_HEAVY_ATOM_COUNT>
23

> <PUBCHEM_ATOM_DEF_STEREO_COUNT>
0

> <PUBCHEM_ATOM_UDEF_STEREO_COUNT>
0

> <PUBCHEM_BOND_DEF_STEREO_COUNT>
0

> <PUBCHEM_BOND_UDEF_STEREO_COUNT>
0

> <PUBCHEM_ISOTOPIC_ATOM_COUNT>
0

> <PUBCHEM_COMPONENT_COUNT>
1

> <PUBCHEM_CACTVS_TAUTO_COUNT>
1

> <PUBCHEM_CONFORMER_ID>
00000F8300000001

> <PUBCHEM_MMFF94_ENERGY>
68.8138

> <PUBCHEM_FEATURE_SELFOVERLAP>
45.7

> <PUBCHEM_SHAPE_FINGERPRINT>
10616163 171 18337106757488752391
10967382 1 18338796693564395968
1100329 8 17690004431964008784
11578080 2 17345482668115717996
116883 192 18192996139078660469
12553582 1 18266729375884306587
12788726 201 18051962916344598243
12839892 36 18337972107694859728
13083527 12 18270419268545848842
13140716 1 18337392626233377064
138480 1 18410856572561913571
14178342 30 18336552693838978416
14223421 5 18409730702946643364
14251757 5 17401182960822348702
14790565 3 18050842221828180069
14844126 61 17405993336931116826
14863182 85 18268420240126242212
14866123 147 17545040867682794411
16728300 4 17699328501263521352
16752209 62 17550105209107005545
17134984 74 17830198817779511023
17138139 8 16524708971990426903
17818456 19 17677881526236279241
18681886 176 18052824646078462576
19591789 44 18194116309741742820
19930381 70 18411420596816620435
20028762 73 17827075104616861718
20600515 1 17472149843878491504
20645477 70 18338518534777198111
20775438 99 17834722422958098141
20905425 154 18335976571252047300
21197605 99 16826414928039851635
21285901 2 17845953848510121853
21421861 104 18341324586797674281
21452121 199 18338812215718407936
2255824 54 18121779430997304077
23184049 29 18195809802224283352
23559900 14 18410302435875901169
238 59 17978232651794250571
283562 15 18336253566768668720
3060560 45 18122345670790114308
4280585 95 18122621915013987038
484985 159 15184378368870784642
5265222 85 15886851022298993918
6443956 14 18340201878204746901
9709674 26 18411698811686079211

> <PUBCHEM_SHAPE_MULTIPOLES>
451.63
6.99
5.44
0.95
7.67
0.83
0.02
-4.27
0.78
-3.25
0.02
-0.36
-0.71
-0.23

> <PUBCHEM_SHAPE_SELFOVERLAP>
997.597

> <PUBCHEM_SHAPE_VOLUME>
241.9

> <PUBCHEM_COORDINATE_TYPE>
2
5
10

$$$$

