439823
  -OEChem-07051212503D

 21 21  0     1  0  0  0  0  0999 V2000
   -1.9600    1.2171    0.5201 O   0  0  0  0  0  0  0  0  0  0  0  0
    0.2233    1.5410   -0.0263 N   0  0  0  0  0  0  0  0  0  0  0  0
   -2.1142   -1.2787   -0.3682 N   0  0  0  0  0  0  0  0  0  0  0  0
    0.1781   -1.4909    0.4494 C   0  0  0  0  0  0  0  0  0  0  0  0
    1.6519   -1.3126    0.0801 C   0  0  0  0  0  0  0  0  0  0  0  0
   -0.7782   -0.6773   -0.4302 C   0  0  2  0  0  0  0  0  0  0  0  0
    2.2013    0.0966    0.2837 C   0  0  0  0  0  0  0  0  0  0  0  0
    1.5065    1.1439   -0.5743 C   0  0  0  0  0  0  0  0  0  0  0  0
   -0.9086    0.7609    0.0656 C   0  0  0  0  0  0  0  0  0  0  0  0
   -0.0445   -2.5615    0.3465 H   0  0  0  0  0  0  0  0  0  0  0  0
    0.0340   -1.2425    1.5089 H   0  0  0  0  0  0  0  0  0  0  0  0
    1.8047   -1.6173   -0.9629 H   0  0  0  0  0  0  0  0  0  0  0  0
    2.2458   -2.0034    0.6915 H   0  0  0  0  0  0  0  0  0  0  0  0
   -0.4549   -0.6766   -1.4766 H   0  0  0  0  0  0  0  0  0  0  0  0
    2.1419    0.3697    1.3443 H   0  0  0  0  0  0  0  0  0  0  0  0
    3.2654    0.0815    0.0179 H   0  0  0  0  0  0  0  0  0  0  0  0
    2.1187    2.0515   -0.6092 H   0  0  0  0  0  0  0  0  0  0  0  0
    1.3649    0.7967   -1.6030 H   0  0  0  0  0  0  0  0  0  0  0  0
    0.1418    2.4996    0.2993 H   0  0  0  0  0  0  0  0  0  0  0  0
   -2.0733   -2.2387   -0.7088 H   0  0  0  0  0  0  0  0  0  0  0  0
   -2.7404   -0.7821   -1.0014 H   0  0  0  0  0  0  0  0  0  0  0  0
  1  9  2  0  0  0  0
  2  8  1  0  0  0  0
  2  9  1  0  0  0  0
  2 19  1  0  0  0  0
  3  6  1  0  0  0  0
  3 20  1  0  0  0  0
  3 21  1  0  0  0  0
  4  5  1  0  0  0  0
  4  6  1  0  0  0  0
  4 10  1  0  0  0  0
  4 11  1  0  0  0  0
  5  7  1  0  0  0  0
  5 12  1  0  0  0  0
  5 13  1  0  0  0  0
  6  9  1  0  0  0  0
  6 14  1  0  0  0  0
  7  8  1  0  0  0  0
  7 15  1  0  0  0  0
  7 16  1  0  0  0  0
  8 17  1  0  0  0  0
  8 18  1  0  0  0  0
M  END
> <PUBCHEM_COMPOUND_CID>
439823

> <PUBCHEM_CONFORMER_RMSD>
0.4

> <PUBCHEM_CONFORMER_DIVERSEORDER>
1
2
4
5
3

> <PUBCHEM_MMFF94_PARTIAL_CHARGES>
9
1 -0.57
19 0.37
2 -0.73
20 0.36
21 0.36
3 -0.99
6 0.33
8 0.3
9 0.57

> <PUBCHEM_EFFECTIVE_ROTOR_COUNT>
1.2

> <PUBCHEM_PHARMACOPHORE_FEATURES>
5
1 1 acceptor
1 2 donor
1 3 cation
1 3 donor
7 2 4 5 6 7 8 9 rings

> <PUBCHEM_HEAVY_ATOM_COUNT>
9

> <PUBCHEM_ATOM_DEF_STEREO_COUNT>
1

> <PUBCHEM_ATOM_UDEF_STEREO_COUNT>
0

> <PUBCHEM_BOND_DEF_STEREO_COUNT>
0

> <PUBCHEM_BOND_UDEF_STEREO_COUNT>
0

> <PUBCHEM_ISOTOPIC_ATOM_COUNT>
0

> <PUBCHEM_COMPONENT_COUNT>
1

> <PUBCHEM_CACTVS_TAUTO_COUNT>
2

> <PUBCHEM_CONFORMER_ID>
0006B60F00000001

> <PUBCHEM_MMFF94_ENERGY>
9.2496

> <PUBCHEM_FEATURE_SELFOVERLAP>
25.371

> <PUBCHEM_SHAPE_FINGERPRINT>
16945 1 18265613178181595254
18185500 45 18339929310947626630
21040471 1 18264485264003734000
23552423 10 18342455950050623014
241688 4 18340775952170495914
2748010 2 18410857697985646638
5084963 1 17774171097528697446
66348 1 18051972524254842120

> <PUBCHEM_SHAPE_MULTIPOLES>
169.38
2.69
1.85
0.72
0.07
0.04
-0.01
0.07
0.04
0.08
0.03
0
0
-0.38

> <PUBCHEM_SHAPE_SELFOVERLAP>
329.779

> <PUBCHEM_SHAPE_VOLUME>
100.5

> <PUBCHEM_COORDINATE_TYPE>
2
5
10

$$$$

