12678
  -OEChem-06261207142D

 29 28  0     1  0  0  0  0  0999 V2000
    2.0000   -1.3736    0.0000 F   0  0  0  0  0  0  0  0  0  0  0  0
    2.6924   -1.8584    0.0000 F   0  0  0  0  0  0  0  0  0  0  0  0
    2.3660   -0.0076    0.0000 F   0  0  0  0  0  0  0  0  0  0  0  0
    2.7320    1.3584    0.0000 F   0  0  0  0  0  0  0  0  0  0  0  0
    3.7320    1.3584    0.0000 F   0  0  0  0  0  0  0  0  0  0  0  0
    2.2473    0.6661    0.0000 F   0  0  0  0  0  0  0  0  0  0  0  0
    4.2320   -1.2396    0.0000 O   0  0  0  0  0  0  0  0  0  0  0  0
    6.3301    0.1264    0.0000 O   0  0  0  0  0  0  0  0  0  0  0  0
    4.5981    1.8584    0.0000 O   0  0  0  0  0  0  0  0  0  0  0  0
    5.4641   -1.3736    0.0000 O   0  0  0  0  0  0  0  0  0  0  0  0
    3.7320   -0.3736    0.0000 C   0  0  0  0  0  0  0  0  0  0  0  0
    4.5981    0.1264    0.0000 C   0  0  3  0  0  0  0  0  0  0  0  0
    2.8660   -0.8736    0.0000 C   0  0  0  0  0  0  0  0  0  0  0  0
    3.2320    0.4924    0.0000 C   0  0  0  0  0  0  0  0  0  0  0  0
    5.0981    0.9924    0.0000 C   0  0  0  0  0  0  0  0  0  0  0  0
    5.4641   -0.3736    0.0000 C   0  0  0  0  0  0  0  0  0  0  0  0
    6.0981    0.9924    0.0000 C   0  0  0  0  0  0  0  0  0  0  0  0
    7.1962   -0.3736    0.0000 C   0  0  0  0  0  0  0  0  0  0  0  0
    8.0622    0.1264    0.0000 C   0  0  0  0  0  0  0  0  0  0  0  0
    4.1597    0.5648    0.0000 H   0  0  0  0  0  0  0  0  0  0  0  0
    3.9220   -1.7766    0.0000 H   0  0  0  0  0  0  0  0  0  0  0  0
    6.0981    0.3724    0.0000 H   0  0  0  0  0  0  0  0  0  0  0  0
    6.7181    0.9924    0.0000 H   0  0  0  0  0  0  0  0  0  0  0  0
    6.0981    1.6124    0.0000 H   0  0  0  0  0  0  0  0  0  0  0  0
    6.7976   -0.8486    0.0000 H   0  0  0  0  0  0  0  0  0  0  0  0
    7.5947   -0.8486    0.0000 H   0  0  0  0  0  0  0  0  0  0  0  0
    8.3722   -0.4106    0.0000 H   0  0  0  0  0  0  0  0  0  0  0  0
    8.5991    0.4364    0.0000 H   0  0  0  0  0  0  0  0  0  0  0  0
    7.7522    0.6633    0.0000 H   0  0  0  0  0  0  0  0  0  0  0  0
  1 13  1  0  0  0  0
  2 13  1  0  0  0  0
  3 13  1  0  0  0  0
  4 14  1  0  0  0  0
  5 14  1  0  0  0  0
  6 14  1  0  0  0  0
  7 11  1  0  0  0  0
  7 21  1  0  0  0  0
  8 16  1  0  0  0  0
  8 18  1  0  0  0  0
  9 15  2  0  0  0  0
 10 16  2  0  0  0  0
 11 12  1  0  0  0  0
 11 13  1  0  0  0  0
 11 14  1  0  0  0  0
 12 15  1  0  0  0  0
 12 16  1  0  0  0  0
 12 20  1  0  0  0  0
 15 17  1  0  0  0  0
 17 22  1  0  0  0  0
 17 23  1  0  0  0  0
 17 24  1  0  0  0  0
 18 19  1  0  0  0  0
 18 25  1  0  0  0  0
 18 26  1  0  0  0  0
 19 27  1  0  0  0  0
 19 28  1  0  0  0  0
 19 29  1  0  0  0  0
M  END
> <PUBCHEM_COMPOUND_CID>
12678

> <PUBCHEM_COMPOUND_CANONICALIZED>
1

> <PUBCHEM_CACTVS_COMPLEXITY>
345

> <PUBCHEM_CACTVS_HBOND_ACCEPTOR>
10

> <PUBCHEM_CACTVS_HBOND_DONOR>
1

> <PUBCHEM_CACTVS_ROTATABLE_BOND>
5

> <PUBCHEM_CACTVS_SUBSKEYS>
AAADccBwOcAAAAAAAAAAAAAAAAAAAAAAAAAAAAAAAAAAAAAAAAAAGwAACAAADUSggBICCAAABgAIAICQCAAAAAAAAAAAAAEAAAAAABYIAAACQAAFIAAAAAAAAAAOgAAAAAAAAAAAAAAAAAAAAAAAAAAAAA==

> <PUBCHEM_IUPAC_OPENEYE_NAME>
ethyl 2-acetyl-4,4,4-trifluoro-3-hydroxy-3-(trifluoromethyl)butanoate

> <PUBCHEM_IUPAC_CAS_NAME>
2-acetyl-4,4,4-trifluoro-3-hydroxy-3-(trifluoromethyl)butanoic acid ethyl ester

> <PUBCHEM_IUPAC_NAME>
ethyl 2-acetyl-4,4,4-trifluoro-3-hydroxy-3-(trifluoromethyl)butanoate

> <PUBCHEM_IUPAC_SYSTEMATIC_NAME>
ethyl 2-ethanoyl-4,4,4-tris(fluoranyl)-3-oxidanyl-3-(trifluoromethyl)butanoate

> <PUBCHEM_IUPAC_TRADITIONAL_NAME>
2-acetyl-4,4,4-trifluoro-3-hydroxy-3-(trifluoromethyl)butyric acid ethyl ester

> <PUBCHEM_IUPAC_INCHI>
InChI=1S/C9H10F6O4/c1-3-19-6(17)5(4(2)16)7(18,8(10,11)12)9(13,14)15/h5,18H,3H2,1-2H3

> <PUBCHEM_IUPAC_INCHIKEY>
QSJYRVSERRYRMJ-UHFFFAOYSA-N

> <PUBCHEM_XLOGP3_AA>
1.8

> <PUBCHEM_EXACT_MASS>
296.048328

> <PUBCHEM_MOLECULAR_FORMULA>
C9H10F6O4

> <PUBCHEM_MOLECULAR_WEIGHT>
296.163719

> <PUBCHEM_OPENEYE_CAN_SMILES>
CCOC(=O)C(C(=O)C)C(C(F)(F)F)(C(F)(F)F)O

> <PUBCHEM_OPENEYE_ISO_SMILES>
CCOC(=O)C(C(=O)C)C(C(F)(F)F)(C(F)(F)F)O

> <PUBCHEM_CACTVS_TPSA>
63.6

> <PUBCHEM_MONOISOTOPIC_WEIGHT>
296.048328

> <PUBCHEM_TOTAL_CHARGE>
0

> <PUBCHEM_HEAVY_ATOM_COUNT>
19

> <PUBCHEM_ATOM_DEF_STEREO_COUNT>
0

> <PUBCHEM_ATOM_UDEF_STEREO_COUNT>
1

> <PUBCHEM_BOND_DEF_STEREO_COUNT>
0

> <PUBCHEM_BOND_UDEF_STEREO_COUNT>
0

> <PUBCHEM_ISOTOPIC_ATOM_COUNT>
0

> <PUBCHEM_COMPONENT_COUNT>
1

> <PUBCHEM_CACTVS_TAUTO_COUNT>
5

> <PUBCHEM_COORDINATE_TYPE>
1
5
255

> <PUBCHEM_BONDANNOTATIONS>
12  11  3

$$$$

