442214
  -OEChem-07051212572D

 82 88  0     1  0  0  0  0  0999 V2000
    6.8691    0.9518    0.0000 O   0  0  0  0  0  0  0  0  0  0  0  0
    8.6020    3.9528    0.0000 O   0  0  0  0  0  0  0  0  0  0  0  0
    7.4021    3.3953    0.0000 O   0  0  0  0  0  0  0  0  0  0  0  0
    6.3447    3.3922    0.0000 O   0  0  0  0  0  0  0  0  0  0  0  0
    4.7297   -2.9528    0.0000 O   0  0  0  0  0  0  0  0  0  0  0  0
    2.9968   -3.9528    0.0000 O   0  0  0  0  0  0  0  0  0  0  0  0
    9.4684   -0.5489    0.0000 N   0  0  3  0  0  0  0  0  0  0  0  0
    2.5369    1.4521    0.0000 N   0  0  0  0  0  0  0  0  0  0  0  0
    8.6020   -0.0486    0.0000 C   0  0  2  0  0  0  0  0  0  0  0  0
    8.6020    0.9518    0.0000 C   0  0  0  0  0  0  0  0  0  0  0  0
   10.3349   -0.0486    0.0000 C   0  0  0  0  0  0  0  0  0  0  0  0
    9.4684    1.4521    0.0000 C   0  0  0  0  0  0  0  0  0  0  0  0
   10.3349    0.9518    0.0000 C   0  0  0  0  0  0  0  0  0  0  0  0
    8.1954   -0.9518    0.0000 C   0  0  0  0  0  0  0  0  0  0  0  0
    3.4034    0.9518    0.0000 C   0  0  1  0  0  0  0  0  0  0  0  0
    7.7356    1.4521    0.0000 C   0  0  0  0  0  0  0  0  0  0  0  0
    4.2698    1.4521    0.0000 C   0  0  0  0  0  0  0  0  0  0  0  0
    4.2698    2.4526    0.0000 C   0  0  0  0  0  0  0  0  0  0  0  0
    9.4684   -1.5489    0.0000 C   0  0  0  0  0  0  0  0  0  0  0  0
    3.4034    2.9528    0.0000 C   0  0  0  0  0  0  0  0  0  0  0  0
    9.4684    2.4526    0.0000 C   0  0  0  0  0  0  0  0  0  0  0  0
    2.5369    2.4526    0.0000 C   0  0  0  0  0  0  0  0  0  0  0  0
    2.9968    0.0486    0.0000 C   0  0  0  0  0  0  0  0  0  0  0  0
    7.3290   -1.4521    0.0000 C   0  0  0  0  0  0  0  0  0  0  0  0
    7.7356    2.4526    0.0000 C   0  0  0  0  0  0  0  0  0  0  0  0
    5.1363    0.9518    0.0000 C   0  0  0  0  0  0  0  0  0  0  0  0
    6.0027    1.4521    0.0000 C   0  0  0  0  0  0  0  0  0  0  0  0
    8.6020    2.9528    0.0000 C   0  0  0  0  0  0  0  0  0  0  0  0
    5.1363    2.9528    0.0000 C   0  0  0  0  0  0  0  0  0  0  0  0
    6.0027    2.4526    0.0000 C   0  0  0  0  0  0  0  0  0  0  0  0
    2.9968   -0.9518    0.0000 C   0  0  0  0  0  0  0  0  0  0  0  0
    6.4626   -0.9518    0.0000 C   0  0  0  0  0  0  0  0  0  0  0  0
    7.3290   -2.4526    0.0000 C   0  0  0  0  0  0  0  0  0  0  0  0
    3.8633   -1.4521    0.0000 C   0  0  0  0  0  0  0  0  0  0  0  0
    2.1304   -1.4521    0.0000 C   0  0  0  0  0  0  0  0  0  0  0  0
    5.5961   -1.4521    0.0000 C   0  0  0  0  0  0  0  0  0  0  0  0
    6.4626   -2.9528    0.0000 C   0  0  0  0  0  0  0  0  0  0  0  0
    5.5961   -2.4526    0.0000 C   0  0  0  0  0  0  0  0  0  0  0  0
    3.8633   -2.4526    0.0000 C   0  0  0  0  0  0  0  0  0  0  0  0
    2.1304   -2.4526    0.0000 C   0  0  0  0  0  0  0  0  0  0  0  0
    2.9968   -2.9528    0.0000 C   0  0  0  0  0  0  0  0  0  0  0  0
    9.4680    4.4528    0.0000 C   0  0  0  0  0  0  0  0  0  0  0  0
    5.7019    4.1583    0.0000 C   0  0  0  0  0  0  0  0  0  0  0  0
    2.1308   -4.4528    0.0000 C   0  0  0  0  0  0  0  0  0  0  0  0
    7.7709    0.1298    0.0000 H   0  0  0  0  0  0  0  0  0  0  0  0
   10.5469   -0.6312    0.0000 H   0  0  0  0  0  0  0  0  0  0  0  0
   10.9454    0.0590    0.0000 H   0  0  0  0  0  0  0  0  0  0  0  0
   10.9454    0.8442    0.0000 H   0  0  0  0  0  0  0  0  0  0  0  0
   10.5469    1.5345    0.0000 H   0  0  0  0  0  0  0  0  0  0  0  0
    8.3235   -1.5585    0.0000 H   0  0  0  0  0  0  0  0  0  0  0  0
    7.7355   -0.5360    0.0000 H   0  0  0  0  0  0  0  0  0  0  0  0
    2.5944    0.6908    0.0000 H   0  0  0  0  0  0  0  0  0  0  0  0
    3.8019    3.4277    0.0000 H   0  0  0  0  0  0  0  0  0  0  0  0
    3.0048    3.4277    0.0000 H   0  0  0  0  0  0  0  0  0  0  0  0
    8.8484   -1.5489    0.0000 H   0  0  0  0  0  0  0  0  0  0  0  0
    9.4684   -2.1689    0.0000 H   0  0  0  0  0  0  0  0  0  0  0  0
   10.0884   -1.5489    0.0000 H   0  0  0  0  0  0  0  0  0  0  0  0
   10.0054    2.7626    0.0000 H   0  0  0  0  0  0  0  0  0  0  0  0
    2.3249    3.0352    0.0000 H   0  0  0  0  0  0  0  0  0  0  0  0
    1.9264    2.3449    0.0000 H   0  0  0  0  0  0  0  0  0  0  0  0
    2.5673    0.4958    0.0000 H   0  0  0  0  0  0  0  0  0  0  0  0
    3.6030   -0.0815    0.0000 H   0  0  0  0  0  0  0  0  0  0  0  0
    2.0000    1.1421    0.0000 H   0  0  0  0  0  0  0  0  0  0  0  0
    5.1363    0.3318    0.0000 H   0  0  0  0  0  0  0  0  0  0  0  0
    5.1363    3.5728    0.0000 H   0  0  0  0  0  0  0  0  0  0  0  0
    6.4626   -0.3318    0.0000 H   0  0  0  0  0  0  0  0  0  0  0  0
    7.8660   -2.7626    0.0000 H   0  0  0  0  0  0  0  0  0  0  0  0
    4.4002   -1.1421    0.0000 H   0  0  0  0  0  0  0  0  0  0  0  0
    1.5934   -1.1421    0.0000 H   0  0  0  0  0  0  0  0  0  0  0  0
    5.0592   -1.1421    0.0000 H   0  0  0  0  0  0  0  0  0  0  0  0
    6.4626   -3.5728    0.0000 H   0  0  0  0  0  0  0  0  0  0  0  0
    7.8049    3.8666    0.0000 H   0  0  0  0  0  0  0  0  0  0  0  0
    1.5934   -2.7626    0.0000 H   0  0  0  0  0  0  0  0  0  0  0  0
    9.7780    3.9159    0.0000 H   0  0  0  0  0  0  0  0  0  0  0  0
   10.0050    4.7628    0.0000 H   0  0  0  0  0  0  0  0  0  0  0  0
    9.1580    4.9897    0.0000 H   0  0  0  0  0  0  0  0  0  0  0  0
    6.1769    4.5568    0.0000 H   0  0  0  0  0  0  0  0  0  0  0  0
    5.3034    4.6332    0.0000 H   0  0  0  0  0  0  0  0  0  0  0  0
    5.2270    3.7598    0.0000 H   0  0  0  0  0  0  0  0  0  0  0  0
    1.8208   -3.9159    0.0000 H   0  0  0  0  0  0  0  0  0  0  0  0
    1.5939   -4.7628    0.0000 H   0  0  0  0  0  0  0  0  0  0  0  0
    2.4408   -4.9897    0.0000 H   0  0  0  0  0  0  0  0  0  0  0  0
  1 16  1  0  0  0  0
  1 27  1  0  0  0  0
  2 28  1  0  0  0  0
  2 42  1  0  0  0  0
  3 25  1  0  0  0  0
  3 72  1  0  0  0  0
  4 30  1  0  0  0  0
  4 43  1  0  0  0  0
  5 38  1  0  0  0  0
  5 39  1  0  0  0  0
  6 41  1  0  0  0  0
  6 44  1  0  0  0  0
  7  9  1  0  0  0  0
  7 11  1  0  0  0  0
  7 19  1  0  0  0  0
  8 15  1  0  0  0  0
  8 22  1  0  0  0  0
  8 63  1  0  0  0  0
  9 10  1  0  0  0  0
  9 14  1  0  0  0  0
  9 45  1  6  0  0  0
 10 12  1  0  0  0  0
 10 16  2  0  0  0  0
 11 13  1  0  0  0  0
 11 46  1  0  0  0  0
 11 47  1  0  0  0  0
 12 13  1  0  0  0  0
 12 21  2  0  0  0  0
 13 48  1  0  0  0  0
 13 49  1  0  0  0  0
 14 24  1  0  0  0  0
 14 50  1  0  0  0  0
 14 51  1  0  0  0  0
 15 17  1  0  0  0  0
 15 23  1  0  0  0  0
 15 52  1  6  0  0  0
 16 25  1  0  0  0  0
 17 18  1  0  0  0  0
 17 26  2  0  0  0  0
 18 20  1  0  0  0  0
 18 29  2  0  0  0  0
 19 55  1  0  0  0  0
 19 56  1  0  0  0  0
 19 57  1  0  0  0  0
 20 22  1  0  0  0  0
 20 53  1  0  0  0  0
 20 54  1  0  0  0  0
 21 28  1  0  0  0  0
 21 58  1  0  0  0  0
 22 59  1  0  0  0  0
 22 60  1  0  0  0  0
 23 31  1  0  0  0  0
 23 61  1  0  0  0  0
 23 62  1  0  0  0  0
 24 32  2  0  0  0  0
 24 33  1  0  0  0  0
 25 28  2  0  0  0  0
 26 27  1  0  0  0  0
 26 64  1  0  0  0  0
 27 30  2  0  0  0  0
 29 30  1  0  0  0  0
 29 65  1  0  0  0  0
 31 34  2  0  0  0  0
 31 35  1  0  0  0  0
 32 36  1  0  0  0  0
 32 66  1  0  0  0  0
 33 37  2  0  0  0  0
 33 67  1  0  0  0  0
 34 39  1  0  0  0  0
 34 68  1  0  0  0  0
 35 40  2  0  0  0  0
 35 69  1  0  0  0  0
 36 38  2  0  0  0  0
 36 70  1  0  0  0  0
 37 38  1  0  0  0  0
 37 71  1  0  0  0  0
 39 41  2  0  0  0  0
 40 41  1  0  0  0  0
 40 73  1  0  0  0  0
 42 74  1  0  0  0  0
 42 75  1  0  0  0  0
 42 76  1  0  0  0  0
 43 77  1  0  0  0  0
 43 78  1  0  0  0  0
 43 79  1  0  0  0  0
 44 80  1  0  0  0  0
 44 81  1  0  0  0  0
 44 82  1  0  0  0  0
M  END
> <PUBCHEM_COMPOUND_CID>
442214

> <PUBCHEM_COMPOUND_CANONICALIZED>
1

> <PUBCHEM_CACTVS_COMPLEXITY>
932

> <PUBCHEM_CACTVS_HBOND_ACCEPTOR>
8

> <PUBCHEM_CACTVS_HBOND_DONOR>
2

> <PUBCHEM_CACTVS_ROTATABLE_BOND>
3

> <PUBCHEM_CACTVS_SUBSKEYS>
AAADcfB/OAAAAAAAAAAAAAAAAAAAAAAAAAA8eMGCAAAAAACxVAAAHgAQCAAADCzBmAYyBoPABgCAAiBCAACCCAAgIAAIiIAOjIgNJyKGsRuGeCvn0BWLuAew8P8OoAABCAAYQABAAAIQADCAAAAAAAAAAA==

> <PUBCHEM_IUPAC_INCHI>
InChI=1S/C36H38N2O6/c1-38-14-12-24-19-33(42-4)35(39)36-34(24)28(38)16-21-5-8-25(9-6-21)43-31-17-22(7-10-29(31)40-2)15-27-26-20-32(44-36)30(41-3)18-23(26)11-13-37-27/h5-10,17-20,27-28,37,39H,11-16H2,1-4H3/t27-,28+/m1/s1

> <PUBCHEM_IUPAC_INCHIKEY>
REKCBEFSIKOPTD-IZLXSDGUSA-N

> <PUBCHEM_XLOGP3_AA>
5.9

> <PUBCHEM_EXACT_MASS>
594.272987

> <PUBCHEM_MOLECULAR_FORMULA>
C36H38N2O6

> <PUBCHEM_MOLECULAR_WEIGHT>
594.69672

> <PUBCHEM_OPENEYE_CAN_SMILES>
CN1CCC2=CC(=C(C3=C2C1CC4=CC=C(C=C4)OC5=C(C=CC(=C5)CC6C7=CC(=C(C=C7CCN6)OC)O3)OC)O)OC

> <PUBCHEM_OPENEYE_ISO_SMILES>
CN1CCC2=CC(=C(C3=C2[C@@H]1CC4=CC=C(C=C4)OC5=C(C=CC(=C5)C[C@@H]6C7=CC(=C(C=C7CCN6)OC)O3)OC)O)OC

> <PUBCHEM_CACTVS_TPSA>
81.6

> <PUBCHEM_MONOISOTOPIC_WEIGHT>
594.272987

> <PUBCHEM_TOTAL_CHARGE>
0

> <PUBCHEM_HEAVY_ATOM_COUNT>
44

> <PUBCHEM_ATOM_DEF_STEREO_COUNT>
2

> <PUBCHEM_ATOM_UDEF_STEREO_COUNT>
0

> <PUBCHEM_BOND_DEF_STEREO_COUNT>
0

> <PUBCHEM_BOND_UDEF_STEREO_COUNT>
0

> <PUBCHEM_ISOTOPIC_ATOM_COUNT>
0

> <PUBCHEM_COMPONENT_COUNT>
1

> <PUBCHEM_CACTVS_TAUTO_COUNT>
2

> <PUBCHEM_COORDINATE_TYPE>
1
5
255

> <PUBCHEM_BONDANNOTATIONS>
10  12  8
10  16  8
12  21  8
15  52  6
16  25  8
17  18  8
17  26  8
18  29  8
21  28  8
24  32  8
24  33  8
25  28  8
26  27  8
27  30  8
29  30  8
31  34  8
31  35  8
32  36  8
33  37  8
34  39  8
35  40  8
36  38  8
37  38  8
39  41  8
40  41  8
9  45  6

$$$$

