439955
  -OEChem-07051212483D

 19 19  0     1  0  0  0  0  0999 V2000
   -0.0117   -1.1640   -0.1864 O   0  0  0  0  0  0  0  0  0  0  0  0
    2.2764   -1.4432    0.1611 O   0  0  0  0  0  0  0  0  0  0  0  0
   -2.2528   -1.2974   -0.3436 O   0  0  0  0  0  0  0  0  0  0  0  0
    0.7098    1.9437   -0.0281 C   0  0  0  0  0  0  0  0  0  0  0  0
    1.5183    0.7234   -0.4583 C   0  0  0  0  0  0  0  0  0  0  0  0
   -0.7990    1.7839   -0.1766 C   0  0  0  0  0  0  0  0  0  0  0  0
    1.1815   -0.5400    0.3297 C   0  0  1  0  0  0  0  0  0  0  0  0
   -1.3662    0.6676    0.6874 C   0  0  0  0  0  0  0  0  0  0  0  0
   -1.2563   -0.6739    0.0147 C   0  0  0  0  0  0  0  0  0  0  0  0
    1.0308    2.8037   -0.6284 H   0  0  0  0  0  0  0  0  0  0  0  0
    0.9496    2.1883    1.0143 H   0  0  0  0  0  0  0  0  0  0  0  0
    1.3623    0.5439   -1.5297 H   0  0  0  0  0  0  0  0  0  0  0  0
    2.5831    0.9593   -0.3364 H   0  0  0  0  0  0  0  0  0  0  0  0
   -1.0522    1.6226   -1.2316 H   0  0  0  0  0  0  0  0  0  0  0  0
   -1.2683    2.7294    0.1219 H   0  0  0  0  0  0  0  0  0  0  0  0
    1.0824   -0.3433    1.4028 H   0  0  0  0  0  0  0  0  0  0  0  0
   -2.4377    0.8563    0.8334 H   0  0  0  0  0  0  0  0  0  0  0  0
   -0.9306    0.6326    1.6906 H   0  0  0  0  0  0  0  0  0  0  0  0
    2.2613   -2.0530    0.9182 H   0  0  0  0  0  0  0  0  0  0  0  0
  1  7  1  0  0  0  0
  1  9  1  0  0  0  0
  2  7  1  0  0  0  0
  2 19  1  0  0  0  0
  3  9  2  0  0  0  0
  4  5  1  0  0  0  0
  4  6  1  0  0  0  0
  4 10  1  0  0  0  0
  4 11  1  0  0  0  0
  5  7  1  0  0  0  0
  5 12  1  0  0  0  0
  5 13  1  0  0  0  0
  6  8  1  0  0  0  0
  6 14  1  0  0  0  0
  6 15  1  0  0  0  0
  7 16  1  0  0  0  0
  8  9  1  0  0  0  0
  8 17  1  0  0  0  0
  8 18  1  0  0  0  0
M  END
> <PUBCHEM_COMPOUND_CID>
439955

> <PUBCHEM_CONFORMER_RMSD>
0.4

> <PUBCHEM_CONFORMER_DIVERSEORDER>
2
4
3
1

> <PUBCHEM_MMFF94_PARTIAL_CHARGES>
7
1 -0.43
19 0.4
2 -0.68
3 -0.57
7 0.56
8 0.06
9 0.66

> <PUBCHEM_EFFECTIVE_ROTOR_COUNT>
1.2

> <PUBCHEM_PHARMACOPHORE_FEATURES>
4
1 2 acceptor
1 2 donor
1 3 acceptor
7 1 4 5 6 7 8 9 rings

> <PUBCHEM_HEAVY_ATOM_COUNT>
9

> <PUBCHEM_ATOM_DEF_STEREO_COUNT>
0

> <PUBCHEM_ATOM_UDEF_STEREO_COUNT>
1

> <PUBCHEM_BOND_DEF_STEREO_COUNT>
0

> <PUBCHEM_BOND_UDEF_STEREO_COUNT>
0

> <PUBCHEM_ISOTOPIC_ATOM_COUNT>
0

> <PUBCHEM_COMPONENT_COUNT>
1

> <PUBCHEM_CACTVS_TAUTO_COUNT>
1

> <PUBCHEM_CONFORMER_ID>
0006B69300000002

> <PUBCHEM_MMFF94_ENERGY>
11.6478

> <PUBCHEM_FEATURE_SELFOVERLAP>
20.297

> <PUBCHEM_SHAPE_FINGERPRINT>
16714656 1 17907008835382860690
18185500 45 18265049137295840293
21040471 1 17617940669941210176
23552423 10 18269829835312494140
241688 4 18411983597760620656
2748010 2 18410576205718264484
29004967 10 17984419642298849849
66348 1 18194395598147596040

> <PUBCHEM_SHAPE_MULTIPOLES>
167.61
2.5
2.08
0.7
0
0.55
-0.04
-1.04
0.05
-0.18
0.09
0.05
0.05
-0.29

> <PUBCHEM_SHAPE_SELFOVERLAP>
327.93

> <PUBCHEM_SHAPE_VOLUME>
98.6

> <PUBCHEM_COORDINATE_TYPE>
2
5
10

$$$$

