12302172
  -OEChem-07051213103D

 79 81  0     1  0  0  0  0  0999 V2000
    2.1483    0.5810    0.2383 O   0  0  0  0  0  0  0  0  0  0  0  0
   -1.1315   -0.9880    0.2742 O   0  0  0  0  0  0  0  0  0  0  0  0
    0.7010    1.0769    2.6710 O   0  0  0  0  0  0  0  0  0  0  0  0
    3.7253   -0.5925   -1.0787 O   0  0  0  0  0  0  0  0  0  0  0  0
   -0.8573   -3.3076    0.5585 O   0  0  0  0  0  0  0  0  0  0  0  0
   -3.5169   -3.1131    1.9459 O   0  0  0  0  0  0  0  0  0  0  0  0
    6.0545    0.5977    2.1220 O   0  0  0  0  0  0  0  0  0  0  0  0
    6.3526    1.9055   -0.4208 O   0  0  0  0  0  0  0  0  0  0  0  0
   -4.1968   -3.9674   -0.5736 O   0  0  0  0  0  0  0  0  0  0  0  0
   -0.0516   -5.4293   -1.1166 O   0  0  0  0  0  0  0  0  0  0  0  0
   -3.1936    3.8570    1.2883 O   0  0  0  0  0  0  0  0  0  0  0  0
   -5.6650    3.2734    0.4515 O   0  0  0  0  0  0  0  0  0  0  0  0
   -2.3943    1.7260    0.8324 N   0  0  0  0  0  0  0  0  0  0  0  0
   -0.9025    1.1492   -1.7705 N   0  0  0  0  0  0  0  0  0  0  0  0
    3.3741   -0.4194    2.6152 N   0  0  0  0  0  0  0  0  0  0  0  0
    4.1244    0.2493   -3.7295 N   0  0  0  0  0  0  0  0  0  0  0  0
   -4.1233    2.3979   -3.4571 N   0  0  0  0  0  0  0  0  0  0  0  0
    0.8633    0.2473   -0.2906 C   0  0  1  0  0  0  0  0  0  0  0  0
    0.0138   -0.3563    0.8389 C   0  0  1  0  0  0  0  0  0  0  0  0
    0.2411    1.5034   -0.9291 C   0  0  2  0  0  0  0  0  0  0  0  0
   -0.4245    0.6831    1.8847 C   0  0  2  0  0  0  0  0  0  0  0  0
   -1.0368    1.9509    1.2695 C   0  0  1  0  0  0  0  0  0  0  0  0
   -0.1676    2.5291    0.1425 C   0  0  0  0  0  0  0  0  0  0  0  0
    3.0375   -0.5319    0.1745 C   0  0  1  0  0  0  0  0  0  0  0  0
   -1.5219   -2.1223    1.0388 C   0  0  2  0  0  0  0  0  0  0  0  0
    4.0545   -0.4846    1.3212 C   0  0  1  0  0  0  0  0  0  0  0  0
   -3.0119   -2.3638    0.8452 C   0  0  1  0  0  0  0  0  0  0  0  0
    5.0084    0.7033    1.1545 C   0  0  2  0  0  0  0  0  0  0  0  0
    5.6317    0.6882   -0.2458 C   0  0  1  0  0  0  0  0  0  0  0  0
    4.5565    0.5459   -1.3299 C   0  0  1  0  0  0  0  0  0  0  0  0
   -3.0110   -3.2200   -0.4052 C   0  0  1  0  0  0  0  0  0  0  0  0
   -1.8040   -4.1125   -0.1665 C   0  0  1  0  0  0  0  0  0  0  0  0
   -3.3673    2.7106    0.8801 C   0  0  0  0  0  0  0  0  0  0  0  0
    5.1640    0.3576   -2.7173 C   0  0  0  0  0  0  0  0  0  0  0  0
   -1.1682   -4.6204   -1.4485 C   0  0  0  0  0  0  0  0  0  0  0  0
   -4.7095    2.2321    0.3381 C   0  0  2  0  0  0  0  0  0  0  0  0
   -4.6268    1.7783   -1.1243 C   0  0  0  0  0  0  0  0  0  0  0  0
   -4.1685    2.8850   -2.0814 C   0  0  0  0  0  0  0  0  0  0  0  0
    0.9842   -0.4947   -1.0939 H   0  0  0  0  0  0  0  0  0  0  0  0
    0.6286   -1.1064    1.3531 H   0  0  0  0  0  0  0  0  0  0  0  0
    0.9935    1.9793   -1.5709 H   0  0  0  0  0  0  0  0  0  0  0  0
   -1.1497    0.2345    2.5740 H   0  0  0  0  0  0  0  0  0  0  0  0
   -1.0816    2.7221    2.0503 H   0  0  0  0  0  0  0  0  0  0  0  0
    0.7495    2.9366    0.5891 H   0  0  0  0  0  0  0  0  0  0  0  0
   -0.6732    3.3819   -0.3295 H   0  0  0  0  0  0  0  0  0  0  0  0
    2.4862   -1.4764    0.2647 H   0  0  0  0  0  0  0  0  0  0  0  0
   -1.2827   -2.0050    2.1024 H   0  0  0  0  0  0  0  0  0  0  0  0
    4.6489   -1.4080    1.3007 H   0  0  0  0  0  0  0  0  0  0  0  0
   -2.6234    0.8133    0.4518 H   0  0  0  0  0  0  0  0  0  0  0  0
   -3.6120   -1.4560    0.7332 H   0  0  0  0  0  0  0  0  0  0  0  0
    4.4975    1.6566    1.3371 H   0  0  0  0  0  0  0  0  0  0  0  0
   -1.2497    1.9823   -2.2431 H   0  0  0  0  0  0  0  0  0  0  0  0
   -0.6045    0.5074   -2.5038 H   0  0  0  0  0  0  0  0  0  0  0  0
    6.3556   -0.1326   -0.3161 H   0  0  0  0  0  0  0  0  0  0  0  0
    3.9316    1.4496   -1.3541 H   0  0  0  0  0  0  0  0  0  0  0  0
   -2.8588   -2.5905   -1.2908 H   0  0  0  0  0  0  0  0  0  0  0  0
   -2.0563   -4.9676    0.4734 H   0  0  0  0  0  0  0  0  0  0  0  0
    0.3793    1.6666    3.3740 H   0  0  0  0  0  0  0  0  0  0  0  0
    5.8194    1.1978   -2.9681 H   0  0  0  0  0  0  0  0  0  0  0  0
    5.7654   -0.5586   -2.7434 H   0  0  0  0  0  0  0  0  0  0  0  0
    2.7909   -1.2460    2.7382 H   0  0  0  0  0  0  0  0  0  0  0  0
    4.0639   -0.4372    3.3652 H   0  0  0  0  0  0  0  0  0  0  0  0
   -0.8039   -3.7885   -2.0604 H   0  0  0  0  0  0  0  0  0  0  0  0
   -1.8769   -5.2170   -2.0310 H   0  0  0  0  0  0  0  0  0  0  0  0
   -3.4542   -2.5479    2.7347 H   0  0  0  0  0  0  0  0  0  0  0  0
   -5.0441    1.3995    0.9683 H   0  0  0  0  0  0  0  0  0  0  0  0
    6.5165   -0.2456    1.9772 H   0  0  0  0  0  0  0  0  0  0  0  0
    5.7152    2.6393   -0.3911 H   0  0  0  0  0  0  0  0  0  0  0  0
   -4.9365   -3.3369   -0.6042 H   0  0  0  0  0  0  0  0  0  0  0  0
   -5.6248    1.4448   -1.4390 H   0  0  0  0  0  0  0  0  0  0  0  0
   -3.9642    0.9102   -1.2192 H   0  0  0  0  0  0  0  0  0  0  0  0
    3.5179   -0.5415   -3.5161 H   0  0  0  0  0  0  0  0  0  0  0  0
    4.5496    0.0493   -4.6338 H   0  0  0  0  0  0  0  0  0  0  0  0
    0.3361   -5.7390   -1.9529 H   0  0  0  0  0  0  0  0  0  0  0  0
   -6.5354    2.8983    0.2339 H   0  0  0  0  0  0  0  0  0  0  0  0
   -3.1772    3.2552   -1.8022 H   0  0  0  0  0  0  0  0  0  0  0  0
   -4.8602    3.7328   -2.0357 H   0  0  0  0  0  0  0  0  0  0  0  0
   -3.7682    3.1352   -4.0645 H   0  0  0  0  0  0  0  0  0  0  0  0
   -3.4596    1.6274   -3.5252 H   0  0  0  0  0  0  0  0  0  0  0  0
  1 18  1  0  0  0  0
  1 24  1  0  0  0  0
  2 19  1  0  0  0  0
  2 25  1  0  0  0  0
  3 21  1  0  0  0  0
  3 58  1  0  0  0  0
  4 24  1  0  0  0  0
  4 30  1  0  0  0  0
  5 25  1  0  0  0  0
  5 32  1  0  0  0  0
  6 27  1  0  0  0  0
  6 65  1  0  0  0  0
  7 28  1  0  0  0  0
  7 67  1  0  0  0  0
  8 29  1  0  0  0  0
  8 68  1  0  0  0  0
  9 31  1  0  0  0  0
  9 69  1  0  0  0  0
 10 35  1  0  0  0  0
 10 74  1  0  0  0  0
 11 33  2  0  0  0  0
 12 36  1  0  0  0  0
 12 75  1  0  0  0  0
 13 22  1  0  0  0  0
 13 33  1  0  0  0  0
 13 49  1  0  0  0  0
 14 20  1  0  0  0  0
 14 52  1  0  0  0  0
 14 53  1  0  0  0  0
 15 26  1  0  0  0  0
 15 61  1  0  0  0  0
 15 62  1  0  0  0  0
 16 34  1  0  0  0  0
 16 72  1  0  0  0  0
 16 73  1  0  0  0  0
 17 38  1  0  0  0  0
 17 78  1  0  0  0  0
 17 79  1  0  0  0  0
 18 19  1  0  0  0  0
 18 20  1  0  0  0  0
 18 39  1  0  0  0  0
 19 21  1  0  0  0  0
 19 40  1  0  0  0  0
 20 23  1  0  0  0  0
 20 41  1  0  0  0  0
 21 22  1  0  0  0  0
 21 42  1  0  0  0  0
 22 23  1  0  0  0  0
 22 43  1  0  0  0  0
 23 44  1  0  0  0  0
 23 45  1  0  0  0  0
 24 26  1  0  0  0  0
 24 46  1  0  0  0  0
 25 27  1  0  0  0  0
 25 47  1  0  0  0  0
 26 28  1  0  0  0  0
 26 48  1  0  0  0  0
 27 31  1  0  0  0  0
 27 50  1  0  0  0  0
 28 29  1  0  0  0  0
 28 51  1  0  0  0  0
 29 30  1  0  0  0  0
 29 54  1  0  0  0  0
 30 34  1  0  0  0  0
 30 55  1  0  0  0  0
 31 32  1  0  0  0  0
 31 56  1  0  0  0  0
 32 35  1  0  0  0  0
 32 57  1  0  0  0  0
 33 36  1  0  0  0  0
 34 59  1  0  0  0  0
 34 60  1  0  0  0  0
 35 63  1  0  0  0  0
 35 64  1  0  0  0  0
 36 37  1  0  0  0  0
 36 66  1  0  0  0  0
 37 38  1  0  0  0  0
 37 70  1  0  0  0  0
 37 71  1  0  0  0  0
 38 76  1  0  0  0  0
 38 77  1  0  0  0  0
M  END
> <PUBCHEM_COMPOUND_CID>
12302172

> <PUBCHEM_CONFORMER_RMSD>
1.2

> <PUBCHEM_CONFORMER_DIVERSEORDER>
1
22
15
17
13
7
8
11
18
23
10
12
6
19
2
16
14
20
21
9
4
3
5

> <PUBCHEM_MMFF94_PARTIAL_CHARGES>
52
1 -0.56
10 -0.68
11 -0.57
12 -0.68
13 -0.73
14 -0.99
15 -0.99
16 -0.99
17 -0.99
18 0.28
19 0.28
2 -0.56
20 0.27
21 0.28
22 0.3
24 0.56
25 0.56
26 0.27
27 0.28
28 0.28
29 0.28
3 -0.68
30 0.28
31 0.28
32 0.28
33 0.57
34 0.27
35 0.28
36 0.34
38 0.27
4 -0.56
49 0.37
5 -0.56
52 0.36
53 0.36
58 0.4
6 -0.68
61 0.36
62 0.36
65 0.4
67 0.4
68 0.4
69 0.4
7 -0.68
72 0.36
73 0.36
74 0.4
75 0.4
78 0.36
79 0.36
8 -0.68
9 -0.68

> <PUBCHEM_EFFECTIVE_ROTOR_COUNT>
14.4

> <PUBCHEM_PHARMACOPHORE_FEATURES>
31
1 1 acceptor
1 10 acceptor
1 10 donor
1 11 acceptor
1 12 acceptor
1 12 donor
1 13 donor
1 14 cation
1 14 donor
1 15 cation
1 15 donor
1 16 cation
1 16 donor
1 17 cation
1 17 donor
1 2 acceptor
1 3 acceptor
1 3 donor
1 4 acceptor
1 5 acceptor
1 6 acceptor
1 6 donor
1 7 acceptor
1 7 donor
1 8 acceptor
1 8 donor
1 9 acceptor
1 9 donor
5 5 25 27 31 32 rings
6 18 19 20 21 22 23 rings
6 4 24 26 28 29 30 rings

> <PUBCHEM_HEAVY_ATOM_COUNT>
38

> <PUBCHEM_ATOM_DEF_STEREO_COUNT>
15

> <PUBCHEM_ATOM_UDEF_STEREO_COUNT>
0

> <PUBCHEM_BOND_DEF_STEREO_COUNT>
0

> <PUBCHEM_BOND_UDEF_STEREO_COUNT>
0

> <PUBCHEM_ISOTOPIC_ATOM_COUNT>
0

> <PUBCHEM_COMPONENT_COUNT>
1

> <PUBCHEM_CACTVS_TAUTO_COUNT>
2

> <PUBCHEM_CONFORMER_ID>
00BBB75C00000001

> <PUBCHEM_MMFF94_ENERGY>
80.3052

> <PUBCHEM_FEATURE_SELFOVERLAP>
157.423

> <PUBCHEM_SHAPE_FINGERPRINT>
11991303 11 18130784594796119563
12633046 712 17388504320780719302
12788726 201 18269271262131636626
13911987 19 18270391819410769549
14114206 34 17913219658504139802
15775530 1 17606705537874576288
20511986 3 17846787308156923928
23559900 14 18261944263310756812
24893992 56 7925332028483877921
27425 322 17752747285361277953
4066623 53 17979652138902063743
4409770 3 18408886201039455219
5080951 261 18126315032752661714

> <PUBCHEM_SHAPE_MULTIPOLES>
686.69
12.27
5.83
2.74
12.53
8.01
1.59
-8.14
2.66
-10.8
1.33
1.66
-1.07
0.68

> <PUBCHEM_SHAPE_SELFOVERLAP>
1407.993

> <PUBCHEM_SHAPE_VOLUME>
389.9

> <PUBCHEM_COORDINATE_TYPE>
2
5
10

$$$$

