17396094
  -OEChem-06241222543D

 43 45  0     0  0  0  0  0  0999 V2000
    0.5829    2.9364   -1.6044 S   0  0  0  0  0  0  0  0  0  0  0  0
   -3.3635    3.1486    0.7666 O   0  0  0  0  0  0  0  0  0  0  0  0
   -3.4038    0.8870    0.2761 N   0  0  0  0  0  0  0  0  0  0  0  0
   -0.4088    1.5306    0.3249 N   0  0  0  0  0  0  0  0  0  0  0  0
   -0.0934   -2.1894   -0.2964 N   0  0  0  0  0  0  0  0  0  0  0  0
   -2.7942   -0.3218   -0.2757 C   0  0  0  0  0  0  0  0  0  0  0  0
   -1.9978   -1.1042    0.7657 C   0  0  0  0  0  0  0  0  0  0  0  0
   -1.3421   -2.3395    0.1992 C   0  0  0  0  0  0  0  0  0  0  0  0
   -2.7698    2.1582    0.2989 C   0  0  0  0  0  0  0  0  0  0  0  0
   -4.7546    0.7250    0.7985 C   0  0  0  0  0  0  0  0  0  0  0  0
   -1.4380    2.2689   -0.2260 C   0  0  0  0  0  0  0  0  0  0  0  0
    1.9911    1.2217   -0.0320 C   0  0  0  0  0  0  0  0  0  0  0  0
    0.7028    1.8023   -0.3222 C   0  0  0  0  0  0  0  0  0  0  0  0
   -2.0324   -3.5408    0.2122 C   0  0  0  0  0  0  0  0  0  0  0  0
   -1.0944    3.0883   -1.2807 C   0  0  0  0  0  0  0  0  0  0  0  0
    2.2305    0.6430    1.2145 C   0  0  0  0  0  0  0  0  0  0  0  0
    2.9972    1.2384   -0.9979 C   0  0  0  0  0  0  0  0  0  0  0  0
    4.4820    0.0979    0.5289 C   0  0  0  0  0  0  0  0  0  0  0  0
    3.4759    0.0810    1.4949 C   0  0  0  0  0  0  0  0  0  0  0  0
    4.2426    0.6766   -0.7175 C   0  0  0  0  0  0  0  0  0  0  0  0
   -1.4001   -4.6603   -0.3173 C   0  0  0  0  0  0  0  0  0  0  0  0
    0.4892   -3.2994   -0.8026 C   0  0  0  0  0  0  0  0  0  0  0  0
   -0.1152   -4.5457   -0.8363 C   0  0  0  0  0  0  0  0  0  0  0  0
    5.8138   -0.5029    0.8285 C   0  0  0  0  0  0  0  0  0  0  0  0
   -2.1429   -0.0473   -1.1131 H   0  0  0  0  0  0  0  0  0  0  0  0
   -3.5873   -0.9464   -0.7056 H   0  0  0  0  0  0  0  0  0  0  0  0
   -1.2300   -0.4897    1.2427 H   0  0  0  0  0  0  0  0  0  0  0  0
   -2.6616   -1.3986    1.5896 H   0  0  0  0  0  0  0  0  0  0  0  0
   -4.7507   -0.0558    1.5641 H   0  0  0  0  0  0  0  0  0  0  0  0
   -5.1327    1.6497    1.2409 H   0  0  0  0  0  0  0  0  0  0  0  0
   -5.4160    0.4316   -0.0220 H   0  0  0  0  0  0  0  0  0  0  0  0
   -3.0355   -3.6196    0.6174 H   0  0  0  0  0  0  0  0  0  0  0  0
   -1.7235    3.7484   -1.8614 H   0  0  0  0  0  0  0  0  0  0  0  0
    1.4625    0.6190    1.9839 H   0  0  0  0  0  0  0  0  0  0  0  0
    2.8683    1.6469   -1.9955 H   0  0  0  0  0  0  0  0  0  0  0  0
    3.6499   -0.3685    2.4690 H   0  0  0  0  0  0  0  0  0  0  0  0
    5.0167    0.6884   -1.4804 H   0  0  0  0  0  0  0  0  0  0  0  0
   -1.9078   -5.6200   -0.3260 H   0  0  0  0  0  0  0  0  0  0  0  0
    1.4909   -3.1565   -1.1944 H   0  0  0  0  0  0  0  0  0  0  0  0
    0.3969   -5.4049   -1.2541 H   0  0  0  0  0  0  0  0  0  0  0  0
    6.0523   -0.4239    1.8947 H   0  0  0  0  0  0  0  0  0  0  0  0
    6.6116    0.0125    0.2830 H   0  0  0  0  0  0  0  0  0  0  0  0
    5.8212   -1.5600    0.5449 H   0  0  0  0  0  0  0  0  0  0  0  0
  1 13  1  0  0  0  0
  1 15  1  0  0  0  0
  2  9  2  0  0  0  0
  3  6  1  0  0  0  0
  3  9  1  0  0  0  0
  3 10  1  0  0  0  0
  4 11  1  0  0  0  0
  4 13  2  0  0  0  0
  5  8  1  0  0  0  0
  5 22  2  0  0  0  0
  6  7  1  0  0  0  0
  6 25  1  0  0  0  0
  6 26  1  0  0  0  0
  7  8  1  0  0  0  0
  7 27  1  0  0  0  0
  7 28  1  0  0  0  0
  8 14  2  0  0  0  0
  9 11  1  0  0  0  0
 10 29  1  0  0  0  0
 10 30  1  0  0  0  0
 10 31  1  0  0  0  0
 11 15  2  0  0  0  0
 12 13  1  0  0  0  0
 12 16  2  0  0  0  0
 12 17  1  0  0  0  0
 14 21  1  0  0  0  0
 14 32  1  0  0  0  0
 15 33  1  0  0  0  0
 16 19  1  0  0  0  0
 16 34  1  0  0  0  0
 17 20  2  0  0  0  0
 17 35  1  0  0  0  0
 18 19  2  0  0  0  0
 18 20  1  0  0  0  0
 18 24  1  0  0  0  0
 19 36  1  0  0  0  0
 20 37  1  0  0  0  0
 21 23  2  0  0  0  0
 21 38  1  0  0  0  0
 22 23  1  0  0  0  0
 22 39  1  0  0  0  0
 23 40  1  0  0  0  0
 24 41  1  0  0  0  0
 24 42  1  0  0  0  0
 24 43  1  0  0  0  0
M  END
> <PUBCHEM_COMPOUND_CID>
17396094

> <PUBCHEM_CONFORMER_RMSD>
0.8

> <PUBCHEM_CONFORMER_DIVERSEORDER>
1
125
186
38
187
231
188
65
94
124
146
232
195
220
170
96
110
198
58
213
9
243
211
132
45
238
161
215
205
49
74
123
234
172
25
216
43
77
6
228
222
97
39
209
176
81
164
227
202
15
41
149
117
218
156
145
51
106
245
167
154
101
175
86
91
54
151
177
73
230
236
136
237
37
120
178
142
191
20
208
2
194
61
116
122
24
226
212
52
87
244
160
130
13
83
98
241
131
192
17
200
159
82
221
3
27
35
48
29
206
157
93
143
204
171
242
76
224
158
180
214
92
118
193
210
225
5
162
12
163
44
80
134
69
183
203
66
153
4
197
119
63
239
199
19
233
72
8
181
40
57
207
129
67
155
11
246
95
22
42
85
217
201
109
102
182
190
33
141
133
166
196
135
152
21
126
169
185
68
127
50
53
31
150
114
55
60
111
99
115
70
32
165
36
184
56
79
90
168
219
121
100
104
139
103
173
148
30
10
88
147
229
113
189
128
23
138
108
223
16
26
7
235
34
137
140
107
89
240
64
174
144
47
62
179
78
112
71
84
46
14
28
59
18
75
105

> <PUBCHEM_MMFF94_PARTIAL_CHARGES>
33
1 -0.08
10 0.3
11 0.14
12 0.05
13 0.33
14 -0.15
15 -0.11
16 -0.15
17 -0.15
18 -0.14
19 -0.15
2 -0.57
20 -0.15
21 -0.15
22 0.16
23 -0.15
24 0.14
3 -0.66
32 0.15
33 0.15
34 0.15
35 0.15
36 0.15
37 0.15
38 0.15
39 0.15
4 -0.57
40 0.15
5 -0.62
6 0.3
7 0.14
8 0.17
9 0.72

> <PUBCHEM_EFFECTIVE_ROTOR_COUNT>
6

> <PUBCHEM_PHARMACOPHORE_FEATURES>
6
1 2 acceptor
1 4 acceptor
1 5 acceptor
5 1 4 11 13 15 rings
6 12 16 17 18 19 20 rings
6 5 8 14 21 22 23 rings

> <PUBCHEM_HEAVY_ATOM_COUNT>
24

> <PUBCHEM_ATOM_DEF_STEREO_COUNT>
0

> <PUBCHEM_ATOM_UDEF_STEREO_COUNT>
0

> <PUBCHEM_BOND_DEF_STEREO_COUNT>
0

> <PUBCHEM_BOND_UDEF_STEREO_COUNT>
0

> <PUBCHEM_ISOTOPIC_ATOM_COUNT>
0

> <PUBCHEM_COMPONENT_COUNT>
1

> <PUBCHEM_CACTVS_TAUTO_COUNT>
2

> <PUBCHEM_CONFORMER_ID>
0109717E00000001

> <PUBCHEM_MMFF94_ENERGY>
61.9075

> <PUBCHEM_FEATURE_SELFOVERLAP>
30.446

> <PUBCHEM_SHAPE_FINGERPRINT>
11014199 57 17834680396824418626
11524674 6 17895769507845321398
11578080 2 17897729756383221208
12553582 1 17112684892053717343
12839892 36 18267592479542488176
13140716 1 18194680371986289905
13402501 40 18192144022184348574
138480 1 17329142984449767335
14081887 123 17975144136585464208
14251757 5 18337095771178596228
14363568 33 17399222544348032811
14866123 147 18409738378285855658
15006816 218 18121779688447064711
15403338 16 17059509550676044779
15439362 3 17115804765146624652
16728300 4 17773615981453765187
17093844 170 18336537326572086982
19026451 147 16896818861047484306
19591789 44 18266175226297632854
20028762 73 18260548884287010775
20775438 99 16169798691518471151
20775530 9 17687741645159743678
21634736 98 17912640207707873068
22033318 11 17257049742970358995
22113638 7 18341335474866713037
22182313 1 17338713091210047133
22956985 138 17837206343989313251
229767 44 18268160910507636866
23184049 29 17833553396888327341
23728640 28 18410292480384399779
238918 7 18259700120933871326
3027735 51 18264225728210367909
465052 167 17846200134856920257
508706 21 18261946376050376686
5265222 85 18337662105882810036
5385378 56 18047744095268231089
602551 16 18408045104846095096
6287921 2 18047749588193136115

> <PUBCHEM_SHAPE_MULTIPOLES>
476.95
8.09
5.91
1.23
8.05
6.06
0.07
-1.01
-2.98
-5.72
2.15
0.6
-0.4
-1.11

> <PUBCHEM_SHAPE_SELFOVERLAP>
1011.101

> <PUBCHEM_SHAPE_VOLUME>
270

> <PUBCHEM_COORDINATE_TYPE>
2
5
10

$$$$

