441149
  -OEChem-07051212523D

 22 22  0     1  0  0  0  0  0999 V2000
    0.8596   -0.3070    1.6979 O   0  0  0  0  0  0  0  0  0  0  0  0
   -0.3885   -2.0891    0.2612 O   0  0  0  0  0  0  0  0  0  0  0  0
    1.8798    0.3652   -1.6370 O   0  0  0  0  0  0  0  0  0  0  0  0
    2.9662   -0.5633    0.1389 O   0  0  0  0  0  0  0  0  0  0  0  0
    0.6461    0.0988    0.3493 C   0  0  1  0  0  0  0  0  0  0  0  0
   -0.4442   -0.7836   -0.3171 C   0  0  2  0  0  0  0  0  0  0  0  0
   -1.8472   -0.2068   -0.2109 C   0  0  0  0  0  0  0  0  0  0  0  0
    0.3306    1.5701    0.3356 C   0  0  0  0  0  0  0  0  0  0  0  0
   -2.0294    1.1063    0.0182 C   0  0  0  0  0  0  0  0  0  0  0  0
   -0.9214    2.0167    0.1684 C   0  0  0  0  0  0  0  0  0  0  0  0
    1.9597   -0.0823   -0.3601 C   0  0  0  0  0  0  0  0  0  0  0  0
   -3.0115   -1.1252   -0.4443 C   0  0  0  0  0  0  0  0  0  0  0  0
   -0.2520   -0.9115   -1.3904 H   0  0  0  0  0  0  0  0  0  0  0  0
    1.1302    2.2881    0.4989 H   0  0  0  0  0  0  0  0  0  0  0  0
   -3.0247    1.5365    0.0671 H   0  0  0  0  0  0  0  0  0  0  0  0
   -1.1363    3.0796    0.1808 H   0  0  0  0  0  0  0  0  0  0  0  0
   -3.9661   -0.5883   -0.4486 H   0  0  0  0  0  0  0  0  0  0  0  0
   -3.0628   -1.8860    0.3409 H   0  0  0  0  0  0  0  0  0  0  0  0
   -2.9094   -1.6273   -1.4118 H   0  0  0  0  0  0  0  0  0  0  0  0
    0.9993   -1.2691    1.7074 H   0  0  0  0  0  0  0  0  0  0  0  0
    0.4635   -2.4840    0.0078 H   0  0  0  0  0  0  0  0  0  0  0  0
    2.7283    0.2565   -2.1171 H   0  0  0  0  0  0  0  0  0  0  0  0
  1  5  1  0  0  0  0
  1 20  1  0  0  0  0
  2  6  1  0  0  0  0
  2 21  1  0  0  0  0
  3 11  1  0  0  0  0
  3 22  1  0  0  0  0
  4 11  2  0  0  0  0
  5  6  1  0  0  0  0
  5  8  1  0  0  0  0
  5 11  1  0  0  0  0
  6  7  1  0  0  0  0
  6 13  1  0  0  0  0
  7  9  2  0  0  0  0
  7 12  1  0  0  0  0
  8 10  2  0  0  0  0
  8 14  1  0  0  0  0
  9 10  1  0  0  0  0
  9 15  1  0  0  0  0
 10 16  1  0  0  0  0
 12 17  1  0  0  0  0
 12 18  1  0  0  0  0
 12 19  1  0  0  0  0
M  END
> <PUBCHEM_COMPOUND_CID>
441149

> <PUBCHEM_CONFORMER_RMSD>
0.4

> <PUBCHEM_CONFORMER_DIVERSEORDER>
3
4
2
6
1
5

> <PUBCHEM_MMFF94_PARTIAL_CHARGES>
18
1 -0.68
10 -0.15
11 0.66
12 0.14
14 0.15
15 0.15
16 0.15
2 -0.68
20 0.4
21 0.4
22 0.5
3 -0.65
4 -0.57
5 0.48
6 0.42
7 -0.28
8 -0.29
9 -0.15

> <PUBCHEM_EFFECTIVE_ROTOR_COUNT>
1.4

> <PUBCHEM_PHARMACOPHORE_FEATURES>
8
1 1 acceptor
1 1 donor
1 2 acceptor
1 2 donor
1 3 acceptor
1 4 acceptor
3 3 4 11 anion
6 5 6 7 8 9 10 rings

> <PUBCHEM_HEAVY_ATOM_COUNT>
12

> <PUBCHEM_ATOM_DEF_STEREO_COUNT>
2

> <PUBCHEM_ATOM_UDEF_STEREO_COUNT>
0

> <PUBCHEM_BOND_DEF_STEREO_COUNT>
0

> <PUBCHEM_BOND_UDEF_STEREO_COUNT>
0

> <PUBCHEM_ISOTOPIC_ATOM_COUNT>
0

> <PUBCHEM_COMPONENT_COUNT>
1

> <PUBCHEM_CACTVS_TAUTO_COUNT>
1

> <PUBCHEM_CONFORMER_ID>
0006BB3D00000003

> <PUBCHEM_MMFF94_ENERGY>
18.577

> <PUBCHEM_FEATURE_SELFOVERLAP>
40.683

> <PUBCHEM_SHAPE_FINGERPRINT>
10353120 184 18408881811429605493
11206711 2 18411425016221488685
12423570 1 12461844516978428001
12524768 44 17974017150008995581
12716758 59 18044651138323735684
13024252 1 17702925003133018956
16945 1 18198049301035523964
21040471 1 17903365040979710265
22802520 49 17824528888794168438
23402539 116 18262250953312624758
23552423 10 18198336458254142654
23559900 14 18043253642714614014
241688 4 18334580122665139761
2748010 2 18265066760011236725
29004967 10 15647055996938261564
5084963 1 18040719134566711371
528886 8 18336547226149918161

> <PUBCHEM_SHAPE_MULTIPOLES>
223.48
3.46
1.8
1.02
0.03
0.33
-0.01
-0.96
0.65
0.78
-0.14
-0.52
-0.03
-0.17

> <PUBCHEM_SHAPE_SELFOVERLAP>
464.062

> <PUBCHEM_SHAPE_VOLUME>
125.9

> <PUBCHEM_COORDINATE_TYPE>
2
5
10

$$$$

