125128
  -OEChem-07051212503D

 88 90  0     1  0  0  0  0  0999 V2000
    1.6482   -1.2007    0.3726 O   0  0  0  0  0  0  0  0  0  0  0  0
   -2.2601   -1.3001    0.1842 O   0  0  0  0  0  0  0  0  0  0  0  0
   -3.7456    0.2249   -0.7731 O   0  0  0  0  0  0  0  0  0  0  0  0
   -0.1003   -1.5245    1.8781 O   0  0  0  0  0  0  0  0  0  0  0  0
   -3.4444    3.5538    0.7453 O   0  0  0  0  0  0  0  0  0  0  0  0
    3.4089    1.4747    2.9863 O   0  0  0  0  0  0  0  0  0  0  0  0
   -1.9488   -3.8431   -1.0790 O   0  0  0  0  0  0  0  0  0  0  0  0
   -5.7415   -1.7950   -0.8390 O   0  0  0  0  0  0  0  0  0  0  0  0
   -4.6546   -4.4722   -0.9698 O   0  0  0  0  0  0  0  0  0  0  0  0
   -0.9374    0.8247   -1.0176 O   0  0  0  0  0  0  0  0  0  0  0  0
    2.4821    0.3579   -1.7967 O   0  0  0  0  0  0  0  0  0  0  0  0
   -1.8795    5.2609    0.5031 O   0  0  0  0  0  0  0  0  0  0  0  0
    3.3593   -3.1929   -1.6579 O   0  0  0  0  0  0  0  0  0  0  0  0
    1.4313   -2.8416    3.5770 O   0  0  0  0  0  0  0  0  0  0  0  0
   -6.0848    3.1024    1.3442 O   0  0  0  0  0  0  0  0  0  0  0  0
    2.6301   -3.4104    1.7235 O   0  0  0  0  0  0  0  0  0  0  0  0
    2.4095   -3.1933   -4.2438 O   0  0  0  0  0  0  0  0  0  0  0  0
    4.8200    2.6030   -0.3498 O   0  0  0  0  0  0  0  0  0  0  0  0
    1.4643    3.5996   -0.1108 O   0  0  0  0  0  0  0  0  0  0  0  0
    4.9308    0.5171    0.6774 N   0  0  0  0  0  0  0  0  0  0  0  0
   -0.4532    3.6802   -1.4278 N   0  0  0  0  0  0  0  0  0  0  0  0
    3.5113    0.3113    0.8596 C   0  0  1  0  0  0  0  0  0  0  0  0
    3.0355   -0.9495    0.1204 C   0  0  2  0  0  0  0  0  0  0  0  0
    1.3128   -1.3762    1.7375 C   0  0  2  0  0  0  0  0  0  0  0  0
    3.1819    0.2178    2.3528 C   0  0  2  0  0  0  0  0  0  0  0  0
    1.7177   -0.1550    2.5579 C   0  0  0  0  0  0  0  0  0  0  0  0
   -2.0669   -2.5100    0.9277 C   0  0  1  0  0  0  0  0  0  0  0  0
   -3.1113    1.3121   -0.1048 C   0  0  1  0  0  0  0  0  0  0  0  0
   -3.6362   -0.9820   -0.0190 C   0  0  1  0  0  0  0  0  0  0  0  0
   -2.6543   -3.6961    0.1551 C   0  0  1  0  0  0  0  0  0  0  0  0
   -4.3454   -2.0900   -0.8008 C   0  0  1  0  0  0  0  0  0  0  0  0
   -4.1360   -3.4462   -0.1279 C   0  0  1  0  0  0  0  0  0  0  0  0
   -1.9695    1.8127   -0.9923 C   0  0  1  0  0  0  0  0  0  0  0  0
    3.1858   -0.8135   -1.3931 C   0  0  1  0  0  0  0  0  0  0  0  0
   -4.1168    2.4342    0.1659 C   0  0  1  0  0  0  0  0  0  0  0  0
   -1.3783    3.1229   -0.4630 C   0  0  2  0  0  0  0  0  0  0  0  0
   -0.5698   -2.6605    1.1711 C   0  0  0  0  0  0  0  0  0  0  0  0
   -2.4817    4.1342   -0.1328 C   0  0  1  0  0  0  0  0  0  0  0  0
    2.6691   -2.0403   -2.1545 C   0  0  1  0  0  0  0  0  0  0  0  0
    1.8765   -2.6488    2.3112 C   0  0  0  0  0  0  0  0  0  0  0  0
   -5.2087    2.0084    1.1423 C   0  0  0  0  0  0  0  0  0  0  0  0
    2.9039   -1.9897   -3.6624 C   0  0  0  0  0  0  0  0  0  0  0  0
    5.4611    1.6504    0.0860 C   0  0  0  0  0  0  0  0  0  0  0  0
    0.8912    3.8692   -1.1632 C   0  0  0  0  0  0  0  0  0  0  0  0
    6.9655    1.6200    0.0449 C   0  0  0  0  0  0  0  0  0  0  0  0
    1.6282    4.4391   -2.3454 C   0  0  0  0  0  0  0  0  0  0  0  0
    2.9804    1.1905    0.4736 H   0  0  0  0  0  0  0  0  0  0  0  0
    3.6430   -1.8006    0.4420 H   0  0  0  0  0  0  0  0  0  0  0  0
    3.8319   -0.5201    2.8392 H   0  0  0  0  0  0  0  0  0  0  0  0
    1.5050   -0.2861    3.6265 H   0  0  0  0  0  0  0  0  0  0  0  0
    1.0924    0.6994    2.2591 H   0  0  0  0  0  0  0  0  0  0  0  0
   -2.5712   -2.3928    1.8959 H   0  0  0  0  0  0  0  0  0  0  0  0
   -2.6825    1.0019    0.8597 H   0  0  0  0  0  0  0  0  0  0  0  0
   -4.1267   -0.8269    0.9516 H   0  0  0  0  0  0  0  0  0  0  0  0
   -2.5259   -4.6327    0.7080 H   0  0  0  0  0  0  0  0  0  0  0  0
   -4.0049   -2.1151   -1.8424 H   0  0  0  0  0  0  0  0  0  0  0  0
   -4.7060   -3.4841    0.8088 H   0  0  0  0  0  0  0  0  0  0  0  0
   -2.3185    1.9291   -2.0257 H   0  0  0  0  0  0  0  0  0  0  0  0
    4.2466   -0.6665   -1.6310 H   0  0  0  0  0  0  0  0  0  0  0  0
   -4.6010    2.7584   -0.7653 H   0  0  0  0  0  0  0  0  0  0  0  0
   -0.8183    2.9069    0.4568 H   0  0  0  0  0  0  0  0  0  0  0  0
   -0.3999   -3.5715    1.7557 H   0  0  0  0  0  0  0  0  0  0  0  0
   -0.0625   -2.7603    0.2051 H   0  0  0  0  0  0  0  0  0  0  0  0
   -2.9794    4.4885   -1.0449 H   0  0  0  0  0  0  0  0  0  0  0  0
    5.5611   -0.2080    1.0086 H   0  0  0  0  0  0  0  0  0  0  0  0
    1.5985   -2.1921   -1.9718 H   0  0  0  0  0  0  0  0  0  0  0  0
   -4.7813    1.7381    2.1135 H   0  0  0  0  0  0  0  0  0  0  0  0
   -5.7868    1.1651    0.7530 H   0  0  0  0  0  0  0  0  0  0  0  0
    3.2028    1.3690    3.9308 H   0  0  0  0  0  0  0  0  0  0  0  0
   -0.8180    3.9356   -2.3413 H   0  0  0  0  0  0  0  0  0  0  0  0
   -1.9223   -2.9777   -1.5208 H   0  0  0  0  0  0  0  0  0  0  0  0
   -6.0679   -1.7599    0.0764 H   0  0  0  0  0  0  0  0  0  0  0  0
   -4.4994   -5.3224   -0.5239 H   0  0  0  0  0  0  0  0  0  0  0  0
   -0.6241    0.6896   -0.1069 H   0  0  0  0  0  0  0  0  0  0  0  0
    2.3821   -1.1455   -4.1218 H   0  0  0  0  0  0  0  0  0  0  0  0
    3.9731   -1.9262   -3.8896 H   0  0  0  0  0  0  0  0  0  0  0  0
    2.7252    0.5479   -2.7183 H   0  0  0  0  0  0  0  0  0  0  0  0
   -2.4691    6.0198    0.3560 H   0  0  0  0  0  0  0  0  0  0  0  0
    3.0091   -3.9679   -2.1296 H   0  0  0  0  0  0  0  0  0  0  0  0
    1.7866   -3.6680    3.9682 H   0  0  0  0  0  0  0  0  0  0  0  0
   -6.7692    2.8102    1.9700 H   0  0  0  0  0  0  0  0  0  0  0  0
    7.3610    1.7412    1.0571 H   0  0  0  0  0  0  0  0  0  0  0  0
    7.3133    0.6703   -0.3717 H   0  0  0  0  0  0  0  0  0  0  0  0
    7.3334    2.4344   -0.5851 H   0  0  0  0  0  0  0  0  0  0  0  0
    2.5753   -3.1359   -5.2003 H   0  0  0  0  0  0  0  0  0  0  0  0
    1.7196    3.6737   -3.1209 H   0  0  0  0  0  0  0  0  0  0  0  0
    2.6274    4.7590   -2.0366 H   0  0  0  0  0  0  0  0  0  0  0  0
    1.0920    5.3039   -2.7466 H   0  0  0  0  0  0  0  0  0  0  0  0
  1 23  1  0  0  0  0
  1 24  1  0  0  0  0
  2 27  1  0  0  0  0
  2 29  1  0  0  0  0
  3 28  1  0  0  0  0
  3 29  1  0  0  0  0
  4 24  1  0  0  0  0
  4 37  1  0  0  0  0
  5 35  1  0  0  0  0
  5 38  1  0  0  0  0
  6 25  1  0  0  0  0
  6 69  1  0  0  0  0
  7 30  1  0  0  0  0
  7 71  1  0  0  0  0
  8 31  1  0  0  0  0
  8 72  1  0  0  0  0
  9 32  1  0  0  0  0
  9 73  1  0  0  0  0
 10 33  1  0  0  0  0
 10 74  1  0  0  0  0
 11 34  1  0  0  0  0
 11 77  1  0  0  0  0
 12 38  1  0  0  0  0
 12 78  1  0  0  0  0
 13 39  1  0  0  0  0
 13 79  1  0  0  0  0
 14 40  1  0  0  0  0
 14 80  1  0  0  0  0
 15 41  1  0  0  0  0
 15 81  1  0  0  0  0
 16 40  2  0  0  0  0
 17 42  1  0  0  0  0
 17 85  1  0  0  0  0
 18 43  2  0  0  0  0
 19 44  2  0  0  0  0
 20 22  1  0  0  0  0
 20 43  1  0  0  0  0
 20 65  1  0  0  0  0
 21 36  1  0  0  0  0
 21 44  1  0  0  0  0
 21 70  1  0  0  0  0
 22 23  1  0  0  0  0
 22 25  1  0  0  0  0
 22 47  1  0  0  0  0
 23 34  1  0  0  0  0
 23 48  1  0  0  0  0
 24 26  1  0  0  0  0
 24 40  1  0  0  0  0
 25 26  1  0  0  0  0
 25 49  1  0  0  0  0
 26 50  1  0  0  0  0
 26 51  1  0  0  0  0
 27 30  1  0  0  0  0
 27 37  1  0  0  0  0
 27 52  1  0  0  0  0
 28 33  1  0  0  0  0
 28 35  1  0  0  0  0
 28 53  1  0  0  0  0
 29 31  1  0  0  0  0
 29 54  1  0  0  0  0
 30 32  1  0  0  0  0
 30 55  1  0  0  0  0
 31 32  1  0  0  0  0
 31 56  1  0  0  0  0
 32 57  1  0  0  0  0
 33 36  1  0  0  0  0
 33 58  1  0  0  0  0
 34 39  1  0  0  0  0
 34 59  1  0  0  0  0
 35 41  1  0  0  0  0
 35 60  1  0  0  0  0
 36 38  1  0  0  0  0
 36 61  1  0  0  0  0
 37 62  1  0  0  0  0
 37 63  1  0  0  0  0
 38 64  1  0  0  0  0
 39 42  1  0  0  0  0
 39 66  1  0  0  0  0
 41 67  1  0  0  0  0
 41 68  1  0  0  0  0
 42 75  1  0  0  0  0
 42 76  1  0  0  0  0
 43 45  1  0  0  0  0
 44 46  1  0  0  0  0
 45 82  1  0  0  0  0
 45 83  1  0  0  0  0
 45 84  1  0  0  0  0
 46 86  1  0  0  0  0
 46 87  1  0  0  0  0
 46 88  1  0  0  0  0
M  END
> <PUBCHEM_COMPOUND_CID>
125128

> <PUBCHEM_CONFORMER_RMSD>
1.4

> <PUBCHEM_CONFORMER_DIVERSEORDER>
1
28
23
19
20
27
9
26
22
5
15
16
12
30
14
8
24
31
25
11
17
21
10
29
6
7
13
3
18
2
4

> <PUBCHEM_MMFF94_PARTIAL_CHARGES>
58
1 -0.56
10 -0.68
11 -0.68
12 -0.68
13 -0.68
14 -0.65
15 -0.68
16 -0.57
17 -0.68
18 -0.57
19 -0.57
2 -0.56
20 -0.73
21 -0.73
22 0.3
23 0.28
24 0.62
25 0.28
27 0.28
28 0.28
29 0.56
3 -0.56
30 0.28
31 0.28
32 0.28
33 0.28
34 0.28
35 0.28
36 0.3
37 0.28
38 0.56
39 0.28
4 -0.56
40 0.66
41 0.28
42 0.28
43 0.57
44 0.57
45 0.06
46 0.06
5 -0.56
6 -0.68
65 0.37
69 0.4
7 -0.68
70 0.37
71 0.4
72 0.4
73 0.4
74 0.4
77 0.4
78 0.4
79 0.4
8 -0.68
80 0.5
81 0.4
85 0.4
9 -0.68

> <PUBCHEM_EFFECTIVE_ROTOR_COUNT>
17.6

> <PUBCHEM_PHARMACOPHORE_FEATURES>
35
1 1 acceptor
1 10 acceptor
1 10 donor
1 11 acceptor
1 11 donor
1 12 acceptor
1 12 donor
1 13 acceptor
1 13 donor
1 14 acceptor
1 15 acceptor
1 15 donor
1 16 acceptor
1 17 acceptor
1 17 donor
1 18 acceptor
1 19 acceptor
1 2 acceptor
1 20 donor
1 21 donor
1 3 acceptor
1 4 acceptor
1 5 acceptor
1 6 acceptor
1 6 donor
1 7 acceptor
1 7 donor
1 8 acceptor
1 8 donor
1 9 acceptor
1 9 donor
3 14 16 40 anion
6 1 22 23 24 25 26 rings
6 2 27 29 30 31 32 rings
6 5 28 33 35 36 38 rings

> <PUBCHEM_HEAVY_ATOM_COUNT>
46

> <PUBCHEM_ATOM_DEF_STEREO_COUNT>
16

> <PUBCHEM_ATOM_UDEF_STEREO_COUNT>
0

> <PUBCHEM_BOND_DEF_STEREO_COUNT>
0

> <PUBCHEM_BOND_UDEF_STEREO_COUNT>
0

> <PUBCHEM_ISOTOPIC_ATOM_COUNT>
0

> <PUBCHEM_COMPONENT_COUNT>
1

> <PUBCHEM_CACTVS_TAUTO_COUNT>
4

> <PUBCHEM_CONFORMER_ID>
0001E8C800000001

> <PUBCHEM_MMFF94_ENERGY>
120.5634

> <PUBCHEM_FEATURE_SELFOVERLAP>
177.874

> <PUBCHEM_SHAPE_FINGERPRINT>
11513181 2 18260826024908178615
11578080 2 18113886178607734366
12107698 1 18124038931839981182
13636023 51 17677322965243458636
14725015 67 15174451376288765450
15351339 4 17337323969530469105
15484559 13 16897666589034404807
15975801 100 17698431467125687580
161222 10 18200860872870002812
17977149 70 18192703668764125878
19319366 153 17416098771917767058
20764821 26 18058159519008014496
22121540 332 17971489403264250728
3298306 158 17046550367333603021
392239 28 18202293510988664912
50080093 196 18202848742384650368
550186 7 18336554807247457770
5776283 40 18048011242091033190

> <PUBCHEM_SHAPE_MULTIPOLES>
825.18
11.48
7.23
3.01
0.21
3.86
0.93
2.09
-0.26
5.52
1.76
-3.95
-2.59
-1.1

> <PUBCHEM_SHAPE_SELFOVERLAP>
1704.915

> <PUBCHEM_SHAPE_VOLUME>
463.9

> <PUBCHEM_COORDINATE_TYPE>
2
5
10

$$$$

