4472
  -OEChem-06261200093D

 40 41  0     0  0  0  0  0  0999 V2000
   -1.9449    0.7227   -1.5258 O   0  0  0  0  0  0  0  0  0  0  0  0
    3.2342   -0.5399    1.9592 O   0  0  0  0  0  0  0  0  0  0  0  0
   -3.2680    1.6620    0.1334 N   0  0  0  0  0  0  0  0  0  0  0  0
    1.5221    1.3254    0.8438 N   0  0  0  0  0  0  0  0  0  0  0  0
    2.7345    0.9719    0.2713 N   0  0  0  0  0  0  0  0  0  0  0  0
    7.2179   -0.8637   -0.9873 N   0  0  0  0  0  0  0  0  0  0  0  0
   -0.8964    1.5139    0.5087 C   0  0  0  0  0  0  0  0  0  0  0  0
    0.4321    1.0610   -0.0873 C   0  0  0  0  0  0  0  0  0  0  0  0
   -4.5247    1.5142   -0.5610 C   0  0  0  0  0  0  0  0  0  0  0  0
   -2.0666    1.2452   -0.4211 C   0  0  0  0  0  0  0  0  0  0  0  0
   -5.1841    0.2003   -0.2558 C   0  0  0  0  0  0  0  0  0  0  0  0
   -4.9101   -0.9072   -1.0498 C   0  0  0  0  0  0  0  0  0  0  0  0
   -6.0616    0.1043    0.8179 C   0  0  0  0  0  0  0  0  0  0  0  0
   -5.5223   -2.1280   -0.7663 C   0  0  0  0  0  0  0  0  0  0  0  0
   -6.6739   -1.1166    1.1014 C   0  0  0  0  0  0  0  0  0  0  0  0
    3.5206    0.0274    0.9077 C   0  0  0  0  0  0  0  0  0  0  0  0
   -6.4041   -2.2327    0.3092 C   0  0  0  0  0  0  0  0  0  0  0  0
    4.8138   -0.2841    0.2449 C   0  0  0  0  0  0  0  0  0  0  0  0
    5.8636   -0.7318    1.0110 C   0  0  0  0  0  0  0  0  0  0  0  0
    4.9224   -0.1158   -1.1149 C   0  0  0  0  0  0  0  0  0  0  0  0
    7.0472   -1.0085    0.3459 C   0  0  0  0  0  0  0  0  0  0  0  0
    6.1483   -0.4200   -1.6849 C   0  0  0  0  0  0  0  0  0  0  0  0
   -0.8705    2.5902    0.7203 H   0  0  0  0  0  0  0  0  0  0  0  0
   -1.0855    0.9891    1.4536 H   0  0  0  0  0  0  0  0  0  0  0  0
    0.6031    1.5853   -1.0366 H   0  0  0  0  0  0  0  0  0  0  0  0
    0.3851   -0.0122   -0.3119 H   0  0  0  0  0  0  0  0  0  0  0  0
   -4.3639    1.6201   -1.6406 H   0  0  0  0  0  0  0  0  0  0  0  0
   -5.1682    2.3472   -0.2556 H   0  0  0  0  0  0  0  0  0  0  0  0
   -3.2775    2.0692    1.0642 H   0  0  0  0  0  0  0  0  0  0  0  0
    1.5688    2.3241    1.0436 H   0  0  0  0  0  0  0  0  0  0  0  0
   -4.2289   -0.8388   -1.8931 H   0  0  0  0  0  0  0  0  0  0  0  0
   -6.2775    0.9666    1.4426 H   0  0  0  0  0  0  0  0  0  0  0  0
    3.0254    1.4856   -0.5541 H   0  0  0  0  0  0  0  0  0  0  0  0
   -5.3132   -2.9968   -1.3836 H   0  0  0  0  0  0  0  0  0  0  0  0
   -7.3602   -1.1985    1.9392 H   0  0  0  0  0  0  0  0  0  0  0  0
   -6.8809   -3.1833    0.5300 H   0  0  0  0  0  0  0  0  0  0  0  0
    5.7966   -0.8656    2.0844 H   0  0  0  0  0  0  0  0  0  0  0  0
    4.1115    0.2049   -1.7571 H   0  0  0  0  0  0  0  0  0  0  0  0
    7.9182   -1.3642    0.8867 H   0  0  0  0  0  0  0  0  0  0  0  0
    6.3046   -0.3184   -2.7539 H   0  0  0  0  0  0  0  0  0  0  0  0
  1 10  2  0  0  0  0
  2 16  2  0  0  0  0
  3  9  1  0  0  0  0
  3 10  1  0  0  0  0
  3 29  1  0  0  0  0
  4  5  1  0  0  0  0
  4  8  1  0  0  0  0
  4 30  1  0  0  0  0
  5 16  1  0  0  0  0
  5 33  1  0  0  0  0
  6 21  2  0  0  0  0
  6 22  1  0  0  0  0
  7  8  1  0  0  0  0
  7 10  1  0  0  0  0
  7 23  1  0  0  0  0
  7 24  1  0  0  0  0
  8 25  1  0  0  0  0
  8 26  1  0  0  0  0
  9 11  1  0  0  0  0
  9 27  1  0  0  0  0
  9 28  1  0  0  0  0
 11 12  2  0  0  0  0
 11 13  1  0  0  0  0
 12 14  1  0  0  0  0
 12 31  1  0  0  0  0
 13 15  2  0  0  0  0
 13 32  1  0  0  0  0
 14 17  2  0  0  0  0
 14 34  1  0  0  0  0
 15 17  1  0  0  0  0
 15 35  1  0  0  0  0
 16 18  1  0  0  0  0
 17 36  1  0  0  0  0
 18 19  2  0  0  0  0
 18 20  1  0  0  0  0
 19 21  1  0  0  0  0
 19 37  1  0  0  0  0
 20 22  2  0  0  0  0
 20 38  1  0  0  0  0
 21 39  1  0  0  0  0
 22 40  1  0  0  0  0
M  END
> <PUBCHEM_COMPOUND_CID>
4472

> <PUBCHEM_CONFORMER_RMSD>
0.8

> <PUBCHEM_CONFORMER_DIVERSEORDER>
1
396
406
394
16
410
63
268
164
411
54
47
329
330
414
134
13
378
62
353
389
237
257
297
143
133
431
19
266
188
294
393
340
417
175
432
126
65
18
195
144
386
99
203
235
14
91
261
176
405
153
293
124
364
87
192
137
75
45
420
216
8
419
159
150
284
271
110
422
145
281
412
74
158
372
95
106
259
367
242
187
427
434
231
81
84
196
3
33
310
178
295
243
104
288
200
379
21
296
6
107
169
23
49
433
78
423
228
384
88
5
395
155
2
302
402
29
274
363
245
58
118
116
418
156
277
219
102
387
27
83
120
218
375
140
262
35
172
286
7
390
287
428
342
208
11
269
241
103
244
52
350
256
71
381
160
173
426
15
247
70
40
26
132
403
226
152
202
112
251
409
312
170
371
9
210
34
191
189
43
57
151
41
382
429
73
117
12
108
301
365
101
300
105
332
201
424
352
408
77
348
50
229
177
246
324
341
207
199
292
254
309
331
399
354
214
376
263
157
168
415
39
283
225
380
204
82
289
109
68
121
46
370
407
44
127
236
317
385
368
32
250
85
349
303
190
233
270
305
377
61
248
55
326
181
298
17
198
180
366
362
69
60
86
323
327
206
98
97
325
122
351
230
339
224
38
90
28
347
255
37
115
162
163
223
113
267
320
240
25
24
111
358
369
328
92
59
400
147
313
249
359
76
197
67
142
265
234
232
333
100
227
316
280
22
279
30
285
421
209
31
373
185
304
174
10
282
131
290
193
4
166
322
264
404
217
238
20
66
275
136
171
361
56
89
413
306
318
205
51
179
53
253
336
314
391
212
278
64
346
260
392
252
36
401
272
315
119
430
148
128
239
125
308
335
94
273
141
165
343
72
356
416
154
211
186
222
194
355
135
388
114
307
357
345
220
435
319
321
398
360
213
338
397
383
123
139
183
337
146
130
258
374
129
80
344
167
182
161
48
276
299
311
291
138
149
184
79
425
96
42
93
215
221
334

> <PUBCHEM_MMFF94_PARTIAL_CHARGES>
34
1 -0.57
10 0.57
11 -0.14
12 -0.15
13 -0.15
14 -0.15
15 -0.15
16 0.54
17 -0.15
18 0.09
19 -0.15
2 -0.57
20 -0.15
21 0.16
22 0.16
29 0.37
3 -0.73
30 0.36
31 0.15
32 0.15
33 0.37
34 0.15
35 0.15
36 0.15
37 0.15
38 0.15
39 0.15
4 -0.64
40 0.15
5 -0.42
6 -0.62
7 0.06
8 0.27
9 0.44

> <PUBCHEM_EFFECTIVE_ROTOR_COUNT>
9

> <PUBCHEM_PHARMACOPHORE_FEATURES>
8
1 1 acceptor
1 2 acceptor
1 3 donor
1 4 donor
1 5 donor
1 6 acceptor
6 11 12 13 14 15 17 rings
6 6 18 19 20 21 22 rings

> <PUBCHEM_HEAVY_ATOM_COUNT>
22

> <PUBCHEM_ATOM_DEF_STEREO_COUNT>
0

> <PUBCHEM_ATOM_UDEF_STEREO_COUNT>
0

> <PUBCHEM_BOND_DEF_STEREO_COUNT>
0

> <PUBCHEM_BOND_UDEF_STEREO_COUNT>
0

> <PUBCHEM_ISOTOPIC_ATOM_COUNT>
0

> <PUBCHEM_COMPONENT_COUNT>
1

> <PUBCHEM_CACTVS_TAUTO_COUNT>
6

> <PUBCHEM_CONFORMER_ID>
0000117800000001

> <PUBCHEM_MMFF94_ENERGY>
44.7785

> <PUBCHEM_FEATURE_SELFOVERLAP>
42.079

> <PUBCHEM_SHAPE_FINGERPRINT>
10087517 78 8358263635801580275
10299344 5 18131629002029177313
10693767 8 17415565570158591690
11524674 6 17240766173082577711
11646440 116 17022620884113936674
11963148 33 18341057392925761450
13167372 99 6916259646189186362
13668630 136 18412542150337268438
13673619 4 18410014321260072113
13685833 64 17967252009851306792
13690498 29 18060706096008263805
14123256 34 18335417958809367409
14251764 18 5400792869499256193
14251764 30 18335140907765211032
14344974 204 17896604986132528767
14347424 109 6483355496343680358
14556957 393 16343695577760289341
14598715 104 11095882622979334150
14729087 3 9799689290211659454
14767858 380 17275384309061279240
15003188 100 14979949255958202646
15183329 4 16630809906507186170
15348495 7 16371016148319434859
15352257 5 18261390070152749614
15461852 350 11239987954469158105
15876981 60 17489302044699068725
16079462 125 12391511979591223532
17780758 139 17821727239648031577
18927931 339 18411141329853461629
20281389 69 9439405735306565421
20621476 21 18187079542355644495
21130935 74 5328451593388646372
21150785 3 15626221299716907593
21196832 93 16987704706794586611
21315759 40 18059575841009370274
21623969 137 17095239233319040758
21774942 28 11527682885611728990
220451 1 18059859518972468641
2303208 19 18113623391012493312
23081809 10 17131556140934166440
23424782 7 18342175523483931960
23522609 53 17986364858599815676
2748736 6 9295288339459413267
2767999 5 9295290538587832387
312425 54 15719398312763729110
351380 3 18342744005138543393
3663271 9 4678523698435041924
445580 167 17418086590583728700
465052 167 18259983769374666428
5104073 3 14490774311814090350
54076057 127 17750233613381480160
543368 44 10087650304059598583
636775 8 18261100895011379326
8863177 126 18261117313800861547
9995097 26 18113328722972045870
999808 66 17967812760190603150

> <PUBCHEM_SHAPE_MULTIPOLES>
421.09
23.86
1.86
1.39
9.81
0.26
0.05
13.64
0.87
-3.24
0.04
1.1
0.23
0.26

> <PUBCHEM_SHAPE_SELFOVERLAP>
881.023

> <PUBCHEM_SHAPE_VOLUME>
235.3

> <PUBCHEM_COORDINATE_TYPE>
2
5
10

$$$$

