8108
  -OEChem-06261202353D

 19 18  0     0  0  0  0  0  0999 V2000
   -1.2211    0.3912   -0.1803 O   0  0  0  0  0  0  0  0  0  0  0  0
    1.1690    0.3628   -0.0400 C   0  0  0  0  0  0  0  0  0  0  0  0
    2.4156   -0.5068    0.0966 C   0  0  0  0  0  0  0  0  0  0  0  0
   -0.1028   -0.4734   -0.0354 C   0  0  0  0  0  0  0  0  0  0  0  0
    3.6853    0.3278    0.0482 C   0  0  0  0  0  0  0  0  0  0  0  0
   -2.3917   -0.2924   -0.1661 C   0  0  0  0  0  0  0  0  0  0  0  0
   -3.5543    0.1908    0.2772 C   0  0  0  0  0  0  0  0  0  0  0  0
    1.1263    1.0965    0.7745 H   0  0  0  0  0  0  0  0  0  0  0  0
    1.2141    0.9474   -0.9675 H   0  0  0  0  0  0  0  0  0  0  0  0
    2.4440   -1.2478   -0.7108 H   0  0  0  0  0  0  0  0  0  0  0  0
    2.3824   -1.0592    1.0428 H   0  0  0  0  0  0  0  0  0  0  0  0
   -0.0707   -1.1888   -0.8675 H   0  0  0  0  0  0  0  0  0  0  0  0
   -0.1793   -1.0286    0.9084 H   0  0  0  0  0  0  0  0  0  0  0  0
    3.7653    0.8661   -0.9017 H   0  0  0  0  0  0  0  0  0  0  0  0
    3.7041    1.0605    0.8613 H   0  0  0  0  0  0  0  0  0  0  0  0
    4.5655   -0.3147    0.1494 H   0  0  0  0  0  0  0  0  0  0  0  0
   -2.3278   -1.2949   -0.5686 H   0  0  0  0  0  0  0  0  0  0  0  0
   -4.4517   -0.4169    0.2484 H   0  0  0  0  0  0  0  0  0  0  0  0
   -3.6264    1.1971    0.6744 H   0  0  0  0  0  0  0  0  0  0  0  0
  1  4  1  0  0  0  0
  1  6  1  0  0  0  0
  2  3  1  0  0  0  0
  2  4  1  0  0  0  0
  2  8  1  0  0  0  0
  2  9  1  0  0  0  0
  3  5  1  0  0  0  0
  3 10  1  0  0  0  0
  3 11  1  0  0  0  0
  4 12  1  0  0  0  0
  4 13  1  0  0  0  0
  5 14  1  0  0  0  0
  5 15  1  0  0  0  0
  5 16  1  0  0  0  0
  6  7  2  0  0  0  0
  6 17  1  0  0  0  0
  7 18  1  0  0  0  0
  7 19  1  0  0  0  0
M  END
> <PUBCHEM_COMPOUND_CID>
8108

> <PUBCHEM_CONFORMER_RMSD>
0.6

> <PUBCHEM_CONFORMER_DIVERSEORDER>
1
23
12
4
15
18
19
7
16
22
17
20
6
9
5
21
10
2
13
3
14
8
11

> <PUBCHEM_MMFF94_PARTIAL_CHARGES>
7
1 -0.36
17 0.15
18 0.15
19 0.15
4 0.28
6 -0.07
7 -0.3

> <PUBCHEM_EFFECTIVE_ROTOR_COUNT>
4

> <PUBCHEM_PHARMACOPHORE_FEATURES>
2
1 1 acceptor
1 5 hydrophobe

> <PUBCHEM_HEAVY_ATOM_COUNT>
7

> <PUBCHEM_ATOM_DEF_STEREO_COUNT>
0

> <PUBCHEM_ATOM_UDEF_STEREO_COUNT>
0

> <PUBCHEM_BOND_DEF_STEREO_COUNT>
0

> <PUBCHEM_BOND_UDEF_STEREO_COUNT>
0

> <PUBCHEM_ISOTOPIC_ATOM_COUNT>
0

> <PUBCHEM_COMPONENT_COUNT>
1

> <PUBCHEM_CACTVS_TAUTO_COUNT>
1

> <PUBCHEM_CONFORMER_ID>
00001FAC00000001

> <PUBCHEM_MMFF94_ENERGY>
7.142

> <PUBCHEM_FEATURE_SELFOVERLAP>
10.148

> <PUBCHEM_SHAPE_FINGERPRINT>
11062470 55 17094959944169381888
12932764 1 17023198148802997686
14325111 11 18410012143305029366
14390081 3 7853573504536783839
5460574 1 8214142962556160198

> <PUBCHEM_SHAPE_MULTIPOLES>
138.19
6.59
0.74
0.62
0
0.03
0.01
-0.57
0.47
-0.1
0
0.03
0
-0.05

> <PUBCHEM_SHAPE_SELFOVERLAP>
240.813

> <PUBCHEM_SHAPE_VOLUME>
92

> <PUBCHEM_COORDINATE_TYPE>
2
5
10

$$$$

