26305
  -OEChem-07051212573D

 32 34  0     1  0  0  0  0  0999 V2000
   -1.7850    1.0920    0.2596 O   0  0  0  0  0  0  0  0  0  0  0  0
   -3.7672    0.2376   -1.5332 O   0  0  0  0  0  0  0  0  0  0  0  0
    3.0355    1.2130   -0.0073 O   0  0  0  0  0  0  0  0  0  0  0  0
    5.3218    1.1850   -0.1349 O   0  0  0  0  0  0  0  0  0  0  0  0
   -2.6590   -0.0221    0.5806 C   0  0  1  0  0  0  0  0  0  0  0  0
   -3.9919    0.1794   -0.1215 C   0  0  0  0  0  0  0  0  0  0  0  0
   -1.9669   -1.3298    0.1665 C   0  0  0  0  0  0  0  0  0  0  0  0
   -0.5626   -0.8620    0.1587 C   0  0  0  0  0  0  0  0  0  0  0  0
   -0.5380    0.5256    0.1880 C   0  0  0  0  0  0  0  0  0  0  0  0
   -4.6533    1.4897    0.3133 C   0  0  0  0  0  0  0  0  0  0  0  0
   -4.9297   -1.0008    0.1403 C   0  0  0  0  0  0  0  0  0  0  0  0
    0.6083   -1.5981    0.0702 C   0  0  0  0  0  0  0  0  0  0  0  0
    0.6421    1.2381    0.1275 C   0  0  0  0  0  0  0  0  0  0  0  0
    1.8233   -0.9054    0.0203 C   0  0  0  0  0  0  0  0  0  0  0  0
    1.8207    0.4965    0.0481 C   0  0  0  0  0  0  0  0  0  0  0  0
    3.0982   -1.5982   -0.0680 C   0  0  0  0  0  0  0  0  0  0  0  0
    4.2396   -0.9072   -0.1188 C   0  0  0  0  0  0  0  0  0  0  0  0
    4.2641    0.5665   -0.0894 C   0  0  0  0  0  0  0  0  0  0  0  0
   -2.8001   -0.0106    1.6715 H   0  0  0  0  0  0  0  0  0  0  0  0
   -2.1479   -2.1282    0.8919 H   0  0  0  0  0  0  0  0  0  0  0  0
   -2.2379   -1.6725   -0.8372 H   0  0  0  0  0  0  0  0  0  0  0  0
   -4.0420    2.3560    0.0371 H   0  0  0  0  0  0  0  0  0  0  0  0
   -4.8265    1.5139    1.3942 H   0  0  0  0  0  0  0  0  0  0  0  0
   -5.6166    1.6269   -0.1918 H   0  0  0  0  0  0  0  0  0  0  0  0
   -5.0946   -1.1526    1.2122 H   0  0  0  0  0  0  0  0  0  0  0  0
   -5.9050   -0.8322   -0.3320 H   0  0  0  0  0  0  0  0  0  0  0  0
   -4.5495   -1.9325   -0.2919 H   0  0  0  0  0  0  0  0  0  0  0  0
    0.5735   -2.6826    0.0346 H   0  0  0  0  0  0  0  0  0  0  0  0
    0.6525    2.3217    0.1445 H   0  0  0  0  0  0  0  0  0  0  0  0
   -4.6259    0.3711   -1.9699 H   0  0  0  0  0  0  0  0  0  0  0  0
    3.1067   -2.6823   -0.0914 H   0  0  0  0  0  0  0  0  0  0  0  0
    5.1929   -1.4204   -0.1843 H   0  0  0  0  0  0  0  0  0  0  0  0
  1  5  1  0  0  0  0
  1  9  1  0  0  0  0
  2  6  1  0  0  0  0
  2 30  1  0  0  0  0
  3 15  1  0  0  0  0
  3 18  1  0  0  0  0
  4 18  2  0  0  0  0
  5  6  1  0  0  0  0
  5  7  1  0  0  0  0
  5 19  1  0  0  0  0
  6 10  1  0  0  0  0
  6 11  1  0  0  0  0
  7  8  1  0  0  0  0
  7 20  1  0  0  0  0
  7 21  1  0  0  0  0
  8  9  2  0  0  0  0
  8 12  1  0  0  0  0
  9 13  1  0  0  0  0
 10 22  1  0  0  0  0
 10 23  1  0  0  0  0
 10 24  1  0  0  0  0
 11 25  1  0  0  0  0
 11 26  1  0  0  0  0
 11 27  1  0  0  0  0
 12 14  2  0  0  0  0
 12 28  1  0  0  0  0
 13 15  2  0  0  0  0
 13 29  1  0  0  0  0
 14 15  1  0  0  0  0
 14 16  1  0  0  0  0
 16 17  2  0  0  0  0
 16 31  1  0  0  0  0
 17 18  1  0  0  0  0
 17 32  1  0  0  0  0
M  END
> <PUBCHEM_COMPOUND_CID>
26305

> <PUBCHEM_CONFORMER_RMSD>
0.6

> <PUBCHEM_CONFORMER_DIVERSEORDER>
1
2
3

> <PUBCHEM_MMFF94_PARTIAL_CHARGES>
21
1 -0.36
12 -0.15
13 -0.15
14 0.03
15 0.08
16 -0.18
17 -0.14
18 0.71
2 -0.68
28 0.15
29 0.15
3 -0.23
30 0.4
31 0.15
32 0.15
4 -0.57
5 0.28
6 0.28
7 0.14
8 -0.14
9 0.08

> <PUBCHEM_EFFECTIVE_ROTOR_COUNT>
1.6

> <PUBCHEM_PHARMACOPHORE_FEATURES>
8
1 1 acceptor
1 2 acceptor
1 2 donor
1 4 acceptor
3 6 10 11 hydrophobe
5 1 5 7 8 9 rings
6 3 14 15 16 17 18 rings
6 8 9 12 13 14 15 rings

> <PUBCHEM_HEAVY_ATOM_COUNT>
18

> <PUBCHEM_ATOM_DEF_STEREO_COUNT>
1

> <PUBCHEM_ATOM_UDEF_STEREO_COUNT>
0

> <PUBCHEM_BOND_DEF_STEREO_COUNT>
0

> <PUBCHEM_BOND_UDEF_STEREO_COUNT>
0

> <PUBCHEM_ISOTOPIC_ATOM_COUNT>
0

> <PUBCHEM_COMPONENT_COUNT>
1

> <PUBCHEM_CACTVS_TAUTO_COUNT>
1

> <PUBCHEM_CONFORMER_ID>
000066C100000001

> <PUBCHEM_MMFF94_ENERGY>
62.1675

> <PUBCHEM_FEATURE_SELFOVERLAP>
40.73

> <PUBCHEM_SHAPE_FINGERPRINT>
11401426 45 18408325483872675265
11471102 20 18410293618851361278
11543360 7 16008752372830005384
11806522 49 18409729551752801355
12236239 1 17894347796022914459
12670546 56 16128389197766073216
13583140 156 16702021946255010577
13675066 3 17989199339356040946
13760787 5 18408889572055857031
14576447 43 18042138582661694183
15196674 1 18410291432217219971
15375358 24 18342454837786014226
15536298 74 18334573564355508554
16945 1 18339354270550672794
17834072 33 18187085035523590958
18186145 218 18131071571335669011
19489759 90 16272212989775497333
200 152 18040155119376920163
20645477 70 18409445925330324062
21029758 11 18260831500891760569
21267235 1 18337099137916413666
221490 88 18196085547931275947
231179 274 17775291572918121510
23402539 116 18186805793982764685
23402655 69 18261112997364003717
23559900 14 18411135853612260786
296302 2 18411416228517810575
29717793 49 17604147133398887756
34797466 226 16443344226412679104
34934 24 18410296891516376498
3545911 37 18411978036089149898
4214541 1 18410572903278751961
4340502 62 16774076275901451146
474 4 17845929629062925436
4990 188 17967244312905798822
5104073 3 18411417336513969851
537710 114 18408318882945947168
542803 24 17530679922620483379
633830 44 18337109080902724287
69090 78 18335140890495710014
77779 3 18410290332853259243
9709674 26 18409440405870054719

> <PUBCHEM_SHAPE_MULTIPOLES>
346.95
10.43
1.65
0.73
0.45
0.12
-0.14
-1.72
-0.76
-0.35
0.07
0.48
-0.01
-0.02

> <PUBCHEM_SHAPE_SELFOVERLAP>
763.442

> <PUBCHEM_SHAPE_VOLUME>
188.8

> <PUBCHEM_COORDINATE_TYPE>
2
5
10

$$$$

