10452259
  -OEChem-07051213093D

 57 60  0     1  0  0  0  0  0999 V2000
    1.0207   -2.4856   -0.6275 O   0  0  0  0  0  0  0  0  0  0  0  0
    0.2018    2.8610   -0.2539 O   0  0  0  0  0  0  0  0  0  0  0  0
    2.9103    3.3422    0.2314 O   0  0  0  0  0  0  0  0  0  0  0  0
   -1.5742    1.5360   -1.5172 O   0  0  0  0  0  0  0  0  0  0  0  0
   -4.3270    1.3312   -1.2338 O   0  0  0  0  0  0  0  0  0  0  0  0
    2.3259   -2.9581   -2.3949 O   0  0  0  0  0  0  0  0  0  0  0  0
    1.4334   -0.5682    0.9154 C   0  0  2  0  0  0  0  0  0  0  0  0
    0.4553    0.4483    0.2091 C   0  0  1  0  0  0  0  0  0  0  0  0
   -1.0873    0.2298    0.5189 C   0  0  1  0  0  0  0  0  0  0  0  0
    2.8450   -0.4627    0.2633 C   0  0  2  0  0  0  0  0  0  0  0  0
    0.9547   -2.0166    0.7384 C   0  0  1  0  0  0  0  0  0  0  0  0
   -1.4570   -1.2960    0.4283 C   0  0  1  0  0  0  0  0  0  0  0  0
    1.0142    1.8924    0.4053 C   0  0  1  0  0  0  0  0  0  0  0  0
   -0.4939   -2.2096    1.1979 C   0  0  0  0  0  0  0  0  0  0  0  0
    3.4213    0.9752    0.3819 C   0  0  2  0  0  0  0  0  0  0  0  0
    2.4444    2.0425   -0.1467 C   0  0  2  0  0  0  0  0  0  0  0  0
    1.6015   -0.3212    2.4435 C   0  0  0  0  0  0  0  0  0  0  0  0
    2.8468   -0.9749   -1.1803 C   0  0  0  0  0  0  0  0  0  0  0  0
   -2.9469   -1.5551    0.8008 C   0  0  1  0  0  0  0  0  0  0  0  0
   -1.4986    0.8846    1.8561 C   0  0  0  0  0  0  0  0  0  0  0  0
   -1.9891    0.8342   -0.5978 C   0  0  0  0  0  0  0  0  0  0  0  0
    4.8028    1.1025   -0.2765 C   0  0  0  0  0  0  0  0  0  0  0  0
    2.0782   -2.2422   -1.4270 C   0  0  0  0  0  0  0  0  0  0  0  0
   -3.8622   -0.5730    0.1050 C   0  0  0  0  0  0  0  0  0  0  0  0
   -3.4468    0.5122   -0.5638 C   0  0  0  0  0  0  0  0  0  0  0  0
   -3.3948   -2.9793    0.4469 C   0  0  0  0  0  0  0  0  0  0  0  0
   -4.2786    2.6505   -0.7229 C   0  0  0  0  0  0  0  0  0  0  0  0
    0.5217    0.2577   -0.8715 H   0  0  0  0  0  0  0  0  0  0  0  0
    3.5211   -1.1287    0.8213 H   0  0  0  0  0  0  0  0  0  0  0  0
    1.5865   -2.7010    1.3199 H   0  0  0  0  0  0  0  0  0  0  0  0
   -1.3557   -1.5811   -0.6323 H   0  0  0  0  0  0  0  0  0  0  0  0
    1.0009    2.1813    1.4598 H   0  0  0  0  0  0  0  0  0  0  0  0
   -0.6006   -2.0556    2.2757 H   0  0  0  0  0  0  0  0  0  0  0  0
   -0.7585   -3.2562    1.0085 H   0  0  0  0  0  0  0  0  0  0  0  0
    3.6001    1.1847    1.4448 H   0  0  0  0  0  0  0  0  0  0  0  0
    2.4122    2.0298   -1.2431 H   0  0  0  0  0  0  0  0  0  0  0  0
    1.8686    0.7075    2.6931 H   0  0  0  0  0  0  0  0  0  0  0  0
    0.7104   -0.5638    3.0208 H   0  0  0  0  0  0  0  0  0  0  0  0
    2.3990   -0.9578    2.8473 H   0  0  0  0  0  0  0  0  0  0  0  0
    3.8828   -1.1762   -1.4799 H   0  0  0  0  0  0  0  0  0  0  0  0
    2.4496   -0.2260   -1.8734 H   0  0  0  0  0  0  0  0  0  0  0  0
   -3.0824   -1.4291    1.8826 H   0  0  0  0  0  0  0  0  0  0  0  0
   -1.2051    1.9379    1.8957 H   0  0  0  0  0  0  0  0  0  0  0  0
   -2.5812    0.8909    2.0164 H   0  0  0  0  0  0  0  0  0  0  0  0
   -1.0684    0.3784    2.7192 H   0  0  0  0  0  0  0  0  0  0  0  0
    5.2872    2.0425    0.0077 H   0  0  0  0  0  0  0  0  0  0  0  0
    5.4623    0.2892    0.0445 H   0  0  0  0  0  0  0  0  0  0  0  0
    4.7358    1.0817   -1.3690 H   0  0  0  0  0  0  0  0  0  0  0  0
   -4.9305   -0.7751    0.1488 H   0  0  0  0  0  0  0  0  0  0  0  0
    0.1975    2.6502   -1.2030 H   0  0  0  0  0  0  0  0  0  0  0  0
   -4.4685   -3.1122    0.6243 H   0  0  0  0  0  0  0  0  0  0  0  0
   -3.1991   -3.2109   -0.6061 H   0  0  0  0  0  0  0  0  0  0  0  0
   -2.8818   -3.7242    1.0622 H   0  0  0  0  0  0  0  0  0  0  0  0
    3.7038    3.5373   -0.2947 H   0  0  0  0  0  0  0  0  0  0  0  0
   -5.1531    3.1886   -1.1020 H   0  0  0  0  0  0  0  0  0  0  0  0
   -3.3907    3.1875   -1.0699 H   0  0  0  0  0  0  0  0  0  0  0  0
   -4.3290    2.6668    0.3723 H   0  0  0  0  0  0  0  0  0  0  0  0
  1 11  1  0  0  0  0
  1 23  1  0  0  0  0
  2 13  1  0  0  0  0
  2 50  1  0  0  0  0
  3 16  1  0  0  0  0
  3 54  1  0  0  0  0
  4 21  2  0  0  0  0
  5 25  1  0  0  0  0
  5 27  1  0  0  0  0
  6 23  2  0  0  0  0
  7  8  1  0  0  0  0
  7 10  1  0  0  0  0
  7 11  1  0  0  0  0
  7 17  1  0  0  0  0
  8  9  1  0  0  0  0
  8 13  1  0  0  0  0
  8 28  1  0  0  0  0
  9 12  1  0  0  0  0
  9 20  1  0  0  0  0
  9 21  1  0  0  0  0
 10 15  1  0  0  0  0
 10 18  1  0  0  0  0
 10 29  1  0  0  0  0
 11 14  1  0  0  0  0
 11 30  1  0  0  0  0
 12 14  1  0  0  0  0
 12 19  1  0  0  0  0
 12 31  1  0  0  0  0
 13 16  1  0  0  0  0
 13 32  1  0  0  0  0
 14 33  1  0  0  0  0
 14 34  1  0  0  0  0
 15 16  1  0  0  0  0
 15 22  1  0  0  0  0
 15 35  1  0  0  0  0
 16 36  1  0  0  0  0
 17 37  1  0  0  0  0
 17 38  1  0  0  0  0
 17 39  1  0  0  0  0
 18 23  1  0  0  0  0
 18 40  1  0  0  0  0
 18 41  1  0  0  0  0
 19 24  1  0  0  0  0
 19 26  1  0  0  0  0
 19 42  1  0  0  0  0
 20 43  1  0  0  0  0
 20 44  1  0  0  0  0
 20 45  1  0  0  0  0
 21 25  1  0  0  0  0
 22 46  1  0  0  0  0
 22 47  1  0  0  0  0
 22 48  1  0  0  0  0
 24 25  2  0  0  0  0
 24 49  1  0  0  0  0
 26 51  1  0  0  0  0
 26 52  1  0  0  0  0
 26 53  1  0  0  0  0
 27 55  1  0  0  0  0
 27 56  1  0  0  0  0
 27 57  1  0  0  0  0
M  END
> <PUBCHEM_COMPOUND_CID>
10452259

> <PUBCHEM_CONFORMER_RMSD>
0.6

> <PUBCHEM_CONFORMER_DIVERSEORDER>
1

> <PUBCHEM_MMFF94_PARTIAL_CHARGES>
20
1 -0.43
11 0.28
13 0.28
16 0.28
18 0.06
19 0.14
2 -0.68
21 0.49
23 0.66
24 -0.29
25 0.09
27 0.28
3 -0.68
4 -0.57
49 0.15
5 -0.36
50 0.4
54 0.4
6 -0.57
9 0.06

> <PUBCHEM_EFFECTIVE_ROTOR_COUNT>
2.4

> <PUBCHEM_PHARMACOPHORE_FEATURES>
11
1 2 acceptor
1 2 donor
1 3 acceptor
1 3 donor
1 4 acceptor
1 5 acceptor
1 6 acceptor
6 1 7 10 11 18 23 rings
6 7 8 10 13 15 16 rings
6 7 8 9 11 12 14 rings
6 9 12 19 21 24 25 rings

> <PUBCHEM_HEAVY_ATOM_COUNT>
27

> <PUBCHEM_ATOM_DEF_STEREO_COUNT>
10

> <PUBCHEM_ATOM_UDEF_STEREO_COUNT>
0

> <PUBCHEM_BOND_DEF_STEREO_COUNT>
0

> <PUBCHEM_BOND_UDEF_STEREO_COUNT>
0

> <PUBCHEM_ISOTOPIC_ATOM_COUNT>
0

> <PUBCHEM_COMPONENT_COUNT>
1

> <PUBCHEM_CACTVS_TAUTO_COUNT>
3

> <PUBCHEM_CONFORMER_ID>
009F7D2300000001

> <PUBCHEM_MMFF94_ENERGY>
110.8645

> <PUBCHEM_FEATURE_SELFOVERLAP>
56.03

> <PUBCHEM_SHAPE_FINGERPRINT>
10498660 4 18201156654403387781
10616163 171 18341899537206172725
10646746 165 18202286866230684984
10675989 125 17694521629236857765
10863032 1 18201449055413026034
10871710 139 16250807345287890108
10906281 52 18338508751016043992
10948715 1 18342181007798206384
10967382 1 18198916992135924769
1100329 8 17187291703674186376
11370993 70 18338241461688402008
11640471 11 15482088497912053830
116883 192 17974008645773718276
12156800 1 15162996806079876029
12553582 1 17759222377834882250
12633257 1 17986694725014299729
12788726 201 18116723013329247401
13140716 1 18271260360159807753
13224815 77 18343587309071901979
13464514 151 18342178898737213920
14223421 5 18340202973621555539
14251757 17 18337665412395782363
14659021 117 16675546036887303238
14790565 3 17979916343699927029
15210252 30 17771613826693229164
15475509 8 17176575820906656437
16945 1 17977654635079704722
17492 54 17691975855742704359
17980427 23 17905935544446076832
20600515 1 17980229639629554112
20775438 99 18191895472638088839
20905425 154 18200600185212796144
22182313 1 18339065047511177299
22393880 68 18341898463200487724
23114952 82 18335979873718076470
23227448 37 18341055133956638263
23419403 2 17406494404942697434
23557571 272 18271519819344888955
23559900 14 18338521945128995642
23566358 2 18409442601035731639
238 59 17975161784615996317
25222932 49 17196297314245430467
2748010 2 18341043025910866530
3380486 77 17836665380099639547
350125 39 18198055889705494113
35225 105 14112798528138633694
4280585 95 17975129052924207630
46194498 28 18334851697789881559
495365 180 17968959495026503472
5262128 65 18043239343792539734
633830 44 18120385512757947101
9709674 26 18409731776841383463
9862522 239 17833005853267914344

> <PUBCHEM_SHAPE_MULTIPOLES>
520.43
7.28
3.57
1.61
2.11
0.07
-0.04
2.47
1.76
0.19
0.89
-0.48
-0.7
1.84

> <PUBCHEM_SHAPE_SELFOVERLAP>
1115.769

> <PUBCHEM_SHAPE_VOLUME>
281

> <PUBCHEM_COORDINATE_TYPE>
2
5
10

$$$$

