5354198
  -OEChem-07051213143D

 25 26  0     0  0  0  0  0  0999 V2000
   -5.1921    0.6122   -0.5102 O   0  0  0  0  0  0  0  0  0  0  0  0
    0.7339    0.3009    0.5955 N   0  0  0  0  0  0  0  0  0  0  0  0
   -0.0852   -0.7651    0.5550 N   0  0  0  0  0  0  0  0  0  0  0  0
    2.0852    0.1771    0.2360 C   0  0  0  0  0  0  0  0  0  0  0  0
   -1.3158   -0.4531    0.3002 C   0  0  0  0  0  0  0  0  0  0  0  0
    2.9307    1.2897    0.2831 C   0  0  0  0  0  0  0  0  0  0  0  0
    2.5955   -1.0593   -0.1716 C   0  0  0  0  0  0  0  0  0  0  0  0
   -2.3921   -1.4648    0.2076 C   0  0  0  0  0  0  0  0  0  0  0  0
   -1.7004    0.9623    0.0875 C   0  0  0  0  0  0  0  0  0  0  0  0
    4.2736    1.1671   -0.0737 C   0  0  0  0  0  0  0  0  0  0  0  0
    3.9384   -1.1819   -0.5284 C   0  0  0  0  0  0  0  0  0  0  0  0
   -3.6535   -1.1176   -0.0565 C   0  0  0  0  0  0  0  0  0  0  0  0
   -2.9625    1.3073   -0.1764 C   0  0  0  0  0  0  0  0  0  0  0  0
    4.7774   -0.0688   -0.4795 C   0  0  0  0  0  0  0  0  0  0  0  0
   -4.0332    0.2940   -0.2684 C   0  0  0  0  0  0  0  0  0  0  0  0
    2.5511    2.2591    0.5966 H   0  0  0  0  0  0  0  0  0  0  0  0
    1.9717   -1.9479   -0.2220 H   0  0  0  0  0  0  0  0  0  0  0  0
    0.4913    1.1202    1.1420 H   0  0  0  0  0  0  0  0  0  0  0  0
   -2.1224   -2.5039    0.3616 H   0  0  0  0  0  0  0  0  0  0  0  0
   -0.9855    1.7751    0.1009 H   0  0  0  0  0  0  0  0  0  0  0  0
    4.9270    2.0338   -0.0360 H   0  0  0  0  0  0  0  0  0  0  0  0
    4.3311   -2.1439   -0.8445 H   0  0  0  0  0  0  0  0  0  0  0  0
   -4.4357   -1.8653   -0.1227 H   0  0  0  0  0  0  0  0  0  0  0  0
   -3.2362    2.3432   -0.3435 H   0  0  0  0  0  0  0  0  0  0  0  0
    5.8230   -0.1642   -0.7573 H   0  0  0  0  0  0  0  0  0  0  0  0
  1 15  2  0  0  0  0
  2  3  1  0  0  0  0
  2  4  1  0  0  0  0
  2 18  1  0  0  0  0
  3  5  2  0  0  0  0
  4  6  2  0  0  0  0
  4  7  1  0  0  0  0
  5  8  1  0  0  0  0
  5  9  1  0  0  0  0
  6 10  1  0  0  0  0
  6 16  1  0  0  0  0
  7 11  2  0  0  0  0
  7 17  1  0  0  0  0
  8 12  2  0  0  0  0
  8 19  1  0  0  0  0
  9 13  2  0  0  0  0
  9 20  1  0  0  0  0
 10 14  2  0  0  0  0
 10 21  1  0  0  0  0
 11 14  1  0  0  0  0
 11 22  1  0  0  0  0
 12 15  1  0  0  0  0
 12 23  1  0  0  0  0
 13 15  1  0  0  0  0
 13 24  1  0  0  0  0
 14 25  1  0  0  0  0
M  END
> <PUBCHEM_COMPOUND_CID>
5354198

> <PUBCHEM_CONFORMER_RMSD>
0.6

> <PUBCHEM_CONFORMER_DIVERSEORDER>
1
2
3
4

> <PUBCHEM_MMFF94_PARTIAL_CHARGES>
25
1 -0.57
10 -0.15
11 -0.15
12 -0.14
13 -0.14
14 -0.15
15 0.54
16 0.15
17 0.15
18 0.4
19 0.15
2 -0.46
20 0.15
21 0.15
22 0.15
23 0.15
24 0.15
25 0.15
3 -0.49
4 0.1
5 0.42
6 -0.15
7 -0.15
8 -0.14
9 -0.14

> <PUBCHEM_EFFECTIVE_ROTOR_COUNT>
2

> <PUBCHEM_PHARMACOPHORE_FEATURES>
5
1 1 acceptor
1 2 donor
1 3 acceptor
6 4 6 7 10 11 14 rings
6 5 8 9 12 13 15 rings

> <PUBCHEM_HEAVY_ATOM_COUNT>
15

> <PUBCHEM_ATOM_DEF_STEREO_COUNT>
0

> <PUBCHEM_ATOM_UDEF_STEREO_COUNT>
0

> <PUBCHEM_BOND_DEF_STEREO_COUNT>
0

> <PUBCHEM_BOND_UDEF_STEREO_COUNT>
0

> <PUBCHEM_ISOTOPIC_ATOM_COUNT>
0

> <PUBCHEM_COMPONENT_COUNT>
1

> <PUBCHEM_CACTVS_TAUTO_COUNT>
3

> <PUBCHEM_CONFORMER_ID>
0051B2D600000001

> <PUBCHEM_MMFF94_ENERGY>
52.4704

> <PUBCHEM_FEATURE_SELFOVERLAP>
25.371

> <PUBCHEM_SHAPE_FINGERPRINT>
10014705 185 18202567267787409613
10498660 4 17988935503979164645
10608611 8 18410576158721680504
11471102 20 18334574642571524480
12916748 109 18131066047860065921
13081056 2 18413389843057355229
15196674 1 18410573963681915407
15242439 84 18410292518775224598
17834072 33 18261395515970249206
18186145 218 18131639979897039990
1986462 14 18412542110975797735
200 152 17458063768001353467
20279233 1 18408880733313874642
20300324 65 18334859398818807765
204376 136 14333407848065314017
20645477 56 18272089387916662409
20645477 70 18187362168694976294
20871999 31 18335992952410645871
221357 26 18334297599442433341
22485316 2 18114183012345037702
22646028 1 4823217203809779118
23402539 116 18340775861854980310
23402655 69 18407758131989251708
23557571 272 18339353059581008791
23559900 14 18408043987975191632
29717793 49 17240756311705536812
3268164 11 17775295953906115751
3545911 37 18412824681243054324
4028521 119 18202007654923415533
4214541 1 18409728482253275049
474 4 17059487410230520188
4990 188 18409164433109959934
5104073 3 18411136922241168026
5281201 14 18410567397130691756
542803 24 16200431368655471614
633830 44 17917713474406376166
69090 78 18408044008975332807
77779 3 18409728456541344158
93112 12 18409446981654356266
9709674 26 18410004408343716606

> <PUBCHEM_SHAPE_MULTIPOLES>
292.86
10.76
1.49
0.71
0.04
0.04
0.01
-0.91
2.19
0.01
0.02
0.07
0.01
0.49

> <PUBCHEM_SHAPE_SELFOVERLAP>
625.963

> <PUBCHEM_SHAPE_VOLUME>
161.4

> <PUBCHEM_COORDINATE_TYPE>
2
5
10

$$$$

