156
  -OEChem-07051212502D

 18 19  0     0  0  0  0  0  0999 V2000
    2.8660    1.0000    0.0000 N   0  0  0  0  0  0  0  0  0  0  0  0
    2.8660   -1.0000    0.0000 N   0  0  0  0  0  0  0  0  0  0  0  0
    4.6260   -1.0347    0.0000 N   0  0  0  0  0  0  0  0  0  0  0  0
    5.5321    0.5208    0.0000 N   0  0  0  0  0  0  0  0  0  0  0  0
    2.0000    0.5000    0.0000 C   0  0  0  0  0  0  0  0  0  0  0  0
    2.0000   -0.5000    0.0000 C   0  0  0  0  0  0  0  0  0  0  0  0
    3.7320    0.5000    0.0000 C   0  0  0  0  0  0  0  0  0  0  0  0
    3.7320   -0.5000    0.0000 C   0  0  0  0  0  0  0  0  0  0  0  0
    4.6260    1.0347    0.0000 C   0  0  0  0  0  0  0  0  0  0  0  0
    5.5321   -0.5208    0.0000 C   0  0  0  0  0  0  0  0  0  0  0  0
    1.7880    1.0826    0.0000 H   0  0  0  0  0  0  0  0  0  0  0  0
    1.3894    0.3923    0.0000 H   0  0  0  0  0  0  0  0  0  0  0  0
    1.3894   -0.3923    0.0000 H   0  0  0  0  0  0  0  0  0  0  0  0
    1.7880   -1.0826    0.0000 H   0  0  0  0  0  0  0  0  0  0  0  0
    2.8660    1.6200    0.0000 H   0  0  0  0  0  0  0  0  0  0  0  0
    2.8660   -1.6200    0.0000 H   0  0  0  0  0  0  0  0  0  0  0  0
    4.6188    1.6546    0.0000 H   0  0  0  0  0  0  0  0  0  0  0  0
    6.0678   -0.8329    0.0000 H   0  0  0  0  0  0  0  0  0  0  0  0
  1  5  1  0  0  0  0
  1  7  1  0  0  0  0
  1 15  1  0  0  0  0
  2  6  1  0  0  0  0
  2  8  1  0  0  0  0
  2 16  1  0  0  0  0
  3  8  2  0  0  0  0
  3 10  1  0  0  0  0
  4  9  1  0  0  0  0
  4 10  2  0  0  0  0
  5  6  1  0  0  0  0
  5 11  1  0  0  0  0
  5 12  1  0  0  0  0
  6 13  1  0  0  0  0
  6 14  1  0  0  0  0
  7  8  1  0  0  0  0
  7  9  2  0  0  0  0
  9 17  1  0  0  0  0
 10 18  1  0  0  0  0
M  END
> <PUBCHEM_COMPOUND_CID>
156

> <PUBCHEM_COMPOUND_CANONICALIZED>
1

> <PUBCHEM_CACTVS_COMPLEXITY>
116

> <PUBCHEM_CACTVS_HBOND_ACCEPTOR>
4

> <PUBCHEM_CACTVS_HBOND_DONOR>
2

> <PUBCHEM_CACTVS_ROTATABLE_BOND>
0

> <PUBCHEM_CACTVS_SUBSKEYS>
AAADccBjgAAAAAAAAAAAAAAAAAAAAAAAAAAsWAAAAAAAAACxgAAAHAAQAAAACAjBEgQt8JbIEACgABZnZACAgCkREqABUKAodBCASIBASEAUBAgIEALAACAAAAAAAAAAAAAAAAAAAAAAAAAAAAAAAAAAAA==

> <PUBCHEM_IUPAC_OPENEYE_NAME>
5,6,7,8-tetrahydropteridine

> <PUBCHEM_IUPAC_CAS_NAME>
5,6,7,8-tetrahydropteridine

> <PUBCHEM_IUPAC_NAME>
5,6,7,8-tetrahydropteridine

> <PUBCHEM_IUPAC_SYSTEMATIC_NAME>
5,6,7,8-tetrahydropteridine

> <PUBCHEM_IUPAC_TRADITIONAL_NAME>
5,6,7,8-tetrahydropteridine

> <PUBCHEM_IUPAC_INCHI>
InChI=1S/C6H8N4/c1-2-9-6-5(8-1)3-7-4-10-6/h3-4,8H,1-2H2,(H,7,9,10)

> <PUBCHEM_IUPAC_INCHIKEY>
IDAICLIJTRXNER-UHFFFAOYSA-N

> <PUBCHEM_XLOGP3_AA>
0.3

> <PUBCHEM_EXACT_MASS>
136.074896

> <PUBCHEM_MOLECULAR_FORMULA>
C6H8N4

> <PUBCHEM_MOLECULAR_WEIGHT>
136.15452

> <PUBCHEM_OPENEYE_CAN_SMILES>
C1CNC2=NC=NC=C2N1

> <PUBCHEM_OPENEYE_ISO_SMILES>
C1CNC2=NC=NC=C2N1

> <PUBCHEM_CACTVS_TPSA>
49.8

> <PUBCHEM_MONOISOTOPIC_WEIGHT>
136.074896

> <PUBCHEM_TOTAL_CHARGE>
0

> <PUBCHEM_HEAVY_ATOM_COUNT>
10

> <PUBCHEM_ATOM_DEF_STEREO_COUNT>
0

> <PUBCHEM_ATOM_UDEF_STEREO_COUNT>
0

> <PUBCHEM_BOND_DEF_STEREO_COUNT>
0

> <PUBCHEM_BOND_UDEF_STEREO_COUNT>
0

> <PUBCHEM_ISOTOPIC_ATOM_COUNT>
0

> <PUBCHEM_COMPONENT_COUNT>
1

> <PUBCHEM_CACTVS_TAUTO_COUNT>
3

> <PUBCHEM_COORDINATE_TYPE>
1
5
255

> <PUBCHEM_BONDANNOTATIONS>
3  10  8
3  8  8
4  10  8
4  9  8
7  8  8
7  9  8

$$$$

