440456
  -OEChem-07051212492D

 29 30  0     1  0  0  0  0  0999 V2000
    7.1467   -1.2479    0.0000 O   0  0  0  0  0  0  0  0  0  0  0  0
    3.7796   -1.7322    0.0000 O   0  0  0  0  0  0  0  0  0  0  0  0
    2.0000   -1.8255    0.0000 O   0  0  0  0  0  0  0  0  0  0  0  0
    5.5736    0.4768    0.0000 C   0  0  3  0  0  0  0  0  0  0  0  0
    7.4055   -0.2820    0.0000 C   0  0  0  0  0  0  0  0  0  0  0  0
    5.2030    1.8255    0.0000 C   0  0  0  0  0  0  0  0  0  0  0  0
    5.3147   -0.4891    0.0000 C   0  0  3  0  0  0  0  0  0  0  0  0
    4.3369    1.3255    0.0000 C   0  0  0  0  0  0  0  0  0  0  0  0
    2.9705   -0.3310    0.0000 C   0  0  0  0  0  0  0  0  0  0  0  0
    8.4055   -0.2820    0.0000 C   0  0  0  0  0  0  0  0  0  0  0  0
    7.9055    0.5841    0.0000 C   0  0  0  0  0  0  0  0  0  0  0  0
    5.0559   -1.4550    0.0000 C   0  0  0  0  0  0  0  0  0  0  0  0
    2.8660   -1.3255    0.0000 C   0  0  0  0  0  0  0  0  0  0  0  0
    5.5346   -0.3723    0.0000 H   0  0  0  0  0  0  0  0  0  0  0  0
    5.7847    2.0400    0.0000 H   0  0  0  0  0  0  0  0  0  0  0  0
    4.9397    2.3868    0.0000 H   0  0  0  0  0  0  0  0  0  0  0  0
    4.0322    1.8654    0.0000 H   0  0  0  0  0  0  0  0  0  0  0  0
    3.7940    1.0260    0.0000 H   0  0  0  0  0  0  0  0  0  0  0  0
    2.8683    0.2805    0.0000 H   0  0  0  0  0  0  0  0  0  0  0  0
    2.3508   -0.3499    0.0000 H   0  0  0  0  0  0  0  0  0  0  0  0
    8.4055   -0.9020    0.0000 H   0  0  0  0  0  0  0  0  0  0  0  0
    9.0255   -0.2820    0.0000 H   0  0  0  0  0  0  0  0  0  0  0  0
    8.4055    0.3380    0.0000 H   0  0  0  0  0  0  0  0  0  0  0  0
    8.4424    0.2741    0.0000 H   0  0  0  0  0  0  0  0  0  0  0  0
    8.2155    1.1210    0.0000 H   0  0  0  0  0  0  0  0  0  0  0  0
    7.3686    0.8941    0.0000 H   0  0  0  0  0  0  0  0  0  0  0  0
    4.4570   -1.2945    0.0000 H   0  0  0  0  0  0  0  0  0  0  0  0
    4.8954   -2.0539    0.0000 H   0  0  0  0  0  0  0  0  0  0  0  0
    5.6548   -1.6155    0.0000 H   0  0  0  0  0  0  0  0  0  0  0  0
  1  5  1  0  0  0  0
  1  7  1  0  0  0  0
  2  7  1  0  0  0  0
  2 13  1  0  0  0  0
  3 13  2  0  0  0  0
  4  5  1  0  0  0  0
  4  6  1  0  0  0  0
  4  9  1  0  0  0  0
  4 14  1  0  0  0  0
  5 10  1  0  0  0  0
  5 11  1  0  0  0  0
  6  8  1  0  0  0  0
  6 15  1  0  0  0  0
  6 16  1  0  0  0  0
  7  8  1  0  0  0  0
  7 12  1  0  0  0  0
  8 17  1  0  0  0  0
  8 18  1  0  0  0  0
  9 13  1  0  0  0  0
  9 19  1  0  0  0  0
  9 20  1  0  0  0  0
 10 21  1  0  0  0  0
 10 22  1  0  0  0  0
 10 23  1  0  0  0  0
 11 24  1  0  0  0  0
 11 25  1  0  0  0  0
 11 26  1  0  0  0  0
 12 27  1  0  0  0  0
 12 28  1  0  0  0  0
 12 29  1  0  0  0  0
M  END
> <PUBCHEM_COMPOUND_CID>
440456

> <PUBCHEM_COMPOUND_CANONICALIZED>
1

> <PUBCHEM_CACTVS_COMPLEXITY>
247

> <PUBCHEM_CACTVS_HBOND_ACCEPTOR>
3

> <PUBCHEM_CACTVS_HBOND_DONOR>
0

> <PUBCHEM_CACTVS_ROTATABLE_BOND>
0

> <PUBCHEM_CACTVS_SUBSKEYS>
AAADceBwMAAAAAAAAAAAAAAAAAAAAAAAAAAkAAAABIkAAAAAAAAAGgAAAAAADUSAgAACCAAABAAIAACQCAAAAAAAAAAAAAEAAAAQABIAAAAiAAAEAAAEAAHK6HyOgAAAAAAAAAAAAAAAAAAAAAAAAAAAAA==

> <PUBCHEM_IUPAC_OPENEYE_NAME>
5,7,7-trimethyl-4,6-dioxabicyclo[3.2.2]nonan-3-one

> <PUBCHEM_IUPAC_CAS_NAME>
5,7,7-trimethyl-4,6-dioxabicyclo[3.2.2]nonan-3-one

> <PUBCHEM_IUPAC_NAME>
5,7,7-trimethyl-4,6-dioxabicyclo[3.2.2]nonan-3-one

> <PUBCHEM_IUPAC_SYSTEMATIC_NAME>
5,7,7-trimethyl-4,6-dioxabicyclo[3.2.2]nonan-3-one

> <PUBCHEM_IUPAC_TRADITIONAL_NAME>
5,7,7-trimethyl-4,6-dioxabicyclo[3.2.2]nonan-3-one

> <PUBCHEM_IUPAC_INCHI>
InChI=1S/C10H16O3/c1-9(2)7-4-5-10(3,13-9)12-8(11)6-7/h7H,4-6H2,1-3H3

> <PUBCHEM_IUPAC_INCHIKEY>
KAUZXNDCPVMFCH-UHFFFAOYSA-N

> <PUBCHEM_XLOGP3_AA>
1.4

> <PUBCHEM_EXACT_MASS>
184.109944

> <PUBCHEM_MOLECULAR_FORMULA>
C10H16O3

> <PUBCHEM_MOLECULAR_WEIGHT>
184.23224

> <PUBCHEM_OPENEYE_CAN_SMILES>
CC1(C2CCC(O1)(OC(=O)C2)C)C

> <PUBCHEM_OPENEYE_ISO_SMILES>
CC1(C2CCC(O1)(OC(=O)C2)C)C

> <PUBCHEM_CACTVS_TPSA>
35.5

> <PUBCHEM_MONOISOTOPIC_WEIGHT>
184.109944

> <PUBCHEM_TOTAL_CHARGE>
0

> <PUBCHEM_HEAVY_ATOM_COUNT>
13

> <PUBCHEM_ATOM_DEF_STEREO_COUNT>
0

> <PUBCHEM_ATOM_UDEF_STEREO_COUNT>
2

> <PUBCHEM_BOND_DEF_STEREO_COUNT>
0

> <PUBCHEM_BOND_UDEF_STEREO_COUNT>
0

> <PUBCHEM_ISOTOPIC_ATOM_COUNT>
0

> <PUBCHEM_COMPONENT_COUNT>
1

> <PUBCHEM_CACTVS_TAUTO_COUNT>
2

> <PUBCHEM_COORDINATE_TYPE>
1
5
255

> <PUBCHEM_BONDANNOTATIONS>
4  14  3
7  12  3

$$$$

