219833
  -OEChem-07051212503D

 59 62  0     1  0  0  0  0  0999 V2000
   -5.6861    0.3878    1.1251 O   0  0  0  0  0  0  0  0  0  0  0  0
    4.6970    0.9455    2.4614 O   0  0  0  0  0  0  0  0  0  0  0  0
    0.1166   -1.0726   -0.3874 C   0  0  1  0  0  0  0  0  0  0  0  0
   -1.2190   -0.9219    0.3497 C   0  0  1  0  0  0  0  0  0  0  0  0
    0.8737    0.2941   -0.3358 C   0  0  1  0  0  0  0  0  0  0  0  0
   -2.1303    0.1584   -0.2718 C   0  0  1  0  0  0  0  0  0  0  0  0
    2.2823    0.2142   -1.0363 C   0  0  2  0  0  0  0  0  0  0  0  0
    3.1102   -0.9578   -0.4080 C   0  0  2  0  0  0  0  0  0  0  0  0
   -3.3628    0.0028    0.6523 C   0  0  2  0  0  0  0  0  0  0  0  0
   -0.0190    1.4664   -0.8262 C   0  0  0  0  0  0  0  0  0  0  0  0
   -1.4050    1.5057   -0.1564 C   0  0  0  0  0  0  0  0  0  0  0  0
    0.9629   -2.2019    0.2139 C   0  0  0  0  0  0  0  0  0  0  0  0
   -2.1365   -2.1341    0.4793 C   0  0  0  0  0  0  0  0  0  0  0  0
    2.3437   -2.2909   -0.4289 C   0  0  0  0  0  0  0  0  0  0  0  0
   -3.5149   -1.5288    0.8042 C   0  0  0  0  0  0  0  0  0  0  0  0
    3.0967    1.5327   -0.8853 C   0  0  0  0  0  0  0  0  0  0  0  0
   -2.5066   -0.1047   -1.7516 C   0  0  0  0  0  0  0  0  0  0  0  0
    3.5944   -0.6457    1.0240 C   0  0  0  0  0  0  0  0  0  0  0  0
    2.1325   -0.0242   -2.5615 C   0  0  0  0  0  0  0  0  0  0  0  0
   -4.6462    0.6831    0.1981 C   0  0  2  0  0  0  0  0  0  0  0  0
    3.5399    1.8278    0.5420 C   0  0  0  0  0  0  0  0  0  0  0  0
    4.3575    0.6727    1.1057 C   0  0  1  0  0  0  0  0  0  0  0  0
   -4.4810    2.1913    0.0936 C   0  0  0  0  0  0  0  0  0  0  0  0
   -0.0849   -1.3427   -1.4288 H   0  0  0  0  0  0  0  0  0  0  0  0
   -0.9739   -0.6177    1.3814 H   0  0  0  0  0  0  0  0  0  0  0  0
    1.0509    0.5010    0.7287 H   0  0  0  0  0  0  0  0  0  0  0  0
    4.0157   -1.1000   -1.0159 H   0  0  0  0  0  0  0  0  0  0  0  0
   -3.1107    0.3871    1.6529 H   0  0  0  0  0  0  0  0  0  0  0  0
   -0.1478    1.4199   -1.9119 H   0  0  0  0  0  0  0  0  0  0  0  0
    0.4722    2.4222   -0.6139 H   0  0  0  0  0  0  0  0  0  0  0  0
   -1.2763    1.7769    0.8994 H   0  0  0  0  0  0  0  0  0  0  0  0
   -1.9615    2.3202   -0.6229 H   0  0  0  0  0  0  0  0  0  0  0  0
    0.4530   -3.1630    0.0768 H   0  0  0  0  0  0  0  0  0  0  0  0
    1.0644   -2.0611    1.2965 H   0  0  0  0  0  0  0  0  0  0  0  0
   -1.8061   -2.8153    1.2701 H   0  0  0  0  0  0  0  0  0  0  0  0
   -2.1809   -2.7063   -0.4541 H   0  0  0  0  0  0  0  0  0  0  0  0
    2.9288   -3.0668    0.0801 H   0  0  0  0  0  0  0  0  0  0  0  0
    2.2330   -2.6332   -1.4648 H   0  0  0  0  0  0  0  0  0  0  0  0
   -4.2688   -1.9390    0.1226 H   0  0  0  0  0  0  0  0  0  0  0  0
   -3.8234   -1.7845    1.8241 H   0  0  0  0  0  0  0  0  0  0  0  0
    2.5379    2.3889   -1.2778 H   0  0  0  0  0  0  0  0  0  0  0  0
    4.0004    1.4670   -1.5080 H   0  0  0  0  0  0  0  0  0  0  0  0
   -3.1076    0.7153   -2.1584 H   0  0  0  0  0  0  0  0  0  0  0  0
   -1.6311   -0.1935   -2.4002 H   0  0  0  0  0  0  0  0  0  0  0  0
   -3.0864   -1.0243   -1.8785 H   0  0  0  0  0  0  0  0  0  0  0  0
    2.7602   -0.6193    1.7348 H   0  0  0  0  0  0  0  0  0  0  0  0
    4.2441   -1.4564    1.3795 H   0  0  0  0  0  0  0  0  0  0  0  0
    1.6701    0.8347   -3.0590 H   0  0  0  0  0  0  0  0  0  0  0  0
    3.1131   -0.1710   -3.0301 H   0  0  0  0  0  0  0  0  0  0  0  0
    1.5319   -0.9050   -2.8001 H   0  0  0  0  0  0  0  0  0  0  0  0
   -4.9871    0.2911   -0.7654 H   0  0  0  0  0  0  0  0  0  0  0  0
    4.1429    2.7441    0.5619 H   0  0  0  0  0  0  0  0  0  0  0  0
    2.6774    2.0353    1.1862 H   0  0  0  0  0  0  0  0  0  0  0  0
    5.2965    0.5885    0.5452 H   0  0  0  0  0  0  0  0  0  0  0  0
   -3.9927    2.4883   -0.8359 H   0  0  0  0  0  0  0  0  0  0  0  0
   -5.4645    2.6763    0.1003 H   0  0  0  0  0  0  0  0  0  0  0  0
   -3.9332    2.6017    0.9484 H   0  0  0  0  0  0  0  0  0  0  0  0
   -5.4306    0.7566    1.9880 H   0  0  0  0  0  0  0  0  0  0  0  0
    5.2252    0.1972    2.7880 H   0  0  0  0  0  0  0  0  0  0  0  0
  1 20  1  0  0  0  0
  1 58  1  0  0  0  0
  2 22  1  0  0  0  0
  2 59  1  0  0  0  0
  3  4  1  0  0  0  0
  3  5  1  0  0  0  0
  3 12  1  0  0  0  0
  3 24  1  0  0  0  0
  4  6  1  0  0  0  0
  4 13  1  0  0  0  0
  4 25  1  0  0  0  0
  5  7  1  0  0  0  0
  5 10  1  0  0  0  0
  5 26  1  0  0  0  0
  6  9  1  0  0  0  0
  6 11  1  0  0  0  0
  6 17  1  0  0  0  0
  7  8  1  0  0  0  0
  7 16  1  0  0  0  0
  7 19  1  0  0  0  0
  8 14  1  0  0  0  0
  8 18  1  0  0  0  0
  8 27  1  0  0  0  0
  9 15  1  0  0  0  0
  9 20  1  0  0  0  0
  9 28  1  0  0  0  0
 10 11  1  0  0  0  0
 10 29  1  0  0  0  0
 10 30  1  0  0  0  0
 11 31  1  0  0  0  0
 11 32  1  0  0  0  0
 12 14  1  0  0  0  0
 12 33  1  0  0  0  0
 12 34  1  0  0  0  0
 13 15  1  0  0  0  0
 13 35  1  0  0  0  0
 13 36  1  0  0  0  0
 14 37  1  0  0  0  0
 14 38  1  0  0  0  0
 15 39  1  0  0  0  0
 15 40  1  0  0  0  0
 16 21  1  0  0  0  0
 16 41  1  0  0  0  0
 16 42  1  0  0  0  0
 17 43  1  0  0  0  0
 17 44  1  0  0  0  0
 17 45  1  0  0  0  0
 18 22  1  0  0  0  0
 18 46  1  0  0  0  0
 18 47  1  0  0  0  0
 19 48  1  0  0  0  0
 19 49  1  0  0  0  0
 19 50  1  0  0  0  0
 20 23  1  0  0  0  0
 20 51  1  0  0  0  0
 21 22  1  0  0  0  0
 21 52  1  0  0  0  0
 21 53  1  0  0  0  0
 22 54  1  0  0  0  0
 23 55  1  0  0  0  0
 23 56  1  0  0  0  0
 23 57  1  0  0  0  0
M  END
> <PUBCHEM_COMPOUND_CID>
219833

> <PUBCHEM_CONFORMER_RMSD>
0.6

> <PUBCHEM_CONFORMER_DIVERSEORDER>
1
3
2
4

> <PUBCHEM_MMFF94_PARTIAL_CHARGES>
6
1 -0.68
2 -0.68
20 0.28
22 0.28
58 0.4
59 0.4

> <PUBCHEM_EFFECTIVE_ROTOR_COUNT>
3.2

> <PUBCHEM_PHARMACOPHORE_FEATURES>
8
1 1 acceptor
1 1 donor
1 2 acceptor
1 2 donor
5 4 6 9 13 15 rings
6 3 4 5 6 10 11 rings
6 3 5 7 8 12 14 rings
6 7 8 16 18 21 22 rings

> <PUBCHEM_HEAVY_ATOM_COUNT>
23

> <PUBCHEM_ATOM_DEF_STEREO_COUNT>
9

> <PUBCHEM_ATOM_UDEF_STEREO_COUNT>
0

> <PUBCHEM_BOND_DEF_STEREO_COUNT>
0

> <PUBCHEM_BOND_UDEF_STEREO_COUNT>
0

> <PUBCHEM_ISOTOPIC_ATOM_COUNT>
0

> <PUBCHEM_COMPONENT_COUNT>
1

> <PUBCHEM_CACTVS_TAUTO_COUNT>
1

> <PUBCHEM_CONFORMER_ID>
00035AB900000001

> <PUBCHEM_MMFF94_ENERGY>
81.7606

> <PUBCHEM_FEATURE_SELFOVERLAP>
40.724

> <PUBCHEM_SHAPE_FINGERPRINT>
10062212 137 18059575733213545323
10646746 165 18409725166496168636
11132069 177 18344143691951703783
11961588 58 5184050575143743402
12173636 292 18411695517810043407
12403814 3 17275384288092747735
12422481 6 18059302087745807681
12553582 1 18272644641135832485
12633257 1 17561084687371930602
12644460 14 16486960774918534156
12670546 177 7637406237055539505
13140716 1 18343863312012585066
13224815 77 18408040684591407623
13533116 47 18189046659147467267
13583140 156 17749393620340340323
13675066 3 18342172302073479733
14081887 123 18335701624351319985
14178342 30 18341331085209975067
14223421 5 18411982498528457142
14289901 80 16153699955606333895
14341114 176 18341897420166928954
14341114 328 17917998239581094256
14790565 3 17982716486061720868
15196674 1 18342166752844104839
15375358 24 18408322185654316061
15536298 74 18337946887245977007
15788980 27 16630533916430481117
16945 1 18200315540877528694
17349148 13 18131074818151506015
17980427 23 18129951053154724244
1813 80 16200434710562164126
18186145 218 18114724002025134103
193927 3 12607407727534687224
19784866 170 18411417297980595464
19784866 240 14476968929773298184
20715895 44 17987247809950510509
20775530 9 14618859849008036688
21267235 1 18199449108640661583
21421861 104 17703513297999606514
21452121 103 18335424607666700562
21475661 188 17459201693985853080
21756936 100 17900268499163109316
21792934 111 18269553996356574385
21859007 373 17201939230619104453
22149856 69 18266435721450866675
22182313 1 17986963044622117167
23503953 91 18273213088626163233
23557571 272 18189321395035693126
23559900 14 18337661010170433390
2748010 2 18343011203354370734
2838139 119 15357981102026644904
296302 2 17530686493693592741
312423 11 5761666853426643669
335352 9 18270392935743037831
34797466 226 16081084845081092225
34934 24 18260828185524725789
350125 39 18269547398690344740
394222 165 17057502757435302780
4072396 5 18201443579651405361
4340502 62 18410005551252864771
474 4 18113902619916487144
495365 180 17967249831822989374
5104073 3 18340760537960366523
5374978 207 18272365377993471233
633830 44 18188207607226613388
7064713 232 18412549790567168752
7364860 26 18335416932797857302
7808743 9 18048876291459654296
90316 7 17489594458661712093
9709674 26 18411411843356701727

> <PUBCHEM_SHAPE_MULTIPOLES>
461.59
9.69
2.26
1.59
4.91
0.45
-0.26
-3.23
4.42
0.1
0.15
-1.59
-0.27
0.58

> <PUBCHEM_SHAPE_SELFOVERLAP>
971.349

> <PUBCHEM_SHAPE_VOLUME>
259

> <PUBCHEM_COORDINATE_TYPE>
2
5
10

$$$$

