5420
  -OEChem-06261200412D

 53 52  0     0  0  0  0  0  0999 V2000
    4.5981   -0.7390    0.0000 P   0  0  0  0  0  0  0  0  0  0  0  0
    6.3301   -0.7390    0.0000 P   0  0  0  0  0  0  0  0  0  0  0  0
    5.4641   -0.2390    0.0000 O   0  0  0  0  0  0  0  0  0  0  0  0
    5.0981   -1.6051    0.0000 O   0  0  0  0  0  0  0  0  0  0  0  0
    5.8301   -1.6051    0.0000 O   0  0  0  0  0  0  0  0  0  0  0  0
    3.7320   -1.2390    0.0000 N   0  0  0  0  0  0  0  0  0  0  0  0
    4.0981    0.1270    0.0000 N   0  0  0  0  0  0  0  0  0  0  0  0
    7.1962   -1.2390    0.0000 N   0  0  0  0  0  0  0  0  0  0  0  0
    6.8301    0.1270    0.0000 N   0  0  0  0  0  0  0  0  0  0  0  0
    6.3301    0.9930    0.0000 C   0  0  0  0  0  0  0  0  0  0  0  0
    8.0622   -0.7390    0.0000 C   0  0  0  0  0  0  0  0  0  0  0  0
    3.9244    1.1118    0.0000 C   0  0  0  0  0  0  0  0  0  0  0  0
    2.8660   -0.7390    0.0000 C   0  0  0  0  0  0  0  0  0  0  0  0
    2.0000   -1.2390    0.0000 C   0  0  0  0  0  0  0  0  0  0  0  0
    2.8660    0.2610    0.0000 C   0  0  0  0  0  0  0  0  0  0  0  0
    2.9847    1.4538    0.0000 C   0  0  0  0  0  0  0  0  0  0  0  0
    4.6905    1.7546    0.0000 C   0  0  0  0  0  0  0  0  0  0  0  0
    8.9282   -1.2390    0.0000 C   0  0  0  0  0  0  0  0  0  0  0  0
    8.0622    0.2610    0.0000 C   0  0  0  0  0  0  0  0  0  0  0  0
    6.8301    1.8590    0.0000 C   0  0  0  0  0  0  0  0  0  0  0  0
    5.5642    1.6359    0.0000 C   0  0  0  0  0  0  0  0  0  0  0  0
    2.8660   -1.3590    0.0000 H   0  0  0  0  0  0  0  0  0  0  0  0
    3.4495    0.7133    0.0000 H   0  0  0  0  0  0  0  0  0  0  0  0
    8.0622   -1.3590    0.0000 H   0  0  0  0  0  0  0  0  0  0  0  0
    5.8552    0.5945    0.0000 H   0  0  0  0  0  0  0  0  0  0  0  0
    7.4501    0.1270    0.0000 H   0  0  0  0  0  0  0  0  0  0  0  0
    7.1962   -1.8590    0.0000 H   0  0  0  0  0  0  0  0  0  0  0  0
    3.4781    0.1270    0.0000 H   0  0  0  0  0  0  0  0  0  0  0  0
    3.7320   -1.8590    0.0000 H   0  0  0  0  0  0  0  0  0  0  0  0
    1.6900   -0.7021    0.0000 H   0  0  0  0  0  0  0  0  0  0  0  0
    1.4631   -1.5490    0.0000 H   0  0  0  0  0  0  0  0  0  0  0  0
    2.3100   -1.7760    0.0000 H   0  0  0  0  0  0  0  0  0  0  0  0
    3.4860    0.2610    0.0000 H   0  0  0  0  0  0  0  0  0  0  0  0
    2.8660    0.8810    0.0000 H   0  0  0  0  0  0  0  0  0  0  0  0
    2.2460    0.2610    0.0000 H   0  0  0  0  0  0  0  0  0  0  0  0
    3.1968    2.0364    0.0000 H   0  0  0  0  0  0  0  0  0  0  0  0
    2.4021    1.6659    0.0000 H   0  0  0  0  0  0  0  0  0  0  0  0
    2.7727    0.8712    0.0000 H   0  0  0  0  0  0  0  0  0  0  0  0
    5.0890    1.2796    0.0000 H   0  0  0  0  0  0  0  0  0  0  0  0
    5.1654    2.1531    0.0000 H   0  0  0  0  0  0  0  0  0  0  0  0
    4.2919    2.2295    0.0000 H   0  0  0  0  0  0  0  0  0  0  0  0
    8.6182   -1.7760    0.0000 H   0  0  0  0  0  0  0  0  0  0  0  0
    9.4651   -1.5490    0.0000 H   0  0  0  0  0  0  0  0  0  0  0  0
    9.2382   -0.7021    0.0000 H   0  0  0  0  0  0  0  0  0  0  0  0
    8.6822    0.2610    0.0000 H   0  0  0  0  0  0  0  0  0  0  0  0
    8.0622    0.8810    0.0000 H   0  0  0  0  0  0  0  0  0  0  0  0
    7.4422    0.2610    0.0000 H   0  0  0  0  0  0  0  0  0  0  0  0
    7.3671    1.5490    0.0000 H   0  0  0  0  0  0  0  0  0  0  0  0
    7.1401    2.3960    0.0000 H   0  0  0  0  0  0  0  0  0  0  0  0
    6.2932    2.1690    0.0000 H   0  0  0  0  0  0  0  0  0  0  0  0
    5.9627    2.1108    0.0000 H   0  0  0  0  0  0  0  0  0  0  0  0
    5.0892    2.0344    0.0000 H   0  0  0  0  0  0  0  0  0  0  0  0
    5.1656    1.1610    0.0000 H   0  0  0  0  0  0  0  0  0  0  0  0
  1  3  1  0  0  0  0
  1  4  2  0  0  0  0
  1  6  1  0  0  0  0
  1  7  1  0  0  0  0
  2  3  1  0  0  0  0
  2  5  2  0  0  0  0
  2  8  1  0  0  0  0
  2  9  1  0  0  0  0
  6 13  1  0  0  0  0
  6 29  1  0  0  0  0
  7 12  1  0  0  0  0
  7 28  1  0  0  0  0
  8 11  1  0  0  0  0
  8 27  1  0  0  0  0
  9 10  1  0  0  0  0
  9 26  1  0  0  0  0
 10 20  1  0  0  0  0
 10 21  1  0  0  0  0
 10 25  1  0  0  0  0
 11 18  1  0  0  0  0
 11 19  1  0  0  0  0
 11 24  1  0  0  0  0
 12 16  1  0  0  0  0
 12 17  1  0  0  0  0
 12 23  1  0  0  0  0
 13 14  1  0  0  0  0
 13 15  1  0  0  0  0
 13 22  1  0  0  0  0
 14 30  1  0  0  0  0
 14 31  1  0  0  0  0
 14 32  1  0  0  0  0
 15 33  1  0  0  0  0
 15 34  1  0  0  0  0
 15 35  1  0  0  0  0
 16 36  1  0  0  0  0
 16 37  1  0  0  0  0
 16 38  1  0  0  0  0
 17 39  1  0  0  0  0
 17 40  1  0  0  0  0
 17 41  1  0  0  0  0
 18 42  1  0  0  0  0
 18 43  1  0  0  0  0
 18 44  1  0  0  0  0
 19 45  1  0  0  0  0
 19 46  1  0  0  0  0
 19 47  1  0  0  0  0
 20 48  1  0  0  0  0
 20 49  1  0  0  0  0
 20 50  1  0  0  0  0
 21 51  1  0  0  0  0
 21 52  1  0  0  0  0
 21 53  1  0  0  0  0
M  END
> <PUBCHEM_COMPOUND_CID>
5420

> <PUBCHEM_COMPOUND_CANONICALIZED>
1

> <PUBCHEM_CACTVS_COMPLEXITY>
336

> <PUBCHEM_CACTVS_HBOND_ACCEPTOR>
7

> <PUBCHEM_CACTVS_HBOND_DONOR>
4

> <PUBCHEM_CACTVS_ROTATABLE_BOND>
10

> <PUBCHEM_CACTVS_SUBSKEYS>
AAADcfBzsAMAAAAAAAAAAAAAAAAAAAAAAAAAAAAAAAAAAAAAAAAAHAAQgCAACCjBAAQCAABAABAAQAAAAIAAAAAAAAAAAIAAAAAAAAAAAAAAAAAAEAAAAAAAAAAAAAAAAAAAAAAAAAAAAAAAAAAAAAAAAA==

> <PUBCHEM_IUPAC_OPENEYE_NAME>
N-[bis(isopropylamino)phosphoryloxy-(isopropylamino)phosphoryl]propan-2-amine

> <PUBCHEM_IUPAC_CAS_NAME>
N-[bis(propan-2-ylamino)phosphoryloxy-(propan-2-ylamino)phosphoryl]-2-propanamine

> <PUBCHEM_IUPAC_NAME>
N-[bis(propan-2-ylamino)phosphoryloxy-(propan-2-ylamino)phosphoryl]propan-2-amine

> <PUBCHEM_IUPAC_SYSTEMATIC_NAME>
N-[bis(propan-2-ylamino)phosphoryloxy-(propan-2-ylamino)phosphoryl]propan-2-amine

> <PUBCHEM_IUPAC_TRADITIONAL_NAME>
[bis(isopropylamino)phosphoryloxy-(isopropylamino)phosphoryl]-isopropyl-amine

> <PUBCHEM_IUPAC_INCHI>
InChI=1S/C12H32N4O3P2/c1-9(2)13-20(17,14-10(3)4)19-21(18,15-11(5)6)16-12(7)8/h9-12H,1-8H3,(H2,13,14,17)(H2,15,16,18)

> <PUBCHEM_IUPAC_INCHIKEY>
IOIMDJXKIMCMIG-UHFFFAOYSA-N

> <PUBCHEM_XLOGP3_AA>
1

> <PUBCHEM_EXACT_MASS>
342.194964

> <PUBCHEM_MOLECULAR_FORMULA>
C12H32N4O3P2

> <PUBCHEM_MOLECULAR_WEIGHT>
342.355004

> <PUBCHEM_OPENEYE_CAN_SMILES>
CC(C)NP(=O)(NC(C)C)OP(=O)(NC(C)C)NC(C)C

> <PUBCHEM_OPENEYE_ISO_SMILES>
CC(C)NP(=O)(NC(C)C)OP(=O)(NC(C)C)NC(C)C

> <PUBCHEM_CACTVS_TPSA>
91.5

> <PUBCHEM_MONOISOTOPIC_WEIGHT>
342.194964

> <PUBCHEM_TOTAL_CHARGE>
0

> <PUBCHEM_HEAVY_ATOM_COUNT>
21

> <PUBCHEM_ATOM_DEF_STEREO_COUNT>
0

> <PUBCHEM_ATOM_UDEF_STEREO_COUNT>
0

> <PUBCHEM_BOND_DEF_STEREO_COUNT>
0

> <PUBCHEM_BOND_UDEF_STEREO_COUNT>
0

> <PUBCHEM_ISOTOPIC_ATOM_COUNT>
0

> <PUBCHEM_COMPONENT_COUNT>
1

> <PUBCHEM_CACTVS_TAUTO_COUNT>
3

> <PUBCHEM_COORDINATE_TYPE>
1
5
255

$$$$

