14803858
  -OEChem-07051213113D

 27 26  0     1  0  0  0  0  0999 V2000
   -0.8972   -1.5779   -1.6895 O   0  0  0  0  0  0  0  0  0  0  0  0
   -1.4486   -3.0838   -0.0769 O   0  0  0  0  0  0  0  0  0  0  0  0
   -1.6555    4.0885   -0.4342 O   0  0  0  0  0  0  0  0  0  0  0  0
    2.3963    1.4756   -0.4391 O   0  0  0  0  0  0  0  0  0  0  0  0
    4.3444   -0.1391   -0.2906 O   0  0  0  0  0  0  0  0  0  0  0  0
    3.0030   -1.7394    0.6532 O   0  0  0  0  0  0  0  0  0  0  0  0
   -3.6015   -1.4385    0.5793 N   0  0  0  0  0  0  0  0  0  0  0  0
   -1.6524   -0.0225    1.0277 C   0  0  0  0  0  0  0  0  0  0  0  0
   -2.4127   -0.8389   -0.0312 C   0  0  1  0  0  0  0  0  0  0  0  0
   -0.4006    0.6711    0.4936 C   0  0  0  0  0  0  0  0  0  0  0  0
   -1.5606   -1.9708   -0.5714 C   0  0  0  0  0  0  0  0  0  0  0  0
    0.7531   -0.0302    0.5059 C   0  0  0  0  0  0  0  0  0  0  0  0
   -0.5227    2.0543    0.0392 C   0  0  0  0  0  0  0  0  0  0  0  0
    2.1031    0.3970    0.0466 C   0  0  0  0  0  0  0  0  0  0  0  0
   -1.6394    2.7917    0.0070 C   0  0  0  0  0  0  0  0  0  0  0  0
    3.1914   -0.6371    0.1803 C   0  0  0  0  0  0  0  0  0  0  0  0
   -2.3197    0.6942    1.5212 H   0  0  0  0  0  0  0  0  0  0  0  0
   -1.3497   -0.6989    1.8424 H   0  0  0  0  0  0  0  0  0  0  0  0
   -2.7384   -0.2007   -0.8608 H   0  0  0  0  0  0  0  0  0  0  0  0
   -4.1511   -1.9117   -0.1373 H   0  0  0  0  0  0  0  0  0  0  0  0
   -4.1999   -0.7036    0.9550 H   0  0  0  0  0  0  0  0  0  0  0  0
    0.7159   -1.0451    0.8961 H   0  0  0  0  0  0  0  0  0  0  0  0
    0.3775    2.5520   -0.3034 H   0  0  0  0  0  0  0  0  0  0  0  0
   -2.6259    2.4653    0.3012 H   0  0  0  0  0  0  0  0  0  0  0  0
   -0.3272   -2.2921   -2.0464 H   0  0  0  0  0  0  0  0  0  0  0  0
   -2.5744    4.4015   -0.3648 H   0  0  0  0  0  0  0  0  0  0  0  0
    5.0823   -0.7816   -0.2207 H   0  0  0  0  0  0  0  0  0  0  0  0
  1 11  1  0  0  0  0
  1 25  1  0  0  0  0
  2 11  2  0  0  0  0
  3 15  1  0  0  0  0
  3 26  1  0  0  0  0
  4 14  2  0  0  0  0
  5 16  1  0  0  0  0
  5 27  1  0  0  0  0
  6 16  2  0  0  0  0
  7  9  1  0  0  0  0
  7 20  1  0  0  0  0
  7 21  1  0  0  0  0
  8  9  1  0  0  0  0
  8 10  1  0  0  0  0
  8 17  1  0  0  0  0
  8 18  1  0  0  0  0
  9 11  1  0  0  0  0
  9 19  1  0  0  0  0
 10 12  2  0  0  0  0
 10 13  1  0  0  0  0
 12 14  1  0  0  0  0
 12 22  1  0  0  0  0
 13 15  2  0  0  0  0
 13 23  1  0  0  0  0
 14 16  1  0  0  0  0
 15 24  1  0  0  0  0
M  END
> <PUBCHEM_COMPOUND_CID>
14803858

> <PUBCHEM_CONFORMER_RMSD>
0.8

> <PUBCHEM_CONFORMER_DIVERSEORDER>
1
32
23
6
17
33
19
28
30
31
39
38
11
22
26
16
24
21
15
34
4
12
9
29
10
5
40
3
7
14
25
18
36
13
27
35
20
8
37
2

> <PUBCHEM_MMFF94_PARTIAL_CHARGES>
24
1 -0.65
10 -0.14
11 0.66
12 -0.14
13 -0.15
14 0.56
15 -0.07
16 0.72
2 -0.57
20 0.36
21 0.36
22 0.15
23 0.15
24 0.15
25 0.5
26 0.45
27 0.5
3 -0.53
4 -0.57
5 -0.65
6 -0.57
7 -0.99
8 0.14
9 0.33

> <PUBCHEM_EFFECTIVE_ROTOR_COUNT>
6

> <PUBCHEM_PHARMACOPHORE_FEATURES>
10
1 1 acceptor
1 2 acceptor
1 3 donor
1 4 acceptor
1 5 acceptor
1 6 acceptor
1 7 cation
1 7 donor
3 1 2 11 anion
3 5 6 16 anion

> <PUBCHEM_HEAVY_ATOM_COUNT>
16

> <PUBCHEM_ATOM_DEF_STEREO_COUNT>
1

> <PUBCHEM_ATOM_UDEF_STEREO_COUNT>
0

> <PUBCHEM_BOND_DEF_STEREO_COUNT>
2

> <PUBCHEM_BOND_UDEF_STEREO_COUNT>
0

> <PUBCHEM_ISOTOPIC_ATOM_COUNT>
0

> <PUBCHEM_COMPONENT_COUNT>
1

> <PUBCHEM_CACTVS_TAUTO_COUNT>
8

> <PUBCHEM_CONFORMER_ID>
00E1E39200000001

> <PUBCHEM_MMFF94_ENERGY>
29.1964

> <PUBCHEM_FEATURE_SELFOVERLAP>
50.87

> <PUBCHEM_SHAPE_FINGERPRINT>
12500047 106 18192160510695335488
12553582 1 18338239241343284314
13380535 76 17833837444629926833
13931106 250 18117023098113661078
14178342 30 18270135629143056488
15852999 172 17680999805119929756
16752209 62 18264786512994025267
16945 1 18410578391962015818
20524608 308 18266178511995100072
20711985 365 18411702109867404768
20871998 184 18334853960868159977
21524375 3 17768249368304230633
23402539 116 18261117365952340335
23419403 2 13451098068193562713
23552423 10 17471012476139962459
23557571 272 18186793682924309940
23559900 14 17972325281573057226
23598291 2 17901089829467729253
23598294 1 18338516442816862976
2748010 2 17829596606664268614
34934 24 18265617567691036361
6992083 37 18190442897280659483
7364860 26 17471855801553114065
81228 2 18337971016462176889
81539 233 17475802429584656317

> <PUBCHEM_SHAPE_MULTIPOLES>
289.08
5.35
3.66
0.92
5.2
2.59
-0.14
-1.82
0.29
-3.35
-0.77
-0.24
-0.27
-0.19

> <PUBCHEM_SHAPE_SELFOVERLAP>
574.986

> <PUBCHEM_SHAPE_VOLUME>
168.3

> <PUBCHEM_COORDINATE_TYPE>
2
5
10

$$$$

