656580
  -OEChem-07051213023D

 43 43  0     1  0  0  0  0  0999 V2000
   -2.7681   -5.7374   -0.5996 Cl  0  0  0  0  0  0  0  0  0  0  0  0
   -4.5362   -3.7636    0.6288 Cl  0  0  0  0  0  0  0  0  0  0  0  0
    1.0664   -2.4201   -1.8766 O   0  0  0  0  0  0  0  0  0  0  0  0
   -1.4022    0.4596    0.1639 O   0  0  0  0  0  0  0  0  0  0  0  0
   -1.5499   -3.7586    1.4490 O   0  0  0  0  0  0  0  0  0  0  0  0
   -1.6805    1.7698    2.0413 O   0  0  0  0  0  0  0  0  0  0  0  0
    5.8915    2.3796   -0.0602 O   0  5  0  0  0  0  0  0  0  0  0  0
    6.3955    0.6389    1.1788 O   0  0  0  0  0  0  0  0  0  0  0  0
   -4.3111    5.7452    0.1052 O   0  0  0  0  0  0  0  0  0  0  0  0
   -4.0445    4.2839   -1.6141 O   0  0  0  0  0  0  0  0  0  0  0  0
   -1.3200   -2.3936   -0.4107 N   0  0  0  0  0  0  0  0  0  0  0  0
    5.6213    1.2426    0.3972 N   0  3  0  0  0  0  0  0  0  0  0  0
   -0.1670   -1.6574    0.0720 C   0  0  1  0  0  0  0  0  0  0  0  0
    0.7258   -1.2532   -1.1208 C   0  0  1  0  0  0  0  0  0  0  0  0
   -0.6395   -0.4781    0.9305 C   0  0  0  0  0  0  0  0  0  0  0  0
    2.0245   -0.5918   -0.7182 C   0  0  0  0  0  0  0  0  0  0  0  0
    2.3284    0.6626   -1.2194 C   0  0  0  0  0  0  0  0  0  0  0  0
    2.8829   -1.2536    0.1436 C   0  0  0  0  0  0  0  0  0  0  0  0
   -1.9180   -3.3946    0.3331 C   0  0  0  0  0  0  0  0  0  0  0  0
    3.5261    1.2734   -0.8479 C   0  0  0  0  0  0  0  0  0  0  0  0
    4.0806   -0.6427    0.5151 C   0  0  0  0  0  0  0  0  0  0  0  0
    4.4022    0.6207    0.0193 C   0  0  0  0  0  0  0  0  0  0  0  0
   -1.8643    1.5456    0.8531 C   0  0  0  0  0  0  0  0  0  0  0  0
   -2.6462    2.4282   -0.0960 C   0  0  0  0  0  0  0  0  0  0  0  0
   -3.0999   -4.0120   -0.3770 C   0  0  0  0  0  0  0  0  0  0  0  0
   -3.1366    3.7172    0.5524 C   0  0  0  0  0  0  0  0  0  0  0  0
   -3.8612    4.5894   -0.4428 C   0  0  0  0  0  0  0  0  0  0  0  0
    0.3855   -2.3459    0.7230 H   0  0  0  0  0  0  0  0  0  0  0  0
    0.1564   -0.6041   -1.7979 H   0  0  0  0  0  0  0  0  0  0  0  0
    0.2228    0.0370    1.3697 H   0  0  0  0  0  0  0  0  0  0  0  0
   -1.2670   -0.8478    1.7514 H   0  0  0  0  0  0  0  0  0  0  0  0
   -1.7289   -2.1114   -1.2966 H   0  0  0  0  0  0  0  0  0  0  0  0
    1.6532    1.1807   -1.8943 H   0  0  0  0  0  0  0  0  0  0  0  0
    2.6561   -2.2428    0.5292 H   0  0  0  0  0  0  0  0  0  0  0  0
    1.6952   -2.1582   -2.5709 H   0  0  0  0  0  0  0  0  0  0  0  0
    3.7434    2.2582   -1.2534 H   0  0  0  0  0  0  0  0  0  0  0  0
    4.7402   -1.1820    1.1902 H   0  0  0  0  0  0  0  0  0  0  0  0
   -3.5005    1.8509   -0.4689 H   0  0  0  0  0  0  0  0  0  0  0  0
   -1.9940    2.6686   -0.9444 H   0  0  0  0  0  0  0  0  0  0  0  0
   -3.2835   -3.5666   -1.3579 H   0  0  0  0  0  0  0  0  0  0  0  0
   -2.2874    4.2828    0.9520 H   0  0  0  0  0  0  0  0  0  0  0  0
   -3.8218    3.4855    1.3753 H   0  0  0  0  0  0  0  0  0  0  0  0
   -4.7889    6.2989   -0.5485 H   0  0  0  0  0  0  0  0  0  0  0  0
  1 25  1  0  0  0  0
  2 25  1  0  0  0  0
  3 14  1  0  0  0  0
  3 35  1  0  0  0  0
  4 15  1  0  0  0  0
  4 23  1  0  0  0  0
  5 19  2  0  0  0  0
  6 23  2  0  0  0  0
  7 12  1  0  0  0  0
  8 12  2  0  0  0  0
  9 27  1  0  0  0  0
  9 43  1  0  0  0  0
 10 27  2  0  0  0  0
 11 13  1  0  0  0  0
 11 19  1  0  0  0  0
 11 32  1  0  0  0  0
 12 22  1  0  0  0  0
 13 14  1  0  0  0  0
 13 15  1  0  0  0  0
 13 28  1  0  0  0  0
 14 16  1  0  0  0  0
 14 29  1  0  0  0  0
 15 30  1  0  0  0  0
 15 31  1  0  0  0  0
 16 17  2  0  0  0  0
 16 18  1  0  0  0  0
 17 20  1  0  0  0  0
 17 33  1  0  0  0  0
 18 21  2  0  0  0  0
 18 34  1  0  0  0  0
 19 25  1  0  0  0  0
 20 22  2  0  0  0  0
 20 36  1  0  0  0  0
 21 22  1  0  0  0  0
 21 37  1  0  0  0  0
 23 24  1  0  0  0  0
 24 26  1  0  0  0  0
 24 38  1  0  0  0  0
 24 39  1  0  0  0  0
 25 40  1  0  0  0  0
 26 27  1  0  0  0  0
 26 41  1  0  0  0  0
 26 42  1  0  0  0  0
M  CHG  2   7  -1  12   1
M  END
> <PUBCHEM_COMPOUND_CID>
656580

> <PUBCHEM_CONFORMER_RMSD>
1

> <PUBCHEM_CONFORMER_DIVERSEORDER>
1
72
50
15
73
77
63
60
17
59
74
46
14
70
3
51
57
54
78
24
58
25
43
11
69
66
22
67
19
26
29
39
80
79
52
6
28
40
61
2
41
35
42
23
5
64
30
56
16
13
81
53
31
38
47
32
44
68
27
65
4
55
75
71
20
45
8
49
12
36
7
9
34
48
76
33
37
18
10
62
21

> <PUBCHEM_MMFF94_PARTIAL_CHARGES>
34
1 -0.29
10 -0.57
11 -0.73
12 0.91
13 0.3
14 0.42
15 0.28
16 -0.14
17 -0.15
18 -0.15
19 0.57
2 -0.29
20 -0.15
21 -0.15
22 0.13
23 0.66
24 0.06
25 0.64
26 0.06
27 0.66
3 -0.68
32 0.37
33 0.15
34 0.15
35 0.4
36 0.15
37 0.15
4 -0.43
43 0.5
5 -0.57
6 -0.57
7 -0.52
8 -0.52
9 -0.65

> <PUBCHEM_EFFECTIVE_ROTOR_COUNT>
12

> <PUBCHEM_PHARMACOPHORE_FEATURES>
12
1 10 acceptor
1 11 donor
1 3 acceptor
1 3 donor
1 5 acceptor
1 6 acceptor
1 7 acceptor
1 7 anion
1 8 acceptor
1 9 acceptor
3 9 10 27 anion
6 16 17 18 20 21 22 rings

> <PUBCHEM_HEAVY_ATOM_COUNT>
27

> <PUBCHEM_ATOM_DEF_STEREO_COUNT>
2

> <PUBCHEM_ATOM_UDEF_STEREO_COUNT>
0

> <PUBCHEM_BOND_DEF_STEREO_COUNT>
0

> <PUBCHEM_BOND_UDEF_STEREO_COUNT>
0

> <PUBCHEM_ISOTOPIC_ATOM_COUNT>
0

> <PUBCHEM_COMPONENT_COUNT>
1

> <PUBCHEM_CACTVS_TAUTO_COUNT>
2

> <PUBCHEM_CONFORMER_ID>
000A04C400000001

> <PUBCHEM_MMFF94_ENERGY>
54.3226

> <PUBCHEM_FEATURE_SELFOVERLAP>
61.036

> <PUBCHEM_SHAPE_FINGERPRINT>
10937287 8 18194402418861968101
12107183 9 18126860515343414810
12160290 23 18050530102601944067
12788726 201 18270128911192369563
13540713 4 18041264544390992326
13955234 65 17402605746364811185
15420108 30 18127700528756479938
19319366 153 17901678390638788461
20238998 120 18122064192077449583
21304303 282 18338535126230640039
21641784 216 17978489963200434876
21792964 463 17487603135550598173
23558518 356 18342731923375246162
23929065 36 18265072257347583248
4409770 3 18339090302483510295
495365 180 17837761597387291621
6677587 24 16693344802758579709
6695519 79 18046321284319410145
7226269 152 18269841926094442395
77188 2 17834396713875340863

> <PUBCHEM_SHAPE_MULTIPOLES>
502.47
11.13
8.51
1.3
17.18
7.68
-0.02
1.96
1.59
-21.13
-1.32
-0.1
0.07
0.66

> <PUBCHEM_SHAPE_SELFOVERLAP>
1011.182

> <PUBCHEM_SHAPE_VOLUME>
293

> <PUBCHEM_COORDINATE_TYPE>
2
5
10

$$$$

