7919
  -OEChem-06261202273D

 15 14  0     0  0  0  0  0  0999 V2000
    1.4345    1.5438    0.6112 S   0  0  0  0  0  0  0  0  0  0  0  0
    2.4619   -1.0504   -0.4853 S   0  0  0  0  0  0  0  0  0  0  0  0
   -0.0707   -0.6286    0.2806 O   0  0  0  0  0  0  0  0  0  0  0  0
   -1.2518    0.1627    0.1933 C   0  0  0  0  0  0  0  0  0  0  0  0
   -1.3118    0.8233   -1.1756 C   0  0  0  0  0  0  0  0  0  0  0  0
   -2.4648   -0.7181    0.4512 C   0  0  0  0  0  0  0  0  0  0  0  0
    1.2027   -0.1327    0.1246 C   0  0  0  0  0  0  0  0  0  0  0  0
   -1.2429    0.9258    0.9798 H   0  0  0  0  0  0  0  0  0  0  0  0
   -2.2506    1.3738   -1.2978 H   0  0  0  0  0  0  0  0  0  0  0  0
   -0.4983    1.5267   -1.3615 H   0  0  0  0  0  0  0  0  0  0  0  0
   -1.2546    0.0688   -1.9688 H   0  0  0  0  0  0  0  0  0  0  0  0
   -3.3938   -0.1416    0.4099 H   0  0  0  0  0  0  0  0  0  0  0  0
   -2.3899   -1.1913    1.4362 H   0  0  0  0  0  0  0  0  0  0  0  0
   -2.5216   -1.5293   -0.2830 H   0  0  0  0  0  0  0  0  0  0  0  0
    2.7381    1.6207    0.3066 H   0  0  0  0  0  0  0  0  0  0  0  0
  1  7  1  0  0  0  0
  1 15  1  0  0  0  0
  2  7  2  0  0  0  0
  3  4  1  0  0  0  0
  3  7  1  0  0  0  0
  4  5  1  0  0  0  0
  4  6  1  0  0  0  0
  4  8  1  0  0  0  0
  5  9  1  0  0  0  0
  5 10  1  0  0  0  0
  5 11  1  0  0  0  0
  6 12  1  0  0  0  0
  6 13  1  0  0  0  0
  6 14  1  0  0  0  0
M  END
> <PUBCHEM_COMPOUND_CID>
7919

> <PUBCHEM_CONFORMER_RMSD>
0.4

> <PUBCHEM_CONFORMER_DIVERSEORDER>
1
6
5
2
3
4

> <PUBCHEM_MMFF94_PARTIAL_CHARGES>
6
1 -0.32
15 0.18
2 -0.38
3 -0.43
4 0.28
7 0.67

> <PUBCHEM_EFFECTIVE_ROTOR_COUNT>
2

> <PUBCHEM_PHARMACOPHORE_FEATURES>
3
1 2 acceptor
3 1 2 7 anion
3 4 5 6 hydrophobe

> <PUBCHEM_HEAVY_ATOM_COUNT>
7

> <PUBCHEM_ATOM_DEF_STEREO_COUNT>
0

> <PUBCHEM_ATOM_UDEF_STEREO_COUNT>
0

> <PUBCHEM_BOND_DEF_STEREO_COUNT>
0

> <PUBCHEM_BOND_UDEF_STEREO_COUNT>
0

> <PUBCHEM_ISOTOPIC_ATOM_COUNT>
0

> <PUBCHEM_COMPONENT_COUNT>
1

> <PUBCHEM_CACTVS_TAUTO_COUNT>
1

> <PUBCHEM_CONFORMER_ID>
00001EEF00000001

> <PUBCHEM_MMFF94_ENERGY>
17.0618

> <PUBCHEM_FEATURE_SELFOVERLAP>
15.223

> <PUBCHEM_SHAPE_FINGERPRINT>
10857977 72 17702947998604108905
12932741 1 18343312469597942197
14390081 3 10879988038740021999
16714656 1 17775275088744137551
20653085 51 16341143693172043582
20711978 78 18187085018391272572
23552423 10 16916225636045171306
24536 1 18187942671767889777
29004967 10 18114179787046189938
5084963 1 18131627893827407530

> <PUBCHEM_SHAPE_MULTIPOLES>
145.89
3.5
1.43
0.97
0.21
0.42
0.24
-1.06
0
-0.8
-0.1
0.27
0.15
0.62

> <PUBCHEM_SHAPE_SELFOVERLAP>
244.526

> <PUBCHEM_SHAPE_VOLUME>
101

> <PUBCHEM_COORDINATE_TYPE>
2
5
10

$$$$

