17395850
  -OEChem-06241222523D

 41 43  0     0  0  0  0  0  0999 V2000
    1.0054    2.2343    0.4797 O   0  0  0  0  0  0  0  0  0  0  0  0
   -1.6906    1.5169    1.7689 O   0  0  0  0  0  0  0  0  0  0  0  0
   -4.9527   -2.9749   -0.7594 O   0  0  0  0  0  0  0  0  0  0  0  0
   -1.6998    2.1976   -0.4765 N   0  0  0  0  0  0  0  0  0  0  0  0
   -4.8480   -0.7565   -0.0712 N   0  0  0  0  0  0  0  0  0  0  0  0
   -4.0958    0.3349    0.2680 N   0  0  0  0  0  0  0  0  0  0  0  0
    3.2078   -0.7051    0.4656 C   0  0  0  0  0  0  0  0  0  0  0  0
    4.1838   -0.2913   -0.4719 C   0  0  0  0  0  0  0  0  0  0  0  0
    2.0427    1.4099    0.1686 C   0  0  0  0  0  0  0  0  0  0  0  0
    0.5594    3.1294   -0.5381 C   0  0  0  0  0  0  0  0  0  0  0  0
   -0.9226    3.4016   -0.3559 C   0  0  0  0  0  0  0  0  0  0  0  0
    2.1433    0.1574    0.7747 C   0  0  0  0  0  0  0  0  0  0  0  0
    4.0667    0.9728   -1.0726 C   0  0  0  0  0  0  0  0  0  0  0  0
    3.0026    1.8167   -0.7533 C   0  0  0  0  0  0  0  0  0  0  0  0
    3.3246   -1.9692    1.0661 C   0  0  0  0  0  0  0  0  0  0  0  0
    5.2484   -1.1538   -0.7809 C   0  0  0  0  0  0  0  0  0  0  0  0
    4.3889   -2.8132    0.7473 C   0  0  0  0  0  0  0  0  0  0  0  0
    5.3488   -2.4062   -0.1742 C   0  0  0  0  0  0  0  0  0  0  0  0
   -2.0008    1.3847    0.5957 C   0  0  0  0  0  0  0  0  0  0  0  0
   -2.8154    0.1966    0.2259 C   0  0  0  0  0  0  0  0  0  0  0  0
   -2.0764   -1.0103   -0.1483 C   0  0  0  0  0  0  0  0  0  0  0  0
   -4.3023   -1.9770   -0.4493 C   0  0  0  0  0  0  0  0  0  0  0  0
   -2.8231   -2.0624   -0.4749 C   0  0  0  0  0  0  0  0  0  0  0  0
   -6.2952   -0.6326   -0.0340 C   0  0  0  0  0  0  0  0  0  0  0  0
    1.1187    4.0682   -0.4586 H   0  0  0  0  0  0  0  0  0  0  0  0
    0.7007    2.7038   -1.5405 H   0  0  0  0  0  0  0  0  0  0  0  0
   -1.1054    3.8324    0.6347 H   0  0  0  0  0  0  0  0  0  0  0  0
   -1.2791    4.1048   -1.1149 H   0  0  0  0  0  0  0  0  0  0  0  0
    1.3832   -0.1459    1.4927 H   0  0  0  0  0  0  0  0  0  0  0  0
    4.8092    1.3136   -1.7912 H   0  0  0  0  0  0  0  0  0  0  0  0
    2.9774    2.7942   -1.2259 H   0  0  0  0  0  0  0  0  0  0  0  0
    2.5855   -2.3082    1.7892 H   0  0  0  0  0  0  0  0  0  0  0  0
    6.0103   -0.8566   -1.4985 H   0  0  0  0  0  0  0  0  0  0  0  0
   -2.0320    1.9386   -1.4012 H   0  0  0  0  0  0  0  0  0  0  0  0
    4.4676   -3.7885    1.2189 H   0  0  0  0  0  0  0  0  0  0  0  0
    6.1771   -3.0636   -0.4220 H   0  0  0  0  0  0  0  0  0  0  0  0
   -0.9953   -1.0273   -0.1529 H   0  0  0  0  0  0  0  0  0  0  0  0
   -2.3713   -3.0034   -0.7666 H   0  0  0  0  0  0  0  0  0  0  0  0
   -6.5936   -0.3639    0.9836 H   0  0  0  0  0  0  0  0  0  0  0  0
   -6.8027   -1.5564   -0.3219 H   0  0  0  0  0  0  0  0  0  0  0  0
   -6.5920    0.1661   -0.7203 H   0  0  0  0  0  0  0  0  0  0  0  0
  1  9  1  0  0  0  0
  1 10  1  0  0  0  0
  2 19  2  0  0  0  0
  3 22  2  0  0  0  0
  4 11  1  0  0  0  0
  4 19  1  0  0  0  0
  4 34  1  0  0  0  0
  5  6  1  0  0  0  0
  5 22  1  0  0  0  0
  5 24  1  0  0  0  0
  6 20  2  0  0  0  0
  7  8  1  0  0  0  0
  7 12  1  0  0  0  0
  7 15  2  0  0  0  0
  8 13  1  0  0  0  0
  8 16  2  0  0  0  0
  9 12  2  0  0  0  0
  9 14  1  0  0  0  0
 10 11  1  0  0  0  0
 10 25  1  0  0  0  0
 10 26  1  0  0  0  0
 11 27  1  0  0  0  0
 11 28  1  0  0  0  0
 12 29  1  0  0  0  0
 13 14  2  0  0  0  0
 13 30  1  0  0  0  0
 14 31  1  0  0  0  0
 15 17  1  0  0  0  0
 15 32  1  0  0  0  0
 16 18  1  0  0  0  0
 16 33  1  0  0  0  0
 17 18  2  0  0  0  0
 17 35  1  0  0  0  0
 18 36  1  0  0  0  0
 19 20  1  0  0  0  0
 20 21  1  0  0  0  0
 21 23  2  0  0  0  0
 21 37  1  0  0  0  0
 22 23  1  0  0  0  0
 23 38  1  0  0  0  0
 24 39  1  0  0  0  0
 24 40  1  0  0  0  0
 24 41  1  0  0  0  0
M  END
> <PUBCHEM_COMPOUND_CID>
17395850

> <PUBCHEM_CONFORMER_RMSD>
0.8

> <PUBCHEM_CONFORMER_DIVERSEORDER>
1
202
32
168
110
224
258
186
119
161
173
236
54
62
140
95
127
77
208
233
223
107
46
120
72
203
260
125
152
144
43
163
232
159
37
237
172
111
228
115
85
47
114
225
215
190
192
141
207
59
238
99
75
66
212
19
249
39
78
86
108
179
51
257
191
196
57
27
137
73
247
12
197
100
181
209
40
105
204
70
71
139
21
83
189
235
96
106
33
79
253
241
104
15
206
169
230
185
14
92
199
214
222
158
121
174
28
136
129
36
142
226
231
109
29
143
98
17
176
88
193
81
259
219
20
242
56
103
13
244
130
166
55
149
165
65
116
261
94
160
63
31
45
182
164
76
97
68
49
9
84
52
61
198
254
157
151
11
184
80
87
194
234
101
175
170
195
18
117
67
122
256
146
34
177
243
200
218
41
147
138
245
162
60
35
82
64
93
48
6
201
90
133
8
44
240
112
128
113
155
132
102
248
210
221
183
229
171
30
3
118
250
91
123
246
220
89
69
126
7
239
131
153
227
74
24
217
135
180
156
211
26
38
4
23
213
42
216
124
58
134
22
148
178
188
10
251
50
255
205
187
53
16
150
25
167
154
252
5
145
2

> <PUBCHEM_MMFF94_PARTIAL_CHARGES>
32
1 -0.36
10 0.28
11 0.3
12 -0.15
13 -0.15
14 -0.15
15 -0.15
16 -0.15
17 -0.15
18 -0.15
19 0.63
2 -0.57
20 0.44
21 -0.14
22 0.62
23 -0.14
24 0.3
29 0.15
3 -0.57
30 0.15
31 0.15
32 0.15
33 0.15
34 0.37
35 0.15
36 0.15
37 0.15
38 0.15
4 -0.73
5 -0.3
6 -0.51
9 0.08

> <PUBCHEM_EFFECTIVE_ROTOR_COUNT>
6

> <PUBCHEM_PHARMACOPHORE_FEATURES>
8
1 1 acceptor
1 2 acceptor
1 3 acceptor
1 4 donor
1 6 acceptor
6 5 6 20 21 22 23 rings
6 7 8 15 16 17 18 rings
6 7 8 9 12 13 14 rings

> <PUBCHEM_HEAVY_ATOM_COUNT>
24

> <PUBCHEM_ATOM_DEF_STEREO_COUNT>
0

> <PUBCHEM_ATOM_UDEF_STEREO_COUNT>
0

> <PUBCHEM_BOND_DEF_STEREO_COUNT>
0

> <PUBCHEM_BOND_UDEF_STEREO_COUNT>
0

> <PUBCHEM_ISOTOPIC_ATOM_COUNT>
0

> <PUBCHEM_COMPONENT_COUNT>
1

> <PUBCHEM_CACTVS_TAUTO_COUNT>
2

> <PUBCHEM_CONFORMER_ID>
0109708A00000001

> <PUBCHEM_MMFF94_ENERGY>
62.9113

> <PUBCHEM_FEATURE_SELFOVERLAP>
40.623

> <PUBCHEM_SHAPE_FINGERPRINT>
10483366 6 18124894584358652549
10622 236 17771640219583904170
11211813 15 17056084387968326604
12107183 9 18335127731560246217
12166972 35 18059852853082868919
12553582 1 18412272726331960306
12633257 1 17968083261705305089
13631057 29 18409726301311968804
14117953 113 18261674882788262359
14347332 77 18341898549136945258
14429380 30 18342457049937297586
14576447 43 18342452673633965900
14767858 380 18129361771337112012
14866123 147 18263640835522771369
14931854 50 18131066078194304230
15052358 14 18270697462584660373
15352361 1 18410293614092163870
15537594 2 18339906161052834744
16120349 21 18190451848087644617
17492 89 18193557753767329263
17909252 39 18408321108113657178
20291156 8 18410294696366140504
20403669 9 18334571364926129942
20775438 99 17906471930096292259
20775530 9 18408893935779663506
21634736 98 18272645788388043632
221357 26 18272090512897582526
23379529 103 17975406138633979454
23559900 14 18336835173990497113
23622692 118 18340769346832898652
3004659 81 18272654558236306994
3680242 22 18336816542491068691
397830 11 18117581711395592266
44062 13 18340773749016082709
44880168 125 17386006230057256862
46194498 28 17274822389705077732
463206 1 18342172228695383403
56633871 153 18334571378391618139
7970288 3 18410294700714303671
960060 61 18202280260428624172

> <PUBCHEM_SHAPE_MULTIPOLES>
461.36
13.28
3.91
1.01
5.65
1.12
-0.16
-11.83
1.93
-0.14
0.39
-0.37
0.04
-1.62

> <PUBCHEM_SHAPE_SELFOVERLAP>
996.435

> <PUBCHEM_SHAPE_VOLUME>
252.4

> <PUBCHEM_COORDINATE_TYPE>
2
5
10

$$$$

