3032307
  -OEChem-07051212532D

 38 38  0     1  0  0  0  0  0999 V2000
    3.0000    1.5000    0.0000 S   0  0  0  0  0  0  0  0  0  0  0  0
    5.0000   -3.2320    0.0000 S   0  0  0  0  0  0  0  0  0  0  0  0
    3.2680   -0.2321    0.0000 O   0  0  0  0  0  0  0  0  0  0  0  0
    6.7320   -0.2321    0.0000 O   0  0  0  0  0  0  0  0  0  0  0  0
    5.8660   -1.7320    0.0000 N   0  0  0  0  0  0  0  0  0  0  0  0
    4.1340   -1.7320    0.0000 N   0  0  0  0  0  0  0  0  0  0  0  0
    5.0000   -0.2321    0.0000 C   0  0  0  0  0  0  0  0  0  0  0  0
    5.5000    0.6340    0.0000 C   0  0  3  0  0  0  0  0  0  0  0  0
    4.5000    0.6340    0.0000 C   0  0  0  0  0  0  0  0  0  0  0  0
    5.0000    1.5000    0.0000 C   0  0  0  0  0  0  0  0  0  0  0  0
    5.8660   -0.7321    0.0000 C   0  0  0  0  0  0  0  0  0  0  0  0
    4.1340   -0.7321    0.0000 C   0  0  0  0  0  0  0  0  0  0  0  0
    6.5000    0.6340    0.0000 C   0  0  0  0  0  0  0  0  0  0  0  0
    5.5000    2.3660    0.0000 C   0  0  0  0  0  0  0  0  0  0  0  0
    3.5000    0.6340    0.0000 C   0  0  0  0  0  0  0  0  0  0  0  0
    5.0000   -2.2320    0.0000 C   0  0  0  0  0  0  0  0  0  0  0  0
    5.0000    3.2320    0.0000 C   0  0  0  0  0  0  0  0  0  0  0  0
    2.0000    1.5000    0.0000 C   0  0  0  0  0  0  0  0  0  0  0  0
    5.9250    1.3701    0.0000 H   0  0  0  0  0  0  0  0  0  0  0  0
    5.0826    0.8460    0.0000 H   0  0  0  0  0  0  0  0  0  0  0  0
    4.3923    1.2446    0.0000 H   0  0  0  0  0  0  0  0  0  0  0  0
    4.5250    1.8985    0.0000 H   0  0  0  0  0  0  0  0  0  0  0  0
    4.5250    1.1015    0.0000 H   0  0  0  0  0  0  0  0  0  0  0  0
    6.5000    0.0140    0.0000 H   0  0  0  0  0  0  0  0  0  0  0  0
    7.1200    0.6340    0.0000 H   0  0  0  0  0  0  0  0  0  0  0  0
    6.5000    1.2540    0.0000 H   0  0  0  0  0  0  0  0  0  0  0  0
    5.9750    1.9675    0.0000 H   0  0  0  0  0  0  0  0  0  0  0  0
    5.9750    2.7646    0.0000 H   0  0  0  0  0  0  0  0  0  0  0  0
    2.9174    0.4219    0.0000 H   0  0  0  0  0  0  0  0  0  0  0  0
    3.6077    0.0234    0.0000 H   0  0  0  0  0  0  0  0  0  0  0  0
    3.5970   -2.0420    0.0000 H   0  0  0  0  0  0  0  0  0  0  0  0
    6.4030   -2.0420    0.0000 H   0  0  0  0  0  0  0  0  0  0  0  0
    5.5369    3.5420    0.0000 H   0  0  0  0  0  0  0  0  0  0  0  0
    4.6900    3.7690    0.0000 H   0  0  0  0  0  0  0  0  0  0  0  0
    4.4631    2.9220    0.0000 H   0  0  0  0  0  0  0  0  0  0  0  0
    2.0000    2.1200    0.0000 H   0  0  0  0  0  0  0  0  0  0  0  0
    1.3800    1.5000    0.0000 H   0  0  0  0  0  0  0  0  0  0  0  0
    2.0000    0.8800    0.0000 H   0  0  0  0  0  0  0  0  0  0  0  0
  1 15  1  0  0  0  0
  1 18  1  0  0  0  0
  2 16  2  0  0  0  0
  3 12  2  0  0  0  0
  4 11  2  0  0  0  0
  5 11  1  0  0  0  0
  5 16  1  0  0  0  0
  5 32  1  0  0  0  0
  6 12  1  0  0  0  0
  6 16  1  0  0  0  0
  6 31  1  0  0  0  0
  7  8  1  0  0  0  0
  7  9  1  0  0  0  0
  7 11  1  0  0  0  0
  7 12  1  0  0  0  0
  8 10  1  0  0  0  0
  8 13  1  0  0  0  0
  8 19  1  0  0  0  0
  9 15  1  0  0  0  0
  9 20  1  0  0  0  0
  9 21  1  0  0  0  0
 10 14  1  0  0  0  0
 10 22  1  0  0  0  0
 10 23  1  0  0  0  0
 13 24  1  0  0  0  0
 13 25  1  0  0  0  0
 13 26  1  0  0  0  0
 14 17  1  0  0  0  0
 14 27  1  0  0  0  0
 14 28  1  0  0  0  0
 15 29  1  0  0  0  0
 15 30  1  0  0  0  0
 17 33  1  0  0  0  0
 17 34  1  0  0  0  0
 17 35  1  0  0  0  0
 18 36  1  0  0  0  0
 18 37  1  0  0  0  0
 18 38  1  0  0  0  0
M  END
> <PUBCHEM_COMPOUND_CID>
3032307

> <PUBCHEM_COMPOUND_CANONICALIZED>
1

> <PUBCHEM_CACTVS_COMPLEXITY>
338

> <PUBCHEM_CACTVS_HBOND_ACCEPTOR>
4

> <PUBCHEM_CACTVS_HBOND_DONOR>
2

> <PUBCHEM_CACTVS_ROTATABLE_BOND>
6

> <PUBCHEM_CACTVS_SUBSKEYS>
AAADceBzMABgAAAAAAAAAAAAAAAAAAAAAAAsAAAAAAAAAAAAAAAAHgQQAAAADwCFwACDAALAAAgMAAEQEAAAAAAAABkAAAEAAACAABoowAAEAAAIAQIAAAEYiAAPgAAAAAAAAAAAAAAAAAAAAAAAAAAAAA==

> <PUBCHEM_IUPAC_OPENEYE_NAME>
5-(1-methylbutyl)-5-(2-methylsulfanylethyl)-2-thioxo-hexahydropyrimidine-4,6-dione

> <PUBCHEM_IUPAC_CAS_NAME>
5-[2-(methylthio)ethyl]-5-pentan-2-yl-2-sulfanylidene-1,3-diazinane-4,6-dione

> <PUBCHEM_IUPAC_NAME>
5-(2-methylsulfanylethyl)-5-pentan-2-yl-2-sulfanylidene-1,3-diazinane-4,6-dione

> <PUBCHEM_IUPAC_SYSTEMATIC_NAME>
5-(2-methylsulfanylethyl)-5-pentan-2-yl-2-sulfanylidene-1,3-diazinane-4,6-dione

> <PUBCHEM_IUPAC_TRADITIONAL_NAME>
5-(1-methylbutyl)-5-[2-(methylthio)ethyl]-2-thioxo-hexahydropyrimidine-4,6-quinone

> <PUBCHEM_IUPAC_INCHI>
InChI=1S/C12H20N2O2S2/c1-4-5-8(2)12(6-7-18-3)9(15)13-11(17)14-10(12)16/h8H,4-7H2,1-3H3,(H2,13,14,15,16,17)

> <PUBCHEM_IUPAC_INCHIKEY>
KEMCRVSPPRNENL-UHFFFAOYSA-N

> <PUBCHEM_XLOGP3>
3

> <PUBCHEM_EXACT_MASS>
288.09662

> <PUBCHEM_MOLECULAR_FORMULA>
C12H20N2O2S2

> <PUBCHEM_MOLECULAR_WEIGHT>
288.4294

> <PUBCHEM_OPENEYE_CAN_SMILES>
CCCC(C)C1(C(=O)NC(=S)NC1=O)CCSC

> <PUBCHEM_OPENEYE_ISO_SMILES>
CCCC(C)C1(C(=O)NC(=S)NC1=O)CCSC

> <PUBCHEM_CACTVS_TPSA>
116

> <PUBCHEM_MONOISOTOPIC_WEIGHT>
288.09662

> <PUBCHEM_TOTAL_CHARGE>
0

> <PUBCHEM_HEAVY_ATOM_COUNT>
18

> <PUBCHEM_ATOM_DEF_STEREO_COUNT>
0

> <PUBCHEM_ATOM_UDEF_STEREO_COUNT>
1

> <PUBCHEM_BOND_DEF_STEREO_COUNT>
0

> <PUBCHEM_BOND_UDEF_STEREO_COUNT>
0

> <PUBCHEM_ISOTOPIC_ATOM_COUNT>
0

> <PUBCHEM_COMPONENT_COUNT>
1

> <PUBCHEM_CACTVS_TAUTO_COUNT>
5

> <PUBCHEM_COORDINATE_TYPE>
1
5
255

> <PUBCHEM_BONDANNOTATIONS>
8  19  3

$$$$

