25892
  -OEChem-07051213063D

 36 40  0     1  0  0  0  0  0999 V2000
   -3.8895    1.1758    1.3332 O   0  0  0  0  0  0  0  0  0  0  0  0
   -5.6878   -0.0166   -0.3057 O   0  0  0  0  0  0  0  0  0  0  0  0
    0.7719    0.1752   -0.0196 C   0  0  0  0  0  0  0  0  0  0  0  0
   -2.0020    0.6669   -0.0551 C   0  0  0  0  0  0  0  0  0  0  0  0
   -1.5318   -0.6642    0.0234 C   0  0  0  0  0  0  0  0  0  0  0  0
   -0.1290   -0.9231    0.0370 C   0  0  0  0  0  0  0  0  0  0  0  0
   -3.4860    0.9662   -0.0234 C   0  0  1  0  0  0  0  0  0  0  0  0
    2.1794   -0.0350   -0.0077 C   0  0  0  0  0  0  0  0  0  0  0  0
    0.2816    1.5008   -0.0882 C   0  0  0  0  0  0  0  0  0  0  0  0
   -4.3134   -0.1694   -0.6459 C   0  0  1  0  0  0  0  0  0  0  0  0
   -1.0960    1.7302   -0.1027 C   0  0  0  0  0  0  0  0  0  0  0  0
    2.7021   -1.3451    0.0568 C   0  0  0  0  0  0  0  0  0  0  0  0
    3.0708    1.0647   -0.0605 C   0  0  0  0  0  0  0  0  0  0  0  0
   -2.5426   -1.7417    0.1040 C   0  0  0  0  0  0  0  0  0  0  0  0
    0.4384   -2.2168    0.0946 C   0  0  0  0  0  0  0  0  0  0  0  0
   -3.8250   -1.5218   -0.2204 C   0  0  0  0  0  0  0  0  0  0  0  0
    1.1777    2.5764   -0.1391 C   0  0  0  0  0  0  0  0  0  0  0  0
    1.8199   -2.4243    0.1058 C   0  0  0  0  0  0  0  0  0  0  0  0
    2.5544    2.3620   -0.1253 C   0  0  0  0  0  0  0  0  0  0  0  0
    4.0910   -1.5426    0.0685 C   0  0  0  0  0  0  0  0  0  0  0  0
    4.4550    0.8390   -0.0469 C   0  0  0  0  0  0  0  0  0  0  0  0
    4.9610   -0.4567    0.0173 C   0  0  0  0  0  0  0  0  0  0  0  0
   -3.6983    1.8955   -0.5667 H   0  0  0  0  0  0  0  0  0  0  0  0
   -4.2456   -0.1206   -1.7396 H   0  0  0  0  0  0  0  0  0  0  0  0
   -1.4767    2.7497   -0.1461 H   0  0  0  0  0  0  0  0  0  0  0  0
   -2.2451   -2.7367    0.4102 H   0  0  0  0  0  0  0  0  0  0  0  0
   -0.1860   -3.1059    0.1270 H   0  0  0  0  0  0  0  0  0  0  0  0
   -4.5299   -2.3477   -0.1940 H   0  0  0  0  0  0  0  0  0  0  0  0
    0.8120    3.6003   -0.1909 H   0  0  0  0  0  0  0  0  0  0  0  0
    2.1936   -3.4453    0.1519 H   0  0  0  0  0  0  0  0  0  0  0  0
    3.2184    3.2229   -0.1665 H   0  0  0  0  0  0  0  0  0  0  0  0
    4.5078   -2.5464    0.1176 H   0  0  0  0  0  0  0  0  0  0  0  0
    5.1532    1.6725   -0.0866 H   0  0  0  0  0  0  0  0  0  0  0  0
   -4.8056    1.5013    1.3165 H   0  0  0  0  0  0  0  0  0  0  0  0
    6.0347   -0.6203    0.0270 H   0  0  0  0  0  0  0  0  0  0  0  0
   -5.7891   -0.2133    0.6414 H   0  0  0  0  0  0  0  0  0  0  0  0
  1  7  1  0  0  0  0
  1 34  1  0  0  0  0
  2 10  1  0  0  0  0
  2 36  1  0  0  0  0
  3  6  2  0  0  0  0
  3  8  1  0  0  0  0
  3  9  1  0  0  0  0
  4  5  2  0  0  0  0
  4  7  1  0  0  0  0
  4 11  1  0  0  0  0
  5  6  1  0  0  0  0
  5 14  1  0  0  0  0
  6 15  1  0  0  0  0
  7 10  1  0  0  0  0
  7 23  1  0  0  0  0
  8 12  1  0  0  0  0
  8 13  2  0  0  0  0
  9 11  2  0  0  0  0
  9 17  1  0  0  0  0
 10 16  1  0  0  0  0
 10 24  1  0  0  0  0
 11 25  1  0  0  0  0
 12 18  1  0  0  0  0
 12 20  2  0  0  0  0
 13 19  1  0  0  0  0
 13 21  1  0  0  0  0
 14 16  2  0  0  0  0
 14 26  1  0  0  0  0
 15 18  2  0  0  0  0
 15 27  1  0  0  0  0
 16 28  1  0  0  0  0
 17 19  2  0  0  0  0
 17 29  1  0  0  0  0
 18 30  1  0  0  0  0
 19 31  1  0  0  0  0
 20 22  1  0  0  0  0
 20 32  1  0  0  0  0
 21 22  2  0  0  0  0
 21 33  1  0  0  0  0
 22 35  1  0  0  0  0
M  END
> <PUBCHEM_COMPOUND_CID>
25892

> <PUBCHEM_CONFORMER_RMSD>
0.6

> <PUBCHEM_CONFORMER_DIVERSEORDER>
2
1

> <PUBCHEM_MMFF94_PARTIAL_CHARGES>
28
1 -0.68
10 0.42
11 -0.15
14 -0.18
15 -0.15
16 -0.29
17 -0.15
18 -0.15
19 -0.15
2 -0.68
20 -0.15
21 -0.15
22 -0.15
25 0.15
26 0.15
27 0.15
28 0.15
29 0.15
30 0.15
31 0.15
32 0.15
33 0.15
34 0.4
35 0.15
36 0.4
4 -0.14
5 0.03
7 0.42

> <PUBCHEM_EFFECTIVE_ROTOR_COUNT>
0.4

> <PUBCHEM_PHARMACOPHORE_FEATURES>
9
1 1 acceptor
1 1 donor
1 2 acceptor
1 2 donor
6 3 4 5 6 9 11 rings
6 3 6 8 12 15 18 rings
6 3 8 9 13 17 19 rings
6 4 5 7 10 14 16 rings
6 8 12 13 20 21 22 rings

> <PUBCHEM_HEAVY_ATOM_COUNT>
22

> <PUBCHEM_ATOM_DEF_STEREO_COUNT>
0

> <PUBCHEM_ATOM_UDEF_STEREO_COUNT>
2

> <PUBCHEM_BOND_DEF_STEREO_COUNT>
0

> <PUBCHEM_BOND_UDEF_STEREO_COUNT>
0

> <PUBCHEM_ISOTOPIC_ATOM_COUNT>
0

> <PUBCHEM_COMPONENT_COUNT>
1

> <PUBCHEM_CACTVS_TAUTO_COUNT>
1

> <PUBCHEM_CONFORMER_ID>
0000652400000002

> <PUBCHEM_MMFF94_ENERGY>
75.7987

> <PUBCHEM_FEATURE_SELFOVERLAP>
45.833

> <PUBCHEM_SHAPE_FINGERPRINT>
10062212 137 18335425642574581135
10411042 1 18051133897869111826
10616163 171 18336826403340594807
10906281 52 18340469140960179310
10967382 1 18411419540116956846
1100329 8 18339366262484634522
11471102 20 18411984654528115164
11578080 2 16843055366399657646
12011746 2 18411979161581526374
12107183 9 17686052104052013971
12236239 1 17967253105030946581
12553582 1 18339924938538979090
12838862 33 18267043716446527908
13140716 1 18411131403213505753
13224815 77 18412824685575048851
13583140 156 16845575309664131857
138480 1 18411420579446938132
13862211 1 18340209691193272378
14790565 3 18268139869436655132
15196674 1 18411137995988194358
15230672 131 13514904377855434147
15442244 35 18409447024435308673
15536298 74 18334859394239062312
15848702 151 18114457958913553438
1601671 61 18409729582139286806
16945 1 18339364187624683028
17349148 13 18187368727014552271
17492 89 18337672992813476775
1813 80 17418091027095138916
18681886 176 18260556589031110554
19591789 44 18339080380618127590
200 152 18186806859519535559
20028762 73 18187653483041270990
20645477 70 18342181041989055285
20691752 17 17846219946865381250
20905425 154 18193277631609877806
21029758 11 18408888438147632536
21033648 29 17560534949218180949
21267235 1 18410285921816617527
21279426 13 18268716193247498527
21421861 104 17843123864093115650
221490 88 18269832025740761219
2334 1 18267302028025937452
23402539 116 18335428950037165278
23558518 356 17625264109088568354
23559900 14 18337678503361473448
2748010 2 18196931067703171020
2871803 45 18341898519209246374
3004659 81 18202001045517113246
335352 9 18411420630606127319
34797466 226 16371005161666543072
34934 24 18339929319548279631
350125 39 18410572886294191473
3680242 22 18271248343031029434
4214541 1 18410012148021996349
474 4 18342175535777665283
5104073 3 18410573963681929331
6138700 20 18411981403829150950
7364860 26 18409168783637569580
9709674 26 18341047398256619651
9981440 41 17401494749440961904

> <PUBCHEM_SHAPE_MULTIPOLES>
441.01
9.37
2.64
0.7
4.13
0.13
-0.06
-0.72
0.27
-1.16
-0.03
0.31
0.07
-0.35

> <PUBCHEM_SHAPE_SELFOVERLAP>
1025.659

> <PUBCHEM_SHAPE_VOLUME>
224.6

> <PUBCHEM_COORDINATE_TYPE>
2
5
10

$$$$

