47205302
  -OEChem-06241222582D

 39 40  0     0  0  0  0  0  0999 V2000
    3.7320   -1.6012    0.0000 O   0  0  0  0  0  0  0  0  0  0  0  0
    4.5981    1.8988    0.0000 O   0  0  0  0  0  0  0  0  0  0  0  0
    6.3301    1.8988    0.0000 N   0  0  0  0  0  0  0  0  0  0  0  0
    8.1097    2.9920    0.0000 N   0  0  0  0  0  0  0  0  0  0  0  0
    8.7788    3.7352    0.0000 N   0  0  0  0  0  0  0  0  0  0  0  0
    4.5981   -0.1012    0.0000 C   0  0  0  0  0  0  0  0  0  0  0  0
    5.4641    0.3988    0.0000 C   0  0  0  0  0  0  0  0  0  0  0  0
    4.5981   -1.1012    0.0000 C   0  0  0  0  0  0  0  0  0  0  0  0
    5.4641    1.3988    0.0000 C   0  0  0  0  0  0  0  0  0  0  0  0
    6.3301    2.8988    0.0000 C   0  0  0  0  0  0  0  0  0  0  0  0
    3.7320   -2.6012    0.0000 C   0  0  0  0  0  0  0  0  0  0  0  0
    7.1962    3.3988    0.0000 C   0  0  0  0  0  0  0  0  0  0  0  0
    2.8660   -3.1012    0.0000 C   0  0  0  0  0  0  0  0  0  0  0  0
    4.5981   -3.1012    0.0000 C   0  0  0  0  0  0  0  0  0  0  0  0
    2.8660   -4.1012    0.0000 C   0  0  0  0  0  0  0  0  0  0  0  0
    7.3007    4.3933    0.0000 C   0  0  0  0  0  0  0  0  0  0  0  0
    2.0000   -2.6012    0.0000 C   0  0  0  0  0  0  0  0  0  0  0  0
    4.5981   -4.1012    0.0000 C   0  0  0  0  0  0  0  0  0  0  0  0
    3.7320   -4.6012    0.0000 C   0  0  0  0  0  0  0  0  0  0  0  0
    8.2788    4.6012    0.0000 C   0  0  0  0  0  0  0  0  0  0  0  0
    4.3860    0.4814    0.0000 H   0  0  0  0  0  0  0  0  0  0  0  0
    3.9875   -0.2089    0.0000 H   0  0  0  0  0  0  0  0  0  0  0  0
    5.6762   -0.1838    0.0000 H   0  0  0  0  0  0  0  0  0  0  0  0
    6.0747    0.5064    0.0000 H   0  0  0  0  0  0  0  0  0  0  0  0
    4.8101   -1.6838    0.0000 H   0  0  0  0  0  0  0  0  0  0  0  0
    5.2087   -0.9936    0.0000 H   0  0  0  0  0  0  0  0  0  0  0  0
    6.1181    3.4814    0.0000 H   0  0  0  0  0  0  0  0  0  0  0  0
    5.7196    2.7911    0.0000 H   0  0  0  0  0  0  0  0  0  0  0  0
    6.8671    1.5888    0.0000 H   0  0  0  0  0  0  0  0  0  0  0  0
    5.1350   -2.7912    0.0000 H   0  0  0  0  0  0  0  0  0  0  0  0
    2.3291   -4.4112    0.0000 H   0  0  0  0  0  0  0  0  0  0  0  0
    6.8399    4.8082    0.0000 H   0  0  0  0  0  0  0  0  0  0  0  0
    8.2386    2.3856    0.0000 H   0  0  0  0  0  0  0  0  0  0  0  0
    2.3100   -2.0643    0.0000 H   0  0  0  0  0  0  0  0  0  0  0  0
    1.4631   -2.2912    0.0000 H   0  0  0  0  0  0  0  0  0  0  0  0
    1.6900   -3.1382    0.0000 H   0  0  0  0  0  0  0  0  0  0  0  0
    5.1350   -4.4112    0.0000 H   0  0  0  0  0  0  0  0  0  0  0  0
    3.7320   -5.2212    0.0000 H   0  0  0  0  0  0  0  0  0  0  0  0
    8.5310    5.1676    0.0000 H   0  0  0  0  0  0  0  0  0  0  0  0
  1  8  1  0  0  0  0
  1 11  1  0  0  0  0
  2  9  2  0  0  0  0
  3  9  1  0  0  0  0
  3 10  1  0  0  0  0
  3 29  1  0  0  0  0
  4  5  1  0  0  0  0
  4 12  1  0  0  0  0
  4 33  1  0  0  0  0
  5 20  2  0  0  0  0
  6  7  1  0  0  0  0
  6  8  1  0  0  0  0
  6 21  1  0  0  0  0
  6 22  1  0  0  0  0
  7  9  1  0  0  0  0
  7 23  1  0  0  0  0
  7 24  1  0  0  0  0
  8 25  1  0  0  0  0
  8 26  1  0  0  0  0
 10 12  1  0  0  0  0
 10 27  1  0  0  0  0
 10 28  1  0  0  0  0
 11 13  1  0  0  0  0
 11 14  2  0  0  0  0
 12 16  2  0  0  0  0
 13 15  2  0  0  0  0
 13 17  1  0  0  0  0
 14 18  1  0  0  0  0
 14 30  1  0  0  0  0
 15 19  1  0  0  0  0
 15 31  1  0  0  0  0
 16 20  1  0  0  0  0
 16 32  1  0  0  0  0
 17 34  1  0  0  0  0
 17 35  1  0  0  0  0
 17 36  1  0  0  0  0
 18 19  2  0  0  0  0
 18 37  1  0  0  0  0
 19 38  1  0  0  0  0
 20 39  1  0  0  0  0
M  END
> <PUBCHEM_COMPOUND_CID>
47205302

> <PUBCHEM_COMPOUND_CANONICALIZED>
1

> <PUBCHEM_CACTVS_COMPLEXITY>
299

> <PUBCHEM_CACTVS_HBOND_ACCEPTOR>
3

> <PUBCHEM_CACTVS_HBOND_DONOR>
2

> <PUBCHEM_CACTVS_ROTATABLE_BOND>
7

> <PUBCHEM_CACTVS_SUBSKEYS>
AAADceBzMAAAAAAAAAAAAAAAAAAAAWAAAAAwAAAAAAAAAAABwAAAHgAYAAAADAzhngY+hpLjBACqAzV3UACSDAAgogAYuaE+bJgMZrKE8duWvCjk3hGI6AeiwCAOAAAAAAAIAAAAAAAAABAAAAAAAAAAAA==

> <PUBCHEM_IUPAC_OPENEYE_NAME>
4-(2-methylphenoxy)-N-(1H-pyrazol-5-ylmethyl)butanamide

> <PUBCHEM_IUPAC_CAS_NAME>
4-(2-methylphenoxy)-N-(1H-pyrazol-5-ylmethyl)butanamide

> <PUBCHEM_IUPAC_NAME>
4-(2-methylphenoxy)-N-(1H-pyrazol-5-ylmethyl)butanamide

> <PUBCHEM_IUPAC_SYSTEMATIC_NAME>
4-(2-methylphenoxy)-N-(1H-pyrazol-5-ylmethyl)butanamide

> <PUBCHEM_IUPAC_TRADITIONAL_NAME>
4-(2-methylphenoxy)-N-(1H-pyrazol-5-ylmethyl)butyramide

> <PUBCHEM_IUPAC_INCHI>
InChI=1S/C15H19N3O2/c1-12-5-2-3-6-14(12)20-10-4-7-15(19)16-11-13-8-9-17-18-13/h2-3,5-6,8-9H,4,7,10-11H2,1H3,(H,16,19)(H,17,18)

> <PUBCHEM_IUPAC_INCHIKEY>
QORNCWQAZGOIOL-UHFFFAOYSA-N

> <PUBCHEM_XLOGP3_AA>
1.7

> <PUBCHEM_EXACT_MASS>
273.147727

> <PUBCHEM_MOLECULAR_FORMULA>
C15H19N3O2

> <PUBCHEM_MOLECULAR_WEIGHT>
273.33026

> <PUBCHEM_OPENEYE_CAN_SMILES>
CC1=CC=CC=C1OCCCC(=O)NCC2=CC=NN2

> <PUBCHEM_OPENEYE_ISO_SMILES>
CC1=CC=CC=C1OCCCC(=O)NCC2=CC=NN2

> <PUBCHEM_CACTVS_TPSA>
67

> <PUBCHEM_MONOISOTOPIC_WEIGHT>
273.147727

> <PUBCHEM_TOTAL_CHARGE>
0

> <PUBCHEM_HEAVY_ATOM_COUNT>
20

> <PUBCHEM_ATOM_DEF_STEREO_COUNT>
0

> <PUBCHEM_ATOM_UDEF_STEREO_COUNT>
0

> <PUBCHEM_BOND_DEF_STEREO_COUNT>
0

> <PUBCHEM_BOND_UDEF_STEREO_COUNT>
0

> <PUBCHEM_ISOTOPIC_ATOM_COUNT>
0

> <PUBCHEM_COMPONENT_COUNT>
1

> <PUBCHEM_CACTVS_TAUTO_COUNT>
4

> <PUBCHEM_COORDINATE_TYPE>
1
5
255

> <PUBCHEM_BONDANNOTATIONS>
11  13  8
11  14  8
12  16  8
13  15  8
14  18  8
15  19  8
16  20  8
18  19  8
4  12  8
4  5  8
5  20  8

$$$$

