442534
  -OEChem-07051212582D

 62 67  0     1  0  0  0  0  0999 V2000
    8.2738    2.7470    0.0000 O   0  0  0  0  0  0  0  0  0  0  0  0
    9.3855    1.2096    0.0000 O   0  0  0  0  0  0  0  0  0  0  0  0
    6.1558    2.3838    0.0000 O   0  0  0  0  0  0  0  0  0  0  0  0
    9.1820   -0.7301    0.0000 O   0  0  0  0  0  0  0  0  0  0  0  0
    8.4783   -0.3741    0.0000 O   0  0  0  0  0  0  0  0  0  0  0  0
    5.1377    0.9825    0.0000 O   0  0  0  0  0  0  0  0  0  0  0  0
    4.5377    3.5593    0.0000 O   0  0  0  0  0  0  0  0  0  0  0  0
    2.7106    2.7459    0.0000 O   0  0  0  0  0  0  0  0  0  0  0  0
    6.8960   -1.0786    0.0000 O   0  0  0  0  0  0  0  0  0  0  0  0
    2.5016    0.7568    0.0000 O   0  0  0  0  0  0  0  0  0  0  0  0
    3.2061   -0.8255    0.0000 O   0  0  0  0  0  0  0  0  0  0  0  0
    7.7738    1.2082    0.0000 C   0  0  1  0  0  0  0  0  0  0  0  0
    6.9648    1.7960    0.0000 C   0  0  2  0  0  0  0  0  0  0  0  0
    8.0834    0.2636    0.0000 C   0  0  1  0  0  0  0  0  0  0  0  0
    7.2738    2.7470    0.0000 C   0  0  2  0  0  0  0  0  0  0  0  0
    7.2724    0.8460    0.0000 C   0  0  0  0  0  0  0  0  0  0  0  0
    9.0775    0.2644    0.0000 C   0  0  1  0  0  0  0  0  0  0  0  0
    8.5828    1.7960    0.0000 C   0  0  2  0  0  0  0  0  0  0  0  0
    8.8923    2.0264    0.0000 C   0  0  0  0  0  0  0  0  0  0  0  0
    8.5828    0.6204    0.0000 C   0  0  0  0  0  0  0  0  0  0  0  0
    6.6860    3.5560    0.0000 C   0  0  0  0  0  0  0  0  0  0  0  0
    5.2422    1.9770    0.0000 C   0  0  2  0  0  0  0  0  0  0  0  0
    4.4332    2.5648    0.0000 C   0  0  1  0  0  0  0  0  0  0  0  0
    7.8905   -1.1831    0.0000 C   0  0  0  0  0  0  0  0  0  0  0  0
    3.5197    2.1581    0.0000 C   0  0  2  0  0  0  0  0  0  0  0  0
    4.2242    0.5758    0.0000 C   0  0  1  0  0  0  0  0  0  0  0  0
    3.4151    1.1636    0.0000 C   0  0  1  0  0  0  0  0  0  0  0  0
    8.2973   -2.0967    0.0000 C   0  0  0  0  0  0  0  0  0  0  0  0
    4.1196   -0.4188    0.0000 C   0  0  0  0  0  0  0  0  0  0  0  0
    7.7095   -2.9057    0.0000 C   0  0  0  0  0  0  0  0  0  0  0  0
    9.2918   -2.2012    0.0000 C   0  0  0  0  0  0  0  0  0  0  0  0
    8.1162   -3.8192    0.0000 C   0  0  0  0  0  0  0  0  0  0  0  0
    9.6986   -3.1147    0.0000 C   0  0  0  0  0  0  0  0  0  0  0  0
    9.1108   -3.9238    0.0000 C   0  0  0  0  0  0  0  0  0  0  0  0
    7.3076   -0.0835    0.0000 H   0  0  0  0  0  0  0  0  0  0  0  0
    6.6524    0.8453    0.0000 H   0  0  0  0  0  0  0  0  0  0  0  0
    7.0828    0.2557    0.0000 H   0  0  0  0  0  0  0  0  0  0  0  0
    8.7885    2.6207    0.0000 H   0  0  0  0  0  0  0  0  0  0  0  0
    9.5108    1.9832    0.0000 H   0  0  0  0  0  0  0  0  0  0  0  0
    9.0423    2.6280    0.0000 H   0  0  0  0  0  0  0  0  0  0  0  0
    9.1788    0.4495    0.0000 H   0  0  0  0  0  0  0  0  0  0  0  0
    8.8546    1.1777    0.0000 H   0  0  0  0  0  0  0  0  0  0  0  0
    7.1876    3.9205    0.0000 H   0  0  0  0  0  0  0  0  0  0  0  0
    6.3216    4.0576    0.0000 H   0  0  0  0  0  0  0  0  0  0  0  0
    6.1844    3.1916    0.0000 H   0  0  0  0  0  0  0  0  0  0  0  0
    9.7484   -0.9823    0.0000 H   0  0  0  0  0  0  0  0  0  0  0  0
    5.3070    2.5936    0.0000 H   0  0  0  0  0  0  0  0  0  0  0  0
    3.9316    2.9292    0.0000 H   0  0  0  0  0  0  0  0  0  0  0  0
    2.9533    1.9059    0.0000 H   0  0  0  0  0  0  0  0  0  0  0  0
    4.7257    0.2113    0.0000 H   0  0  0  0  0  0  0  0  0  0  0  0
    3.3503    0.5469    0.0000 H   0  0  0  0  0  0  0  0  0  0  0  0
    4.0362    3.9238    0.0000 H   0  0  0  0  0  0  0  0  0  0  0  0
    4.2696   -1.0203    0.0000 H   0  0  0  0  0  0  0  0  0  0  0  0
    4.7381   -0.3755    0.0000 H   0  0  0  0  0  0  0  0  0  0  0  0
    2.1442    2.4937    0.0000 H   0  0  0  0  0  0  0  0  0  0  0  0
    2.0000    1.1212    0.0000 H   0  0  0  0  0  0  0  0  0  0  0  0
    7.0928   -2.8409    0.0000 H   0  0  0  0  0  0  0  0  0  0  0  0
    9.6563   -1.6996    0.0000 H   0  0  0  0  0  0  0  0  0  0  0  0
    3.1413   -1.4421    0.0000 H   0  0  0  0  0  0  0  0  0  0  0  0
    7.7518   -4.3208    0.0000 H   0  0  0  0  0  0  0  0  0  0  0  0
   10.3152   -3.1795    0.0000 H   0  0  0  0  0  0  0  0  0  0  0  0
    9.3630   -4.4902    0.0000 H   0  0  0  0  0  0  0  0  0  0  0  0
  1 15  1  0  0  0  0
  1 18  1  0  0  0  0
  2 17  1  0  0  0  0
  2 18  1  0  0  0  0
 13  3  1  1  0  0  0
 22  3  1  6  0  0  0
 17  4  1  6  0  0  0
  4 46  1  0  0  0  0
  5 20  1  0  0  0  0
  5 24  1  0  0  0  0
  6 22  1  0  0  0  0
  6 26  1  0  0  0  0
 23  7  1  1  0  0  0
  7 52  1  0  0  0  0
 25  8  1  6  0  0  0
  8 55  1  0  0  0  0
  9 24  2  0  0  0  0
 27 10  1  1  0  0  0
 10 56  1  0  0  0  0
 11 29  1  0  0  0  0
 11 59  1  0  0  0  0
 12 13  1  0  0  0  0
 12 14  1  0  0  0  0
 12 18  1  0  0  0  0
 12 20  1  1  0  0  0
 13 15  1  0  0  0  0
 13 16  1  0  0  0  0
 14 16  1  0  0  0  0
 14 17  1  0  0  0  0
 14 35  1  1  0  0  0
 15 19  1  0  0  0  0
 15 21  1  6  0  0  0
 16 36  1  0  0  0  0
 16 37  1  0  0  0  0
 17 19  1  0  0  0  0
 18 38  1  1  0  0  0
 19 39  1  0  0  0  0
 19 40  1  0  0  0  0
 20 41  1  0  0  0  0
 20 42  1  0  0  0  0
 21 43  1  0  0  0  0
 21 44  1  0  0  0  0
 21 45  1  0  0  0  0
 22 23  1  0  0  0  0
 22 47  1  0  0  0  0
 23 25  1  0  0  0  0
 23 48  1  0  0  0  0
 24 28  1  0  0  0  0
 25 27  1  0  0  0  0
 25 49  1  0  0  0  0
 26 27  1  0  0  0  0
 26 29  1  6  0  0  0
 26 50  1  0  0  0  0
 27 51  1  0  0  0  0
 28 30  2  0  0  0  0
 28 31  1  0  0  0  0
 29 53  1  0  0  0  0
 29 54  1  0  0  0  0
 30 32  1  0  0  0  0
 30 57  1  0  0  0  0
 31 33  2  0  0  0  0
 31 58  1  0  0  0  0
 32 34  2  0  0  0  0
 32 60  1  0  0  0  0
 33 34  1  0  0  0  0
 33 61  1  0  0  0  0
 34 62  1  0  0  0  0
M  END
> <PUBCHEM_COMPOUND_CID>
442534

> <PUBCHEM_COMPOUND_CANONICALIZED>
1

> <PUBCHEM_CACTVS_COMPLEXITY>
849

> <PUBCHEM_CACTVS_HBOND_ACCEPTOR>
11

> <PUBCHEM_CACTVS_HBOND_DONOR>
5

> <PUBCHEM_CACTVS_ROTATABLE_BOND>
7

> <PUBCHEM_CACTVS_SUBSKEYS>
AAADceB4PAAAAAAAAAAAAAAAAABgASJAAAA0aMECAAAAAAABAAAAGgAACAAAD1SwmAMyCIAABgCIAiDSCAACAAAkAAAIiAEACMgZNjKANRiicQAlwAEPqYfI6PyPgAAAAAAAAADCAAYQADCAAAAAAAAAAA==

> <PUBCHEM_IUPAC_INCHI>
InChI=1S/C23H28O11/c1-20-9-22(29)13-7-23(20,32-18-16(27)15(26)14(25)12(8-24)31-18)21(13,19(33-20)34-22)10-30-17(28)11-5-3-2-4-6-11/h2-6,12-16,18-19,24-27,29H,7-10H2,1H3/t12-,13-,14-,15+,16-,18+,19-,20+,21+,22-,23+/m1/s1

> <PUBCHEM_IUPAC_INCHIKEY>
YKRGDOXKVOZESV-WRJNSLSBSA-N

> <PUBCHEM_XLOGP3_AA>
-1

> <PUBCHEM_EXACT_MASS>
480.163162

> <PUBCHEM_MOLECULAR_FORMULA>
C23H28O11

> <PUBCHEM_MOLECULAR_WEIGHT>
480.46182

> <PUBCHEM_OPENEYE_CAN_SMILES>
CC12CC3(C4CC1(C4(C(O2)O3)COC(=O)C5=CC=CC=C5)OC6C(C(C(C(O6)CO)O)O)O)O

> <PUBCHEM_OPENEYE_ISO_SMILES>
C[C@]12C[C@@]3([C@@H]4C[C@]1([C@@]4([C@H](O2)O3)COC(=O)C5=CC=CC=C5)O[C@H]6[C@@H]([C@H]([C@@H]([C@H](O6)CO)O)O)O)O

> <PUBCHEM_CACTVS_TPSA>
164

> <PUBCHEM_MONOISOTOPIC_WEIGHT>
480.163162

> <PUBCHEM_TOTAL_CHARGE>
0

> <PUBCHEM_HEAVY_ATOM_COUNT>
34

> <PUBCHEM_ATOM_DEF_STEREO_COUNT>
11

> <PUBCHEM_ATOM_UDEF_STEREO_COUNT>
0

> <PUBCHEM_BOND_DEF_STEREO_COUNT>
0

> <PUBCHEM_BOND_UDEF_STEREO_COUNT>
0

> <PUBCHEM_ISOTOPIC_ATOM_COUNT>
0

> <PUBCHEM_COMPONENT_COUNT>
1

> <PUBCHEM_CACTVS_TAUTO_COUNT>
1

> <PUBCHEM_COORDINATE_TYPE>
1
5
255

> <PUBCHEM_BONDANNOTATIONS>
27  10  5
12  20  5
14  35  5
15  21  6
18  38  5
26  29  6
28  30  8
28  31  8
13  3  5
22  3  6
30  32  8
31  33  8
32  34  8
33  34  8
17  4  6
23  7  5
25  8  6

$$$$

