442507
  -OEChem-07051212582D

 23 24  0     1  0  0  0  0  0999 V2000
    2.0000    2.1276    0.0000 O   0  0  0  0  0  0  0  0  0  0  0  0
    2.0000   -0.8724    0.0000 N   0  0  0  0  0  0  0  0  0  0  0  0
    4.6783   -1.1771    0.0000 C   0  0  2  0  0  0  0  0  0  0  0  0
    5.2619   -0.3724    0.0000 C   0  0  0  0  0  0  0  0  0  0  0  0
    4.6783    0.4324    0.0000 C   0  0  0  0  0  0  0  0  0  0  0  0
    3.7320   -0.8724    0.0000 C   0  0  0  0  0  0  0  0  0  0  0  0
    3.7320    0.1276    0.0000 C   0  0  0  0  0  0  0  0  0  0  0  0
    4.9889   -2.1276    0.0000 C   0  0  0  0  0  0  0  0  0  0  0  0
    2.8660    0.6276    0.0000 C   0  0  0  0  0  0  0  0  0  0  0  0
    2.8660   -1.3724    0.0000 C   0  0  0  0  0  0  0  0  0  0  0  0
    2.0000    0.1276    0.0000 C   0  0  0  0  0  0  0  0  0  0  0  0
    2.8660    1.6276    0.0000 C   0  0  0  0  0  0  0  0  0  0  0  0
    5.2908   -1.2733    0.0000 H   0  0  0  0  0  0  0  0  0  0  0  0
    5.7227   -0.7871    0.0000 H   0  0  0  0  0  0  0  0  0  0  0  0
    5.7227    0.0424    0.0000 H   0  0  0  0  0  0  0  0  0  0  0  0
    5.2156    0.7416    0.0000 H   0  0  0  0  0  0  0  0  0  0  0  0
    4.4272    0.9993    0.0000 H   0  0  0  0  0  0  0  0  0  0  0  0
    4.3996   -2.3202    0.0000 H   0  0  0  0  0  0  0  0  0  0  0  0
    5.1815   -2.7170    0.0000 H   0  0  0  0  0  0  0  0  0  0  0  0
    5.5783   -1.9350    0.0000 H   0  0  0  0  0  0  0  0  0  0  0  0
    2.8660   -1.9924    0.0000 H   0  0  0  0  0  0  0  0  0  0  0  0
    1.4631    0.4376    0.0000 H   0  0  0  0  0  0  0  0  0  0  0  0
    3.4030    1.9376    0.0000 H   0  0  0  0  0  0  0  0  0  0  0  0
  1 12  2  0  0  0  0
  2 10  2  0  0  0  0
  2 11  1  0  0  0  0
  3  4  1  0  0  0  0
  3  6  1  0  0  0  0
  3  8  1  1  0  0  0
  3 13  1  0  0  0  0
  4  5  1  0  0  0  0
  4 14  1  0  0  0  0
  4 15  1  0  0  0  0
  5  7  1  0  0  0  0
  5 16  1  0  0  0  0
  5 17  1  0  0  0  0
  6  7  2  0  0  0  0
  6 10  1  0  0  0  0
  7  9  1  0  0  0  0
  8 18  1  0  0  0  0
  8 19  1  0  0  0  0
  8 20  1  0  0  0  0
  9 11  2  0  0  0  0
  9 12  1  0  0  0  0
 10 21  1  0  0  0  0
 11 22  1  0  0  0  0
 12 23  1  0  0  0  0
M  END
> <PUBCHEM_COMPOUND_CID>
442507

> <PUBCHEM_COMPOUND_CANONICALIZED>
1

> <PUBCHEM_CACTVS_COMPLEXITY>
181

> <PUBCHEM_CACTVS_HBOND_ACCEPTOR>
2

> <PUBCHEM_CACTVS_HBOND_DONOR>
0

> <PUBCHEM_CACTVS_ROTATABLE_BOND>
1

> <PUBCHEM_CACTVS_SUBSKEYS>
AAADccByIAAAAAAAAAAAAAAAAAAAAYAAAAAsAAAAAAAAAFgBgAAAHgAAAAAADQDhmgYugJIIEACoAhh3xACCgCA1ACAA2CEoRNgIIHrAlZGEIYhggADIyccYicCOgAAAAAAAAAAAAAAAAAAAAQAACAAAAA==

> <PUBCHEM_IUPAC_OPENEYE_NAME>
(7R)-7-methyl-6,7-dihydro-5H-cyclopenta[c]pyridine-4-carbaldehyde

> <PUBCHEM_IUPAC_CAS_NAME>
(7R)-7-methyl-6,7-dihydro-5H-cyclopenta[c]pyridine-4-carboxaldehyde

> <PUBCHEM_IUPAC_NAME>
(7R)-7-methyl-6,7-dihydro-5H-cyclopenta[c]pyridine-4-carbaldehyde

> <PUBCHEM_IUPAC_SYSTEMATIC_NAME>
(7R)-7-methyl-6,7-dihydro-5H-cyclopenta[c]pyridine-4-carbaldehyde

> <PUBCHEM_IUPAC_TRADITIONAL_NAME>
(7R)-7-methyl-2-pyrindan-4-carbaldehyde

> <PUBCHEM_IUPAC_INCHI>
InChI=1S/C10H11NO/c1-7-2-3-9-8(6-12)4-11-5-10(7)9/h4-7H,2-3H2,1H3/t7-/m1/s1

> <PUBCHEM_IUPAC_INCHIKEY>
OPRAONAUWNNOOV-SSDOTTSWSA-N

> <PUBCHEM_XLOGP3_AA>
1.5

> <PUBCHEM_EXACT_MASS>
161.084064

> <PUBCHEM_MOLECULAR_FORMULA>
C10H11NO

> <PUBCHEM_MOLECULAR_WEIGHT>
161.20044

> <PUBCHEM_OPENEYE_CAN_SMILES>
CC1CCC2=C1C=NC=C2C=O

> <PUBCHEM_OPENEYE_ISO_SMILES>
C[C@@H]1CCC2=C1C=NC=C2C=O

> <PUBCHEM_CACTVS_TPSA>
30

> <PUBCHEM_MONOISOTOPIC_WEIGHT>
161.084064

> <PUBCHEM_TOTAL_CHARGE>
0

> <PUBCHEM_HEAVY_ATOM_COUNT>
12

> <PUBCHEM_ATOM_DEF_STEREO_COUNT>
1

> <PUBCHEM_ATOM_UDEF_STEREO_COUNT>
0

> <PUBCHEM_BOND_DEF_STEREO_COUNT>
0

> <PUBCHEM_BOND_UDEF_STEREO_COUNT>
0

> <PUBCHEM_ISOTOPIC_ATOM_COUNT>
0

> <PUBCHEM_COMPONENT_COUNT>
1

> <PUBCHEM_CACTVS_TAUTO_COUNT>
1

> <PUBCHEM_COORDINATE_TYPE>
1
5
255

> <PUBCHEM_BONDANNOTATIONS>
2  10  8
2  11  8
3  8  5
6  10  8
6  7  8
7  9  8
9  11  8

$$$$

