5798639
  -OEChem-07051213143D

 36 38  0     0  0  0  0  0  0999 V2000
    0.2484   -1.9491    0.8031 O   0  0  0  0  0  0  0  0  0  0  0  0
   -4.2212   -2.2487   -1.0915 O   0  5  0  0  0  0  0  0  0  0  0  0
   -2.0269   -2.2651   -1.0279 O   0  0  0  0  0  0  0  0  0  0  0  0
   -0.6892   -0.3433   -0.1887 N   0  0  0  0  0  0  0  0  0  0  0  0
    0.4003    0.3943   -0.4724 N   0  0  0  0  0  0  0  0  0  0  0  0
   -3.1265   -1.6980   -0.8284 N   0  3  0  0  0  0  0  0  0  0  0  0
    2.8543    0.4395   -0.2195 C   0  0  0  0  0  0  0  0  0  0  0  0
    3.9488   -0.2710    0.2992 C   0  0  0  0  0  0  0  0  0  0  0  0
    1.5010   -0.1385   -0.0536 C   0  0  0  0  0  0  0  0  0  0  0  0
   -1.9335    0.2705    0.0245 C   0  0  0  0  0  0  0  0  0  0  0  0
   -3.1325   -0.3829   -0.2846 C   0  0  0  0  0  0  0  0  0  0  0  0
    3.0594    1.6608   -0.8731 C   0  0  0  0  0  0  0  0  0  0  0  0
    3.7725   -1.5509    0.9889 C   0  0  0  0  0  0  0  0  0  0  0  0
   -4.3900    1.5374    0.4692 C   0  0  0  0  0  0  0  0  0  0  0  0
    1.3589   -1.4597    0.6603 C   0  0  0  0  0  0  0  0  0  0  0  0
    5.2401    0.2562    0.1544 C   0  0  0  0  0  0  0  0  0  0  0  0
   -4.3564    0.2485   -0.0629 C   0  0  0  0  0  0  0  0  0  0  0  0
   -1.9757    1.5637    0.5582 C   0  0  0  0  0  0  0  0  0  0  0  0
    2.5762   -2.1174    1.1654 C   0  0  0  0  0  0  0  0  0  0  0  0
   -3.1996    2.1950    0.7798 C   0  0  0  0  0  0  0  0  0  0  0  0
    4.3507    2.1728   -1.0097 C   0  0  0  0  0  0  0  0  0  0  0  0
    5.4392    1.4728   -0.4974 C   0  0  0  0  0  0  0  0  0  0  0  0
   -5.6983    2.2130    0.7065 C   0  0  0  0  0  0  0  0  0  0  0  0
    2.2239    2.2238   -1.2802 H   0  0  0  0  0  0  0  0  0  0  0  0
    4.6589   -2.0505    1.3680 H   0  0  0  0  0  0  0  0  0  0  0  0
    6.1049   -0.2741    0.5473 H   0  0  0  0  0  0  0  0  0  0  0  0
   -5.3004   -0.2402   -0.2934 H   0  0  0  0  0  0  0  0  0  0  0  0
   -1.0649    2.0974    0.8191 H   0  0  0  0  0  0  0  0  0  0  0  0
    2.4699   -3.0657    1.6789 H   0  0  0  0  0  0  0  0  0  0  0  0
   -0.6968   -1.2962   -0.5288 H   0  0  0  0  0  0  0  0  0  0  0  0
   -3.2120    3.1977    1.1985 H   0  0  0  0  0  0  0  0  0  0  0  0
    4.5059    3.1205   -1.5173 H   0  0  0  0  0  0  0  0  0  0  0  0
    6.4429    1.8736   -0.6050 H   0  0  0  0  0  0  0  0  0  0  0  0
   -5.5883    3.3026    0.7244 H   0  0  0  0  0  0  0  0  0  0  0  0
   -6.4108    1.9761   -0.0908 H   0  0  0  0  0  0  0  0  0  0  0  0
   -6.1191    1.8910    1.6642 H   0  0  0  0  0  0  0  0  0  0  0  0
  1 15  2  0  0  0  0
  2  6  1  0  0  0  0
  3  6  2  0  0  0  0
  4  5  1  0  0  0  0
  4 10  1  0  0  0  0
  4 30  1  0  0  0  0
  5  9  2  0  0  0  0
  6 11  1  0  0  0  0
  7  8  1  0  0  0  0
  7  9  1  0  0  0  0
  7 12  2  0  0  0  0
  8 13  1  0  0  0  0
  8 16  2  0  0  0  0
  9 15  1  0  0  0  0
 10 11  2  0  0  0  0
 10 18  1  0  0  0  0
 11 17  1  0  0  0  0
 12 21  1  0  0  0  0
 12 24  1  0  0  0  0
 13 19  2  0  0  0  0
 13 25  1  0  0  0  0
 14 17  2  0  0  0  0
 14 20  1  0  0  0  0
 14 23  1  0  0  0  0
 15 19  1  0  0  0  0
 16 22  1  0  0  0  0
 16 26  1  0  0  0  0
 17 27  1  0  0  0  0
 18 20  2  0  0  0  0
 18 28  1  0  0  0  0
 19 29  1  0  0  0  0
 20 31  1  0  0  0  0
 21 22  2  0  0  0  0
 21 32  1  0  0  0  0
 22 33  1  0  0  0  0
 23 34  1  0  0  0  0
 23 35  1  0  0  0  0
 23 36  1  0  0  0  0
M  CHG  2   2  -1   6   1
M  END
> <PUBCHEM_COMPOUND_CID>
5798639

> <PUBCHEM_CONFORMER_RMSD>
0.6

> <PUBCHEM_CONFORMER_DIVERSEORDER>
2
5
6
7
1
4
3

> <PUBCHEM_MMFF94_PARTIAL_CHARGES>
33
1 -0.57
10 0.1
11 0.13
12 -0.15
13 -0.18
14 -0.14
15 0.56
16 -0.15
17 -0.15
18 -0.15
19 -0.14
2 -0.52
20 -0.15
21 -0.15
22 -0.15
23 0.14
24 0.15
25 0.15
26 0.15
27 0.15
28 0.15
29 0.15
3 -0.52
30 0.4
31 0.15
32 0.15
33 0.15
4 -0.46
5 -0.49
6 0.91
7 0.09
8 0.03
9 0.36

> <PUBCHEM_EFFECTIVE_ROTOR_COUNT>
3

> <PUBCHEM_PHARMACOPHORE_FEATURES>
9
1 1 acceptor
1 2 acceptor
1 2 anion
1 3 acceptor
1 4 donor
1 5 acceptor
6 10 11 14 17 18 20 rings
6 7 8 12 16 21 22 rings
6 7 8 9 13 15 19 rings

> <PUBCHEM_HEAVY_ATOM_COUNT>
23

> <PUBCHEM_ATOM_DEF_STEREO_COUNT>
0

> <PUBCHEM_ATOM_UDEF_STEREO_COUNT>
0

> <PUBCHEM_BOND_DEF_STEREO_COUNT>
1

> <PUBCHEM_BOND_UDEF_STEREO_COUNT>
0

> <PUBCHEM_ISOTOPIC_ATOM_COUNT>
0

> <PUBCHEM_COMPONENT_COUNT>
1

> <PUBCHEM_CACTVS_TAUTO_COUNT>
1

> <PUBCHEM_CONFORMER_ID>
00587AEF00000002

> <PUBCHEM_MMFF94_ENERGY>
103.8515

> <PUBCHEM_FEATURE_SELFOVERLAP>
45.782

> <PUBCHEM_SHAPE_FINGERPRINT>
10595046 47 18338237059436386694
10616163 171 18335139769604451335
12107183 9 17906737255857832794
12236239 1 18410856576840809753
12616971 3 18201727292221889322
12644460 14 17704078417227958410
12788726 201 18262525767249506319
13167823 11 18411420613521365622
13583140 156 17344634974884167435
13631057 29 18195530294438130943
13760787 19 18408885143902285840
14341114 328 18410291423711843776
14739800 52 18114761368990040768
15238133 3 17823422767238383808
15250474 111 18338530684791922018
15342168 16 17846203437127471596
17492 89 18410293626920043847
19377110 9 18341616988255491155
20511986 3 18340219547589491105
20715895 44 17690847083131312769
20739085 24 17846491586857627188
21033648 144 17559678343734267860
21033648 29 15357701915402280625
21065198 48 18411985766782453771
21781055 127 16952242360000587875
23402539 116 18335704910196538740
23402655 69 18410011031314493246
23557571 272 17749384832462420374
23558518 356 17981037522978158324
23559900 14 17750228282699136502
25147074 1 18339935873531379339
268830 7 18059864969048103010
335352 9 18272646866862535622
3472631 163 18335134315090846661
34797466 226 17023460850620628044
34934 24 18411698816070652337
3633792 109 18130524002203629759
38570 142 18128509670931299644
4340502 62 17560505296911513193
474 4 18131348596742085392
5104073 3 18272655636357495202
543358 83 18341612638018109146
6034566 193 16770114581378589556
633830 44 18342735209140843686
7808743 9 18261109707809672609
8272917 22 18342734169848188186

> <PUBCHEM_SHAPE_MULTIPOLES>
440.78
12.54
2.74
1.03
1.63
0.4
-0.02
-6
0.14
0.68
-0.08
0.07
0.23
-3.01

> <PUBCHEM_SHAPE_SELFOVERLAP>
973.588

> <PUBCHEM_SHAPE_VOLUME>
235.5

> <PUBCHEM_COORDINATE_TYPE>
2
5
10

$$$$

