119452
  -OEChem-07051213092D

 75 73  0     1  0  0  0  0  0999 V2000
    5.9576    0.0000    0.0000 Cl  0  5  0  0  0  0  0  0  0  0  0  0
    8.4142   13.6200    0.0000 O   0  0  0  0  0  0  0  0  0  0  0  0
    4.9501   13.6200    0.0000 O   0  0  0  0  0  0  0  0  0  0  0  0
    7.5482   12.1200    0.0000 O   0  0  0  0  0  0  0  0  0  0  0  0
    4.0841   12.1200    0.0000 O   0  0  0  0  0  0  0  0  0  0  0  0
   11.0123   13.1200    0.0000 N   0  3  0  0  0  0  0  0  0  0  0  0
    4.0841   10.1200    0.0000 C   0  0  0  0  0  0  0  0  0  0  0  0
    4.0841    9.1200    0.0000 C   0  0  0  0  0  0  0  0  0  0  0  0
    4.9501   10.6200    0.0000 C   0  0  0  0  0  0  0  0  0  0  0  0
    3.2181    8.6200    0.0000 C   0  0  0  0  0  0  0  0  0  0  0  0
    4.9501   11.6200    0.0000 C   0  0  0  0  0  0  0  0  0  0  0  0
    3.2181    7.6200    0.0000 C   0  0  0  0  0  0  0  0  0  0  0  0
    5.8162   12.1200    0.0000 C   0  0  0  0  0  0  0  0  0  0  0  0
    2.3521    7.1200    0.0000 C   0  0  0  0  0  0  0  0  0  0  0  0
    5.8162   13.1200    0.0000 C   0  0  1  0  0  0  0  0  0  0  0  0
   10.1463   13.6200    0.0000 C   0  0  0  0  0  0  0  0  0  0  0  0
    2.3521    6.1200    0.0000 C   0  0  0  0  0  0  0  0  0  0  0  0
    1.4860    5.6200    0.0000 C   0  0  0  0  0  0  0  0  0  0  0  0
    6.6822   13.6200    0.0000 C   0  0  0  0  0  0  0  0  0  0  0  0
   11.8783   12.6200    0.0000 C   0  0  0  0  0  0  0  0  0  0  0  0
   11.5123   13.9860    0.0000 C   0  0  0  0  0  0  0  0  0  0  0  0
   10.5123   12.2540    0.0000 C   0  0  0  0  0  0  0  0  0  0  0  0
    9.2802   13.1200    0.0000 C   0  0  0  0  0  0  0  0  0  0  0  0
    1.4860    4.6200    0.0000 C   0  0  0  0  0  0  0  0  0  0  0  0
    7.5482   13.1200    0.0000 C   0  0  0  0  0  0  0  0  0  0  0  0
    0.6200    4.1200    0.0000 C   0  0  0  0  0  0  0  0  0  0  0  0
    0.6200    3.1200    0.0000 C   0  0  0  0  0  0  0  0  0  0  0  0
    4.0841   13.1200    0.0000 C   0  0  0  0  0  0  0  0  0  0  0  0
    3.2181   13.6200    0.0000 C   0  0  0  0  0  0  0  0  0  0  0  0
    3.8720   10.7026    0.0000 H   0  0  0  0  0  0  0  0  0  0  0  0
    3.4735   10.0123    0.0000 H   0  0  0  0  0  0  0  0  0  0  0  0
    4.2962    8.5374    0.0000 H   0  0  0  0  0  0  0  0  0  0  0  0
    4.6947    9.2277    0.0000 H   0  0  0  0  0  0  0  0  0  0  0  0
    5.1622   10.0374    0.0000 H   0  0  0  0  0  0  0  0  0  0  0  0
    5.5607   10.7277    0.0000 H   0  0  0  0  0  0  0  0  0  0  0  0
    3.0060    9.2026    0.0000 H   0  0  0  0  0  0  0  0  0  0  0  0
    2.6075    8.5123    0.0000 H   0  0  0  0  0  0  0  0  0  0  0  0
    4.7381   12.2026    0.0000 H   0  0  0  0  0  0  0  0  0  0  0  0
    4.3396   11.5123    0.0000 H   0  0  0  0  0  0  0  0  0  0  0  0
    3.4301    7.0374    0.0000 H   0  0  0  0  0  0  0  0  0  0  0  0
    3.8287    7.7277    0.0000 H   0  0  0  0  0  0  0  0  0  0  0  0
    6.0282   11.5374    0.0000 H   0  0  0  0  0  0  0  0  0  0  0  0
    6.4267   12.2277    0.0000 H   0  0  0  0  0  0  0  0  0  0  0  0
    2.1400    7.7026    0.0000 H   0  0  0  0  0  0  0  0  0  0  0  0
    1.7415    7.0123    0.0000 H   0  0  0  0  0  0  0  0  0  0  0  0
   10.5448   14.0949    0.0000 H   0  0  0  0  0  0  0  0  0  0  0  0
    9.7478   14.0949    0.0000 H   0  0  0  0  0  0  0  0  0  0  0  0
    5.8162   13.7400    0.0000 H   0  0  0  0  0  0  0  0  0  0  0  0
    2.5641    5.5374    0.0000 H   0  0  0  0  0  0  0  0  0  0  0  0
    2.9626    6.2277    0.0000 H   0  0  0  0  0  0  0  0  0  0  0  0
    1.2740    6.2026    0.0000 H   0  0  0  0  0  0  0  0  0  0  0  0
    0.8754    5.5123    0.0000 H   0  0  0  0  0  0  0  0  0  0  0  0
    7.0807   14.0949    0.0000 H   0  0  0  0  0  0  0  0  0  0  0  0
    6.2836   14.0949    0.0000 H   0  0  0  0  0  0  0  0  0  0  0  0
   11.5683   12.0831    0.0000 H   0  0  0  0  0  0  0  0  0  0  0  0
   12.4153   12.3100    0.0000 H   0  0  0  0  0  0  0  0  0  0  0  0
   12.1883   13.1569    0.0000 H   0  0  0  0  0  0  0  0  0  0  0  0
   12.0492   13.6760    0.0000 H   0  0  0  0  0  0  0  0  0  0  0  0
   11.8223   14.5230    0.0000 H   0  0  0  0  0  0  0  0  0  0  0  0
   10.9754   14.2960    0.0000 H   0  0  0  0  0  0  0  0  0  0  0  0
    9.9754   12.5640    0.0000 H   0  0  0  0  0  0  0  0  0  0  0  0
   10.2023   11.7170    0.0000 H   0  0  0  0  0  0  0  0  0  0  0  0
   11.0492   11.9440    0.0000 H   0  0  0  0  0  0  0  0  0  0  0  0
    8.8817   12.6451    0.0000 H   0  0  0  0  0  0  0  0  0  0  0  0
    9.6788   12.6451    0.0000 H   0  0  0  0  0  0  0  0  0  0  0  0
    1.6981    4.0374    0.0000 H   0  0  0  0  0  0  0  0  0  0  0  0
    2.0966    4.7277    0.0000 H   0  0  0  0  0  0  0  0  0  0  0  0
    0.4079    4.7026    0.0000 H   0  0  0  0  0  0  0  0  0  0  0  0
    0.0094    4.0123    0.0000 H   0  0  0  0  0  0  0  0  0  0  0  0
    0.0000    3.1200    0.0000 H   0  0  0  0  0  0  0  0  0  0  0  0
    0.6200    2.5000    0.0000 H   0  0  0  0  0  0  0  0  0  0  0  0
    1.2400    3.1200    0.0000 H   0  0  0  0  0  0  0  0  0  0  0  0
    3.5281   14.1569    0.0000 H   0  0  0  0  0  0  0  0  0  0  0  0
    2.6811   13.9300    0.0000 H   0  0  0  0  0  0  0  0  0  0  0  0
    2.9081   13.0831    0.0000 H   0  0  0  0  0  0  0  0  0  0  0  0
  2 23  1  0  0  0  0
  2 25  1  0  0  0  0
 15  3  1  6  0  0  0
  3 28  1  0  0  0  0
  4 25  2  0  0  0  0
  5 28  2  0  0  0  0
  6 16  1  0  0  0  0
  6 20  1  0  0  0  0
  6 21  1  0  0  0  0
  6 22  1  0  0  0  0
  7  8  1  0  0  0  0
  7  9  1  0  0  0  0
  7 30  1  0  0  0  0
  7 31  1  0  0  0  0
  8 10  1  0  0  0  0
  8 32  1  0  0  0  0
  8 33  1  0  0  0  0
  9 11  1  0  0  0  0
  9 34  1  0  0  0  0
  9 35  1  0  0  0  0
 10 12  1  0  0  0  0
 10 36  1  0  0  0  0
 10 37  1  0  0  0  0
 11 13  1  0  0  0  0
 11 38  1  0  0  0  0
 11 39  1  0  0  0  0
 12 14  1  0  0  0  0
 12 40  1  0  0  0  0
 12 41  1  0  0  0  0
 13 15  1  0  0  0  0
 13 42  1  0  0  0  0
 13 43  1  0  0  0  0
 14 17  1  0  0  0  0
 14 44  1  0  0  0  0
 14 45  1  0  0  0  0
 15 19  1  0  0  0  0
 15 48  1  0  0  0  0
 16 23  1  0  0  0  0
 16 46  1  0  0  0  0
 16 47  1  0  0  0  0
 17 18  1  0  0  0  0
 17 49  1  0  0  0  0
 17 50  1  0  0  0  0
 18 24  1  0  0  0  0
 18 51  1  0  0  0  0
 18 52  1  0  0  0  0
 19 25  1  0  0  0  0
 19 53  1  0  0  0  0
 19 54  1  0  0  0  0
 20 55  1  0  0  0  0
 20 56  1  0  0  0  0
 20 57  1  0  0  0  0
 21 58  1  0  0  0  0
 21 59  1  0  0  0  0
 21 60  1  0  0  0  0
 22 61  1  0  0  0  0
 22 62  1  0  0  0  0
 22 63  1  0  0  0  0
 23 64  1  0  0  0  0
 23 65  1  0  0  0  0
 24 26  1  0  0  0  0
 24 66  1  0  0  0  0
 24 67  1  0  0  0  0
 26 27  1  0  0  0  0
 26 68  1  0  0  0  0
 26 69  1  0  0  0  0
 27 70  1  0  0  0  0
 27 71  1  0  0  0  0
 27 72  1  0  0  0  0
 28 29  1  0  0  0  0
 29 73  1  0  0  0  0
 29 74  1  0  0  0  0
 29 75  1  0  0  0  0
M  CHG  2   1  -1   6   1
M  END
> <PUBCHEM_COMPOUND_CID>
119452

> <PUBCHEM_COMPOUND_CANONICALIZED>
1

> <PUBCHEM_CACTVS_COMPLEXITY>
404

> <PUBCHEM_CACTVS_HBOND_ACCEPTOR>
5

> <PUBCHEM_CACTVS_HBOND_DONOR>
0

> <PUBCHEM_CACTVS_ROTATABLE_BOND>
20

> <PUBCHEM_CACTVS_SUBSKEYS>
AAADcfB6OAAEAAAAAAAAAAAAAAAAAAAAAAAAAAAAAAAAAAAAAAAAHgAAAAAACBThgAYCCAMABAAIAACQCAAAAAAAAAAAAAEIAAACABYAAAADAAAFIAAQAAGIyKCAAAAAAAAAAAAAAAAAAAAAAAAAAAAAAA==

> <PUBCHEM_IUPAC_OPENEYE_NAME>
2-[(3S)-3-acetoxyhexadecanoyl]oxyethyl-trimethyl-ammonium chloride

> <PUBCHEM_IUPAC_CAS_NAME>
2-[(3S)-3-acetyloxy-1-oxohexadecoxy]ethyl-trimethylammonium chloride

> <PUBCHEM_IUPAC_NAME>
2-[(3S)-3-acetyloxyhexadecanoyl]oxyethyl-trimethylazanium chloride

> <PUBCHEM_IUPAC_SYSTEMATIC_NAME>
2-[(3S)-3-acetyloxyhexadecanoyl]oxyethyl-trimethyl-azanium chloride

> <PUBCHEM_IUPAC_TRADITIONAL_NAME>
2-[(3S)-3-acetoxyhexadecanoyl]oxyethyl-trimethyl-ammonium chloride

> <PUBCHEM_IUPAC_INCHI>
InChI=1S/C23H46NO4.ClH/c1-6-7-8-9-10-11-12-13-14-15-16-17-22(28-21(2)25)20-23(26)27-19-18-24(3,4)5;/h22H,6-20H2,1-5H3;1H/q+1;/p-1/t22-;/m0./s1

> <PUBCHEM_IUPAC_INCHIKEY>
NJEOXMPQOCEVAI-FTBISJDPSA-M

> <PUBCHEM_EXACT_MASS>
435.311537

> <PUBCHEM_MOLECULAR_FORMULA>
C23H46ClNO4

> <PUBCHEM_MOLECULAR_WEIGHT>
436.06864

> <PUBCHEM_OPENEYE_CAN_SMILES>
CCCCCCCCCCCCCC(CC(=O)OCC[N+](C)(C)C)OC(=O)C.[Cl-]

> <PUBCHEM_OPENEYE_ISO_SMILES>
CCCCCCCCCCCCC[C@@H](CC(=O)OCC[N+](C)(C)C)OC(=O)C.[Cl-]

> <PUBCHEM_CACTVS_TPSA>
52.6

> <PUBCHEM_MONOISOTOPIC_WEIGHT>
435.311537

> <PUBCHEM_TOTAL_CHARGE>
0

> <PUBCHEM_HEAVY_ATOM_COUNT>
29

> <PUBCHEM_ATOM_DEF_STEREO_COUNT>
1

> <PUBCHEM_ATOM_UDEF_STEREO_COUNT>
0

> <PUBCHEM_BOND_DEF_STEREO_COUNT>
0

> <PUBCHEM_BOND_UDEF_STEREO_COUNT>
0

> <PUBCHEM_ISOTOPIC_ATOM_COUNT>
0

> <PUBCHEM_COMPONENT_COUNT>
2

> <PUBCHEM_CACTVS_TAUTO_COUNT>
1

> <PUBCHEM_COORDINATE_TYPE>
1
5
255

> <PUBCHEM_BONDANNOTATIONS>
15  3  6

$$$$

