17395794
  -OEChem-06241222523D

 38 39  0     0  0  0  0  0  0999 V2000
   -1.4128   -0.5835    1.2083 O   0  0  0  0  0  0  0  0  0  0  0  0
   -2.9502   -2.2039   -0.4459 O   0  0  0  0  0  0  0  0  0  0  0  0
    3.6475   -1.6782    0.5502 O   0  0  0  0  0  0  0  0  0  0  0  0
    0.9361   -1.9008    1.0365 O   0  0  0  0  0  0  0  0  0  0  0  0
    5.5715    0.1559   -0.7330 N   0  0  0  0  0  0  0  0  0  0  0  0
    2.1123    0.0453    0.4920 N   0  0  0  0  0  0  0  0  0  0  0  0
   -7.3482    1.6154   -1.1120 N   0  0  0  0  0  0  0  0  0  0  0  0
    4.4475    0.4765   -0.0175 C   0  0  0  0  0  0  0  0  0  0  0  0
    4.4897    1.8266    0.2522 C   0  0  0  0  0  0  0  0  0  0  0  0
    6.3300    1.2812   -0.9249 C   0  0  0  0  0  0  0  0  0  0  0  0
    3.4054   -0.4830    0.3745 C   0  0  0  0  0  0  0  0  0  0  0  0
    5.6808    2.3356   -0.3218 C   0  0  0  0  0  0  0  0  0  0  0  0
    5.9189   -1.1611   -1.2197 C   0  0  0  0  0  0  0  0  0  0  0  0
   -2.6133   -0.1481    0.7336 C   0  0  0  0  0  0  0  0  0  0  0  0
   -0.2619    0.1839    0.8612 C   0  0  0  0  0  0  0  0  0  0  0  0
   -3.3850   -0.9613   -0.0964 C   0  0  0  0  0  0  0  0  0  0  0  0
    0.9712   -0.6940    0.8130 C   0  0  0  0  0  0  0  0  0  0  0  0
   -3.0696    1.1223    1.0853 C   0  0  0  0  0  0  0  0  0  0  0  0
   -4.6131   -0.5040   -0.5746 C   0  0  0  0  0  0  0  0  0  0  0  0
   -5.0691    0.7665   -0.2232 C   0  0  0  0  0  0  0  0  0  0  0  0
   -4.2974    1.5797    0.6068 C   0  0  0  0  0  0  0  0  0  0  0  0
   -2.1632   -2.3058   -1.6311 C   0  0  0  0  0  0  0  0  0  0  0  0
   -6.3268    1.2349   -0.7136 C   0  0  0  0  0  0  0  0  0  0  0  0
    3.7555    2.3949    0.8067 H   0  0  0  0  0  0  0  0  0  0  0  0
    7.2643    1.2443   -1.4690 H   0  0  0  0  0  0  0  0  0  0  0  0
    6.0291    3.3586   -0.2970 H   0  0  0  0  0  0  0  0  0  0  0  0
    6.7846   -1.0860   -1.8832 H   0  0  0  0  0  0  0  0  0  0  0  0
    5.0710   -1.5661   -1.7779 H   0  0  0  0  0  0  0  0  0  0  0  0
    6.1666   -1.7923   -0.3629 H   0  0  0  0  0  0  0  0  0  0  0  0
   -0.1098    0.9609    1.6187 H   0  0  0  0  0  0  0  0  0  0  0  0
   -0.3851    0.6516   -0.1242 H   0  0  0  0  0  0  0  0  0  0  0  0
    1.9837    1.0379    0.3133 H   0  0  0  0  0  0  0  0  0  0  0  0
   -2.4834    1.7636    1.7378 H   0  0  0  0  0  0  0  0  0  0  0  0
   -5.2093   -1.1448   -1.2208 H   0  0  0  0  0  0  0  0  0  0  0  0
   -4.6403    2.5717    0.8911 H   0  0  0  0  0  0  0  0  0  0  0  0
   -1.8820   -3.3538   -1.7663 H   0  0  0  0  0  0  0  0  0  0  0  0
   -1.2508   -1.7079   -1.5428 H   0  0  0  0  0  0  0  0  0  0  0  0
   -2.7408   -1.9829   -2.5030 H   0  0  0  0  0  0  0  0  0  0  0  0
  1 14  1  0  0  0  0
  1 15  1  0  0  0  0
  2 16  1  0  0  0  0
  2 22  1  0  0  0  0
  3 11  2  0  0  0  0
  4 17  2  0  0  0  0
  5  8  1  0  0  0  0
  5 10  1  0  0  0  0
  5 13  1  0  0  0  0
  6 11  1  0  0  0  0
  6 17  1  0  0  0  0
  6 32  1  0  0  0  0
  7 23  3  0  0  0  0
  8  9  2  0  0  0  0
  8 11  1  0  0  0  0
  9 12  1  0  0  0  0
  9 24  1  0  0  0  0
 10 12  2  0  0  0  0
 10 25  1  0  0  0  0
 12 26  1  0  0  0  0
 13 27  1  0  0  0  0
 13 28  1  0  0  0  0
 13 29  1  0  0  0  0
 14 16  2  0  0  0  0
 14 18  1  0  0  0  0
 15 17  1  0  0  0  0
 15 30  1  0  0  0  0
 15 31  1  0  0  0  0
 16 19  1  0  0  0  0
 18 21  2  0  0  0  0
 18 33  1  0  0  0  0
 19 20  2  0  0  0  0
 19 34  1  0  0  0  0
 20 21  1  0  0  0  0
 20 23  1  0  0  0  0
 21 35  1  0  0  0  0
 22 36  1  0  0  0  0
 22 37  1  0  0  0  0
 22 38  1  0  0  0  0
M  END
> <PUBCHEM_COMPOUND_CID>
17395794

> <PUBCHEM_CONFORMER_RMSD>
1.2

> <PUBCHEM_CONFORMER_DIVERSEORDER>
1
8
16
52
80
93
60
20
82
6
38
61
74
87
19
105
78
17
53
22
42
34
26
77
48
14
11
94
2
76
32
15
43
41
33
59
54
47
92
46
79
28
81
88
90
12
7
45
25
27
62
63
36
71
66
86
29
30
100
72
37
23
69
10
55
50
84
4
13
67
102
51
64
91
40
58
57
3
56
18
85
49
103
97
73
83
24
68
5
89
9
101
65
75
95
39
104
35
21
96
98
31
70
99
44

> <PUBCHEM_MMFF94_PARTIAL_CHARGES>
30
1 -0.36
10 -0.3
11 0.71
12 -0.15
13 0.26
14 0.08
15 0.34
16 0.08
17 0.57
18 -0.15
19 -0.15
2 -0.36
20 0.07
21 -0.15
22 0.28
23 0.48
24 0.15
25 0.15
26 0.15
3 -0.57
32 0.37
33 0.15
34 0.15
35 0.15
4 -0.57
5 0.05
6 -0.49
7 -0.56
8 -0.24
9 -0.15

> <PUBCHEM_EFFECTIVE_ROTOR_COUNT>
7

> <PUBCHEM_PHARMACOPHORE_FEATURES>
9
1 1 acceptor
1 2 acceptor
1 3 acceptor
1 4 acceptor
1 5 cation
1 6 donor
1 7 acceptor
5 5 8 9 10 12 rings
6 14 16 18 19 20 21 rings

> <PUBCHEM_HEAVY_ATOM_COUNT>
23

> <PUBCHEM_ATOM_DEF_STEREO_COUNT>
0

> <PUBCHEM_ATOM_UDEF_STEREO_COUNT>
0

> <PUBCHEM_BOND_DEF_STEREO_COUNT>
0

> <PUBCHEM_BOND_UDEF_STEREO_COUNT>
0

> <PUBCHEM_ISOTOPIC_ATOM_COUNT>
0

> <PUBCHEM_COMPONENT_COUNT>
1

> <PUBCHEM_CACTVS_TAUTO_COUNT>
3

> <PUBCHEM_CONFORMER_ID>
0109705200000001

> <PUBCHEM_MMFF94_ENERGY>
63.0987

> <PUBCHEM_FEATURE_SELFOVERLAP>
45.685

> <PUBCHEM_SHAPE_FINGERPRINT>
10 15 12391508693872540367
10366900 7 16298384664877707635
12236239 1 18341897380863681675
12616971 3 18059308629318882778
12788726 201 17604148246196448401
13668630 136 4823212810153570893
13685833 64 6843921667843195488
13690498 29 17824266999412218391
13914758 101 7420956348806595611
14251757 5 17823137830507755551
14528608 73 18410009914754975624
14849402 71 10591457492627022990
15064981 194 18267285574613362225
15183329 4 18187079581200007028
15188451 53 7997969072636271617
17870717 6 16877661249701768455
18222031 100 15357698582871668856
19377110 9 10447920690020392110
19427546 20 18339646621191977815
19784866 240 5689591715032789377
20281389 69 17489873755936989821
20511986 3 18340498789267357032
21033648 29 17060335202414622128
221357 26 18334574672626428296
22393880 68 18114749226747949706
22849339 104 17531251600116808055
23198884 109 18186237346940793737
23402655 69 18408884023459179698
23559900 14 17531540780206435585
25122255 55 5184053882226701389
29717793 49 17894907460479380628
300161 21 18342740710766784688
3004659 81 18114461258187181002
3472631 163 18411136935226198621
34797466 226 17822002069624720928
3663271 9 10519988162398341452
465052 167 8502379932084474184
5385378 56 16415488185433044568
543368 44 18412826863429540049
633830 44 18272370858846793674
6898599 12 18263646169291599127

> <PUBCHEM_SHAPE_MULTIPOLES>
434.91
18.73
2.26
1.22
3.52
0.32
0.11
-9.72
8.08
0.18
0.49
-0.33
0.24
-0.34

> <PUBCHEM_SHAPE_SELFOVERLAP>
922.107

> <PUBCHEM_SHAPE_VOLUME>
242.4

> <PUBCHEM_COORDINATE_TYPE>
2
5
10

$$$$

