5281645
  -OEChem-07051212582D

 47 50  0     1  0  0  0  0  0999 V2000
    6.9449    1.0246    0.0000 O   0  0  0  0  0  0  0  0  0  0  0  0
    9.5486    0.5547    0.0000 O   0  0  0  0  0  0  0  0  0  0  0  0
    9.5255    2.5546    0.0000 O   0  0  0  0  0  0  0  0  0  0  0  0
    7.7820    3.5345    0.0000 O   0  0  0  0  0  0  0  0  0  0  0  0
    6.0682   -0.4999    0.0000 O   0  0  0  0  0  0  0  0  0  0  0  0
    6.0500    3.5145    0.0000 O   0  0  0  0  0  0  0  0  0  0  0  0
    9.5984   -0.4758    0.0000 O   0  0  0  0  0  0  0  0  0  0  0  0
    7.8167   -3.5345    0.0000 O   0  0  0  0  0  0  0  0  0  0  0  0
    6.0682   -3.4999    0.0000 O   0  0  0  0  0  0  0  0  0  0  0  0
    2.5381   -2.5240    0.0000 O   0  0  0  0  0  0  0  0  0  0  0  0
    8.6768    1.0447    0.0000 C   0  0  1  0  0  0  0  0  0  0  0  0
    7.8167    0.5347    0.0000 C   0  0  2  0  0  0  0  0  0  0  0  0
    8.6653    2.0446    0.0000 C   0  0  2  0  0  0  0  0  0  0  0  0
    7.7935    2.5346    0.0000 C   0  0  1  0  0  0  0  0  0  0  0  0
    6.9333    2.0246    0.0000 C   0  0  1  0  0  0  0  0  0  0  0  0
    7.8282   -0.4652    0.0000 C   0  0  0  0  0  0  0  0  0  0  0  0
    6.0616    2.5145    0.0000 C   0  0  0  0  0  0  0  0  0  0  0  0
    6.9343   -0.9999    0.0000 C   0  0  0  0  0  0  0  0  0  0  0  0
    8.7343   -0.9791    0.0000 C   0  0  0  0  0  0  0  0  0  0  0  0
    6.9343   -1.9999    0.0000 C   0  0  0  0  0  0  0  0  0  0  0  0
    8.7343   -2.0207    0.0000 C   0  0  0  0  0  0  0  0  0  0  0  0
    7.8282   -2.5346    0.0000 C   0  0  0  0  0  0  0  0  0  0  0  0
    6.0682   -2.4999    0.0000 C   0  0  0  0  0  0  0  0  0  0  0  0
    5.2022   -0.9999    0.0000 C   0  0  0  0  0  0  0  0  0  0  0  0
    5.2022   -1.9999    0.0000 C   0  0  0  0  0  0  0  0  0  0  0  0
    4.3083   -2.5346    0.0000 C   0  0  0  0  0  0  0  0  0  0  0  0
    4.3083   -0.4652    0.0000 C   0  0  0  0  0  0  0  0  0  0  0  0
    3.4022   -2.0207    0.0000 C   0  0  0  0  0  0  0  0  0  0  0  0
    3.4022   -0.9791    0.0000 C   0  0  0  0  0  0  0  0  0  0  0  0
    9.2102    1.3609    0.0000 H   0  0  0  0  0  0  0  0  0  0  0  0
    7.0855    0.1012    0.0000 H   0  0  0  0  0  0  0  0  0  0  0  0
    8.6581    2.6646    0.0000 H   0  0  0  0  0  0  0  0  0  0  0  0
    7.2530    2.8383    0.0000 H   0  0  0  0  0  0  0  0  0  0  0  0
    6.4000    1.7084    0.0000 H   0  0  0  0  0  0  0  0  0  0  0  0
    5.4498    2.6151    0.0000 H   0  0  0  0  0  0  0  0  0  0  0  0
    5.8563    1.9295    0.0000 H   0  0  0  0  0  0  0  0  0  0  0  0
   10.0819    0.8709    0.0000 H   0  0  0  0  0  0  0  0  0  0  0  0
    9.5183    3.1746    0.0000 H   0  0  0  0  0  0  0  0  0  0  0  0
    8.3153    3.8507    0.0000 H   0  0  0  0  0  0  0  0  0  0  0  0
    9.2700   -2.3328    0.0000 H   0  0  0  0  0  0  0  0  0  0  0  0
    5.5096    3.8182    0.0000 H   0  0  0  0  0  0  0  0  0  0  0  0
   10.1365   -0.7837    0.0000 H   0  0  0  0  0  0  0  0  0  0  0  0
    4.3154   -3.1545    0.0000 H   0  0  0  0  0  0  0  0  0  0  0  0
    4.3154    0.1547    0.0000 H   0  0  0  0  0  0  0  0  0  0  0  0
    8.3500   -3.8507    0.0000 H   0  0  0  0  0  0  0  0  0  0  0  0
    2.8665   -0.6670    0.0000 H   0  0  0  0  0  0  0  0  0  0  0  0
    2.0000   -2.2161    0.0000 H   0  0  0  0  0  0  0  0  0  0  0  0
  1 12  1  0  0  0  0
  1 15  1  0  0  0  0
 11  2  1  1  0  0  0
  2 37  1  0  0  0  0
 13  3  1  6  0  0  0
  3 38  1  0  0  0  0
 14  4  1  1  0  0  0
  4 39  1  0  0  0  0
  5 18  1  0  0  0  0
  5 24  1  0  0  0  0
  6 17  1  0  0  0  0
  6 41  1  0  0  0  0
  7 19  1  0  0  0  0
  7 42  1  0  0  0  0
  8 22  1  0  0  0  0
  8 45  1  0  0  0  0
  9 23  2  0  0  0  0
 10 28  1  0  0  0  0
 10 47  1  0  0  0  0
 11 12  1  0  0  0  0
 11 13  1  0  0  0  0
 11 30  1  0  0  0  0
 12 16  1  0  0  0  0
 12 31  1  1  0  0  0
 13 14  1  0  0  0  0
 13 32  1  0  0  0  0
 14 15  1  0  0  0  0
 14 33  1  0  0  0  0
 15 17  1  6  0  0  0
 15 34  1  0  0  0  0
 16 18  1  0  0  0  0
 16 19  2  0  0  0  0
 17 35  1  0  0  0  0
 17 36  1  0  0  0  0
 18 20  2  0  0  0  0
 19 21  1  0  0  0  0
 20 22  1  0  0  0  0
 20 23  1  0  0  0  0
 21 22  2  0  0  0  0
 21 40  1  0  0  0  0
 23 25  1  0  0  0  0
 24 25  2  0  0  0  0
 24 27  1  0  0  0  0
 25 26  1  0  0  0  0
 26 28  2  0  0  0  0
 26 43  1  0  0  0  0
 27 29  2  0  0  0  0
 27 44  1  0  0  0  0
 28 29  1  0  0  0  0
 29 46  1  0  0  0  0
M  END
> <PUBCHEM_COMPOUND_CID>
5281645

> <PUBCHEM_COMPOUND_CANONICALIZED>
1

> <PUBCHEM_CACTVS_COMPLEXITY>
616

> <PUBCHEM_CACTVS_HBOND_ACCEPTOR>
10

> <PUBCHEM_CACTVS_HBOND_DONOR>
7

> <PUBCHEM_CACTVS_ROTATABLE_BOND>
2

> <PUBCHEM_CACTVS_SUBSKEYS>
AAADceB4PAAAAAAAAAAAAAAAAAAAAAAAAAA0aIEAAAAAAACRQAAAGgAACAAADBSgmAIwBoAABgCIAqBSAAACCAAkIAAIiAEGCMgNNzaGNRqCeWCl4BULuYfK7PzOIQADCAAIAABCAAYQABAAAAAAAAAAAA==

> <PUBCHEM_IUPAC_OPENEYE_NAME>
1,3,7-trihydroxy-4-[(2S,3R,4R,5S,6R)-3,4,5-trihydroxy-6-(hydroxymethyl)tetrahydropyran-2-yl]xanthen-9-one

> <PUBCHEM_IUPAC_CAS_NAME>
1,3,7-trihydroxy-4-[(2S,3R,4R,5S,6R)-3,4,5-trihydroxy-6-(hydroxymethyl)-2-oxanyl]-9-xanthenone

> <PUBCHEM_IUPAC_NAME>
1,3,7-trihydroxy-4-[(2S,3R,4R,5S,6R)-3,4,5-trihydroxy-6-(hydroxymethyl)oxan-2-yl]xanthen-9-one

> <PUBCHEM_IUPAC_SYSTEMATIC_NAME>
4-[(2S,3R,4R,5S,6R)-6-(hydroxymethyl)-3,4,5-tris(oxidanyl)oxan-2-yl]-1,3,7-tris(oxidanyl)xanthen-9-one

> <PUBCHEM_IUPAC_TRADITIONAL_NAME>
1,3,7-trihydroxy-4-[(2S,3R,4R,5S,6R)-3,4,5-trihydroxy-6-methylol-tetrahydropyran-2-yl]xanthone

> <PUBCHEM_IUPAC_INCHI>
InChI=1S/C19H18O10/c20-5-11-15(25)16(26)17(27)19(29-11)13-9(23)4-8(22)12-14(24)7-3-6(21)1-2-10(7)28-18(12)13/h1-4,11,15-17,19-23,25-27H,5H2/t11-,15-,16+,17-,19+/m1/s1

> <PUBCHEM_IUPAC_INCHIKEY>
JUZGXATTXYZBGK-HBVDJMOISA-N

> <PUBCHEM_XLOGP3_AA>
0

> <PUBCHEM_EXACT_MASS>
406.089997

> <PUBCHEM_MOLECULAR_FORMULA>
C19H18O10

> <PUBCHEM_MOLECULAR_WEIGHT>
406.34022

> <PUBCHEM_OPENEYE_CAN_SMILES>
C1=CC2=C(C=C1O)C(=O)C3=C(O2)C(=C(C=C3O)O)C4C(C(C(C(O4)CO)O)O)O

> <PUBCHEM_OPENEYE_ISO_SMILES>
C1=CC2=C(C=C1O)C(=O)C3=C(O2)C(=C(C=C3O)O)[C@H]4[C@@H]([C@H]([C@@H]([C@H](O4)CO)O)O)O

> <PUBCHEM_CACTVS_TPSA>
177

> <PUBCHEM_MONOISOTOPIC_WEIGHT>
406.089997

> <PUBCHEM_TOTAL_CHARGE>
0

> <PUBCHEM_HEAVY_ATOM_COUNT>
29

> <PUBCHEM_ATOM_DEF_STEREO_COUNT>
5

> <PUBCHEM_ATOM_UDEF_STEREO_COUNT>
0

> <PUBCHEM_BOND_DEF_STEREO_COUNT>
0

> <PUBCHEM_BOND_UDEF_STEREO_COUNT>
0

> <PUBCHEM_ISOTOPIC_ATOM_COUNT>
0

> <PUBCHEM_COMPONENT_COUNT>
1

> <PUBCHEM_CACTVS_TAUTO_COUNT>
36

> <PUBCHEM_COORDINATE_TYPE>
1
5
255

> <PUBCHEM_BONDANNOTATIONS>
12  31  5
15  17  6
16  18  8
16  19  8
18  20  8
19  21  8
11  2  5
20  22  8
20  23  8
21  22  8
23  25  8
24  25  8
24  27  8
25  26  8
26  28  8
27  29  8
28  29  8
13  3  6
14  4  5
5  18  8
5  24  8

$$$$

