114935
  -OEChem-07051212503D

 86 90  0     0  0  0  0  0  0999 V2000
   -5.3907   -2.5672    4.6809 O   0  0  0  0  0  0  0  0  0  0  0  0
   -7.4903    1.9875   -3.3243 O   0  0  0  0  0  0  0  0  0  0  0  0
   -6.3323   -3.4014    2.7924 O   0  0  0  0  0  0  0  0  0  0  0  0
   -7.7756    2.2394   -1.0849 O   0  0  0  0  0  0  0  0  0  0  0  0
    4.5284   -7.1097   -0.0540 O   0  0  0  0  0  0  0  0  0  0  0  0
    6.9121    3.7544    3.2879 O   0  0  0  0  0  0  0  0  0  0  0  0
    4.1504   -6.5817   -2.2307 O   0  0  0  0  0  0  0  0  0  0  0  0
    7.2878    4.2339    1.0996 O   0  0  0  0  0  0  0  0  0  0  0  0
   -1.1489   -1.3903   -0.5381 N   0  0  0  0  0  0  0  0  0  0  0  0
   -1.4353    1.6256   -0.2086 N   0  0  0  0  0  0  0  0  0  0  0  0
    1.7632   -0.8696   -0.4135 N   0  0  0  0  0  0  0  0  0  0  0  0
    1.4278    1.9893   -0.3751 N   0  0  0  0  0  0  0  0  0  0  0  0
   -2.7271   -2.4970    0.5540 C   0  0  0  0  0  0  0  0  0  0  0  0
   -3.5596    2.3562   -0.4287 C   0  0  0  0  0  0  0  0  0  0  0  0
   -2.4194   -1.2771   -0.0185 C   0  0  0  0  0  0  0  0  0  0  0  0
   -2.7222    1.1523   -0.2663 C   0  0  0  0  0  0  0  0  0  0  0  0
   -1.6081   -3.3475    0.3957 C   0  0  0  0  0  0  0  0  0  0  0  0
   -2.7523    3.4429   -0.4637 C   0  0  0  0  0  0  0  0  0  0  0  0
   -0.6279   -2.6361   -0.2680 C   0  0  0  0  0  0  0  0  0  0  0  0
   -1.3608    2.9917   -0.3278 C   0  0  0  0  0  0  0  0  0  0  0  0
   -3.1982   -0.1014   -0.1815 C   0  0  0  0  0  0  0  0  0  0  0  0
   -4.0025   -2.8573    1.2120 C   0  0  0  0  0  0  0  0  0  0  0  0
   -5.0462    2.3016   -0.5314 C   0  0  0  0  0  0  0  0  0  0  0  0
    3.0671   -2.5810   -1.2061 C   0  0  0  0  0  0  0  0  0  0  0  0
    1.7291   -2.1966   -0.7797 C   0  0  0  0  0  0  0  0  0  0  0  0
    3.2517    3.3011    0.0681 C   0  0  0  0  0  0  0  0  0  0  0  0
    0.6631   -3.0124   -0.7193 C   0  0  0  0  0  0  0  0  0  0  0  0
    1.0892    3.2351   -0.2133 C   0  0  0  0  0  0  0  0  0  0  0  0
    2.2132    4.1495    0.0730 C   0  0  0  0  0  0  0  0  0  0  0  0
   -0.2813    3.7882   -0.3234 C   0  0  0  0  0  0  0  0  0  0  0  0
    3.9020   -1.5377   -1.1005 C   0  0  0  0  0  0  0  0  0  0  0  0
    2.7906    1.9498   -0.2088 C   0  0  0  0  0  0  0  0  0  0  0  0
    2.9948   -0.4879   -0.5924 C   0  0  0  0  0  0  0  0  0  0  0  0
    3.3979   -3.9563   -1.6815 C   0  0  0  0  0  0  0  0  0  0  0  0
   -1.5095   -4.7488    0.8594 C   0  0  0  0  0  0  0  0  0  0  0  0
   -3.1238    4.8788   -0.6128 C   0  0  0  0  0  0  0  0  0  0  0  0
    4.6885    3.6267    0.3030 C   0  0  0  0  0  0  0  0  0  0  0  0
    3.5573    0.8541   -0.3038 C   0  0  0  0  0  0  0  0  0  0  0  0
   -4.0417   -2.5704    2.7257 C   0  0  0  0  0  0  0  0  0  0  0  0
   -5.5292    2.1600   -1.9698 C   0  0  0  0  0  0  0  0  0  0  0  0
    2.1242    5.6079    0.3076 C   0  0  0  0  0  0  0  0  0  0  0  0
    5.3415   -1.3849   -1.4088 C   0  0  0  0  0  0  0  0  0  0  0  0
    3.8153   -4.8827   -0.5464 C   0  0  0  0  0  0  0  0  0  0  0  0
    5.0827    3.5104    1.7700 C   0  0  0  0  0  0  0  0  0  0  0  0
   -5.3708   -2.9094    3.3658 C   0  0  0  0  0  0  0  0  0  0  0  0
   -7.0363    2.1449   -2.0566 C   0  0  0  0  0  0  0  0  0  0  0  0
    4.1830   -6.2575   -1.0504 C   0  0  0  0  0  0  0  0  0  0  0  0
    6.5292    3.8806    1.9935 C   0  0  0  0  0  0  0  0  0  0  0  0
   -4.2713   -0.2631   -0.2165 H   0  0  0  0  0  0  0  0  0  0  0  0
   -0.6732   -0.6744   -1.0699 H   0  0  0  0  0  0  0  0  0  0  0  0
   -0.6242    1.0500   -0.0475 H   0  0  0  0  0  0  0  0  0  0  0  0
   -4.8370   -2.3336    0.7283 H   0  0  0  0  0  0  0  0  0  0  0  0
   -4.2147   -3.9223    1.0487 H   0  0  0  0  0  0  0  0  0  0  0  0
   -5.4672    3.2233   -0.1079 H   0  0  0  0  0  0  0  0  0  0  0  0
   -5.4629    1.5102    0.1025 H   0  0  0  0  0  0  0  0  0  0  0  0
    0.7769   -4.0612   -0.9796 H   0  0  0  0  0  0  0  0  0  0  0  0
   -0.3818    4.8640   -0.4145 H   0  0  0  0  0  0  0  0  0  0  0  0
    4.2181   -3.8980   -2.4097 H   0  0  0  0  0  0  0  0  0  0  0  0
    2.5674   -4.3876   -2.2535 H   0  0  0  0  0  0  0  0  0  0  0  0
   -0.4689   -5.0722    0.9640 H   0  0  0  0  0  0  0  0  0  0  0  0
   -2.0032   -5.4188    0.1480 H   0  0  0  0  0  0  0  0  0  0  0  0
   -1.9840   -4.8779    1.8374 H   0  0  0  0  0  0  0  0  0  0  0  0
   -4.2023    5.0152   -0.7330 H   0  0  0  0  0  0  0  0  0  0  0  0
   -2.8157    5.4507    0.2687 H   0  0  0  0  0  0  0  0  0  0  0  0
   -2.6434    5.3121   -1.4963 H   0  0  0  0  0  0  0  0  0  0  0  0
    5.3428    3.0128   -0.3276 H   0  0  0  0  0  0  0  0  0  0  0  0
    4.8824    4.6541   -0.0342 H   0  0  0  0  0  0  0  0  0  0  0  0
    4.6312    0.9112   -0.1687 H   0  0  0  0  0  0  0  0  0  0  0  0
   -3.2631   -3.1504    3.2339 H   0  0  0  0  0  0  0  0  0  0  0  0
   -3.8475   -1.5051    2.8983 H   0  0  0  0  0  0  0  0  0  0  0  0
   -5.1581    1.2239   -2.4025 H   0  0  0  0  0  0  0  0  0  0  0  0
   -5.1664    2.9977   -2.5764 H   0  0  0  0  0  0  0  0  0  0  0  0
    1.7712    6.1220   -0.5917 H   0  0  0  0  0  0  0  0  0  0  0  0
    1.4331    5.8248    1.1283 H   0  0  0  0  0  0  0  0  0  0  0  0
    3.0937    6.0374    0.5767 H   0  0  0  0  0  0  0  0  0  0  0  0
    5.7733   -2.3044   -1.8143 H   0  0  0  0  0  0  0  0  0  0  0  0
    5.9041   -1.1319   -0.5046 H   0  0  0  0  0  0  0  0  0  0  0  0
    5.4956   -0.5937   -2.1492 H   0  0  0  0  0  0  0  0  0  0  0  0
    2.9956   -4.9965    0.1720 H   0  0  0  0  0  0  0  0  0  0  0  0
    4.6876   -4.4731   -0.0241 H   0  0  0  0  0  0  0  0  0  0  0  0
    4.4669    4.1790    2.3827 H   0  0  0  0  0  0  0  0  0  0  0  0
    4.9413    2.4813    2.1195 H   0  0  0  0  0  0  0  0  0  0  0  0
   -6.2547   -2.7711    5.0984 H   0  0  0  0  0  0  0  0  0  0  0  0
   -8.4703    1.9671   -3.3626 H   0  0  0  0  0  0  0  0  0  0  0  0
    4.7521   -8.0014   -0.3959 H   0  0  0  0  0  0  0  0  0  0  0  0
    7.8568    3.9862    3.4147 H   0  0  0  0  0  0  0  0  0  0  0  0
  1 45  1  0  0  0  0
  1 83  1  0  0  0  0
  2 46  1  0  0  0  0
  2 84  1  0  0  0  0
  3 45  2  0  0  0  0
  4 46  2  0  0  0  0
  5 47  1  0  0  0  0
  5 85  1  0  0  0  0
  6 48  1  0  0  0  0
  6 86  1  0  0  0  0
  7 47  2  0  0  0  0
  8 48  2  0  0  0  0
  9 15  1  0  0  0  0
  9 19  1  0  0  0  0
  9 50  1  0  0  0  0
 10 16  1  0  0  0  0
 10 20  1  0  0  0  0
 10 51  1  0  0  0  0
 11 25  1  0  0  0  0
 11 33  2  0  0  0  0
 12 28  2  0  0  0  0
 12 32  1  0  0  0  0
 13 15  2  0  0  0  0
 13 17  1  0  0  0  0
 13 22  1  0  0  0  0
 14 16  1  0  0  0  0
 14 18  2  0  0  0  0
 14 23  1  0  0  0  0
 15 21  1  0  0  0  0
 16 21  2  0  0  0  0
 17 19  2  0  0  0  0
 17 35  1  0  0  0  0
 18 20  1  0  0  0  0
 18 36  1  0  0  0  0
 19 27  1  0  0  0  0
 20 30  2  0  0  0  0
 21 49  1  0  0  0  0
 22 39  1  0  0  0  0
 22 52  1  0  0  0  0
 22 53  1  0  0  0  0
 23 40  1  0  0  0  0
 23 54  1  0  0  0  0
 23 55  1  0  0  0  0
 24 25  1  0  0  0  0
 24 31  2  0  0  0  0
 24 34  1  0  0  0  0
 25 27  2  0  0  0  0
 26 29  2  0  0  0  0
 26 32  1  0  0  0  0
 26 37  1  0  0  0  0
 27 56  1  0  0  0  0
 28 29  1  0  0  0  0
 28 30  1  0  0  0  0
 29 41  1  0  0  0  0
 30 57  1  0  0  0  0
 31 33  1  0  0  0  0
 31 42  1  0  0  0  0
 32 38  2  0  0  0  0
 33 38  1  0  0  0  0
 34 43  1  0  0  0  0
 34 58  1  0  0  0  0
 34 59  1  0  0  0  0
 35 60  1  0  0  0  0
 35 61  1  0  0  0  0
 35 62  1  0  0  0  0
 36 63  1  0  0  0  0
 36 64  1  0  0  0  0
 36 65  1  0  0  0  0
 37 44  1  0  0  0  0
 37 66  1  0  0  0  0
 37 67  1  0  0  0  0
 38 68  1  0  0  0  0
 39 45  1  0  0  0  0
 39 69  1  0  0  0  0
 39 70  1  0  0  0  0
 40 46  1  0  0  0  0
 40 71  1  0  0  0  0
 40 72  1  0  0  0  0
 41 73  1  0  0  0  0
 41 74  1  0  0  0  0
 41 75  1  0  0  0  0
 42 76  1  0  0  0  0
 42 77  1  0  0  0  0
 42 78  1  0  0  0  0
 43 47  1  0  0  0  0
 43 79  1  0  0  0  0
 43 80  1  0  0  0  0
 44 48  1  0  0  0  0
 44 81  1  0  0  0  0
 44 82  1  0  0  0  0
M  END
> <PUBCHEM_COMPOUND_CID>
114935

> <PUBCHEM_CONFORMER_RMSD>
1.2

> <PUBCHEM_CONFORMER_DIVERSEORDER>
1
5
4
6
2
3

> <PUBCHEM_MMFF94_PARTIAL_CHARGES>
58
1 -0.65
10 -0.6
11 -0.62
12 -0.62
13 -0.18
14 -0.14
15 -0.2
16 0.1
17 -0.18
18 -0.14
19 -0.2
2 -0.65
20 0.1
21 -0.11
22 0.18
23 0.14
24 -0.14
25 0.17
26 -0.14
27 -0.11
28 0.42
29 -0.12
3 -0.57
30 -0.14
31 -0.12
32 0.17
33 0.42
34 0.14
35 0.18
36 0.14
37 0.14
38 -0.14
39 0.06
4 -0.57
40 0.06
41 0.14
42 0.14
43 0.06
44 0.06
45 0.66
46 0.66
47 0.66
48 0.66
49 0.15
5 -0.65
50 0.27
51 0.4
56 0.15
57 0.15
6 -0.65
68 0.15
7 -0.57
8 -0.57
83 0.5
84 0.5
85 0.5
86 0.5
9 0.03

> <PUBCHEM_EFFECTIVE_ROTOR_COUNT>
12

> <PUBCHEM_PHARMACOPHORE_FEATURES>
22
1 1 acceptor
1 10 cation
1 10 donor
1 11 acceptor
1 12 acceptor
1 2 acceptor
1 3 acceptor
1 4 acceptor
1 5 acceptor
1 6 acceptor
1 7 acceptor
1 8 acceptor
1 9 cation
1 9 donor
3 1 3 45 anion
3 2 4 46 anion
3 5 7 47 anion
3 6 8 48 anion
5 10 14 16 18 20 rings
5 11 24 25 31 33 rings
5 12 26 28 29 32 rings
5 9 13 15 17 19 rings

> <PUBCHEM_HEAVY_ATOM_COUNT>
48

> <PUBCHEM_ATOM_DEF_STEREO_COUNT>
0

> <PUBCHEM_ATOM_UDEF_STEREO_COUNT>
0

> <PUBCHEM_BOND_DEF_STEREO_COUNT>
0

> <PUBCHEM_BOND_UDEF_STEREO_COUNT>
0

> <PUBCHEM_ISOTOPIC_ATOM_COUNT>
0

> <PUBCHEM_COMPONENT_COUNT>
1

> <PUBCHEM_CACTVS_TAUTO_COUNT>
6

> <PUBCHEM_CONFORMER_ID>
0001C0F700000001

> <PUBCHEM_MMFF94_ENERGY>
103.7706

> <PUBCHEM_FEATURE_SELFOVERLAP>
111.875

> <PUBCHEM_SHAPE_FINGERPRINT>
10290309 65 18338228267775806542
12645989 146 17900826264326055887
15320467 1 18410007749859486524
15351339 4 17910114942609107703
15968369 26 18342175544726809716
19301676 85 18123467443639905503
20775438 99 18264512666280101271

> <PUBCHEM_SHAPE_MULTIPOLES>
920.94
16.56
11.48
2.64
8.86
9.24
2.84
-7.7
2.71
-14.64
0.26
4.13
1.61
14.29

> <PUBCHEM_SHAPE_SELFOVERLAP>
1997.04

> <PUBCHEM_SHAPE_VOLUME>
505.6

> <PUBCHEM_COORDINATE_TYPE>
2
5
10

$$$$

