442655
  -OEChem-07051212592D

 37 38  0     1  0  0  0  0  0999 V2000
    3.7320    1.2306    0.0000 O   0  0  0  0  0  0  0  0  0  0  0  0
    2.8660   -2.2694    0.0000 O   0  0  0  0  0  0  0  0  0  0  0  0
    4.5981   -3.2694    0.0000 O   0  0  0  0  0  0  0  0  0  0  0  0
    4.6551    2.8184    0.0000 N   0  0  0  0  0  0  0  0  0  0  0  0
    5.4641    2.2306    0.0000 C   0  0  3  0  0  0  0  0  0  0  0  0
    6.2731    2.8184    0.0000 C   0  0  0  0  0  0  0  0  0  0  0  0
    5.9641    3.7694    0.0000 C   0  0  0  0  0  0  0  0  0  0  0  0
    4.9641    3.7694    0.0000 C   0  0  0  0  0  0  0  0  0  0  0  0
    5.4641    1.2306    0.0000 C   0  0  0  0  0  0  0  0  0  0  0  0
    4.5981    0.7306    0.0000 C   0  0  0  0  0  0  0  0  0  0  0  0
    4.5981   -0.2694    0.0000 C   0  0  0  0  0  0  0  0  0  0  0  0
    3.7320   -0.7694    0.0000 C   0  0  0  0  0  0  0  0  0  0  0  0
    5.4641   -0.7694    0.0000 C   0  0  0  0  0  0  0  0  0  0  0  0
    3.7320   -1.7694    0.0000 C   0  0  0  0  0  0  0  0  0  0  0  0
    5.4641   -1.7694    0.0000 C   0  0  0  0  0  0  0  0  0  0  0  0
    4.5981   -2.2694    0.0000 C   0  0  0  0  0  0  0  0  0  0  0  0
    2.0000   -1.7694    0.0000 C   0  0  0  0  0  0  0  0  0  0  0  0
    5.4641   -3.7694    0.0000 C   0  0  0  0  0  0  0  0  0  0  0  0
    4.7068    1.8447    0.0000 H   0  0  0  0  0  0  0  0  0  0  0  0
    6.5831    2.2814    0.0000 H   0  0  0  0  0  0  0  0  0  0  0  0
    6.8395    3.0705    0.0000 H   0  0  0  0  0  0  0  0  0  0  0  0
    6.5706    3.8983    0.0000 H   0  0  0  0  0  0  0  0  0  0  0  0
    5.8993    4.3860    0.0000 H   0  0  0  0  0  0  0  0  0  0  0  0
    5.0289    4.3860    0.0000 H   0  0  0  0  0  0  0  0  0  0  0  0
    4.3576    3.8983    0.0000 H   0  0  0  0  0  0  0  0  0  0  0  0
    4.0654    2.6268    0.0000 H   0  0  0  0  0  0  0  0  0  0  0  0
    5.6762    0.6480    0.0000 H   0  0  0  0  0  0  0  0  0  0  0  0
    6.0747    1.3382    0.0000 H   0  0  0  0  0  0  0  0  0  0  0  0
    3.1951   -0.4594    0.0000 H   0  0  0  0  0  0  0  0  0  0  0  0
    6.0010   -0.4594    0.0000 H   0  0  0  0  0  0  0  0  0  0  0  0
    6.0010   -2.0794    0.0000 H   0  0  0  0  0  0  0  0  0  0  0  0
    2.3100   -1.2325    0.0000 H   0  0  0  0  0  0  0  0  0  0  0  0
    1.4631   -1.4594    0.0000 H   0  0  0  0  0  0  0  0  0  0  0  0
    1.6900   -2.3064    0.0000 H   0  0  0  0  0  0  0  0  0  0  0  0
    5.1541   -4.3064    0.0000 H   0  0  0  0  0  0  0  0  0  0  0  0
    6.0010   -4.0794    0.0000 H   0  0  0  0  0  0  0  0  0  0  0  0
    5.7741   -3.2325    0.0000 H   0  0  0  0  0  0  0  0  0  0  0  0
  1 10  2  0  0  0  0
  2 14  1  0  0  0  0
  2 17  1  0  0  0  0
  3 16  1  0  0  0  0
  3 18  1  0  0  0  0
  4  5  1  0  0  0  0
  4  8  1  0  0  0  0
  4 26  1  0  0  0  0
  5  6  1  0  0  0  0
  5  9  1  0  0  0  0
  5 19  1  0  0  0  0
  6  7  1  0  0  0  0
  6 20  1  0  0  0  0
  6 21  1  0  0  0  0
  7  8  1  0  0  0  0
  7 22  1  0  0  0  0
  7 23  1  0  0  0  0
  8 24  1  0  0  0  0
  8 25  1  0  0  0  0
  9 10  1  0  0  0  0
  9 27  1  0  0  0  0
  9 28  1  0  0  0  0
 10 11  1  0  0  0  0
 11 12  2  0  0  0  0
 11 13  1  0  0  0  0
 12 14  1  0  0  0  0
 12 29  1  0  0  0  0
 13 15  2  0  0  0  0
 13 30  1  0  0  0  0
 14 16  2  0  0  0  0
 15 16  1  0  0  0  0
 15 31  1  0  0  0  0
 17 32  1  0  0  0  0
 17 33  1  0  0  0  0
 17 34  1  0  0  0  0
 18 35  1  0  0  0  0
 18 36  1  0  0  0  0
 18 37  1  0  0  0  0
M  END
> <PUBCHEM_COMPOUND_CID>
442655

> <PUBCHEM_COMPOUND_CANONICALIZED>
1

> <PUBCHEM_CACTVS_COMPLEXITY>
282

> <PUBCHEM_CACTVS_HBOND_ACCEPTOR>
4

> <PUBCHEM_CACTVS_HBOND_DONOR>
1

> <PUBCHEM_CACTVS_ROTATABLE_BOND>
5

> <PUBCHEM_CACTVS_SUBSKEYS>
AAADceByMAAAAAAAAAAAAAAAAAAAAWAAAAAwAAAAAAAAAAABAAAAHgAQAAAADCzBmAYyBoLABACIAqBSAAACCAAkIAAIiIEOiMgNJjqEtRqEMSIk0BGKqYeazPDOIAABAAAAQABAAAIAAACAAAAAAAAAAA==

> <PUBCHEM_IUPAC_OPENEYE_NAME>
1-(3,4-dimethoxyphenyl)-2-pyrrolidin-2-yl-ethanone

> <PUBCHEM_IUPAC_CAS_NAME>
1-(3,4-dimethoxyphenyl)-2-(2-pyrrolidinyl)ethanone

> <PUBCHEM_IUPAC_NAME>
1-(3,4-dimethoxyphenyl)-2-pyrrolidin-2-ylethanone

> <PUBCHEM_IUPAC_SYSTEMATIC_NAME>
1-(3,4-dimethoxyphenyl)-2-pyrrolidin-2-yl-ethanone

> <PUBCHEM_IUPAC_TRADITIONAL_NAME>
1-(3,4-dimethoxyphenyl)-2-pyrrolidin-2-yl-ethanone

> <PUBCHEM_IUPAC_INCHI>
InChI=1S/C14H19NO3/c1-17-13-6-5-10(8-14(13)18-2)12(16)9-11-4-3-7-15-11/h5-6,8,11,15H,3-4,7,9H2,1-2H3

> <PUBCHEM_IUPAC_INCHIKEY>
TYXKSMFICLVQCO-UHFFFAOYSA-N

> <PUBCHEM_XLOGP3_AA>
1.6

> <PUBCHEM_EXACT_MASS>
249.136493

> <PUBCHEM_MOLECULAR_FORMULA>
C14H19NO3

> <PUBCHEM_MOLECULAR_WEIGHT>
249.30556

> <PUBCHEM_OPENEYE_CAN_SMILES>
COC1=C(C=C(C=C1)C(=O)CC2CCCN2)OC

> <PUBCHEM_OPENEYE_ISO_SMILES>
COC1=C(C=C(C=C1)C(=O)CC2CCCN2)OC

> <PUBCHEM_CACTVS_TPSA>
47.6

> <PUBCHEM_MONOISOTOPIC_WEIGHT>
249.136493

> <PUBCHEM_TOTAL_CHARGE>
0

> <PUBCHEM_HEAVY_ATOM_COUNT>
18

> <PUBCHEM_ATOM_DEF_STEREO_COUNT>
0

> <PUBCHEM_ATOM_UDEF_STEREO_COUNT>
1

> <PUBCHEM_BOND_DEF_STEREO_COUNT>
0

> <PUBCHEM_BOND_UDEF_STEREO_COUNT>
0

> <PUBCHEM_ISOTOPIC_ATOM_COUNT>
0

> <PUBCHEM_COMPONENT_COUNT>
1

> <PUBCHEM_CACTVS_TAUTO_COUNT>
2

> <PUBCHEM_COORDINATE_TYPE>
1
5
255

> <PUBCHEM_BONDANNOTATIONS>
11  12  8
11  13  8
12  14  8
13  15  8
14  16  8
15  16  8
5  19  3

$$$$

