71225
  -OEChem-07051213042D

 55 56  0     1  0  0  0  0  0999 V2000
    7.0000    1.5000    0.0000 N   0  0  3  0  0  0  0  0  0  0  0  0
    2.0000   -0.2321    0.0000 N   0  0  0  0  0  0  0  0  0  0  0  0
    4.0000   -0.2321    0.0000 C   0  0  3  0  0  0  0  0  0  0  0  0
    4.0000    0.7679    0.0000 C   0  0  0  0  0  0  0  0  0  0  0  0
    5.0000   -0.2321    0.0000 C   0  0  0  0  0  0  0  0  0  0  0  0
    5.5000    0.6340    0.0000 C   0  0  0  0  0  0  0  0  0  0  0  0
    4.0000   -1.2320    0.0000 C   0  0  0  0  0  0  0  0  0  0  0  0
    6.5000    0.6340    0.0000 C   0  0  0  0  0  0  0  0  0  0  0  0
    4.8660    1.2680    0.0000 C   0  0  0  0  0  0  0  0  0  0  0  0
    3.1340    1.2680    0.0000 C   0  0  0  0  0  0  0  0  0  0  0  0
    3.0000   -0.2321    0.0000 C   0  0  0  0  0  0  0  0  0  0  0  0
    3.1340   -1.7320    0.0000 C   0  0  0  0  0  0  0  0  0  0  0  0
    4.8660   -1.7320    0.0000 C   0  0  0  0  0  0  0  0  0  0  0  0
    8.0000    1.5000    0.0000 C   0  0  0  0  0  0  0  0  0  0  0  0
    8.5000    2.3660    0.0000 C   0  0  0  0  0  0  0  0  0  0  0  0
    6.5000    2.3660    0.0000 C   0  0  0  0  0  0  0  0  0  0  0  0
    3.1340   -2.7320    0.0000 C   0  0  0  0  0  0  0  0  0  0  0  0
    4.8660   -2.7320    0.0000 C   0  0  0  0  0  0  0  0  0  0  0  0
    4.0000   -3.2320    0.0000 C   0  0  0  0  0  0  0  0  0  0  0  0
    9.5000    2.3660    0.0000 C   0  0  0  0  0  0  0  0  0  0  0  0
   10.0000    1.5000    0.0000 C   0  0  0  0  0  0  0  0  0  0  0  0
   10.0000    3.2320    0.0000 C   0  0  0  0  0  0  0  0  0  0  0  0
   11.0000    1.5000    0.0000 C   0  0  0  0  0  0  0  0  0  0  0  0
   11.0000    3.2320    0.0000 C   0  0  0  0  0  0  0  0  0  0  0  0
   11.5000    2.3660    0.0000 C   0  0  0  0  0  0  0  0  0  0  0  0
    4.5369    0.4579    0.0000 H   0  0  0  0  0  0  0  0  0  0  0  0
    4.8923   -0.8426    0.0000 H   0  0  0  0  0  0  0  0  0  0  0  0
    5.5826   -0.4441    0.0000 H   0  0  0  0  0  0  0  0  0  0  0  0
    5.6077    1.2446    0.0000 H   0  0  0  0  0  0  0  0  0  0  0  0
    4.9174    0.8460    0.0000 H   0  0  0  0  0  0  0  0  0  0  0  0
    6.3923    0.0234    0.0000 H   0  0  0  0  0  0  0  0  0  0  0  0
    7.0826    0.4219    0.0000 H   0  0  0  0  0  0  0  0  0  0  0  0
    3.4440    1.8049    0.0000 H   0  0  0  0  0  0  0  0  0  0  0  0
    5.1760    0.7310    0.0000 H   0  0  0  0  0  0  0  0  0  0  0  0
    5.4030    1.5780    0.0000 H   0  0  0  0  0  0  0  0  0  0  0  0
    4.5560    1.8049    0.0000 H   0  0  0  0  0  0  0  0  0  0  0  0
    2.5970    1.5780    0.0000 H   0  0  0  0  0  0  0  0  0  0  0  0
    2.8240    0.7310    0.0000 H   0  0  0  0  0  0  0  0  0  0  0  0
    2.5970   -1.4220    0.0000 H   0  0  0  0  0  0  0  0  0  0  0  0
    5.4030   -1.4220    0.0000 H   0  0  0  0  0  0  0  0  0  0  0  0
    7.8923    0.8894    0.0000 H   0  0  0  0  0  0  0  0  0  0  0  0
    8.5826    1.2880    0.0000 H   0  0  0  0  0  0  0  0  0  0  0  0
    8.6077    2.9766    0.0000 H   0  0  0  0  0  0  0  0  0  0  0  0
    7.9174    2.5781    0.0000 H   0  0  0  0  0  0  0  0  0  0  0  0
    7.0369    2.6760    0.0000 H   0  0  0  0  0  0  0  0  0  0  0  0
    6.1900    2.9030    0.0000 H   0  0  0  0  0  0  0  0  0  0  0  0
    5.9631    2.0560    0.0000 H   0  0  0  0  0  0  0  0  0  0  0  0
    2.5970   -3.0420    0.0000 H   0  0  0  0  0  0  0  0  0  0  0  0
    5.4030   -3.0420    0.0000 H   0  0  0  0  0  0  0  0  0  0  0  0
    4.0000   -3.8520    0.0000 H   0  0  0  0  0  0  0  0  0  0  0  0
    9.6900    0.9631    0.0000 H   0  0  0  0  0  0  0  0  0  0  0  0
    9.6900    3.7690    0.0000 H   0  0  0  0  0  0  0  0  0  0  0  0
   11.3100    0.9631    0.0000 H   0  0  0  0  0  0  0  0  0  0  0  0
   11.3100    3.7690    0.0000 H   0  0  0  0  0  0  0  0  0  0  0  0
   12.1200    2.3660    0.0000 H   0  0  0  0  0  0  0  0  0  0  0  0
  1  8  1  0  0  0  0
  1 14  1  0  0  0  0
  1 16  1  0  0  0  0
  2 11  3  0  0  0  0
  3  4  1  0  0  0  0
  3  5  1  0  0  0  0
  3  7  1  0  0  0  0
  3 11  1  0  0  0  0
  4  9  1  0  0  0  0
  4 10  1  0  0  0  0
  4 26  1  0  0  0  0
  5  6  1  0  0  0  0
  5 27  1  0  0  0  0
  5 28  1  0  0  0  0
  6  8  1  0  0  0  0
  6 29  1  0  0  0  0
  6 30  1  0  0  0  0
  7 12  2  0  0  0  0
  7 13  1  0  0  0  0
  8 31  1  0  0  0  0
  8 32  1  0  0  0  0
  9 34  1  0  0  0  0
  9 35  1  0  0  0  0
  9 36  1  0  0  0  0
 10 33  1  0  0  0  0
 10 37  1  0  0  0  0
 10 38  1  0  0  0  0
 12 17  1  0  0  0  0
 12 39  1  0  0  0  0
 13 18  2  0  0  0  0
 13 40  1  0  0  0  0
 14 15  1  0  0  0  0
 14 41  1  0  0  0  0
 14 42  1  0  0  0  0
 15 20  1  0  0  0  0
 15 43  1  0  0  0  0
 15 44  1  0  0  0  0
 16 45  1  0  0  0  0
 16 46  1  0  0  0  0
 16 47  1  0  0  0  0
 17 19  2  0  0  0  0
 17 48  1  0  0  0  0
 18 19  1  0  0  0  0
 18 49  1  0  0  0  0
 19 50  1  0  0  0  0
 20 21  2  0  0  0  0
 20 22  1  0  0  0  0
 21 23  1  0  0  0  0
 21 51  1  0  0  0  0
 22 24  2  0  0  0  0
 22 52  1  0  0  0  0
 23 25  2  0  0  0  0
 23 53  1  0  0  0  0
 24 25  1  0  0  0  0
 24 54  1  0  0  0  0
 25 55  1  0  0  0  0
M  END
> <PUBCHEM_COMPOUND_CID>
71225

> <PUBCHEM_COMPOUND_CANONICALIZED>
1

> <PUBCHEM_CACTVS_COMPLEXITY>
409

> <PUBCHEM_CACTVS_HBOND_ACCEPTOR>
2

> <PUBCHEM_CACTVS_HBOND_DONOR>
0

> <PUBCHEM_CACTVS_ROTATABLE_BOND>
9

> <PUBCHEM_CACTVS_SUBSKEYS>
AAADceB7AAAAAAAAAAAAAAAAAAAAAAAAAAAwYAAAAAAAAAABQAAAHAAAAAAADwDBGAQyAIMAAACQBiBCAAACAAAgAAAIiAAIAIgIoCKAkRGEIAAggACIiA8QgMAPgAAAAAAAAAAAAAAAAAAAAAAAAAAAAA==

> <PUBCHEM_IUPAC_OPENEYE_NAME>
2-isopropyl-5-[methyl(2-phenylethyl)amino]-2-phenyl-pentanenitrile

> <PUBCHEM_IUPAC_CAS_NAME>
5-[methyl(2-phenylethyl)amino]-2-phenyl-2-propan-2-ylpentanenitrile

> <PUBCHEM_IUPAC_NAME>
5-[methyl(2-phenylethyl)amino]-2-phenyl-2-propan-2-ylpentanenitrile

> <PUBCHEM_IUPAC_SYSTEMATIC_NAME>
5-[methyl(2-phenylethyl)amino]-2-phenyl-2-propan-2-yl-pentanenitrile

> <PUBCHEM_IUPAC_TRADITIONAL_NAME>
2-isopropyl-5-[methyl(phenethyl)amino]-2-phenyl-valeronitrile

> <PUBCHEM_IUPAC_INCHI>
InChI=1S/C23H30N2/c1-20(2)23(19-24,22-13-8-5-9-14-22)16-10-17-25(3)18-15-21-11-6-4-7-12-21/h4-9,11-14,20H,10,15-18H2,1-3H3

> <PUBCHEM_IUPAC_INCHIKEY>
DWAWDSVKAUWFHC-UHFFFAOYSA-N

> <PUBCHEM_XLOGP3>
3.9

> <PUBCHEM_EXACT_MASS>
334.240899

> <PUBCHEM_MOLECULAR_FORMULA>
C23H30N2

> <PUBCHEM_MOLECULAR_WEIGHT>
334.4977

> <PUBCHEM_OPENEYE_CAN_SMILES>
CC(C)C(CCCN(C)CCC1=CC=CC=C1)(C#N)C2=CC=CC=C2

> <PUBCHEM_OPENEYE_ISO_SMILES>
CC(C)C(CCCN(C)CCC1=CC=CC=C1)(C#N)C2=CC=CC=C2

> <PUBCHEM_CACTVS_TPSA>
27

> <PUBCHEM_MONOISOTOPIC_WEIGHT>
334.240899

> <PUBCHEM_TOTAL_CHARGE>
0

> <PUBCHEM_HEAVY_ATOM_COUNT>
25

> <PUBCHEM_ATOM_DEF_STEREO_COUNT>
0

> <PUBCHEM_ATOM_UDEF_STEREO_COUNT>
1

> <PUBCHEM_BOND_DEF_STEREO_COUNT>
0

> <PUBCHEM_BOND_UDEF_STEREO_COUNT>
0

> <PUBCHEM_ISOTOPIC_ATOM_COUNT>
0

> <PUBCHEM_COMPONENT_COUNT>
1

> <PUBCHEM_CACTVS_TAUTO_COUNT>
1

> <PUBCHEM_COORDINATE_TYPE>
1
5
255

> <PUBCHEM_BONDANNOTATIONS>
12  17  8
13  18  8
17  19  8
18  19  8
20  21  8
20  22  8
21  23  8
22  24  8
23  25  8
24  25  8
3  5  3
7  12  8
7  13  8

$$$$

