3966
  -OEChem-06251223473D

 43 46  0     1  0  0  0  0  0999 V2000
   -1.2236    0.1351    0.7911 N   0  0  2  0  0  0  0  0  0  0  0  0
    1.2237    0.1348   -0.7911 N   0  0  2  0  0  0  0  0  0  0  0  0
   -0.6624   -1.5106   -1.0387 C   0  0  2  0  0  0  0  0  0  0  0  0
    0.6623   -1.5105    1.0390 C   0  0  2  0  0  0  0  0  0  0  0  0
   -1.7625   -0.6636   -0.3311 C   0  0  2  0  0  0  0  0  0  0  0  0
    1.7625   -0.6636    0.3313 C   0  0  2  0  0  0  0  0  0  0  0  0
    0.0000   -2.4204    0.0003 C   0  0  0  0  0  0  0  0  0  0  0  0
   -0.4506   -0.6913    1.7315 C   0  0  0  0  0  0  0  0  0  0  0  0
    0.4506   -0.6917   -1.7313 C   0  0  0  0  0  0  0  0  0  0  0  0
   -2.5054    0.2462   -1.3264 C   0  0  0  0  0  0  0  0  0  0  0  0
    2.5052    0.2466    1.3263 C   0  0  0  0  0  0  0  0  0  0  0  0
   -2.2838    0.8646    1.5003 C   0  0  0  0  0  0  0  0  0  0  0  0
    2.2840    0.8642   -1.5005 C   0  0  0  0  0  0  0  0  0  0  0  0
   -3.6124    1.0347   -0.6333 C   0  0  0  0  0  0  0  0  0  0  0  0
    3.6123    1.0348    0.6331 C   0  0  0  0  0  0  0  0  0  0  0  0
   -3.0482    1.7956    0.5597 C   0  0  0  0  0  0  0  0  0  0  0  0
    3.0483    1.7954   -0.5602 C   0  0  0  0  0  0  0  0  0  0  0  0
   -1.1445   -2.1409   -1.7972 H   0  0  0  0  0  0  0  0  0  0  0  0
    1.1443   -2.1405    1.7976 H   0  0  0  0  0  0  0  0  0  0  0  0
   -2.4988   -1.3748    0.0738 H   0  0  0  0  0  0  0  0  0  0  0  0
    2.4989   -1.3749   -0.0732 H   0  0  0  0  0  0  0  0  0  0  0  0
    0.7430   -3.0742   -0.4725 H   0  0  0  0  0  0  0  0  0  0  0  0
   -0.7430   -3.0742    0.4731 H   0  0  0  0  0  0  0  0  0  0  0  0
   -1.1210   -1.3876    2.2546 H   0  0  0  0  0  0  0  0  0  0  0  0
   -0.0073   -0.0560    2.5061 H   0  0  0  0  0  0  0  0  0  0  0  0
    1.1209   -1.3882   -2.2544 H   0  0  0  0  0  0  0  0  0  0  0  0
    0.0073   -0.0566   -2.5062 H   0  0  0  0  0  0  0  0  0  0  0  0
   -2.9394   -0.3560   -2.1332 H   0  0  0  0  0  0  0  0  0  0  0  0
   -1.8150    0.9592   -1.7922 H   0  0  0  0  0  0  0  0  0  0  0  0
    2.9391   -0.3551    2.1335 H   0  0  0  0  0  0  0  0  0  0  0  0
    1.8148    0.9598    1.7916 H   0  0  0  0  0  0  0  0  0  0  0  0
   -1.8439    1.4749    2.2984 H   0  0  0  0  0  0  0  0  0  0  0  0
   -2.9856    0.1660    1.9747 H   0  0  0  0  0  0  0  0  0  0  0  0
    1.8440    1.4743   -2.2988 H   0  0  0  0  0  0  0  0  0  0  0  0
    2.9858    0.1654   -1.9747 H   0  0  0  0  0  0  0  0  0  0  0  0
   -4.3985    0.3483   -0.2958 H   0  0  0  0  0  0  0  0  0  0  0  0
   -4.0747    1.7330   -1.3395 H   0  0  0  0  0  0  0  0  0  0  0  0
    4.3985    0.3483    0.2960 H   0  0  0  0  0  0  0  0  0  0  0  0
    4.0745    1.7334    1.3392 H   0  0  0  0  0  0  0  0  0  0  0  0
   -2.3788    2.5894    0.2045 H   0  0  0  0  0  0  0  0  0  0  0  0
   -3.8630    2.2849    1.1050 H   0  0  0  0  0  0  0  0  0  0  0  0
    2.3789    2.5894   -0.2054 H   0  0  0  0  0  0  0  0  0  0  0  0
    3.8633    2.2845   -1.1056 H   0  0  0  0  0  0  0  0  0  0  0  0
  1  5  1  0  0  0  0
  1  8  1  0  0  0  0
  1 12  1  0  0  0  0
  2  6  1  0  0  0  0
  2  9  1  0  0  0  0
  2 13  1  0  0  0  0
  3  5  1  0  0  0  0
  3  7  1  0  0  0  0
  3  9  1  0  0  0  0
  3 18  1  0  0  0  0
  4  6  1  0  0  0  0
  4  7  1  0  0  0  0
  4  8  1  0  0  0  0
  4 19  1  0  0  0  0
  5 10  1  0  0  0  0
  5 20  1  0  0  0  0
  6 11  1  0  0  0  0
  6 21  1  0  0  0  0
  7 22  1  0  0  0  0
  7 23  1  0  0  0  0
  8 24  1  0  0  0  0
  8 25  1  0  0  0  0
  9 26  1  0  0  0  0
  9 27  1  0  0  0  0
 10 14  1  0  0  0  0
 10 28  1  0  0  0  0
 10 29  1  0  0  0  0
 11 15  1  0  0  0  0
 11 30  1  0  0  0  0
 11 31  1  0  0  0  0
 12 16  1  0  0  0  0
 12 32  1  0  0  0  0
 12 33  1  0  0  0  0
 13 17  1  0  0  0  0
 13 34  1  0  0  0  0
 13 35  1  0  0  0  0
 14 16  1  0  0  0  0
 14 36  1  0  0  0  0
 14 37  1  0  0  0  0
 15 17  1  0  0  0  0
 15 38  1  0  0  0  0
 15 39  1  0  0  0  0
 16 40  1  0  0  0  0
 16 41  1  0  0  0  0
 17 42  1  0  0  0  0
 17 43  1  0  0  0  0
M  END
> <PUBCHEM_COMPOUND_CID>
3966

> <PUBCHEM_CONFORMER_RMSD>
0.6

> <PUBCHEM_CONFORMER_DIVERSEORDER>
1
7
8
2
5
6
3
4

> <PUBCHEM_MMFF94_PARTIAL_CHARGES>
8
1 -0.81
12 0.27
13 0.27
2 -0.81
5 0.27
6 0.27
8 0.27
9 0.27

> <PUBCHEM_EFFECTIVE_ROTOR_COUNT>
2.2

> <PUBCHEM_PHARMACOPHORE_FEATURES>
6
1 1 cation
1 2 cation
6 1 3 4 5 7 8 rings
6 1 5 10 12 14 16 rings
6 2 3 4 6 7 9 rings
6 2 6 11 13 15 17 rings

> <PUBCHEM_HEAVY_ATOM_COUNT>
17

> <PUBCHEM_ATOM_DEF_STEREO_COUNT>
0

> <PUBCHEM_ATOM_UDEF_STEREO_COUNT>
4

> <PUBCHEM_BOND_DEF_STEREO_COUNT>
0

> <PUBCHEM_BOND_UDEF_STEREO_COUNT>
0

> <PUBCHEM_ISOTOPIC_ATOM_COUNT>
0

> <PUBCHEM_COMPONENT_COUNT>
1

> <PUBCHEM_CACTVS_TAUTO_COUNT>
1

> <PUBCHEM_CONFORMER_ID>
00000F7E00000001

> <PUBCHEM_MMFF94_ENERGY>
14.653

> <PUBCHEM_FEATURE_SELFOVERLAP>
32.089

> <PUBCHEM_SHAPE_FINGERPRINT>
10498660 4 17458914841947606889
10618630 7 10231759976474507684
10863032 1 18334867116374216582
10948715 1 18410862061492934724
11471102 22 16486983907295833372
11640471 11 18410867559051171044
11680611 10 14259912050158563267
12011746 2 15697732509115962162
12138202 97 17458629952123255558
12251169 10 15769774645561226092
12382932 28 16415477129760131508
12423570 1 13206869434136440775
12491281 212 18341054017032863640
12633257 1 15698286620058726576
12696612 119 15625929933055974286
12716301 132 13469303970631024519
13134695 92 17767685318828287582
13299463 15 15068622656191914406
13571099 52 18411980273413559797
13764800 53 18261663784244368883
14181834 199 17753331164457704222
14817 1 5514910944922563214
15375462 189 9655282778609231121
15775835 57 18410581681733157380
15848702 105 18262533480814720663
16945 1 17458918023911412682
17357779 13 15433165633697335693
1813 80 17540531757133108502
18186145 218 17095233735312573352
18534176 82 17459195075177251614
18981168 100 18266718281819951779
19765921 60 18040714805250259235
19837323 101 18040990700790359779
19868273 293 18041279868322263108
20231682 184 18410857693695941061
20291156 8 9295288360828793473
20510252 161 17980198587063664386
21524375 3 18410856559639815559
21731228 192 17846779585393755664
22802520 49 16298657339313142615
23419403 2 17188343738839123342
23557571 272 17459762401607402199
23559900 14 15936417732728664922
25 1 17386826448197500112
305870 269 18411138073482475386
3323516 105 14635163286922845005
353137 74 17167581600668082755
430814 3 18411703192183287086
4340502 62 17988639731973696929
474 4 18342458174949404633
5262128 65 14779539076334354016
568465 68 16128383717435354240
598444 67 14403530379010888770
81228 2 17832969569015120842

> <PUBCHEM_SHAPE_MULTIPOLES>
339.89
5.3
1.97
1.74
0
0.42
0
-4.07
0
0
0
0
0.03
-0.5

> <PUBCHEM_SHAPE_SELFOVERLAP>
715.401

> <PUBCHEM_SHAPE_VOLUME>
183.5

> <PUBCHEM_COORDINATE_TYPE>
2
5
10

$$$$

