7732
  -OEChem-07051213132D

 18 18  0     0  0  0  0  0  0999 V2000
    2.8660   -1.9050    0.0000 O   0  0  0  0  0  0  0  0  0  0  0  0
    2.8660    2.0950    0.0000 N   0  0  0  0  0  0  0  0  0  0  0  0
    2.8660   -0.9050    0.0000 C   0  0  0  0  0  0  0  0  0  0  0  0
    2.8660    1.0950    0.0000 C   0  0  0  0  0  0  0  0  0  0  0  0
    3.7320   -0.4050    0.0000 C   0  0  0  0  0  0  0  0  0  0  0  0
    2.0000   -0.4050    0.0000 C   0  0  0  0  0  0  0  0  0  0  0  0
    3.7320    0.5950    0.0000 C   0  0  0  0  0  0  0  0  0  0  0  0
    2.0000    0.5950    0.0000 C   0  0  0  0  0  0  0  0  0  0  0  0
    2.0000   -2.4050    0.0000 C   0  0  0  0  0  0  0  0  0  0  0  0
    4.2690   -0.7150    0.0000 H   0  0  0  0  0  0  0  0  0  0  0  0
    1.4631   -0.7150    0.0000 H   0  0  0  0  0  0  0  0  0  0  0  0
    4.2690    0.9050    0.0000 H   0  0  0  0  0  0  0  0  0  0  0  0
    1.4631    0.9050    0.0000 H   0  0  0  0  0  0  0  0  0  0  0  0
    3.4030    2.4050    0.0000 H   0  0  0  0  0  0  0  0  0  0  0  0
    2.3291    2.4050    0.0000 H   0  0  0  0  0  0  0  0  0  0  0  0
    1.6900   -1.8681    0.0000 H   0  0  0  0  0  0  0  0  0  0  0  0
    1.4631   -2.7150    0.0000 H   0  0  0  0  0  0  0  0  0  0  0  0
    2.3100   -2.9419    0.0000 H   0  0  0  0  0  0  0  0  0  0  0  0
  1  3  1  0  0  0  0
  1  9  1  0  0  0  0
  2  4  1  0  0  0  0
  2 14  1  0  0  0  0
  2 15  1  0  0  0  0
  3  5  2  0  0  0  0
  3  6  1  0  0  0  0
  4  7  2  0  0  0  0
  4  8  1  0  0  0  0
  5  7  1  0  0  0  0
  5 10  1  0  0  0  0
  6  8  2  0  0  0  0
  6 11  1  0  0  0  0
  7 12  1  0  0  0  0
  8 13  1  0  0  0  0
  9 16  1  0  0  0  0
  9 17  1  0  0  0  0
  9 18  1  0  0  0  0
M  END
> <PUBCHEM_COMPOUND_CID>
7732

> <PUBCHEM_COMPOUND_CANONICALIZED>
1

> <PUBCHEM_CACTVS_COMPLEXITY>
77

> <PUBCHEM_CACTVS_HBOND_ACCEPTOR>
2

> <PUBCHEM_CACTVS_HBOND_DONOR>
1

> <PUBCHEM_CACTVS_ROTATABLE_BOND>
1

> <PUBCHEM_CACTVS_SUBSKEYS>
AAADccBiIAAAAAAAAAAAAAAAAAAAAAAAAAAwAAAAAAAAAAABAAAAHgAQAAAACAyBkAIyxoBABACAACRCQACCCAAgIgAIiAAGbIgMJiKEsZuAMCBk0BEI6AewQAAAAEAAAAAAAAAAgAAAAAAAAAAAAAAAAA==

> <PUBCHEM_IUPAC_OPENEYE_NAME>
4-methoxyaniline

> <PUBCHEM_IUPAC_CAS_NAME>
4-methoxyaniline

> <PUBCHEM_IUPAC_NAME>
4-methoxyaniline

> <PUBCHEM_IUPAC_SYSTEMATIC_NAME>
4-methoxyaniline

> <PUBCHEM_IUPAC_TRADITIONAL_NAME>
p-anisidine

> <PUBCHEM_IUPAC_INCHI>
InChI=1S/C7H9NO/c1-9-7-4-2-6(8)3-5-7/h2-5H,8H2,1H3

> <PUBCHEM_IUPAC_INCHIKEY>
BHAAPTBBJKJZER-UHFFFAOYSA-N

> <PUBCHEM_XLOGP3>
0.9

> <PUBCHEM_EXACT_MASS>
123.068414

> <PUBCHEM_MOLECULAR_FORMULA>
C7H9NO

> <PUBCHEM_MOLECULAR_WEIGHT>
123.15246

> <PUBCHEM_OPENEYE_CAN_SMILES>
COC1=CC=C(C=C1)N

> <PUBCHEM_OPENEYE_ISO_SMILES>
COC1=CC=C(C=C1)N

> <PUBCHEM_CACTVS_TPSA>
35.2

> <PUBCHEM_MONOISOTOPIC_WEIGHT>
123.068414

> <PUBCHEM_TOTAL_CHARGE>
0

> <PUBCHEM_HEAVY_ATOM_COUNT>
9

> <PUBCHEM_ATOM_DEF_STEREO_COUNT>
0

> <PUBCHEM_ATOM_UDEF_STEREO_COUNT>
0

> <PUBCHEM_BOND_DEF_STEREO_COUNT>
0

> <PUBCHEM_BOND_UDEF_STEREO_COUNT>
0

> <PUBCHEM_ISOTOPIC_ATOM_COUNT>
0

> <PUBCHEM_COMPONENT_COUNT>
1

> <PUBCHEM_CACTVS_TAUTO_COUNT>
1

> <PUBCHEM_COORDINATE_TYPE>
1
5
255

> <PUBCHEM_BONDANNOTATIONS>
3  5  8
3  6  8
4  7  8
4  8  8
5  7  8
6  8  8

$$$$

