9910234
  -OEChem-07051213112D

 59 61  0     1  0  0  0  0  0999 V2000
    8.0901   -0.1897    0.0000 O   0  0  0  0  0  0  0  0  0  0  0  0
    4.5981   -0.1550    0.0000 O   0  0  0  0  0  0  0  0  0  0  0  0
    8.0785    2.8796    0.0000 O   0  0  0  0  0  0  0  0  0  0  0  0
    6.3301    2.8450    0.0000 O   0  0  0  0  0  0  0  0  0  0  0  0
    8.9884   -1.6758    0.0000 O   0  0  0  0  0  0  0  0  0  0  0  0
   12.4525   -1.6892    0.0000 O   0  0  0  0  0  0  0  0  0  0  0  0
    5.4641   -1.6550    0.0000 C   0  0  3  0  0  0  0  0  0  0  0  0
    6.3301   -1.1550    0.0000 C   0  0  0  0  0  0  0  0  0  0  0  0
    6.3301   -0.1550    0.0000 C   0  0  0  0  0  0  0  0  0  0  0  0
    7.1962    0.3450    0.0000 C   0  0  0  0  0  0  0  0  0  0  0  0
    8.9962    0.3242    0.0000 C   0  0  1  0  0  0  0  0  0  0  0  0
    8.9962    1.3658    0.0000 C   0  0  0  0  0  0  0  0  0  0  0  0
    7.1962    1.3450    0.0000 C   0  0  0  0  0  0  0  0  0  0  0  0
    4.5981   -1.1550    0.0000 C   0  0  0  0  0  0  0  0  0  0  0  0
    8.0901    1.8797    0.0000 C   0  0  0  0  0  0  0  0  0  0  0  0
    5.4641   -2.6550    0.0000 C   0  0  0  0  0  0  0  0  0  0  0  0
    5.4641    0.3450    0.0000 C   0  0  0  0  0  0  0  0  0  0  0  0
    9.8602   -0.1792    0.0000 C   0  0  0  0  0  0  0  0  0  0  0  0
    6.3301    1.8450    0.0000 C   0  0  0  0  0  0  0  0  0  0  0  0
    5.4641    1.3450    0.0000 C   0  0  0  0  0  0  0  0  0  0  0  0
    3.7320   -1.6550    0.0000 C   0  0  0  0  0  0  0  0  0  0  0  0
    4.5981   -3.1550    0.0000 C   0  0  0  0  0  0  0  0  0  0  0  0
    9.8564   -1.1791    0.0000 C   0  0  0  0  0  0  0  0  0  0  0  0
   10.7282    0.3175    0.0000 C   0  0  0  0  0  0  0  0  0  0  0  0
    6.3301   -3.1550    0.0000 C   0  0  0  0  0  0  0  0  0  0  0  0
    2.8660   -1.1550    0.0000 C   0  0  0  0  0  0  0  0  0  0  0  0
   10.7205   -1.6825    0.0000 C   0  0  0  0  0  0  0  0  0  0  0  0
   11.5923   -0.1858    0.0000 C   0  0  0  0  0  0  0  0  0  0  0  0
   11.5884   -1.1858    0.0000 C   0  0  0  0  0  0  0  0  0  0  0  0
    2.0000   -1.6550    0.0000 C   0  0  0  0  0  0  0  0  0  0  0  0
    2.8660   -0.1550    0.0000 C   0  0  0  0  0  0  0  0  0  0  0  0
    5.4641   -1.0350    0.0000 H   0  0  0  0  0  0  0  0  0  0  0  0
    6.5422   -1.7376    0.0000 H   0  0  0  0  0  0  0  0  0  0  0  0
    6.9407   -1.0473    0.0000 H   0  0  0  0  0  0  0  0  0  0  0  0
    8.9913   -0.5258    0.0000 H   0  0  0  0  0  0  0  0  0  0  0  0
    9.6070    1.2597    0.0000 H   0  0  0  0  0  0  0  0  0  0  0  0
    9.2052    1.9495    0.0000 H   0  0  0  0  0  0  0  0  0  0  0  0
    4.9966   -0.6801    0.0000 H   0  0  0  0  0  0  0  0  0  0  0  0
    4.1996   -0.6801    0.0000 H   0  0  0  0  0  0  0  0  0  0  0  0
    4.9272    1.6550    0.0000 H   0  0  0  0  0  0  0  0  0  0  0  0
    3.7320   -2.2750    0.0000 H   0  0  0  0  0  0  0  0  0  0  0  0
    4.2881   -2.6181    0.0000 H   0  0  0  0  0  0  0  0  0  0  0  0
    4.0611   -3.4650    0.0000 H   0  0  0  0  0  0  0  0  0  0  0  0
    4.9081   -3.6919    0.0000 H   0  0  0  0  0  0  0  0  0  0  0  0
   10.7306    0.9375    0.0000 H   0  0  0  0  0  0  0  0  0  0  0  0
    6.3301   -3.7750    0.0000 H   0  0  0  0  0  0  0  0  0  0  0  0
    6.8671   -2.8450    0.0000 H   0  0  0  0  0  0  0  0  0  0  0  0
    4.0611    0.1550    0.0000 H   0  0  0  0  0  0  0  0  0  0  0  0
   10.7181   -2.3025    0.0000 H   0  0  0  0  0  0  0  0  0  0  0  0
   12.1304    0.1221    0.0000 H   0  0  0  0  0  0  0  0  0  0  0  0
    5.7932    3.1550    0.0000 H   0  0  0  0  0  0  0  0  0  0  0  0
    1.6900   -1.1181    0.0000 H   0  0  0  0  0  0  0  0  0  0  0  0
    1.4631   -1.9650    0.0000 H   0  0  0  0  0  0  0  0  0  0  0  0
    2.3100   -2.1919    0.0000 H   0  0  0  0  0  0  0  0  0  0  0  0
    3.4860   -0.1550    0.0000 H   0  0  0  0  0  0  0  0  0  0  0  0
    2.8660    0.4650    0.0000 H   0  0  0  0  0  0  0  0  0  0  0  0
    2.2460   -0.1550    0.0000 H   0  0  0  0  0  0  0  0  0  0  0  0
    8.9861   -2.2958    0.0000 H   0  0  0  0  0  0  0  0  0  0  0  0
   12.9907   -1.3812    0.0000 H   0  0  0  0  0  0  0  0  0  0  0  0
  1 10  1  0  0  0  0
  1 11  1  0  0  0  0
  2 17  1  0  0  0  0
  2 48  1  0  0  0  0
  3 15  2  0  0  0  0
  4 19  1  0  0  0  0
  4 51  1  0  0  0  0
  5 23  1  0  0  0  0
  5 58  1  0  0  0  0
  6 29  1  0  0  0  0
  6 59  1  0  0  0  0
  7  8  1  0  0  0  0
  7 14  1  0  0  0  0
  7 16  1  0  0  0  0
  7 32  1  0  0  0  0
  8  9  1  0  0  0  0
  8 33  1  0  0  0  0
  8 34  1  0  0  0  0
  9 10  2  0  0  0  0
  9 17  1  0  0  0  0
 10 13  1  0  0  0  0
 11 12  1  0  0  0  0
 11 18  1  0  0  0  0
 11 35  1  6  0  0  0
 12 15  1  0  0  0  0
 12 36  1  0  0  0  0
 12 37  1  0  0  0  0
 13 15  1  0  0  0  0
 13 19  2  0  0  0  0
 14 21  1  0  0  0  0
 14 38  1  0  0  0  0
 14 39  1  0  0  0  0
 16 22  1  0  0  0  0
 16 25  2  0  0  0  0
 17 20  2  0  0  0  0
 18 23  2  0  0  0  0
 18 24  1  0  0  0  0
 19 20  1  0  0  0  0
 20 40  1  0  0  0  0
 21 26  2  0  0  0  0
 21 41  1  0  0  0  0
 22 42  1  0  0  0  0
 22 43  1  0  0  0  0
 22 44  1  0  0  0  0
 23 27  1  0  0  0  0
 24 28  2  0  0  0  0
 24 45  1  0  0  0  0
 25 46  1  0  0  0  0
 25 47  1  0  0  0  0
 26 30  1  0  0  0  0
 26 31  1  0  0  0  0
 27 29  2  0  0  0  0
 27 49  1  0  0  0  0
 28 29  1  0  0  0  0
 28 50  1  0  0  0  0
 30 52  1  0  0  0  0
 30 53  1  0  0  0  0
 30 54  1  0  0  0  0
 31 55  1  0  0  0  0
 31 56  1  0  0  0  0
 31 57  1  0  0  0  0
M  END
> <PUBCHEM_COMPOUND_CID>
9910234

> <PUBCHEM_COMPOUND_CANONICALIZED>
1

> <PUBCHEM_CACTVS_COMPLEXITY>
684

> <PUBCHEM_CACTVS_HBOND_ACCEPTOR>
6

> <PUBCHEM_CACTVS_HBOND_DONOR>
4

> <PUBCHEM_CACTVS_ROTATABLE_BOND>
6

> <PUBCHEM_CACTVS_SUBSKEYS>
AAADceB4OAAAAAAAAAAAAAAAAAAAAAAAAAA0YIAAAAAAAACRQAAAGgAACAAADRSgmAIyBoAABgCIAqBSAAACCAAkIAAIiAEGCMgMJzaGNRqCeWCl4BUIuQeI7OzOIAACCAAIAABAAAQQABAAAAAAAAAAAA==

> <PUBCHEM_IUPAC_OPENEYE_NAME>
(2S)-2-(2,4-dihydroxyphenyl)-5,7-dihydroxy-8-(2-isopropenyl-5-methyl-hex-4-enyl)chroman-4-one

> <PUBCHEM_IUPAC_CAS_NAME>
(2S)-2-(2,4-dihydroxyphenyl)-5,7-dihydroxy-8-[5-methyl-2-(1-methylethenyl)hex-4-enyl]-3,4-dihydro-2H-1-benzopyran-4-one

> <PUBCHEM_IUPAC_NAME>
(2S)-2-(2,4-dihydroxyphenyl)-5,7-dihydroxy-8-(5-methyl-2-prop-1-en-2-ylhex-4-enyl)-2,3-dihydrochromen-4-one

> <PUBCHEM_IUPAC_SYSTEMATIC_NAME>
(2S)-2-[2,4-bis(oxidanyl)phenyl]-8-(5-methyl-2-prop-1-en-2-yl-hex-4-enyl)-5,7-bis(oxidanyl)-2,3-dihydrochromen-4-one

> <PUBCHEM_IUPAC_TRADITIONAL_NAME>
(2S)-2-(2,4-dihydroxyphenyl)-5,7-dihydroxy-8-(2-isopropenyl-5-methyl-hex-4-enyl)chroman-4-one

> <PUBCHEM_IUPAC_INCHI>
InChI=1S/C25H28O6/c1-13(2)5-6-15(14(3)4)9-18-20(28)11-21(29)24-22(30)12-23(31-25(18)24)17-8-7-16(26)10-19(17)27/h5,7-8,10-11,15,23,26-29H,3,6,9,12H2,1-2,4H3/t15?,23-/m0/s1

> <PUBCHEM_IUPAC_INCHIKEY>
XRYVAQQLDYTHCL-GMTBNIFVSA-N

> <PUBCHEM_XLOGP3_AA>
5.8

> <PUBCHEM_EXACT_MASS>
424.188589

> <PUBCHEM_MOLECULAR_FORMULA>
C25H28O6

> <PUBCHEM_MOLECULAR_WEIGHT>
424.48622

> <PUBCHEM_OPENEYE_CAN_SMILES>
CC(=CCC(CC1=C(C=C(C2=C1OC(CC2=O)C3=C(C=C(C=C3)O)O)O)O)C(=C)C)C

> <PUBCHEM_OPENEYE_ISO_SMILES>
CC(=CCC(CC1=C(C=C(C2=C1O[C@@H](CC2=O)C3=C(C=C(C=C3)O)O)O)O)C(=C)C)C

> <PUBCHEM_CACTVS_TPSA>
107

> <PUBCHEM_MONOISOTOPIC_WEIGHT>
424.188589

> <PUBCHEM_TOTAL_CHARGE>
0

> <PUBCHEM_HEAVY_ATOM_COUNT>
31

> <PUBCHEM_ATOM_DEF_STEREO_COUNT>
1

> <PUBCHEM_ATOM_UDEF_STEREO_COUNT>
1

> <PUBCHEM_BOND_DEF_STEREO_COUNT>
0

> <PUBCHEM_BOND_UDEF_STEREO_COUNT>
0

> <PUBCHEM_ISOTOPIC_ATOM_COUNT>
0

> <PUBCHEM_COMPONENT_COUNT>
1

> <PUBCHEM_CACTVS_TAUTO_COUNT>
189

> <PUBCHEM_COORDINATE_TYPE>
1
5
255

> <PUBCHEM_BONDANNOTATIONS>
10  13  8
11  35  6
13  19  8
17  20  8
18  23  8
18  24  8
19  20  8
23  27  8
24  28  8
27  29  8
28  29  8
7  14  3
9  10  8
9  17  8

$$$$

