164601
  -OEChem-07051213093D

 46 46  0     1  0  0  0  0  0999 V2000
   -9.1005    0.7252    0.1023 O   0  0  0  0  0  0  0  0  0  0  0  0
   -8.0548   -1.2006   -0.5012 O   0  0  0  0  0  0  0  0  0  0  0  0
    5.9913   -0.1498    0.4830 C   0  0  2  0  0  0  0  0  0  0  0  0
    4.6988   -0.8276    0.0530 C   0  0  0  0  0  0  0  0  0  0  0  0
    6.2423    1.1618   -0.2756 C   0  0  0  0  0  0  0  0  0  0  0  0
    3.4435   -0.0145    0.3781 C   0  0  0  0  0  0  0  0  0  0  0  0
    2.1101   -0.6743    0.0137 C   0  0  0  0  0  0  0  0  0  0  0  0
    0.8958    0.2172    0.2819 C   0  0  0  0  0  0  0  0  0  0  0  0
    7.7536    1.2391   -0.4941 C   0  0  0  0  0  0  0  0  0  0  0  0
    7.2144   -0.9484    0.1524 C   0  0  0  0  0  0  0  0  0  0  0  0
   -0.4087   -0.5030   -0.0702 C   0  0  0  0  0  0  0  0  0  0  0  0
   -1.6251    0.3745    0.2332 C   0  0  0  0  0  0  0  0  0  0  0  0
    8.1761   -0.1865   -0.3771 C   0  0  0  0  0  0  0  0  0  0  0  0
   -2.9607   -0.3068   -0.0795 C   0  0  0  0  0  0  0  0  0  0  0  0
   -4.1764    0.5802    0.2008 C   0  0  0  0  0  0  0  0  0  0  0  0
   -5.4816   -0.1466   -0.1402 C   0  0  0  0  0  0  0  0  0  0  0  0
   -6.7162    0.6986    0.1598 C   0  0  0  0  0  0  0  0  0  0  0  0
   -8.0019   -0.0385   -0.1200 C   0  0  0  0  0  0  0  0  0  0  0  0
    5.9742    0.0336    1.5647 H   0  0  0  0  0  0  0  0  0  0  0  0
    4.6211   -1.8024    0.5522 H   0  0  0  0  0  0  0  0  0  0  0  0
    4.7185   -1.0395   -1.0243 H   0  0  0  0  0  0  0  0  0  0  0  0
    5.7381    1.1610   -1.2513 H   0  0  0  0  0  0  0  0  0  0  0  0
    5.8711    2.0314    0.2775 H   0  0  0  0  0  0  0  0  0  0  0  0
    3.4981    0.9509   -0.1398 H   0  0  0  0  0  0  0  0  0  0  0  0
    3.4374    0.2121    1.4520 H   0  0  0  0  0  0  0  0  0  0  0  0
    2.0110   -1.6087    0.5798 H   0  0  0  0  0  0  0  0  0  0  0  0
    2.1273   -0.9483   -1.0485 H   0  0  0  0  0  0  0  0  0  0  0  0
    0.8834    0.5065    1.3397 H   0  0  0  0  0  0  0  0  0  0  0  0
    0.9796    1.1395   -0.3055 H   0  0  0  0  0  0  0  0  0  0  0  0
    7.9887    1.6545   -1.4782 H   0  0  0  0  0  0  0  0  0  0  0  0
    8.2428    1.8458    0.2748 H   0  0  0  0  0  0  0  0  0  0  0  0
    7.3243   -2.0030    0.3619 H   0  0  0  0  0  0  0  0  0  0  0  0
   -0.4068   -0.7737   -1.1328 H   0  0  0  0  0  0  0  0  0  0  0  0
   -0.4812   -1.4359    0.5018 H   0  0  0  0  0  0  0  0  0  0  0  0
   -1.5528    1.3034   -0.3461 H   0  0  0  0  0  0  0  0  0  0  0  0
   -1.6110    0.6604    1.2923 H   0  0  0  0  0  0  0  0  0  0  0  0
    9.1553   -0.5485   -0.6548 H   0  0  0  0  0  0  0  0  0  0  0  0
   -2.9692   -0.6070   -1.1347 H   0  0  0  0  0  0  0  0  0  0  0  0
   -3.0394   -1.2274    0.5120 H   0  0  0  0  0  0  0  0  0  0  0  0
   -4.1811    0.8705    1.2582 H   0  0  0  0  0  0  0  0  0  0  0  0
   -4.1043    1.5019   -0.3888 H   0  0  0  0  0  0  0  0  0  0  0  0
   -5.5330   -1.0831    0.4299 H   0  0  0  0  0  0  0  0  0  0  0  0
   -5.4791   -0.4278   -1.2010 H   0  0  0  0  0  0  0  0  0  0  0  0
   -6.7188    0.9889    1.2162 H   0  0  0  0  0  0  0  0  0  0  0  0
   -6.7004    1.6041   -0.4568 H   0  0  0  0  0  0  0  0  0  0  0  0
   -9.9303    0.2350   -0.0804 H   0  0  0  0  0  0  0  0  0  0  0  0
  1 18  1  0  0  0  0
  1 46  1  0  0  0  0
  2 18  2  0  0  0  0
  3  4  1  0  0  0  0
  3  5  1  0  0  0  0
  3 10  1  0  0  0  0
  3 19  1  0  0  0  0
  4  6  1  0  0  0  0
  4 20  1  0  0  0  0
  4 21  1  0  0  0  0
  5  9  1  0  0  0  0
  5 22  1  0  0  0  0
  5 23  1  0  0  0  0
  6  7  1  0  0  0  0
  6 24  1  0  0  0  0
  6 25  1  0  0  0  0
  7  8  1  0  0  0  0
  7 26  1  0  0  0  0
  7 27  1  0  0  0  0
  8 11  1  0  0  0  0
  8 28  1  0  0  0  0
  8 29  1  0  0  0  0
  9 13  1  0  0  0  0
  9 30  1  0  0  0  0
  9 31  1  0  0  0  0
 10 13  2  0  0  0  0
 10 32  1  0  0  0  0
 11 12  1  0  0  0  0
 11 33  1  0  0  0  0
 11 34  1  0  0  0  0
 12 14  1  0  0  0  0
 12 35  1  0  0  0  0
 12 36  1  0  0  0  0
 13 37  1  0  0  0  0
 14 15  1  0  0  0  0
 14 38  1  0  0  0  0
 14 39  1  0  0  0  0
 15 16  1  0  0  0  0
 15 40  1  0  0  0  0
 15 41  1  0  0  0  0
 16 17  1  0  0  0  0
 16 42  1  0  0  0  0
 16 43  1  0  0  0  0
 17 18  1  0  0  0  0
 17 44  1  0  0  0  0
 17 45  1  0  0  0  0
M  END
> <PUBCHEM_COMPOUND_CID>
164601

> <PUBCHEM_CONFORMER_RMSD>
1

> <PUBCHEM_CONFORMER_DIVERSEORDER>
1
285
228
167
47
339
263
139
5
350
355
164
199
116
102
183
34
14
200
282
4
334
2
106
15
237
346
41
129
318
359
16
148
207
73
304
54
23
222
328
13
25
37
134
309
163
313
330
75
84
90
78
74
175
17
306
180
218
143
358
312
10
296
125
115
112
278
21
147
308
146
182
59
55
96
72
63
351
104
338
11
212
159
252
107
255
20
170
42
53
97
360
287
93
187
231
349
171
38
198
46
353
205
302
92
216
210
238
130
108
348
352
168
44
259
3
30
135
188
48
319
40
32
122
94
68
86
303
347
186
28
277
291
301
85
12
66
24
194
245
95
127
18
152
123
70
58
33
178
274
105
336
214
264
29
64
131
7
169
26
9
62
22
260
124
299
272
61
81
57
270
69
103
43
35
65
280
82
161
221
140
289
335
166
50
79
256
80
293
162
232
331
317
56
337
176
149
117
158
45
27
329
119
141
110
31
51
39
295
126
160
67
71
267
354
193
142
249
98
49
261
244
89
247
191
132
243
19
342
266
87
118
150
225
76
109
8
310
248
197
220
128
184
361
154
52
271
300
6
345
242
114
253
327
151
155
91
185
36
145
311
227
99
133
344
137
219
269
286
340
234
192
297
320
196
357
111
356
153
113
211
181
60
316
292
321
157
208
273
156
314
215
195
165
174
233
83
173
343
283
284
202
204
275
172
77
251
101
213
241
305
144
288
224
307
279
88
226
262
121
333
268
246
235
138
136
290
324
257
203
265
201
240
100
230
190
298
322
341
120
177
239
294
281
323
326
229
276
254
223
206
179
325
236
315
217
189
250
332
209
258

> <PUBCHEM_MMFF94_PARTIAL_CHARGES>
11
1 -0.65
10 -0.29
13 -0.29
17 0.06
18 0.66
2 -0.57
3 0.14
32 0.15
37 0.15
46 0.5
9 0.14

> <PUBCHEM_EFFECTIVE_ROTOR_COUNT>
11.6

> <PUBCHEM_PHARMACOPHORE_FEATURES>
4
1 1 acceptor
1 2 acceptor
3 1 2 18 anion
5 3 5 9 10 13 rings

> <PUBCHEM_HEAVY_ATOM_COUNT>
18

> <PUBCHEM_ATOM_DEF_STEREO_COUNT>
1

> <PUBCHEM_ATOM_UDEF_STEREO_COUNT>
0

> <PUBCHEM_BOND_DEF_STEREO_COUNT>
0

> <PUBCHEM_BOND_UDEF_STEREO_COUNT>
0

> <PUBCHEM_ISOTOPIC_ATOM_COUNT>
0

> <PUBCHEM_COMPONENT_COUNT>
1

> <PUBCHEM_CACTVS_TAUTO_COUNT>
1

> <PUBCHEM_CONFORMER_ID>
000282F900000001

> <PUBCHEM_MMFF94_ENERGY>
9.5889

> <PUBCHEM_FEATURE_SELFOVERLAP>
20.355

> <PUBCHEM_SHAPE_FINGERPRINT>
10299344 5 18333733519912223375
11315181 36 18407757041874660905
11638347 137 15554454015867765744
12091667 2 18131632301608513481
13533116 47 16773526564107835514
14123256 10 18410575093253020001
14251764 18 18335138696020330593
14251764 46 14908180859005459857
14428016 248 18335695044825887105
155225 1 18131065997560584172
16120349 18 18131350774412168420
21095086 128 17749389278007013390
21150785 3 18408041814267883723
21315763 28 18410856590137376216
22224240 67 17132115736175024154
232437 2 18412825797982322914
23521765 1 18335421274476549611
246663 6 15357696387847903067
249057 3 16081094753253931557
33684 2 18408886247719469411
4325135 7 18333731320983946028
5758199 1 17561365093102173547
67123 10 18410855451543501959
8209 1 18410575093258288267

> <PUBCHEM_SHAPE_MULTIPOLES>
358.69
33.05
1.05
0.68
26.74
0.08
0
2.79
3.18
-0.84
0.07
-0.21
0
-0.75

> <PUBCHEM_SHAPE_SELFOVERLAP>
686.555

> <PUBCHEM_SHAPE_VOLUME>
220.6

> <PUBCHEM_COORDINATE_TYPE>
2
5
10

$$$$

