656521
  -OEChem-07051212552D

 60 62  0     1  0  0  0  0  0999 V2000
    4.2690   -2.0000    0.0000 O   0  0  0  0  0  0  0  0  0  0  0  0
    8.5991    2.5000    0.0000 O   0  0  0  0  0  0  0  0  0  0  0  0
    6.0010   -2.0000    0.0000 O   0  0  0  0  0  0  0  0  0  0  0  0
    4.2690   -5.0000    0.0000 O   0  0  0  0  0  0  0  0  0  0  0  0
    9.4651    1.0000    0.0000 O   0  0  0  0  0  0  0  0  0  0  0  0
    2.5369   -4.0000    0.0000 O   0  0  0  0  0  0  0  0  0  0  0  0
    6.0010   -4.0000    0.0000 O   0  0  0  0  0  0  0  0  0  0  0  0
   11.1972    4.0000    0.0000 O   0  0  0  0  0  0  0  0  0  0  0  0
    9.4651    5.0000    0.0000 O   0  0  0  0  0  0  0  0  0  0  0  0
   11.1972    2.0000    0.0000 O   0  0  0  0  0  0  0  0  0  0  0  0
    2.5369   -1.0000    0.0000 O   0  0  0  0  0  0  0  0  0  0  0  0
    7.7331    5.0000    0.0000 O   0  0  0  0  0  0  0  0  0  0  0  0
    4.2690    0.0000    0.0000 N   0  0  0  0  0  0  0  0  0  0  0  0
    4.2690   -4.0000    0.0000 C   0  0  1  0  0  0  0  0  0  0  0  0
    3.4030   -3.5000    0.0000 C   0  0  1  0  0  0  0  0  0  0  0  0
    5.1350   -3.5000    0.0000 C   0  0  2  0  0  0  0  0  0  0  0  0
    3.4030   -2.5000    0.0000 C   0  0  1  0  0  0  0  0  0  0  0  0
   10.3312    3.5000    0.0000 C   0  0  1  0  0  0  0  0  0  0  0  0
    9.4651    4.0000    0.0000 C   0  0  1  0  0  0  0  0  0  0  0  0
   10.3312    2.5000    0.0000 C   0  0  2  0  0  0  0  0  0  0  0  0
    8.5991    3.5000    0.0000 C   0  0  1  0  0  0  0  0  0  0  0  0
    5.1350   -2.5000    0.0000 C   0  0  1  0  0  0  0  0  0  0  0  0
    9.4651    2.0000    0.0000 C   0  0  1  0  0  0  0  0  0  0  0  0
    2.5369   -2.0000    0.0000 C   0  0  0  0  0  0  0  0  0  0  0  0
    7.7331    4.0000    0.0000 C   0  0  0  0  0  0  0  0  0  0  0  0
    6.0010   -1.0000    0.0000 C   0  0  1  0  0  0  0  0  0  0  0  0
    8.5991    0.5000    0.0000 C   0  0  0  0  0  0  0  0  0  0  0  0
    6.8671   -0.5000    0.0000 C   0  0  0  0  0  0  0  0  0  0  0  0
    7.7331    1.0000    0.0000 C   0  0  0  0  0  0  0  0  0  0  0  0
    8.5991   -0.5000    0.0000 C   0  0  0  0  0  0  0  0  0  0  0  0
    6.8671    0.5000    0.0000 C   0  0  0  0  0  0  0  0  0  0  0  0
    7.7331   -1.0000    0.0000 C   0  0  0  0  0  0  0  0  0  0  0  0
    5.1350   -0.5000    0.0000 C   0  0  0  0  0  0  0  0  0  0  0  0
    4.8059   -4.3100    0.0000 H   0  0  0  0  0  0  0  0  0  0  0  0
    3.4030   -4.1200    0.0000 H   0  0  0  0  0  0  0  0  0  0  0  0
    5.1350   -4.1200    0.0000 H   0  0  0  0  0  0  0  0  0  0  0  0
   10.8681    3.1900    0.0000 H   0  0  0  0  0  0  0  0  0  0  0  0
    3.4030   -1.8800    0.0000 H   0  0  0  0  0  0  0  0  0  0  0  0
   10.0021    4.3100    0.0000 H   0  0  0  0  0  0  0  0  0  0  0  0
   10.8681    2.8100    0.0000 H   0  0  0  0  0  0  0  0  0  0  0  0
    8.0622    3.1900    0.0000 H   0  0  0  0  0  0  0  0  0  0  0  0
    5.1350   -1.8800    0.0000 H   0  0  0  0  0  0  0  0  0  0  0  0
   10.0021    1.6900    0.0000 H   0  0  0  0  0  0  0  0  0  0  0  0
    1.9264   -1.8923    0.0000 H   0  0  0  0  0  0  0  0  0  0  0  0
    2.3249   -2.5826    0.0000 H   0  0  0  0  0  0  0  0  0  0  0  0
    7.1225    4.1077    0.0000 H   0  0  0  0  0  0  0  0  0  0  0  0
    7.5210    3.4174    0.0000 H   0  0  0  0  0  0  0  0  0  0  0  0
    3.7320   -5.3100    0.0000 H   0  0  0  0  0  0  0  0  0  0  0  0
    2.0000   -3.6900    0.0000 H   0  0  0  0  0  0  0  0  0  0  0  0
    6.5380   -3.6900    0.0000 H   0  0  0  0  0  0  0  0  0  0  0  0
    6.5380   -1.3100    0.0000 H   0  0  0  0  0  0  0  0  0  0  0  0
   11.1972    4.6200    0.0000 H   0  0  0  0  0  0  0  0  0  0  0  0
   10.0021    5.3100    0.0000 H   0  0  0  0  0  0  0  0  0  0  0  0
   11.7341    2.3100    0.0000 H   0  0  0  0  0  0  0  0  0  0  0  0
    2.0000   -0.6900    0.0000 H   0  0  0  0  0  0  0  0  0  0  0  0
    7.1962    5.3100    0.0000 H   0  0  0  0  0  0  0  0  0  0  0  0
    7.7331    1.6200    0.0000 H   0  0  0  0  0  0  0  0  0  0  0  0
    9.1360   -0.8100    0.0000 H   0  0  0  0  0  0  0  0  0  0  0  0
    6.3301    0.8100    0.0000 H   0  0  0  0  0  0  0  0  0  0  0  0
    7.7331   -1.6200    0.0000 H   0  0  0  0  0  0  0  0  0  0  0  0
  1 17  1  0  0  0  0
  1 22  1  0  0  0  0
  2 21  1  0  0  0  0
  2 23  1  0  0  0  0
 22  3  1  1  0  0  0
 26  3  1  6  0  0  0
 14  4  1  1  0  0  0
  4 48  1  0  0  0  0
 23  5  1  6  0  0  0
  5 27  1  0  0  0  0
 15  6  1  6  0  0  0
  6 49  1  0  0  0  0
 16  7  1  6  0  0  0
  7 50  1  0  0  0  0
 18  8  1  6  0  0  0
  8 52  1  0  0  0  0
 19  9  1  1  0  0  0
  9 53  1  0  0  0  0
 20 10  1  1  0  0  0
 10 54  1  0  0  0  0
 11 24  1  0  0  0  0
 11 55  1  0  0  0  0
 12 25  1  0  0  0  0
 12 56  1  0  0  0  0
 13 33  3  0  0  0  0
 14 15  1  0  0  0  0
 14 16  1  0  0  0  0
 14 34  1  0  0  0  0
 15 17  1  0  0  0  0
 15 35  1  0  0  0  0
 16 22  1  0  0  0  0
 16 36  1  0  0  0  0
 17 24  1  1  0  0  0
 17 38  1  0  0  0  0
 18 19  1  0  0  0  0
 18 20  1  0  0  0  0
 18 37  1  0  0  0  0
 19 21  1  0  0  0  0
 19 39  1  0  0  0  0
 20 23  1  0  0  0  0
 20 40  1  0  0  0  0
 21 25  1  6  0  0  0
 21 41  1  0  0  0  0
 22 42  1  0  0  0  0
 23 43  1  0  0  0  0
 24 44  1  0  0  0  0
 24 45  1  0  0  0  0
 25 46  1  0  0  0  0
 25 47  1  0  0  0  0
 26 28  1  0  0  0  0
 26 33  1  0  0  0  0
 26 51  1  0  0  0  0
 27 29  2  0  0  0  0
 27 30  1  0  0  0  0
 28 31  2  0  0  0  0
 28 32  1  0  0  0  0
 29 31  1  0  0  0  0
 29 57  1  0  0  0  0
 30 32  2  0  0  0  0
 30 58  1  0  0  0  0
 31 59  1  0  0  0  0
 32 60  1  0  0  0  0
M  END
> <PUBCHEM_COMPOUND_CID>
656521

> <PUBCHEM_COMPOUND_CANONICALIZED>
1

> <PUBCHEM_CACTVS_COMPLEXITY>
667

> <PUBCHEM_CACTVS_HBOND_ACCEPTOR>
13

> <PUBCHEM_CACTVS_HBOND_DONOR>
8

> <PUBCHEM_CACTVS_ROTATABLE_BOND>
7

> <PUBCHEM_CACTVS_SUBSKEYS>
AAADceB6PAAAAAAAAAAAAAAAAAAAAAAAAAA0SIAAAAAAAAABAAAAHgAACAAADBSxmAMwDoAABgCQBiBCAAACCAAgIAAIiAAGCIgdtiKEMRqieCClwBEPqA/A4KwOIAAAAAAAAABAAAAAAAAAAAAAAAAAAA==

> <PUBCHEM_IUPAC_OPENEYE_NAME>
(2S)-2-[(2S,3R,4S,5S,6R)-3,4,5-trihydroxy-6-(hydroxymethyl)tetrahydropyran-2-yl]oxy-2-[4-[(2S,3R,4S,5S,6R)-3,4,5-trihydroxy-6-(hydroxymethyl)tetrahydropyran-2-yl]oxyphenyl]acetonitrile

> <PUBCHEM_IUPAC_CAS_NAME>
(2S)-2-[[(2S,3R,4S,5S,6R)-3,4,5-trihydroxy-6-(hydroxymethyl)-2-oxanyl]oxy]-2-[4-[[(2S,3R,4S,5S,6R)-3,4,5-trihydroxy-6-(hydroxymethyl)-2-oxanyl]oxy]phenyl]acetonitrile

> <PUBCHEM_IUPAC_NAME>
(2S)-2-[(2S,3R,4S,5S,6R)-3,4,5-trihydroxy-6-(hydroxymethyl)oxan-2-yl]oxy-2-[4-[(2S,3R,4S,5S,6R)-3,4,5-trihydroxy-6-(hydroxymethyl)oxan-2-yl]oxyphenyl]acetonitrile

> <PUBCHEM_IUPAC_SYSTEMATIC_NAME>
(2S)-2-[(2S,3R,4S,5S,6R)-6-(hydroxymethyl)-3,4,5-tris(oxidanyl)oxan-2-yl]oxy-2-[4-[(2S,3R,4S,5S,6R)-6-(hydroxymethyl)-3,4,5-tris(oxidanyl)oxan-2-yl]oxyphenyl]ethanenitrile

> <PUBCHEM_IUPAC_TRADITIONAL_NAME>
(2S)-2-[(2S,3R,4S,5S,6R)-3,4,5-trihydroxy-6-methylol-tetrahydropyran-2-yl]oxy-2-[4-[(2S,3R,4S,5S,6R)-3,4,5-trihydroxy-6-methylol-tetrahydropyran-2-yl]oxyphenyl]acetonitrile

> <PUBCHEM_IUPAC_INCHI>
InChI=1S/C20H27NO12/c21-5-10(31-20-18(29)16(27)14(25)12(7-23)33-20)8-1-3-9(4-2-8)30-19-17(28)15(26)13(24)11(6-22)32-19/h1-4,10-20,22-29H,6-7H2/t10-,11-,12-,13-,14-,15+,16+,17-,18-,19-,20-/m1/s1

> <PUBCHEM_IUPAC_INCHIKEY>
RJPLGQRRNXUSQI-UUGBRMIUSA-N

> <PUBCHEM_XLOGP3_AA>
-2.7

> <PUBCHEM_EXACT_MASS>
473.153325

> <PUBCHEM_MOLECULAR_FORMULA>
C20H27NO12

> <PUBCHEM_MOLECULAR_WEIGHT>
473.42788

> <PUBCHEM_OPENEYE_CAN_SMILES>
C1=CC(=CC=C1C(C#N)OC2C(C(C(C(O2)CO)O)O)O)OC3C(C(C(C(O3)CO)O)O)O

> <PUBCHEM_OPENEYE_ISO_SMILES>
C1=CC(=CC=C1[C@@H](C#N)O[C@H]2[C@@H]([C@H]([C@@H]([C@H](O2)CO)O)O)O)O[C@H]3[C@@H]([C@H]([C@@H]([C@H](O3)CO)O)O)O

> <PUBCHEM_CACTVS_TPSA>
223

> <PUBCHEM_MONOISOTOPIC_WEIGHT>
473.153325

> <PUBCHEM_TOTAL_CHARGE>
0

> <PUBCHEM_HEAVY_ATOM_COUNT>
33

> <PUBCHEM_ATOM_DEF_STEREO_COUNT>
11

> <PUBCHEM_ATOM_UDEF_STEREO_COUNT>
0

> <PUBCHEM_BOND_DEF_STEREO_COUNT>
0

> <PUBCHEM_BOND_UDEF_STEREO_COUNT>
0

> <PUBCHEM_ISOTOPIC_ATOM_COUNT>
0

> <PUBCHEM_COMPONENT_COUNT>
1

> <PUBCHEM_CACTVS_TAUTO_COUNT>
1

> <PUBCHEM_COORDINATE_TYPE>
1
5
255

> <PUBCHEM_BONDANNOTATIONS>
20  10  5
17  24  5
21  25  6
27  29  8
27  30  8
28  31  8
28  32  8
29  31  8
22  3  5
26  3  6
30  32  8
14  4  5
23  5  6
15  6  6
16  7  6
18  8  6
19  9  5

$$$$

