442693
  -OEChem-07051212592D

 35 38  0     0  0  0  0  0  0999 V2000
    2.0123   -0.4018    0.0000 O   0  0  0  0  0  0  0  0  0  0  0  0
    2.0074    2.5835    0.0000 O   0  0  0  0  0  0  0  0  0  0  0  0
    3.7095   -3.4007    0.0000 O   0  0  0  0  0  0  0  0  0  0  0  0
    3.7095    3.5972    0.0000 O   0  0  0  0  0  0  0  0  0  0  0  0
    3.7444    0.5982    0.0000 C   0  0  0  0  0  0  0  0  0  0  0  0
    3.7444   -0.4018    0.0000 C   0  0  0  0  0  0  0  0  0  0  0  0
    2.8784    1.0982    0.0000 C   0  0  0  0  0  0  0  0  0  0  0  0
    4.6383    1.1329    0.0000 C   0  0  0  0  0  0  0  0  0  0  0  0
    4.6383   -0.9364    0.0000 C   0  0  0  0  0  0  0  0  0  0  0  0
    2.8784   -0.9018    0.0000 C   0  0  0  0  0  0  0  0  0  0  0  0
    2.0123    0.5982    0.0000 C   0  0  0  0  0  0  0  0  0  0  0  0
    2.8771    2.0899    0.0000 C   0  0  0  0  0  0  0  0  0  0  0  0
    5.5444    0.6190    0.0000 C   0  0  0  0  0  0  0  0  0  0  0  0
    5.5444   -0.4226    0.0000 C   0  0  0  0  0  0  0  0  0  0  0  0
    4.6005    2.1239    0.0000 C   0  0  0  0  0  0  0  0  0  0  0  0
    3.7292    2.5974    0.0000 C   0  0  0  0  0  0  0  0  0  0  0  0
    4.6005   -1.9274    0.0000 C   0  0  0  0  0  0  0  0  0  0  0  0
    2.8771   -1.8935    0.0000 C   0  0  0  0  0  0  0  0  0  0  0  0
    3.7292   -2.4009    0.0000 C   0  0  0  0  0  0  0  0  0  0  0  0
    2.0000    3.5835    0.0000 C   0  0  0  0  0  0  0  0  0  0  0  0
    4.5655   -3.9177    0.0000 C   0  0  0  0  0  0  0  0  0  0  0  0
    1.8003    1.1808    0.0000 H   0  0  0  0  0  0  0  0  0  0  0  0
    1.4017    0.4906    0.0000 H   0  0  0  0  0  0  0  0  0  0  0  0
    6.0801    0.9311    0.0000 H   0  0  0  0  0  0  0  0  0  0  0  0
    6.0801   -0.7347    0.0000 H   0  0  0  0  0  0  0  0  0  0  0  0
    5.1273    2.4509    0.0000 H   0  0  0  0  0  0  0  0  0  0  0  0
    5.1273   -2.2544    0.0000 H   0  0  0  0  0  0  0  0  0  0  0  0
    2.3379   -2.1995    0.0000 H   0  0  0  0  0  0  0  0  0  0  0  0
    4.2402    3.9177    0.0000 H   0  0  0  0  0  0  0  0  0  0  0  0
    2.6200    3.5881    0.0000 H   0  0  0  0  0  0  0  0  0  0  0  0
    1.9954    4.2035    0.0000 H   0  0  0  0  0  0  0  0  0  0  0  0
    1.3800    3.5789    0.0000 H   0  0  0  0  0  0  0  0  0  0  0  0
    4.2450   -4.4484    0.0000 H   0  0  0  0  0  0  0  0  0  0  0  0
    5.0962   -4.2382    0.0000 H   0  0  0  0  0  0  0  0  0  0  0  0
    4.8860   -3.3870    0.0000 H   0  0  0  0  0  0  0  0  0  0  0  0
  1 10  1  0  0  0  0
  1 11  1  0  0  0  0
  2 12  1  0  0  0  0
  2 20  1  0  0  0  0
  3 19  1  0  0  0  0
  3 21  1  0  0  0  0
  4 16  1  0  0  0  0
  4 29  1  0  0  0  0
  5  6  1  0  0  0  0
  5  7  2  0  0  0  0
  5  8  1  0  0  0  0
  6  9  1  0  0  0  0
  6 10  2  0  0  0  0
  7 11  1  0  0  0  0
  7 12  1  0  0  0  0
  8 13  1  0  0  0  0
  8 15  2  0  0  0  0
  9 14  1  0  0  0  0
  9 17  2  0  0  0  0
 10 18  1  0  0  0  0
 11 22  1  0  0  0  0
 11 23  1  0  0  0  0
 12 16  2  0  0  0  0
 13 14  2  0  0  0  0
 13 24  1  0  0  0  0
 14 25  1  0  0  0  0
 15 16  1  0  0  0  0
 15 26  1  0  0  0  0
 17 19  1  0  0  0  0
 17 27  1  0  0  0  0
 18 19  2  0  0  0  0
 18 28  1  0  0  0  0
 20 30  1  0  0  0  0
 20 31  1  0  0  0  0
 20 32  1  0  0  0  0
 21 33  1  0  0  0  0
 21 34  1  0  0  0  0
 21 35  1  0  0  0  0
M  END
> <PUBCHEM_COMPOUND_CID>
442693

> <PUBCHEM_COMPOUND_CANONICALIZED>
1

> <PUBCHEM_CACTVS_COMPLEXITY>
387

> <PUBCHEM_CACTVS_HBOND_ACCEPTOR>
4

> <PUBCHEM_CACTVS_HBOND_DONOR>
1

> <PUBCHEM_CACTVS_ROTATABLE_BOND>
2

> <PUBCHEM_CACTVS_SUBSKEYS>
AAADccB4OAAAAAAAAAAAAAAAAAAAAAAAAAA0YMEAAAAAAADRVAAAGgAACAAADASgmAIyBsAABgCAAiBCAAACCAAgIAAIiAAGiIgNJyKGMRqCeCOlwBULuAfA4PwO4AADCAAYQADAAAYQADCAAAAAAAAAAA==

> <PUBCHEM_IUPAC_INCHI>
InChI=1S/C17H14O4/c1-19-11-5-9-3-4-10-6-13(18)17(20-2)12-8-21-14(7-11)16(9)15(10)12/h3-7,18H,8H2,1-2H3

> <PUBCHEM_IUPAC_INCHIKEY>
JUXGBQIIXCBKIW-UHFFFAOYSA-N

> <PUBCHEM_XLOGP3_AA>
3.6

> <PUBCHEM_EXACT_MASS>
282.089209

> <PUBCHEM_MOLECULAR_FORMULA>
C17H14O4

> <PUBCHEM_MOLECULAR_WEIGHT>
282.29066

> <PUBCHEM_OPENEYE_CAN_SMILES>
COC1=CC2=C3C(=C1)C=CC4=CC(=C(C(=C43)CO2)OC)O

> <PUBCHEM_OPENEYE_ISO_SMILES>
COC1=CC2=C3C(=C1)C=CC4=CC(=C(C(=C43)CO2)OC)O

> <PUBCHEM_CACTVS_TPSA>
47.9

> <PUBCHEM_MONOISOTOPIC_WEIGHT>
282.089209

> <PUBCHEM_TOTAL_CHARGE>
0

> <PUBCHEM_HEAVY_ATOM_COUNT>
21

> <PUBCHEM_ATOM_DEF_STEREO_COUNT>
0

> <PUBCHEM_ATOM_UDEF_STEREO_COUNT>
0

> <PUBCHEM_BOND_DEF_STEREO_COUNT>
0

> <PUBCHEM_BOND_UDEF_STEREO_COUNT>
0

> <PUBCHEM_ISOTOPIC_ATOM_COUNT>
0

> <PUBCHEM_COMPONENT_COUNT>
1

> <PUBCHEM_CACTVS_TAUTO_COUNT>
3

> <PUBCHEM_COORDINATE_TYPE>
1
5
255

> <PUBCHEM_BONDANNOTATIONS>
10  18  8
12  16  8
13  14  8
15  16  8
17  19  8
18  19  8
5  6  8
5  7  8
5  8  8
6  10  8
6  9  8
7  12  8
8  13  8
8  15  8
9  14  8
9  17  8

$$$$

