5281330
  -OEChem-07051212563D

 78 81  0     1  0  0  0  0  0999 V2000
    8.5225   -0.0736    0.3967 O   0  0  0  0  0  0  0  0  0  0  0  0
   -0.1835    0.4595   -0.1982 C   0  0  1  0  0  0  0  0  0  0  0  0
    0.5703   -0.8309    0.1805 C   0  0  2  0  0  0  0  0  0  0  0  0
    2.0215   -0.8509   -0.3100 C   0  0  1  0  0  0  0  0  0  0  0  0
    2.7843    0.3739    0.2741 C   0  0  1  0  0  0  0  0  0  0  0  0
   -1.5765    0.1121    0.3814 C   0  0  2  0  0  0  0  0  0  0  0  0
    0.5279    1.6295    0.4956 C   0  0  0  0  0  0  0  0  0  0  0  0
    4.2807    0.4201   -0.2352 C   0  0  2  0  0  0  0  0  0  0  0  0
   -0.3717   -1.9453   -0.2649 C   0  0  0  0  0  0  0  0  0  0  0  0
    2.0098    1.7080    0.0893 C   0  0  0  0  0  0  0  0  0  0  0  0
   -1.7780   -1.3699   -0.0139 C   0  0  0  0  0  0  0  0  0  0  0  0
    2.7183   -2.1551    0.1058 C   0  0  0  0  0  0  0  0  0  0  0  0
   -0.2619    0.7193   -1.7232 C   0  0  0  0  0  0  0  0  0  0  0  0
    4.9226   -0.9730   -0.1705 C   0  0  0  0  0  0  0  0  0  0  0  0
   -2.7339    1.0021   -0.0481 C   0  0  2  0  0  0  0  0  0  0  0  0
    5.0790    1.3924    0.6839 C   0  0  0  0  0  0  0  0  0  0  0  0
    4.2083   -2.0996   -0.0044 C   0  0  0  0  0  0  0  0  0  0  0  0
    4.3620    0.9161   -1.6990 C   0  0  0  0  0  0  0  0  0  0  0  0
    6.4271   -1.0459   -0.2947 C   0  0  0  0  0  0  0  0  0  0  0  0
    6.5940    1.3395    0.4917 C   0  0  0  0  0  0  0  0  0  0  0  0
    7.1232   -0.0802    0.6605 C   0  0  2  0  0  0  0  0  0  0  0  0
   -2.4830    2.4548    0.3625 C   0  0  0  0  0  0  0  0  0  0  0  0
   -4.0271    0.5108    0.5559 C   0  0  0  0  0  0  0  0  0  0  0  0
   -5.0828    0.1057   -0.1672 C   0  0  0  0  0  0  0  0  0  0  0  0
   -6.3824   -0.3815    0.4403 C   0  0  1  0  0  0  0  0  0  0  0  0
   -7.5953    0.5189    0.0616 C   0  0  0  0  0  0  0  0  0  0  0  0
   -6.5610   -1.8714    0.0730 C   0  0  0  0  0  0  0  0  0  0  0  0
   -7.8787    0.5913   -1.4423 C   0  0  0  0  0  0  0  0  0  0  0  0
   -7.4429    1.9388    0.6248 C   0  0  0  0  0  0  0  0  0  0  0  0
   -7.7927   -2.5155    0.6940 C   0  0  0  0  0  0  0  0  0  0  0  0
    0.6125   -0.8923    1.2814 H   0  0  0  0  0  0  0  0  0  0  0  0
    2.0350   -0.8032   -1.4047 H   0  0  0  0  0  0  0  0  0  0  0  0
    2.8229    0.2102    1.3636 H   0  0  0  0  0  0  0  0  0  0  0  0
   -1.5075    0.1418    1.4807 H   0  0  0  0  0  0  0  0  0  0  0  0
    0.4674    1.5194    1.5859 H   0  0  0  0  0  0  0  0  0  0  0  0
    0.0849    2.5962    0.2534 H   0  0  0  0  0  0  0  0  0  0  0  0
   -0.2122   -2.8679    0.3025 H   0  0  0  0  0  0  0  0  0  0  0  0
   -0.2397   -2.1819   -1.3266 H   0  0  0  0  0  0  0  0  0  0  0  0
    2.0625    2.0417   -0.9512 H   0  0  0  0  0  0  0  0  0  0  0  0
    2.4832    2.4947    0.6875 H   0  0  0  0  0  0  0  0  0  0  0  0
   -2.3831   -1.4819   -0.9209 H   0  0  0  0  0  0  0  0  0  0  0  0
   -2.2835   -1.9190    0.7886 H   0  0  0  0  0  0  0  0  0  0  0  0
    2.3494   -2.9740   -0.5235 H   0  0  0  0  0  0  0  0  0  0  0  0
    2.4673   -2.4144    1.1419 H   0  0  0  0  0  0  0  0  0  0  0  0
    0.7235    0.7479   -2.1960 H   0  0  0  0  0  0  0  0  0  0  0  0
   -0.8376   -0.0494   -2.2487 H   0  0  0  0  0  0  0  0  0  0  0  0
   -0.7343    1.6828   -1.9396 H   0  0  0  0  0  0  0  0  0  0  0  0
   -2.8411    0.9807   -1.1400 H   0  0  0  0  0  0  0  0  0  0  0  0
    4.8659    1.1605    1.7364 H   0  0  0  0  0  0  0  0  0  0  0  0
    4.7499    2.4260    0.5235 H   0  0  0  0  0  0  0  0  0  0  0  0
    4.7219   -3.0563    0.0552 H   0  0  0  0  0  0  0  0  0  0  0  0
    5.3787    0.8592   -2.1023 H   0  0  0  0  0  0  0  0  0  0  0  0
    3.7255    0.3242   -2.3647 H   0  0  0  0  0  0  0  0  0  0  0  0
    4.0593    1.9644   -1.7884 H   0  0  0  0  0  0  0  0  0  0  0  0
    6.8012   -2.0600   -0.1032 H   0  0  0  0  0  0  0  0  0  0  0  0
    6.7201   -0.8297   -1.3298 H   0  0  0  0  0  0  0  0  0  0  0  0
    6.8700    1.7362   -0.4931 H   0  0  0  0  0  0  0  0  0  0  0  0
    7.0830    2.0012    1.2174 H   0  0  0  0  0  0  0  0  0  0  0  0
    6.9837   -0.4098    1.6967 H   0  0  0  0  0  0  0  0  0  0  0  0
   -1.8296    2.9663   -0.3475 H   0  0  0  0  0  0  0  0  0  0  0  0
   -3.4206    3.0252    0.3546 H   0  0  0  0  0  0  0  0  0  0  0  0
   -2.0691    2.5366    1.3731 H   0  0  0  0  0  0  0  0  0  0  0  0
   -4.0920    0.5025    1.6418 H   0  0  0  0  0  0  0  0  0  0  0  0
   -5.0109    0.1085   -1.2521 H   0  0  0  0  0  0  0  0  0  0  0  0
    8.6547    0.2097   -0.5241 H   0  0  0  0  0  0  0  0  0  0  0  0
   -6.2906   -0.3410    1.5356 H   0  0  0  0  0  0  0  0  0  0  0  0
   -8.4890    0.1010    0.5413 H   0  0  0  0  0  0  0  0  0  0  0  0
   -6.5989   -2.0030   -1.0152 H   0  0  0  0  0  0  0  0  0  0  0  0
   -5.6795   -2.4297    0.4162 H   0  0  0  0  0  0  0  0  0  0  0  0
   -8.0476   -0.4030   -1.8659 H   0  0  0  0  0  0  0  0  0  0  0  0
   -7.0593    1.0654   -1.9914 H   0  0  0  0  0  0  0  0  0  0  0  0
   -8.7828    1.1809   -1.6311 H   0  0  0  0  0  0  0  0  0  0  0  0
   -6.6158    2.4778    0.1513 H   0  0  0  0  0  0  0  0  0  0  0  0
   -7.2612    1.9122    1.7044 H   0  0  0  0  0  0  0  0  0  0  0  0
   -8.3568    2.5192    0.4567 H   0  0  0  0  0  0  0  0  0  0  0  0
   -7.8186   -2.3552    1.7763 H   0  0  0  0  0  0  0  0  0  0  0  0
   -8.7158   -2.1219    0.2592 H   0  0  0  0  0  0  0  0  0  0  0  0
   -7.7810   -3.5952    0.5125 H   0  0  0  0  0  0  0  0  0  0  0  0
  1 21  1  0  0  0  0
  1 65  1  0  0  0  0
  2  3  1  0  0  0  0
  2  6  1  0  0  0  0
  2  7  1  0  0  0  0
  2 13  1  0  0  0  0
  3  4  1  0  0  0  0
  3  9  1  0  0  0  0
  3 31  1  0  0  0  0
  4  5  1  0  0  0  0
  4 12  1  0  0  0  0
  4 32  1  0  0  0  0
  5  8  1  0  0  0  0
  5 10  1  0  0  0  0
  5 33  1  0  0  0  0
  6 11  1  0  0  0  0
  6 15  1  0  0  0  0
  6 34  1  0  0  0  0
  7 10  1  0  0  0  0
  7 35  1  0  0  0  0
  7 36  1  0  0  0  0
  8 14  1  0  0  0  0
  8 16  1  0  0  0  0
  8 18  1  0  0  0  0
  9 11  1  0  0  0  0
  9 37  1  0  0  0  0
  9 38  1  0  0  0  0
 10 39  1  0  0  0  0
 10 40  1  0  0  0  0
 11 41  1  0  0  0  0
 11 42  1  0  0  0  0
 12 17  1  0  0  0  0
 12 43  1  0  0  0  0
 12 44  1  0  0  0  0
 13 45  1  0  0  0  0
 13 46  1  0  0  0  0
 13 47  1  0  0  0  0
 14 17  2  0  0  0  0
 14 19  1  0  0  0  0
 15 22  1  0  0  0  0
 15 23  1  0  0  0  0
 15 48  1  0  0  0  0
 16 20  1  0  0  0  0
 16 49  1  0  0  0  0
 16 50  1  0  0  0  0
 17 51  1  0  0  0  0
 18 52  1  0  0  0  0
 18 53  1  0  0  0  0
 18 54  1  0  0  0  0
 19 21  1  0  0  0  0
 19 55  1  0  0  0  0
 19 56  1  0  0  0  0
 20 21  1  0  0  0  0
 20 57  1  0  0  0  0
 20 58  1  0  0  0  0
 21 59  1  0  0  0  0
 22 60  1  0  0  0  0
 22 61  1  0  0  0  0
 22 62  1  0  0  0  0
 23 24  2  0  0  0  0
 23 63  1  0  0  0  0
 24 25  1  0  0  0  0
 24 64  1  0  0  0  0
 25 26  1  0  0  0  0
 25 27  1  0  0  0  0
 25 66  1  0  0  0  0
 26 28  1  0  0  0  0
 26 29  1  0  0  0  0
 26 67  1  0  0  0  0
 27 30  1  0  0  0  0
 27 68  1  0  0  0  0
 27 69  1  0  0  0  0
 28 70  1  0  0  0  0
 28 71  1  0  0  0  0
 28 72  1  0  0  0  0
 29 73  1  0  0  0  0
 29 74  1  0  0  0  0
 29 75  1  0  0  0  0
 30 76  1  0  0  0  0
 30 77  1  0  0  0  0
 30 78  1  0  0  0  0
M  END
> <PUBCHEM_COMPOUND_CID>
5281330

> <PUBCHEM_CONFORMER_RMSD>
0.8

> <PUBCHEM_CONFORMER_DIVERSEORDER>
1
21
13
7
19
15
2
11
16
6
8
22
9
18
17
3
20
23
12
5
4
14
10

> <PUBCHEM_MMFF94_PARTIAL_CHARGES>
15
1 -0.68
12 0.14
14 -0.28
15 0.14
17 -0.29
19 0.14
21 0.28
23 -0.29
24 -0.29
25 0.14
51 0.15
63 0.15
64 0.15
65 0.4
8 0.14

> <PUBCHEM_EFFECTIVE_ROTOR_COUNT>
7

> <PUBCHEM_PHARMACOPHORE_FEATURES>
10
1 1 acceptor
1 1 donor
1 22 hydrophobe
1 30 hydrophobe
3 26 28 29 hydrophobe
4 24 25 26 27 hydrophobe
5 2 3 6 9 11 rings
6 2 3 4 5 7 10 rings
6 4 5 8 12 14 17 rings
6 8 14 16 19 20 21 rings

> <PUBCHEM_HEAVY_ATOM_COUNT>
30

> <PUBCHEM_ATOM_DEF_STEREO_COUNT>
9

> <PUBCHEM_ATOM_UDEF_STEREO_COUNT>
0

> <PUBCHEM_BOND_DEF_STEREO_COUNT>
1

> <PUBCHEM_BOND_UDEF_STEREO_COUNT>
0

> <PUBCHEM_ISOTOPIC_ATOM_COUNT>
0

> <PUBCHEM_COMPONENT_COUNT>
1

> <PUBCHEM_CACTVS_TAUTO_COUNT>
1

> <PUBCHEM_CONFORMER_ID>
0050963200000001

> <PUBCHEM_MMFF94_ENERGY>
83.7018

> <PUBCHEM_FEATURE_SELFOVERLAP>
51.109

> <PUBCHEM_SHAPE_FINGERPRINT>
10 15 18343305843291820096
10050765 1 18121216751589587441
11135926 11 18341615945528204887
11315181 36 17675925413968124705
11578080 2 16662352589080186522
11719270 70 18410294722146844634
11724838 91 18343021077921832342
11963148 33 18411987948895872451
12166972 35 18059570257510246349
12236239 1 17894631470133806273
12516196 113 18408602561093168193
12838862 33 18337406988677244072
13811026 1 18413389822336775787
14251764 18 17967813851191586264
14394314 77 18410853296398691865
14849402 71 18041276556913755873
14856354 85 15213023726725114645
15183329 4 15285357315013037893
15439362 3 18050289164097253032
15840311 113 18059570258206494364
15849732 13 18411700976317617063
18335252 98 18408881820062322707
18608769 82 18409169878907068699
19841028 212 18129947900749735554
21130935 74 18334853952421170251
21150785 3 15864072065657594841
21267235 1 18335134315486166926
21792934 111 18336276737926423904
22149856 69 18188194486043352635
22224240 67 18342460331196820474
23522609 53 18122029153592668465
23559900 14 18410859824822906265
23569917 315 18341324557287791330
24771293 8 18412258437097781189
3178227 256 18261382318253316443
335352 9 18408319991638067588
34797466 226 17022616469109362172
350125 39 18408323302504373905
4073 2 18201712939016407179
4325135 7 18408887347199357837
4340502 62 18411419514436999414
5104073 3 18267860764716857392
6009941 240 17847057766521285251
99344 41 18410292536409177227

> <PUBCHEM_SHAPE_MULTIPOLES>
611.52
24.09
2.33
1
17.76
0.53
-0.38
1.61
2.13
1.61
0.31
0.15
-0.24
0.5

> <PUBCHEM_SHAPE_SELFOVERLAP>
1265.578

> <PUBCHEM_SHAPE_VOLUME>
349.9

> <PUBCHEM_COORDINATE_TYPE>
2
5
10

$$$$

