4403
  -OEChem-06261200063D

 40 42  0     1  0  0  0  0  0999 V2000
    4.6028   -1.8993    0.3688 P   0  0  0  0  0  0  0  0  0  0  0  0
    0.9764    0.4598    0.5657 O   0  0  0  0  0  0  0  0  0  0  0  0
    0.1243    3.8934    0.0187 O   0  0  0  0  0  0  0  0  0  0  0  0
    2.1287    2.6785   -2.0082 O   0  0  0  0  0  0  0  0  0  0  0  0
    3.2313   -1.1255   -0.0051 O   0  0  0  0  0  0  0  0  0  0  0  0
    5.1388   -1.1190    1.6800 O   0  0  0  0  0  0  0  0  0  0  0  0
    5.6178   -1.4149   -0.7930 O   0  0  0  0  0  0  0  0  0  0  0  0
    4.4718   -3.3870    0.5163 O   0  0  0  0  0  0  0  0  0  0  0  0
   -1.3016    1.0685    0.7698 N   0  0  0  0  0  0  0  0  0  0  0  0
   -3.4579    0.9259    1.3220 N   0  0  0  0  0  0  0  0  0  0  0  0
   -1.1422   -0.8048   -0.7687 N   0  0  0  0  0  0  0  0  0  0  0  0
   -3.2890   -1.9402   -1.0100 N   0  0  0  0  0  0  0  0  0  0  0  0
   -5.2550   -1.2321    0.1565 N   0  0  0  0  0  0  0  0  0  0  0  0
    0.3427    2.5537   -0.3879 C   0  0  1  0  0  0  0  0  0  0  0  0
    1.8020    2.2863   -0.6886 C   0  0  1  0  0  0  0  0  0  0  0  0
    0.0719    1.5673    0.7425 C   0  0  2  0  0  0  0  0  0  0  0  0
    1.8788    0.7786   -0.5077 C   0  0  1  0  0  0  0  0  0  0  0  0
    3.2717    0.2834   -0.1620 C   0  0  0  0  0  0  0  0  0  0  0  0
   -1.8013    0.0024    0.0761 C   0  0  0  0  0  0  0  0  0  0  0  0
   -2.3351    1.5893    1.5038 C   0  0  0  0  0  0  0  0  0  0  0  0
   -3.1386   -0.0686    0.4319 C   0  0  0  0  0  0  0  0  0  0  0  0
   -3.8902   -1.0866   -0.1464 C   0  0  0  0  0  0  0  0  0  0  0  0
   -1.9718   -1.7491   -1.2637 C   0  0  0  0  0  0  0  0  0  0  0  0
   -6.0762   -2.2601   -0.4107 C   0  0  0  0  0  0  0  0  0  0  0  0
   -0.2823    2.3640   -1.2693 H   0  0  0  0  0  0  0  0  0  0  0  0
    2.4527    2.8278    0.0077 H   0  0  0  0  0  0  0  0  0  0  0  0
    0.2692    2.0058    1.7283 H   0  0  0  0  0  0  0  0  0  0  0  0
    1.5201    0.2478   -1.3987 H   0  0  0  0  0  0  0  0  0  0  0  0
    3.6070    0.7287    0.7804 H   0  0  0  0  0  0  0  0  0  0  0  0
    3.9771    0.5472   -0.9559 H   0  0  0  0  0  0  0  0  0  0  0  0
   -0.8101    3.9719    0.2759 H   0  0  0  0  0  0  0  0  0  0  0  0
    1.5574    2.1895   -2.6244 H   0  0  0  0  0  0  0  0  0  0  0  0
   -2.2106    2.4491    2.1480 H   0  0  0  0  0  0  0  0  0  0  0  0
   -1.5232   -2.4504   -1.9592 H   0  0  0  0  0  0  0  0  0  0  0  0
   -5.6666   -0.5723    0.8067 H   0  0  0  0  0  0  0  0  0  0  0  0
    5.9384   -1.4549    2.1382 H   0  0  0  0  0  0  0  0  0  0  0  0
    6.5092   -1.8209   -0.8440 H   0  0  0  0  0  0  0  0  0  0  0  0
   -6.1182   -2.1744   -1.5013 H   0  0  0  0  0  0  0  0  0  0  0  0
   -7.0979   -2.1735   -0.0283 H   0  0  0  0  0  0  0  0  0  0  0  0
   -5.7024   -3.2544   -0.1457 H   0  0  0  0  0  0  0  0  0  0  0  0
  1  5  1  0  0  0  0
  1  6  1  0  0  0  0
  1  7  1  0  0  0  0
  1  8  2  0  0  0  0
  2 16  1  0  0  0  0
  2 17  1  0  0  0  0
  3 14  1  0  0  0  0
  3 31  1  0  0  0  0
  4 15  1  0  0  0  0
  4 32  1  0  0  0  0
  5 18  1  0  0  0  0
  6 36  1  0  0  0  0
  7 37  1  0  0  0  0
  9 16  1  0  0  0  0
  9 19  1  0  0  0  0
  9 20  1  0  0  0  0
 10 20  2  0  0  0  0
 10 21  1  0  0  0  0
 11 19  2  0  0  0  0
 11 23  1  0  0  0  0
 12 22  1  0  0  0  0
 12 23  2  0  0  0  0
 13 22  1  0  0  0  0
 13 24  1  0  0  0  0
 13 35  1  0  0  0  0
 14 15  1  0  0  0  0
 14 16  1  0  0  0  0
 14 25  1  0  0  0  0
 15 17  1  0  0  0  0
 15 26  1  0  0  0  0
 16 27  1  0  0  0  0
 17 18  1  0  0  0  0
 17 28  1  0  0  0  0
 18 29  1  0  0  0  0
 18 30  1  0  0  0  0
 19 21  1  0  0  0  0
 20 33  1  0  0  0  0
 21 22  2  0  0  0  0
 23 34  1  0  0  0  0
 24 38  1  0  0  0  0
 24 39  1  0  0  0  0
 24 40  1  0  0  0  0
M  END
> <PUBCHEM_COMPOUND_CID>
4403

> <PUBCHEM_CONFORMER_RMSD>
0.8

> <PUBCHEM_CONFORMER_DIVERSEORDER>
3
214
317
105
318
47
267
82
103
310
305
179
206
245
249
137
327
315
55
79
302
252
52
63
181
53
324
193
189
292
243
216
14
78
43
196
211
90
165
203
31
56
172
221
22
59
155
287
119
17
60
131
138
167
205
99
307
213
312
150
9
110
296
280
64
122
170
80
98
149
259
291
40
314
102
132
33
32
301
235
219
97
231
275
113
30
114
265
83
236
238
183
160
139
268
136
283
175
204
74
62
25
106
229
311
254
269
309
147
77
319
151
81
70
316
120
262
128
20
158
300
108
116
159
209
100
45
161
66
148
264
273
130
297
38
49
207
253
223
26
168
11
89
153
186
76
174
146
23
8
117
289
36
258
13
234
246
237
184
67
227
115
178
220
271
2
10
272
208
145
125
50
87
192
107
293
19
241
279
27
72
194
298
140
21
129
195
176
244
101
143
85
270
75
86
4
6
201
282
118
28
233
180
12
127
294
197
95
35
156
7
303
177
239
34
42
24
187
263
112
166
281
68
15
123
251
57
111
322
5
278
141
93
91
217
84
126
313
256
65
71
295
164
190
200
162
18
225
191
286
247
185
152
248
323
96
134
277
202
69
144
320
325
304
124
41
51
88
94
1
39
285
232
212
228
133
182
54
142
266
257
224
240
104
92
157
261
169
171
326
16
121
306
230
198
135
173
46
48
73
260
210
188
288
250
255
37
218
226
274
242
284
58
276
61
290
199
29
44
321
109
222
163
215
154
308
299

> <PUBCHEM_MMFF94_PARTIAL_CHARGES>
31
1 1.51
10 -0.57
11 -0.57
12 -0.62
13 -0.87
14 0.28
15 0.28
16 0.54
17 0.28
18 0.28
19 0.11
2 -0.56
20 0.04
21 0.23
22 0.41
23 0.47
24 0.37
3 -0.68
31 0.4
32 0.4
33 0.15
34 0.15
35 0.4
36 0.5
37 0.5
4 -0.68
5 -0.55
6 -0.77
7 -0.77
8 -0.7
9 0.05

> <PUBCHEM_EFFECTIVE_ROTOR_COUNT>
6

> <PUBCHEM_PHARMACOPHORE_FEATURES>
17
1 13 cation
1 13 donor
1 2 acceptor
1 3 acceptor
1 3 donor
1 4 acceptor
1 4 donor
1 6 acceptor
1 7 acceptor
1 8 acceptor
3 11 12 23 cation
3 9 10 20 cation
3 9 11 19 cation
4 1 6 7 8 anion
5 2 14 15 16 17 rings
5 9 10 19 20 21 rings
6 11 12 19 21 22 23 rings

> <PUBCHEM_HEAVY_ATOM_COUNT>
24

> <PUBCHEM_ATOM_DEF_STEREO_COUNT>
0

> <PUBCHEM_ATOM_UDEF_STEREO_COUNT>
4

> <PUBCHEM_BOND_DEF_STEREO_COUNT>
0

> <PUBCHEM_BOND_UDEF_STEREO_COUNT>
0

> <PUBCHEM_ISOTOPIC_ATOM_COUNT>
0

> <PUBCHEM_COMPONENT_COUNT>
1

> <PUBCHEM_CACTVS_TAUTO_COUNT>
3

> <PUBCHEM_CONFORMER_ID>
0000113300000003

> <PUBCHEM_MMFF94_ENERGY>
21.047

> <PUBCHEM_FEATURE_SELFOVERLAP>
86.907

> <PUBCHEM_SHAPE_FINGERPRINT>
11265709 11 18410013238943572652
11578080 2 18264510453924641688
11582403 64 15579790276264461688
12107183 9 18335973264549320233
12553582 1 18342453785851342386
12633257 1 17240758536213792552
12788726 201 17678718086896610553
13009979 54 18187915188261821216
13083527 12 18413396423733470036
13533116 47 18263082132547745979
13955234 65 18048595915704356569
14178342 30 17749935791168000545
14251757 17 14620785003821690614
15042514 8 18263924513189690873
15537594 2 18268697485024539282
15842332 3 18192124093124859449
1813 80 18201723976849988896
18222031 100 18412544323348133370
19141452 34 18191583266568715048
19784866 240 18411135827367417495
20291156 8 18411139160356997614
20600515 1 17096072714425356281
20642791 105 18187078503801896673
235170 7 15123213486374727706
23559900 14 18268716022003025707
25147074 1 18263625338616077001
3004659 81 18336541629702062687
34797466 226 16772396094287600839
4409770 3 17981330302288121997
46194498 28 17489030331691709373
5104073 3 17896027764292049547
56633871 153 18120365725205518635
7064713 232 17750508653715900778
7970288 3 18342180007145621778
9981440 41 17329437142359818120

> <PUBCHEM_SHAPE_MULTIPOLES>
431.77
11.28
3.65
1.27
0.52
1.17
-0.03
-12.66
0.93
2.2
-0.49
0.32
0.33
-2.37

> <PUBCHEM_SHAPE_SELFOVERLAP>
907.814

> <PUBCHEM_SHAPE_VOLUME>
246.3

> <PUBCHEM_COORDINATE_TYPE>
2
5
10

$$$$

