16820
  -OEChem-07051213113D

 26 29  0     0  0  0  0  0  0999 V2000
    3.5185    2.0296   -0.0017 O   0  0  0  0  0  0  0  0  0  0  0  0
   -3.5187    2.0296   -0.0001 O   0  0  0  0  0  0  0  0  0  0  0  0
    0.7073   -0.2470    0.0004 C   0  0  0  0  0  0  0  0  0  0  0  0
   -0.7074   -0.2470    0.0003 C   0  0  0  0  0  0  0  0  0  0  0  0
    1.3920    0.9823    0.0003 C   0  0  0  0  0  0  0  0  0  0  0  0
   -1.3920    0.9823    0.0004 C   0  0  0  0  0  0  0  0  0  0  0  0
    1.4019   -1.4711    0.0003 C   0  0  0  0  0  0  0  0  0  0  0  0
   -1.4019   -1.4713   -0.0002 C   0  0  0  0  0  0  0  0  0  0  0  0
    0.6965    2.1951    0.0004 C   0  0  0  0  0  0  0  0  0  0  0  0
   -0.6966    2.1951    0.0006 C   0  0  0  0  0  0  0  0  0  0  0  0
    0.6971   -2.6793   -0.0002 C   0  0  0  0  0  0  0  0  0  0  0  0
   -0.6970   -2.6793   -0.0005 C   0  0  0  0  0  0  0  0  0  0  0  0
    2.8754    0.9877   -0.0005 C   0  0  0  0  0  0  0  0  0  0  0  0
   -2.8755    0.9876    0.0003 C   0  0  0  0  0  0  0  0  0  0  0  0
    2.8669   -1.4696    0.0010 C   0  0  0  0  0  0  0  0  0  0  0  0
   -2.8669   -1.4696   -0.0007 C   0  0  0  0  0  0  0  0  0  0  0  0
    3.5632   -0.3274    0.0003 C   0  0  0  0  0  0  0  0  0  0  0  0
   -3.5631   -0.3275   -0.0004 C   0  0  0  0  0  0  0  0  0  0  0  0
    1.2215    3.1463    0.0003 H   0  0  0  0  0  0  0  0  0  0  0  0
   -1.2217    3.1464    0.0006 H   0  0  0  0  0  0  0  0  0  0  0  0
    1.2237   -3.6308   -0.0003 H   0  0  0  0  0  0  0  0  0  0  0  0
   -1.2234   -3.6309   -0.0009 H   0  0  0  0  0  0  0  0  0  0  0  0
    3.3849   -2.4230    0.0016 H   0  0  0  0  0  0  0  0  0  0  0  0
   -3.3849   -2.4231   -0.0012 H   0  0  0  0  0  0  0  0  0  0  0  0
    4.6473   -0.3308    0.0004 H   0  0  0  0  0  0  0  0  0  0  0  0
   -4.6472   -0.3309   -0.0007 H   0  0  0  0  0  0  0  0  0  0  0  0
  1 13  2  0  0  0  0
  2 14  2  0  0  0  0
  3  4  1  0  0  0  0
  3  5  1  0  0  0  0
  3  7  2  0  0  0  0
  4  6  1  0  0  0  0
  4  8  2  0  0  0  0
  5  9  2  0  0  0  0
  5 13  1  0  0  0  0
  6 10  2  0  0  0  0
  6 14  1  0  0  0  0
  7 11  1  0  0  0  0
  7 15  1  0  0  0  0
  8 12  1  0  0  0  0
  8 16  1  0  0  0  0
  9 10  1  0  0  0  0
  9 19  1  0  0  0  0
 10 20  1  0  0  0  0
 11 12  2  0  0  0  0
 11 21  1  0  0  0  0
 12 22  1  0  0  0  0
 13 17  1  0  0  0  0
 14 18  1  0  0  0  0
 15 17  2  0  0  0  0
 15 23  1  0  0  0  0
 16 18  2  0  0  0  0
 16 24  1  0  0  0  0
 17 25  1  0  0  0  0
 18 26  1  0  0  0  0
M  END
> <PUBCHEM_COMPOUND_CID>
16820

> <PUBCHEM_CONFORMER_RMSD>
0.4

> <PUBCHEM_CONFORMER_DIVERSEORDER>
1

> <PUBCHEM_MMFF94_PARTIAL_CHARGES>
24
1 -0.57
10 -0.15
11 -0.15
12 -0.15
13 0.47
14 0.47
15 -0.18
16 -0.18
17 -0.14
18 -0.14
19 0.15
2 -0.57
20 0.15
21 0.15
22 0.15
23 0.15
24 0.15
25 0.15
26 0.15
5 0.09
6 0.09
7 0.03
8 0.03
9 -0.15

> <PUBCHEM_EFFECTIVE_ROTOR_COUNT>
0

> <PUBCHEM_PHARMACOPHORE_FEATURES>
6
1 1 acceptor
1 2 acceptor
6 3 4 5 6 9 10 rings
6 3 4 7 8 11 12 rings
6 3 5 7 13 15 17 rings
6 4 6 8 14 16 18 rings

> <PUBCHEM_HEAVY_ATOM_COUNT>
18

> <PUBCHEM_ATOM_DEF_STEREO_COUNT>
0

> <PUBCHEM_ATOM_UDEF_STEREO_COUNT>
0

> <PUBCHEM_BOND_DEF_STEREO_COUNT>
0

> <PUBCHEM_BOND_UDEF_STEREO_COUNT>
0

> <PUBCHEM_ISOTOPIC_ATOM_COUNT>
0

> <PUBCHEM_COMPONENT_COUNT>
1

> <PUBCHEM_CACTVS_TAUTO_COUNT>
1

> <PUBCHEM_CONFORMER_ID>
000041B400000001

> <PUBCHEM_MMFF94_ENERGY>
56.0335

> <PUBCHEM_FEATURE_SELFOVERLAP>
30.568

> <PUBCHEM_SHAPE_FINGERPRINT>
10608611 8 18410857659151638209
10863032 1 18410293609686374759
10967382 1 18410855430068710950
11132069 177 18337398230880186000
12382932 28 18409729581717254881
13132413 78 18409446947104882973
13140716 1 18411138081866435146
13380535 76 18410858758663382915
13583140 156 16988575592806946001
13897977 150 18339082712874799757
14790565 3 18338498798928401217
15196674 1 18410855460128161797
15309172 13 18410002260827803225
15442244 35 18338800116964521802
15536298 74 18334294266847939772
16945 1 18410575088958241094
18186145 218 18260820531655627288
193761 8 18410855473013239079
19591789 44 18410852165888784935
20510252 161 18261670372576683561
20739085 24 18125129823358150705
20905425 154 18191300468705101974
21267235 1 18410846668330535618
21501502 16 18410577283686399430
2334 1 18410575054603595594
23402539 116 18334869345815710326
23463225 33 18413109480682610194
23559900 14 18333730235280171748
238 59 17480062934305303421
2748010 2 18410853256815298271
335352 9 18194682802647635734
350125 39 18411414012040385753
5104073 3 18411136943694821025
7364860 26 18119810467469796582
8809292 202 18270956950721669730
9709674 26 18336260163479187070

> <PUBCHEM_SHAPE_MULTIPOLES>
358.69
5.59
3.05
0.61
0
0.4
0
-1.29
0
0
0
0
0.02
0

> <PUBCHEM_SHAPE_SELFOVERLAP>
834.415

> <PUBCHEM_SHAPE_VOLUME>
182.7

> <PUBCHEM_COORDINATE_TYPE>
2
5
10

$$$$

