11898
  -OEChem-06261206152D

 19 19  0     0  0  0  0  0  0999 V2000
    4.5981    2.4050    0.0000 O   0  5  0  0  0  0  0  0  0  0  0  0
    2.8660    2.4050    0.0000 O   0  0  0  0  0  0  0  0  0  0  0  0
    3.7320    1.9050    0.0000 N   0  3  0  0  0  0  0  0  0  0  0  0
    3.7320   -2.0950    0.0000 N   0  0  0  0  0  0  0  0  0  0  0  0
    2.8660    0.4050    0.0000 C   0  0  0  0  0  0  0  0  0  0  0  0
    3.7320    0.9050    0.0000 C   0  0  0  0  0  0  0  0  0  0  0  0
    2.8660   -0.5950    0.0000 C   0  0  0  0  0  0  0  0  0  0  0  0
    3.7320   -1.0950    0.0000 C   0  0  0  0  0  0  0  0  0  0  0  0
    4.5981    0.4050    0.0000 C   0  0  0  0  0  0  0  0  0  0  0  0
    4.5981   -0.5950    0.0000 C   0  0  0  0  0  0  0  0  0  0  0  0
    2.0000    0.9050    0.0000 C   0  0  0  0  0  0  0  0  0  0  0  0
    2.3291   -0.9050    0.0000 H   0  0  0  0  0  0  0  0  0  0  0  0
    5.1350    0.7150    0.0000 H   0  0  0  0  0  0  0  0  0  0  0  0
    5.1350   -0.9050    0.0000 H   0  0  0  0  0  0  0  0  0  0  0  0
    2.3100    1.4419    0.0000 H   0  0  0  0  0  0  0  0  0  0  0  0
    1.4631    1.2150    0.0000 H   0  0  0  0  0  0  0  0  0  0  0  0
    1.6900    0.3681    0.0000 H   0  0  0  0  0  0  0  0  0  0  0  0
    4.2690   -2.4050    0.0000 H   0  0  0  0  0  0  0  0  0  0  0  0
    3.1951   -2.4050    0.0000 H   0  0  0  0  0  0  0  0  0  0  0  0
  1  3  1  0  0  0  0
  2  3  2  0  0  0  0
  3  6  1  0  0  0  0
  4  8  1  0  0  0  0
  4 18  1  0  0  0  0
  4 19  1  0  0  0  0
  5  6  2  0  0  0  0
  5  7  1  0  0  0  0
  5 11  1  0  0  0  0
  6  9  1  0  0  0  0
  7  8  2  0  0  0  0
  7 12  1  0  0  0  0
  8 10  1  0  0  0  0
  9 10  2  0  0  0  0
  9 13  1  0  0  0  0
 10 14  1  0  0  0  0
 11 15  1  0  0  0  0
 11 16  1  0  0  0  0
 11 17  1  0  0  0  0
M  CHG  2   1  -1   3   1
M  END
> <PUBCHEM_COMPOUND_CID>
11898

> <PUBCHEM_COMPOUND_CANONICALIZED>
1

> <PUBCHEM_CACTVS_COMPLEXITY>
155

> <PUBCHEM_CACTVS_HBOND_ACCEPTOR>
3

> <PUBCHEM_CACTVS_HBOND_DONOR>
1

> <PUBCHEM_CACTVS_ROTATABLE_BOND>
0

> <PUBCHEM_CACTVS_SUBSKEYS>
AAADccBjMAAAAAAAAAAAAAAAAAAAAAAAAAAwAAAAAAAAAAABAAAAHAAUAAAADAiBGAAywIBQQACBAiRCQwCCAAAgAgAoiAAAZIoIICKAkZGAIABgkAAIyAcQgAAOAACAQAACAAAAAQCAAAQAAAAAAAAAAA==

> <PUBCHEM_IUPAC_OPENEYE_NAME>
3-methyl-4-nitro-aniline

> <PUBCHEM_IUPAC_CAS_NAME>
3-methyl-4-nitroaniline

> <PUBCHEM_IUPAC_NAME>
3-methyl-4-nitroaniline

> <PUBCHEM_IUPAC_SYSTEMATIC_NAME>
3-methyl-4-nitro-aniline

> <PUBCHEM_IUPAC_TRADITIONAL_NAME>
(3-methyl-4-nitro-phenyl)amine

> <PUBCHEM_IUPAC_INCHI>
InChI=1S/C7H8N2O2/c1-5-4-6(8)2-3-7(5)9(10)11/h2-4H,8H2,1H3

> <PUBCHEM_IUPAC_INCHIKEY>
XPAYEWBTLKOEDA-UHFFFAOYSA-N

> <PUBCHEM_XLOGP3>
2.2

> <PUBCHEM_EXACT_MASS>
152.058578

> <PUBCHEM_MOLECULAR_FORMULA>
C7H8N2O2

> <PUBCHEM_MOLECULAR_WEIGHT>
152.15062

> <PUBCHEM_OPENEYE_CAN_SMILES>
CC1=C(C=CC(=C1)N)[N+](=O)[O-]

> <PUBCHEM_OPENEYE_ISO_SMILES>
CC1=C(C=CC(=C1)N)[N+](=O)[O-]

> <PUBCHEM_CACTVS_TPSA>
71.8

> <PUBCHEM_MONOISOTOPIC_WEIGHT>
152.058578

> <PUBCHEM_TOTAL_CHARGE>
0

> <PUBCHEM_HEAVY_ATOM_COUNT>
11

> <PUBCHEM_ATOM_DEF_STEREO_COUNT>
0

> <PUBCHEM_ATOM_UDEF_STEREO_COUNT>
0

> <PUBCHEM_BOND_DEF_STEREO_COUNT>
0

> <PUBCHEM_BOND_UDEF_STEREO_COUNT>
0

> <PUBCHEM_ISOTOPIC_ATOM_COUNT>
0

> <PUBCHEM_COMPONENT_COUNT>
1

> <PUBCHEM_CACTVS_TAUTO_COUNT>
1

> <PUBCHEM_COORDINATE_TYPE>
1
5
255

> <PUBCHEM_BONDANNOTATIONS>
5  6  8
5  7  8
6  9  8
7  8  8
8  10  8
9  10  8

$$$$

