14389
  -OEChem-06241222432D

 49 49  0     0  0  0  0  0  0999 V2000
    6.3301   -0.5000    0.0000 O   0  0  0  0  0  0  0  0  0  0  0  0
    2.8660   -1.5000    0.0000 O   0  0  0  0  0  0  0  0  0  0  0  0
    7.1962    3.0000    0.0000 N   0  0  0  0  0  0  0  0  0  0  0  0
    4.5981   -0.5000    0.0000 N   0  0  0  0  0  0  0  0  0  0  0  0
    6.3301    2.5000    0.0000 C   0  0  0  0  0  0  0  0  0  0  0  0
    6.3301    1.5000    0.0000 C   0  0  0  0  0  0  0  0  0  0  0  0
    5.4641    1.0000    0.0000 C   0  0  0  0  0  0  0  0  0  0  0  0
    7.1962    4.0000    0.0000 C   0  0  0  0  0  0  0  0  0  0  0  0
    8.0622    2.5000    0.0000 C   0  0  0  0  0  0  0  0  0  0  0  0
    5.4641    0.0000    0.0000 C   0  0  0  0  0  0  0  0  0  0  0  0
    8.0622    4.5000    0.0000 C   0  0  0  0  0  0  0  0  0  0  0  0
    8.9282    3.0000    0.0000 C   0  0  0  0  0  0  0  0  0  0  0  0
    4.5981   -1.5000    0.0000 C   0  0  0  0  0  0  0  0  0  0  0  0
    5.4641   -3.0000    0.0000 C   0  0  0  0  0  0  0  0  0  0  0  0
    5.4641   -2.0000    0.0000 C   0  0  0  0  0  0  0  0  0  0  0  0
    3.7320   -2.0000    0.0000 C   0  0  0  0  0  0  0  0  0  0  0  0
    6.3301   -3.5000    0.0000 C   0  0  0  0  0  0  0  0  0  0  0  0
    4.5981   -3.5000    0.0000 C   0  0  0  0  0  0  0  0  0  0  0  0
    3.7320   -3.0000    0.0000 C   0  0  0  0  0  0  0  0  0  0  0  0
    6.3301   -4.5000    0.0000 C   0  0  0  0  0  0  0  0  0  0  0  0
    2.0000   -2.0000    0.0000 C   0  0  0  0  0  0  0  0  0  0  0  0
    6.1181    3.0826    0.0000 H   0  0  0  0  0  0  0  0  0  0  0  0
    5.7196    2.3923    0.0000 H   0  0  0  0  0  0  0  0  0  0  0  0
    6.5422    0.9174    0.0000 H   0  0  0  0  0  0  0  0  0  0  0  0
    6.9407    1.6077    0.0000 H   0  0  0  0  0  0  0  0  0  0  0  0
    5.2520    1.5826    0.0000 H   0  0  0  0  0  0  0  0  0  0  0  0
    4.8535    0.8923    0.0000 H   0  0  0  0  0  0  0  0  0  0  0  0
    7.6636    2.0250    0.0000 H   0  0  0  0  0  0  0  0  0  0  0  0
    8.4607    2.0250    0.0000 H   0  0  0  0  0  0  0  0  0  0  0  0
    6.9841    4.5826    0.0000 H   0  0  0  0  0  0  0  0  0  0  0  0
    6.5856    3.8923    0.0000 H   0  0  0  0  0  0  0  0  0  0  0  0
    9.2382    2.4631    0.0000 H   0  0  0  0  0  0  0  0  0  0  0  0
    9.4651    3.3100    0.0000 H   0  0  0  0  0  0  0  0  0  0  0  0
    8.6182    3.5369    0.0000 H   0  0  0  0  0  0  0  0  0  0  0  0
    8.3722    3.9631    0.0000 H   0  0  0  0  0  0  0  0  0  0  0  0
    8.5991    4.8100    0.0000 H   0  0  0  0  0  0  0  0  0  0  0  0
    7.7522    5.0369    0.0000 H   0  0  0  0  0  0  0  0  0  0  0  0
    4.0611   -0.1900    0.0000 H   0  0  0  0  0  0  0  0  0  0  0  0
    6.0010   -1.6900    0.0000 H   0  0  0  0  0  0  0  0  0  0  0  0
    6.9407   -3.6077    0.0000 H   0  0  0  0  0  0  0  0  0  0  0  0
    6.5422   -2.9174    0.0000 H   0  0  0  0  0  0  0  0  0  0  0  0
    4.5981   -4.1200    0.0000 H   0  0  0  0  0  0  0  0  0  0  0  0
    3.1951   -3.3100    0.0000 H   0  0  0  0  0  0  0  0  0  0  0  0
    5.7101   -4.5000    0.0000 H   0  0  0  0  0  0  0  0  0  0  0  0
    6.3301   -5.1200    0.0000 H   0  0  0  0  0  0  0  0  0  0  0  0
    6.9501   -4.5000    0.0000 H   0  0  0  0  0  0  0  0  0  0  0  0
    1.6900   -1.4631    0.0000 H   0  0  0  0  0  0  0  0  0  0  0  0
    1.4631   -2.3100    0.0000 H   0  0  0  0  0  0  0  0  0  0  0  0
    2.3100   -2.5369    0.0000 H   0  0  0  0  0  0  0  0  0  0  0  0
  1 10  2  0  0  0  0
  2 16  1  0  0  0  0
  2 21  1  0  0  0  0
  3  5  1  0  0  0  0
  3  8  1  0  0  0  0
  3  9  1  0  0  0  0
  4 10  1  0  0  0  0
  4 13  1  0  0  0  0
  4 38  1  0  0  0  0
  5  6  1  0  0  0  0
  5 22  1  0  0  0  0
  5 23  1  0  0  0  0
  6  7  1  0  0  0  0
  6 24  1  0  0  0  0
  6 25  1  0  0  0  0
  7 10  1  0  0  0  0
  7 26  1  0  0  0  0
  7 27  1  0  0  0  0
  8 11  1  0  0  0  0
  8 30  1  0  0  0  0
  8 31  1  0  0  0  0
  9 12  1  0  0  0  0
  9 28  1  0  0  0  0
  9 29  1  0  0  0  0
 11 35  1  0  0  0  0
 11 36  1  0  0  0  0
 11 37  1  0  0  0  0
 12 32  1  0  0  0  0
 12 33  1  0  0  0  0
 12 34  1  0  0  0  0
 13 15  1  0  0  0  0
 13 16  2  0  0  0  0
 14 15  2  0  0  0  0
 14 17  1  0  0  0  0
 14 18  1  0  0  0  0
 15 39  1  0  0  0  0
 16 19  1  0  0  0  0
 17 20  1  0  0  0  0
 17 40  1  0  0  0  0
 17 41  1  0  0  0  0
 18 19  2  0  0  0  0
 18 42  1  0  0  0  0
 19 43  1  0  0  0  0
 20 44  1  0  0  0  0
 20 45  1  0  0  0  0
 20 46  1  0  0  0  0
 21 47  1  0  0  0  0
 21 48  1  0  0  0  0
 21 49  1  0  0  0  0
M  END
> <PUBCHEM_COMPOUND_CID>
14389

> <PUBCHEM_COMPOUND_CANONICALIZED>
1

> <PUBCHEM_CACTVS_COMPLEXITY>
293

> <PUBCHEM_CACTVS_HBOND_ACCEPTOR>
3

> <PUBCHEM_CACTVS_HBOND_DONOR>
1

> <PUBCHEM_CACTVS_ROTATABLE_BOND>
9

> <PUBCHEM_CACTVS_SUBSKEYS>
AAADceB7MAAAAAAAAAAAAAAAAAAAAAAAAAAwAAAAAAAAAAABAAAAHgAQAAAADAzBmAYyxoPABACIAiVSUACCCAAhIgAIiAEPbIgOJjLEsZuFMChk1BHY6AeUwIAOIAAAQAAAEABAAACAAAAgAAAAAAAAAA==

> <PUBCHEM_IUPAC_OPENEYE_NAME>
4-(diethylamino)-N-(5-ethyl-2-methoxy-phenyl)butanamide

> <PUBCHEM_IUPAC_CAS_NAME>
4-(diethylamino)-N-(5-ethyl-2-methoxyphenyl)butanamide

> <PUBCHEM_IUPAC_NAME>
4-(diethylamino)-N-(5-ethyl-2-methoxyphenyl)butanamide

> <PUBCHEM_IUPAC_SYSTEMATIC_NAME>
4-(diethylamino)-N-(5-ethyl-2-methoxy-phenyl)butanamide

> <PUBCHEM_IUPAC_TRADITIONAL_NAME>
4-(diethylamino)-N-(5-ethyl-2-methoxy-phenyl)butyramide

> <PUBCHEM_IUPAC_INCHI>
InChI=1S/C17H28N2O2/c1-5-14-10-11-16(21-4)15(13-14)18-17(20)9-8-12-19(6-2)7-3/h10-11,13H,5-9,12H2,1-4H3,(H,18,20)

> <PUBCHEM_IUPAC_INCHIKEY>
VRPIYBNDRQDWEP-UHFFFAOYSA-N

> <PUBCHEM_XLOGP3_AA>
2.9

> <PUBCHEM_EXACT_MASS>
292.215078

> <PUBCHEM_MOLECULAR_FORMULA>
C17H28N2O2

> <PUBCHEM_MOLECULAR_WEIGHT>
292.41642

> <PUBCHEM_OPENEYE_CAN_SMILES>
CCC1=CC(=C(C=C1)OC)NC(=O)CCCN(CC)CC

> <PUBCHEM_OPENEYE_ISO_SMILES>
CCC1=CC(=C(C=C1)OC)NC(=O)CCCN(CC)CC

> <PUBCHEM_CACTVS_TPSA>
41.6

> <PUBCHEM_MONOISOTOPIC_WEIGHT>
292.215078

> <PUBCHEM_TOTAL_CHARGE>
0

> <PUBCHEM_HEAVY_ATOM_COUNT>
21

> <PUBCHEM_ATOM_DEF_STEREO_COUNT>
0

> <PUBCHEM_ATOM_UDEF_STEREO_COUNT>
0

> <PUBCHEM_BOND_DEF_STEREO_COUNT>
0

> <PUBCHEM_BOND_UDEF_STEREO_COUNT>
0

> <PUBCHEM_ISOTOPIC_ATOM_COUNT>
0

> <PUBCHEM_COMPONENT_COUNT>
1

> <PUBCHEM_CACTVS_TAUTO_COUNT>
3

> <PUBCHEM_COORDINATE_TYPE>
1
5
255

> <PUBCHEM_BONDANNOTATIONS>
13  15  8
13  16  8
14  15  8
14  18  8
16  19  8
18  19  8

$$$$

