17395926
  -OEChem-06241222533D

 41 43  0     0  0  0  0  0  0999 V2000
    1.0349    1.5646    1.4840 S   0  0  0  0  0  0  0  0  0  0  0  0
   -1.8159   -1.7930    0.1998 O   0  0  0  0  0  0  0  0  0  0  0  0
    2.7248   -1.1461   -0.6668 O   0  0  0  0  0  0  0  0  0  0  0  0
    0.5954   -0.5476    0.0686 N   0  0  0  0  0  0  0  0  0  0  0  0
   -3.6296   -0.3080    0.0853 C   0  0  0  0  0  0  0  0  0  0  0  0
   -5.9386   -0.9631   -0.1931 C   0  0  0  0  0  0  0  0  0  0  0  0
   -5.2807    1.3320   -0.5638 C   0  0  0  0  0  0  0  0  0  0  0  0
   -3.9607    1.0035   -0.2546 C   0  0  0  0  0  0  0  0  0  0  0  0
   -4.6185   -1.2913    0.1160 C   0  0  0  0  0  0  0  0  0  0  0  0
   -6.2696    0.3487   -0.5330 C   0  0  0  0  0  0  0  0  0  0  0  0
   -2.2261   -0.6573    0.4127 C   0  0  0  0  0  0  0  0  0  0  0  0
   -0.0528    0.3910    0.8233 C   0  0  0  0  0  0  0  0  0  0  0  0
    2.3803    0.7788    0.7332 C   0  0  0  0  0  0  0  0  0  0  0  0
   -1.3728    0.3965    1.0242 C   0  0  0  0  0  0  0  0  0  0  0  0
   -6.9956   -2.0147   -0.1612 C   0  0  0  0  0  0  0  0  0  0  0  0
   -5.6347    2.7345   -0.9272 C   0  0  0  0  0  0  0  0  0  0  0  0
    1.9674   -0.4175   -0.0444 C   0  0  0  0  0  0  0  0  0  0  0  0
    3.6502    1.1780    0.8248 C   0  0  0  0  0  0  0  0  0  0  0  0
    4.8099    0.5223    0.1930 C   0  0  0  0  0  0  0  0  0  0  0  0
    5.5178   -0.4606    0.8848 C   0  0  0  0  0  0  0  0  0  0  0  0
    5.1992    0.8846   -1.0967 C   0  0  0  0  0  0  0  0  0  0  0  0
    6.6150   -1.0809    0.2872 C   0  0  0  0  0  0  0  0  0  0  0  0
    6.2964    0.2643   -1.6941 C   0  0  0  0  0  0  0  0  0  0  0  0
    7.0043   -0.7185   -1.0021 C   0  0  0  0  0  0  0  0  0  0  0  0
   -3.2025    1.7808   -0.3064 H   0  0  0  0  0  0  0  0  0  0  0  0
   -4.3680   -2.3146    0.3859 H   0  0  0  0  0  0  0  0  0  0  0  0
   -7.2988    0.6043   -0.7741 H   0  0  0  0  0  0  0  0  0  0  0  0
   -1.8560    1.1737    1.6077 H   0  0  0  0  0  0  0  0  0  0  0  0
   -7.4270   -2.0833    0.8424 H   0  0  0  0  0  0  0  0  0  0  0  0
   -7.7977   -1.7920   -0.8730 H   0  0  0  0  0  0  0  0  0  0  0  0
   -6.5871   -2.9933   -0.4358 H   0  0  0  0  0  0  0  0  0  0  0  0
   -5.0160    3.4515   -0.3766 H   0  0  0  0  0  0  0  0  0  0  0  0
   -6.6785    2.9578   -0.6811 H   0  0  0  0  0  0  0  0  0  0  0  0
   -5.4874    2.8930   -2.0001 H   0  0  0  0  0  0  0  0  0  0  0  0
    0.0989   -1.3038   -0.3899 H   0  0  0  0  0  0  0  0  0  0  0  0
    3.9063    2.0607    1.4076 H   0  0  0  0  0  0  0  0  0  0  0  0
    5.2262   -0.7538    1.8903 H   0  0  0  0  0  0  0  0  0  0  0  0
    4.6573    1.6489   -1.6484 H   0  0  0  0  0  0  0  0  0  0  0  0
    7.1661   -1.8463    0.8259 H   0  0  0  0  0  0  0  0  0  0  0  0
    6.5996    0.5462   -2.6981 H   0  0  0  0  0  0  0  0  0  0  0  0
    7.8584   -1.2016   -1.4674 H   0  0  0  0  0  0  0  0  0  0  0  0
  1 12  1  0  0  0  0
  1 13  1  0  0  0  0
  2 11  2  0  0  0  0
  3 17  2  0  0  0  0
  4 12  1  0  0  0  0
  4 17  1  0  0  0  0
  4 35  1  0  0  0  0
  5  8  2  0  0  0  0
  5  9  1  0  0  0  0
  5 11  1  0  0  0  0
  6  9  2  0  0  0  0
  6 10  1  0  0  0  0
  6 15  1  0  0  0  0
  7  8  1  0  0  0  0
  7 10  2  0  0  0  0
  7 16  1  0  0  0  0
  8 25  1  0  0  0  0
  9 26  1  0  0  0  0
 10 27  1  0  0  0  0
 11 14  1  0  0  0  0
 12 14  2  0  0  0  0
 13 17  1  0  0  0  0
 13 18  2  0  0  0  0
 14 28  1  0  0  0  0
 15 29  1  0  0  0  0
 15 30  1  0  0  0  0
 15 31  1  0  0  0  0
 16 32  1  0  0  0  0
 16 33  1  0  0  0  0
 16 34  1  0  0  0  0
 18 19  1  0  0  0  0
 18 36  1  0  0  0  0
 19 20  2  0  0  0  0
 19 21  1  0  0  0  0
 20 22  1  0  0  0  0
 20 37  1  0  0  0  0
 21 23  2  0  0  0  0
 21 38  1  0  0  0  0
 22 24  2  0  0  0  0
 22 39  1  0  0  0  0
 23 24  1  0  0  0  0
 23 40  1  0  0  0  0
 24 41  1  0  0  0  0
M  END
> <PUBCHEM_COMPOUND_CID>
17395926

> <PUBCHEM_CONFORMER_RMSD>
0.6

> <PUBCHEM_CONFORMER_DIVERSEORDER>
1
21
7
22
3
23
14
6
2
20
12
4
8
11
15
18
19
17
13
16
5
9
10

> <PUBCHEM_MMFF94_PARTIAL_CHARGES>
35
1 -0.2
10 -0.15
11 0.47
12 0.21
13 0.12
14 -0.14
15 0.14
16 0.14
17 0.62
18 -0.18
19 0.03
2 -0.57
20 -0.15
21 -0.15
22 -0.15
23 -0.15
24 -0.15
25 0.15
26 0.15
27 0.15
28 0.15
3 -0.57
35 0.37
36 0.15
37 0.15
38 0.15
39 0.15
4 -0.54
40 0.15
41 0.15
5 0.09
6 -0.14
7 -0.14
8 -0.15
9 -0.15

> <PUBCHEM_EFFECTIVE_ROTOR_COUNT>
3

> <PUBCHEM_PHARMACOPHORE_FEATURES>
6
1 2 acceptor
1 3 acceptor
1 4 donor
5 1 4 12 13 17 rings
6 19 20 21 22 23 24 rings
6 5 6 7 8 9 10 rings

> <PUBCHEM_HEAVY_ATOM_COUNT>
24

> <PUBCHEM_ATOM_DEF_STEREO_COUNT>
0

> <PUBCHEM_ATOM_UDEF_STEREO_COUNT>
0

> <PUBCHEM_BOND_DEF_STEREO_COUNT>
2

> <PUBCHEM_BOND_UDEF_STEREO_COUNT>
0

> <PUBCHEM_ISOTOPIC_ATOM_COUNT>
0

> <PUBCHEM_COMPONENT_COUNT>
1

> <PUBCHEM_CACTVS_TAUTO_COUNT>
4

> <PUBCHEM_CONFORMER_ID>
010970D600000001

> <PUBCHEM_MMFF94_ENERGY>
68.8348

> <PUBCHEM_FEATURE_SELFOVERLAP>
30.446

> <PUBCHEM_SHAPE_FINGERPRINT>
10638233 991 16917067745972080612
10670039 82 18131075956766687261
11135926 11 16660642986169940151
11524674 6 16660642917519353535
11719270 70 18187368765933846782
11796584 16 18272086089851791226
11963148 33 18114186332751410718
12166972 35 18412542072332310577
12236239 1 16988849375697533585
12516196 113 16587742036131550874
12616971 3 14924225976386987481
12670543 26 18409728478232607944
13533116 47 15984833670453064592
13668630 136 17603300444857655230
13685833 64 17313099735421342050
13782708 43 18115312163837840847
13862211 1 17894625964054298298
14251752 14 18412828005473816900
15183329 4 18201719569881214376
15348495 7 9583508815969678551
15419008 91 18042426714901498184
15716309 27 5184347404159045023
1577012 14 17489591181527818165
15778101 99 18339081592690636977
18222031 100 17676200265625366504
18608769 82 18341607054740648347
20281389 69 18131072631834200317
21150785 3 17703507714220517114
21267235 1 17894905213594377979
21279426 13 18261117378183660392
22061861 79 17749390360106721660
22224240 67 11887952142533869001
22956985 138 17680695228222043054
2297311 6 18411138005522556497
23035841 295 15647051556142648287
23081809 10 17632582659976951024
23198884 109 17847059974149896273
23522609 53 17702932764202941500
23536379 177 17989488537010874042
23559900 14 17895484613431052441
23569943 247 15696616543895770656
24771293 8 12894492297619294942
29717793 49 17095519600310512480
3004659 81 18412263935314614440
3663271 9 7132716089359960436
394071 54 14836397017909816070
4058900 60 18059010700169610411
4073 2 17632290151414263474
4098825 35 18130790117464542862
445580 37 18272086123942348109
5283173 99 18338519741383745289
542803 24 16988564597891011280
5758199 1 13470690351946484665
8988823 20 15574719076145710872

> <PUBCHEM_SHAPE_MULTIPOLES>
481.04
21.37
1.87
1.19
2.11
0.4
-0.09
-3.53
-7.35
-3.06
-0.16
1.4
0.37
0.99

> <PUBCHEM_SHAPE_SELFOVERLAP>
1034.527

> <PUBCHEM_SHAPE_VOLUME>
266.4

> <PUBCHEM_COORDINATE_TYPE>
2
5
10

$$$$

