442948
  -OEChem-07051213003D

 61 65  0     1  0  0  0  0  0999 V2000
    1.5028    1.9757    1.0282 O   0  0  0  0  0  0  0  0  0  0  0  0
   -4.7863   -2.1446    2.2542 O   0  0  0  0  0  0  0  0  0  0  0  0
    3.5212    3.0056    0.6233 O   0  0  0  0  0  0  0  0  0  0  0  0
    2.6838   -2.7508    1.6499 O   0  0  0  0  0  0  0  0  0  0  0  0
    5.9033   -1.0455   -1.4582 O   0  0  0  0  0  0  0  0  0  0  0  0
    4.7780   -3.1860   -0.1094 O   0  0  0  0  0  0  0  0  0  0  0  0
   -1.2958    2.0660   -1.1891 N   0  0  2  0  0  0  0  0  0  0  0  0
   -4.0916   -0.7507    0.5214 N   0  0  0  0  0  0  0  0  0  0  0  0
   -2.9223    1.6310    0.8389 C   0  0  1  0  0  0  0  0  0  0  0  0
   -3.1805    0.6109   -1.1951 C   0  0  1  0  0  0  0  0  0  0  0  0
   -1.4042    1.7837    0.3064 C   0  0  2  0  0  0  0  0  0  0  0  0
   -3.7827    1.7738   -0.3858 C   0  0  0  0  0  0  0  0  0  0  0  0
   -4.0994   -0.5570   -0.9897 C   0  0  1  0  0  0  0  0  0  0  0  0
   -2.1126    1.1691   -2.0938 C   0  0  0  0  0  0  0  0  0  0  0  0
   -3.3268    0.2100    1.4382 C   0  0  0  0  0  0  0  0  0  0  0  0
   -0.7063    2.9227    1.0747 C   0  0  0  0  0  0  0  0  0  0  0  0
   -3.6652   -1.8523   -1.6686 C   0  0  0  0  0  0  0  0  0  0  0  0
    0.0918    2.1672   -1.6384 C   0  0  0  0  0  0  0  0  0  0  0  0
    0.7428    3.1128    0.6259 C   0  0  2  0  0  0  0  0  0  0  0  0
    0.8259    3.2824   -0.8898 C   0  0  0  0  0  0  0  0  0  0  0  0
   -4.4699   -3.0550   -1.1610 C   0  0  0  0  0  0  0  0  0  0  0  0
   -4.7269   -1.8704    1.0575 C   0  0  0  0  0  0  0  0  0  0  0  0
   -5.3986   -2.7371    0.0100 C   0  0  0  0  0  0  0  0  0  0  0  0
    2.8265    2.0057    0.7180 C   0  0  0  0  0  0  0  0  0  0  0  0
    3.3435    0.6311    0.4994 C   0  0  0  0  0  0  0  0  0  0  0  0
    4.3875    0.4436   -0.3833 C   0  0  0  0  0  0  0  0  0  0  0  0
    2.7638   -0.4167    1.1853 C   0  0  0  0  0  0  0  0  0  0  0  0
    3.2493   -1.7081    0.9797 C   0  0  0  0  0  0  0  0  0  0  0  0
    4.8729   -0.8477   -0.5890 C   0  0  0  0  0  0  0  0  0  0  0  0
    4.3040   -1.9237    0.0926 C   0  0  0  0  0  0  0  0  0  0  0  0
    4.1717   -3.9455   -1.1526 C   0  0  0  0  0  0  0  0  0  0  0  0
   -3.1463    2.4087    1.5772 H   0  0  0  0  0  0  0  0  0  0  0  0
   -2.3929    0.0570   -0.6517 H   0  0  0  0  0  0  0  0  0  0  0  0
   -0.8633    0.8529    0.5297 H   0  0  0  0  0  0  0  0  0  0  0  0
   -4.8504    1.6635   -0.1594 H   0  0  0  0  0  0  0  0  0  0  0  0
   -3.6819    2.7530   -0.8691 H   0  0  0  0  0  0  0  0  0  0  0  0
   -5.1275   -0.3173   -1.2889 H   0  0  0  0  0  0  0  0  0  0  0  0
   -1.4982    0.3648   -2.5186 H   0  0  0  0  0  0  0  0  0  0  0  0
   -2.5310    1.7564   -2.9171 H   0  0  0  0  0  0  0  0  0  0  0  0
   -2.4420   -0.3251    1.8014 H   0  0  0  0  0  0  0  0  0  0  0  0
   -3.9746    0.3714    2.3085 H   0  0  0  0  0  0  0  0  0  0  0  0
   -1.2577    3.8602    0.9278 H   0  0  0  0  0  0  0  0  0  0  0  0
   -0.7269    2.6907    2.1469 H   0  0  0  0  0  0  0  0  0  0  0  0
   -2.6025   -2.0468   -1.4725 H   0  0  0  0  0  0  0  0  0  0  0  0
   -3.7646   -1.7618   -2.7564 H   0  0  0  0  0  0  0  0  0  0  0  0
    0.1187    2.4041   -2.7091 H   0  0  0  0  0  0  0  0  0  0  0  0
    0.6126    1.2110   -1.5043 H   0  0  0  0  0  0  0  0  0  0  0  0
    1.1501    3.9986    1.1291 H   0  0  0  0  0  0  0  0  0  0  0  0
    1.8578    3.3235   -1.2521 H   0  0  0  0  0  0  0  0  0  0  0  0
    0.3689    4.2442   -1.1587 H   0  0  0  0  0  0  0  0  0  0  0  0
   -3.7666   -3.8417   -0.8600 H   0  0  0  0  0  0  0  0  0  0  0  0
   -5.0616   -3.4760   -1.9827 H   0  0  0  0  0  0  0  0  0  0  0  0
   -5.7309   -3.6698    0.4791 H   0  0  0  0  0  0  0  0  0  0  0  0
   -6.2954   -2.2129   -0.3409 H   0  0  0  0  0  0  0  0  0  0  0  0
    4.8270    1.2823   -0.9164 H   0  0  0  0  0  0  0  0  0  0  0  0
    1.9498   -0.2674    1.8890 H   0  0  0  0  0  0  0  0  0  0  0  0
    3.1677   -3.5634    1.4229 H   0  0  0  0  0  0  0  0  0  0  0  0
    6.1677   -0.1895   -1.8367 H   0  0  0  0  0  0  0  0  0  0  0  0
    4.3431   -3.4691   -2.1230 H   0  0  0  0  0  0  0  0  0  0  0  0
    3.0974   -4.0601   -0.9769 H   0  0  0  0  0  0  0  0  0  0  0  0
    4.6311   -4.9377   -1.1651 H   0  0  0  0  0  0  0  0  0  0  0  0
  1 19  1  0  0  0  0
  1 24  1  0  0  0  0
  2 22  2  0  0  0  0
  3 24  2  0  0  0  0
  4 28  1  0  0  0  0
  4 57  1  0  0  0  0
  5 29  1  0  0  0  0
  5 58  1  0  0  0  0
  6 30  1  0  0  0  0
  6 31  1  0  0  0  0
  7 11  1  0  0  0  0
  7 14  1  0  0  0  0
  7 18  1  0  0  0  0
  8 13  1  0  0  0  0
  8 15  1  0  0  0  0
  8 22  1  0  0  0  0
  9 11  1  0  0  0  0
  9 12  1  0  0  0  0
  9 15  1  0  0  0  0
  9 32  1  0  0  0  0
 10 12  1  0  0  0  0
 10 13  1  0  0  0  0
 10 14  1  0  0  0  0
 10 33  1  0  0  0  0
 11 16  1  0  0  0  0
 11 34  1  0  0  0  0
 12 35  1  0  0  0  0
 12 36  1  0  0  0  0
 13 17  1  0  0  0  0
 13 37  1  0  0  0  0
 14 38  1  0  0  0  0
 14 39  1  0  0  0  0
 15 40  1  0  0  0  0
 15 41  1  0  0  0  0
 16 19  1  0  0  0  0
 16 42  1  0  0  0  0
 16 43  1  0  0  0  0
 17 21  1  0  0  0  0
 17 44  1  0  0  0  0
 17 45  1  0  0  0  0
 18 20  1  0  0  0  0
 18 46  1  0  0  0  0
 18 47  1  0  0  0  0
 19 20  1  0  0  0  0
 19 48  1  0  0  0  0
 20 49  1  0  0  0  0
 20 50  1  0  0  0  0
 21 23  1  0  0  0  0
 21 51  1  0  0  0  0
 21 52  1  0  0  0  0
 22 23  1  0  0  0  0
 23 53  1  0  0  0  0
 23 54  1  0  0  0  0
 24 25  1  0  0  0  0
 25 26  2  0  0  0  0
 25 27  1  0  0  0  0
 26 29  1  0  0  0  0
 26 55  1  0  0  0  0
 27 28  2  0  0  0  0
 27 56  1  0  0  0  0
 28 30  1  0  0  0  0
 29 30  2  0  0  0  0
 31 59  1  0  0  0  0
 31 60  1  0  0  0  0
 31 61  1  0  0  0  0
M  END
> <PUBCHEM_COMPOUND_CID>
442948

> <PUBCHEM_CONFORMER_RMSD>
0.8

> <PUBCHEM_CONFORMER_DIVERSEORDER>
1
58
48
2
67
40
18
43
53
76
84
73
16
46
37
6
54
26
80
83
63
60
35
15
9
88
3
56
11
45
52
32
36
39
22
24
42
8
19
72
23
50
38
70
4
85
68
14
20
55
86
65
25
5
49
30
27
47
10
59
57
41
7
61
69
75
12
29
77
81
51
79
33
82
44
87
64
34
13
17
21
31
74
28
62
66
78
71

> <PUBCHEM_MMFF94_PARTIAL_CHARGES>
28
1 -0.43
11 0.27
13 0.3
14 0.27
15 0.3
18 0.27
19 0.28
2 -0.57
22 0.57
23 0.06
24 0.63
25 0.09
26 -0.15
27 -0.15
28 0.08
29 0.08
3 -0.57
30 0.08
31 0.28
4 -0.53
5 -0.53
55 0.15
56 0.15
57 0.45
58 0.45
6 -0.36
7 -0.81
8 -0.66

> <PUBCHEM_EFFECTIVE_ROTOR_COUNT>
6

> <PUBCHEM_PHARMACOPHORE_FEATURES>
11
1 2 acceptor
1 3 acceptor
1 4 donor
1 5 donor
1 6 acceptor
1 7 cation
6 25 26 27 28 29 30 rings
6 7 11 16 18 19 20 rings
6 7 9 10 11 12 14 rings
6 8 13 17 21 22 23 rings
6 8 9 10 12 13 15 rings

> <PUBCHEM_HEAVY_ATOM_COUNT>
31

> <PUBCHEM_ATOM_DEF_STEREO_COUNT>
5

> <PUBCHEM_ATOM_UDEF_STEREO_COUNT>
0

> <PUBCHEM_BOND_DEF_STEREO_COUNT>
0

> <PUBCHEM_BOND_UDEF_STEREO_COUNT>
0

> <PUBCHEM_ISOTOPIC_ATOM_COUNT>
0

> <PUBCHEM_COMPONENT_COUNT>
1

> <PUBCHEM_CACTVS_TAUTO_COUNT>
5

> <PUBCHEM_CONFORMER_ID>
0006C24400000001

> <PUBCHEM_MMFF94_ENERGY>
169.9584

> <PUBCHEM_FEATURE_SELFOVERLAP>
56.537

> <PUBCHEM_SHAPE_FINGERPRINT>
10439779 11 5730682044678460683
10928967 22 18410294717904657478
11315621 136 18411702063239923460
117089 54 18044367464546388118
12107183 9 18187631545149734721
12422481 6 16733250331299442405
12633257 1 15140684652608640449
13103583 49 17895460510127405945
13533116 47 18119530934466786329
13583140 156 17896333415334441249
1361 87 18266741474970606366
13692114 37 17398400728532429176
14251764 30 18261103115129818982
14480069 147 18341888546353181303
14950920 106 17458340819235836531
15274700 34 4822349758925708749
15475509 35 17684652031166978907
15510800 12 18129668482697803939
15537594 2 18341039826329159464
15669420 48 14835545931015694673
16991981 162 16127268864231871309
17809404 112 17905650809599893792
17909252 39 18407477765372729178
20775530 9 18413111645282960411
21033648 29 4894737162985358465
21133410 38 17684362854802872307
21315759 227 18269851950658224822
21365058 27 17977659806700766884
21458453 9 17762108437655623386
21475661 188 7637411743129870041
22907989 373 12967139294208510241
23379529 103 17901661902317277022
2838139 119 9871749078904308592
3737641 26 18409167671262307904
376196 1 9367348145543155332
44062 13 18341057401667910333
46194498 28 17344632522278948405
463206 1 18050852109343276091
50080093 196 17829911848880589742
508706 21 17775289356926214443
5309563 4 18410012121835311713
7970288 3 18190461747934761054
86090 222 17843688764030391299

> <PUBCHEM_SHAPE_MULTIPOLES>
592.79
12.99
4.96
1.79
2.22
1.26
0.09
13.3
0.42
1.82
0.25
-1.14
0.3
0.96

> <PUBCHEM_SHAPE_SELFOVERLAP>
1278.162

> <PUBCHEM_SHAPE_VOLUME>
322

> <PUBCHEM_COORDINATE_TYPE>
2
5
10

$$$$

