5283218
  -OEChem-07051213042D

 66 66  0     1  0  0  0  0  0999 V2000
    7.8082   -0.9531    0.0000 O   0  0  0  0  0  0  0  0  0  0  0  0
    7.3082   -4.1100    0.0000 O   0  0  0  0  0  0  0  0  0  0  0  0
    6.0121    0.8935    0.0000 O   0  0  0  0  0  0  0  0  0  0  0  0
    9.2094    0.0649    0.0000 O   0  0  0  0  0  0  0  0  0  0  0  0
    2.9511    2.7987    0.0000 O   0  0  0  0  0  0  0  0  0  0  0  0
    2.4158    1.1514    0.0000 O   0  0  0  0  0  0  0  0  0  0  0  0
    4.8532    2.1807    0.0000 O   0  0  0  0  0  0  0  0  0  0  0  0
    8.3959   -1.7622    0.0000 C   0  0  2  0  0  0  0  0  0  0  0  0
    8.9837   -0.9531    0.0000 C   0  0  0  0  0  0  0  0  0  0  0  0
    7.5869   -2.3499    0.0000 C   0  0  0  0  0  0  0  0  0  0  0  0
    9.2050   -2.3499    0.0000 C   0  0  0  0  0  0  0  0  0  0  0  0
    7.8960   -3.3010    0.0000 C   0  0  0  0  0  0  0  0  0  0  0  0
    8.8959   -3.3010    0.0000 C   0  0  0  0  0  0  0  0  0  0  0  0
    9.9782   -1.0577    0.0000 C   0  0  0  0  0  0  0  0  0  0  0  0
    6.6359   -2.0409    0.0000 C   0  0  0  0  0  0  0  0  0  0  0  0
   10.1593    0.6649    0.0000 C   0  0  0  0  0  0  0  0  0  0  0  0
   10.7471    1.4739    0.0000 C   0  0  0  0  0  0  0  0  0  0  0  0
   10.5660   -0.2487    0.0000 C   0  0  0  0  0  0  0  0  0  0  0  0
   10.3404    2.3874    0.0000 C   0  0  0  0  0  0  0  0  0  0  0  0
    6.4280   -1.0628    0.0000 C   0  0  0  0  0  0  0  0  0  0  0  0
    5.2690    0.2244    0.0000 C   0  0  2  0  0  0  0  0  0  0  0  0
   10.9281    3.1965    0.0000 C   0  0  0  0  0  0  0  0  0  0  0  0
    8.2149   -0.0396    0.0000 C   0  0  0  0  0  0  0  0  0  0  0  0
    4.3179    0.5334    0.0000 C   0  0  0  0  0  0  0  0  0  0  0  0
    5.4769   -0.7538    0.0000 C   0  0  0  0  0  0  0  0  0  0  0  0
    4.1100    1.5116    0.0000 C   0  0  0  0  0  0  0  0  0  0  0  0
   10.5214    4.1100    0.0000 C   0  0  0  0  0  0  0  0  0  0  0  0
    7.6271    0.7694    0.0000 C   0  0  0  0  0  0  0  0  0  0  0  0
    3.1590    1.8206    0.0000 C   0  0  0  0  0  0  0  0  0  0  0  0
    5.8042    1.8717    0.0000 C   0  0  0  0  0  0  0  0  0  0  0  0
    6.5474    2.5408    0.0000 C   0  0  0  0  0  0  0  0  0  0  0  0
    2.0000    3.1077    0.0000 C   0  0  0  0  0  0  0  0  0  0  0  0
    9.1546   -0.3572    0.0000 H   0  0  0  0  0  0  0  0  0  0  0  0
    8.4265   -0.6814    0.0000 H   0  0  0  0  0  0  0  0  0  0  0  0
    9.7946   -2.1584    0.0000 H   0  0  0  0  0  0  0  0  0  0  0  0
   10.2304   -1.6241    0.0000 H   0  0  0  0  0  0  0  0  0  0  0  0
    9.2604   -3.8026    0.0000 H   0  0  0  0  0  0  0  0  0  0  0  0
    6.1751   -2.4558    0.0000 H   0  0  0  0  0  0  0  0  0  0  0  0
    9.7286    1.1109    0.0000 H   0  0  0  0  0  0  0  0  0  0  0  0
    9.6453    0.3182    0.0000 H   0  0  0  0  0  0  0  0  0  0  0  0
   11.1778    1.0279    0.0000 H   0  0  0  0  0  0  0  0  0  0  0  0
   11.2611    1.8206    0.0000 H   0  0  0  0  0  0  0  0  0  0  0  0
   11.1826   -0.3135    0.0000 H   0  0  0  0  0  0  0  0  0  0  0  0
    9.9097    2.8334    0.0000 H   0  0  0  0  0  0  0  0  0  0  0  0
    9.8264    2.0408    0.0000 H   0  0  0  0  0  0  0  0  0  0  0  0
    6.8887   -0.6479    0.0000 H   0  0  0  0  0  0  0  0  0  0  0  0
    5.8586    0.0328    0.0000 H   0  0  0  0  0  0  0  0  0  0  0  0
   11.3588    2.7505    0.0000 H   0  0  0  0  0  0  0  0  0  0  0  0
   11.4421    3.5432    0.0000 H   0  0  0  0  0  0  0  0  0  0  0  0
    3.6983    0.5118    0.0000 H   0  0  0  0  0  0  0  0  0  0  0  0
    4.2316   -0.0806    0.0000 H   0  0  0  0  0  0  0  0  0  0  0  0
    5.0162   -1.1686    0.0000 H   0  0  0  0  0  0  0  0  0  0  0  0
    4.7296    1.5332    0.0000 H   0  0  0  0  0  0  0  0  0  0  0  0
    4.1963    2.1255    0.0000 H   0  0  0  0  0  0  0  0  0  0  0  0
   11.0878    4.3622    0.0000 H   0  0  0  0  0  0  0  0  0  0  0  0
   10.2692    4.6764    0.0000 H   0  0  0  0  0  0  0  0  0  0  0  0
    9.9550    3.8578    0.0000 H   0  0  0  0  0  0  0  0  0  0  0  0
    8.1287    1.1338    0.0000 H   0  0  0  0  0  0  0  0  0  0  0  0
    7.2627    1.2710    0.0000 H   0  0  0  0  0  0  0  0  0  0  0  0
    7.1255    0.4050    0.0000 H   0  0  0  0  0  0  0  0  0  0  0  0
    6.9622    2.0800    0.0000 H   0  0  0  0  0  0  0  0  0  0  0  0
    7.0081    2.9557    0.0000 H   0  0  0  0  0  0  0  0  0  0  0  0
    6.1325    3.0015    0.0000 H   0  0  0  0  0  0  0  0  0  0  0  0
    2.1916    3.6974    0.0000 H   0  0  0  0  0  0  0  0  0  0  0  0
    1.4103    3.2993    0.0000 H   0  0  0  0  0  0  0  0  0  0  0  0
    1.8084    2.5181    0.0000 H   0  0  0  0  0  0  0  0  0  0  0  0
  8  1  1  1  0  0  0
  1 23  1  0  0  0  0
  2 12  2  0  0  0  0
 21  3  1  1  0  0  0
  3 30  1  0  0  0  0
  4 23  2  0  0  0  0
  5 29  1  0  0  0  0
  5 32  1  0  0  0  0
  6 29  2  0  0  0  0
  7 30  2  0  0  0  0
  8  9  1  0  0  0  0
  8 10  1  0  0  0  0
  8 11  1  0  0  0  0
  9 14  1  0  0  0  0
  9 33  1  0  0  0  0
  9 34  1  0  0  0  0
 10 12  1  0  0  0  0
 10 15  2  0  0  0  0
 11 13  2  0  0  0  0
 11 35  1  0  0  0  0
 12 13  1  0  0  0  0
 13 37  1  0  0  0  0
 14 18  2  0  0  0  0
 14 36  1  0  0  0  0
 15 20  1  0  0  0  0
 15 38  1  0  0  0  0
 16 17  1  0  0  0  0
 16 18  1  0  0  0  0
 16 39  1  0  0  0  0
 16 40  1  0  0  0  0
 17 19  1  0  0  0  0
 17 41  1  0  0  0  0
 17 42  1  0  0  0  0
 18 43  1  0  0  0  0
 19 22  1  0  0  0  0
 19 44  1  0  0  0  0
 19 45  1  0  0  0  0
 20 25  2  0  0  0  0
 20 46  1  0  0  0  0
 21 24  1  0  0  0  0
 21 25  1  0  0  0  0
 21 47  1  0  0  0  0
 22 27  1  0  0  0  0
 22 48  1  0  0  0  0
 22 49  1  0  0  0  0
 23 28  1  0  0  0  0
 24 26  1  0  0  0  0
 24 50  1  0  0  0  0
 24 51  1  0  0  0  0
 25 52  1  0  0  0  0
 26 29  1  0  0  0  0
 26 53  1  0  0  0  0
 26 54  1  0  0  0  0
 27 55  1  0  0  0  0
 27 56  1  0  0  0  0
 27 57  1  0  0  0  0
 28 58  1  0  0  0  0
 28 59  1  0  0  0  0
 28 60  1  0  0  0  0
 30 31  1  0  0  0  0
 31 61  1  0  0  0  0
 31 62  1  0  0  0  0
 31 63  1  0  0  0  0
 32 64  1  0  0  0  0
 32 65  1  0  0  0  0
 32 66  1  0  0  0  0
M  END
> <PUBCHEM_COMPOUND_CID>
5283218

> <PUBCHEM_COMPOUND_CANONICALIZED>
1

> <PUBCHEM_CACTVS_COMPLEXITY>
788

> <PUBCHEM_CACTVS_HBOND_ACCEPTOR>
7

> <PUBCHEM_CACTVS_HBOND_DONOR>
0

> <PUBCHEM_CACTVS_ROTATABLE_BOND>
16

> <PUBCHEM_CACTVS_SUBSKEYS>
AAADcfB4OAAAAAAAAAAAAAAAAAAAAQAAAAAAAAAAAAAAAAAAAAAAGgAAAAAADFSggAICCAAABACIAqDSCAAAAAAgAAAICAEAAEgIBBYAIQACEAAE4AAIoYPKAAAOAAAAAAAAAAAAAAAAAAAAAAAAAAAAAA==

> <PUBCHEM_IUPAC_OPENEYE_NAME>
methyl (E,4R,7E)-4-acetoxy-7-[(2S)-2-acetoxy-2-[(Z)-oct-2-enyl]-5-oxo-cyclopent-3-en-1-ylidene]hept-5-enoate

> <PUBCHEM_IUPAC_CAS_NAME>
(E,4R,7E)-4-acetyloxy-7-[(2S)-2-acetyloxy-2-[(Z)-oct-2-enyl]-5-oxo-1-cyclopent-3-enylidene]-5-heptenoic acid methyl ester

> <PUBCHEM_IUPAC_NAME>
methyl (E,4R,7E)-4-acetyloxy-7-[(2S)-2-acetyloxy-2-[(Z)-oct-2-enyl]-5-oxocyclopent-3-en-1-ylidene]hept-5-enoate

> <PUBCHEM_IUPAC_SYSTEMATIC_NAME>
methyl (E,4R,7E)-4-acetyloxy-7-[(2S)-2-acetyloxy-2-[(Z)-oct-2-enyl]-5-oxidanylidene-cyclopent-3-en-1-ylidene]hept-5-enoate

> <PUBCHEM_IUPAC_TRADITIONAL_NAME>
(E,4R,7E)-4-acetoxy-7-[(2S)-2-acetoxy-5-keto-2-[(Z)-oct-2-enyl]cyclopent-3-en-1-ylidene]hept-5-enoic acid methyl ester

> <PUBCHEM_IUPAC_INCHI>
InChI=1S/C25H34O7/c1-5-6-7-8-9-10-17-25(32-20(3)27)18-16-23(28)22(25)13-11-12-21(31-19(2)26)14-15-24(29)30-4/h9-13,16,18,21H,5-8,14-15,17H2,1-4H3/b10-9-,12-11+,22-13-/t21-,25-/m0/s1

> <PUBCHEM_IUPAC_INCHIKEY>
QXSYLWTUKSQQCP-VZCZYXORSA-N

> <PUBCHEM_XLOGP3_AA>
4.3

> <PUBCHEM_EXACT_MASS>
446.230453

> <PUBCHEM_MOLECULAR_FORMULA>
C25H34O7

> <PUBCHEM_MOLECULAR_WEIGHT>
446.53326

> <PUBCHEM_OPENEYE_CAN_SMILES>
CCCCCC=CCC1(C=CC(=O)C1=CC=CC(CCC(=O)OC)OC(=O)C)OC(=O)C

> <PUBCHEM_OPENEYE_ISO_SMILES>
CCCCC/C=C\C[C@@]\1(C=CC(=O)/C1=C/C=C/[C@@H](CCC(=O)OC)OC(=O)C)OC(=O)C

> <PUBCHEM_CACTVS_TPSA>
96

> <PUBCHEM_MONOISOTOPIC_WEIGHT>
446.230453

> <PUBCHEM_TOTAL_CHARGE>
0

> <PUBCHEM_HEAVY_ATOM_COUNT>
32

> <PUBCHEM_ATOM_DEF_STEREO_COUNT>
2

> <PUBCHEM_ATOM_UDEF_STEREO_COUNT>
0

> <PUBCHEM_BOND_DEF_STEREO_COUNT>
3

> <PUBCHEM_BOND_UDEF_STEREO_COUNT>
0

> <PUBCHEM_ISOTOPIC_ATOM_COUNT>
0

> <PUBCHEM_COMPONENT_COUNT>
1

> <PUBCHEM_CACTVS_TAUTO_COUNT>
1

> <PUBCHEM_COORDINATE_TYPE>
1
5
255

> <PUBCHEM_BONDANNOTATIONS>
8  1  5
21  3  5

$$$$

