17395481
  -OEChem-06241222503D

 38 40  0     0  0  0  0  0  0999 V2000
    5.1003    1.1145    1.0830 S   0  0  0  0  0  0  0  0  0  0  0  0
    2.6707   -1.1451   -1.0244 O   0  0  0  0  0  0  0  0  0  0  0  0
   -0.6483    0.1876    0.9770 O   0  0  0  0  0  0  0  0  0  0  0  0
    0.6519   -1.4808   -2.0603 O   0  0  0  0  0  0  0  0  0  0  0  0
   -2.1978    1.6113    0.0004 N   0  0  0  0  0  0  0  0  0  0  0  0
    1.2039    0.4849   -0.9039 N   0  0  0  0  0  0  0  0  0  0  0  0
    2.3006    0.9227   -0.2223 N   0  0  0  0  0  0  0  0  0  0  0  0
   -3.2270    1.4385    1.0180 C   0  0  0  0  0  0  0  0  0  0  0  0
   -0.0025    1.2426   -1.0763 C   0  0  0  0  0  0  0  0  0  0  0  0
   -0.9630    0.9562    0.0645 C   0  0  0  0  0  0  0  0  0  0  0  0
   -4.1241    0.2728    0.7174 C   0  0  0  0  0  0  0  0  0  0  0  0
   -2.5471    2.5173   -1.0912 C   0  0  0  0  0  0  0  0  0  0  0  0
   -5.2777    0.4589   -0.0444 C   0  0  0  0  0  0  0  0  0  0  0  0
   -3.8040   -0.9964    1.1996 C   0  0  0  0  0  0  0  0  0  0  0  0
    3.1271   -0.0683   -0.3240 C   0  0  0  0  0  0  0  0  0  0  0  0
    1.4086   -0.7821   -1.4050 C   0  0  0  0  0  0  0  0  0  0  0  0
    4.4356   -0.1862    0.1895 C   0  0  0  0  0  0  0  0  0  0  0  0
   -6.1113   -0.6240   -0.3239 C   0  0  0  0  0  0  0  0  0  0  0  0
   -4.6376   -2.0793    0.9198 C   0  0  0  0  0  0  0  0  0  0  0  0
   -5.7911   -1.8930    0.1581 C   0  0  0  0  0  0  0  0  0  0  0  0
    5.3146   -1.2413    0.0809 C   0  0  0  0  0  0  0  0  0  0  0  0
    6.5500   -0.9783    0.7401 C   0  0  0  0  0  0  0  0  0  0  0  0
    6.5682    0.2676    1.3273 C   0  0  0  0  0  0  0  0  0  0  0  0
   -3.8048    2.3645    1.1263 H   0  0  0  0  0  0  0  0  0  0  0  0
   -2.7356    1.2748    1.9855 H   0  0  0  0  0  0  0  0  0  0  0  0
   -0.4664    0.9462   -2.0225 H   0  0  0  0  0  0  0  0  0  0  0  0
    0.2654    2.3032   -1.0901 H   0  0  0  0  0  0  0  0  0  0  0  0
   -2.8997    3.4623   -0.6658 H   0  0  0  0  0  0  0  0  0  0  0  0
   -1.7251    2.7475   -1.7669 H   0  0  0  0  0  0  0  0  0  0  0  0
   -3.3519    2.0645   -1.6771 H   0  0  0  0  0  0  0  0  0  0  0  0
   -5.5404    1.4428   -0.4237 H   0  0  0  0  0  0  0  0  0  0  0  0
   -2.9121   -1.1574    1.7985 H   0  0  0  0  0  0  0  0  0  0  0  0
   -7.0100   -0.4789   -0.9164 H   0  0  0  0  0  0  0  0  0  0  0  0
   -4.3892   -3.0674    1.2961 H   0  0  0  0  0  0  0  0  0  0  0  0
   -6.4403   -2.7361   -0.0592 H   0  0  0  0  0  0  0  0  0  0  0  0
    5.0946   -2.1630   -0.4432 H   0  0  0  0  0  0  0  0  0  0  0  0
    7.3831   -1.6679    0.7816 H   0  0  0  0  0  0  0  0  0  0  0  0
    7.3734    0.7210    1.8880 H   0  0  0  0  0  0  0  0  0  0  0  0
  1 17  1  0  0  0  0
  1 23  1  0  0  0  0
  2 15  1  0  0  0  0
  2 16  1  0  0  0  0
  3 10  2  0  0  0  0
  4 16  2  0  0  0  0
  5  8  1  0  0  0  0
  5 10  1  0  0  0  0
  5 12  1  0  0  0  0
  6  7  1  0  0  0  0
  6  9  1  0  0  0  0
  6 16  1  0  0  0  0
  7 15  2  0  0  0  0
  8 11  1  0  0  0  0
  8 24  1  0  0  0  0
  8 25  1  0  0  0  0
  9 10  1  0  0  0  0
  9 26  1  0  0  0  0
  9 27  1  0  0  0  0
 11 13  2  0  0  0  0
 11 14  1  0  0  0  0
 12 28  1  0  0  0  0
 12 29  1  0  0  0  0
 12 30  1  0  0  0  0
 13 18  1  0  0  0  0
 13 31  1  0  0  0  0
 14 19  2  0  0  0  0
 14 32  1  0  0  0  0
 15 17  1  0  0  0  0
 17 21  2  0  0  0  0
 18 20  2  0  0  0  0
 18 33  1  0  0  0  0
 19 20  1  0  0  0  0
 19 34  1  0  0  0  0
 20 35  1  0  0  0  0
 21 22  1  0  0  0  0
 21 36  1  0  0  0  0
 22 23  2  0  0  0  0
 22 37  1  0  0  0  0
 23 38  1  0  0  0  0
M  END
> <PUBCHEM_COMPOUND_CID>
17395481

> <PUBCHEM_CONFORMER_RMSD>
1.2

> <PUBCHEM_CONFORMER_DIVERSEORDER>
1
61
8
59
55
72
49
19
28
60
9
69
22
38
67
65
62
4
70
18
39
25
34
75
33
44
7
12
3
53
31
73
15
41
14
52
54
11
16
40
29
68
42
17
43
56
51
74
77
37
63
13
46
21
30
71
5
23
57
35
47
2
24
45
48
76
27
64
32
66
26
50
36
20
10
58
6

> <PUBCHEM_MMFF94_PARTIAL_CHARGES>
31
1 -0.08
10 0.57
11 -0.14
12 0.3
13 -0.15
14 -0.15
15 0.69
16 0.78
17 -0.05
18 -0.15
19 -0.15
2 -0.3
20 -0.15
21 -0.15
22 -0.15
23 -0.11
3 -0.57
31 0.15
32 0.15
33 0.15
34 0.15
35 0.15
36 0.15
37 0.15
38 0.15
4 -0.57
5 -0.66
6 -0.3
7 -0.51
8 0.44
9 0.36

> <PUBCHEM_EFFECTIVE_ROTOR_COUNT>
6

> <PUBCHEM_PHARMACOPHORE_FEATURES>
5
1 3 acceptor
1 4 acceptor
5 1 17 21 22 23 rings
5 2 6 7 15 16 rings
6 11 13 14 18 19 20 rings

> <PUBCHEM_HEAVY_ATOM_COUNT>
23

> <PUBCHEM_ATOM_DEF_STEREO_COUNT>
0

> <PUBCHEM_ATOM_UDEF_STEREO_COUNT>
0

> <PUBCHEM_BOND_DEF_STEREO_COUNT>
0

> <PUBCHEM_BOND_UDEF_STEREO_COUNT>
0

> <PUBCHEM_ISOTOPIC_ATOM_COUNT>
0

> <PUBCHEM_COMPONENT_COUNT>
1

> <PUBCHEM_CACTVS_TAUTO_COUNT>
1

> <PUBCHEM_CONFORMER_ID>
01096F1900000001

> <PUBCHEM_MMFF94_ENERGY>
48.3172

> <PUBCHEM_FEATURE_SELFOVERLAP>
25.371

> <PUBCHEM_SHAPE_FINGERPRINT>
10 15 18187654579127381904
10066227 112 10807929362660602682
10447042 23 14189576347760276496
10613725 11 11887957657113289994
12166972 35 16343411805318997975
12390115 104 8574443027996275595
12596602 18 18334577971150132696
12616971 3 17631997707507679525
12670543 26 11095887072971283280
12838863 1 18337680702986706983
12954195 1 12535364418647890735
13583140 156 18269287896729572500
13914758 101 16988571238063522653
13964095 4 10231756704083662912
14251751 18 18341611499292561209
14251752 14 10663829576410738754
14294032 229 16485864704045619885
14848160 23 18341896272983444731
14933364 13 8790886297800745914
15048467 5 7781515919146566058
15183329 4 12679469693838512865
15188451 53 18060708290472352872
16760501 71 17822300016265385520
17349148 13 16845281752685772648
17834072 8 12895354391020885010
17857418 61 17917993892815630314
17913733 40 16877942758817100534
18222031 100 16845572024478237572
18927931 339 18059564819854269705
19377110 9 16298389080072218438
19489759 90 17917712426481815929
20028762 73 18343864407635797922
20281389 69 6483355508358377850
20621476 91 18341900679456457568
21365058 27 14707205483297529852
21424621 283 5978383920156901694
21623969 137 17748826323842871078
21637258 2 17132122351131242584
21756936 100 7420944258104443773
22061861 79 13183020731040855944
22079108 93 17022906735593775948
22224240 67 17240487991902501887
23198884 109 12319738072765009831
23402539 116 18202565081606812461
23559900 14 18200878357935286281
29717793 49 15267060376554453234
3004659 81 17131833140190431450
3009799 131 12391511975876297230
312425 54 18263073473846191891
32948 21 10231755578680918288
339767 52 18060139829954928915
392239 28 17167860825092616355
4280585 95 18202005400424346133
4325135 7 17603869991986097585
4340502 62 17458343044165883334
44062 13 13829835882284027217
474229 33 17894912927387400575
5104073 3 17823406274642984251
559249 180 18059856169403996595
5718773 13 18268430127869451443
7495541 125 18333731291093534352
7808743 9 6988318313968834141
8988823 20 16415479321021640660

> <PUBCHEM_SHAPE_MULTIPOLES>
444.63
17.29
2.01
1.39
7.89
0.23
-0.29
-6.62
6.12
-2.24
-0.18
0.55
-0.13
0.93

> <PUBCHEM_SHAPE_SELFOVERLAP>
944.603

> <PUBCHEM_SHAPE_VOLUME>
250.1

> <PUBCHEM_COORDINATE_TYPE>
2
5
10

$$$$

