5281703
  -OEChem-07051212592D

 33 35  0     0  0  0  0  0  0999 V2000
    6.0290   -0.9259    0.0000 O   0  0  0  0  0  0  0  0  0  0  0  0
    4.2690   -1.8913    0.0000 O   0  0  0  0  0  0  0  0  0  0  0  0
    4.2690    2.1087    0.0000 O   0  0  0  0  0  0  0  0  0  0  0  0
    2.5369   -0.8913    0.0000 O   0  0  0  0  0  0  0  0  0  0  0  0
    6.0174    2.1433    0.0000 O   0  0  0  0  0  0  0  0  0  0  0  0
    5.1350    0.6087    0.0000 C   0  0  0  0  0  0  0  0  0  0  0  0
    5.1350   -0.3913    0.0000 C   0  0  0  0  0  0  0  0  0  0  0  0
    6.9350   -0.4121    0.0000 C   0  0  0  0  0  0  0  0  0  0  0  0
    4.2690   -0.8913    0.0000 C   0  0  0  0  0  0  0  0  0  0  0  0
    6.0290    1.1434    0.0000 C   0  0  0  0  0  0  0  0  0  0  0  0
    4.2690    1.1087    0.0000 C   0  0  0  0  0  0  0  0  0  0  0  0
    6.9350    0.6296    0.0000 C   0  0  0  0  0  0  0  0  0  0  0  0
    7.7991   -0.9154    0.0000 C   0  0  0  0  0  0  0  0  0  0  0  0
    3.4030   -0.3913    0.0000 C   0  0  0  0  0  0  0  0  0  0  0  0
    3.4030    0.6087    0.0000 C   0  0  0  0  0  0  0  0  0  0  0  0
    7.7953   -1.9154    0.0000 C   0  0  0  0  0  0  0  0  0  0  0  0
    8.6671   -0.4188    0.0000 C   0  0  0  0  0  0  0  0  0  0  0  0
    8.6594   -2.4187    0.0000 C   0  0  0  0  0  0  0  0  0  0  0  0
    9.5312   -0.9221    0.0000 C   0  0  0  0  0  0  0  0  0  0  0  0
    9.5273   -1.9221    0.0000 C   0  0  0  0  0  0  0  0  0  0  0  0
    3.4030   -2.3913    0.0000 C   0  0  0  0  0  0  0  0  0  0  0  0
    7.4708    0.9416    0.0000 H   0  0  0  0  0  0  0  0  0  0  0  0
    2.8660    0.9187    0.0000 H   0  0  0  0  0  0  0  0  0  0  0  0
    7.2571   -2.2233    0.0000 H   0  0  0  0  0  0  0  0  0  0  0  0
    8.6694    0.2012    0.0000 H   0  0  0  0  0  0  0  0  0  0  0  0
    8.6570   -3.0387    0.0000 H   0  0  0  0  0  0  0  0  0  0  0  0
   10.0693   -0.6142    0.0000 H   0  0  0  0  0  0  0  0  0  0  0  0
   10.0630   -2.2342    0.0000 H   0  0  0  0  0  0  0  0  0  0  0  0
    3.7320    2.4187    0.0000 H   0  0  0  0  0  0  0  0  0  0  0  0
    2.0000   -0.5813    0.0000 H   0  0  0  0  0  0  0  0  0  0  0  0
    3.0930   -1.8543    0.0000 H   0  0  0  0  0  0  0  0  0  0  0  0
    2.8660   -2.7013    0.0000 H   0  0  0  0  0  0  0  0  0  0  0  0
    3.7130   -2.9282    0.0000 H   0  0  0  0  0  0  0  0  0  0  0  0
  1  7  1  0  0  0  0
  1  8  1  0  0  0  0
  2  9  1  0  0  0  0
  2 21  1  0  0  0  0
  3 11  1  0  0  0  0
  3 29  1  0  0  0  0
  4 14  1  0  0  0  0
  4 30  1  0  0  0  0
  5 10  2  0  0  0  0
  6  7  2  0  0  0  0
  6 10  1  0  0  0  0
  6 11  1  0  0  0  0
  7  9  1  0  0  0  0
  8 12  2  0  0  0  0
  8 13  1  0  0  0  0
  9 14  2  0  0  0  0
 10 12  1  0  0  0  0
 11 15  2  0  0  0  0
 12 22  1  0  0  0  0
 13 16  2  0  0  0  0
 13 17  1  0  0  0  0
 14 15  1  0  0  0  0
 15 23  1  0  0  0  0
 16 18  1  0  0  0  0
 16 24  1  0  0  0  0
 17 19  2  0  0  0  0
 17 25  1  0  0  0  0
 18 20  2  0  0  0  0
 18 26  1  0  0  0  0
 19 20  1  0  0  0  0
 19 27  1  0  0  0  0
 20 28  1  0  0  0  0
 21 31  1  0  0  0  0
 21 32  1  0  0  0  0
 21 33  1  0  0  0  0
M  END
> <PUBCHEM_COMPOUND_CID>
5281703

> <PUBCHEM_COMPOUND_CANONICALIZED>
1

> <PUBCHEM_CACTVS_COMPLEXITY>
426

> <PUBCHEM_CACTVS_HBOND_ACCEPTOR>
5

> <PUBCHEM_CACTVS_HBOND_DONOR>
2

> <PUBCHEM_CACTVS_ROTATABLE_BOND>
2

> <PUBCHEM_CACTVS_SUBSKEYS>
AAADccB4OAAAAAAAAAAAAAAAAAAAAAAAAAAwYIAAAAAAAACBQAAAGgAACAAADASAmAIyBoAABgCIAqBSAAACCAAkIAAIiAEGiMgNJzaGNRqCeWOl4BULuQfK7LzOIQABCAAIQABCAAIQABCAAAAAAAAAAA==

> <PUBCHEM_IUPAC_OPENEYE_NAME>
5,7-dihydroxy-8-methoxy-2-phenyl-chromen-4-one

> <PUBCHEM_IUPAC_CAS_NAME>
5,7-dihydroxy-8-methoxy-2-phenyl-1-benzopyran-4-one

> <PUBCHEM_IUPAC_NAME>
5,7-dihydroxy-8-methoxy-2-phenylchromen-4-one

> <PUBCHEM_IUPAC_SYSTEMATIC_NAME>
8-methoxy-5,7-bis(oxidanyl)-2-phenyl-chromen-4-one

> <PUBCHEM_IUPAC_TRADITIONAL_NAME>
5,7-dihydroxy-8-methoxy-2-phenyl-chromone

> <PUBCHEM_IUPAC_INCHI>
InChI=1S/C16H12O5/c1-20-15-12(19)7-10(17)14-11(18)8-13(21-16(14)15)9-5-3-2-4-6-9/h2-8,17,19H,1H3

> <PUBCHEM_IUPAC_INCHIKEY>
XLTFNNCXVBYBSX-UHFFFAOYSA-N

> <PUBCHEM_XLOGP3_AA>
3

> <PUBCHEM_EXACT_MASS>
284.068473

> <PUBCHEM_MOLECULAR_FORMULA>
C16H12O5

> <PUBCHEM_MOLECULAR_WEIGHT>
284.26348

> <PUBCHEM_OPENEYE_CAN_SMILES>
COC1=C(C=C(C2=C1OC(=CC2=O)C3=CC=CC=C3)O)O

> <PUBCHEM_OPENEYE_ISO_SMILES>
COC1=C(C=C(C2=C1OC(=CC2=O)C3=CC=CC=C3)O)O

> <PUBCHEM_CACTVS_TPSA>
76

> <PUBCHEM_MONOISOTOPIC_WEIGHT>
284.068473

> <PUBCHEM_TOTAL_CHARGE>
0

> <PUBCHEM_HEAVY_ATOM_COUNT>
21

> <PUBCHEM_ATOM_DEF_STEREO_COUNT>
0

> <PUBCHEM_ATOM_UDEF_STEREO_COUNT>
0

> <PUBCHEM_BOND_DEF_STEREO_COUNT>
0

> <PUBCHEM_BOND_UDEF_STEREO_COUNT>
0

> <PUBCHEM_ISOTOPIC_ATOM_COUNT>
0

> <PUBCHEM_COMPONENT_COUNT>
1

> <PUBCHEM_CACTVS_TAUTO_COUNT>
12

> <PUBCHEM_COORDINATE_TYPE>
1
5
255

> <PUBCHEM_BONDANNOTATIONS>
1  7  8
1  8  8
10  12  8
11  15  8
13  16  8
13  17  8
14  15  8
16  18  8
17  19  8
18  20  8
19  20  8
6  10  8
6  11  8
6  7  8
7  9  8
8  12  8
9  14  8

$$$$

