62921
  -OEChem-07051212542D

 44 45  0     1  0  0  0  0  0999 V2000
    2.2690    2.0691    0.0000 S   0  0  0  0  0  0  0  0  0  0  0  0
    4.8489    4.2818    0.0000 O   0  0  0  0  0  0  0  0  0  0  0  0
    1.4030    5.5691    0.0000 O   0  0  0  0  0  0  0  0  0  0  0  0
    6.0762    3.0786    0.0000 O   0  0  0  0  0  0  0  0  0  0  0  0
    3.1350    5.5691    0.0000 O   0  0  0  0  0  0  0  0  0  0  0  0
    5.0098    8.1910    0.0000 O   0  0  0  0  0  0  0  0  0  0  0  0
    3.1350    3.5691    0.0000 N   0  0  0  0  0  0  0  0  0  0  0  0
    4.8489    1.8564    0.0000 N   0  0  0  0  0  0  0  0  0  0  0  0
    6.2602    0.4393    0.0000 N   0  0  0  0  0  0  0  0  0  0  0  0
    3.1350    2.5691    0.0000 C   0  0  1  0  0  0  0  0  0  0  0  0
    4.1433    2.5650    0.0000 C   0  0  1  0  0  0  0  0  0  0  0  0
    4.1433    3.5733    0.0000 C   0  0  0  0  0  0  0  0  0  0  0  0
    2.2690    4.0691    0.0000 C   0  0  0  0  0  0  0  0  0  0  0  0
    1.4030    2.5691    0.0000 C   0  0  0  0  0  0  0  0  0  0  0  0
    1.4030    3.5691    0.0000 C   0  0  0  0  0  0  0  0  0  0  0  0
    5.8154    2.1133    0.0000 C   0  0  0  0  0  0  0  0  0  0  0  0
    0.5369    4.0691    0.0000 C   0  0  0  0  0  0  0  0  0  0  0  0
    2.2690    5.0691    0.0000 C   0  0  0  0  0  0  0  0  0  0  0  0
    6.5210    1.4047    0.0000 C   0  0  1  0  0  0  0  0  0  0  0  0
    7.4875    1.6615    0.0000 C   0  0  0  0  0  0  0  0  0  0  0  0
    8.1932    0.9530    0.0000 C   0  0  0  0  0  0  0  0  0  0  0  0
    7.7483    2.6269    0.0000 C   0  0  0  0  0  0  0  0  0  0  0  0
    9.1596    1.2098    0.0000 C   0  0  0  0  0  0  0  0  0  0  0  0
    8.7148    2.8838    0.0000 C   0  0  0  0  0  0  0  0  0  0  0  0
    9.4204    2.1752    0.0000 C   0  0  0  0  0  0  0  0  0  0  0  0
    3.3533    1.7476    0.0000 H   0  0  0  0  0  0  0  0  0  0  0  0
    3.9043    1.9929    0.0000 H   0  0  0  0  0  0  0  0  0  0  0  0
    4.6872    1.2579    0.0000 H   0  0  0  0  0  0  0  0  0  0  0  0
    0.7924    2.6768    0.0000 H   0  0  0  0  0  0  0  0  0  0  0  0
    1.1909    1.9865    0.0000 H   0  0  0  0  0  0  0  0  0  0  0  0
    0.8469    4.6061    0.0000 H   0  0  0  0  0  0  0  0  0  0  0  0
    0.0000    4.3791    0.0000 H   0  0  0  0  0  0  0  0  0  0  0  0
    0.2269    3.5322    0.0000 H   0  0  0  0  0  0  0  0  0  0  0  0
    5.9218    1.2455    0.0000 H   0  0  0  0  0  0  0  0  0  0  0  0
    6.6978    0.0000    0.0000 H   0  0  0  0  0  0  0  0  0  0  0  0
    5.6610    0.2801    0.0000 H   0  0  0  0  0  0  0  0  0  0  0  0
    1.4030    6.1891    0.0000 H   0  0  0  0  0  0  0  0  0  0  0  0
    8.0315    0.3544    0.0000 H   0  0  0  0  0  0  0  0  0  0  0  0
    7.3108    3.0662    0.0000 H   0  0  0  0  0  0  0  0  0  0  0  0
    9.5971    0.7705    0.0000 H   0  0  0  0  0  0  0  0  0  0  0  0
    8.8765    3.4823    0.0000 H   0  0  0  0  0  0  0  0  0  0  0  0
   10.0196    2.3344    0.0000 H   0  0  0  0  0  0  0  0  0  0  0  0
    5.5468    8.5010    0.0000 H   0  0  0  0  0  0  0  0  0  0  0  0
    4.4729    8.5010    0.0000 H   0  0  0  0  0  0  0  0  0  0  0  0
  1 10  1  0  0  0  0
  1 14  1  0  0  0  0
  2 12  2  0  0  0  0
  3 18  1  0  0  0  0
  3 37  1  0  0  0  0
  4 16  2  0  0  0  0
  5 18  2  0  0  0  0
  6 43  1  0  0  0  0
  6 44  1  0  0  0  0
  7 10  1  0  0  0  0
  7 12  1  0  0  0  0
  7 13  1  0  0  0  0
 11  8  1  1  0  0  0
  8 16  1  0  0  0  0
  8 28  1  0  0  0  0
 19  9  1  1  0  0  0
  9 35  1  0  0  0  0
  9 36  1  0  0  0  0
 10 11  1  0  0  0  0
 10 26  1  6  0  0  0
 11 12  1  0  0  0  0
 11 27  1  0  0  0  0
 13 15  2  0  0  0  0
 13 18  1  0  0  0  0
 14 15  1  0  0  0  0
 14 29  1  0  0  0  0
 14 30  1  0  0  0  0
 15 17  1  0  0  0  0
 16 19  1  0  0  0  0
 17 31  1  0  0  0  0
 17 32  1  0  0  0  0
 17 33  1  0  0  0  0
 19 20  1  0  0  0  0
 19 34  1  0  0  0  0
 20 21  2  0  0  0  0
 20 22  1  0  0  0  0
 21 23  1  0  0  0  0
 21 38  1  0  0  0  0
 22 24  2  0  0  0  0
 22 39  1  0  0  0  0
 23 25  2  0  0  0  0
 23 40  1  0  0  0  0
 24 25  1  0  0  0  0
 24 41  1  0  0  0  0
 25 42  1  0  0  0  0
M  END
> <PUBCHEM_COMPOUND_CID>
62921

> <PUBCHEM_COMPOUND_CANONICALIZED>
1

> <PUBCHEM_CACTVS_COMPLEXITY>
600

> <PUBCHEM_CACTVS_HBOND_ACCEPTOR>
7

> <PUBCHEM_CACTVS_HBOND_DONOR>
4

> <PUBCHEM_CACTVS_ROTATABLE_BOND>
4

> <PUBCHEM_CACTVS_SUBSKEYS>
AAADceB7OABAAAAAAAAAAAAAAABYAAAAAAAwQAAAAAAQAAABAAAAHgQQCAAADCjF2ASyCIPAAgiIAiXSWACCAABgABAIiIGIBMgKZDqglTGUMABglgC4mQcYiICOAAAAAAAAAAAAAAAAAAAAAAAAAAAAAA==

> <PUBCHEM_IUPAC_OPENEYE_NAME>
(6R,7R)-7-[[(2R)-2-amino-2-phenyl-acetyl]amino]-3-methyl-8-oxo-5-thia-1-azabicyclo[4.2.0]oct-2-ene-2-carboxylic acid hydrate

> <PUBCHEM_IUPAC_CAS_NAME>
(6R,7R)-7-[[(2R)-2-amino-1-oxo-2-phenylethyl]amino]-3-methyl-8-oxo-5-thia-1-azabicyclo[4.2.0]oct-2-ene-2-carboxylic acid hydrate

> <PUBCHEM_IUPAC_NAME>
(6R,7R)-7-[[(2R)-2-amino-2-phenylacetyl]amino]-3-methyl-8-oxo-5-thia-1-azabicyclo[4.2.0]oct-2-ene-2-carboxylic acid hydrate

> <PUBCHEM_IUPAC_SYSTEMATIC_NAME>
(6R,7R)-7-[[(2R)-2-azanyl-2-phenyl-ethanoyl]amino]-3-methyl-8-oxidanylidene-5-thia-1-azabicyclo[4.2.0]oct-2-ene-2-carboxylic acid hydrate

> <PUBCHEM_IUPAC_TRADITIONAL_NAME>
(6R,7R)-7-[[(2R)-2-amino-2-phenyl-acetyl]amino]-8-keto-3-methyl-5-thia-1-azabicyclo[4.2.0]oct-2-ene-2-carboxylic acid hydrate

> <PUBCHEM_IUPAC_INCHI>
InChI=1S/C16H17N3O4S.H2O/c1-8-7-24-15-11(14(21)19(15)12(8)16(22)23)18-13(20)10(17)9-5-3-2-4-6-9;/h2-6,10-11,15H,7,17H2,1H3,(H,18,20)(H,22,23);1H2/t10-,11-,15-;/m1./s1

> <PUBCHEM_IUPAC_INCHIKEY>
AVGYWQBCYZHHPN-CYJZLJNKSA-N

> <PUBCHEM_EXACT_MASS>
365.104542

> <PUBCHEM_MOLECULAR_FORMULA>
C16H19N3O5S

> <PUBCHEM_MOLECULAR_WEIGHT>
365.40416

> <PUBCHEM_OPENEYE_CAN_SMILES>
CC1=C(N2C(C(C2=O)NC(=O)C(C3=CC=CC=C3)N)SC1)C(=O)O.O

> <PUBCHEM_OPENEYE_ISO_SMILES>
CC1=C(N2[C@@H]([C@@H](C2=O)NC(=O)[C@@H](C3=CC=CC=C3)N)SC1)C(=O)O.O

> <PUBCHEM_CACTVS_TPSA>
139

> <PUBCHEM_MONOISOTOPIC_WEIGHT>
365.104542

> <PUBCHEM_TOTAL_CHARGE>
0

> <PUBCHEM_HEAVY_ATOM_COUNT>
25

> <PUBCHEM_ATOM_DEF_STEREO_COUNT>
3

> <PUBCHEM_ATOM_UDEF_STEREO_COUNT>
0

> <PUBCHEM_BOND_DEF_STEREO_COUNT>
0

> <PUBCHEM_BOND_UDEF_STEREO_COUNT>
0

> <PUBCHEM_ISOTOPIC_ATOM_COUNT>
0

> <PUBCHEM_COMPONENT_COUNT>
2

> <PUBCHEM_CACTVS_TAUTO_COUNT>
4

> <PUBCHEM_COORDINATE_TYPE>
1
5
255

> <PUBCHEM_BONDANNOTATIONS>
10  26  6
20  21  8
20  22  8
21  23  8
22  24  8
23  25  8
24  25  8
11  8  5
19  9  5

$$$$

