46173833
  -OEChem-07051213093D

 68 72  0     1  0  0  0  0  0999 V2000
    5.4834    0.2154   -0.5356 O   0  0  0  0  0  0  0  0  0  0  0  0
   -0.4147    2.5674    0.6344 O   0  0  0  0  0  0  0  0  0  0  0  0
    2.9891   -1.4394   -0.9086 O   0  0  0  0  0  0  0  0  0  0  0  0
    5.6784   -1.9395    1.5074 O   0  0  0  0  0  0  0  0  0  0  0  0
   -0.5707    1.6303   -1.4968 O   0  0  0  0  0  0  0  0  0  0  0  0
    2.9938   -1.4895    1.4252 O   0  0  0  0  0  0  0  0  0  0  0  0
   -0.9621    6.3534   -0.8665 O   0  0  0  0  0  0  0  0  0  0  0  0
    0.1189    6.0185    1.7730 O   0  0  0  0  0  0  0  0  0  0  0  0
   -0.0936    4.2066   -2.6284 O   0  0  0  0  0  0  0  0  0  0  0  0
    6.2036   -4.0222   -0.2717 O   0  0  0  0  0  0  0  0  0  0  0  0
    0.3170    2.0053    3.2154 O   0  0  0  0  0  0  0  0  0  0  0  0
   -2.9379    0.7962   -0.9844 O   0  0  0  0  0  0  0  0  0  0  0  0
   -1.1346   -4.0539    0.3505 O   0  0  0  0  0  0  0  0  0  0  0  0
   -5.3628    0.1199   -0.5115 O   0  0  0  0  0  0  0  0  0  0  0  0
    5.0483   -1.9899    0.2230 C   0  0  1  0  0  0  0  0  0  0  0  0
    3.7514   -1.1874    0.2692 C   0  0  1  0  0  0  0  0  0  0  0  0
   -0.2015    5.2156   -0.4569 C   0  0  1  0  0  0  0  0  0  0  0  0
   -0.4729    4.9588    1.0256 C   0  0  1  0  0  0  0  0  0  0  0  0
   -0.6014    4.0111   -1.3093 C   0  0  2  0  0  0  0  0  0  0  0  0
    5.8766   -1.1562   -0.7470 C   0  0  0  0  0  0  0  0  0  0  0  0
    0.1082    3.6106    1.4586 C   0  0  1  0  0  0  0  0  0  0  0  0
    4.2829    0.2385    0.2586 C   0  0  0  0  0  0  0  0  0  0  0  0
   -0.0397    2.7112   -0.7335 C   0  0  1  0  0  0  0  0  0  0  0  0
    4.9103   -3.4479   -0.1897 C   0  0  0  0  0  0  0  0  0  0  0  0
   -0.2471    3.2655    2.9016 C   0  0  0  0  0  0  0  0  0  0  0  0
    1.6557   -1.1709   -0.8522 C   0  0  0  0  0  0  0  0  0  0  0  0
   -0.1803    0.3728   -1.1429 C   0  0  0  0  0  0  0  0  0  0  0  0
   -1.0805   -0.6189   -0.7351 C   0  0  0  0  0  0  0  0  0  0  0  0
    1.1855    0.0939   -1.2001 C   0  0  0  0  0  0  0  0  0  0  0  0
   -0.6092   -1.8863   -0.3862 C   0  0  0  0  0  0  0  0  0  0  0  0
    0.7621   -2.1621   -0.4452 C   0  0  0  0  0  0  0  0  0  0  0  0
   -2.5249   -0.3146   -0.6777 C   0  0  0  0  0  0  0  0  0  0  0  0
   -1.5478   -2.9418    0.0462 C   0  0  0  0  0  0  0  0  0  0  0  0
   -3.4633   -1.3699   -0.2444 C   0  0  0  0  0  0  0  0  0  0  0  0
   -2.9920   -2.6372    0.1045 C   0  0  0  0  0  0  0  0  0  0  0  0
   -4.8346   -1.0941   -0.1848 C   0  0  0  0  0  0  0  0  0  0  0  0
   -3.8920   -3.6288    0.5132 C   0  0  0  0  0  0  0  0  0  0  0  0
   -5.2577   -3.3496    0.5713 C   0  0  0  0  0  0  0  0  0  0  0  0
   -5.7280   -2.0850    0.2229 C   0  0  0  0  0  0  0  0  0  0  0  0
   -6.2158   -4.4063    1.0078 C   0  0  0  0  0  0  0  0  0  0  0  0
    0.8505    5.4780   -0.6209 H   0  0  0  0  0  0  0  0  0  0  0  0
   -1.5530    4.9885    1.2136 H   0  0  0  0  0  0  0  0  0  0  0  0
   -1.6928    3.9495   -1.3972 H   0  0  0  0  0  0  0  0  0  0  0  0
    6.9545   -1.2312   -0.5745 H   0  0  0  0  0  0  0  0  0  0  0  0
    5.6623   -1.3972   -1.7938 H   0  0  0  0  0  0  0  0  0  0  0  0
    1.2033    3.6083    1.3706 H   0  0  0  0  0  0  0  0  0  0  0  0
    3.6050    0.9793   -0.1665 H   0  0  0  0  0  0  0  0  0  0  0  0
    4.5553    0.5783    1.2645 H   0  0  0  0  0  0  0  0  0  0  0  0
    1.0544    2.7221   -0.8195 H   0  0  0  0  0  0  0  0  0  0  0  0
    4.4244   -3.5560   -1.1642 H   0  0  0  0  0  0  0  0  0  0  0  0
    4.3403   -4.0091    0.5581 H   0  0  0  0  0  0  0  0  0  0  0  0
   -1.3321    3.1863    3.0277 H   0  0  0  0  0  0  0  0  0  0  0  0
    0.1451    4.0115    3.5992 H   0  0  0  0  0  0  0  0  0  0  0  0
    6.5290   -2.4062    1.4388 H   0  0  0  0  0  0  0  0  0  0  0  0
    2.5432   -0.6781    1.7146 H   0  0  0  0  0  0  0  0  0  0  0  0
    1.8861    0.8401   -1.5630 H   0  0  0  0  0  0  0  0  0  0  0  0
   -1.9042    6.1484   -0.7402 H   0  0  0  0  0  0  0  0  0  0  0  0
    1.0819    5.9746    1.6457 H   0  0  0  0  0  0  0  0  0  0  0  0
    0.8770    4.2354   -2.5767 H   0  0  0  0  0  0  0  0  0  0  0  0
    1.1466   -3.1440   -0.1803 H   0  0  0  0  0  0  0  0  0  0  0  0
    6.0883   -4.9531   -0.5278 H   0  0  0  0  0  0  0  0  0  0  0  0
    0.0753    1.8036    4.1354 H   0  0  0  0  0  0  0  0  0  0  0  0
   -3.5380   -4.6190    0.7897 H   0  0  0  0  0  0  0  0  0  0  0  0
   -6.7922   -1.8651    0.2694 H   0  0  0  0  0  0  0  0  0  0  0  0
   -5.8727   -5.4002    0.7007 H   0  0  0  0  0  0  0  0  0  0  0  0
   -7.2037   -4.2565    0.5591 H   0  0  0  0  0  0  0  0  0  0  0  0
   -6.3206   -4.3913    2.0972 H   0  0  0  0  0  0  0  0  0  0  0  0
   -4.6662    0.7388   -0.7761 H   0  0  0  0  0  0  0  0  0  0  0  0
  1 20  1  0  0  0  0
  1 22  1  0  0  0  0
  2 21  1  0  0  0  0
  2 23  1  0  0  0  0
  3 16  1  0  0  0  0
  3 26  1  0  0  0  0
  4 15  1  0  0  0  0
  4 54  1  0  0  0  0
  5 23  1  0  0  0  0
  5 27  1  0  0  0  0
  6 16  1  0  0  0  0
  6 55  1  0  0  0  0
  7 17  1  0  0  0  0
  7 57  1  0  0  0  0
  8 18  1  0  0  0  0
  8 58  1  0  0  0  0
  9 19  1  0  0  0  0
  9 59  1  0  0  0  0
 10 24  1  0  0  0  0
 10 61  1  0  0  0  0
 11 25  1  0  0  0  0
 11 62  1  0  0  0  0
 12 32  2  0  0  0  0
 13 33  2  0  0  0  0
 14 36  1  0  0  0  0
 14 68  1  0  0  0  0
 15 16  1  0  0  0  0
 15 20  1  0  0  0  0
 15 24  1  0  0  0  0
 16 22  1  0  0  0  0
 17 18  1  0  0  0  0
 17 19  1  0  0  0  0
 17 41  1  0  0  0  0
 18 21  1  0  0  0  0
 18 42  1  0  0  0  0
 19 23  1  0  0  0  0
 19 43  1  0  0  0  0
 20 44  1  0  0  0  0
 20 45  1  0  0  0  0
 21 25  1  0  0  0  0
 21 46  1  0  0  0  0
 22 47  1  0  0  0  0
 22 48  1  0  0  0  0
 23 49  1  0  0  0  0
 24 50  1  0  0  0  0
 24 51  1  0  0  0  0
 25 52  1  0  0  0  0
 25 53  1  0  0  0  0
 26 29  1  0  0  0  0
 26 31  2  0  0  0  0
 27 28  1  0  0  0  0
 27 29  2  0  0  0  0
 28 30  2  0  0  0  0
 28 32  1  0  0  0  0
 29 56  1  0  0  0  0
 30 31  1  0  0  0  0
 30 33  1  0  0  0  0
 31 60  1  0  0  0  0
 32 34  1  0  0  0  0
 33 35  1  0  0  0  0
 34 35  2  0  0  0  0
 34 36  1  0  0  0  0
 35 37  1  0  0  0  0
 36 39  2  0  0  0  0
 37 38  2  0  0  0  0
 37 63  1  0  0  0  0
 38 39  1  0  0  0  0
 38 40  1  0  0  0  0
 39 64  1  0  0  0  0
 40 65  1  0  0  0  0
 40 66  1  0  0  0  0
 40 67  1  0  0  0  0
M  END
> <PUBCHEM_COMPOUND_CID>
46173833

> <PUBCHEM_CONFORMER_RMSD>
1

> <PUBCHEM_CONFORMER_DIVERSEORDER>
1
83
69
49
47
30
53
80
77
93
13
35
64
48
10
79
61
70
66
43
33
42
73
23
63
57
85
86
44
84
68
24
65
92
89
75
9
74
37
54
26
45
72
87
14
60
6
17
25
7
58
29
27
38
90
71
88
16
31
50
91
18
36
22
19
62
52
34
8
67
81
82
39
12
59
32
55
11
46
51
21
15
3
28
76
56
40
5
78
20
41
4
2

> <PUBCHEM_MMFF94_PARTIAL_CHARGES>
52
1 -0.56
10 -0.68
11 -0.68
12 -0.57
13 -0.57
14 -0.53
15 0.28
16 0.56
17 0.28
18 0.28
19 0.28
2 -0.56
20 0.28
21 0.28
22 0.28
23 0.56
24 0.28
25 0.28
26 0.08
27 0.08
28 0.09
29 -0.15
3 -0.36
30 0.09
31 -0.15
32 0.4
33 0.4
34 0.09
35 0.09
36 0.08
37 -0.15
38 -0.14
39 -0.15
4 -0.68
40 0.14
5 -0.36
54 0.4
55 0.4
56 0.15
57 0.4
58 0.4
59 0.4
6 -0.68
60 0.15
61 0.4
62 0.4
63 0.15
64 0.15
68 0.45
7 -0.68
8 -0.68
9 -0.68

> <PUBCHEM_EFFECTIVE_ROTOR_COUNT>
8.2

> <PUBCHEM_PHARMACOPHORE_FEATURES>
26
1 1 acceptor
1 10 acceptor
1 10 donor
1 11 acceptor
1 11 donor
1 12 acceptor
1 13 acceptor
1 14 donor
1 2 acceptor
1 3 acceptor
1 4 acceptor
1 4 donor
1 5 acceptor
1 6 acceptor
1 6 donor
1 7 acceptor
1 7 donor
1 8 acceptor
1 8 donor
1 9 acceptor
1 9 donor
5 1 15 16 20 22 rings
6 2 17 18 19 21 23 rings
6 26 27 28 29 30 31 rings
6 28 30 32 33 34 35 rings
6 34 35 36 37 38 39 rings

> <PUBCHEM_HEAVY_ATOM_COUNT>
40

> <PUBCHEM_ATOM_DEF_STEREO_COUNT>
7

> <PUBCHEM_ATOM_UDEF_STEREO_COUNT>
0

> <PUBCHEM_BOND_DEF_STEREO_COUNT>
0

> <PUBCHEM_BOND_UDEF_STEREO_COUNT>
0

> <PUBCHEM_ISOTOPIC_ATOM_COUNT>
0

> <PUBCHEM_COMPONENT_COUNT>
1

> <PUBCHEM_CACTVS_TAUTO_COUNT>
12

> <PUBCHEM_CONFORMER_ID>
02C08E8900000001

> <PUBCHEM_MMFF94_ENERGY>
150.3966

> <PUBCHEM_FEATURE_SELFOVERLAP>
132.122

> <PUBCHEM_SHAPE_FINGERPRINT>
11049842 53 17047950053910030604
11297750 10 18128828460736638063
11331351 85 17968924332208314055
11456790 92 18340192026488812899
11582403 64 15620042314720424244
12156800 1 16301717271773765568
12166972 35 18190735345910107923
12788726 201 18194979644991106710
13140716 1 18411699910965319479
13383668 362 17834398913057638563
14068700 675 18202283611131135422
14394314 77 18413382129527888399
14849402 71 18122613956349338387
14955137 171 18337106778964121671
150020 26 17901398796414480041
15064986 96 17977128785259482561
15131766 46 15721680852428635138
15200665 1 17981600782026449281
15347590 135 18199202715536938074
15927050 60 17256518626701585150
18393751 57 17402322072022784732
19315092 285 17202229398662038362
20600515 1 18335405907595514837
21033648 29 17749398048494405451
21120745 212 18265593494900827364
21703447 108 17618783561495262355
21716022 299 18058148558594049140
21796203 349 17911196639071834227
23559900 14 18269281154174490023
23845131 108 17474951403147170589
24771750 20 17482259414655217108
249999 5 17834390121348422343
283562 15 18194969770977318607
3418910 222 18413951690507233764
3552219 110 18115291299255891512
4058900 60 16966043593520372312
4408954 87 17391613855908327441
469060 322 18267856371076401176
5171179 24 18194981660106209695
6004065 56 18262529104565533967
6086070 43 18270417009910665383
79837 15 17906174310505404796
9777508 108 17978511167522312806
9961470 85 17328043456307274290
9962374 69 18121220871102703615

> <PUBCHEM_SHAPE_MULTIPOLES>
741.01
11.86
8.89
1.78
3.13
14.56
-1.01
-21.77
-1.66
-3.35
-1.45
-0.59
2.55
1.25

> <PUBCHEM_SHAPE_SELFOVERLAP>
1634.371

> <PUBCHEM_SHAPE_VOLUME>
394.4

> <PUBCHEM_COORDINATE_TYPE>
2
5
10

$$$$

