442113
  -OEChem-07051212572D

 37 39  0     1  0  0  0  0  0999 V2000
    9.4377   -0.8290    0.0000 O   0  0  0  0  0  0  0  0  0  0  0  0
    4.3213    0.0822    0.0000 O   0  0  0  0  0  0  0  0  0  0  0  0
    3.9547    1.7750    0.0000 O   0  0  0  0  0  0  0  0  0  0  0  0
    8.3260    0.7085    0.0000 N   0  0  3  0  0  0  0  0  0  0  0  0
    2.6720    0.6111    0.0000 N   0  0  0  0  0  0  0  0  0  0  0  0
    7.8260   -0.8304    0.0000 C   0  0  1  0  0  0  0  0  0  0  0  0
    8.6350   -0.2426    0.0000 C   0  0  2  0  0  0  0  0  0  0  0  0
    8.1357   -1.7750    0.0000 C   0  0  0  0  0  0  0  0  0  0  0  0
    7.0170   -0.2426    0.0000 C   0  0  0  0  0  0  0  0  0  0  0  0
    9.1297   -1.7741    0.0000 C   0  0  0  0  0  0  0  0  0  0  0  0
    7.3260    0.7085    0.0000 C   0  0  0  0  0  0  0  0  0  0  0  0
    7.0170   -1.4181    0.0000 C   0  0  0  0  0  0  0  0  0  0  0  0
    6.0016   -0.4748    0.0000 C   0  0  0  0  0  0  0  0  0  0  0  0
    8.9138    1.5175    0.0000 C   0  0  0  0  0  0  0  0  0  0  0  0
    6.6410    1.4932    0.0000 C   0  0  0  0  0  0  0  0  0  0  0  0
    5.2987    0.2939    0.0000 C   0  0  0  0  0  0  0  0  0  0  0  0
    5.6205    1.2845    0.0000 C   0  0  0  0  0  0  0  0  0  0  0  0
    3.6493    0.8227    0.0000 C   0  0  0  0  0  0  0  0  0  0  0  0
    2.0000    1.3516    0.0000 C   0  0  0  0  0  0  0  0  0  0  0  0
    9.3234    0.2562    0.0000 H   0  0  0  0  0  0  0  0  0  0  0  0
    7.5295   -1.9051    0.0000 H   0  0  0  0  0  0  0  0  0  0  0  0
    8.2014   -2.3915    0.0000 H   0  0  0  0  0  0  0  0  0  0  0  0
    9.0651   -2.3908    0.0000 H   0  0  0  0  0  0  0  0  0  0  0  0
    9.7362   -1.9032    0.0000 H   0  0  0  0  0  0  0  0  0  0  0  0
    6.6526   -0.9166    0.0000 H   0  0  0  0  0  0  0  0  0  0  0  0
    6.5154   -1.7826    0.0000 H   0  0  0  0  0  0  0  0  0  0  0  0
    7.3814   -1.9197    0.0000 H   0  0  0  0  0  0  0  0  0  0  0  0
    5.8168   -1.0667    0.0000 H   0  0  0  0  0  0  0  0  0  0  0  0
    9.4154    1.1531    0.0000 H   0  0  0  0  0  0  0  0  0  0  0  0
    9.2782    2.0191    0.0000 H   0  0  0  0  0  0  0  0  0  0  0  0
    8.4122    1.8819    0.0000 H   0  0  0  0  0  0  0  0  0  0  0  0
    6.8394    2.0806    0.0000 H   0  0  0  0  0  0  0  0  0  0  0  0
    5.2075    1.7469    0.0000 H   0  0  0  0  0  0  0  0  0  0  0  0
    2.4827    0.0207    0.0000 H   0  0  0  0  0  0  0  0  0  0  0  0
    2.4592    1.7683    0.0000 H   0  0  0  0  0  0  0  0  0  0  0  0
    1.5834    1.8108    0.0000 H   0  0  0  0  0  0  0  0  0  0  0  0
    1.5408    0.9350    0.0000 H   0  0  0  0  0  0  0  0  0  0  0  0
  1  7  1  0  0  0  0
  1 10  1  0  0  0  0
  2 16  1  0  0  0  0
  2 18  1  0  0  0  0
  3 18  2  0  0  0  0
  4  7  1  0  0  0  0
  4 11  1  0  0  0  0
  4 14  1  0  0  0  0
  5 18  1  0  0  0  0
  5 19  1  0  0  0  0
  5 34  1  0  0  0  0
  6  7  1  0  0  0  0
  6  8  1  0  0  0  0
  6  9  1  0  0  0  0
  6 12  1  6  0  0  0
  7 20  1  6  0  0  0
  8 10  1  0  0  0  0
  8 21  1  0  0  0  0
  8 22  1  0  0  0  0
  9 11  2  0  0  0  0
  9 13  1  0  0  0  0
 10 23  1  0  0  0  0
 10 24  1  0  0  0  0
 11 15  1  0  0  0  0
 12 25  1  0  0  0  0
 12 26  1  0  0  0  0
 12 27  1  0  0  0  0
 13 16  2  0  0  0  0
 13 28  1  0  0  0  0
 14 29  1  0  0  0  0
 14 30  1  0  0  0  0
 14 31  1  0  0  0  0
 15 17  2  0  0  0  0
 15 32  1  0  0  0  0
 16 17  1  0  0  0  0
 17 33  1  0  0  0  0
 19 35  1  0  0  0  0
 19 36  1  0  0  0  0
 19 37  1  0  0  0  0
M  END
> <PUBCHEM_COMPOUND_CID>
442113

> <PUBCHEM_COMPOUND_CANONICALIZED>
1

> <PUBCHEM_CACTVS_COMPLEXITY>
376

> <PUBCHEM_CACTVS_HBOND_ACCEPTOR>
4

> <PUBCHEM_CACTVS_HBOND_DONOR>
1

> <PUBCHEM_CACTVS_ROTATABLE_BOND>
2

> <PUBCHEM_CACTVS_SUBSKEYS>
AAADceBzMAAAAAAAAAAAAAAAAAAAAWJAAAAwAAAAAAAWAFgBAAAAHgAQAAAADgzhmAYyzoPABACIAiRCWACCCAAhIgAIiIAObIkMJiLEsZuOMihkwhHI6Aew8P8PgEABAAACAAAAgAIAAAQAAAAAAAAAAA==

> <PUBCHEM_IUPAC_OPENEYE_NAME>
[(3aS,8bS)-4,8b-dimethyl-2,3a-dihydro-1H-furo[2,3-b]indol-7-yl] N-methylcarbamate

> <PUBCHEM_IUPAC_CAS_NAME>
N-methylcarbamic acid [(3aS,8bS)-4,8b-dimethyl-2,3a-dihydro-1H-furo[2,3-b]indol-7-yl] ester

> <PUBCHEM_IUPAC_NAME>
[(3aS,8bS)-4,8b-dimethyl-2,3a-dihydro-1H-furo[2,3-b]indol-7-yl] N-methylcarbamate

> <PUBCHEM_IUPAC_SYSTEMATIC_NAME>
[(3aS,8bS)-4,8b-dimethyl-2,3a-dihydro-1H-furo[2,3-b]indol-7-yl] N-methylcarbamate

> <PUBCHEM_IUPAC_TRADITIONAL_NAME>
N-methylcarbamic acid [(3aS,8bS)-4,8b-dimethyl-2,3a-dihydro-1H-fur[2,3-b]indol-7-yl] ester

> <PUBCHEM_IUPAC_INCHI>
InChI=1S/C14H18N2O3/c1-14-6-7-18-12(14)16(3)11-5-4-9(8-10(11)14)19-13(17)15-2/h4-5,8,12H,6-7H2,1-3H3,(H,15,17)/t12-,14-/m0/s1

> <PUBCHEM_IUPAC_INCHIKEY>
LXTKNVLLWOLCOV-JSGCOSHPSA-N

> <PUBCHEM_XLOGP3>
0.6

> <PUBCHEM_EXACT_MASS>
262.131742

> <PUBCHEM_MOLECULAR_FORMULA>
C14H18N2O3

> <PUBCHEM_MOLECULAR_WEIGHT>
262.30432

> <PUBCHEM_OPENEYE_CAN_SMILES>
CC12CCOC1N(C3=C2C=C(C=C3)OC(=O)NC)C

> <PUBCHEM_OPENEYE_ISO_SMILES>
C[C@@]12CCO[C@@H]1N(C3=C2C=C(C=C3)OC(=O)NC)C

> <PUBCHEM_CACTVS_TPSA>
50.8

> <PUBCHEM_MONOISOTOPIC_WEIGHT>
262.131742

> <PUBCHEM_TOTAL_CHARGE>
0

> <PUBCHEM_HEAVY_ATOM_COUNT>
19

> <PUBCHEM_ATOM_DEF_STEREO_COUNT>
2

> <PUBCHEM_ATOM_UDEF_STEREO_COUNT>
0

> <PUBCHEM_BOND_DEF_STEREO_COUNT>
0

> <PUBCHEM_BOND_UDEF_STEREO_COUNT>
0

> <PUBCHEM_ISOTOPIC_ATOM_COUNT>
0

> <PUBCHEM_COMPONENT_COUNT>
1

> <PUBCHEM_CACTVS_TAUTO_COUNT>
2

> <PUBCHEM_COORDINATE_TYPE>
1
5
255

> <PUBCHEM_BONDANNOTATIONS>
11  15  8
13  16  8
15  17  8
16  17  8
6  12  6
7  20  6
9  11  8
9  13  8

$$$$

