3358
  -OEChem-06251223222D

 98105  0     0  0  0  0  0  0999 V2000
   20.2072   -3.2641    0.0000 O   0  0  0  0  0  0  0  0  0  0  0  0
    4.7968    3.2641    0.0000 O   0  0  0  0  0  0  0  0  0  0  0  0
   15.5321    0.2617    0.0000 N   0  3  0  0  0  0  0  0  0  0  0  0
    9.4719   -0.2617    0.0000 N   0  3  0  0  0  0  0  0  0  0  0  0
   18.1282    0.7717    0.0000 N   0  3  0  0  0  0  0  0  0  0  0  0
    6.8758   -0.7717    0.0000 N   0  3  0  0  0  0  0  0  0  0  0  0
   22.3973    0.1254    0.0000 N   0  0  0  0  0  0  0  0  0  0  0  0
    2.6067   -0.1254    0.0000 N   0  0  0  0  0  0  0  0  0  0  0  0
   12.9360   -0.2483    0.0000 C   0  0  0  0  0  0  0  0  0  0  0  0
   12.0680    0.2483    0.0000 C   0  0  0  0  0  0  0  0  0  0  0  0
   13.8000    0.2550    0.0000 C   0  0  0  0  0  0  0  0  0  0  0  0
   11.2039   -0.2550    0.0000 C   0  0  0  0  0  0  0  0  0  0  0  0
   10.3360    0.2417    0.0000 C   0  0  0  0  0  0  0  0  0  0  0  0
   14.6680   -0.2417    0.0000 C   0  0  0  0  0  0  0  0  0  0  0  0
   16.3962    0.7650    0.0000 C   0  0  0  0  0  0  0  0  0  0  0  0
    8.6078   -0.7650    0.0000 C   0  0  0  0  0  0  0  0  0  0  0  0
    7.7398   -0.2684    0.0000 C   0  0  0  0  0  0  0  0  0  0  0  0
   17.2641    0.2684    0.0000 C   0  0  0  0  0  0  0  0  0  0  0  0
   19.9282    0.7925    0.0000 C   0  0  0  0  0  0  0  0  0  0  0  0
    5.0757   -0.7925    0.0000 C   0  0  0  0  0  0  0  0  0  0  0  0
   20.7942    0.2925    0.0000 C   0  0  0  0  0  0  0  0  0  0  0  0
    4.2097   -0.2925    0.0000 C   0  0  0  0  0  0  0  0  0  0  0  0
   19.0343    0.2578    0.0000 C   0  0  0  0  0  0  0  0  0  0  0  0
    5.9697   -0.2578    0.0000 C   0  0  0  0  0  0  0  0  0  0  0  0
   21.6603    0.7925    0.0000 C   0  0  0  0  0  0  0  0  0  0  0  0
    3.3437   -0.7925    0.0000 C   0  0  0  0  0  0  0  0  0  0  0  0
    5.0757   -1.7925    0.0000 C   0  0  0  0  0  0  0  0  0  0  0  0
   19.9282    1.7925    0.0000 C   0  0  0  0  0  0  0  0  0  0  0  0
   21.0035   -0.6793    0.0000 C   0  0  0  0  0  0  0  0  0  0  0  0
    4.0005    0.6793    0.0000 C   0  0  0  0  0  0  0  0  0  0  0  0
    3.0118    0.7824    0.0000 C   0  0  0  0  0  0  0  0  0  0  0  0
   21.9922   -0.7824    0.0000 C   0  0  0  0  0  0  0  0  0  0  0  0
    6.8758   -1.8133    0.0000 C   0  0  0  0  0  0  0  0  0  0  0  0
   18.1282    1.8133    0.0000 C   0  0  0  0  0  0  0  0  0  0  0  0
    5.9697   -2.3272    0.0000 C   0  0  0  0  0  0  0  0  0  0  0  0
   19.0343    2.3272    0.0000 C   0  0  0  0  0  0  0  0  0  0  0  0
    3.3437   -1.7925    0.0000 C   0  0  0  0  0  0  0  0  0  0  0  0
   21.6603    1.7925    0.0000 C   0  0  0  0  0  0  0  0  0  0  0  0
   20.7942    2.2925    0.0000 C   0  0  0  0  0  0  0  0  0  0  0  0
    4.2097   -2.2925    0.0000 C   0  0  0  0  0  0  0  0  0  0  0  0
    4.6213    1.5081    0.0000 C   0  0  0  0  0  0  0  0  0  0  0  0
   20.3827   -1.5081    0.0000 C   0  0  0  0  0  0  0  0  0  0  0  0
   22.4287   -1.7213    0.0000 C   0  0  0  0  0  0  0  0  0  0  0  0
    2.5753    1.7213    0.0000 C   0  0  0  0  0  0  0  0  0  0  0  0
    4.2066    2.4569    0.0000 C   0  0  0  0  0  0  0  0  0  0  0  0
   20.7974   -2.4569    0.0000 C   0  0  0  0  0  0  0  0  0  0  0  0
    3.1767    2.5642    0.0000 C   0  0  0  0  0  0  0  0  0  0  0  0
   21.8273   -2.5642    0.0000 C   0  0  0  0  0  0  0  0  0  0  0  0
    4.3928    4.1789    0.0000 C   0  0  0  0  0  0  0  0  0  0  0  0
   20.6112   -4.1789    0.0000 C   0  0  0  0  0  0  0  0  0  0  0  0
   12.4647    0.7248    0.0000 H   0  0  0  0  0  0  0  0  0  0  0  0
   11.6677    0.7217    0.0000 H   0  0  0  0  0  0  0  0  0  0  0  0
   12.5393   -0.7248    0.0000 H   0  0  0  0  0  0  0  0  0  0  0  0
   13.3363   -0.7217    0.0000 H   0  0  0  0  0  0  0  0  0  0  0  0
   10.8072   -0.7315    0.0000 H   0  0  0  0  0  0  0  0  0  0  0  0
   11.6043   -0.7284    0.0000 H   0  0  0  0  0  0  0  0  0  0  0  0
   14.1967    0.7315    0.0000 H   0  0  0  0  0  0  0  0  0  0  0  0
   13.3997    0.7284    0.0000 H   0  0  0  0  0  0  0  0  0  0  0  0
   10.7327    0.7181    0.0000 H   0  0  0  0  0  0  0  0  0  0  0  0
    9.9356    0.7151    0.0000 H   0  0  0  0  0  0  0  0  0  0  0  0
   14.2713   -0.7181    0.0000 H   0  0  0  0  0  0  0  0  0  0  0  0
   15.0683   -0.7151    0.0000 H   0  0  0  0  0  0  0  0  0  0  0  0
   15.2200    0.7974    0.0000 H   0  0  0  0  0  0  0  0  0  0  0  0
   15.8442   -0.2741    0.0000 H   0  0  0  0  0  0  0  0  0  0  0  0
    9.1598    0.2741    0.0000 H   0  0  0  0  0  0  0  0  0  0  0  0
    9.7840   -0.7974    0.0000 H   0  0  0  0  0  0  0  0  0  0  0  0
    8.2111   -1.2415    0.0000 H   0  0  0  0  0  0  0  0  0  0  0  0
    9.0081   -1.2384    0.0000 H   0  0  0  0  0  0  0  0  0  0  0  0
   16.7929    1.2415    0.0000 H   0  0  0  0  0  0  0  0  0  0  0  0
   15.9958    1.2384    0.0000 H   0  0  0  0  0  0  0  0  0  0  0  0
    8.1365    0.2081    0.0000 H   0  0  0  0  0  0  0  0  0  0  0  0
    7.3395    0.2050    0.0000 H   0  0  0  0  0  0  0  0  0  0  0  0
   16.8674   -0.2081    0.0000 H   0  0  0  0  0  0  0  0  0  0  0  0
   17.6645   -0.2050    0.0000 H   0  0  0  0  0  0  0  0  0  0  0  0
    5.9625    0.3621    0.0000 H   0  0  0  0  0  0  0  0  0  0  0  0
   19.0415   -0.3621    0.0000 H   0  0  0  0  0  0  0  0  0  0  0  0
   17.5925    2.1254    0.0000 H   0  0  0  0  0  0  0  0  0  0  0  0
    7.4115   -2.1254    0.0000 H   0  0  0  0  0  0  0  0  0  0  0  0
   23.0040    0.2533    0.0000 H   0  0  0  0  0  0  0  0  0  0  0  0
    2.0000   -0.2533    0.0000 H   0  0  0  0  0  0  0  0  0  0  0  0
   19.0415    2.9471    0.0000 H   0  0  0  0  0  0  0  0  0  0  0  0
    5.9625   -2.9471    0.0000 H   0  0  0  0  0  0  0  0  0  0  0  0
   22.1972    2.1025    0.0000 H   0  0  0  0  0  0  0  0  0  0  0  0
    2.8068   -2.1025    0.0000 H   0  0  0  0  0  0  0  0  0  0  0  0
   20.7942    2.9125    0.0000 H   0  0  0  0  0  0  0  0  0  0  0  0
    4.2097   -2.9125    0.0000 H   0  0  0  0  0  0  0  0  0  0  0  0
   19.7668   -1.4367    0.0000 H   0  0  0  0  0  0  0  0  0  0  0  0
    5.2371    1.4367    0.0000 H   0  0  0  0  0  0  0  0  0  0  0  0
   23.0460   -1.7785    0.0000 H   0  0  0  0  0  0  0  0  0  0  0  0
    1.9579    1.7785    0.0000 H   0  0  0  0  0  0  0  0  0  0  0  0
   22.0821   -3.1294    0.0000 H   0  0  0  0  0  0  0  0  0  0  0  0
    2.9219    3.1294    0.0000 H   0  0  0  0  0  0  0  0  0  0  0  0
   20.0440   -4.4294    0.0000 H   0  0  0  0  0  0  0  0  0  0  0  0
    4.9599    4.4294    0.0000 H   0  0  0  0  0  0  0  0  0  0  0  0
    4.1423    4.7460    0.0000 H   0  0  0  0  0  0  0  0  0  0  0  0
    3.8256    3.9284    0.0000 H   0  0  0  0  0  0  0  0  0  0  0  0
   20.8617   -4.7460    0.0000 H   0  0  0  0  0  0  0  0  0  0  0  0
   21.1783   -3.9284    0.0000 H   0  0  0  0  0  0  0  0  0  0  0  0
  1 46  1  0  0  0  0
  1 50  1  0  0  0  0
  2 45  1  0  0  0  0
  2 49  1  0  0  0  0
  3 14  1  0  0  0  0
  3 15  1  0  0  0  0
  3 63  1  0  0  0  0
  3 64  1  0  0  0  0
  4 13  1  0  0  0  0
  4 16  1  0  0  0  0
  4 65  1  0  0  0  0
  4 66  1  0  0  0  0
  5 18  1  0  0  0  0
  5 23  2  0  0  0  0
  5 34  1  0  0  0  0
  6 17  1  0  0  0  0
  6 24  2  0  0  0  0
  6 33  1  0  0  0  0
  7 25  1  0  0  0  0
  7 32  1  0  0  0  0
  7 79  1  0  0  0  0
  8 26  1  0  0  0  0
  8 31  1  0  0  0  0
  8 80  1  0  0  0  0
  9 10  1  0  0  0  0
  9 11  1  0  0  0  0
  9 53  1  0  0  0  0
  9 54  1  0  0  0  0
 10 12  1  0  0  0  0
 10 51  1  0  0  0  0
 10 52  1  0  0  0  0
 11 14  1  0  0  0  0
 11 57  1  0  0  0  0
 11 58  1  0  0  0  0
 12 13  1  0  0  0  0
 12 55  1  0  0  0  0
 12 56  1  0  0  0  0
 13 59  1  0  0  0  0
 13 60  1  0  0  0  0
 14 61  1  0  0  0  0
 14 62  1  0  0  0  0
 15 18  1  0  0  0  0
 15 69  1  0  0  0  0
 15 70  1  0  0  0  0
 16 17  1  0  0  0  0
 16 67  1  0  0  0  0
 16 68  1  0  0  0  0
 17 71  1  0  0  0  0
 17 72  1  0  0  0  0
 18 73  1  0  0  0  0
 18 74  1  0  0  0  0
 19 21  1  0  0  0  0
 19 23  1  0  0  0  0
 19 28  2  0  0  0  0
 20 22  1  0  0  0  0
 20 24  1  0  0  0  0
 20 27  2  0  0  0  0
 21 25  2  0  0  0  0
 21 29  1  0  0  0  0
 22 26  2  0  0  0  0
 22 30  1  0  0  0  0
 23 76  1  0  0  0  0
 24 75  1  0  0  0  0
 25 38  1  0  0  0  0
 26 37  1  0  0  0  0
 27 35  1  0  0  0  0
 27 40  1  0  0  0  0
 28 36  1  0  0  0  0
 28 39  1  0  0  0  0
 29 32  2  0  0  0  0
 29 42  1  0  0  0  0
 30 31  2  0  0  0  0
 30 41  1  0  0  0  0
 31 44  1  0  0  0  0
 32 43  1  0  0  0  0
 33 35  2  0  0  0  0
 33 78  1  0  0  0  0
 34 36  2  0  0  0  0
 34 77  1  0  0  0  0
 35 82  1  0  0  0  0
 36 81  1  0  0  0  0
 37 40  2  0  0  0  0
 37 84  1  0  0  0  0
 38 39  2  0  0  0  0
 38 83  1  0  0  0  0
 39 85  1  0  0  0  0
 40 86  1  0  0  0  0
 41 45  2  0  0  0  0
 41 88  1  0  0  0  0
 42 46  2  0  0  0  0
 42 87  1  0  0  0  0
 43 48  2  0  0  0  0
 43 89  1  0  0  0  0
 44 47  2  0  0  0  0
 44 90  1  0  0  0  0
 45 47  1  0  0  0  0
 46 48  1  0  0  0  0
 47 92  1  0  0  0  0
 48 91  1  0  0  0  0
 49 94  1  0  0  0  0
 49 95  1  0  0  0  0
 49 96  1  0  0  0  0
 50 93  1  0  0  0  0
 50 97  1  0  0  0  0
 50 98  1  0  0  0  0
M  CHG  4   3   1   4   1   5   1   6   1
M  END
> <PUBCHEM_COMPOUND_CID>
3358

> <PUBCHEM_COMPOUND_CANONICALIZED>
1

> <PUBCHEM_CACTVS_COMPLEXITY>
970

> <PUBCHEM_CACTVS_HBOND_ACCEPTOR>
2

> <PUBCHEM_CACTVS_HBOND_DONOR>
4

> <PUBCHEM_CACTVS_ROTATABLE_BOND>
15

> <PUBCHEM_CACTVS_SUBSKEYS>
AAADcfB/sAAAAAAAAAAAAAAAAAAAAWLAAAA8eMGCAAAAAFix/gAAHgAQAAAADAzBngY+xvPNlACgAzRnRACCiCAxIiAI2aA+bJgMZuLEsZuUMChk0BHI6Aew0PMOiEADQAASAAAQgAaAACQAAAAAAAAAAA==

> <PUBCHEM_IUPAC_OPENEYE_NAME>
2-(10-methoxy-7H-pyrido[4,3-c]carbazol-2-ium-2-yl)ethyl-[6-[2-(10-methoxy-7H-pyrido[4,3-c]carbazol-2-ium-2-yl)ethylammonio]hexyl]ammonium

> <PUBCHEM_IUPAC_CAS_NAME>
2-(10-methoxy-7H-pyrido[4,3-c]carbazol-2-ium-2-yl)ethyl-[6-[2-(10-methoxy-7H-pyrido[4,3-c]carbazol-2-ium-2-yl)ethylammonio]hexyl]ammonium

> <PUBCHEM_IUPAC_NAME>
2-(10-methoxy-7H-pyrido[4,3-c]carbazol-2-ium-2-yl)ethyl-[6-[2-(10-methoxy-7H-pyrido[4,3-c]carbazol-2-ium-2-yl)ethylazaniumyl]hexyl]azanium

> <PUBCHEM_IUPAC_SYSTEMATIC_NAME>
2-(10-methoxy-7H-pyrido[4,3-c]carbazol-2-ium-2-yl)ethyl-[6-[2-(10-methoxy-7H-pyrido[4,3-c]carbazol-2-ium-2-yl)ethylazaniumyl]hexyl]azanium

> <PUBCHEM_IUPAC_TRADITIONAL_NAME>
2-(10-methoxy-7H-pyrido[4,3-c]carbazol-2-ium-2-yl)ethyl-[6-[2-(10-methoxy-7H-pyrido[4,3-c]carbazol-2-ium-2-yl)ethylammonio]hexyl]ammonium

> <PUBCHEM_IUPAC_INCHI>
InChI=1S/C42H44N6O2/c1-49-31-9-13-37-33(25-31)41-35-27-47(21-15-29(35)7-11-39(41)45-37)23-19-43-17-5-3-4-6-18-44-20-24-48-22-16-30-8-12-40-42(36(30)28-48)34-26-32(50-2)10-14-38(34)46-40/h7-16,21-22,25-28,43-44H,3-6,17-20,23-24H2,1-2H3/p+4

> <PUBCHEM_IUPAC_INCHIKEY>
VJZICIMRPZDSEJ-UHFFFAOYSA-R

> <PUBCHEM_XLOGP3_AA>
7.5

> <PUBCHEM_EXACT_MASS>
668.383875

> <PUBCHEM_MOLECULAR_FORMULA>
C42H48N6O2+4

> <PUBCHEM_MOLECULAR_WEIGHT>
668.86952

> <PUBCHEM_OPENEYE_CAN_SMILES>
COC1=CC2=C(C=C1)NC3=C2C4=C(C=C3)C=C[N+](=C4)CC[NH2+]CCCCCC[NH2+]CC[N+]5=CC6=C(C=CC7=C6C8=C(N7)C=CC(=C8)OC)C=C5

> <PUBCHEM_OPENEYE_ISO_SMILES>
COC1=CC2=C(C=C1)NC3=C2C4=C(C=C3)C=C[N+](=C4)CC[NH2+]CCCCCC[NH2+]CC[N+]5=CC6=C(C=CC7=C6C8=C(N7)C=CC(=C8)OC)C=C5

> <PUBCHEM_CACTVS_TPSA>
91

> <PUBCHEM_MONOISOTOPIC_WEIGHT>
668.383875

> <PUBCHEM_TOTAL_CHARGE>
4

> <PUBCHEM_HEAVY_ATOM_COUNT>
50

> <PUBCHEM_ATOM_DEF_STEREO_COUNT>
0

> <PUBCHEM_ATOM_UDEF_STEREO_COUNT>
0

> <PUBCHEM_BOND_DEF_STEREO_COUNT>
0

> <PUBCHEM_BOND_UDEF_STEREO_COUNT>
0

> <PUBCHEM_ISOTOPIC_ATOM_COUNT>
0

> <PUBCHEM_COMPONENT_COUNT>
1

> <PUBCHEM_CACTVS_TAUTO_COUNT>
1

> <PUBCHEM_COORDINATE_TYPE>
1
5
255

> <PUBCHEM_BONDANNOTATIONS>
19  21  8
19  23  8
19  28  8
20  22  8
20  24  8
20  27  8
21  25  8
21  29  8
22  26  8
22  30  8
25  38  8
26  37  8
27  35  8
27  40  8
28  36  8
28  39  8
29  32  8
29  42  8
30  31  8
30  41  8
31  44  8
32  43  8
33  35  8
34  36  8
37  40  8
38  39  8
41  45  8
42  46  8
43  48  8
44  47  8
45  47  8
46  48  8
5  23  8
5  34  8
6  24  8
6  33  8
7  25  8
7  32  8
8  26  8
8  31  8

$$$$

