441557
  -OEChem-07051212552D

110112  0     1  0  0  0  0  0999 V2000
   15.4469   -0.8857    0.0000 O   0  0  0  0  0  0  0  0  0  0  0  0
   17.5160   -1.5580    0.0000 O   0  0  0  0  0  0  0  0  0  0  0  0
   13.4789   -1.5851    0.0000 O   0  0  0  0  0  0  0  0  0  0  0  0
   18.6970   -3.2806    0.0000 O   0  0  0  0  0  0  0  0  0  0  0  0
    3.4945    1.6548    0.0000 O   0  0  0  0  0  0  0  0  0  0  0  0
    2.0000    2.6254    0.0000 O   0  0  0  0  0  0  0  0  0  0  0  0
    5.1499    4.6023    0.0000 O   0  0  0  0  0  0  0  0  0  0  0  0
   16.2559   -0.2979    0.0000 C   0  0  1  0  0  0  0  0  0  0  0  0
   17.2070   -0.6069    0.0000 C   0  0  1  0  0  0  0  0  0  0  0  0
   15.9469    0.6531    0.0000 C   0  0  0  0  0  0  0  0  0  0  0  0
   18.0160   -0.0191    0.0000 C   0  0  0  0  0  0  0  0  0  0  0  0
   14.6379   -0.2979    0.0000 C   0  0  2  0  0  0  0  0  0  0  0  0
   18.5160   -1.5580    0.0000 C   0  0  2  0  0  0  0  0  0  0  0  0
   14.9469    0.6531    0.0000 C   0  0  0  0  0  0  0  0  0  0  0  0
   18.8250   -0.6069    0.0000 C   0  0  0  0  0  0  0  0  0  0  0  0
   13.6868   -0.6069    0.0000 C   0  0  1  0  0  0  0  0  0  0  0  0
   19.1038   -2.3670    0.0000 C   0  0  2  0  0  0  0  0  0  0  0  0
   12.9437    0.0622    0.0000 C   0  0  0  0  0  0  0  0  0  0  0  0
   20.0983   -2.2625    0.0000 C   0  0  0  0  0  0  0  0  0  0  0  0
   11.9926   -0.2468    0.0000 C   0  0  0  0  0  0  0  0  0  0  0  0
   20.6861   -3.0715    0.0000 C   0  0  0  0  0  0  0  0  0  0  0  0
   11.2495    0.4223    0.0000 C   0  0  0  0  0  0  0  0  0  0  0  0
   21.6806   -2.9670    0.0000 C   0  0  0  0  0  0  0  0  0  0  0  0
   10.2984    0.1133    0.0000 C   0  0  0  0  0  0  0  0  0  0  0  0
   22.2684   -3.7760    0.0000 C   0  0  0  0  0  0  0  0  0  0  0  0
    9.5553    0.7824    0.0000 C   0  0  0  0  0  0  0  0  0  0  0  0
    4.4727    1.8628    0.0000 C   0  0  1  0  0  0  0  0  0  0  0  0
    8.6042    0.4734    0.0000 C   0  0  0  0  0  0  0  0  0  0  0  0
   23.2629   -3.6715    0.0000 C   0  0  0  0  0  0  0  0  0  0  0  0
    4.5772    2.8573    0.0000 C   0  0  0  0  0  0  0  0  0  0  0  0
    5.2158    1.1936    0.0000 C   0  0  0  0  0  0  0  0  0  0  0  0
    3.6636    3.2640    0.0000 C   0  0  2  0  0  0  0  0  0  0  0  0
    7.8611    1.1425    0.0000 C   0  0  0  0  0  0  0  0  0  0  0  0
    6.1669    1.5026    0.0000 C   0  0  0  0  0  0  0  0  0  0  0  0
    6.9100    0.8335    0.0000 C   0  0  0  0  0  0  0  0  0  0  0  0
   23.8507   -4.4805    0.0000 C   0  0  0  0  0  0  0  0  0  0  0  0
    2.9945    2.5209    0.0000 C   0  0  0  0  0  0  0  0  0  0  0  0
    3.4557    4.2422    0.0000 C   0  0  0  0  0  0  0  0  0  0  0  0
   24.8452   -4.3759    0.0000 C   0  0  0  0  0  0  0  0  0  0  0  0
   25.4330   -5.1850    0.0000 C   0  0  0  0  0  0  0  0  0  0  0  0
    4.1989    4.9113    0.0000 C   0  0  0  0  0  0  0  0  0  0  0  0
   26.4275   -5.0804    0.0000 C   0  0  0  0  0  0  0  0  0  0  0  0
    3.9910    5.8894    0.0000 C   0  0  0  0  0  0  0  0  0  0  0  0
   27.0153   -5.8894    0.0000 C   0  0  0  0  0  0  0  0  0  0  0  0
   16.3889   -1.1374    0.0000 H   0  0  0  0  0  0  0  0  0  0  0  0
   17.0740    0.2326    0.0000 H   0  0  0  0  0  0  0  0  0  0  0  0
   16.5533    0.7820    0.0000 H   0  0  0  0  0  0  0  0  0  0  0  0
   15.8821    1.2697    0.0000 H   0  0  0  0  0  0  0  0  0  0  0  0
   18.4308    0.4416    0.0000 H   0  0  0  0  0  0  0  0  0  0  0  0
   17.6011    0.4416    0.0000 H   0  0  0  0  0  0  0  0  0  0  0  0
   14.5049   -1.1374    0.0000 H   0  0  0  0  0  0  0  0  0  0  0  0
   18.1301   -2.3154    0.0000 H   0  0  0  0  0  0  0  0  0  0  0  0
   15.0117    1.2697    0.0000 H   0  0  0  0  0  0  0  0  0  0  0  0
   14.3404    0.7820    0.0000 H   0  0  0  0  0  0  0  0  0  0  0  0
   19.3914   -0.8591    0.0000 H   0  0  0  0  0  0  0  0  0  0  0  0
   19.1350   -0.0700    0.0000 H   0  0  0  0  0  0  0  0  0  0  0  0
   13.0972   -0.7985    0.0000 H   0  0  0  0  0  0  0  0  0  0  0  0
   19.4682   -2.8686    0.0000 H   0  0  0  0  0  0  0  0  0  0  0  0
   13.4322    0.4439    0.0000 H   0  0  0  0  0  0  0  0  0  0  0  0
   12.6526    0.6096    0.0000 H   0  0  0  0  0  0  0  0  0  0  0  0
   20.6555   -1.9907    0.0000 H   0  0  0  0  0  0  0  0  0  0  0  0
   19.9274   -1.6665    0.0000 H   0  0  0  0  0  0  0  0  0  0  0  0
   11.5041   -0.6285    0.0000 H   0  0  0  0  0  0  0  0  0  0  0  0
   12.2837   -0.7942    0.0000 H   0  0  0  0  0  0  0  0  0  0  0  0
   20.1288   -3.3433    0.0000 H   0  0  0  0  0  0  0  0  0  0  0  0
   20.8570   -3.6675    0.0000 H   0  0  0  0  0  0  0  0  0  0  0  0
   12.8893   -1.7767    0.0000 H   0  0  0  0  0  0  0  0  0  0  0  0
   19.0615   -3.7821    0.0000 H   0  0  0  0  0  0  0  0  0  0  0  0
   11.7380    0.8040    0.0000 H   0  0  0  0  0  0  0  0  0  0  0  0
   10.9584    0.9697    0.0000 H   0  0  0  0  0  0  0  0  0  0  0  0
   22.2379   -2.6952    0.0000 H   0  0  0  0  0  0  0  0  0  0  0  0
   21.5097   -2.3710    0.0000 H   0  0  0  0  0  0  0  0  0  0  0  0
    9.8099   -0.2684    0.0000 H   0  0  0  0  0  0  0  0  0  0  0  0
   10.5895   -0.4341    0.0000 H   0  0  0  0  0  0  0  0  0  0  0  0
   21.7111   -4.0478    0.0000 H   0  0  0  0  0  0  0  0  0  0  0  0
   22.4393   -4.3720    0.0000 H   0  0  0  0  0  0  0  0  0  0  0  0
   10.0438    1.1641    0.0000 H   0  0  0  0  0  0  0  0  0  0  0  0
    9.2642    1.3298    0.0000 H   0  0  0  0  0  0  0  0  0  0  0  0
    4.3122    1.2639    0.0000 H   0  0  0  0  0  0  0  0  0  0  0  0
    8.1156    0.0917    0.0000 H   0  0  0  0  0  0  0  0  0  0  0  0
    8.8953   -0.0740    0.0000 H   0  0  0  0  0  0  0  0  0  0  0  0
   23.8202   -3.3997    0.0000 H   0  0  0  0  0  0  0  0  0  0  0  0
   23.0920   -3.0755    0.0000 H   0  0  0  0  0  0  0  0  0  0  0  0
    5.1836    2.7284    0.0000 H   0  0  0  0  0  0  0  0  0  0  0  0
    4.7688    3.4469    0.0000 H   0  0  0  0  0  0  0  0  0  0  0  0
    4.7272    0.8119    0.0000 H   0  0  0  0  0  0  0  0  0  0  0  0
    5.5069    0.6462    0.0000 H   0  0  0  0  0  0  0  0  0  0  0  0
    3.0648    3.4245    0.0000 H   0  0  0  0  0  0  0  0  0  0  0  0
    8.3496    1.5243    0.0000 H   0  0  0  0  0  0  0  0  0  0  0  0
    7.5700    1.6900    0.0000 H   0  0  0  0  0  0  0  0  0  0  0  0
    6.6554    1.8844    0.0000 H   0  0  0  0  0  0  0  0  0  0  0  0
    5.8758    2.0501    0.0000 H   0  0  0  0  0  0  0  0  0  0  0  0
    6.4214    0.4518    0.0000 H   0  0  0  0  0  0  0  0  0  0  0  0
    7.2011    0.2861    0.0000 H   0  0  0  0  0  0  0  0  0  0  0  0
   23.2934   -4.7523    0.0000 H   0  0  0  0  0  0  0  0  0  0  0  0
   24.0216   -5.0765    0.0000 H   0  0  0  0  0  0  0  0  0  0  0  0
    3.1272    4.7680    0.0000 H   0  0  0  0  0  0  0  0  0  0  0  0
    2.8809    4.0099    0.0000 H   0  0  0  0  0  0  0  0  0  0  0  0
   25.4025   -4.1042    0.0000 H   0  0  0  0  0  0  0  0  0  0  0  0
   24.6743   -3.7800    0.0000 H   0  0  0  0  0  0  0  0  0  0  0  0
   24.8757   -5.4568    0.0000 H   0  0  0  0  0  0  0  0  0  0  0  0
   25.6039   -5.7809    0.0000 H   0  0  0  0  0  0  0  0  0  0  0  0
   26.9848   -4.8086    0.0000 H   0  0  0  0  0  0  0  0  0  0  0  0
   26.2566   -4.4844    0.0000 H   0  0  0  0  0  0  0  0  0  0  0  0
    4.5974    6.0184    0.0000 H   0  0  0  0  0  0  0  0  0  0  0  0
    3.8621    6.4959    0.0000 H   0  0  0  0  0  0  0  0  0  0  0  0
    3.3845    5.7605    0.0000 H   0  0  0  0  0  0  0  0  0  0  0  0
   26.5137   -6.2539    0.0000 H   0  0  0  0  0  0  0  0  0  0  0  0
   27.3797   -6.3910    0.0000 H   0  0  0  0  0  0  0  0  0  0  0  0
   27.5169   -5.5250    0.0000 H   0  0  0  0  0  0  0  0  0  0  0  0
  1  8  1  0  0  0  0
  1 12  1  0  0  0  0
  2  9  1  0  0  0  0
  2 13  1  0  0  0  0
 16  3  1  6  0  0  0
  3 67  1  0  0  0  0
 17  4  1  6  0  0  0
  4 68  1  0  0  0  0
  5 27  1  0  0  0  0
  5 37  1  0  0  0  0
  6 37  2  0  0  0  0
  7 41  2  0  0  0  0
  8  9  1  0  0  0  0
  8 10  1  0  0  0  0
  8 45  1  1  0  0  0
  9 11  1  0  0  0  0
  9 46  1  6  0  0  0
 10 14  1  0  0  0  0
 10 47  1  0  0  0  0
 10 48  1  0  0  0  0
 11 15  1  0  0  0  0
 11 49  1  0  0  0  0
 11 50  1  0  0  0  0
 12 14  1  0  0  0  0
 12 16  1  0  0  0  0
 12 51  1  6  0  0  0
 13 15  1  0  0  0  0
 13 17  1  0  0  0  0
 13 52  1  1  0  0  0
 14 53  1  0  0  0  0
 14 54  1  0  0  0  0
 15 55  1  0  0  0  0
 15 56  1  0  0  0  0
 16 18  1  0  0  0  0
 16 57  1  0  0  0  0
 17 19  1  0  0  0  0
 17 58  1  0  0  0  0
 18 20  1  0  0  0  0
 18 59  1  0  0  0  0
 18 60  1  0  0  0  0
 19 21  1  0  0  0  0
 19 61  1  0  0  0  0
 19 62  1  0  0  0  0
 20 22  1  0  0  0  0
 20 63  1  0  0  0  0
 20 64  1  0  0  0  0
 21 23  1  0  0  0  0
 21 65  1  0  0  0  0
 21 66  1  0  0  0  0
 22 24  1  0  0  0  0
 22 69  1  0  0  0  0
 22 70  1  0  0  0  0
 23 25  1  0  0  0  0
 23 71  1  0  0  0  0
 23 72  1  0  0  0  0
 24 26  1  0  0  0  0
 24 73  1  0  0  0  0
 24 74  1  0  0  0  0
 25 29  1  0  0  0  0
 25 75  1  0  0  0  0
 25 76  1  0  0  0  0
 26 28  1  0  0  0  0
 26 77  1  0  0  0  0
 26 78  1  0  0  0  0
 27 30  1  0  0  0  0
 27 31  1  1  0  0  0
 27 79  1  0  0  0  0
 28 33  1  0  0  0  0
 28 80  1  0  0  0  0
 28 81  1  0  0  0  0
 29 36  1  0  0  0  0
 29 82  1  0  0  0  0
 29 83  1  0  0  0  0
 30 32  1  0  0  0  0
 30 84  1  0  0  0  0
 30 85  1  0  0  0  0
 31 34  1  0  0  0  0
 31 86  1  0  0  0  0
 31 87  1  0  0  0  0
 32 37  1  0  0  0  0
 32 38  1  6  0  0  0
 32 88  1  0  0  0  0
 33 35  1  0  0  0  0
 33 89  1  0  0  0  0
 33 90  1  0  0  0  0
 34 35  1  0  0  0  0
 34 91  1  0  0  0  0
 34 92  1  0  0  0  0
 35 93  1  0  0  0  0
 35 94  1  0  0  0  0
 36 39  1  0  0  0  0
 36 95  1  0  0  0  0
 36 96  1  0  0  0  0
 38 41  1  0  0  0  0
 38 97  1  0  0  0  0
 38 98  1  0  0  0  0
 39 40  1  0  0  0  0
 39 99  1  0  0  0  0
 39100  1  0  0  0  0
 40 42  1  0  0  0  0
 40101  1  0  0  0  0
 40102  1  0  0  0  0
 41 43  1  0  0  0  0
 42 44  1  0  0  0  0
 42103  1  0  0  0  0
 42104  1  0  0  0  0
 43105  1  0  0  0  0
 43106  1  0  0  0  0
 43107  1  0  0  0  0
 44108  1  0  0  0  0
 44109  1  0  0  0  0
 44110  1  0  0  0  0
M  END
> <PUBCHEM_COMPOUND_CID>
441557

> <PUBCHEM_COMPOUND_CANONICALIZED>
1

> <PUBCHEM_CACTVS_COMPLEXITY>
788

> <PUBCHEM_CACTVS_HBOND_ACCEPTOR>
7

> <PUBCHEM_CACTVS_HBOND_DONOR>
2

> <PUBCHEM_CACTVS_ROTATABLE_BOND>
25

> <PUBCHEM_CACTVS_SUBSKEYS>
AAADcfB8OAAAAAAAAAAAAAAAAAAAASJEgAAAAAAAAAAAAAAAAAAAGgAACAAADRSggAICCAAABgAIAICQCAAAAAAAAAAAAAEAAAABEBIAAAACQAAEAAADAAGL7OzOAAAAAAAAAAAAAAAAAAAAAAAAAAAAAA==

> <PUBCHEM_IUPAC_OPENEYE_NAME>
(3S,5R)-3-acetonyl-5-[(11R)-11-hydroxy-11-[(2R,5R)-5-[(2R,5R)-5-[(1S)-1-hydroxyundecyl]tetrahydrofuran-2-yl]tetrahydrofuran-2-yl]undecyl]tetrahydrofuran-2-one

> <PUBCHEM_IUPAC_CAS_NAME>
(3S,5R)-5-[(11R)-11-hydroxy-11-[(2R,5R)-5-[(2R,5R)-5-[(1S)-1-hydroxyundecyl]-2-oxolanyl]-2-oxolanyl]undecyl]-3-(2-oxopropyl)-2-oxolanone

> <PUBCHEM_IUPAC_NAME>
(3S,5R)-5-[(11R)-11-hydroxy-11-[(2R,5R)-5-[(2R,5R)-5-[(1S)-1-hydroxyundecyl]oxolan-2-yl]oxolan-2-yl]undecyl]-3-(2-oxopropyl)oxolan-2-one

> <PUBCHEM_IUPAC_SYSTEMATIC_NAME>
(3S,5R)-3-(2-oxidanylidenepropyl)-5-[(11R)-11-oxidanyl-11-[(2R,5R)-5-[(2R,5R)-5-[(1S)-1-oxidanylundecyl]oxolan-2-yl]oxolan-2-yl]undecyl]oxolan-2-one

> <PUBCHEM_IUPAC_TRADITIONAL_NAME>
(3S,5R)-3-acetonyl-5-[(11R)-11-hydroxy-11-[(2R,5R)-5-[(2R,5R)-5-[(1S)-1-hydroxyundecyl]tetrahydrofuran-2-yl]tetrahydrofuran-2-yl]undecyl]tetrahydrofuran-2-one

> <PUBCHEM_IUPAC_INCHI>
InChI=1S/C37H66O7/c1-3-4-5-6-7-11-14-17-20-31(39)33-22-24-35(43-33)36-25-23-34(44-36)32(40)21-18-15-12-9-8-10-13-16-19-30-27-29(26-28(2)38)37(41)42-30/h29-36,39-40H,3-27H2,1-2H3/t29-,30-,31+,32-,33-,34-,35-,36-/m1/s1

> <PUBCHEM_IUPAC_INCHIKEY>
KGGVWMAPBXIMEM-ZRTAFWODSA-N

> <PUBCHEM_XLOGP3_AA>
9.4

> <PUBCHEM_EXACT_MASS>
622.480854

> <PUBCHEM_MOLECULAR_FORMULA>
C37H66O7

> <PUBCHEM_MOLECULAR_WEIGHT>
622.91574

> <PUBCHEM_OPENEYE_CAN_SMILES>
CCCCCCCCCCC(C1CCC(O1)C2CCC(O2)C(CCCCCCCCCCC3CC(C(=O)O3)CC(=O)C)O)O

> <PUBCHEM_OPENEYE_ISO_SMILES>
CCCCCCCCCC[C@@H]([C@H]1CC[C@@H](O1)[C@H]2CC[C@@H](O2)[C@@H](CCCCCCCCCC[C@@H]3C[C@H](C(=O)O3)CC(=O)C)O)O

> <PUBCHEM_CACTVS_TPSA>
102

> <PUBCHEM_MONOISOTOPIC_WEIGHT>
622.480854

> <PUBCHEM_TOTAL_CHARGE>
0

> <PUBCHEM_HEAVY_ATOM_COUNT>
44

> <PUBCHEM_ATOM_DEF_STEREO_COUNT>
8

> <PUBCHEM_ATOM_UDEF_STEREO_COUNT>
0

> <PUBCHEM_BOND_DEF_STEREO_COUNT>
0

> <PUBCHEM_BOND_UDEF_STEREO_COUNT>
0

> <PUBCHEM_ISOTOPIC_ATOM_COUNT>
0

> <PUBCHEM_COMPONENT_COUNT>
1

> <PUBCHEM_CACTVS_TAUTO_COUNT>
6

> <PUBCHEM_COORDINATE_TYPE>
1
5
255

> <PUBCHEM_BONDANNOTATIONS>
12  51  6
13  52  5
27  31  5
16  3  6
32  38  6
17  4  6
8  45  5
9  46  6

$$$$

