5340
  -OEChem-07051213012D

 25 26  0     0  0  0  0  0  0999 V2000
    3.0000    0.8038    0.0000 S   0  0  0  0  0  0  0  0  0  0  0  0
    4.7796    1.8970    0.0000 S   0  0  0  0  0  0  0  0  0  0  0  0
    4.0000    0.8038    0.0000 O   0  0  0  0  0  0  0  0  0  0  0  0
    2.0000    0.8038    0.0000 O   0  0  0  0  0  0  0  0  0  0  0  0
    3.0000    1.8038    0.0000 N   0  0  0  0  0  0  0  0  0  0  0  0
    3.0000   -3.1962    0.0000 N   0  0  0  0  0  0  0  0  0  0  0  0
    3.9706    3.2983    0.0000 N   0  0  0  0  0  0  0  0  0  0  0  0
    3.0000   -0.1962    0.0000 C   0  0  0  0  0  0  0  0  0  0  0  0
    2.1340   -0.6962    0.0000 C   0  0  0  0  0  0  0  0  0  0  0  0
    3.8660   -0.6962    0.0000 C   0  0  0  0  0  0  0  0  0  0  0  0
    3.0000   -2.1962    0.0000 C   0  0  0  0  0  0  0  0  0  0  0  0
    2.1340   -1.6962    0.0000 C   0  0  0  0  0  0  0  0  0  0  0  0
    3.8660   -1.6962    0.0000 C   0  0  0  0  0  0  0  0  0  0  0  0
    3.8660    2.3038    0.0000 C   0  0  0  0  0  0  0  0  0  0  0  0
    5.4487    2.6402    0.0000 C   0  0  0  0  0  0  0  0  0  0  0  0
    4.9487    3.5062    0.0000 C   0  0  0  0  0  0  0  0  0  0  0  0
    1.5970   -0.3862    0.0000 H   0  0  0  0  0  0  0  0  0  0  0  0
    4.4030   -0.3862    0.0000 H   0  0  0  0  0  0  0  0  0  0  0  0
    2.4631    2.1138    0.0000 H   0  0  0  0  0  0  0  0  0  0  0  0
    1.5970   -2.0062    0.0000 H   0  0  0  0  0  0  0  0  0  0  0  0
    4.4030   -2.0062    0.0000 H   0  0  0  0  0  0  0  0  0  0  0  0
    2.4631   -3.5062    0.0000 H   0  0  0  0  0  0  0  0  0  0  0  0
    3.5369   -3.5062    0.0000 H   0  0  0  0  0  0  0  0  0  0  0  0
    6.0653    2.5754    0.0000 H   0  0  0  0  0  0  0  0  0  0  0  0
    5.2009    4.0726    0.0000 H   0  0  0  0  0  0  0  0  0  0  0  0
  1  3  2  0  0  0  0
  1  4  2  0  0  0  0
  1  5  1  0  0  0  0
  1  8  1  0  0  0  0
  2 14  1  0  0  0  0
  2 15  1  0  0  0  0
  5 14  1  0  0  0  0
  5 19  1  0  0  0  0
  6 11  1  0  0  0  0
  6 22  1  0  0  0  0
  6 23  1  0  0  0  0
  7 14  2  0  0  0  0
  7 16  1  0  0  0  0
  8  9  2  0  0  0  0
  8 10  1  0  0  0  0
  9 12  1  0  0  0  0
  9 17  1  0  0  0  0
 10 13  2  0  0  0  0
 10 18  1  0  0  0  0
 11 12  2  0  0  0  0
 11 13  1  0  0  0  0
 12 20  1  0  0  0  0
 13 21  1  0  0  0  0
 15 16  2  0  0  0  0
 15 24  1  0  0  0  0
 16 25  1  0  0  0  0
M  END
> <PUBCHEM_COMPOUND_CID>
5340

> <PUBCHEM_COMPOUND_CANONICALIZED>
1

> <PUBCHEM_CACTVS_COMPLEXITY>
320

> <PUBCHEM_CACTVS_HBOND_ACCEPTOR>
6

> <PUBCHEM_CACTVS_HBOND_DONOR>
2

> <PUBCHEM_CACTVS_ROTATABLE_BOND>
3

> <PUBCHEM_CACTVS_SUBSKEYS>
AAADccBzMABgAAAAAAAAAAAAAAAAAWAAAAAwAAAAAAAAAAABwAAAHAQQQAAACAjFUgS90ZJIEAqkADRnZHDC8LlxCjlIyBwYZIiIICKAkZGAIABgkAIIyCcQAAAAAAQAAAAAAAAACAAAAAAAAAAAAAAAAA==

> <PUBCHEM_IUPAC_OPENEYE_NAME>
4-amino-N-thiazol-2-yl-benzenesulfonamide

> <PUBCHEM_IUPAC_CAS_NAME>
4-amino-N-(2-thiazolyl)benzenesulfonamide

> <PUBCHEM_IUPAC_NAME>
4-amino-N-(1,3-thiazol-2-yl)benzenesulfonamide

> <PUBCHEM_IUPAC_SYSTEMATIC_NAME>
4-azanyl-N-(1,3-thiazol-2-yl)benzenesulfonamide

> <PUBCHEM_IUPAC_TRADITIONAL_NAME>
4-amino-N-thiazol-2-yl-benzenesulfonamide

> <PUBCHEM_IUPAC_INCHI>
InChI=1S/C9H9N3O2S2/c10-7-1-3-8(4-2-7)16(13,14)12-9-11-5-6-15-9/h1-6H,10H2,(H,11,12)

> <PUBCHEM_IUPAC_INCHIKEY>
JNMRHUJNCSQMMB-UHFFFAOYSA-N

> <PUBCHEM_XLOGP3>
0.1

> <PUBCHEM_EXACT_MASS>
255.013619

> <PUBCHEM_MOLECULAR_FORMULA>
C9H9N3O2S2

> <PUBCHEM_MOLECULAR_WEIGHT>
255.31666

> <PUBCHEM_OPENEYE_CAN_SMILES>
C1=CC(=CC=C1N)S(=O)(=O)NC2=NC=CS2

> <PUBCHEM_OPENEYE_ISO_SMILES>
C1=CC(=CC=C1N)S(=O)(=O)NC2=NC=CS2

> <PUBCHEM_CACTVS_TPSA>
122

> <PUBCHEM_MONOISOTOPIC_WEIGHT>
255.013619

> <PUBCHEM_TOTAL_CHARGE>
0

> <PUBCHEM_HEAVY_ATOM_COUNT>
16

> <PUBCHEM_ATOM_DEF_STEREO_COUNT>
0

> <PUBCHEM_ATOM_UDEF_STEREO_COUNT>
0

> <PUBCHEM_BOND_DEF_STEREO_COUNT>
0

> <PUBCHEM_BOND_UDEF_STEREO_COUNT>
0

> <PUBCHEM_ISOTOPIC_ATOM_COUNT>
0

> <PUBCHEM_COMPONENT_COUNT>
1

> <PUBCHEM_CACTVS_TAUTO_COUNT>
2

> <PUBCHEM_COORDINATE_TYPE>
1
5
255

> <PUBCHEM_BONDANNOTATIONS>
10  13  8
11  12  8
11  13  8
15  16  8
2  14  8
2  15  8
7  14  8
7  16  8
8  10  8
8  9  8
9  12  8

$$$$

