441064
  -OEChem-07051212513D

 82 88  0     1  0  0  0  0  0999 V2000
   -0.1592   -1.6384   -0.9135 O   0  0  0  0  0  0  0  0  0  0  0  0
   -1.7545   -3.8424   -0.3453 O   0  0  0  0  0  0  0  0  0  0  0  0
    0.6681   -1.2278    3.8550 O   0  0  0  0  0  0  0  0  0  0  0  0
   -1.1000   -1.2954    1.8610 O   0  0  0  0  0  0  0  0  0  0  0  0
    1.7177    3.5819    0.7037 O   0  0  0  0  0  0  0  0  0  0  0  0
    4.3036    4.2676    0.3610 O   0  0  0  0  0  0  0  0  0  0  0  0
    4.0814   -2.0102   -1.6031 N   0  0  1  0  0  0  0  0  0  0  0  0
   -5.5367    1.3515   -0.9540 N   0  0  2  0  0  0  0  0  0  0  0  0
    2.6284   -1.7091   -1.4911 C   0  0  1  0  0  0  0  0  0  0  0  0
   -4.0698    1.3585   -0.7285 C   0  0  2  0  0  0  0  0  0  0  0  0
    2.0654   -1.6511   -0.0610 C   0  0  0  0  0  0  0  0  0  0  0  0
   -3.4583   -0.0371   -0.6408 C   0  0  0  0  0  0  0  0  0  0  0  0
    4.6353   -2.7146   -0.4477 C   0  0  0  0  0  0  0  0  0  0  0  0
    2.9499   -1.6763    1.0367 C   0  0  0  0  0  0  0  0  0  0  0  0
    4.4200   -1.8769    0.8071 C   0  0  0  0  0  0  0  0  0  0  0  0
    2.3552   -0.3825   -2.2661 C   0  0  0  0  0  0  0  0  0  0  0  0
   -6.2233    0.4187   -0.0531 C   0  0  0  0  0  0  0  0  0  0  0  0
   -4.2542   -1.1570   -0.3322 C   0  0  0  0  0  0  0  0  0  0  0  0
   -5.7484   -1.0290   -0.1863 C   0  0  0  0  0  0  0  0  0  0  0  0
   -3.7777    2.2139    0.5420 C   0  0  0  0  0  0  0  0  0  0  0  0
    0.6757   -1.5623    0.1904 C   0  0  0  0  0  0  0  0  0  0  0  0
   -2.0838   -0.2221   -0.8605 C   0  0  0  0  0  0  0  0  0  0  0  0
    4.3929   -2.7435   -2.8332 C   0  0  0  0  0  0  0  0  0  0  0  0
   -1.5099   -1.4868   -0.7187 C   0  0  0  0  0  0  0  0  0  0  0  0
    2.4704   -1.5162    2.3418 C   0  0  0  0  0  0  0  0  0  0  0  0
   -3.6684   -2.4307   -0.2442 C   0  0  0  0  0  0  0  0  0  0  0  0
    2.8763    0.8735   -1.5977 C   0  0  0  0  0  0  0  0  0  0  0  0
   -5.8816    1.1229   -2.3572 C   0  0  0  0  0  0  0  0  0  0  0  0
    0.2120   -1.4182    1.5078 C   0  0  0  0  0  0  0  0  0  0  0  0
   -2.3415    2.6724    0.6623 C   0  0  0  0  0  0  0  0  0  0  0  0
   -2.2990   -2.5986   -0.4363 C   0  0  0  0  0  0  0  0  0  0  0  0
    1.1077   -1.3810    2.5737 C   0  0  0  0  0  0  0  0  0  0  0  0
    2.0198    1.6401   -0.7934 C   0  0  0  0  0  0  0  0  0  0  0  0
    4.2071    1.2789   -1.7450 C   0  0  0  0  0  0  0  0  0  0  0  0
   -1.5096    2.1510    1.6649 C   0  0  0  0  0  0  0  0  0  0  0  0
   -1.8129    3.5914   -0.2576 C   0  0  0  0  0  0  0  0  0  0  0  0
    2.4830    2.7830   -0.1282 C   0  0  0  0  0  0  0  0  0  0  0  0
    0.3665    3.3355    0.7301 C   0  0  0  0  0  0  0  0  0  0  0  0
    4.6738    2.4178   -1.0861 C   0  0  0  0  0  0  0  0  0  0  0  0
   -0.1570    2.4871    1.7058 C   0  0  0  0  0  0  0  0  0  0  0  0
   -0.4606    3.9262   -0.2250 C   0  0  0  0  0  0  0  0  0  0  0  0
    3.8175    3.1647   -0.2758 C   0  0  0  0  0  0  0  0  0  0  0  0
   -1.6904   -4.6127   -1.5448 C   0  0  0  0  0  0  0  0  0  0  0  0
    0.3692   -2.4166    4.5831 C   0  0  0  0  0  0  0  0  0  0  0  0
    2.0782   -2.5221   -1.9866 H   0  0  0  0  0  0  0  0  0  0  0  0
   -3.6106    1.8666   -1.5878 H   0  0  0  0  0  0  0  0  0  0  0  0
    5.7148   -2.8590   -0.5781 H   0  0  0  0  0  0  0  0  0  0  0  0
    4.1818   -3.7088   -0.3353 H   0  0  0  0  0  0  0  0  0  0  0  0
    4.9119   -0.9005    0.7202 H   0  0  0  0  0  0  0  0  0  0  0  0
    4.8678   -2.4019    1.6593 H   0  0  0  0  0  0  0  0  0  0  0  0
    1.2773   -0.2642   -2.4341 H   0  0  0  0  0  0  0  0  0  0  0  0
    2.7718   -0.4318   -3.2804 H   0  0  0  0  0  0  0  0  0  0  0  0
   -7.3080    0.4656   -0.2122 H   0  0  0  0  0  0  0  0  0  0  0  0
   -6.0797    0.7495    0.9831 H   0  0  0  0  0  0  0  0  0  0  0  0
   -6.2165   -1.4874   -1.0666 H   0  0  0  0  0  0  0  0  0  0  0  0
   -6.0817   -1.5915    0.6942 H   0  0  0  0  0  0  0  0  0  0  0  0
   -4.0597    1.6655    1.4502 H   0  0  0  0  0  0  0  0  0  0  0  0
   -4.3995    3.1202    0.5309 H   0  0  0  0  0  0  0  0  0  0  0  0
   -1.4522    0.6193   -1.1309 H   0  0  0  0  0  0  0  0  0  0  0  0
    3.9337   -3.7387   -2.8435 H   0  0  0  0  0  0  0  0  0  0  0  0
    5.4766   -2.8653   -2.9426 H   0  0  0  0  0  0  0  0  0  0  0  0
    4.0546   -2.2009   -3.7214 H   0  0  0  0  0  0  0  0  0  0  0  0
    3.1642   -1.5094    3.1793 H   0  0  0  0  0  0  0  0  0  0  0  0
   -4.2906   -3.2970   -0.0297 H   0  0  0  0  0  0  0  0  0  0  0  0
   -6.9679    1.1575   -2.4961 H   0  0  0  0  0  0  0  0  0  0  0  0
   -5.5175    0.1644   -2.7413 H   0  0  0  0  0  0  0  0  0  0  0  0
   -5.4654    1.9190   -2.9847 H   0  0  0  0  0  0  0  0  0  0  0  0
    0.9889    1.3144   -0.6934 H   0  0  0  0  0  0  0  0  0  0  0  0
    4.8918    0.7100   -2.3682 H   0  0  0  0  0  0  0  0  0  0  0  0
   -1.9035    1.4529    2.3990 H   0  0  0  0  0  0  0  0  0  0  0  0
   -2.4468    4.0222   -1.0286 H   0  0  0  0  0  0  0  0  0  0  0  0
    5.7120    2.7164   -1.2061 H   0  0  0  0  0  0  0  0  0  0  0  0
    0.4867    2.0496    2.4633 H   0  0  0  0  0  0  0  0  0  0  0  0
   -0.0540    4.6081   -0.9660 H   0  0  0  0  0  0  0  0  0  0  0  0
   -1.1712   -1.1093    2.8124 H   0  0  0  0  0  0  0  0  0  0  0  0
   -1.2298   -5.5758   -1.3088 H   0  0  0  0  0  0  0  0  0  0  0  0
   -1.0761   -4.1052   -2.2952 H   0  0  0  0  0  0  0  0  0  0  0  0
   -2.6955   -4.7918   -1.9395 H   0  0  0  0  0  0  0  0  0  0  0  0
    1.2791   -3.0041    4.7414 H   0  0  0  0  0  0  0  0  0  0  0  0
   -0.3790   -3.0200    4.0593 H   0  0  0  0  0  0  0  0  0  0  0  0
   -0.0344   -2.1289    5.5577 H   0  0  0  0  0  0  0  0  0  0  0  0
    3.5808    4.6659    0.8763 H   0  0  0  0  0  0  0  0  0  0  0  0
  1 21  1  0  0  0  0
  1 24  1  0  0  0  0
  2 31  1  0  0  0  0
  2 43  1  0  0  0  0
  3 32  1  0  0  0  0
  3 44  1  0  0  0  0
  4 29  1  0  0  0  0
  4 75  1  0  0  0  0
  5 37  1  0  0  0  0
  5 38  1  0  0  0  0
  6 42  1  0  0  0  0
  6 82  1  0  0  0  0
  7  9  1  0  0  0  0
  7 13  1  0  0  0  0
  7 23  1  0  0  0  0
  8 10  1  0  0  0  0
  8 17  1  0  0  0  0
  8 28  1  0  0  0  0
  9 11  1  0  0  0  0
  9 16  1  0  0  0  0
  9 45  1  0  0  0  0
 10 12  1  0  0  0  0
 10 20  1  0  0  0  0
 10 46  1  0  0  0  0
 11 14  1  0  0  0  0
 11 21  2  0  0  0  0
 12 18  1  0  0  0  0
 12 22  2  0  0  0  0
 13 15  1  0  0  0  0
 13 47  1  0  0  0  0
 13 48  1  0  0  0  0
 14 15  1  0  0  0  0
 14 25  2  0  0  0  0
 15 49  1  0  0  0  0
 15 50  1  0  0  0  0
 16 27  1  0  0  0  0
 16 51  1  0  0  0  0
 16 52  1  0  0  0  0
 17 19  1  0  0  0  0
 17 53  1  0  0  0  0
 17 54  1  0  0  0  0
 18 19  1  0  0  0  0
 18 26  2  0  0  0  0
 19 55  1  0  0  0  0
 19 56  1  0  0  0  0
 20 30  1  0  0  0  0
 20 57  1  0  0  0  0
 20 58  1  0  0  0  0
 21 29  1  0  0  0  0
 22 24  1  0  0  0  0
 22 59  1  0  0  0  0
 23 60  1  0  0  0  0
 23 61  1  0  0  0  0
 23 62  1  0  0  0  0
 24 31  2  0  0  0  0
 25 32  1  0  0  0  0
 25 63  1  0  0  0  0
 26 31  1  0  0  0  0
 26 64  1  0  0  0  0
 27 33  2  0  0  0  0
 27 34  1  0  0  0  0
 28 65  1  0  0  0  0
 28 66  1  0  0  0  0
 28 67  1  0  0  0  0
 29 32  2  0  0  0  0
 30 35  2  0  0  0  0
 30 36  1  0  0  0  0
 33 37  1  0  0  0  0
 33 68  1  0  0  0  0
 34 39  2  0  0  0  0
 34 69  1  0  0  0  0
 35 40  1  0  0  0  0
 35 70  1  0  0  0  0
 36 41  2  0  0  0  0
 36 71  1  0  0  0  0
 37 42  2  0  0  0  0
 38 40  2  0  0  0  0
 38 41  1  0  0  0  0
 39 42  1  0  0  0  0
 39 72  1  0  0  0  0
 40 73  1  0  0  0  0
 41 74  1  0  0  0  0
 43 76  1  0  0  0  0
 43 77  1  0  0  0  0
 43 78  1  0  0  0  0
 44 79  1  0  0  0  0
 44 80  1  0  0  0  0
 44 81  1  0  0  0  0
M  END
> <PUBCHEM_COMPOUND_CID>
441064

> <PUBCHEM_CONFORMER_RMSD>
1

> <PUBCHEM_CONFORMER_DIVERSEORDER>
1
5
4
2
3

> <PUBCHEM_MMFF94_PARTIAL_CHARGES>
56
1 -0.17
10 0.41
11 -0.14
12 -0.14
13 0.27
14 -0.14
15 0.14
16 0.14
17 0.27
18 -0.14
19 0.14
2 -0.36
20 0.14
21 0.08
22 -0.15
23 0.27
24 0.08
25 -0.15
26 -0.15
27 -0.14
28 0.27
29 0.08
3 -0.36
30 -0.14
31 0.08
32 0.08
33 -0.15
34 -0.15
35 -0.15
36 -0.15
37 0.08
38 0.08
39 -0.15
4 -0.53
40 -0.15
41 -0.15
42 0.08
43 0.28
44 0.28
5 -0.17
59 0.15
6 -0.53
63 0.15
64 0.15
68 0.15
69 0.15
7 -0.81
70 0.15
71 0.15
72 0.15
73 0.15
74 0.15
75 0.45
8 -0.81
82 0.45
9 0.41

> <PUBCHEM_EFFECTIVE_ROTOR_COUNT>
4

> <PUBCHEM_PHARMACOPHORE_FEATURES>
14
1 1 acceptor
1 2 acceptor
1 3 acceptor
1 4 donor
1 5 acceptor
1 6 donor
1 7 cation
1 8 cation
6 11 14 21 25 29 32 rings
6 12 18 22 24 26 31 rings
6 27 33 34 37 39 42 rings
6 30 35 36 38 40 41 rings
6 7 9 11 13 14 15 rings
6 8 10 12 17 18 19 rings

> <PUBCHEM_HEAVY_ATOM_COUNT>
44

> <PUBCHEM_ATOM_DEF_STEREO_COUNT>
2

> <PUBCHEM_ATOM_UDEF_STEREO_COUNT>
0

> <PUBCHEM_BOND_DEF_STEREO_COUNT>
0

> <PUBCHEM_BOND_UDEF_STEREO_COUNT>
0

> <PUBCHEM_ISOTOPIC_ATOM_COUNT>
0

> <PUBCHEM_COMPONENT_COUNT>
1

> <PUBCHEM_CACTVS_TAUTO_COUNT>
8

> <PUBCHEM_CONFORMER_ID>
0006BAE800000001

> <PUBCHEM_MMFF94_ENERGY>
178.9466

> <PUBCHEM_FEATURE_SELFOVERLAP>
71.088

> <PUBCHEM_SHAPE_FINGERPRINT>
1100329 8 18119800558922358964
11093857 51 18045517553887733455
11513181 2 18114468864051679455
13636023 20 17460877285186634644
15001296 14 18413107290228677581
15297060 5 17682969043214225353
15351339 4 18411141320340724801
15484559 13 15814572812865223599
16112460 7 18188474861962349905
17909252 39 18187076270028167640
19319366 153 17917720097546796635
20764821 26 18334868216434184991
20775438 99 17969244273070026463
23559900 14 18333732450581879463
354706 132 17560233622438138334
4394409 98 17767422523160245981
463206 1 18340196513632754425
469060 322 18118393180355274817
508180 173 18268409391529378558
513532 50 17314245366471648817
5895379 119 18043242634143553204

> <PUBCHEM_SHAPE_MULTIPOLES>
860.32
10.84
5.76
2.86
8.21
2.29
-2.89
0.59
6.27
-2.44
0.12
-1.85
-2.37
-0.29

> <PUBCHEM_SHAPE_SELFOVERLAP>
1905.664

> <PUBCHEM_SHAPE_VOLUME>
458.5

> <PUBCHEM_COORDINATE_TYPE>
2
5
10

$$$$

