25811
  -OEChem-07051213133D

 14 13  0     0  0  0  0  0  0999 V2000
    2.6152   -0.5609    0.5732 O   0  0  0  0  0  0  0  0  0  0  0  0
    1.5221    0.2684   -1.2379 O   0  0  0  0  0  0  0  0  0  0  0  0
   -2.0803   -1.3259   -0.4241 O   0  0  0  0  0  0  0  0  0  0  0  0
   -0.8615    0.3428   -0.0112 N   0  0  0  0  0  0  0  0  0  0  0  0
   -1.9913   -0.2849    0.2380 N   0  0  0  0  0  0  0  0  0  0  0  0
    0.2771   -0.1338    0.7865 C   0  0  0  0  0  0  0  0  0  0  0  0
   -0.9938    1.7944    0.1457 C   0  0  0  0  0  0  0  0  0  0  0  0
    1.5124   -0.1001   -0.0701 C   0  0  0  0  0  0  0  0  0  0  0  0
    0.1466   -1.1845    1.0808 H   0  0  0  0  0  0  0  0  0  0  0  0
    0.4348    0.4568    1.6970 H   0  0  0  0  0  0  0  0  0  0  0  0
   -1.2457    2.0832    1.1742 H   0  0  0  0  0  0  0  0  0  0  0  0
   -1.7754    2.1869   -0.5172 H   0  0  0  0  0  0  0  0  0  0  0  0
   -0.0675    2.3085   -0.1359 H   0  0  0  0  0  0  0  0  0  0  0  0
    3.4076   -0.5494   -0.0051 H   0  0  0  0  0  0  0  0  0  0  0  0
  1  8  1  0  0  0  0
  1 14  1  0  0  0  0
  2  8  2  0  0  0  0
  3  5  2  0  0  0  0
  4  5  1  0  0  0  0
  4  6  1  0  0  0  0
  4  7  1  0  0  0  0
  6  8  1  0  0  0  0
  6  9  1  0  0  0  0
  6 10  1  0  0  0  0
  7 11  1  0  0  0  0
  7 12  1  0  0  0  0
  7 13  1  0  0  0  0
M  END
> <PUBCHEM_COMPOUND_CID>
25811

> <PUBCHEM_CONFORMER_RMSD>
0.6

> <PUBCHEM_CONFORMER_DIVERSEORDER>
1
13
19
4
7
6
3
15
5
9
17
2
12
8
16
14
18
11
10

> <PUBCHEM_MMFF94_PARTIAL_CHARGES>
9
1 -0.65
14 0.5
2 -0.57
3 -0.16
4 -0.36
5 -0.01
6 0.33
7 0.27
8 0.66

> <PUBCHEM_EFFECTIVE_ROTOR_COUNT>
3

> <PUBCHEM_PHARMACOPHORE_FEATURES>
3
1 1 acceptor
1 2 acceptor
3 1 2 8 anion

> <PUBCHEM_HEAVY_ATOM_COUNT>
8

> <PUBCHEM_ATOM_DEF_STEREO_COUNT>
0

> <PUBCHEM_ATOM_UDEF_STEREO_COUNT>
0

> <PUBCHEM_BOND_DEF_STEREO_COUNT>
0

> <PUBCHEM_BOND_UDEF_STEREO_COUNT>
0

> <PUBCHEM_ISOTOPIC_ATOM_COUNT>
0

> <PUBCHEM_COMPONENT_COUNT>
1

> <PUBCHEM_CACTVS_TAUTO_COUNT>
1

> <PUBCHEM_CONFORMER_ID>
000064D300000001

> <PUBCHEM_MMFF94_ENERGY>
16.9928

> <PUBCHEM_FEATURE_SELFOVERLAP>
15.281

> <PUBCHEM_SHAPE_FINGERPRINT>
16714656 1 18335976554003541177
18185500 45 18202565106938694768
21040471 1 17976533141555963617
23552423 10 18201152273310314658
23552449 1 18334582385939084672
23552449 11 17898014533972990481
24536 1 17346301709578152672
29004967 10 16225763017079587858

> <PUBCHEM_SHAPE_MULTIPOLES>
137.07
3.04
1.28
0.87
0.77
0.41
-0.11
-0.85
-0.02
-0.91
-0.04
0.32
0.01
-0.28

> <PUBCHEM_SHAPE_SELFOVERLAP>
255.856

> <PUBCHEM_SHAPE_VOLUME>
86.8

> <PUBCHEM_COORDINATE_TYPE>
2
5
10

$$$$

