854319
  -OEChem-06241222473D

 47 50  0     0  0  0  0  0  0999 V2000
    2.4806   -2.0675   -0.0993 O   0  0  0  0  0  0  0  0  0  0  0  0
   -1.8565   -0.1568    0.4969 O   0  0  0  0  0  0  0  0  0  0  0  0
    4.5579   -3.0084   -0.3669 O   0  0  0  0  0  0  0  0  0  0  0  0
    3.7131    0.4291    0.0972 C   0  0  0  0  0  0  0  0  0  0  0  0
    4.5515    1.6582    0.1750 C   0  0  0  0  0  0  0  0  0  0  0  0
    5.9107    1.1582   -0.3292 C   0  0  0  0  0  0  0  0  0  0  0  0
    5.9059   -0.3646   -0.1618 C   0  0  0  0  0  0  0  0  0  0  0  0
    4.4507   -0.6673   -0.0880 C   0  0  0  0  0  0  0  0  0  0  0  0
    2.2710    0.3511    0.2099 C   0  0  0  0  0  0  0  0  0  0  0  0
    1.6849   -0.9131    0.1054 C   0  0  0  0  0  0  0  0  0  0  0  0
    1.4433    1.4565    0.4177 C   0  0  0  0  0  0  0  0  0  0  0  0
    3.8712   -2.0082   -0.1990 C   0  0  0  0  0  0  0  0  0  0  0  0
    0.0583    1.2866    0.5139 C   0  0  0  0  0  0  0  0  0  0  0  0
   -0.5080    0.0146    0.4043 C   0  0  0  0  0  0  0  0  0  0  0  0
    0.3066   -1.0961    0.1990 C   0  0  0  0  0  0  0  0  0  0  0  0
   -0.8060    2.4846    0.7345 C   0  0  0  0  0  0  0  0  0  0  0  0
   -1.2600    3.1223   -0.5850 C   0  0  0  0  0  0  0  0  0  0  0  0
   -2.1666    4.3205   -0.3530 C   0  0  0  0  0  0  0  0  0  0  0  0
   -2.5158   -0.7298   -0.6304 C   0  0  0  0  0  0  0  0  0  0  0  0
   -3.9878   -0.8070   -0.3500 C   0  0  0  0  0  0  0  0  0  0  0  0
   -4.5151   -1.9437    0.2527 C   0  0  0  0  0  0  0  0  0  0  0  0
   -4.8112    0.2591   -0.6947 C   0  0  0  0  0  0  0  0  0  0  0  0
   -5.8835   -2.0156    0.5137 C   0  0  0  0  0  0  0  0  0  0  0  0
   -6.1797    0.1872   -0.4335 C   0  0  0  0  0  0  0  0  0  0  0  0
   -6.7156   -0.9501    0.1706 C   0  0  0  0  0  0  0  0  0  0  0  0
    4.1822    2.4688   -0.4606 H   0  0  0  0  0  0  0  0  0  0  0  0
    4.6206    2.0151    1.2082 H   0  0  0  0  0  0  0  0  0  0  0  0
    6.0243    1.4110   -1.3918 H   0  0  0  0  0  0  0  0  0  0  0  0
    6.7442    1.6275    0.2037 H   0  0  0  0  0  0  0  0  0  0  0  0
    6.4081   -0.6632    0.7645 H   0  0  0  0  0  0  0  0  0  0  0  0
    6.3961   -0.8538   -1.0087 H   0  0  0  0  0  0  0  0  0  0  0  0
    1.8692    2.4534    0.5041 H   0  0  0  0  0  0  0  0  0  0  0  0
   -0.1104   -2.0962    0.1296 H   0  0  0  0  0  0  0  0  0  0  0  0
   -1.6796    2.2173    1.3426 H   0  0  0  0  0  0  0  0  0  0  0  0
   -0.2606    3.2273    1.3319 H   0  0  0  0  0  0  0  0  0  0  0  0
   -0.3865    3.4404   -1.1671 H   0  0  0  0  0  0  0  0  0  0  0  0
   -1.7949    2.3859   -1.1965 H   0  0  0  0  0  0  0  0  0  0  0  0
   -3.0706    4.0276    0.1905 H   0  0  0  0  0  0  0  0  0  0  0  0
   -1.6526    5.0945    0.2256 H   0  0  0  0  0  0  0  0  0  0  0  0
   -2.4715    4.7565   -1.3095 H   0  0  0  0  0  0  0  0  0  0  0  0
   -2.1349   -1.7364   -0.8413 H   0  0  0  0  0  0  0  0  0  0  0  0
   -2.3307   -0.1173   -1.5222 H   0  0  0  0  0  0  0  0  0  0  0  0
   -3.8756   -2.7784    0.5264 H   0  0  0  0  0  0  0  0  0  0  0  0
   -4.4037    1.1509   -1.1628 H   0  0  0  0  0  0  0  0  0  0  0  0
   -6.3008   -2.9007    0.9847 H   0  0  0  0  0  0  0  0  0  0  0  0
   -6.8277    1.0172   -0.6997 H   0  0  0  0  0  0  0  0  0  0  0  0
   -7.7810   -1.0058    0.3742 H   0  0  0  0  0  0  0  0  0  0  0  0
  1 10  1  0  0  0  0
  1 12  1  0  0  0  0
  2 14  1  0  0  0  0
  2 19  1  0  0  0  0
  3 12  2  0  0  0  0
  4  5  1  0  0  0  0
  4  8  2  0  0  0  0
  4  9  1  0  0  0  0
  5  6  1  0  0  0  0
  5 26  1  0  0  0  0
  5 27  1  0  0  0  0
  6  7  1  0  0  0  0
  6 28  1  0  0  0  0
  6 29  1  0  0  0  0
  7  8  1  0  0  0  0
  7 30  1  0  0  0  0
  7 31  1  0  0  0  0
  8 12  1  0  0  0  0
  9 10  2  0  0  0  0
  9 11  1  0  0  0  0
 10 15  1  0  0  0  0
 11 13  2  0  0  0  0
 11 32  1  0  0  0  0
 13 14  1  0  0  0  0
 13 16  1  0  0  0  0
 14 15  2  0  0  0  0
 15 33  1  0  0  0  0
 16 17  1  0  0  0  0
 16 34  1  0  0  0  0
 16 35  1  0  0  0  0
 17 18  1  0  0  0  0
 17 36  1  0  0  0  0
 17 37  1  0  0  0  0
 18 38  1  0  0  0  0
 18 39  1  0  0  0  0
 18 40  1  0  0  0  0
 19 20  1  0  0  0  0
 19 41  1  0  0  0  0
 19 42  1  0  0  0  0
 20 21  2  0  0  0  0
 20 22  1  0  0  0  0
 21 23  1  0  0  0  0
 21 43  1  0  0  0  0
 22 24  2  0  0  0  0
 22 44  1  0  0  0  0
 23 25  2  0  0  0  0
 23 45  1  0  0  0  0
 24 25  1  0  0  0  0
 24 46  1  0  0  0  0
 25 47  1  0  0  0  0
M  END
> <PUBCHEM_COMPOUND_CID>
854319

> <PUBCHEM_CONFORMER_RMSD>
0.8

> <PUBCHEM_CONFORMER_DIVERSEORDER>
1
19
16
31
23
25
20
11
26
24
3
2
32
30
21
8
6
12
9
17
22
13
7
10
27
33
28
29
14
4
15
18
5

> <PUBCHEM_MMFF94_PARTIAL_CHARGES>
29
1 -0.23
10 0.08
11 -0.15
12 0.71
13 -0.14
14 0.08
15 -0.15
16 0.14
19 0.42
2 -0.36
20 -0.14
21 -0.15
22 -0.15
23 -0.15
24 -0.15
25 -0.15
3 -0.57
32 0.15
33 0.15
4 -0.17
43 0.15
44 0.15
45 0.15
46 0.15
47 0.15
5 0.14
7 0.14
8 -0.12
9 0.03

> <PUBCHEM_EFFECTIVE_ROTOR_COUNT>
5.6

> <PUBCHEM_PHARMACOPHORE_FEATURES>
7
1 18 hydrophobe
1 2 acceptor
1 3 acceptor
5 4 5 6 7 8 rings
6 1 4 8 9 10 12 rings
6 20 21 22 23 24 25 rings
6 9 10 11 13 14 15 rings

> <PUBCHEM_HEAVY_ATOM_COUNT>
25

> <PUBCHEM_ATOM_DEF_STEREO_COUNT>
0

> <PUBCHEM_ATOM_UDEF_STEREO_COUNT>
0

> <PUBCHEM_BOND_DEF_STEREO_COUNT>
0

> <PUBCHEM_BOND_UDEF_STEREO_COUNT>
0

> <PUBCHEM_ISOTOPIC_ATOM_COUNT>
0

> <PUBCHEM_COMPONENT_COUNT>
1

> <PUBCHEM_CACTVS_TAUTO_COUNT>
1

> <PUBCHEM_CONFORMER_ID>
000D092F00000001

> <PUBCHEM_MMFF94_ENERGY>
74.5888

> <PUBCHEM_FEATURE_SELFOVERLAP>
35.621

> <PUBCHEM_SHAPE_FINGERPRINT>
10050765 1 18267022950358474184
10673678 19 17843670068217275084
10688039 33 18341894099909659405
11135609 187 18195524784153696600
11963148 33 18338806615340789670
12166972 35 17704071768123173364
12236239 1 17603863373858453403
12516196 113 18410293575885883587
12788726 201 18342183301289825953
13402501 40 18411982438552317835
14251764 18 18040150704994870523
14341114 176 18411133620197527323
14840074 17 17821729407809755871
14933364 13 18412824668716939551
15183329 4 18408887343511168939
15276724 80 18337672018256379077
15475509 35 13984930897086715654
15537594 2 18040719134240099439
16087824 20 18339643469208774013
17492 89 18264488575956873414
21033650 10 16916224519432698181
21049683 271 18268423530198135565
21236236 1 18334294318609691241
21267235 1 18334288791202870638
21279426 13 18339364183783344719
21285901 2 18260260880210768095
21641784 216 18271793640484787276
21703447 108 18340216292663566890
21792934 111 18261969529791112826
221357 26 18408041831885719708
22182313 1 18044404740277107144
22950370 63 18409729547901004159
23559900 14 18337397019815758585
24771750 20 17625247620640924621
283562 15 18341330080203283601
2871803 45 18410855477883108986
3004659 81 18272934921059405962
314194 84 18113904840377941583
329604 57 18411982468173730572
350125 39 18335421287731217000
4073 2 18130784504217178627
4340502 62 17561089081593362914
46194498 28 17774725247315773437
465052 167 18113896052705977702
5104073 3 18188495803906108010
5283173 99 18201444717828632693
6328613 192 18335700589950478057
7164475 11 18339360867979298068

> <PUBCHEM_SHAPE_MULTIPOLES>
496.88
15.59
3.45
0.76
7.68
3.07
0
-7.26
1.35
0.69
0.28
0.26
0.11
0.81

> <PUBCHEM_SHAPE_SELFOVERLAP>
1086.351

> <PUBCHEM_SHAPE_VOLUME>
271.3

> <PUBCHEM_COORDINATE_TYPE>
2
5
10

$$$$

