443274
  -OEChem-07051213013D

 42 45  0     0  0  0  0  0  0999 V2000
   -1.9099   -1.8092    0.6612 S   0  0  0  0  0  0  0  0  0  0  0  0
    1.4050    2.3543    0.6408 S   0  0  0  0  0  0  0  0  0  0  0  0
   -0.2932    0.3047    0.6326 N   0  0  0  0  0  0  0  0  0  0  0  0
   -1.1749    2.4684   -0.0097 N   0  0  0  0  0  0  0  0  0  0  0  0
   -3.4368    2.8111   -0.6149 N   0  0  0  0  0  0  0  0  0  0  0  0
   -5.1757    0.2017   -0.5205 C   0  0  0  0  0  0  0  0  0  0  0  0
   -6.0768   -0.9832   -0.9003 C   0  0  0  0  0  0  0  0  0  0  0  0
   -3.8018   -0.2456   -0.1155 C   0  0  0  0  0  0  0  0  0  0  0  0
   -5.9584   -2.1309    0.1121 C   0  0  0  0  0  0  0  0  0  0  0  0
   -4.5256   -2.6800    0.1818 C   0  0  0  0  0  0  0  0  0  0  0  0
   -3.5336   -1.5598    0.2214 C   0  0  0  0  0  0  0  0  0  0  0  0
   -2.6352    0.5819    0.0056 C   0  0  0  0  0  0  0  0  0  0  0  0
   -1.5386   -0.1639    0.4218 C   0  0  0  0  0  0  0  0  0  0  0  0
   -2.4042    1.9463   -0.2062 C   0  0  0  0  0  0  0  0  0  0  0  0
   -0.2053    1.6247    0.3927 C   0  0  0  0  0  0  0  0  0  0  0  0
    2.5016    0.9622    0.2512 C   0  0  0  0  0  0  0  0  0  0  0  0
    3.9831    1.3211    0.3871 C   0  0  0  0  0  0  0  0  0  0  0  0
    4.9306    0.1955    0.0507 C   0  0  0  0  0  0  0  0  0  0  0  0
    5.3383   -0.6718    1.0521 C   0  0  0  0  0  0  0  0  0  0  0  0
    5.3759    0.0487   -1.2538 C   0  0  0  0  0  0  0  0  0  0  0  0
    6.2139   -1.7123    0.7413 C   0  0  0  0  0  0  0  0  0  0  0  0
    6.2513   -0.9918   -1.5645 C   0  0  0  0  0  0  0  0  0  0  0  0
    6.6703   -1.8722   -0.5669 C   0  0  0  0  0  0  0  0  0  0  0  0
   -5.6303    0.7603    0.3061 H   0  0  0  0  0  0  0  0  0  0  0  0
   -5.1280    0.8531   -1.3985 H   0  0  0  0  0  0  0  0  0  0  0  0
   -7.1173   -0.6453   -0.9647 H   0  0  0  0  0  0  0  0  0  0  0  0
   -5.7985   -1.3544   -1.8951 H   0  0  0  0  0  0  0  0  0  0  0  0
   -6.6471   -2.9401   -0.1559 H   0  0  0  0  0  0  0  0  0  0  0  0
   -6.2614   -1.7672    1.1024 H   0  0  0  0  0  0  0  0  0  0  0  0
   -4.3301   -3.2951   -0.7054 H   0  0  0  0  0  0  0  0  0  0  0  0
   -4.4265   -3.3263    1.0613 H   0  0  0  0  0  0  0  0  0  0  0  0
   -4.4010    2.5270   -0.6537 H   0  0  0  0  0  0  0  0  0  0  0  0
   -3.2109    3.7892   -0.7420 H   0  0  0  0  0  0  0  0  0  0  0  0
    2.2924    0.6266   -0.7711 H   0  0  0  0  0  0  0  0  0  0  0  0
    2.2762    0.1274    0.9246 H   0  0  0  0  0  0  0  0  0  0  0  0
    4.1909    1.6616    1.4109 H   0  0  0  0  0  0  0  0  0  0  0  0
    4.2181    2.1800   -0.2566 H   0  0  0  0  0  0  0  0  0  0  0  0
    4.9865   -0.5567    2.0733 H   0  0  0  0  0  0  0  0  0  0  0  0
    5.0534    0.7279   -2.0378 H   0  0  0  0  0  0  0  0  0  0  0  0
    6.5396   -2.3982    1.5177 H   0  0  0  0  0  0  0  0  0  0  0  0
    6.6062   -1.1171   -2.5833 H   0  0  0  0  0  0  0  0  0  0  0  0
    7.3516   -2.6826   -0.8090 H   0  0  0  0  0  0  0  0  0  0  0  0
  1 11  1  0  0  0  0
  1 13  1  0  0  0  0
  2 15  1  0  0  0  0
  2 16  1  0  0  0  0
  3 13  2  0  0  0  0
  3 15  1  0  0  0  0
  4 14  1  0  0  0  0
  4 15  2  0  0  0  0
  5 14  1  0  0  0  0
  5 32  1  0  0  0  0
  5 33  1  0  0  0  0
  6  7  1  0  0  0  0
  6  8  1  0  0  0  0
  6 24  1  0  0  0  0
  6 25  1  0  0  0  0
  7  9  1  0  0  0  0
  7 26  1  0  0  0  0
  7 27  1  0  0  0  0
  8 11  2  0  0  0  0
  8 12  1  0  0  0  0
  9 10  1  0  0  0  0
  9 28  1  0  0  0  0
  9 29  1  0  0  0  0
 10 11  1  0  0  0  0
 10 30  1  0  0  0  0
 10 31  1  0  0  0  0
 12 13  1  0  0  0  0
 12 14  2  0  0  0  0
 16 17  1  0  0  0  0
 16 34  1  0  0  0  0
 16 35  1  0  0  0  0
 17 18  1  0  0  0  0
 17 36  1  0  0  0  0
 17 37  1  0  0  0  0
 18 19  2  0  0  0  0
 18 20  1  0  0  0  0
 19 21  1  0  0  0  0
 19 38  1  0  0  0  0
 20 22  2  0  0  0  0
 20 39  1  0  0  0  0
 21 23  2  0  0  0  0
 21 40  1  0  0  0  0
 22 23  1  0  0  0  0
 22 41  1  0  0  0  0
 23 42  1  0  0  0  0
M  END
> <PUBCHEM_COMPOUND_CID>
443274

> <PUBCHEM_CONFORMER_RMSD>
0.8

> <PUBCHEM_CONFORMER_DIVERSEORDER>
3
37
20
10
45
41
9
4
36
21
46
47
6
48
13
2
25
33
18
5
50
19
35
39
44
42
11
7
49
16
31
28
43
1
40
12
24
29
30
34
15
8
17
32
23
27
38
14
22
26

> <PUBCHEM_MMFF94_PARTIAL_CHARGES>
27
1 -0.08
10 0.18
11 -0.14
13 0.3
14 0.41
15 0.72
16 0.23
17 0.14
18 -0.14
19 -0.15
2 -0.33
20 -0.15
21 -0.15
22 -0.15
23 -0.15
3 -0.57
32 0.4
33 0.4
38 0.15
39 0.15
4 -0.62
40 0.15
41 0.15
42 0.15
5 -0.9
6 0.18
8 -0.18

> <PUBCHEM_EFFECTIVE_ROTOR_COUNT>
4.8

> <PUBCHEM_PHARMACOPHORE_FEATURES>
8
1 3 acceptor
1 5 cation
1 5 donor
3 3 4 15 cation
5 1 8 11 12 13 rings
6 18 19 20 21 22 23 rings
6 3 4 12 13 14 15 rings
6 6 7 8 9 10 11 rings

> <PUBCHEM_HEAVY_ATOM_COUNT>
23

> <PUBCHEM_ATOM_DEF_STEREO_COUNT>
0

> <PUBCHEM_ATOM_UDEF_STEREO_COUNT>
0

> <PUBCHEM_BOND_DEF_STEREO_COUNT>
0

> <PUBCHEM_BOND_UDEF_STEREO_COUNT>
0

> <PUBCHEM_ISOTOPIC_ATOM_COUNT>
0

> <PUBCHEM_COMPONENT_COUNT>
1

> <PUBCHEM_CACTVS_TAUTO_COUNT>
4

> <PUBCHEM_CONFORMER_ID>
0006C38A00000003

> <PUBCHEM_MMFF94_ENERGY>
49.1127

> <PUBCHEM_FEATURE_SELFOVERLAP>
40.732

> <PUBCHEM_SHAPE_FINGERPRINT>
10693767 8 17974304122982585479
11524674 6 16950282897368241103
11578080 2 16915121731378021335
117089 54 17825090757455945334
11796584 16 18265615558442848784
11809386 21 18343587373221923184
12166972 35 17846213328410579468
12616971 3 14634875232124984480
12760667 363 18333731308257091779
12954195 1 18410858797982947761
13402501 40 18334292050529270838
13533116 47 17968096352913569976
13782708 43 18040721333458221487
13955234 65 17753616737139658328
14216079 64 18335139761394142823
14347332 77 18413393150276956272
14790565 3 17327454135022572553
14866123 147 18334851771136979329
14910302 57 18271816709102033204
14931854 50 18131067169411415834
15183329 4 18344145908292030714
15250474 111 18058738025981640434
15510800 12 17822566235750363038
15519825 34 14490769892598737887
16990350 14 16534257723635395848
17857418 61 18413109472504268866
19958102 18 18130798862060233686
20403669 9 18334290959876187198
21130935 74 17973160631163758147
21267235 1 18342174415735609139
21279426 13 18341060644389239765
21307412 95 18411140199971653527
21315763 87 17240491286559259450
21623969 137 17312820494444778110
21682296 61 18337670798786217427
23522609 53 18121465090841933928
23559900 14 18339649923420480761
25122255 55 18333444348644327310
3004659 81 18273215288224308322
3089732 80 18334008385335478094
335352 9 18412268333672537341
439807 62 18413669127922615218
44062 13 18411419544354174748
444769 64 18410003361014599537
465052 167 18186798050615490708
5104073 3 18040998436406541824
559249 180 18339365274293834336
5718773 13 18334298651809563422
6138700 20 18411139138697934667
86090 222 17023444422924610078
960060 61 17632290177953667060

> <PUBCHEM_SHAPE_MULTIPOLES>
466.09
18.48
2.98
1.03
16.76
0.66
-0.18
-13.41
-4.19
-1.91
0.16
1.18
-0.19
0.86

> <PUBCHEM_SHAPE_SELFOVERLAP>
987.029

> <PUBCHEM_SHAPE_VOLUME>
263.1

> <PUBCHEM_COORDINATE_TYPE>
2
5
10

$$$$

