224247
  -OEChem-07051213073D

 64 67  0     1  0  0  0  0  0999 V2000
   -1.8518   -0.1743    1.1243 F   0  0  0  0  0  0  0  0  0  0  0  0
    2.3131    0.6521    2.1243 O   0  0  0  0  0  0  0  0  0  0  0  0
   -0.3337   -1.4917   -1.8459 O   0  0  0  0  0  0  0  0  0  0  0  0
    4.7458    1.3195    0.0627 O   0  0  0  0  0  0  0  0  0  0  0  0
   -6.6394   -0.9317    1.1698 O   0  0  0  0  0  0  0  0  0  0  0  0
    5.3934   -1.2545    0.8079 O   0  0  0  0  0  0  0  0  0  0  0  0
    5.9630   -1.2997   -1.4306 O   0  0  0  0  0  0  0  0  0  0  0  0
    1.3366    0.5132   -0.1280 C   0  0  1  0  0  0  0  0  0  0  0  0
    0.2261    1.5163    0.2575 C   0  0  2  0  0  0  0  0  0  0  0  0
   -1.0803    1.3059   -0.5222 C   0  0  1  0  0  0  0  0  0  0  0  0
   -1.6200   -0.1403   -0.2359 C   0  0  2  0  0  0  0  0  0  0  0  0
   -3.0185   -0.3918   -0.9329 C   0  0  2  0  0  0  0  0  0  0  0  0
    2.4859    1.0512    0.7676 C   0  0  1  0  0  0  0  0  0  0  0  0
    0.8196   -0.8998    0.2066 C   0  0  0  0  0  0  0  0  0  0  0  0
   -0.5334   -1.2302   -0.4662 C   0  0  2  0  0  0  0  0  0  0  0  0
    0.9262    2.8701    0.1700 C   0  0  0  0  0  0  0  0  0  0  0  0
    2.3600    2.5884    0.6648 C   0  0  0  0  0  0  0  0  0  0  0  0
   -2.1192    2.3761   -0.1332 C   0  0  0  0  0  0  0  0  0  0  0  0
   -3.9555    0.7313   -0.4747 C   0  0  0  0  0  0  0  0  0  0  0  0
    1.7547    0.6023   -1.6220 C   0  0  0  0  0  0  0  0  0  0  0  0
   -3.4823    2.1333   -0.7764 C   0  0  0  0  0  0  0  0  0  0  0  0
   -3.6400   -1.7900   -0.6241 C   0  0  0  0  0  0  0  0  0  0  0  0
   -2.9182   -0.3295   -2.4849 C   0  0  0  0  0  0  0  0  0  0  0  0
    3.8502    0.5481    0.4032 C   0  0  0  0  0  0  0  0  0  0  0  0
   -4.5254   -1.9219    0.6161 C   0  0  2  0  0  0  0  0  0  0  0  0
   -5.0973    0.5502    0.2071 C   0  0  0  0  0  0  0  0  0  0  0  0
   -5.5229   -0.7872    0.6744 C   0  0  0  0  0  0  0  0  0  0  0  0
    4.0546   -0.9500    0.4788 C   0  0  0  0  0  0  0  0  0  0  0  0
   -3.7817   -2.0351    1.9394 C   0  0  0  0  0  0  0  0  0  0  0  0
    6.2566   -1.4059   -0.2475 C   0  0  0  0  0  0  0  0  0  0  0  0
    7.6339   -1.7242    0.2501 C   0  0  0  0  0  0  0  0  0  0  0  0
   -0.0207    1.3738    1.3224 H   0  0  0  0  0  0  0  0  0  0  0  0
   -0.8803    1.4240   -1.5909 H   0  0  0  0  0  0  0  0  0  0  0  0
    0.6838   -1.0036    1.2901 H   0  0  0  0  0  0  0  0  0  0  0  0
    1.5478   -1.6574   -0.0968 H   0  0  0  0  0  0  0  0  0  0  0  0
   -0.8758   -2.1664   -0.0119 H   0  0  0  0  0  0  0  0  0  0  0  0
    0.4362    3.6266    0.7916 H   0  0  0  0  0  0  0  0  0  0  0  0
    0.9425    3.2469   -0.8589 H   0  0  0  0  0  0  0  0  0  0  0  0
    3.0636    3.0397   -0.0430 H   0  0  0  0  0  0  0  0  0  0  0  0
    2.5177    3.0705    1.6364 H   0  0  0  0  0  0  0  0  0  0  0  0
   -1.7633    3.3691   -0.4325 H   0  0  0  0  0  0  0  0  0  0  0  0
   -2.2352    2.4008    0.9585 H   0  0  0  0  0  0  0  0  0  0  0  0
    2.2746    1.5371   -1.8566 H   0  0  0  0  0  0  0  0  0  0  0  0
    2.4321   -0.2140   -1.8927 H   0  0  0  0  0  0  0  0  0  0  0  0
    0.9076    0.5460   -2.3083 H   0  0  0  0  0  0  0  0  0  0  0  0
   -3.4257    2.2889   -1.8594 H   0  0  0  0  0  0  0  0  0  0  0  0
   -4.1876    2.8845   -0.3999 H   0  0  0  0  0  0  0  0  0  0  0  0
   -2.8768   -2.5746   -0.6224 H   0  0  0  0  0  0  0  0  0  0  0  0
   -4.2951   -2.0569   -1.4689 H   0  0  0  0  0  0  0  0  0  0  0  0
   -2.3259    0.5125   -2.8509 H   0  0  0  0  0  0  0  0  0  0  0  0
   -2.4800   -1.2426   -2.9007 H   0  0  0  0  0  0  0  0  0  0  0  0
   -3.9145   -0.2339   -2.9364 H   0  0  0  0  0  0  0  0  0  0  0  0
   -5.1040   -2.8466    0.4835 H   0  0  0  0  0  0  0  0  0  0  0  0
    2.9559    1.1371    2.6697 H   0  0  0  0  0  0  0  0  0  0  0  0
   -5.7268    1.3854    0.4966 H   0  0  0  0  0  0  0  0  0  0  0  0
    0.3121   -2.2144   -1.9220 H   0  0  0  0  0  0  0  0  0  0  0  0
    3.7516   -1.4219   -0.4599 H   0  0  0  0  0  0  0  0  0  0  0  0
    3.4462   -1.3730    1.2820 H   0  0  0  0  0  0  0  0  0  0  0  0
   -3.4855   -1.0609    2.3374 H   0  0  0  0  0  0  0  0  0  0  0  0
   -4.4362   -2.4836    2.6960 H   0  0  0  0  0  0  0  0  0  0  0  0
   -2.8958   -2.6710    1.8494 H   0  0  0  0  0  0  0  0  0  0  0  0
    7.6163   -2.6598    0.8145 H   0  0  0  0  0  0  0  0  0  0  0  0
    8.0002   -0.9049    0.8735 H   0  0  0  0  0  0  0  0  0  0  0  0
    8.3093   -1.8434   -0.6019 H   0  0  0  0  0  0  0  0  0  0  0  0
  1 11  1  0  0  0  0
  2 13  1  0  0  0  0
  2 54  1  0  0  0  0
  3 15  1  0  0  0  0
  3 56  1  0  0  0  0
  4 24  2  0  0  0  0
  5 27  2  0  0  0  0
  6 28  1  0  0  0  0
  6 30  1  0  0  0  0
  7 30  2  0  0  0  0
  8  9  1  0  0  0  0
  8 13  1  0  0  0  0
  8 14  1  0  0  0  0
  8 20  1  0  0  0  0
  9 10  1  0  0  0  0
  9 16  1  0  0  0  0
  9 32  1  0  0  0  0
 10 11  1  0  0  0  0
 10 18  1  0  0  0  0
 10 33  1  0  0  0  0
 11 12  1  0  0  0  0
 11 15  1  0  0  0  0
 12 19  1  0  0  0  0
 12 22  1  0  0  0  0
 12 23  1  0  0  0  0
 13 17  1  0  0  0  0
 13 24  1  0  0  0  0
 14 15  1  0  0  0  0
 14 34  1  0  0  0  0
 14 35  1  0  0  0  0
 15 36  1  0  0  0  0
 16 17  1  0  0  0  0
 16 37  1  0  0  0  0
 16 38  1  0  0  0  0
 17 39  1  0  0  0  0
 17 40  1  0  0  0  0
 18 21  1  0  0  0  0
 18 41  1  0  0  0  0
 18 42  1  0  0  0  0
 19 21  1  0  0  0  0
 19 26  2  0  0  0  0
 20 43  1  0  0  0  0
 20 44  1  0  0  0  0
 20 45  1  0  0  0  0
 21 46  1  0  0  0  0
 21 47  1  0  0  0  0
 22 25  1  0  0  0  0
 22 48  1  0  0  0  0
 22 49  1  0  0  0  0
 23 50  1  0  0  0  0
 23 51  1  0  0  0  0
 23 52  1  0  0  0  0
 24 28  1  0  0  0  0
 25 27  1  0  0  0  0
 25 29  1  0  0  0  0
 25 53  1  0  0  0  0
 26 27  1  0  0  0  0
 26 55  1  0  0  0  0
 28 57  1  0  0  0  0
 28 58  1  0  0  0  0
 29 59  1  0  0  0  0
 29 60  1  0  0  0  0
 29 61  1  0  0  0  0
 30 31  1  0  0  0  0
 31 62  1  0  0  0  0
 31 63  1  0  0  0  0
 31 64  1  0  0  0  0
M  END
> <PUBCHEM_COMPOUND_CID>
224247

> <PUBCHEM_CONFORMER_RMSD>
0.8

> <PUBCHEM_CONFORMER_DIVERSEORDER>
8
2
4
17
19
11
12
5
20
18
9
7
15
1
16
13
3
14
6
10

> <PUBCHEM_MMFF94_PARTIAL_CHARGES>
23
1 -0.34
11 0.34
12 0.14
13 0.34
15 0.28
19 -0.28
2 -0.68
21 0.14
24 0.45
25 0.06
26 -0.14
27 0.49
28 0.34
3 -0.68
30 0.66
31 0.06
4 -0.57
5 -0.57
54 0.4
55 0.15
56 0.4
6 -0.43
7 -0.57

> <PUBCHEM_EFFECTIVE_ROTOR_COUNT>
5.8

> <PUBCHEM_PHARMACOPHORE_FEATURES>
11
1 2 acceptor
1 2 donor
1 3 acceptor
1 3 donor
1 4 acceptor
1 5 acceptor
1 7 acceptor
5 8 9 13 16 17 rings
6 10 11 12 18 19 21 rings
6 12 19 22 25 26 27 rings
6 8 9 10 11 14 15 rings

> <PUBCHEM_HEAVY_ATOM_COUNT>
31

> <PUBCHEM_ATOM_DEF_STEREO_COUNT>
8

> <PUBCHEM_ATOM_UDEF_STEREO_COUNT>
0

> <PUBCHEM_BOND_DEF_STEREO_COUNT>
0

> <PUBCHEM_BOND_UDEF_STEREO_COUNT>
0

> <PUBCHEM_ISOTOPIC_ATOM_COUNT>
0

> <PUBCHEM_COMPONENT_COUNT>
1

> <PUBCHEM_CACTVS_TAUTO_COUNT>
10

> <PUBCHEM_CONFORMER_ID>
00036BF700000008

> <PUBCHEM_MMFF94_ENERGY>
106.8275

> <PUBCHEM_FEATURE_SELFOVERLAP>
55.92

> <PUBCHEM_SHAPE_FINGERPRINT>
10 15 6627744500799891662
10076449 9 18333724733284595158
10675989 125 16537647517561543725
11045977 3 18272654524261541203
11135609 12 18411693309495090061
11456790 92 17603853487371487099
11578080 2 7420684755832338226
12035758 1 17749393685002109654
12166972 35 17917705799621604740
12236239 1 17531246119637882003
12422481 6 17967246494664828223
12633257 1 16732985293167627098
13009979 54 18130781269895762781
13140716 1 18191305966838006661
13224815 77 18265620888254721917
13583140 156 17558299586149216117
13673619 4 18201999923607768709
13685833 64 18411136944370228834
13690498 29 18130791187148887124
13782708 43 18261393321247716303
14341114 176 18413107234430792081
14420673 8 18410572911510308723
14856354 85 18060128856234528567
14955137 171 18408882910509197185
15788980 27 18260833691329901351
17349148 13 17846781805960471297
17492 89 18191877712267655255
17844677 252 18413386531890777556
17980427 23 5328449415591852600
18393751 57 16165285209017734849
18927931 339 18410575097959684743
20511986 3 7781518075051778700
20567600 254 10375866373379750762
21033648 29 17750536077055959241
21150785 3 17060331916975754294
21267235 1 18410290337559598730
21682296 61 18260544554121342534
21859007 373 5616440033620669432
22182313 1 17896030112816039173
23522609 53 18122592085786036716
23559900 14 17916583133524344629
23569917 315 17749392521262107343
3004659 81 18272090522420979312
335352 9 18337397131759370869
3383291 50 18412269436836301538
34797466 226 16988837238383686596
350125 39 18410853269705422845
3633792 109 15792293842832945517
4058900 60 17478905230361702197
465052 167 18337384959309960866
497634 4 17561362898352662879
5104073 3 17241335650774280643
5265222 85 17203318983945523170
54039377 194 18337104658046752174
8863177 126 18270959042492263850
999808 66 18342451556230689562

> <PUBCHEM_SHAPE_MULTIPOLES>
595.48
14.59
2.61
1.53
14.78
1.01
-0.33
-9.55
1.99
0.1
0.37
-0.74
-0.42
1.37

> <PUBCHEM_SHAPE_SELFOVERLAP>
1280.721

> <PUBCHEM_SHAPE_VOLUME>
327.8

> <PUBCHEM_COORDINATE_TYPE>
2
5
10

$$$$

