15868
  -OEChem-07051213143D

 55 55  0     1  0  0  0  0  0999 V2000
   -5.3906   -0.4333    0.4083 O   0  0  0  0  0  0  0  0  0  0  0  0
    5.1015    0.9258    0.2981 O   0  0  0  0  0  0  0  0  0  0  0  0
    4.5761    3.0186   -0.4074 O   0  0  0  0  0  0  0  0  0  0  0  0
   -4.0617   -0.9691    0.3724 C   0  0  2  0  0  0  0  0  0  0  0  0
   -4.3433    0.4592    0.0063 C   0  0  2  0  0  0  0  0  0  0  0  0
   -3.8399   -1.9940   -0.6732 C   0  0  0  0  0  0  0  0  0  0  0  0
   -4.0678    1.5711    0.9718 C   0  0  0  0  0  0  0  0  0  0  0  0
   -2.3996   -2.0388   -1.2072 C   0  0  0  0  0  0  0  0  0  0  0  0
   -2.6097    2.0365    0.9578 C   0  0  0  0  0  0  0  0  0  0  0  0
   -1.3669   -2.3234   -0.1131 C   0  0  0  0  0  0  0  0  0  0  0  0
   -2.1833    2.6255   -0.3902 C   0  0  0  0  0  0  0  0  0  0  0  0
    0.0544   -2.3291   -0.6808 C   0  0  0  0  0  0  0  0  0  0  0  0
   -0.7224    3.0881   -0.4158 C   0  0  0  0  0  0  0  0  0  0  0  0
    1.0861   -2.6464    0.4044 C   0  0  0  0  0  0  0  0  0  0  0  0
    0.3267    1.9941   -0.1916 C   0  0  0  0  0  0  0  0  0  0  0  0
    2.5031   -2.6836   -0.1725 C   0  0  0  0  0  0  0  0  0  0  0  0
    1.7683    2.5047   -0.2883 C   0  0  0  0  0  0  0  0  0  0  0  0
    3.5717   -3.0273    0.8673 C   0  0  0  0  0  0  0  0  0  0  0  0
    2.7941    1.4151    0.0282 C   0  0  0  0  0  0  0  0  0  0  0  0
    4.9786   -3.0912    0.2933 C   0  0  0  0  0  0  0  0  0  0  0  0
    4.2246    1.8975   -0.0678 C   0  0  0  0  0  0  0  0  0  0  0  0
   -3.6007   -1.2005    1.3224 H   0  0  0  0  0  0  0  0  0  0  0  0
   -4.3267    0.7628   -1.0310 H   0  0  0  0  0  0  0  0  0  0  0  0
   -4.1005   -2.9774   -0.2636 H   0  0  0  0  0  0  0  0  0  0  0  0
   -4.5137   -1.8275   -1.5234 H   0  0  0  0  0  0  0  0  0  0  0  0
   -4.7262    2.4154    0.7352 H   0  0  0  0  0  0  0  0  0  0  0  0
   -4.3207    1.2550    1.9917 H   0  0  0  0  0  0  0  0  0  0  0  0
   -2.1651   -1.0788   -1.6838 H   0  0  0  0  0  0  0  0  0  0  0  0
   -2.3343   -2.8093   -1.9848 H   0  0  0  0  0  0  0  0  0  0  0  0
   -2.4696    2.7898    1.7421 H   0  0  0  0  0  0  0  0  0  0  0  0
   -1.9723    1.1826    1.2123 H   0  0  0  0  0  0  0  0  0  0  0  0
   -1.5857   -3.2911    0.3539 H   0  0  0  0  0  0  0  0  0  0  0  0
   -1.4233   -1.5615    0.6723 H   0  0  0  0  0  0  0  0  0  0  0  0
   -2.8279    3.4792   -0.6321 H   0  0  0  0  0  0  0  0  0  0  0  0
   -2.3202    1.8863   -1.1874 H   0  0  0  0  0  0  0  0  0  0  0  0
    0.1245   -3.0751   -1.4818 H   0  0  0  0  0  0  0  0  0  0  0  0
    0.2781   -1.3532   -1.1278 H   0  0  0  0  0  0  0  0  0  0  0  0
   -0.5336    3.5593   -1.3887 H   0  0  0  0  0  0  0  0  0  0  0  0
   -0.5862    3.8733    0.3384 H   0  0  0  0  0  0  0  0  0  0  0  0
    1.0333   -1.8902    1.1969 H   0  0  0  0  0  0  0  0  0  0  0  0
    0.8530   -3.6148    0.8633 H   0  0  0  0  0  0  0  0  0  0  0  0
    0.1844    1.5470    0.7987 H   0  0  0  0  0  0  0  0  0  0  0  0
    0.1765    1.1949   -0.9272 H   0  0  0  0  0  0  0  0  0  0  0  0
    2.7402   -1.7161   -0.6277 H   0  0  0  0  0  0  0  0  0  0  0  0
    2.5425   -3.4268   -0.9789 H   0  0  0  0  0  0  0  0  0  0  0  0
    1.9485    2.9004   -1.2956 H   0  0  0  0  0  0  0  0  0  0  0  0
    1.9061    3.3437    0.4053 H   0  0  0  0  0  0  0  0  0  0  0  0
    3.3340   -3.9937    1.3276 H   0  0  0  0  0  0  0  0  0  0  0  0
    3.5500   -2.2792    1.6688 H   0  0  0  0  0  0  0  0  0  0  0  0
    2.6291    1.0380    1.0436 H   0  0  0  0  0  0  0  0  0  0  0  0
    2.6739    0.5911   -0.6821 H   0  0  0  0  0  0  0  0  0  0  0  0
    5.6998   -3.3352    1.0794 H   0  0  0  0  0  0  0  0  0  0  0  0
    5.0481   -3.8585   -0.4841 H   0  0  0  0  0  0  0  0  0  0  0  0
    5.2644   -2.1304   -0.1463 H   0  0  0  0  0  0  0  0  0  0  0  0
    6.0312    1.2345    0.2479 H   0  0  0  0  0  0  0  0  0  0  0  0
  1  4  1  0  0  0  0
  1  5  1  0  0  0  0
  2 21  1  0  0  0  0
  2 55  1  0  0  0  0
  3 21  2  0  0  0  0
  4  5  1  0  0  0  0
  4  6  1  0  0  0  0
  4 22  1  0  0  0  0
  5  7  1  0  0  0  0
  5 23  1  0  0  0  0
  6  8  1  0  0  0  0
  6 24  1  0  0  0  0
  6 25  1  0  0  0  0
  7  9  1  0  0  0  0
  7 26  1  0  0  0  0
  7 27  1  0  0  0  0
  8 10  1  0  0  0  0
  8 28  1  0  0  0  0
  8 29  1  0  0  0  0
  9 11  1  0  0  0  0
  9 30  1  0  0  0  0
  9 31  1  0  0  0  0
 10 12  1  0  0  0  0
 10 32  1  0  0  0  0
 10 33  1  0  0  0  0
 11 13  1  0  0  0  0
 11 34  1  0  0  0  0
 11 35  1  0  0  0  0
 12 14  1  0  0  0  0
 12 36  1  0  0  0  0
 12 37  1  0  0  0  0
 13 15  1  0  0  0  0
 13 38  1  0  0  0  0
 13 39  1  0  0  0  0
 14 16  1  0  0  0  0
 14 40  1  0  0  0  0
 14 41  1  0  0  0  0
 15 17  1  0  0  0  0
 15 42  1  0  0  0  0
 15 43  1  0  0  0  0
 16 18  1  0  0  0  0
 16 44  1  0  0  0  0
 16 45  1  0  0  0  0
 17 19  1  0  0  0  0
 17 46  1  0  0  0  0
 17 47  1  0  0  0  0
 18 20  1  0  0  0  0
 18 48  1  0  0  0  0
 18 49  1  0  0  0  0
 19 21  1  0  0  0  0
 19 50  1  0  0  0  0
 19 51  1  0  0  0  0
 20 52  1  0  0  0  0
 20 53  1  0  0  0  0
 20 54  1  0  0  0  0
M  END
> <PUBCHEM_COMPOUND_CID>
15868

> <PUBCHEM_CONFORMER_RMSD>
1.4

> <PUBCHEM_CONFORMER_DIVERSEORDER>
1
103
89
34
70
93
54
31
62
63
25
19
67
50
3
107
42
69
14
98
9
39
88
16
96
97
94
32
68
51
5
44
85
83
91
35
53
27
60
61
4
66
77
109
102
99
52
2
65
47
24
75
30
57
28
29
92
101
48
90
37
45
86
56
87
43
17
46
7
18
80
106
11
20
81
12
71
8
40
6
22
72
110
21
10
36
73
26
38
76
79
78
84
55
58
15
95
100
104
82
59
105
74
41
49
33
13
108
64
23

> <PUBCHEM_MMFF94_PARTIAL_CHARGES>
12
1 -0.3
19 0.06
2 -0.65
21 0.66
22 0.1
23 0.1
3 -0.57
4 -0.05
5 -0.05
55 0.5
6 0.09
7 0.09

> <PUBCHEM_EFFECTIVE_ROTOR_COUNT>
15.6

> <PUBCHEM_PHARMACOPHORE_FEATURES>
5
1 1 acceptor
1 2 acceptor
1 20 hydrophobe
1 3 acceptor
3 2 3 21 anion

> <PUBCHEM_HEAVY_ATOM_COUNT>
21

> <PUBCHEM_ATOM_DEF_STEREO_COUNT>
0

> <PUBCHEM_ATOM_UDEF_STEREO_COUNT>
2

> <PUBCHEM_BOND_DEF_STEREO_COUNT>
0

> <PUBCHEM_BOND_UDEF_STEREO_COUNT>
0

> <PUBCHEM_ISOTOPIC_ATOM_COUNT>
0

> <PUBCHEM_COMPONENT_COUNT>
1

> <PUBCHEM_CACTVS_TAUTO_COUNT>
1

> <PUBCHEM_CONFORMER_ID>
00003DFC00000001

> <PUBCHEM_MMFF94_ENERGY>
3.8416

> <PUBCHEM_FEATURE_SELFOVERLAP>
25.43

> <PUBCHEM_SHAPE_FINGERPRINT>
10708813 3 18335974316204364577
10864689 126 17401203868917726686
13111901 25 18341901831641966378
14251757 5 17333072136818272444
14790565 3 18052534379256068428
16120349 306 18334571296481102857
16719943 64 18051976918449660104
17977361 122 18192995924673408037
18336668 15 17986383602263551318
20721686 56 18413387635623773259
21623110 236 18336262444386064897
21673915 165 18408601431316569004
338550 245 18341891909666067132
373842 8 18341047419684081307
9543594 6 18337392738075956598

> <PUBCHEM_SHAPE_MULTIPOLES>
414.56
11.27
5.51
0.91
3.17
0.22
0.01
-1.23
1.88
4.67
-0.41
-0.42
-0.17
-1.7

> <PUBCHEM_SHAPE_SELFOVERLAP>
774.724

> <PUBCHEM_SHAPE_VOLUME>
259.1

> <PUBCHEM_COORDINATE_TYPE>
2
5
10

$$$$

