5479539
  -OEChem-07051213013D

 57 61  0     1  0  0  0  0  0999 V2000
    0.1611   -0.1614   -1.6906 S   0  0  0  0  0  0  0  0  0  0  0  0
   -4.7091    3.0433    1.4998 S   0  0  0  0  0  0  0  0  0  0  0  0
   -1.3385   -1.9225    2.3441 O   0  0  0  0  0  0  0  0  0  0  0  0
    1.0015    0.4522    3.2492 O   0  5  0  0  0  0  0  0  0  0  0  0
    2.3077   -1.4215    3.1219 O   0  0  0  0  0  0  0  0  0  0  0  0
   -4.1656   -2.0606    0.8242 O   0  0  0  0  0  0  0  0  0  0  0  0
   -5.2094   -1.8825   -2.0966 O   0  0  0  0  0  0  0  0  0  0  0  0
    0.2365   -1.2625    0.7211 N   0  0  0  0  0  0  0  0  0  0  0  0
    4.5661    0.2230    0.0670 N   0  3  0  0  0  0  0  0  0  0  0  0
   -2.5269   -1.1747   -0.6042 N   0  0  0  0  0  0  0  0  0  0  0  0
   -5.4877   -0.5900   -1.6304 N   0  0  0  0  0  0  0  0  0  0  0  0
   -5.8442    1.9061   -0.5253 N   0  0  0  0  0  0  0  0  0  0  0  0
   -6.5823    4.1040   -0.0616 N   0  0  0  0  0  0  0  0  0  0  0  0
    0.0167   -1.6399   -0.6614 C   0  0  1  0  0  0  0  0  0  0  0  0
   -1.4107   -2.0387   -0.2229 C   0  0  1  0  0  0  0  0  0  0  0  0
   -0.8982   -1.7900    1.2264 C   0  0  0  0  0  0  0  0  0  0  0  0
    2.1486    0.0557    0.3028 C   0  0  0  0  0  0  0  0  0  0  0  0
    1.3219   -0.5793    1.1653 C   0  0  0  0  0  0  0  0  0  0  0  0
    1.8927    0.1459   -1.1995 C   0  0  0  0  0  0  0  0  0  0  0  0
    3.3903    0.8181    0.7025 C   0  0  0  0  0  0  0  0  0  0  0  0
    5.4818    0.9955   -0.5151 C   0  0  0  0  0  0  0  0  0  0  0  0
    5.4367    2.4825   -0.6266 C   0  0  0  0  0  0  0  0  0  0  0  0
    6.5960    0.4517   -1.1368 C   0  0  0  0  0  0  0  0  0  0  0  0
    6.9007    2.7724   -1.0004 C   0  0  0  0  0  0  0  0  0  0  0  0
    7.4344    1.5295   -1.7404 C   0  0  0  0  0  0  0  0  0  0  0  0
    4.7006   -1.1134    0.0752 C   0  0  0  0  0  0  0  0  0  0  0  0
    1.5694   -0.5089    2.6680 C   0  0  0  0  0  0  0  0  0  0  0  0
    6.7670   -0.9176   -1.1622 C   0  0  0  0  0  0  0  0  0  0  0  0
   -3.7844   -1.2829   -0.0356 C   0  0  0  0  0  0  0  0  0  0  0  0
    5.8035   -1.7125   -0.5395 C   0  0  0  0  0  0  0  0  0  0  0  0
   -4.7697   -0.2872   -0.5912 C   0  0  0  0  0  0  0  0  0  0  0  0
   -4.9382    1.0377    0.0141 C   0  0  0  0  0  0  0  0  0  0  0  0
   -4.2255    1.4469    1.1007 C   0  0  0  0  0  0  0  0  0  0  0  0
   -5.8108    3.0121    0.1844 C   0  0  0  0  0  0  0  0  0  0  0  0
   -6.0321   -2.1302   -3.2262 C   0  0  0  0  0  0  0  0  0  0  0  0
    0.6379   -2.4867   -0.9765 H   0  0  0  0  0  0  0  0  0  0  0  0
   -1.6402   -3.0930   -0.4180 H   0  0  0  0  0  0  0  0  0  0  0  0
    2.1341    1.1511   -1.5613 H   0  0  0  0  0  0  0  0  0  0  0  0
    2.5315   -0.5636   -1.7351 H   0  0  0  0  0  0  0  0  0  0  0  0
    3.5929    0.8002    1.7783 H   0  0  0  0  0  0  0  0  0  0  0  0
    3.2675    1.8630    0.4074 H   0  0  0  0  0  0  0  0  0  0  0  0
    4.7568    2.7839   -1.4295 H   0  0  0  0  0  0  0  0  0  0  0  0
    5.1745    2.9835    0.3086 H   0  0  0  0  0  0  0  0  0  0  0  0
   -2.3899   -0.4624   -1.3176 H   0  0  0  0  0  0  0  0  0  0  0  0
    7.4837    2.9162   -0.0797 H   0  0  0  0  0  0  0  0  0  0  0  0
    7.0069    3.6868   -1.5927 H   0  0  0  0  0  0  0  0  0  0  0  0
    7.2437    1.5996   -2.8162 H   0  0  0  0  0  0  0  0  0  0  0  0
    8.5024    1.3845   -1.5558 H   0  0  0  0  0  0  0  0  0  0  0  0
    3.9612   -1.7133    0.5912 H   0  0  0  0  0  0  0  0  0  0  0  0
    7.6240   -1.3690   -1.6498 H   0  0  0  0  0  0  0  0  0  0  0  0
    5.9115   -2.7928   -0.5287 H   0  0  0  0  0  0  0  0  0  0  0  0
   -3.4699    0.9315    1.6767 H   0  0  0  0  0  0  0  0  0  0  0  0
   -5.8130   -1.4112   -4.0217 H   0  0  0  0  0  0  0  0  0  0  0  0
   -5.8198   -3.1371   -3.5951 H   0  0  0  0  0  0  0  0  0  0  0  0
   -7.0889   -2.0736   -2.9473 H   0  0  0  0  0  0  0  0  0  0  0  0
   -6.5247    4.9393    0.5116 H   0  0  0  0  0  0  0  0  0  0  0  0
   -7.2457    4.1276   -0.8290 H   0  0  0  0  0  0  0  0  0  0  0  0
  1 14  1  0  0  0  0
  1 19  1  0  0  0  0
  2 33  1  0  0  0  0
  2 34  1  0  0  0  0
  3 16  2  0  0  0  0
  4 27  1  0  0  0  0
  5 27  2  0  0  0  0
  6 29  2  0  0  0  0
  7 11  1  0  0  0  0
  7 35  1  0  0  0  0
  8 14  1  0  0  0  0
  8 16  1  0  0  0  0
  8 18  1  0  0  0  0
  9 20  1  0  0  0  0
  9 21  1  0  0  0  0
  9 26  2  0  0  0  0
 10 15  1  0  0  0  0
 10 29  1  0  0  0  0
 10 44  1  0  0  0  0
 11 31  2  0  0  0  0
 12 32  1  0  0  0  0
 12 34  2  0  0  0  0
 13 34  1  0  0  0  0
 13 56  1  0  0  0  0
 13 57  1  0  0  0  0
 14 15  1  0  0  0  0
 14 36  1  0  0  0  0
 15 16  1  0  0  0  0
 15 37  1  0  0  0  0
 17 18  2  0  0  0  0
 17 19  1  0  0  0  0
 17 20  1  0  0  0  0
 18 27  1  0  0  0  0
 19 38  1  0  0  0  0
 19 39  1  0  0  0  0
 20 40  1  0  0  0  0
 20 41  1  0  0  0  0
 21 22  1  0  0  0  0
 21 23  2  0  0  0  0
 22 24  1  0  0  0  0
 22 42  1  0  0  0  0
 22 43  1  0  0  0  0
 23 25  1  0  0  0  0
 23 28  1  0  0  0  0
 24 25  1  0  0  0  0
 24 45  1  0  0  0  0
 24 46  1  0  0  0  0
 25 47  1  0  0  0  0
 25 48  1  0  0  0  0
 26 30  1  0  0  0  0
 26 49  1  0  0  0  0
 28 30  2  0  0  0  0
 28 50  1  0  0  0  0
 29 31  1  0  0  0  0
 30 51  1  0  0  0  0
 31 32  1  0  0  0  0
 32 33  2  0  0  0  0
 33 52  1  0  0  0  0
 35 53  1  0  0  0  0
 35 54  1  0  0  0  0
 35 55  1  0  0  0  0
M  CHG  2   4  -1   9   1
M  END
> <PUBCHEM_COMPOUND_CID>
5479539

> <PUBCHEM_CONFORMER_RMSD>
1

> <PUBCHEM_CONFORMER_DIVERSEORDER>
1
120
84
8
54
136
70
153
150
121
93
75
79
60
154
142
101
102
73
12
92
135
146
11
45
33
95
164
119
114
159
152
71
141
87
100
61
156
138
10
44
145
74
51
118
83
27
106
128
72
123
39
163
41
162
29
144
113
125
143
85
134
131
129
35
65
149
122
26
64
6
116
89
105
57
148
49
151
81
47
5
127
37
88
16
140
103
13
78
76
50
69
82
46
21
107
96
86
18
161
24
9
68
147
17
158
67
80
99
117
90
42
109
55
97
63
91
34
15
104
155
22
32
28
130
56
132
137
40
62
36
157
133
112
94
30
58
38
2
3
110
23
160
66
115
19
4
139
108
7
59
111
31
77
98
43
14
124
53
126
48
25
52
20

> <PUBCHEM_MMFF94_PARTIAL_CHARGES>
41
1 -0.45
10 -0.65
11 -0.51
12 -0.57
13 -0.88
14 0.44
15 0.28
16 0.58
17 -0.28
18 -0.14
19 0.37
2 -0.08
20 0.63
21 0.22
22 0.14
23 -0.14
25 0.14
26 0.21
27 1.05
28 -0.15
29 0.63
3 -0.57
30 -0.15
31 0.54
32 0.14
33 -0.11
34 0.46
35 0.28
4 -0.9
44 0.37
49 0.15
5 -0.9
50 0.15
51 0.15
52 0.15
56 0.4
57 0.4
6 -0.57
7 -0.22
8 -0.39
9 -0.21

> <PUBCHEM_EFFECTIVE_ROTOR_COUNT>
9.2

> <PUBCHEM_PHARMACOPHORE_FEATURES>
14
1 10 donor
1 11 acceptor
1 13 donor
1 3 acceptor
1 4 acceptor
1 5 acceptor
1 6 acceptor
3 12 13 34 cation
3 4 5 27 anion
4 8 14 15 16 rings
5 2 12 32 33 34 rings
5 21 22 23 24 25 rings
6 1 8 14 17 18 19 rings
6 9 21 23 26 28 30 rings

> <PUBCHEM_HEAVY_ATOM_COUNT>
35

> <PUBCHEM_ATOM_DEF_STEREO_COUNT>
2

> <PUBCHEM_ATOM_UDEF_STEREO_COUNT>
0

> <PUBCHEM_BOND_DEF_STEREO_COUNT>
1

> <PUBCHEM_BOND_UDEF_STEREO_COUNT>
0

> <PUBCHEM_ISOTOPIC_ATOM_COUNT>
0

> <PUBCHEM_COMPONENT_COUNT>
1

> <PUBCHEM_CACTVS_TAUTO_COUNT>
4

> <PUBCHEM_CONFORMER_ID>
00539C7300000001

> <PUBCHEM_MMFF94_ENERGY>
89.9778

> <PUBCHEM_FEATURE_SELFOVERLAP>
71.45

> <PUBCHEM_SHAPE_FINGERPRINT>
10670039 82 18335144206727297253
10674148 151 18273210929233617802
10794284 68 11885655276055400962
10906281 52 17202749399279888612
11007060 377 16558187090620782787
11331351 85 6699544804653700618
11991303 11 16443632293942547028
12166972 35 16661204733115552570
12422481 6 14405188361236972482
12895837 130 18408599280308178221
13690498 29 17531253803751444479
13782708 43 16516260526294854295
14068700 675 6771871762044862074
14347329 18 18261115209557128241
14664723 55 18263915708860967545
15183329 4 18260263049517418222
15297060 5 18040989696348469633
1577012 14 18411418418967176836
16994733 274 18343018874820102016
17780758 139 11743839162645839567
17913733 40 16272210794984120696
21033650 10 18187366532735046971
21424621 283 18131343099331535896
22393880 68 17458358446108822339
249057 25 18127999522910293435
2838139 119 18410289194486699717
38570 142 18130500924426352867
397830 11 9655576275927527030
4058900 60 18335973246963983374
4098825 35 18336254687226969339
4144715 1 18199733774746320850
4169191 19 17987793012998630564
4258327 124 18342183323672218165
50677037 204 18271805692358510068
563151 97 18410295839518746135
5937810 71 17916286274634663796
6086070 43 17240773899259055955
6328613 192 18413384337289044604

> <PUBCHEM_SHAPE_MULTIPOLES>
668.75
20.57
3.4
2.52
8.05
2.75
1.22
11.76
-12.68
-5.59
-0.58
-0.78
-1.12
-3.44

> <PUBCHEM_SHAPE_SELFOVERLAP>
1432.136

> <PUBCHEM_SHAPE_VOLUME>
374.1

> <PUBCHEM_COORDINATE_TYPE>
2
5
10

$$$$

