33032
  -OEChem-07051212432D

 19 18  0     1  0  0  0  0  0999 V2000
    5.4641    1.0600    0.0000 O   0  0  0  0  0  0  0  0  0  0  0  0
    2.0000   -1.9400    0.0000 O   0  0  0  0  0  0  0  0  0  0  0  0
    4.5981    2.5600    0.0000 O   0  0  0  0  0  0  0  0  0  0  0  0
    3.7320   -1.9400    0.0000 O   0  0  0  0  0  0  0  0  0  0  0  0
    2.8660    1.5600    0.0000 N   0  0  0  0  0  0  0  0  0  0  0  0
    3.7320    0.0600    0.0000 C   0  0  0  0  0  0  0  0  0  0  0  0
    3.7320    1.0600    0.0000 C   0  0  1  0  0  0  0  0  0  0  0  0
    2.8660   -0.4400    0.0000 C   0  0  0  0  0  0  0  0  0  0  0  0
    4.5981    1.5600    0.0000 C   0  0  0  0  0  0  0  0  0  0  0  0
    2.8660   -1.4400    0.0000 C   0  0  0  0  0  0  0  0  0  0  0  0
    3.9441   -0.5226    0.0000 H   0  0  0  0  0  0  0  0  0  0  0  0
    4.3426    0.1677    0.0000 H   0  0  0  0  0  0  0  0  0  0  0  0
    3.7320    1.6800    0.0000 H   0  0  0  0  0  0  0  0  0  0  0  0
    2.6540    0.1426    0.0000 H   0  0  0  0  0  0  0  0  0  0  0  0
    2.2554   -0.5477    0.0000 H   0  0  0  0  0  0  0  0  0  0  0  0
    2.3291    1.2500    0.0000 H   0  0  0  0  0  0  0  0  0  0  0  0
    2.8660    2.1800    0.0000 H   0  0  0  0  0  0  0  0  0  0  0  0
    6.0010    1.3700    0.0000 H   0  0  0  0  0  0  0  0  0  0  0  0
    2.0000   -2.5600    0.0000 H   0  0  0  0  0  0  0  0  0  0  0  0
  1  9  1  0  0  0  0
  1 18  1  0  0  0  0
  2 10  1  0  0  0  0
  2 19  1  0  0  0  0
  3  9  2  0  0  0  0
  4 10  2  0  0  0  0
  7  5  1  6  0  0  0
  5 16  1  0  0  0  0
  5 17  1  0  0  0  0
  6  7  1  0  0  0  0
  6  8  1  0  0  0  0
  6 11  1  0  0  0  0
  6 12  1  0  0  0  0
  7  9  1  0  0  0  0
  7 13  1  0  0  0  0
  8 10  1  0  0  0  0
  8 14  1  0  0  0  0
  8 15  1  0  0  0  0
M  END
> <PUBCHEM_COMPOUND_CID>
33032

> <PUBCHEM_COMPOUND_CANONICALIZED>
1

> <PUBCHEM_CACTVS_COMPLEXITY>
145

> <PUBCHEM_CACTVS_HBOND_ACCEPTOR>
5

> <PUBCHEM_CACTVS_HBOND_DONOR>
3

> <PUBCHEM_CACTVS_ROTATABLE_BOND>
4

> <PUBCHEM_CACTVS_SUBSKEYS>
AAADccBiOAAAAAAAAAAAAAAAAAAAAAAAAAAAAAAAAAAAAAAAAAAAHgAQCAAACCjBgAQACABAAgAIAACQCAAAAAAAAAAAAIGAAAACABIAgAAAQAAEEAAAAACsJgAAAAAAAAAAAAAAAAAAAAAAAAAAAAAAAA==

> <PUBCHEM_IUPAC_OPENEYE_NAME>
(2S)-2-aminopentanedioic acid

> <PUBCHEM_IUPAC_CAS_NAME>
(2S)-2-aminopentanedioic acid

> <PUBCHEM_IUPAC_NAME>
(2S)-2-aminopentanedioic acid

> <PUBCHEM_IUPAC_SYSTEMATIC_NAME>
(2S)-2-azanylpentanedioic acid

> <PUBCHEM_IUPAC_TRADITIONAL_NAME>
(2S)-2-aminoglutaric acid

> <PUBCHEM_IUPAC_INCHI>
InChI=1S/C5H9NO4/c6-3(5(9)10)1-2-4(7)8/h3H,1-2,6H2,(H,7,8)(H,9,10)/t3-/m0/s1

> <PUBCHEM_IUPAC_INCHIKEY>
WHUUTDBJXJRKMK-VKHMYHEASA-N

> <PUBCHEM_XLOGP3>
-3.7

> <PUBCHEM_EXACT_MASS>
147.053158

> <PUBCHEM_MOLECULAR_FORMULA>
C5H9NO4

> <PUBCHEM_MOLECULAR_WEIGHT>
147.12926

> <PUBCHEM_OPENEYE_CAN_SMILES>
C(CC(=O)O)C(C(=O)O)N

> <PUBCHEM_OPENEYE_ISO_SMILES>
C(CC(=O)O)[C@@H](C(=O)O)N

> <PUBCHEM_CACTVS_TPSA>
101

> <PUBCHEM_MONOISOTOPIC_WEIGHT>
147.053158

> <PUBCHEM_TOTAL_CHARGE>
0

> <PUBCHEM_HEAVY_ATOM_COUNT>
10

> <PUBCHEM_ATOM_DEF_STEREO_COUNT>
1

> <PUBCHEM_ATOM_UDEF_STEREO_COUNT>
0

> <PUBCHEM_BOND_DEF_STEREO_COUNT>
0

> <PUBCHEM_BOND_UDEF_STEREO_COUNT>
0

> <PUBCHEM_ISOTOPIC_ATOM_COUNT>
0

> <PUBCHEM_COMPONENT_COUNT>
1

> <PUBCHEM_CACTVS_TAUTO_COUNT>
1

> <PUBCHEM_COORDINATE_TYPE>
1
5
255

> <PUBCHEM_BONDANNOTATIONS>
7  5  6

$$$$

