442073
  -OEChem-07051212563D

 96103  0     1  0  0  0  0  0999 V2000
   -1.1624   -0.5620    2.4697 O   0  0  0  0  0  0  0  0  0  0  0  0
   -2.5031    0.6146   -0.1582 O   0  0  0  0  0  0  0  0  0  0  0  0
   -3.9200   -1.0227    0.7974 O   0  0  0  0  0  0  0  0  0  0  0  0
   -4.2151   -0.4948   -1.3886 O   0  0  0  0  0  0  0  0  0  0  0  0
    1.2610   -1.4811   -0.6046 O   0  0  0  0  0  0  0  0  0  0  0  0
    2.2212   -1.8924    1.8810 O   0  0  0  0  0  0  0  0  0  0  0  0
    3.5609   -0.0604    0.0195 O   0  0  0  0  0  0  0  0  0  0  0  0
    0.0329   -3.5738    3.5831 O   0  0  0  0  0  0  0  0  0  0  0  0
    4.6048    1.9785   -0.2082 O   0  0  0  0  0  0  0  0  0  0  0  0
   -1.4328   -0.3151   -0.4848 C   0  0  2  0  0  0  0  0  0  0  0  0
   -1.6850   -1.6645    0.2772 C   0  0  1  0  0  0  0  0  0  0  0  0
   -0.1073    0.4451   -0.0476 C   0  0  1  0  0  0  0  0  0  0  0  0
   -1.3991   -1.7627    1.7451 C   0  0  1  0  0  0  0  0  0  0  0  0
    1.1269   -0.4094    0.3208 C   0  0  1  0  0  0  0  0  0  0  0  0
   -0.0684   -1.5056    2.3829 C   0  0  1  0  0  0  0  0  0  0  0  0
   -3.1827   -2.0284    0.0801 C   0  0  2  0  0  0  0  0  0  0  0  0
    0.4265    1.5240   -1.0623 C   0  0  2  0  0  0  0  0  0  0  0  0
   -1.5214   -0.6465   -2.0493 C   0  0  1  0  0  0  0  0  0  0  0  0
    1.1631   -0.9319    1.7745 C   0  0  1  0  0  0  0  0  0  0  0  0
   -3.6580   -1.8278   -1.3704 C   0  0  2  0  0  0  0  0  0  0  0  0
    2.3059    0.5830    0.1517 C   0  0  2  0  0  0  0  0  0  0  0  0
    1.9711    1.4686   -1.0420 C   0  0  1  0  0  0  0  0  0  0  0  0
   -2.4719   -1.8467   -2.3368 C   0  0  0  0  0  0  0  0  0  0  0  0
   -3.8310    0.0573   -0.1273 C   0  0  2  0  0  0  0  0  0  0  0  0
   -0.1883    2.9327   -0.8057 C   0  0  1  0  0  0  0  0  0  0  0  0
    0.1548   -2.1615    3.7211 C   0  0  0  0  0  0  0  0  0  0  0  0
   -1.9668    0.5239   -2.9615 C   0  0  0  0  0  0  0  0  0  0  0  0
   -4.7310   -2.7940   -1.7539 C   0  0  0  0  0  0  0  0  0  0  0  0
    2.5389    0.9604   -2.3717 C   0  0  0  0  0  0  0  0  0  0  0  0
   -4.7882    1.1865    0.2489 C   0  0  0  0  0  0  0  0  0  0  0  0
    0.2597    3.6037    0.5115 C   0  0  0  0  0  0  0  0  0  0  0  0
    0.0852    3.8676   -1.9932 C   0  0  0  0  0  0  0  0  0  0  0  0
   -4.5000    1.7857    1.6363 C   0  0  0  0  0  0  0  0  0  0  0  0
   -6.1309   -2.4134   -1.3727 C   0  0  0  0  0  0  0  0  0  0  0  0
   -0.8033    4.5394    1.1142 C   0  0  0  0  0  0  0  0  0  0  0  0
   -4.4582   -3.9360   -2.4023 C   0  0  0  0  0  0  0  0  0  0  0  0
    4.6314    0.7588   -0.1558 C   0  0  0  0  0  0  0  0  0  0  0  0
   -4.5118    3.3194    1.6520 C   0  0  0  0  0  0  0  0  0  0  0  0
   -1.9938    3.7944    1.7454 C   0  0  0  0  0  0  0  0  0  0  0  0
   -3.3050    3.9846    0.9715 C   0  0  0  0  0  0  0  0  0  0  0  0
    5.8800   -0.0347   -0.2819 C   0  0  0  0  0  0  0  0  0  0  0  0
    6.9128    0.4645   -1.0487 C   0  0  0  0  0  0  0  0  0  0  0  0
    5.9690   -1.2465    0.3723 C   0  0  0  0  0  0  0  0  0  0  0  0
    8.0860   -0.2806   -1.1670 C   0  0  0  0  0  0  0  0  0  0  0  0
    7.1424   -1.9915    0.2540 C   0  0  0  0  0  0  0  0  0  0  0  0
    8.2007   -1.5086   -0.5156 C   0  0  0  0  0  0  0  0  0  0  0  0
   -1.0747   -2.4514   -0.1829 H   0  0  0  0  0  0  0  0  0  0  0  0
   -0.3696    1.0056    0.8562 H   0  0  0  0  0  0  0  0  0  0  0  0
   -2.0076   -2.5256    2.2216 H   0  0  0  0  0  0  0  0  0  0  0  0
   -3.4125   -3.0181    0.4908 H   0  0  0  0  0  0  0  0  0  0  0  0
    0.1455    1.2397   -2.0729 H   0  0  0  0  0  0  0  0  0  0  0  0
   -0.5260   -0.9638   -2.3848 H   0  0  0  0  0  0  0  0  0  0  0  0
    1.4392   -0.0928    2.4284 H   0  0  0  0  0  0  0  0  0  0  0  0
    2.3494    1.2336    1.0372 H   0  0  0  0  0  0  0  0  0  0  0  0
    2.3758    2.4747   -0.8931 H   0  0  0  0  0  0  0  0  0  0  0  0
   -1.8954   -2.7754   -2.2343 H   0  0  0  0  0  0  0  0  0  0  0  0
   -2.8018   -1.8105   -3.3838 H   0  0  0  0  0  0  0  0  0  0  0  0
   -1.2715    2.7954   -0.7685 H   0  0  0  0  0  0  0  0  0  0  0  0
    1.1250   -1.9301    4.1713 H   0  0  0  0  0  0  0  0  0  0  0  0
   -0.6038   -1.8456    4.4467 H   0  0  0  0  0  0  0  0  0  0  0  0
   -2.9766    0.3949   -3.3647 H   0  0  0  0  0  0  0  0  0  0  0  0
   -1.9614    1.4923   -2.4620 H   0  0  0  0  0  0  0  0  0  0  0  0
   -1.2986    0.5882   -3.8282 H   0  0  0  0  0  0  0  0  0  0  0  0
    2.0946   -1.9402   -0.4046 H   0  0  0  0  0  0  0  0  0  0  0  0
    2.2634   -0.0815   -2.5615 H   0  0  0  0  0  0  0  0  0  0  0  0
    2.1420    1.5582   -3.2006 H   0  0  0  0  0  0  0  0  0  0  0  0
    3.6255    1.0407   -2.4376 H   0  0  0  0  0  0  0  0  0  0  0  0
   -5.8186    0.8084    0.2371 H   0  0  0  0  0  0  0  0  0  0  0  0
   -4.7427    1.9598   -0.5273 H   0  0  0  0  0  0  0  0  0  0  0  0
    2.6935   -1.7279    2.7146 H   0  0  0  0  0  0  0  0  0  0  0  0
    1.1709    4.1887    0.3322 H   0  0  0  0  0  0  0  0  0  0  0  0
    0.5312    2.8647    1.2716 H   0  0  0  0  0  0  0  0  0  0  0  0
   -0.2675    3.4221   -2.9294 H   0  0  0  0  0  0  0  0  0  0  0  0
   -0.4371    4.8216   -1.8683 H   0  0  0  0  0  0  0  0  0  0  0  0
    1.1526    4.0825   -2.1046 H   0  0  0  0  0  0  0  0  0  0  0  0
   -5.2823    1.4341    2.3215 H   0  0  0  0  0  0  0  0  0  0  0  0
   -3.5580    1.4147    2.0521 H   0  0  0  0  0  0  0  0  0  0  0  0
    0.7371   -3.8673    2.9800 H   0  0  0  0  0  0  0  0  0  0  0  0
   -6.8445   -3.2111   -1.6077 H   0  0  0  0  0  0  0  0  0  0  0  0
   -6.4581   -1.5199   -1.9139 H   0  0  0  0  0  0  0  0  0  0  0  0
   -6.2055   -2.2241   -0.2972 H   0  0  0  0  0  0  0  0  0  0  0  0
   -1.1383    5.2734    0.3732 H   0  0  0  0  0  0  0  0  0  0  0  0
   -0.3104    5.1122    1.9105 H   0  0  0  0  0  0  0  0  0  0  0  0
   -3.4572   -4.2467   -2.6741 H   0  0  0  0  0  0  0  0  0  0  0  0
   -5.2567   -4.6207   -2.6722 H   0  0  0  0  0  0  0  0  0  0  0  0
   -5.4304    3.6736    1.1683 H   0  0  0  0  0  0  0  0  0  0  0  0
   -4.5611    3.6594    2.6939 H   0  0  0  0  0  0  0  0  0  0  0  0
   -2.1405    4.1859    2.7603 H   0  0  0  0  0  0  0  0  0  0  0  0
   -1.7632    2.7308    1.8571 H   0  0  0  0  0  0  0  0  0  0  0  0
   -3.2019    3.6192   -0.0543 H   0  0  0  0  0  0  0  0  0  0  0  0
   -3.5118    5.0598    0.8984 H   0  0  0  0  0  0  0  0  0  0  0  0
    6.8337    1.4174   -1.5635 H   0  0  0  0  0  0  0  0  0  0  0  0
    5.1654   -1.6384    0.9882 H   0  0  0  0  0  0  0  0  0  0  0  0
    8.9099    0.0949   -1.7668 H   0  0  0  0  0  0  0  0  0  0  0  0
    7.2333   -2.9464    0.7637 H   0  0  0  0  0  0  0  0  0  0  0  0
    9.1144   -2.0886   -0.6071 H   0  0  0  0  0  0  0  0  0  0  0  0
  1 13  1  0  0  0  0
  1 15  1  0  0  0  0
  2 10  1  0  0  0  0
  2 24  1  0  0  0  0
  3 16  1  0  0  0  0
  3 24  1  0  0  0  0
  4 20  1  0  0  0  0
  4 24  1  0  0  0  0
  5 14  1  0  0  0  0
  5 64  1  0  0  0  0
  6 19  1  0  0  0  0
  6 70  1  0  0  0  0
  7 21  1  0  0  0  0
  7 37  1  0  0  0  0
  8 26  1  0  0  0  0
  8 78  1  0  0  0  0
  9 37  2  0  0  0  0
 10 11  1  0  0  0  0
 10 12  1  0  0  0  0
 10 18  1  0  0  0  0
 11 13  1  0  0  0  0
 11 16  1  0  0  0  0
 11 47  1  0  0  0  0
 12 14  1  0  0  0  0
 12 17  1  0  0  0  0
 12 48  1  0  0  0  0
 13 15  1  0  0  0  0
 13 49  1  0  0  0  0
 14 19  1  0  0  0  0
 14 21  1  0  0  0  0
 15 19  1  0  0  0  0
 15 26  1  0  0  0  0
 16 20  1  0  0  0  0
 16 50  1  0  0  0  0
 17 22  1  0  0  0  0
 17 25  1  0  0  0  0
 17 51  1  0  0  0  0
 18 23  1  0  0  0  0
 18 27  1  0  0  0  0
 18 52  1  0  0  0  0
 19 53  1  0  0  0  0
 20 23  1  0  0  0  0
 20 28  1  0  0  0  0
 21 22  1  0  0  0  0
 21 54  1  0  0  0  0
 22 29  1  0  0  0  0
 22 55  1  0  0  0  0
 23 56  1  0  0  0  0
 23 57  1  0  0  0  0
 24 30  1  0  0  0  0
 25 31  1  0  0  0  0
 25 32  1  0  0  0  0
 25 58  1  0  0  0  0
 26 59  1  0  0  0  0
 26 60  1  0  0  0  0
 27 61  1  0  0  0  0
 27 62  1  0  0  0  0
 27 63  1  0  0  0  0
 28 34  1  0  0  0  0
 28 36  2  0  0  0  0
 29 65  1  0  0  0  0
 29 66  1  0  0  0  0
 29 67  1  0  0  0  0
 30 33  1  0  0  0  0
 30 68  1  0  0  0  0
 30 69  1  0  0  0  0
 31 35  1  0  0  0  0
 31 71  1  0  0  0  0
 31 72  1  0  0  0  0
 32 73  1  0  0  0  0
 32 74  1  0  0  0  0
 32 75  1  0  0  0  0
 33 38  1  0  0  0  0
 33 76  1  0  0  0  0
 33 77  1  0  0  0  0
 34 79  1  0  0  0  0
 34 80  1  0  0  0  0
 34 81  1  0  0  0  0
 35 39  1  0  0  0  0
 35 82  1  0  0  0  0
 35 83  1  0  0  0  0
 36 84  1  0  0  0  0
 36 85  1  0  0  0  0
 37 41  1  0  0  0  0
 38 40  1  0  0  0  0
 38 86  1  0  0  0  0
 38 87  1  0  0  0  0
 39 40  1  0  0  0  0
 39 88  1  0  0  0  0
 39 89  1  0  0  0  0
 40 90  1  0  0  0  0
 40 91  1  0  0  0  0
 41 42  2  0  0  0  0
 41 43  1  0  0  0  0
 42 44  1  0  0  0  0
 42 92  1  0  0  0  0
 43 45  2  0  0  0  0
 43 93  1  0  0  0  0
 44 46  2  0  0  0  0
 44 94  1  0  0  0  0
 45 46  1  0  0  0  0
 45 95  1  0  0  0  0
 46 96  1  0  0  0  0
M  END
> <PUBCHEM_COMPOUND_CID>
442073

> <PUBCHEM_CONFORMER_RMSD>
1.2

> <PUBCHEM_CONFORMER_DIVERSEORDER>
1
2
3

> <PUBCHEM_MMFF94_PARTIAL_CHARGES>
41
1 -0.3
10 0.28
11 0.09
13 -0.05
14 0.28
15 -0.04
16 0.28
19 0.38
2 -0.56
20 0.42
21 0.28
24 0.84
26 0.38
28 -0.28
3 -0.56
34 0.14
36 -0.3
37 0.63
4 -0.56
41 0.09
42 -0.15
43 -0.15
44 -0.15
45 -0.15
46 -0.15
49 0.1
5 -0.68
6 -0.68
64 0.4
7 -0.43
70 0.4
78 0.4
8 -0.68
84 0.15
85 0.15
9 -0.57
92 0.15
93 0.15
94 0.15
95 0.15
96 0.15

> <PUBCHEM_EFFECTIVE_ROTOR_COUNT>
8.4

> <PUBCHEM_PHARMACOPHORE_FEATURES>
15
1 1 acceptor
1 2 acceptor
1 3 acceptor
1 4 acceptor
1 5 acceptor
1 5 donor
1 6 acceptor
1 6 donor
1 8 acceptor
1 8 donor
1 9 acceptor
10 2 3 4 10 11 16 18 20 23 24 rings
5 12 14 17 21 22 rings
6 41 42 43 44 45 46 rings
7 10 11 12 13 14 15 19 rings

> <PUBCHEM_HEAVY_ATOM_COUNT>
46

> <PUBCHEM_ATOM_DEF_STEREO_COUNT>
14

> <PUBCHEM_ATOM_UDEF_STEREO_COUNT>
1

> <PUBCHEM_BOND_DEF_STEREO_COUNT>
0

> <PUBCHEM_BOND_UDEF_STEREO_COUNT>
0

> <PUBCHEM_ISOTOPIC_ATOM_COUNT>
0

> <PUBCHEM_COMPONENT_COUNT>
1

> <PUBCHEM_CACTVS_TAUTO_COUNT>
1

> <PUBCHEM_CONFORMER_ID>
0006BED900000001

> <PUBCHEM_MMFF94_ENERGY>
198.5805

> <PUBCHEM_FEATURE_SELFOVERLAP>
76.285

> <PUBCHEM_SHAPE_FINGERPRINT>
10010297 198 17698445760186226075
10165383 225 16989127552403449287
10815517 723 18271798090614100916
11007060 377 17561082475975502004
11115154 58 18337116679126891951
11135926 11 17275387629809893450
11445158 3 15911603966185010084
11513181 2 17754170101126371245
11578080 2 17388243805012349644
12107698 1 18189616047425514629
12422481 6 18041554841029666374
12633046 712 17700958968862969420
12741549 16 16443063881333835819
131258 43 17970644990606486103
13761468 95 18197503028656696725
13782708 43 17096093476407774422
13911987 19 17203619185227479706
14068700 675 18115312155305539159
14279260 333 18270675480672981394
14856354 85 18259983764573388279
14955137 171 18189905205613239551
15183329 4 17989491823241591266
15297060 5 17677611046418356145
15361156 5 18340186571758650516
15392192 29 18058710508595367718
15439362 3 17608358370819369373
15876981 60 18408599245447371221
19311894 1 18335141994576819553
19319366 153 18129651015498542161
20775438 99 17184776596458868183
21814621 53 17458356264492121042
21987440 362 17617646000778384076
23522609 53 18268402738852553284
23559900 14 17770229258502125077
23569943 247 17915192410773110226
3504750 166 18263088863315640286
4015057 19 18199748029800571044
5171179 24 18041003886820611432
563151 248 18193826262021105832
6009941 240 17240480355656247750
6700243 42 17315323995731140301
9896288 288 18192419986607431041

> <PUBCHEM_SHAPE_MULTIPOLES>
893.83
14.78
4.97
2.94
32.25
4.22
1.49
-7.81
-4.92
-6.66
0.69
-1.75
-1.85
-4.09

> <PUBCHEM_SHAPE_SELFOVERLAP>
1948.498

> <PUBCHEM_SHAPE_VOLUME>
477.6

> <PUBCHEM_COORDINATE_TYPE>
2
5
10

$$$$

