443150
  -OEChem-07051213013D

 51 51  0     1  0  0  0  0  0999 V2000
    0.7422    2.2316    1.7946 S   0  0  0  0  0  0  0  0  0  0  0  0
   -0.0400   -1.1696   -1.4178 O   0  0  0  0  0  0  0  0  0  0  0  0
    3.0616   -2.0543    0.9131 O   0  0  0  0  0  0  0  0  0  0  0  0
   -4.0583   -2.5268    2.0543 O   0  0  0  0  0  0  0  0  0  0  0  0
   -5.3424   -1.8237    0.3228 O   0  0  0  0  0  0  0  0  0  0  0  0
   -2.8984    3.9526    1.2054 O   0  0  0  0  0  0  0  0  0  0  0  0
   -0.4913    2.0034   -2.2007 O   0  0  0  0  0  0  0  0  0  0  0  0
    5.9728    0.0048    0.7104 O   0  0  0  0  0  0  0  0  0  0  0  0
    7.3326   -1.4508   -0.3758 O   0  0  0  0  0  0  0  0  0  0  0  0
    0.5947   -0.7701    0.7806 N   0  0  0  0  0  0  0  0  0  0  0  0
   -1.3335    3.2360   -0.3910 N   0  0  0  0  0  0  0  0  0  0  0  0
    3.8426   -0.5684   -0.6882 N   0  0  0  0  0  0  0  0  0  0  0  0
   -4.3541   -3.8973   -1.2006 N   0  0  0  0  0  0  0  0  0  0  0  0
    1.7983   -0.0260    0.4899 C   0  0  1  0  0  0  0  0  0  0  0  0
    2.0968    1.0367    1.5504 C   0  0  0  0  0  0  0  0  0  0  0  0
   -2.3493   -2.5852   -0.6957 C   0  0  0  0  0  0  0  0  0  0  0  0
   -1.4260   -2.0107    0.3807 C   0  0  0  0  0  0  0  0  0  0  0  0
   -3.5203   -3.3831   -0.1113 C   0  0  1  0  0  0  0  0  0  0  0  0
   -0.2299   -1.2835   -0.2099 C   0  0  0  0  0  0  0  0  0  0  0  0
    1.0291    3.2459    0.3276 C   0  0  0  0  0  0  0  0  0  0  0  0
    2.9479   -1.0087    0.2767 C   0  0  0  0  0  0  0  0  0  0  0  0
   -0.1997    4.0566   -0.0611 C   0  0  0  0  0  0  0  0  0  0  0  0
   -4.4149   -2.5039    0.7436 C   0  0  0  0  0  0  0  0  0  0  0  0
   -2.5426    3.2652    0.2631 C   0  0  0  0  0  0  0  0  0  0  0  0
   -1.3647    2.3086   -1.4065 C   0  0  0  0  0  0  0  0  0  0  0  0
    5.0262   -1.3125   -1.0507 C   0  0  0  0  0  0  0  0  0  0  0  0
   -3.4022    2.2704   -0.3976 C   0  0  0  0  0  0  0  0  0  0  0  0
   -2.7060    1.7049   -1.3846 C   0  0  0  0  0  0  0  0  0  0  0  0
    6.2290   -0.9422   -0.2217 C   0  0  0  0  0  0  0  0  0  0  0  0
    1.6304    0.4709   -0.4734 H   0  0  0  0  0  0  0  0  0  0  0  0
    3.0210    1.5766    1.3159 H   0  0  0  0  0  0  0  0  0  0  0  0
    2.2646    0.5464    2.5168 H   0  0  0  0  0  0  0  0  0  0  0  0
   -1.7648   -3.2316   -1.3638 H   0  0  0  0  0  0  0  0  0  0  0  0
   -2.7268   -1.7593   -1.3142 H   0  0  0  0  0  0  0  0  0  0  0  0
   -1.9658   -1.2915    1.0069 H   0  0  0  0  0  0  0  0  0  0  0  0
   -1.0546   -2.8162    1.0250 H   0  0  0  0  0  0  0  0  0  0  0  0
    0.3821   -0.9726    1.7534 H   0  0  0  0  0  0  0  0  0  0  0  0
   -3.1622   -4.2290    0.4859 H   0  0  0  0  0  0  0  0  0  0  0  0
    1.3443    2.6250   -0.5139 H   0  0  0  0  0  0  0  0  0  0  0  0
    1.8553    3.9310    0.5463 H   0  0  0  0  0  0  0  0  0  0  0  0
    0.0425    4.6456   -0.9538 H   0  0  0  0  0  0  0  0  0  0  0  0
   -0.4692    4.7613    0.7341 H   0  0  0  0  0  0  0  0  0  0  0  0
    3.6914    0.3282   -1.1411 H   0  0  0  0  0  0  0  0  0  0  0  0
   -3.7922   -4.4916   -1.8091 H   0  0  0  0  0  0  0  0  0  0  0  0
   -5.0852   -4.4959   -0.8175 H   0  0  0  0  0  0  0  0  0  0  0  0
    5.2416   -1.0864   -2.0986 H   0  0  0  0  0  0  0  0  0  0  0  0
    4.8333   -2.3823   -0.9269 H   0  0  0  0  0  0  0  0  0  0  0  0
   -4.4175    2.0544   -0.1106 H   0  0  0  0  0  0  0  0  0  0  0  0
   -3.0405    0.9368   -2.0611 H   0  0  0  0  0  0  0  0  0  0  0  0
   -4.6311   -1.9460    2.5991 H   0  0  0  0  0  0  0  0  0  0  0  0
    6.7700    0.2275    1.2367 H   0  0  0  0  0  0  0  0  0  0  0  0
  1 15  1  0  0  0  0
  1 20  1  0  0  0  0
  2 19  2  0  0  0  0
  3 21  2  0  0  0  0
  4 23  1  0  0  0  0
  4 50  1  0  0  0  0
  5 23  2  0  0  0  0
  6 24  2  0  0  0  0
  7 25  2  0  0  0  0
  8 29  1  0  0  0  0
  8 51  1  0  0  0  0
  9 29  2  0  0  0  0
 10 14  1  0  0  0  0
 10 19  1  0  0  0  0
 10 37  1  0  0  0  0
 11 22  1  0  0  0  0
 11 24  1  0  0  0  0
 11 25  1  0  0  0  0
 12 21  1  0  0  0  0
 12 26  1  0  0  0  0
 12 43  1  0  0  0  0
 13 18  1  0  0  0  0
 13 44  1  0  0  0  0
 13 45  1  0  0  0  0
 14 15  1  0  0  0  0
 14 21  1  0  0  0  0
 14 30  1  0  0  0  0
 15 31  1  0  0  0  0
 15 32  1  0  0  0  0
 16 17  1  0  0  0  0
 16 18  1  0  0  0  0
 16 33  1  0  0  0  0
 16 34  1  0  0  0  0
 17 19  1  0  0  0  0
 17 35  1  0  0  0  0
 17 36  1  0  0  0  0
 18 23  1  0  0  0  0
 18 38  1  0  0  0  0
 20 22  1  0  0  0  0
 20 39  1  0  0  0  0
 20 40  1  0  0  0  0
 22 41  1  0  0  0  0
 22 42  1  0  0  0  0
 24 27  1  0  0  0  0
 25 28  1  0  0  0  0
 26 29  1  0  0  0  0
 26 46  1  0  0  0  0
 26 47  1  0  0  0  0
 27 28  2  0  0  0  0
 27 48  1  0  0  0  0
 28 49  1  0  0  0  0
M  END
> <PUBCHEM_COMPOUND_CID>
443150

> <PUBCHEM_CONFORMER_RMSD>
1.2

> <PUBCHEM_CONFORMER_DIVERSEORDER>
1
54
9
100
101
95
88
71
55
73
22
89
114
103
11
14
61
91
34
102
20
64
25
93
83
72
105
85
99
96
40
35
81
46
70
36
86
5
74
79
32
68
37
110
75
16
113
98
107
24
42
26
48
45
53
80
28
78
106
111
18
104
12
39
49
21
112
87
29
90
57
59
60
17
109
108
2
27
65
50
77
58
3
33
66
56
41
4
52
38
19
97
44
31
10
43
92
62
51
7
30
67
82
8
76
63
15
13
47
6
69
94
84
23

> <PUBCHEM_MMFF94_PARTIAL_CHARGES>
36
1 -0.46
10 -0.73
11 -0.42
12 -0.73
13 -0.99
14 0.36
15 0.23
17 0.06
18 0.33
19 0.57
2 -0.57
20 0.23
21 0.57
22 0.3
23 0.66
24 0.62
25 0.62
26 0.36
27 -0.14
28 -0.14
29 0.66
3 -0.57
37 0.37
4 -0.65
43 0.37
44 0.36
45 0.36
48 0.15
49 0.15
5 -0.57
50 0.5
51 0.5
6 -0.57
7 -0.57
8 -0.65
9 -0.57

> <PUBCHEM_EFFECTIVE_ROTOR_COUNT>
15.2

> <PUBCHEM_PHARMACOPHORE_FEATURES>
15
1 10 donor
1 12 donor
1 13 cation
1 13 donor
1 2 acceptor
1 3 acceptor
1 4 acceptor
1 5 acceptor
1 6 acceptor
1 7 acceptor
1 8 acceptor
1 9 acceptor
3 4 5 23 anion
3 8 9 29 anion
5 11 24 25 27 28 rings

> <PUBCHEM_HEAVY_ATOM_COUNT>
29

> <PUBCHEM_ATOM_DEF_STEREO_COUNT>
2

> <PUBCHEM_ATOM_UDEF_STEREO_COUNT>
0

> <PUBCHEM_BOND_DEF_STEREO_COUNT>
0

> <PUBCHEM_BOND_UDEF_STEREO_COUNT>
0

> <PUBCHEM_ISOTOPIC_ATOM_COUNT>
0

> <PUBCHEM_COMPONENT_COUNT>
1

> <PUBCHEM_CACTVS_TAUTO_COUNT>
4

> <PUBCHEM_CONFORMER_ID>
0006C30E00000001

> <PUBCHEM_MMFF94_ENERGY>
36.6962

> <PUBCHEM_FEATURE_SELFOVERLAP>
76.234

> <PUBCHEM_SHAPE_FINGERPRINT>
10119406 146 17830452044719405062
11513181 2 17972878051863137239
12156800 1 17827317177500269229
12788726 201 18198602402982695278
13590594 115 18337946792587878867
14251757 5 18336551637281791174
14713325 29 18337672022313820222
19319366 153 17324083014785630289
20101258 96 18411698751408785699
20775530 9 18271534104579981153
22182313 1 18041862631334296400
4058900 60 17617097349066411737
4409770 3 18337673121888634367
469060 322 17132117961389881828
7237137 82 18341607136085777854

> <PUBCHEM_SHAPE_MULTIPOLES>
533.78
11.57
5.91
1.55
17.76
2.86
0.04
-11.82
-0.35
-8.34
0.08
-0.54
0.37
1.15

> <PUBCHEM_SHAPE_SELFOVERLAP>
1068.069

> <PUBCHEM_SHAPE_VOLUME>
314

> <PUBCHEM_COORDINATE_TYPE>
2
5
10

$$$$

