12341793
  -OEChem-07051213093D

 51 52  0     1  0  0  0  0  0999 V2000
    1.8046   -1.0849   -0.4429 O   0  0  0  0  0  0  0  0  0  0  0  0
    2.1053   -2.6018   -2.1591 O   0  0  0  0  0  0  0  0  0  0  0  0
    2.3951    1.0861    1.6678 N   0  0  0  0  0  0  0  0  0  0  0  0
   -0.2984    0.0449    0.2829 C   0  0  0  0  0  0  0  0  0  0  0  0
    0.3764   -1.1691   -0.5132 C   0  0  2  0  0  0  0  0  0  0  0  0
    0.2006   -0.0913    1.7836 C   0  0  0  0  0  0  0  0  0  0  0  0
   -1.8412   -0.1083    0.1204 C   0  0  0  0  0  0  0  0  0  0  0  0
    0.2245    1.4204   -0.2392 C   0  0  0  0  0  0  0  0  0  0  0  0
    1.7260   -0.1574    2.0561 C   0  0  2  0  0  0  0  0  0  0  0  0
   -0.0560   -2.5920   -0.0930 C   0  0  0  0  0  0  0  0  0  0  0  0
    1.9899   -0.3984    3.5456 C   0  0  0  0  0  0  0  0  0  0  0  0
   -2.3525   -0.0331   -1.1403 C   0  0  0  0  0  0  0  0  0  0  0  0
   -0.2699    2.5440    0.3493 C   0  0  0  0  0  0  0  0  0  0  0  0
   -2.5771   -0.3079    1.2496 C   0  0  0  0  0  0  0  0  0  0  0  0
    1.1396    1.4026   -1.2469 C   0  0  0  0  0  0  0  0  0  0  0  0
   -1.5511   -2.8189   -0.2986 C   0  0  0  0  0  0  0  0  0  0  0  0
   -3.7329   -0.1705   -1.2858 C   0  0  0  0  0  0  0  0  0  0  0  0
    0.1973    3.7729   -0.1169 C   0  0  0  0  0  0  0  0  0  0  0  0
   -3.9575   -0.4453    1.1039 C   0  0  0  0  0  0  0  0  0  0  0  0
    1.6068    2.6315   -1.7129 C   0  0  0  0  0  0  0  0  0  0  0  0
    2.4814   -2.0419   -1.1383 C   0  0  0  0  0  0  0  0  0  0  0  0
   -4.5353   -0.3767   -0.1638 C   0  0  0  0  0  0  0  0  0  0  0  0
    1.1356    3.8167   -1.1478 C   0  0  0  0  0  0  0  0  0  0  0  0
    3.7885   -2.3218   -0.4605 C   0  0  0  0  0  0  0  0  0  0  0  0
    0.1085   -1.0763   -1.5758 H   0  0  0  0  0  0  0  0  0  0  0  0
   -0.2193    0.7194    2.3964 H   0  0  0  0  0  0  0  0  0  0  0  0
   -0.2083   -1.0164    2.2110 H   0  0  0  0  0  0  0  0  0  0  0  0
    2.2080   -1.0154    1.5972 H   0  0  0  0  0  0  0  0  0  0  0  0
    0.2215   -2.7988    0.9464 H   0  0  0  0  0  0  0  0  0  0  0  0
    0.4594   -3.3636   -0.6720 H   0  0  0  0  0  0  0  0  0  0  0  0
    3.0650   -0.4551    3.7511 H   0  0  0  0  0  0  0  0  0  0  0  0
    1.5403   -1.3428    3.8716 H   0  0  0  0  0  0  0  0  0  0  0  0
    1.5707    0.4043    4.1628 H   0  0  0  0  0  0  0  0  0  0  0  0
   -1.7451    0.1402   -2.0215 H   0  0  0  0  0  0  0  0  0  0  0  0
   -1.0042    2.5244    1.1467 H   0  0  0  0  0  0  0  0  0  0  0  0
   -2.1894   -0.3541    2.2575 H   0  0  0  0  0  0  0  0  0  0  0  0
    1.4945    0.5566   -1.8108 H   0  0  0  0  0  0  0  0  0  0  0  0
   -2.1596   -2.5671    0.5630 H   0  0  0  0  0  0  0  0  0  0  0  0
   -1.6906   -3.9088   -0.3610 H   0  0  0  0  0  0  0  0  0  0  0  0
   -1.9237   -2.4639   -1.2586 H   0  0  0  0  0  0  0  0  0  0  0  0
    1.8330    1.8987    1.9065 H   0  0  0  0  0  0  0  0  0  0  0  0
    2.5919    1.1009    0.6736 H   0  0  0  0  0  0  0  0  0  0  0  0
   -4.1832   -0.1141   -2.2725 H   0  0  0  0  0  0  0  0  0  0  0  0
   -0.1713    4.6958    0.3214 H   0  0  0  0  0  0  0  0  0  0  0  0
   -4.5837   -0.6025    1.9774 H   0  0  0  0  0  0  0  0  0  0  0  0
    2.3220    2.6684   -2.5298 H   0  0  0  0  0  0  0  0  0  0  0  0
   -5.6103   -0.4824   -0.2770 H   0  0  0  0  0  0  0  0  0  0  0  0
    1.4956    4.7736   -1.5142 H   0  0  0  0  0  0  0  0  0  0  0  0
    4.3960   -2.9690   -1.0995 H   0  0  0  0  0  0  0  0  0  0  0  0
    4.3348   -1.3881   -0.3028 H   0  0  0  0  0  0  0  0  0  0  0  0
    3.6106   -2.8295    0.4904 H   0  0  0  0  0  0  0  0  0  0  0  0
  1  5  1  0  0  0  0
  1 21  1  0  0  0  0
  2 21  2  0  0  0  0
  3  9  1  0  0  0  0
  3 41  1  0  0  0  0
  3 42  1  0  0  0  0
  4  5  1  0  0  0  0
  4  6  1  0  0  0  0
  4  7  1  0  0  0  0
  4  8  1  0  0  0  0
  5 10  1  0  0  0  0
  5 25  1  0  0  0  0
  6  9  1  0  0  0  0
  6 26  1  0  0  0  0
  6 27  1  0  0  0  0
  7 12  2  0  0  0  0
  7 14  1  0  0  0  0
  8 13  2  0  0  0  0
  8 15  1  0  0  0  0
  9 11  1  0  0  0  0
  9 28  1  0  0  0  0
 10 16  1  0  0  0  0
 10 29  1  0  0  0  0
 10 30  1  0  0  0  0
 11 31  1  0  0  0  0
 11 32  1  0  0  0  0
 11 33  1  0  0  0  0
 12 17  1  0  0  0  0
 12 34  1  0  0  0  0
 13 18  1  0  0  0  0
 13 35  1  0  0  0  0
 14 19  2  0  0  0  0
 14 36  1  0  0  0  0
 15 20  2  0  0  0  0
 15 37  1  0  0  0  0
 16 38  1  0  0  0  0
 16 39  1  0  0  0  0
 16 40  1  0  0  0  0
 17 22  2  0  0  0  0
 17 43  1  0  0  0  0
 18 23  2  0  0  0  0
 18 44  1  0  0  0  0
 19 22  1  0  0  0  0
 19 45  1  0  0  0  0
 20 23  1  0  0  0  0
 20 46  1  0  0  0  0
 21 24  1  0  0  0  0
 22 47  1  0  0  0  0
 23 48  1  0  0  0  0
 24 49  1  0  0  0  0
 24 50  1  0  0  0  0
 24 51  1  0  0  0  0
M  END
> <PUBCHEM_COMPOUND_CID>
12341793

> <PUBCHEM_CONFORMER_RMSD>
0.8

> <PUBCHEM_CONFORMER_DIVERSEORDER>
1
6
2
4
7
5
3

> <PUBCHEM_MMFF94_PARTIAL_CHARGES>
32
1 -0.43
12 -0.15
13 -0.15
14 -0.15
15 -0.15
17 -0.15
18 -0.15
19 -0.15
2 -0.57
20 -0.15
21 0.66
22 -0.15
23 -0.15
24 0.06
3 -0.99
34 0.15
35 0.15
36 0.15
37 0.15
4 0.29
41 0.36
42 0.36
43 0.15
44 0.15
45 0.15
46 0.15
47 0.15
48 0.15
5 0.28
7 -0.14
8 -0.14
9 0.27

> <PUBCHEM_EFFECTIVE_ROTOR_COUNT>
8

> <PUBCHEM_PHARMACOPHORE_FEATURES>
6
1 16 hydrophobe
1 2 acceptor
1 3 cation
1 3 donor
6 7 12 14 17 19 22 rings
6 8 13 15 18 20 23 rings

> <PUBCHEM_HEAVY_ATOM_COUNT>
24

> <PUBCHEM_ATOM_DEF_STEREO_COUNT>
2

> <PUBCHEM_ATOM_UDEF_STEREO_COUNT>
0

> <PUBCHEM_BOND_DEF_STEREO_COUNT>
0

> <PUBCHEM_BOND_UDEF_STEREO_COUNT>
0

> <PUBCHEM_ISOTOPIC_ATOM_COUNT>
0

> <PUBCHEM_COMPONENT_COUNT>
1

> <PUBCHEM_CACTVS_TAUTO_COUNT>
1

> <PUBCHEM_CONFORMER_ID>
00BC522100000001

> <PUBCHEM_MMFF94_ENERGY>
109.896

> <PUBCHEM_FEATURE_SELFOVERLAP>
30.446

> <PUBCHEM_SHAPE_FINGERPRINT>
10165383 225 17765963157750458445
10871710 139 17762861714320183454
11101153 10 18197194036752838438
11135609 12 18265055726351562379
11578080 2 17750801140999970768
12082328 90 17267546042099263762
12714826 92 17683237328399461350
13009979 54 17824515643552728107
13140716 1 17904752289414548748
13681431 1 18413672409050834605
13911987 19 18056448790948387830
14022347 108 18271809093982267875
14181834 199 18055940721923088981
14817 1 5235676146202506640
14863182 85 17751379286805940143
14955137 171 18270120098050989616
15210252 30 17914614114516022253
15238133 3 17415014722932016189
16945 1 16101329843034229717
17357779 13 18118416260966158973
17980427 23 17760125880176677803
1813 80 18044633511799435695
18981168 100 17681825212066698555
20600515 1 18199771252277362457
20691752 17 18265065780458169131
21524375 3 17480018592873352661
21756936 100 16408720403343805356
22149856 69 18114458943922897811
23419403 2 17317071313413148744
23559900 14 18335137549665443791
238 59 18197800816404059317
2748010 2 18193573361298213693
298252 57 17762604102060864992
394222 165 16904437428381171115
5845 1 10801675499213900989
81228 2 17837226135319646601

> <PUBCHEM_SHAPE_MULTIPOLES>
477.19
5.39
4.01
2.29
5.3
2.81
-1.77
-2.46
0.29
-3.27
2.05
-1.8
-0.57
0.2

> <PUBCHEM_SHAPE_SELFOVERLAP>
1006.328

> <PUBCHEM_SHAPE_VOLUME>
265.6

> <PUBCHEM_COORDINATE_TYPE>
2
5
10

$$$$

