11022
  -OEChem-06261205142D

 58 62  0     1  0  0  0  0  0999 V2000
    7.9288   -2.0254    0.0000 O   0  0  0  0  0  0  0  0  0  0  0  0
    9.1885    2.8479    0.0000 O   0  0  0  0  0  0  0  0  0  0  0  0
    2.5357   -3.0778    0.0000 O   0  0  0  0  0  0  0  0  0  0  0  0
    3.9686   -0.4087    0.0000 O   0  0  0  0  0  0  0  0  0  0  0  0
   10.9491    3.1236    0.0000 O   0  0  0  0  0  0  0  0  0  0  0  0
    7.9288   -1.0254    0.0000 C   0  0  2  0  0  0  0  0  0  0  0  0
    7.9288   -0.0254    0.0000 C   0  0  1  0  0  0  0  0  0  0  0  0
    7.0628   -1.5254    0.0000 C   0  0  3  0  0  0  0  0  0  0  0  0
    6.1968   -1.0254    0.0000 C   0  0  3  0  0  0  0  0  0  0  0  0
    8.8750    0.2793    0.0000 C   0  0  3  0  0  0  0  0  0  0  0  0
    7.0628    0.4746    0.0000 C   0  0  0  0  0  0  0  0  0  0  0  0
    8.8750   -1.3302    0.0000 C   0  0  0  0  0  0  0  0  0  0  0  0
    5.2868   -1.5323    0.0000 C   0  0  2  0  0  0  0  0  0  0  0  0
    6.1968   -0.0254    0.0000 C   0  0  0  0  0  0  0  0  0  0  0  0
    9.4586   -0.5254    0.0000 C   0  0  0  0  0  0  0  0  0  0  0  0
    7.0789   -2.5669    0.0000 C   0  0  0  0  0  0  0  0  0  0  0  0
    7.9288    0.9746    0.0000 C   0  0  0  0  0  0  0  0  0  0  0  0
    5.2787   -2.5739    0.0000 C   0  0  0  0  0  0  0  0  0  0  0  0
    4.3599   -0.9682    0.0000 C   0  0  0  0  0  0  0  0  0  0  0  0
    9.1857    1.2298    0.0000 C   0  0  0  0  0  0  0  0  0  0  0  0
    6.1808   -3.0947    0.0000 C   0  0  0  0  0  0  0  0  0  0  0  0
    4.3433   -3.1236    0.0000 C   0  0  0  0  0  0  0  0  0  0  0  0
    3.4120   -1.4961    0.0000 C   0  0  0  0  0  0  0  0  0  0  0  0
    4.9520   -0.5900    0.0000 C   0  0  0  0  0  0  0  0  0  0  0  0
    3.4037   -2.5811    0.0000 C   0  0  2  0  0  0  0  0  0  0  0  0
    8.5993    2.0399    0.0000 C   0  0  0  0  0  0  0  0  0  0  0  0
   10.1373    1.5372    0.0000 C   0  0  0  0  0  0  0  0  0  0  0  0
   10.1390    2.5372    0.0000 C   0  0  0  0  0  0  0  0  0  0  0  0
    7.8022   -1.9447    0.0000 H   0  0  0  0  0  0  0  0  0  0  0  0
    6.9329   -0.6004    0.0000 H   0  0  0  0  0  0  0  0  0  0  0  0
    9.7148    0.4112    0.0000 H   0  0  0  0  0  0  0  0  0  0  0  0
    7.4613    0.9495    0.0000 H   0  0  0  0  0  0  0  0  0  0  0  0
    6.6643    0.9495    0.0000 H   0  0  0  0  0  0  0  0  0  0  0  0
    8.6240   -1.8971    0.0000 H   0  0  0  0  0  0  0  0  0  0  0  0
    9.4124   -1.6394    0.0000 H   0  0  0  0  0  0  0  0  0  0  0  0
    5.9847    0.5572    0.0000 H   0  0  0  0  0  0  0  0  0  0  0  0
    5.5862   -0.1331    0.0000 H   0  0  0  0  0  0  0  0  0  0  0  0
    9.9195   -0.9401    0.0000 H   0  0  0  0  0  0  0  0  0  0  0  0
    9.9195   -0.1107    0.0000 H   0  0  0  0  0  0  0  0  0  0  0  0
    7.2969   -3.1473    0.0000 H   0  0  0  0  0  0  0  0  0  0  0  0
    7.6880   -2.4514    0.0000 H   0  0  0  0  0  0  0  0  0  0  0  0
    8.5488    0.9746    0.0000 H   0  0  0  0  0  0  0  0  0  0  0  0
    7.9288    1.5946    0.0000 H   0  0  0  0  0  0  0  0  0  0  0  0
    7.3088    0.9746    0.0000 H   0  0  0  0  0  0  0  0  0  0  0  0
    4.7681   -0.5015    0.0000 H   0  0  0  0  0  0  0  0  0  0  0  0
    3.9700   -0.4861    0.0000 H   0  0  0  0  0  0  0  0  0  0  0  0
    6.1832   -3.7147    0.0000 H   0  0  0  0  0  0  0  0  0  0  0  0
    8.4658   -2.3354    0.0000 H   0  0  0  0  0  0  0  0  0  0  0  0
    3.9460   -3.5996    0.0000 H   0  0  0  0  0  0  0  0  0  0  0  0
    4.7443   -3.5965    0.0000 H   0  0  0  0  0  0  0  0  0  0  0  0
    3.2075   -0.9108    0.0000 H   0  0  0  0  0  0  0  0  0  0  0  0
    2.8004   -1.5975    0.0000 H   0  0  0  0  0  0  0  0  0  0  0  0
    5.3542   -0.1181    0.0000 H   0  0  0  0  0  0  0  0  0  0  0  0
    2.8686   -2.2680    0.0000 H   0  0  0  0  0  0  0  0  0  0  0  0
    8.1393    2.4555    0.0000 H   0  0  0  0  0  0  0  0  0  0  0  0
    8.1378    1.6258    0.0000 H   0  0  0  0  0  0  0  0  0  0  0  0
   10.6383    1.1719    0.0000 H   0  0  0  0  0  0  0  0  0  0  0  0
    2.0000   -2.7657    0.0000 H   0  0  0  0  0  0  0  0  0  0  0  0
  6  1  1  1  0  0  0
  1 48  1  0  0  0  0
  2 26  1  0  0  0  0
  2 28  1  0  0  0  0
 25  3  1  1  0  0  0
  3 58  1  0  0  0  0
  4 24  2  0  0  0  0
  5 28  2  0  0  0  0
  6  7  1  0  0  0  0
  6  8  1  0  0  0  0
  6 12  1  0  0  0  0
  7 10  1  0  0  0  0
  7 11  1  0  0  0  0
  7 17  1  1  0  0  0
  8  9  1  0  0  0  0
  8 16  1  0  0  0  0
  8 29  1  0  0  0  0
  9 13  1  0  0  0  0
  9 14  1  0  0  0  0
  9 30  1  0  0  0  0
 10 15  1  0  0  0  0
 10 20  1  0  0  0  0
 10 31  1  0  0  0  0
 11 14  1  0  0  0  0
 11 32  1  0  0  0  0
 11 33  1  0  0  0  0
 12 15  1  0  0  0  0
 12 34  1  0  0  0  0
 12 35  1  0  0  0  0
 13 18  1  0  0  0  0
 13 19  1  0  0  0  0
 13 24  1  1  0  0  0
 14 36  1  0  0  0  0
 14 37  1  0  0  0  0
 15 38  1  0  0  0  0
 15 39  1  0  0  0  0
 16 21  1  0  0  0  0
 16 40  1  0  0  0  0
 16 41  1  0  0  0  0
 17 42  1  0  0  0  0
 17 43  1  0  0  0  0
 17 44  1  0  0  0  0
 18 21  2  0  0  0  0
 18 22  1  0  0  0  0
 19 23  1  0  0  0  0
 19 45  1  0  0  0  0
 19 46  1  0  0  0  0
 20 26  1  0  0  0  0
 20 27  2  0  0  0  0
 21 47  1  0  0  0  0
 22 25  1  0  0  0  0
 22 49  1  0  0  0  0
 22 50  1  0  0  0  0
 23 25  1  0  0  0  0
 23 51  1  0  0  0  0
 23 52  1  0  0  0  0
 24 53  1  0  0  0  0
 25 54  1  0  0  0  0
 26 55  1  0  0  0  0
 26 56  1  0  0  0  0
 27 28  1  0  0  0  0
 27 57  1  0  0  0  0
M  END
> <PUBCHEM_COMPOUND_CID>
11022

> <PUBCHEM_COMPOUND_CANONICALIZED>
1

> <PUBCHEM_CACTVS_COMPLEXITY>
784

> <PUBCHEM_CACTVS_HBOND_ACCEPTOR>
5

> <PUBCHEM_CACTVS_HBOND_DONOR>
2

> <PUBCHEM_CACTVS_ROTATABLE_BOND>
2

> <PUBCHEM_CACTVS_SUBSKEYS>
AAADceB4OAAAAAAAAAAAAAAAAAAAAYIAAAAwYIAAAAAAAGCAAAAAGgAACAAAD1SggAICCAAABgCIAijSiAAAAAAgAAAACAEAAEgAFBIAIQACUAAEwAAIIQOI7PzPgAAAAAAAAADAAAYAADAAAYAADAAAAA==

> <PUBCHEM_IUPAC_OPENEYE_NAME>
(3S,10S,13R,14S)-3,14-dihydroxy-13-methyl-17-(5-oxo-2H-furan-3-yl)-1,2,3,4,7,8,9,11,12,15,16,17-dodecahydrocyclopenta[a]phenanthrene-10-carbaldehyde

> <PUBCHEM_IUPAC_CAS_NAME>
(3S,10S,13R,14S)-3,14-dihydroxy-13-methyl-17-(5-oxo-2H-furan-3-yl)-1,2,3,4,7,8,9,11,12,15,16,17-dodecahydrocyclopenta[a]phenanthrene-10-carboxaldehyde

> <PUBCHEM_IUPAC_NAME>
(3S,10S,13R,14S)-3,14-dihydroxy-13-methyl-17-(5-oxo-2H-furan-3-yl)-1,2,3,4,7,8,9,11,12,15,16,17-dodecahydrocyclopenta[a]phenanthrene-10-carbaldehyde

> <PUBCHEM_IUPAC_SYSTEMATIC_NAME>
(3S,10S,13R,14S)-13-methyl-3,14-bis(oxidanyl)-17-(5-oxidanylidene-2H-furan-3-yl)-1,2,3,4,7,8,9,11,12,15,16,17-dodecahydrocyclopenta[a]phenanthrene-10-carbaldehyde

> <PUBCHEM_IUPAC_TRADITIONAL_NAME>
(3S,10S,13R,14S)-3,14-dihydroxy-17-(5-keto-2H-furan-3-yl)-13-methyl-1,2,3,4,7,8,9,11,12,15,16,17-dodecahydrocyclopenta[a]phenanthrene-10-carbaldehyde

> <PUBCHEM_IUPAC_INCHI>
InChI=1S/C23H30O5/c1-21-7-5-18-19(3-2-15-11-16(25)4-8-22(15,18)13-24)23(21,27)9-6-17(21)14-10-20(26)28-12-14/h2,10,13,16-19,25,27H,3-9,11-12H2,1H3/t16-,17?,18?,19?,21+,22+,23-/m0/s1

> <PUBCHEM_IUPAC_INCHIKEY>
FDFUXGSOHNJEAN-KQYWMCCWSA-N

> <PUBCHEM_XLOGP3>
0.7

> <PUBCHEM_EXACT_MASS>
386.209324

> <PUBCHEM_MOLECULAR_FORMULA>
C23H30O5

> <PUBCHEM_MOLECULAR_WEIGHT>
386.4813

> <PUBCHEM_OPENEYE_CAN_SMILES>
CC12CCC3C(C1(CCC2C4=CC(=O)OC4)O)CC=C5C3(CCC(C5)O)C=O

> <PUBCHEM_OPENEYE_ISO_SMILES>
C[C@]12CCC3C([C@]1(CCC2C4=CC(=O)OC4)O)CC=C5[C@@]3(CC[C@@H](C5)O)C=O

> <PUBCHEM_CACTVS_TPSA>
83.8

> <PUBCHEM_MONOISOTOPIC_WEIGHT>
386.209324

> <PUBCHEM_TOTAL_CHARGE>
0

> <PUBCHEM_HEAVY_ATOM_COUNT>
28

> <PUBCHEM_ATOM_DEF_STEREO_COUNT>
4

> <PUBCHEM_ATOM_UDEF_STEREO_COUNT>
3

> <PUBCHEM_BOND_DEF_STEREO_COUNT>
0

> <PUBCHEM_BOND_UDEF_STEREO_COUNT>
0

> <PUBCHEM_ISOTOPIC_ATOM_COUNT>
0

> <PUBCHEM_COMPONENT_COUNT>
1

> <PUBCHEM_CACTVS_TAUTO_COUNT>
1

> <PUBCHEM_COORDINATE_TYPE>
1
5
255

> <PUBCHEM_BONDANNOTATIONS>
6  1  5
10  31  3
13  24  5
25  3  5
7  17  5
8  29  3
9  30  3

$$$$

