10601
  -OEChem-06261204443D

 17 17  0     1  0  0  0  0  0999 V2000
    2.0675   -0.1557    0.1705 O   0  0  0  0  0  0  0  0  0  0  0  0
    0.7271   -1.9731   -0.2227 O   0  0  0  0  0  0  0  0  0  0  0  0
   -1.7628   -1.0965    0.5910 O   0  0  0  0  0  0  0  0  0  0  0  0
   -0.1458    0.2799   -0.4808 C   0  0  1  0  0  0  0  0  0  0  0  0
    0.4191    1.4947    0.2199 C   0  0  0  0  0  0  0  0  0  0  0  0
    1.9060    1.2654    0.1203 C   0  0  0  0  0  0  0  0  0  0  0  0
    0.8884   -0.7637   -0.1667 C   0  0  0  0  0  0  0  0  0  0  0  0
   -1.5164   -0.0412    0.0091 C   0  0  0  0  0  0  0  0  0  0  0  0
   -2.5832    0.9902   -0.2406 C   0  0  0  0  0  0  0  0  0  0  0  0
   -0.1641    0.4127   -1.5682 H   0  0  0  0  0  0  0  0  0  0  0  0
    0.1151    1.5164    1.2744 H   0  0  0  0  0  0  0  0  0  0  0  0
    0.1129    2.4423   -0.2333 H   0  0  0  0  0  0  0  0  0  0  0  0
    2.3203    1.6288   -0.8260 H   0  0  0  0  0  0  0  0  0  0  0  0
    2.4493    1.7279    0.9492 H   0  0  0  0  0  0  0  0  0  0  0  0
   -2.4152    1.8637    0.3934 H   0  0  0  0  0  0  0  0  0  0  0  0
   -2.5774    1.2808   -1.2942 H   0  0  0  0  0  0  0  0  0  0  0  0
   -3.5633    0.5654   -0.0056 H   0  0  0  0  0  0  0  0  0  0  0  0
  1  6  1  0  0  0  0
  1  7  1  0  0  0  0
  2  7  2  0  0  0  0
  3  8  2  0  0  0  0
  4  5  1  0  0  0  0
  4  7  1  0  0  0  0
  4  8  1  0  0  0  0
  4 10  1  0  0  0  0
  5  6  1  0  0  0  0
  5 11  1  0  0  0  0
  5 12  1  0  0  0  0
  6 13  1  0  0  0  0
  6 14  1  0  0  0  0
  8  9  1  0  0  0  0
  9 15  1  0  0  0  0
  9 16  1  0  0  0  0
  9 17  1  0  0  0  0
M  END
> <PUBCHEM_COMPOUND_CID>
10601

> <PUBCHEM_CONFORMER_RMSD>
0.4

> <PUBCHEM_CONFORMER_DIVERSEORDER>
1
7
6
5
10
2
9
3
4
8

> <PUBCHEM_MMFF94_PARTIAL_CHARGES>
8
1 -0.43
2 -0.57
3 -0.57
4 0.12
6 0.28
7 0.66
8 0.45
9 0.06

> <PUBCHEM_EFFECTIVE_ROTOR_COUNT>
1.8

> <PUBCHEM_PHARMACOPHORE_FEATURES>
4
1 2 acceptor
1 3 acceptor
1 4 anion
5 1 4 5 6 7 rings

> <PUBCHEM_HEAVY_ATOM_COUNT>
9

> <PUBCHEM_ATOM_DEF_STEREO_COUNT>
0

> <PUBCHEM_ATOM_UDEF_STEREO_COUNT>
1

> <PUBCHEM_BOND_DEF_STEREO_COUNT>
0

> <PUBCHEM_BOND_UDEF_STEREO_COUNT>
0

> <PUBCHEM_ISOTOPIC_ATOM_COUNT>
0

> <PUBCHEM_COMPONENT_COUNT>
1

> <PUBCHEM_CACTVS_TAUTO_COUNT>
5

> <PUBCHEM_CONFORMER_ID>
0000296900000001

> <PUBCHEM_MMFF94_ENERGY>
8.3532

> <PUBCHEM_FEATURE_SELFOVERLAP>
20.302

> <PUBCHEM_SHAPE_FINGERPRINT>
16945 1 18338796839593251509
18185500 45 18260833734305902485
21040471 1 18193278494576609140
23552423 10 18343014531853356334
241688 4 17328302961744764192
2748010 2 18338515240189050988
29004967 10 18410571824809340104
5084963 1 17824259302313267513

> <PUBCHEM_SHAPE_MULTIPOLES>
167.61
2.95
1.69
0.67
1.05
0.32
-0.01
-0.65
0.11
-0.34
0.04
0.08
0
0.25

> <PUBCHEM_SHAPE_SELFOVERLAP>
340.123

> <PUBCHEM_SHAPE_VOLUME>
99.7

> <PUBCHEM_COORDINATE_TYPE>
2
5
10

$$$$

