10106
  -OEChem-07051213092D

 29 30  0     0  0  0  0  0  0999 V2000
    3.7543    1.8108    0.0000 O   0  0  0  0  0  0  0  0  0  0  0  0
    4.2320   -0.1378    0.0000 C   0  0  0  0  0  0  0  0  0  0  0  0
    4.4909    0.8282    0.0000 C   0  0  0  0  0  0  0  0  0  0  0  0
    2.5000   -1.1378    0.0000 C   0  0  0  0  0  0  0  0  0  0  0  0
    6.0640   -0.8966    0.0000 C   0  0  0  0  0  0  0  0  0  0  0  0
    2.0000   -0.2717    0.0000 C   0  0  0  0  0  0  0  0  0  0  0  0
    6.3228    0.0694    0.0000 C   0  0  0  0  0  0  0  0  0  0  0  0
    3.9732   -1.1037    0.0000 C   0  0  0  0  0  0  0  0  0  0  0  0
    4.7497    1.7941    0.0000 C   0  0  0  0  0  0  0  0  0  0  0  0
    4.6803   -1.8108    0.0000 C   0  0  0  0  0  0  0  0  0  0  0  0
    3.2661   -1.8107    0.0000 C   0  0  0  0  0  0  0  0  0  0  0  0
    1.9631   -1.4478    0.0000 H   0  0  0  0  0  0  0  0  0  0  0  0
    2.8100   -1.6747    0.0000 H   0  0  0  0  0  0  0  0  0  0  0  0
    5.8520   -1.4792    0.0000 H   0  0  0  0  0  0  0  0  0  0  0  0
    6.6553   -1.0830    0.0000 H   0  0  0  0  0  0  0  0  0  0  0  0
    6.9141   -0.1171    0.0000 H   0  0  0  0  0  0  0  0  0  0  0  0
    6.5349    0.6520    0.0000 H   0  0  0  0  0  0  0  0  0  0  0  0
    1.7294    0.2861    0.0000 H   0  0  0  0  0  0  0  0  0  0  0  0
    1.4523   -0.5622    0.0000 H   0  0  0  0  0  0  0  0  0  0  0  0
    3.4363   -0.7937    0.0000 H   0  0  0  0  0  0  0  0  0  0  0  0
    5.3486    1.6336    0.0000 H   0  0  0  0  0  0  0  0  0  0  0  0
    4.9102    2.3930    0.0000 H   0  0  0  0  0  0  0  0  0  0  0  0
    4.1508    1.9546    0.0000 H   0  0  0  0  0  0  0  0  0  0  0  0
    4.2419   -2.2492    0.0000 H   0  0  0  0  0  0  0  0  0  0  0  0
    5.1187   -2.2492    0.0000 H   0  0  0  0  0  0  0  0  0  0  0  0
    5.1187   -1.3724    0.0000 H   0  0  0  0  0  0  0  0  0  0  0  0
    2.8277   -1.3723    0.0000 H   0  0  0  0  0  0  0  0  0  0  0  0
    2.8276   -2.2491    0.0000 H   0  0  0  0  0  0  0  0  0  0  0  0
    3.7044   -2.2492    0.0000 H   0  0  0  0  0  0  0  0  0  0  0  0
  1  2  1  0  0  0  0
  1  3  1  0  0  0  0
  2  4  1  0  0  0  0
  2  5  1  0  0  0  0
  2  8  1  0  0  0  0
  3  6  1  0  0  0  0
  3  7  1  0  0  0  0
  3  9  1  0  0  0  0
  4  6  1  0  0  0  0
  4 12  1  0  0  0  0
  4 13  1  0  0  0  0
  5  7  1  0  0  0  0
  5 14  1  0  0  0  0
  5 15  1  0  0  0  0
  6 18  1  0  0  0  0
  6 19  1  0  0  0  0
  7 16  1  0  0  0  0
  7 17  1  0  0  0  0
  8 10  1  0  0  0  0
  8 11  1  0  0  0  0
  8 20  1  0  0  0  0
  9 21  1  0  0  0  0
  9 22  1  0  0  0  0
  9 23  1  0  0  0  0
 10 24  1  0  0  0  0
 10 25  1  0  0  0  0
 10 26  1  0  0  0  0
 11 27  1  0  0  0  0
 11 28  1  0  0  0  0
 11 29  1  0  0  0  0
M  END
> <PUBCHEM_COMPOUND_CID>
10106

> <PUBCHEM_COMPOUND_CANONICALIZED>
1

> <PUBCHEM_CACTVS_COMPLEXITY>
164

> <PUBCHEM_CACTVS_HBOND_ACCEPTOR>
1

> <PUBCHEM_CACTVS_HBOND_DONOR>
0

> <PUBCHEM_CACTVS_ROTATABLE_BOND>
1

> <PUBCHEM_CACTVS_SUBSKEYS>
AAADceBwIAAAAAAAAAAAAAAAAAAAASJAAAAwAAAAAAAAAAAAAAAAGgAAAAAADUSAgAACAAAABAAAAAAAAAAAAAAAAAAAAAAAAAAAAAIAAAACAAAEAAAAAAGAwNAOgAAAAAAAAADAAAAAAAAAAAAAAAAAAA==

> <PUBCHEM_IUPAC_OPENEYE_NAME>
4-isopropyl-1-methyl-7-oxabicyclo[2.2.1]heptane

> <PUBCHEM_IUPAC_CAS_NAME>
1-methyl-4-propan-2-yl-7-oxabicyclo[2.2.1]heptane

> <PUBCHEM_IUPAC_NAME>
1-methyl-4-propan-2-yl-7-oxabicyclo[2.2.1]heptane

> <PUBCHEM_IUPAC_SYSTEMATIC_NAME>
1-methyl-4-propan-2-yl-7-oxabicyclo[2.2.1]heptane

> <PUBCHEM_IUPAC_TRADITIONAL_NAME>
4-isopropyl-1-methyl-7-oxabicyclo[2.2.1]heptane

> <PUBCHEM_IUPAC_INCHI>
InChI=1S/C10H18O/c1-8(2)10-6-4-9(3,11-10)5-7-10/h8H,4-7H2,1-3H3

> <PUBCHEM_IUPAC_INCHIKEY>
RFFOTVCVTJUTAD-UHFFFAOYSA-N

> <PUBCHEM_XLOGP3_AA>
2.5

> <PUBCHEM_EXACT_MASS>
154.135765

> <PUBCHEM_MOLECULAR_FORMULA>
C10H18O

> <PUBCHEM_MOLECULAR_WEIGHT>
154.24932

> <PUBCHEM_OPENEYE_CAN_SMILES>
CC(C)C12CCC(O1)(CC2)C

> <PUBCHEM_OPENEYE_ISO_SMILES>
CC(C)C12CCC(O1)(CC2)C

> <PUBCHEM_CACTVS_TPSA>
9.2

> <PUBCHEM_MONOISOTOPIC_WEIGHT>
154.135765

> <PUBCHEM_TOTAL_CHARGE>
0

> <PUBCHEM_HEAVY_ATOM_COUNT>
11

> <PUBCHEM_ATOM_DEF_STEREO_COUNT>
0

> <PUBCHEM_ATOM_UDEF_STEREO_COUNT>
0

> <PUBCHEM_BOND_DEF_STEREO_COUNT>
0

> <PUBCHEM_BOND_UDEF_STEREO_COUNT>
0

> <PUBCHEM_ISOTOPIC_ATOM_COUNT>
0

> <PUBCHEM_COMPONENT_COUNT>
1

> <PUBCHEM_CACTVS_TAUTO_COUNT>
1

> <PUBCHEM_COORDINATE_TYPE>
1
5
255

$$$$

