160153
  -OEChem-07051212572D

 40 42  0     1  0  0  0  0  0999 V2000
    3.5836   -0.0387    0.0000 O   0  0  0  0  0  0  0  0  0  0  0  0
    4.8698    2.0582    0.0000 O   0  0  0  0  0  0  0  0  0  0  0  0
    2.0000   -0.8435    0.0000 O   0  0  0  0  0  0  0  0  0  0  0  0
    6.2619   -0.3435    0.0000 C   0  0  1  0  0  0  0  0  0  0  0  0
    5.3958    0.1565    0.0000 C   0  0  1  0  0  0  0  0  0  0  0  0
    4.5298   -0.3435    0.0000 C   0  0  2  0  0  0  0  0  0  0  0  0
    5.3798    1.1980    0.0000 C   0  0  1  0  0  0  0  0  0  0  0  0
    6.2619   -1.3435    0.0000 C   0  0  0  0  0  0  0  0  0  0  0  0
    4.5298   -1.3435    0.0000 C   0  0  1  0  0  0  0  0  0  0  0  0
    7.1719    0.1634    0.0000 C   0  0  0  0  0  0  0  0  0  0  0  0
    5.3958   -1.8435    0.0000 C   0  0  0  0  0  0  0  0  0  0  0  0
    6.2778    1.7258    0.0000 C   0  0  0  0  0  0  0  0  0  0  0  0
    7.1799    1.2050    0.0000 C   0  0  0  0  0  0  0  0  0  0  0  0
    7.1279   -0.8435    0.0000 C   0  0  0  0  0  0  0  0  0  0  0  0
    4.3799    1.1865    0.0000 C   0  0  0  0  0  0  0  0  0  0  0  0
    3.5836   -1.6482    0.0000 C   0  0  0  0  0  0  0  0  0  0  0  0
    3.0000   -0.8435    0.0000 C   0  0  0  0  0  0  0  0  0  0  0  0
    3.2729   -2.5987    0.0000 C   0  0  0  0  0  0  0  0  0  0  0  0
    6.1287    0.5872    0.0000 H   0  0  0  0  0  0  0  0  0  0  0  0
    4.4399    0.5018    0.0000 H   0  0  0  0  0  0  0  0  0  0  0  0
    6.4739   -1.9261    0.0000 H   0  0  0  0  0  0  0  0  0  0  0  0
    6.8725   -1.2358    0.0000 H   0  0  0  0  0  0  0  0  0  0  0  0
    4.4399   -2.1887    0.0000 H   0  0  0  0  0  0  0  0  0  0  0  0
    7.3764   -0.4219    0.0000 H   0  0  0  0  0  0  0  0  0  0  0  0
    7.7835    0.2648    0.0000 H   0  0  0  0  0  0  0  0  0  0  0  0
    4.9973   -2.3184    0.0000 H   0  0  0  0  0  0  0  0  0  0  0  0
    5.7944   -2.3184    0.0000 H   0  0  0  0  0  0  0  0  0  0  0  0
    6.6751    2.2018    0.0000 H   0  0  0  0  0  0  0  0  0  0  0  0
    5.8769    2.1987    0.0000 H   0  0  0  0  0  0  0  0  0  0  0  0
    7.7899    1.0942    0.0000 H   0  0  0  0  0  0  0  0  0  0  0  0
    7.3935    1.7870    0.0000 H   0  0  0  0  0  0  0  0  0  0  0  0
    6.8179   -1.3804    0.0000 H   0  0  0  0  0  0  0  0  0  0  0  0
    7.6648   -1.1535    0.0000 H   0  0  0  0  0  0  0  0  0  0  0  0
    7.4379   -0.3065    0.0000 H   0  0  0  0  0  0  0  0  0  0  0  0
    4.3727    1.8064    0.0000 H   0  0  0  0  0  0  0  0  0  0  0  0
    3.7599    1.1793    0.0000 H   0  0  0  0  0  0  0  0  0  0  0  0
    4.3870    0.5665    0.0000 H   0  0  0  0  0  0  0  0  0  0  0  0
    5.1736    2.5987    0.0000 H   0  0  0  0  0  0  0  0  0  0  0  0
    2.6663   -2.7266    0.0000 H   0  0  0  0  0  0  0  0  0  0  0  0
    3.6870   -3.0602    0.0000 H   0  0  0  0  0  0  0  0  0  0  0  0
  1  6  1  0  0  0  0
  1 17  1  0  0  0  0
  7  2  1  6  0  0  0
  2 38  1  0  0  0  0
  3 17  2  0  0  0  0
  4  5  1  0  0  0  0
  4  8  1  0  0  0  0
  4 10  1  0  0  0  0
  4 14  1  1  0  0  0
  5  6  1  0  0  0  0
  5  7  1  0  0  0  0
  5 19  1  6  0  0  0
  6  9  1  0  0  0  0
  6 20  1  1  0  0  0
  7 12  1  0  0  0  0
  7 15  1  0  0  0  0
  8 11  1  0  0  0  0
  8 21  1  0  0  0  0
  8 22  1  0  0  0  0
  9 11  1  0  0  0  0
  9 16  1  0  0  0  0
  9 23  1  6  0  0  0
 10 13  1  0  0  0  0
 10 24  1  0  0  0  0
 10 25  1  0  0  0  0
 11 26  1  0  0  0  0
 11 27  1  0  0  0  0
 12 13  1  0  0  0  0
 12 28  1  0  0  0  0
 12 29  1  0  0  0  0
 13 30  1  0  0  0  0
 13 31  1  0  0  0  0
 14 32  1  0  0  0  0
 14 33  1  0  0  0  0
 14 34  1  0  0  0  0
 15 35  1  0  0  0  0
 15 36  1  0  0  0  0
 15 37  1  0  0  0  0
 16 17  1  0  0  0  0
 16 18  2  0  0  0  0
 18 39  1  0  0  0  0
 18 40  1  0  0  0  0
M  END
> <PUBCHEM_COMPOUND_CID>
160153

> <PUBCHEM_COMPOUND_CANONICALIZED>
1

> <PUBCHEM_CACTVS_COMPLEXITY>
416

> <PUBCHEM_CACTVS_HBOND_ACCEPTOR>
3

> <PUBCHEM_CACTVS_HBOND_DONOR>
1

> <PUBCHEM_CACTVS_ROTATABLE_BOND>
0

> <PUBCHEM_CACTVS_SUBSKEYS>
AAADceBwMAAAAAAAAAAAAAAAAAAAASAAAAAwYAAAAAAAAEjAAAAAGgAACAAAD1SggAICCAAABgCIAgDSCAAAAAAgAAAAAAEAAEgABBIAIQACQAAFwAAAIIGKyPCPgAAAAAAAAACAAAYAADAAAAAAAAAAAA==

> <PUBCHEM_IUPAC_OPENEYE_NAME>
(3aS,5aR,9R,9aS,9bS)-9-hydroxy-5a,9-dimethyl-3-methylene-3a,4,5,6,7,8,9a,9b-octahydrobenzo[g]benzofuran-2-one

> <PUBCHEM_IUPAC_CAS_NAME>
(3aS,5aR,9R,9aS,9bS)-9-hydroxy-5a,9-dimethyl-3-methylene-3a,4,5,6,7,8,9a,9b-octahydrobenzo[g]benzofuran-2-one

> <PUBCHEM_IUPAC_NAME>
(3aS,5aR,9R,9aS,9bS)-9-hydroxy-5a,9-dimethyl-3-methylidene-3a,4,5,6,7,8,9a,9b-octahydrobenzo[g][1]benzofuran-2-one

> <PUBCHEM_IUPAC_SYSTEMATIC_NAME>
(3aS,5aR,9R,9aS,9bS)-5a,9-dimethyl-3-methylidene-9-oxidanyl-3a,4,5,6,7,8,9a,9b-octahydrobenzo[g][1]benzofuran-2-one

> <PUBCHEM_IUPAC_TRADITIONAL_NAME>
(3aS,5aR,9R,9aS,9bS)-9-hydroxy-5a,9-dimethyl-3-methylene-3a,4,5,6,7,8,9a,9b-octahydrobenzo[g]benzofuran-2-one

> <PUBCHEM_IUPAC_INCHI>
InChI=1S/C15H22O3/c1-9-10-5-8-14(2)6-4-7-15(3,17)12(14)11(10)18-13(9)16/h10-12,17H,1,4-8H2,2-3H3/t10-,11-,12+,14+,15+/m0/s1

> <PUBCHEM_IUPAC_INCHIKEY>
BVRDNJZFYKHRJQ-CWFCOSEVSA-N

> <PUBCHEM_XLOGP3_AA>
2.8

> <PUBCHEM_EXACT_MASS>
250.156895

> <PUBCHEM_MOLECULAR_FORMULA>
C15H22O3

> <PUBCHEM_MOLECULAR_WEIGHT>
250.33338

> <PUBCHEM_OPENEYE_CAN_SMILES>
CC12CCCC(C1C3C(CC2)C(=C)C(=O)O3)(C)O

> <PUBCHEM_OPENEYE_ISO_SMILES>
C[C@]12CCC[C@@]([C@@H]1[C@@H]3[C@@H](CC2)C(=C)C(=O)O3)(C)O

> <PUBCHEM_CACTVS_TPSA>
46.5

> <PUBCHEM_MONOISOTOPIC_WEIGHT>
250.156895

> <PUBCHEM_TOTAL_CHARGE>
0

> <PUBCHEM_HEAVY_ATOM_COUNT>
18

> <PUBCHEM_ATOM_DEF_STEREO_COUNT>
5

> <PUBCHEM_ATOM_UDEF_STEREO_COUNT>
0

> <PUBCHEM_BOND_DEF_STEREO_COUNT>
0

> <PUBCHEM_BOND_UDEF_STEREO_COUNT>
0

> <PUBCHEM_ISOTOPIC_ATOM_COUNT>
0

> <PUBCHEM_COMPONENT_COUNT>
1

> <PUBCHEM_CACTVS_TAUTO_COUNT>
1

> <PUBCHEM_COORDINATE_TYPE>
1
5
255

> <PUBCHEM_BONDANNOTATIONS>
7  2  6
4  14  5
5  19  6
6  20  5
9  23  6

$$$$

