46173796
  -OEChem-07051213023D

 93 95  0     1  0  0  0  0  0999 V2000
   -3.4705   -1.7131    1.4671 O   0  0  0  0  0  0  0  0  0  0  0  0
   -1.2940   -3.4358    1.4379 O   0  0  0  0  0  0  0  0  0  0  0  0
   -5.6936   -0.2141    1.4384 O   0  0  0  0  0  0  0  0  0  0  0  0
    1.1522   -4.5816   -0.5532 O   0  0  0  0  0  0  0  0  0  0  0  0
   -1.1944    0.7429    2.1714 O   0  0  0  0  0  0  0  0  0  0  0  0
    1.6044    4.4749   -1.7931 O   0  0  0  0  0  0  0  0  0  0  0  0
   -1.8788    4.2058   -0.3482 O   0  0  0  0  0  0  0  0  0  0  0  0
    3.8962    2.5480   -1.3079 O   0  0  0  0  0  0  0  0  0  0  0  0
    1.1389    2.1178    2.9959 O   0  0  0  0  0  0  0  0  0  0  0  0
    5.0534   -0.8272    2.2429 O   0  0  0  0  0  0  0  0  0  0  0  0
    4.6637    0.4210    0.2906 N   0  0  0  0  0  0  0  0  0  0  0  0
   -3.1760   -3.5368   -0.1319 C   0  0  1  0  0  0  0  0  0  0  0  0
   -3.6049   -2.0507    0.0885 C   0  0  1  0  0  0  0  0  0  0  0  0
   -1.6473   -3.7852    0.0986 C   0  0  1  0  0  0  0  0  0  0  0  0
   -5.0443   -1.6942   -0.3867 C   0  0  1  0  0  0  0  0  0  0  0  0
   -0.7020   -3.0197   -0.8798 C   0  0  1  0  0  0  0  0  0  0  0  0
   -5.5829   -0.2807    0.0165 C   0  0  2  0  0  0  0  0  0  0  0  0
    0.8006   -3.1967   -0.4940 C   0  0  2  0  0  0  0  0  0  0  0  0
   -3.9942   -4.4949    0.7513 C   0  0  0  0  0  0  0  0  0  0  0  0
   -4.8568    0.9759   -0.5445 C   0  0  1  0  0  0  0  0  0  0  0  0
   -5.1985   -1.9043   -1.8988 C   0  0  0  0  0  0  0  0  0  0  0  0
    1.8193   -2.3809   -1.3402 C   0  0  1  0  0  0  0  0  0  0  0  0
   -0.9781   -3.4317   -2.3325 C   0  0  0  0  0  0  0  0  0  0  0  0
   -5.7207    2.2390   -0.4121 C   0  0  0  0  0  0  0  0  0  0  0  0
   -3.4376    1.1627   -0.0551 C   0  0  0  0  0  0  0  0  0  0  0  0
    1.3801   -0.9284   -1.5432 C   0  0  0  0  0  0  0  0  0  0  0  0
    3.1846   -2.3749   -0.6711 C   0  0  0  0  0  0  0  0  0  0  0  0
   -2.9273    1.7924    1.0240 C   0  0  0  0  0  0  0  0  0  0  0  0
   -0.3828    3.0588   -1.8850 C   0  0  1  0  0  0  0  0  0  0  0  0
   -1.4814    1.7354    1.2515 C   0  0  0  0  0  0  0  0  0  0  0  0
   -0.5474    2.4388    0.5647 C   0  0  0  0  0  0  0  0  0  0  0  0
    1.1499    3.1215   -1.7397 C   0  0  2  0  0  0  0  0  0  0  0  0
    4.3401   -2.2872   -1.3504 C   0  0  0  0  0  0  0  0  0  0  0  0
    1.6760    2.5298   -0.4486 C   0  0  0  0  0  0  0  0  0  0  0  0
    0.9056    2.2746    0.6272 C   0  0  0  0  0  0  0  0  0  0  0  0
   -1.0289    3.3423   -0.5365 C   0  0  0  0  0  0  0  0  0  0  0  0
   -3.6966    2.4765    2.1153 C   0  0  0  0  0  0  0  0  0  0  0  0
   -0.9354    3.9683   -2.9783 C   0  0  0  0  0  0  0  0  0  0  0  0
    3.1228    2.1533   -0.4401 C   0  0  0  0  0  0  0  0  0  0  0  0
    1.5978    1.8781    1.8843 C   0  0  0  0  0  0  0  0  0  0  0  0
    5.6726   -2.2206   -0.7809 C   0  0  0  0  0  0  0  0  0  0  0  0
    3.5700    1.1994    0.6135 C   0  0  0  0  0  0  0  0  0  0  0  0
    2.8563    1.1219    1.7401 C   0  0  0  0  0  0  0  0  0  0  0  0
    6.1245   -1.4836    0.2526 C   0  0  0  0  0  0  0  0  0  0  0  0
    5.2212   -0.5981    1.0494 C   0  0  0  0  0  0  0  0  0  0  0  0
    7.5441   -1.5385    0.7300 C   0  0  0  0  0  0  0  0  0  0  0  0
   -3.3902   -3.8182   -1.1668 H   0  0  0  0  0  0  0  0  0  0  0  0
   -2.9096   -1.4221   -0.4655 H   0  0  0  0  0  0  0  0  0  0  0  0
   -1.4486   -4.8592   -0.0114 H   0  0  0  0  0  0  0  0  0  0  0  0
   -5.7259   -2.3985    0.1083 H   0  0  0  0  0  0  0  0  0  0  0  0
   -0.9146   -1.9512   -0.7765 H   0  0  0  0  0  0  0  0  0  0  0  0
   -6.6174   -0.2302   -0.3512 H   0  0  0  0  0  0  0  0  0  0  0  0
    0.9156   -2.8953    0.5545 H   0  0  0  0  0  0  0  0  0  0  0  0
   -5.0581   -4.4550    0.5005 H   0  0  0  0  0  0  0  0  0  0  0  0
   -3.6705   -5.5296    0.5922 H   0  0  0  0  0  0  0  0  0  0  0  0
   -3.8900   -4.2774    1.8182 H   0  0  0  0  0  0  0  0  0  0  0  0
   -4.7651    0.8313   -1.6303 H   0  0  0  0  0  0  0  0  0  0  0  0
   -4.4303   -1.3614   -2.4587 H   0  0  0  0  0  0  0  0  0  0  0  0
   -6.1790   -1.5612   -2.2460 H   0  0  0  0  0  0  0  0  0  0  0  0
   -5.1245   -2.9631   -2.1633 H   0  0  0  0  0  0  0  0  0  0  0  0
    1.9297   -2.8566   -2.3234 H   0  0  0  0  0  0  0  0  0  0  0  0
   -1.9689   -3.0973   -2.6548 H   0  0  0  0  0  0  0  0  0  0  0  0
   -0.2630   -2.9854   -3.0285 H   0  0  0  0  0  0  0  0  0  0  0  0
   -0.9316   -4.5187   -2.4548 H   0  0  0  0  0  0  0  0  0  0  0  0
   -4.2220   -2.0968    1.9491 H   0  0  0  0  0  0  0  0  0  0  0  0
   -1.7155   -4.0762    2.0347 H   0  0  0  0  0  0  0  0  0  0  0  0
   -6.0810    2.3969    0.6075 H   0  0  0  0  0  0  0  0  0  0  0  0
   -6.6073    2.1542   -1.0511 H   0  0  0  0  0  0  0  0  0  0  0  0
   -5.1729    3.1329   -0.7298 H   0  0  0  0  0  0  0  0  0  0  0  0
   -2.7137    0.7019   -0.7305 H   0  0  0  0  0  0  0  0  0  0  0  0
    2.1676   -0.3336   -2.0190 H   0  0  0  0  0  0  0  0  0  0  0  0
    1.1265   -0.4617   -0.5869 H   0  0  0  0  0  0  0  0  0  0  0  0
    0.5034   -0.8600   -2.1942 H   0  0  0  0  0  0  0  0  0  0  0  0
   -6.2624   -0.9479    1.7271 H   0  0  0  0  0  0  0  0  0  0  0  0
    1.1501   -4.8530   -1.4865 H   0  0  0  0  0  0  0  0  0  0  0  0
    3.1990   -2.3936    0.4159 H   0  0  0  0  0  0  0  0  0  0  0  0
   -0.6664    2.0277   -2.1414 H   0  0  0  0  0  0  0  0  0  0  0  0
    1.5848    2.5974   -2.6001 H   0  0  0  0  0  0  0  0  0  0  0  0
    4.3150   -2.2816   -2.4379 H   0  0  0  0  0  0  0  0  0  0  0  0
   -4.6995    2.0642    2.2380 H   0  0  0  0  0  0  0  0  0  0  0  0
   -3.7806    3.5475    1.9045 H   0  0  0  0  0  0  0  0  0  0  0  0
   -3.2053    2.3642    3.0887 H   0  0  0  0  0  0  0  0  0  0  0  0
   -0.7776    5.0268   -2.7452 H   0  0  0  0  0  0  0  0  0  0  0  0
   -2.0146    3.8189   -3.0948 H   0  0  0  0  0  0  0  0  0  0  0  0
   -0.4592    3.7525   -3.9401 H   0  0  0  0  0  0  0  0  0  0  0  0
    6.3915   -2.8359   -1.3211 H   0  0  0  0  0  0  0  0  0  0  0  0
    3.1168    0.4891    2.5781 H   0  0  0  0  0  0  0  0  0  0  0  0
   -2.0147    0.3023    2.4517 H   0  0  0  0  0  0  0  0  0  0  0  0
    2.5755    4.4626   -1.8449 H   0  0  0  0  0  0  0  0  0  0  0  0
    5.0261    0.5602   -0.6506 H   0  0  0  0  0  0  0  0  0  0  0  0
    8.1604   -2.1996    0.1117 H   0  0  0  0  0  0  0  0  0  0  0  0
    7.5904   -1.9075    1.7597 H   0  0  0  0  0  0  0  0  0  0  0  0
    7.9932   -0.5404    0.6986 H   0  0  0  0  0  0  0  0  0  0  0  0
  1 13  1  0  0  0  0
  1 65  1  0  0  0  0
  2 14  1  0  0  0  0
  2 66  1  0  0  0  0
  3 17  1  0  0  0  0
  3 74  1  0  0  0  0
  4 18  1  0  0  0  0
  4 75  1  0  0  0  0
  5 30  1  0  0  0  0
  5 88  1  0  0  0  0
  6 32  1  0  0  0  0
  6 89  1  0  0  0  0
  7 36  2  0  0  0  0
  8 39  2  0  0  0  0
  9 40  2  0  0  0  0
 10 45  2  0  0  0  0
 11 42  1  0  0  0  0
 11 45  1  0  0  0  0
 11 90  1  0  0  0  0
 12 13  1  0  0  0  0
 12 14  1  0  0  0  0
 12 19  1  0  0  0  0
 12 47  1  0  0  0  0
 13 15  1  0  0  0  0
 13 48  1  0  0  0  0
 14 16  1  0  0  0  0
 14 49  1  0  0  0  0
 15 17  1  0  0  0  0
 15 21  1  0  0  0  0
 15 50  1  0  0  0  0
 16 18  1  0  0  0  0
 16 23  1  0  0  0  0
 16 51  1  0  0  0  0
 17 20  1  0  0  0  0
 17 52  1  0  0  0  0
 18 22  1  0  0  0  0
 18 53  1  0  0  0  0
 19 54  1  0  0  0  0
 19 55  1  0  0  0  0
 19 56  1  0  0  0  0
 20 24  1  0  0  0  0
 20 25  1  0  0  0  0
 20 57  1  0  0  0  0
 21 58  1  0  0  0  0
 21 59  1  0  0  0  0
 21 60  1  0  0  0  0
 22 26  1  0  0  0  0
 22 27  1  0  0  0  0
 22 61  1  0  0  0  0
 23 62  1  0  0  0  0
 23 63  1  0  0  0  0
 23 64  1  0  0  0  0
 24 67  1  0  0  0  0
 24 68  1  0  0  0  0
 24 69  1  0  0  0  0
 25 28  2  0  0  0  0
 25 70  1  0  0  0  0
 26 71  1  0  0  0  0
 26 72  1  0  0  0  0
 26 73  1  0  0  0  0
 27 33  2  0  0  0  0
 27 76  1  0  0  0  0
 28 30  1  0  0  0  0
 28 37  1  0  0  0  0
 29 32  1  0  0  0  0
 29 36  1  0  0  0  0
 29 38  1  0  0  0  0
 29 77  1  0  0  0  0
 30 31  2  0  0  0  0
 31 35  1  0  0  0  0
 31 36  1  0  0  0  0
 32 34  1  0  0  0  0
 32 78  1  0  0  0  0
 33 41  1  0  0  0  0
 33 79  1  0  0  0  0
 34 35  2  0  0  0  0
 34 39  1  0  0  0  0
 35 40  1  0  0  0  0
 37 80  1  0  0  0  0
 37 81  1  0  0  0  0
 37 82  1  0  0  0  0
 38 83  1  0  0  0  0
 38 84  1  0  0  0  0
 38 85  1  0  0  0  0
 39 42  1  0  0  0  0
 40 43  1  0  0  0  0
 41 44  2  0  0  0  0
 41 86  1  0  0  0  0
 42 43  2  0  0  0  0
 43 87  1  0  0  0  0
 44 45  1  0  0  0  0
 44 46  1  0  0  0  0
 46 91  1  0  0  0  0
 46 92  1  0  0  0  0
 46 93  1  0  0  0  0
M  END
> <PUBCHEM_COMPOUND_CID>
46173796

> <PUBCHEM_CONFORMER_RMSD>
0.8

> <PUBCHEM_CONFORMER_DIVERSEORDER>
3
5
12
4
1
9
2
11
7
13
14
8
10
6

> <PUBCHEM_MMFF94_PARTIAL_CHARGES>
49
1 -0.68
10 -0.57
11 -0.54
13 0.28
14 0.28
17 0.28
18 0.28
2 -0.68
20 0.14
22 0.14
25 -0.29
27 -0.29
28 -0.14
29 0.06
3 -0.68
30 0.08
31 0.01
32 0.42
33 -0.15
34 -0.12
35 0.01
36 0.49
37 0.14
39 0.54
4 -0.68
40 0.54
41 -0.15
42 0.12
43 -0.14
44 -0.12
45 0.62
46 0.14
5 -0.53
6 -0.68
65 0.4
66 0.4
7 -0.57
70 0.15
74 0.4
75 0.4
76 0.15
79 0.15
8 -0.57
86 0.15
87 0.15
88 0.45
89 0.4
9 -0.57
90 0.37

> <PUBCHEM_EFFECTIVE_ROTOR_COUNT>
2.4

> <PUBCHEM_PHARMACOPHORE_FEATURES>
18
1 1 acceptor
1 1 donor
1 10 acceptor
1 11 donor
1 2 acceptor
1 2 donor
1 3 acceptor
1 3 donor
1 4 acceptor
1 4 donor
1 5 donor
1 6 acceptor
1 6 donor
1 7 acceptor
1 8 acceptor
1 9 acceptor
6 29 31 32 34 35 36 rings
6 34 35 39 40 42 43 rings

> <PUBCHEM_HEAVY_ATOM_COUNT>
46

> <PUBCHEM_ATOM_DEF_STEREO_COUNT>
9

> <PUBCHEM_ATOM_UDEF_STEREO_COUNT>
2

> <PUBCHEM_BOND_DEF_STEREO_COUNT>
4

> <PUBCHEM_BOND_UDEF_STEREO_COUNT>
0

> <PUBCHEM_ISOTOPIC_ATOM_COUNT>
0

> <PUBCHEM_COMPONENT_COUNT>
1

> <PUBCHEM_CACTVS_TAUTO_COUNT>
1001

> <PUBCHEM_CONFORMER_ID>
02C08E6400000003

> <PUBCHEM_MMFF94_ENERGY>
149.1784

> <PUBCHEM_FEATURE_SELFOVERLAP>
91.383

> <PUBCHEM_SHAPE_FINGERPRINT>
10305334 12 16952804223432915049
10439779 11 18409732901901795011
10815517 723 18335708247407376334
10864689 126 17903631131256921135
11399939 17 18263918861124233416
11421498 54 16829806921109885197
11513181 2 17749379356606537423
12422481 6 18260275135370662574
13347071 3 18261109626005171910
13383668 90 17199944776892931502
13402501 40 18261675968813594362
13561361 72 18409736200884661898
14117953 113 18340492269923844117
144659 178 18410288077874492989
14918310 93 17694201663063329937
15001296 14 18270123379200028185
150020 26 17975132037293228707
15264996 142 18270382962987570474
15264996 44 17900239941076174791
15274700 208 16154855418896760786
15968369 153 17895199870342788614
15975801 100 17986674981498058546
20764821 26 18338216198928052919
21133410 90 16950567623265923418
21792965 11 16465284259612016638
338550 245 18336264561272048766
354706 109 18190203315030020713
354706 35 16676992393288361647
373842 8 18337673005729559631
463206 1 18334289898602754761
469060 322 18269549614856611460
508706 21 18335983159452642226
550186 83 18129679546617733618
86090 222 17971754630342262894

> <PUBCHEM_SHAPE_MULTIPOLES>
882.98
13.05
6.92
2.28
6.99
1.52
0
6.81
-2.41
-2.86
2.63
0.04
-1.48
0.14

> <PUBCHEM_SHAPE_SELFOVERLAP>
1842.994

> <PUBCHEM_SHAPE_VOLUME>
495.9

> <PUBCHEM_COORDINATE_TYPE>
2
5
10

$$$$

