13482
  -OEChem-06261214402D

 50 50  0     0  0  0  0  0  0999 V2000
    0.4030    3.7690    0.0000 Cl  0  0  0  0  0  0  0  0  0  0  0  0
    3.4700    9.3890    0.0000 Cl  0  5  0  0  0  0  0  0  0  0  0  0
    2.9030    2.9030    0.0000 O   0  0  0  0  0  0  0  0  0  0  0  0
    2.9030    4.6350    0.0000 O   0  0  0  0  0  0  0  0  0  0  0  0
    5.4030    2.0369    0.0000 N   0  3  0  0  0  0  0  0  0  0  0  0
    4.4030    2.0369    0.0000 C   0  0  0  0  0  0  0  0  0  0  0  0
    6.4030    2.0369    0.0000 C   0  0  0  0  0  0  0  0  0  0  0  0
    5.4030    1.0369    0.0000 C   0  0  0  0  0  0  0  0  0  0  0  0
    3.9030    2.9030    0.0000 C   0  0  0  0  0  0  0  0  0  0  0  0
    6.9030    1.1709    0.0000 C   0  0  0  0  0  0  0  0  0  0  0  0
    4.5369    0.5369    0.0000 C   0  0  0  0  0  0  0  0  0  0  0  0
    1.4030    3.7690    0.0000 C   0  0  0  0  0  0  0  0  0  0  0  0
    2.4030    3.7690    0.0000 C   0  0  0  0  0  0  0  0  0  0  0  0
    1.4030    2.7690    0.0000 C   0  0  0  0  0  0  0  0  0  0  0  0
    1.4030    4.7690    0.0000 C   0  0  0  0  0  0  0  0  0  0  0  0
    2.2690    5.2690    0.0000 C   0  0  0  0  0  0  0  0  0  0  0  0
    0.5369    2.2690    0.0000 C   0  0  0  0  0  0  0  0  0  0  0  0
    0.5369    5.2690    0.0000 C   0  0  0  0  0  0  0  0  0  0  0  0
    2.2690    2.2690    0.0000 C   0  0  0  0  0  0  0  0  0  0  0  0
    2.2690    6.2690    0.0000 C   0  0  0  0  0  0  0  0  0  0  0  0
    0.5369    1.2690    0.0000 C   0  0  0  0  0  0  0  0  0  0  0  0
    0.5369    6.2690    0.0000 C   0  0  0  0  0  0  0  0  0  0  0  0
    2.2690    1.2690    0.0000 C   0  0  0  0  0  0  0  0  0  0  0  0
    1.4030    6.7690    0.0000 C   0  0  0  0  0  0  0  0  0  0  0  0
    1.4030    0.7690    0.0000 C   0  0  0  0  0  0  0  0  0  0  0  0
    5.4030    2.6569    0.0000 H   0  0  0  0  0  0  0  0  0  0  0  0
    3.8204    1.8249    0.0000 H   0  0  0  0  0  0  0  0  0  0  0  0
    4.5106    1.4264    0.0000 H   0  0  0  0  0  0  0  0  0  0  0  0
    6.9856    2.2490    0.0000 H   0  0  0  0  0  0  0  0  0  0  0  0
    6.2953    2.6475    0.0000 H   0  0  0  0  0  0  0  0  0  0  0  0
    5.6150    0.4543    0.0000 H   0  0  0  0  0  0  0  0  0  0  0  0
    6.0135    1.1446    0.0000 H   0  0  0  0  0  0  0  0  0  0  0  0
    4.4856    3.1150    0.0000 H   0  0  0  0  0  0  0  0  0  0  0  0
    3.7953    3.5135    0.0000 H   0  0  0  0  0  0  0  0  0  0  0  0
    4.2269    1.0739    0.0000 H   0  0  0  0  0  0  0  0  0  0  0  0
    6.3660    0.8609    0.0000 H   0  0  0  0  0  0  0  0  0  0  0  0
    7.2130    0.6340    0.0000 H   0  0  0  0  0  0  0  0  0  0  0  0
    7.4399    1.4809    0.0000 H   0  0  0  0  0  0  0  0  0  0  0  0
    4.0000    0.2269    0.0000 H   0  0  0  0  0  0  0  0  0  0  0  0
    4.8469    0.0000    0.0000 H   0  0  0  0  0  0  0  0  0  0  0  0
    0.0000    2.5790    0.0000 H   0  0  0  0  0  0  0  0  0  0  0  0
    2.8059    4.9590    0.0000 H   0  0  0  0  0  0  0  0  0  0  0  0
    2.8059    2.5790    0.0000 H   0  0  0  0  0  0  0  0  0  0  0  0
    0.0000    4.9590    0.0000 H   0  0  0  0  0  0  0  0  0  0  0  0
    2.8059    6.5790    0.0000 H   0  0  0  0  0  0  0  0  0  0  0  0
    0.0000    0.9590    0.0000 H   0  0  0  0  0  0  0  0  0  0  0  0
    0.0000    6.5790    0.0000 H   0  0  0  0  0  0  0  0  0  0  0  0
    2.8059    0.9590    0.0000 H   0  0  0  0  0  0  0  0  0  0  0  0
    1.4030    7.3890    0.0000 H   0  0  0  0  0  0  0  0  0  0  0  0
    1.4030    0.1490    0.0000 H   0  0  0  0  0  0  0  0  0  0  0  0
  1 12  1  0  0  0  0
  3  9  1  0  0  0  0
  3 13  1  0  0  0  0
  4 13  2  0  0  0  0
  5  6  1  0  0  0  0
  5  7  1  0  0  0  0
  5  8  1  0  0  0  0
  5 26  1  0  0  0  0
  6  9  1  0  0  0  0
  6 27  1  0  0  0  0
  6 28  1  0  0  0  0
  7 10  1  0  0  0  0
  7 29  1  0  0  0  0
  7 30  1  0  0  0  0
  8 11  1  0  0  0  0
  8 31  1  0  0  0  0
  8 32  1  0  0  0  0
  9 33  1  0  0  0  0
  9 34  1  0  0  0  0
 10 36  1  0  0  0  0
 10 37  1  0  0  0  0
 10 38  1  0  0  0  0
 11 35  1  0  0  0  0
 11 39  1  0  0  0  0
 11 40  1  0  0  0  0
 12 13  1  0  0  0  0
 12 14  1  0  0  0  0
 12 15  1  0  0  0  0
 14 17  2  0  0  0  0
 14 19  1  0  0  0  0
 15 16  2  0  0  0  0
 15 18  1  0  0  0  0
 16 20  1  0  0  0  0
 16 42  1  0  0  0  0
 17 21  1  0  0  0  0
 17 41  1  0  0  0  0
 18 22  2  0  0  0  0
 18 44  1  0  0  0  0
 19 23  2  0  0  0  0
 19 43  1  0  0  0  0
 20 24  2  0  0  0  0
 20 45  1  0  0  0  0
 21 25  2  0  0  0  0
 21 46  1  0  0  0  0
 22 24  1  0  0  0  0
 22 47  1  0  0  0  0
 23 25  1  0  0  0  0
 23 48  1  0  0  0  0
 24 49  1  0  0  0  0
 25 50  1  0  0  0  0
M  CHG  2   2  -1   5   1
M  END
> <PUBCHEM_COMPOUND_CID>
13482

> <PUBCHEM_COMPOUND_CANONICALIZED>
1

> <PUBCHEM_CACTVS_COMPLEXITY>
354

> <PUBCHEM_CACTVS_HBOND_ACCEPTOR>
3

> <PUBCHEM_CACTVS_HBOND_DONOR>
1

> <PUBCHEM_CACTVS_ROTATABLE_BOND>
9

> <PUBCHEM_CACTVS_SUBSKEYS>
AAADceB6MAAGAAAAAAAAAAAAAAAAAAAAAAAwYAAAAAAAAAABQAAAHgIQAAAADALhmAYyCIPABACIAiDSCAACAAAgAAAIiIEIA4hKIDKBFRCDIAAk0AGYiAeIyOCOgAAAAAAAAAAAAAAAAAAAAAAAAAAAAA==

> <PUBCHEM_IUPAC_OPENEYE_NAME>
2-(2-chloro-2,2-diphenyl-acetyl)oxyethyl-diethyl-ammonium chloride

> <PUBCHEM_IUPAC_CAS_NAME>
2-(2-chloro-1-oxo-2,2-diphenylethoxy)ethyl-diethylammonium chloride

> <PUBCHEM_IUPAC_NAME>
2-(2-chloro-2,2-diphenylacetyl)oxyethyl-diethylazanium chloride

> <PUBCHEM_IUPAC_SYSTEMATIC_NAME>
2-(2-chloranyl-2,2-diphenyl-ethanoyl)oxyethyl-diethyl-azanium chloride

> <PUBCHEM_IUPAC_TRADITIONAL_NAME>
2-(2-chloro-2,2-diphenyl-acetyl)oxyethyl-diethyl-ammonium chloride

> <PUBCHEM_IUPAC_INCHI>
InChI=1S/C20H24ClNO2.ClH/c1-3-22(4-2)15-16-24-19(23)20(21,17-11-7-5-8-12-17)18-13-9-6-10-14-18;/h5-14H,3-4,15-16H2,1-2H3;1H

> <PUBCHEM_IUPAC_INCHIKEY>
UFSBFMDTWVPCIA-UHFFFAOYSA-N

> <PUBCHEM_EXACT_MASS>
381.126234

> <PUBCHEM_MOLECULAR_FORMULA>
C20H25Cl2NO2

> <PUBCHEM_MOLECULAR_WEIGHT>
382.324

> <PUBCHEM_OPENEYE_CAN_SMILES>
CC[NH+](CC)CCOC(=O)C(C1=CC=CC=C1)(C2=CC=CC=C2)Cl.[Cl-]

> <PUBCHEM_OPENEYE_ISO_SMILES>
CC[NH+](CC)CCOC(=O)C(C1=CC=CC=C1)(C2=CC=CC=C2)Cl.[Cl-]

> <PUBCHEM_CACTVS_TPSA>
30.7

> <PUBCHEM_MONOISOTOPIC_WEIGHT>
381.126234

> <PUBCHEM_TOTAL_CHARGE>
0

> <PUBCHEM_HEAVY_ATOM_COUNT>
25

> <PUBCHEM_ATOM_DEF_STEREO_COUNT>
0

> <PUBCHEM_ATOM_UDEF_STEREO_COUNT>
0

> <PUBCHEM_BOND_DEF_STEREO_COUNT>
0

> <PUBCHEM_BOND_UDEF_STEREO_COUNT>
0

> <PUBCHEM_ISOTOPIC_ATOM_COUNT>
0

> <PUBCHEM_COMPONENT_COUNT>
2

> <PUBCHEM_CACTVS_TAUTO_COUNT>
1

> <PUBCHEM_COORDINATE_TYPE>
1
5
255

> <PUBCHEM_BONDANNOTATIONS>
14  17  8
14  19  8
15  16  8
15  18  8
16  20  8
17  21  8
18  22  8
19  23  8
20  24  8
21  25  8
22  24  8
23  25  8

$$$$

