242340
  -OEChem-07051213063D

 58 61  0     1  0  0  0  0  0999 V2000
    4.8920   -1.1340    0.6535 O   0  0  0  0  0  0  0  0  0  0  0  0
   -4.9708    0.6272   -0.0787 O   0  0  0  0  0  0  0  0  0  0  0  0
   -5.9035   -0.8062    1.4745 O   0  0  0  0  0  0  0  0  0  0  0  0
   -0.7774   -0.2425   -0.3524 C   0  0  2  0  0  0  0  0  0  0  0  0
    0.6896   -0.4488    0.1848 C   0  0  2  0  0  0  0  0  0  0  0  0
    1.6616    0.6876   -0.2703 C   0  0  2  0  0  0  0  0  0  0  0  0
   -1.2554    1.1652    0.1223 C   0  0  1  0  0  0  0  0  0  0  0  0
    3.0676    0.4569    0.3494 C   0  0  1  0  0  0  0  0  0  0  0  0
    3.6595   -0.9168   -0.0603 C   0  0  2  0  0  0  0  0  0  0  0  0
    1.0948    2.0724    0.0938 C   0  0  0  0  0  0  0  0  0  0  0  0
    1.2728   -1.8454   -0.1191 C   0  0  0  0  0  0  0  0  0  0  0  0
   -0.3404    2.2828   -0.3808 C   0  0  0  0  0  0  0  0  0  0  0  0
   -1.7408   -1.2988    0.2627 C   0  0  0  0  0  0  0  0  0  0  0  0
    2.6945   -2.0177    0.4149 C   0  0  0  0  0  0  0  0  0  0  0  0
   -2.7232    1.4487   -0.2216 C   0  0  0  0  0  0  0  0  0  0  0  0
   -0.8231   -0.3819   -1.8960 C   0  0  0  0  0  0  0  0  0  0  0  0
    4.0861    1.5767    0.0855 C   0  0  0  0  0  0  0  0  0  0  0  0
   -3.2173   -1.0277   -0.0342 C   0  0  0  0  0  0  0  0  0  0  0  0
   -3.6417    0.3812    0.3683 C   0  0  2  0  0  0  0  0  0  0  0  0
    3.9124   -1.0791   -1.5742 C   0  0  0  0  0  0  0  0  0  0  0  0
    5.4137    1.2493    0.7652 C   0  0  0  0  0  0  0  0  0  0  0  0
    5.9004   -0.1509    0.4268 C   0  0  0  0  0  0  0  0  0  0  0  0
   -5.9244   -0.2293    0.3956 C   0  0  0  0  0  0  0  0  0  0  0  0
   -7.0270   -0.3692   -0.6098 C   0  0  0  0  0  0  0  0  0  0  0  0
    0.6303   -0.3832    1.2829 H   0  0  0  0  0  0  0  0  0  0  0  0
    1.7636    0.6603   -1.3610 H   0  0  0  0  0  0  0  0  0  0  0  0
   -1.1921    1.1806    1.2217 H   0  0  0  0  0  0  0  0  0  0  0  0
    2.9370    0.4406    1.4434 H   0  0  0  0  0  0  0  0  0  0  0  0
    1.7112    2.8623   -0.3495 H   0  0  0  0  0  0  0  0  0  0  0  0
    1.1349    2.2104    1.1820 H   0  0  0  0  0  0  0  0  0  0  0  0
    1.2656   -2.0423   -1.1952 H   0  0  0  0  0  0  0  0  0  0  0  0
    0.6512   -2.6213    0.3407 H   0  0  0  0  0  0  0  0  0  0  0  0
   -0.6945    3.2509   -0.0053 H   0  0  0  0  0  0  0  0  0  0  0  0
   -0.3676    2.3488   -1.4744 H   0  0  0  0  0  0  0  0  0  0  0  0
   -1.6046   -1.3260    1.3519 H   0  0  0  0  0  0  0  0  0  0  0  0
   -1.5001   -2.3024   -0.1067 H   0  0  0  0  0  0  0  0  0  0  0  0
    2.6675   -2.0290    1.5133 H   0  0  0  0  0  0  0  0  0  0  0  0
    3.0792   -3.0057    0.1302 H   0  0  0  0  0  0  0  0  0  0  0  0
   -3.0207    2.4281    0.1755 H   0  0  0  0  0  0  0  0  0  0  0  0
   -2.8733    1.5257   -1.3051 H   0  0  0  0  0  0  0  0  0  0  0  0
   -0.1052    0.2700   -2.3997 H   0  0  0  0  0  0  0  0  0  0  0  0
   -0.6045   -1.4086   -2.2083 H   0  0  0  0  0  0  0  0  0  0  0  0
   -1.8067   -0.1390   -2.3076 H   0  0  0  0  0  0  0  0  0  0  0  0
    3.7305    2.5316    0.4866 H   0  0  0  0  0  0  0  0  0  0  0  0
    4.2361    1.7203   -0.9902 H   0  0  0  0  0  0  0  0  0  0  0  0
   -3.4290   -1.1921   -1.0981 H   0  0  0  0  0  0  0  0  0  0  0  0
   -3.8104   -1.7836    0.4926 H   0  0  0  0  0  0  0  0  0  0  0  0
   -3.6168    0.4758    1.4624 H   0  0  0  0  0  0  0  0  0  0  0  0
    4.5675   -0.3006   -1.9746 H   0  0  0  0  0  0  0  0  0  0  0  0
    4.4164   -2.0324   -1.7730 H   0  0  0  0  0  0  0  0  0  0  0  0
    2.9943   -1.0543   -2.1666 H   0  0  0  0  0  0  0  0  0  0  0  0
    6.1729    1.9910    0.4951 H   0  0  0  0  0  0  0  0  0  0  0  0
    5.2681    1.3166    1.8510 H   0  0  0  0  0  0  0  0  0  0  0  0
    6.2596   -0.2102   -0.6054 H   0  0  0  0  0  0  0  0  0  0  0  0
    6.7526   -0.4045    1.0663 H   0  0  0  0  0  0  0  0  0  0  0  0
   -6.6282   -0.7780   -1.5416 H   0  0  0  0  0  0  0  0  0  0  0  0
   -7.4949    0.6029   -0.7843 H   0  0  0  0  0  0  0  0  0  0  0  0
   -7.7849   -1.0568   -0.2237 H   0  0  0  0  0  0  0  0  0  0  0  0
  1  9  1  0  0  0  0
  1 22  1  0  0  0  0
  2 19  1  0  0  0  0
  2 23  1  0  0  0  0
  3 23  2  0  0  0  0
  4  5  1  0  0  0  0
  4  7  1  0  0  0  0
  4 13  1  0  0  0  0
  4 16  1  0  0  0  0
  5  6  1  0  0  0  0
  5 11  1  0  0  0  0
  5 25  1  0  0  0  0
  6  8  1  0  0  0  0
  6 10  1  0  0  0  0
  6 26  1  0  0  0  0
  7 12  1  0  0  0  0
  7 15  1  0  0  0  0
  7 27  1  0  0  0  0
  8  9  1  0  0  0  0
  8 17  1  0  0  0  0
  8 28  1  0  0  0  0
  9 14  1  0  0  0  0
  9 20  1  0  0  0  0
 10 12  1  0  0  0  0
 10 29  1  0  0  0  0
 10 30  1  0  0  0  0
 11 14  1  0  0  0  0
 11 31  1  0  0  0  0
 11 32  1  0  0  0  0
 12 33  1  0  0  0  0
 12 34  1  0  0  0  0
 13 18  1  0  0  0  0
 13 35  1  0  0  0  0
 13 36  1  0  0  0  0
 14 37  1  0  0  0  0
 14 38  1  0  0  0  0
 15 19  1  0  0  0  0
 15 39  1  0  0  0  0
 15 40  1  0  0  0  0
 16 41  1  0  0  0  0
 16 42  1  0  0  0  0
 16 43  1  0  0  0  0
 17 21  1  0  0  0  0
 17 44  1  0  0  0  0
 17 45  1  0  0  0  0
 18 19  1  0  0  0  0
 18 46  1  0  0  0  0
 18 47  1  0  0  0  0
 19 48  1  0  0  0  0
 20 49  1  0  0  0  0
 20 50  1  0  0  0  0
 20 51  1  0  0  0  0
 21 22  1  0  0  0  0
 21 52  1  0  0  0  0
 21 53  1  0  0  0  0
 22 54  1  0  0  0  0
 22 55  1  0  0  0  0
 23 24  1  0  0  0  0
 24 56  1  0  0  0  0
 24 57  1  0  0  0  0
 24 58  1  0  0  0  0
M  END
> <PUBCHEM_COMPOUND_CID>
242340

> <PUBCHEM_CONFORMER_RMSD>
0.8

> <PUBCHEM_CONFORMER_DIVERSEORDER>
1
2
3
4

> <PUBCHEM_MMFF94_PARTIAL_CHARGES>
8
1 -0.56
19 0.28
2 -0.43
22 0.28
23 0.66
24 0.06
3 -0.57
9 0.28

> <PUBCHEM_EFFECTIVE_ROTOR_COUNT>
4.4

> <PUBCHEM_PHARMACOPHORE_FEATURES>
6
1 1 acceptor
1 3 acceptor
6 1 8 9 17 21 22 rings
6 4 5 6 7 10 12 rings
6 4 7 13 15 18 19 rings
6 5 6 8 9 11 14 rings

> <PUBCHEM_HEAVY_ATOM_COUNT>
24

> <PUBCHEM_ATOM_DEF_STEREO_COUNT>
7

> <PUBCHEM_ATOM_UDEF_STEREO_COUNT>
0

> <PUBCHEM_BOND_DEF_STEREO_COUNT>
0

> <PUBCHEM_BOND_UDEF_STEREO_COUNT>
0

> <PUBCHEM_ISOTOPIC_ATOM_COUNT>
0

> <PUBCHEM_COMPONENT_COUNT>
1

> <PUBCHEM_CACTVS_TAUTO_COUNT>
1

> <PUBCHEM_CONFORMER_ID>
0003B2A400000001

> <PUBCHEM_MMFF94_ENERGY>
73.642

> <PUBCHEM_FEATURE_SELFOVERLAP>
30.494

> <PUBCHEM_SHAPE_FINGERPRINT>
10 15 18271534104912797472
10688039 33 18060421338932967748
10906281 52 18339624681702015987
11578080 2 16914834779510464540
11796584 16 16773795883773327347
11963148 33 18201723929047291091
12011746 2 18413106173737198911
12107183 9 17614840042877046859
12236239 1 17821446867886941923
12516196 113 18335139782726333737
12596602 18 17603580846546080011
12838862 33 18338817636220667624
13140716 1 18194683661614928816
13402501 40 18341894082318067275
13533116 47 14779538032773034190
13685833 64 18343579634250011873
13862211 1 18411702093214991255
14170010 4 18411982434320426753
14251764 18 18113900429751892455
14341114 176 18410004434250072931
14787075 74 18411983554837204417
15196674 1 18339080496487318529
15927050 60 17615404762652860348
17492 89 18052826033400209706
1813 80 17203605999413825596
18785283 64 18058160618514419645
19141452 34 18113902623979410927
19489759 90 16774080691882100741
200 152 18187368744373912385
20028762 73 18113621162595023495
21033648 29 17386584568640453417
21236236 1 18338518642573802217
21267235 1 18410568518117155658
21279426 13 18269278044174783501
21623969 137 18411416207027312411
21792934 111 18339375165714358673
22224240 67 18262526901141198616
23402539 116 18335710415975392535
23559900 14 18271528585774229273
23622692 88 18334857195305471439
239999 70 18334570261789428318
26918003 58 17989485212822342011
3004659 81 18060418023623902996
335352 9 18410293593340020662
34797466 226 16298382423068426264
34934 24 18261959552872188638
350125 39 18411700976059653932
3545911 37 18410575080378661138
4073 2 18059852809816808267
42630746 31 18335420162549466454
4340502 62 18341894082460673842
465052 167 18408878534348700007
5104073 3 18267586981915791112
5283173 99 17845663684725251149
542803 24 16950281814946388675
7495541 125 16702012041875633949

> <PUBCHEM_SHAPE_MULTIPOLES>
476.3
14.14
2
1.04
12.33
0.39
0.31
-1.47
-2.67
-1.29
-0.01
0.07
-0.23
0.5

> <PUBCHEM_SHAPE_SELFOVERLAP>
998.733

> <PUBCHEM_SHAPE_VOLUME>
264.4

> <PUBCHEM_COORDINATE_TYPE>
2
5
10

$$$$

