17395286
  -OEChem-06241222492D

 39 40  0     0  0  0  0  0  0999 V2000
    7.4128    3.2252    0.0000 S   0  0  0  0  0  0  0  0  0  0  0  0
    5.4641    0.5228    0.0000 O   0  0  0  0  0  0  0  0  0  0  0  0
    2.8660   -0.9772    0.0000 O   0  0  0  0  0  0  0  0  0  0  0  0
    2.8660   -2.9772    0.0000 O   0  0  0  0  0  0  0  0  0  0  0  0
    3.7320    0.5228    0.0000 O   0  0  0  0  0  0  0  0  0  0  0  0
    9.0884    3.9772    0.0000 O   0  0  0  0  0  0  0  0  0  0  0  0
    7.2437    1.6160    0.0000 N   0  0  0  0  0  0  0  0  0  0  0  0
    8.9073    2.2547    0.0000 N   0  0  0  0  0  0  0  0  0  0  0  0
    4.5981   -0.9772    0.0000 C   0  0  0  0  0  0  0  0  0  0  0  0
    3.7320   -1.4772    0.0000 C   0  0  0  0  0  0  0  0  0  0  0  0
    3.7320   -2.4772    0.0000 C   0  0  0  0  0  0  0  0  0  0  0  0
    5.4641    1.5228    0.0000 C   0  0  0  0  0  0  0  0  0  0  0  0
    5.4641   -1.4772    0.0000 C   0  0  0  0  0  0  0  0  0  0  0  0
    6.3301    2.0228    0.0000 C   0  0  0  0  0  0  0  0  0  0  0  0
    4.5981    0.0228    0.0000 C   0  0  0  0  0  0  0  0  0  0  0  0
    4.5981   -2.9772    0.0000 C   0  0  0  0  0  0  0  0  0  0  0  0
    5.4641   -2.4772    0.0000 C   0  0  0  0  0  0  0  0  0  0  0  0
    6.4347    3.0173    0.0000 C   0  0  0  0  0  0  0  0  0  0  0  0
    7.9128    2.3592    0.0000 C   0  0  0  0  0  0  0  0  0  0  0  0
    2.0000   -1.4772    0.0000 C   0  0  0  0  0  0  0  0  0  0  0  0
    2.8660   -3.9772    0.0000 C   0  0  0  0  0  0  0  0  0  0  0  0
    9.4951    3.0637    0.0000 C   0  0  0  0  0  0  0  0  0  0  0  0
   10.4896    2.9592    0.0000 C   0  0  0  0  0  0  0  0  0  0  0  0
    5.2520    2.1054    0.0000 H   0  0  0  0  0  0  0  0  0  0  0  0
    4.8535    1.4151    0.0000 H   0  0  0  0  0  0  0  0  0  0  0  0
    6.0010   -1.1672    0.0000 H   0  0  0  0  0  0  0  0  0  0  0  0
    4.5981   -3.5972    0.0000 H   0  0  0  0  0  0  0  0  0  0  0  0
    6.0010   -2.7872    0.0000 H   0  0  0  0  0  0  0  0  0  0  0  0
    5.9739    3.4322    0.0000 H   0  0  0  0  0  0  0  0  0  0  0  0
    9.1595    1.6883    0.0000 H   0  0  0  0  0  0  0  0  0  0  0  0
    1.6900   -0.9403    0.0000 H   0  0  0  0  0  0  0  0  0  0  0  0
    1.4631   -1.7872    0.0000 H   0  0  0  0  0  0  0  0  0  0  0  0
    2.3100   -2.0142    0.0000 H   0  0  0  0  0  0  0  0  0  0  0  0
    2.2460   -3.9772    0.0000 H   0  0  0  0  0  0  0  0  0  0  0  0
    2.8660   -4.5972    0.0000 H   0  0  0  0  0  0  0  0  0  0  0  0
    3.4860   -3.9772    0.0000 H   0  0  0  0  0  0  0  0  0  0  0  0
   10.4248    2.3425    0.0000 H   0  0  0  0  0  0  0  0  0  0  0  0
   11.1062    2.8943    0.0000 H   0  0  0  0  0  0  0  0  0  0  0  0
   10.5544    3.5758    0.0000 H   0  0  0  0  0  0  0  0  0  0  0  0
  1 18  1  0  0  0  0
  1 19  1  0  0  0  0
  2 12  1  0  0  0  0
  2 15  1  0  0  0  0
  3 10  1  0  0  0  0
  3 20  1  0  0  0  0
  4 11  1  0  0  0  0
  4 21  1  0  0  0  0
  5 15  2  0  0  0  0
  6 22  2  0  0  0  0
  7 14  1  0  0  0  0
  7 19  2  0  0  0  0
  8 19  1  0  0  0  0
  8 22  1  0  0  0  0
  8 30  1  0  0  0  0
  9 10  2  0  0  0  0
  9 13  1  0  0  0  0
  9 15  1  0  0  0  0
 10 11  1  0  0  0  0
 11 16  2  0  0  0  0
 12 14  1  0  0  0  0
 12 24  1  0  0  0  0
 12 25  1  0  0  0  0
 13 17  2  0  0  0  0
 13 26  1  0  0  0  0
 14 18  2  0  0  0  0
 16 17  1  0  0  0  0
 16 27  1  0  0  0  0
 17 28  1  0  0  0  0
 18 29  1  0  0  0  0
 20 31  1  0  0  0  0
 20 32  1  0  0  0  0
 20 33  1  0  0  0  0
 21 34  1  0  0  0  0
 21 35  1  0  0  0  0
 21 36  1  0  0  0  0
 22 23  1  0  0  0  0
 23 37  1  0  0  0  0
 23 38  1  0  0  0  0
 23 39  1  0  0  0  0
M  END
> <PUBCHEM_COMPOUND_CID>
17395286

> <PUBCHEM_COMPOUND_CANONICALIZED>
1

> <PUBCHEM_CACTVS_COMPLEXITY>
423

> <PUBCHEM_CACTVS_HBOND_ACCEPTOR>
7

> <PUBCHEM_CACTVS_HBOND_DONOR>
1

> <PUBCHEM_CACTVS_ROTATABLE_BOND>
7

> <PUBCHEM_CACTVS_SUBSKEYS>
AAADceBzOABAAAAAAAAAAAAAAAAAAWAAAAAwAAAAAAAAAAABwAAAHgQQAAAADAyl3gKzn5LIFAisAyXyfAQC+KllKjkJiBUWqMiPJzakPRqDMWIt8RMaqafKyDCOAAABAAAIQAAAAAIAABCAAAAAAAAAAA==

> <PUBCHEM_IUPAC_OPENEYE_NAME>
(2-acetamidothiazol-4-yl)methyl 2,3-dimethoxybenzoate

> <PUBCHEM_IUPAC_CAS_NAME>
2,3-dimethoxybenzoic acid (2-acetamido-4-thiazolyl)methyl ester

> <PUBCHEM_IUPAC_NAME>
(2-acetamido-1,3-thiazol-4-yl)methyl 2,3-dimethoxybenzoate

> <PUBCHEM_IUPAC_SYSTEMATIC_NAME>
(2-acetamido-1,3-thiazol-4-yl)methyl 2,3-dimethoxybenzoate

> <PUBCHEM_IUPAC_TRADITIONAL_NAME>
2,3-dimethoxybenzoic acid (2-acetamidothiazol-4-yl)methyl ester

> <PUBCHEM_IUPAC_INCHI>
InChI=1S/C15H16N2O5S/c1-9(18)16-15-17-10(8-23-15)7-22-14(19)11-5-4-6-12(20-2)13(11)21-3/h4-6,8H,7H2,1-3H3,(H,16,17,18)

> <PUBCHEM_IUPAC_INCHIKEY>
SAXOCRZJHGNLPV-UHFFFAOYSA-N

> <PUBCHEM_XLOGP3_AA>
1.8

> <PUBCHEM_EXACT_MASS>
336.077993

> <PUBCHEM_MOLECULAR_FORMULA>
C15H16N2O5S

> <PUBCHEM_MOLECULAR_WEIGHT>
336.36294

> <PUBCHEM_OPENEYE_CAN_SMILES>
CC(=O)NC1=NC(=CS1)COC(=O)C2=C(C(=CC=C2)OC)OC

> <PUBCHEM_OPENEYE_ISO_SMILES>
CC(=O)NC1=NC(=CS1)COC(=O)C2=C(C(=CC=C2)OC)OC

> <PUBCHEM_CACTVS_TPSA>
115

> <PUBCHEM_MONOISOTOPIC_WEIGHT>
336.077993

> <PUBCHEM_TOTAL_CHARGE>
0

> <PUBCHEM_HEAVY_ATOM_COUNT>
23

> <PUBCHEM_ATOM_DEF_STEREO_COUNT>
0

> <PUBCHEM_ATOM_UDEF_STEREO_COUNT>
0

> <PUBCHEM_BOND_DEF_STEREO_COUNT>
0

> <PUBCHEM_BOND_UDEF_STEREO_COUNT>
0

> <PUBCHEM_ISOTOPIC_ATOM_COUNT>
0

> <PUBCHEM_COMPONENT_COUNT>
1

> <PUBCHEM_CACTVS_TAUTO_COUNT>
5

> <PUBCHEM_COORDINATE_TYPE>
1
5
255

> <PUBCHEM_BONDANNOTATIONS>
1  18  8
1  19  8
10  11  8
11  16  8
13  17  8
14  18  8
16  17  8
7  14  8
7  19  8
9  10  8
9  13  8

$$$$

