18985
  -OEChem-07051213093D

 24 25  0     0  0  0  0  0  0999 V2000
   -1.3504   -1.1489    0.2581 N   0  0  0  0  0  0  0  0  0  0  0  0
    2.7988    1.1861    0.3737 N   0  0  0  0  0  0  0  0  0  0  0  0
   -2.9420    1.0652   -0.6058 C   0  0  0  0  0  0  0  0  0  0  0  0
   -3.5121    0.0857    0.3992 C   0  0  0  0  0  0  0  0  0  0  0  0
   -1.4639    1.2580   -0.3245 C   0  0  0  0  0  0  0  0  0  0  0  0
   -2.8068   -1.2487    0.2428 C   0  0  0  0  0  0  0  0  0  0  0  0
   -0.7429   -0.0467   -0.0190 C   0  0  0  0  0  0  0  0  0  0  0  0
    0.7550   -0.0334   -0.0093 C   0  0  0  0  0  0  0  0  0  0  0  0
    1.4758   -1.1661   -0.3547 C   0  0  0  0  0  0  0  0  0  0  0  0
    1.4496    1.1072    0.3440 C   0  0  0  0  0  0  0  0  0  0  0  0
    2.8655   -1.1240   -0.3363 C   0  0  0  0  0  0  0  0  0  0  0  0
    3.4734    0.0655    0.0317 C   0  0  0  0  0  0  0  0  0  0  0  0
   -3.4647    2.0260   -0.5465 H   0  0  0  0  0  0  0  0  0  0  0  0
   -3.0826    0.6809   -1.6234 H   0  0  0  0  0  0  0  0  0  0  0  0
   -3.3743    0.4688    1.4177 H   0  0  0  0  0  0  0  0  0  0  0  0
   -4.5886   -0.0400    0.2411 H   0  0  0  0  0  0  0  0  0  0  0  0
   -1.3567    1.9069    0.5534 H   0  0  0  0  0  0  0  0  0  0  0  0
   -0.9847    1.7575   -1.1734 H   0  0  0  0  0  0  0  0  0  0  0  0
   -3.1199   -1.9139    1.0551 H   0  0  0  0  0  0  0  0  0  0  0  0
   -3.1132   -1.7293   -0.6938 H   0  0  0  0  0  0  0  0  0  0  0  0
    0.9799   -2.0874   -0.6468 H   0  0  0  0  0  0  0  0  0  0  0  0
    0.9521    2.0258    0.6351 H   0  0  0  0  0  0  0  0  0  0  0  0
    3.4543   -1.9941   -0.6031 H   0  0  0  0  0  0  0  0  0  0  0  0
    4.5547    0.1505    0.0615 H   0  0  0  0  0  0  0  0  0  0  0  0
  1  6  1  0  0  0  0
  1  7  2  0  0  0  0
  2 10  1  0  0  0  0
  2 12  2  0  0  0  0
  3  4  1  0  0  0  0
  3  5  1  0  0  0  0
  3 13  1  0  0  0  0
  3 14  1  0  0  0  0
  4  6  1  0  0  0  0
  4 15  1  0  0  0  0
  4 16  1  0  0  0  0
  5  7  1  0  0  0  0
  5 17  1  0  0  0  0
  5 18  1  0  0  0  0
  6 19  1  0  0  0  0
  6 20  1  0  0  0  0
  7  8  1  0  0  0  0
  8  9  1  0  0  0  0
  8 10  2  0  0  0  0
  9 11  2  0  0  0  0
  9 21  1  0  0  0  0
 10 22  1  0  0  0  0
 11 12  1  0  0  0  0
 11 23  1  0  0  0  0
 12 24  1  0  0  0  0
M  END
> <PUBCHEM_COMPOUND_CID>
18985

> <PUBCHEM_CONFORMER_RMSD>
0.4

> <PUBCHEM_CONFORMER_DIVERSEORDER>
1
4
5
8
6
9
2
3
10
7

> <PUBCHEM_MMFF94_PARTIAL_CHARGES>
14
1 -0.7
10 0.16
11 -0.15
12 0.16
2 -0.62
21 0.15
22 0.15
23 0.15
24 0.15
5 0.06
6 0.25
7 0.3
8 0.09
9 -0.15

> <PUBCHEM_EFFECTIVE_ROTOR_COUNT>
1.8

> <PUBCHEM_PHARMACOPHORE_FEATURES>
4
1 1 acceptor
1 2 acceptor
6 1 3 4 5 6 7 rings
6 2 8 9 10 11 12 rings

> <PUBCHEM_HEAVY_ATOM_COUNT>
12

> <PUBCHEM_ATOM_DEF_STEREO_COUNT>
0

> <PUBCHEM_ATOM_UDEF_STEREO_COUNT>
0

> <PUBCHEM_BOND_DEF_STEREO_COUNT>
0

> <PUBCHEM_BOND_UDEF_STEREO_COUNT>
0

> <PUBCHEM_ISOTOPIC_ATOM_COUNT>
0

> <PUBCHEM_COMPONENT_COUNT>
1

> <PUBCHEM_CACTVS_TAUTO_COUNT>
1

> <PUBCHEM_CONFORMER_ID>
00004A2900000001

> <PUBCHEM_MMFF94_ENERGY>
30.7732

> <PUBCHEM_FEATURE_SELFOVERLAP>
20.297

> <PUBCHEM_SHAPE_FINGERPRINT>
10219947 1 17386005100305991190
10608611 8 18410860961997546973
11471102 20 18333734636614243884
12032990 46 18411131450431739415
124424 183 18341901839213678346
12932764 1 17989209282331808227
13296908 3 18410853265431729935
14144814 61 18409448119614903083
14325111 11 18410856563971790573
15219456 202 18409167714079793676
15775835 57 17967533424255272804
16945 1 18337391663748583150
17844478 74 18343012298808095921
18175812 5 18410012130446345637
18186145 218 18335698394393351885
19973954 147 18410572894261770276
200 152 17749400256249123671
20201158 50 18335420200734927030
20279233 1 18411140246635531463
20528008 55 18410296904343015757
20645464 45 18409164428867681687
20645477 70 18187931745424135439
20871998 184 18263357010887758847
21501502 16 18410293575326649415
23402539 116 18271538536516803607
23402655 69 18260838145533137173
23552423 10 18202280281971993167
23559900 14 18339083821535862538
2748010 2 18410575076078432246
3248919 1 17095518517493268711
6333449 129 18412547613229778583
69090 78 18335144189536976175
8809292 202 18342450443802543762

> <PUBCHEM_SHAPE_MULTIPOLES>
236.99
6.16
1.49
0.71
0.18
0.03
-0.02
0.02
0.13
0.08
-0.02
0.09
-0.03
0.59

> <PUBCHEM_SHAPE_SELFOVERLAP>
497.645

> <PUBCHEM_SHAPE_VOLUME>
129

> <PUBCHEM_COORDINATE_TYPE>
2
5
10

$$$$

