14335
  -OEChem-06241222433D

 27 28  0     1  0  0  0  0  0999 V2000
   -0.9890   -2.7704    0.3624 O   0  0  0  0  0  0  0  0  0  0  0  0
   -1.3620   -0.7505   -0.0261 N   0  0  0  0  0  0  0  0  0  0  0  0
   -0.9221   -1.8958   -0.5069 N   0  0  0  0  0  0  0  0  0  0  0  0
    3.1745    0.2352   -1.0253 N   0  0  0  0  0  0  0  0  0  0  0  0
   -0.5725    0.4277   -0.4699 C   0  0  1  0  0  0  0  0  0  0  0  0
   -1.0855    1.7341    0.1773 C   0  0  0  0  0  0  0  0  0  0  0  0
   -2.5787    1.9295   -0.0453 C   0  0  0  0  0  0  0  0  0  0  0  0
   -3.3363    0.7042    0.4399 C   0  0  0  0  0  0  0  0  0  0  0  0
   -2.8101   -0.5651   -0.2273 C   0  0  0  0  0  0  0  0  0  0  0  0
    0.9245    0.3061   -0.1820 C   0  0  0  0  0  0  0  0  0  0  0  0
    1.3786    0.1609    1.1155 C   0  0  0  0  0  0  0  0  0  0  0  0
    1.8394    0.3384   -1.2111 C   0  0  0  0  0  0  0  0  0  0  0  0
    2.7454    0.0517    1.3468 C   0  0  0  0  0  0  0  0  0  0  0  0
    3.5938    0.0941    0.2521 C   0  0  0  0  0  0  0  0  0  0  0  0
   -0.7035    0.5341   -1.5582 H   0  0  0  0  0  0  0  0  0  0  0  0
   -0.5451    2.5953   -0.2362 H   0  0  0  0  0  0  0  0  0  0  0  0
   -0.8951    1.7389    1.2585 H   0  0  0  0  0  0  0  0  0  0  0  0
   -2.7771    2.0932   -1.1115 H   0  0  0  0  0  0  0  0  0  0  0  0
   -2.9245    2.8213    0.4888 H   0  0  0  0  0  0  0  0  0  0  0  0
   -3.2398    0.6162    1.5294 H   0  0  0  0  0  0  0  0  0  0  0  0
   -4.4040    0.8200    0.2216 H   0  0  0  0  0  0  0  0  0  0  0  0
   -3.3633   -1.4155    0.1937 H   0  0  0  0  0  0  0  0  0  0  0  0
   -3.0452   -0.5320   -1.3006 H   0  0  0  0  0  0  0  0  0  0  0  0
    0.6945    0.1219    1.9578 H   0  0  0  0  0  0  0  0  0  0  0  0
    1.5348    0.4502   -2.2465 H   0  0  0  0  0  0  0  0  0  0  0  0
    3.1342   -0.0651    2.3519 H   0  0  0  0  0  0  0  0  0  0  0  0
    4.6684    0.0123    0.3789 H   0  0  0  0  0  0  0  0  0  0  0  0
  1  3  2  0  0  0  0
  2  3  1  0  0  0  0
  2  5  1  0  0  0  0
  2  9  1  0  0  0  0
  4 12  1  0  0  0  0
  4 14  2  0  0  0  0
  5  6  1  0  0  0  0
  5 10  1  0  0  0  0
  5 15  1  0  0  0  0
  6  7  1  0  0  0  0
  6 16  1  0  0  0  0
  6 17  1  0  0  0  0
  7  8  1  0  0  0  0
  7 18  1  0  0  0  0
  7 19  1  0  0  0  0
  8  9  1  0  0  0  0
  8 20  1  0  0  0  0
  8 21  1  0  0  0  0
  9 22  1  0  0  0  0
  9 23  1  0  0  0  0
 10 11  1  0  0  0  0
 10 12  2  0  0  0  0
 11 13  2  0  0  0  0
 11 24  1  0  0  0  0
 12 25  1  0  0  0  0
 13 14  1  0  0  0  0
 13 26  1  0  0  0  0
 14 27  1  0  0  0  0
M  END
> <PUBCHEM_COMPOUND_CID>
14335

> <PUBCHEM_CONFORMER_RMSD>
0.6

> <PUBCHEM_CONFORMER_DIVERSEORDER>
1
8
43
36
33
14
6
2
16
37
19
26
22
44
35
42
9
18
32
21
11
7
40
24
29
23
3
41
17
12
34
10
27
5
13
39
46
20
15
4
30
31
38
25
28
45

> <PUBCHEM_MMFF94_PARTIAL_CHARGES>
15
1 -0.16
10 -0.14
11 -0.15
12 0.16
13 -0.15
14 0.16
2 -0.36
24 0.15
25 0.15
26 0.15
27 0.15
3 -0.01
4 -0.62
5 0.41
9 0.27

> <PUBCHEM_EFFECTIVE_ROTOR_COUNT>
3.2

> <PUBCHEM_PHARMACOPHORE_FEATURES>
3
1 4 acceptor
6 2 5 6 7 8 9 rings
6 4 10 11 12 13 14 rings

> <PUBCHEM_HEAVY_ATOM_COUNT>
14

> <PUBCHEM_ATOM_DEF_STEREO_COUNT>
0

> <PUBCHEM_ATOM_UDEF_STEREO_COUNT>
1

> <PUBCHEM_BOND_DEF_STEREO_COUNT>
0

> <PUBCHEM_BOND_UDEF_STEREO_COUNT>
0

> <PUBCHEM_ISOTOPIC_ATOM_COUNT>
0

> <PUBCHEM_COMPONENT_COUNT>
1

> <PUBCHEM_CACTVS_TAUTO_COUNT>
1

> <PUBCHEM_CONFORMER_ID>
000037FF00000001

> <PUBCHEM_MMFF94_ENERGY>
29.4461

> <PUBCHEM_FEATURE_SELFOVERLAP>
15.223

> <PUBCHEM_SHAPE_FINGERPRINT>
124424 183 17531251694737358848
12500047 106 18335426781104690502
12716758 59 18334292089093818362
13538477 17 18130507431317558614
13581323 91 18410860962049943728
14144814 61 18343866623352982512
14993402 34 18273214201017587341
15219456 202 17385447613545877384
15279307 12 18131635586399074442
15309172 13 18340198687207316441
15669948 3 18340204085849208806
15775835 57 18336548321366630849
16752209 62 18341344335500256599
16945 1 18411420587661676701
18186145 218 17677046961743982169
19049666 15 17677321852746506260
19422 9 17847057791947826882
20201158 50 17240481429181735524
20510252 161 18261108590965311913
20645464 45 17894639153276443505
20645476 183 18060131033650682503
20871998 184 18188487961063937231
23402539 116 18261968400294010461
23419403 2 8129067459951277801
23557571 272 18116988893500719040
23559900 14 18186798119799106646
2748010 2 18194392523341331119
276578 36 18265046014975981129
305870 269 18195813092222083571
43471831 8 18341053029296439403
465052 167 17844507956549781467
53812653 8 18343860022067311381
69090 78 17240773873763305455
7364860 26 17756427428125096527
74978 22 18341897329313420836
77492 1 17846780710754516196
81228 2 18263935328075532739

> <PUBCHEM_SHAPE_MULTIPOLES>
267.3
5.54
1.86
1.07
1.36
1.09
-0.05
-1.17
-0.38
-1.68
-0.07
0.83
-0.07
-0.15

> <PUBCHEM_SHAPE_SELFOVERLAP>
557.353

> <PUBCHEM_SHAPE_VOLUME>
149.9

> <PUBCHEM_COORDINATE_TYPE>
2
5
10

$$$$

