5281569
  -OEChem-07051212583D

 17 17  0     0  0  0  0  0  0999 V2000
    2.0162    0.2785    0.0318 O   0  0  0  0  0  0  0  0  0  0  0  0
   -1.5473   -1.7110   -0.1717 O   0  0  0  0  0  0  0  0  0  0  0  0
    1.0172    2.2881   -0.2549 O   0  0  0  0  0  0  0  0  0  0  0  0
   -2.7728    0.6275    0.2168 N   0  0  0  0  0  0  0  0  0  0  0  0
    0.8379   -1.8314   -0.2667 C   0  0  0  0  0  0  0  0  0  0  0  0
    1.8836   -1.0713    0.5212 C   0  0  0  0  0  0  0  0  0  0  0  0
   -0.4760   -1.1133   -0.1314 C   0  0  0  0  0  0  0  0  0  0  0  0
   -0.3793    0.3688   -0.0114 C   0  0  0  0  0  0  0  0  0  0  0  0
    0.9208    1.0792   -0.0805 C   0  0  0  0  0  0  0  0  0  0  0  0
   -1.5004    1.0847    0.1469 C   0  0  0  0  0  0  0  0  0  0  0  0
    0.7383   -2.8481    0.1249 H   0  0  0  0  0  0  0  0  0  0  0  0
    1.0920   -1.8718   -1.3311 H   0  0  0  0  0  0  0  0  0  0  0  0
    1.6468   -1.0293    1.5909 H   0  0  0  0  0  0  0  0  0  0  0  0
    2.8600   -1.5538    0.4129 H   0  0  0  0  0  0  0  0  0  0  0  0
   -1.4737    2.1657    0.2361 H   0  0  0  0  0  0  0  0  0  0  0  0
   -3.5321    1.2861    0.3384 H   0  0  0  0  0  0  0  0  0  0  0  0
   -2.9743   -0.3615    0.1515 H   0  0  0  0  0  0  0  0  0  0  0  0
  1  6  1  0  0  0  0
  1  9  1  0  0  0  0
  2  7  2  0  0  0  0
  3  9  2  0  0  0  0
  4 10  1  0  0  0  0
  4 16  1  0  0  0  0
  4 17  1  0  0  0  0
  5  6  1  0  0  0  0
  5  7  1  0  0  0  0
  5 11  1  0  0  0  0
  5 12  1  0  0  0  0
  6 13  1  0  0  0  0
  6 14  1  0  0  0  0
  7  8  1  0  0  0  0
  8  9  1  0  0  0  0
  8 10  2  0  0  0  0
 10 15  1  0  0  0  0
M  END
> <PUBCHEM_COMPOUND_CID>
5281569

> <PUBCHEM_CONFORMER_RMSD>
0.4

> <PUBCHEM_CONFORMER_DIVERSEORDER>
1
2

> <PUBCHEM_MMFF94_PARTIAL_CHARGES>
13
1 -0.43
10 -0.05
15 0.15
16 0.4
17 0.4
2 -0.57
3 -0.57
4 -0.9
5 0.06
6 0.28
7 0.49
8 0.03
9 0.71

> <PUBCHEM_EFFECTIVE_ROTOR_COUNT>
0.6

> <PUBCHEM_PHARMACOPHORE_FEATURES>
6
1 2 acceptor
1 3 acceptor
1 4 cation
1 4 donor
1 8 anion
6 1 5 6 7 8 9 rings

> <PUBCHEM_HEAVY_ATOM_COUNT>
10

> <PUBCHEM_ATOM_DEF_STEREO_COUNT>
0

> <PUBCHEM_ATOM_UDEF_STEREO_COUNT>
0

> <PUBCHEM_BOND_DEF_STEREO_COUNT>
1

> <PUBCHEM_BOND_UDEF_STEREO_COUNT>
0

> <PUBCHEM_ISOTOPIC_ATOM_COUNT>
0

> <PUBCHEM_COMPONENT_COUNT>
1

> <PUBCHEM_CACTVS_TAUTO_COUNT>
7

> <PUBCHEM_CONFORMER_ID>
0050972100000001

> <PUBCHEM_MMFF94_ENERGY>
24.2075

> <PUBCHEM_FEATURE_SELFOVERLAP>
30.446

> <PUBCHEM_SHAPE_FINGERPRINT>
12423570 1 16405376779782013918
16945 1 18410294739304971629
18185500 45 18411422825492716178
193761 8 18266740177705651598
21040471 1 18336546117858354192
23552423 10 18197781007302784831
241688 4 17616807073305241410
2748010 2 18266458694044021972
29004967 10 18125154085306093649
5084963 1 17537729067506886114
66348 1 18194966231786934455

> <PUBCHEM_SHAPE_MULTIPOLES>
183.21
2.73
2.16
0.63
1.02
0.3
-0.02
-0.18
-0.38
-0.31
0.27
-0.07
-0.03
-0.09

> <PUBCHEM_SHAPE_SELFOVERLAP>
377.483

> <PUBCHEM_SHAPE_VOLUME>
103.7

> <PUBCHEM_COORDINATE_TYPE>
2
5
10

$$$$

