46173863
  -OEChem-07051213092D

 36 38  0     1  0  0  0  0  0999 V2000
    2.8658    1.1424    0.0000 O   0  0  0  0  0  0  0  0  0  0  0  0
    3.7321   -0.3581    0.0000 O   0  0  0  0  0  0  0  0  0  0  0  0
    7.0671    0.8090    0.0000 O   0  0  0  0  0  0  0  0  0  0  0  0
    2.8660    0.1419    0.0000 C   0  0  3  0  0  0  0  0  0  0  0  0
    3.7320    0.6419    0.0000 C   0  0  1  0  0  0  0  0  0  0  0  0
    2.8660   -0.8581    0.0000 C   0  0  0  0  0  0  0  0  0  0  0  0
    2.0000   -0.3581    0.0000 C   0  0  0  0  0  0  0  0  0  0  0  0
    4.5981    0.1419    0.0000 C   0  0  0  0  0  0  0  0  0  0  0  0
    3.7320   -1.3581    0.0000 C   0  0  0  0  0  0  0  0  0  0  0  0
    5.4641    0.6419    0.0000 C   0  0  0  0  0  0  0  0  0  0  0  0
    4.5981   -0.8581    0.0000 C   0  0  0  0  0  0  0  0  0  0  0  0
    6.3301    0.1419    0.0000 C   0  0  0  0  0  0  0  0  0  0  0  0
    6.3301   -0.8581    0.0000 C   0  0  0  0  0  0  0  0  0  0  0  0
    5.4641   -1.3581    0.0000 C   0  0  0  0  0  0  0  0  0  0  0  0
    5.6733    1.6138    0.0000 C   0  0  0  0  0  0  0  0  0  0  0  0
    6.6620    1.7168    0.0000 C   0  0  0  0  0  0  0  0  0  0  0  0
    5.4641   -2.3581    0.0000 C   0  0  0  0  0  0  0  0  0  0  0  0
    5.0055    2.3581    0.0000 C   0  0  0  0  0  0  0  0  0  0  0  0
    4.1572    1.3780    0.0000 H   0  0  0  0  0  0  0  0  0  0  0  0
    2.2554   -0.7504    0.0000 H   0  0  0  0  0  0  0  0  0  0  0  0
    2.6540   -1.4407    0.0000 H   0  0  0  0  0  0  0  0  0  0  0  0
    1.6900    0.1789    0.0000 H   0  0  0  0  0  0  0  0  0  0  0  0
    1.4631   -0.6681    0.0000 H   0  0  0  0  0  0  0  0  0  0  0  0
    2.3100   -0.8950    0.0000 H   0  0  0  0  0  0  0  0  0  0  0  0
    3.3335   -1.8330    0.0000 H   0  0  0  0  0  0  0  0  0  0  0  0
    4.1306   -1.8330    0.0000 H   0  0  0  0  0  0  0  0  0  0  0  0
    4.9966   -0.3831    0.0000 H   0  0  0  0  0  0  0  0  0  0  0  0
    6.5422   -1.4407    0.0000 H   0  0  0  0  0  0  0  0  0  0  0  0
    6.9407   -0.7504    0.0000 H   0  0  0  0  0  0  0  0  0  0  0  0
    6.9720    2.2538    0.0000 H   0  0  0  0  0  0  0  0  0  0  0  0
    4.8441   -2.3581    0.0000 H   0  0  0  0  0  0  0  0  0  0  0  0
    5.4641   -2.9781    0.0000 H   0  0  0  0  0  0  0  0  0  0  0  0
    6.0841   -2.3581    0.0000 H   0  0  0  0  0  0  0  0  0  0  0  0
    5.4669    2.7721    0.0000 H   0  0  0  0  0  0  0  0  0  0  0  0
    4.5914    2.8195    0.0000 H   0  0  0  0  0  0  0  0  0  0  0  0
    4.5440    1.9440    0.0000 H   0  0  0  0  0  0  0  0  0  0  0  0
  1  4  1  0  0  0  0
  1  5  1  0  0  0  0
  2  8  2  0  0  0  0
  3 12  1  0  0  0  0
  3 16  1  0  0  0  0
  4  5  1  0  0  0  0
  4  6  1  0  0  0  0
  4  7  1  0  0  0  0
  5  8  1  0  0  0  0
  5 19  1  1  0  0  0
  6  9  1  0  0  0  0
  6 20  1  0  0  0  0
  6 21  1  0  0  0  0
  7 22  1  0  0  0  0
  7 23  1  0  0  0  0
  7 24  1  0  0  0  0
  8 10  1  0  0  0  0
  9 11  1  0  0  0  0
  9 25  1  0  0  0  0
  9 26  1  0  0  0  0
 10 12  2  0  0  0  0
 10 15  1  0  0  0  0
 11 14  2  0  0  0  0
 11 27  1  0  0  0  0
 12 13  1  0  0  0  0
 13 14  1  0  0  0  0
 13 28  1  0  0  0  0
 13 29  1  0  0  0  0
 14 17  1  0  0  0  0
 15 16  2  0  0  0  0
 15 18  1  0  0  0  0
 16 30  1  0  0  0  0
 17 31  1  0  0  0  0
 17 32  1  0  0  0  0
 17 33  1  0  0  0  0
 18 34  1  0  0  0  0
 18 35  1  0  0  0  0
 18 36  1  0  0  0  0
M  END
> <PUBCHEM_COMPOUND_CID>
46173863

> <PUBCHEM_COMPOUND_CANONICALIZED>
1

> <PUBCHEM_CACTVS_COMPLEXITY>
401

> <PUBCHEM_CACTVS_HBOND_ACCEPTOR>
3

> <PUBCHEM_CACTVS_HBOND_DONOR>
0

> <PUBCHEM_CACTVS_ROTATABLE_BOND>
0

> <PUBCHEM_CACTVS_SUBSKEYS>
AAADceBwMAAAAAAAAAAAAAAAEgAAASAAAAAAAAAAAAAAAACBgAAAGgAAAAAADFSgmAIiBIAABECIAqhSgAICCAAkIAAAiAFECMgMJjaMNR6CGWCk4BEIqQfL7PzOgAAAAAAAAAAAAAAAAAAAAAAAAAAAAA==

> <PUBCHEM_IUPAC_INCHI>
InChI=1S/C15H18O3/c1-9-5-4-6-15(3)14(18-15)13(16)12-10(2)8-17-11(12)7-9/h5,8,14H,4,6-7H2,1-3H3/b9-5+/t14-,15?/m1/s1

> <PUBCHEM_IUPAC_INCHIKEY>
CVIVANCKIBYAOP-RUQGURTESA-N

> <PUBCHEM_XLOGP3_AA>
2.5

> <PUBCHEM_EXACT_MASS>
246.125594

> <PUBCHEM_MOLECULAR_FORMULA>
C15H18O3

> <PUBCHEM_MOLECULAR_WEIGHT>
246.30162

> <PUBCHEM_OPENEYE_CAN_SMILES>
CC1=CCCC2(C(O2)C(=O)C3=C(C1)OC=C3C)C

> <PUBCHEM_OPENEYE_ISO_SMILES>
C/C/1=C\CCC2([C@H](O2)C(=O)C3=C(C1)OC=C3C)C

> <PUBCHEM_CACTVS_TPSA>
42.7

> <PUBCHEM_MONOISOTOPIC_WEIGHT>
246.125594

> <PUBCHEM_TOTAL_CHARGE>
0

> <PUBCHEM_HEAVY_ATOM_COUNT>
18

> <PUBCHEM_ATOM_DEF_STEREO_COUNT>
1

> <PUBCHEM_ATOM_UDEF_STEREO_COUNT>
1

> <PUBCHEM_BOND_DEF_STEREO_COUNT>
1

> <PUBCHEM_BOND_UDEF_STEREO_COUNT>
0

> <PUBCHEM_ISOTOPIC_ATOM_COUNT>
0

> <PUBCHEM_COMPONENT_COUNT>
1

> <PUBCHEM_CACTVS_TAUTO_COUNT>
2

> <PUBCHEM_COORDINATE_TYPE>
1
5
255

> <PUBCHEM_BONDANNOTATIONS>
10  12  8
10  15  8
15  16  8
3  12  8
3  16  8
4  7  3
5  19  5

$$$$

