447884
  -OEChem-07051213022D

 79 80  0     1  0  0  0  0  0999 V2000
    7.1962    0.2723    0.0000 O   0  0  0  0  0  0  0  0  0  0  0  0
    6.3301    1.7723    0.0000 O   0  0  0  0  0  0  0  0  0  0  0  0
    8.9282   -2.7277    0.0000 O   0  0  0  0  0  0  0  0  0  0  0  0
    8.9282   -5.7277    0.0000 O   0  0  0  0  0  0  0  0  0  0  0  0
   10.6766   -5.7623    0.0000 O   0  0  0  0  0  0  0  0  0  0  0  0
   10.6766   -1.6931    0.0000 O   0  0  0  0  0  0  0  0  0  0  0  0
   12.4583   -2.7036    0.0000 O   0  0  0  0  0  0  0  0  0  0  0  0
    6.3301   -0.2277    0.0000 C   0  0  1  0  0  0  0  0  0  0  0  0
    6.3301   -1.2277    0.0000 C   0  0  2  0  0  0  0  0  0  0  0  0
    5.4641    0.2723    0.0000 C   0  0  1  0  0  0  0  0  0  0  0  0
    7.1962   -1.7277    0.0000 C   0  0  0  0  0  0  0  0  0  0  0  0
    5.4641    1.2723    0.0000 C   0  0  2  0  0  0  0  0  0  0  0  0
    5.4641   -1.7277    0.0000 C   0  0  0  0  0  0  0  0  0  0  0  0
    7.1962   -2.7277    0.0000 C   0  0  0  0  0  0  0  0  0  0  0  0
    4.5981   -0.2277    0.0000 C   0  0  0  0  0  0  0  0  0  0  0  0
    8.0622   -3.2277    0.0000 C   0  0  0  0  0  0  0  0  0  0  0  0
    4.5981    1.7723    0.0000 C   0  0  0  0  0  0  0  0  0  0  0  0
    7.1962    1.2723    0.0000 C   0  0  0  0  0  0  0  0  0  0  0  0
    8.0622   -4.2277    0.0000 C   0  0  0  0  0  0  0  0  0  0  0  0
    4.5981    2.7723    0.0000 C   0  0  0  0  0  0  0  0  0  0  0  0
    6.3301    2.7723    0.0000 C   0  0  0  0  0  0  0  0  0  0  0  0
    8.9282   -4.7277    0.0000 C   0  0  0  0  0  0  0  0  0  0  0  0
    9.7942   -3.2277    0.0000 C   0  0  0  0  0  0  0  0  0  0  0  0
    9.7942   -4.2277    0.0000 C   0  0  0  0  0  0  0  0  0  0  0  0
    7.1962   -4.7277    0.0000 C   0  0  0  0  0  0  0  0  0  0  0  0
   10.6882   -2.6930    0.0000 C   0  0  0  0  0  0  0  0  0  0  0  0
   10.6882   -4.7624    0.0000 C   0  0  0  0  0  0  0  0  0  0  0  0
    3.7320    3.2723    0.0000 C   0  0  0  0  0  0  0  0  0  0  0  0
   11.5942   -3.2069    0.0000 C   0  0  0  0  0  0  0  0  0  0  0  0
   11.5942   -4.2485    0.0000 C   0  0  0  0  0  0  0  0  0  0  0  0
    3.7320    4.2723    0.0000 C   0  0  0  0  0  0  0  0  0  0  0  0
    2.8660    4.7723    0.0000 C   0  0  0  0  0  0  0  0  0  0  0  0
   11.5368   -6.2723    0.0000 C   0  0  0  0  0  0  0  0  0  0  0  0
   13.3263   -3.2002    0.0000 C   0  0  0  0  0  0  0  0  0  0  0  0
    2.0000    4.2723    0.0000 C   0  0  0  0  0  0  0  0  0  0  0  0
    2.8660    5.7723    0.0000 C   0  0  0  0  0  0  0  0  0  0  0  0
    2.0000    6.2723    0.0000 C   0  0  0  0  0  0  0  0  0  0  0  0
    6.8671   -0.5377    0.0000 H   0  0  0  0  0  0  0  0  0  0  0  0
    5.7932   -0.9177    0.0000 H   0  0  0  0  0  0  0  0  0  0  0  0
    5.4641   -0.3477    0.0000 H   0  0  0  0  0  0  0  0  0  0  0  0
    7.8067   -1.8354    0.0000 H   0  0  0  0  0  0  0  0  0  0  0  0
    7.4082   -1.1451    0.0000 H   0  0  0  0  0  0  0  0  0  0  0  0
    5.4641    1.8923    0.0000 H   0  0  0  0  0  0  0  0  0  0  0  0
    5.1541   -1.1908    0.0000 H   0  0  0  0  0  0  0  0  0  0  0  0
    4.9272   -2.0377    0.0000 H   0  0  0  0  0  0  0  0  0  0  0  0
    5.7741   -2.2646    0.0000 H   0  0  0  0  0  0  0  0  0  0  0  0
    6.5856   -2.6200    0.0000 H   0  0  0  0  0  0  0  0  0  0  0  0
    6.9841   -3.3103    0.0000 H   0  0  0  0  0  0  0  0  0  0  0  0
    4.2881    0.3092    0.0000 H   0  0  0  0  0  0  0  0  0  0  0  0
    4.0611   -0.5377    0.0000 H   0  0  0  0  0  0  0  0  0  0  0  0
    4.9081   -0.7646    0.0000 H   0  0  0  0  0  0  0  0  0  0  0  0
    4.0611    1.4623    0.0000 H   0  0  0  0  0  0  0  0  0  0  0  0
    7.8162    1.2723    0.0000 H   0  0  0  0  0  0  0  0  0  0  0  0
    7.1962    1.8923    0.0000 H   0  0  0  0  0  0  0  0  0  0  0  0
    6.5762    1.2723    0.0000 H   0  0  0  0  0  0  0  0  0  0  0  0
    5.1350    3.0823    0.0000 H   0  0  0  0  0  0  0  0  0  0  0  0
    6.9501    2.7723    0.0000 H   0  0  0  0  0  0  0  0  0  0  0  0
    6.3301    3.3923    0.0000 H   0  0  0  0  0  0  0  0  0  0  0  0
    5.7101    2.7723    0.0000 H   0  0  0  0  0  0  0  0  0  0  0  0
    6.8862   -4.1908    0.0000 H   0  0  0  0  0  0  0  0  0  0  0  0
    6.6592   -5.0377    0.0000 H   0  0  0  0  0  0  0  0  0  0  0  0
    7.5062   -5.2646    0.0000 H   0  0  0  0  0  0  0  0  0  0  0  0
    3.1951    2.9623    0.0000 H   0  0  0  0  0  0  0  0  0  0  0  0
   12.1300   -4.5606    0.0000 H   0  0  0  0  0  0  0  0  0  0  0  0
    4.2690    4.5823    0.0000 H   0  0  0  0  0  0  0  0  0  0  0  0
   11.2099   -1.3769    0.0000 H   0  0  0  0  0  0  0  0  0  0  0  0
   11.2206   -6.8056    0.0000 H   0  0  0  0  0  0  0  0  0  0  0  0
   12.0701   -6.5885    0.0000 H   0  0  0  0  0  0  0  0  0  0  0  0
   11.8530   -5.7390    0.0000 H   0  0  0  0  0  0  0  0  0  0  0  0
   13.0183   -3.7384    0.0000 H   0  0  0  0  0  0  0  0  0  0  0  0
   13.8644   -3.5082    0.0000 H   0  0  0  0  0  0  0  0  0  0  0  0
   13.6342   -2.6621    0.0000 H   0  0  0  0  0  0  0  0  0  0  0  0
    1.6900    4.8092    0.0000 H   0  0  0  0  0  0  0  0  0  0  0  0
    1.4631    3.9623    0.0000 H   0  0  0  0  0  0  0  0  0  0  0  0
    2.3100    3.7354    0.0000 H   0  0  0  0  0  0  0  0  0  0  0  0
    3.4030    6.0823    0.0000 H   0  0  0  0  0  0  0  0  0  0  0  0
    2.3100    6.8092    0.0000 H   0  0  0  0  0  0  0  0  0  0  0  0
    1.4631    6.5823    0.0000 H   0  0  0  0  0  0  0  0  0  0  0  0
    1.6900    5.7354    0.0000 H   0  0  0  0  0  0  0  0  0  0  0  0
  8  1  1  1  0  0  0
  1 18  1  0  0  0  0
 12  2  1  6  0  0  0
  2 21  1  0  0  0  0
  3 16  1  0  0  0  0
  3 23  1  0  0  0  0
  4 22  2  0  0  0  0
  5 27  1  0  0  0  0
  5 33  1  0  0  0  0
  6 26  1  0  0  0  0
  6 66  1  0  0  0  0
  7 29  1  0  0  0  0
  7 34  1  0  0  0  0
  8  9  1  0  0  0  0
  8 10  1  0  0  0  0
  8 38  1  0  0  0  0
  9 11  1  0  0  0  0
  9 13  1  6  0  0  0
  9 39  1  0  0  0  0
 10 12  1  0  0  0  0
 10 15  1  6  0  0  0
 10 40  1  0  0  0  0
 11 14  1  0  0  0  0
 11 41  1  0  0  0  0
 11 42  1  0  0  0  0
 12 17  1  0  0  0  0
 12 43  1  0  0  0  0
 13 44  1  0  0  0  0
 13 45  1  0  0  0  0
 13 46  1  0  0  0  0
 14 16  1  0  0  0  0
 14 47  1  0  0  0  0
 14 48  1  0  0  0  0
 15 49  1  0  0  0  0
 15 50  1  0  0  0  0
 15 51  1  0  0  0  0
 16 19  2  0  0  0  0
 17 20  2  0  0  0  0
 17 52  1  0  0  0  0
 18 53  1  0  0  0  0
 18 54  1  0  0  0  0
 18 55  1  0  0  0  0
 19 22  1  0  0  0  0
 19 25  1  0  0  0  0
 20 28  1  0  0  0  0
 20 56  1  0  0  0  0
 21 57  1  0  0  0  0
 21 58  1  0  0  0  0
 21 59  1  0  0  0  0
 22 24  1  0  0  0  0
 23 24  2  0  0  0  0
 23 26  1  0  0  0  0
 24 27  1  0  0  0  0
 25 60  1  0  0  0  0
 25 61  1  0  0  0  0
 25 62  1  0  0  0  0
 26 29  2  0  0  0  0
 27 30  2  0  0  0  0
 28 31  2  0  0  0  0
 28 63  1  0  0  0  0
 29 30  1  0  0  0  0
 30 64  1  0  0  0  0
 31 32  1  0  0  0  0
 31 65  1  0  0  0  0
 32 35  1  0  0  0  0
 32 36  2  0  0  0  0
 33 67  1  0  0  0  0
 33 68  1  0  0  0  0
 33 69  1  0  0  0  0
 34 70  1  0  0  0  0
 34 71  1  0  0  0  0
 34 72  1  0  0  0  0
 35 73  1  0  0  0  0
 35 74  1  0  0  0  0
 35 75  1  0  0  0  0
 36 37  1  0  0  0  0
 36 76  1  0  0  0  0
 37 77  1  0  0  0  0
 37 78  1  0  0  0  0
 37 79  1  0  0  0  0
M  END
> <PUBCHEM_COMPOUND_CID>
447884

> <PUBCHEM_COMPOUND_CANONICALIZED>
1

> <PUBCHEM_CACTVS_COMPLEXITY>
858

> <PUBCHEM_CACTVS_HBOND_ACCEPTOR>
7

> <PUBCHEM_CACTVS_HBOND_DONOR>
1

> <PUBCHEM_CACTVS_ROTATABLE_BOND>
13

> <PUBCHEM_CACTVS_SUBSKEYS>
AAADcfB4OAAAAAAAAAAAAAAAAAAAAAAAAAAwQAAAAAAAAACBAAAAGgAACAAADRSgmAIyBoAABgCIAqBSAAACCAAkIAAIiAEGiMgNJzaGNRqCeWOl4BULuQfK7PzOIQABCAAIQABCAAIQABCAAAAAAAAAAA==

> <PUBCHEM_IUPAC_OPENEYE_NAME>
2-[(3S,4S,5S,6S,7E,9E,11E)-4,6-dimethoxy-3,5,11-trimethyl-trideca-7,9,11-trienyl]-8-hydroxy-5,7-dimethoxy-3-methyl-chromen-4-one

> <PUBCHEM_IUPAC_CAS_NAME>
2-[(3S,4S,5S,6S,7E,9E,11E)-4,6-dimethoxy-3,5,11-trimethyltrideca-7,9,11-trienyl]-8-hydroxy-5,7-dimethoxy-3-methyl-1-benzopyran-4-one

> <PUBCHEM_IUPAC_NAME>
2-[(3S,4S,5S,6S,7E,9E,11E)-4,6-dimethoxy-3,5,11-trimethyltrideca-7,9,11-trienyl]-8-hydroxy-5,7-dimethoxy-3-methylchromen-4-one

> <PUBCHEM_IUPAC_SYSTEMATIC_NAME>
2-[(3S,4S,5S,6S,7E,9E,11E)-4,6-dimethoxy-3,5,11-trimethyl-trideca-7,9,11-trienyl]-5,7-dimethoxy-3-methyl-8-oxidanyl-chromen-4-one

> <PUBCHEM_IUPAC_TRADITIONAL_NAME>
2-[(3S,4S,5S,6S,7E,9E,11E)-4,6-dimethoxy-3,5,11-trimethyl-trideca-7,9,11-trienyl]-8-hydroxy-5,7-dimethoxy-3-methyl-chromone

> <PUBCHEM_IUPAC_INCHI>
InChI=1S/C30H42O7/c1-10-18(2)13-11-12-14-22(33-6)21(5)29(36-9)19(3)15-16-23-20(4)27(31)26-24(34-7)17-25(35-8)28(32)30(26)37-23/h10-14,17,19,21-22,29,32H,15-16H2,1-9H3/b13-11+,14-12+,18-10+/t19-,21+,22-,29-/m0/s1

> <PUBCHEM_IUPAC_INCHIKEY>
UZHDGDDPOPDJGM-CVOZLMQJSA-N

> <PUBCHEM_XLOGP3_AA>
6.3

> <PUBCHEM_EXACT_MASS>
514.293054

> <PUBCHEM_MOLECULAR_FORMULA>
C30H42O7

> <PUBCHEM_MOLECULAR_WEIGHT>
514.65028

> <PUBCHEM_OPENEYE_CAN_SMILES>
CC=C(C)C=CC=CC(C(C)C(C(C)CCC1=C(C(=O)C2=C(O1)C(=C(C=C2OC)OC)O)C)OC)OC

> <PUBCHEM_OPENEYE_ISO_SMILES>
C/C=C(\C)/C=C/C=C/[C@@H]([C@@H](C)[C@H]([C@@H](C)CCC1=C(C(=O)C2=C(O1)C(=C(C=C2OC)OC)O)C)OC)OC

> <PUBCHEM_CACTVS_TPSA>
83.4

> <PUBCHEM_MONOISOTOPIC_WEIGHT>
514.293054

> <PUBCHEM_TOTAL_CHARGE>
0

> <PUBCHEM_HEAVY_ATOM_COUNT>
37

> <PUBCHEM_ATOM_DEF_STEREO_COUNT>
4

> <PUBCHEM_ATOM_UDEF_STEREO_COUNT>
0

> <PUBCHEM_BOND_DEF_STEREO_COUNT>
3

> <PUBCHEM_BOND_UDEF_STEREO_COUNT>
0

> <PUBCHEM_ISOTOPIC_ATOM_COUNT>
0

> <PUBCHEM_COMPONENT_COUNT>
1

> <PUBCHEM_CACTVS_TAUTO_COUNT>
15

> <PUBCHEM_COORDINATE_TYPE>
1
5
255

> <PUBCHEM_BONDANNOTATIONS>
8  1  5
10  15  6
16  19  8
19  22  8
12  2  6
22  24  8
23  24  8
23  26  8
24  27  8
26  29  8
27  30  8
29  30  8
3  16  8
3  23  8
9  13  6

$$$$

