34526
  -OEChem-07051213113D

 39 39  0     0  0  0  0  0  0999 V2000
    2.4950    1.1468    2.0262 S   0  0  0  0  0  0  0  0  0  0  0  0
    2.6887    0.2464    0.3070 P   0  0  0  0  0  0  0  0  0  0  0  0
    1.7947   -1.0852    0.0699 O   0  0  0  0  0  0  0  0  0  0  0  0
    2.2926    1.1260   -1.0051 O   0  0  0  0  0  0  0  0  0  0  0  0
    4.1773   -0.2666   -0.1032 O   0  0  0  0  0  0  0  0  0  0  0  0
   -2.3186    1.1167    0.0704 N   0  0  0  0  0  0  0  0  0  0  0  0
   -2.2912   -1.2098   -0.2333 N   0  0  0  0  0  0  0  0  0  0  0  0
   -0.2429    0.0226    0.0721 N   0  0  0  0  0  0  0  0  0  0  0  0
   -3.7634    1.0997   -0.0330 C   0  0  0  0  0  0  0  0  0  0  0  0
   -1.6398    2.3761    0.2976 C   0  0  0  0  0  0  0  0  0  0  0  0
   -1.5812   -0.0826   -0.0354 C   0  0  0  0  0  0  0  0  0  0  0  0
   -4.3825    0.8864    1.3350 C   0  0  0  0  0  0  0  0  0  0  0  0
   -1.2632    3.0127   -1.0264 C   0  0  0  0  0  0  0  0  0  0  0  0
   -1.5554   -2.3367   -0.3294 C   0  0  0  0  0  0  0  0  0  0  0  0
    0.4309   -1.1420   -0.0334 C   0  0  0  0  0  0  0  0  0  0  0  0
   -0.1790   -2.3638   -0.2361 C   0  0  0  0  0  0  0  0  0  0  0  0
   -2.3026   -3.6093   -0.5478 C   0  0  0  0  0  0  0  0  0  0  0  0
    2.8703    2.4065   -1.1970 C   0  0  0  0  0  0  0  0  0  0  0  0
    4.7702   -1.3438    0.6021 C   0  0  0  0  0  0  0  0  0  0  0  0
   -4.1188    2.0586   -0.4308 H   0  0  0  0  0  0  0  0  0  0  0  0
   -4.1217    0.3426   -0.7406 H   0  0  0  0  0  0  0  0  0  0  0  0
   -2.3017    3.0640    0.8386 H   0  0  0  0  0  0  0  0  0  0  0  0
   -0.7563    2.2636    0.9364 H   0  0  0  0  0  0  0  0  0  0  0  0
   -4.0861   -0.0768    1.7629 H   0  0  0  0  0  0  0  0  0  0  0  0
   -4.0786    1.6703    2.0367 H   0  0  0  0  0  0  0  0  0  0  0  0
   -5.4746    0.9020    1.2631 H   0  0  0  0  0  0  0  0  0  0  0  0
   -0.5748    2.3785   -1.5945 H   0  0  0  0  0  0  0  0  0  0  0  0
   -2.1465    3.1875   -1.6496 H   0  0  0  0  0  0  0  0  0  0  0  0
   -0.7719    3.9760   -0.8574 H   0  0  0  0  0  0  0  0  0  0  0  0
    0.3901   -3.2816   -0.3162 H   0  0  0  0  0  0  0  0  0  0  0  0
   -2.1174   -4.3058    0.2761 H   0  0  0  0  0  0  0  0  0  0  0  0
   -3.3812   -3.4279   -0.6003 H   0  0  0  0  0  0  0  0  0  0  0  0
   -1.9928   -4.0763   -1.4881 H   0  0  0  0  0  0  0  0  0  0  0  0
    2.7390    2.6941   -2.2431 H   0  0  0  0  0  0  0  0  0  0  0  0
    3.9388    2.3845   -0.9667 H   0  0  0  0  0  0  0  0  0  0  0  0
    2.3639    3.1391   -0.5638 H   0  0  0  0  0  0  0  0  0  0  0  0
    4.8793   -1.0887    1.6589 H   0  0  0  0  0  0  0  0  0  0  0  0
    5.7597   -1.5349    0.1795 H   0  0  0  0  0  0  0  0  0  0  0  0
    4.1600   -2.2443    0.4966 H   0  0  0  0  0  0  0  0  0  0  0  0
  1  2  2  0  0  0  0
  2  3  1  0  0  0  0
  2  4  1  0  0  0  0
  2  5  1  0  0  0  0
  3 15  1  0  0  0  0
  4 18  1  0  0  0  0
  5 19  1  0  0  0  0
  6  9  1  0  0  0  0
  6 10  1  0  0  0  0
  6 11  1  0  0  0  0
  7 11  2  0  0  0  0
  7 14  1  0  0  0  0
  8 11  1  0  0  0  0
  8 15  2  0  0  0  0
  9 12  1  0  0  0  0
  9 20  1  0  0  0  0
  9 21  1  0  0  0  0
 10 13  1  0  0  0  0
 10 22  1  0  0  0  0
 10 23  1  0  0  0  0
 12 24  1  0  0  0  0
 12 25  1  0  0  0  0
 12 26  1  0  0  0  0
 13 27  1  0  0  0  0
 13 28  1  0  0  0  0
 13 29  1  0  0  0  0
 14 16  2  0  0  0  0
 14 17  1  0  0  0  0
 15 16  1  0  0  0  0
 16 30  1  0  0  0  0
 17 31  1  0  0  0  0
 17 32  1  0  0  0  0
 17 33  1  0  0  0  0
 18 34  1  0  0  0  0
 18 35  1  0  0  0  0
 18 36  1  0  0  0  0
 19 37  1  0  0  0  0
 19 38  1  0  0  0  0
 19 39  1  0  0  0  0
M  END
> <PUBCHEM_COMPOUND_CID>
34526

> <PUBCHEM_CONFORMER_RMSD>
0.8

> <PUBCHEM_CONFORMER_DIVERSEORDER>
1
58
94
92
51
72
5
35
11
102
44
46
97
25
31
62
64
88
10
48
2
105
111
91
22
55
27
100
50
45
59
17
76
24
9
80
39
6
96
112
37
8
15
82
77
101
38
70
93
108
107
7
74
60
3
95
87
56
86
71
99
52
32
73
14
75
109
68
106
18
63
23
84
69
41
67
81
98
54
43
89
40
78
83
29
90
21
34
61
26
104
42
16
4
36
79
110
33
28
19
12
66
13
30
47
65
53
49
103
57
85
20

> <PUBCHEM_MMFF94_PARTIAL_CHARGES>
18
1 -0.68
10 0.37
11 0.72
14 0.17
15 0.39
16 -0.15
17 0.14
18 0.28
19 0.28
2 1.49
3 -0.35
30 0.15
4 -0.55
5 -0.55
6 -0.84
7 -0.62
8 -0.62
9 0.37

> <PUBCHEM_EFFECTIVE_ROTOR_COUNT>
7

> <PUBCHEM_PHARMACOPHORE_FEATURES>
2
4 6 7 8 11 cation
6 7 8 11 14 15 16 rings

> <PUBCHEM_HEAVY_ATOM_COUNT>
19

> <PUBCHEM_ATOM_DEF_STEREO_COUNT>
0

> <PUBCHEM_ATOM_UDEF_STEREO_COUNT>
0

> <PUBCHEM_BOND_DEF_STEREO_COUNT>
0

> <PUBCHEM_BOND_UDEF_STEREO_COUNT>
0

> <PUBCHEM_ISOTOPIC_ATOM_COUNT>
0

> <PUBCHEM_COMPONENT_COUNT>
1

> <PUBCHEM_CACTVS_TAUTO_COUNT>
1

> <PUBCHEM_CONFORMER_ID>
000086DE00000001

> <PUBCHEM_MMFF94_ENERGY>
39.6106

> <PUBCHEM_FEATURE_SELFOVERLAP>
10.148

> <PUBCHEM_SHAPE_FINGERPRINT>
12553582 1 17688874129156836879
13140716 1 18410853222455566571
14115302 16 18334007307251006168
14648413 74 17330554762128187417
15042514 8 18411416202869956339
15295992 7 17894636941457931434
15442244 35 18342179964638085670
19591789 44 17979070818930723494
20261772 1 18341607131231797264
20645477 56 18335142033289229290
21033648 29 18118989089614003800
21501502 16 18339358540075141230
21524375 3 18262520406808041127
2334 1 18194683665972998159
23402539 116 18334868233513899007
23419403 2 16829307845941745364
23557571 272 18042403522024507064
23558518 356 18268997488158004946
23559900 14 18113338622760996906
23598291 2 18202285758551200462
23598294 1 18196924487739433499
2748010 2 18190471449938679055
312423 11 18129096728172344294
350125 39 18193554690980542817
352729 6 18408318895593725591
44154327 71 18341038666804365309
5104073 3 18336835208456088594
53777708 50 18268708308178354406
7164475 11 18267028245562903854
7364860 26 17686340171845903263
81228 2 18122078515339876651
9981440 41 17480016398714978352

> <PUBCHEM_SHAPE_MULTIPOLES>
366.16
7.44
3.7
1.21
3.53
1.17
-0.41
-0.71
-1.71
-2.24
1.18
0.54
-0.78
-0.88

> <PUBCHEM_SHAPE_SELFOVERLAP>
700.672

> <PUBCHEM_SHAPE_VOLUME>
228.5

> <PUBCHEM_COORDINATE_TYPE>
2
5
10

$$$$

