10674
  -OEChem-06261204492D

 53 55  0     0  0  0  0  0  0999 V2000
    1.4030    5.5000    0.0000 Cl  0  0  0  0  0  0  0  0  0  0  0  0
    5.6995    7.5134    0.0000 Cl  0  0  0  0  0  0  0  0  0  0  0  0
    9.1972    0.0000    0.0000 O   0  0  0  0  0  0  0  0  0  0  0  0
    7.4651    3.0000    0.0000 O   0  0  0  0  0  0  0  0  0  0  0  0
    4.8671    1.5000    0.0000 N   0  0  0  0  0  0  0  0  0  0  0  0
    3.1350    2.5000    0.0000 N   0  0  0  0  0  0  0  0  0  0  0  0
    8.3312    1.5000    0.0000 N   0  0  0  0  0  0  0  0  0  0  0  0
    9.1972    3.0000    0.0000 N   0  0  0  0  0  0  0  0  0  0  0  0
    4.8671    2.5000    0.0000 C   0  0  0  0  0  0  0  0  0  0  0  0
    4.0010    1.0000    0.0000 C   0  0  0  0  0  0  0  0  0  0  0  0
    3.1350    1.5000    0.0000 C   0  0  0  0  0  0  0  0  0  0  0  0
    4.0010    3.0000    0.0000 C   0  0  0  0  0  0  0  0  0  0  0  0
    5.7331    1.0000    0.0000 C   0  0  0  0  0  0  0  0  0  0  0  0
    6.5991    1.5000    0.0000 C   0  0  0  0  0  0  0  0  0  0  0  0
    7.4651    1.0000    0.0000 C   0  0  0  0  0  0  0  0  0  0  0  0
    2.2690    3.0000    0.0000 C   0  0  0  0  0  0  0  0  0  0  0  0
    2.2690    4.0000    0.0000 C   0  0  0  0  0  0  0  0  0  0  0  0
    1.4030    2.5000    0.0000 C   0  0  0  0  0  0  0  0  0  0  0  0
    9.1972    1.0000    0.0000 C   0  0  0  0  0  0  0  0  0  0  0  0
    8.3312    2.5000    0.0000 C   0  0  0  0  0  0  0  0  0  0  0  0
   10.0632    1.5000    0.0000 C   0  0  0  0  0  0  0  0  0  0  0  0
   10.0632    2.5000    0.0000 C   0  0  0  0  0  0  0  0  0  0  0  0
    1.4030    4.5000    0.0000 C   0  0  0  0  0  0  0  0  0  0  0  0
    0.5369    3.0000    0.0000 C   0  0  0  0  0  0  0  0  0  0  0  0
    0.5369    4.0000    0.0000 C   0  0  0  0  0  0  0  0  0  0  0  0
   10.9572    0.9653    0.0000 C   0  0  0  0  0  0  0  0  0  0  0  0
   10.9572    3.0347    0.0000 C   0  0  0  0  0  0  0  0  0  0  0  0
   11.8632    1.4792    0.0000 C   0  0  0  0  0  0  0  0  0  0  0  0
   11.8632    2.5208    0.0000 C   0  0  0  0  0  0  0  0  0  0  0  0
    3.6025    0.5251    0.0000 H   0  0  0  0  0  0  0  0  0  0  0  0
    4.3996    0.5251    0.0000 H   0  0  0  0  0  0  0  0  0  0  0  0
    5.4776    2.3923    0.0000 H   0  0  0  0  0  0  0  0  0  0  0  0
    5.0791    3.0826    0.0000 H   0  0  0  0  0  0  0  0  0  0  0  0
    2.5244    1.6077    0.0000 H   0  0  0  0  0  0  0  0  0  0  0  0
    2.9230    0.9174    0.0000 H   0  0  0  0  0  0  0  0  0  0  0  0
    4.3996    3.4750    0.0000 H   0  0  0  0  0  0  0  0  0  0  0  0
    3.6025    3.4750    0.0000 H   0  0  0  0  0  0  0  0  0  0  0  0
    5.3346    0.5251    0.0000 H   0  0  0  0  0  0  0  0  0  0  0  0
    6.1316    0.5251    0.0000 H   0  0  0  0  0  0  0  0  0  0  0  0
    6.9976    1.9750    0.0000 H   0  0  0  0  0  0  0  0  0  0  0  0
    6.2006    1.9750    0.0000 H   0  0  0  0  0  0  0  0  0  0  0  0
    7.0666    0.5251    0.0000 H   0  0  0  0  0  0  0  0  0  0  0  0
    7.8637    0.5251    0.0000 H   0  0  0  0  0  0  0  0  0  0  0  0
    2.8059    4.3100    0.0000 H   0  0  0  0  0  0  0  0  0  0  0  0
    1.4030    1.8800    0.0000 H   0  0  0  0  0  0  0  0  0  0  0  0
    0.0000    2.6900    0.0000 H   0  0  0  0  0  0  0  0  0  0  0  0
    9.1972    3.6200    0.0000 H   0  0  0  0  0  0  0  0  0  0  0  0
    0.0000    4.3100    0.0000 H   0  0  0  0  0  0  0  0  0  0  0  0
   10.9500    0.3454    0.0000 H   0  0  0  0  0  0  0  0  0  0  0  0
   10.9500    3.6546    0.0000 H   0  0  0  0  0  0  0  0  0  0  0  0
   12.3990    1.1671    0.0000 H   0  0  0  0  0  0  0  0  0  0  0  0
   12.3990    2.8329    0.0000 H   0  0  0  0  0  0  0  0  0  0  0  0
    6.6995    7.5134    0.0000 H   0  0  0  0  0  0  0  0  0  0  0  0
  1 23  1  0  0  0  0
  2 53  1  0  0  0  0
  3 19  2  0  0  0  0
  4 20  2  0  0  0  0
  5  9  1  0  0  0  0
  5 10  1  0  0  0  0
  5 13  1  0  0  0  0
  6 11  1  0  0  0  0
  6 12  1  0  0  0  0
  6 16  1  0  0  0  0
  7 15  1  0  0  0  0
  7 19  1  0  0  0  0
  7 20  1  0  0  0  0
  8 20  1  0  0  0  0
  8 22  1  0  0  0  0
  8 47  1  0  0  0  0
  9 12  1  0  0  0  0
  9 32  1  0  0  0  0
  9 33  1  0  0  0  0
 10 11  1  0  0  0  0
 10 30  1  0  0  0  0
 10 31  1  0  0  0  0
 11 34  1  0  0  0  0
 11 35  1  0  0  0  0
 12 36  1  0  0  0  0
 12 37  1  0  0  0  0
 13 14  1  0  0  0  0
 13 38  1  0  0  0  0
 13 39  1  0  0  0  0
 14 15  1  0  0  0  0
 14 40  1  0  0  0  0
 14 41  1  0  0  0  0
 15 42  1  0  0  0  0
 15 43  1  0  0  0  0
 16 17  2  0  0  0  0
 16 18  1  0  0  0  0
 17 23  1  0  0  0  0
 17 44  1  0  0  0  0
 18 24  2  0  0  0  0
 18 45  1  0  0  0  0
 19 21  1  0  0  0  0
 21 22  1  0  0  0  0
 21 26  2  0  0  0  0
 22 27  2  0  0  0  0
 23 25  2  0  0  0  0
 24 25  1  0  0  0  0
 24 46  1  0  0  0  0
 25 48  1  0  0  0  0
 26 28  1  0  0  0  0
 26 49  1  0  0  0  0
 27 29  1  0  0  0  0
 27 50  1  0  0  0  0
 28 29  2  0  0  0  0
 28 51  1  0  0  0  0
 29 52  1  0  0  0  0
M  END
> <PUBCHEM_COMPOUND_CID>
10674

> <PUBCHEM_COMPOUND_CANONICALIZED>
1

> <PUBCHEM_CACTVS_COMPLEXITY>
567

> <PUBCHEM_CACTVS_HBOND_ACCEPTOR>
4

> <PUBCHEM_CACTVS_HBOND_DONOR>
2

> <PUBCHEM_CACTVS_ROTATABLE_BOND>
5

> <PUBCHEM_CACTVS_SUBSKEYS>
AAADceB7sAAGAAAAAAAAAAAAAAAAAAAAAAA8eIEAAAAAAACxQAAAHgIQAAAADArBmCQxwIPAAACIAiVSUACCAAAlBwAIiAEIZsiIYDrB15GUIYholyLIyecYiACOAAAAAAICAAAAAAAABAQAAAAAAAAAAA==

> <PUBCHEM_IUPAC_OPENEYE_NAME>
3-[3-[4-(3-chlorophenyl)piperazin-1-yl]propyl]-1H-quinazoline-2,4-dione hydrochloride

> <PUBCHEM_IUPAC_CAS_NAME>
3-[3-[4-(3-chlorophenyl)-1-piperazinyl]propyl]-1H-quinazoline-2,4-dione hydrochloride

> <PUBCHEM_IUPAC_NAME>
3-[3-[4-(3-chlorophenyl)piperazin-1-yl]propyl]-1H-quinazoline-2,4-dione hydrochloride

> <PUBCHEM_IUPAC_SYSTEMATIC_NAME>
3-[3-[4-(3-chlorophenyl)piperazin-1-yl]propyl]-1H-quinazoline-2,4-dione hydrochloride

> <PUBCHEM_IUPAC_TRADITIONAL_NAME>
3-[3-[4-(3-chlorophenyl)piperazino]propyl]-1H-quinazoline-2,4-quinone hydrochloride

> <PUBCHEM_IUPAC_INCHI>
InChI=1S/C21H23ClN4O2.ClH/c22-16-5-3-6-17(15-16)25-13-11-24(12-14-25)9-4-10-26-20(27)18-7-1-2-8-19(18)23-21(26)28;/h1-3,5-8,15H,4,9-14H2,(H,23,28);1H

> <PUBCHEM_IUPAC_INCHIKEY>
QUGOVTRSGWYKSQ-UHFFFAOYSA-N

> <PUBCHEM_EXACT_MASS>
434.127631

> <PUBCHEM_MOLECULAR_FORMULA>
C21H24Cl2N4O2

> <PUBCHEM_MOLECULAR_WEIGHT>
435.34686

> <PUBCHEM_OPENEYE_CAN_SMILES>
C1CN(CCN1CCCN2C(=O)C3=CC=CC=C3NC2=O)C4=CC(=CC=C4)Cl.Cl

> <PUBCHEM_OPENEYE_ISO_SMILES>
C1CN(CCN1CCCN2C(=O)C3=CC=CC=C3NC2=O)C4=CC(=CC=C4)Cl.Cl

> <PUBCHEM_CACTVS_TPSA>
55.9

> <PUBCHEM_MONOISOTOPIC_WEIGHT>
434.127631

> <PUBCHEM_TOTAL_CHARGE>
0

> <PUBCHEM_HEAVY_ATOM_COUNT>
29

> <PUBCHEM_ATOM_DEF_STEREO_COUNT>
0

> <PUBCHEM_ATOM_UDEF_STEREO_COUNT>
0

> <PUBCHEM_BOND_DEF_STEREO_COUNT>
0

> <PUBCHEM_BOND_UDEF_STEREO_COUNT>
0

> <PUBCHEM_ISOTOPIC_ATOM_COUNT>
0

> <PUBCHEM_COMPONENT_COUNT>
2

> <PUBCHEM_CACTVS_TAUTO_COUNT>
5

> <PUBCHEM_COORDINATE_TYPE>
1
5
255

> <PUBCHEM_BONDANNOTATIONS>
16  17  8
16  18  8
17  23  8
18  24  8
19  21  8
21  22  8
21  26  8
22  27  8
23  25  8
24  25  8
26  28  8
27  29  8
28  29  8
7  19  8
7  20  8
8  20  8
8  22  8

$$$$

