582770
  -OEChem-06241222443D

 36 39  0     1  0  0  0  0  0999 V2000
    0.4323    0.6428   -0.3786 C   0  0  1  0  0  0  0  0  0  0  0  0
   -0.4323   -0.6429   -0.3785 C   0  0  1  0  0  0  0  0  0  0  0  0
   -0.0279    1.6044    0.7305 C   0  0  0  0  0  0  0  0  0  0  0  0
    0.0281   -1.6045    0.7305 C   0  0  0  0  0  0  0  0  0  0  0  0
    1.9183    0.3562   -0.2553 C   0  0  0  0  0  0  0  0  0  0  0  0
   -1.9184   -0.3562   -0.2552 C   0  0  0  0  0  0  0  0  0  0  0  0
   -1.4766    2.0296    0.5126 C   0  0  0  0  0  0  0  0  0  0  0  0
    1.4766   -2.0298    0.5123 C   0  0  0  0  0  0  0  0  0  0  0  0
    2.4014   -0.8844    0.1974 C   0  0  0  0  0  0  0  0  0  0  0  0
   -2.4013    0.8843    0.1974 C   0  0  0  0  0  0  0  0  0  0  0  0
    2.8388    1.3650   -0.5910 C   0  0  0  0  0  0  0  0  0  0  0  0
   -2.8390   -1.3649   -0.5909 C   0  0  0  0  0  0  0  0  0  0  0  0
    3.7869   -1.0922    0.2970 C   0  0  0  0  0  0  0  0  0  0  0  0
   -3.7868    1.0923    0.2969 C   0  0  0  0  0  0  0  0  0  0  0  0
    4.2117    1.1492   -0.4788 C   0  0  0  0  0  0  0  0  0  0  0  0
   -4.2119   -1.1490   -0.4788 C   0  0  0  0  0  0  0  0  0  0  0  0
    4.6860   -0.0798   -0.0337 C   0  0  0  0  0  0  0  0  0  0  0  0
   -4.6860    0.0799   -0.0338 C   0  0  0  0  0  0  0  0  0  0  0  0
    0.2750    1.1393   -1.3480 H   0  0  0  0  0  0  0  0  0  0  0  0
   -0.2751   -1.1395   -1.3480 H   0  0  0  0  0  0  0  0  0  0  0  0
    0.5979    2.5050    0.7596 H   0  0  0  0  0  0  0  0  0  0  0  0
    0.0769    1.1330    1.7160 H   0  0  0  0  0  0  0  0  0  0  0  0
   -0.5978   -2.5050    0.7597 H   0  0  0  0  0  0  0  0  0  0  0  0
   -0.0766   -1.1330    1.7160 H   0  0  0  0  0  0  0  0  0  0  0  0
   -1.5208    2.7400   -0.3227 H   0  0  0  0  0  0  0  0  0  0  0  0
   -1.8258    2.5550    1.4097 H   0  0  0  0  0  0  0  0  0  0  0  0
    1.5209   -2.7400   -0.3232 H   0  0  0  0  0  0  0  0  0  0  0  0
    1.8260   -2.5554    1.4094 H   0  0  0  0  0  0  0  0  0  0  0  0
    2.4861    2.3313   -0.9444 H   0  0  0  0  0  0  0  0  0  0  0  0
   -2.4864   -2.3312   -0.9444 H   0  0  0  0  0  0  0  0  0  0  0  0
    4.1728   -2.0528    0.6305 H   0  0  0  0  0  0  0  0  0  0  0  0
   -4.1726    2.0529    0.6304 H   0  0  0  0  0  0  0  0  0  0  0  0
    4.9091    1.9393   -0.7411 H   0  0  0  0  0  0  0  0  0  0  0  0
   -4.9093   -1.9391   -0.7410 H   0  0  0  0  0  0  0  0  0  0  0  0
    5.7547   -0.2531    0.0502 H   0  0  0  0  0  0  0  0  0  0  0  0
   -5.7547    0.2534    0.0502 H   0  0  0  0  0  0  0  0  0  0  0  0
  1  2  1  0  0  0  0
  1  3  1  0  0  0  0
  1  5  1  0  0  0  0
  1 19  1  0  0  0  0
  2  4  1  0  0  0  0
  2  6  1  0  0  0  0
  2 20  1  0  0  0  0
  3  7  1  0  0  0  0
  3 21  1  0  0  0  0
  3 22  1  0  0  0  0
  4  8  1  0  0  0  0
  4 23  1  0  0  0  0
  4 24  1  0  0  0  0
  5  9  1  0  0  0  0
  5 11  2  0  0  0  0
  6 10  1  0  0  0  0
  6 12  2  0  0  0  0
  7 10  1  0  0  0  0
  7 25  1  0  0  0  0
  7 26  1  0  0  0  0
  8  9  1  0  0  0  0
  8 27  1  0  0  0  0
  8 28  1  0  0  0  0
  9 13  2  0  0  0  0
 10 14  2  0  0  0  0
 11 15  1  0  0  0  0
 11 29  1  0  0  0  0
 12 16  1  0  0  0  0
 12 30  1  0  0  0  0
 13 17  1  0  0  0  0
 13 31  1  0  0  0  0
 14 18  1  0  0  0  0
 14 32  1  0  0  0  0
 15 17  2  0  0  0  0
 15 33  1  0  0  0  0
 16 18  2  0  0  0  0
 16 34  1  0  0  0  0
 17 35  1  0  0  0  0
 18 36  1  0  0  0  0
M  END
> <PUBCHEM_COMPOUND_CID>
582770

> <PUBCHEM_CONFORMER_RMSD>
0.6

> <PUBCHEM_CONFORMER_DIVERSEORDER>
1
3
4
2

> <PUBCHEM_MMFF94_PARTIAL_CHARGES>
24
1 0.14
10 -0.14
11 -0.15
12 -0.15
13 -0.15
14 -0.15
15 -0.15
16 -0.15
17 -0.15
18 -0.15
2 0.14
29 0.15
30 0.15
31 0.15
32 0.15
33 0.15
34 0.15
35 0.15
36 0.15
5 -0.14
6 -0.14
7 0.14
8 0.14
9 -0.14

> <PUBCHEM_EFFECTIVE_ROTOR_COUNT>
0.8

> <PUBCHEM_PHARMACOPHORE_FEATURES>
4
6 1 2 3 6 7 10 rings
6 1 2 4 5 8 9 rings
6 5 9 11 13 15 17 rings
6 6 10 12 14 16 18 rings

> <PUBCHEM_HEAVY_ATOM_COUNT>
18

> <PUBCHEM_ATOM_DEF_STEREO_COUNT>
0

> <PUBCHEM_ATOM_UDEF_STEREO_COUNT>
2

> <PUBCHEM_BOND_DEF_STEREO_COUNT>
0

> <PUBCHEM_BOND_UDEF_STEREO_COUNT>
0

> <PUBCHEM_ISOTOPIC_ATOM_COUNT>
0

> <PUBCHEM_COMPONENT_COUNT>
1

> <PUBCHEM_CACTVS_TAUTO_COUNT>
1

> <PUBCHEM_CONFORMER_ID>
0008E47200000001

> <PUBCHEM_MMFF94_ENERGY>
49.777

> <PUBCHEM_FEATURE_SELFOVERLAP>
20.373

> <PUBCHEM_SHAPE_FINGERPRINT>
10062212 137 18408891728287831543
10616163 171 18335419058548316367
10967382 1 18412262848176250306
11132069 177 18334861640259005936
11471102 20 18343867714569970958
11806522 49 18411702071196666983
12107183 9 17689999354737197712
12236239 1 18410573993741385861
12403814 3 18131633413440930725
12592029 89 17132124549769350706
13167823 11 18410856568240410198
13221675 6 18334296478587402607
13583140 156 16056880174331662912
13760787 19 18410292519202486125
14178342 30 17978524344708720106
14787075 74 18411138000293698323
14790565 3 18117549859285303793
15196674 1 18410856568229724165
15375462 189 18410011048520788475
15442244 35 18122907791951964962
15536298 74 18335983155384222814
16945 1 18194682798273462317
17349148 13 18201722859936835698
17492 89 18337672039341228023
17862501 102 18340773731904596930
18186145 218 18273217503947560774
18522853 276 18407761438729051680
19050596 39 18410856581119900922
19422 9 18408322206812732359
200 152 18410295804646810663
20510252 161 17895754135571793721
21267235 1 18409721868209549479
22854114 111 18272367594196414044
23402539 116 18261398831816890126
23402655 69 18411983593565918997
23463225 33 18410856602605293367
23557571 272 17603863433697630738
23559900 14 17970628708596807990
26918003 58 18060419109907607835
2748010 2 17473825022140219578
2871803 45 18413112766147942975
296302 2 17847058878484901295
34934 24 18336267933364798901
4214541 1 18409729594755468757
4340502 62 17417518216513744193
4409770 3 16039433532050150438
474 4 18060133202820170132
4921388 177 16558460890896897107
4990 188 18113891676460902502
5104073 3 18410573993741386666
53655031 270 18410575110432882699
537710 114 18409446981459359376
602551 16 16371020550354991342
6034566 193 16338607905900165964
69090 78 18411700971927892134
7364860 26 18263641943291933238
77779 3 18410291419268943151
9709674 26 18410284835274469646
9981440 41 17402899916785281792

> <PUBCHEM_SHAPE_MULTIPOLES>
370.43
8.83
1.99
0.81
0
0
0.02
0
-0.94
0
0.29
0
0
-0.9

> <PUBCHEM_SHAPE_SELFOVERLAP>
821.844

> <PUBCHEM_SHAPE_VOLUME>
186.4

> <PUBCHEM_COORDINATE_TYPE>
2
5
10

$$$$

