11954129
  -OEChem-07051213072D

 23 25  0     0  0  0  0  0  0999 V2000
    8.3504   -1.4303    0.0000 Cl  0  0  0  0  0  0  0  0  0  0  0  0
    5.4787    1.4303    0.0000 O   0  0  0  0  0  0  0  0  0  0  0  0
    8.9834    0.5178    0.0000 O   0  0  0  0  0  0  0  0  0  0  0  0
    2.6069   -1.4303    0.0000 O   0  0  0  0  0  0  0  0  0  0  0  0
    5.9787   -0.1085    0.0000 C   0  0  0  0  0  0  0  0  0  0  0  0
    4.9787   -0.1085    0.0000 C   0  0  0  0  0  0  0  0  0  0  0  0
    6.2877    0.8425    0.0000 C   0  0  0  0  0  0  0  0  0  0  0  0
    4.6697    0.8425    0.0000 C   0  0  0  0  0  0  0  0  0  0  0  0
    6.6636   -0.8933    0.0000 C   0  0  0  0  0  0  0  0  0  0  0  0
    4.2937   -0.8933    0.0000 C   0  0  0  0  0  0  0  0  0  0  0  0
    7.3031    1.0748    0.0000 C   0  0  0  0  0  0  0  0  0  0  0  0
    3.6543    1.0748    0.0000 C   0  0  0  0  0  0  0  0  0  0  0  0
    7.6842   -0.6846    0.0000 C   0  0  0  0  0  0  0  0  0  0  0  0
    8.0060    0.3061    0.0000 C   0  0  0  0  0  0  0  0  0  0  0  0
    3.2732   -0.6846    0.0000 C   0  0  0  0  0  0  0  0  0  0  0  0
    2.9513    0.3061    0.0000 C   0  0  0  0  0  0  0  0  0  0  0  0
    6.4653   -1.4807    0.0000 H   0  0  0  0  0  0  0  0  0  0  0  0
    4.4921   -1.4807    0.0000 H   0  0  0  0  0  0  0  0  0  0  0  0
    7.4879    1.6666    0.0000 H   0  0  0  0  0  0  0  0  0  0  0  0
    3.4695    1.6666    0.0000 H   0  0  0  0  0  0  0  0  0  0  0  0
    2.3454    0.4373    0.0000 H   0  0  0  0  0  0  0  0  0  0  0  0
    9.1727    1.1081    0.0000 H   0  0  0  0  0  0  0  0  0  0  0  0
    2.0000   -1.3037    0.0000 H   0  0  0  0  0  0  0  0  0  0  0  0
  1 13  1  0  0  0  0
  2  7  1  0  0  0  0
  2  8  1  0  0  0  0
  3 14  1  0  0  0  0
  3 22  1  0  0  0  0
  4 15  1  0  0  0  0
  4 23  1  0  0  0  0
  5  6  1  0  0  0  0
  5  7  1  0  0  0  0
  5  9  2  0  0  0  0
  6  8  2  0  0  0  0
  6 10  1  0  0  0  0
  7 11  2  0  0  0  0
  8 12  1  0  0  0  0
  9 13  1  0  0  0  0
  9 17  1  0  0  0  0
 10 15  2  0  0  0  0
 10 18  1  0  0  0  0
 11 14  1  0  0  0  0
 11 19  1  0  0  0  0
 12 16  2  0  0  0  0
 12 20  1  0  0  0  0
 13 14  2  0  0  0  0
 15 16  1  0  0  0  0
 16 21  1  0  0  0  0
M  END
> <PUBCHEM_COMPOUND_CID>
11954129

> <PUBCHEM_COMPOUND_CANONICALIZED>
1

> <PUBCHEM_CACTVS_COMPLEXITY>
273

> <PUBCHEM_CACTVS_HBOND_ACCEPTOR>
3

> <PUBCHEM_CACTVS_HBOND_DONOR>
2

> <PUBCHEM_CACTVS_ROTATABLE_BOND>
0

> <PUBCHEM_CACTVS_SUBSKEYS>
AAADcYBwMAAEAAAAAAAAAAAAAAAAASAAAAAwYAAAAAAAAEgB/AAAGgIACAAADAaAmCAwBsAABkCIAqBSAAACCAAkJUAIiAEGC8gMJzaHNxqCeWCl4BUIuYfK7PzOoSABKAAICABCQAJQABAQAAAAAAAAAA==

> <PUBCHEM_IUPAC_OPENEYE_NAME>
8-chlorodibenzofuran-2,7-diol

> <PUBCHEM_IUPAC_CAS_NAME>
8-chlorodibenzofuran-2,7-diol

> <PUBCHEM_IUPAC_NAME>
8-chlorodibenzofuran-2,7-diol

> <PUBCHEM_IUPAC_SYSTEMATIC_NAME>
8-chloranyldibenzofuran-2,7-diol

> <PUBCHEM_IUPAC_TRADITIONAL_NAME>
8-chlorodibenzofuran-2,7-diol

> <PUBCHEM_IUPAC_INCHI>
InChI=1S/C12H7ClO3/c13-9-4-8-7-3-6(14)1-2-11(7)16-12(8)5-10(9)15/h1-5,14-15H

> <PUBCHEM_IUPAC_INCHIKEY>
IRPYRTZTPXYMQI-UHFFFAOYSA-N

> <PUBCHEM_XLOGP3_AA>
3.6

> <PUBCHEM_EXACT_MASS>
234.008372

> <PUBCHEM_MOLECULAR_FORMULA>
C12H7ClO3

> <PUBCHEM_MOLECULAR_WEIGHT>
234.63518

> <PUBCHEM_OPENEYE_CAN_SMILES>
C1=CC2=C(C=C1O)C3=CC(=C(C=C3O2)O)Cl

> <PUBCHEM_OPENEYE_ISO_SMILES>
C1=CC2=C(C=C1O)C3=CC(=C(C=C3O2)O)Cl

> <PUBCHEM_CACTVS_TPSA>
53.6

> <PUBCHEM_MONOISOTOPIC_WEIGHT>
234.008372

> <PUBCHEM_TOTAL_CHARGE>
0

> <PUBCHEM_HEAVY_ATOM_COUNT>
16

> <PUBCHEM_ATOM_DEF_STEREO_COUNT>
0

> <PUBCHEM_ATOM_UDEF_STEREO_COUNT>
0

> <PUBCHEM_BOND_DEF_STEREO_COUNT>
0

> <PUBCHEM_BOND_UDEF_STEREO_COUNT>
0

> <PUBCHEM_ISOTOPIC_ATOM_COUNT>
0

> <PUBCHEM_COMPONENT_COUNT>
1

> <PUBCHEM_CACTVS_TAUTO_COUNT>
15

> <PUBCHEM_COORDINATE_TYPE>
1
5
255

> <PUBCHEM_BONDANNOTATIONS>
10  15  8
11  14  8
12  16  8
13  14  8
15  16  8
2  7  8
2  8  8
5  6  8
5  7  8
5  9  8
6  10  8
6  8  8
7  11  8
8  12  8
9  13  8

$$$$

