36401
  -OEChem-07051213053D

 22 23  0     0  0  0  0  0  0999 V2000
   -0.2385   -2.5858   -0.0006 Cl  0  0  0  0  0  0  0  0  0  0  0  0
    2.9174   -2.5405   -0.0006 Cl  0  0  0  0  0  0  0  0  0  0  0  0
    2.7395    2.9213    0.0000 Cl  0  0  0  0  0  0  0  0  0  0  0  0
    4.4346    0.2224    0.0014 Cl  0  0  0  0  0  0  0  0  0  0  0  0
   -0.1000    0.1221   -0.0009 C   0  0  0  0  0  0  0  0  0  0  0  0
   -1.5466    0.1530   -0.0003 C   0  0  0  0  0  0  0  0  0  0  0  0
    0.6250   -1.0728   -0.0009 C   0  0  0  0  0  0  0  0  0  0  0  0
    0.5801    1.3426   -0.0002 C   0  0  0  0  0  0  0  0  0  0  0  0
   -2.2444    0.1688   -1.2080 C   0  0  0  0  0  0  0  0  0  0  0  0
   -2.2433    0.1668    1.2079 C   0  0  0  0  0  0  0  0  0  0  0  0
    2.0197   -1.0471   -0.0004 C   0  0  0  0  0  0  0  0  0  0  0  0
    1.9747    1.3686    0.0004 C   0  0  0  0  0  0  0  0  0  0  0  0
    2.6945    0.1737    0.0003 C   0  0  0  0  0  0  0  0  0  0  0  0
   -3.6390    0.1985   -1.2074 C   0  0  0  0  0  0  0  0  0  0  0  0
   -3.6379    0.1963    1.2086 C   0  0  0  0  0  0  0  0  0  0  0  0
   -4.3357    0.2122    0.0008 C   0  0  0  0  0  0  0  0  0  0  0  0
    0.0207    2.2770   -0.0002 H   0  0  0  0  0  0  0  0  0  0  0  0
   -1.7168    0.1579   -2.1589 H   0  0  0  0  0  0  0  0  0  0  0  0
   -1.7149    0.1544    2.1584 H   0  0  0  0  0  0  0  0  0  0  0  0
   -4.1824    0.2107   -2.1477 H   0  0  0  0  0  0  0  0  0  0  0  0
   -4.1805    0.2068    2.1493 H   0  0  0  0  0  0  0  0  0  0  0  0
   -5.4216    0.2351    0.0014 H   0  0  0  0  0  0  0  0  0  0  0  0
  1  7  1  0  0  0  0
  2 11  1  0  0  0  0
  3 12  1  0  0  0  0
  4 13  1  0  0  0  0
  5  6  1  0  0  0  0
  5  7  1  0  0  0  0
  5  8  2  0  0  0  0
  6  9  2  0  0  0  0
  6 10  1  0  0  0  0
  7 11  2  0  0  0  0
  8 12  1  0  0  0  0
  8 17  1  0  0  0  0
  9 14  1  0  0  0  0
  9 18  1  0  0  0  0
 10 15  2  0  0  0  0
 10 19  1  0  0  0  0
 11 13  1  0  0  0  0
 12 13  2  0  0  0  0
 14 16  2  0  0  0  0
 14 20  1  0  0  0  0
 15 16  1  0  0  0  0
 15 21  1  0  0  0  0
 16 22  1  0  0  0  0
M  END
> <PUBCHEM_COMPOUND_CID>
36401

> <PUBCHEM_CONFORMER_RMSD>
0.6

> <PUBCHEM_CONFORMER_DIVERSEORDER>
1

> <PUBCHEM_MMFF94_PARTIAL_CHARGES>
20
1 -0.18
10 -0.15
11 0.18
12 0.18
13 0.18
14 -0.15
15 -0.15
16 -0.15
17 0.15
18 0.15
19 0.15
2 -0.18
20 0.15
21 0.15
22 0.15
3 -0.18
4 -0.18
7 0.18
8 -0.15
9 -0.15

> <PUBCHEM_EFFECTIVE_ROTOR_COUNT>
1

> <PUBCHEM_PHARMACOPHORE_FEATURES>
2
6 5 7 8 11 12 13 rings
6 6 9 10 14 15 16 rings

> <PUBCHEM_HEAVY_ATOM_COUNT>
16

> <PUBCHEM_ATOM_DEF_STEREO_COUNT>
0

> <PUBCHEM_ATOM_UDEF_STEREO_COUNT>
0

> <PUBCHEM_BOND_DEF_STEREO_COUNT>
0

> <PUBCHEM_BOND_UDEF_STEREO_COUNT>
0

> <PUBCHEM_ISOTOPIC_ATOM_COUNT>
0

> <PUBCHEM_COMPONENT_COUNT>
1

> <PUBCHEM_CACTVS_TAUTO_COUNT>
1

> <PUBCHEM_CONFORMER_ID>
00008E3100000001

> <PUBCHEM_MMFF94_ENERGY>
49.0719

> <PUBCHEM_FEATURE_SELFOVERLAP>
10.149

> <PUBCHEM_SHAPE_FINGERPRINT>
10608611 8 18201726162809267573
10967382 1 18410575098091338726
11471102 20 18411419522831586196
11725454 13 16840836367440940517
12236239 1 17676488358777252329
12390115 104 17761196731820860840
12553582 1 18121214544045664094
13134695 92 18341056327788585628
13140716 1 18266743472488835008
13583140 156 16628585534508023400
13862211 1 18338521936750232838
14251717 144 18409733988401426535
14911166 2 18410006629252680948
15219456 202 18060137673907342943
15309172 13 18412259519587184419
15342168 16 18269265760531867701
15653759 3 17203609280906034673
16945 1 18410855456334373892
1813 80 17897994983461597374
18175812 5 17775282738238984957
18186145 218 18334856104072671613
19049666 15 17702110363985753085
19422 9 17894914040253389623
200 152 18260838111542267397
20279233 1 17775282776935940627
204376 136 18267866082092233776
20645477 70 18340215205541020519
21041028 32 18119802766651288368
21501502 16 18122627154588614630
21639500 275 18409738334971594677
2255824 54 18335136509855817590
22854114 111 18410009905653662752
2334 1 17906453230208695852
23402539 116 17894351090004659884
23557571 272 17203607086668227149
23559900 14 16702026430179755354
23598291 2 17823416183074539591
25 1 18411700950537386796
2748010 2 18050843326261502628
3060560 45 18408325497195622398
350125 39 17979347560942572976
474 4 18262242092959084512
6049 1 17846212297840116973
633830 44 18115009845173781317
7364860 26 18408604764706569100
77492 1 17676488358740309569
81228 2 16682336633426125442
8272917 22 18335414729505540367
84936 182 18041565728171141352
9981440 41 16523034462709258408

> <PUBCHEM_SHAPE_MULTIPOLES>
336.75
7.51
2.45
0.98
2.49
0.4
0
-1.23
0
-3.07
0
1.04
-0.07
0

> <PUBCHEM_SHAPE_SELFOVERLAP>
694.787

> <PUBCHEM_SHAPE_VOLUME>
186.4

> <PUBCHEM_COORDINATE_TYPE>
2
5
10

$$$$

