5282314
  -OEChem-07051213042D

 52 51  0     1  0  0  0  0  0999 V2000
    9.7942   -4.0000    0.0000 O   0  0  0  0  0  0  0  0  0  0  0  0
   11.5263   -3.0000    0.0000 O   0  0  0  0  0  0  0  0  0  0  0  0
   10.6603   -1.5000    0.0000 O   0  0  0  0  0  0  0  0  0  0  0  0
    3.7320    0.5000    0.0000 C   0  0  0  0  0  0  0  0  0  0  0  0
    3.7320    1.5000    0.0000 C   0  0  0  0  0  0  0  0  0  0  0  0
    4.5981    0.0000    0.0000 C   0  0  0  0  0  0  0  0  0  0  0  0
    2.8660    2.0000    0.0000 C   0  0  0  0  0  0  0  0  0  0  0  0
    4.5981   -1.0000    0.0000 C   0  0  0  0  0  0  0  0  0  0  0  0
    2.8660    3.0000    0.0000 C   0  0  0  0  0  0  0  0  0  0  0  0
    5.4641   -1.5000    0.0000 C   0  0  0  0  0  0  0  0  0  0  0  0
    2.0000    3.5000    0.0000 C   0  0  0  0  0  0  0  0  0  0  0  0
    8.0622   -3.0000    0.0000 C   0  0  0  0  0  0  0  0  0  0  0  0
    7.1962   -2.5000    0.0000 C   0  0  0  0  0  0  0  0  0  0  0  0
    8.9282   -2.5000    0.0000 C   0  0  0  0  0  0  0  0  0  0  0  0
    5.4641   -2.5000    0.0000 C   0  0  0  0  0  0  0  0  0  0  0  0
    6.3301   -3.0000    0.0000 C   0  0  0  0  0  0  0  0  0  0  0  0
    9.7942   -3.0000    0.0000 C   0  0  3  0  0  0  0  0  0  0  0  0
    2.0000    4.5000    0.0000 C   0  0  0  0  0  0  0  0  0  0  0  0
   10.6603   -2.5000    0.0000 C   0  0  0  0  0  0  0  0  0  0  0  0
    8.9282   -4.5000    0.0000 C   0  0  0  0  0  0  0  0  0  0  0  0
    3.1215    0.6077    0.0000 H   0  0  0  0  0  0  0  0  0  0  0  0
    3.5200   -0.0826    0.0000 H   0  0  0  0  0  0  0  0  0  0  0  0
    4.3426    1.3923    0.0000 H   0  0  0  0  0  0  0  0  0  0  0  0
    3.9441    2.0826    0.0000 H   0  0  0  0  0  0  0  0  0  0  0  0
    5.2087   -0.1077    0.0000 H   0  0  0  0  0  0  0  0  0  0  0  0
    4.8101    0.5826    0.0000 H   0  0  0  0  0  0  0  0  0  0  0  0
    2.2554    2.1077    0.0000 H   0  0  0  0  0  0  0  0  0  0  0  0
    2.6540    1.4174    0.0000 H   0  0  0  0  0  0  0  0  0  0  0  0
    3.9875   -0.8923    0.0000 H   0  0  0  0  0  0  0  0  0  0  0  0
    4.3860   -1.5826    0.0000 H   0  0  0  0  0  0  0  0  0  0  0  0
    3.4766    2.8923    0.0000 H   0  0  0  0  0  0  0  0  0  0  0  0
    3.0781    3.5826    0.0000 H   0  0  0  0  0  0  0  0  0  0  0  0
    6.0747   -1.6077    0.0000 H   0  0  0  0  0  0  0  0  0  0  0  0
    5.6762   -0.9174    0.0000 H   0  0  0  0  0  0  0  0  0  0  0  0
    1.3894    3.6077    0.0000 H   0  0  0  0  0  0  0  0  0  0  0  0
    1.7880    2.9174    0.0000 H   0  0  0  0  0  0  0  0  0  0  0  0
    7.6636   -3.4750    0.0000 H   0  0  0  0  0  0  0  0  0  0  0  0
    8.4607   -3.4750    0.0000 H   0  0  0  0  0  0  0  0  0  0  0  0
    7.5947   -2.0250    0.0000 H   0  0  0  0  0  0  0  0  0  0  0  0
    6.7976   -2.0250    0.0000 H   0  0  0  0  0  0  0  0  0  0  0  0
    9.3267   -2.0250    0.0000 H   0  0  0  0  0  0  0  0  0  0  0  0
    8.5297   -2.0250    0.0000 H   0  0  0  0  0  0  0  0  0  0  0  0
    4.9272   -2.8100    0.0000 H   0  0  0  0  0  0  0  0  0  0  0  0
    6.3301   -3.6200    0.0000 H   0  0  0  0  0  0  0  0  0  0  0  0
    9.2573   -3.3100    0.0000 H   0  0  0  0  0  0  0  0  0  0  0  0
    2.6200    4.5000    0.0000 H   0  0  0  0  0  0  0  0  0  0  0  0
    2.0000    5.1200    0.0000 H   0  0  0  0  0  0  0  0  0  0  0  0
    1.3800    4.5000    0.0000 H   0  0  0  0  0  0  0  0  0  0  0  0
    8.6182   -3.9631    0.0000 H   0  0  0  0  0  0  0  0  0  0  0  0
    8.3913   -4.8100    0.0000 H   0  0  0  0  0  0  0  0  0  0  0  0
    9.2382   -5.0369    0.0000 H   0  0  0  0  0  0  0  0  0  0  0  0
   12.0632   -2.6900    0.0000 H   0  0  0  0  0  0  0  0  0  0  0  0
  1 17  1  0  0  0  0
  1 20  1  0  0  0  0
  2 19  1  0  0  0  0
  2 52  1  0  0  0  0
  3 19  2  0  0  0  0
  4  5  1  0  0  0  0
  4  6  1  0  0  0  0
  4 21  1  0  0  0  0
  4 22  1  0  0  0  0
  5  7  1  0  0  0  0
  5 23  1  0  0  0  0
  5 24  1  0  0  0  0
  6  8  1  0  0  0  0
  6 25  1  0  0  0  0
  6 26  1  0  0  0  0
  7  9  1  0  0  0  0
  7 27  1  0  0  0  0
  7 28  1  0  0  0  0
  8 10  1  0  0  0  0
  8 29  1  0  0  0  0
  8 30  1  0  0  0  0
  9 11  1  0  0  0  0
  9 31  1  0  0  0  0
  9 32  1  0  0  0  0
 10 15  1  0  0  0  0
 10 33  1  0  0  0  0
 10 34  1  0  0  0  0
 11 18  1  0  0  0  0
 11 35  1  0  0  0  0
 11 36  1  0  0  0  0
 12 13  1  0  0  0  0
 12 14  1  0  0  0  0
 12 37  1  0  0  0  0
 12 38  1  0  0  0  0
 13 16  1  0  0  0  0
 13 39  1  0  0  0  0
 13 40  1  0  0  0  0
 14 17  1  0  0  0  0
 14 41  1  0  0  0  0
 14 42  1  0  0  0  0
 15 16  2  0  0  0  0
 15 43  1  0  0  0  0
 16 44  1  0  0  0  0
 17 19  1  0  0  0  0
 17 45  1  0  0  0  0
 18 46  1  0  0  0  0
 18 47  1  0  0  0  0
 18 48  1  0  0  0  0
 20 49  1  0  0  0  0
 20 50  1  0  0  0  0
 20 51  1  0  0  0  0
M  END
> <PUBCHEM_COMPOUND_CID>
5282314

> <PUBCHEM_COMPOUND_CANONICALIZED>
1

> <PUBCHEM_CACTVS_COMPLEXITY>
249

> <PUBCHEM_CACTVS_HBOND_ACCEPTOR>
3

> <PUBCHEM_CACTVS_HBOND_DONOR>
1

> <PUBCHEM_CACTVS_ROTATABLE_BOND>
14

> <PUBCHEM_CACTVS_SUBSKEYS>
AAADcfB4MAAAAAAAAAAAAAAAAAAAAAAAAAAAAAAAAAAAAAAAAAAAGgAACAAACBSggAICCAAABgCIACDSCAIAAAAgAAAICAFAAAgBABIAAQQAQAAEgAALAAOIyIAAAAAAAAAAAAAAAAAAAAAAAAAAAAAAAA==

> <PUBCHEM_IUPAC_OPENEYE_NAME>
(Z)-2-methoxyhexadec-6-enoic acid

> <PUBCHEM_IUPAC_CAS_NAME>
(Z)-2-methoxy-6-hexadecenoic acid

> <PUBCHEM_IUPAC_NAME>
(Z)-2-methoxyhexadec-6-enoic acid

> <PUBCHEM_IUPAC_SYSTEMATIC_NAME>
(Z)-2-methoxyhexadec-6-enoic acid

> <PUBCHEM_IUPAC_TRADITIONAL_NAME>
(Z)-2-methoxyhexadec-6-enoic acid

> <PUBCHEM_IUPAC_INCHI>
InChI=1S/C17H32O3/c1-3-4-5-6-7-8-9-10-11-12-13-14-15-16(20-2)17(18)19/h11-12,16H,3-10,13-15H2,1-2H3,(H,18,19)/b12-11-

> <PUBCHEM_IUPAC_INCHIKEY>
KGJRSNOTKLROQM-QXMHVHEDSA-N

> <PUBCHEM_XLOGP3_AA>
6

> <PUBCHEM_EXACT_MASS>
284.235145

> <PUBCHEM_MOLECULAR_FORMULA>
C17H32O3

> <PUBCHEM_MOLECULAR_WEIGHT>
284.43418

> <PUBCHEM_OPENEYE_CAN_SMILES>
CCCCCCCCCC=CCCCC(C(=O)O)OC

> <PUBCHEM_OPENEYE_ISO_SMILES>
CCCCCCCCC/C=C\CCCC(C(=O)O)OC

> <PUBCHEM_CACTVS_TPSA>
46.5

> <PUBCHEM_MONOISOTOPIC_WEIGHT>
284.235145

> <PUBCHEM_TOTAL_CHARGE>
0

> <PUBCHEM_HEAVY_ATOM_COUNT>
20

> <PUBCHEM_ATOM_DEF_STEREO_COUNT>
0

> <PUBCHEM_ATOM_UDEF_STEREO_COUNT>
1

> <PUBCHEM_BOND_DEF_STEREO_COUNT>
1

> <PUBCHEM_BOND_UDEF_STEREO_COUNT>
0

> <PUBCHEM_ISOTOPIC_ATOM_COUNT>
0

> <PUBCHEM_COMPONENT_COUNT>
1

> <PUBCHEM_CACTVS_TAUTO_COUNT>
1

> <PUBCHEM_COORDINATE_TYPE>
1
5
255

> <PUBCHEM_BONDANNOTATIONS>
17  14  3

$$$$

