47205566
  -OEChem-06241222593D

 33 34  0     1  0  0  0  0  0999 V2000
   -4.0566   -1.5813   -0.1408 O   0  0  0  0  0  0  0  0  0  0  0  0
   -1.1591    2.4256    0.3605 O   0  0  0  0  0  0  0  0  0  0  0  0
    0.5356    0.4218    1.8050 O   0  0  0  0  0  0  0  0  0  0  0  0
    4.5291   -0.2571   -1.1657 O   0  0  0  0  0  0  0  0  0  0  0  0
   -1.9271    0.2548   -0.1022 N   0  0  0  0  0  0  0  0  0  0  0  0
    1.1930    0.6635   -0.4557 N   0  0  0  0  0  0  0  0  0  0  0  0
    3.2902    0.2194   -1.5769 N   0  0  0  0  0  0  0  0  0  0  0  0
   -4.3343   -0.1895    0.0691 C   0  0  1  0  0  0  0  0  0  0  0  0
   -3.2445    0.6586   -0.5878 C   0  0  0  0  0  0  0  0  0  0  0  0
   -1.6637   -1.1846   -0.1734 C   0  0  0  0  0  0  0  0  0  0  0  0
   -2.8135   -1.9588    0.4572 C   0  0  0  0  0  0  0  0  0  0  0  0
   -5.7001    0.1099   -0.5313 C   0  0  0  0  0  0  0  0  0  0  0  0
   -1.0035    1.2143    0.2806 C   0  0  0  0  0  0  0  0  0  0  0  0
    0.3462    0.7160    0.6333 C   0  0  0  0  0  0  0  0  0  0  0  0
    2.5419    0.2369   -0.4702 C   0  0  0  0  0  0  0  0  0  0  0  0
    3.2482   -0.2132    0.6587 C   0  0  0  0  0  0  0  0  0  0  0  0
    4.4917   -0.5111    0.1674 C   0  0  0  0  0  0  0  0  0  0  0  0
    5.7267   -1.0252    0.7723 C   0  0  0  0  0  0  0  0  0  0  0  0
   -4.3695    0.0015    1.1493 H   0  0  0  0  0  0  0  0  0  0  0  0
   -3.4146    1.7245   -0.4036 H   0  0  0  0  0  0  0  0  0  0  0  0
   -3.2331    0.5010   -1.6733 H   0  0  0  0  0  0  0  0  0  0  0  0
   -1.5823   -1.4308   -1.2387 H   0  0  0  0  0  0  0  0  0  0  0  0
   -0.7230   -1.4564    0.3096 H   0  0  0  0  0  0  0  0  0  0  0  0
   -2.8659   -1.7853    1.5386 H   0  0  0  0  0  0  0  0  0  0  0  0
   -2.6759   -3.0326    0.2968 H   0  0  0  0  0  0  0  0  0  0  0  0
   -6.4677   -0.5149   -0.0619 H   0  0  0  0  0  0  0  0  0  0  0  0
   -5.9733    1.1605   -0.3941 H   0  0  0  0  0  0  0  0  0  0  0  0
   -5.7186   -0.1220   -1.6019 H   0  0  0  0  0  0  0  0  0  0  0  0
    0.8417    0.9553   -1.3644 H   0  0  0  0  0  0  0  0  0  0  0  0
    2.9283   -0.3162    1.6844 H   0  0  0  0  0  0  0  0  0  0  0  0
    5.5988   -1.1984    1.8454 H   0  0  0  0  0  0  0  0  0  0  0  0
    6.5460   -0.3119    0.6397 H   0  0  0  0  0  0  0  0  0  0  0  0
    6.0169   -1.9729    0.3084 H   0  0  0  0  0  0  0  0  0  0  0  0
  1  8  1  0  0  0  0
  1 11  1  0  0  0  0
  2 13  2  0  0  0  0
  3 14  2  0  0  0  0
  4  7  1  0  0  0  0
  4 17  1  0  0  0  0
  5  9  1  0  0  0  0
  5 10  1  0  0  0  0
  5 13  1  0  0  0  0
  6 14  1  0  0  0  0
  6 15  1  0  0  0  0
  6 29  1  0  0  0  0
  7 15  2  0  0  0  0
  8  9  1  0  0  0  0
  8 12  1  0  0  0  0
  8 19  1  0  0  0  0
  9 20  1  0  0  0  0
  9 21  1  0  0  0  0
 10 11  1  0  0  0  0
 10 22  1  0  0  0  0
 10 23  1  0  0  0  0
 11 24  1  0  0  0  0
 11 25  1  0  0  0  0
 12 26  1  0  0  0  0
 12 27  1  0  0  0  0
 12 28  1  0  0  0  0
 13 14  1  0  0  0  0
 15 16  1  0  0  0  0
 16 17  2  0  0  0  0
 16 30  1  0  0  0  0
 17 18  1  0  0  0  0
 18 31  1  0  0  0  0
 18 32  1  0  0  0  0
 18 33  1  0  0  0  0
M  END
> <PUBCHEM_COMPOUND_CID>
47205566

> <PUBCHEM_CONFORMER_RMSD>
0.6

> <PUBCHEM_CONFORMER_DIVERSEORDER>
1
23
21
28
27
17
15
19
30
29
16
14
25
12
22
31
10
24
9
8
33
7
32
11
20
18
34
3
2
13
26
5
6
4

> <PUBCHEM_MMFF94_PARTIAL_CHARGES>
19
1 -0.56
10 0.3
11 0.28
13 0.63
14 0.63
15 0.35
16 -0.15
17 -0.04
18 0.18
2 -0.57
29 0.37
3 -0.57
30 0.15
4 -0.02
5 -0.66
6 -0.49
7 -0.41
8 0.28
9 0.3

> <PUBCHEM_EFFECTIVE_ROTOR_COUNT>
5.2

> <PUBCHEM_PHARMACOPHORE_FEATURES>
6
1 1 acceptor
1 2 acceptor
1 3 acceptor
1 6 donor
5 4 7 15 16 17 rings
6 1 5 8 9 10 11 rings

> <PUBCHEM_HEAVY_ATOM_COUNT>
18

> <PUBCHEM_ATOM_DEF_STEREO_COUNT>
0

> <PUBCHEM_ATOM_UDEF_STEREO_COUNT>
1

> <PUBCHEM_BOND_DEF_STEREO_COUNT>
0

> <PUBCHEM_BOND_UDEF_STEREO_COUNT>
0

> <PUBCHEM_ISOTOPIC_ATOM_COUNT>
0

> <PUBCHEM_COMPONENT_COUNT>
1

> <PUBCHEM_CACTVS_TAUTO_COUNT>
8

> <PUBCHEM_CONFORMER_ID>
02D04CBE00000001

> <PUBCHEM_MMFF94_ENERGY>
24.6314

> <PUBCHEM_FEATURE_SELFOVERLAP>
30.447

> <PUBCHEM_SHAPE_FINGERPRINT>
10354089 29 5617250434205036050
10465860 250 18187085052703525192
10803635 8 18131642205043605479
11128504 68 17060337396694536966
11796584 16 18411138039165331274
11833330 49 18411138056171309177
12236239 1 17775284975658528733
12251169 10 6266896870364214232
12507560 40 8069762787809462801
12730499 353 13830130619718866360
12815109 37 17822013107463565038
12892183 10 4750889142838654735
13288520 33 18410012156416589668
13862211 1 18408326566948511807
14115302 16 18271803493133663871
14251731 8 18412827988668546231
14251752 14 17988934413262783821
14251764 30 16985724426566603875
14252887 29 16226040111600957476
14386348 63 17749106690480753198
15099037 51 18409731751345756303
15375358 24 17748824120181841615
17804303 29 18336828594221795355
1813 80 15357964651933031672
18186145 218 15267064705369693796
19141452 34 17240768346161708951
19784866 240 18059856220711761662
19862831 5 17632579335672218233
200 152 17846497045602837072
20279233 1 17675922092850680886
20374829 77 18334579023163996263
20432913 95 16515399668476592150
20871999 31 18341613741577044277
21119208 17 17775286062264084167
221357 26 15482677891873368662
22224240 67 15792026562754685902
22854114 59 14923943453269145718
23175994 123 17603583015536323177
23227448 37 10303227119967891978
23402539 116 18410017666907454317
23402655 69 17060340738258273172
23557571 272 18114465664586360672
23559900 14 18338803316868365560
25122255 55 18261664991579221806
266924 1 17559687319862722393
26918003 58 17821449053766884786
3004659 81 18130788967009542822
314173 85 17822003211822115417
347723 3 17775006803538029633
4921388 177 15841261546183812643
5104073 3 18262231102385155291
559249 180 18058457667195058410
633830 44 15841551842674961598

> <PUBCHEM_SHAPE_MULTIPOLES>
332.01
11.94
1.55
1.08
3.74
0.02
-0.01
3.96
1.53
-1.25
-0.25
0.88
-0.11
-0.26

> <PUBCHEM_SHAPE_SELFOVERLAP>
687.492

> <PUBCHEM_SHAPE_VOLUME>
188

> <PUBCHEM_COORDINATE_TYPE>
2
5
10

$$$$

