442726
  -OEChem-07051212593D

 45 47  0     1  0  0  0  0  0999 V2000
    0.3434   -0.9276    0.0222 O   0  0  0  0  0  0  0  0  0  0  0  0
   -0.3007    2.0660   -0.1629 O   0  0  0  0  0  0  0  0  0  0  0  0
   -1.1919    0.6846    1.8693 O   0  0  0  0  0  0  0  0  0  0  0  0
   -1.0527   -2.0327   -1.4421 O   0  0  0  0  0  0  0  0  0  0  0  0
   -1.0443    1.1260   -2.1273 O   0  0  0  0  0  0  0  0  0  0  0  0
    3.5054   -0.4234    0.1808 N   0  0  2  0  0  0  0  0  0  0  0  0
    2.4400    0.1355   -0.7045 C   0  0  1  0  0  0  0  0  0  0  0  0
    1.4319   -1.0005   -0.9194 C   0  0  1  0  0  0  0  0  0  0  0  0
    2.2534   -2.2442   -0.6057 C   0  0  0  0  0  0  0  0  0  0  0  0
    3.1027   -1.7793    0.5675 C   0  0  0  0  0  0  0  0  0  0  0  0
    1.9946    1.4126   -0.0665 C   0  0  0  0  0  0  0  0  0  0  0  0
    3.6400    0.5031    1.3215 C   0  0  0  0  0  0  0  0  0  0  0  0
    2.6852    1.6204    1.0591 C   0  0  0  0  0  0  0  0  0  0  0  0
   -2.2617    0.1410    1.0648 C   0  0  2  0  0  0  0  0  0  0  0  0
   -1.8797   -1.3410    0.7422 C   0  0  2  0  0  0  0  0  0  0  0  0
    1.0086    2.3417   -0.6877 C   0  0  0  0  0  0  0  0  0  0  0  0
   -2.4739    1.1225   -0.1406 C   0  0  1  0  0  0  0  0  0  0  0  0
   -0.8436   -1.4829   -0.3677 C   0  0  0  0  0  0  0  0  0  0  0  0
   -3.4912    0.2061    1.9966 C   0  0  0  0  0  0  0  0  0  0  0  0
   -1.2070    1.4216   -0.9505 C   0  0  0  0  0  0  0  0  0  0  0  0
   -3.0614   -2.2771    0.4536 C   0  0  0  0  0  0  0  0  0  0  0  0
   -3.5971    0.7276   -1.1029 C   0  0  0  0  0  0  0  0  0  0  0  0
    2.9256    0.3621   -1.6629 H   0  0  0  0  0  0  0  0  0  0  0  0
    1.0617   -1.0004   -1.9508 H   0  0  0  0  0  0  0  0  0  0  0  0
    2.8908   -2.5091   -1.4578 H   0  0  0  0  0  0  0  0  0  0  0  0
    1.6405   -3.1093   -0.3354 H   0  0  0  0  0  0  0  0  0  0  0  0
    2.4949   -1.7922    1.4811 H   0  0  0  0  0  0  0  0  0  0  0  0
    3.9726   -2.4245    0.7214 H   0  0  0  0  0  0  0  0  0  0  0  0
    4.6647    0.8875    1.3547 H   0  0  0  0  0  0  0  0  0  0  0  0
    3.4194    0.0380    2.2885 H   0  0  0  0  0  0  0  0  0  0  0  0
    2.5837    2.4868    1.6966 H   0  0  0  0  0  0  0  0  0  0  0  0
   -1.3890   -1.7632    1.6328 H   0  0  0  0  0  0  0  0  0  0  0  0
    1.2429    3.3787   -0.4229 H   0  0  0  0  0  0  0  0  0  0  0  0
    1.0413    2.2808   -1.7810 H   0  0  0  0  0  0  0  0  0  0  0  0
   -2.7623    2.1022    0.2712 H   0  0  0  0  0  0  0  0  0  0  0  0
   -4.4061   -0.1594    1.5235 H   0  0  0  0  0  0  0  0  0  0  0  0
   -3.3152   -0.3810    2.9060 H   0  0  0  0  0  0  0  0  0  0  0  0
   -3.6745    1.2339    2.3325 H   0  0  0  0  0  0  0  0  0  0  0  0
   -2.7054   -3.2844    0.2068 H   0  0  0  0  0  0  0  0  0  0  0  0
   -3.7110   -2.3809    1.3282 H   0  0  0  0  0  0  0  0  0  0  0  0
   -3.6694   -1.9370   -0.3871 H   0  0  0  0  0  0  0  0  0  0  0  0
   -3.3449   -0.1684   -1.6774 H   0  0  0  0  0  0  0  0  0  0  0  0
   -4.5434    0.5576   -0.5834 H   0  0  0  0  0  0  0  0  0  0  0  0
   -3.7697    1.5282   -1.8323 H   0  0  0  0  0  0  0  0  0  0  0  0
   -1.4066    1.6102    2.0761 H   0  0  0  0  0  0  0  0  0  0  0  0
  1  8  1  0  0  0  0
  1 18  1  0  0  0  0
  2 16  1  0  0  0  0
  2 20  1  0  0  0  0
  3 14  1  0  0  0  0
  3 45  1  0  0  0  0
  4 18  2  0  0  0  0
  5 20  2  0  0  0  0
  6  7  1  0  0  0  0
  6 10  1  0  0  0  0
  6 12  1  0  0  0  0
  7  8  1  0  0  0  0
  7 11  1  0  0  0  0
  7 23  1  0  0  0  0
  8  9  1  0  0  0  0
  8 24  1  0  0  0  0
  9 10  1  0  0  0  0
  9 25  1  0  0  0  0
  9 26  1  0  0  0  0
 10 27  1  0  0  0  0
 10 28  1  0  0  0  0
 11 13  2  0  0  0  0
 11 16  1  0  0  0  0
 12 13  1  0  0  0  0
 12 29  1  0  0  0  0
 12 30  1  0  0  0  0
 13 31  1  0  0  0  0
 14 15  1  0  0  0  0
 14 17  1  0  0  0  0
 14 19  1  0  0  0  0
 15 18  1  0  0  0  0
 15 21  1  0  0  0  0
 15 32  1  0  0  0  0
 16 33  1  0  0  0  0
 16 34  1  0  0  0  0
 17 20  1  0  0  0  0
 17 22  1  0  0  0  0
 17 35  1  0  0  0  0
 19 36  1  0  0  0  0
 19 37  1  0  0  0  0
 19 38  1  0  0  0  0
 21 39  1  0  0  0  0
 21 40  1  0  0  0  0
 21 41  1  0  0  0  0
 22 42  1  0  0  0  0
 22 43  1  0  0  0  0
 22 44  1  0  0  0  0
M  END
> <PUBCHEM_COMPOUND_CID>
442726

> <PUBCHEM_CONFORMER_RMSD>
0.6

> <PUBCHEM_CONFORMER_DIVERSEORDER>
9
3
2
8
6
5
4
7
1

> <PUBCHEM_MMFF94_PARTIAL_CHARGES>
20
1 -0.43
10 0.27
11 -0.28
12 0.41
13 -0.29
14 0.28
15 0.06
16 0.42
17 0.06
18 0.66
2 -0.43
20 0.66
3 -0.68
31 0.15
4 -0.57
45 0.4
5 -0.57
6 -0.81
7 0.41
8 0.28

> <PUBCHEM_EFFECTIVE_ROTOR_COUNT>
1.8

> <PUBCHEM_PHARMACOPHORE_FEATURES>
7
1 3 acceptor
1 3 donor
1 4 acceptor
1 5 acceptor
1 6 cation
5 6 7 11 12 13 rings
5 6 7 8 9 10 rings

> <PUBCHEM_HEAVY_ATOM_COUNT>
22

> <PUBCHEM_ATOM_DEF_STEREO_COUNT>
5

> <PUBCHEM_ATOM_UDEF_STEREO_COUNT>
0

> <PUBCHEM_BOND_DEF_STEREO_COUNT>
0

> <PUBCHEM_BOND_UDEF_STEREO_COUNT>
0

> <PUBCHEM_ISOTOPIC_ATOM_COUNT>
0

> <PUBCHEM_COMPONENT_COUNT>
1

> <PUBCHEM_CACTVS_TAUTO_COUNT>
1

> <PUBCHEM_CONFORMER_ID>
0006C16600000009

> <PUBCHEM_MMFF94_ENERGY>
59.6963

> <PUBCHEM_FEATURE_SELFOVERLAP>
35.842

> <PUBCHEM_SHAPE_FINGERPRINT>
10863032 1 18335426746481272973
1100329 8 15818480103152877850
11086676 242 18271793623562724096
11370993 70 18188221913409105408
11578080 2 17680453064695155553
11582403 64 16328587119885835388
11640471 11 16298394586278281640
11680986 33 18410295830305955222
12011746 2 18337673130467785972
12077114 3 18130517425780218614
12382932 28 18335985294093352392
12422481 6 18195782173575674123
12596599 1 17458909365425837815
12633257 1 18336824290195320274
12670545 47 18412545431133132846
12696612 119 18339353072539399958
13140716 1 18408882957917218474
13172582 1 18337381729494528258
13224815 77 18336825303749494826
13994607 96 15941785346157608752
14178342 30 18334851667392391784
14223421 5 18339357461801323842
14251757 17 17910995433044776671
14386348 128 18337939160662881124
14817 1 7029663782194440821
15664445 248 11955185981961629795
15881359 60 18342463590771023265
16945 1 18340757200338175565
18219364 16 18339358690140455683
18981168 100 18041288694406366010
20691752 17 17988068985573497650
21421861 104 16261181357918487755
21731516 1 16916786245209462096
21756936 100 16591128373786426096
23184049 59 18337100276219462137
2334 1 18338233756659452470
23388829 49 17902794063616309799
23419403 2 15874248909156118613
23559900 14 17488458753444693934
2748010 2 18123470737531252540
3797600 57 17315619708608267176
4340502 62 17969199258335344409

> <PUBCHEM_SHAPE_MULTIPOLES>
418.42
6.08
2.59
1.61
0.46
0.42
-0.2
0.64
-1.91
0.31
0.49
-0.81
-0.28
0.6

> <PUBCHEM_SHAPE_SELFOVERLAP>
885.458

> <PUBCHEM_SHAPE_VOLUME>
234.2

> <PUBCHEM_COORDINATE_TYPE>
2
5
10

$$$$

