151726
  -OEChem-07051213113D

 16 16  0     0  0  0  0  0  0999 V2000
   -1.6633    1.8054   -0.0002 O   0  0  0  0  0  0  0  0  0  0  0  0
   -2.4838   -0.8495    0.0002 O   0  0  0  0  0  0  0  0  0  0  0  0
    2.9371    0.3968    0.0000 N   0  0  0  0  0  0  0  0  0  0  0  0
    1.5618    0.0840    0.0001 C   0  0  0  0  0  0  0  0  0  0  0  0
   -0.7464    0.7978    0.0001 C   0  0  0  0  0  0  0  0  0  0  0  0
    0.6138    1.1073    0.0002 C   0  0  0  0  0  0  0  0  0  0  0  0
   -1.1584   -0.5350   -0.0001 C   0  0  0  0  0  0  0  0  0  0  0  0
    1.1497   -1.2486   -0.0001 C   0  0  0  0  0  0  0  0  0  0  0  0
   -0.2104   -1.5581   -0.0001 C   0  0  0  0  0  0  0  0  0  0  0  0
    0.9289    2.1482    0.0002 H   0  0  0  0  0  0  0  0  0  0  0  0
    1.8788   -2.0548   -0.0002 H   0  0  0  0  0  0  0  0  0  0  0  0
   -0.5176   -2.6006   -0.0002 H   0  0  0  0  0  0  0  0  0  0  0  0
    3.6247   -0.3447   -0.0009 H   0  0  0  0  0  0  0  0  0  0  0  0
    3.2366    1.3627   -0.0007 H   0  0  0  0  0  0  0  0  0  0  0  0
   -2.5524    1.4100   -0.0004 H   0  0  0  0  0  0  0  0  0  0  0  0
   -2.5795   -1.8174    0.0001 H   0  0  0  0  0  0  0  0  0  0  0  0
  1  5  1  0  0  0  0
  1 15  1  0  0  0  0
  2  7  1  0  0  0  0
  2 16  1  0  0  0  0
  3  4  1  0  0  0  0
  3 13  1  0  0  0  0
  3 14  1  0  0  0  0
  4  6  2  0  0  0  0
  4  8  1  0  0  0  0
  5  6  1  0  0  0  0
  5  7  2  0  0  0  0
  6 10  1  0  0  0  0
  7  9  1  0  0  0  0
  8  9  2  0  0  0  0
  8 11  1  0  0  0  0
  9 12  1  0  0  0  0
M  END
> <PUBCHEM_COMPOUND_CID>
151726

> <PUBCHEM_CONFORMER_RMSD>
0.4

> <PUBCHEM_CONFORMER_DIVERSEORDER>
1

> <PUBCHEM_MMFF94_PARTIAL_CHARGES>
16
1 -0.53
10 0.15
11 0.15
12 0.15
13 0.4
14 0.4
15 0.45
16 0.45
2 -0.53
3 -0.9
4 0.1
5 0.08
6 -0.15
7 0.08
8 -0.15
9 -0.15

> <PUBCHEM_EFFECTIVE_ROTOR_COUNT>
0

> <PUBCHEM_PHARMACOPHORE_FEATURES>
5
1 1 donor
1 2 donor
1 3 cation
1 3 donor
6 4 5 6 7 8 9 rings

> <PUBCHEM_HEAVY_ATOM_COUNT>
9

> <PUBCHEM_ATOM_DEF_STEREO_COUNT>
0

> <PUBCHEM_ATOM_UDEF_STEREO_COUNT>
0

> <PUBCHEM_BOND_DEF_STEREO_COUNT>
0

> <PUBCHEM_BOND_UDEF_STEREO_COUNT>
0

> <PUBCHEM_ISOTOPIC_ATOM_COUNT>
0

> <PUBCHEM_COMPONENT_COUNT>
1

> <PUBCHEM_CACTVS_TAUTO_COUNT>
16

> <PUBCHEM_CONFORMER_ID>
000250AE00000001

> <PUBCHEM_MMFF94_ENERGY>
30.333

> <PUBCHEM_FEATURE_SELFOVERLAP>
25.376

> <PUBCHEM_SHAPE_FINGERPRINT>
16714656 1 18337951182218404750
16945 1 18338798918447054566
18185500 45 18122064204213310614
21040471 1 18194401319112736000
23402655 69 18264788700087369565
23552423 10 18200025278350348278
2748010 2 18338233902609089318
29004967 10 18270675368449787547
5084963 1 18187079529544251138

> <PUBCHEM_SHAPE_MULTIPOLES>
168.5
2.9
1.7
0.59
0.7
0.08
0
0.22
0
-0.48
0
0.02
-0.02
0

> <PUBCHEM_SHAPE_SELFOVERLAP>
353.653

> <PUBCHEM_SHAPE_VOLUME>
95.5

> <PUBCHEM_COORDINATE_TYPE>
2
5
10

$$$$

