3838
  -OEChem-06251223432D

 86 92  0     1  0  0  0  0  0999 V2000
   11.5783    1.4827    0.0000 S   0  0  0  0  0  0  0  0  0  0  0  0
    5.5161   -1.0173    0.0000 S   0  0  0  0  0  0  0  0  0  0  0  0
    9.8462   -1.5173    0.0000 O   0  0  0  0  0  0  0  0  0  0  0  0
   10.5783    1.4827    0.0000 O   0  0  0  0  0  0  0  0  0  0  0  0
   12.5783    1.4827    0.0000 O   0  0  0  0  0  0  0  0  0  0  0  0
    6.3821   -1.5173    0.0000 O   0  0  0  0  0  0  0  0  0  0  0  0
    5.0161   -1.8834    0.0000 O   0  0  0  0  0  0  0  0  0  0  0  0
    6.0161   -0.1513    0.0000 O   0  0  0  0  0  0  0  0  0  0  0  0
   11.5783   -1.5173    0.0000 N   0  0  0  0  0  0  0  0  0  0  0  0
   13.3103   -2.5173    0.0000 N   0  0  0  0  0  0  0  0  0  0  0  0
   11.5783    0.4827    0.0000 N   0  0  3  0  0  0  0  0  0  0  0  0
   14.2443    4.0035    0.0000 N   0  0  0  0  0  0  0  0  0  0  0  0
    2.0000   -2.0658    0.0000 N   0  0  0  0  0  0  0  0  0  0  0  0
   10.7123   -0.0173    0.0000 C   0  0  3  0  0  0  0  0  0  0  0  0
   12.4443   -1.0173    0.0000 C   0  0  0  0  0  0  0  0  0  0  0  0
   11.5783   -2.5173    0.0000 C   0  0  0  0  0  0  0  0  0  0  0  0
   13.3103   -1.5173    0.0000 C   0  0  0  0  0  0  0  0  0  0  0  0
   12.4443   -3.0173    0.0000 C   0  0  0  0  0  0  0  0  0  0  0  0
   10.7123   -1.0173    0.0000 C   0  0  0  0  0  0  0  0  0  0  0  0
    9.8462    0.4827    0.0000 C   0  0  0  0  0  0  0  0  0  0  0  0
   14.1764   -3.0173    0.0000 C   0  0  0  0  0  0  0  0  0  0  0  0
    8.9802   -0.0173    0.0000 C   0  0  0  0  0  0  0  0  0  0  0  0
   12.4443   -0.0173    0.0000 C   0  0  0  0  0  0  0  0  0  0  0  0
   11.5783    2.4827    0.0000 C   0  0  0  0  0  0  0  0  0  0  0  0
   15.0424   -2.5173    0.0000 C   0  0  0  0  0  0  0  0  0  0  0  0
   14.1764   -4.0173    0.0000 C   0  0  0  0  0  0  0  0  0  0  0  0
   12.4443    2.9827    0.0000 C   0  0  0  0  0  0  0  0  0  0  0  0
    8.9802   -1.0173    0.0000 C   0  0  0  0  0  0  0  0  0  0  0  0
    8.1142    0.4827    0.0000 C   0  0  0  0  0  0  0  0  0  0  0  0
   10.7123    2.9827    0.0000 C   0  0  0  0  0  0  0  0  0  0  0  0
   12.4443    3.9827    0.0000 C   0  0  0  0  0  0  0  0  0  0  0  0
   15.9084   -3.0173    0.0000 C   0  0  0  0  0  0  0  0  0  0  0  0
   15.0424   -4.5173    0.0000 C   0  0  0  0  0  0  0  0  0  0  0  0
    8.1142   -1.5173    0.0000 C   0  0  0  0  0  0  0  0  0  0  0  0
    7.2482   -0.0173    0.0000 C   0  0  0  0  0  0  0  0  0  0  0  0
    7.2482   -1.0173    0.0000 C   0  0  0  0  0  0  0  0  0  0  0  0
   15.9084   -4.0173    0.0000 C   0  0  0  0  0  0  0  0  0  0  0  0
   10.7123    3.9827    0.0000 C   0  0  0  0  0  0  0  0  0  0  0  0
   13.3383    2.4480    0.0000 C   0  0  0  0  0  0  0  0  0  0  0  0
   11.5783    4.4827    0.0000 C   0  0  0  0  0  0  0  0  0  0  0  0
   13.3383    4.5173    0.0000 C   0  0  0  0  0  0  0  0  0  0  0  0
   14.2443    2.9618    0.0000 C   0  0  0  0  0  0  0  0  0  0  0  0
    4.6501   -0.5173    0.0000 C   0  0  0  0  0  0  0  0  0  0  0  0
    3.7841   -1.0173    0.0000 C   0  0  0  0  0  0  0  0  0  0  0  0
    4.6501    0.4827    0.0000 C   0  0  0  0  0  0  0  0  0  0  0  0
    2.9180   -0.5173    0.0000 C   0  0  0  0  0  0  0  0  0  0  0  0
    3.7841    0.9827    0.0000 C   0  0  0  0  0  0  0  0  0  0  0  0
    2.9180    0.4827    0.0000 C   0  0  0  0  0  0  0  0  0  0  0  0
    3.8001   -2.0588    0.0000 C   0  0  0  0  0  0  0  0  0  0  0  0
    2.0080   -1.0242    0.0000 C   0  0  0  0  0  0  0  0  0  0  0  0
    2.9021   -2.5866    0.0000 C   0  0  0  0  0  0  0  0  0  0  0  0
   10.7123    0.6027    0.0000 H   0  0  0  0  0  0  0  0  0  0  0  0
   12.8428   -0.5424    0.0000 H   0  0  0  0  0  0  0  0  0  0  0  0
   12.0458   -0.5424    0.0000 H   0  0  0  0  0  0  0  0  0  0  0  0
   10.9677   -2.4097    0.0000 H   0  0  0  0  0  0  0  0  0  0  0  0
   11.3662   -3.0999    0.0000 H   0  0  0  0  0  0  0  0  0  0  0  0
   13.9209   -1.6250    0.0000 H   0  0  0  0  0  0  0  0  0  0  0  0
   13.5224   -0.9347    0.0000 H   0  0  0  0  0  0  0  0  0  0  0  0
   12.0458   -3.4923    0.0000 H   0  0  0  0  0  0  0  0  0  0  0  0
   12.8428   -3.4923    0.0000 H   0  0  0  0  0  0  0  0  0  0  0  0
   10.2448    0.9576    0.0000 H   0  0  0  0  0  0  0  0  0  0  0  0
    9.4477    0.9576    0.0000 H   0  0  0  0  0  0  0  0  0  0  0  0
   12.1343   -0.5543    0.0000 H   0  0  0  0  0  0  0  0  0  0  0  0
   12.9812   -0.3273    0.0000 H   0  0  0  0  0  0  0  0  0  0  0  0
   12.7543    0.5196    0.0000 H   0  0  0  0  0  0  0  0  0  0  0  0
   15.0424   -1.8973    0.0000 H   0  0  0  0  0  0  0  0  0  0  0  0
   13.6394   -4.3273    0.0000 H   0  0  0  0  0  0  0  0  0  0  0  0
    9.5172   -1.3273    0.0000 H   0  0  0  0  0  0  0  0  0  0  0  0
    8.1142    1.1027    0.0000 H   0  0  0  0  0  0  0  0  0  0  0  0
   10.1753    2.6727    0.0000 H   0  0  0  0  0  0  0  0  0  0  0  0
   16.4453   -2.7073    0.0000 H   0  0  0  0  0  0  0  0  0  0  0  0
   15.0424   -5.1373    0.0000 H   0  0  0  0  0  0  0  0  0  0  0  0
    8.1142   -2.1373    0.0000 H   0  0  0  0  0  0  0  0  0  0  0  0
    6.7112    0.2927    0.0000 H   0  0  0  0  0  0  0  0  0  0  0  0
   16.4453   -4.3273    0.0000 H   0  0  0  0  0  0  0  0  0  0  0  0
   10.1753    4.2927    0.0000 H   0  0  0  0  0  0  0  0  0  0  0  0
   13.3311    1.8280    0.0000 H   0  0  0  0  0  0  0  0  0  0  0  0
   11.5783    5.1027    0.0000 H   0  0  0  0  0  0  0  0  0  0  0  0
   13.3311    5.1373    0.0000 H   0  0  0  0  0  0  0  0  0  0  0  0
   14.7801    2.6498    0.0000 H   0  0  0  0  0  0  0  0  0  0  0  0
    5.1870    0.7927    0.0000 H   0  0  0  0  0  0  0  0  0  0  0  0
    3.7841    1.6027    0.0000 H   0  0  0  0  0  0  0  0  0  0  0  0
    2.3811    0.7927    0.0000 H   0  0  0  0  0  0  0  0  0  0  0  0
    4.3406   -2.3626    0.0000 H   0  0  0  0  0  0  0  0  0  0  0  0
    1.4747   -0.7080    0.0000 H   0  0  0  0  0  0  0  0  0  0  0  0
    2.9045   -3.2066    0.0000 H   0  0  0  0  0  0  0  0  0  0  0  0
  1  4  2  0  0  0  0
  1  5  2  0  0  0  0
  1 11  1  0  0  0  0
  1 24  1  0  0  0  0
  2  6  1  0  0  0  0
  2  7  2  0  0  0  0
  2  8  2  0  0  0  0
  2 43  1  0  0  0  0
  3 19  2  0  0  0  0
  6 36  1  0  0  0  0
  9 15  1  0  0  0  0
  9 16  1  0  0  0  0
  9 19  1  0  0  0  0
 10 17  1  0  0  0  0
 10 18  1  0  0  0  0
 10 21  1  0  0  0  0
 11 14  1  0  0  0  0
 11 23  1  0  0  0  0
 12 41  2  0  0  0  0
 12 42  1  0  0  0  0
 13 50  2  0  0  0  0
 13 51  1  0  0  0  0
 14 19  1  0  0  0  0
 14 20  1  0  0  0  0
 14 52  1  0  0  0  0
 15 17  1  0  0  0  0
 15 53  1  0  0  0  0
 15 54  1  0  0  0  0
 16 18  1  0  0  0  0
 16 55  1  0  0  0  0
 16 56  1  0  0  0  0
 17 57  1  0  0  0  0
 17 58  1  0  0  0  0
 18 59  1  0  0  0  0
 18 60  1  0  0  0  0
 20 22  1  0  0  0  0
 20 61  1  0  0  0  0
 20 62  1  0  0  0  0
 21 25  2  0  0  0  0
 21 26  1  0  0  0  0
 22 28  2  0  0  0  0
 22 29  1  0  0  0  0
 23 63  1  0  0  0  0
 23 64  1  0  0  0  0
 23 65  1  0  0  0  0
 24 27  1  0  0  0  0
 24 30  2  0  0  0  0
 25 32  1  0  0  0  0
 25 66  1  0  0  0  0
 26 33  2  0  0  0  0
 26 67  1  0  0  0  0
 27 31  2  0  0  0  0
 27 39  1  0  0  0  0
 28 34  1  0  0  0  0
 28 68  1  0  0  0  0
 29 35  2  0  0  0  0
 29 69  1  0  0  0  0
 30 38  1  0  0  0  0
 30 70  1  0  0  0  0
 31 40  1  0  0  0  0
 31 41  1  0  0  0  0
 32 37  2  0  0  0  0
 32 71  1  0  0  0  0
 33 37  1  0  0  0  0
 33 72  1  0  0  0  0
 34 36  2  0  0  0  0
 34 73  1  0  0  0  0
 35 36  1  0  0  0  0
 35 74  1  0  0  0  0
 37 75  1  0  0  0  0
 38 40  2  0  0  0  0
 38 76  1  0  0  0  0
 39 42  2  0  0  0  0
 39 77  1  0  0  0  0
 40 78  1  0  0  0  0
 41 79  1  0  0  0  0
 42 80  1  0  0  0  0
 43 44  1  0  0  0  0
 43 45  2  0  0  0  0
 44 46  2  0  0  0  0
 44 49  1  0  0  0  0
 45 47  1  0  0  0  0
 45 81  1  0  0  0  0
 46 48  1  0  0  0  0
 46 50  1  0  0  0  0
 47 48  2  0  0  0  0
 47 82  1  0  0  0  0
 48 83  1  0  0  0  0
 49 51  2  0  0  0  0
 49 84  1  0  0  0  0
 50 85  1  0  0  0  0
 51 86  1  0  0  0  0
M  END
> <PUBCHEM_COMPOUND_CID>
3838

> <PUBCHEM_COMPOUND_CANONICALIZED>
1

> <PUBCHEM_CACTVS_COMPLEXITY>
1370

> <PUBCHEM_CACTVS_HBOND_ACCEPTOR>
10

> <PUBCHEM_CACTVS_HBOND_DONOR>
0

> <PUBCHEM_CACTVS_ROTATABLE_BOND>
10

> <PUBCHEM_CACTVS_SUBSKEYS>
AAADcfB/uABgAAAAAAAAAAAAAAAAAAAAAAA8ePGCAAAAAACx/gAAHgQAQAAADCzB2gQ+x9MIEAKoAjV3VHDCgHAxIiAI2Dm+bJgIZvLAkbOUMAhkxhHIyAeYyKCOoAAAgAAUAABAAAEAACgAAAAAAAAAAA==

> <PUBCHEM_IUPAC_OPENEYE_NAME>
[4-[2-[5-isoquinolylsulfonyl(methyl)amino]-3-oxo-3-(4-phenylpiperazin-1-yl)propyl]phenyl] isoquinoline-5-sulfonate

> <PUBCHEM_IUPAC_CAS_NAME>
5-isoquinolinesulfonic acid [4-[2-[5-isoquinolinylsulfonyl(methyl)amino]-3-oxo-3-(4-phenyl-1-piperazinyl)propyl]phenyl] ester

> <PUBCHEM_IUPAC_NAME>
[4-[2-[isoquinolin-5-ylsulfonyl(methyl)amino]-3-oxo-3-(4-phenylpiperazin-1-yl)propyl]phenyl] isoquinoline-5-sulfonate

> <PUBCHEM_IUPAC_SYSTEMATIC_NAME>
[4-[2-[isoquinolin-5-ylsulfonyl(methyl)amino]-3-oxidanylidene-3-(4-phenylpiperazin-1-yl)propyl]phenyl] isoquinoline-5-sulfonate

> <PUBCHEM_IUPAC_TRADITIONAL_NAME>
isoquinoline-5-sulfonic acid [4-[2-[5-isoquinolylsulfonyl(methyl)amino]-3-keto-3-(4-phenylpiperazino)propyl]phenyl] ester

> <PUBCHEM_IUPAC_INCHI>
InChI=1S/C38H35N5O6S2/c1-41(50(45,46)36-11-5-7-29-26-39-19-17-33(29)36)35(38(44)43-23-21-42(22-24-43)31-9-3-2-4-10-31)25-28-13-15-32(16-14-28)49-51(47,48)37-12-6-8-30-27-40-20-18-34(30)37/h2-20,26-27,35H,21-25H2,1H3

> <PUBCHEM_IUPAC_INCHIKEY>
RJVLFQBBRSMWHX-UHFFFAOYSA-N

> <PUBCHEM_XLOGP3_AA>
5.6

> <PUBCHEM_EXACT_MASS>
721.202876

> <PUBCHEM_MOLECULAR_FORMULA>
C38H35N5O6S2

> <PUBCHEM_MOLECULAR_WEIGHT>
721.8444

> <PUBCHEM_OPENEYE_CAN_SMILES>
CN(C(CC1=CC=C(C=C1)OS(=O)(=O)C2=CC=CC3=C2C=CN=C3)C(=O)N4CCN(CC4)C5=CC=CC=C5)S(=O)(=O)C6=CC=CC7=C6C=CN=C7

> <PUBCHEM_OPENEYE_ISO_SMILES>
CN(C(CC1=CC=C(C=C1)OS(=O)(=O)C2=CC=CC3=C2C=CN=C3)C(=O)N4CCN(CC4)C5=CC=CC=C5)S(=O)(=O)C6=CC=CC7=C6C=CN=C7

> <PUBCHEM_CACTVS_TPSA>
147

> <PUBCHEM_MONOISOTOPIC_WEIGHT>
721.202876

> <PUBCHEM_TOTAL_CHARGE>
0

> <PUBCHEM_HEAVY_ATOM_COUNT>
51

> <PUBCHEM_ATOM_DEF_STEREO_COUNT>
0

> <PUBCHEM_ATOM_UDEF_STEREO_COUNT>
1

> <PUBCHEM_BOND_DEF_STEREO_COUNT>
0

> <PUBCHEM_BOND_UDEF_STEREO_COUNT>
0

> <PUBCHEM_ISOTOPIC_ATOM_COUNT>
0

> <PUBCHEM_COMPONENT_COUNT>
1

> <PUBCHEM_CACTVS_TAUTO_COUNT>
1

> <PUBCHEM_COORDINATE_TYPE>
1
5
255

> <PUBCHEM_BONDANNOTATIONS>
12  41  8
12  42  8
13  50  8
13  51  8
14  20  3
21  25  8
21  26  8
22  28  8
22  29  8
24  27  8
24  30  8
25  32  8
26  33  8
27  31  8
27  39  8
28  34  8
29  35  8
30  38  8
31  40  8
31  41  8
32  37  8
33  37  8
34  36  8
35  36  8
38  40  8
39  42  8
43  44  8
43  45  8
44  46  8
44  49  8
45  47  8
46  48  8
46  50  8
47  48  8
49  51  8

$$$$

