442470
  -OEChem-07051212582D

 44 47  0     1  0  0  0  0  0999 V2000
    7.3180    1.4799    0.0000 O   0  0  0  0  0  0  0  0  0  0  0  0
    2.9176    0.9694    0.0000 O   0  0  0  0  0  0  0  0  0  0  0  0
    5.5321   -0.5652    0.0000 N   0  0  3  0  0  0  0  0  0  0  0  0
    3.8000   -0.5652    0.0000 N   0  0  0  0  0  0  0  0  0  0  0  0
    4.6660   -0.0652    0.0000 C   0  0  1  0  0  0  0  0  0  0  0  0
    5.5321   -1.5652    0.0000 C   0  0  1  0  0  0  0  0  0  0  0  0
    3.8000   -1.5652    0.0000 C   0  0  2  0  0  0  0  0  0  0  0  0
    6.4421   -0.0584    0.0000 C   0  0  1  0  0  0  0  0  0  0  0  0
    4.6660   -2.0652    0.0000 C   0  0  0  0  0  0  0  0  0  0  0  0
    4.6500    0.9763    0.0000 C   0  0  0  0  0  0  0  0  0  0  0  0
    6.4501    0.9832    0.0000 C   0  0  1  0  0  0  0  0  0  0  0  0
    6.3903   -2.0622    0.0000 C   0  0  0  0  0  0  0  0  0  0  0  0
    5.5480    1.5040    0.0000 C   0  0  0  0  0  0  0  0  0  0  0  0
    2.9061   -2.0999    0.0000 C   0  0  0  0  0  0  0  0  0  0  0  0
    7.2814   -0.5866    0.0000 C   0  0  0  0  0  0  0  0  0  0  0  0
    7.2558   -1.5780    0.0000 C   0  0  0  0  0  0  0  0  0  0  0  0
    2.9061   -0.0306    0.0000 C   0  0  0  0  0  0  0  0  0  0  0  0
    2.0000   -1.5860    0.0000 C   0  0  0  0  0  0  0  0  0  0  0  0
    2.0000   -0.5444    0.0000 C   0  0  0  0  0  0  0  0  0  0  0  0
    8.1118   -2.0949    0.0000 C   0  0  0  0  0  0  0  0  0  0  0  0
    5.3989    0.3654    0.0000 H   0  0  0  0  0  0  0  0  0  0  0  0
    5.5315   -2.4152    0.0000 H   0  0  0  0  0  0  0  0  0  0  0  0
    3.8066   -2.4152    0.0000 H   0  0  0  0  0  0  0  0  0  0  0  0
    7.1877    0.3496    0.0000 H   0  0  0  0  0  0  0  0  0  0  0  0
    4.2675   -2.5402    0.0000 H   0  0  0  0  0  0  0  0  0  0  0  0
    5.0646   -2.5402    0.0000 H   0  0  0  0  0  0  0  0  0  0  0  0
    4.4319    1.5567    0.0000 H   0  0  0  0  0  0  0  0  0  0  0  0
    4.0408    0.8608    0.0000 H   0  0  0  0  0  0  0  0  0  0  0  0
    6.9852    0.6701    0.0000 H   0  0  0  0  0  0  0  0  0  0  0  0
    5.9892   -2.5350    0.0000 H   0  0  0  0  0  0  0  0  0  0  0  0
    6.7843   -2.5408    0.0000 H   0  0  0  0  0  0  0  0  0  0  0  0
    5.9453    1.9800    0.0000 H   0  0  0  0  0  0  0  0  0  0  0  0
    5.1470    1.9769    0.0000 H   0  0  0  0  0  0  0  0  0  0  0  0
    2.5124   -2.5789    0.0000 H   0  0  0  0  0  0  0  0  0  0  0  0
    3.3107   -2.5697    0.0000 H   0  0  0  0  0  0  0  0  0  0  0  0
    7.8280   -0.2939    0.0000 H   0  0  0  0  0  0  0  0  0  0  0  0
    1.3891   -1.4799    0.0000 H   0  0  0  0  0  0  0  0  0  0  0  0
    1.7909   -2.1697    0.0000 H   0  0  0  0  0  0  0  0  0  0  0  0
    1.7909    0.0393    0.0000 H   0  0  0  0  0  0  0  0  0  0  0  0
    1.3891   -0.6505    0.0000 H   0  0  0  0  0  0  0  0  0  0  0  0
    7.3204    2.0999    0.0000 H   0  0  0  0  0  0  0  0  0  0  0  0
    7.7913   -2.6257    0.0000 H   0  0  0  0  0  0  0  0  0  0  0  0
    8.6425   -2.4154    0.0000 H   0  0  0  0  0  0  0  0  0  0  0  0
    8.4323   -1.5642    0.0000 H   0  0  0  0  0  0  0  0  0  0  0  0
 11  1  1  1  0  0  0
  1 41  1  0  0  0  0
  2 17  2  0  0  0  0
  3  5  1  0  0  0  0
  3  6  1  0  0  0  0
  3  8  1  0  0  0  0
  4  5  1  0  0  0  0
  4  7  1  0  0  0  0
  4 17  1  0  0  0  0
  5 10  1  0  0  0  0
  5 21  1  6  0  0  0
  6  9  1  0  0  0  0
  6 12  1  0  0  0  0
  6 22  1  1  0  0  0
  7  9  1  0  0  0  0
  7 14  1  0  0  0  0
  7 23  1  1  0  0  0
  8 11  1  0  0  0  0
  8 15  1  0  0  0  0
  8 24  1  6  0  0  0
  9 25  1  0  0  0  0
  9 26  1  0  0  0  0
 10 13  1  0  0  0  0
 10 27  1  0  0  0  0
 10 28  1  0  0  0  0
 11 13  1  0  0  0  0
 11 29  1  0  0  0  0
 12 16  1  0  0  0  0
 12 30  1  0  0  0  0
 12 31  1  0  0  0  0
 13 32  1  0  0  0  0
 13 33  1  0  0  0  0
 14 18  1  0  0  0  0
 14 34  1  0  0  0  0
 14 35  1  0  0  0  0
 15 16  2  0  0  0  0
 15 36  1  0  0  0  0
 16 20  1  0  0  0  0
 17 19  1  0  0  0  0
 18 19  1  0  0  0  0
 18 37  1  0  0  0  0
 18 38  1  0  0  0  0
 19 39  1  0  0  0  0
 19 40  1  0  0  0  0
 20 42  1  0  0  0  0
 20 43  1  0  0  0  0
 20 44  1  0  0  0  0
M  END
> <PUBCHEM_COMPOUND_CID>
442470

> <PUBCHEM_COMPOUND_CANONICALIZED>
1

> <PUBCHEM_CACTVS_COMPLEXITY>
461

> <PUBCHEM_CACTVS_HBOND_ACCEPTOR>
3

> <PUBCHEM_CACTVS_HBOND_DONOR>
1

> <PUBCHEM_CACTVS_ROTATABLE_BOND>
0

> <PUBCHEM_CACTVS_SUBSKEYS>
AAADceB7MAAAAAAAAAAAAAAAAAAAAAAAAAAsWLEAAAAAAACwAAAAHgAACAAADDzhgAYDAAMAAgCIAiFSEACAAAAgAAAACAEIAAiCEBIAwQAEQAAMxwKYAAM4iYCQAAAAAAAAAAAAAAAAAAAAAAAAAAAAAA==

> <PUBCHEM_IUPAC_INCHI>
InChI=1S/C16H24N2O2/c1-10-7-12-9-11-3-2-4-16(20)18(11)15-6-5-14(19)13(8-10)17(12)15/h8,11-15,19H,2-7,9H2,1H3/t11-,12+,13+,14+,15-/m0/s1

> <PUBCHEM_IUPAC_INCHIKEY>
YRHGJVCKHYJQQO-JARUQAPTSA-N

> <PUBCHEM_XLOGP3_AA>
1.1

> <PUBCHEM_EXACT_MASS>
276.183778

> <PUBCHEM_MOLECULAR_FORMULA>
C16H24N2O2

> <PUBCHEM_MOLECULAR_WEIGHT>
276.37396

> <PUBCHEM_OPENEYE_CAN_SMILES>
CC1=CC2C(CCC3N2C(C1)CC4N3C(=O)CCC4)O

> <PUBCHEM_OPENEYE_ISO_SMILES>
CC1=C[C@@H]2[C@@H](CC[C@H]3N2[C@H](C1)C[C@H]4N3C(=O)CCC4)O

> <PUBCHEM_CACTVS_TPSA>
43.8

> <PUBCHEM_MONOISOTOPIC_WEIGHT>
276.183778

> <PUBCHEM_TOTAL_CHARGE>
0

> <PUBCHEM_HEAVY_ATOM_COUNT>
20

> <PUBCHEM_ATOM_DEF_STEREO_COUNT>
5

> <PUBCHEM_ATOM_UDEF_STEREO_COUNT>
0

> <PUBCHEM_BOND_DEF_STEREO_COUNT>
0

> <PUBCHEM_BOND_UDEF_STEREO_COUNT>
0

> <PUBCHEM_ISOTOPIC_ATOM_COUNT>
0

> <PUBCHEM_COMPONENT_COUNT>
1

> <PUBCHEM_CACTVS_TAUTO_COUNT>
2

> <PUBCHEM_COORDINATE_TYPE>
1
5
255

> <PUBCHEM_BONDANNOTATIONS>
11  1  5
5  21  6
6  22  5
7  23  5
8  24  6

$$$$

