442758
  -OEChem-07051212593D

 46 47  0     1  0  0  0  0  0999 V2000
   -1.8131   -2.4164   -0.2435 O   0  0  0  0  0  0  0  0  0  0  0  0
    0.5383    0.4940   -0.4008 O   0  0  0  0  0  0  0  0  0  0  0  0
    3.9934   -0.3086   -0.8372 O   0  0  0  0  0  0  0  0  0  0  0  0
    1.9720    1.3124    1.7471 O   0  0  0  0  0  0  0  0  0  0  0  0
    1.9474    0.5624   -2.2168 O   0  0  0  0  0  0  0  0  0  0  0  0
   -3.6356    0.3707    0.9425 N   0  0  2  0  0  0  0  0  0  0  0  0
   -2.3553   -0.1255    0.3500 C   0  0  1  0  0  0  0  0  0  0  0  0
   -2.7254   -1.3581   -0.4775 C   0  0  2  0  0  0  0  0  0  0  0  0
   -4.7252   -0.3612    0.2790 C   0  0  0  0  0  0  0  0  0  0  0  0
   -4.1148   -1.7221    0.0169 C   0  0  0  0  0  0  0  0  0  0  0  0
   -1.7947    1.0239   -0.4315 C   0  0  0  0  0  0  0  0  0  0  0  0
   -3.6865    1.8230    0.6675 C   0  0  0  0  0  0  0  0  0  0  0  0
   -2.5454    2.1136   -0.2486 C   0  0  0  0  0  0  0  0  0  0  0  0
   -0.5485    0.9137   -1.2318 C   0  0  0  0  0  0  0  0  0  0  0  0
    2.8233   -0.0890   -0.0325 C   0  0  1  0  0  0  0  0  0  0  0  0
    2.4772   -1.4610    0.6205 C   0  0  0  0  0  0  0  0  0  0  0  0
    3.1488    1.0431    0.9752 C   0  0  1  0  0  0  0  0  0  0  0  0
    1.7429    0.3562   -1.0260 C   0  0  0  0  0  0  0  0  0  0  0  0
    3.4984   -1.9617    1.6460 C   0  0  0  0  0  0  0  0  0  0  0  0
    2.2234   -2.5639   -0.4208 C   0  0  0  0  0  0  0  0  0  0  0  0
    3.5794    2.3545    0.3223 C   0  0  0  0  0  0  0  0  0  0  0  0
   -1.6679   -0.3818    1.1660 H   0  0  0  0  0  0  0  0  0  0  0  0
   -2.7563   -1.1489   -1.5537 H   0  0  0  0  0  0  0  0  0  0  0  0
   -5.0148    0.0960   -0.6762 H   0  0  0  0  0  0  0  0  0  0  0  0
   -5.6102   -0.4250    0.9188 H   0  0  0  0  0  0  0  0  0  0  0  0
   -4.0643   -2.3252    0.9321 H   0  0  0  0  0  0  0  0  0  0  0  0
   -4.6751   -2.2974   -0.7267 H   0  0  0  0  0  0  0  0  0  0  0  0
   -3.5507    2.3717    1.6058 H   0  0  0  0  0  0  0  0  0  0  0  0
   -4.6378    2.1426    0.2280 H   0  0  0  0  0  0  0  0  0  0  0  0
   -2.3473    3.0850   -0.6778 H   0  0  0  0  0  0  0  0  0  0  0  0
   -0.2974    1.8817   -1.6823 H   0  0  0  0  0  0  0  0  0  0  0  0
   -0.6913    0.1843   -2.0374 H   0  0  0  0  0  0  0  0  0  0  0  0
   -0.9314   -2.1049   -0.5102 H   0  0  0  0  0  0  0  0  0  0  0  0
    1.5291   -1.3421    1.1629 H   0  0  0  0  0  0  0  0  0  0  0  0
    3.9532    0.7440    1.6555 H   0  0  0  0  0  0  0  0  0  0  0  0
    4.4959   -2.0503    1.2036 H   0  0  0  0  0  0  0  0  0  0  0  0
    3.2130   -2.9470    2.0306 H   0  0  0  0  0  0  0  0  0  0  0  0
    3.5623   -1.2900    2.5070 H   0  0  0  0  0  0  0  0  0  0  0  0
    1.8365   -3.4645    0.0699 H   0  0  0  0  0  0  0  0  0  0  0  0
    3.1418   -2.8505   -0.9431 H   0  0  0  0  0  0  0  0  0  0  0  0
    1.4809   -2.2624   -1.1653 H   0  0  0  0  0  0  0  0  0  0  0  0
    4.4755    2.2263   -0.2915 H   0  0  0  0  0  0  0  0  0  0  0  0
    3.7960    3.1025    1.0934 H   0  0  0  0  0  0  0  0  0  0  0  0
    2.7817    2.7780   -0.2969 H   0  0  0  0  0  0  0  0  0  0  0  0
    3.7674   -0.9081   -1.5673 H   0  0  0  0  0  0  0  0  0  0  0  0
    1.8123    0.5433    2.3192 H   0  0  0  0  0  0  0  0  0  0  0  0
  1  8  1  0  0  0  0
  1 33  1  0  0  0  0
  2 14  1  0  0  0  0
  2 18  1  0  0  0  0
  3 15  1  0  0  0  0
  3 45  1  0  0  0  0
  4 17  1  0  0  0  0
  4 46  1  0  0  0  0
  5 18  2  0  0  0  0
  6  7  1  0  0  0  0
  6  9  1  0  0  0  0
  6 12  1  0  0  0  0
  7  8  1  0  0  0  0
  7 11  1  0  0  0  0
  7 22  1  0  0  0  0
  8 10  1  0  0  0  0
  8 23  1  0  0  0  0
  9 10  1  0  0  0  0
  9 24  1  0  0  0  0
  9 25  1  0  0  0  0
 10 26  1  0  0  0  0
 10 27  1  0  0  0  0
 11 13  2  0  0  0  0
 11 14  1  0  0  0  0
 12 13  1  0  0  0  0
 12 28  1  0  0  0  0
 12 29  1  0  0  0  0
 13 30  1  0  0  0  0
 14 31  1  0  0  0  0
 14 32  1  0  0  0  0
 15 16  1  0  0  0  0
 15 17  1  0  0  0  0
 15 18  1  0  0  0  0
 16 19  1  0  0  0  0
 16 20  1  0  0  0  0
 16 34  1  0  0  0  0
 17 21  1  0  0  0  0
 17 35  1  0  0  0  0
 19 36  1  0  0  0  0
 19 37  1  0  0  0  0
 19 38  1  0  0  0  0
 20 39  1  0  0  0  0
 20 40  1  0  0  0  0
 20 41  1  0  0  0  0
 21 42  1  0  0  0  0
 21 43  1  0  0  0  0
 21 44  1  0  0  0  0
M  END
> <PUBCHEM_COMPOUND_CID>
442758

> <PUBCHEM_CONFORMER_RMSD>
0.8

> <PUBCHEM_CONFORMER_DIVERSEORDER>
1
8
141
205
199
51
264
99
122
263
148
172
89
169
258
171
82
257
214
152
238
116
230
143
217
139
135
105
84
124
140
237
206
265
212
226
120
136
57
163
154
191
119
194
111
68
224
106
242
104
97
239
196
45
189
81
198
142
210
156
31
248
243
113
100
117
145
53
218
87
42
260
202
34
132
55
101
125
153
109
176
256
229
261
177
155
221
64
115
70
167
131
61
192
80
73
128
179
213
146
44
225
173
222
262
151
85
33
259
20
12
159
69
150
91
236
219
223
195
56
21
164
67
59
18
32
10
187
25
180
246
133
241
62
175
52
162
3
138
96
27
86
92
254
103
165
36
235
88
7
93
129
201
178
267
253
174
137
118
182
204
90
114
58
75
209
215
83
40
79
16
50
4
102
77
203
107
14
71
110
184
149
30
5
160
48
249
2
247
181
130
29
39
49
186
65
233
231
220
228
47
60
72
94
76
227
166
190
197
134
13
54
95
147
183
24
234
255
193
74
127
200
185
161
208
23
245
46
63
112
17
9
168
6
38
35
216
244
26
266
22
126
98
170
251
144
41
240
15
43
11
157
78
123
207
232
121
108
158
211
28
19
250
66
252
37
188

> <PUBCHEM_MMFF94_PARTIAL_CHARGES>
20
1 -0.68
11 -0.28
12 0.41
13 -0.29
14 0.42
15 0.34
17 0.28
18 0.66
2 -0.43
3 -0.68
30 0.15
33 0.4
4 -0.68
45 0.4
46 0.4
5 -0.57
6 -0.81
7 0.41
8 0.28
9 0.27

> <PUBCHEM_EFFECTIVE_ROTOR_COUNT>
6.8

> <PUBCHEM_PHARMACOPHORE_FEATURES>
11
1 1 acceptor
1 1 donor
1 3 acceptor
1 3 donor
1 4 acceptor
1 4 donor
1 5 acceptor
1 6 cation
3 16 19 20 hydrophobe
5 6 7 11 12 13 rings
5 6 7 8 9 10 rings

> <PUBCHEM_HEAVY_ATOM_COUNT>
21

> <PUBCHEM_ATOM_DEF_STEREO_COUNT>
4

> <PUBCHEM_ATOM_UDEF_STEREO_COUNT>
0

> <PUBCHEM_BOND_DEF_STEREO_COUNT>
0

> <PUBCHEM_BOND_UDEF_STEREO_COUNT>
0

> <PUBCHEM_ISOTOPIC_ATOM_COUNT>
0

> <PUBCHEM_COMPONENT_COUNT>
1

> <PUBCHEM_CACTVS_TAUTO_COUNT>
1

> <PUBCHEM_CONFORMER_ID>
0006C18600000001

> <PUBCHEM_MMFF94_ENERGY>
39.7097

> <PUBCHEM_FEATURE_SELFOVERLAP>
56.193

> <PUBCHEM_SHAPE_FINGERPRINT>
10366900 7 17969792886359296345
10616163 171 18411411783132246511
11552529 35 17386007209330482767
11578080 2 17773616935422094109
12363563 72 15769785653631107788
12500047 106 18338519758478965109
12553582 1 18201145552008003221
12633257 1 18261113040434931369
13224815 77 18130792252147580969
13533116 47 18335706087313184647
13583140 156 18261969521391445837
14081887 123 18189908508580324403
14178342 30 18341335500288278968
14223421 5 18408606958854667245
14289901 80 18411139112754012329
14866123 147 16026469189972328678
17804303 29 18267018555879118726
1813 80 17203607077920056701
19862831 5 7060379219215680601
20442098 301 18343301495798258287
2255824 54 17773298050831439332
22646028 28 18131630093146205135
23559900 14 18114735040101777605
339767 52 18059583434168781387
3797600 57 17604712140731327512
5104073 3 18412822517038499889
6442390 28 18191870020587389112
7064713 232 18264776630406321667
7097593 13 18340771523879982404
8988823 20 18261405407928856285
90316 7 18342731949429847829
9709674 26 18410006645958341799
9882013 296 18188773833981696149

> <PUBCHEM_SHAPE_MULTIPOLES>
397.84
8.99
2.65
1.37
3.35
0.61
-0.11
0.7
2.07
-0.53
0.3
-1.11
-0.16
-0.4

> <PUBCHEM_SHAPE_SELFOVERLAP>
816.386

> <PUBCHEM_SHAPE_VOLUME>
232.4

> <PUBCHEM_COORDINATE_TYPE>
2
5
10

$$$$

