259035
  -OEChem-07051213062D

 59 61  0     0  0  0  0  0  0999 V2000
    7.1962   -0.2228    0.0000 O   0  0  0  0  0  0  0  0  0  0  0  0
   10.7263   -0.2469    0.0000 O   0  0  0  0  0  0  0  0  0  0  0  0
    9.8047   -1.7673    0.0000 O   0  0  0  0  0  0  0  0  0  0  0  0
    2.8660    3.2772    0.0000 O   0  0  0  0  0  0  0  0  0  0  0  0
   11.5981    1.2498    0.0000 O   0  0  0  0  0  0  0  0  0  0  0  0
    8.9214   -3.2572    0.0000 O   0  0  0  0  0  0  0  0  0  0  0  0
    6.3301    0.2772    0.0000 C   0  0  0  0  0  0  0  0  0  0  0  0
    6.3301    1.2772    0.0000 C   0  0  0  0  0  0  0  0  0  0  0  0
    7.1962    1.7772    0.0000 C   0  0  0  0  0  0  0  0  0  0  0  0
    8.0622    1.2772    0.0000 C   0  0  0  0  0  0  0  0  0  0  0  0
    8.0622    0.2772    0.0000 C   0  0  0  0  0  0  0  0  0  0  0  0
    5.8301   -0.5888    0.0000 C   0  0  0  0  0  0  0  0  0  0  0  0
    5.3301    0.2772    0.0000 C   0  0  0  0  0  0  0  0  0  0  0  0
    7.1962    2.7772    0.0000 C   0  0  0  0  0  0  0  0  0  0  0  0
    5.4641    1.7772    0.0000 C   0  0  0  0  0  0  0  0  0  0  0  0
    8.9561   -0.2574    0.0000 C   0  0  0  0  0  0  0  0  0  0  0  0
    8.9561    1.8119    0.0000 C   0  0  0  0  0  0  0  0  0  0  0  0
    9.8622    0.2564    0.0000 C   0  0  0  0  0  0  0  0  0  0  0  0
    9.8622    1.2981    0.0000 C   0  0  0  0  0  0  0  0  0  0  0  0
    8.0622    3.2772    0.0000 C   0  0  0  0  0  0  0  0  0  0  0  0
    8.9446   -1.2574    0.0000 C   0  0  0  0  0  0  0  0  0  0  0  0
    5.4641    2.7772    0.0000 C   0  0  0  0  0  0  0  0  0  0  0  0
    4.5981    1.2772    0.0000 C   0  0  0  0  0  0  0  0  0  0  0  0
    4.5981    3.2772    0.0000 C   0  0  0  0  0  0  0  0  0  0  0  0
    3.7320    1.7772    0.0000 C   0  0  0  0  0  0  0  0  0  0  0  0
    3.7320    2.7772    0.0000 C   0  0  0  0  0  0  0  0  0  0  0  0
   11.5942    0.2498    0.0000 C   0  0  0  0  0  0  0  0  0  0  0  0
    9.7932   -2.7673    0.0000 C   0  0  0  0  0  0  0  0  0  0  0  0
   12.4583   -0.2536    0.0000 C   0  0  0  0  0  0  0  0  0  0  0  0
    2.0000    2.7772    0.0000 C   0  0  0  0  0  0  0  0  0  0  0  0
   10.6534   -3.2772    0.0000 C   0  0  0  0  0  0  0  0  0  0  0  0
    5.3301    0.8972    0.0000 H   0  0  0  0  0  0  0  0  0  0  0  0
    4.7101    0.2772    0.0000 H   0  0  0  0  0  0  0  0  0  0  0  0
    5.2932   -0.2788    0.0000 H   0  0  0  0  0  0  0  0  0  0  0  0
    5.5201   -1.1257    0.0000 H   0  0  0  0  0  0  0  0  0  0  0  0
    6.3671   -0.8988    0.0000 H   0  0  0  0  0  0  0  0  0  0  0  0
    5.3301   -0.3428    0.0000 H   0  0  0  0  0  0  0  0  0  0  0  0
    6.9841    3.3598    0.0000 H   0  0  0  0  0  0  0  0  0  0  0  0
    6.5856    2.6696    0.0000 H   0  0  0  0  0  0  0  0  0  0  0  0
    8.9490    2.4319    0.0000 H   0  0  0  0  0  0  0  0  0  0  0  0
   10.3979    1.6101    0.0000 H   0  0  0  0  0  0  0  0  0  0  0  0
    8.3722    2.7403    0.0000 H   0  0  0  0  0  0  0  0  0  0  0  0
    8.5991    3.5872    0.0000 H   0  0  0  0  0  0  0  0  0  0  0  0
    7.7522    3.8142    0.0000 H   0  0  0  0  0  0  0  0  0  0  0  0
    8.3353   -1.1426    0.0000 H   0  0  0  0  0  0  0  0  0  0  0  0
    8.7258   -1.8375    0.0000 H   0  0  0  0  0  0  0  0  0  0  0  0
    6.0010    3.0872    0.0000 H   0  0  0  0  0  0  0  0  0  0  0  0
    4.5981    0.6572    0.0000 H   0  0  0  0  0  0  0  0  0  0  0  0
    4.5981    3.8972    0.0000 H   0  0  0  0  0  0  0  0  0  0  0  0
    3.1951    1.4672    0.0000 H   0  0  0  0  0  0  0  0  0  0  0  0
   12.1462   -0.7893    0.0000 H   0  0  0  0  0  0  0  0  0  0  0  0
   12.9941   -0.5656    0.0000 H   0  0  0  0  0  0  0  0  0  0  0  0
   12.7704    0.2822    0.0000 H   0  0  0  0  0  0  0  0  0  0  0  0
    1.6900    3.3142    0.0000 H   0  0  0  0  0  0  0  0  0  0  0  0
    1.4631    2.4672    0.0000 H   0  0  0  0  0  0  0  0  0  0  0  0
    2.3100    2.2403    0.0000 H   0  0  0  0  0  0  0  0  0  0  0  0
   10.3372   -3.8106    0.0000 H   0  0  0  0  0  0  0  0  0  0  0  0
   11.1867   -3.5934    0.0000 H   0  0  0  0  0  0  0  0  0  0  0  0
   10.9696   -2.7439    0.0000 H   0  0  0  0  0  0  0  0  0  0  0  0
  1  7  1  0  0  0  0
  1 11  1  0  0  0  0
  2 18  1  0  0  0  0
  2 27  1  0  0  0  0
  3 21  1  0  0  0  0
  3 28  1  0  0  0  0
  4 26  1  0  0  0  0
  4 30  1  0  0  0  0
  5 27  2  0  0  0  0
  6 28  2  0  0  0  0
  7  8  1  0  0  0  0
  7 12  1  0  0  0  0
  7 13  1  0  0  0  0
  8  9  2  0  0  0  0
  8 15  1  0  0  0  0
  9 10  1  0  0  0  0
  9 14  1  0  0  0  0
 10 11  2  0  0  0  0
 10 17  1  0  0  0  0
 11 16  1  0  0  0  0
 12 34  1  0  0  0  0
 12 35  1  0  0  0  0
 12 36  1  0  0  0  0
 13 32  1  0  0  0  0
 13 33  1  0  0  0  0
 13 37  1  0  0  0  0
 14 20  1  0  0  0  0
 14 38  1  0  0  0  0
 14 39  1  0  0  0  0
 15 22  2  0  0  0  0
 15 23  1  0  0  0  0
 16 18  2  0  0  0  0
 16 21  1  0  0  0  0
 17 19  2  0  0  0  0
 17 40  1  0  0  0  0
 18 19  1  0  0  0  0
 19 41  1  0  0  0  0
 20 42  1  0  0  0  0
 20 43  1  0  0  0  0
 20 44  1  0  0  0  0
 21 45  1  0  0  0  0
 21 46  1  0  0  0  0
 22 24  1  0  0  0  0
 22 47  1  0  0  0  0
 23 25  2  0  0  0  0
 23 48  1  0  0  0  0
 24 26  2  0  0  0  0
 24 49  1  0  0  0  0
 25 26  1  0  0  0  0
 25 50  1  0  0  0  0
 27 29  1  0  0  0  0
 28 31  1  0  0  0  0
 29 51  1  0  0  0  0
 29 52  1  0  0  0  0
 29 53  1  0  0  0  0
 30 54  1  0  0  0  0
 30 55  1  0  0  0  0
 30 56  1  0  0  0  0
 31 57  1  0  0  0  0
 31 58  1  0  0  0  0
 31 59  1  0  0  0  0
M  END
> <PUBCHEM_COMPOUND_CID>
259035

> <PUBCHEM_COMPOUND_CANONICALIZED>
1

> <PUBCHEM_CACTVS_COMPLEXITY>
688

> <PUBCHEM_CACTVS_HBOND_ACCEPTOR>
6

> <PUBCHEM_CACTVS_HBOND_DONOR>
0

> <PUBCHEM_CACTVS_ROTATABLE_BOND>
8

> <PUBCHEM_CACTVS_SUBSKEYS>
AAADceB4OAAAAAAAAAAAAAAAAAAAAAAAAAAwYIAAAAAAAACBQAAAGgAAAAAADESgmAIyDoAABACIAiDSCAACCAAgIAAIiAAGCIgMJyKEMRqCOiClwBUIqAeA4OwOIAACCAAIAABAAAQQABAAAAAAAAAAAA==

> <PUBCHEM_IUPAC_OPENEYE_NAME>
[7-acetoxy-4-ethyl-3-(4-methoxyphenyl)-2,2-dimethyl-chromen-8-yl]methyl acetate

> <PUBCHEM_IUPAC_CAS_NAME>
acetic acid [7-acetyloxy-4-ethyl-3-(4-methoxyphenyl)-2,2-dimethyl-1-benzopyran-8-yl]methyl ester

> <PUBCHEM_IUPAC_NAME>
[7-acetyloxy-4-ethyl-3-(4-methoxyphenyl)-2,2-dimethylchromen-8-yl]methyl acetate

> <PUBCHEM_IUPAC_SYSTEMATIC_NAME>
[7-acetyloxy-4-ethyl-3-(4-methoxyphenyl)-2,2-dimethyl-chromen-8-yl]methyl ethanoate

> <PUBCHEM_IUPAC_TRADITIONAL_NAME>
acetic acid [7-acetoxy-4-ethyl-3-(4-methoxyphenyl)-2,2-dimethyl-chromen-8-yl]methyl ester

> <PUBCHEM_IUPAC_INCHI>
InChI=1S/C25H28O6/c1-7-19-20-12-13-22(30-16(3)27)21(14-29-15(2)26)24(20)31-25(4,5)23(19)17-8-10-18(28-6)11-9-17/h8-13H,7,14H2,1-6H3

> <PUBCHEM_IUPAC_INCHIKEY>
KHVACRWDPPJMQC-UHFFFAOYSA-N

> <PUBCHEM_XLOGP3_AA>
3.8

> <PUBCHEM_EXACT_MASS>
424.188589

> <PUBCHEM_MOLECULAR_FORMULA>
C25H28O6

> <PUBCHEM_MOLECULAR_WEIGHT>
424.48622

> <PUBCHEM_OPENEYE_CAN_SMILES>
CCC1=C(C(OC2=C1C=CC(=C2COC(=O)C)OC(=O)C)(C)C)C3=CC=C(C=C3)OC

> <PUBCHEM_OPENEYE_ISO_SMILES>
CCC1=C(C(OC2=C1C=CC(=C2COC(=O)C)OC(=O)C)(C)C)C3=CC=C(C=C3)OC

> <PUBCHEM_CACTVS_TPSA>
71.1

> <PUBCHEM_MONOISOTOPIC_WEIGHT>
424.188589

> <PUBCHEM_TOTAL_CHARGE>
0

> <PUBCHEM_HEAVY_ATOM_COUNT>
31

> <PUBCHEM_ATOM_DEF_STEREO_COUNT>
0

> <PUBCHEM_ATOM_UDEF_STEREO_COUNT>
0

> <PUBCHEM_BOND_DEF_STEREO_COUNT>
0

> <PUBCHEM_BOND_UDEF_STEREO_COUNT>
0

> <PUBCHEM_ISOTOPIC_ATOM_COUNT>
0

> <PUBCHEM_COMPONENT_COUNT>
1

> <PUBCHEM_CACTVS_TAUTO_COUNT>
1

> <PUBCHEM_COORDINATE_TYPE>
1
5
255

> <PUBCHEM_BONDANNOTATIONS>
10  11  8
10  17  8
11  16  8
15  22  8
15  23  8
16  18  8
17  19  8
18  19  8
22  24  8
23  25  8
24  26  8
25  26  8

$$$$

