34755
  -OEChem-07051212433D

 49 51  0     1  0  0  0  0  0999 V2000
    1.6488   -0.5573    1.8263 S   0  3  2  0  0  0  0  0  0  0  0  0
   -1.1285   -1.6747    1.0647 O   0  0  0  0  0  0  0  0  0  0  0  0
   -0.9934   -4.4048   -0.2869 O   0  0  0  0  0  0  0  0  0  0  0  0
   -2.4488   -2.9210   -2.0376 O   0  0  0  0  0  0  0  0  0  0  0  0
    4.6477    0.2211   -1.9915 O   0  5  0  0  0  0  0  0  0  0  0  0
    6.4653    0.1486   -0.6103 O   0  0  0  0  0  0  0  0  0  0  0  0
   -2.8850   -0.5023   -0.0171 N   0  0  0  0  0  0  0  0  0  0  0  0
   -4.5571    0.9428   -0.3231 N   0  0  0  0  0  0  0  0  0  0  0  0
   -1.0627    1.0526    0.3881 N   0  0  0  0  0  0  0  0  0  0  0  0
    4.5333    2.7828   -0.9036 N   0  0  0  0  0  0  0  0  0  0  0  0
   -1.8307    3.3669    0.2862 N   0  0  0  0  0  0  0  0  0  0  0  0
   -4.1094    3.9459   -0.1601 N   0  0  0  0  0  0  0  0  0  0  0  0
    0.0209   -2.4083    0.5819 C   0  0  1  0  0  0  0  0  0  0  0  0
   -0.4351   -3.1485   -0.6716 C   0  0  2  0  0  0  0  0  0  0  0  0
   -1.5345   -2.2467   -1.1974 C   0  0  2  0  0  0  0  0  0  0  0  0
   -2.1883   -1.7817    0.0949 C   0  0  1  0  0  0  0  0  0  0  0  0
    1.1437   -1.4169    0.3103 C   0  0  0  0  0  0  0  0  0  0  0  0
    3.3034   -0.1047    1.2573 C   0  0  0  0  0  0  0  0  0  0  0  0
   -2.3409    0.7441    0.1220 C   0  0  0  0  0  0  0  0  0  0  0  0
   -4.2184   -0.3289   -0.2843 C   0  0  0  0  0  0  0  0  0  0  0  0
    3.2580    1.1900    0.4501 C   0  0  0  0  0  0  0  0  0  0  0  0
    2.1412   -2.0367    2.7403 C   0  0  0  0  0  0  0  0  0  0  0  0
   -3.3933    1.6247   -0.0707 C   0  0  0  0  0  0  0  0  0  0  0  0
    4.6443    1.5876   -0.0646 C   0  0  1  0  0  0  0  0  0  0  0  0
   -3.1022    2.9822    0.0200 C   0  0  0  0  0  0  0  0  0  0  0  0
   -0.9036    2.3925    0.4512 C   0  0  0  0  0  0  0  0  0  0  0  0
    5.3250    0.5508   -0.9747 C   0  0  0  0  0  0  0  0  0  0  0  0
    0.2891   -3.1314    1.3558 H   0  0  0  0  0  0  0  0  0  0  0  0
    0.3542   -3.3429   -1.4034 H   0  0  0  0  0  0  0  0  0  0  0  0
   -1.1041   -1.4046   -1.7516 H   0  0  0  0  0  0  0  0  0  0  0  0
   -2.9212   -2.5047    0.4745 H   0  0  0  0  0  0  0  0  0  0  0  0
    1.9986   -1.9525   -0.1147 H   0  0  0  0  0  0  0  0  0  0  0  0
    0.8383   -0.6487   -0.4054 H   0  0  0  0  0  0  0  0  0  0  0  0
    3.7496   -0.9281    0.6924 H   0  0  0  0  0  0  0  0  0  0  0  0
    3.9210    0.0539    2.1486 H   0  0  0  0  0  0  0  0  0  0  0  0
   -0.2699   -4.9456    0.0736 H   0  0  0  0  0  0  0  0  0  0  0  0
   -2.7843   -3.6962   -1.5561 H   0  0  0  0  0  0  0  0  0  0  0  0
   -4.8888   -1.1628   -0.4418 H   0  0  0  0  0  0  0  0  0  0  0  0
    2.8491    2.0001    1.0686 H   0  0  0  0  0  0  0  0  0  0  0  0
    2.5673    1.0694   -0.3950 H   0  0  0  0  0  0  0  0  0  0  0  0
    2.6743   -2.7454    2.1018 H   0  0  0  0  0  0  0  0  0  0  0  0
    1.2597   -2.5081    3.1801 H   0  0  0  0  0  0  0  0  0  0  0  0
    2.7992   -1.7335    3.5596 H   0  0  0  0  0  0  0  0  0  0  0  0
    5.2968    1.8148    0.7866 H   0  0  0  0  0  0  0  0  0  0  0  0
    0.1035    2.7361    0.6621 H   0  0  0  0  0  0  0  0  0  0  0  0
    5.4518    3.0533   -1.2525 H   0  0  0  0  0  0  0  0  0  0  0  0
    3.9529    2.5901   -1.7189 H   0  0  0  0  0  0  0  0  0  0  0  0
   -3.8729    4.9262   -0.0896 H   0  0  0  0  0  0  0  0  0  0  0  0
   -5.0589    3.6613   -0.3591 H   0  0  0  0  0  0  0  0  0  0  0  0
  1 17  1  0  0  0  0
  1 18  1  0  0  0  0
  1 22  1  0  0  0  0
  2 13  1  0  0  0  0
  2 16  1  0  0  0  0
  3 14  1  0  0  0  0
  3 36  1  0  0  0  0
  4 15  1  0  0  0  0
  4 37  1  0  0  0  0
  5 27  1  0  0  0  0
  6 27  2  0  0  0  0
  7 16  1  0  0  0  0
  7 19  1  0  0  0  0
  7 20  1  0  0  0  0
  8 20  2  0  0  0  0
  8 23  1  0  0  0  0
  9 19  2  0  0  0  0
  9 26  1  0  0  0  0
 10 24  1  0  0  0  0
 10 46  1  0  0  0  0
 10 47  1  0  0  0  0
 11 25  1  0  0  0  0
 11 26  2  0  0  0  0
 12 25  1  0  0  0  0
 12 48  1  0  0  0  0
 12 49  1  0  0  0  0
 13 14  1  0  0  0  0
 13 17  1  0  0  0  0
 13 28  1  0  0  0  0
 14 15  1  0  0  0  0
 14 29  1  0  0  0  0
 15 16  1  0  0  0  0
 15 30  1  0  0  0  0
 16 31  1  0  0  0  0
 17 32  1  0  0  0  0
 17 33  1  0  0  0  0
 18 21  1  0  0  0  0
 18 34  1  0  0  0  0
 18 35  1  0  0  0  0
 19 23  1  0  0  0  0
 20 38  1  0  0  0  0
 21 24  1  0  0  0  0
 21 39  1  0  0  0  0
 21 40  1  0  0  0  0
 22 41  1  0  0  0  0
 22 42  1  0  0  0  0
 22 43  1  0  0  0  0
 23 25  2  0  0  0  0
 24 27  1  0  0  0  0
 24 44  1  0  0  0  0
 26 45  1  0  0  0  0
M  CHG  2   1   1   5  -1
M  END
> <PUBCHEM_COMPOUND_CID>
34755

> <PUBCHEM_CONFORMER_RMSD>
0.8

> <PUBCHEM_CONFORMER_DIVERSEORDER>
3
109
70
173
44
130
90
68
205
37
117
181
40
197
121
114
10
106
82
116
48
91
154
216
164
15
179
137
156
145
46
208
95
175
19
55
141
118
186
13
203
136
155
139
11
53
60
112
111
122
135
152
133
184
107
86
207
75
204
222
23
113
96
98
39
174
134
63
178
217
218
58
79
206
202
140
209
69
193
168
16
78
24
170
185
142
66
211
83
102
159
54
85
143
105
77
25
151
124
153
29
129
71
191
33
100
50
125
180
190
219
99
192
144
59
176
7
169
198
120
56
21
160
163
30
183
158
80
150
20
52
89
103
223
220
214
81
157
27
36
92
64
57
34
172
196
132
38
210
101
177
2
97
162
194
61
26
201
127
51
67
187
88
8
166
6
62
76
32
167
104
123
47
42
4
108
148
87
45
94
188
74
110
171
43
149
49
41
161
147
17
215
1
31
72
146
195
84
18
126
12
213
165
28
182
131
128
35
212
22
115
221
14
73
199
138
119
93
9
200
189
5
65

> <PUBCHEM_EFFECTIVE_ROTOR_COUNT>
8

> <PUBCHEM_PHARMACOPHORE_FEATURES>
18
1 10 cation
1 10 donor
1 12 cation
1 12 donor
1 2 acceptor
1 3 acceptor
1 3 donor
1 4 acceptor
1 4 donor
1 5 acceptor
1 6 acceptor
3 5 6 27 anion
3 7 8 20 cation
3 7 9 19 cation
3 9 11 26 cation
5 2 13 14 15 16 rings
5 7 8 19 20 23 rings
6 9 11 19 23 25 26 rings

> <PUBCHEM_HEAVY_ATOM_COUNT>
27

> <PUBCHEM_ATOM_DEF_STEREO_COUNT>
5

> <PUBCHEM_ATOM_UDEF_STEREO_COUNT>
0

> <PUBCHEM_BOND_DEF_STEREO_COUNT>
0

> <PUBCHEM_BOND_UDEF_STEREO_COUNT>
0

> <PUBCHEM_ISOTOPIC_ATOM_COUNT>
0

> <PUBCHEM_COMPONENT_COUNT>
1

> <PUBCHEM_CACTVS_TAUTO_COUNT>
3

> <PUBCHEM_CONFORMER_ID>
000087C300000003

> <PUBCHEM_MMFF94_ENERGY>
57.7628

> <PUBCHEM_FEATURE_SELFOVERLAP>
92.012

> <PUBCHEM_SHAPE_FINGERPRINT>
10498660 4 18410580556509442962
10670039 82 18411984667597841292
10759866 29 18201726201331812514
10871710 139 18338803308204214023
10906281 52 18338238284588846745
11513181 2 18188214324154758999
12788726 201 18265350438216518927
13583140 156 16625750165035452489
13994607 96 17917423173134755075
14117953 113 17836660977616054348
14251751 93 18410571786677023300
14251757 17 17896584245802923334
14251757 5 18336825273853554798
14289585 56 17417532527234537652
1454969 45 18409169901331236947
14790565 3 18408038537752013593
14840074 17 17561074809042537692
14910302 57 17676776349245978198
14955137 171 18049428259044452731
15082195 135 17977113680022617069
15163728 17 18265607861154572627
15297060 5 18188768482626720616
15475509 8 17898293806075454311
15575132 122 18343021107886591333
17492 54 18340505399828492327
19319366 153 18060148604383152618
21033650 10 18199170803903281216
23366157 5 17837215144661847291
23557571 272 17897741859679695002
23559900 14 17830185957976700979
312425 83 18263912260359996356
3610482 184 18129644311296842052
38570 142 17846488254316673530
474144 1 18058181677218613576
5048184 11 18341895229317519456
53794403 172 17474671028078304789
7288768 16 17274821337722738442
9981440 41 18341882043672812963

> <PUBCHEM_SHAPE_MULTIPOLES>
500.26
10.38
4.8
1.59
12.67
0.38
-0.39
-8.06
3.8
-4.28
0.7
1.69
1.14
-1.97

> <PUBCHEM_SHAPE_SELFOVERLAP>
1042.362

> <PUBCHEM_SHAPE_VOLUME>
286.9

> <PUBCHEM_COORDINATE_TYPE>
2
5
10

$$$$

