443807
  -OEChem-07051213032D

 38 41  0     0  0  0  0  0  0999 V2000
    5.5161   -0.1673    0.0000 O   0  0  0  0  0  0  0  0  0  0  0  0
    5.6083   -1.2129    0.0000 O   0  0  0  0  0  0  0  0  0  0  0  0
    2.8963    3.3641    0.0000 O   0  0  0  0  0  0  0  0  0  0  0  0
    2.0520    1.8327    0.0000 O   0  0  0  0  0  0  0  0  0  0  0  0
    3.7841   -0.1673    0.0000 C   0  0  0  0  0  0  0  0  0  0  0  0
    3.8001   -1.2088    0.0000 C   0  0  0  0  0  0  0  0  0  0  0  0
    2.9180    0.3327    0.0000 C   0  0  0  0  0  0  0  0  0  0  0  0
    2.9021   -1.7366    0.0000 C   0  0  0  0  0  0  0  0  0  0  0  0
    3.7841    1.8327    0.0000 C   0  0  0  0  0  0  0  0  0  0  0  0
    4.6501    1.3327    0.0000 C   0  0  0  0  0  0  0  0  0  0  0  0
    4.6501    0.3327    0.0000 C   0  0  0  0  0  0  0  0  0  0  0  0
    2.9180    1.3327    0.0000 C   0  0  0  0  0  0  0  0  0  0  0  0
    2.0080   -0.1742    0.0000 C   0  0  0  0  0  0  0  0  0  0  0  0
    2.0000   -1.2158    0.0000 C   0  0  0  0  0  0  0  0  0  0  0  0
    4.7520   -1.7295    0.0000 C   0  0  0  0  0  0  0  0  0  0  0  0
    2.8937   -2.8216    0.0000 C   0  0  0  0  0  0  0  0  0  0  0  0
    3.8334   -3.3641    0.0000 C   0  0  0  0  0  0  0  0  0  0  0  0
    3.7680    2.8742    0.0000 C   0  0  0  0  0  0  0  0  0  0  0  0
    4.7688   -2.8143    0.0000 C   0  0  0  0  0  0  0  0  0  0  0  0
    5.5601    1.8395    0.0000 C   0  0  0  0  0  0  0  0  0  0  0  0
    4.6660    3.4019    0.0000 C   0  0  0  0  0  0  0  0  0  0  0  0
    5.5681    2.8811    0.0000 C   0  0  0  0  0  0  0  0  0  0  0  0
    3.8372   -4.3640    0.0000 C   0  0  0  0  0  0  0  0  0  0  0  0
    2.8847    4.3640    0.0000 C   0  0  0  0  0  0  0  0  0  0  0  0
    1.4747    0.1420    0.0000 H   0  0  0  0  0  0  0  0  0  0  0  0
    1.4619   -1.5237    0.0000 H   0  0  0  0  0  0  0  0  0  0  0  0
    2.3556   -3.1295    0.0000 H   0  0  0  0  0  0  0  0  0  0  0  0
    5.3093   -3.1181    0.0000 H   0  0  0  0  0  0  0  0  0  0  0  0
    6.0934    1.5233    0.0000 H   0  0  0  0  0  0  0  0  0  0  0  0
    4.6636    4.0219    0.0000 H   0  0  0  0  0  0  0  0  0  0  0  0
    6.1062    3.1890    0.0000 H   0  0  0  0  0  0  0  0  0  0  0  0
    3.2172   -4.3664    0.0000 H   0  0  0  0  0  0  0  0  0  0  0  0
    3.8396   -4.9840    0.0000 H   0  0  0  0  0  0  0  0  0  0  0  0
    4.4572   -4.3617    0.0000 H   0  0  0  0  0  0  0  0  0  0  0  0
    6.1511   -1.5125    0.0000 H   0  0  0  0  0  0  0  0  0  0  0  0
    3.5046    4.3712    0.0000 H   0  0  0  0  0  0  0  0  0  0  0  0
    2.8775    4.9840    0.0000 H   0  0  0  0  0  0  0  0  0  0  0  0
    2.2647    4.3569    0.0000 H   0  0  0  0  0  0  0  0  0  0  0  0
  1 11  2  0  0  0  0
  2 15  1  0  0  0  0
  2 35  1  0  0  0  0
  3 18  1  0  0  0  0
  3 24  1  0  0  0  0
  4 12  2  0  0  0  0
  5  6  1  0  0  0  0
  5  7  2  0  0  0  0
  5 11  1  0  0  0  0
  6  8  2  0  0  0  0
  6 15  1  0  0  0  0
  7 12  1  0  0  0  0
  7 13  1  0  0  0  0
  8 14  1  0  0  0  0
  8 16  1  0  0  0  0
  9 10  2  0  0  0  0
  9 12  1  0  0  0  0
  9 18  1  0  0  0  0
 10 11  1  0  0  0  0
 10 20  1  0  0  0  0
 13 14  2  0  0  0  0
 13 25  1  0  0  0  0
 14 26  1  0  0  0  0
 15 19  2  0  0  0  0
 16 17  2  0  0  0  0
 16 27  1  0  0  0  0
 17 19  1  0  0  0  0
 17 23  1  0  0  0  0
 18 21  2  0  0  0  0
 19 28  1  0  0  0  0
 20 22  2  0  0  0  0
 20 29  1  0  0  0  0
 21 22  1  0  0  0  0
 21 30  1  0  0  0  0
 22 31  1  0  0  0  0
 23 32  1  0  0  0  0
 23 33  1  0  0  0  0
 23 34  1  0  0  0  0
 24 36  1  0  0  0  0
 24 37  1  0  0  0  0
 24 38  1  0  0  0  0
M  END
> <PUBCHEM_COMPOUND_CID>
443807

> <PUBCHEM_COMPOUND_CANONICALIZED>
1

> <PUBCHEM_CACTVS_COMPLEXITY>
530

> <PUBCHEM_CACTVS_HBOND_ACCEPTOR>
4

> <PUBCHEM_CACTVS_HBOND_DONOR>
1

> <PUBCHEM_CACTVS_ROTATABLE_BOND>
1

> <PUBCHEM_CACTVS_SUBSKEYS>
AAADccB4OAAAAAAAAAAAAAAAAAAAAAAAAAAwYMGAAAAAAADBVAAAGgAACAAADASAmAIyBsAABgCIAqBSAAACCAAkIAAIiAEGCMgMJjaGNRqAcWAk4BEIuYeLzPDOwAADAAAYAACAAAYAADAAAAAAAAAAAA==

> <PUBCHEM_IUPAC_OPENEYE_NAME>
1-hydroxy-8-methoxy-3-methyl-benzo[a]anthracene-7,12-dione

> <PUBCHEM_IUPAC_CAS_NAME>
1-hydroxy-8-methoxy-3-methylbenzo[a]anthracene-7,12-dione

> <PUBCHEM_IUPAC_NAME>
1-hydroxy-8-methoxy-3-methylbenzo[a]anthracene-7,12-dione

> <PUBCHEM_IUPAC_SYSTEMATIC_NAME>
8-methoxy-3-methyl-1-oxidanyl-benzo[a]anthracene-7,12-dione

> <PUBCHEM_IUPAC_TRADITIONAL_NAME>
1-hydroxy-8-methoxy-3-methyl-benz[a]anthracene-7,12-quinone

> <PUBCHEM_IUPAC_INCHI>
InChI=1S/C20H14O4/c1-10-8-11-6-7-13-18(16(11)14(21)9-10)20(23)12-4-3-5-15(24-2)17(12)19(13)22/h3-9,21H,1-2H3

> <PUBCHEM_IUPAC_INCHIKEY>
YCYXQISGHUDFRO-UHFFFAOYSA-N

> <PUBCHEM_XLOGP3_AA>
4.1

> <PUBCHEM_EXACT_MASS>
318.089209

> <PUBCHEM_MOLECULAR_FORMULA>
C20H14O4

> <PUBCHEM_MOLECULAR_WEIGHT>
318.32276

> <PUBCHEM_OPENEYE_CAN_SMILES>
CC1=CC(=C2C(=C1)C=CC3=C2C(=O)C4=C(C3=O)C(=CC=C4)OC)O

> <PUBCHEM_OPENEYE_ISO_SMILES>
CC1=CC(=C2C(=C1)C=CC3=C2C(=O)C4=C(C3=O)C(=CC=C4)OC)O

> <PUBCHEM_CACTVS_TPSA>
63.6

> <PUBCHEM_MONOISOTOPIC_WEIGHT>
318.089209

> <PUBCHEM_TOTAL_CHARGE>
0

> <PUBCHEM_HEAVY_ATOM_COUNT>
24

> <PUBCHEM_ATOM_DEF_STEREO_COUNT>
0

> <PUBCHEM_ATOM_UDEF_STEREO_COUNT>
0

> <PUBCHEM_BOND_DEF_STEREO_COUNT>
0

> <PUBCHEM_BOND_UDEF_STEREO_COUNT>
0

> <PUBCHEM_ISOTOPIC_ATOM_COUNT>
0

> <PUBCHEM_COMPONENT_COUNT>
1

> <PUBCHEM_CACTVS_TAUTO_COUNT>
18

> <PUBCHEM_COORDINATE_TYPE>
1
5
255

> <PUBCHEM_BONDANNOTATIONS>
10  20  8
13  14  8
15  19  8
16  17  8
17  19  8
18  21  8
20  22  8
21  22  8
5  6  8
5  7  8
6  15  8
6  8  8
7  13  8
8  14  8
8  16  8
9  10  8
9  18  8

$$$$

