13591
  -OEChem-06241222392D

 15 15  0     0  0  0  0  0  0999 V2000
    3.6750    1.5194    0.0000 O   0  0  0  0  0  0  0  0  0  0  0  0
    2.8090    0.0194    0.0000 N   0  0  0  0  0  0  0  0  0  0  0  0
    2.8090    1.0194    0.0000 N   0  0  0  0  0  0  0  0  0  0  0  0
    3.3090   -1.5194    0.0000 C   0  0  0  0  0  0  0  0  0  0  0  0
    2.3090   -1.5194    0.0000 C   0  0  0  0  0  0  0  0  0  0  0  0
    2.0000   -0.5684    0.0000 C   0  0  0  0  0  0  0  0  0  0  0  0
    3.6180   -0.5684    0.0000 C   0  0  0  0  0  0  0  0  0  0  0  0
    3.2442   -2.1360    0.0000 H   0  0  0  0  0  0  0  0  0  0  0  0
    3.9155   -1.6483    0.0000 H   0  0  0  0  0  0  0  0  0  0  0  0
    1.7026   -1.6483    0.0000 H   0  0  0  0  0  0  0  0  0  0  0  0
    2.3738   -2.1360    0.0000 H   0  0  0  0  0  0  0  0  0  0  0  0
    1.6900   -0.0314    0.0000 H   0  0  0  0  0  0  0  0  0  0  0  0
    1.4336   -0.8205    0.0000 H   0  0  0  0  0  0  0  0  0  0  0  0
    4.1844   -0.8205    0.0000 H   0  0  0  0  0  0  0  0  0  0  0  0
    3.9280   -0.0314    0.0000 H   0  0  0  0  0  0  0  0  0  0  0  0
  1  3  2  0  0  0  0
  2  3  1  0  0  0  0
  2  6  1  0  0  0  0
  2  7  1  0  0  0  0
  4  5  1  0  0  0  0
  4  7  1  0  0  0  0
  4  8  1  0  0  0  0
  4  9  1  0  0  0  0
  5  6  1  0  0  0  0
  5 10  1  0  0  0  0
  5 11  1  0  0  0  0
  6 12  1  0  0  0  0
  6 13  1  0  0  0  0
  7 14  1  0  0  0  0
  7 15  1  0  0  0  0
M  END
> <PUBCHEM_COMPOUND_CID>
13591

> <PUBCHEM_COMPOUND_CANONICALIZED>
1

> <PUBCHEM_CACTVS_COMPLEXITY>
68.1

> <PUBCHEM_CACTVS_HBOND_ACCEPTOR>
3

> <PUBCHEM_CACTVS_HBOND_DONOR>
0

> <PUBCHEM_CACTVS_ROTATABLE_BOND>
0

> <PUBCHEM_CACTVS_SUBSKEYS>
AAADccBjIAAAAAAAAAAAAAAAAAAAAWAAAAAAAAAAAAAAAAAAAAAAHAAMAAAACADBAAQAAAIAAAABAAAAAAAAAAAAAAAQAAAIAAAAAAAAgAAEAAAAAACAAAAAAAAAAAAAAAAAAAAAAAAAAAAAAAAAAAAAAA==

> <PUBCHEM_IUPAC_OPENEYE_NAME>
1-nitrosopyrrolidine

> <PUBCHEM_IUPAC_CAS_NAME>
1-nitrosopyrrolidine

> <PUBCHEM_IUPAC_NAME>
1-nitrosopyrrolidine

> <PUBCHEM_IUPAC_SYSTEMATIC_NAME>
1-nitrosopyrrolidine

> <PUBCHEM_IUPAC_TRADITIONAL_NAME>
1-nitrosopyrrolidine

> <PUBCHEM_IUPAC_INCHI>
InChI=1S/C4H8N2O/c7-5-6-3-1-2-4-6/h1-4H2

> <PUBCHEM_IUPAC_INCHIKEY>
WNYADZVDBIBLJJ-UHFFFAOYSA-N

> <PUBCHEM_XLOGP3>
-0.2

> <PUBCHEM_EXACT_MASS>
100.063663

> <PUBCHEM_MOLECULAR_FORMULA>
C4H8N2O

> <PUBCHEM_MOLECULAR_WEIGHT>
100.11912

> <PUBCHEM_OPENEYE_CAN_SMILES>
C1CCN(C1)N=O

> <PUBCHEM_OPENEYE_ISO_SMILES>
C1CCN(C1)N=O

> <PUBCHEM_CACTVS_TPSA>
32.7

> <PUBCHEM_MONOISOTOPIC_WEIGHT>
100.063663

> <PUBCHEM_TOTAL_CHARGE>
0

> <PUBCHEM_HEAVY_ATOM_COUNT>
7

> <PUBCHEM_ATOM_DEF_STEREO_COUNT>
0

> <PUBCHEM_ATOM_UDEF_STEREO_COUNT>
0

> <PUBCHEM_BOND_DEF_STEREO_COUNT>
0

> <PUBCHEM_BOND_UDEF_STEREO_COUNT>
0

> <PUBCHEM_ISOTOPIC_ATOM_COUNT>
0

> <PUBCHEM_COMPONENT_COUNT>
1

> <PUBCHEM_CACTVS_TAUTO_COUNT>
1

> <PUBCHEM_COORDINATE_TYPE>
1
5
255

$$$$

