56927994
  -OEChem-07051213152D

 53 55  0     1  0  0  0  0  0999 V2000
    3.7782    1.7121    0.0000 O   0  0  0  0  0  0  0  0  0  0  0  0
    3.8000   -0.3193    0.0000 C   0  0  2  0  0  0  0  0  0  0  0  0
    3.8000   -1.3193    0.0000 C   0  0  1  0  0  0  0  0  0  0  0  0
    4.6660    0.1807    0.0000 C   0  0  1  0  0  0  0  0  0  0  0  0
    5.5321   -0.3193    0.0000 C   0  0  2  0  0  0  0  0  0  0  0  0
    2.9061   -1.8540    0.0000 C   0  0  0  0  0  0  0  0  0  0  0  0
    4.6660   -1.8193    0.0000 C   0  0  0  0  0  0  0  0  0  0  0  0
    2.9061    0.2153    0.0000 C   0  0  0  0  0  0  0  0  0  0  0  0
    5.5321   -1.3193    0.0000 C   0  0  0  0  0  0  0  0  0  0  0  0
    2.0000   -1.3402    0.0000 C   0  0  0  0  0  0  0  0  0  0  0  0
    2.0000   -0.2985    0.0000 C   0  0  0  0  0  0  0  0  0  0  0  0
    4.6500    1.2222    0.0000 C   0  0  1  0  0  0  0  0  0  0  0  0
    6.4421    0.1875    0.0000 C   0  0  1  0  0  0  0  0  0  0  0  0
    3.8000    0.6807    0.0000 C   0  0  0  0  0  0  0  0  0  0  0  0
    2.4161   -2.7258    0.0000 C   0  0  0  0  0  0  0  0  0  0  0  0
    3.4160   -2.7142    0.0000 C   0  0  0  0  0  0  0  0  0  0  0  0
    6.4501    1.2291    0.0000 C   0  0  0  0  0  0  0  0  0  0  0  0
    5.5480    1.7499    0.0000 C   0  0  0  0  0  0  0  0  0  0  0  0
    7.3022   -0.3225    0.0000 C   0  0  0  0  0  0  0  0  0  0  0  0
    7.3180    1.7258    0.0000 C   0  0  0  0  0  0  0  0  0  0  0  0
    7.3219    2.7258    0.0000 C   0  0  0  0  0  0  0  0  0  0  0  0
    3.8066   -2.1693    0.0000 H   0  0  0  0  0  0  0  0  0  0  0  0
    5.3989    0.6113    0.0000 H   0  0  0  0  0  0  0  0  0  0  0  0
    6.2649   -0.7500    0.0000 H   0  0  0  0  0  0  0  0  0  0  0  0
    4.2675   -2.2943    0.0000 H   0  0  0  0  0  0  0  0  0  0  0  0
    5.0646   -2.2943    0.0000 H   0  0  0  0  0  0  0  0  0  0  0  0
    3.3107    0.6851    0.0000 H   0  0  0  0  0  0  0  0  0  0  0  0
    2.5124    0.6943    0.0000 H   0  0  0  0  0  0  0  0  0  0  0  0
    5.7441   -1.9020    0.0000 H   0  0  0  0  0  0  0  0  0  0  0  0
    6.1426   -1.2117    0.0000 H   0  0  0  0  0  0  0  0  0  0  0  0
    1.3891   -1.2341    0.0000 H   0  0  0  0  0  0  0  0  0  0  0  0
    1.7909   -1.9238    0.0000 H   0  0  0  0  0  0  0  0  0  0  0  0
    1.7909    0.2852    0.0000 H   0  0  0  0  0  0  0  0  0  0  0  0
    1.3891   -0.4046    0.0000 H   0  0  0  0  0  0  0  0  0  0  0  0
    4.1173    0.9049    0.0000 H   0  0  0  0  0  0  0  0  0  0  0  0
    6.9820    0.4923    0.0000 H   0  0  0  0  0  0  0  0  0  0  0  0
    4.4200    0.6807    0.0000 H   0  0  0  0  0  0  0  0  0  0  0  0
    3.8000    1.3007    0.0000 H   0  0  0  0  0  0  0  0  0  0  0  0
    3.1800    0.6807    0.0000 H   0  0  0  0  0  0  0  0  0  0  0  0
    2.8827   -3.0304    0.0000 H   0  0  0  0  0  0  0  0  0  0  0  0
    3.7322   -3.2475    0.0000 H   0  0  0  0  0  0  0  0  0  0  0  0
    3.9494   -2.3980    0.0000 H   0  0  0  0  0  0  0  0  0  0  0  0
    1.8756   -2.4220    0.0000 H   0  0  0  0  0  0  0  0  0  0  0  0
    2.1123   -3.2662    0.0000 H   0  0  0  0  0  0  0  0  0  0  0  0
    2.9566   -3.0295    0.0000 H   0  0  0  0  0  0  0  0  0  0  0  0
    5.5456    2.3699    0.0000 H   0  0  0  0  0  0  0  0  0  0  0  0
    6.9861   -0.8558    0.0000 H   0  0  0  0  0  0  0  0  0  0  0  0
    7.8356   -0.6387    0.0000 H   0  0  0  0  0  0  0  0  0  0  0  0
    7.6184    0.2108    0.0000 H   0  0  0  0  0  0  0  0  0  0  0  0
    3.7711    2.3321    0.0000 H   0  0  0  0  0  0  0  0  0  0  0  0
    7.8538    1.4137    0.0000 H   0  0  0  0  0  0  0  0  0  0  0  0
    7.8600    3.0337    0.0000 H   0  0  0  0  0  0  0  0  0  0  0  0
    6.7862    3.0378    0.0000 H   0  0  0  0  0  0  0  0  0  0  0  0
 12  1  1  6  0  0  0
  1 50  1  0  0  0  0
  2  3  1  0  0  0  0
  2  4  1  0  0  0  0
  2  8  1  0  0  0  0
  2 14  1  6  0  0  0
  3  6  1  0  0  0  0
  3  7  1  0  0  0  0
  3 22  1  1  0  0  0
  4  5  1  0  0  0  0
  4 12  1  0  0  0  0
  4 23  1  1  0  0  0
  5  9  1  0  0  0  0
  5 13  1  0  0  0  0
  5 24  1  6  0  0  0
  6 10  1  0  0  0  0
  6 15  1  0  0  0  0
  6 16  1  0  0  0  0
  7  9  1  0  0  0  0
  7 25  1  0  0  0  0
  7 26  1  0  0  0  0
  8 11  1  0  0  0  0
  8 27  1  0  0  0  0
  8 28  1  0  0  0  0
  9 29  1  0  0  0  0
  9 30  1  0  0  0  0
 10 11  1  0  0  0  0
 10 31  1  0  0  0  0
 10 32  1  0  0  0  0
 11 33  1  0  0  0  0
 11 34  1  0  0  0  0
 12 18  1  0  0  0  0
 12 35  1  0  0  0  0
 13 17  1  0  0  0  0
 13 19  1  1  0  0  0
 13 36  1  0  0  0  0
 14 37  1  0  0  0  0
 14 38  1  0  0  0  0
 14 39  1  0  0  0  0
 15 43  1  0  0  0  0
 15 44  1  0  0  0  0
 15 45  1  0  0  0  0
 16 40  1  0  0  0  0
 16 41  1  0  0  0  0
 16 42  1  0  0  0  0
 17 18  2  0  0  0  0
 17 20  1  0  0  0  0
 18 46  1  0  0  0  0
 19 47  1  0  0  0  0
 19 48  1  0  0  0  0
 19 49  1  0  0  0  0
 20 21  2  0  0  0  0
 20 51  1  0  0  0  0
 21 52  1  0  0  0  0
 21 53  1  0  0  0  0
M  END
> <PUBCHEM_COMPOUND_CID>
56927994

> <PUBCHEM_COMPOUND_CANONICALIZED>
1

> <PUBCHEM_CACTVS_COMPLEXITY>
461

> <PUBCHEM_CACTVS_HBOND_ACCEPTOR>
1

> <PUBCHEM_CACTVS_HBOND_DONOR>
1

> <PUBCHEM_CACTVS_ROTATABLE_BOND>
1

> <PUBCHEM_CACTVS_SUBSKEYS>
AAADcfB4IAAAAAAAAAAAAAAAAAAAAAAAAAAwYIAAAAAAAADAAAAAGgAACAAADxSggAICAAAAAgCAAiBCAAAAAAAgAAAICAAAAAgIFAIAAQAAUAAEgAAIkAOAwPAPgAAAAAAAAACAAAQAACAAAAAAAAAAAA==

> <PUBCHEM_IUPAC_OPENEYE_NAME>
(1S,4R,4aR,4bR,8aR,10aR)-1,4b,8,8-tetramethyl-2-vinyl-1,4,4a,5,6,7,8a,9,10,10a-decahydrophenanthren-4-ol

> <PUBCHEM_IUPAC_CAS_NAME>
(1S,4R,4aR,4bR,8aR,10aR)-2-ethenyl-1,4b,8,8-tetramethyl-1,4,4a,5,6,7,8a,9,10,10a-decahydrophenanthren-4-ol

> <PUBCHEM_IUPAC_NAME>
(1S,4R,4aR,4bR,8aR,10aR)-2-ethenyl-1,4b,8,8-tetramethyl-1,4,4a,5,6,7,8a,9,10,10a-decahydrophenanthren-4-ol

> <PUBCHEM_IUPAC_SYSTEMATIC_NAME>
(1S,4R,4aR,4bR,8aR,10aR)-2-ethenyl-1,4b,8,8-tetramethyl-1,4,4a,5,6,7,8a,9,10,10a-decahydrophenanthren-4-ol

> <PUBCHEM_IUPAC_TRADITIONAL_NAME>
(1S,4R,4aR,4bR,8aR,10aR)-1,4b,8,8-tetramethyl-2-vinyl-1,4,4a,5,6,7,8a,9,10,10a-decahydrophenanthren-4-ol

> <PUBCHEM_IUPAC_INCHI>
InChI=1S/C20H32O/c1-6-14-12-16(21)18-15(13(14)2)8-9-17-19(3,4)10-7-11-20(17,18)5/h6,12-13,15-18,21H,1,7-11H2,2-5H3/t13-,15-,16-,17-,18+,20-/m1/s1

> <PUBCHEM_IUPAC_INCHIKEY>
QVNGTMWSHFUMFR-UKQDEDAGSA-N

> <PUBCHEM_XLOGP3_AA>
5.8

> <PUBCHEM_EXACT_MASS>
288.245316

> <PUBCHEM_MOLECULAR_FORMULA>
C20H32O

> <PUBCHEM_MOLECULAR_WEIGHT>
288.46748

> <PUBCHEM_OPENEYE_CAN_SMILES>
CC1C2CCC3C(CCCC3(C2C(C=C1C=C)O)C)(C)C

> <PUBCHEM_OPENEYE_ISO_SMILES>
C[C@H]1[C@H]2CC[C@H]3[C@]([C@@H]2[C@@H](C=C1C=C)O)(CCCC3(C)C)C

> <PUBCHEM_CACTVS_TPSA>
20.2

> <PUBCHEM_MONOISOTOPIC_WEIGHT>
288.245316

> <PUBCHEM_TOTAL_CHARGE>
0

> <PUBCHEM_HEAVY_ATOM_COUNT>
21

> <PUBCHEM_ATOM_DEF_STEREO_COUNT>
6

> <PUBCHEM_ATOM_UDEF_STEREO_COUNT>
0

> <PUBCHEM_BOND_DEF_STEREO_COUNT>
0

> <PUBCHEM_BOND_UDEF_STEREO_COUNT>
0

> <PUBCHEM_ISOTOPIC_ATOM_COUNT>
0

> <PUBCHEM_COMPONENT_COUNT>
1

> <PUBCHEM_CACTVS_TAUTO_COUNT>
1

> <PUBCHEM_COORDINATE_TYPE>
1
5
255

> <PUBCHEM_BONDANNOTATIONS>
12  1  6
13  19  5
2  14  6
3  22  5
4  23  5
5  24  6

$$$$

