15509892
  -OEChem-07051213113D

 23 24  0     0  0  0  0  0  0999 V2000
    1.6560    0.8415   -2.9260 Br  0  0  0  0  0  0  0  0  0  0  0  0
   -2.0491   -3.1784   -0.1642 Br  0  0  0  0  0  0  0  0  0  0  0  0
   -2.9341    3.2980    0.5420 Br  0  0  0  0  0  0  0  0  0  0  0  0
    5.0613    0.5814    1.6075 Br  0  0  0  0  0  0  0  0  0  0  0  0
   -0.1777   -0.8432   -1.0451 O   0  0  0  0  0  0  0  0  0  0  0  0
    1.0118   -0.5086   -0.4692 C   0  0  0  0  0  0  0  0  0  0  0  0
   -1.3354   -0.4033   -0.4279 C   0  0  0  0  0  0  0  0  0  0  0  0
    1.9660    0.2439   -1.1541 C   0  0  0  0  0  0  0  0  0  0  0  0
    1.2646   -0.9358    0.8343 C   0  0  0  0  0  0  0  0  0  0  0  0
   -2.2808   -1.3070    0.0259 C   0  0  0  0  0  0  0  0  0  0  0  0
   -1.5129    0.9628   -0.2830 C   0  0  0  0  0  0  0  0  0  0  0  0
    3.1732    0.5691   -0.5354 C   0  0  0  0  0  0  0  0  0  0  0  0
    2.4717   -0.6107    1.4529 C   0  0  0  0  0  0  0  0  0  0  0  0
   -2.6700    1.4383    0.3340 C   0  0  0  0  0  0  0  0  0  0  0  0
   -3.4379   -0.8313    0.6432 C   0  0  0  0  0  0  0  0  0  0  0  0
    3.4260    0.1417    0.7681 C   0  0  0  0  0  0  0  0  0  0  0  0
   -3.6325    0.5413    0.7970 C   0  0  0  0  0  0  0  0  0  0  0  0
    0.5404   -1.5314    1.3830 H   0  0  0  0  0  0  0  0  0  0  0  0
   -0.7700    1.6643   -0.6528 H   0  0  0  0  0  0  0  0  0  0  0  0
    3.9185    1.1560   -1.0680 H   0  0  0  0  0  0  0  0  0  0  0  0
    2.6540   -0.9533    2.4683 H   0  0  0  0  0  0  0  0  0  0  0  0
   -4.1985   -1.5156    1.0104 H   0  0  0  0  0  0  0  0  0  0  0  0
   -4.5396    0.8955    1.2801 H   0  0  0  0  0  0  0  0  0  0  0  0
  1  8  1  0  0  0  0
  2 10  1  0  0  0  0
  3 14  1  0  0  0  0
  4 16  1  0  0  0  0
  5  6  1  0  0  0  0
  5  7  1  0  0  0  0
  6  8  2  0  0  0  0
  6  9  1  0  0  0  0
  7 10  2  0  0  0  0
  7 11  1  0  0  0  0
  8 12  1  0  0  0  0
  9 13  2  0  0  0  0
  9 18  1  0  0  0  0
 10 15  1  0  0  0  0
 11 14  2  0  0  0  0
 11 19  1  0  0  0  0
 12 16  2  0  0  0  0
 12 20  1  0  0  0  0
 13 16  1  0  0  0  0
 13 21  1  0  0  0  0
 14 17  1  0  0  0  0
 15 17  2  0  0  0  0
 15 22  1  0  0  0  0
 17 23  1  0  0  0  0
M  END
> <PUBCHEM_COMPOUND_CID>
15509892

> <PUBCHEM_CONFORMER_RMSD>
0.6

> <PUBCHEM_CONFORMER_DIVERSEORDER>
1
12
5
13
3
11
2
6
14
9
10
7
4
8

> <PUBCHEM_MMFF94_PARTIAL_CHARGES>
23
1 -0.11
10 0.11
11 -0.15
12 -0.15
13 -0.15
14 0.11
15 -0.15
16 0.11
17 -0.15
18 0.15
19 0.15
2 -0.11
20 0.15
21 0.15
22 0.15
23 0.15
3 -0.11
4 -0.11
5 -0.17
6 0.08
7 0.08
8 0.11
9 -0.15

> <PUBCHEM_EFFECTIVE_ROTOR_COUNT>
2

> <PUBCHEM_PHARMACOPHORE_FEATURES>
7
1 1 hydrophobe
1 2 hydrophobe
1 3 hydrophobe
1 4 hydrophobe
1 5 acceptor
6 6 8 9 12 13 16 rings
6 7 10 11 14 15 17 rings

> <PUBCHEM_HEAVY_ATOM_COUNT>
17

> <PUBCHEM_ATOM_DEF_STEREO_COUNT>
0

> <PUBCHEM_ATOM_UDEF_STEREO_COUNT>
0

> <PUBCHEM_BOND_DEF_STEREO_COUNT>
0

> <PUBCHEM_BOND_UDEF_STEREO_COUNT>
0

> <PUBCHEM_ISOTOPIC_ATOM_COUNT>
0

> <PUBCHEM_COMPONENT_COUNT>
1

> <PUBCHEM_CACTVS_TAUTO_COUNT>
1

> <PUBCHEM_CONFORMER_ID>
00ECA98400000001

> <PUBCHEM_MMFF94_ENERGY>
49.7848

> <PUBCHEM_FEATURE_SELFOVERLAP>
35.52

> <PUBCHEM_SHAPE_FINGERPRINT>
11471102 22 15769772433895545124
11640471 11 17916283026831999589
12173636 292 18336546131233983493
12251169 10 18272373070190052178
12507560 40 18334861666419290786
12553582 1 17832688094513540695
12788726 201 17984400976772518995
12892183 10 18411430496773779714
13009979 54 18059010558467064754
13134695 92 15841557336486701462
13140716 1 18194118504480730227
13538477 17 18271239422336488927
13583140 156 17532112535164891666
13764800 53 18114455755932836729
13965767 371 17624975319503295929
14178342 30 18341895190583640378
14739800 52 18194967336528226152
14787075 74 16619227410755330031
15209294 21 18343310279475929264
15375462 189 17771893944855782699
16945 1 18336816520852630519
17357990 137 17988059180294861020
1813 80 17131551751936376502
18186145 218 17313370283837630460
18219364 16 16009030519080779466
19433438 48 17774734103422169290
19784866 34 14634867514305876658
19786989 88 16008748034760133876
200 152 17274556329534842075
20510252 161 18260541269093567625
20600515 1 17826224100134480823
20645477 70 15267071302640102546
20739085 24 17060335232737999228
21061003 4 15410895179826172959
21486144 27 16588290696902825503
21650355 55 18265619780031885883
22112679 90 18200305499059315999
231179 274 17095248016706411384
23402539 116 18188502276722866687
23419403 2 17473865768916995901
23557571 272 17896301563317955524
23559900 14 18188471575573695414
23598291 2 17774706636789787510
238 59 15647626686201626701
25 1 15213016038253405318
27216 239 17603876550422322979
2748010 2 18050266349002999607
3797600 57 17340356594382976457
474 4 16914796051991180412
568465 68 14764060216099839176
6049 1 17387104577283846199
6992083 37 17988650713313782726
7097593 13 17988083429595935106
7615 1 17917143892864921967
77492 1 17916860218823030439
81228 2 18115858625696694943
88987 49 18336252496798617879
90316 7 17845654871014646149

> <PUBCHEM_SHAPE_MULTIPOLES>
367.75
7.86
2.69
1.89
5.16
0.16
-1.42
2.28
4.23
-4.27
0.3
2.24
0.55
-0.72

> <PUBCHEM_SHAPE_SELFOVERLAP>
732.711

> <PUBCHEM_SHAPE_VOLUME>
227.8

> <PUBCHEM_COORDINATE_TYPE>
2
5
10

$$$$

