442438
  -OEChem-07051212583D

 28 29  0     1  0  0  0  0  0999 V2000
    0.9001   -1.5181   -0.9847 O   0  0  0  0  0  0  0  0  0  0  0  0
    0.7863   -2.1635    1.2828 O   0  0  0  0  0  0  0  0  0  0  0  0
   -0.6716   -0.3971    0.5570 C   0  0  1  0  0  0  0  0  0  0  0  0
    0.3003    0.7965    0.7205 C   0  0  2  0  0  0  0  0  0  0  0  0
   -1.7049    0.1052   -0.4631 C   0  0  2  0  0  0  0  0  0  0  0  0
   -0.5400    2.0407    0.3568 C   0  0  0  0  0  0  0  0  0  0  0  0
   -1.9376    1.5355    0.0123 C   0  0  0  0  0  0  0  0  0  0  0  0
    0.0492   -1.6851    0.1548 C   0  0  1  0  0  0  0  0  0  0  0  0
    1.5360    0.6579   -0.1409 C   0  0  0  0  0  0  0  0  0  0  0  0
   -2.9900   -0.7090   -0.4909 C   0  0  0  0  0  0  0  0  0  0  0  0
    1.7165   -0.4212   -0.9182 C   0  0  0  0  0  0  0  0  0  0  0  0
    2.5557    1.7583   -0.0864 C   0  0  0  0  0  0  0  0  0  0  0  0
   -1.1724   -0.5578    1.5234 H   0  0  0  0  0  0  0  0  0  0  0  0
    0.6213    0.8600    1.7682 H   0  0  0  0  0  0  0  0  0  0  0  0
   -1.2753    0.1234   -1.4730 H   0  0  0  0  0  0  0  0  0  0  0  0
   -0.1319    2.5782   -0.5066 H   0  0  0  0  0  0  0  0  0  0  0  0
   -0.5797    2.7508    1.1899 H   0  0  0  0  0  0  0  0  0  0  0  0
   -2.5707    1.5544    0.9081 H   0  0  0  0  0  0  0  0  0  0  0  0
   -2.4193    2.1548   -0.7510 H   0  0  0  0  0  0  0  0  0  0  0  0
   -0.6730   -2.4674   -0.0962 H   0  0  0  0  0  0  0  0  0  0  0  0
   -3.7222   -0.2482   -1.1622 H   0  0  0  0  0  0  0  0  0  0  0  0
   -2.8025   -1.7260   -0.8485 H   0  0  0  0  0  0  0  0  0  0  0  0
   -3.4428   -0.7789    0.5038 H   0  0  0  0  0  0  0  0  0  0  0  0
    2.5469   -0.5364   -1.6019 H   0  0  0  0  0  0  0  0  0  0  0  0
    3.4517    1.5136   -0.6672 H   0  0  0  0  0  0  0  0  0  0  0  0
    2.8716    1.9286    0.9481 H   0  0  0  0  0  0  0  0  0  0  0  0
    2.1511    2.6932   -0.4843 H   0  0  0  0  0  0  0  0  0  0  0  0
    1.1450   -1.4070    1.7743 H   0  0  0  0  0  0  0  0  0  0  0  0
  1  8  1  0  0  0  0
  1 11  1  0  0  0  0
  2  8  1  0  0  0  0
  2 28  1  0  0  0  0
  3  4  1  0  0  0  0
  3  5  1  0  0  0  0
  3  8  1  0  0  0  0
  3 13  1  0  0  0  0
  4  6  1  0  0  0  0
  4  9  1  0  0  0  0
  4 14  1  0  0  0  0
  5  7  1  0  0  0  0
  5 10  1  0  0  0  0
  5 15  1  0  0  0  0
  6  7  1  0  0  0  0
  6 16  1  0  0  0  0
  6 17  1  0  0  0  0
  7 18  1  0  0  0  0
  7 19  1  0  0  0  0
  8 20  1  0  0  0  0
  9 11  2  0  0  0  0
  9 12  1  0  0  0  0
 10 21  1  0  0  0  0
 10 22  1  0  0  0  0
 10 23  1  0  0  0  0
 11 24  1  0  0  0  0
 12 25  1  0  0  0  0
 12 26  1  0  0  0  0
 12 27  1  0  0  0  0
M  END
> <PUBCHEM_COMPOUND_CID>
442438

> <PUBCHEM_CONFORMER_RMSD>
0.4

> <PUBCHEM_CONFORMER_DIVERSEORDER>
1
2

> <PUBCHEM_MMFF94_PARTIAL_CHARGES>
9
1 -0.36
11 -0.07
12 0.14
2 -0.68
24 0.15
28 0.4
4 0.14
8 0.56
9 -0.28

> <PUBCHEM_EFFECTIVE_ROTOR_COUNT>
1

> <PUBCHEM_PHARMACOPHORE_FEATURES>
5
1 1 acceptor
1 2 acceptor
1 2 donor
5 3 4 5 6 7 rings
6 1 3 4 8 9 11 rings

> <PUBCHEM_HEAVY_ATOM_COUNT>
12

> <PUBCHEM_ATOM_DEF_STEREO_COUNT>
4

> <PUBCHEM_ATOM_UDEF_STEREO_COUNT>
0

> <PUBCHEM_BOND_DEF_STEREO_COUNT>
0

> <PUBCHEM_BOND_UDEF_STEREO_COUNT>
0

> <PUBCHEM_ISOTOPIC_ATOM_COUNT>
0

> <PUBCHEM_COMPONENT_COUNT>
1

> <PUBCHEM_CACTVS_TAUTO_COUNT>
1

> <PUBCHEM_CONFORMER_ID>
0006C04600000001

> <PUBCHEM_MMFF94_ENERGY>
25.7598

> <PUBCHEM_FEATURE_SELFOVERLAP>
25.585

> <PUBCHEM_SHAPE_FINGERPRINT>
12138202 97 17983578507282050598
12423570 1 16314723072526861938
12897270 3 18335137592082029341
13024252 1 16985197738694442136
13380535 239 18336266829236567805
16945 1 17969504801290799485
18185500 45 17619061076468830211
18534176 82 17982720879738553676
20588541 1 18120366558296811253
20645476 183 17630043750643143252
22344851 341 18336826497581591865
23211744 25 18196629964747075246
23402539 116 18265347105052742252
23419403 2 14060673765863495478
23552423 10 18339923834980492253
241688 4 18263351641693030256
2748010 2 18408878533932020461
353137 74 18410015420644774541
5084963 1 18334010592684631680
528886 8 18042970874118933621

> <PUBCHEM_SHAPE_MULTIPOLES>
235.22
3.17
2.28
0.97
0.66
0.16
0.06
-0.81
-0.8
-0.32
0.39
-0.13
0.35
-0.03

> <PUBCHEM_SHAPE_SELFOVERLAP>
486.814

> <PUBCHEM_SHAPE_VOLUME>
134

> <PUBCHEM_COORDINATE_TYPE>
2
5
10

$$$$

