5809667
  -OEChem-07051213142D

 43 46  0     0  0  0  0  0  0999 V2000
    2.8660    3.4827    0.0000 O   0  0  0  0  0  0  0  0  0  0  0  0
    4.5981    2.4827    0.0000 N   0  0  0  0  0  0  0  0  0  0  0  0
    3.7320    1.9827    0.0000 N   0  0  0  0  0  0  0  0  0  0  0  0
    3.7320   -2.0173    0.0000 N   0  0  0  0  0  0  0  0  0  0  0  0
    2.8660   -2.5173    0.0000 N   0  0  0  0  0  0  0  0  0  0  0  0
    5.4641    3.9827    0.0000 C   0  0  0  0  0  0  0  0  0  0  0  0
    5.4641    4.9827    0.0000 C   0  0  0  0  0  0  0  0  0  0  0  0
    4.5981    3.4827    0.0000 C   0  0  0  0  0  0  0  0  0  0  0  0
    6.3580    3.4480    0.0000 C   0  0  0  0  0  0  0  0  0  0  0  0
    4.5981    5.4827    0.0000 C   0  0  0  0  0  0  0  0  0  0  0  0
    6.3580    5.5173    0.0000 C   0  0  0  0  0  0  0  0  0  0  0  0
    3.7320    3.9827    0.0000 C   0  0  0  0  0  0  0  0  0  0  0  0
    3.7320    4.9827    0.0000 C   0  0  0  0  0  0  0  0  0  0  0  0
    7.2641    3.9618    0.0000 C   0  0  0  0  0  0  0  0  0  0  0  0
    7.2641    5.0035    0.0000 C   0  0  0  0  0  0  0  0  0  0  0  0
    3.7320    0.9827    0.0000 C   0  0  0  0  0  0  0  0  0  0  0  0
    2.8660    0.4827    0.0000 C   0  0  0  0  0  0  0  0  0  0  0  0
    4.5981    0.4827    0.0000 C   0  0  0  0  0  0  0  0  0  0  0  0
    3.7320   -1.0173    0.0000 C   0  0  0  0  0  0  0  0  0  0  0  0
    2.8660   -0.5173    0.0000 C   0  0  0  0  0  0  0  0  0  0  0  0
    4.5981   -0.5173    0.0000 C   0  0  0  0  0  0  0  0  0  0  0  0
    2.8660   -3.5173    0.0000 C   0  0  0  0  0  0  0  0  0  0  0  0
    2.0000   -4.0173    0.0000 C   0  0  0  0  0  0  0  0  0  0  0  0
    3.7320   -4.0173    0.0000 C   0  0  0  0  0  0  0  0  0  0  0  0
    2.0000   -5.0173    0.0000 C   0  0  0  0  0  0  0  0  0  0  0  0
    3.7320   -5.0173    0.0000 C   0  0  0  0  0  0  0  0  0  0  0  0
    2.8660   -5.5173    0.0000 C   0  0  0  0  0  0  0  0  0  0  0  0
    6.3509    2.8280    0.0000 H   0  0  0  0  0  0  0  0  0  0  0  0
    4.5981    6.1027    0.0000 H   0  0  0  0  0  0  0  0  0  0  0  0
    6.3509    6.1373    0.0000 H   0  0  0  0  0  0  0  0  0  0  0  0
    3.1951    5.2927    0.0000 H   0  0  0  0  0  0  0  0  0  0  0  0
    7.7998    3.6498    0.0000 H   0  0  0  0  0  0  0  0  0  0  0  0
    7.7998    5.3156    0.0000 H   0  0  0  0  0  0  0  0  0  0  0  0
    3.1951    2.2927    0.0000 H   0  0  0  0  0  0  0  0  0  0  0  0
    2.3291    0.7927    0.0000 H   0  0  0  0  0  0  0  0  0  0  0  0
    5.1350    0.7927    0.0000 H   0  0  0  0  0  0  0  0  0  0  0  0
    2.3291   -0.8273    0.0000 H   0  0  0  0  0  0  0  0  0  0  0  0
    5.1350   -0.8273    0.0000 H   0  0  0  0  0  0  0  0  0  0  0  0
    1.4631   -3.7073    0.0000 H   0  0  0  0  0  0  0  0  0  0  0  0
    4.2690   -3.7073    0.0000 H   0  0  0  0  0  0  0  0  0  0  0  0
    1.4631   -5.3273    0.0000 H   0  0  0  0  0  0  0  0  0  0  0  0
    4.2690   -5.3273    0.0000 H   0  0  0  0  0  0  0  0  0  0  0  0
    2.8660   -6.1373    0.0000 H   0  0  0  0  0  0  0  0  0  0  0  0
  1 12  2  0  0  0  0
  2  3  1  0  0  0  0
  2  8  2  0  0  0  0
  3 16  1  0  0  0  0
  3 34  1  0  0  0  0
  4  5  2  0  0  0  0
  4 19  1  0  0  0  0
  5 22  1  0  0  0  0
  6  7  1  0  0  0  0
  6  8  1  0  0  0  0
  6  9  2  0  0  0  0
  7 10  1  0  0  0  0
  7 11  2  0  0  0  0
  8 12  1  0  0  0  0
  9 14  1  0  0  0  0
  9 28  1  0  0  0  0
 10 13  2  0  0  0  0
 10 29  1  0  0  0  0
 11 15  1  0  0  0  0
 11 30  1  0  0  0  0
 12 13  1  0  0  0  0
 13 31  1  0  0  0  0
 14 15  2  0  0  0  0
 14 32  1  0  0  0  0
 15 33  1  0  0  0  0
 16 17  2  0  0  0  0
 16 18  1  0  0  0  0
 17 20  1  0  0  0  0
 17 35  1  0  0  0  0
 18 21  2  0  0  0  0
 18 36  1  0  0  0  0
 19 20  2  0  0  0  0
 19 21  1  0  0  0  0
 20 37  1  0  0  0  0
 21 38  1  0  0  0  0
 22 23  2  0  0  0  0
 22 24  1  0  0  0  0
 23 25  1  0  0  0  0
 23 39  1  0  0  0  0
 24 26  2  0  0  0  0
 24 40  1  0  0  0  0
 25 27  2  0  0  0  0
 25 41  1  0  0  0  0
 26 27  1  0  0  0  0
 26 42  1  0  0  0  0
 27 43  1  0  0  0  0
M  END
> <PUBCHEM_COMPOUND_CID>
5809667

> <PUBCHEM_COMPOUND_CANONICALIZED>
1

> <PUBCHEM_CACTVS_COMPLEXITY>
597

> <PUBCHEM_CACTVS_HBOND_ACCEPTOR>
5

> <PUBCHEM_CACTVS_HBOND_DONOR>
1

> <PUBCHEM_CACTVS_ROTATABLE_BOND>
4

> <PUBCHEM_CACTVS_SUBSKEYS>
AAADceB7oAAAAAAAAAAAAAAAAAAAAAAAAAAwYMEAAAAAAACBUAAAHgAYAAAADAyBmAAwwIBiAACqA6RyQACSBAAgAgAYiAEgZNgIILKAlZGAIABgmAAIyYcYiICOgACAAAAQAAAAAQAAACAAAAAAAAAAAA==

> <PUBCHEM_IUPAC_OPENEYE_NAME>
(1Z)-1-[(4-phenylazophenyl)hydrazono]naphthalen-2-one

> <PUBCHEM_IUPAC_CAS_NAME>
(1Z)-1-[(4-phenyldiazenylphenyl)hydrazinylidene]-2-naphthalenone

> <PUBCHEM_IUPAC_NAME>
(1Z)-1-[(4-phenyldiazenylphenyl)hydrazinylidene]naphthalen-2-one

> <PUBCHEM_IUPAC_SYSTEMATIC_NAME>
(1Z)-1-[(4-phenyldiazenylphenyl)hydrazinylidene]naphthalen-2-one

> <PUBCHEM_IUPAC_TRADITIONAL_NAME>
(1Z)-1-[(4-phenylazophenyl)hydrazono]naphthalen-2-one

> <PUBCHEM_IUPAC_INCHI>
InChI=1S/C22H16N4O/c27-21-15-10-16-6-4-5-9-20(16)22(21)26-25-19-13-11-18(12-14-19)24-23-17-7-2-1-3-8-17/h1-15,25H/b24-23?,26-22-

> <PUBCHEM_IUPAC_INCHIKEY>
HTPQPMPFXUWUOT-SRURNFRUSA-N

> <PUBCHEM_XLOGP3_AA>
5.4

> <PUBCHEM_EXACT_MASS>
352.132411

> <PUBCHEM_MOLECULAR_FORMULA>
C22H16N4O

> <PUBCHEM_MOLECULAR_WEIGHT>
352.38864

> <PUBCHEM_OPENEYE_CAN_SMILES>
C1=CC=C(C=C1)N=NC2=CC=C(C=C2)NN=C3C(=O)C=CC4=CC=CC=C43

> <PUBCHEM_OPENEYE_ISO_SMILES>
C1=CC=C(C=C1)N=NC2=CC=C(C=C2)N/N=C/3\C(=O)C=CC4=CC=CC=C43

> <PUBCHEM_CACTVS_TPSA>
66.2

> <PUBCHEM_MONOISOTOPIC_WEIGHT>
352.132411

> <PUBCHEM_TOTAL_CHARGE>
0

> <PUBCHEM_HEAVY_ATOM_COUNT>
27

> <PUBCHEM_ATOM_DEF_STEREO_COUNT>
0

> <PUBCHEM_ATOM_UDEF_STEREO_COUNT>
0

> <PUBCHEM_BOND_DEF_STEREO_COUNT>
1

> <PUBCHEM_BOND_UDEF_STEREO_COUNT>
0

> <PUBCHEM_ISOTOPIC_ATOM_COUNT>
0

> <PUBCHEM_COMPONENT_COUNT>
1

> <PUBCHEM_CACTVS_TAUTO_COUNT>
5

> <PUBCHEM_COORDINATE_TYPE>
1
5
255

> <PUBCHEM_BONDANNOTATIONS>
11  15  8
14  15  8
16  17  8
16  18  8
17  20  8
18  21  8
19  20  8
19  21  8
22  23  8
22  24  8
23  25  8
24  26  8
25  27  8
26  27  8
6  7  8
6  9  8
7  11  8
9  14  8

$$$$

