54675769
  -OEChem-07051212502D

 80 83  0     1  0  0  0  0  0999 V2000
   15.0564    1.9025    0.0000 O   0  0  0  0  0  0  0  0  0  0  0  0
   16.7961   -0.0908    0.0000 O   0  0  0  0  0  0  0  0  0  0  0  0
   15.0680   -1.0975    0.0000 O   0  0  0  0  0  0  0  0  0  0  0  0
   13.3244    1.8958    0.0000 O   0  0  0  0  0  0  0  0  0  0  0  0
   13.3321   -0.1042    0.0000 O   0  0  0  0  0  0  0  0  0  0  0  0
   16.8000   -1.0908    0.0000 O   0  0  0  0  0  0  0  0  0  0  0  0
    9.7942    1.8716    0.0000 O   0  0  0  0  0  0  0  0  0  0  0  0
    9.7942   -1.1284    0.0000 O   0  0  0  0  0  0  0  0  0  0  0  0
    8.0622    1.8716    0.0000 O   0  0  0  0  0  0  0  0  0  0  0  0
    7.1962    1.3716    0.0000 O   0  0  0  0  0  0  0  0  0  0  0  0
    3.7320   -1.6284    0.0000 O   0  0  0  0  0  0  0  0  0  0  0  0
   15.9398   -2.5942    0.0000 N   0  0  0  0  0  0  0  0  0  0  0  0
    8.0622   -0.1284    0.0000 N   0  0  0  0  0  0  0  0  0  0  0  0
   15.9243    1.4058    0.0000 C   0  0  0  0  0  0  0  0  0  0  0  0
   15.9282    0.4058    0.0000 C   0  0  1  0  0  0  0  0  0  0  0  0
   15.0641   -0.0975    0.0000 C   0  0  2  0  0  0  0  0  0  0  0  0
   14.1962    0.3991    0.0000 C   0  0  2  0  0  0  0  0  0  0  0  0
   14.1923    1.3991    0.0000 C   0  0  1  0  0  0  0  0  0  0  0  0
   16.9243    1.4097    0.0000 C   0  0  0  0  0  0  0  0  0  0  0  0
   16.4210    2.2738    0.0000 C   0  0  0  0  0  0  0  0  0  0  0  0
   17.6602    0.4125    0.0000 C   0  0  0  0  0  0  0  0  0  0  0  0
   12.4603    1.3924    0.0000 C   0  0  0  0  0  0  0  0  0  0  0  0
   15.9359   -1.5942    0.0000 C   0  0  0  0  0  0  0  0  0  0  0  0
   11.5542    1.9063    0.0000 C   0  0  0  0  0  0  0  0  0  0  0  0
   12.4603    0.3508    0.0000 C   0  0  0  0  0  0  0  0  0  0  0  0
   10.6603    1.3716    0.0000 C   0  0  0  0  0  0  0  0  0  0  0  0
   10.6603    0.3716    0.0000 C   0  0  0  0  0  0  0  0  0  0  0  0
   11.5542   -0.1630    0.0000 C   0  0  0  0  0  0  0  0  0  0  0  0
   11.5426    2.9062    0.0000 C   0  0  0  0  0  0  0  0  0  0  0  0
    9.7942   -0.1284    0.0000 C   0  0  0  0  0  0  0  0  0  0  0  0
    8.9282    0.3716    0.0000 C   0  0  0  0  0  0  0  0  0  0  0  0
    8.9282    1.3716    0.0000 C   0  0  0  0  0  0  0  0  0  0  0  0
    7.1962    0.3716    0.0000 C   0  0  0  0  0  0  0  0  0  0  0  0
    6.3301   -0.1284    0.0000 C   0  0  0  0  0  0  0  0  0  0  0  0
    4.5981   -0.1284    0.0000 C   0  0  0  0  0  0  0  0  0  0  0  0
    5.4641    0.3716    0.0000 C   0  0  0  0  0  0  0  0  0  0  0  0
    6.3301   -1.1284    0.0000 C   0  0  0  0  0  0  0  0  0  0  0  0
    3.7320    0.3716    0.0000 C   0  0  0  0  0  0  0  0  0  0  0  0
    4.5981   -1.1284    0.0000 C   0  0  0  0  0  0  0  0  0  0  0  0
    5.4641   -1.6284    0.0000 C   0  0  0  0  0  0  0  0  0  0  0  0
    3.7320    1.3716    0.0000 C   0  0  0  0  0  0  0  0  0  0  0  0
    2.8660    1.8716    0.0000 C   0  0  0  0  0  0  0  0  0  0  0  0
    2.8660    2.8716    0.0000 C   0  0  0  0  0  0  0  0  0  0  0  0
    2.0000    1.3716    0.0000 C   0  0  0  0  0  0  0  0  0  0  0  0
   16.4639    0.7179    0.0000 H   0  0  0  0  0  0  0  0  0  0  0  0
   14.5284   -0.4096    0.0000 H   0  0  0  0  0  0  0  0  0  0  0  0
   14.1985   -0.2209    0.0000 H   0  0  0  0  0  0  0  0  0  0  0  0
   14.1899    2.0191    0.0000 H   0  0  0  0  0  0  0  0  0  0  0  0
   16.9591    1.9658    0.0000 H   0  0  0  0  0  0  0  0  0  0  0  0
   16.7289    2.8119    0.0000 H   0  0  0  0  0  0  0  0  0  0  0  0
   15.8829    2.5817    0.0000 H   0  0  0  0  0  0  0  0  0  0  0  0
   16.9267    0.7897    0.0000 H   0  0  0  0  0  0  0  0  0  0  0  0
   17.5443    1.4120    0.0000 H   0  0  0  0  0  0  0  0  0  0  0  0
   16.9219    2.0297    0.0000 H   0  0  0  0  0  0  0  0  0  0  0  0
   13.3345   -0.7242    0.0000 H   0  0  0  0  0  0  0  0  0  0  0  0
   17.9723   -0.1232    0.0000 H   0  0  0  0  0  0  0  0  0  0  0  0
   18.1960    0.7246    0.0000 H   0  0  0  0  0  0  0  0  0  0  0  0
   17.3482    0.9482    0.0000 H   0  0  0  0  0  0  0  0  0  0  0  0
   12.9960    0.0388    0.0000 H   0  0  0  0  0  0  0  0  0  0  0  0
   11.5470   -0.7830    0.0000 H   0  0  0  0  0  0  0  0  0  0  0  0
   16.4779   -2.9021    0.0000 H   0  0  0  0  0  0  0  0  0  0  0  0
   15.4040   -2.9062    0.0000 H   0  0  0  0  0  0  0  0  0  0  0  0
   12.1626    2.9134    0.0000 H   0  0  0  0  0  0  0  0  0  0  0  0
   11.5355    3.5262    0.0000 H   0  0  0  0  0  0  0  0  0  0  0  0
   10.9227    2.8991    0.0000 H   0  0  0  0  0  0  0  0  0  0  0  0
    8.0622   -0.7484    0.0000 H   0  0  0  0  0  0  0  0  0  0  0  0
   10.3312   -1.4384    0.0000 H   0  0  0  0  0  0  0  0  0  0  0  0
    5.4641    0.9916    0.0000 H   0  0  0  0  0  0  0  0  0  0  0  0
    6.8671   -1.4384    0.0000 H   0  0  0  0  0  0  0  0  0  0  0  0
    3.1215    0.4793    0.0000 H   0  0  0  0  0  0  0  0  0  0  0  0
    3.5200   -0.2110    0.0000 H   0  0  0  0  0  0  0  0  0  0  0  0
    5.4641   -2.2484    0.0000 H   0  0  0  0  0  0  0  0  0  0  0  0
    4.2690    1.6816    0.0000 H   0  0  0  0  0  0  0  0  0  0  0  0
    3.7320   -2.2484    0.0000 H   0  0  0  0  0  0  0  0  0  0  0  0
    1.6900    1.9086    0.0000 H   0  0  0  0  0  0  0  0  0  0  0  0
    1.4631    1.0616    0.0000 H   0  0  0  0  0  0  0  0  0  0  0  0
    2.3100    0.8347    0.0000 H   0  0  0  0  0  0  0  0  0  0  0  0
    3.4860    2.8716    0.0000 H   0  0  0  0  0  0  0  0  0  0  0  0
    2.8660    3.4916    0.0000 H   0  0  0  0  0  0  0  0  0  0  0  0
    2.2460    2.8716    0.0000 H   0  0  0  0  0  0  0  0  0  0  0  0
  1 14  1  0  0  0  0
  1 18  1  0  0  0  0
 15  2  1  6  0  0  0
  2 21  1  0  0  0  0
 16  3  1  1  0  0  0
  3 23  1  0  0  0  0
 18  4  1  6  0  0  0
  4 22  1  0  0  0  0
 17  5  1  1  0  0  0
  5 55  1  0  0  0  0
  6 23  2  0  0  0  0
  7 26  1  0  0  0  0
  7 32  1  0  0  0  0
  8 30  1  0  0  0  0
  8 67  1  0  0  0  0
  9 32  2  0  0  0  0
 10 33  2  0  0  0  0
 11 39  1  0  0  0  0
 11 74  1  0  0  0  0
 12 23  1  0  0  0  0
 12 61  1  0  0  0  0
 12 62  1  0  0  0  0
 13 31  1  0  0  0  0
 13 33  1  0  0  0  0
 13 66  1  0  0  0  0
 14 15  1  0  0  0  0
 14 19  1  0  0  0  0
 14 20  1  0  0  0  0
 15 16  1  0  0  0  0
 15 45  1  0  0  0  0
 16 17  1  0  0  0  0
 16 46  1  0  0  0  0
 17 18  1  0  0  0  0
 17 47  1  0  0  0  0
 18 48  1  0  0  0  0
 19 52  1  0  0  0  0
 19 53  1  0  0  0  0
 19 54  1  0  0  0  0
 20 49  1  0  0  0  0
 20 50  1  0  0  0  0
 20 51  1  0  0  0  0
 21 56  1  0  0  0  0
 21 57  1  0  0  0  0
 21 58  1  0  0  0  0
 22 24  2  0  0  0  0
 22 25  1  0  0  0  0
 24 26  1  0  0  0  0
 24 29  1  0  0  0  0
 25 28  2  0  0  0  0
 25 59  1  0  0  0  0
 26 27  2  0  0  0  0
 27 28  1  0  0  0  0
 27 30  1  0  0  0  0
 28 60  1  0  0  0  0
 29 63  1  0  0  0  0
 29 64  1  0  0  0  0
 29 65  1  0  0  0  0
 30 31  2  0  0  0  0
 31 32  1  0  0  0  0
 33 34  1  0  0  0  0
 34 36  2  0  0  0  0
 34 37  1  0  0  0  0
 35 36  1  0  0  0  0
 35 38  1  0  0  0  0
 35 39  2  0  0  0  0
 36 68  1  0  0  0  0
 37 40  2  0  0  0  0
 37 69  1  0  0  0  0
 38 41  1  0  0  0  0
 38 70  1  0  0  0  0
 38 71  1  0  0  0  0
 39 40  1  0  0  0  0
 40 72  1  0  0  0  0
 41 42  2  0  0  0  0
 41 73  1  0  0  0  0
 42 43  1  0  0  0  0
 42 44  1  0  0  0  0
 43 78  1  0  0  0  0
 43 79  1  0  0  0  0
 43 80  1  0  0  0  0
 44 75  1  0  0  0  0
 44 76  1  0  0  0  0
 44 77  1  0  0  0  0
M  END
> <PUBCHEM_COMPOUND_CID>
54675769

> <PUBCHEM_COMPOUND_CANONICALIZED>
1

> <PUBCHEM_CACTVS_COMPLEXITY>
1150

> <PUBCHEM_CACTVS_HBOND_ACCEPTOR>
11

> <PUBCHEM_CACTVS_HBOND_DONOR>
5

> <PUBCHEM_CACTVS_ROTATABLE_BOND>
9

> <PUBCHEM_CACTVS_SUBSKEYS>
AAADcfB7PAAAAAAAAAAAAAAAAAAAAAAAAAA0YIEAAAAAAACBQAAAHgAQCAAADFyxmAMyDoLABgCIAiXSWACCCAAkIAAIiAGGDMkfNzKGtTuveyjlxBWfuYfY/P7OIAACCAAIAABAAAQQABAAAAAAAAAAAA==

> <PUBCHEM_IUPAC_OPENEYE_NAME>
[(3R,4S,5R,6R)-5-hydroxy-6-[4-hydroxy-3-[[4-hydroxy-3-(3-methylbut-2-enyl)benzoyl]amino]-8-methyl-2-oxo-chromen-7-yl]oxy-3-methoxy-2,2-dimethyl-tetrahydropyran-4-yl] carbamate

> <PUBCHEM_IUPAC_CAS_NAME>
carbamic acid [(3R,4S,5R,6R)-5-hydroxy-6-[[4-hydroxy-3-[[[4-hydroxy-3-(3-methylbut-2-enyl)phenyl]-oxomethyl]amino]-8-methyl-2-oxo-1-benzopyran-7-yl]oxy]-3-methoxy-2,2-dimethyl-4-oxanyl] ester

> <PUBCHEM_IUPAC_NAME>
[(3R,4S,5R,6R)-5-hydroxy-6-[4-hydroxy-3-[[4-hydroxy-3-(3-methylbut-2-enyl)benzoyl]amino]-8-methyl-2-oxochromen-7-yl]oxy-3-methoxy-2,2-dimethyloxan-4-yl] carbamate

> <PUBCHEM_IUPAC_SYSTEMATIC_NAME>
[(3R,4S,5R,6R)-3-methoxy-2,2-dimethyl-6-[8-methyl-3-[[3-(3-methylbut-2-enyl)-4-oxidanyl-phenyl]carbonylamino]-4-oxidanyl-2-oxidanylidene-chromen-7-yl]oxy-5-oxidanyl-oxan-4-yl] carbamate

> <PUBCHEM_IUPAC_TRADITIONAL_NAME>
carbamic acid [(3R,4S,5R,6R)-5-hydroxy-6-[4-hydroxy-3-[[4-hydroxy-3-(3-methylbut-2-enyl)benzoyl]amino]-2-keto-8-methyl-chromen-7-yl]oxy-3-methoxy-2,2-dimethyl-tetrahydropyran-4-yl] ester

> <PUBCHEM_IUPAC_INCHI>
InChI=1S/C31H36N2O11/c1-14(2)7-8-16-13-17(9-11-19(16)34)27(37)33-21-22(35)18-10-12-20(15(3)24(18)42-28(21)38)41-29-23(36)25(43-30(32)39)26(40-6)31(4,5)44-29/h7,9-13,23,25-26,29,34-36H,8H2,1-6H3,(H2,32,39)(H,33,37)/t23-,25+,26-,29-/m1/s1

> <PUBCHEM_IUPAC_INCHIKEY>
YJQPYGGHQPGBLI-KGSXXDOSSA-N

> <PUBCHEM_XLOGP3_AA>
3.3

> <PUBCHEM_EXACT_MASS>
612.23191

> <PUBCHEM_MOLECULAR_FORMULA>
C31H36N2O11

> <PUBCHEM_MOLECULAR_WEIGHT>
612.62434

> <PUBCHEM_OPENEYE_CAN_SMILES>
CC1=C(C=CC2=C1OC(=O)C(=C2O)NC(=O)C3=CC(=C(C=C3)O)CC=C(C)C)OC4C(C(C(C(O4)(C)C)OC)OC(=O)N)O

> <PUBCHEM_OPENEYE_ISO_SMILES>
CC1=C(C=CC2=C1OC(=O)C(=C2O)NC(=O)C3=CC(=C(C=C3)O)CC=C(C)C)O[C@H]4[C@@H]([C@@H]([C@H](C(O4)(C)C)OC)OC(=O)N)O

> <PUBCHEM_CACTVS_TPSA>
196

> <PUBCHEM_MONOISOTOPIC_WEIGHT>
612.23191

> <PUBCHEM_TOTAL_CHARGE>
0

> <PUBCHEM_HEAVY_ATOM_COUNT>
44

> <PUBCHEM_ATOM_DEF_STEREO_COUNT>
4

> <PUBCHEM_ATOM_UDEF_STEREO_COUNT>
0

> <PUBCHEM_BOND_DEF_STEREO_COUNT>
0

> <PUBCHEM_BOND_UDEF_STEREO_COUNT>
0

> <PUBCHEM_ISOTOPIC_ATOM_COUNT>
0

> <PUBCHEM_COMPONENT_COUNT>
1

> <PUBCHEM_CACTVS_TAUTO_COUNT>
82

> <PUBCHEM_COORDINATE_TYPE>
1
5
255

> <PUBCHEM_BONDANNOTATIONS>
15  2  6
22  24  8
22  25  8
24  26  8
25  28  8
26  27  8
27  28  8
27  30  8
16  3  5
30  31  8
31  32  8
34  36  8
34  37  8
35  36  8
35  39  8
37  40  8
39  40  8
18  4  6
17  5  5
7  26  8
7  32  8

$$$$

