21550576
  -OEChem-07051213093D

 67 71  0     1  0  0  0  0  0999 V2000
   -1.8286    1.1297    0.7943 O   0  0  0  0  0  0  0  0  0  0  0  0
   -0.6321    2.4141   -2.4288 O   0  0  0  0  0  0  0  0  0  0  0  0
   -3.3135    3.5854   -2.1566 O   0  0  0  0  0  0  0  0  0  0  0  0
   -3.9218    4.1287    0.6074 O   0  0  0  0  0  0  0  0  0  0  0  0
   -2.2652   -0.8685   -1.2914 O   0  0  0  0  0  0  0  0  0  0  0  0
   -2.8989   -1.6322    0.8353 O   0  0  0  0  0  0  0  0  0  0  0  0
    1.8532    1.0790    0.0866 O   0  0  0  0  0  0  0  0  0  0  0  0
   -2.5367    1.7581    3.5928 O   0  0  0  0  0  0  0  0  0  0  0  0
   -4.8847   -0.1449   -0.6720 O   0  0  0  0  0  0  0  0  0  0  0  0
   -5.4010   -3.7457   -0.6410 O   0  0  0  0  0  0  0  0  0  0  0  0
   -5.5963   -1.2652    1.9968 O   0  0  0  0  0  0  0  0  0  0  0  0
    3.8870   -2.3571   -0.7534 O   0  0  0  0  0  0  0  0  0  0  0  0
    9.5328    0.0496    0.8370 O   0  0  0  0  0  0  0  0  0  0  0  0
   -0.8979    1.4070   -0.2570 C   0  0  2  0  0  0  0  0  0  0  0  0
   -1.6143    2.0074   -1.4764 C   0  0  1  0  0  0  0  0  0  0  0  0
   -2.4528    3.2240   -1.0750 C   0  0  2  0  0  0  0  0  0  0  0  0
   -3.3267    2.9202    0.1418 C   0  0  1  0  0  0  0  0  0  0  0  0
   -2.4950    2.3012    1.2667 C   0  0  1  0  0  0  0  0  0  0  0  0
   -0.1891    0.1106   -0.5977 C   0  0  0  0  0  0  0  0  0  0  0  0
   -3.3635    1.8884    2.4507 C   0  0  0  0  0  0  0  0  0  0  0  0
   -0.9192   -0.9662   -1.1010 C   0  0  0  0  0  0  0  0  0  0  0  0
   -4.5526   -1.5092   -0.9330 C   0  0  1  0  0  0  0  0  0  0  0  0
   -3.0882   -1.7819   -0.5720 C   0  0  1  0  0  0  0  0  0  0  0  0
    1.1882   -0.0119   -0.4115 C   0  0  0  0  0  0  0  0  0  0  0  0
   -5.4951   -2.4153   -0.1337 C   0  0  2  0  0  0  0  0  0  0  0  0
   -5.1385   -2.4541    1.3564 C   0  0  1  0  0  0  0  0  0  0  0  0
   -3.6342   -2.6022    1.5850 C   0  0  0  0  0  0  0  0  0  0  0  0
    1.8326   -1.2075   -0.7268 C   0  0  0  0  0  0  0  0  0  0  0  0
   -0.2743   -2.1625   -1.4168 C   0  0  0  0  0  0  0  0  0  0  0  0
    1.1031   -2.2877   -1.2306 C   0  0  0  0  0  0  0  0  0  0  0  0
    3.2882   -1.3157   -0.5173 C   0  0  0  0  0  0  0  0  0  0  0  0
    3.9738   -0.1019    0.0059 C   0  0  0  0  0  0  0  0  0  0  0  0
    3.2122    0.9734    0.2577 C   0  0  0  0  0  0  0  0  0  0  0  0
    5.4291   -0.0621    0.2235 C   0  0  0  0  0  0  0  0  0  0  0  0
    6.2135    0.8582   -0.4719 C   0  0  0  0  0  0  0  0  0  0  0  0
    6.0238   -0.9448    1.1251 C   0  0  0  0  0  0  0  0  0  0  0  0
    7.5925    0.8958   -0.2658 C   0  0  0  0  0  0  0  0  0  0  0  0
    7.4028   -0.9073    1.3313 C   0  0  0  0  0  0  0  0  0  0  0  0
    8.1871    0.0130    0.6358 C   0  0  0  0  0  0  0  0  0  0  0  0
   -0.1794    2.1422    0.1241 H   0  0  0  0  0  0  0  0  0  0  0  0
   -2.2699    1.3033   -1.9922 H   0  0  0  0  0  0  0  0  0  0  0  0
   -1.8142    4.0957   -0.8900 H   0  0  0  0  0  0  0  0  0  0  0  0
   -4.1438    2.2518   -0.1462 H   0  0  0  0  0  0  0  0  0  0  0  0
   -1.7408    3.0167    1.6227 H   0  0  0  0  0  0  0  0  0  0  0  0
   -3.8549    0.9279    2.2691 H   0  0  0  0  0  0  0  0  0  0  0  0
   -4.1203    2.6435    2.6821 H   0  0  0  0  0  0  0  0  0  0  0  0
   -4.6835   -1.6682   -2.0102 H   0  0  0  0  0  0  0  0  0  0  0  0
   -2.8377   -2.8095   -0.8645 H   0  0  0  0  0  0  0  0  0  0  0  0
   -6.5297   -2.0747   -0.2607 H   0  0  0  0  0  0  0  0  0  0  0  0
   -5.6505   -3.2927    1.8427 H   0  0  0  0  0  0  0  0  0  0  0  0
   -0.0511    3.0673   -2.0029 H   0  0  0  0  0  0  0  0  0  0  0  0
   -3.8953    2.8299   -2.3469 H   0  0  0  0  0  0  0  0  0  0  0  0
   -3.2075    4.7309    0.8773 H   0  0  0  0  0  0  0  0  0  0  0  0
   -3.2877   -3.6048    1.3087 H   0  0  0  0  0  0  0  0  0  0  0  0
   -3.3889   -2.4412    2.6398 H   0  0  0  0  0  0  0  0  0  0  0  0
   -0.8234   -3.0049   -1.8283 H   0  0  0  0  0  0  0  0  0  0  0  0
    1.5868   -3.2262   -1.4862 H   0  0  0  0  0  0  0  0  0  0  0  0
   -3.1079    1.4882    4.3318 H   0  0  0  0  0  0  0  0  0  0  0  0
   -5.8052   -0.0075   -0.9536 H   0  0  0  0  0  0  0  0  0  0  0  0
   -6.0510   -4.2893   -0.1641 H   0  0  0  0  0  0  0  0  0  0  0  0
   -5.3811   -1.3376    2.9424 H   0  0  0  0  0  0  0  0  0  0  0  0
    3.5969    1.9114    0.6395 H   0  0  0  0  0  0  0  0  0  0  0  0
    5.7697    1.5510   -1.1830 H   0  0  0  0  0  0  0  0  0  0  0  0
    5.4273   -1.6657    1.6792 H   0  0  0  0  0  0  0  0  0  0  0  0
    8.1986    1.6139   -0.8113 H   0  0  0  0  0  0  0  0  0  0  0  0
    7.8539   -1.5996    2.0371 H   0  0  0  0  0  0  0  0  0  0  0  0
    9.7720   -0.6287    1.4918 H   0  0  0  0  0  0  0  0  0  0  0  0
  1 14  1  0  0  0  0
  1 18  1  0  0  0  0
  2 15  1  0  0  0  0
  2 51  1  0  0  0  0
  3 16  1  0  0  0  0
  3 52  1  0  0  0  0
  4 17  1  0  0  0  0
  4 53  1  0  0  0  0
  5 21  1  0  0  0  0
  5 23  1  0  0  0  0
  6 23  1  0  0  0  0
  6 27  1  0  0  0  0
  7 24  1  0  0  0  0
  7 33  1  0  0  0  0
  8 20  1  0  0  0  0
  8 58  1  0  0  0  0
  9 22  1  0  0  0  0
  9 59  1  0  0  0  0
 10 25  1  0  0  0  0
 10 60  1  0  0  0  0
 11 26  1  0  0  0  0
 11 61  1  0  0  0  0
 12 31  2  0  0  0  0
 13 39  1  0  0  0  0
 13 67  1  0  0  0  0
 14 15  1  0  0  0  0
 14 19  1  0  0  0  0
 14 40  1  0  0  0  0
 15 16  1  0  0  0  0
 15 41  1  0  0  0  0
 16 17  1  0  0  0  0
 16 42  1  0  0  0  0
 17 18  1  0  0  0  0
 17 43  1  0  0  0  0
 18 20  1  0  0  0  0
 18 44  1  0  0  0  0
 19 21  2  0  0  0  0
 19 24  1  0  0  0  0
 20 45  1  0  0  0  0
 20 46  1  0  0  0  0
 21 29  1  0  0  0  0
 22 23  1  0  0  0  0
 22 25  1  0  0  0  0
 22 47  1  0  0  0  0
 23 48  1  0  0  0  0
 24 28  2  0  0  0  0
 25 26  1  0  0  0  0
 25 49  1  0  0  0  0
 26 27  1  0  0  0  0
 26 50  1  0  0  0  0
 27 54  1  0  0  0  0
 27 55  1  0  0  0  0
 28 30  1  0  0  0  0
 28 31  1  0  0  0  0
 29 30  2  0  0  0  0
 29 56  1  0  0  0  0
 30 57  1  0  0  0  0
 31 32  1  0  0  0  0
 32 33  2  0  0  0  0
 32 34  1  0  0  0  0
 33 62  1  0  0  0  0
 34 35  2  0  0  0  0
 34 36  1  0  0  0  0
 35 37  1  0  0  0  0
 35 63  1  0  0  0  0
 36 38  2  0  0  0  0
 36 64  1  0  0  0  0
 37 39  2  0  0  0  0
 37 65  1  0  0  0  0
 38 39  1  0  0  0  0
 38 66  1  0  0  0  0
M  END
> <PUBCHEM_COMPOUND_CID>
21550576

> <PUBCHEM_CONFORMER_RMSD>
1

> <PUBCHEM_CONFORMER_DIVERSEORDER>
3
29
44
32
46
41
35
47
16
40
45
25
37
36
33
28
20
42
4
17
31
27
39
30
43
6
10
34
24
11
26
38
23
8
22
21
7
48
15
5
2
19
13
1
12
14
18
9

> <PUBCHEM_MMFF94_PARTIAL_CHARGES>
54
1 -0.56
10 -0.68
11 -0.68
12 -0.57
13 -0.53
14 0.42
15 0.28
16 0.28
17 0.28
18 0.28
19 -0.14
2 -0.68
20 0.28
21 0.08
22 0.28
23 0.56
24 0.08
25 0.28
26 0.28
27 0.28
28 0.09
29 -0.15
3 -0.68
30 -0.15
31 0.47
32 -0.01
33 -0.07
34 0.03
35 -0.15
36 -0.15
37 -0.15
38 -0.15
39 0.08
4 -0.68
5 -0.36
51 0.4
52 0.4
53 0.4
56 0.15
57 0.15
58 0.4
59 0.4
6 -0.56
60 0.4
61 0.4
62 0.15
63 0.15
64 0.15
65 0.15
66 0.15
67 0.45
7 -0.16
8 -0.68
9 -0.68

> <PUBCHEM_EFFECTIVE_ROTOR_COUNT>
7.4

> <PUBCHEM_PHARMACOPHORE_FEATURES>
25
1 1 acceptor
1 10 acceptor
1 10 donor
1 11 acceptor
1 11 donor
1 12 acceptor
1 13 donor
1 2 acceptor
1 2 donor
1 3 acceptor
1 3 donor
1 4 acceptor
1 4 donor
1 5 acceptor
1 6 acceptor
1 7 acceptor
1 8 acceptor
1 8 donor
1 9 acceptor
1 9 donor
6 1 14 15 16 17 18 rings
6 19 21 24 28 29 30 rings
6 34 35 36 37 38 39 rings
6 6 22 23 25 26 27 rings
6 7 24 28 31 32 33 rings

> <PUBCHEM_HEAVY_ATOM_COUNT>
39

> <PUBCHEM_ATOM_DEF_STEREO_COUNT>
9

> <PUBCHEM_ATOM_UDEF_STEREO_COUNT>
0

> <PUBCHEM_BOND_DEF_STEREO_COUNT>
0

> <PUBCHEM_BOND_UDEF_STEREO_COUNT>
0

> <PUBCHEM_ISOTOPIC_ATOM_COUNT>
0

> <PUBCHEM_COMPONENT_COUNT>
1

> <PUBCHEM_CACTVS_TAUTO_COUNT>
2

> <PUBCHEM_CONFORMER_ID>
0148D5F000000003

> <PUBCHEM_MMFF94_ENERGY>
130.7928

> <PUBCHEM_FEATURE_SELFOVERLAP>
126.956

> <PUBCHEM_SHAPE_FINGERPRINT>
10050765 1 18264209287208109542
10290309 65 17968093174886217238
10674148 151 14261356826176810983
11200772 48 11600012028787797403
11456790 92 18192415400568978227
11578080 2 17459735107586277363
12107698 1 18341334392745892466
12156800 1 18053135997437768297
12390115 104 17968370234698914964
12422481 6 18189874544574975267
12741549 16 18130791097845923023
12758862 11 17131287757307788647
13540713 4 18043520814780531142
13631057 29 18410863135356337895
14068700 675 18263647268924416125
14118638 360 18408890655263659742
14150022 121 18259980470581210121
14294032 229 17894916196480271774
14400156 162 18060702801420415722
14856354 85 17168424852993359758
15131766 46 13914315660230301682
15183329 4 6194557767744308776
15338160 23 18335137621946548009
15439362 3 9798322636219092167
17686467 74 18130510717811981108
18603816 31 16128368268707094953
18608769 82 18261396607351118614
21033648 144 18190746534120247780
21033650 10 15625679279059999029
21236236 1 18409453600404707436
21756936 100 16805603706892471736
21927370 108 17989197131969697645
22311459 1 18262803965456067374
249057 25 17703785908665023884
2747138 104 18338232644748459922
350125 39 18334297539708263892
3552219 110 18263351504275351425
392239 28 17822283536153532657
4073 2 18338236084900920446
469060 322 18201995538578034933
484985 159 16845280640843021409
5080951 261 17917711353294217577
5104073 3 18262516022184736306
6009941 240 17632585933623310399
6698420 124 17828193625838766881

> <PUBCHEM_SHAPE_MULTIPOLES>
726.3
18.7
4.07
2
43.21
1.94
1.01
-5.24
7.16
-8.79
-0.57
-2.49
0.92
0.15

> <PUBCHEM_SHAPE_SELFOVERLAP>
1588.635

> <PUBCHEM_SHAPE_VOLUME>
387.8

> <PUBCHEM_COORDINATE_TYPE>
2
5
10

$$$$

