443325
  -OEChem-07051213023D

 50 54  0     1  0  0  0  0  0999 V2000
    2.2423    0.4511   -2.6350 O   0  0  0  0  0  0  0  0  0  0  0  0
    3.2184   -2.3341    0.7498 O   0  0  0  0  0  0  0  0  0  0  0  0
    1.4465   -3.4062   -0.2847 O   0  0  0  0  0  0  0  0  0  0  0  0
    0.2290    2.2536    1.3653 N   0  0  2  0  0  0  0  0  0  0  0  0
   -0.9863   -2.1056    0.3989 N   0  0  0  0  0  0  0  0  0  0  0  0
   -0.0748    1.4719    0.1532 C   0  0  2  0  0  0  0  0  0  0  0  0
   -0.8092    0.2375    0.7212 C   0  0  2  0  0  0  0  0  0  0  0  0
    1.2784    1.1934   -0.5640 C   0  0  1  0  0  0  0  0  0  0  0  0
   -1.0609    0.5982    2.2129 C   0  0  0  0  0  0  0  0  0  0  0  0
   -0.0505   -1.1030    0.5783 C   0  0  0  0  0  0  0  0  0  0  0  0
   -0.8919    2.1106    2.2681 C   0  0  0  0  0  0  0  0  0  0  0  0
    2.0868    0.1087    0.2120 C   0  0  0  0  0  0  0  0  0  0  0  0
   -2.1464   -0.1338    0.0996 C   0  0  0  0  0  0  0  0  0  0  0  0
    1.0019    0.7392   -2.0142 C   0  0  1  0  0  0  0  0  0  0  0  0
    1.2828   -1.1486    0.4182 C   0  0  0  0  0  0  0  0  0  0  0  0
    2.1039    2.4785   -0.6372 C   0  0  0  0  0  0  0  0  0  0  0  0
    0.6542    3.6086    1.0506 C   0  0  0  0  0  0  0  0  0  0  0  0
   -2.1973   -1.5399   -0.0123 C   0  0  0  0  0  0  0  0  0  0  0  0
    1.7950    3.5810    0.0674 C   0  0  0  0  0  0  0  0  0  0  0  0
   -3.2277    0.6511   -0.2571 C   0  0  0  0  0  0  0  0  0  0  0  0
    0.2691    1.8118   -2.7890 C   0  0  0  0  0  0  0  0  0  0  0  0
    1.9651   -2.4353    0.2410 C   0  0  0  0  0  0  0  0  0  0  0  0
   -3.3373   -2.1830   -0.4507 C   0  0  0  0  0  0  0  0  0  0  0  0
   -4.3755    0.0076   -0.7256 C   0  0  0  0  0  0  0  0  0  0  0  0
   -4.4315   -1.3950   -0.8168 C   0  0  0  0  0  0  0  0  0  0  0  0
    4.0160   -3.5183    0.6501 C   0  0  0  0  0  0  0  0  0  0  0  0
   -0.7628    2.0677   -0.4545 H   0  0  0  0  0  0  0  0  0  0  0  0
   -0.3083    0.1252    2.8592 H   0  0  0  0  0  0  0  0  0  0  0  0
   -2.0462    0.3001    2.5893 H   0  0  0  0  0  0  0  0  0  0  0  0
   -1.7883    2.6282    1.9075 H   0  0  0  0  0  0  0  0  0  0  0  0
   -0.6625    2.4501    3.2824 H   0  0  0  0  0  0  0  0  0  0  0  0
    2.4016    0.4837    1.1952 H   0  0  0  0  0  0  0  0  0  0  0  0
    3.0133   -0.1080   -0.3350 H   0  0  0  0  0  0  0  0  0  0  0  0
    0.4098   -0.1804   -2.0465 H   0  0  0  0  0  0  0  0  0  0  0  0
    2.9830    2.5113   -1.2747 H   0  0  0  0  0  0  0  0  0  0  0  0
    1.0012    4.0985    1.9675 H   0  0  0  0  0  0  0  0  0  0  0  0
   -0.1650    4.2100    0.6390 H   0  0  0  0  0  0  0  0  0  0  0  0
   -0.7229   -3.0522    0.1727 H   0  0  0  0  0  0  0  0  0  0  0  0
    2.3985    4.4768   -0.0411 H   0  0  0  0  0  0  0  0  0  0  0  0
   -3.2023    1.7306   -0.1625 H   0  0  0  0  0  0  0  0  0  0  0  0
    0.2254    1.5181   -3.8458 H   0  0  0  0  0  0  0  0  0  0  0  0
   -0.7669    1.9477   -2.4710 H   0  0  0  0  0  0  0  0  0  0  0  0
    0.7737    2.7826   -2.7906 H   0  0  0  0  0  0  0  0  0  0  0  0
   -3.3858   -3.2638   -0.5239 H   0  0  0  0  0  0  0  0  0  0  0  0
    2.6028    1.2669   -3.0207 H   0  0  0  0  0  0  0  0  0  0  0  0
   -5.2431    0.5965   -1.0120 H   0  0  0  0  0  0  0  0  0  0  0  0
   -5.3405   -1.8709   -1.1756 H   0  0  0  0  0  0  0  0  0  0  0  0
    4.9933   -3.3083    1.0929 H   0  0  0  0  0  0  0  0  0  0  0  0
    4.1574   -3.7921   -0.3998 H   0  0  0  0  0  0  0  0  0  0  0  0
    3.5481   -4.3378    1.2039 H   0  0  0  0  0  0  0  0  0  0  0  0
  1 14  1  0  0  0  0
  1 45  1  0  0  0  0
  2 22  1  0  0  0  0
  2 26  1  0  0  0  0
  3 22  2  0  0  0  0
  4  6  1  0  0  0  0
  4 11  1  0  0  0  0
  4 17  1  0  0  0  0
  5 10  1  0  0  0  0
  5 18  1  0  0  0  0
  5 38  1  0  0  0  0
  6  7  1  0  0  0  0
  6  8  1  0  0  0  0
  6 27  1  0  0  0  0
  7  9  1  0  0  0  0
  7 10  1  0  0  0  0
  7 13  1  0  0  0  0
  8 12  1  0  0  0  0
  8 14  1  0  0  0  0
  8 16  1  0  0  0  0
  9 11  1  0  0  0  0
  9 28  1  0  0  0  0
  9 29  1  0  0  0  0
 10 15  2  0  0  0  0
 11 30  1  0  0  0  0
 11 31  1  0  0  0  0
 12 15  1  0  0  0  0
 12 32  1  0  0  0  0
 12 33  1  0  0  0  0
 13 18  1  0  0  0  0
 13 20  2  0  0  0  0
 14 21  1  0  0  0  0
 14 34  1  0  0  0  0
 15 22  1  0  0  0  0
 16 19  2  0  0  0  0
 16 35  1  0  0  0  0
 17 19  1  0  0  0  0
 17 36  1  0  0  0  0
 17 37  1  0  0  0  0
 18 23  2  0  0  0  0
 19 39  1  0  0  0  0
 20 24  1  0  0  0  0
 20 40  1  0  0  0  0
 21 41  1  0  0  0  0
 21 42  1  0  0  0  0
 21 43  1  0  0  0  0
 23 25  1  0  0  0  0
 23 44  1  0  0  0  0
 24 25  2  0  0  0  0
 24 46  1  0  0  0  0
 25 47  1  0  0  0  0
 26 48  1  0  0  0  0
 26 49  1  0  0  0  0
 26 50  1  0  0  0  0
M  END
> <PUBCHEM_COMPOUND_CID>
443325

> <PUBCHEM_CONFORMER_RMSD>
0.8

> <PUBCHEM_CONFORMER_DIVERSEORDER>
1
3
2
4

> <PUBCHEM_MMFF94_PARTIAL_CHARGES>
32
1 -0.68
10 -0.04
11 0.27
12 0.14
13 -0.14
14 0.28
15 -0.12
16 -0.29
17 0.41
18 0.1
19 -0.29
2 -0.43
20 -0.15
22 0.71
23 -0.15
24 -0.15
25 -0.15
26 0.28
3 -0.57
35 0.15
38 0.4
39 0.15
4 -0.81
40 0.15
44 0.15
45 0.4
46 0.15
47 0.15
5 -0.6
6 0.27
7 0.28
8 0.14

> <PUBCHEM_EFFECTIVE_ROTOR_COUNT>
4

> <PUBCHEM_PHARMACOPHORE_FEATURES>
11
1 1 acceptor
1 1 donor
1 3 acceptor
1 4 cation
1 5 cation
1 5 donor
5 4 6 7 9 11 rings
5 5 7 10 13 18 rings
6 13 18 20 23 24 25 rings
6 4 6 8 16 17 19 rings
6 6 7 8 10 12 15 rings

> <PUBCHEM_HEAVY_ATOM_COUNT>
26

> <PUBCHEM_ATOM_DEF_STEREO_COUNT>
3

> <PUBCHEM_ATOM_UDEF_STEREO_COUNT>
1

> <PUBCHEM_BOND_DEF_STEREO_COUNT>
0

> <PUBCHEM_BOND_UDEF_STEREO_COUNT>
0

> <PUBCHEM_ISOTOPIC_ATOM_COUNT>
0

> <PUBCHEM_COMPONENT_COUNT>
1

> <PUBCHEM_CACTVS_TAUTO_COUNT>
3

> <PUBCHEM_CONFORMER_ID>
0006C3BD00000001

> <PUBCHEM_MMFF94_ENERGY>
101.7733

> <PUBCHEM_FEATURE_SELFOVERLAP>
56.353

> <PUBCHEM_SHAPE_FINGERPRINT>
10863032 1 17981052911840711513
10948715 1 17835247740033348989
1100329 8 18121221141162637441
11370993 70 17908432354890588005
11578080 2 18197234717813088356
11582403 64 16231419802383056801
11640471 11 16192844480663009141
12035759 4 18266155375074699190
12156800 1 16625221230900988648
12553582 1 18192414467194478066
12730499 353 18050567349080847011
13004483 165 18049741885634832946
13009979 54 18267290122556571290
13134695 92 18336563671632539727
13140716 1 17688868640409958235
133893 2 17844500328033547054
14142880 1 17335337624576204352
14181834 199 18272652337564213166
14910302 57 17467068979119818862
14955137 171 18195228143747171259
16945 1 18411979139732286273
17980427 23 17313395581374742209
17980427 26 17681862625337546429
19591789 44 17472982796344834195
20600515 1 17605838251134188241
21330990 113 18128274302223120468
21421861 104 18189033392040631891
21452121 71 18336828701042213410
22112679 90 18046320183994923832
22149856 69 17983288224478338507
229495 10 18193869013951594860
23419403 2 17830779569622481776
23526113 38 17682381560407465857
23559900 14 18336279958703437938
2748010 2 17330546549855734291
3380486 77 18113897199942066059
484985 159 17548429557940283230
497634 4 17972321987085656490
5262128 65 17389067149852921325
5845 1 12075765672304050456
6443956 14 18339931509892001310
6992083 37 17976528734914204523
7364860 26 18338806615086562307
7471813 234 18114762489638595159
81228 2 17624969826466717986
84936 182 18264491676569352633
9925002 15 18120358019880766976
9981440 41 17836658422125798697

> <PUBCHEM_SHAPE_MULTIPOLES>
507.5
5.57
4.4
1.97
5.49
1.31
-0.75
3.53
-1.35
-4.96
1.13
-0.5
-1.43
-1.02

> <PUBCHEM_SHAPE_SELFOVERLAP>
1133.857

> <PUBCHEM_SHAPE_VOLUME>
270.8

> <PUBCHEM_COORDINATE_TYPE>
2
5
10

$$$$

