54675764
  -OEChem-07051212493D

 13 12  0     0  0  0  0  0  0999 V2000
    0.3496    1.6400    0.0001 O   0  0  0  0  0  0  0  0  0  0  0  0
    2.7841    0.6684   -0.0001 O   0  0  0  0  0  0  0  0  0  0  0  0
   -2.7771   -1.1620    0.0001 O   0  0  0  0  0  0  0  0  0  0  0  0
    2.1228   -1.5089   -0.0001 O   0  0  0  0  0  0  0  0  0  0  0  0
   -2.3240    1.0716   -0.0002 O   0  0  0  0  0  0  0  0  0  0  0  0
    0.4926    0.2690    0.0002 C   0  0  0  0  0  0  0  0  0  0  0  0
   -0.5528   -0.5717    0.0001 C   0  0  0  0  0  0  0  0  0  0  0  0
    1.8563   -0.3177    0.0001 C   0  0  0  0  0  0  0  0  0  0  0  0
   -1.9513   -0.0888   -0.0001 C   0  0  0  0  0  0  0  0  0  0  0  0
   -0.4110   -1.6487    0.0001 H   0  0  0  0  0  0  0  0  0  0  0  0
   -0.5926    1.8718    0.0002 H   0  0  0  0  0  0  0  0  0  0  0  0
    3.6983    0.3125   -0.0003 H   0  0  0  0  0  0  0  0  0  0  0  0
   -3.7220   -0.8982    0.0000 H   0  0  0  0  0  0  0  0  0  0  0  0
  1  6  1  0  0  0  0
  1 11  1  0  0  0  0
  2  8  1  0  0  0  0
  2 12  1  0  0  0  0
  3  9  1  0  0  0  0
  3 13  1  0  0  0  0
  4  8  2  0  0  0  0
  5  9  2  0  0  0  0
  6  7  2  0  0  0  0
  6  8  1  0  0  0  0
  7  9  1  0  0  0  0
  7 10  1  0  0  0  0
M  END
> <PUBCHEM_COMPOUND_CID>
54675764

> <PUBCHEM_CONFORMER_RMSD>
0.4

> <PUBCHEM_CONFORMER_DIVERSEORDER>
1
8
9
6
3
5
2
4
7

> <PUBCHEM_MMFF94_PARTIAL_CHARGES>
13
1 -0.53
10 0.15
11 0.45
12 0.5
13 0.5
2 -0.65
3 -0.65
4 -0.57
5 -0.57
6 0.09
7 -0.14
8 0.71
9 0.71

> <PUBCHEM_EFFECTIVE_ROTOR_COUNT>
2

> <PUBCHEM_PHARMACOPHORE_FEATURES>
7
1 1 donor
1 2 acceptor
1 3 acceptor
1 4 acceptor
1 5 acceptor
3 2 4 8 anion
3 3 5 9 anion

> <PUBCHEM_HEAVY_ATOM_COUNT>
9

> <PUBCHEM_ATOM_DEF_STEREO_COUNT>
0

> <PUBCHEM_ATOM_UDEF_STEREO_COUNT>
0

> <PUBCHEM_BOND_DEF_STEREO_COUNT>
1

> <PUBCHEM_BOND_UDEF_STEREO_COUNT>
0

> <PUBCHEM_ISOTOPIC_ATOM_COUNT>
0

> <PUBCHEM_COMPONENT_COUNT>
1

> <PUBCHEM_CACTVS_TAUTO_COUNT>
3

> <PUBCHEM_CONFORMER_ID>
0342493400000001

> <PUBCHEM_MMFF94_ENERGY>
16.0998

> <PUBCHEM_FEATURE_SELFOVERLAP>
35.634

> <PUBCHEM_SHAPE_FINGERPRINT>
10857977 72 18337403655344785632
12932764 1 17386012749384269291
14325111 11 18410855468755065123
14390081 3 18335141972874837496
21040471 1 18410856521301685954
23552423 10 18272646900209540822
29004967 10 18412261722805109138
3248919 1 17418369181803432443
5460574 1 9223237342401308163

> <PUBCHEM_SHAPE_MULTIPOLES>
155.87
3.99
1.37
0.56
0.35
0.1
0
-0.55
0
-0.06
0
0
-0.01
0

> <PUBCHEM_SHAPE_SELFOVERLAP>
306.892

> <PUBCHEM_SHAPE_VOLUME>
92.1

> <PUBCHEM_COORDINATE_TYPE>
2
5
10

$$$$

