5280353
  -OEChem-07051212443D

 77 80  0     0  0  0  0  0  0999 V2000
    1.1767    0.4643   -2.5321 O   0  0  0  0  0  0  0  0  0  0  0  0
    7.9284    1.4955   -0.1947 O   0  0  0  0  0  0  0  0  0  0  0  0
    3.3592    1.0419   -2.7612 O   0  0  0  0  0  0  0  0  0  0  0  0
    7.3663    1.3882    2.0034 O   0  0  0  0  0  0  0  0  0  0  0  0
   -5.2768    0.6396   -1.9351 O   0  0  0  0  0  0  0  0  0  0  0  0
   -2.6903   -2.4146   -1.7150 O   0  0  0  0  0  0  0  0  0  0  0  0
   -0.0727    1.8621    1.1389 N   0  0  0  0  0  0  0  0  0  0  0  0
    1.5416   -0.8181    0.4048 N   0  0  0  0  0  0  0  0  0  0  0  0
   -3.5855    1.5230   -0.5718 N   0  0  0  0  0  0  0  0  0  0  0  0
   -0.5163   -2.4620   -0.8925 N   0  0  0  0  0  0  0  0  0  0  0  0
    0.6837    3.0227   -0.5968 C   0  0  0  0  0  0  0  0  0  0  0  0
    1.0424    2.1295    0.3885 C   0  0  0  0  0  0  0  0  0  0  0  0
    3.6804   -0.5636    1.1030 C   0  0  0  0  0  0  0  0  0  0  0  0
    2.4501    0.1528    0.7436 C   0  0  0  0  0  0  0  0  0  0  0  0
   -0.6955    3.3023   -0.4327 C   0  0  0  0  0  0  0  0  0  0  0  0
    3.4543   -1.8922    0.9654 C   0  0  0  0  0  0  0  0  0  0  0  0
   -1.1376    2.5716    0.6479 C   0  0  0  0  0  0  0  0  0  0  0  0
    2.2660    1.4777    0.7489 C   0  0  0  0  0  0  0  0  0  0  0  0
    1.5724    3.5855   -1.6355 C   0  0  0  0  0  0  0  0  0  0  0  0
    2.0702   -2.0797    0.5128 C   0  0  0  0  0  0  0  0  0  0  0  0
    4.9227    0.1360    1.5349 C   0  0  0  0  0  0  0  0  0  0  0  0
    1.6381    2.7593   -2.9355 C   0  0  0  0  0  0  0  0  0  0  0  0
   -1.5100    4.2108   -1.2673 C   0  0  0  0  0  0  0  0  0  0  0  0
   -2.3771    2.4274    1.2922 C   0  0  0  0  0  0  0  0  0  0  0  0
    5.8407    0.4775    0.3669 C   0  0  0  0  0  0  0  0  0  0  0  0
    4.3840   -3.0310    1.2065 C   0  0  0  0  0  0  0  0  0  0  0  0
    1.4620   -3.2442    0.2608 C   0  0  0  0  0  0  0  0  0  0  0  0
   -3.5067    1.9418    0.7240 C   0  0  0  0  0  0  0  0  0  0  0  0
    0.1021   -3.3503   -0.1801 C   0  0  0  0  0  0  0  0  0  0  0  0
   -4.8269    1.7563    1.3063 C   0  0  0  0  0  0  0  0  0  0  0  0
   -5.6547    1.2417    0.3713 C   0  0  0  0  0  0  0  0  0  0  0  0
   -0.7080   -4.5239    0.1660 C   0  0  0  0  0  0  0  0  0  0  0  0
    2.1790    1.3606   -2.7297 C   0  0  0  0  0  0  0  0  0  0  0  0
    7.1097    1.1516    0.8297 C   0  0  0  0  0  0  0  0  0  0  0  0
   -4.8567    1.0788   -0.8790 C   0  0  0  0  0  0  0  0  0  0  0  0
   -1.8894   -4.2640   -0.4087 C   0  0  0  0  0  0  0  0  0  0  0  0
   -5.2276    2.0586    2.6564 C   0  0  0  0  0  0  0  0  0  0  0  0
   -7.0887    0.8563    0.4048 C   0  0  0  0  0  0  0  0  0  0  0  0
   -1.7862   -2.9483   -1.0909 C   0  0  0  0  0  0  0  0  0  0  0  0
   -0.2494   -5.6838    0.9674 C   0  0  0  0  0  0  0  0  0  0  0  0
   -3.0801   -5.0539   -0.4123 C   0  0  0  0  0  0  0  0  0  0  0  0
   -6.4039    2.6030    2.9689 C   0  0  0  0  0  0  0  0  0  0  0  0
   -3.0902   -6.3871   -0.5428 C   0  0  0  0  0  0  0  0  0  0  0  0
    3.0916    2.1428    0.9855 H   0  0  0  0  0  0  0  0  0  0  0  0
    2.5888    3.6821   -1.2313 H   0  0  0  0  0  0  0  0  0  0  0  0
    1.2590    4.6053   -1.8884 H   0  0  0  0  0  0  0  0  0  0  0  0
    5.4686   -0.5055    2.2395 H   0  0  0  0  0  0  0  0  0  0  0  0
    4.6867    1.0336    2.1192 H   0  0  0  0  0  0  0  0  0  0  0  0
   -0.1054    1.2371    1.9341 H   0  0  0  0  0  0  0  0  0  0  0  0
    0.5981   -0.6299    0.1025 H   0  0  0  0  0  0  0  0  0  0  0  0
    2.2865    3.2604   -3.6638 H   0  0  0  0  0  0  0  0  0  0  0  0
    0.6485    2.6905   -3.4034 H   0  0  0  0  0  0  0  0  0  0  0  0
   -1.6751    3.7729   -2.2571 H   0  0  0  0  0  0  0  0  0  0  0  0
   -2.4883    4.4172   -0.8225 H   0  0  0  0  0  0  0  0  0  0  0  0
   -1.0083    5.1751   -1.3980 H   0  0  0  0  0  0  0  0  0  0  0  0
   -2.4053    2.6979    2.3458 H   0  0  0  0  0  0  0  0  0  0  0  0
    6.1220   -0.4335   -0.1737 H   0  0  0  0  0  0  0  0  0  0  0  0
    5.3324    1.1569   -0.3268 H   0  0  0  0  0  0  0  0  0  0  0  0
    4.0009   -3.6809    2.0000 H   0  0  0  0  0  0  0  0  0  0  0  0
    5.3787   -2.6917    1.5098 H   0  0  0  0  0  0  0  0  0  0  0  0
    4.5085   -3.6270    0.2963 H   0  0  0  0  0  0  0  0  0  0  0  0
    2.0024   -4.1746    0.4076 H   0  0  0  0  0  0  0  0  0  0  0  0
   -2.8097    1.5317   -1.2235 H   0  0  0  0  0  0  0  0  0  0  0  0
   -4.5137    1.8486    3.4476 H   0  0  0  0  0  0  0  0  0  0  0  0
   -7.2599   -0.0357   -0.2076 H   0  0  0  0  0  0  0  0  0  0  0  0
   -7.4319    0.6048    1.4119 H   0  0  0  0  0  0  0  0  0  0  0  0
   -7.7116    1.6631    0.0070 H   0  0  0  0  0  0  0  0  0  0  0  0
    0.4143   -6.3208    0.3747 H   0  0  0  0  0  0  0  0  0  0  0  0
   -1.0768   -6.2956    1.3362 H   0  0  0  0  0  0  0  0  0  0  0  0
    0.2985   -5.3466    1.8537 H   0  0  0  0  0  0  0  0  0  0  0  0
   -4.0251   -4.5255   -0.3254 H   0  0  0  0  0  0  0  0  0  0  0  0
    1.5198   -0.4458   -2.4044 H   0  0  0  0  0  0  0  0  0  0  0  0
    8.7420    1.9434    0.1210 H   0  0  0  0  0  0  0  0  0  0  0  0
   -6.6395    2.8143    4.0073 H   0  0  0  0  0  0  0  0  0  0  0  0
   -7.1475    2.8856    2.2329 H   0  0  0  0  0  0  0  0  0  0  0  0
   -4.0345   -6.9220   -0.5461 H   0  0  0  0  0  0  0  0  0  0  0  0
   -2.1881   -6.9744   -0.6720 H   0  0  0  0  0  0  0  0  0  0  0  0
  1 33  1  0  0  0  0
  1 72  1  0  0  0  0
  2 34  1  0  0  0  0
  2 73  1  0  0  0  0
  3 33  2  0  0  0  0
  4 34  2  0  0  0  0
  5 35  2  0  0  0  0
  6 39  2  0  0  0  0
  7 12  1  0  0  0  0
  7 17  1  0  0  0  0
  7 49  1  0  0  0  0
  8 14  1  0  0  0  0
  8 20  1  0  0  0  0
  8 50  1  0  0  0  0
  9 28  1  0  0  0  0
  9 35  1  0  0  0  0
  9 63  1  0  0  0  0
 10 29  2  0  0  0  0
 10 39  1  0  0  0  0
 11 12  2  0  0  0  0
 11 15  1  0  0  0  0
 11 19  1  0  0  0  0
 12 18  1  0  0  0  0
 13 14  1  0  0  0  0
 13 16  2  0  0  0  0
 13 21  1  0  0  0  0
 14 18  2  0  0  0  0
 15 17  2  0  0  0  0
 15 23  1  0  0  0  0
 16 20  1  0  0  0  0
 16 26  1  0  0  0  0
 17 24  1  0  0  0  0
 18 44  1  0  0  0  0
 19 22  1  0  0  0  0
 19 45  1  0  0  0  0
 19 46  1  0  0  0  0
 20 27  2  0  0  0  0
 21 25  1  0  0  0  0
 21 47  1  0  0  0  0
 21 48  1  0  0  0  0
 22 33  1  0  0  0  0
 22 51  1  0  0  0  0
 22 52  1  0  0  0  0
 23 53  1  0  0  0  0
 23 54  1  0  0  0  0
 23 55  1  0  0  0  0
 24 28  2  0  0  0  0
 24 56  1  0  0  0  0
 25 34  1  0  0  0  0
 25 57  1  0  0  0  0
 25 58  1  0  0  0  0
 26 59  1  0  0  0  0
 26 60  1  0  0  0  0
 26 61  1  0  0  0  0
 27 29  1  0  0  0  0
 27 62  1  0  0  0  0
 28 30  1  0  0  0  0
 29 32  1  0  0  0  0
 30 31  2  0  0  0  0
 30 37  1  0  0  0  0
 31 35  1  0  0  0  0
 31 38  1  0  0  0  0
 32 36  2  0  0  0  0
 32 40  1  0  0  0  0
 36 39  1  0  0  0  0
 36 41  1  0  0  0  0
 37 42  2  0  0  0  0
 37 64  1  0  0  0  0
 38 65  1  0  0  0  0
 38 66  1  0  0  0  0
 38 67  1  0  0  0  0
 40 68  1  0  0  0  0
 40 69  1  0  0  0  0
 40 70  1  0  0  0  0
 41 43  2  0  0  0  0
 41 71  1  0  0  0  0
 42 74  1  0  0  0  0
 42 75  1  0  0  0  0
 43 76  1  0  0  0  0
 43 77  1  0  0  0  0
M  END
> <PUBCHEM_COMPOUND_CID>
5280353

> <PUBCHEM_CONFORMER_RMSD>
1.2

> <PUBCHEM_CONFORMER_DIVERSEORDER>
1
80
12
63
5
53
67
50
14
78
51
85
55
42
22
62
10
48
82
49
74
70
27
58
73
24
64
19
79
36
43
11
65
88
7
32
87
46
71
54
66
40
68
83
9
37
33
75
26
34
41
15
81
57
77
35
56
69
59
61
3
39
25
76
8
72
38
44
28
13
20
47
21
16
17
31
6
86
60
84
4
18
52
45
29
23
2
30

> <PUBCHEM_MMFF94_PARTIAL_CHARGES>
56
1 -0.65
10 -0.66
11 -0.18
12 -0.2
13 -0.14
14 0.1
15 -0.18
16 -0.14
17 -0.2
18 -0.11
19 0.18
2 -0.65
20 0.1
21 0.14
22 0.06
23 0.18
24 -0.11
25 0.06
26 0.14
27 -0.14
28 0.11
29 0.42
3 -0.57
31 -0.12
32 -0.12
33 0.66
34 0.66
35 0.62
36 0.01
37 -0.15
38 0.14
39 0.77
4 -0.57
40 0.14
41 -0.15
42 -0.3
43 -0.3
44 0.15
49 0.27
5 -0.57
50 0.4
56 0.15
6 -0.57
62 0.15
63 0.37
64 0.15
7 0.03
71 0.15
72 0.5
73 0.5
74 0.15
75 0.15
76 0.15
77 0.15
8 -0.6
9 -0.54

> <PUBCHEM_EFFECTIVE_ROTOR_COUNT>
11.2

> <PUBCHEM_PHARMACOPHORE_FEATURES>
21
1 1 acceptor
1 10 acceptor
1 10 donor
1 2 acceptor
1 3 acceptor
1 4 acceptor
1 42 hydrophobe
1 43 hydrophobe
1 5 acceptor
1 6 acceptor
1 7 cation
1 7 donor
1 8 cation
1 8 donor
1 9 donor
3 1 3 33 anion
3 2 4 34 anion
5 10 29 32 36 39 rings
5 7 11 12 15 17 rings
5 8 13 14 16 20 rings
5 9 28 30 31 35 rings

> <PUBCHEM_HEAVY_ATOM_COUNT>
43

> <PUBCHEM_ATOM_DEF_STEREO_COUNT>
0

> <PUBCHEM_ATOM_UDEF_STEREO_COUNT>
0

> <PUBCHEM_BOND_DEF_STEREO_COUNT>
3

> <PUBCHEM_BOND_UDEF_STEREO_COUNT>
0

> <PUBCHEM_ISOTOPIC_ATOM_COUNT>
0

> <PUBCHEM_COMPONENT_COUNT>
1

> <PUBCHEM_CACTVS_TAUTO_COUNT>
70

> <PUBCHEM_CONFORMER_ID>
0050926100000001

> <PUBCHEM_MMFF94_ENERGY>
105.1687

> <PUBCHEM_FEATURE_SELFOVERLAP>
106.726

> <PUBCHEM_SHAPE_FINGERPRINT>
10049733 16 18411134698429147222
10190108 129 17905029701621346259
10258939 38 17773872180537642696
12156800 1 18190160327393412636
12440605 4 17909535173975791024
13347071 3 18189060789743300387
1361 2 18336829805397513043
14004853 49 18192700357450641293
14068700 686 18125444356508422792
14840074 17 18339927111787643528
14863182 85 18267851964481899976
15297060 5 18260831492971459794
15444296 7 18130783430210941045
16112460 7 18187368765352792921
18365409 1 18336543824409465975
20764821 26 18410290290536842411
21133410 38 17969504995482121899
21133410 62 18198646461458831191
4461854 278 18338218462592128899
469060 322 17845677879992863188

> <PUBCHEM_SHAPE_MULTIPOLES>
829.78
14.44
8.16
2.4
4.84
14.9
0.79
-10.19
-8.46
-5.91
1.57
-0.46
-2.18
-3.73

> <PUBCHEM_SHAPE_SELFOVERLAP>
1798.523

> <PUBCHEM_SHAPE_VOLUME>
457.8

> <PUBCHEM_COORDINATE_TYPE>
2
5
10

$$$$

