441920
  -OEChem-07051212562D

117123  0     1  0  0  0  0  0999 V2000
    5.9945   -2.7025    0.0000 O   0  0  0  0  0  0  0  0  0  0  0  0
   14.9196    0.3840    0.0000 O   0  0  0  0  0  0  0  0  0  0  0  0
   14.0651   -1.1226    0.0000 O   0  0  0  0  0  0  0  0  0  0  0  0
    4.2625   -2.6958    0.0000 O   0  0  0  0  0  0  0  0  0  0  0  0
    6.0022   -0.7025    0.0000 O   0  0  0  0  0  0  0  0  0  0  0  0
    4.2740    0.3042    0.0000 O   0  0  0  0  0  0  0  0  0  0  0  0
    2.5381   -0.6891    0.0000 O   0  0  0  0  0  0  0  0  0  0  0  0
    5.1420    0.8009    0.0000 O   0  0  0  0  0  0  0  0  0  0  0  0
    7.7381    0.2908    0.0000 O   0  0  0  0  0  0  0  0  0  0  0  0
    7.7458    2.2908    0.0000 O   0  0  0  0  0  0  0  0  0  0  0  0
    6.0176    3.2975    0.0000 O   0  0  0  0  0  0  0  0  0  0  0  0
    4.2856    3.3042    0.0000 O   0  0  0  0  0  0  0  0  0  0  0  0
   10.5216   -1.1501    0.0000 C   0  0  2  0  0  0  0  0  0  0  0  0
    9.6555   -0.6501    0.0000 C   0  0  1  0  0  0  0  0  0  0  0  0
    8.7455   -1.1570    0.0000 C   0  0  2  0  0  0  0  0  0  0  0  0
   11.3876   -0.6501    0.0000 C   0  0  1  0  0  0  0  0  0  0  0  0
    8.7375   -2.1986    0.0000 C   0  0  1  0  0  0  0  0  0  0  0  0
   10.5376   -2.1916    0.0000 C   0  0  0  0  0  0  0  0  0  0  0  0
    9.6396   -2.7194    0.0000 C   0  0  0  0  0  0  0  0  0  0  0  0
    7.8021   -2.7483    0.0000 C   0  0  0  0  0  0  0  0  0  0  0  0
   11.3876    0.3499    0.0000 C   0  0  0  0  0  0  0  0  0  0  0  0
    9.6555    0.3499    0.0000 C   0  0  0  0  0  0  0  0  0  0  0  0
    7.8187   -0.5929    0.0000 C   0  0  0  0  0  0  0  0  0  0  0  0
   12.2815    0.8845    0.0000 C   0  0  1  0  0  0  0  0  0  0  0  0
   12.2815   -1.1848    0.0000 C   0  0  0  0  0  0  0  0  0  0  0  0
   13.1876    0.3707    0.0000 C   0  0  1  0  0  0  0  0  0  0  0  0
   11.1643   -1.9162    0.0000 C   0  0  0  0  0  0  0  0  0  0  0  0
    6.8624   -2.2058    0.0000 C   0  0  2  0  0  0  0  0  0  0  0  0
   13.1876   -0.6709    0.0000 C   0  0  0  0  0  0  0  0  0  0  0  0
    8.7532   -0.1570    0.0000 C   0  0  0  0  0  0  0  0  0  0  0  0
   10.5216    0.8499    0.0000 C   0  0  0  0  0  0  0  0  0  0  0  0
    6.8708   -1.1208    0.0000 C   0  0  0  0  0  0  0  0  0  0  0  0
   11.7297   -1.5898    0.0000 C   0  0  0  0  0  0  0  0  0  0  0  0
   12.2564    1.9692    0.0000 C   0  0  0  0  0  0  0  0  0  0  0  0
   14.1314    0.9059    0.0000 C   0  0  0  0  0  0  0  0  0  0  0  0
   13.1876    2.5262    0.0000 C   0  0  0  0  0  0  0  0  0  0  0  0
    7.3054   -3.6162    0.0000 C   0  0  0  0  0  0  0  0  0  0  0  0
    8.3054   -3.6124    0.0000 C   0  0  0  0  0  0  0  0  0  0  0  0
   14.1314    1.9909    0.0000 C   0  0  0  0  0  0  0  0  0  0  0  0
   14.0574   -0.1226    0.0000 C   0  0  0  0  0  0  0  0  0  0  0  0
   13.6775    3.3979    0.0000 C   0  0  0  0  0  0  0  0  0  0  0  0
   12.6776    3.3864    0.0000 C   0  0  0  0  0  0  0  0  0  0  0  0
    5.1304   -2.1991    0.0000 C   0  0  2  0  0  0  0  0  0  0  0  0
    5.1343   -1.1991    0.0000 C   0  0  1  0  0  0  0  0  0  0  0  0
    4.2702   -0.6958    0.0000 C   0  0  0  0  0  0  0  0  0  0  0  0
    3.3984   -2.1924    0.0000 C   0  0  0  0  0  0  0  0  0  0  0  0
    3.4022   -1.1924    0.0000 C   0  0  1  0  0  0  0  0  0  0  0  0
    6.0061    0.2975    0.0000 C   0  0  2  0  0  0  0  0  0  0  0  0
    6.8740    0.7942    0.0000 C   0  0  1  0  0  0  0  0  0  0  0  0
    6.8779    1.7942    0.0000 C   0  0  2  0  0  0  0  0  0  0  0  0
    5.1458    1.8008    0.0000 C   0  0  1  0  0  0  0  0  0  0  0  0
    6.0138    2.2975    0.0000 C   0  0  1  0  0  0  0  0  0  0  0  0
    4.2817    2.3042    0.0000 C   0  0  0  0  0  0  0  0  0  0  0  0
   10.3916   -0.2251    0.0000 H   0  0  0  0  0  0  0  0  0  0  0  0
    8.7408   -3.0486    0.0000 H   0  0  0  0  0  0  0  0  0  0  0  0
   10.7556   -2.7720    0.0000 H   0  0  0  0  0  0  0  0  0  0  0  0
   11.1468   -2.0761    0.0000 H   0  0  0  0  0  0  0  0  0  0  0  0
    9.2423   -3.1954    0.0000 H   0  0  0  0  0  0  0  0  0  0  0  0
   10.0405   -3.1923    0.0000 H   0  0  0  0  0  0  0  0  0  0  0  0
    9.4435    0.9325    0.0000 H   0  0  0  0  0  0  0  0  0  0  0  0
    9.0450    0.2422    0.0000 H   0  0  0  0  0  0  0  0  0  0  0  0
    8.2269   -0.1262    0.0000 H   0  0  0  0  0  0  0  0  0  0  0  0
    7.4288   -0.1109    0.0000 H   0  0  0  0  0  0  0  0  0  0  0  0
   13.0110    1.3208    0.0000 H   0  0  0  0  0  0  0  0  0  0  0  0
   11.8769   -1.6546    0.0000 H   0  0  0  0  0  0  0  0  0  0  0  0
   12.6751   -1.6638    0.0000 H   0  0  0  0  0  0  0  0  0  0  0  0
   10.6894   -2.3147    0.0000 H   0  0  0  0  0  0  0  0  0  0  0  0
   11.5629   -2.3911    0.0000 H   0  0  0  0  0  0  0  0  0  0  0  0
   11.6393   -1.5176    0.0000 H   0  0  0  0  0  0  0  0  0  0  0  0
    6.8612   -2.8258    0.0000 H   0  0  0  0  0  0  0  0  0  0  0  0
   13.3966   -1.2546    0.0000 H   0  0  0  0  0  0  0  0  0  0  0  0
   13.7984   -0.5648    0.0000 H   0  0  0  0  0  0  0  0  0  0  0  0
    9.3732   -0.1618    0.0000 H   0  0  0  0  0  0  0  0  0  0  0  0
    8.7580    0.4630    0.0000 H   0  0  0  0  0  0  0  0  0  0  0  0
    8.1332   -0.1522    0.0000 H   0  0  0  0  0  0  0  0  0  0  0  0
   10.5216    1.4699    0.0000 H   0  0  0  0  0  0  0  0  0  0  0  0
    6.6662   -0.5356    0.0000 H   0  0  0  0  0  0  0  0  0  0  0  0
    6.2592   -1.2222    0.0000 H   0  0  0  0  0  0  0  0  0  0  0  0
   11.1471   -1.8019    0.0000 H   0  0  0  0  0  0  0  0  0  0  0  0
   11.9418   -2.1724    0.0000 H   0  0  0  0  0  0  0  0  0  0  0  0
   12.3123   -1.3777    0.0000 H   0  0  0  0  0  0  0  0  0  0  0  0
   12.0339    2.5479    0.0000 H   0  0  0  0  0  0  0  0  0  0  0  0
   11.6482    1.8490    0.0000 H   0  0  0  0  0  0  0  0  0  0  0  0
   14.3404    0.3222    0.0000 H   0  0  0  0  0  0  0  0  0  0  0  0
   14.7422    1.0120    0.0000 H   0  0  0  0  0  0  0  0  0  0  0  0
    6.7673   -3.3083    0.0000 H   0  0  0  0  0  0  0  0  0  0  0  0
    6.9975   -4.1544    0.0000 H   0  0  0  0  0  0  0  0  0  0  0  0
    7.8435   -3.9242    0.0000 H   0  0  0  0  0  0  0  0  0  0  0  0
    7.7697   -3.9245    0.0000 H   0  0  0  0  0  0  0  0  0  0  0  0
    8.6175   -4.1481    0.0000 H   0  0  0  0  0  0  0  0  0  0  0  0
    8.8411   -3.3003    0.0000 H   0  0  0  0  0  0  0  0  0  0  0  0
   14.7422    1.8848    0.0000 H   0  0  0  0  0  0  0  0  0  0  0  0
   14.3404    2.5746    0.0000 H   0  0  0  0  0  0  0  0  0  0  0  0
   14.2180    3.0941    0.0000 H   0  0  0  0  0  0  0  0  0  0  0  0
   13.9813    3.9384    0.0000 H   0  0  0  0  0  0  0  0  0  0  0  0
   13.1371    3.7017    0.0000 H   0  0  0  0  0  0  0  0  0  0  0  0
   13.2109    3.7025    0.0000 H   0  0  0  0  0  0  0  0  0  0  0  0
   12.3614    3.9197    0.0000 H   0  0  0  0  0  0  0  0  0  0  0  0
   12.1443    3.0702    0.0000 H   0  0  0  0  0  0  0  0  0  0  0  0
    5.1280   -2.8191    0.0000 H   0  0  0  0  0  0  0  0  0  0  0  0
   15.4589    0.0782    0.0000 H   0  0  0  0  0  0  0  0  0  0  0  0
    5.6700   -1.5112    0.0000 H   0  0  0  0  0  0  0  0  0  0  0  0
    2.7882   -2.0824    0.0000 H   0  0  0  0  0  0  0  0  0  0  0  0
    3.1841   -2.7742    0.0000 H   0  0  0  0  0  0  0  0  0  0  0  0
    2.8641   -1.5004    0.0000 H   0  0  0  0  0  0  0  0  0  0  0  0
    6.5418   -0.0145    0.0000 H   0  0  0  0  0  0  0  0  0  0  0  0
    2.0000   -0.9970    0.0000 H   0  0  0  0  0  0  0  0  0  0  0  0
    7.4121    1.1021    0.0000 H   0  0  0  0  0  0  0  0  0  0  0  0
    7.4136    1.4821    0.0000 H   0  0  0  0  0  0  0  0  0  0  0  0
    4.6077    1.4929    0.0000 H   0  0  0  0  0  0  0  0  0  0  0  0
    6.5519    2.6054    0.0000 H   0  0  0  0  0  0  0  0  0  0  0  0
    8.2762    0.5988    0.0000 H   0  0  0  0  0  0  0  0  0  0  0  0
    3.6716    2.4142    0.0000 H   0  0  0  0  0  0  0  0  0  0  0  0
    4.0674    1.7224    0.0000 H   0  0  0  0  0  0  0  0  0  0  0  0
    7.7482    2.9108    0.0000 H   0  0  0  0  0  0  0  0  0  0  0  0
    6.5558    3.6054    0.0000 H   0  0  0  0  0  0  0  0  0  0  0  0
    3.7498    3.6162    0.0000 H   0  0  0  0  0  0  0  0  0  0  0  0
 28  1  1  1  0  0  0
 43  1  1  6  0  0  0
  2 40  1  0  0  0  0
  2101  1  0  0  0  0
  3 40  2  0  0  0  0
  4 43  1  0  0  0  0
  4 46  1  0  0  0  0
 44  5  1  1  0  0  0
 48  5  1  6  0  0  0
  6 45  2  0  0  0  0
 47  7  1  1  0  0  0
  7107  1  0  0  0  0
  8 48  1  0  0  0  0
  8 51  1  0  0  0  0
 49  9  1  1  0  0  0
  9112  1  0  0  0  0
 50 10  1  6  0  0  0
 10115  1  0  0  0  0
 52 11  1  1  0  0  0
 11116  1  0  0  0  0
 12 53  1  0  0  0  0
 12117  1  0  0  0  0
 13 14  1  0  0  0  0
 13 16  1  0  0  0  0
 13 18  1  0  0  0  0
 13 27  1  1  0  0  0
 14 15  1  0  0  0  0
 14 22  1  0  0  0  0
 14 54  1  6  0  0  0
 15 17  1  0  0  0  0
 15 23  1  0  0  0  0
 15 30  1  1  0  0  0
 16 21  1  0  0  0  0
 16 25  1  0  0  0  0
 16 33  1  6  0  0  0
 17 19  1  0  0  0  0
 17 20  1  0  0  0  0
 17 55  1  6  0  0  0
 18 19  1  0  0  0  0
 18 56  1  0  0  0  0
 18 57  1  0  0  0  0
 19 58  1  0  0  0  0
 19 59  1  0  0  0  0
 20 28  1  0  0  0  0
 20 37  1  0  0  0  0
 20 38  1  0  0  0  0
 21 24  1  0  0  0  0
 21 31  2  0  0  0  0
 22 31  1  0  0  0  0
 22 60  1  0  0  0  0
 22 61  1  0  0  0  0
 23 32  1  0  0  0  0
 23 62  1  0  0  0  0
 23 63  1  0  0  0  0
 24 26  1  0  0  0  0
 24 34  1  0  0  0  0
 24 64  1  1  0  0  0
 25 29  1  0  0  0  0
 25 65  1  0  0  0  0
 25 66  1  0  0  0  0
 26 29  1  0  0  0  0
 26 35  1  0  0  0  0
 26 40  1  1  0  0  0
 27 67  1  0  0  0  0
 27 68  1  0  0  0  0
 27 69  1  0  0  0  0
 28 32  1  0  0  0  0
 28 70  1  0  0  0  0
 29 71  1  0  0  0  0
 29 72  1  0  0  0  0
 30 73  1  0  0  0  0
 30 74  1  0  0  0  0
 30 75  1  0  0  0  0
 31 76  1  0  0  0  0
 32 77  1  0  0  0  0
 32 78  1  0  0  0  0
 33 79  1  0  0  0  0
 33 80  1  0  0  0  0
 33 81  1  0  0  0  0
 34 36  1  0  0  0  0
 34 82  1  0  0  0  0
 34 83  1  0  0  0  0
 35 39  1  0  0  0  0
 35 84  1  0  0  0  0
 35 85  1  0  0  0  0
 36 39  1  0  0  0  0
 36 41  1  0  0  0  0
 36 42  1  0  0  0  0
 37 86  1  0  0  0  0
 37 87  1  0  0  0  0
 37 88  1  0  0  0  0
 38 89  1  0  0  0  0
 38 90  1  0  0  0  0
 38 91  1  0  0  0  0
 39 92  1  0  0  0  0
 39 93  1  0  0  0  0
 41 94  1  0  0  0  0
 41 95  1  0  0  0  0
 41 96  1  0  0  0  0
 42 97  1  0  0  0  0
 42 98  1  0  0  0  0
 42 99  1  0  0  0  0
 43 44  1  0  0  0  0
 43100  1  0  0  0  0
 44 45  1  0  0  0  0
 44102  1  0  0  0  0
 45 47  1  0  0  0  0
 46 47  1  0  0  0  0
 46103  1  0  0  0  0
 46104  1  0  0  0  0
 47105  1  0  0  0  0
 48 49  1  0  0  0  0
 48106  1  0  0  0  0
 49 50  1  0  0  0  0
 49108  1  0  0  0  0
 50 52  1  0  0  0  0
 50109  1  0  0  0  0
 51 52  1  0  0  0  0
 51 53  1  6  0  0  0
 51110  1  0  0  0  0
 52111  1  0  0  0  0
 53113  1  0  0  0  0
 53114  1  0  0  0  0
M  END
> <PUBCHEM_COMPOUND_CID>
441920

> <PUBCHEM_COMPOUND_CANONICALIZED>
1

> <PUBCHEM_CACTVS_COMPLEXITY>
1480

> <PUBCHEM_CACTVS_HBOND_ACCEPTOR>
12

> <PUBCHEM_CACTVS_HBOND_DONOR>
6

> <PUBCHEM_CACTVS_ROTATABLE_BOND>
6

> <PUBCHEM_CACTVS_SUBSKEYS>
AAADcfB8PAAAAAAAAAAAAAAAAAAAAAAAAAA0aMGCAAAAAADAAAAAGgAACAAADxSwgAMCCAAABgCIAqDSCAIAAAAgAAAACAFAAAgREBYAAQQiQAAFoAAPAAPI6PyPgAAAAAAAAADAAAYAADAAAAAAAAAAAA==

> <PUBCHEM_IUPAC_OPENEYE_NAME>
(4aS,6aR,6aS,6bR,8aR,10S,12aR,14bS)-10-[(2S,3S,5R)-5-hydroxy-4-oxo-3-[(2S,3R,4S,5S,6R)-3,4,5-trihydroxy-6-(hydroxymethyl)tetrahydropyran-2-yl]oxy-tetrahydropyran-2-yl]oxy-2,2,6a,6b,9,9,12a-heptamethyl-1,3,4,5,6,6a,7,8,8a,10,11,12,13,14b-tetradecahydropicene-4a-carboxylic acid

> <PUBCHEM_IUPAC_CAS_NAME>
(4aS,6aR,6aS,6bR,8aR,10S,12aR,14bS)-10-[[(2S,3S,5R)-5-hydroxy-4-oxo-3-[[(2S,3R,4S,5S,6R)-3,4,5-trihydroxy-6-(hydroxymethyl)-2-oxanyl]oxy]-2-oxanyl]oxy]-2,2,6a,6b,9,9,12a-heptamethyl-1,3,4,5,6,6a,7,8,8a,10,11,12,13,14b-tetradecahydropicene-4a-carboxylic acid

> <PUBCHEM_IUPAC_NAME>
(4aS,6aR,6aS,6bR,8aR,10S,12aR,14bS)-10-[(2S,3S,5R)-5-hydroxy-4-oxo-3-[(2S,3R,4S,5S,6R)-3,4,5-trihydroxy-6-(hydroxymethyl)oxan-2-yl]oxyoxan-2-yl]oxy-2,2,6a,6b,9,9,12a-heptamethyl-1,3,4,5,6,6a,7,8,8a,10,11,12,13,14b-tetradecahydropicene-4a-carboxylic acid

> <PUBCHEM_IUPAC_SYSTEMATIC_NAME>
(4aS,6aR,6aS,6bR,8aR,10S,12aR,14bS)-10-[(2S,3S,5R)-3-[(2S,3R,4S,5S,6R)-6-(hydroxymethyl)-3,4,5-tris(oxidanyl)oxan-2-yl]oxy-5-oxidanyl-4-oxidanylidene-oxan-2-yl]oxy-2,2,6a,6b,9,9,12a-heptamethyl-1,3,4,5,6,6a,7,8,8a,10,11,12,13,14b-tetradecahydropicene-4a-carboxylic acid

> <PUBCHEM_IUPAC_TRADITIONAL_NAME>
(4aS,6aR,6aS,6bR,8aR,10S,12aR,14bS)-10-[(2S,3S,5R)-5-hydroxy-4-keto-3-[(2S,3R,4S,5S,6R)-3,4,5-trihydroxy-6-methylol-tetrahydropyran-2-yl]oxy-tetrahydropyran-2-yl]oxy-2,2,6a,6b,9,9,12a-heptamethyl-1,3,4,5,6,6a,7,8,8a,10,11,12,13,14b-tetradecahydropicene-4a-carboxylic acid

> <PUBCHEM_IUPAC_INCHI>
InChI=1S/C41H64O12/c1-36(2)14-16-41(35(48)49)17-15-39(6)21(22(41)18-36)8-9-26-38(5)12-11-27(37(3,4)25(38)10-13-40(26,39)7)52-34-32(28(44)23(43)20-50-34)53-33-31(47)30(46)29(45)24(19-42)51-33/h8,22-27,29-34,42-43,45-47H,9-20H2,1-7H3,(H,48,49)/t22-,23+,24+,25-,26+,27-,29+,30-,31+,32+,33-,34-,38-,39+,40+,41-/m0/s1

> <PUBCHEM_IUPAC_INCHIKEY>
OPTUUKHEYUERDZ-BNYPRUPSSA-N

> <PUBCHEM_XLOGP3_AA>
4.8

> <PUBCHEM_EXACT_MASS>
748.439777

> <PUBCHEM_MOLECULAR_FORMULA>
C41H64O12

> <PUBCHEM_MOLECULAR_WEIGHT>
748.93966

> <PUBCHEM_OPENEYE_CAN_SMILES>
CC1(CCC2(CCC3(C(=CCC4C3(CCC5C4(CCC(C5(C)C)OC6C(C(=O)C(CO6)O)OC7C(C(C(C(O7)CO)O)O)O)C)C)C2C1)C)C(=O)O)C

> <PUBCHEM_OPENEYE_ISO_SMILES>
C[C@]12CC[C@@H](C([C@@H]1CC[C@@]3([C@@H]2CC=C4[C@]3(CC[C@@]5([C@H]4CC(CC5)(C)C)C(=O)O)C)C)(C)C)O[C@H]6[C@@H](C(=O)[C@@H](CO6)O)O[C@H]7[C@@H]([C@H]([C@@H]([C@H](O7)CO)O)O)O

> <PUBCHEM_CACTVS_TPSA>
192

> <PUBCHEM_MONOISOTOPIC_WEIGHT>
748.439777

> <PUBCHEM_TOTAL_CHARGE>
0

> <PUBCHEM_HEAVY_ATOM_COUNT>
53

> <PUBCHEM_ATOM_DEF_STEREO_COUNT>
16

> <PUBCHEM_ATOM_UDEF_STEREO_COUNT>
0

> <PUBCHEM_BOND_DEF_STEREO_COUNT>
0

> <PUBCHEM_BOND_UDEF_STEREO_COUNT>
0

> <PUBCHEM_ISOTOPIC_ATOM_COUNT>
0

> <PUBCHEM_COMPONENT_COUNT>
1

> <PUBCHEM_CACTVS_TAUTO_COUNT>
5

> <PUBCHEM_COORDINATE_TYPE>
1
5
255

> <PUBCHEM_BONDANNOTATIONS>
28  1  5
43  1  6
50  10  6
52  11  5
13  27  5
14  54  6
15  30  5
16  33  6
17  55  6
24  64  5
26  40  5
44  5  5
48  5  6
51  53  6
47  7  5
49  9  5

$$$$

