10991
  -OEChem-06261205122D

 17 16  0     0  0  0  0  0  0999 V2000
    2.5369    0.7500    0.0000 O   0  0  0  0  0  0  0  0  0  0  0  0
    3.4030    2.2500    0.0000 O   0  0  0  0  0  0  0  0  0  0  0  0
    9.4651   -2.2500    0.0000 O   0  0  0  0  0  0  0  0  0  0  0  0
   10.3312   -0.7500    0.0000 N   0  0  0  0  0  0  0  0  0  0  0  0
    4.2690    0.7500    0.0000 C   0  0  0  0  0  0  0  0  0  0  0  0
    5.1350    1.2500    0.0000 C   0  0  0  0  0  0  0  0  0  0  0  0
    3.4030    1.2500    0.0000 C   0  0  0  0  0  0  0  0  0  0  0  0
    6.0010    0.7500    0.0000 C   0  0  0  0  0  0  0  0  0  0  0  0
    9.4651   -1.2500    0.0000 C   0  0  0  0  0  0  0  0  0  0  0  0
    6.8671    0.2500    0.0000 C   0  0  0  0  0  0  0  0  0  0  0  0
    8.5991   -0.7500    0.0000 C   0  0  0  0  0  0  0  0  0  0  0  0
    7.7331   -0.2500    0.0000 C   0  0  0  0  0  0  0  0  0  0  0  0
    4.2690    0.1300    0.0000 H   0  0  0  0  0  0  0  0  0  0  0  0
    5.1350    1.8700    0.0000 H   0  0  0  0  0  0  0  0  0  0  0  0
   10.8681   -1.0600    0.0000 H   0  0  0  0  0  0  0  0  0  0  0  0
   10.3312   -0.1300    0.0000 H   0  0  0  0  0  0  0  0  0  0  0  0
    2.0000    1.0600    0.0000 H   0  0  0  0  0  0  0  0  0  0  0  0
  1  7  1  0  0  0  0
  1 17  1  0  0  0  0
  2  7  2  0  0  0  0
  3  9  2  0  0  0  0
  4  9  1  0  0  0  0
  4 15  1  0  0  0  0
  4 16  1  0  0  0  0
  5  6  2  3  0  0  0
  5  7  1  0  0  0  0
  5 13  1  0  0  0  0
  6  8  1  0  0  0  0
  6 14  1  0  0  0  0
  8 10  3  0  0  0  0
  9 11  1  0  0  0  0
 10 12  1  0  0  0  0
 11 12  3  0  0  0  0
M  END
> <PUBCHEM_COMPOUND_CID>
10991

> <PUBCHEM_COMPOUND_CANONICALIZED>
1

> <PUBCHEM_CACTVS_COMPLEXITY>
353

> <PUBCHEM_CACTVS_HBOND_ACCEPTOR>
3

> <PUBCHEM_CACTVS_HBOND_DONOR>
2

> <PUBCHEM_CACTVS_ROTATABLE_BOND>
2

> <PUBCHEM_CACTVS_SUBSKEYS>
AAADcYByMAAAAAAAAAAAAAAAAAAAAAAAAAAAAAAAAAAAAAAAAAAAHgAQCAAACACBgAAACABAAgDIECHSGAAAAAAAAAAICAAAAEAABAAAAAAAEAAAAAAAEYAAAAAAAAAAAAAAAAAAAAAAAAAAAAAAAAAAAA==

> <PUBCHEM_IUPAC_OPENEYE_NAME>
8-amino-8-oxo-oct-2-en-4,6-diynoic acid

> <PUBCHEM_IUPAC_CAS_NAME>
8-amino-8-oxooct-2-en-4,6-diynoic acid

> <PUBCHEM_IUPAC_NAME>
8-amino-8-oxooct-2-en-4,6-diynoic acid

> <PUBCHEM_IUPAC_SYSTEMATIC_NAME>
8-azanyl-8-oxidanylidene-oct-2-en-4,6-diynoic acid

> <PUBCHEM_IUPAC_TRADITIONAL_NAME>
8-amino-8-keto-oct-2-en-4,6-diynoic acid

> <PUBCHEM_IUPAC_INCHI>
InChI=1S/C8H5NO3/c9-7(10)5-3-1-2-4-6-8(11)12/h4,6H,(H2,9,10)(H,11,12)

> <PUBCHEM_IUPAC_INCHIKEY>
OCJRAKXVNGISKJ-UHFFFAOYSA-N

> <PUBCHEM_XLOGP3_AA>
0.1

> <PUBCHEM_EXACT_MASS>
163.026943

> <PUBCHEM_MOLECULAR_FORMULA>
C8H5NO3

> <PUBCHEM_MOLECULAR_WEIGHT>
163.1302

> <PUBCHEM_OPENEYE_CAN_SMILES>
C(=CC(=O)O)C#CC#CC(=O)N

> <PUBCHEM_OPENEYE_ISO_SMILES>
C(=CC(=O)O)C#CC#CC(=O)N

> <PUBCHEM_CACTVS_TPSA>
80.4

> <PUBCHEM_MONOISOTOPIC_WEIGHT>
163.026943

> <PUBCHEM_TOTAL_CHARGE>
0

> <PUBCHEM_HEAVY_ATOM_COUNT>
12

> <PUBCHEM_ATOM_DEF_STEREO_COUNT>
0

> <PUBCHEM_ATOM_UDEF_STEREO_COUNT>
0

> <PUBCHEM_BOND_DEF_STEREO_COUNT>
0

> <PUBCHEM_BOND_UDEF_STEREO_COUNT>
1

> <PUBCHEM_ISOTOPIC_ATOM_COUNT>
0

> <PUBCHEM_COMPONENT_COUNT>
1

> <PUBCHEM_CACTVS_TAUTO_COUNT>
2

> <PUBCHEM_COORDINATE_TYPE>
1
5
255

> <PUBCHEM_BONDANNOTATIONS>
5  6  1

$$$$

