66345
  -OEChem-07051212482D

 20 20  0     0  0  0  0  0  0999 V2000
    3.7320    2.1900    0.0000 O   0  0  0  0  0  0  0  0  0  0  0  0
    2.0000    2.1900    0.0000 O   0  0  0  0  0  0  0  0  0  0  0  0
    2.8660   -2.3100    0.0000 N   0  0  0  0  0  0  0  0  0  0  0  0
    2.8660   -1.3100    0.0000 C   0  0  0  0  0  0  0  0  0  0  0  0
    2.8660    0.6900    0.0000 C   0  0  0  0  0  0  0  0  0  0  0  0
    3.7320   -0.8100    0.0000 C   0  0  0  0  0  0  0  0  0  0  0  0
    2.0000   -0.8100    0.0000 C   0  0  0  0  0  0  0  0  0  0  0  0
    3.7320    0.1900    0.0000 C   0  0  0  0  0  0  0  0  0  0  0  0
    2.0000    0.1900    0.0000 C   0  0  0  0  0  0  0  0  0  0  0  0
    2.0000   -2.8100    0.0000 C   0  0  0  0  0  0  0  0  0  0  0  0
    2.8660    1.6900    0.0000 C   0  0  0  0  0  0  0  0  0  0  0  0
    4.2690   -1.1200    0.0000 H   0  0  0  0  0  0  0  0  0  0  0  0
    1.4631   -1.1200    0.0000 H   0  0  0  0  0  0  0  0  0  0  0  0
    4.2690    0.5000    0.0000 H   0  0  0  0  0  0  0  0  0  0  0  0
    1.4631    0.5000    0.0000 H   0  0  0  0  0  0  0  0  0  0  0  0
    3.4030   -2.6200    0.0000 H   0  0  0  0  0  0  0  0  0  0  0  0
    1.6900   -2.2731    0.0000 H   0  0  0  0  0  0  0  0  0  0  0  0
    1.4631   -3.1200    0.0000 H   0  0  0  0  0  0  0  0  0  0  0  0
    2.3100   -3.3469    0.0000 H   0  0  0  0  0  0  0  0  0  0  0  0
    3.7320    2.8100    0.0000 H   0  0  0  0  0  0  0  0  0  0  0  0
  1 11  1  0  0  0  0
  1 20  1  0  0  0  0
  2 11  2  0  0  0  0
  3  4  1  0  0  0  0
  3 10  1  0  0  0  0
  3 16  1  0  0  0  0
  4  6  2  0  0  0  0
  4  7  1  0  0  0  0
  5  8  2  0  0  0  0
  5  9  1  0  0  0  0
  5 11  1  0  0  0  0
  6  8  1  0  0  0  0
  6 12  1  0  0  0  0
  7  9  2  0  0  0  0
  7 13  1  0  0  0  0
  8 14  1  0  0  0  0
  9 15  1  0  0  0  0
 10 17  1  0  0  0  0
 10 18  1  0  0  0  0
 10 19  1  0  0  0  0
M  END
> <PUBCHEM_COMPOUND_CID>
66345

> <PUBCHEM_COMPOUND_CANONICALIZED>
1

> <PUBCHEM_CACTVS_COMPLEXITY>
139

> <PUBCHEM_CACTVS_HBOND_ACCEPTOR>
3

> <PUBCHEM_CACTVS_HBOND_DONOR>
2

> <PUBCHEM_CACTVS_ROTATABLE_BOND>
2

> <PUBCHEM_CACTVS_SUBSKEYS>
AAADccByMAAAAAAAAAAAAAAAAAAAAAAAAAAwAAAAAAAAAAABAAAAHgAQCAAADAiBmAQyyILAAgCIAiTSSACCAAAlAgAIiIEIbMgIJjLAlZGEcQhk0AFI2YeY2SOeCAAAAAAAAAAQAAAAAAAAAAAAAAAAAA==

> <PUBCHEM_IUPAC_OPENEYE_NAME>
4-(methylamino)benzoic acid

> <PUBCHEM_IUPAC_CAS_NAME>
4-(methylamino)benzoic acid

> <PUBCHEM_IUPAC_NAME>
4-(methylamino)benzoic acid

> <PUBCHEM_IUPAC_SYSTEMATIC_NAME>
4-(methylamino)benzoic acid

> <PUBCHEM_IUPAC_TRADITIONAL_NAME>
4-(methylamino)benzoic acid

> <PUBCHEM_IUPAC_INCHI>
InChI=1S/C8H9NO2/c1-9-7-4-2-6(3-5-7)8(10)11/h2-5,9H,1H3,(H,10,11)

> <PUBCHEM_IUPAC_INCHIKEY>
ZVIDMSBTYRSMAR-UHFFFAOYSA-N

> <PUBCHEM_XLOGP3>
2.2

> <PUBCHEM_EXACT_MASS>
151.063329

> <PUBCHEM_MOLECULAR_FORMULA>
C8H9NO2

> <PUBCHEM_MOLECULAR_WEIGHT>
151.16256

> <PUBCHEM_OPENEYE_CAN_SMILES>
CNC1=CC=C(C=C1)C(=O)O

> <PUBCHEM_OPENEYE_ISO_SMILES>
CNC1=CC=C(C=C1)C(=O)O

> <PUBCHEM_CACTVS_TPSA>
49.3

> <PUBCHEM_MONOISOTOPIC_WEIGHT>
151.063329

> <PUBCHEM_TOTAL_CHARGE>
0

> <PUBCHEM_HEAVY_ATOM_COUNT>
11

> <PUBCHEM_ATOM_DEF_STEREO_COUNT>
0

> <PUBCHEM_ATOM_UDEF_STEREO_COUNT>
0

> <PUBCHEM_BOND_DEF_STEREO_COUNT>
0

> <PUBCHEM_BOND_UDEF_STEREO_COUNT>
0

> <PUBCHEM_ISOTOPIC_ATOM_COUNT>
0

> <PUBCHEM_COMPONENT_COUNT>
1

> <PUBCHEM_CACTVS_TAUTO_COUNT>
3

> <PUBCHEM_COORDINATE_TYPE>
1
5
255

> <PUBCHEM_BONDANNOTATIONS>
4  6  8
4  7  8
5  8  8
5  9  8
6  8  8
7  9  8

$$$$

