10239
  -OEChem-06261204233D

 31 33  0     0  0  0  0  0  0999 V2000
   -0.7459    2.2330   -0.0388 O   0  0  0  0  0  0  0  0  0  0  0  0
    2.2991    2.7039    1.2049 O   0  0  0  0  0  0  0  0  0  0  0  0
    2.3940    2.8443   -1.0617 O   0  0  0  0  0  0  0  0  0  0  0  0
   -0.1833   -1.3704    0.0043 N   0  0  0  0  0  0  0  0  0  0  0  0
    1.9518   -0.2530   -0.0163 C   0  0  0  0  0  0  0  0  0  0  0  0
    1.2965    0.9856   -0.0299 C   0  0  0  0  0  0  0  0  0  0  0  0
   -0.7768   -0.1550   -0.0092 C   0  0  0  0  0  0  0  0  0  0  0  0
    1.1622   -1.4219    0.0008 C   0  0  0  0  0  0  0  0  0  0  0  0
   -0.0898    1.0419   -0.0262 C   0  0  0  0  0  0  0  0  0  0  0  0
   -2.2217   -0.2056   -0.0029 C   0  0  0  0  0  0  0  0  0  0  0  0
    3.3541   -0.3439   -0.0196 C   0  0  0  0  0  0  0  0  0  0  0  0
    1.8137   -2.6521    0.0142 C   0  0  0  0  0  0  0  0  0  0  0  0
    3.9792   -1.5875   -0.0060 C   0  0  0  0  0  0  0  0  0  0  0  0
    3.2078   -2.7428    0.0109 C   0  0  0  0  0  0  0  0  0  0  0  0
   -2.9248   -0.2446   -1.2077 C   0  0  0  0  0  0  0  0  0  0  0  0
   -2.9150   -0.2158    1.2080 C   0  0  0  0  0  0  0  0  0  0  0  0
    2.0376    2.2463   -0.0469 C   0  0  0  0  0  0  0  0  0  0  0  0
   -4.3188   -0.2935   -1.2016 C   0  0  0  0  0  0  0  0  0  0  0  0
   -4.3090   -0.2648    1.2142 C   0  0  0  0  0  0  0  0  0  0  0  0
   -5.0109   -0.3038    0.0094 C   0  0  0  0  0  0  0  0  0  0  0  0
    3.9851    0.5412   -0.0330 H   0  0  0  0  0  0  0  0  0  0  0  0
    1.2319   -3.5720    0.0276 H   0  0  0  0  0  0  0  0  0  0  0  0
    5.0629   -1.6542   -0.0086 H   0  0  0  0  0  0  0  0  0  0  0  0
    3.6872   -3.7173    0.0216 H   0  0  0  0  0  0  0  0  0  0  0  0
   -2.4004   -0.2376   -2.1603 H   0  0  0  0  0  0  0  0  0  0  0  0
   -2.3829   -0.1862    2.1561 H   0  0  0  0  0  0  0  0  0  0  0  0
   -4.8654   -0.3239   -2.1396 H   0  0  0  0  0  0  0  0  0  0  0  0
   -4.8480   -0.2728    2.1571 H   0  0  0  0  0  0  0  0  0  0  0  0
   -6.0962   -0.3420    0.0142 H   0  0  0  0  0  0  0  0  0  0  0  0
   -0.1217    2.9758   -0.0488 H   0  0  0  0  0  0  0  0  0  0  0  0
    2.7962    3.5494    1.1887 H   0  0  0  0  0  0  0  0  0  0  0  0
  1  9  1  0  0  0  0
  1 30  1  0  0  0  0
  2 17  1  0  0  0  0
  2 31  1  0  0  0  0
  3 17  2  0  0  0  0
  4  7  2  0  0  0  0
  4  8  1  0  0  0  0
  5  6  1  0  0  0  0
  5  8  1  0  0  0  0
  5 11  2  0  0  0  0
  6  9  2  0  0  0  0
  6 17  1  0  0  0  0
  7  9  1  0  0  0  0
  7 10  1  0  0  0  0
  8 12  2  0  0  0  0
 10 15  2  0  0  0  0
 10 16  1  0  0  0  0
 11 13  1  0  0  0  0
 11 21  1  0  0  0  0
 12 14  1  0  0  0  0
 12 22  1  0  0  0  0
 13 14  2  0  0  0  0
 13 23  1  0  0  0  0
 14 24  1  0  0  0  0
 15 18  1  0  0  0  0
 15 25  1  0  0  0  0
 16 19  2  0  0  0  0
 16 26  1  0  0  0  0
 18 20  2  0  0  0  0
 18 27  1  0  0  0  0
 19 20  1  0  0  0  0
 19 28  1  0  0  0  0
 20 29  1  0  0  0  0
M  END
> <PUBCHEM_COMPOUND_CID>
10239

> <PUBCHEM_CONFORMER_RMSD>
0.6

> <PUBCHEM_CONFORMER_DIVERSEORDER>
1
2
3

> <PUBCHEM_MMFF94_PARTIAL_CHARGES>
29
1 -0.53
11 -0.15
12 -0.15
13 -0.15
14 -0.15
15 -0.15
16 -0.15
17 0.63
18 -0.15
19 -0.15
2 -0.65
20 -0.15
21 0.15
22 0.15
23 0.15
24 0.15
25 0.15
26 0.15
27 0.15
28 0.15
29 0.15
3 -0.57
30 0.45
31 0.5
4 -0.62
6 0.09
7 0.31
8 0.31
9 0.08

> <PUBCHEM_EFFECTIVE_ROTOR_COUNT>
2

> <PUBCHEM_PHARMACOPHORE_FEATURES>
8
1 1 donor
1 2 acceptor
1 3 acceptor
1 4 acceptor
3 2 3 17 anion
6 10 15 16 18 19 20 rings
6 4 5 6 7 8 9 rings
6 5 8 11 12 13 14 rings

> <PUBCHEM_HEAVY_ATOM_COUNT>
20

> <PUBCHEM_ATOM_DEF_STEREO_COUNT>
0

> <PUBCHEM_ATOM_UDEF_STEREO_COUNT>
0

> <PUBCHEM_BOND_DEF_STEREO_COUNT>
0

> <PUBCHEM_BOND_UDEF_STEREO_COUNT>
0

> <PUBCHEM_ISOTOPIC_ATOM_COUNT>
0

> <PUBCHEM_COMPONENT_COUNT>
1

> <PUBCHEM_CACTVS_TAUTO_COUNT>
4

> <PUBCHEM_CONFORMER_ID>
000027FF00000001

> <PUBCHEM_MMFF94_ENERGY>
73.0622

> <PUBCHEM_FEATURE_SELFOVERLAP>
40.684

> <PUBCHEM_SHAPE_FINGERPRINT>
10411042 1 18122625213253568334
10967382 1 18410855439117600950
11471102 20 18412263934602652606
11796584 16 16630250319555849882
12236239 1 17749109998275535815
12553582 1 18336546126644039414
12707595 3 18200877382376161027
13009979 54 17749661974176222019
13134695 92 18411425050338445366
13140716 1 18266463101076204250
13533116 47 18335698309343540187
13544653 18 18268989958821670662
13862211 1 18338802320631462826
14178342 30 17901679167315219025
14347332 77 17903347458112244342
14790565 3 18123457290174135180
15042514 8 17546163464232382546
16945 1 18410855469029534134
17357779 13 18271817877126909509
17818456 19 17533204508908740033
1813 80 18043518611288052782
18186145 218 18337103458753474125
18222031 100 18260835954936448070
18785283 64 18129374913151086028
19591789 44 17692516824422568076
19784866 34 18120372047276234121
200 152 18261118508413796807
20645477 70 18343027661921879487
21029758 11 18337677524245631674
21041028 32 18263637523264118624
21065201 7 16702304551203706867
21267235 1 18337382863809668718
21641784 216 17986087816745850876
22112679 90 17385724686381465809
221490 88 18342174500806688933
22182313 1 18199489768959020124
2255824 54 18408318861318064982
23175994 123 18271519922498113071
2334 1 17978510828320194430
23402539 116 18192719057975384526
23559900 14 18202001014523972697
2748010 2 18052247406699573894
3091708 16 9286935362840189408
312423 11 18187914089303821337
458136 41 18197203763761798276
474 4 18191030010214010520
5104073 3 18048887587308117610
5895379 119 15430576438058355385
602551 16 15141257485529515935
6049 1 17989208161714713325
7364860 26 18335986393842194592
7471813 234 17968391120745378993
7495541 125 17988915661077250051
7615 1 17894910733181254329
77492 1 17748825203167630159
81228 2 17545597215991711906
8272917 22 18410288099549302333
84936 182 17896886451943654881
9709674 26 18272651221384549107
9971528 1 18187086187002282562
9981440 41 17540274046141154272

> <PUBCHEM_SHAPE_MULTIPOLES>
389
8.27
2.85
1
7.47
1.21
-0.02
-2.91
-0.01
-4.24
0
0.89
0.17
-0.01

> <PUBCHEM_SHAPE_SELFOVERLAP>
874.632

> <PUBCHEM_SHAPE_VOLUME>
204.6

> <PUBCHEM_COORDINATE_TYPE>
2
5
10

$$$$

