5281780
  -OEChem-07051212592D

 61 63  0     1  0  0  0  0  0999 V2000
    8.0622    1.7890    0.0000 O   0  0  0  0  0  0  0  0  0  0  0  0
    9.7942    0.7890    0.0000 O   0  0  0  0  0  0  0  0  0  0  0  0
    9.2942    4.6550    0.0000 O   0  0  0  0  0  0  0  0  0  0  0  0
   11.5263    1.7890    0.0000 O   0  0  0  0  0  0  0  0  0  0  0  0
   11.2942    4.6550    0.0000 O   0  0  0  0  0  0  0  0  0  0  0  0
    9.7942    5.5210    0.0000 O   0  0  0  0  0  0  0  0  0  0  0  0
    7.1962    3.2890    0.0000 O   0  0  0  0  0  0  0  0  0  0  0  0
    8.0622    0.7890    0.0000 O   0  0  0  0  0  0  0  0  0  0  0  0
    2.0000    2.2890    0.0000 O   0  0  0  0  0  0  0  0  0  0  0  0
    6.3301   -4.2110    0.0000 O   0  0  0  0  0  0  0  0  0  0  0  0
    2.0000    0.2890    0.0000 O   0  0  0  0  0  0  0  0  0  0  0  0
    8.0622   -5.2110    0.0000 O   0  0  0  0  0  0  0  0  0  0  0  0
    9.7942    3.7890    0.0000 C   0  0  2  0  0  0  0  0  0  0  0  0
    8.9282    2.2890    0.0000 C   0  0  1  0  0  0  0  0  0  0  0  0
    9.7942    1.7890    0.0000 C   0  0  1  0  0  0  0  0  0  0  0  0
    8.9282    3.2890    0.0000 C   0  0  0  0  0  0  0  0  0  0  0  0
   10.6603    2.2890    0.0000 C   0  0  1  0  0  0  0  0  0  0  0  0
   10.6603    3.2890    0.0000 C   0  0  0  0  0  0  0  0  0  0  0  0
   10.2942    4.6550    0.0000 C   0  0  0  0  0  0  0  0  0  0  0  0
    7.1962    2.2890    0.0000 C   0  0  0  0  0  0  0  0  0  0  0  0
    8.9282    0.2890    0.0000 C   0  0  0  0  0  0  0  0  0  0  0  0
    6.3301    1.7890    0.0000 C   0  0  0  0  0  0  0  0  0  0  0  0
    8.9282   -0.7110    0.0000 C   0  0  0  0  0  0  0  0  0  0  0  0
    5.4641    2.2890    0.0000 C   0  0  0  0  0  0  0  0  0  0  0  0
    8.0622   -1.2110    0.0000 C   0  0  0  0  0  0  0  0  0  0  0  0
    4.5981    1.7890    0.0000 C   0  0  0  0  0  0  0  0  0  0  0  0
    8.0622   -2.2110    0.0000 C   0  0  0  0  0  0  0  0  0  0  0  0
    3.7320    2.2890    0.0000 C   0  0  0  0  0  0  0  0  0  0  0  0
    7.1962   -2.7110    0.0000 C   0  0  0  0  0  0  0  0  0  0  0  0
    4.5981    0.7890    0.0000 C   0  0  0  0  0  0  0  0  0  0  0  0
    8.9282   -2.7110    0.0000 C   0  0  0  0  0  0  0  0  0  0  0  0
    2.8660    1.7890    0.0000 C   0  0  0  0  0  0  0  0  0  0  0  0
    7.1962   -3.7110    0.0000 C   0  0  0  0  0  0  0  0  0  0  0  0
    3.7320    0.2890    0.0000 C   0  0  0  0  0  0  0  0  0  0  0  0
    8.9282   -3.7110    0.0000 C   0  0  0  0  0  0  0  0  0  0  0  0
    2.8660    0.7890    0.0000 C   0  0  0  0  0  0  0  0  0  0  0  0
    8.0622   -4.2110    0.0000 C   0  0  0  0  0  0  0  0  0  0  0  0
    8.9282    1.6690    0.0000 H   0  0  0  0  0  0  0  0  0  0  0  0
    9.2573    1.4790    0.0000 H   0  0  0  0  0  0  0  0  0  0  0  0
    8.7162    3.8716    0.0000 H   0  0  0  0  0  0  0  0  0  0  0  0
    8.3176    3.1813    0.0000 H   0  0  0  0  0  0  0  0  0  0  0  0
   10.6603    1.6690    0.0000 H   0  0  0  0  0  0  0  0  0  0  0  0
   11.2708    3.1813    0.0000 H   0  0  0  0  0  0  0  0  0  0  0  0
   10.8723    3.8716    0.0000 H   0  0  0  0  0  0  0  0  0  0  0  0
    8.6742    4.6550    0.0000 H   0  0  0  0  0  0  0  0  0  0  0  0
   12.0632    2.0990    0.0000 H   0  0  0  0  0  0  0  0  0  0  0  0
   11.6042    5.1919    0.0000 H   0  0  0  0  0  0  0  0  0  0  0  0
    6.3301    1.1690    0.0000 H   0  0  0  0  0  0  0  0  0  0  0  0
    9.4651   -1.0210    0.0000 H   0  0  0  0  0  0  0  0  0  0  0  0
    5.4641    2.9090    0.0000 H   0  0  0  0  0  0  0  0  0  0  0  0
    7.5252   -0.9010    0.0000 H   0  0  0  0  0  0  0  0  0  0  0  0
    3.7320    2.9090    0.0000 H   0  0  0  0  0  0  0  0  0  0  0  0
    6.6592   -2.4010    0.0000 H   0  0  0  0  0  0  0  0  0  0  0  0
    5.1350    0.4790    0.0000 H   0  0  0  0  0  0  0  0  0  0  0  0
    9.4651   -2.4010    0.0000 H   0  0  0  0  0  0  0  0  0  0  0  0
    3.7320   -0.3310    0.0000 H   0  0  0  0  0  0  0  0  0  0  0  0
    9.4651   -4.0210    0.0000 H   0  0  0  0  0  0  0  0  0  0  0  0
    2.0000    2.9090    0.0000 H   0  0  0  0  0  0  0  0  0  0  0  0
    6.3301   -4.8310    0.0000 H   0  0  0  0  0  0  0  0  0  0  0  0
    2.0000   -0.3310    0.0000 H   0  0  0  0  0  0  0  0  0  0  0  0
    8.5991   -5.5210    0.0000 H   0  0  0  0  0  0  0  0  0  0  0  0
 14  1  1  6  0  0  0
  1 20  1  0  0  0  0
 15  2  1  1  0  0  0
  2 21  1  0  0  0  0
 13  3  1  1  0  0  0
  3 45  1  0  0  0  0
 17  4  1  1  0  0  0
  4 46  1  0  0  0  0
  5 19  1  0  0  0  0
  5 47  1  0  0  0  0
  6 19  2  0  0  0  0
  7 20  2  0  0  0  0
  8 21  2  0  0  0  0
  9 32  1  0  0  0  0
  9 58  1  0  0  0  0
 10 33  1  0  0  0  0
 10 59  1  0  0  0  0
 11 36  1  0  0  0  0
 11 60  1  0  0  0  0
 12 37  1  0  0  0  0
 12 61  1  0  0  0  0
 13 16  1  0  0  0  0
 13 18  1  0  0  0  0
 13 19  1  0  0  0  0
 14 15  1  0  0  0  0
 14 16  1  0  0  0  0
 14 38  1  0  0  0  0
 15 17  1  0  0  0  0
 15 39  1  0  0  0  0
 16 40  1  0  0  0  0
 16 41  1  0  0  0  0
 17 18  1  0  0  0  0
 17 42  1  0  0  0  0
 18 43  1  0  0  0  0
 18 44  1  0  0  0  0
 20 22  1  0  0  0  0
 21 23  1  0  0  0  0
 22 24  2  0  0  0  0
 22 48  1  0  0  0  0
 23 25  2  0  0  0  0
 23 49  1  0  0  0  0
 24 26  1  0  0  0  0
 24 50  1  0  0  0  0
 25 27  1  0  0  0  0
 25 51  1  0  0  0  0
 26 28  2  0  0  0  0
 26 30  1  0  0  0  0
 27 29  2  0  0  0  0
 27 31  1  0  0  0  0
 28 32  1  0  0  0  0
 28 52  1  0  0  0  0
 29 33  1  0  0  0  0
 29 53  1  0  0  0  0
 30 34  2  0  0  0  0
 30 54  1  0  0  0  0
 31 35  2  0  0  0  0
 31 55  1  0  0  0  0
 32 36  2  0  0  0  0
 33 37  2  0  0  0  0
 34 36  1  0  0  0  0
 34 56  1  0  0  0  0
 35 37  1  0  0  0  0
 35 57  1  0  0  0  0
M  END
> <PUBCHEM_COMPOUND_CID>
5281780

> <PUBCHEM_COMPOUND_CANONICALIZED>
1

> <PUBCHEM_CACTVS_COMPLEXITY>
887

> <PUBCHEM_CACTVS_HBOND_ACCEPTOR>
12

> <PUBCHEM_CACTVS_HBOND_DONOR>
7

> <PUBCHEM_CACTVS_ROTATABLE_BOND>
9

> <PUBCHEM_CACTVS_SUBSKEYS>
AAADceB4PAAAAAAAAAAAAAAAAAAAAAAAAAAwYMAAAAAAAAABQAAAGgAACAAADFSgmAIwDoAABgCIAiDSCAICAAAgIAAIiAFGiMgJNjKCMRKCcAElwBELuYfK7DzOIAABAAAAQABCAAIQAACAAAAAAAAAAA==

> <PUBCHEM_IUPAC_OPENEYE_NAME>
(1S,3R,4R,5R)-3,4-bis[[(E)-3-(3,4-dihydroxyphenyl)prop-2-enoyl]oxy]-1,5-dihydroxy-cyclohexanecarboxylic acid

> <PUBCHEM_IUPAC_CAS_NAME>
(1S,3R,4R,5R)-3,4-bis[(E)-3-(3,4-dihydroxyphenyl)-1-oxoprop-2-enoxy]-1,5-dihydroxy-1-cyclohexanecarboxylic acid

> <PUBCHEM_IUPAC_NAME>
(1S,3R,4R,5R)-3,4-bis[[(E)-3-(3,4-dihydroxyphenyl)prop-2-enoyl]oxy]-1,5-dihydroxycyclohexane-1-carboxylic acid

> <PUBCHEM_IUPAC_SYSTEMATIC_NAME>
(1S,3R,4R,5R)-3,4-bis[[(E)-3-[3,4-bis(oxidanyl)phenyl]prop-2-enoyl]oxy]-1,5-bis(oxidanyl)cyclohexane-1-carboxylic acid

> <PUBCHEM_IUPAC_TRADITIONAL_NAME>
(1S,3R,4R,5R)-3,4-bis[[(E)-3-(3,4-dihydroxyphenyl)acryloyl]oxy]-1,5-dihydroxy-cyclohexanecarboxylic acid

> <PUBCHEM_IUPAC_INCHI>
InChI=1S/C25H24O12/c26-15-5-1-13(9-17(15)28)3-7-21(31)36-20-12-25(35,24(33)34)11-19(30)23(20)37-22(32)8-4-14-2-6-16(27)18(29)10-14/h1-10,19-20,23,26-30,35H,11-12H2,(H,33,34)/b7-3+,8-4+/t19-,20-,23-,25+/m1/s1

> <PUBCHEM_IUPAC_INCHIKEY>
UFCLZKMFXSILNL-PSEXTPKNSA-N

> <PUBCHEM_XLOGP3_AA>
1.5

> <PUBCHEM_EXACT_MASS>
516.126776

> <PUBCHEM_MOLECULAR_FORMULA>
C25H24O12

> <PUBCHEM_MOLECULAR_WEIGHT>
516.45086

> <PUBCHEM_OPENEYE_CAN_SMILES>
C1C(C(C(CC1(C(=O)O)O)OC(=O)C=CC2=CC(=C(C=C2)O)O)OC(=O)C=CC3=CC(=C(C=C3)O)O)O

> <PUBCHEM_OPENEYE_ISO_SMILES>
C1[C@H]([C@H]([C@@H](C[C@@]1(C(=O)O)O)OC(=O)/C=C/C2=CC(=C(C=C2)O)O)OC(=O)/C=C/C3=CC(=C(C=C3)O)O)O

> <PUBCHEM_CACTVS_TPSA>
211

> <PUBCHEM_MONOISOTOPIC_WEIGHT>
516.126776

> <PUBCHEM_TOTAL_CHARGE>
0

> <PUBCHEM_HEAVY_ATOM_COUNT>
37

> <PUBCHEM_ATOM_DEF_STEREO_COUNT>
4

> <PUBCHEM_ATOM_UDEF_STEREO_COUNT>
0

> <PUBCHEM_BOND_DEF_STEREO_COUNT>
2

> <PUBCHEM_BOND_UDEF_STEREO_COUNT>
0

> <PUBCHEM_ISOTOPIC_ATOM_COUNT>
0

> <PUBCHEM_COMPONENT_COUNT>
1

> <PUBCHEM_CACTVS_TAUTO_COUNT>
256

> <PUBCHEM_COORDINATE_TYPE>
1
5
255

> <PUBCHEM_BONDANNOTATIONS>
14  1  6
15  2  5
26  28  8
26  30  8
27  29  8
27  31  8
28  32  8
29  33  8
13  3  5
30  34  8
31  35  8
32  36  8
33  37  8
34  36  8
35  37  8
17  4  5

$$$$

