117
  -OEChem-07051212503D

 14 14  0     0  0  0  0  0  0999 V2000
   -2.2474    1.1991    0.0007 O   0  0  0  0  0  0  0  0  0  0  0  0
   -2.1592   -1.0721   -0.0002 O   0  0  0  0  0  0  0  0  0  0  0  0
    0.5007    1.4086   -0.0003 N   0  0  0  0  0  0  0  0  0  0  0  0
    2.1134   -0.1182    0.0002 N   0  0  0  0  0  0  0  0  0  0  0  0
    0.7394   -2.0732    0.0005 N   0  0  0  0  0  0  0  0  0  0  0  0
   -0.1311    0.1971   -0.0004 C   0  0  0  0  0  0  0  0  0  0  0  0
    0.8846   -0.7297   -0.0003 C   0  0  0  0  0  0  0  0  0  0  0  0
    1.8467    1.1690    0.0001 C   0  0  0  0  0  0  0  0  0  0  0  0
   -1.5471    0.0193   -0.0004 C   0  0  0  0  0  0  0  0  0  0  0  0
    0.0568    2.3175   -0.0004 H   0  0  0  0  0  0  0  0  0  0  0  0
    2.5724    1.9696    0.0004 H   0  0  0  0  0  0  0  0  0  0  0  0
    1.5377   -2.7004    0.0009 H   0  0  0  0  0  0  0  0  0  0  0  0
   -0.1674   -2.5303    0.0005 H   0  0  0  0  0  0  0  0  0  0  0  0
   -3.2161    1.0445    0.0012 H   0  0  0  0  0  0  0  0  0  0  0  0
  1  9  1  0  0  0  0
  1 14  1  0  0  0  0
  2  9  2  0  0  0  0
  3  6  1  0  0  0  0
  3  8  1  0  0  0  0
  3 10  1  0  0  0  0
  4  7  1  0  0  0  0
  4  8  2  0  0  0  0
  5  7  1  0  0  0  0
  5 12  1  0  0  0  0
  5 13  1  0  0  0  0
  6  7  2  0  0  0  0
  6  9  1  0  0  0  0
  8 11  1  0  0  0  0
M  END
> <PUBCHEM_COMPOUND_CID>
117

> <PUBCHEM_CONFORMER_RMSD>
0.4

> <PUBCHEM_CONFORMER_DIVERSEORDER>
1
2

> <PUBCHEM_MMFF94_PARTIAL_CHARGES>
14
1 -0.65
10 0.27
11 0.15
12 0.4
13 0.4
14 0.5
2 -0.57
3 0.03
4 -0.57
5 -0.88
6 -0.24
7 0.31
8 0.04
9 0.81

> <PUBCHEM_EFFECTIVE_ROTOR_COUNT>
1

> <PUBCHEM_PHARMACOPHORE_FEATURES>
8
1 1 acceptor
1 2 acceptor
1 3 donor
1 5 cation
1 5 donor
3 1 2 9 anion
3 3 4 8 cation
5 3 4 6 7 8 rings

> <PUBCHEM_HEAVY_ATOM_COUNT>
9

> <PUBCHEM_ATOM_DEF_STEREO_COUNT>
0

> <PUBCHEM_ATOM_UDEF_STEREO_COUNT>
0

> <PUBCHEM_BOND_DEF_STEREO_COUNT>
0

> <PUBCHEM_BOND_UDEF_STEREO_COUNT>
0

> <PUBCHEM_ISOTOPIC_ATOM_COUNT>
0

> <PUBCHEM_COMPONENT_COUNT>
1

> <PUBCHEM_CACTVS_TAUTO_COUNT>
5

> <PUBCHEM_CONFORMER_ID>
0000007500000001

> <PUBCHEM_MMFF94_ENERGY>
7.846

> <PUBCHEM_FEATURE_SELFOVERLAP>
40.653

> <PUBCHEM_SHAPE_FINGERPRINT>
12897270 3 18339083679311000255
18185500 45 18336265755304637939
21040471 1 18266741277396588452
23552423 10 18342170111271036606
29004967 10 18341326785852422072
5084963 1 18114738214087688856

> <PUBCHEM_SHAPE_MULTIPOLES>
158.53
2.84
1.67
0.56
0.87
0.47
0
-0.43
0
-0.17
0
-0.02
-0.01
0

> <PUBCHEM_SHAPE_SELFOVERLAP>
334.022

> <PUBCHEM_SHAPE_VOLUME>
91.6

> <PUBCHEM_COORDINATE_TYPE>
2
5
10

$$$$

