17132
  -OEChem-07051213053D

 31 31  0     0  0  0  0  0  0999 V2000
   -4.9796    0.0760    0.9379 O   0  0  0  0  0  0  0  0  0  0  0  0
    2.7270   -0.0886   -0.6210 C   0  0  0  0  0  0  0  0  0  0  0  0
    1.3115   -0.0072   -0.0463 C   0  0  0  0  0  0  0  0  0  0  0  0
    3.7818    0.0250    0.4808 C   0  0  0  0  0  0  0  0  0  0  0  0
    0.2579   -0.0870   -1.1532 C   0  0  0  0  0  0  0  0  0  0  0  0
    5.1963   -0.0228   -0.0963 C   0  0  0  0  0  0  0  0  0  0  0  0
   -1.1412   -0.0434   -0.5944 C   0  0  0  0  0  0  0  0  0  0  0  0
    6.2471    0.1240    0.9924 C   0  0  0  0  0  0  0  0  0  0  0  0
   -1.7758   -1.2282   -0.2530 C   0  0  0  0  0  0  0  0  0  0  0  0
   -1.7716    1.1811   -0.4308 C   0  0  0  0  0  0  0  0  0  0  0  0
   -3.0707   -1.1878    0.2639 C   0  0  0  0  0  0  0  0  0  0  0  0
   -3.0665    1.2217    0.0863 C   0  0  0  0  0  0  0  0  0  0  0  0
   -3.7161    0.0371    0.4337 C   0  0  0  0  0  0  0  0  0  0  0  0
    2.8538   -1.0377   -1.1558 H   0  0  0  0  0  0  0  0  0  0  0  0
    2.8720    0.7166   -1.3515 H   0  0  0  0  0  0  0  0  0  0  0  0
    1.1937    0.9308    0.5112 H   0  0  0  0  0  0  0  0  0  0  0  0
    1.1623   -0.8226    0.6728 H   0  0  0  0  0  0  0  0  0  0  0  0
    3.6503   -0.7903    1.2026 H   0  0  0  0  0  0  0  0  0  0  0  0
    3.6410    0.9658    1.0270 H   0  0  0  0  0  0  0  0  0  0  0  0
    0.3957    0.7367   -1.8654 H   0  0  0  0  0  0  0  0  0  0  0  0
    0.3908   -1.0084   -1.7349 H   0  0  0  0  0  0  0  0  0  0  0  0
    5.3516   -0.9718   -0.6226 H   0  0  0  0  0  0  0  0  0  0  0  0
    5.3268    0.7807   -0.8306 H   0  0  0  0  0  0  0  0  0  0  0  0
    7.2509    0.0857    0.5579 H   0  0  0  0  0  0  0  0  0  0  0  0
    6.1396    1.0797    1.5154 H   0  0  0  0  0  0  0  0  0  0  0  0
    6.1644   -0.6821    1.7285 H   0  0  0  0  0  0  0  0  0  0  0  0
   -1.2810   -2.1869   -0.3796 H   0  0  0  0  0  0  0  0  0  0  0  0
   -1.2732    2.1090   -0.6966 H   0  0  0  0  0  0  0  0  0  0  0  0
   -3.5713   -2.1139    0.5331 H   0  0  0  0  0  0  0  0  0  0  0  0
   -3.5581    2.1824    0.2139 H   0  0  0  0  0  0  0  0  0  0  0  0
   -5.2708    1.0028    0.9870 H   0  0  0  0  0  0  0  0  0  0  0  0
  1 13  1  0  0  0  0
  1 31  1  0  0  0  0
  2  3  1  0  0  0  0
  2  4  1  0  0  0  0
  2 14  1  0  0  0  0
  2 15  1  0  0  0  0
  3  5  1  0  0  0  0
  3 16  1  0  0  0  0
  3 17  1  0  0  0  0
  4  6  1  0  0  0  0
  4 18  1  0  0  0  0
  4 19  1  0  0  0  0
  5  7  1  0  0  0  0
  5 20  1  0  0  0  0
  5 21  1  0  0  0  0
  6  8  1  0  0  0  0
  6 22  1  0  0  0  0
  6 23  1  0  0  0  0
  7  9  2  0  0  0  0
  7 10  1  0  0  0  0
  8 24  1  0  0  0  0
  8 25  1  0  0  0  0
  8 26  1  0  0  0  0
  9 11  1  0  0  0  0
  9 27  1  0  0  0  0
 10 12  2  0  0  0  0
 10 28  1  0  0  0  0
 11 13  2  0  0  0  0
 11 29  1  0  0  0  0
 12 13  1  0  0  0  0
 12 30  1  0  0  0  0
M  END
> <PUBCHEM_COMPOUND_CID>
17132

> <PUBCHEM_CONFORMER_RMSD>
0.6

> <PUBCHEM_CONFORMER_DIVERSEORDER>
1
18
20
3
8
14
22
24
19
21
26
30
12
6
17
27
25
4
23
15
13
5
32
9
28
7
11
16
31
10
29
2

> <PUBCHEM_MMFF94_PARTIAL_CHARGES>
13
1 -0.53
10 -0.15
11 -0.15
12 -0.15
13 0.08
27 0.15
28 0.15
29 0.15
30 0.15
31 0.45
5 0.14
7 -0.14
9 -0.15

> <PUBCHEM_EFFECTIVE_ROTOR_COUNT>
5

> <PUBCHEM_PHARMACOPHORE_FEATURES>
4
1 1 donor
1 8 hydrophobe
5 2 3 4 5 6 hydrophobe
6 7 9 10 11 12 13 rings

> <PUBCHEM_HEAVY_ATOM_COUNT>
13

> <PUBCHEM_ATOM_DEF_STEREO_COUNT>
0

> <PUBCHEM_ATOM_UDEF_STEREO_COUNT>
0

> <PUBCHEM_BOND_DEF_STEREO_COUNT>
0

> <PUBCHEM_BOND_UDEF_STEREO_COUNT>
0

> <PUBCHEM_ISOTOPIC_ATOM_COUNT>
0

> <PUBCHEM_COMPONENT_COUNT>
1

> <PUBCHEM_CACTVS_TAUTO_COUNT>
2

> <PUBCHEM_CONFORMER_ID>
000042EC00000001

> <PUBCHEM_MMFF94_ENERGY>
16.7738

> <PUBCHEM_FEATURE_SELFOVERLAP>
20.297

> <PUBCHEM_SHAPE_FINGERPRINT>
10014705 185 15140970530279750490
100836 57 16008746901284341408
114248 4 10447928365116056190
12251169 10 18412823577378365773
12507560 40 18263641921473887302
13214271 11 16805322184860719525
13288520 33 14549017680584190179
14123238 8 18273214197149621318
1420 363 15339120152541100344
14251718 22 9943802296966258002
15242439 84 10087638195903135070
15501527 16 17821451244664403400
17834072 33 17704067370503585532
17834076 25 14923945648298075320
1813 80 16486684874878322382
187816 3 9223230737073858071
19050596 39 18343580707728052716
200 152 14836125450726090516
20432913 95 16343704361279618944
20645464 45 17967808349686438583
20645476 183 5906042621996480685
20645477 56 17749111088753987676
20645477 70 12894805761332798800
20767249 213 16153427242178134819
20828058 44 18343022185949314374
20871999 31 9439410107667824519
21119208 17 7781513711427861222
21637258 2 16343416199175952763
2297311 6 18338504322809485276
23402539 116 18408328778740267717
23402655 69 6050452487551252250
23403322 49 12823300104318947048
26918003 58 17060335215088527433
351380 3 16415483757527444754
42 15 18201719557265188470
449060 50 18186519917070523844

> <PUBCHEM_SHAPE_MULTIPOLES>
261.66
12.2
1.07
0.96
16.08
0
-0.03
0.39
4.89
-1.12
-0.02
0.19
0
0.1

> <PUBCHEM_SHAPE_SELFOVERLAP>
518.48

> <PUBCHEM_SHAPE_VOLUME>
156.8

> <PUBCHEM_COORDINATE_TYPE>
2
5
10

$$$$

