189479
  -OEChem-07051213152D

113114  0     1  0  0  0  0  0999 V2000
   17.1382    4.0462    0.0000 O   0  0  0  0  0  0  0  0  0  0  0  0
    7.5707    8.2252    0.0000 O   0  0  0  0  0  0  0  0  0  0  0  0
   18.5669   -2.7331    0.0000 O   0  0  0  0  0  0  0  0  0  0  0  0
   16.6564   -5.7909    0.0000 O   0  0  0  0  0  0  0  0  0  0  0  0
   12.8871   -5.0080    0.0000 O   0  0  0  0  0  0  0  0  0  0  0  0
   19.2347   -3.4774    0.0000 O   0  0  0  0  0  0  0  0  0  0  0  0
   11.2206    5.4542    0.0000 N   0  0  3  0  0  0  0  0  0  0  0  0
   15.8490    2.8895    0.0000 N   0  0  0  0  0  0  0  0  0  0  0  0
   15.8025    5.5348    0.0000 N   0  0  0  0  0  0  0  0  0  0  0  0
    7.9279    6.5304    0.0000 N   0  0  0  0  0  0  0  0  0  0  0  0
   16.9205   -2.1950    0.0000 N   0  0  0  0  0  0  0  0  0  0  0  0
   16.2992   -4.0960    0.0000 N   0  0  0  0  0  0  0  0  0  0  0  0
    5.6137    7.8128    0.0000 N   0  0  0  0  0  0  0  0  0  0  0  0
   14.6994   -7.8128    0.0000 N   0  0  0  0  0  0  0  0  0  0  0  0
    3.7032    4.7550    0.0000 N   0  0  0  0  0  0  0  0  0  0  0  0
   19.5919   -5.1722    0.0000 N   0  0  0  0  0  0  0  0  0  0  0  0
    2.4141    3.5983    0.0000 N   0  0  0  0  0  0  0  0  0  0  0  0
    4.0604    3.0602    0.0000 N   0  0  0  0  0  0  0  0  0  0  0  0
   12.8670    4.9161    0.0000 C   0  0  0  0  0  0  0  0  0  0  0  0
   13.8455    5.1224    0.0000 C   0  0  0  0  0  0  0  0  0  0  0  0
   12.1991    5.6604    0.0000 C   0  0  0  0  0  0  0  0  0  0  0  0
   14.5133    4.3781    0.0000 C   0  0  0  0  0  0  0  0  0  0  0  0
   15.4918    4.5843    0.0000 C   0  0  3  0  0  0  0  0  0  0  0  0
   10.5528    6.1985    0.0000 C   0  0  0  0  0  0  0  0  0  0  0  0
    9.5743    5.9923    0.0000 C   0  0  0  0  0  0  0  0  0  0  0  0
   16.1597    3.8400    0.0000 C   0  0  0  0  0  0  0  0  0  0  0  0
   16.2062    1.1946    0.0000 C   0  0  0  0  0  0  0  0  0  0  0  0
    8.9064    6.7366    0.0000 C   0  0  0  0  0  0  0  0  0  0  0  0
   16.8740    0.4503    0.0000 C   0  0  0  0  0  0  0  0  0  0  0  0
   10.9100    4.5037    0.0000 C   0  0  0  0  0  0  0  0  0  0  0  0
   16.5168    2.1452    0.0000 C   0  0  0  0  0  0  0  0  0  0  0  0
   16.5634   -0.5002    0.0000 C   0  0  0  0  0  0  0  0  0  0  0  0
   17.2312   -1.2445    0.0000 C   0  0  0  0  0  0  0  0  0  0  0  0
    6.2816    7.0685    0.0000 C   0  0  3  0  0  0  0  0  0  0  0  0
    5.9709    6.1180    0.0000 C   0  0  0  0  0  0  0  0  0  0  0  0
    7.2601    7.2747    0.0000 C   0  0  0  0  0  0  0  0  0  0  0  0
   17.2777   -3.8898    0.0000 C   0  0  3  0  0  0  0  0  0  0  0  0
    4.9924    5.9117    0.0000 C   0  0  0  0  0  0  0  0  0  0  0  0
   17.5884   -2.9393    0.0000 C   0  0  0  0  0  0  0  0  0  0  0  0
   17.9456   -4.6341    0.0000 C   0  0  0  0  0  0  0  0  0  0  0  0
   14.6994   -6.2033    0.0000 C   0  0  0  0  0  0  0  0  0  0  0  0
   15.0101   -5.2528    0.0000 C   0  0  0  0  0  0  0  0  0  0  0  0
   13.7532   -6.5080    0.0000 C   0  0  0  0  0  0  0  0  0  0  0  0
   15.9886   -5.0466    0.0000 C   0  0  0  0  0  0  0  0  0  0  0  0
    4.6817    4.9612    0.0000 C   0  0  0  0  0  0  0  0  0  0  0  0
   13.7532   -7.5080    0.0000 C   0  0  0  0  0  0  0  0  0  0  0  0
   15.2830   -7.0080    0.0000 C   0  0  0  0  0  0  0  0  0  0  0  0
   12.8871   -6.0080    0.0000 C   0  0  0  0  0  0  0  0  0  0  0  0
   18.9241   -4.4279    0.0000 C   0  0  0  0  0  0  0  0  0  0  0  0
   12.8871   -8.0080    0.0000 C   0  0  0  0  0  0  0  0  0  0  0  0
   12.0211   -6.5080    0.0000 C   0  0  0  0  0  0  0  0  0  0  0  0
   12.0211   -7.5080    0.0000 C   0  0  0  0  0  0  0  0  0  0  0  0
    3.3926    3.8045    0.0000 C   0  0  0  0  0  0  0  0  0  0  0  0
   12.3406    4.5885    0.0000 H   0  0  0  0  0  0  0  0  0  0  0  0
   13.0982    4.3409    0.0000 H   0  0  0  0  0  0  0  0  0  0  0  0
   14.3718    5.4500    0.0000 H   0  0  0  0  0  0  0  0  0  0  0  0
   13.6142    5.6976    0.0000 H   0  0  0  0  0  0  0  0  0  0  0  0
   12.7255    5.9881    0.0000 H   0  0  0  0  0  0  0  0  0  0  0  0
   11.9679    6.2357    0.0000 H   0  0  0  0  0  0  0  0  0  0  0  0
   13.9870    4.0504    0.0000 H   0  0  0  0  0  0  0  0  0  0  0  0
   14.7446    3.8028    0.0000 H   0  0  0  0  0  0  0  0  0  0  0  0
   16.0985    4.7121    0.0000 H   0  0  0  0  0  0  0  0  0  0  0  0
   11.0791    6.5262    0.0000 H   0  0  0  0  0  0  0  0  0  0  0  0
   10.3215    6.7738    0.0000 H   0  0  0  0  0  0  0  0  0  0  0  0
    9.0479    5.6647    0.0000 H   0  0  0  0  0  0  0  0  0  0  0  0
    9.8055    5.4170    0.0000 H   0  0  0  0  0  0  0  0  0  0  0  0
   15.6593    1.4866    0.0000 H   0  0  0  0  0  0  0  0  0  0  0  0
   15.8236    0.7067    0.0000 H   0  0  0  0  0  0  0  0  0  0  0  0
    9.4328    7.0642    0.0000 H   0  0  0  0  0  0  0  0  0  0  0  0
    8.6752    7.3119    0.0000 H   0  0  0  0  0  0  0  0  0  0  0  0
   17.4209    0.1583    0.0000 H   0  0  0  0  0  0  0  0  0  0  0  0
   17.2566    0.9382    0.0000 H   0  0  0  0  0  0  0  0  0  0  0  0
   10.3206    4.6963    0.0000 H   0  0  0  0  0  0  0  0  0  0  0  0
   10.7173    3.9144    0.0000 H   0  0  0  0  0  0  0  0  0  0  0  0
   11.4993    4.3111    0.0000 H   0  0  0  0  0  0  0  0  0  0  0  0
   17.0638    1.8531    0.0000 H   0  0  0  0  0  0  0  0  0  0  0  0
   16.8994    2.6331    0.0000 H   0  0  0  0  0  0  0  0  0  0  0  0
   16.0164   -0.2082    0.0000 H   0  0  0  0  0  0  0  0  0  0  0  0
   16.1808   -0.9881    0.0000 H   0  0  0  0  0  0  0  0  0  0  0  0
   15.2423    2.7616    0.0000 H   0  0  0  0  0  0  0  0  0  0  0  0
   15.3884    5.9963    0.0000 H   0  0  0  0  0  0  0  0  0  0  0  0
   16.4092    5.6626    0.0000 H   0  0  0  0  0  0  0  0  0  0  0  0
   17.7781   -1.5365    0.0000 H   0  0  0  0  0  0  0  0  0  0  0  0
   17.6138   -0.7566    0.0000 H   0  0  0  0  0  0  0  0  0  0  0  0
    7.7353    5.9411    0.0000 H   0  0  0  0  0  0  0  0  0  0  0  0
    5.6749    6.9406    0.0000 H   0  0  0  0  0  0  0  0  0  0  0  0
    5.9915    5.4983    0.0000 H   0  0  0  0  0  0  0  0  0  0  0  0
    6.5847    6.0306    0.0000 H   0  0  0  0  0  0  0  0  0  0  0  0
   16.8637   -3.4284    0.0000 H   0  0  0  0  0  0  0  0  0  0  0  0
   16.3139   -2.3229    0.0000 H   0  0  0  0  0  0  0  0  0  0  0  0
    4.9718    6.5314    0.0000 H   0  0  0  0  0  0  0  0  0  0  0  0
    4.3786    5.9991    0.0000 H   0  0  0  0  0  0  0  0  0  0  0  0
   17.4192   -4.9618    0.0000 H   0  0  0  0  0  0  0  0  0  0  0  0
   18.1768   -5.2094    0.0000 H   0  0  0  0  0  0  0  0  0  0  0  0
   15.8852   -3.6346    0.0000 H   0  0  0  0  0  0  0  0  0  0  0  0
   14.9895   -4.6331    0.0000 H   0  0  0  0  0  0  0  0  0  0  0  0
   14.3962   -5.1654    0.0000 H   0  0  0  0  0  0  0  0  0  0  0  0
    5.0070    7.6849    0.0000 H   0  0  0  0  0  0  0  0  0  0  0  0
    5.8063    8.4021    0.0000 H   0  0  0  0  0  0  0  0  0  0  0  0
    4.7023    4.3416    0.0000 H   0  0  0  0  0  0  0  0  0  0  0  0
    5.2956    4.8739    0.0000 H   0  0  0  0  0  0  0  0  0  0  0  0
   15.9030   -7.0080    0.0000 H   0  0  0  0  0  0  0  0  0  0  0  0
   14.8920   -8.4021    0.0000 H   0  0  0  0  0  0  0  0  0  0  0  0
   12.8871   -8.6280    0.0000 H   0  0  0  0  0  0  0  0  0  0  0  0
   11.4842   -6.1980    0.0000 H   0  0  0  0  0  0  0  0  0  0  0  0
   11.4842   -7.8180    0.0000 H   0  0  0  0  0  0  0  0  0  0  0  0
   20.1986   -5.0444    0.0000 H   0  0  0  0  0  0  0  0  0  0  0  0
   19.3993   -5.7615    0.0000 H   0  0  0  0  0  0  0  0  0  0  0  0
   12.3502   -4.6980    0.0000 H   0  0  0  0  0  0  0  0  0  0  0  0
    2.2214    3.0089    0.0000 H   0  0  0  0  0  0  0  0  0  0  0  0
    2.0000    4.0597    0.0000 H   0  0  0  0  0  0  0  0  0  0  0  0
    3.8678    2.4708    0.0000 H   0  0  0  0  0  0  0  0  0  0  0  0
    4.6671    3.1880    0.0000 H   0  0  0  0  0  0  0  0  0  0  0  0
  1 26  2  0  0  0  0
  2 36  2  0  0  0  0
  3 39  2  0  0  0  0
  4 44  2  0  0  0  0
  5 48  1  0  0  0  0
  5109  1  0  0  0  0
  6 49  2  0  0  0  0
  7 21  1  0  0  0  0
  7 24  1  0  0  0  0
  7 30  1  0  0  0  0
  8 26  1  0  0  0  0
  8 31  1  0  0  0  0
  8 80  1  0  0  0  0
  9 23  1  0  0  0  0
  9 81  1  0  0  0  0
  9 82  1  0  0  0  0
 10 28  1  0  0  0  0
 10 36  1  0  0  0  0
 10 85  1  0  0  0  0
 11 33  1  0  0  0  0
 11 39  1  0  0  0  0
 11 90  1  0  0  0  0
 12 37  1  0  0  0  0
 12 44  1  0  0  0  0
 12 95  1  0  0  0  0
 13 34  1  0  0  0  0
 13 98  1  0  0  0  0
 13 99  1  0  0  0  0
 14 46  1  0  0  0  0
 14 47  1  0  0  0  0
 14103  1  0  0  0  0
 15 45  1  0  0  0  0
 15 53  2  0  0  0  0
 16 49  1  0  0  0  0
 16107  1  0  0  0  0
 16108  1  0  0  0  0
 17 53  1  0  0  0  0
 17110  1  0  0  0  0
 17111  1  0  0  0  0
 18 53  1  0  0  0  0
 18112  1  0  0  0  0
 18113  1  0  0  0  0
 19 20  1  0  0  0  0
 19 21  1  0  0  0  0
 19 54  1  0  0  0  0
 19 55  1  0  0  0  0
 20 22  1  0  0  0  0
 20 56  1  0  0  0  0
 20 57  1  0  0  0  0
 21 58  1  0  0  0  0
 21 59  1  0  0  0  0
 22 23  1  0  0  0  0
 22 60  1  0  0  0  0
 22 61  1  0  0  0  0
 23 26  1  0  0  0  0
 23 62  1  0  0  0  0
 24 25  1  0  0  0  0
 24 63  1  0  0  0  0
 24 64  1  0  0  0  0
 25 28  1  0  0  0  0
 25 65  1  0  0  0  0
 25 66  1  0  0  0  0
 27 29  1  0  0  0  0
 27 31  1  0  0  0  0
 27 67  1  0  0  0  0
 27 68  1  0  0  0  0
 28 69  1  0  0  0  0
 28 70  1  0  0  0  0
 29 32  1  0  0  0  0
 29 71  1  0  0  0  0
 29 72  1  0  0  0  0
 30 73  1  0  0  0  0
 30 74  1  0  0  0  0
 30 75  1  0  0  0  0
 31 76  1  0  0  0  0
 31 77  1  0  0  0  0
 32 33  1  0  0  0  0
 32 78  1  0  0  0  0
 32 79  1  0  0  0  0
 33 83  1  0  0  0  0
 33 84  1  0  0  0  0
 34 35  1  0  0  0  0
 34 36  1  0  0  0  0
 34 86  1  0  0  0  0
 35 38  1  0  0  0  0
 35 87  1  0  0  0  0
 35 88  1  0  0  0  0
 37 39  1  0  0  0  0
 37 40  1  0  0  0  0
 37 89  1  0  0  0  0
 38 45  1  0  0  0  0
 38 91  1  0  0  0  0
 38 92  1  0  0  0  0
 40 49  1  0  0  0  0
 40 93  1  0  0  0  0
 40 94  1  0  0  0  0
 41 42  1  0  0  0  0
 41 43  1  0  0  0  0
 41 47  2  0  0  0  0
 42 44  1  0  0  0  0
 42 96  1  0  0  0  0
 42 97  1  0  0  0  0
 43 46  2  0  0  0  0
 43 48  1  0  0  0  0
 45100  1  0  0  0  0
 45101  1  0  0  0  0
 46 50  1  0  0  0  0
 47102  1  0  0  0  0
 48 51  2  0  0  0  0
 50 52  2  0  0  0  0
 50104  1  0  0  0  0
 51 52  1  0  0  0  0
 51105  1  0  0  0  0
 52106  1  0  0  0  0
M  END
> <PUBCHEM_COMPOUND_CID>
189479

> <PUBCHEM_COMPOUND_CANONICALIZED>
1

> <PUBCHEM_CACTVS_COMPLEXITY>
1170

> <PUBCHEM_CACTVS_HBOND_ACCEPTOR>
10

> <PUBCHEM_CACTVS_HBOND_DONOR>
11

> <PUBCHEM_CACTVS_ROTATABLE_BOND>
27

> <PUBCHEM_CACTVS_SUBSKEYS>
AAADcfB/+AAAAAAAAAAAAAAAAAAAAWAAAAAwAAAAAAAAAFgB8AAAHgAQCAAADCzBngQ/xvPJkgCoAzV3dACCgCExIiAI2aG+bJgIZvrC1bOUcAhm1hnI2Ae93ePegAAAAgAKAAAAAAAEABQAAAAAAAAAAA==

> <PUBCHEM_IUPAC_OPENEYE_NAME>
N-[5-[[2-amino-6-[3-[(2-amino-5-guanidino-pentanoyl)amino]propyl-methyl-amino]hexanoyl]amino]pentyl]-2-[[2-(4-hydroxy-1H-indol-3-yl)acetyl]amino]butanediamide

> <PUBCHEM_IUPAC_CAS_NAME>
N-[5-[[2-amino-6-[3-[[2-amino-5-(diaminomethylideneamino)-1-oxopentyl]amino]propyl-methylamino]-1-oxohexyl]amino]pentyl]-2-[[2-(4-hydroxy-1H-indol-3-yl)-1-oxoethyl]amino]butanediamide

> <PUBCHEM_IUPAC_NAME>
N-[5-[[2-amino-6-[3-[[2-amino-5-(diaminomethylideneamino)pentanoyl]amino]propyl-methylamino]hexanoyl]amino]pentyl]-2-[[2-(4-hydroxy-1H-indol-3-yl)acetyl]amino]butanediamide

> <PUBCHEM_IUPAC_SYSTEMATIC_NAME>
N-[5-[[2-azanyl-6-[3-[[2-azanyl-5-[bis(azanyl)methylideneamino]pentanoyl]amino]propyl-methyl-amino]hexanoyl]amino]pentyl]-2-[2-(4-oxidanyl-1H-indol-3-yl)ethanoylamino]butanediamide

> <PUBCHEM_IUPAC_TRADITIONAL_NAME>
N-[5-[[2-amino-6-[3-[(2-amino-5-guanidino-pentanoyl)amino]propyl-methyl-amino]hexanoyl]amino]pentyl]-2-[[2-(4-hydroxy-1H-indol-3-yl)acetyl]amino]succinamide

> <PUBCHEM_IUPAC_INCHI>
InChI=1S/C35H60N12O6/c1-47(19-9-17-42-33(52)25(37)11-8-16-44-35(39)40)18-6-3-10-24(36)32(51)41-14-4-2-5-15-43-34(53)27(21-29(38)49)46-30(50)20-23-22-45-26-12-7-13-28(48)31(23)26/h7,12-13,22,24-25,27,45,48H,2-6,8-11,14-21,36-37H2,1H3,(H2,38,49)(H,41,51)(H,42,52)(H,43,53)(H,46,50)(H4,39,40,44)

> <PUBCHEM_IUPAC_INCHIKEY>
FYFIQPOMCZFNLW-UHFFFAOYSA-N

> <PUBCHEM_XLOGP3_AA>
-2.3

> <PUBCHEM_EXACT_MASS>
744.475878

> <PUBCHEM_MOLECULAR_FORMULA>
C35H60N12O6

> <PUBCHEM_MOLECULAR_WEIGHT>
744.9277

> <PUBCHEM_OPENEYE_CAN_SMILES>
CN(CCCCC(C(=O)NCCCCCNC(=O)C(CC(=O)N)NC(=O)CC1=CNC2=C1C(=CC=C2)O)N)CCCNC(=O)C(CCCN=C(N)N)N

> <PUBCHEM_OPENEYE_ISO_SMILES>
CN(CCCCC(C(=O)NCCCCCNC(=O)C(CC(=O)N)NC(=O)CC1=CNC2=C1C(=CC=C2)O)N)CCCNC(=O)C(CCCN=C(N)N)N

> <PUBCHEM_CACTVS_TPSA>
315

> <PUBCHEM_MONOISOTOPIC_WEIGHT>
744.475878

> <PUBCHEM_TOTAL_CHARGE>
0

> <PUBCHEM_HEAVY_ATOM_COUNT>
53

> <PUBCHEM_ATOM_DEF_STEREO_COUNT>
0

> <PUBCHEM_ATOM_UDEF_STEREO_COUNT>
3

> <PUBCHEM_BOND_DEF_STEREO_COUNT>
0

> <PUBCHEM_BOND_UDEF_STEREO_COUNT>
0

> <PUBCHEM_ISOTOPIC_ATOM_COUNT>
0

> <PUBCHEM_COMPONENT_COUNT>
1

> <PUBCHEM_CACTVS_TAUTO_COUNT>
1000

> <PUBCHEM_COORDINATE_TYPE>
1
5
255

> <PUBCHEM_BONDANNOTATIONS>
34  13  3
14  46  8
14  47  8
37  40  3
41  43  8
41  47  8
43  46  8
43  48  8
46  50  8
48  51  8
50  52  8
51  52  8
23  9  3

$$$$

