81437
  -OEChem-07051212483D

 20 20  0     0  0  0  0  0  0999 V2000
    2.2128   -1.1352    0.0351 O   0  0  0  0  0  0  0  0  0  0  0  0
   -3.1518   -0.9059   -0.7822 O   0  0  0  0  0  0  0  0  0  0  0  0
   -1.2599   -0.0093    0.2770 C   0  0  0  0  0  0  0  0  0  0  0  0
   -0.1463   -0.8491    0.2585 C   0  0  0  0  0  0  0  0  0  0  0  0
    1.1261   -0.3159    0.0531 C   0  0  0  0  0  0  0  0  0  0  0  0
   -1.1010    1.3639    0.0902 C   0  0  0  0  0  0  0  0  0  0  0  0
   -2.6203   -0.5793    0.4962 C   0  0  0  0  0  0  0  0  0  0  0  0
    1.2850    1.0572   -0.1335 C   0  0  0  0  0  0  0  0  0  0  0  0
    0.1715    1.8971   -0.1150 C   0  0  0  0  0  0  0  0  0  0  0  0
    3.4838   -0.5234   -0.1794 C   0  0  0  0  0  0  0  0  0  0  0  0
   -0.2636   -1.9205    0.4018 H   0  0  0  0  0  0  0  0  0  0  0  0
   -1.9608    2.0285    0.1007 H   0  0  0  0  0  0  0  0  0  0  0  0
   -2.5822   -1.4839    1.1123 H   0  0  0  0  0  0  0  0  0  0  0  0
   -3.2827    0.1408    0.9883 H   0  0  0  0  0  0  0  0  0  0  0  0
    2.2434    1.5377   -0.2980 H   0  0  0  0  0  0  0  0  0  0  0  0
    0.2942    2.9665   -0.2608 H   0  0  0  0  0  0  0  0  0  0  0  0
    3.7381    0.1705    0.6291 H   0  0  0  0  0  0  0  0  0  0  0  0
    3.5415   -0.0508   -1.1658 H   0  0  0  0  0  0  0  0  0  0  0  0
    4.2335   -1.3213   -0.1631 H   0  0  0  0  0  0  0  0  0  0  0  0
   -4.0385   -1.2770   -0.6352 H   0  0  0  0  0  0  0  0  0  0  0  0
  1  5  1  0  0  0  0
  1 10  1  0  0  0  0
  2  7  1  0  0  0  0
  2 20  1  0  0  0  0
  3  4  2  0  0  0  0
  3  6  1  0  0  0  0
  3  7  1  0  0  0  0
  4  5  1  0  0  0  0
  4 11  1  0  0  0  0
  5  8  2  0  0  0  0
  6  9  2  0  0  0  0
  6 12  1  0  0  0  0
  7 13  1  0  0  0  0
  7 14  1  0  0  0  0
  8  9  1  0  0  0  0
  8 15  1  0  0  0  0
  9 16  1  0  0  0  0
 10 17  1  0  0  0  0
 10 18  1  0  0  0  0
 10 19  1  0  0  0  0
M  END
> <PUBCHEM_COMPOUND_CID>
81437

> <PUBCHEM_CONFORMER_RMSD>
0.4

> <PUBCHEM_CONFORMER_DIVERSEORDER>
1
7
8
2
5
3
4
6

> <PUBCHEM_MMFF94_PARTIAL_CHARGES>
15
1 -0.36
10 0.28
11 0.15
12 0.15
15 0.15
16 0.15
2 -0.68
20 0.4
3 -0.14
4 -0.15
5 0.08
6 -0.15
7 0.42
8 -0.15
9 -0.15

> <PUBCHEM_EFFECTIVE_ROTOR_COUNT>
2

> <PUBCHEM_PHARMACOPHORE_FEATURES>
4
1 1 acceptor
1 2 acceptor
1 2 donor
6 3 4 5 6 8 9 rings

> <PUBCHEM_HEAVY_ATOM_COUNT>
10

> <PUBCHEM_ATOM_DEF_STEREO_COUNT>
0

> <PUBCHEM_ATOM_UDEF_STEREO_COUNT>
0

> <PUBCHEM_BOND_DEF_STEREO_COUNT>
0

> <PUBCHEM_BOND_UDEF_STEREO_COUNT>
0

> <PUBCHEM_ISOTOPIC_ATOM_COUNT>
0

> <PUBCHEM_COMPONENT_COUNT>
1

> <PUBCHEM_CACTVS_TAUTO_COUNT>
1

> <PUBCHEM_CONFORMER_ID>
00013E1D00000001

> <PUBCHEM_MMFF94_ENERGY>
31.5982

> <PUBCHEM_FEATURE_SELFOVERLAP>
20.297

> <PUBCHEM_SHAPE_FINGERPRINT>
10857977 72 18410020961263129104
11206711 2 18272368719330230884
14128692 85 18334854995981535157
16945 1 18267859480479515072
193761 8 17619061733831052058
20201158 50 18343865510909142571
20653085 51 13901896834574754447
20871998 184 18188207731353098006
20871998 22 18262503892421365878
21040471 1 17330831318856082921
23552423 10 17985818470371875562
241688 4 18341048613642654960
2748010 2 18412268336896905084
29004967 10 18342171112140802561
5084963 1 18260829301852219442

> <PUBCHEM_SHAPE_MULTIPOLES>
194.06
4.35
1.6
0.69
0.81
0.73
-0.02
-2.07
-0.5
0
-0.05
-0.23
-0.05
-0.13

> <PUBCHEM_SHAPE_SELFOVERLAP>
397.247

> <PUBCHEM_SHAPE_VOLUME>
113.1

> <PUBCHEM_COORDINATE_TYPE>
2
5
10

$$$$

