12817
  -OEChem-06261207242D

 27 28  0     0  0  0  0  0  0999 V2000
    5.2788    1.5794    0.0000 O   0  0  0  0  0  0  0  0  0  0  0  0
    7.3479   -1.2685    0.0000 O   0  0  0  0  0  0  0  0  0  0  0  0
    5.5878   -0.9897    0.0000 N   0  0  0  0  0  0  0  0  0  0  0  0
    6.5388    0.3193    0.0000 N   0  0  0  0  0  0  0  0  0  0  0  0
    5.0000   -0.1807    0.0000 C   0  0  0  0  0  0  0  0  0  0  0  0
    4.5000   -1.0467    0.0000 C   0  0  0  0  0  0  0  0  0  0  0  0
    4.5000    0.6853    0.0000 C   0  0  0  0  0  0  0  0  0  0  0  0
    3.0000   -0.1807    0.0000 C   0  0  0  0  0  0  0  0  0  0  0  0
    3.5000   -1.0467    0.0000 C   0  0  0  0  0  0  0  0  0  0  0  0
    3.5000    0.6853    0.0000 C   0  0  0  0  0  0  0  0  0  0  0  0
    5.5878    0.6283    0.0000 C   0  0  0  0  0  0  0  0  0  0  0  0
    2.0000   -0.1807    0.0000 C   0  0  0  0  0  0  0  0  0  0  0  0
    6.5388   -0.6807    0.0000 C   0  0  0  0  0  0  0  0  0  0  0  0
    4.3923   -1.6573    0.0000 H   0  0  0  0  0  0  0  0  0  0  0  0
    5.0826   -1.2588    0.0000 H   0  0  0  0  0  0  0  0  0  0  0  0
    5.0826    0.8974    0.0000 H   0  0  0  0  0  0  0  0  0  0  0  0
    4.3923    1.2959    0.0000 H   0  0  0  0  0  0  0  0  0  0  0  0
    2.6900   -0.7176    0.0000 H   0  0  0  0  0  0  0  0  0  0  0  0
    2.9174   -1.2588    0.0000 H   0  0  0  0  0  0  0  0  0  0  0  0
    3.6077   -1.6573    0.0000 H   0  0  0  0  0  0  0  0  0  0  0  0
    3.6077    1.2959    0.0000 H   0  0  0  0  0  0  0  0  0  0  0  0
    2.9174    0.8974    0.0000 H   0  0  0  0  0  0  0  0  0  0  0  0
    5.3962   -1.5794    0.0000 H   0  0  0  0  0  0  0  0  0  0  0  0
    2.0000    0.4393    0.0000 H   0  0  0  0  0  0  0  0  0  0  0  0
    1.3800   -0.1807    0.0000 H   0  0  0  0  0  0  0  0  0  0  0  0
    2.0000   -0.8007    0.0000 H   0  0  0  0  0  0  0  0  0  0  0  0
    7.0404    0.6837    0.0000 H   0  0  0  0  0  0  0  0  0  0  0  0
  1 11  2  0  0  0  0
  2 13  2  0  0  0  0
  3  5  1  0  0  0  0
  3 13  1  0  0  0  0
  3 23  1  0  0  0  0
  4 11  1  0  0  0  0
  4 13  1  0  0  0  0
  4 27  1  0  0  0  0
  5  6  1  0  0  0  0
  5  7  1  0  0  0  0
  5 11  1  0  0  0  0
  6  9  1  0  0  0  0
  6 14  1  0  0  0  0
  6 15  1  0  0  0  0
  7 10  1  0  0  0  0
  7 16  1  0  0  0  0
  7 17  1  0  0  0  0
  8  9  1  0  0  0  0
  8 10  1  0  0  0  0
  8 12  1  0  0  0  0
  8 18  1  0  0  0  0
  9 19  1  0  0  0  0
  9 20  1  0  0  0  0
 10 21  1  0  0  0  0
 10 22  1  0  0  0  0
 12 24  1  0  0  0  0
 12 25  1  0  0  0  0
 12 26  1  0  0  0  0
M  END
> <PUBCHEM_COMPOUND_CID>
12817

> <PUBCHEM_COMPOUND_CANONICALIZED>
1

> <PUBCHEM_CACTVS_COMPLEXITY>
254

> <PUBCHEM_CACTVS_HBOND_ACCEPTOR>
2

> <PUBCHEM_CACTVS_HBOND_DONOR>
2

> <PUBCHEM_CACTVS_ROTATABLE_BOND>
0

> <PUBCHEM_CACTVS_SUBSKEYS>
AAADccBzMAAAAAAAAAAAAAAAAAAAAWAAAAAwAAAAAAAAAAAAAAAAHgAQAAAADYiBgAADAALAAAAIAAEQEAAAAAAAAAAAAAGAAACAQBIAgCAUAAAIFSIAAAEYiACOAAAAAAAAAACQAAAAAAAAAAAAAAAAAA==

> <PUBCHEM_IUPAC_OPENEYE_NAME>
8-methyl-1,3-diazaspiro[4.5]decane-2,4-dione

> <PUBCHEM_IUPAC_CAS_NAME>
8-methyl-1,3-diazaspiro[4.5]decane-2,4-dione

> <PUBCHEM_IUPAC_NAME>
8-methyl-1,3-diazaspiro[4.5]decane-2,4-dione

> <PUBCHEM_IUPAC_SYSTEMATIC_NAME>
8-methyl-1,3-diazaspiro[4.5]decane-2,4-dione

> <PUBCHEM_IUPAC_TRADITIONAL_NAME>
8-methyl-1,3-diazaspiro[4.5]decane-2,4-quinone

> <PUBCHEM_IUPAC_INCHI>
InChI=1S/C9H14N2O2/c1-6-2-4-9(5-3-6)7(12)10-8(13)11-9/h6H,2-5H2,1H3,(H2,10,11,12,13)

> <PUBCHEM_IUPAC_INCHIKEY>
YDHFGMUUNFASMP-UHFFFAOYSA-N

> <PUBCHEM_XLOGP3_AA>
0.8

> <PUBCHEM_EXACT_MASS>
182.105528

> <PUBCHEM_MOLECULAR_FORMULA>
C9H14N2O2

> <PUBCHEM_MOLECULAR_WEIGHT>
182.21966

> <PUBCHEM_OPENEYE_CAN_SMILES>
CC1CCC2(CC1)C(=O)NC(=O)N2

> <PUBCHEM_OPENEYE_ISO_SMILES>
CC1CCC2(CC1)C(=O)NC(=O)N2

> <PUBCHEM_CACTVS_TPSA>
58.2

> <PUBCHEM_MONOISOTOPIC_WEIGHT>
182.105528

> <PUBCHEM_TOTAL_CHARGE>
0

> <PUBCHEM_HEAVY_ATOM_COUNT>
13

> <PUBCHEM_ATOM_DEF_STEREO_COUNT>
0

> <PUBCHEM_ATOM_UDEF_STEREO_COUNT>
0

> <PUBCHEM_BOND_DEF_STEREO_COUNT>
0

> <PUBCHEM_BOND_UDEF_STEREO_COUNT>
0

> <PUBCHEM_ISOTOPIC_ATOM_COUNT>
0

> <PUBCHEM_COMPONENT_COUNT>
1

> <PUBCHEM_CACTVS_TAUTO_COUNT>
5

> <PUBCHEM_COORDINATE_TYPE>
1
5
255

$$$$

