14311
  -OEChem-06241222433D

 25 25  0     0  0  0  0  0  0999 V2000
    0.3599   -0.6149   -0.6470 O   0  0  0  0  0  0  0  0  0  0  0  0
    2.6834   -0.3880   -0.1146 C   0  0  0  0  0  0  0  0  0  0  0  0
    3.8118    0.5812    0.2262 C   0  0  0  0  0  0  0  0  0  0  0  0
    1.3683    0.3412   -0.3502 C   0  0  0  0  0  0  0  0  0  0  0  0
    5.1133   -0.1543    0.5031 C   0  0  0  0  0  0  0  0  0  0  0  0
   -0.9241   -0.2898   -0.2940 C   0  0  0  0  0  0  0  0  0  0  0  0
   -1.3157    1.0438   -0.2763 C   0  0  0  0  0  0  0  0  0  0  0  0
   -1.8205   -1.2973    0.0430 C   0  0  0  0  0  0  0  0  0  0  0  0
   -2.6221    1.3746    0.0837 C   0  0  0  0  0  0  0  0  0  0  0  0
   -3.1268   -0.9663    0.4029 C   0  0  0  0  0  0  0  0  0  0  0  0
   -3.5276    0.3696    0.4232 C   0  0  0  0  0  0  0  0  0  0  0  0
    2.9410   -0.9732   -1.0062 H   0  0  0  0  0  0  0  0  0  0  0  0
    2.5527   -1.1174    0.6948 H   0  0  0  0  0  0  0  0  0  0  0  0
    3.5420    1.1735    1.1084 H   0  0  0  0  0  0  0  0  0  0  0  0
    3.9627    1.2831   -0.6021 H   0  0  0  0  0  0  0  0  0  0  0  0
    1.1331    0.9088    0.5596 H   0  0  0  0  0  0  0  0  0  0  0  0
    1.4685    1.0323   -1.1952 H   0  0  0  0  0  0  0  0  0  0  0  0
    5.0045   -0.8395    1.3499 H   0  0  0  0  0  0  0  0  0  0  0  0
    5.4294   -0.7341   -0.3700 H   0  0  0  0  0  0  0  0  0  0  0  0
    5.9080    0.5588    0.7433 H   0  0  0  0  0  0  0  0  0  0  0  0
   -0.6509    1.8535   -0.5609 H   0  0  0  0  0  0  0  0  0  0  0  0
   -1.5122   -2.3387    0.0286 H   0  0  0  0  0  0  0  0  0  0  0  0
   -2.9366    2.4142    0.0934 H   0  0  0  0  0  0  0  0  0  0  0  0
   -3.8322   -1.7488    0.6669 H   0  0  0  0  0  0  0  0  0  0  0  0
   -4.5452    0.6270    0.7019 H   0  0  0  0  0  0  0  0  0  0  0  0
  1  4  1  0  0  0  0
  1  6  1  0  0  0  0
  2  3  1  0  0  0  0
  2  4  1  0  0  0  0
  2 12  1  0  0  0  0
  2 13  1  0  0  0  0
  3  5  1  0  0  0  0
  3 14  1  0  0  0  0
  3 15  1  0  0  0  0
  4 16  1  0  0  0  0
  4 17  1  0  0  0  0
  5 18  1  0  0  0  0
  5 19  1  0  0  0  0
  5 20  1  0  0  0  0
  6  7  2  0  0  0  0
  6  8  1  0  0  0  0
  7  9  1  0  0  0  0
  7 21  1  0  0  0  0
  8 10  2  0  0  0  0
  8 22  1  0  0  0  0
  9 11  2  0  0  0  0
  9 23  1  0  0  0  0
 10 11  1  0  0  0  0
 10 24  1  0  0  0  0
 11 25  1  0  0  0  0
M  END
> <PUBCHEM_COMPOUND_CID>
14311

> <PUBCHEM_CONFORMER_RMSD>
0.6

> <PUBCHEM_CONFORMER_DIVERSEORDER>
1
21
18
15
11
23
10
16
3
20
19
22
8
12
4
2
5
14
7
17
9
13
6

> <PUBCHEM_MMFF94_PARTIAL_CHARGES>
13
1 -0.36
10 -0.15
11 -0.15
21 0.15
22 0.15
23 0.15
24 0.15
25 0.15
4 0.28
6 0.08
7 -0.15
8 -0.15
9 -0.15

> <PUBCHEM_EFFECTIVE_ROTOR_COUNT>
4

> <PUBCHEM_PHARMACOPHORE_FEATURES>
3
1 1 acceptor
1 5 hydrophobe
6 6 7 8 9 10 11 rings

> <PUBCHEM_HEAVY_ATOM_COUNT>
11

> <PUBCHEM_ATOM_DEF_STEREO_COUNT>
0

> <PUBCHEM_ATOM_UDEF_STEREO_COUNT>
0

> <PUBCHEM_BOND_DEF_STEREO_COUNT>
0

> <PUBCHEM_BOND_UDEF_STEREO_COUNT>
0

> <PUBCHEM_ISOTOPIC_ATOM_COUNT>
0

> <PUBCHEM_COMPONENT_COUNT>
1

> <PUBCHEM_CACTVS_TAUTO_COUNT>
1

> <PUBCHEM_CONFORMER_ID>
000037E700000001

> <PUBCHEM_MMFF94_ENERGY>
25.1482

> <PUBCHEM_FEATURE_SELFOVERLAP>
15.223

> <PUBCHEM_SHAPE_FINGERPRINT>
12251169 10 18342173362571770716
12932764 1 17458355130140570030
13024252 1 14405186171072267205
13214271 11 18187366528001989317
13897977 58 18340481180144179644
14325111 11 18409445912144170142
15219456 202 18041834125066919758
20279233 1 18040991851973295366
20645464 45 18113330916756166087
20645477 70 16733258071247131222
20711985 327 17132111338566038270
20828058 44 18342459244649105258
20871999 31 7997687559131345739
21119208 17 7420947573555121048
22485316 2 12247679357666959544
23402539 116 18335990792168391319
23403322 49 11743847971149289104
42 15 18272089418255772650

> <PUBCHEM_SHAPE_MULTIPOLES>
220.51
8.53
1.23
0.72
10.43
0.05
0.01
0.2
2.11
-1.01
0.02
0.04
-0.01
0.06

> <PUBCHEM_SHAPE_SELFOVERLAP>
438.367

> <PUBCHEM_SHAPE_VOLUME>
131.8

> <PUBCHEM_COORDINATE_TYPE>
2
5
10

$$$$

