9762
  -OEChem-06261204023D

 16 15  0     0  0  0  0  0  0999 V2000
    2.7422   -1.0405   -0.3281 F   0  0  0  0  0  0  0  0  0  0  0  0
    0.1082    0.0190    0.1785 C   0  0  0  0  0  0  0  0  0  0  0  0
    1.3730    0.8477   -0.0537 C   0  0  0  0  0  0  0  0  0  0  0  0
   -1.1384    0.7583   -0.3078 C   0  0  0  0  0  0  0  0  0  0  0  0
    2.6185    0.1035    0.3960 C   0  0  0  0  0  0  0  0  0  0  0  0
   -2.3542   -0.0251   -0.0479 C   0  0  0  0  0  0  0  0  0  0  0  0
   -3.3492   -0.6629    0.1630 C   0  0  0  0  0  0  0  0  0  0  0  0
    0.1928   -0.9429   -0.3432 H   0  0  0  0  0  0  0  0  0  0  0  0
    0.0123   -0.2103    1.2477 H   0  0  0  0  0  0  0  0  0  0  0  0
    1.3020    1.7991    0.4853 H   0  0  0  0  0  0  0  0  0  0  0  0
    1.4616    1.0748   -1.1225 H   0  0  0  0  0  0  0  0  0  0  0  0
   -1.2158    1.7282    0.1972 H   0  0  0  0  0  0  0  0  0  0  0  0
   -1.0551    0.9608   -1.3819 H   0  0  0  0  0  0  0  0  0  0  0  0
    3.5151    0.7065    0.2272 H   0  0  0  0  0  0  0  0  0  0  0  0
    2.5683   -0.1671    1.4547 H   0  0  0  0  0  0  0  0  0  0  0  0
   -4.2317   -1.2288    0.3502 H   0  0  0  0  0  0  0  0  0  0  0  0
  1  5  1  0  0  0  0
  2  3  1  0  0  0  0
  2  4  1  0  0  0  0
  2  8  1  0  0  0  0
  2  9  1  0  0  0  0
  3  5  1  0  0  0  0
  3 10  1  0  0  0  0
  3 11  1  0  0  0  0
  4  6  1  0  0  0  0
  4 12  1  0  0  0  0
  4 13  1  0  0  0  0
  5 14  1  0  0  0  0
  5 15  1  0  0  0  0
  6  7  3  0  0  0  0
  7 16  1  0  0  0  0
M  END
> <PUBCHEM_COMPOUND_CID>
9762

> <PUBCHEM_CONFORMER_RMSD>
0.4

> <PUBCHEM_CONFORMER_DIVERSEORDER>
1
22
20
21
19
2
18
3
16
10
15
12
4
11
8
13
17
14
9
5
7
6

> <PUBCHEM_MMFF94_PARTIAL_CHARGES>
6
1 -0.34
16 0.18
4 0.2
5 0.34
6 -0.2
7 -0.18

> <PUBCHEM_EFFECTIVE_ROTOR_COUNT>
3

> <PUBCHEM_PHARMACOPHORE_FEATURES>
2
1 7 hydrophobe
4 2 3 4 6 hydrophobe

> <PUBCHEM_HEAVY_ATOM_COUNT>
7

> <PUBCHEM_ATOM_DEF_STEREO_COUNT>
0

> <PUBCHEM_ATOM_UDEF_STEREO_COUNT>
0

> <PUBCHEM_BOND_DEF_STEREO_COUNT>
0

> <PUBCHEM_BOND_UDEF_STEREO_COUNT>
0

> <PUBCHEM_ISOTOPIC_ATOM_COUNT>
0

> <PUBCHEM_COMPONENT_COUNT>
1

> <PUBCHEM_CACTVS_TAUTO_COUNT>
1

> <PUBCHEM_CONFORMER_ID>
0000262200000001

> <PUBCHEM_MMFF94_ENERGY>
0.0204

> <PUBCHEM_FEATURE_SELFOVERLAP>
10.149

> <PUBCHEM_SHAPE_FINGERPRINT>
12932764 1 17095532781106149352
14325111 11 18410856551224045241
14390081 3 9223231845033079895
21293036 1 15410607064919647919
29004967 10 18260269650618427560
5460574 1 8286204958814370665

> <PUBCHEM_SHAPE_MULTIPOLES>
136.78
5.35
0.96
0.66
0.96
0.01
0.02
1.57
0.18
-0.2
-0.07
-0.05
0
0.2

> <PUBCHEM_SHAPE_SELFOVERLAP>
242.779

> <PUBCHEM_SHAPE_VOLUME>
88.5

> <PUBCHEM_COORDINATE_TYPE>
2
5
10

$$$$

