443063
  -OEChem-07051213012D

 31 32  0     0  0  0  0  0  0999 V2000
    4.5981   -1.2500    0.0000 Cl  0  0  0  0  0  0  0  0  0  0  0  0
    8.0622   -1.2500    0.0000 Cl  0  0  0  0  0  0  0  0  0  0  0  0
    6.3301   -4.2500    0.0000 Cl  0  0  0  0  0  0  0  0  0  0  0  0
    6.3301   -0.2500    0.0000 O   0  0  0  0  0  0  0  0  0  0  0  0
    5.4641    3.2500    0.0000 O   0  0  0  0  0  0  0  0  0  0  0  0
    3.7320    3.2500    0.0000 O   0  0  0  0  0  0  0  0  0  0  0  0
    2.0000    1.2500    0.0000 O   0  5  0  0  0  0  0  0  0  0  0  0
    2.8660    2.7500    0.0000 O   0  0  0  0  0  0  0  0  0  0  0  0
    2.8660    1.7500    0.0000 N   0  3  0  0  0  0  0  0  0  0  0  0
    5.4641    0.2500    0.0000 C   0  0  0  0  0  0  0  0  0  0  0  0
    4.5981    1.7500    0.0000 C   0  0  0  0  0  0  0  0  0  0  0  0
    3.7320    1.2500    0.0000 C   0  0  0  0  0  0  0  0  0  0  0  0
    5.4641    1.2500    0.0000 C   0  0  0  0  0  0  0  0  0  0  0  0
    4.5981   -0.2500    0.0000 C   0  0  0  0  0  0  0  0  0  0  0  0
    3.7320    0.2500    0.0000 C   0  0  0  0  0  0  0  0  0  0  0  0
    6.3301   -1.2500    0.0000 C   0  0  0  0  0  0  0  0  0  0  0  0
    5.4641   -1.7500    0.0000 C   0  0  0  0  0  0  0  0  0  0  0  0
    7.1962   -1.7500    0.0000 C   0  0  0  0  0  0  0  0  0  0  0  0
    4.5981    2.7500    0.0000 C   0  0  0  0  0  0  0  0  0  0  0  0
    5.4641   -2.7500    0.0000 C   0  0  0  0  0  0  0  0  0  0  0  0
    7.1962   -2.7500    0.0000 C   0  0  0  0  0  0  0  0  0  0  0  0
    6.3301   -3.2500    0.0000 C   0  0  0  0  0  0  0  0  0  0  0  0
    5.4641    4.2500    0.0000 C   0  0  0  0  0  0  0  0  0  0  0  0
    6.0010    1.5600    0.0000 H   0  0  0  0  0  0  0  0  0  0  0  0
    4.5981   -0.8700    0.0000 H   0  0  0  0  0  0  0  0  0  0  0  0
    3.1951   -0.0600    0.0000 H   0  0  0  0  0  0  0  0  0  0  0  0
    4.9272   -3.0600    0.0000 H   0  0  0  0  0  0  0  0  0  0  0  0
    7.7331   -3.0600    0.0000 H   0  0  0  0  0  0  0  0  0  0  0  0
    6.0841    4.2500    0.0000 H   0  0  0  0  0  0  0  0  0  0  0  0
    5.4641    4.8700    0.0000 H   0  0  0  0  0  0  0  0  0  0  0  0
    4.8441    4.2500    0.0000 H   0  0  0  0  0  0  0  0  0  0  0  0
  1 17  1  0  0  0  0
  2 18  1  0  0  0  0
  3 22  1  0  0  0  0
  4 10  1  0  0  0  0
  4 16  1  0  0  0  0
  5 19  1  0  0  0  0
  5 23  1  0  0  0  0
  6 19  2  0  0  0  0
  7  9  1  0  0  0  0
  8  9  2  0  0  0  0
  9 12  1  0  0  0  0
 10 13  2  0  0  0  0
 10 14  1  0  0  0  0
 11 12  2  0  0  0  0
 11 13  1  0  0  0  0
 11 19  1  0  0  0  0
 12 15  1  0  0  0  0
 13 24  1  0  0  0  0
 14 15  2  0  0  0  0
 14 25  1  0  0  0  0
 15 26  1  0  0  0  0
 16 17  2  0  0  0  0
 16 18  1  0  0  0  0
 17 20  1  0  0  0  0
 18 21  2  0  0  0  0
 20 22  2  0  0  0  0
 20 27  1  0  0  0  0
 21 22  1  0  0  0  0
 21 28  1  0  0  0  0
 23 29  1  0  0  0  0
 23 30  1  0  0  0  0
 23 31  1  0  0  0  0
M  CHG  2   7  -1   9   1
M  END
> <PUBCHEM_COMPOUND_CID>
443063

> <PUBCHEM_COMPOUND_CANONICALIZED>
1

> <PUBCHEM_CACTVS_COMPLEXITY>
435

> <PUBCHEM_CACTVS_HBOND_ACCEPTOR>
5

> <PUBCHEM_CACTVS_HBOND_DONOR>
0

> <PUBCHEM_CACTVS_ROTATABLE_BOND>
4

> <PUBCHEM_CACTVS_SUBSKEYS>
AAADccByOAAGAAAAAAAAAAAAAAAAAAAAAAAwYAAAAAAAAAABQAAAHgIEAAAADA6BmCIyzoAQRACJAiTSSwCCCAAkJ0AoiAEGb8oMJjuFt5uCOaDmwBEI6cf6yDCOAGABAACCCAAAwAIAAQQQAAAAAAAAAA==

> <PUBCHEM_IUPAC_OPENEYE_NAME>
methyl 2-nitro-5-(2,4,6-trichlorophenoxy)benzoate

> <PUBCHEM_IUPAC_CAS_NAME>
2-nitro-5-(2,4,6-trichlorophenoxy)benzoic acid methyl ester

> <PUBCHEM_IUPAC_NAME>
methyl 2-nitro-5-(2,4,6-trichlorophenoxy)benzoate

> <PUBCHEM_IUPAC_SYSTEMATIC_NAME>
methyl 2-nitro-5-[2,4,6-tris(chloranyl)phenoxy]benzoate

> <PUBCHEM_IUPAC_TRADITIONAL_NAME>
2-nitro-5-(2,4,6-trichlorophenoxy)benzoic acid methyl ester

> <PUBCHEM_IUPAC_INCHI>
InChI=1S/C14H8Cl3NO5/c1-22-14(19)9-6-8(2-3-12(9)18(20)21)23-13-10(16)4-7(15)5-11(13)17/h2-6H,1H3

> <PUBCHEM_IUPAC_INCHIKEY>
KZPZKNHAIWLBJQ-UHFFFAOYSA-N

> <PUBCHEM_XLOGP3>
5.1

> <PUBCHEM_EXACT_MASS>
374.946805

> <PUBCHEM_MOLECULAR_FORMULA>
C14H8Cl3NO5

> <PUBCHEM_MOLECULAR_WEIGHT>
376.57602

> <PUBCHEM_OPENEYE_CAN_SMILES>
COC(=O)C1=C(C=CC(=C1)OC2=C(C=C(C=C2Cl)Cl)Cl)[N+](=O)[O-]

> <PUBCHEM_OPENEYE_ISO_SMILES>
COC(=O)C1=C(C=CC(=C1)OC2=C(C=C(C=C2Cl)Cl)Cl)[N+](=O)[O-]

> <PUBCHEM_CACTVS_TPSA>
81.4

> <PUBCHEM_MONOISOTOPIC_WEIGHT>
374.946805

> <PUBCHEM_TOTAL_CHARGE>
0

> <PUBCHEM_HEAVY_ATOM_COUNT>
23

> <PUBCHEM_ATOM_DEF_STEREO_COUNT>
0

> <PUBCHEM_ATOM_UDEF_STEREO_COUNT>
0

> <PUBCHEM_BOND_DEF_STEREO_COUNT>
0

> <PUBCHEM_BOND_UDEF_STEREO_COUNT>
0

> <PUBCHEM_ISOTOPIC_ATOM_COUNT>
0

> <PUBCHEM_COMPONENT_COUNT>
1

> <PUBCHEM_CACTVS_TAUTO_COUNT>
1

> <PUBCHEM_COORDINATE_TYPE>
1
5
255

> <PUBCHEM_BONDANNOTATIONS>
10  13  8
10  14  8
11  12  8
11  13  8
12  15  8
14  15  8
16  17  8
16  18  8
17  20  8
18  21  8
20  22  8
21  22  8

$$$$

