5461146
  -OEChem-07051212483D

 50 52  0     1  0  0  0  0  0999 V2000
    3.8447   -0.7579    0.2902 O   0  0  0  0  0  0  0  0  0  0  0  0
    2.3697    0.9652   -0.2569 O   0  0  0  0  0  0  0  0  0  0  0  0
    7.0677    1.7841    0.1584 O   0  0  0  0  0  0  0  0  0  0  0  0
    7.4862   -1.0744    0.0601 O   0  0  0  0  0  0  0  0  0  0  0  0
    4.5512    2.5054   -1.1935 O   0  0  0  0  0  0  0  0  0  0  0  0
    4.0423   -3.4901    0.5189 O   0  0  0  0  0  0  0  0  0  0  0  0
   -3.1716   -0.0045    0.3588 N   0  0  0  0  0  0  0  0  0  0  0  0
   -5.3742   -1.3644   -1.3058 N   0  0  0  0  0  0  0  0  0  0  0  0
   -5.0284    1.0714    1.4279 N   0  0  0  0  0  0  0  0  0  0  0  0
   -7.5536   -0.9845   -1.0333 N   0  0  0  0  0  0  0  0  0  0  0  0
   -7.3364    0.6268    0.7741 N   0  0  0  0  0  0  0  0  0  0  0  0
    6.1197    0.8616   -0.3809 C   0  0  1  0  0  0  0  0  0  0  0  0
    6.2471   -0.4523    0.3903 C   0  0  1  0  0  0  0  0  0  0  0  0
    4.7123    1.4444   -0.2524 C   0  0  2  0  0  0  0  0  0  0  0  0
    5.0967   -1.3999    0.0425 C   0  0  1  0  0  0  0  0  0  0  0  0
    3.6448    0.3874   -0.5350 C   0  0  1  0  0  0  0  0  0  0  0  0
    5.1369   -2.6703    0.8860 C   0  0  0  0  0  0  0  0  0  0  0  0
    1.3207    0.0401   -0.4967 C   0  0  0  0  0  0  0  0  0  0  0  0
   -0.0048    0.6911   -0.1908 C   0  0  0  0  0  0  0  0  0  0  0  0
   -0.8162    0.1679    0.7489 C   0  0  0  0  0  0  0  0  0  0  0  0
   -0.3299    1.9015   -1.0224 C   0  0  0  0  0  0  0  0  0  0  0  0
   -2.1712    0.6545    1.1609 C   0  0  0  0  0  0  0  0  0  0  0  0
   -4.5352    0.2066    0.4998 C   0  0  0  0  0  0  0  0  0  0  0  0
   -5.4676   -0.4503   -0.2952 C   0  0  0  0  0  0  0  0  0  0  0  0
   -6.8303   -0.2306   -0.1446 C   0  0  0  0  0  0  0  0  0  0  0  0
   -6.6489   -1.6537   -1.7155 C   0  0  0  0  0  0  0  0  0  0  0  0
   -6.3718    1.2249    1.5060 C   0  0  0  0  0  0  0  0  0  0  0  0
    6.3861    0.7255   -1.4363 H   0  0  0  0  0  0  0  0  0  0  0  0
    6.2621   -0.2429    1.4670 H   0  0  0  0  0  0  0  0  0  0  0  0
    4.5710    1.8802    0.7438 H   0  0  0  0  0  0  0  0  0  0  0  0
    5.1338   -1.6939   -1.0153 H   0  0  0  0  0  0  0  0  0  0  0  0
    3.6627    0.0936   -1.5935 H   0  0  0  0  0  0  0  0  0  0  0  0
    5.0426   -2.4458    1.9537 H   0  0  0  0  0  0  0  0  0  0  0  0
    6.0596   -3.2348    0.7244 H   0  0  0  0  0  0  0  0  0  0  0  0
    7.9481    1.3793    0.0742 H   0  0  0  0  0  0  0  0  0  0  0  0
    7.4792   -1.2707   -0.8923 H   0  0  0  0  0  0  0  0  0  0  0  0
    4.6733    2.1384   -2.0857 H   0  0  0  0  0  0  0  0  0  0  0  0
    1.4572   -0.8569    0.1185 H   0  0  0  0  0  0  0  0  0  0  0  0
    1.3334   -0.2702   -1.5489 H   0  0  0  0  0  0  0  0  0  0  0  0
    3.2289   -2.9766    0.6623 H   0  0  0  0  0  0  0  0  0  0  0  0
   -0.4803   -0.7218    1.2804 H   0  0  0  0  0  0  0  0  0  0  0  0
    0.3444    2.7272   -0.7734 H   0  0  0  0  0  0  0  0  0  0  0  0
   -0.2137    1.6693   -2.0864 H   0  0  0  0  0  0  0  0  0  0  0  0
   -1.3550    2.2547   -0.8850 H   0  0  0  0  0  0  0  0  0  0  0  0
   -2.2493    1.7425    1.0629 H   0  0  0  0  0  0  0  0  0  0  0  0
   -2.3190    0.4216    2.2223 H   0  0  0  0  0  0  0  0  0  0  0  0
   -2.8754   -0.6606   -0.3562 H   0  0  0  0  0  0  0  0  0  0  0  0
   -4.5228   -1.7575   -1.6846 H   0  0  0  0  0  0  0  0  0  0  0  0
   -6.8462   -2.3571   -2.5118 H   0  0  0  0  0  0  0  0  0  0  0  0
   -6.7192    1.9236    2.2594 H   0  0  0  0  0  0  0  0  0  0  0  0
  1 15  1  0  0  0  0
  1 16  1  0  0  0  0
  2 16  1  0  0  0  0
  2 18  1  0  0  0  0
  3 12  1  0  0  0  0
  3 35  1  0  0  0  0
  4 13  1  0  0  0  0
  4 36  1  0  0  0  0
  5 14  1  0  0  0  0
  5 37  1  0  0  0  0
  6 17  1  0  0  0  0
  6 40  1  0  0  0  0
  7 22  1  0  0  0  0
  7 23  1  0  0  0  0
  7 47  1  0  0  0  0
  8 24  1  0  0  0  0
  8 26  1  0  0  0  0
  8 48  1  0  0  0  0
  9 23  2  0  0  0  0
  9 27  1  0  0  0  0
 10 25  1  0  0  0  0
 10 26  2  0  0  0  0
 11 25  1  0  0  0  0
 11 27  2  0  0  0  0
 12 13  1  0  0  0  0
 12 14  1  0  0  0  0
 12 28  1  0  0  0  0
 13 15  1  0  0  0  0
 13 29  1  0  0  0  0
 14 16  1  0  0  0  0
 14 30  1  0  0  0  0
 15 17  1  0  0  0  0
 15 31  1  0  0  0  0
 16 32  1  0  0  0  0
 17 33  1  0  0  0  0
 17 34  1  0  0  0  0
 18 19  1  0  0  0  0
 18 38  1  0  0  0  0
 18 39  1  0  0  0  0
 19 20  2  0  0  0  0
 19 21  1  0  0  0  0
 20 22  1  0  0  0  0
 20 41  1  0  0  0  0
 21 42  1  0  0  0  0
 21 43  1  0  0  0  0
 21 44  1  0  0  0  0
 22 45  1  0  0  0  0
 22 46  1  0  0  0  0
 23 24  1  0  0  0  0
 24 25  2  0  0  0  0
 26 49  1  0  0  0  0
 27 50  1  0  0  0  0
M  END
> <PUBCHEM_COMPOUND_CID>
5461146

> <PUBCHEM_CONFORMER_RMSD>
1.2

> <PUBCHEM_CONFORMER_DIVERSEORDER>
1
121
58
14
78
96
188
8
80
129
184
73
126
89
143
105
123
41
71
95
109
2
182
92
4
191
13
226
31
111
49
167
68
203
136
88
170
28
113
66
45
22
104
36
208
30
11
127
9
202
10
209
16
102
91
140
217
198
26
117
81
195
196
142
131
65
39
221
192
112
159
152
23
133
98
48
168
61
90
114
29
12
20
97
218
52
124
57
101
199
72
139
141
25
33
99
228
47
197
74
183
59
156
38
175
122
162
153
93
51
166
32
83
190
216
118
100
87
201
70
211
17
130
135
19
176
54
119
82
103
204
224
24
43
179
154
219
37
205
189
177
53
64
158
213
75
174
34
86
106
164
171
194
56
193
3
62
79
165
6
115
116
84
145
35
200
76
207
128
137
50
212
94
120
7
63
172
110
223
161
40
77
132
187
146
67
220
42
46
157
160
108
149
18
69
163
21
169
186
180
27
178
210
181
148
214
147
15
5
60
229
134
151
125
222
138
215
150
206
227
44
225
155
173
185
55
144
85
107

> <PUBCHEM_MMFF94_PARTIAL_CHARGES>
36
1 -0.56
10 -0.57
11 -0.57
12 0.28
13 0.28
14 0.28
15 0.28
16 0.56
17 0.28
18 0.42
19 -0.28
2 -0.56
20 -0.29
21 0.14
22 0.51
23 0.41
24 -0.15
25 0.48
26 0.04
27 0.47
3 -0.68
35 0.4
36 0.4
37 0.4
4 -0.68
40 0.4
41 0.15
47 0.4
48 0.27
49 0.15
5 -0.68
50 0.15
6 -0.68
7 -0.87
8 0.03
9 -0.62

> <PUBCHEM_EFFECTIVE_ROTOR_COUNT>
8.2

> <PUBCHEM_PHARMACOPHORE_FEATURES>
19
1 1 acceptor
1 2 acceptor
1 21 hydrophobe
1 3 acceptor
1 3 donor
1 4 acceptor
1 4 donor
1 5 acceptor
1 5 donor
1 6 acceptor
1 6 donor
1 7 donor
1 8 donor
3 7 9 23 cation
3 8 10 26 cation
3 9 11 27 cation
5 8 10 24 25 26 rings
6 1 12 13 14 15 16 rings
6 9 11 23 24 25 27 rings

> <PUBCHEM_HEAVY_ATOM_COUNT>
27

> <PUBCHEM_ATOM_DEF_STEREO_COUNT>
5

> <PUBCHEM_ATOM_UDEF_STEREO_COUNT>
0

> <PUBCHEM_BOND_DEF_STEREO_COUNT>
1

> <PUBCHEM_BOND_UDEF_STEREO_COUNT>
0

> <PUBCHEM_ISOTOPIC_ATOM_COUNT>
0

> <PUBCHEM_COMPONENT_COUNT>
1

> <PUBCHEM_CACTVS_TAUTO_COUNT>
8

> <PUBCHEM_CONFORMER_ID>
0053549A00000001

> <PUBCHEM_MMFF94_ENERGY>
59.6017

> <PUBCHEM_FEATURE_SELFOVERLAP>
96.716

> <PUBCHEM_SHAPE_FINGERPRINT>
10 15 15791738485595375440
10299344 5 18261110776976687863
10595046 47 18334856138385080273
11315181 36 18040714750191228697
11719270 70 17240480338012383078
11724838 91 18334014982768793388
12236239 1 18187363233429672677
13533116 47 18410855490762664986
1361 2 18413387661668007130
14068700 675 17968095309490075457
14251764 18 18261110759664969477
14461889 52 16298383565212859102
15119646 104 18410856589704969963
15183329 4 18272374165718202403
15198563 99 17060065903417444197
15419008 47 16630531717196756325
1577012 14 18261108586843962889
17857418 61 18334858333408747931
20157964 124 18343580729529969152
21315764 119 13758073039209016170
21344244 78 18335150830078863848
22061861 79 17632577167109547879
23081809 10 18334571343883855417
23522609 53 18117531038469782337
23559900 14 18129941161581751905
255183 451 18265888254760023766
3633792 109 18201723980838988265
3663271 9 18186800300761661521
4073 2 18200586991316272090
5969126 39 18201443605564420589
8988823 20 18272367573264916132

> <PUBCHEM_SHAPE_MULTIPOLES>
495.53
25.62
2.32
1.23
11.57
1.27
-0.05
4.75
-0.63
-3.84
-0.08
2
-0.01
-3.7

> <PUBCHEM_SHAPE_SELFOVERLAP>
1041.225

> <PUBCHEM_SHAPE_VOLUME>
273.7

> <PUBCHEM_COORDINATE_TYPE>
2
5
10

$$$$

