164220
  -OEChem-07051213012D

 62 65  0     0  0  0  0  0  0999 V2000
    7.1962    1.3100    0.0000 S   0  0  0  0  0  0  0  0  0  0  0  0
    8.9282    2.3100    0.0000 S   0  0  0  0  0  0  0  0  0  0  0  0
   10.6603   -0.6900    0.0000 O   0  0  0  0  0  0  0  0  0  0  0  0
    5.4641   -0.6900    0.0000 O   0  0  0  0  0  0  0  0  0  0  0  0
   10.4370    0.5760    0.0000 O   0  0  0  0  0  0  0  0  0  0  0  0
    6.3301    0.8100    0.0000 O   0  0  0  0  0  0  0  0  0  0  0  0
    8.0622   -2.1900    0.0000 N   0  0  0  0  0  0  0  0  0  0  0  0
   14.1244   -1.6900    0.0000 N   0  0  0  0  0  0  0  0  0  0  0  0
    2.0000   -1.6900    0.0000 N   0  0  0  0  0  0  0  0  0  0  0  0
    8.0622   -0.1900    0.0000 C   0  0  0  0  0  0  0  0  0  0  0  0
    7.1962   -0.6900    0.0000 C   0  0  0  0  0  0  0  0  0  0  0  0
    8.9282   -0.6900    0.0000 C   0  0  0  0  0  0  0  0  0  0  0  0
    8.0622    0.8100    0.0000 C   0  0  0  0  0  0  0  0  0  0  0  0
    8.9282   -1.6900    0.0000 C   0  0  0  0  0  0  0  0  0  0  0  0
    7.1962   -1.6900    0.0000 C   0  0  0  0  0  0  0  0  0  0  0  0
    8.9282    1.3100    0.0000 C   0  0  0  0  0  0  0  0  0  0  0  0
    9.7942   -0.1900    0.0000 C   0  0  0  0  0  0  0  0  0  0  0  0
    6.3301   -0.1900    0.0000 C   0  0  0  0  0  0  0  0  0  0  0  0
    7.1962    2.3100    0.0000 C   0  0  0  0  0  0  0  0  0  0  0  0
    6.3301   -2.1900    0.0000 C   0  0  0  0  0  0  0  0  0  0  0  0
    9.7942   -2.1900    0.0000 C   0  0  0  0  0  0  0  0  0  0  0  0
    8.0622    2.8100    0.0000 C   0  0  0  0  0  0  0  0  0  0  0  0
    9.9130    1.4836    0.0000 C   0  0  0  0  0  0  0  0  0  0  0  0
   11.5263   -0.1900    0.0000 C   0  0  0  0  0  0  0  0  0  0  0  0
    4.5981   -0.1900    0.0000 C   0  0  0  0  0  0  0  0  0  0  0  0
   12.3923   -0.6900    0.0000 C   0  0  0  0  0  0  0  0  0  0  0  0
    3.7320   -0.6900    0.0000 C   0  0  0  0  0  0  0  0  0  0  0  0
   13.2583   -0.1900    0.0000 C   0  0  0  0  0  0  0  0  0  0  0  0
    2.8660   -0.1900    0.0000 C   0  0  0  0  0  0  0  0  0  0  0  0
   12.3923   -1.6900    0.0000 C   0  0  0  0  0  0  0  0  0  0  0  0
    3.7320   -1.6900    0.0000 C   0  0  0  0  0  0  0  0  0  0  0  0
   14.1244   -0.6900    0.0000 C   0  0  0  0  0  0  0  0  0  0  0  0
    2.0000   -0.6900    0.0000 C   0  0  0  0  0  0  0  0  0  0  0  0
    2.8660   -2.1900    0.0000 C   0  0  0  0  0  0  0  0  0  0  0  0
   13.2583   -2.1900    0.0000 C   0  0  0  0  0  0  0  0  0  0  0  0
    7.5252    0.1200    0.0000 H   0  0  0  0  0  0  0  0  0  0  0  0
    8.0622   -2.8100    0.0000 H   0  0  0  0  0  0  0  0  0  0  0  0
    6.9841    2.8926    0.0000 H   0  0  0  0  0  0  0  0  0  0  0  0
    6.5856    2.2023    0.0000 H   0  0  0  0  0  0  0  0  0  0  0  0
    6.0201   -1.6531    0.0000 H   0  0  0  0  0  0  0  0  0  0  0  0
    5.7932   -2.5000    0.0000 H   0  0  0  0  0  0  0  0  0  0  0  0
    6.6401   -2.7269    0.0000 H   0  0  0  0  0  0  0  0  0  0  0  0
    9.4842   -2.7269    0.0000 H   0  0  0  0  0  0  0  0  0  0  0  0
   10.3312   -2.5000    0.0000 H   0  0  0  0  0  0  0  0  0  0  0  0
   10.1042   -1.6531    0.0000 H   0  0  0  0  0  0  0  0  0  0  0  0
    8.4607    3.2850    0.0000 H   0  0  0  0  0  0  0  0  0  0  0  0
    7.6636    3.2850    0.0000 H   0  0  0  0  0  0  0  0  0  0  0  0
   10.0207    0.8731    0.0000 H   0  0  0  0  0  0  0  0  0  0  0  0
   10.5236    1.5913    0.0000 H   0  0  0  0  0  0  0  0  0  0  0  0
    9.8054    2.0942    0.0000 H   0  0  0  0  0  0  0  0  0  0  0  0
   11.9248    0.2849    0.0000 H   0  0  0  0  0  0  0  0  0  0  0  0
   11.1278    0.2849    0.0000 H   0  0  0  0  0  0  0  0  0  0  0  0
    4.9966    0.2849    0.0000 H   0  0  0  0  0  0  0  0  0  0  0  0
    4.1996    0.2849    0.0000 H   0  0  0  0  0  0  0  0  0  0  0  0
   13.2583    0.4300    0.0000 H   0  0  0  0  0  0  0  0  0  0  0  0
    2.8660    0.4300    0.0000 H   0  0  0  0  0  0  0  0  0  0  0  0
   11.8554   -2.0000    0.0000 H   0  0  0  0  0  0  0  0  0  0  0  0
    4.2690   -2.0000    0.0000 H   0  0  0  0  0  0  0  0  0  0  0  0
   14.6613   -0.3800    0.0000 H   0  0  0  0  0  0  0  0  0  0  0  0
    1.4631   -0.3800    0.0000 H   0  0  0  0  0  0  0  0  0  0  0  0
   13.2583   -2.8100    0.0000 H   0  0  0  0  0  0  0  0  0  0  0  0
    2.8660   -2.8100    0.0000 H   0  0  0  0  0  0  0  0  0  0  0  0
  1 13  1  0  0  0  0
  1 19  1  0  0  0  0
  2 16  1  0  0  0  0
  2 22  1  0  0  0  0
  3 17  1  0  0  0  0
  3 24  1  0  0  0  0
  4 18  1  0  0  0  0
  4 25  1  0  0  0  0
  5 17  2  0  0  0  0
  6 18  2  0  0  0  0
  7 14  1  0  0  0  0
  7 15  1  0  0  0  0
  7 37  1  0  0  0  0
  8 32  2  0  0  0  0
  8 35  1  0  0  0  0
  9 33  2  0  0  0  0
  9 34  1  0  0  0  0
 10 11  1  0  0  0  0
 10 12  1  0  0  0  0
 10 13  1  0  0  0  0
 10 36  1  0  0  0  0
 11 15  2  0  0  0  0
 11 18  1  0  0  0  0
 12 14  2  0  0  0  0
 12 17  1  0  0  0  0
 13 16  2  0  0  0  0
 14 21  1  0  0  0  0
 15 20  1  0  0  0  0
 16 23  1  0  0  0  0
 19 22  1  0  0  0  0
 19 38  1  0  0  0  0
 19 39  1  0  0  0  0
 20 40  1  0  0  0  0
 20 41  1  0  0  0  0
 20 42  1  0  0  0  0
 21 43  1  0  0  0  0
 21 44  1  0  0  0  0
 21 45  1  0  0  0  0
 22 46  1  0  0  0  0
 22 47  1  0  0  0  0
 23 48  1  0  0  0  0
 23 49  1  0  0  0  0
 23 50  1  0  0  0  0
 24 26  1  0  0  0  0
 24 51  1  0  0  0  0
 24 52  1  0  0  0  0
 25 27  1  0  0  0  0
 25 53  1  0  0  0  0
 25 54  1  0  0  0  0
 26 28  2  0  0  0  0
 26 30  1  0  0  0  0
 27 29  2  0  0  0  0
 27 31  1  0  0  0  0
 28 32  1  0  0  0  0
 28 55  1  0  0  0  0
 29 33  1  0  0  0  0
 29 56  1  0  0  0  0
 30 35  2  0  0  0  0
 30 57  1  0  0  0  0
 31 34  2  0  0  0  0
 31 58  1  0  0  0  0
 32 59  1  0  0  0  0
 33 60  1  0  0  0  0
 34 62  1  0  0  0  0
 35 61  1  0  0  0  0
M  END
> <PUBCHEM_COMPOUND_CID>
164220

> <PUBCHEM_COMPOUND_CANONICALIZED>
1

> <PUBCHEM_CACTVS_COMPLEXITY>
846

> <PUBCHEM_CACTVS_HBOND_ACCEPTOR>
9

> <PUBCHEM_CACTVS_HBOND_DONOR>
1

> <PUBCHEM_CACTVS_ROTATABLE_BOND>
9

> <PUBCHEM_CACTVS_SUBSKEYS>
AAADceB7OABgAAAAAAAAAAAAAAAAAAAAAAAsWIEAAAAAAAAB4AAAHgQQAAAADQjl2ga+iJLIFAioAjT3TACCgCAxAjAI2CE4bNgIJnLgsZmGMAhk0AHo6Ua4JggKAAAAAAAAAAAAAAAAAAAAAAAAAAAAAA==

> <PUBCHEM_IUPAC_OPENEYE_NAME>
bis(4-pyridylmethyl) 2,6-dimethyl-4-(6-methyl-2,3-dihydro-1,4-dithiin-5-yl)-1,4-dihydropyridine-3,5-dicarboxylate

> <PUBCHEM_IUPAC_CAS_NAME>
2,6-dimethyl-4-(6-methyl-2,3-dihydro-1,4-dithiin-5-yl)-1,4-dihydropyridine-3,5-dicarboxylic acid bis(pyridin-4-ylmethyl) ester

> <PUBCHEM_IUPAC_NAME>
bis(pyridin-4-ylmethyl) 2,6-dimethyl-4-(6-methyl-2,3-dihydro-1,4-dithiin-5-yl)-1,4-dihydropyridine-3,5-dicarboxylate

> <PUBCHEM_IUPAC_SYSTEMATIC_NAME>
bis(pyridin-4-ylmethyl) 2,6-dimethyl-4-(6-methyl-2,3-dihydro-1,4-dithiin-5-yl)-1,4-dihydropyridine-3,5-dicarboxylate

> <PUBCHEM_IUPAC_TRADITIONAL_NAME>
2,6-dimethyl-4-(6-methyl-2,3-dihydro-1,4-dithiin-5-yl)-1,4-dihydropyridine-3,5-dicarboxylic acid bis(4-pyridylmethyl) ester

> <PUBCHEM_IUPAC_INCHI>
InChI=1S/C26H27N3O4S2/c1-16-21(25(30)32-14-19-4-8-27-9-5-19)23(24-18(3)34-12-13-35-24)22(17(2)29-16)26(31)33-15-20-6-10-28-11-7-20/h4-11,23,29H,12-15H2,1-3H3

> <PUBCHEM_IUPAC_INCHIKEY>
WKCXIRURXIDOND-UHFFFAOYSA-N

> <PUBCHEM_XLOGP3_AA>
3.2

> <PUBCHEM_EXACT_MASS>
509.144298

> <PUBCHEM_MOLECULAR_FORMULA>
C26H27N3O4S2

> <PUBCHEM_MOLECULAR_WEIGHT>
509.64028

> <PUBCHEM_OPENEYE_CAN_SMILES>
CC1=C(C(C(=C(N1)C)C(=O)OCC2=CC=NC=C2)C3=C(SCCS3)C)C(=O)OCC4=CC=NC=C4

> <PUBCHEM_OPENEYE_ISO_SMILES>
CC1=C(C(C(=C(N1)C)C(=O)OCC2=CC=NC=C2)C3=C(SCCS3)C)C(=O)OCC4=CC=NC=C4

> <PUBCHEM_CACTVS_TPSA>
141

> <PUBCHEM_MONOISOTOPIC_WEIGHT>
509.144298

> <PUBCHEM_TOTAL_CHARGE>
0

> <PUBCHEM_HEAVY_ATOM_COUNT>
35

> <PUBCHEM_ATOM_DEF_STEREO_COUNT>
0

> <PUBCHEM_ATOM_UDEF_STEREO_COUNT>
0

> <PUBCHEM_BOND_DEF_STEREO_COUNT>
0

> <PUBCHEM_BOND_UDEF_STEREO_COUNT>
0

> <PUBCHEM_ISOTOPIC_ATOM_COUNT>
0

> <PUBCHEM_COMPONENT_COUNT>
1

> <PUBCHEM_CACTVS_TAUTO_COUNT>
3

> <PUBCHEM_COORDINATE_TYPE>
1
5
255

> <PUBCHEM_BONDANNOTATIONS>
26  28  8
26  30  8
27  29  8
27  31  8
28  32  8
29  33  8
30  35  8
31  34  8
8  32  8
8  35  8
9  33  8
9  34  8

$$$$

