583370
  -OEChem-06241222453D

 34 35  0     1  0  0  0  0  0999 V2000
    0.2419    1.5843   -0.1759 N   0  0  0  0  0  0  0  0  0  0  0  0
    0.4083    0.1554    0.1435 C   0  0  1  0  0  0  0  0  0  0  0  0
   -0.5083   -0.6625   -0.7985 C   0  0  0  0  0  0  0  0  0  0  0  0
    1.8627   -0.2587    0.0497 C   0  0  0  0  0  0  0  0  0  0  0  0
   -1.9531   -0.6156   -0.4311 C   0  0  0  0  0  0  0  0  0  0  0  0
    2.3344   -1.2563    0.8839 C   0  0  0  0  0  0  0  0  0  0  0  0
    2.6847    0.3701   -0.8682 C   0  0  0  0  0  0  0  0  0  0  0  0
   -2.4818   -1.5659    0.4426 C   0  0  0  0  0  0  0  0  0  0  0  0
   -2.7757    0.3788   -0.9608 C   0  0  0  0  0  0  0  0  0  0  0  0
    3.6733   -1.6377    0.7974 C   0  0  0  0  0  0  0  0  0  0  0  0
    4.0236   -0.0116   -0.9547 C   0  0  0  0  0  0  0  0  0  0  0  0
   -3.8329   -1.5220    0.7864 C   0  0  0  0  0  0  0  0  0  0  0  0
   -4.1268    0.4226   -0.6167 C   0  0  0  0  0  0  0  0  0  0  0  0
    4.5178   -1.0155   -0.1218 C   0  0  0  0  0  0  0  0  0  0  0  0
   -4.6553   -0.5278    0.2568 C   0  0  0  0  0  0  0  0  0  0  0  0
    0.3643    2.3396    0.8521 C   0  0  0  0  0  0  0  0  0  0  0  0
    0.2228    3.8229    0.7153 C   0  0  0  0  0  0  0  0  0  0  0  0
    0.0731   -0.0360    1.1747 H   0  0  0  0  0  0  0  0  0  0  0  0
   -0.1891   -1.7143   -0.8029 H   0  0  0  0  0  0  0  0  0  0  0  0
   -0.3779   -0.3273   -1.8371 H   0  0  0  0  0  0  0  0  0  0  0  0
    1.6839   -1.7486    1.6008 H   0  0  0  0  0  0  0  0  0  0  0  0
    2.3214    1.1425   -1.5392 H   0  0  0  0  0  0  0  0  0  0  0  0
   -1.8510   -2.3440    0.8644 H   0  0  0  0  0  0  0  0  0  0  0  0
   -2.3773    1.1249   -1.6431 H   0  0  0  0  0  0  0  0  0  0  0  0
    4.0580   -2.4201    1.4451 H   0  0  0  0  0  0  0  0  0  0  0  0
    4.6806    0.4700   -1.6730 H   0  0  0  0  0  0  0  0  0  0  0  0
   -4.2444   -2.2615    1.4672 H   0  0  0  0  0  0  0  0  0  0  0  0
   -4.7674    1.1967   -1.0290 H   0  0  0  0  0  0  0  0  0  0  0  0
    5.5600   -1.3135   -0.1900 H   0  0  0  0  0  0  0  0  0  0  0  0
   -5.7072   -0.4935    0.5247 H   0  0  0  0  0  0  0  0  0  0  0  0
    0.5791    1.9606    1.8673 H   0  0  0  0  0  0  0  0  0  0  0  0
   -0.5893    4.1614    1.3638 H   0  0  0  0  0  0  0  0  0  0  0  0
    1.1518    4.2977    1.0409 H   0  0  0  0  0  0  0  0  0  0  0  0
    0.0090    4.1043   -0.3187 H   0  0  0  0  0  0  0  0  0  0  0  0
  1  2  1  0  0  0  0
  1 16  2  0  0  0  0
  2  3  1  0  0  0  0
  2  4  1  0  0  0  0
  2 18  1  0  0  0  0
  3  5  1  0  0  0  0
  3 19  1  0  0  0  0
  3 20  1  0  0  0  0
  4  6  2  0  0  0  0
  4  7  1  0  0  0  0
  5  8  2  0  0  0  0
  5  9  1  0  0  0  0
  6 10  1  0  0  0  0
  6 21  1  0  0  0  0
  7 11  2  0  0  0  0
  7 22  1  0  0  0  0
  8 12  1  0  0  0  0
  8 23  1  0  0  0  0
  9 13  2  0  0  0  0
  9 24  1  0  0  0  0
 10 14  2  0  0  0  0
 10 25  1  0  0  0  0
 11 14  1  0  0  0  0
 11 26  1  0  0  0  0
 12 15  2  0  0  0  0
 12 27  1  0  0  0  0
 13 15  1  0  0  0  0
 13 28  1  0  0  0  0
 14 29  1  0  0  0  0
 15 30  1  0  0  0  0
 16 17  1  0  0  0  0
 16 31  1  0  0  0  0
 17 32  1  0  0  0  0
 17 33  1  0  0  0  0
 17 34  1  0  0  0  0
M  END
> <PUBCHEM_COMPOUND_CID>
583370

> <PUBCHEM_CONFORMER_RMSD>
0.6

> <PUBCHEM_CONFORMER_DIVERSEORDER>
1
4
28
19
23
17
22
31
16
27
3
8
6
15
30
11
20
26
33
5
32
21
29
25
24
7
10
2
12
9
14
13
18

> <PUBCHEM_MMFF94_PARTIAL_CHARGES>
28
1 -0.7
10 -0.15
11 -0.15
12 -0.15
13 -0.15
14 -0.15
15 -0.15
16 0.33
17 0.06
2 0.39
21 0.15
22 0.15
23 0.15
24 0.15
25 0.15
26 0.15
27 0.15
28 0.15
29 0.15
3 0.14
30 0.15
31 0.06
4 -0.14
5 -0.14
6 -0.15
7 -0.15
8 -0.15
9 -0.15

> <PUBCHEM_EFFECTIVE_ROTOR_COUNT>
4

> <PUBCHEM_PHARMACOPHORE_FEATURES>
3
1 1 acceptor
6 4 6 7 10 11 14 rings
6 5 8 9 12 13 15 rings

> <PUBCHEM_HEAVY_ATOM_COUNT>
17

> <PUBCHEM_ATOM_DEF_STEREO_COUNT>
0

> <PUBCHEM_ATOM_UDEF_STEREO_COUNT>
1

> <PUBCHEM_BOND_DEF_STEREO_COUNT>
0

> <PUBCHEM_BOND_UDEF_STEREO_COUNT>
0

> <PUBCHEM_ISOTOPIC_ATOM_COUNT>
0

> <PUBCHEM_COMPONENT_COUNT>
1

> <PUBCHEM_CACTVS_TAUTO_COUNT>
1

> <PUBCHEM_CONFORMER_ID>
0008E6CA00000001

> <PUBCHEM_MMFF94_ENERGY>
47.9058

> <PUBCHEM_FEATURE_SELFOVERLAP>
15.223

> <PUBCHEM_SHAPE_FINGERPRINT>
10130415 120 18410858771558503031
10366900 7 18131071481452878267
104564 63 18116430530097622785
10465860 250 18411142454169613255
12119455 92 7997970150319661122
121448 382 11527372741548852577
124424 183 18411705396055385119
12553582 1 18334864913193228462
12633257 1 18262499422172872323
12707595 3 18408323254869096671
12788726 201 18266457788164456546
128620 24 12031790266532752371
13052359 8 17978513362124649977
13134695 92 18334584507647712693
14178342 30 17908718567954906210
14252887 29 18040992951748946454
14866123 147 17257656049800350643
15375462 189 18342460322327512178
15848700 24 17968105234578656268
16752209 62 18264216987424457820
17804303 29 18342737391131799463
1813 80 17895183407406102052
18186145 218 16845299349356987174
18222031 100 18040438784586634863
18785283 64 17910112408737405768
19078846 21 18335132116072644809
200 152 18273214222835347386
20097449 115 18334016081521233648
20233049 118 18412262830806516332
20339313 130 18187922846230571224
20600515 1 17822278068386065552
20671657 1 18118683210669786485
20671657 53 18334289851384475281
21033648 29 16877951572205900259
21041028 32 18334007281492102729
21250096 35 18411139142834386554
23175994 123 18335416876836304997
23402539 116 18040725800187195495
23557571 272 18115309016011616376
23558518 356 17688310509245941902
23559900 14 18059861627426507253
26918003 58 18201444705033427482
3004659 81 17988645246184794850
314173 85 18113897186851195318
3286 77 18339361860422367287
34934 24 18188776024900158116
4214541 1 17917995009607555367
5104073 3 17988925573882569889
6049 1 18129109931175917693
6438718 38 17605275284259561289
68521 5 18336262456907294420
69090 78 9151162156451558108
7164475 11 18266738181041588420
7364860 26 18118685413629339137
7495541 125 18340482254033625147
74978 22 18189341169323424247
77779 3 17847059986650137607
81228 2 18043802302436271904

> <PUBCHEM_SHAPE_MULTIPOLES>
344.87
8.84
2.62
1.05
1.46
3.49
0.03
-4.8
0.5
-0.36
-1.2
-0.14
0.03
0.11

> <PUBCHEM_SHAPE_SELFOVERLAP>
725.511

> <PUBCHEM_SHAPE_VOLUME>
194

> <PUBCHEM_COORDINATE_TYPE>
2
5
10

$$$$

