441583
  -OEChem-07051212553D

 48 51  0     1  0  0  0  0  0999 V2000
   -1.2983    2.2852   -0.1921 O   0  0  0  0  0  0  0  0  0  0  0  0
    0.3862    3.0500    1.1136 O   0  0  0  0  0  0  0  0  0  0  0  0
    2.7267    1.9599    0.9147 O   0  0  0  0  0  0  0  0  0  0  0  0
    2.8583   -2.4977   -0.7530 O   0  0  0  0  0  0  0  0  0  0  0  0
    4.1203   -0.3193    0.3871 O   0  0  0  0  0  0  0  0  0  0  0  0
   -2.2753   -1.9190    0.6636 N   0  0  2  0  0  0  0  0  0  0  0  0
   -2.2848   -0.4618    0.3717 C   0  0  1  0  0  0  0  0  0  0  0  0
   -1.4101   -0.0711   -0.8407 C   0  0  1  0  0  0  0  0  0  0  0  0
   -1.6930    1.3826   -1.2561 C   0  0  1  0  0  0  0  0  0  0  0  0
   -3.7239   -0.1194    0.1213 C   0  0  0  0  0  0  0  0  0  0  0  0
   -4.5598   -1.1310    0.8193 C   0  0  0  0  0  0  0  0  0  0  0  0
   -3.1804    1.6357   -1.5612 C   0  0  0  0  0  0  0  0  0  0  0  0
   -3.6866   -2.3650    0.6236 C   0  0  0  0  0  0  0  0  0  0  0  0
    0.0613   -0.1450   -0.5239 C   0  0  0  0  0  0  0  0  0  0  0  0
   -4.1370    0.8145   -0.7432 C   0  0  0  0  0  0  0  0  0  0  0  0
    0.7029    0.9605    0.0512 C   0  0  0  0  0  0  0  0  0  0  0  0
   -1.6834   -2.1951    1.9738 C   0  0  0  0  0  0  0  0  0  0  0  0
    0.7993   -1.3047   -0.7912 C   0  0  0  0  0  0  0  0  0  0  0  0
   -0.0632    2.1889    0.3693 C   0  0  0  0  0  0  0  0  0  0  0  0
    2.0653    0.9022    0.3624 C   0  0  0  0  0  0  0  0  0  0  0  0
    2.1589   -1.3596   -0.4848 C   0  0  0  0  0  0  0  0  0  0  0  0
    2.7901   -0.2583    0.0909 C   0  0  0  0  0  0  0  0  0  0  0  0
    3.3236    2.8900    0.0148 C   0  0  0  0  0  0  0  0  0  0  0  0
    3.4706   -2.5944   -2.0374 C   0  0  0  0  0  0  0  0  0  0  0  0
    4.5322   -1.3281    1.3060 C   0  0  0  0  0  0  0  0  0  0  0  0
   -1.9735    0.1013    1.2638 H   0  0  0  0  0  0  0  0  0  0  0  0
   -1.6357   -0.7203   -1.6988 H   0  0  0  0  0  0  0  0  0  0  0  0
   -1.1075    1.6672   -2.1411 H   0  0  0  0  0  0  0  0  0  0  0  0
   -4.6595   -0.8781    1.8803 H   0  0  0  0  0  0  0  0  0  0  0  0
   -5.5517   -1.2597    0.3776 H   0  0  0  0  0  0  0  0  0  0  0  0
   -3.3671    1.3878   -2.6134 H   0  0  0  0  0  0  0  0  0  0  0  0
   -3.4196    2.6966   -1.4240 H   0  0  0  0  0  0  0  0  0  0  0  0
   -3.9199   -3.1498    1.3526 H   0  0  0  0  0  0  0  0  0  0  0  0
   -3.8739   -2.7946   -0.3695 H   0  0  0  0  0  0  0  0  0  0  0  0
   -5.1987    0.9523   -0.9256 H   0  0  0  0  0  0  0  0  0  0  0  0
   -0.6466   -1.8443    2.0116 H   0  0  0  0  0  0  0  0  0  0  0  0
   -1.6556   -3.2750    2.1567 H   0  0  0  0  0  0  0  0  0  0  0  0
   -2.2378   -1.7214    2.7922 H   0  0  0  0  0  0  0  0  0  0  0  0
    0.3125   -2.1687   -1.2374 H   0  0  0  0  0  0  0  0  0  0  0  0
    2.5900    3.2719   -0.7024 H   0  0  0  0  0  0  0  0  0  0  0  0
    4.1569    2.4225   -0.5190 H   0  0  0  0  0  0  0  0  0  0  0  0
    3.7111    3.7299    0.5979 H   0  0  0  0  0  0  0  0  0  0  0  0
    4.1909   -1.7833   -2.1841 H   0  0  0  0  0  0  0  0  0  0  0  0
    2.7118   -2.5705   -2.8260 H   0  0  0  0  0  0  0  0  0  0  0  0
    4.0023   -3.5482   -2.0922 H   0  0  0  0  0  0  0  0  0  0  0  0
    4.9069   -2.2000    0.7627 H   0  0  0  0  0  0  0  0  0  0  0  0
    3.7278   -1.6212    1.9898 H   0  0  0  0  0  0  0  0  0  0  0  0
    5.3551   -0.9236    1.9029 H   0  0  0  0  0  0  0  0  0  0  0  0
  1  9  1  0  0  0  0
  1 19  1  0  0  0  0
  2 19  2  0  0  0  0
  3 20  1  0  0  0  0
  3 23  1  0  0  0  0
  4 21  1  0  0  0  0
  4 24  1  0  0  0  0
  5 22  1  0  0  0  0
  5 25  1  0  0  0  0
  6  7  1  0  0  0  0
  6 13  1  0  0  0  0
  6 17  1  0  0  0  0
  7  8  1  0  0  0  0
  7 10  1  0  0  0  0
  7 26  1  0  0  0  0
  8  9  1  0  0  0  0
  8 14  1  0  0  0  0
  8 27  1  0  0  0  0
  9 12  1  0  0  0  0
  9 28  1  0  0  0  0
 10 11  1  0  0  0  0
 10 15  2  0  0  0  0
 11 13  1  0  0  0  0
 11 29  1  0  0  0  0
 11 30  1  0  0  0  0
 12 15  1  0  0  0  0
 12 31  1  0  0  0  0
 12 32  1  0  0  0  0
 13 33  1  0  0  0  0
 13 34  1  0  0  0  0
 14 16  1  0  0  0  0
 14 18  2  0  0  0  0
 15 35  1  0  0  0  0
 16 19  1  0  0  0  0
 16 20  2  0  0  0  0
 17 36  1  0  0  0  0
 17 37  1  0  0  0  0
 17 38  1  0  0  0  0
 18 21  1  0  0  0  0
 18 39  1  0  0  0  0
 20 22  1  0  0  0  0
 21 22  2  0  0  0  0
 23 40  1  0  0  0  0
 23 41  1  0  0  0  0
 23 42  1  0  0  0  0
 24 43  1  0  0  0  0
 24 44  1  0  0  0  0
 24 45  1  0  0  0  0
 25 46  1  0  0  0  0
 25 47  1  0  0  0  0
 25 48  1  0  0  0  0
M  END
> <PUBCHEM_COMPOUND_CID>
441583

> <PUBCHEM_CONFORMER_RMSD>
0.8

> <PUBCHEM_CONFORMER_DIVERSEORDER>
2
5
4
3
1

> <PUBCHEM_MMFF94_PARTIAL_CHARGES>
27
1 -0.43
10 -0.28
11 0.14
12 0.14
13 0.27
14 -0.14
15 -0.29
16 0.09
17 0.27
18 -0.15
19 0.63
2 -0.57
20 0.08
21 0.08
22 0.08
23 0.28
24 0.28
25 0.28
3 -0.36
35 0.15
39 0.15
4 -0.36
5 -0.36
6 -0.81
7 0.41
8 0.14
9 0.28

> <PUBCHEM_EFFECTIVE_ROTOR_COUNT>
4

> <PUBCHEM_PHARMACOPHORE_FEATURES>
9
1 2 acceptor
1 3 acceptor
1 4 acceptor
1 5 acceptor
1 6 cation
5 6 7 10 11 13 rings
6 1 8 9 14 16 19 rings
6 14 16 18 20 21 22 rings
6 7 8 9 10 12 15 rings

> <PUBCHEM_HEAVY_ATOM_COUNT>
25

> <PUBCHEM_ATOM_DEF_STEREO_COUNT>
3

> <PUBCHEM_ATOM_UDEF_STEREO_COUNT>
0

> <PUBCHEM_BOND_DEF_STEREO_COUNT>
0

> <PUBCHEM_BOND_UDEF_STEREO_COUNT>
0

> <PUBCHEM_ISOTOPIC_ATOM_COUNT>
0

> <PUBCHEM_COMPONENT_COUNT>
1

> <PUBCHEM_CACTVS_TAUTO_COUNT>
1

> <PUBCHEM_CONFORMER_ID>
0006BCEF00000002

> <PUBCHEM_MMFF94_ENERGY>
105.0273

> <PUBCHEM_FEATURE_SELFOVERLAP>
45.89

> <PUBCHEM_SHAPE_FINGERPRINT>
10366900 7 18340764845148042303
10906281 52 18262233447052760932
1100329 8 16754381037946385419
11578080 2 16987746565440091908
11582403 64 16754175102739023525
12236239 1 16081096986826699999
12293681 4 18337961215167426705
12506688 2 18410569557156311105
12553582 1 18120361314258151210
12623949 98 18047450267696603479
12633257 1 18410287025812766483
12714826 92 17988346157446619147
12788726 201 18192719057980387008
13140716 1 18410859866807085049
13224815 77 18408880711490820269
13402501 40 18341051822093734931
13583140 156 17415035467412818508
14223421 5 18411416193957651292
14251757 17 18341056331972796059
14790565 3 17690554191577595884
14866123 147 17470435704871169003
14955137 171 18187363217199233120
15219456 202 18411987923014343989
16752209 62 17418096529306992619
16945 1 18265332995990125284
1813 80 16916505844507293349
19049666 15 18412548729963538437
19591789 44 17761209908590250692
20600515 1 18272373130272531276
20693207 138 18341042008035305279
221490 88 18409727387337178220
23175994 123 18261670492988534149
23557571 272 18130782330694136197
23558518 356 17901665187323751528
23559900 14 18340770463418926686
2748010 2 18409172099273168700
5104073 3 18412827962898957505
81228 2 17829325031919549600
8809292 202 18343868822497395049
9709674 26 18337113461579247855

> <PUBCHEM_SHAPE_MULTIPOLES>
480.16
8.23
3.37
1.45
0.1
0.72
-0.18
-3.01
0.54
1.3
0.26
0.26
-0.61
2.38

> <PUBCHEM_SHAPE_SELFOVERLAP>
1048.215

> <PUBCHEM_SHAPE_VOLUME>
262.1

> <PUBCHEM_COORDINATE_TYPE>
2
5
10

$$$$

