439883
  -OEChem-07051212472D

 61 63  0     1  0  0  0  0  0999 V2000
    6.3301   -0.7301    0.0000 P   0  0  3  0  0  0  0  0  0  0  0  0
    7.1962    0.7699    0.0000 P   0  0  3  0  0  0  0  0  0  0  0  0
    9.8418    2.3632    0.0000 O   0  0  0  0  0  0  0  0  0  0  0  0
    4.5981   -1.7300    0.0000 O   0  0  0  0  0  0  0  0  0  0  0  0
    8.2896    4.4336    0.0000 O   0  0  0  0  0  0  0  0  0  0  0  0
    6.3301   -1.7300    0.0000 O   0  0  0  0  0  0  0  0  0  0  0  0
    8.0622    1.2700    0.0000 O   0  0  0  0  0  0  0  0  0  0  0  0
    4.5981   -4.7300    0.0000 O   0  0  0  0  0  0  0  0  0  0  0  0
    6.3301   -3.7300    0.0000 O   0  0  0  0  0  0  0  0  0  0  0  0
    2.8660   -3.7300    0.0000 O   0  0  0  0  0  0  0  0  0  0  0  0
    6.3301    0.2699    0.0000 O   0  0  0  0  0  0  0  0  0  0  0  0
    2.8660   -0.7301    0.0000 O   0  0  0  0  0  0  0  0  0  0  0  0
   11.3244    1.2793    0.0000 O   0  0  0  0  0  0  0  0  0  0  0  0
    2.0000   -2.2300    0.0000 O   0  0  0  0  0  0  0  0  0  0  0  0
    7.3301   -0.7301    0.0000 O   0  0  0  0  0  0  0  0  0  0  0  0
    6.6962    1.6360    0.0000 O   0  0  0  0  0  0  0  0  0  0  0  0
    5.3301   -0.7301    0.0000 O   0  0  0  0  0  0  0  0  0  0  0  0
    7.6962   -0.0961    0.0000 O   0  0  0  0  0  0  0  0  0  0  0  0
   14.4890    2.6882    0.0000 O   0  0  0  0  0  0  0  0  0  0  0  0
   11.5054    3.0018    0.0000 N   0  0  0  0  0  0  0  0  0  0  0  0
   12.9067    1.9838    0.0000 N   0  0  0  0  0  0  0  0  0  0  0  0
    9.0327    3.7645    0.0000 C   0  0  2  0  0  0  0  0  0  0  0  0
    8.9282    2.7700    0.0000 C   0  0  1  0  0  0  0  0  0  0  0  0
   10.0109    3.9724    0.0000 C   0  0  0  0  0  0  0  0  0  0  0  0
   10.5109    3.1064    0.0000 C   0  0  1  0  0  0  0  0  0  0  0  0
    4.5981   -3.7300    0.0000 C   0  0  2  0  0  0  0  0  0  0  0  0
    5.4641   -3.2300    0.0000 C   0  0  2  0  0  0  0  0  0  0  0  0
    3.7320   -3.2300    0.0000 C   0  0  2  0  0  0  0  0  0  0  0  0
    5.4641   -2.2300    0.0000 C   0  0  2  0  0  0  0  0  0  0  0  0
    3.7320   -2.2300    0.0000 C   0  0  1  0  0  0  0  0  0  0  0  0
    8.0622    2.2700    0.0000 C   0  0  0  0  0  0  0  0  0  0  0  0
   12.0932    3.8108    0.0000 C   0  0  0  0  0  0  0  0  0  0  0  0
   11.9121    2.0883    0.0000 C   0  0  0  0  0  0  0  0  0  0  0  0
    2.8660   -1.7300    0.0000 C   0  0  0  0  0  0  0  0  0  0  0  0
   13.0877    3.7063    0.0000 C   0  0  0  0  0  0  0  0  0  0  0  0
   13.4944    2.7928    0.0000 C   0  0  0  0  0  0  0  0  0  0  0  0
   13.6755    4.5153    0.0000 C   0  0  0  0  0  0  0  0  0  0  0  0
    9.1932    4.3633    0.0000 H   0  0  0  0  0  0  0  0  0  0  0  0
    8.9606    2.1508    0.0000 H   0  0  0  0  0  0  0  0  0  0  0  0
   10.5773    4.2246    0.0000 H   0  0  0  0  0  0  0  0  0  0  0  0
    9.8193    4.5620    0.0000 H   0  0  0  0  0  0  0  0  0  0  0  0
   10.7331    2.5275    0.0000 H   0  0  0  0  0  0  0  0  0  0  0  0
    5.1350   -4.0400    0.0000 H   0  0  0  0  0  0  0  0  0  0  0  0
    5.4641   -3.8500    0.0000 H   0  0  0  0  0  0  0  0  0  0  0  0
    3.7320   -3.8500    0.0000 H   0  0  0  0  0  0  0  0  0  0  0  0
    5.4641   -1.6100    0.0000 H   0  0  0  0  0  0  0  0  0  0  0  0
    3.7320   -1.6100    0.0000 H   0  0  0  0  0  0  0  0  0  0  0  0
    7.8501    2.8526    0.0000 H   0  0  0  0  0  0  0  0  0  0  0  0
    7.4516    2.1623    0.0000 H   0  0  0  0  0  0  0  0  0  0  0  0
    8.4185    5.0400    0.0000 H   0  0  0  0  0  0  0  0  0  0  0  0
   11.8410    4.3772    0.0000 H   0  0  0  0  0  0  0  0  0  0  0  0
    5.1350   -5.0400    0.0000 H   0  0  0  0  0  0  0  0  0  0  0  0
    6.8671   -3.4200    0.0000 H   0  0  0  0  0  0  0  0  0  0  0  0
    2.8660   -4.3501    0.0000 H   0  0  0  0  0  0  0  0  0  0  0  0
   13.1588    1.4174    0.0000 H   0  0  0  0  0  0  0  0  0  0  0  0
   14.1771    4.1509    0.0000 H   0  0  0  0  0  0  0  0  0  0  0  0
   14.0399    5.0169    0.0000 H   0  0  0  0  0  0  0  0  0  0  0  0
   13.1739    4.8798    0.0000 H   0  0  0  0  0  0  0  0  0  0  0  0
    2.3291   -0.4201    0.0000 H   0  0  0  0  0  0  0  0  0  0  0  0
    7.6401   -1.2670    0.0000 H   0  0  0  0  0  0  0  0  0  0  0  0
    6.0762    1.6360    0.0000 H   0  0  0  0  0  0  0  0  0  0  0  0
  1  6  1  0  0  0  0
  1 11  1  0  0  0  0
  1 15  1  0  0  0  0
  1 17  2  0  0  0  0
  2  7  1  0  0  0  0
  2 11  1  0  0  0  0
  2 16  1  0  0  0  0
  2 18  2  0  0  0  0
  3 23  1  0  0  0  0
  3 25  1  0  0  0  0
  4 29  1  0  0  0  0
  4 30  1  0  0  0  0
 22  5  1  1  0  0  0
  5 50  1  0  0  0  0
 29  6  1  6  0  0  0
  7 31  1  0  0  0  0
 26  8  1  1  0  0  0
  8 52  1  0  0  0  0
 27  9  1  6  0  0  0
  9 53  1  0  0  0  0
 28 10  1  1  0  0  0
 10 54  1  0  0  0  0
 12 34  1  0  0  0  0
 12 59  1  0  0  0  0
 13 33  2  0  0  0  0
 14 34  2  0  0  0  0
 15 60  1  0  0  0  0
 16 61  1  0  0  0  0
 19 36  2  0  0  0  0
 25 20  1  6  0  0  0
 20 32  1  0  0  0  0
 20 33  1  0  0  0  0
 21 33  1  0  0  0  0
 21 36  1  0  0  0  0
 21 55  1  0  0  0  0
 22 23  1  0  0  0  0
 22 24  1  0  0  0  0
 22 38  1  0  0  0  0
 23 31  1  6  0  0  0
 23 39  1  0  0  0  0
 24 25  1  0  0  0  0
 24 40  1  0  0  0  0
 24 41  1  0  0  0  0
 25 42  1  0  0  0  0
 26 27  1  0  0  0  0
 26 28  1  0  0  0  0
 26 43  1  0  0  0  0
 27 29  1  0  0  0  0
 27 44  1  0  0  0  0
 28 30  1  0  0  0  0
 28 45  1  0  0  0  0
 29 46  1  0  0  0  0
 30 34  1  1  0  0  0
 30 47  1  0  0  0  0
 31 48  1  0  0  0  0
 31 49  1  0  0  0  0
 32 35  2  0  0  0  0
 32 51  1  0  0  0  0
 35 36  1  0  0  0  0
 35 37  1  0  0  0  0
 37 56  1  0  0  0  0
 37 57  1  0  0  0  0
 37 58  1  0  0  0  0
M  END
> <PUBCHEM_COMPOUND_CID>
439883

> <PUBCHEM_COMPOUND_CANONICALIZED>
1

> <PUBCHEM_CACTVS_COMPLEXITY>
1050

> <PUBCHEM_CACTVS_HBOND_ACCEPTOR>
17

> <PUBCHEM_CACTVS_HBOND_DONOR>
8

> <PUBCHEM_CACTVS_ROTATABLE_BOND>
9

> <PUBCHEM_CACTVS_SUBSKEYS>
AAADceB7PgMAAAAAAAAAAAAAAAAAASAAAAAkQAAAAAAAAAAAAAAAHgAQCCAADBTxgAcDCAPABxCIQgHWWIKAAAAAAAAAAAFIAECREBYAgQQOQAAPJyIHAMH6fAZAAAAAAAAAAAAAAAAAAAAAAAAAAAAAAA==

> <PUBCHEM_IUPAC_OPENEYE_NAME>
(2S,3R,4S,5R,6R)-3,4,5-trihydroxy-6-[hydroxy-[hydroxy-[[(2R,3S,5R)-3-hydroxy-5-(5-methyl-2,4-dioxo-pyrimidin-1-yl)tetrahydrofuran-2-yl]methoxy]phosphoryl]oxy-phosphoryl]oxy-tetrahydropyran-2-carboxylic acid

> <PUBCHEM_IUPAC_CAS_NAME>
(2S,3R,4S,5R,6R)-3,4,5-trihydroxy-6-[hydroxy-[hydroxy-[[(2R,3S,5R)-3-hydroxy-5-(5-methyl-2,4-dioxo-1-pyrimidinyl)-2-oxolanyl]methoxy]phosphoryl]oxyphosphoryl]oxy-2-oxanecarboxylic acid

> <PUBCHEM_IUPAC_NAME>
(2S,3R,4S,5R,6R)-3,4,5-trihydroxy-6-[hydroxy-[hydroxy-[[(2R,3S,5R)-3-hydroxy-5-(5-methyl-2,4-dioxopyrimidin-1-yl)oxolan-2-yl]methoxy]phosphoryl]oxyphosphoryl]oxyoxane-2-carboxylic acid

> <PUBCHEM_IUPAC_SYSTEMATIC_NAME>
(2S,3R,4S,5R,6R)-6-[[[(2R,3S,5R)-5-[5-methyl-2,4-bis(oxidanylidene)pyrimidin-1-yl]-3-oxidanyl-oxolan-2-yl]methoxy-oxidanyl-phosphoryl]oxy-oxidanyl-phosphoryl]oxy-3,4,5-tris(oxidanyl)oxane-2-carboxylic acid

> <PUBCHEM_IUPAC_TRADITIONAL_NAME>
(2S,3R,4S,5R,6R)-6-[[[(2R,3S,5R)-5-(2,4-diketo-5-methyl-pyrimidin-1-yl)-3-hydroxy-tetrahydrofuran-2-yl]methoxy-hydroxy-phosphoryl]oxy-hydroxy-phosphoryl]oxy-3,4,5-trihydroxy-tetrahydropyran-2-carboxylic acid

> <PUBCHEM_IUPAC_INCHI>
InChI=1S/C16H24N2O17P2/c1-5-3-18(16(26)17-13(5)23)8-2-6(19)7(32-8)4-31-36(27,28)35-37(29,30)34-15-11(22)9(20)10(21)12(33-15)14(24)25/h3,6-12,15,19-22H,2,4H2,1H3,(H,24,25)(H,27,28)(H,29,30)(H,17,23,26)/t6-,7+,8+,9-,10+,11+,12-,15+/m0/s1

> <PUBCHEM_IUPAC_INCHIKEY>
WNUWWHMCMPDGLG-HRSYOOLJSA-N

> <PUBCHEM_XLOGP3_AA>
-5

> <PUBCHEM_EXACT_MASS>
578.055021

> <PUBCHEM_MOLECULAR_FORMULA>
C16H24N2O17P2

> <PUBCHEM_MOLECULAR_WEIGHT>
578.312484

> <PUBCHEM_OPENEYE_CAN_SMILES>
CC1=CN(C(=O)NC1=O)C2CC(C(O2)COP(=O)(O)OP(=O)(O)OC3C(C(C(C(O3)C(=O)O)O)O)O)O

> <PUBCHEM_OPENEYE_ISO_SMILES>
CC1=CN(C(=O)NC1=O)[C@H]2C[C@@H]([C@H](O2)COP(=O)(O)OP(=O)(O)O[C@@H]3[C@@H]([C@H]([C@H]([C@H](O3)C(=O)O)O)O)O)O

> <PUBCHEM_CACTVS_TPSA>
288

> <PUBCHEM_MONOISOTOPIC_WEIGHT>
578.055021

> <PUBCHEM_TOTAL_CHARGE>
0

> <PUBCHEM_HEAVY_ATOM_COUNT>
37

> <PUBCHEM_ATOM_DEF_STEREO_COUNT>
8

> <PUBCHEM_ATOM_UDEF_STEREO_COUNT>
0

> <PUBCHEM_BOND_DEF_STEREO_COUNT>
0

> <PUBCHEM_BOND_UDEF_STEREO_COUNT>
0

> <PUBCHEM_ISOTOPIC_ATOM_COUNT>
0

> <PUBCHEM_COMPONENT_COUNT>
1

> <PUBCHEM_CACTVS_TAUTO_COUNT>
3

> <PUBCHEM_COORDINATE_TYPE>
1
5
255

> <PUBCHEM_BONDANNOTATIONS>
28  10  5
25  20  6
20  32  8
20  33  8
21  33  8
21  36  8
23  31  6
30  34  5
32  35  8
35  36  8
22  5  5
29  6  6
26  8  5
27  9  6

$$$$

