9779
  -OEChem-06261204032D

 30 29  0     0  0  0  0  0  0999 V2000
    6.3671    0.5490    0.0000 F   0  0  0  0  0  0  0  0  0  0  0  0
    7.3671   -1.1830    0.0000 F   0  0  0  0  0  0  0  0  0  0  0  0
    7.2331    1.0490    0.0000 F   0  0  0  0  0  0  0  0  0  0  0  0
    8.2331   -0.6830    0.0000 F   0  0  0  0  0  0  0  0  0  0  0  0
    5.5010    0.0490    0.0000 F   0  0  0  0  0  0  0  0  0  0  0  0
    6.5010   -1.6830    0.0000 F   0  0  0  0  0  0  0  0  0  0  0  0
    9.0991   -0.1830    0.0000 F   0  0  0  0  0  0  0  0  0  0  0  0
    8.0991    1.5490    0.0000 F   0  0  0  0  0  0  0  0  0  0  0  0
    4.6350   -0.4510    0.0000 F   0  0  0  0  0  0  0  0  0  0  0  0
    5.6350   -2.1830    0.0000 F   0  0  0  0  0  0  0  0  0  0  0  0
    9.9651    0.3170    0.0000 F   0  0  0  0  0  0  0  0  0  0  0  0
    8.9651    2.0490    0.0000 F   0  0  0  0  0  0  0  0  0  0  0  0
    3.7690   -0.9510    0.0000 F   0  0  0  0  0  0  0  0  0  0  0  0
    4.7690   -2.6830    0.0000 F   0  0  0  0  0  0  0  0  0  0  0  0
   11.1972    1.1830    0.0000 F   0  0  0  0  0  0  0  0  0  0  0  0
   10.3312    2.6830    0.0000 F   0  0  0  0  0  0  0  0  0  0  0  0
    2.5369   -1.8170    0.0000 O   0  0  0  0  0  0  0  0  0  0  0  0
    6.8671   -0.3170    0.0000 C   0  0  0  0  0  0  0  0  0  0  0  0
    7.7331    0.1830    0.0000 C   0  0  0  0  0  0  0  0  0  0  0  0
    6.0010   -0.8170    0.0000 C   0  0  0  0  0  0  0  0  0  0  0  0
    8.5991    0.6830    0.0000 C   0  0  0  0  0  0  0  0  0  0  0  0
    5.1350   -1.3170    0.0000 C   0  0  0  0  0  0  0  0  0  0  0  0
    9.4651    1.1830    0.0000 C   0  0  0  0  0  0  0  0  0  0  0  0
    4.2690   -1.8170    0.0000 C   0  0  0  0  0  0  0  0  0  0  0  0
    3.4030   -2.3170    0.0000 C   0  0  0  0  0  0  0  0  0  0  0  0
   10.3312    1.6830    0.0000 C   0  0  0  0  0  0  0  0  0  0  0  0
    3.0044   -2.7919    0.0000 H   0  0  0  0  0  0  0  0  0  0  0  0
    3.8015   -2.7919    0.0000 H   0  0  0  0  0  0  0  0  0  0  0  0
   10.8681    1.9930    0.0000 H   0  0  0  0  0  0  0  0  0  0  0  0
    2.0000   -2.1270    0.0000 H   0  0  0  0  0  0  0  0  0  0  0  0
  1 18  1  0  0  0  0
  2 18  1  0  0  0  0
  3 19  1  0  0  0  0
  4 19  1  0  0  0  0
  5 20  1  0  0  0  0
  6 20  1  0  0  0  0
  7 21  1  0  0  0  0
  8 21  1  0  0  0  0
  9 22  1  0  0  0  0
 10 22  1  0  0  0  0
 11 23  1  0  0  0  0
 12 23  1  0  0  0  0
 13 24  1  0  0  0  0
 14 24  1  0  0  0  0
 15 26  1  0  0  0  0
 16 26  1  0  0  0  0
 17 25  1  0  0  0  0
 17 30  1  0  0  0  0
 18 19  1  0  0  0  0
 18 20  1  0  0  0  0
 19 21  1  0  0  0  0
 20 22  1  0  0  0  0
 21 23  1  0  0  0  0
 22 24  1  0  0  0  0
 23 26  1  0  0  0  0
 24 25  1  0  0  0  0
 25 27  1  0  0  0  0
 25 28  1  0  0  0  0
 26 29  1  0  0  0  0
M  END
> <PUBCHEM_COMPOUND_CID>
9779

> <PUBCHEM_COMPOUND_CANONICALIZED>
1

> <PUBCHEM_CACTVS_COMPLEXITY>
508

> <PUBCHEM_CACTVS_HBOND_ACCEPTOR>
17

> <PUBCHEM_CACTVS_HBOND_DONOR>
1

> <PUBCHEM_CACTVS_ROTATABLE_BOND>
8

> <PUBCHEM_CACTVS_SUBSKEYS>
AAADcYBwIcAAAAAAAAAAAAAAAAAAAAAAAAAAAAAAAAAAAAAAAAAAGwAACAAACACggBIAAAAAAgAAAAAAAAAAAAAAAAAAAAAAAAAAEAIAAAAAQAAEAAAAAAGAwKAAAAAAAAAAAAAAAAAAAAAAAAAAAAAAAA==

> <PUBCHEM_IUPAC_OPENEYE_NAME>
2,2,3,3,4,4,5,5,6,6,7,7,8,8,9,9-hexadecafluorononan-1-ol

> <PUBCHEM_IUPAC_CAS_NAME>
2,2,3,3,4,4,5,5,6,6,7,7,8,8,9,9-hexadecafluoro-1-nonanol

> <PUBCHEM_IUPAC_NAME>
2,2,3,3,4,4,5,5,6,6,7,7,8,8,9,9-hexadecafluorononan-1-ol

> <PUBCHEM_IUPAC_SYSTEMATIC_NAME>
2,2,3,3,4,4,5,5,6,6,7,7,8,8,9,9-hexadecakis(fluoranyl)nonan-1-ol

> <PUBCHEM_IUPAC_TRADITIONAL_NAME>
2,2,3,3,4,4,5,5,6,6,7,7,8,8,9,9-hexadecafluorononan-1-ol

> <PUBCHEM_IUPAC_INCHI>
InChI=1S/C9H4F16O/c10-2(11)4(14,15)6(18,19)8(22,23)9(24,25)7(20,21)5(16,17)3(12,13)1-26/h2,26H,1H2

> <PUBCHEM_IUPAC_INCHIKEY>
MSXVQELLSMPBFD-UHFFFAOYSA-N

> <PUBCHEM_XLOGP3_AA>
5.1

> <PUBCHEM_EXACT_MASS>
432.000666

> <PUBCHEM_MOLECULAR_FORMULA>
C9H4F16O

> <PUBCHEM_MOLECULAR_WEIGHT>
432.101911

> <PUBCHEM_OPENEYE_CAN_SMILES>
C(C(C(C(C(C(C(C(C(F)F)(F)F)(F)F)(F)F)(F)F)(F)F)(F)F)(F)F)O

> <PUBCHEM_OPENEYE_ISO_SMILES>
C(C(C(C(C(C(C(C(C(F)F)(F)F)(F)F)(F)F)(F)F)(F)F)(F)F)(F)F)O

> <PUBCHEM_CACTVS_TPSA>
20.2

> <PUBCHEM_MONOISOTOPIC_WEIGHT>
432.000666

> <PUBCHEM_TOTAL_CHARGE>
0

> <PUBCHEM_HEAVY_ATOM_COUNT>
26

> <PUBCHEM_ATOM_DEF_STEREO_COUNT>
0

> <PUBCHEM_ATOM_UDEF_STEREO_COUNT>
0

> <PUBCHEM_BOND_DEF_STEREO_COUNT>
0

> <PUBCHEM_BOND_UDEF_STEREO_COUNT>
0

> <PUBCHEM_ISOTOPIC_ATOM_COUNT>
0

> <PUBCHEM_COMPONENT_COUNT>
1

> <PUBCHEM_CACTVS_TAUTO_COUNT>
1

> <PUBCHEM_COORDINATE_TYPE>
1
5
255

$$$$

