92383
  -OEChem-07051213123D

 43 45  0     0  0  0  0  0  0999 V2000
    0.1766    1.5194   -2.6374 Cl  0  0  0  0  0  0  0  0  0  0  0  0
   -0.1076    5.0842    1.3825 Cl  0  0  0  0  0  0  0  0  0  0  0  0
    0.3955   -0.8828    0.9929 O   0  0  0  0  0  0  0  0  0  0  0  0
    3.0085    0.4306   -2.1313 O   0  0  0  0  0  0  0  0  0  0  0  0
   -1.8740    0.1990    1.8679 O   0  0  0  0  0  0  0  0  0  0  0  0
    1.9636   -2.6335    1.0130 N   0  0  0  0  0  0  0  0  0  0  0  0
    3.1374   -3.0189    0.4838 N   0  0  0  0  0  0  0  0  0  0  0  0
    2.4949   -0.9730   -0.3029 C   0  0  0  0  0  0  0  0  0  0  0  0
    1.5757   -1.4345    0.5589 C   0  0  0  0  0  0  0  0  0  0  0  0
    3.4569   -2.0005   -0.3192 C   0  0  0  0  0  0  0  0  0  0  0  0
    2.4740    0.2681   -1.0174 C   0  0  0  0  0  0  0  0  0  0  0  0
    1.8036    1.4783   -0.4470 C   0  0  0  0  0  0  0  0  0  0  0  0
    4.7097   -2.0536   -1.0932 C   0  0  0  0  0  0  0  0  0  0  0  0
    1.2933   -3.5008    1.9537 C   0  0  0  0  0  0  0  0  0  0  0  0
   -0.7683   -1.1831    0.2453 C   0  0  0  0  0  0  0  0  0  0  0  0
   -2.0037   -0.4917    0.8369 C   0  0  0  0  0  0  0  0  0  0  0  0
    0.7697    2.0876   -1.1178 C   0  0  0  0  0  0  0  0  0  0  0  0
    2.2758    1.9316    0.7650 C   0  0  0  0  0  0  0  0  0  0  0  0
   -3.2999   -0.6489    0.1969 C   0  0  0  0  0  0  0  0  0  0  0  0
    0.1732    3.2121   -0.5475 C   0  0  0  0  0  0  0  0  0  0  0  0
    1.6794    3.0563    1.3355 C   0  0  0  0  0  0  0  0  0  0  0  0
    0.6278    3.6962    0.6792 C   0  0  0  0  0  0  0  0  0  0  0  0
   -3.4205   -1.4275   -0.9541 C   0  0  0  0  0  0  0  0  0  0  0  0
   -4.4230   -0.0196    0.7342 C   0  0  0  0  0  0  0  0  0  0  0  0
   -4.6643   -1.5773   -1.5678 C   0  0  0  0  0  0  0  0  0  0  0  0
   -5.6666   -0.1692    0.1203 C   0  0  0  0  0  0  0  0  0  0  0  0
   -5.7876   -0.9484   -1.0305 C   0  0  0  0  0  0  0  0  0  0  0  0
    5.2938   -1.1390   -0.9476 H   0  0  0  0  0  0  0  0  0  0  0  0
    5.3384   -2.8988   -0.7934 H   0  0  0  0  0  0  0  0  0  0  0  0
    4.4951   -2.1578   -2.1617 H   0  0  0  0  0  0  0  0  0  0  0  0
    0.6370   -2.9087    2.5956 H   0  0  0  0  0  0  0  0  0  0  0  0
    0.7138   -4.2324    1.3856 H   0  0  0  0  0  0  0  0  0  0  0  0
    2.0447   -4.0032    2.5686 H   0  0  0  0  0  0  0  0  0  0  0  0
   -0.6315   -0.8386   -0.7845 H   0  0  0  0  0  0  0  0  0  0  0  0
   -0.9378   -2.2656    0.2671 H   0  0  0  0  0  0  0  0  0  0  0  0
    3.0980    1.4462    1.2821 H   0  0  0  0  0  0  0  0  0  0  0  0
   -0.6474    3.7125   -1.0575 H   0  0  0  0  0  0  0  0  0  0  0  0
    2.0451    3.4234    2.2909 H   0  0  0  0  0  0  0  0  0  0  0  0
   -2.5749   -1.9359   -1.4064 H   0  0  0  0  0  0  0  0  0  0  0  0
   -4.3550    0.5927    1.6295 H   0  0  0  0  0  0  0  0  0  0  0  0
   -4.7589   -2.1838   -2.4638 H   0  0  0  0  0  0  0  0  0  0  0  0
   -6.5413    0.3208    0.5383 H   0  0  0  0  0  0  0  0  0  0  0  0
   -6.7560   -1.0650   -1.5082 H   0  0  0  0  0  0  0  0  0  0  0  0
  1 17  1  0  0  0  0
  2 22  1  0  0  0  0
  3  9  1  0  0  0  0
  3 15  1  0  0  0  0
  4 11  2  0  0  0  0
  5 16  2  0  0  0  0
  6  7  1  0  0  0  0
  6  9  1  0  0  0  0
  6 14  1  0  0  0  0
  7 10  2  0  0  0  0
  8  9  2  0  0  0  0
  8 10  1  0  0  0  0
  8 11  1  0  0  0  0
 10 13  1  0  0  0  0
 11 12  1  0  0  0  0
 12 17  2  0  0  0  0
 12 18  1  0  0  0  0
 13 28  1  0  0  0  0
 13 29  1  0  0  0  0
 13 30  1  0  0  0  0
 14 31  1  0  0  0  0
 14 32  1  0  0  0  0
 14 33  1  0  0  0  0
 15 16  1  0  0  0  0
 15 34  1  0  0  0  0
 15 35  1  0  0  0  0
 16 19  1  0  0  0  0
 17 20  1  0  0  0  0
 18 21  2  0  0  0  0
 18 36  1  0  0  0  0
 19 23  2  0  0  0  0
 19 24  1  0  0  0  0
 20 22  2  0  0  0  0
 20 37  1  0  0  0  0
 21 22  1  0  0  0  0
 21 38  1  0  0  0  0
 23 25  1  0  0  0  0
 23 39  1  0  0  0  0
 24 26  2  0  0  0  0
 24 40  1  0  0  0  0
 25 27  2  0  0  0  0
 25 41  1  0  0  0  0
 26 27  1  0  0  0  0
 26 42  1  0  0  0  0
 27 43  1  0  0  0  0
M  END
> <PUBCHEM_COMPOUND_CID>
92383

> <PUBCHEM_CONFORMER_RMSD>
1

> <PUBCHEM_CONFORMER_DIVERSEORDER>
1
126
313
78
435
25
147
286
428
82
261
282
185
38
41
169
265
249
112
245
500
544
321
52
186
403
421
456
16
223
436
483
64
222
492
203
72
335
33
246
363
123
283
309
364
14
146
334
80
323
31
376
83
59
113
184
109
297
36
540
13
462
58
516
386
294
373
489
507
433
143
20
459
201
480
15
17
87
401
374
152
68
299
166
409
263
209
51
518
269
262
344
7
134
117
133
550
102
75
95
327
119
139
168
239
91
397
324
230
482
252
86
496
164
21
266
250
368
5
259
503
12
319
99
173
229
281
129
90
53
350
2
10
165
444
3
545
399
43
11
183
40
22
380
157
24
392
125
42
61
135
295
307
140
8
193
142
97
6
141
89
98
302
509
387
366
322
120
70
535
236
439
130
271
55
104
94
155
542
202
304
347
473
47
484
63

> <PUBCHEM_MMFF94_PARTIAL_CHARGES>
35
1 -0.18
10 0.11
11 0.57
12 0.09
13 0.18
14 0.26
15 0.34
16 0.42
17 0.18
18 -0.15
19 0.09
2 -0.18
20 -0.15
21 -0.15
22 0.18
23 -0.15
24 -0.15
25 -0.15
26 -0.15
27 -0.15
3 -0.34
36 0.15
37 0.15
38 0.15
39 0.15
4 -0.57
40 0.15
41 0.15
42 0.15
43 0.15
5 -0.57
6 0.31
7 -0.71
8 -0.09
9 -0.09

> <PUBCHEM_EFFECTIVE_ROTOR_COUNT>
6

> <PUBCHEM_PHARMACOPHORE_FEATURES>
7
1 3 acceptor
1 4 acceptor
1 5 acceptor
1 7 acceptor
5 6 7 8 9 10 rings
6 12 17 18 20 21 22 rings
6 19 23 24 25 26 27 rings

> <PUBCHEM_HEAVY_ATOM_COUNT>
27

> <PUBCHEM_ATOM_DEF_STEREO_COUNT>
0

> <PUBCHEM_ATOM_UDEF_STEREO_COUNT>
0

> <PUBCHEM_BOND_DEF_STEREO_COUNT>
0

> <PUBCHEM_BOND_UDEF_STEREO_COUNT>
0

> <PUBCHEM_ISOTOPIC_ATOM_COUNT>
0

> <PUBCHEM_COMPONENT_COUNT>
1

> <PUBCHEM_CACTVS_TAUTO_COUNT>
2

> <PUBCHEM_CONFORMER_ID>
000168DF00000001

> <PUBCHEM_MMFF94_ENERGY>
73.1176

> <PUBCHEM_FEATURE_SELFOVERLAP>
35.529

> <PUBCHEM_SHAPE_FINGERPRINT>
10165383 225 16904911377821895977
104564 63 18052520356160719456
11370993 70 17688884033688674273
114674 6 18270409290988666907
11578080 2 18044680795126111144
12156800 1 16911203092609675760
12788726 201 18122904505964315026
13134695 92 18409441466716057349
13533116 47 18338518518103750887
13540713 5 17625529469949734850
13583140 156 18267013965355729051
13631057 29 18196649812556101110
13911987 19 17844784006735487662
14681490 219 18409727369983553924
15210252 30 17203603783173953508
15420108 30 17899718768828231842
17357779 13 18131633421434558574
17980427 26 17900556583313669996
18681886 176 18259992560688067475
20775438 99 17977968799411799199
21641784 216 17701237352096412238
21860390 5 18115867391144853509
221357 26 18131074874513731807
23559900 14 18337398141108444211
238 59 18194670467501710779
24941158 1 17903678170187419349
25222932 49 16956203570232005807
283562 15 18198335359533929194
345986 75 18198632222676679171
463206 1 18411976945088731707
474 4 18122070797431280145
513532 50 18041276561350530252
5895379 119 16951665035055500809
6438718 38 17619045666315959842
6443956 14 18411983541910513600
7471813 234 18339364179251325178
9981440 41 17325217229574682401

> <PUBCHEM_SHAPE_MULTIPOLES>
531.82
8.98
5.17
1.92
14.74
5.29
0.56
-6.91
2.79
-4.84
-2.61
-0.31
0.2
-0.61

> <PUBCHEM_SHAPE_SELFOVERLAP>
1139.666

> <PUBCHEM_SHAPE_VOLUME>
297.4

> <PUBCHEM_COORDINATE_TYPE>
2
5
10

$$$$

