440303
  -OEChem-07051212492D

 20 19  0     1  0  0  0  0  0999 V2000
    6.0010   -1.0950    0.0000 O   0  0  0  0  0  0  0  0  0  0  0  0
    6.8671    1.4050    0.0000 O   0  0  0  0  0  0  0  0  0  0  0  0
    8.5991    0.4050    0.0000 O   0  0  0  0  0  0  0  0  0  0  0  0
    4.2690   -1.0950    0.0000 O   0  0  0  0  0  0  0  0  0  0  0  0
    2.5369   -0.0950    0.0000 O   0  0  0  0  0  0  0  0  0  0  0  0
    3.4030    1.4050    0.0000 O   0  0  0  0  0  0  0  0  0  0  0  0
    6.0010   -0.0950    0.0000 C   0  0  1  0  0  0  0  0  0  0  0  0
    5.1350    0.4050    0.0000 C   0  0  0  0  0  0  0  0  0  0  0  0
    6.8671    0.4050    0.0000 C   0  0  0  0  0  0  0  0  0  0  0  0
    4.2690   -0.0950    0.0000 C   0  0  0  0  0  0  0  0  0  0  0  0
    7.7331   -0.0950    0.0000 C   0  0  0  0  0  0  0  0  0  0  0  0
    3.4030    0.4050    0.0000 C   0  0  0  0  0  0  0  0  0  0  0  0
    6.5380   -0.4050    0.0000 H   0  0  0  0  0  0  0  0  0  0  0  0
    5.5335    0.8799    0.0000 H   0  0  0  0  0  0  0  0  0  0  0  0
    4.7365    0.8799    0.0000 H   0  0  0  0  0  0  0  0  0  0  0  0
    7.3346   -0.5699    0.0000 H   0  0  0  0  0  0  0  0  0  0  0  0
    8.1316   -0.5699    0.0000 H   0  0  0  0  0  0  0  0  0  0  0  0
    5.4641   -1.4050    0.0000 H   0  0  0  0  0  0  0  0  0  0  0  0
    9.1360    0.0950    0.0000 H   0  0  0  0  0  0  0  0  0  0  0  0
    2.0000    0.2150    0.0000 H   0  0  0  0  0  0  0  0  0  0  0  0
  7  1  1  1  0  0  0
  1 18  1  0  0  0  0
  2  9  2  0  0  0  0
  3 11  1  0  0  0  0
  3 19  1  0  0  0  0
  4 10  2  0  0  0  0
  5 12  1  0  0  0  0
  5 20  1  0  0  0  0
  6 12  2  0  0  0  0
  7  8  1  0  0  0  0
  7  9  1  0  0  0  0
  7 13  1  0  0  0  0
  8 10  1  0  0  0  0
  8 14  1  0  0  0  0
  8 15  1  0  0  0  0
  9 11  1  0  0  0  0
 10 12  1  0  0  0  0
 11 16  1  0  0  0  0
 11 17  1  0  0  0  0
M  END
> <PUBCHEM_COMPOUND_CID>
440303

> <PUBCHEM_COMPOUND_CANONICALIZED>
1

> <PUBCHEM_CACTVS_COMPLEXITY>
208

> <PUBCHEM_CACTVS_HBOND_ACCEPTOR>
6

> <PUBCHEM_CACTVS_HBOND_DONOR>
3

> <PUBCHEM_CACTVS_ROTATABLE_BOND>
5

> <PUBCHEM_CACTVS_SUBSKEYS>
AAADccBgOAAAAAAAAAAAAAAAAAAAAAAAAAAAAAAAAAAAAAAAAAAAGgAACAAACBSggAIACAAAAgAIAICQCAIAAAAAAAAAAAFAAAAAEBYAAAAAQAAFIAAAAAHLTgAgAAAAAAAAAAAAAAAAAAAAAAAAAAAAAA==

> <PUBCHEM_IUPAC_OPENEYE_NAME>
(4S)-4,6-dihydroxy-2,5-dioxo-hexanoic acid

> <PUBCHEM_IUPAC_CAS_NAME>
(4S)-4,6-dihydroxy-2,5-dioxohexanoic acid

> <PUBCHEM_IUPAC_NAME>
(4S)-4,6-dihydroxy-2,5-dioxohexanoic acid

> <PUBCHEM_IUPAC_SYSTEMATIC_NAME>
(4S)-4,6-bis(oxidanyl)-2,5-bis(oxidanylidene)hexanoic acid

> <PUBCHEM_IUPAC_TRADITIONAL_NAME>
(4S)-4,6-dihydroxy-2,5-diketo-hexanoic acid

> <PUBCHEM_IUPAC_INCHI>
InChI=1S/C6H8O6/c7-2-5(10)3(8)1-4(9)6(11)12/h3,7-8H,1-2H2,(H,11,12)/t3-/m0/s1

> <PUBCHEM_IUPAC_INCHIKEY>
IBGYNIRCYXIAON-VKHMYHEASA-N

> <PUBCHEM_XLOGP3_AA>
-1.9

> <PUBCHEM_EXACT_MASS>
176.032088

> <PUBCHEM_MOLECULAR_FORMULA>
C6H8O6

> <PUBCHEM_MOLECULAR_WEIGHT>
176.12412

> <PUBCHEM_OPENEYE_CAN_SMILES>
C(C(C(=O)CO)O)C(=O)C(=O)O

> <PUBCHEM_OPENEYE_ISO_SMILES>
C([C@@H](C(=O)CO)O)C(=O)C(=O)O

> <PUBCHEM_CACTVS_TPSA>
112

> <PUBCHEM_MONOISOTOPIC_WEIGHT>
176.032088

> <PUBCHEM_TOTAL_CHARGE>
0

> <PUBCHEM_HEAVY_ATOM_COUNT>
12

> <PUBCHEM_ATOM_DEF_STEREO_COUNT>
1

> <PUBCHEM_ATOM_UDEF_STEREO_COUNT>
0

> <PUBCHEM_BOND_DEF_STEREO_COUNT>
0

> <PUBCHEM_BOND_UDEF_STEREO_COUNT>
0

> <PUBCHEM_ISOTOPIC_ATOM_COUNT>
0

> <PUBCHEM_COMPONENT_COUNT>
1

> <PUBCHEM_CACTVS_TAUTO_COUNT>
40

> <PUBCHEM_COORDINATE_TYPE>
1
5
255

> <PUBCHEM_BONDANNOTATIONS>
7  1  5

$$$$

