261618
  -OEChem-07051213003D

 38 40  0     1  0  0  0  0  0999 V2000
    0.0771    0.3028    0.4376 O   0  0  0  0  0  0  0  0  0  0  0  0
    0.7046   -1.7323   -0.4363 O   0  0  0  0  0  0  0  0  0  0  0  0
    5.7804   -1.1737    0.2146 O   0  0  0  0  0  0  0  0  0  0  0  0
   -3.7966    0.7741   -0.6183 N   0  0  0  0  0  0  0  0  0  0  0  0
   -3.3164   -0.5742   -0.9759 C   0  0  2  0  0  0  0  0  0  0  0  0
   -3.6386    0.7967    0.8482 C   0  0  1  0  0  0  0  0  0  0  0  0
   -3.9153   -1.4912    0.0962 C   0  0  0  0  0  0  0  0  0  0  0  0
   -4.1294   -0.5807    1.3078 C   0  0  0  0  0  0  0  0  0  0  0  0
   -1.7780   -0.5217   -0.8934 C   0  0  0  0  0  0  0  0  0  0  0  0
   -2.1334    0.9903    1.1185 C   0  0  0  0  0  0  0  0  0  0  0  0
   -1.2775   -0.1262    0.5038 C   0  0  0  0  0  0  0  0  0  0  0  0
   -5.1733    1.0153   -1.0428 C   0  0  0  0  0  0  0  0  0  0  0  0
    0.9669   -0.6026   -0.0540 C   0  0  0  0  0  0  0  0  0  0  0  0
    2.3392   -0.0358   -0.0696 C   0  0  0  0  0  0  0  0  0  0  0  0
    3.4145   -0.8871    0.0826 C   0  0  0  0  0  0  0  0  0  0  0  0
    2.4969    1.3251   -0.2361 C   0  0  0  0  0  0  0  0  0  0  0  0
    4.7037   -0.3545    0.0676 C   0  0  0  0  0  0  0  0  0  0  0  0
    3.7858    1.8577   -0.2511 C   0  0  0  0  0  0  0  0  0  0  0  0
    4.8892    1.0179   -0.0993 C   0  0  0  0  0  0  0  0  0  0  0  0
   -3.6102   -0.8755   -1.9878 H   0  0  0  0  0  0  0  0  0  0  0  0
   -4.1940    1.6128    1.3239 H   0  0  0  0  0  0  0  0  0  0  0  0
   -3.2697   -2.3427    0.3349 H   0  0  0  0  0  0  0  0  0  0  0  0
   -4.8808   -1.8926   -0.2337 H   0  0  0  0  0  0  0  0  0  0  0  0
   -5.1971   -0.5478    1.5552 H   0  0  0  0  0  0  0  0  0  0  0  0
   -3.5981   -0.9467    2.1926 H   0  0  0  0  0  0  0  0  0  0  0  0
   -1.4087   -1.5087   -1.1877 H   0  0  0  0  0  0  0  0  0  0  0  0
   -1.3918    0.1830   -1.6427 H   0  0  0  0  0  0  0  0  0  0  0  0
   -1.8094    1.9632    0.7237 H   0  0  0  0  0  0  0  0  0  0  0  0
   -1.9448    1.0348    2.1986 H   0  0  0  0  0  0  0  0  0  0  0  0
   -1.3232   -0.9974    1.1706 H   0  0  0  0  0  0  0  0  0  0  0  0
   -5.2407    0.9770   -2.1356 H   0  0  0  0  0  0  0  0  0  0  0  0
   -5.4864    2.0220   -0.7446 H   0  0  0  0  0  0  0  0  0  0  0  0
   -5.8961    0.3016   -0.6343 H   0  0  0  0  0  0  0  0  0  0  0  0
    3.2761   -1.9565    0.2160 H   0  0  0  0  0  0  0  0  0  0  0  0
    1.6555    1.9982   -0.3700 H   0  0  0  0  0  0  0  0  0  0  0  0
    3.9308    2.9258   -0.3843 H   0  0  0  0  0  0  0  0  0  0  0  0
    5.8882    1.4453   -0.1139 H   0  0  0  0  0  0  0  0  0  0  0  0
    6.5913   -0.6377    0.1794 H   0  0  0  0  0  0  0  0  0  0  0  0
  1 11  1  0  0  0  0
  1 13  1  0  0  0  0
  2 13  2  0  0  0  0
  3 17  1  0  0  0  0
  3 38  1  0  0  0  0
  4  5  1  0  0  0  0
  4  6  1  0  0  0  0
  4 12  1  0  0  0  0
  5  7  1  0  0  0  0
  5  9  1  0  0  0  0
  5 20  1  0  0  0  0
  6  8  1  0  0  0  0
  6 10  1  0  0  0  0
  6 21  1  0  0  0  0
  7  8  1  0  0  0  0
  7 22  1  0  0  0  0
  7 23  1  0  0  0  0
  8 24  1  0  0  0  0
  8 25  1  0  0  0  0
  9 11  1  0  0  0  0
  9 26  1  0  0  0  0
  9 27  1  0  0  0  0
 10 11  1  0  0  0  0
 10 28  1  0  0  0  0
 10 29  1  0  0  0  0
 11 30  1  0  0  0  0
 12 31  1  0  0  0  0
 12 32  1  0  0  0  0
 12 33  1  0  0  0  0
 13 14  1  0  0  0  0
 14 15  2  0  0  0  0
 14 16  1  0  0  0  0
 15 17  1  0  0  0  0
 15 34  1  0  0  0  0
 16 18  2  0  0  0  0
 16 35  1  0  0  0  0
 17 19  2  0  0  0  0
 18 19  1  0  0  0  0
 18 36  1  0  0  0  0
 19 37  1  0  0  0  0
M  END
> <PUBCHEM_COMPOUND_CID>
261618

> <PUBCHEM_CONFORMER_RMSD>
0.6

> <PUBCHEM_CONFORMER_DIVERSEORDER>
1
41
22
25
37
59
40
58
16
42
3
46
44
5
17
23
21
36
7
31
47
57
45
54
55
14
39
11
32
15
56
35
38
27
24
52
43
4
29
26
30
6
33
20
53
28
48
19
50
10
12
51
34
8
18
2
49
13
9

> <PUBCHEM_MMFF94_PARTIAL_CHARGES>
20
1 -0.43
11 0.28
12 0.27
13 0.63
14 0.09
15 -0.15
16 -0.15
17 0.08
18 -0.15
19 -0.15
2 -0.57
3 -0.53
34 0.15
35 0.15
36 0.15
37 0.15
38 0.45
4 -0.81
5 0.27
6 0.27

> <PUBCHEM_EFFECTIVE_ROTOR_COUNT>
4.2

> <PUBCHEM_PHARMACOPHORE_FEATURES>
5
1 2 acceptor
1 3 donor
1 4 cation
6 14 15 16 17 18 19 rings
8 4 5 6 7 8 9 10 11 rings

> <PUBCHEM_HEAVY_ATOM_COUNT>
19

> <PUBCHEM_ATOM_DEF_STEREO_COUNT>
0

> <PUBCHEM_ATOM_UDEF_STEREO_COUNT>
2

> <PUBCHEM_BOND_DEF_STEREO_COUNT>
0

> <PUBCHEM_BOND_UDEF_STEREO_COUNT>
0

> <PUBCHEM_ISOTOPIC_ATOM_COUNT>
0

> <PUBCHEM_COMPONENT_COUNT>
1

> <PUBCHEM_CACTVS_TAUTO_COUNT>
3

> <PUBCHEM_CONFORMER_ID>
0003FDF200000001

> <PUBCHEM_MMFF94_ENERGY>
51.6431

> <PUBCHEM_FEATURE_SELFOVERLAP>
25.371

> <PUBCHEM_SHAPE_FINGERPRINT>
10014705 185 18273218599496588965
10366900 7 15195288599082842353
10680689 15 17346597474005898595
11315181 36 17748829609155210176
12107183 9 17687740953891230930
12236239 1 18186240632052399733
12403259 415 17917707985237640368
12507557 5 18413390925394421017
12616971 3 18259979366531800576
128620 24 17749102283743970080
13167823 11 18410012117846650378
13214271 11 18131070424869363207
13583140 156 18060419114429668827
13675066 3 18060416889551966356
13760787 5 18187080646067066433
13911852 28 18053387892869995610
14573314 32 16128379298288514210
15196674 1 18411138009052645700
15788980 27 18343865515335666754
17349148 13 18334008389598452626
17834072 33 18410572856028778430
17844677 252 18201995521403563908
18186145 218 18411414012209223342
19050596 39 18186514406142199360
19433438 28 17989486307696195377
19489759 90 15936411160505301771
200 152 18259990370607277997
20645477 56 17703793669565464533
20645477 70 18341609331009537106
21033648 29 17703802392006155076
21267235 1 18334565841603539590
21709351 56 18342178860113981790
22646028 1 18113899355667268112
22854114 59 18131068216886992116
23402539 116 17917715703378118031
23402655 69 18334294266800707460
23557571 272 17275377725240320215
23559900 14 18413111675622025234
26918003 58 18341894103766458443
2838139 119 18199479929690339109
29717793 49 17821727269211668580
3268164 11 16153427276854793777
34797466 226 15285638738218506824
351380 180 18273497866522635596
3545911 37 18130788984141718421
4214541 1 18412826876034594095
474 4 18411979144148449280
5104073 3 18409446960221712194
542803 24 17603580824918171208
602551 16 15625934297201715960
633830 44 17632582621543628702
77779 3 18413107234309219350
90127 26 17418089906140426532
9971528 1 18202846544047099348

> <PUBCHEM_SHAPE_MULTIPOLES>
368.42
12.47
1.54
1.02
5.81
0.08
0.06
0.79
-0.46
0.57
-0.09
-1.3
0.08
-0.03

> <PUBCHEM_SHAPE_SELFOVERLAP>
793.447

> <PUBCHEM_SHAPE_VOLUME>
203.6

> <PUBCHEM_COORDINATE_TYPE>
2
5
10

$$$$

