240036
  -OEChem-07051213063D

 46 50  0     1  0  0  0  0  0999 V2000
   -0.3561   -1.6379    1.1217 O   0  0  0  0  0  0  0  0  0  0  0  0
   -4.8471   -0.7935   -1.2551 O   0  0  0  0  0  0  0  0  0  0  0  0
    5.3437    0.3702   -1.4759 O   0  0  0  0  0  0  0  0  0  0  0  0
    0.1745   -0.5021    0.3819 C   0  0  2  0  0  0  0  0  0  0  0  0
   -0.6314    0.7859    0.6609 C   0  0  2  0  0  0  0  0  0  0  0  0
   -0.5767   -1.6972   -0.2732 C   0  0  2  0  0  0  0  0  0  0  0  0
   -1.9238    0.7840   -0.1823 C   0  0  1  0  0  0  0  0  0  0  0  0
    1.7361   -0.4612    0.5328 C   0  0  2  0  0  0  0  0  0  0  0  0
   -2.7784   -0.4866   -0.0073 C   0  0  2  0  0  0  0  0  0  0  0  0
   -2.0305   -1.6509   -0.6576 C   0  0  0  0  0  0  0  0  0  0  0  0
    0.1509    2.0673    0.3312 C   0  0  0  0  0  0  0  0  0  0  0  0
   -2.9162    1.9301    0.0097 C   0  0  0  0  0  0  0  0  0  0  0  0
    2.3276    0.9366    0.3325 C   0  0  0  0  0  0  0  0  0  0  0  0
    1.5411    2.0674    0.9325 C   0  0  0  0  0  0  0  0  0  0  0  0
    2.3805   -1.4301   -0.4985 C   0  0  0  0  0  0  0  0  0  0  0  0
   -4.0222   -0.0368   -0.7593 C   0  0  0  0  0  0  0  0  0  0  0  0
   -4.1370    1.4743   -0.7968 C   0  0  0  0  0  0  0  0  0  0  0  0
    2.1314   -0.9033    1.9673 C   0  0  0  0  0  0  0  0  0  0  0  0
   -3.2368   -0.7962    1.4283 C   0  0  0  0  0  0  0  0  0  0  0  0
    3.8948   -1.3175   -0.5941 C   0  0  0  0  0  0  0  0  0  0  0  0
    3.4686    1.1947   -0.3279 C   0  0  0  0  0  0  0  0  0  0  0  0
    4.3073    0.1030   -0.8709 C   0  0  0  0  0  0  0  0  0  0  0  0
   -0.8780    0.8091    1.7301 H   0  0  0  0  0  0  0  0  0  0  0  0
   -0.0394   -2.4444   -0.8381 H   0  0  0  0  0  0  0  0  0  0  0  0
   -1.6090    0.8313   -1.2399 H   0  0  0  0  0  0  0  0  0  0  0  0
   -2.0868   -1.5670   -1.7507 H   0  0  0  0  0  0  0  0  0  0  0  0
   -2.5062   -2.6066   -0.4063 H   0  0  0  0  0  0  0  0  0  0  0  0
   -0.3948    2.9391    0.7118 H   0  0  0  0  0  0  0  0  0  0  0  0
    0.2297    2.1959   -0.7571 H   0  0  0  0  0  0  0  0  0  0  0  0
   -2.5379    2.8857   -0.3658 H   0  0  0  0  0  0  0  0  0  0  0  0
   -3.1725    2.0641    1.0666 H   0  0  0  0  0  0  0  0  0  0  0  0
    1.4922    1.9606    2.0221 H   0  0  0  0  0  0  0  0  0  0  0  0
    2.0167    3.0358    0.7354 H   0  0  0  0  0  0  0  0  0  0  0  0
    1.9580   -1.2286   -1.4934 H   0  0  0  0  0  0  0  0  0  0  0  0
    2.1303   -2.4705   -0.2567 H   0  0  0  0  0  0  0  0  0  0  0  0
   -4.0701    1.8077   -1.8364 H   0  0  0  0  0  0  0  0  0  0  0  0
   -5.0703    1.8094   -0.3394 H   0  0  0  0  0  0  0  0  0  0  0  0
    1.5636   -0.3518    2.7259 H   0  0  0  0  0  0  0  0  0  0  0  0
    1.9320   -1.9694    2.1269 H   0  0  0  0  0  0  0  0  0  0  0  0
    3.1959   -0.7412    2.1722 H   0  0  0  0  0  0  0  0  0  0  0  0
   -3.8175   -1.7262    1.4501 H   0  0  0  0  0  0  0  0  0  0  0  0
   -2.4103   -0.9100    2.1322 H   0  0  0  0  0  0  0  0  0  0  0  0
   -3.8931   -0.0155    1.8292 H   0  0  0  0  0  0  0  0  0  0  0  0
    4.2487   -1.9480   -1.4173 H   0  0  0  0  0  0  0  0  0  0  0  0
    4.3847   -1.6523    0.3256 H   0  0  0  0  0  0  0  0  0  0  0  0
    3.8404    2.2058   -0.4562 H   0  0  0  0  0  0  0  0  0  0  0  0
  1  4  1  0  0  0  0
  1  6  1  0  0  0  0
  2 16  2  0  0  0  0
  3 22  2  0  0  0  0
  4  5  1  0  0  0  0
  4  6  1  0  0  0  0
  4  8  1  0  0  0  0
  5  7  1  0  0  0  0
  5 11  1  0  0  0  0
  5 23  1  0  0  0  0
  6 10  1  0  0  0  0
  6 24  1  0  0  0  0
  7  9  1  0  0  0  0
  7 12  1  0  0  0  0
  7 25  1  0  0  0  0
  8 13  1  0  0  0  0
  8 15  1  0  0  0  0
  8 18  1  0  0  0  0
  9 10  1  0  0  0  0
  9 16  1  0  0  0  0
  9 19  1  0  0  0  0
 10 26  1  0  0  0  0
 10 27  1  0  0  0  0
 11 14  1  0  0  0  0
 11 28  1  0  0  0  0
 11 29  1  0  0  0  0
 12 17  1  0  0  0  0
 12 30  1  0  0  0  0
 12 31  1  0  0  0  0
 13 14  1  0  0  0  0
 13 21  2  0  0  0  0
 14 32  1  0  0  0  0
 14 33  1  0  0  0  0
 15 20  1  0  0  0  0
 15 34  1  0  0  0  0
 15 35  1  0  0  0  0
 16 17  1  0  0  0  0
 17 36  1  0  0  0  0
 17 37  1  0  0  0  0
 18 38  1  0  0  0  0
 18 39  1  0  0  0  0
 18 40  1  0  0  0  0
 19 41  1  0  0  0  0
 19 42  1  0  0  0  0
 19 43  1  0  0  0  0
 20 22  1  0  0  0  0
 20 44  1  0  0  0  0
 20 45  1  0  0  0  0
 21 22  1  0  0  0  0
 21 46  1  0  0  0  0
M  END
> <PUBCHEM_COMPOUND_CID>
240036

> <PUBCHEM_CONFORMER_RMSD>
0.6

> <PUBCHEM_CONFORMER_DIVERSEORDER>
1

> <PUBCHEM_MMFF94_PARTIAL_CHARGES>
18
1 -0.3
10 0.09
13 -0.28
14 0.14
16 0.45
17 0.06
2 -0.57
20 0.06
21 -0.14
22 0.49
24 0.1
3 -0.57
4 -0.04
46 0.15
5 0.09
6 -0.05
8 0.23
9 0.06

> <PUBCHEM_EFFECTIVE_ROTOR_COUNT>
1.6

> <PUBCHEM_PHARMACOPHORE_FEATURES>
7
1 1 acceptor
1 2 acceptor
1 3 acceptor
5 7 9 12 16 17 rings
6 4 5 8 11 13 14 rings
6 8 13 15 20 21 22 rings
7 1 4 5 6 7 9 10 rings

> <PUBCHEM_HEAVY_ATOM_COUNT>
22

> <PUBCHEM_ATOM_DEF_STEREO_COUNT>
6

> <PUBCHEM_ATOM_UDEF_STEREO_COUNT>
0

> <PUBCHEM_BOND_DEF_STEREO_COUNT>
0

> <PUBCHEM_BOND_UDEF_STEREO_COUNT>
0

> <PUBCHEM_ISOTOPIC_ATOM_COUNT>
0

> <PUBCHEM_COMPONENT_COUNT>
1

> <PUBCHEM_CACTVS_TAUTO_COUNT>
10

> <PUBCHEM_CONFORMER_ID>
0003A9A400000001

> <PUBCHEM_MMFF94_ENERGY>
61.9985

> <PUBCHEM_FEATURE_SELFOVERLAP>
35.583

> <PUBCHEM_SHAPE_FINGERPRINT>
10366900 7 18202004300775406107
10498660 4 18060429044330948813
10759866 29 17917151705616154952
10863032 1 17489587887282341955
11796584 16 15719390642200019461
11961588 58 17917150494546322692
12011746 2 18412266129752875917
12236239 1 18060145370789580458
12553582 1 18259978280105586904
12670546 177 18410293626908500988
12788726 201 18191305098622383777
13140716 1 18338805640171340649
13221675 6 18410294674848859330
13224815 77 18272652350702192833
13583140 156 16056875801960094369
14341114 328 12463564080418792614
14790565 3 17902499720981683113
15163728 17 16557087755756332901
15196674 1 18408605885123535637
15209294 21 12247677175401450276
15238133 3 18057902413622630193
15536298 74 18187092714893682160
16752209 62 18335146439683017009
16945 1 18261399918438302219
17959699 21 18131063823436343508
1813 80 5039954057090347680
18186145 218 18202007659038911149
19784866 170 10159701308784199136
19862831 5 18408887355800056121
200 152 17312820480874028092
20645476 183 17846778490346179523
20645477 70 18262529091047284429
20775438 99 17031110045994357759
20871999 31 18409444795368257716
21069387 34 15068628170866606063
21267235 1 18334568036273792766
21637258 2 15285633352861904196
221357 26 18334299764538259541
22182313 1 18119806907321359368
22393880 68 18410586088723018301
23227448 37 17914887652308455156
2334 1 18411426098310757913
23379529 103 17533501136166392807
23402539 116 18261394498585155012
23402655 69 18410570717103494668
23493267 7 18131910459704803859
23559900 14 18333449855430613088
25 1 18343303699127154067
2748010 2 18339091410262994441
2838139 119 16772655613291391916
296302 2 15410895158446275409
3004659 81 18341329007210721030
3323516 105 18334580126638301493
34934 24 18408891711519204656
350125 39 18408600392762684385
3759504 43 17560793308290410338
4028521 119 18341896298589731253
4280585 95 17250320065829618470
474 4 17203320071046548324
4990 188 18260267464490558596
633830 44 18130226072526751471
7364860 26 18041569014105666840
9709674 26 18191032209479586117
9981440 41 17550945893923080288

> <PUBCHEM_SHAPE_MULTIPOLES>
435.14
8.77
2.12
1.3
0.98
0.46
0.32
0.26
-4.09
-0.25
0.11
0.3
-0.25
0.11

> <PUBCHEM_SHAPE_SELFOVERLAP>
956.747

> <PUBCHEM_SHAPE_VOLUME>
233.8

> <PUBCHEM_COORDINATE_TYPE>
2
5
10

$$$$

