12069
  -OEChem-06261206282D

 20 20  0     0  0  0  0  0  0999 V2000
    5.4641    2.0950    0.0000 O   0  0  0  0  0  0  0  0  0  0  0  0
    2.8660   -2.4050    0.0000 O   0  0  0  0  0  0  0  0  0  0  0  0
    3.7320    2.0950    0.0000 O   0  0  0  0  0  0  0  0  0  0  0  0
    2.0000   -0.9050    0.0000 O   0  0  0  0  0  0  0  0  0  0  0  0
    6.3301   -2.4050    0.0000 O   0  5  0  0  0  0  0  0  0  0  0  0
    7.1962   -0.9050    0.0000 O   0  0  0  0  0  0  0  0  0  0  0  0
    6.3301   -1.4050    0.0000 N   0  3  0  0  0  0  0  0  0  0  0  0
    4.5981    0.5950    0.0000 C   0  0  0  0  0  0  0  0  0  0  0  0
    3.7320   -0.9050    0.0000 C   0  0  0  0  0  0  0  0  0  0  0  0
    5.4641   -0.9050    0.0000 C   0  0  0  0  0  0  0  0  0  0  0  0
    3.7320    0.0950    0.0000 C   0  0  0  0  0  0  0  0  0  0  0  0
    5.4641    0.0950    0.0000 C   0  0  0  0  0  0  0  0  0  0  0  0
    4.5981   -1.4050    0.0000 C   0  0  0  0  0  0  0  0  0  0  0  0
    4.5981    1.5950    0.0000 C   0  0  0  0  0  0  0  0  0  0  0  0
    2.8660   -1.4050    0.0000 C   0  0  0  0  0  0  0  0  0  0  0  0
    3.1951    0.4050    0.0000 H   0  0  0  0  0  0  0  0  0  0  0  0
    6.0010    0.4050    0.0000 H   0  0  0  0  0  0  0  0  0  0  0  0
    4.5981   -2.0250    0.0000 H   0  0  0  0  0  0  0  0  0  0  0  0
    5.4641    2.7150    0.0000 H   0  0  0  0  0  0  0  0  0  0  0  0
    2.3291   -2.7150    0.0000 H   0  0  0  0  0  0  0  0  0  0  0  0
  1 14  1  0  0  0  0
  1 19  1  0  0  0  0
  2 15  1  0  0  0  0
  2 20  1  0  0  0  0
  3 14  2  0  0  0  0
  4 15  2  0  0  0  0
  5  7  1  0  0  0  0
  6  7  2  0  0  0  0
  7 10  1  0  0  0  0
  8 11  2  0  0  0  0
  8 12  1  0  0  0  0
  8 14  1  0  0  0  0
  9 11  1  0  0  0  0
  9 13  2  0  0  0  0
  9 15  1  0  0  0  0
 10 12  2  0  0  0  0
 10 13  1  0  0  0  0
 11 16  1  0  0  0  0
 12 17  1  0  0  0  0
 13 18  1  0  0  0  0
M  CHG  2   5  -1   7   1
M  END
> <PUBCHEM_COMPOUND_CID>
12069

> <PUBCHEM_COMPOUND_CANONICALIZED>
1

> <PUBCHEM_CACTVS_COMPLEXITY>
274

> <PUBCHEM_CACTVS_HBOND_ACCEPTOR>
6

> <PUBCHEM_CACTVS_HBOND_DONOR>
2

> <PUBCHEM_CACTVS_ROTATABLE_BOND>
2

> <PUBCHEM_CACTVS_SUBSKEYS>
AAADcYByOAAAAAAAAAAAAAAAAAAAAAAAAAAwAAAAAAAAAAABAAAAHgAECAAADAiBmAAwyIAQQgCJAiTSSwCCAAAkAgAgiAEAbMoIJjKAlZGAcQBkwAEI2Ye87mCOAAACQAAAAAAAAASAAAAAAAAAAAAAAA==

> <PUBCHEM_IUPAC_OPENEYE_NAME>
5-nitrobenzene-1,3-dicarboxylic acid

> <PUBCHEM_IUPAC_CAS_NAME>
5-nitrobenzene-1,3-dicarboxylic acid

> <PUBCHEM_IUPAC_NAME>
5-nitrobenzene-1,3-dicarboxylic acid

> <PUBCHEM_IUPAC_SYSTEMATIC_NAME>
5-nitrobenzene-1,3-dicarboxylic acid

> <PUBCHEM_IUPAC_TRADITIONAL_NAME>
5-nitroisophthalic acid

> <PUBCHEM_IUPAC_INCHI>
InChI=1S/C8H5NO6/c10-7(11)4-1-5(8(12)13)3-6(2-4)9(14)15/h1-3H,(H,10,11)(H,12,13)

> <PUBCHEM_IUPAC_INCHIKEY>
NBDAHKQJXVLAID-UHFFFAOYSA-N

> <PUBCHEM_XLOGP3_AA>
0.8

> <PUBCHEM_EXACT_MASS>
211.011687

> <PUBCHEM_MOLECULAR_FORMULA>
C8H5NO6

> <PUBCHEM_MOLECULAR_WEIGHT>
211.1284

> <PUBCHEM_OPENEYE_CAN_SMILES>
C1=C(C=C(C=C1C(=O)O)[N+](=O)[O-])C(=O)O

> <PUBCHEM_OPENEYE_ISO_SMILES>
C1=C(C=C(C=C1C(=O)O)[N+](=O)[O-])C(=O)O

> <PUBCHEM_CACTVS_TPSA>
120

> <PUBCHEM_MONOISOTOPIC_WEIGHT>
211.011687

> <PUBCHEM_TOTAL_CHARGE>
0

> <PUBCHEM_HEAVY_ATOM_COUNT>
15

> <PUBCHEM_ATOM_DEF_STEREO_COUNT>
0

> <PUBCHEM_ATOM_UDEF_STEREO_COUNT>
0

> <PUBCHEM_BOND_DEF_STEREO_COUNT>
0

> <PUBCHEM_BOND_UDEF_STEREO_COUNT>
0

> <PUBCHEM_ISOTOPIC_ATOM_COUNT>
0

> <PUBCHEM_COMPONENT_COUNT>
1

> <PUBCHEM_CACTVS_TAUTO_COUNT>
1

> <PUBCHEM_COORDINATE_TYPE>
1
5
255

> <PUBCHEM_BONDANNOTATIONS>
10  12  8
10  13  8
8  11  8
8  12  8
9  11  8
9  13  8

$$$$

