442943
  -OEChem-07051213003D

 39 42  0     1  0  0  0  0  0999 V2000
   -5.2866    0.7214   -0.8035 O   0  0  0  0  0  0  0  0  0  0  0  0
    3.7357    2.0927    0.7269 O   0  0  0  0  0  0  0  0  0  0  0  0
   -1.6421   -0.6587    0.8177 N   0  0  2  0  0  0  0  0  0  0  0  0
    2.1188    0.5289    0.1057 N   0  0  0  0  0  0  0  0  0  0  0  0
   -0.3511    1.1780   -0.5258 C   0  0  2  0  0  0  0  0  0  0  0  0
   -1.6463    0.7367    0.2866 C   0  0  1  0  0  0  0  0  0  0  0  0
    0.3838   -1.0672   -0.4785 C   0  0  2  0  0  0  0  0  0  0  0  0
   -0.0243    0.0357   -1.4644 C   0  0  0  0  0  0  0  0  0  0  0  0
   -0.9354   -1.6978    0.0149 C   0  0  0  0  0  0  0  0  0  0  0  0
   -2.8983    0.9968   -0.5875 C   0  0  0  0  0  0  0  0  0  0  0  0
    0.9519    1.4736    0.3166 C   0  0  0  0  0  0  0  0  0  0  0  0
   -2.8937   -1.1074    1.4138 C   0  0  0  0  0  0  0  0  0  0  0  0
    1.8446   -0.8113   -0.2731 C   0  0  0  0  0  0  0  0  0  0  0  0
   -4.1944    0.5704    0.0951 C   0  0  2  0  0  0  0  0  0  0  0  0
   -4.1027   -0.8898    0.5153 C   0  0  0  0  0  0  0  0  0  0  0  0
    2.8263   -1.7041   -0.4437 C   0  0  0  0  0  0  0  0  0  0  0  0
    3.4245    0.9618    0.3570 C   0  0  0  0  0  0  0  0  0  0  0  0
    4.1905   -1.3033   -0.2247 C   0  0  0  0  0  0  0  0  0  0  0  0
    4.4990   -0.0563    0.1516 C   0  0  0  0  0  0  0  0  0  0  0  0
   -0.5891    2.0832   -1.0980 H   0  0  0  0  0  0  0  0  0  0  0  0
   -1.7167    1.4062    1.1545 H   0  0  0  0  0  0  0  0  0  0  0  0
    0.5491   -1.8968   -1.1986 H   0  0  0  0  0  0  0  0  0  0  0  0
    0.7704    0.3177   -2.1699 H   0  0  0  0  0  0  0  0  0  0  0  0
   -0.8717   -0.2543   -2.0954 H   0  0  0  0  0  0  0  0  0  0  0  0
   -1.5713   -2.0318   -0.8147 H   0  0  0  0  0  0  0  0  0  0  0  0
   -0.7090   -2.5612    0.6507 H   0  0  0  0  0  0  0  0  0  0  0  0
   -2.9618    2.0640   -0.8368 H   0  0  0  0  0  0  0  0  0  0  0  0
   -2.8251    0.4782   -1.5512 H   0  0  0  0  0  0  0  0  0  0  0  0
    1.3040    2.4846    0.0790 H   0  0  0  0  0  0  0  0  0  0  0  0
    0.7289    1.4629    1.3900 H   0  0  0  0  0  0  0  0  0  0  0  0
   -3.0444   -0.5537    2.3495 H   0  0  0  0  0  0  0  0  0  0  0  0
   -2.8318   -2.1625    1.7066 H   0  0  0  0  0  0  0  0  0  0  0  0
   -4.3880    1.2011    0.9708 H   0  0  0  0  0  0  0  0  0  0  0  0
   -4.0469   -1.5361   -0.3703 H   0  0  0  0  0  0  0  0  0  0  0  0
   -5.0203   -1.1824    1.0400 H   0  0  0  0  0  0  0  0  0  0  0  0
    2.6355   -2.7293   -0.7398 H   0  0  0  0  0  0  0  0  0  0  0  0
   -5.3209    1.6564   -1.0680 H   0  0  0  0  0  0  0  0  0  0  0  0
    4.9680   -2.0446   -0.3724 H   0  0  0  0  0  0  0  0  0  0  0  0
    5.5257    0.2473    0.3201 H   0  0  0  0  0  0  0  0  0  0  0  0
  1 14  1  0  0  0  0
  1 37  1  0  0  0  0
  2 17  2  0  0  0  0
  3  6  1  0  0  0  0
  3  9  1  0  0  0  0
  3 12  1  0  0  0  0
  4 11  1  0  0  0  0
  4 13  1  0  0  0  0
  4 17  1  0  0  0  0
  5  6  1  0  0  0  0
  5  8  1  0  0  0  0
  5 11  1  0  0  0  0
  5 20  1  0  0  0  0
  6 10  1  0  0  0  0
  6 21  1  0  0  0  0
  7  8  1  0  0  0  0
  7  9  1  0  0  0  0
  7 13  1  0  0  0  0
  7 22  1  0  0  0  0
  8 23  1  0  0  0  0
  8 24  1  0  0  0  0
  9 25  1  0  0  0  0
  9 26  1  0  0  0  0
 10 14  1  0  0  0  0
 10 27  1  0  0  0  0
 10 28  1  0  0  0  0
 11 29  1  0  0  0  0
 11 30  1  0  0  0  0
 12 15  1  0  0  0  0
 12 31  1  0  0  0  0
 12 32  1  0  0  0  0
 13 16  2  0  0  0  0
 14 15  1  0  0  0  0
 14 33  1  0  0  0  0
 15 34  1  0  0  0  0
 15 35  1  0  0  0  0
 16 18  1  0  0  0  0
 16 36  1  0  0  0  0
 17 19  1  0  0  0  0
 18 19  2  0  0  0  0
 18 38  1  0  0  0  0
 19 39  1  0  0  0  0
M  END
> <PUBCHEM_COMPOUND_CID>
442943

> <PUBCHEM_CONFORMER_RMSD>
0.6

> <PUBCHEM_CONFORMER_DIVERSEORDER>
1

> <PUBCHEM_MMFF94_PARTIAL_CHARGES>
19
1 -0.68
11 0.3
12 0.27
13 -0.03
14 0.28
16 -0.15
17 0.62
18 -0.15
19 -0.14
2 -0.57
3 -0.81
36 0.15
37 0.4
38 0.15
39 0.15
4 -0.47
6 0.27
7 0.14
9 0.27

> <PUBCHEM_EFFECTIVE_ROTOR_COUNT>
1.4

> <PUBCHEM_PHARMACOPHORE_FEATURES>
8
1 1 acceptor
1 1 donor
1 2 acceptor
1 3 cation
6 3 5 6 7 8 9 rings
6 3 6 10 12 14 15 rings
6 4 13 16 17 18 19 rings
6 4 5 7 8 11 13 rings

> <PUBCHEM_HEAVY_ATOM_COUNT>
19

> <PUBCHEM_ATOM_DEF_STEREO_COUNT>
4

> <PUBCHEM_ATOM_UDEF_STEREO_COUNT>
0

> <PUBCHEM_BOND_DEF_STEREO_COUNT>
0

> <PUBCHEM_BOND_UDEF_STEREO_COUNT>
0

> <PUBCHEM_ISOTOPIC_ATOM_COUNT>
0

> <PUBCHEM_COMPONENT_COUNT>
1

> <PUBCHEM_CACTVS_TAUTO_COUNT>
1

> <PUBCHEM_CONFORMER_ID>
0006C23F00000001

> <PUBCHEM_MMFF94_ENERGY>
90.2114

> <PUBCHEM_FEATURE_SELFOVERLAP>
41.454

> <PUBCHEM_SHAPE_FINGERPRINT>
10 15 18340217298081533640
10366900 7 18340759438248173842
10608611 8 18411139151524554348
11045977 3 18413106169125765898
11132069 177 18131349713443988911
11471102 20 18333732433823418278
11578080 2 14547912576592848614
11615757 297 17530962488255130098
12011746 2 18410007767018133198
12119455 92 17967534579533020711
12236239 1 16588027930508224511
12251169 10 18333729109365971198
12403259 415 18272090534789326109
12507560 40 18341327808059867739
13296908 3 18273208690432024082
13675066 3 18272927194138771523
14386348 63 18343298180083557691
14790565 3 17763458414391392996
15196674 1 18410855443169942667
15219456 202 18411135827008597880
15309172 13 17967247602708589054
15375358 24 18341895186256491971
15536298 74 18408038511475060210
15653759 3 18202278104402449218
15848702 151 17604420933190257006
16945 1 18267296530546939476
17804303 29 18202275897052905575
17834072 14 18341891883584857883
1813 80 16702301230734914998
18175812 5 18413386544548592438
19784866 170 18270397188135122252
200 152 17894353297949880111
20279233 1 18341608230738052715
20528008 55 18410573989494021130
20645477 70 18259987114726857318
21033648 29 18409740564128498729
21249577 43 18413105069540252643
21267235 1 18335411396479368126
21279426 13 18054231204737959319
21682296 61 17679573704622857662
22854114 59 18334011679311201746
23184049 59 18187363242288658806
23402539 116 18273502282207705373
23557571 272 17775005742755259853
23559900 14 18202278134868276838
26918003 58 18412546530518172968
2748010 2 18412537734441092046
296302 2 18410853239846412553
351380 180 18408606984867122481
474 4 16371873746151504936
495365 180 18114756974821290642
5104073 3 18411416206874228459
5283173 99 18199758097315248309
69090 78 18408045113035180951
9709674 26 18271239413746541379

> <PUBCHEM_SHAPE_MULTIPOLES>
369.31
9.09
1.8
1
1.97
0.04
0.03
0.42
-0.63
-0.89
-0.16
0.43
-0.04
1.16

> <PUBCHEM_SHAPE_SELFOVERLAP>
795.294

> <PUBCHEM_SHAPE_VOLUME>
198.7

> <PUBCHEM_COORDINATE_TYPE>
2
5
10

$$$$

