10728
  -OEChem-06261204533D

 27 27  0     0  0  0  0  0  0999 V2000
    2.2801    0.1726    0.1373 O   0  0  0  0  0  0  0  0  0  0  0  0
   -1.5497   -1.0221   -0.6881 O   0  0  0  0  0  0  0  0  0  0  0  0
    1.1089   -1.1548   -1.3342 O   0  0  0  0  0  0  0  0  0  0  0  0
   -1.4666   -1.5483    1.5914 O   0  0  0  0  0  0  0  0  0  0  0  0
    0.0544    0.7204   -0.3063 C   0  0  0  0  0  0  0  0  0  0  0  0
   -1.2652    0.2734   -0.3742 C   0  0  0  0  0  0  0  0  0  0  0  0
    0.3244    2.0507    0.0152 C   0  0  0  0  0  0  0  0  0  0  0  0
   -2.3147    1.1567   -0.1205 C   0  0  0  0  0  0  0  0  0  0  0  0
    1.1647   -0.1847   -0.5687 C   0  0  0  0  0  0  0  0  0  0  0  0
   -0.7252    2.9338    0.2687 C   0  0  0  0  0  0  0  0  0  0  0  0
   -2.0447    2.4868    0.2008 C   0  0  0  0  0  0  0  0  0  0  0  0
    3.4434   -0.6432   -0.0379 C   0  0  0  0  0  0  0  0  0  0  0  0
    4.5646   -0.0935    0.8179 C   0  0  0  0  0  0  0  0  0  0  0  0
   -1.6294   -1.8758    0.4235 C   0  0  0  0  0  0  0  0  0  0  0  0
   -1.9450   -3.2720   -0.0248 C   0  0  0  0  0  0  0  0  0  0  0  0
    1.3403    2.4339    0.0626 H   0  0  0  0  0  0  0  0  0  0  0  0
   -3.3453    0.8161   -0.1727 H   0  0  0  0  0  0  0  0  0  0  0  0
   -0.5155    3.9704    0.5158 H   0  0  0  0  0  0  0  0  0  0  0  0
   -2.8618    3.1748    0.3973 H   0  0  0  0  0  0  0  0  0  0  0  0
    3.2151   -1.6714    0.2640 H   0  0  0  0  0  0  0  0  0  0  0  0
    3.7404   -0.6312   -1.0923 H   0  0  0  0  0  0  0  0  0  0  0  0
    4.7899    0.9412    0.5394 H   0  0  0  0  0  0  0  0  0  0  0  0
    4.2736   -0.0823    1.8734 H   0  0  0  0  0  0  0  0  0  0  0  0
    5.4715   -0.6946    0.7078 H   0  0  0  0  0  0  0  0  0  0  0  0
   -2.9066   -3.2845   -0.5436 H   0  0  0  0  0  0  0  0  0  0  0  0
   -2.0102   -3.9274    0.8483 H   0  0  0  0  0  0  0  0  0  0  0  0
   -1.1493   -3.6379   -0.6783 H   0  0  0  0  0  0  0  0  0  0  0  0
  1  9  1  0  0  0  0
  1 12  1  0  0  0  0
  2  6  1  0  0  0  0
  2 14  1  0  0  0  0
  3  9  2  0  0  0  0
  4 14  2  0  0  0  0
  5  6  1  0  0  0  0
  5  7  2  0  0  0  0
  5  9  1  0  0  0  0
  6  8  2  0  0  0  0
  7 10  1  0  0  0  0
  7 16  1  0  0  0  0
  8 11  1  0  0  0  0
  8 17  1  0  0  0  0
 10 11  2  0  0  0  0
 10 18  1  0  0  0  0
 11 19  1  0  0  0  0
 12 13  1  0  0  0  0
 12 20  1  0  0  0  0
 12 21  1  0  0  0  0
 13 22  1  0  0  0  0
 13 23  1  0  0  0  0
 13 24  1  0  0  0  0
 14 15  1  0  0  0  0
 15 25  1  0  0  0  0
 15 26  1  0  0  0  0
 15 27  1  0  0  0  0
M  END
> <PUBCHEM_COMPOUND_CID>
10728

> <PUBCHEM_CONFORMER_RMSD>
0.6

> <PUBCHEM_CONFORMER_DIVERSEORDER>
1
123
81
19
86
93
60
59
134
36
74
84
6
110
57
109
99
91
66
94
97
70
39
4
82
80
136
125
50
10
75
8
124
72
101
88
69
3
126
76
68
127
95
130
29
43
56
89
27
53
113
112
104
132
34
42
116
67
121
85
111
62
120
128
131
122
78
87
63
90
26
55
103
58
40
35
49
13
107
9
23
51
48
138
61
105
7
37
96
44
30
2
47
38
25
21
129
41
83
5
18
17
73
24
45
115
64
52
54
100
32
14
71
65
12
31
11
137
15
20
108
77
98
114
79
133
119
16
28
135
102
92
106
117
22
33
118
46

> <PUBCHEM_MMFF94_PARTIAL_CHARGES>
18
1 -0.43
10 -0.15
11 -0.15
12 0.28
14 0.66
15 0.06
16 0.15
17 0.15
18 0.15
19 0.15
2 -0.23
3 -0.57
4 -0.57
5 0.09
6 0.08
7 -0.15
8 -0.15
9 0.63

> <PUBCHEM_EFFECTIVE_ROTOR_COUNT>
5

> <PUBCHEM_PHARMACOPHORE_FEATURES>
3
1 3 acceptor
1 4 acceptor
6 5 6 7 8 10 11 rings

> <PUBCHEM_HEAVY_ATOM_COUNT>
15

> <PUBCHEM_ATOM_DEF_STEREO_COUNT>
0

> <PUBCHEM_ATOM_UDEF_STEREO_COUNT>
0

> <PUBCHEM_BOND_DEF_STEREO_COUNT>
0

> <PUBCHEM_BOND_UDEF_STEREO_COUNT>
0

> <PUBCHEM_ISOTOPIC_ATOM_COUNT>
0

> <PUBCHEM_COMPONENT_COUNT>
1

> <PUBCHEM_CACTVS_TAUTO_COUNT>
1

> <PUBCHEM_CONFORMER_ID>
000029E800000001

> <PUBCHEM_MMFF94_ENERGY>
40.4525

> <PUBCHEM_FEATURE_SELFOVERLAP>
15.223

> <PUBCHEM_SHAPE_FINGERPRINT>
10906281 52 18334847299695884469
11357001 24 18413670214274683962
11680986 33 18120107090901798089
12423570 1 9721935036457808117
12553582 1 18122609575066510774
13140716 1 18263924349849129881
13380535 76 18189903208627597956
15490181 7 17544190944709460781
16945 1 18337379534819273605
17841504 4 17979636732147509963
193761 8 18193835938487789901
20510252 161 18189336951291272696
20645476 183 17913462878290794300
20871998 184 18260828202330081238
21501502 16 18196363719888095333
21524375 3 17756715491365458852
21650355 55 18411144606143277618
22344851 341 17613716346278000305
23402539 116 18335435585724376693
23419403 2 17765747652906412005
23557571 272 18260256452685067676
23559900 14 18335986488938221022
23728640 28 18340495585274762106
257057 1 18122629344795322579
2748010 2 18117845399556877852
305870 269 17692813005061526964
3071541 236 18342176729794469244
43471831 8 17908983549776684171
54173680 148 18410856546944843774
75552 356 18413109485083124508
81228 2 18337940272917063877
8809292 202 18335982086032129692
9709674 26 18261958565346572662

> <PUBCHEM_SHAPE_MULTIPOLES>
285.22
4.93
3.4
0.95
7.97
0.61
-0.1
0.63
-1.1
-3.51
-0.44
0.06
0.34
0.25

> <PUBCHEM_SHAPE_SELFOVERLAP>
588.621

> <PUBCHEM_SHAPE_VOLUME>
162.4

> <PUBCHEM_COORDINATE_TYPE>
2
5
10

$$$$

