197034
  -OEChem-07051213152D

 69 71  0     1  0  0  0  0  0999 V2000
    6.7988   -0.0205    0.0000 O   0  0  0  0  0  0  0  0  0  0  0  0
    8.7988   -1.7526    0.0000 O   0  0  0  0  0  0  0  0  0  0  0  0
    9.7988   -0.0205    0.0000 O   0  0  0  0  0  0  0  0  0  0  0  0
    3.4030    3.7115    0.0000 O   0  0  0  0  0  0  0  0  0  0  0  0
    5.7988   -1.7526    0.0000 O   0  0  0  0  0  0  0  0  0  0  0  0
    3.4030   -0.2885    0.0000 O   0  0  0  0  0  0  0  0  0  0  0  0
   10.2988    0.8455    0.0000 O   0  0  0  0  0  0  0  0  0  0  0  0
    7.2988   -2.6186    0.0000 O   0  0  0  0  0  0  0  0  0  0  0  0
    6.7988    1.7115    0.0000 N   0  0  0  0  0  0  0  0  0  0  0  0
    5.2152    2.5163    0.0000 N   0  0  0  0  0  0  0  0  0  0  0  0
    8.7988    1.7115    0.0000 N   0  0  0  0  0  0  0  0  0  0  0  0
    5.2152    0.9068    0.0000 N   0  0  0  0  0  0  0  0  0  0  0  0
    2.5369    1.2115    0.0000 N   0  0  0  0  0  0  0  0  0  0  0  0
   11.7988    3.4436    0.0000 N   0  0  0  0  0  0  0  0  0  0  0  0
    8.7988   -3.4846    0.0000 N   0  0  0  0  0  0  0  0  0  0  0  0
   14.2988    0.8455    0.0000 N   0  0  0  0  0  0  0  0  0  0  0  0
    8.2988    0.8455    0.0000 C   0  0  2  0  0  0  0  0  0  0  0  0
    8.7988   -0.0205    0.0000 C   0  0  1  0  0  0  0  0  0  0  0  0
    7.2988    0.8455    0.0000 C   0  0  1  0  0  0  0  0  0  0  0  0
    8.2988   -0.8865    0.0000 C   0  0  2  0  0  0  0  0  0  0  0  0
    7.2988   -0.8865    0.0000 C   0  0  1  0  0  0  0  0  0  0  0  0
    4.2690    2.2115    0.0000 C   0  0  1  0  0  0  0  0  0  0  0  0
    4.2690    1.2115    0.0000 C   0  0  1  0  0  0  0  0  0  0  0  0
    3.4030    2.7115    0.0000 C   0  0  1  0  0  0  0  0  0  0  0  0
    5.7988    1.7115    0.0000 C   0  0  0  0  0  0  0  0  0  0  0  0
    2.5369    2.2115    0.0000 C   0  0  0  0  0  0  0  0  0  0  0  0
    6.7988   -1.7526    0.0000 C   0  0  0  0  0  0  0  0  0  0  0  0
    3.4030    0.7115    0.0000 C   0  0  0  0  0  0  0  0  0  0  0  0
    9.7988    1.7115    0.0000 C   0  0  0  0  0  0  0  0  0  0  0  0
   10.2988    2.5776    0.0000 C   0  0  0  0  0  0  0  0  0  0  0  0
   11.2988    2.5776    0.0000 C   0  0  2  0  0  0  0  0  0  0  0  0
    8.2988   -2.6186    0.0000 C   0  0  0  0  0  0  0  0  0  0  0  0
   11.7988    1.7115    0.0000 C   0  0  0  0  0  0  0  0  0  0  0  0
   12.7988    1.7115    0.0000 C   0  0  0  0  0  0  0  0  0  0  0  0
   13.2988    0.8455    0.0000 C   0  0  0  0  0  0  0  0  0  0  0  0
    7.9888    1.3824    0.0000 H   0  0  0  0  0  0  0  0  0  0  0  0
    9.1088   -0.5574    0.0000 H   0  0  0  0  0  0  0  0  0  0  0  0
    7.6088    1.3824    0.0000 H   0  0  0  0  0  0  0  0  0  0  0  0
    7.9888   -1.4235    0.0000 H   0  0  0  0  0  0  0  0  0  0  0  0
    6.6788   -0.8865    0.0000 H   0  0  0  0  0  0  0  0  0  0  0  0
    4.3589    3.0568    0.0000 H   0  0  0  0  0  0  0  0  0  0  0  0
    4.3589    0.3663    0.0000 H   0  0  0  0  0  0  0  0  0  0  0  0
    3.9399    3.0215    0.0000 H   0  0  0  0  0  0  0  0  0  0  0  0
    7.1088    2.2485    0.0000 H   0  0  0  0  0  0  0  0  0  0  0  0
    5.4078    3.1056    0.0000 H   0  0  0  0  0  0  0  0  0  0  0  0
    8.4888    2.2485    0.0000 H   0  0  0  0  0  0  0  0  0  0  0  0
    2.3249    2.7942    0.0000 H   0  0  0  0  0  0  0  0  0  0  0  0
    1.9264    2.1039    0.0000 H   0  0  0  0  0  0  0  0  0  0  0  0
    6.6912   -2.3631    0.0000 H   0  0  0  0  0  0  0  0  0  0  0  0
    7.3814   -1.9646    0.0000 H   0  0  0  0  0  0  0  0  0  0  0  0
    2.0000    0.9015    0.0000 H   0  0  0  0  0  0  0  0  0  0  0  0
   10.1088   -0.5574    0.0000 H   0  0  0  0  0  0  0  0  0  0  0  0
   10.4065    3.1881    0.0000 H   0  0  0  0  0  0  0  0  0  0  0  0
    9.7162    2.7896    0.0000 H   0  0  0  0  0  0  0  0  0  0  0  0
    2.8660    4.0215    0.0000 H   0  0  0  0  0  0  0  0  0  0  0  0
   11.9188    2.5776    0.0000 H   0  0  0  0  0  0  0  0  0  0  0  0
    5.4888   -2.2895    0.0000 H   0  0  0  0  0  0  0  0  0  0  0  0
   11.2162    1.4995    0.0000 H   0  0  0  0  0  0  0  0  0  0  0  0
   11.9065    1.1010    0.0000 H   0  0  0  0  0  0  0  0  0  0  0  0
   13.3814    1.9236    0.0000 H   0  0  0  0  0  0  0  0  0  0  0  0
   12.6912    2.3221    0.0000 H   0  0  0  0  0  0  0  0  0  0  0  0
   12.4188    3.4436    0.0000 H   0  0  0  0  0  0  0  0  0  0  0  0
   11.4888    3.9805    0.0000 H   0  0  0  0  0  0  0  0  0  0  0  0
    8.4888   -4.0215    0.0000 H   0  0  0  0  0  0  0  0  0  0  0  0
    9.4188   -3.4846    0.0000 H   0  0  0  0  0  0  0  0  0  0  0  0
   12.7162    0.6335    0.0000 H   0  0  0  0  0  0  0  0  0  0  0  0
   13.4065    0.2349    0.0000 H   0  0  0  0  0  0  0  0  0  0  0  0
   14.6088    0.3086    0.0000 H   0  0  0  0  0  0  0  0  0  0  0  0
   14.6088    1.3824    0.0000 H   0  0  0  0  0  0  0  0  0  0  0  0
  1 19  1  0  0  0  0
  1 21  1  0  0  0  0
 20  2  1  1  0  0  0
  2 32  1  0  0  0  0
 18  3  1  6  0  0  0
  3 52  1  0  0  0  0
 24  4  1  1  0  0  0
  4 55  1  0  0  0  0
  5 27  1  0  0  0  0
  5 57  1  0  0  0  0
  6 28  2  0  0  0  0
  7 29  2  0  0  0  0
  8 32  2  0  0  0  0
 19  9  1  1  0  0  0
  9 25  1  0  0  0  0
  9 44  1  0  0  0  0
 10 22  1  0  0  0  0
 10 25  1  0  0  0  0
 10 45  1  0  0  0  0
 17 11  1  6  0  0  0
 11 29  1  0  0  0  0
 11 46  1  0  0  0  0
 12 23  1  0  0  0  0
 12 25  2  0  0  0  0
 13 26  1  0  0  0  0
 13 28  1  0  0  0  0
 13 51  1  0  0  0  0
 31 14  1  1  0  0  0
 14 62  1  0  0  0  0
 14 63  1  0  0  0  0
 15 32  1  0  0  0  0
 15 64  1  0  0  0  0
 15 65  1  0  0  0  0
 16 35  1  0  0  0  0
 16 68  1  0  0  0  0
 16 69  1  0  0  0  0
 17 18  1  0  0  0  0
 17 19  1  0  0  0  0
 17 36  1  0  0  0  0
 18 20  1  0  0  0  0
 18 37  1  0  0  0  0
 19 38  1  0  0  0  0
 20 21  1  0  0  0  0
 20 39  1  0  0  0  0
 21 27  1  1  0  0  0
 21 40  1  0  0  0  0
 22 23  1  0  0  0  0
 22 24  1  0  0  0  0
 22 41  1  6  0  0  0
 23 28  1  0  0  0  0
 23 42  1  1  0  0  0
 24 26  1  0  0  0  0
 24 43  1  0  0  0  0
 26 47  1  0  0  0  0
 26 48  1  0  0  0  0
 27 49  1  0  0  0  0
 27 50  1  0  0  0  0
 29 30  1  0  0  0  0
 30 31  1  0  0  0  0
 30 53  1  0  0  0  0
 30 54  1  0  0  0  0
 31 33  1  0  0  0  0
 31 56  1  0  0  0  0
 33 34  1  0  0  0  0
 33 58  1  0  0  0  0
 33 59  1  0  0  0  0
 34 35  1  0  0  0  0
 34 60  1  0  0  0  0
 34 61  1  0  0  0  0
 35 66  1  0  0  0  0
 35 67  1  0  0  0  0
M  END
> <PUBCHEM_COMPOUND_CID>
197034

> <PUBCHEM_COMPOUND_CANONICALIZED>
1

> <PUBCHEM_CACTVS_COMPLEXITY>
816

> <PUBCHEM_CACTVS_HBOND_ACCEPTOR>
11

> <PUBCHEM_CACTVS_HBOND_DONOR>
10

> <PUBCHEM_CACTVS_ROTATABLE_BOND>
11

> <PUBCHEM_CACTVS_SUBSKEYS>
AAADcfB7/AAAAAAAAAAAAAAAAAAAAQAAAAAsSAAAAAAAAEAAAAAAHgAQCAAACDzhgAYBCALABgAoAAEQPAAAAAEAAAABAIGIAAGDUBoAyAAfQAAPFgKTAAH6WQMAAAAAAAAAAAAAAAAAAAAAAAAAAAAAAA==

> <PUBCHEM_IUPAC_OPENEYE_NAME>
[(2R,3R,4S,5R,6R)-6-[[(3aS,7R,7aS)-7-hydroxy-4-oxo-1,3a,5,6,7,7a-hexahydroimidazo[4,5-c]pyridin-2-yl]amino]-5-[[(3S)-3,6-diaminohexanoyl]amino]-4-hydroxy-2-(hydroxymethyl)tetrahydropyran-3-yl] carbamate

> <PUBCHEM_IUPAC_CAS_NAME>
carbamic acid [(2R,3R,4S,5R,6R)-6-[[(3aS,7R,7aS)-7-hydroxy-4-oxo-1,3a,5,6,7,7a-hexahydroimidazo[4,5-c]pyridin-2-yl]amino]-5-[[(3S)-3,6-diamino-1-oxohexyl]amino]-4-hydroxy-2-(hydroxymethyl)-3-oxanyl] ester

> <PUBCHEM_IUPAC_NAME>
[(2R,3R,4S,5R,6R)-6-[[(3aS,7R,7aS)-7-hydroxy-4-oxo-1,3a,5,6,7,7a-hexahydroimidazo[4,5-c]pyridin-2-yl]amino]-5-[[(3S)-3,6-diaminohexanoyl]amino]-4-hydroxy-2-(hydroxymethyl)oxan-3-yl] carbamate

> <PUBCHEM_IUPAC_SYSTEMATIC_NAME>
[(2R,3R,4S,5R,6R)-6-[[(3aS,7R,7aS)-7-oxidanyl-4-oxidanylidene-1,3a,5,6,7,7a-hexahydroimidazo[4,5-c]pyridin-2-yl]amino]-5-[[(3S)-3,6-bis(azanyl)hexanoyl]amino]-2-(hydroxymethyl)-4-oxidanyl-oxan-3-yl] carbamate

> <PUBCHEM_IUPAC_TRADITIONAL_NAME>
carbamic acid [(2R,3R,4S,5R,6R)-6-[[(3aS,7R,7aS)-7-hydroxy-4-keto-1,3a,5,6,7,7a-hexahydroimidazo[4,5-c]pyridin-2-yl]amino]-5-[[(3S)-3,6-diaminohexanoyl]amino]-4-hydroxy-2-methylol-tetrahydropyran-3-yl] ester

> <PUBCHEM_IUPAC_INCHI>
InChI=1S/C19H34N8O8/c20-3-1-2-7(21)4-10(30)24-13-14(31)15(35-18(22)33)9(6-28)34-17(13)27-19-25-11-8(29)5-23-16(32)12(11)26-19/h7-9,11-15,17,28-29,31H,1-6,20-21H2,(H2,22,33)(H,23,32)(H,24,30)(H2,25,26,27)/t7-,8+,9+,11+,12-,13+,14-,15-,17+/m0/s1

> <PUBCHEM_IUPAC_INCHIKEY>
NRAUADCLPJTGSF-VLSXYIQESA-N

> <PUBCHEM_XLOGP3_AA>
-5.5

> <PUBCHEM_EXACT_MASS>
502.24996

> <PUBCHEM_MOLECULAR_FORMULA>
C19H34N8O8

> <PUBCHEM_MOLECULAR_WEIGHT>
502.52206

> <PUBCHEM_OPENEYE_CAN_SMILES>
C1C(C2C(C(=O)N1)N=C(N2)NC3C(C(C(C(O3)CO)OC(=O)N)O)NC(=O)CC(CCCN)N)O

> <PUBCHEM_OPENEYE_ISO_SMILES>
C1[C@H]([C@@H]2[C@@H](C(=O)N1)N=C(N2)N[C@H]3[C@@H]([C@@H]([C@H]([C@H](O3)CO)OC(=O)N)O)NC(=O)C[C@H](CCCN)N)O

> <PUBCHEM_CACTVS_TPSA>
269

> <PUBCHEM_MONOISOTOPIC_WEIGHT>
502.24996

> <PUBCHEM_TOTAL_CHARGE>
0

> <PUBCHEM_HEAVY_ATOM_COUNT>
35

> <PUBCHEM_ATOM_DEF_STEREO_COUNT>
9

> <PUBCHEM_ATOM_UDEF_STEREO_COUNT>
0

> <PUBCHEM_BOND_DEF_STEREO_COUNT>
0

> <PUBCHEM_BOND_UDEF_STEREO_COUNT>
0

> <PUBCHEM_ISOTOPIC_ATOM_COUNT>
0

> <PUBCHEM_COMPONENT_COUNT>
1

> <PUBCHEM_CACTVS_TAUTO_COUNT>
36

> <PUBCHEM_COORDINATE_TYPE>
1
5
255

> <PUBCHEM_BONDANNOTATIONS>
17  11  6
31  14  5
20  2  5
21  27  5
22  41  6
23  42  5
18  3  6
24  4  5
19  9  5

$$$$

