104996
  -OEChem-07051213152D

 42 44  0     1  0  0  0  0  0999 V2000
    2.8660    3.1789    0.0000 S   0  0  0  0  0  0  0  0  0  0  0  0
    7.2068   -3.5359    0.0000 O   0  0  0  0  0  0  0  0  0  0  0  0
    6.3557   -3.3252    0.0000 O   0  0  0  0  0  0  0  0  0  0  0  0
    4.5981    1.1789    0.0000 O   0  0  0  0  0  0  0  0  0  0  0  0
    2.8660    1.1789    0.0000 O   0  0  0  0  0  0  0  0  0  0  0  0
    2.0000    3.6789    0.0000 O   0  0  0  0  0  0  0  0  0  0  0  0
    3.3660    4.0449    0.0000 O   0  0  0  0  0  0  0  0  0  0  0  0
    2.3660    2.3129    0.0000 O   0  0  0  0  0  0  0  0  0  0  0  0
    7.1962   -1.3211    0.0000 N   0  0  0  0  0  0  0  0  0  0  0  0
    4.7271   -1.9882    0.0000 N   0  0  0  0  0  0  0  0  0  0  0  0
    6.1209   -2.7929    0.0000 N   0  0  0  0  0  0  0  0  0  0  0  0
    6.3301    0.1789    0.0000 N   0  0  0  0  0  0  0  0  0  0  0  0
    8.0622    0.1789    0.0000 N   0  0  0  0  0  0  0  0  0  0  0  0
    4.6322   -3.7620    0.0000 N   0  0  0  0  0  0  0  0  0  0  0  0
    3.7320    2.6789    0.0000 N   0  0  0  0  0  0  0  0  0  0  0  0
    6.3301   -1.8211    0.0000 C   0  0  1  0  0  0  0  0  0  0  0  0
    5.4641   -1.3211    0.0000 C   0  0  2  0  0  0  0  0  0  0  0  0
    6.9972   -2.5581    0.0000 C   0  0  0  0  0  0  0  0  0  0  0  0
    8.0880   -2.3360    0.0000 C   0  0  0  0  0  0  0  0  0  0  0  0
    8.1680   -1.5303    0.0000 C   0  0  0  0  0  0  0  0  0  0  0  0
    5.4641   -0.3211    0.0000 C   0  0  2  0  0  0  0  0  0  0  0  0
    7.1962   -0.3211    0.0000 C   0  0  0  0  0  0  0  0  0  0  0  0
    5.1322   -2.8960    0.0000 C   0  0  0  0  0  0  0  0  0  0  0  0
    4.5981    0.1789    0.0000 C   0  0  0  0  0  0  0  0  0  0  0  0
    3.7320    1.6789    0.0000 C   0  0  0  0  0  0  0  0  0  0  0  0
    4.6871   -0.9764    0.0000 H   0  0  0  0  0  0  0  0  0  0  0  0
    8.1505   -2.9528    0.0000 H   0  0  0  0  0  0  0  0  0  0  0  0
    8.7080   -2.3354    0.0000 H   0  0  0  0  0  0  0  0  0  0  0  0
    8.7822   -1.6147    0.0000 H   0  0  0  0  0  0  0  0  0  0  0  0
    8.2755   -0.9197    0.0000 H   0  0  0  0  0  0  0  0  0  0  0  0
    5.4641    0.2989    0.0000 H   0  0  0  0  0  0  0  0  0  0  0  0
    4.1204   -1.8603    0.0000 H   0  0  0  0  0  0  0  0  0  0  0  0
    3.9875    0.2866    0.0000 H   0  0  0  0  0  0  0  0  0  0  0  0
    4.3860   -0.4037    0.0000 H   0  0  0  0  0  0  0  0  0  0  0  0
    7.7968   -3.7265    0.0000 H   0  0  0  0  0  0  0  0  0  0  0  0
    6.5688   -3.9075    0.0000 H   0  0  0  0  0  0  0  0  0  0  0  0
    8.0622    0.7989    0.0000 H   0  0  0  0  0  0  0  0  0  0  0  0
    8.5991   -0.1311    0.0000 H   0  0  0  0  0  0  0  0  0  0  0  0
    4.0122   -3.7620    0.0000 H   0  0  0  0  0  0  0  0  0  0  0  0
    4.9422   -4.2989    0.0000 H   0  0  0  0  0  0  0  0  0  0  0  0
    4.2690    2.9889    0.0000 H   0  0  0  0  0  0  0  0  0  0  0  0
    2.0000    4.2989    0.0000 H   0  0  0  0  0  0  0  0  0  0  0  0
  1  6  1  0  0  0  0
  1  7  2  0  0  0  0
  1  8  2  0  0  0  0
  1 15  1  0  0  0  0
  2 18  1  0  0  0  0
  2 35  1  0  0  0  0
  3 18  1  0  0  0  0
  3 36  1  0  0  0  0
  4 24  1  0  0  0  0
  4 25  1  0  0  0  0
  5 25  2  0  0  0  0
  6 42  1  0  0  0  0
  9 16  1  0  0  0  0
  9 20  1  0  0  0  0
  9 22  1  0  0  0  0
 10 17  1  0  0  0  0
 10 23  1  0  0  0  0
 10 32  1  0  0  0  0
 16 11  1  1  0  0  0
 11 23  2  0  0  0  0
 12 21  1  0  0  0  0
 12 22  2  0  0  0  0
 13 22  1  0  0  0  0
 13 37  1  0  0  0  0
 13 38  1  0  0  0  0
 14 23  1  0  0  0  0
 14 39  1  0  0  0  0
 14 40  1  0  0  0  0
 15 25  1  0  0  0  0
 15 41  1  0  0  0  0
 16 17  1  0  0  0  0
 16 18  1  0  0  0  0
 17 21  1  0  0  0  0
 17 26  1  6  0  0  0
 18 19  1  0  0  0  0
 19 20  1  0  0  0  0
 19 27  1  0  0  0  0
 19 28  1  0  0  0  0
 20 29  1  0  0  0  0
 20 30  1  0  0  0  0
 21 24  1  6  0  0  0
 21 31  1  0  0  0  0
 24 33  1  0  0  0  0
 24 34  1  0  0  0  0
M  END
> <PUBCHEM_COMPOUND_CID>
104996

> <PUBCHEM_COMPOUND_CANONICALIZED>
1

> <PUBCHEM_CACTVS_COMPLEXITY>
760

> <PUBCHEM_CACTVS_HBOND_ACCEPTOR>
9

> <PUBCHEM_CACTVS_HBOND_DONOR>
7

> <PUBCHEM_CACTVS_ROTATABLE_BOND>
4

> <PUBCHEM_CACTVS_SUBSKEYS>
AAADceBzuABAAAAAAAAAAAAAAAAAAWIAAAAgAAAAAAAAAEAAAAAAHgAQSAAACCzhgAYBCAPABoAoAAAAPDAAAAEAAAABAIAIAAGCQAIAyAAdQAAGEAKQAAGw4CwAAAAAAAAAAAAAAAAAAAAAAAAAAAAAAA==

> <PUBCHEM_IUPAC_OPENEYE_NAME>
[(3aS,4R,10aS)-2,6-diamino-10,10-dihydroxy-3a,4,8,9-tetrahydro-3H-pyrrolo[1,2-c]purin-4-yl]methoxycarbonylsulfamic acid

> <PUBCHEM_IUPAC_CAS_NAME>
[[(3aS,4R,10aS)-2,6-diamino-10,10-dihydroxy-3a,4,8,9-tetrahydro-3H-pyrrolo[1,2-c]purin-4-yl]methoxy-oxomethyl]sulfamic acid

> <PUBCHEM_IUPAC_NAME>
[(3aS,4R,10aS)-2,6-diamino-10,10-dihydroxy-3a,4,8,9-tetrahydro-3H-pyrrolo[1,2-c]purin-4-yl]methoxycarbonylsulfamic acid

> <PUBCHEM_IUPAC_SYSTEMATIC_NAME>
[(3aS,4R,10aS)-2,6-bis(azanyl)-10,10-bis(oxidanyl)-3a,4,8,9-tetrahydro-3H-pyrrolo[1,2-c]purin-4-yl]methoxycarbonylsulfamic acid

> <PUBCHEM_IUPAC_TRADITIONAL_NAME>
[(3aS,4R,10aS)-2,6-diamino-10,10-dihydroxy-3a,4,8,9-tetrahydro-3H-pyrrolo[1,2-c]purin-4-yl]methoxycarbonylsulfamic acid

> <PUBCHEM_IUPAC_INCHI>
InChI=1S/C10H17N7O7S/c11-6-14-5-4(3-24-8(18)16-25(21,22)23)13-7(12)17-2-1-9(19,20)10(5,17)15-6/h4-5,19-20H,1-3H2,(H2,12,13)(H,16,18)(H3,11,14,15)(H,21,22,23)/t4-,5-,10-/m0/s1

> <PUBCHEM_IUPAC_INCHIKEY>
JKKCSFJSULZNDN-HGRQIUPRSA-N

> <PUBCHEM_XLOGP3_AA>
-5.1

> <PUBCHEM_EXACT_MASS>
379.091017

> <PUBCHEM_MOLECULAR_FORMULA>
C10H17N7O7S

> <PUBCHEM_MOLECULAR_WEIGHT>
379.34968

> <PUBCHEM_OPENEYE_CAN_SMILES>
C1CN2C(=NC(C3C2(C1(O)O)N=C(N3)N)COC(=O)NS(=O)(=O)O)N

> <PUBCHEM_OPENEYE_ISO_SMILES>
C1CN2C(=N[C@H]([C@H]3[C@]2(C1(O)O)N=C(N3)N)COC(=O)NS(=O)(=O)O)N

> <PUBCHEM_CACTVS_TPSA>
234

> <PUBCHEM_MONOISOTOPIC_WEIGHT>
379.091017

> <PUBCHEM_TOTAL_CHARGE>
0

> <PUBCHEM_HEAVY_ATOM_COUNT>
25

> <PUBCHEM_ATOM_DEF_STEREO_COUNT>
3

> <PUBCHEM_ATOM_UDEF_STEREO_COUNT>
0

> <PUBCHEM_BOND_DEF_STEREO_COUNT>
0

> <PUBCHEM_BOND_UDEF_STEREO_COUNT>
0

> <PUBCHEM_ISOTOPIC_ATOM_COUNT>
0

> <PUBCHEM_COMPONENT_COUNT>
1

> <PUBCHEM_CACTVS_TAUTO_COUNT>
12

> <PUBCHEM_COORDINATE_TYPE>
1
5
255

> <PUBCHEM_BONDANNOTATIONS>
16  11  5
17  26  6
21  24  6

$$$$

