46173762
  -OEChem-07051212512D

 82 88  0     1  0  0  0  0  0999 V2000
    5.4661    2.2329    0.0000 O   0  0  0  0  0  0  0  0  0  0  0  0
    2.0520    2.1525    0.0000 O   0  0  0  0  0  0  0  0  0  0  0  0
    5.3879    1.1553    0.0000 O   0  0  0  0  0  0  0  0  0  0  0  0
    3.7841    3.1525    0.0000 O   0  0  0  0  0  0  0  0  0  0  0  0
    8.4168   -2.9867    0.0000 O   0  0  0  0  0  0  0  0  0  0  0  0
    7.4532   -2.4981    0.0000 O   0  0  0  0  0  0  0  0  0  0  0  0
    2.9021   -1.4168    0.0000 N   0  0  3  0  0  0  0  0  0  0  0  0
    9.1328    2.4533    0.0000 N   0  0  3  0  0  0  0  0  0  0  0  0
    3.8001   -0.8890    0.0000 C   0  0  1  0  0  0  0  0  0  0  0  0
    9.1071    1.4225    0.0000 C   0  0  2  0  0  0  0  0  0  0  0  0
    3.7841    0.1525    0.0000 C   0  0  0  0  0  0  0  0  0  0  0  0
    8.3551    2.0838    0.0000 C   0  0  0  0  0  0  0  0  0  0  0  0
    2.0000   -0.8960    0.0000 C   0  0  0  0  0  0  0  0  0  0  0  0
    2.9180    0.6525    0.0000 C   0  0  0  0  0  0  0  0  0  0  0  0
    2.0080    0.1456    0.0000 C   0  0  0  0  0  0  0  0  0  0  0  0
    8.1680    2.8173    0.0000 C   0  0  0  0  0  0  0  0  0  0  0  0
    8.0349    1.1412    0.0000 C   0  0  0  0  0  0  0  0  0  0  0  0
    7.5064    2.0265    0.0000 C   0  0  0  0  0  0  0  0  0  0  0  0
    4.1028   -1.8436    0.0000 C   0  0  0  0  0  0  0  0  0  0  0  0
    9.5999    0.5508    0.0000 C   0  0  0  0  0  0  0  0  0  0  0  0
    4.6501    0.6525    0.0000 C   0  0  0  0  0  0  0  0  0  0  0  0
    7.4276    2.4613    0.0000 C   0  0  0  0  0  0  0  0  0  0  0  0
    2.9180    1.6525    0.0000 C   0  0  0  0  0  0  0  0  0  0  0  0
    2.9059   -2.4168    0.0000 C   0  0  0  0  0  0  0  0  0  0  0  0
    4.6501    1.6525    0.0000 C   0  0  0  0  0  0  0  0  0  0  0  0
    7.0750    0.8771    0.0000 C   0  0  0  0  0  0  0  0  0  0  0  0
    9.9623    3.0118    0.0000 C   0  0  0  0  0  0  0  0  0  0  0  0
    6.4275    2.5129    0.0000 C   0  0  0  0  0  0  0  0  0  0  0  0
    4.7024   -2.6456    0.0000 C   0  0  0  0  0  0  0  0  0  0  0  0
    9.7788   -0.4345    0.0000 C   0  0  0  0  0  0  0  0  0  0  0  0
    3.7841    2.1525    0.0000 C   0  0  0  0  0  0  0  0  0  0  0  0
    6.3177    1.5234    0.0000 C   0  0  0  0  0  0  0  0  0  0  0  0
    9.6239   -1.4238    0.0000 C   0  0  0  0  0  0  0  0  0  0  0  0
    5.7009   -2.5697    0.0000 C   0  0  0  0  0  0  0  0  0  0  0  0
    5.5323   -3.2060    0.0000 C   0  0  0  0  0  0  0  0  0  0  0  0
    8.8060   -0.2228    0.0000 C   0  0  0  0  0  0  0  0  0  0  0  0
    9.1524   -2.3073    0.0000 C   0  0  0  0  0  0  0  0  0  0  0  0
    7.4987   -3.3866    0.0000 C   0  0  0  0  0  0  0  0  0  0  0  0
    6.6688   -2.8262    0.0000 C   0  0  0  0  0  0  0  0  0  0  0  0
    6.5002   -3.4625    0.0000 C   0  0  0  0  0  0  0  0  0  0  0  0
    8.0847   -0.9091    0.0000 C   0  0  0  0  0  0  0  0  0  0  0  0
    8.2480   -1.8912    0.0000 C   0  0  0  0  0  0  0  0  0  0  0  0
    2.0520    3.1525    0.0000 C   0  0  0  0  0  0  0  0  0  0  0  0
    5.2417    0.1661    0.0000 C   0  0  0  0  0  0  0  0  0  0  0  0
    4.5329   -0.4584    0.0000 H   0  0  0  0  0  0  0  0  0  0  0  0
    9.9317    1.6285    0.0000 H   0  0  0  0  0  0  0  0  0  0  0  0
    1.3900   -0.7852    0.0000 H   0  0  0  0  0  0  0  0  0  0  0  0
    1.7864   -1.4780    0.0000 H   0  0  0  0  0  0  0  0  0  0  0  0
    1.8035    0.7309    0.0000 H   0  0  0  0  0  0  0  0  0  0  0  0
    1.3964    0.0443    0.0000 H   0  0  0  0  0  0  0  0  0  0  0  0
    8.4503    3.3693    0.0000 H   0  0  0  0  0  0  0  0  0  0  0  0
    7.6510    3.1596    0.0000 H   0  0  0  0  0  0  0  0  0  0  0  0
    7.0783    2.4750    0.0000 H   0  0  0  0  0  0  0  0  0  0  0  0
    7.0129    1.6512    0.0000 H   0  0  0  0  0  0  0  0  0  0  0  0
    3.4862   -1.7786    0.0000 H   0  0  0  0  0  0  0  0  0  0  0  0
    4.6543   -1.5603    0.0000 H   0  0  0  0  0  0  0  0  0  0  0  0
   10.2032    0.4080    0.0000 H   0  0  0  0  0  0  0  0  0  0  0  0
    9.0168    0.3399    0.0000 H   0  0  0  0  0  0  0  0  0  0  0  0
    5.1870    0.3425    0.0000 H   0  0  0  0  0  0  0  0  0  0  0  0
    7.5623    3.0665    0.0000 H   0  0  0  0  0  0  0  0  0  0  0  0
    2.2859   -2.4192    0.0000 H   0  0  0  0  0  0  0  0  0  0  0  0
    2.9083   -3.0368    0.0000 H   0  0  0  0  0  0  0  0  0  0  0  0
    3.5259   -2.4144    0.0000 H   0  0  0  0  0  0  0  0  0  0  0  0
    6.9403    0.2719    0.0000 H   0  0  0  0  0  0  0  0  0  0  0  0
   10.3085    2.4975    0.0000 H   0  0  0  0  0  0  0  0  0  0  0  0
   10.4766    3.3580    0.0000 H   0  0  0  0  0  0  0  0  0  0  0  0
    9.6160    3.5261    0.0000 H   0  0  0  0  0  0  0  0  0  0  0  0
   10.2119   -1.6204    0.0000 H   0  0  0  0  0  0  0  0  0  0  0  0
    5.7576   -1.9523    0.0000 H   0  0  0  0  0  0  0  0  0  0  0  0
    5.2758   -3.7705    0.0000 H   0  0  0  0  0  0  0  0  0  0  0  0
    8.6387    0.3743    0.0000 H   0  0  0  0  0  0  0  0  0  0  0  0
    6.9253   -2.2617    0.0000 H   0  0  0  0  0  0  0  0  0  0  0  0
    6.4435   -4.0799    0.0000 H   0  0  0  0  0  0  0  0  0  0  0  0
    7.4967   -0.7124    0.0000 H   0  0  0  0  0  0  0  0  0  0  0  0
    4.3210    3.4625    0.0000 H   0  0  0  0  0  0  0  0  0  0  0  0
    2.6720    3.1525    0.0000 H   0  0  0  0  0  0  0  0  0  0  0  0
    2.0520    3.7725    0.0000 H   0  0  0  0  0  0  0  0  0  0  0  0
    1.4320    3.1525    0.0000 H   0  0  0  0  0  0  0  0  0  0  0  0
    4.6283    0.2567    0.0000 H   0  0  0  0  0  0  0  0  0  0  0  0
    5.1510   -0.4473    0.0000 H   0  0  0  0  0  0  0  0  0  0  0  0
    5.8550    0.0754    0.0000 H   0  0  0  0  0  0  0  0  0  0  0  0
    6.8810   -2.2595    0.0000 H   0  0  0  0  0  0  0  0  0  0  0  0
  1 25  1  0  0  0  0
  1 28  1  0  0  0  0
  2 23  1  0  0  0  0
  2 43  1  0  0  0  0
  3 32  1  0  0  0  0
  3 44  1  0  0  0  0
  4 31  1  0  0  0  0
  4 75  1  0  0  0  0
  5 37  1  0  0  0  0
  5 38  1  0  0  0  0
  6 42  1  0  0  0  0
  6 82  1  0  0  0  0
  7  9  1  0  0  0  0
  7 13  1  0  0  0  0
  7 24  1  0  0  0  0
  8 10  1  0  0  0  0
  8 16  1  0  0  0  0
  8 27  1  0  0  0  0
  9 11  1  0  0  0  0
  9 19  1  0  0  0  0
  9 45  1  6  0  0  0
 10 12  1  0  0  0  0
 10 20  1  0  0  0  0
 10 46  1  6  0  0  0
 11 14  1  0  0  0  0
 11 21  2  0  0  0  0
 12 17  1  0  0  0  0
 12 22  2  0  0  0  0
 13 15  1  0  0  0  0
 13 47  1  0  0  0  0
 13 48  1  0  0  0  0
 14 15  1  0  0  0  0
 14 23  2  0  0  0  0
 15 49  1  0  0  0  0
 15 50  1  0  0  0  0
 16 18  1  0  0  0  0
 16 51  1  0  0  0  0
 16 52  1  0  0  0  0
 17 18  1  0  0  0  0
 17 26  2  0  0  0  0
 18 53  1  0  0  0  0
 18 54  1  0  0  0  0
 19 29  1  0  0  0  0
 19 55  1  0  0  0  0
 19 56  1  0  0  0  0
 20 30  1  0  0  0  0
 20 57  1  0  0  0  0
 20 58  1  0  0  0  0
 21 25  1  0  0  0  0
 21 59  1  0  0  0  0
 22 28  1  0  0  0  0
 22 60  1  0  0  0  0
 23 31  1  0  0  0  0
 24 61  1  0  0  0  0
 24 62  1  0  0  0  0
 24 63  1  0  0  0  0
 25 31  2  0  0  0  0
 26 32  1  0  0  0  0
 26 64  1  0  0  0  0
 27 65  1  0  0  0  0
 27 66  1  0  0  0  0
 27 67  1  0  0  0  0
 28 32  2  0  0  0  0
 29 34  2  0  0  0  0
 29 35  1  0  0  0  0
 30 33  2  0  0  0  0
 30 36  1  0  0  0  0
 33 37  1  0  0  0  0
 33 68  1  0  0  0  0
 34 39  1  0  0  0  0
 34 69  1  0  0  0  0
 35 40  2  0  0  0  0
 35 70  1  0  0  0  0
 36 41  2  0  0  0  0
 36 71  1  0  0  0  0
 37 42  2  0  0  0  0
 38 39  2  0  0  0  0
 38 40  1  0  0  0  0
 39 72  1  0  0  0  0
 40 73  1  0  0  0  0
 41 42  1  0  0  0  0
 41 74  1  0  0  0  0
 43 76  1  0  0  0  0
 43 77  1  0  0  0  0
 43 78  1  0  0  0  0
 44 79  1  0  0  0  0
 44 80  1  0  0  0  0
 44 81  1  0  0  0  0
M  END
> <PUBCHEM_COMPOUND_CID>
46173762

> <PUBCHEM_COMPOUND_CANONICALIZED>
1

> <PUBCHEM_CACTVS_COMPLEXITY>
948

> <PUBCHEM_CACTVS_HBOND_ACCEPTOR>
8

> <PUBCHEM_CACTVS_HBOND_DONOR>
2

> <PUBCHEM_CACTVS_ROTATABLE_BOND>
2

> <PUBCHEM_CACTVS_SUBSKEYS>
AAADcfB/OAAAAAAAAAAAAAAAAAAAAAAAAAA8eMGCAAAAAAABVAAAHgAACAAADCzBmAYyBoMABgCAAiBCAACCCAAgIAAIiAAOjIgNJyKGsRuGeCvlwBWLuAew8P8OoAABCAAYQABAAAIQADCAAAAAAAAAAA==

> <PUBCHEM_IUPAC_INCHI>
InChI=1S/C36H38N2O6/c1-37-13-11-23-18-32(41-3)33-19-26(23)28(37)16-22-7-10-30(39)31(17-22)43-24-8-5-21(6-9-24)15-29-27-20-34(44-33)35(40)36(42-4)25(27)12-14-38(29)2/h5-10,17-20,28-29,39-40H,11-16H2,1-4H3/t28-,29+/m0/s1

> <PUBCHEM_IUPAC_INCHIKEY>
ZVVVPJJQRQNTAT-URLMMPGGSA-N

> <PUBCHEM_XLOGP3_AA>
6

> <PUBCHEM_EXACT_MASS>
594.272987

> <PUBCHEM_MOLECULAR_FORMULA>
C36H38N2O6

> <PUBCHEM_MOLECULAR_WEIGHT>
594.69672

> <PUBCHEM_OPENEYE_CAN_SMILES>
CN1CCC2=CC(=C3C=C2C1CC4=CC(=C(C=C4)O)OC5=CC=C(CC6C7=CC(=C(C(=C7CCN6C)OC)O)O3)C=C5)OC

> <PUBCHEM_OPENEYE_ISO_SMILES>
CN1CCC2=CC(=C3C=C2[C@@H]1CC4=CC(=C(C=C4)O)OC5=CC=C(C[C@@H]6C7=CC(=C(C(=C7CCN6C)OC)O)O3)C=C5)OC

> <PUBCHEM_CACTVS_TPSA>
83.9

> <PUBCHEM_MONOISOTOPIC_WEIGHT>
594.272987

> <PUBCHEM_TOTAL_CHARGE>
0

> <PUBCHEM_HEAVY_ATOM_COUNT>
44

> <PUBCHEM_ATOM_DEF_STEREO_COUNT>
2

> <PUBCHEM_ATOM_UDEF_STEREO_COUNT>
0

> <PUBCHEM_BOND_DEF_STEREO_COUNT>
0

> <PUBCHEM_BOND_UDEF_STEREO_COUNT>
0

> <PUBCHEM_ISOTOPIC_ATOM_COUNT>
0

> <PUBCHEM_COMPONENT_COUNT>
1

> <PUBCHEM_CACTVS_TAUTO_COUNT>
1

> <PUBCHEM_COORDINATE_TYPE>
1
5
255

> <PUBCHEM_BONDANNOTATIONS>
10  46  6
11  14  8
11  21  8
12  17  8
12  22  8
14  23  8
17  26  8
21  25  8
22  28  8
23  31  8
25  31  8
26  32  8
28  32  8
29  34  8
29  35  8
30  33  8
30  36  8
33  37  8
34  39  8
35  40  8
36  41  8
37  42  8
38  39  8
38  40  8
41  42  8
9  45  6

$$$$

