161734
  -OEChem-07051212583D

 26 26  0     1  0  0  0  0  0999 V2000
   -2.0977   -1.5765   -0.6061 O   0  0  0  0  0  0  0  0  0  0  0  0
    1.7970    0.7021    1.4584 O   0  0  0  0  0  0  0  0  0  0  0  0
   -0.5156    0.2716   -0.7753 C   0  0  2  0  0  0  0  0  0  0  0  0
   -0.7227   -1.2628   -0.8151 C   0  0  1  0  0  0  0  0  0  0  0  0
    0.9774    0.5527   -0.7832 C   0  0  0  0  0  0  0  0  0  0  0  0
    1.7975   -0.1256    0.2966 C   0  0  2  0  0  0  0  0  0  0  0  0
   -1.1855    0.9486    0.3927 C   0  0  0  0  0  0  0  0  0  0  0  0
    0.1402   -2.0086    0.1670 C   0  0  0  0  0  0  0  0  0  0  0  0
    1.2683   -1.4855    0.6709 C   0  0  0  0  0  0  0  0  0  0  0  0
   -1.6791    2.3447    0.1539 C   0  0  0  0  0  0  0  0  0  0  0  0
    1.5525    1.3017   -1.7373 C   0  0  0  0  0  0  0  0  0  0  0  0
   -1.3323    0.3375    1.5776 C   0  0  0  0  0  0  0  0  0  0  0  0
   -0.9859    0.6637   -1.6888 H   0  0  0  0  0  0  0  0  0  0  0  0
   -0.4683   -1.6384   -1.8151 H   0  0  0  0  0  0  0  0  0  0  0  0
    2.8388   -0.2440   -0.0265 H   0  0  0  0  0  0  0  0  0  0  0  0
   -0.1561   -3.0127    0.4563 H   0  0  0  0  0  0  0  0  0  0  0  0
    1.8501   -2.0717    1.3770 H   0  0  0  0  0  0  0  0  0  0  0  0
   -0.8515    3.0004   -0.1351 H   0  0  0  0  0  0  0  0  0  0  0  0
   -2.4262    2.3532   -0.6464 H   0  0  0  0  0  0  0  0  0  0  0  0
   -2.1456    2.7753    1.0462 H   0  0  0  0  0  0  0  0  0  0  0  0
    0.9646    1.7621   -2.5242 H   0  0  0  0  0  0  0  0  0  0  0  0
    2.6236    1.4735   -1.7483 H   0  0  0  0  0  0  0  0  0  0  0  0
   -2.6106   -1.1145   -1.2911 H   0  0  0  0  0  0  0  0  0  0  0  0
   -1.8210    0.8689    2.3910 H   0  0  0  0  0  0  0  0  0  0  0  0
   -1.0253   -0.6626    1.8335 H   0  0  0  0  0  0  0  0  0  0  0  0
    2.1949    1.5555    1.2146 H   0  0  0  0  0  0  0  0  0  0  0  0
  1  4  1  0  0  0  0
  1 23  1  0  0  0  0
  2  6  1  0  0  0  0
  2 26  1  0  0  0  0
  3  4  1  0  0  0  0
  3  5  1  0  0  0  0
  3  7  1  0  0  0  0
  3 13  1  0  0  0  0
  4  8  1  0  0  0  0
  4 14  1  0  0  0  0
  5  6  1  0  0  0  0
  5 11  2  0  0  0  0
  6  9  1  0  0  0  0
  6 15  1  0  0  0  0
  7 10  1  0  0  0  0
  7 12  2  0  0  0  0
  8  9  2  0  0  0  0
  8 16  1  0  0  0  0
  9 17  1  0  0  0  0
 10 18  1  0  0  0  0
 10 19  1  0  0  0  0
 10 20  1  0  0  0  0
 11 21  1  0  0  0  0
 11 22  1  0  0  0  0
 12 24  1  0  0  0  0
 12 25  1  0  0  0  0
M  END
> <PUBCHEM_COMPOUND_CID>
161734

> <PUBCHEM_CONFORMER_RMSD>
0.4

> <PUBCHEM_CONFORMER_DIVERSEORDER>
1
3
2

> <PUBCHEM_MMFF94_PARTIAL_CHARGES>
20
1 -0.68
10 0.14
11 -0.3
12 -0.3
16 0.15
17 0.15
2 -0.68
21 0.15
22 0.15
23 0.4
24 0.15
25 0.15
26 0.4
3 0.28
4 0.42
5 -0.28
6 0.56
7 -0.28
8 -0.29
9 -0.29

> <PUBCHEM_EFFECTIVE_ROTOR_COUNT>
1.6

> <PUBCHEM_PHARMACOPHORE_FEATURES>
5
1 1 acceptor
1 1 donor
1 2 acceptor
1 2 donor
6 3 4 5 6 8 9 rings

> <PUBCHEM_HEAVY_ATOM_COUNT>
12

> <PUBCHEM_ATOM_DEF_STEREO_COUNT>
3

> <PUBCHEM_ATOM_UDEF_STEREO_COUNT>
0

> <PUBCHEM_BOND_DEF_STEREO_COUNT>
0

> <PUBCHEM_BOND_UDEF_STEREO_COUNT>
0

> <PUBCHEM_ISOTOPIC_ATOM_COUNT>
0

> <PUBCHEM_COMPONENT_COUNT>
1

> <PUBCHEM_CACTVS_TAUTO_COUNT>
1

> <PUBCHEM_CONFORMER_ID>
000277C600000001

> <PUBCHEM_MMFF94_ENERGY>
21.697

> <PUBCHEM_FEATURE_SELFOVERLAP>
25.371

> <PUBCHEM_SHAPE_FINGERPRINT>
10702982 57 18125969781400423364
12423570 1 14060639015040179184
13024252 1 14042688311090850040
137420 1 8803936500343051958
14817 1 9550667953814665780
15557651 10 17754974801112574416
15775835 57 18188483695923931537
16945 1 18046372951973827651
18185500 45 18195818374752477743
19837323 101 17763137464042294972
20511035 2 18052807341316863297
21040471 1 18190457353676522685
21922407 69 18272080561394937236
23419403 2 15813780502724901755
241688 4 17913796047610105538
2748010 2 16250841022047226086
430814 3 17829846084066123793
4369600 1 17760078523698532214
5084963 1 18190720081105025551
535629 181 17471254424121042509

> <PUBCHEM_SHAPE_MULTIPOLES>
235.22
2.45
2.18
1.45
0.94
0.36
0.17
-0.6
0.66
-0.13
-0.73
-0.14
-0.28
-0.31

> <PUBCHEM_SHAPE_SELFOVERLAP>
477.969

> <PUBCHEM_SHAPE_VOLUME>
135.6

> <PUBCHEM_COORDINATE_TYPE>
2
5
10

$$$$

