439396
  -OEChem-07051212453D

 29 29  0     1  0  0  0  0  0999 V2000
    3.7075    0.0486   -0.0287 P   0  0  0  0  0  0  0  0  0  0  0  0
   -1.1917    1.0032    0.5015 O   0  0  0  0  0  0  0  0  0  0  0  0
   -2.8352   -2.0986   -0.2534 O   0  0  0  0  0  0  0  0  0  0  0  0
   -0.4119   -1.2933   -1.2263 O   0  0  0  0  0  0  0  0  0  0  0  0
   -3.3689    0.6321    1.3372 O   0  0  0  0  0  0  0  0  0  0  0  0
    2.2111   -0.3113    0.4713 O   0  0  0  0  0  0  0  0  0  0  0  0
   -3.2925    2.0115   -1.0664 O   0  0  0  0  0  0  0  0  0  0  0  0
    3.9826    1.5113    0.6038 O   0  0  0  0  0  0  0  0  0  0  0  0
    3.4970    0.3573   -1.6020 O   0  0  0  0  0  0  0  0  0  0  0  0
    4.7464   -0.9897    0.2800 O   0  0  0  0  0  0  0  0  0  0  0  0
   -2.0670   -1.2034    0.5240 C   0  0  1  0  0  0  0  0  0  0  0  0
   -0.5914   -1.2568    0.1836 C   0  0  2  0  0  0  0  0  0  0  0  0
   -2.4257    0.2746    0.3269 C   0  0  2  0  0  0  0  0  0  0  0  0
   -0.1281    0.0686    0.7731 C   0  0  1  0  0  0  0  0  0  0  0  0
    1.1717    0.6200    0.2172 C   0  0  0  0  0  0  0  0  0  0  0  0
   -3.0039    0.6258   -1.0418 C   0  0  0  0  0  0  0  0  0  0  0  0
   -2.1969   -1.4934    1.5745 H   0  0  0  0  0  0  0  0  0  0  0  0
   -0.0768   -2.1207    0.6146 H   0  0  0  0  0  0  0  0  0  0  0  0
   -0.0515   -0.0297    1.8640 H   0  0  0  0  0  0  0  0  0  0  0  0
    1.4014    1.5760    0.7002 H   0  0  0  0  0  0  0  0  0  0  0  0
    1.0872    0.8155   -0.8571 H   0  0  0  0  0  0  0  0  0  0  0  0
   -3.9442    0.0971   -1.2247 H   0  0  0  0  0  0  0  0  0  0  0  0
   -2.3069    0.4133   -1.8571 H   0  0  0  0  0  0  0  0  0  0  0  0
   -2.4780   -2.9917   -0.1109 H   0  0  0  0  0  0  0  0  0  0  0  0
   -0.8342   -2.1064   -1.5520 H   0  0  0  0  0  0  0  0  0  0  0  0
   -3.0945    0.2319    2.1787 H   0  0  0  0  0  0  0  0  0  0  0  0
   -2.4616    2.4874   -0.8964 H   0  0  0  0  0  0  0  0  0  0  0  0
    4.8679    1.9182    0.4910 H   0  0  0  0  0  0  0  0  0  0  0  0
    4.2850    0.5164   -2.1640 H   0  0  0  0  0  0  0  0  0  0  0  0
  1  6  1  0  0  0  0
  1  8  1  0  0  0  0
  1  9  1  0  0  0  0
  1 10  2  0  0  0  0
  2 13  1  0  0  0  0
  2 14  1  0  0  0  0
  3 11  1  0  0  0  0
  3 24  1  0  0  0  0
  4 12  1  0  0  0  0
  4 25  1  0  0  0  0
  5 13  1  0  0  0  0
  5 26  1  0  0  0  0
  6 15  1  0  0  0  0
  7 16  1  0  0  0  0
  7 27  1  0  0  0  0
  8 28  1  0  0  0  0
  9 29  1  0  0  0  0
 11 12  1  0  0  0  0
 11 13  1  0  0  0  0
 11 17  1  0  0  0  0
 12 14  1  0  0  0  0
 12 18  1  0  0  0  0
 13 16  1  0  0  0  0
 14 15  1  0  0  0  0
 14 19  1  0  0  0  0
 15 20  1  0  0  0  0
 15 21  1  0  0  0  0
 16 22  1  0  0  0  0
 16 23  1  0  0  0  0
M  END
> <PUBCHEM_COMPOUND_CID>
439396

> <PUBCHEM_CONFORMER_RMSD>
0.6

> <PUBCHEM_CONFORMER_DIVERSEORDER>
9
39
34
51
22
33
5
36
48
49
4
15
43
52
14
46
24
50
8
31
3
17
23
26
44
37
28
29
13
32
10
27
47
40
12
18
45
2
25
30
35
21
38
16
1
42
20
19
41
6
11
7

> <PUBCHEM_MMFF94_PARTIAL_CHARGES>
22
1 1.51
10 -0.7
11 0.28
12 0.28
13 0.56
14 0.28
15 0.28
16 0.28
2 -0.56
24 0.4
25 0.4
26 0.4
27 0.4
28 0.5
29 0.5
3 -0.68
4 -0.68
5 -0.68
6 -0.55
7 -0.68
8 -0.77
9 -0.77

> <PUBCHEM_EFFECTIVE_ROTOR_COUNT>
5

> <PUBCHEM_PHARMACOPHORE_FEATURES>
14
1 10 acceptor
1 2 acceptor
1 3 acceptor
1 3 donor
1 4 acceptor
1 4 donor
1 5 acceptor
1 5 donor
1 7 acceptor
1 7 donor
1 8 acceptor
1 9 acceptor
4 1 8 9 10 anion
5 2 11 12 13 14 rings

> <PUBCHEM_HEAVY_ATOM_COUNT>
16

> <PUBCHEM_ATOM_DEF_STEREO_COUNT>
3

> <PUBCHEM_ATOM_UDEF_STEREO_COUNT>
1

> <PUBCHEM_BOND_DEF_STEREO_COUNT>
0

> <PUBCHEM_BOND_UDEF_STEREO_COUNT>
0

> <PUBCHEM_ISOTOPIC_ATOM_COUNT>
0

> <PUBCHEM_COMPONENT_COUNT>
1

> <PUBCHEM_CACTVS_TAUTO_COUNT>
1

> <PUBCHEM_CONFORMER_ID>
0006B46400000009

> <PUBCHEM_MMFF94_ENERGY>
7.7349

> <PUBCHEM_FEATURE_SELFOVERLAP>
71.142

> <PUBCHEM_SHAPE_FINGERPRINT>
10014705 185 18342746195261043624
10680689 15 18202560670422114026
12138202 97 18410017667123712639
12173636 292 18202571661117051223
12186901 62 18413383237513549159
12932764 1 18343582927978328984
13024252 1 16774081748275250667
13296908 3 18187362087100679298
13675066 3 18060699498669094728
16945 1 18335424611982630531
18186145 218 18334851715027545240
19422 9 18342171129574041578
1986462 14 18408601435621864906
200 152 15647058178892372244
20279233 1 16877940542872028950
20645476 183 18202570595975945211
20645477 56 18343302582578231213
20645477 70 17748820839533774342
23402539 116 17095808818970716216
23559900 14 18259989288771281458
2748010 2 18043543724072329249
3248919 1 17095515189368186200
4175511 318 18413109472103309765
633830 44 17458613541079610620

> <PUBCHEM_SHAPE_MULTIPOLES>
280.3
7.88
1.64
1.14
7.86
0.12
0.24
-1.27
0.45
-1.15
0.24
-0.24
-0.18
0.27

> <PUBCHEM_SHAPE_SELFOVERLAP>
551.017

> <PUBCHEM_SHAPE_VOLUME>
170

> <PUBCHEM_COORDINATE_TYPE>
2
5
10

$$$$

