232426
  -OEChem-07051213073D

 49 52  0     1  0  0  0  0  0999 V2000
   -5.2487    1.3273    0.2053 O   0  0  0  0  0  0  0  0  0  0  0  0
    5.4307   -0.4501    0.7208 O   0  0  0  0  0  0  0  0  0  0  0  0
   -2.1958   -0.6674    0.3626 C   0  0  2  0  0  0  0  0  0  0  0  0
   -2.8824    0.6446   -0.0653 C   0  0  2  0  0  0  0  0  0  0  0  0
   -0.8219   -0.8465   -0.2851 C   0  0  1  0  0  0  0  0  0  0  0  0
    0.0933    0.3384    0.1448 C   0  0  2  0  0  0  0  0  0  0  0  0
   -2.0143    1.8140    0.4157 C   0  0  0  0  0  0  0  0  0  0  0  0
   -4.2201    0.4816    0.6829 C   0  0  2  0  0  0  0  0  0  0  0  0
   -0.5749    1.7123   -0.1202 C   0  0  0  0  0  0  0  0  0  0  0  0
   -3.2719   -1.7247    0.1315 C   0  0  0  0  0  0  0  0  0  0  0  0
    1.5035    0.2227   -0.5109 C   0  0  2  0  0  0  0  0  0  0  0  0
   -0.1709   -2.1783    0.1075 C   0  0  0  0  0  0  0  0  0  0  0  0
   -4.5862   -1.0003    0.4749 C   0  0  0  0  0  0  0  0  0  0  0  0
   -3.1305    0.7795   -1.5892 C   0  0  0  0  0  0  0  0  0  0  0  0
    2.0997   -1.1596   -0.2841 C   0  0  0  0  0  0  0  0  0  0  0  0
    1.1908   -2.3313   -0.5615 C   0  0  0  0  0  0  0  0  0  0  0  0
    2.4334    1.3428    0.0030 C   0  0  0  0  0  0  0  0  0  0  0  0
    3.8990    1.0921   -0.3462 C   0  0  2  0  0  0  0  0  0  0  0  0
    3.3665   -1.3739    0.1044 C   0  0  0  0  0  0  0  0  0  0  0  0
    4.3215   -0.2473    0.2321 C   0  0  0  0  0  0  0  0  0  0  0  0
    4.7790    2.2242    0.1770 C   0  0  0  0  0  0  0  0  0  0  0  0
   -2.0309   -0.6355    1.4529 H   0  0  0  0  0  0  0  0  0  0  0  0
   -0.9270   -0.8410   -1.3772 H   0  0  0  0  0  0  0  0  0  0  0  0
    0.2290    0.2648    1.2354 H   0  0  0  0  0  0  0  0  0  0  0  0
   -1.9752    1.8251    1.5127 H   0  0  0  0  0  0  0  0  0  0  0  0
   -2.4535    2.7725    0.1140 H   0  0  0  0  0  0  0  0  0  0  0  0
   -4.0889    0.6808    1.7541 H   0  0  0  0  0  0  0  0  0  0  0  0
   -0.5633    1.9247   -1.1955 H   0  0  0  0  0  0  0  0  0  0  0  0
    0.0086    2.5089    0.3555 H   0  0  0  0  0  0  0  0  0  0  0  0
   -3.1255   -2.6046    0.7661 H   0  0  0  0  0  0  0  0  0  0  0  0
   -3.2839   -2.0650   -0.9099 H   0  0  0  0  0  0  0  0  0  0  0  0
    1.3914    0.3473   -1.5973 H   0  0  0  0  0  0  0  0  0  0  0  0
   -0.8078   -3.0170   -0.1965 H   0  0  0  0  0  0  0  0  0  0  0  0
   -0.0595   -2.2398    1.1976 H   0  0  0  0  0  0  0  0  0  0  0  0
   -5.3246   -1.1365   -0.3233 H   0  0  0  0  0  0  0  0  0  0  0  0
   -5.0287   -1.4093    1.3902 H   0  0  0  0  0  0  0  0  0  0  0  0
   -2.2067    0.7509   -2.1727 H   0  0  0  0  0  0  0  0  0  0  0  0
   -3.7774   -0.0125   -1.9794 H   0  0  0  0  0  0  0  0  0  0  0  0
   -3.6192    1.7342   -1.8162 H   0  0  0  0  0  0  0  0  0  0  0  0
    1.0536   -2.4121   -1.6476 H   0  0  0  0  0  0  0  0  0  0  0  0
    1.6426   -3.2751   -0.2330 H   0  0  0  0  0  0  0  0  0  0  0  0
    2.1246    2.3026   -0.4283 H   0  0  0  0  0  0  0  0  0  0  0  0
    2.3305    1.4346    1.0933 H   0  0  0  0  0  0  0  0  0  0  0  0
    4.0195    1.0318   -1.4353 H   0  0  0  0  0  0  0  0  0  0  0  0
   -6.0636    1.0949    0.6823 H   0  0  0  0  0  0  0  0  0  0  0  0
    3.7564   -2.3711    0.2768 H   0  0  0  0  0  0  0  0  0  0  0  0
    5.8261    2.0663   -0.1035 H   0  0  0  0  0  0  0  0  0  0  0  0
    4.4633    3.1876   -0.2366 H   0  0  0  0  0  0  0  0  0  0  0  0
    4.7367    2.2899    1.2700 H   0  0  0  0  0  0  0  0  0  0  0  0
  1  8  1  0  0  0  0
  1 45  1  0  0  0  0
  2 20  2  0  0  0  0
  3  4  1  0  0  0  0
  3  5  1  0  0  0  0
  3 10  1  0  0  0  0
  3 22  1  0  0  0  0
  4  7  1  0  0  0  0
  4  8  1  0  0  0  0
  4 14  1  0  0  0  0
  5  6  1  0  0  0  0
  5 12  1  0  0  0  0
  5 23  1  0  0  0  0
  6  9  1  0  0  0  0
  6 11  1  0  0  0  0
  6 24  1  0  0  0  0
  7  9  1  0  0  0  0
  7 25  1  0  0  0  0
  7 26  1  0  0  0  0
  8 13  1  0  0  0  0
  8 27  1  0  0  0  0
  9 28  1  0  0  0  0
  9 29  1  0  0  0  0
 10 13  1  0  0  0  0
 10 30  1  0  0  0  0
 10 31  1  0  0  0  0
 11 15  1  0  0  0  0
 11 17  1  0  0  0  0
 11 32  1  0  0  0  0
 12 16  1  0  0  0  0
 12 33  1  0  0  0  0
 12 34  1  0  0  0  0
 13 35  1  0  0  0  0
 13 36  1  0  0  0  0
 14 37  1  0  0  0  0
 14 38  1  0  0  0  0
 14 39  1  0  0  0  0
 15 16  1  0  0  0  0
 15 19  2  0  0  0  0
 16 40  1  0  0  0  0
 16 41  1  0  0  0  0
 17 18  1  0  0  0  0
 17 42  1  0  0  0  0
 17 43  1  0  0  0  0
 18 20  1  0  0  0  0
 18 21  1  0  0  0  0
 18 44  1  0  0  0  0
 19 20  1  0  0  0  0
 19 46  1  0  0  0  0
 21 47  1  0  0  0  0
 21 48  1  0  0  0  0
 21 49  1  0  0  0  0
M  END
> <PUBCHEM_COMPOUND_CID>
232426

> <PUBCHEM_CONFORMER_RMSD>
0.6

> <PUBCHEM_CONFORMER_DIVERSEORDER>
1
2

> <PUBCHEM_MMFF94_PARTIAL_CHARGES>
11
1 -0.68
11 0.14
15 -0.28
16 0.14
18 0.06
19 -0.14
2 -0.57
20 0.49
45 0.4
46 0.15
8 0.28

> <PUBCHEM_EFFECTIVE_ROTOR_COUNT>
1.8

> <PUBCHEM_PHARMACOPHORE_FEATURES>
7
1 1 acceptor
1 1 donor
1 2 acceptor
5 3 4 8 10 13 rings
6 11 15 17 18 19 20 rings
6 3 4 5 6 7 9 rings
6 5 6 11 12 15 16 rings

> <PUBCHEM_HEAVY_ATOM_COUNT>
21

> <PUBCHEM_ATOM_DEF_STEREO_COUNT>
7

> <PUBCHEM_ATOM_UDEF_STEREO_COUNT>
0

> <PUBCHEM_BOND_DEF_STEREO_COUNT>
0

> <PUBCHEM_BOND_UDEF_STEREO_COUNT>
0

> <PUBCHEM_ISOTOPIC_ATOM_COUNT>
0

> <PUBCHEM_COMPONENT_COUNT>
1

> <PUBCHEM_CACTVS_TAUTO_COUNT>
8

> <PUBCHEM_CONFORMER_ID>
00038BEA00000001

> <PUBCHEM_MMFF94_ENERGY>
59.4654

> <PUBCHEM_FEATURE_SELFOVERLAP>
35.618

> <PUBCHEM_SHAPE_FINGERPRINT>
10062212 137 18410297982237733023
10411042 1 17040072044950367406
10616163 171 18409162186689382143
10967382 1 18410008862087087358
11132069 177 18411412929998881431
11578080 2 16628005198326645438
12107183 9 17764028360560677104
12403259 226 18269276936215626236
12403259 415 18273216421579093476
12403814 3 17917992772324960213
12507557 5 18342461451998609688
12592029 89 18413105091416347466
12670546 56 17561094587366415434
12788726 201 17531513343929572800
13140716 1 18338235959856109186
13214271 11 18334857221386589343
13224815 77 18409446985754092774
13533116 47 17346324850946470250
13583140 156 17060075751513292582
13675066 3 17988921167209102842
14223421 5 18338795744376441847
14341114 176 18413101779969798378
14787075 74 18337955584502094787
14790565 3 18194110824863641484
15163728 17 14925890809217283521
15196674 1 18410572864191406154
15375358 24 18411978087665713179
15536298 74 18334288803433534422
15788980 27 17060623308288113716
16945 1 18194679491391575407
17349148 13 18342741814578647782
17492 89 18411981407301828738
1813 80 16988840566376816077
18186145 218 18411696616852055862
19050596 39 18410292514675475088
19591789 44 18192993720848711323
19784866 9 18409447011571532026
200 152 18186807980674811503
20715895 44 18126290976504401333
21267235 1 18411128152413970170
21421861 104 17986674976686296290
21652331 79 18410855434574830728
23227448 37 18262237716176192590
23402539 116 18335708229921298431
23559900 14 18264207075088877238
26918003 58 18412826906168028041
296302 2 18260544524330520503
335352 9 18410291441308353806
34934 24 18408887369360054831
350125 39 18411417319961996588
351380 180 18411982472769339298
3545911 37 18411978082990794908
3680242 22 18268425905129901826
4214541 1 18413107268642720369
474 4 18408039641030314714
474229 33 18409167675567779222
5104073 3 18412542098138304480
633830 44 18114175367350581156
69090 78 18410576167095337138
7364860 26 18190174770872926686
9709674 26 18263638622770530111

> <PUBCHEM_SHAPE_MULTIPOLES>
420.43
10.42
2.35
0.85
2.45
0.27
0.18
-2.55
-1.66
0.59
0.03
-0.38
-0.07
0.18

> <PUBCHEM_SHAPE_SELFOVERLAP>
899.89

> <PUBCHEM_SHAPE_VOLUME>
230.6

> <PUBCHEM_COORDINATE_TYPE>
2
5
10

$$$$

