23724521
  -OEChem-07051213032D

 75 77  0     0  0  0  0  0  0999 V2000
    3.0219    8.8184    0.0000 Cl  0  0  0  0  0  0  0  0  0  0  0  0
    0.0000    6.1542    0.0000 Cl  0  0  0  0  0  0  0  0  0  0  0  0
    7.2326   12.3084    0.0000 Cl  0  0  0  0  0  0  0  0  0  0  0  0
   12.0894    2.8486    0.0000 O   0  0  0  0  0  0  0  0  0  0  0  0
   10.4970    2.5066    0.0000 N   0  0  0  0  0  0  0  0  0  0  0  0
    8.5914    4.4914    0.0000 N   0  0  0  0  0  0  0  0  0  0  0  0
   11.8234    4.3574    0.0000 N   0  0  0  0  0  0  0  0  0  0  0  0
    6.8593    7.4914    0.0000 N   0  0  0  0  0  0  0  0  0  0  0  0
   10.3234    3.4914    0.0000 C   0  0  0  0  0  0  0  0  0  0  0  0
    9.4574    2.9914    0.0000 C   0  0  0  0  0  0  0  0  0  0  0  0
   10.3234    4.4914    0.0000 C   0  0  0  0  0  0  0  0  0  0  0  0
    8.5914    3.4914    0.0000 C   0  0  0  0  0  0  0  0  0  0  0  0
    9.4574    4.9914    0.0000 C   0  0  0  0  0  0  0  0  0  0  0  0
    9.7311    1.8637    0.0000 C   0  0  0  0  0  0  0  0  0  0  0  0
   11.4367    2.1645    0.0000 C   0  0  0  0  0  0  0  0  0  0  0  0
   11.6104    1.1797    0.0000 C   0  0  0  0  0  0  0  0  0  0  0  0
    9.9046    0.8790    0.0000 C   0  0  0  0  0  0  0  0  0  0  0  0
   11.3234    3.4914    0.0000 C   0  0  0  0  0  0  0  0  0  0  0  0
   10.8443    0.5369    0.0000 C   0  0  0  0  0  0  0  0  0  0  0  0
    7.7253    4.9914    0.0000 C   0  0  0  0  0  0  0  0  0  0  0  0
    7.7253    5.9914    0.0000 C   0  0  0  0  0  0  0  0  0  0  0  0
    6.8593    6.4914    0.0000 C   0  0  0  0  0  0  0  0  0  0  0  0
    5.9584    7.9253    0.0000 C   0  0  0  0  0  0  0  0  0  0  0  0
    7.7603    7.9253    0.0000 C   0  0  0  0  0  0  0  0  0  0  0  0
    5.7358    8.9002    0.0000 C   0  0  0  0  0  0  0  0  0  0  0  0
    7.9828    8.9002    0.0000 C   0  0  0  0  0  0  0  0  0  0  0  0
    6.3593    9.6820    0.0000 C   0  0  0  0  0  0  0  0  0  0  0  0
    7.3593    9.6820    0.0000 C   0  0  0  0  0  0  0  0  0  0  0  0
    5.2058    7.2051    0.0000 C   0  0  0  0  0  0  0  0  0  0  0  0
    8.5128    7.2051    0.0000 C   0  0  0  0  0  0  0  0  0  0  0  0
    4.7454    9.2226    0.0000 C   0  0  0  0  0  0  0  0  0  0  0  0
    8.9733    9.2225    0.0000 C   0  0  0  0  0  0  0  0  0  0  0  0
    4.2081    7.5045    0.0000 C   0  0  0  0  0  0  0  0  0  0  0  0
    9.5105    7.5044    0.0000 C   0  0  0  0  0  0  0  0  0  0  0  0
    3.9763    8.5200    0.0000 C   0  0  0  0  0  0  0  0  0  0  0  0
    9.7423    8.5199    0.0000 C   0  0  0  0  0  0  0  0  0  0  0  0
   10.9340    4.3837    0.0000 H   0  0  0  0  0  0  0  0  0  0  0  0
   10.5355    5.0740    0.0000 H   0  0  0  0  0  0  0  0  0  0  0  0
    9.0588    2.5164    0.0000 H   0  0  0  0  0  0  0  0  0  0  0  0
    9.8559    2.5164    0.0000 H   0  0  0  0  0  0  0  0  0  0  0  0
    9.8559    5.4663    0.0000 H   0  0  0  0  0  0  0  0  0  0  0  0
    9.0589    5.4663    0.0000 H   0  0  0  0  0  0  0  0  0  0  0  0
    7.9808    3.5990    0.0000 H   0  0  0  0  0  0  0  0  0  0  0  0
    8.3793    2.9088    0.0000 H   0  0  0  0  0  0  0  0  0  0  0  0
   12.0567    2.1645    0.0000 H   0  0  0  0  0  0  0  0  0  0  0  0
   11.5444    2.7751    0.0000 H   0  0  0  0  0  0  0  0  0  0  0  0
    9.4211    2.4007    0.0000 H   0  0  0  0  0  0  0  0  0  0  0  0
    9.1485    1.6517    0.0000 H   0  0  0  0  0  0  0  0  0  0  0  0
    9.2846    0.8790    0.0000 H   0  0  0  0  0  0  0  0  0  0  0  0
    9.7970    0.2684    0.0000 H   0  0  0  0  0  0  0  0  0  0  0  0
   11.9204    0.6428    0.0000 H   0  0  0  0  0  0  0  0  0  0  0  0
   12.1930    1.3918    0.0000 H   0  0  0  0  0  0  0  0  0  0  0  0
   10.5343    0.0000    0.0000 H   0  0  0  0  0  0  0  0  0  0  0  0
   11.3193    0.1384    0.0000 H   0  0  0  0  0  0  0  0  0  0  0  0
    7.1148    5.0990    0.0000 H   0  0  0  0  0  0  0  0  0  0  0  0
    7.5133    4.4088    0.0000 H   0  0  0  0  0  0  0  0  0  0  0  0
    8.3359    5.8837    0.0000 H   0  0  0  0  0  0  0  0  0  0  0  0
    7.9374    6.5740    0.0000 H   0  0  0  0  0  0  0  0  0  0  0  0
   12.4434    4.3574    0.0000 H   0  0  0  0  0  0  0  0  0  0  0  0
   11.5134    4.8943    0.0000 H   0  0  0  0  0  0  0  0  0  0  0  0
    6.2487    6.5990    0.0000 H   0  0  0  0  0  0  0  0  0  0  0  0
    6.6473    5.9088    0.0000 H   0  0  0  0  0  0  0  0  0  0  0  0
    6.4973   10.2865    0.0000 H   0  0  0  0  0  0  0  0  0  0  0  0
    5.8007    9.9510    0.0000 H   0  0  0  0  0  0  0  0  0  0  0  0
    7.9180    9.9510    0.0000 H   0  0  0  0  0  0  0  0  0  0  0  0
    7.2214   10.2865    0.0000 H   0  0  0  0  0  0  0  0  0  0  0  0
    5.3507    6.6023    0.0000 H   0  0  0  0  0  0  0  0  0  0  0  0
    8.3679    6.6023    0.0000 H   0  0  0  0  0  0  0  0  0  0  0  0
    4.6144    9.8286    0.0000 H   0  0  0  0  0  0  0  0  0  0  0  0
    9.1043    9.8285    0.0000 H   0  0  0  0  0  0  0  0  0  0  0  0
    3.7552    7.0810    0.0000 H   0  0  0  0  0  0  0  0  0  0  0  0
    9.9634    7.0810    0.0000 H   0  0  0  0  0  0  0  0  0  0  0  0
   10.3341    8.7050    0.0000 H   0  0  0  0  0  0  0  0  0  0  0  0
    1.0000    6.1542    0.0000 H   0  0  0  0  0  0  0  0  0  0  0  0
    8.2326   12.3084    0.0000 H   0  0  0  0  0  0  0  0  0  0  0  0
  1 35  1  0  0  0  0
  2 74  1  0  0  0  0
  3 75  1  0  0  0  0
  4 18  2  0  0  0  0
  5  9  1  0  0  0  0
  5 14  1  0  0  0  0
  5 15  1  0  0  0  0
  6 12  1  0  0  0  0
  6 13  1  0  0  0  0
  6 20  1  0  0  0  0
  7 18  1  0  0  0  0
  7 59  1  0  0  0  0
  7 60  1  0  0  0  0
  8 22  1  0  0  0  0
  8 23  1  0  0  0  0
  8 24  1  0  0  0  0
  9 10  1  0  0  0  0
  9 11  1  0  0  0  0
  9 18  1  0  0  0  0
 10 12  1  0  0  0  0
 10 39  1  0  0  0  0
 10 40  1  0  0  0  0
 11 13  1  0  0  0  0
 11 37  1  0  0  0  0
 11 38  1  0  0  0  0
 12 43  1  0  0  0  0
 12 44  1  0  0  0  0
 13 41  1  0  0  0  0
 13 42  1  0  0  0  0
 14 17  1  0  0  0  0
 14 47  1  0  0  0  0
 14 48  1  0  0  0  0
 15 16  1  0  0  0  0
 15 45  1  0  0  0  0
 15 46  1  0  0  0  0
 16 19  1  0  0  0  0
 16 51  1  0  0  0  0
 16 52  1  0  0  0  0
 17 19  1  0  0  0  0
 17 49  1  0  0  0  0
 17 50  1  0  0  0  0
 19 53  1  0  0  0  0
 19 54  1  0  0  0  0
 20 21  1  0  0  0  0
 20 55  1  0  0  0  0
 20 56  1  0  0  0  0
 21 22  1  0  0  0  0
 21 57  1  0  0  0  0
 21 58  1  0  0  0  0
 22 61  1  0  0  0  0
 22 62  1  0  0  0  0
 23 25  2  0  0  0  0
 23 29  1  0  0  0  0
 24 26  1  0  0  0  0
 24 30  2  0  0  0  0
 25 27  1  0  0  0  0
 25 31  1  0  0  0  0
 26 28  1  0  0  0  0
 26 32  2  0  0  0  0
 27 28  1  0  0  0  0
 27 63  1  0  0  0  0
 27 64  1  0  0  0  0
 28 65  1  0  0  0  0
 28 66  1  0  0  0  0
 29 33  2  0  0  0  0
 29 67  1  0  0  0  0
 30 34  1  0  0  0  0
 30 68  1  0  0  0  0
 31 35  2  0  0  0  0
 31 69  1  0  0  0  0
 32 36  1  0  0  0  0
 32 70  1  0  0  0  0
 33 35  1  0  0  0  0
 33 71  1  0  0  0  0
 34 36  2  0  0  0  0
 34 72  1  0  0  0  0
 36 73  1  0  0  0  0
M  END
> <PUBCHEM_COMPOUND_CID>
23724521

> <PUBCHEM_COMPOUND_CANONICALIZED>
1

> <PUBCHEM_CACTVS_COMPLEXITY>
675

> <PUBCHEM_CACTVS_HBOND_ACCEPTOR>
4

> <PUBCHEM_CACTVS_HBOND_DONOR>
3

> <PUBCHEM_CACTVS_ROTATABLE_BOND>
6

> <PUBCHEM_CACTVS_SUBSKEYS>
AAADcfB7oAAGAAAAAAAAAAAAAAAAAAAAAAA8eIEABYAAAAABQAAAHgIQAAAADIrBmCQwwINAAACIAiVSUACCAAAhBwAIiAGIZogIYHLB07GUIAhggADIyAcUgMAOAABAIAACAAAAAIBAAAQAAAAAAAAAAA==

> <PUBCHEM_IUPAC_OPENEYE_NAME>
1-[3-(3-chloro-5,6-dihydrobenzo[b][1]benzazepin-11-yl)propyl]-4-(1-piperidyl)piperidine-4-carboxamide dihydrochloride

> <PUBCHEM_IUPAC_CAS_NAME>
1-[3-(3-chloro-5,6-dihydrobenzo[b][1]benzazepin-11-yl)propyl]-4-(1-piperidinyl)-4-piperidinecarboxamide dihydrochloride

> <PUBCHEM_IUPAC_NAME>
1-[3-(3-chloro-5,6-dihydrobenzo[b][1]benzazepin-11-yl)propyl]-4-piperidin-1-ylpiperidine-4-carboxamide dihydrochloride

> <PUBCHEM_IUPAC_SYSTEMATIC_NAME>
1-[3-(3-chloranyl-5,6-dihydrobenzo[b][1]benzazepin-11-yl)propyl]-4-piperidin-1-yl-piperidine-4-carboxamide dihydrochloride

> <PUBCHEM_IUPAC_TRADITIONAL_NAME>
1-[3-(3-chloro-5,6-dihydrobenzo[b][1]benzazepin-11-yl)propyl]-4-piperidino-isonipecotamide dihydrochloride

> <PUBCHEM_IUPAC_INCHI>
InChI=1S/C28H37ClN4O.2ClH/c29-24-11-12-26-23(21-24)10-9-22-7-2-3-8-25(22)33(26)18-6-15-31-19-13-28(14-20-31,27(30)34)32-16-4-1-5-17-32;;/h2-3,7-8,11-12,21H,1,4-6,9-10,13-20H2,(H2,30,34);2*1H

> <PUBCHEM_IUPAC_INCHIKEY>
YMMOELGRZRDNCQ-UHFFFAOYSA-N

> <PUBCHEM_EXACT_MASS>
552.218945

> <PUBCHEM_MOLECULAR_FORMULA>
C28H39Cl3N4O

> <PUBCHEM_MOLECULAR_WEIGHT>
553.99446

> <PUBCHEM_OPENEYE_CAN_SMILES>
C1CCN(CC1)C2(CCN(CC2)CCCN3C4=C(CCC5=CC=CC=C53)C=C(C=C4)Cl)C(=O)N.Cl.Cl

> <PUBCHEM_OPENEYE_ISO_SMILES>
C1CCN(CC1)C2(CCN(CC2)CCCN3C4=C(CCC5=CC=CC=C53)C=C(C=C4)Cl)C(=O)N.Cl.Cl

> <PUBCHEM_CACTVS_TPSA>
52.8

> <PUBCHEM_MONOISOTOPIC_WEIGHT>
552.218945

> <PUBCHEM_TOTAL_CHARGE>
0

> <PUBCHEM_HEAVY_ATOM_COUNT>
36

> <PUBCHEM_ATOM_DEF_STEREO_COUNT>
0

> <PUBCHEM_ATOM_UDEF_STEREO_COUNT>
0

> <PUBCHEM_BOND_DEF_STEREO_COUNT>
0

> <PUBCHEM_BOND_UDEF_STEREO_COUNT>
0

> <PUBCHEM_ISOTOPIC_ATOM_COUNT>
0

> <PUBCHEM_COMPONENT_COUNT>
3

> <PUBCHEM_CACTVS_TAUTO_COUNT>
2

> <PUBCHEM_COORDINATE_TYPE>
1
5
255

> <PUBCHEM_BONDANNOTATIONS>
23  25  8
23  29  8
24  26  8
24  30  8
25  31  8
26  32  8
29  33  8
30  34  8
31  35  8
32  36  8
33  35  8
34  36  8

$$$$

