5283734
  -OEChem-07051213032D

 74 76  0     1  0  0  0  0  0999 V2000
    9.6565    3.0274    0.0000 O   0  0  0  0  0  0  0  0  0  0  0  0
    2.0000   -4.8465    0.0000 O   0  0  0  0  0  0  0  0  0  0  0  0
    5.4641   -4.8465    0.0000 O   0  0  0  0  0  0  0  0  0  0  0  0
    5.4641    1.1535    0.0000 C   0  0  2  0  0  0  0  0  0  0  0  0
    6.4103    1.4582    0.0000 C   0  0  2  0  0  0  0  0  0  0  0  0
    5.4641    0.1535    0.0000 C   0  0  1  0  0  0  0  0  0  0  0  0
    6.9939    0.6535    0.0000 C   0  0  0  0  0  0  0  0  0  0  0  0
    6.4103   -0.1512    0.0000 C   0  0  0  0  0  0  0  0  0  0  0  0
    4.5981    1.6535    0.0000 C   0  0  0  0  0  0  0  0  0  0  0  0
    6.7210    2.4087    0.0000 C   0  0  1  0  0  0  0  0  0  0  0  0
    4.5981   -0.3465    0.0000 C   0  0  0  0  0  0  0  0  0  0  0  0
    5.4641    2.1535    0.0000 C   0  0  0  0  0  0  0  0  0  0  0  0
    3.7320    1.1535    0.0000 C   0  0  0  0  0  0  0  0  0  0  0  0
    3.7320    0.1535    0.0000 C   0  0  0  0  0  0  0  0  0  0  0  0
    7.6995    2.6150    0.0000 C   0  0  0  0  0  0  0  0  0  0  0  0
    6.0531    3.1530    0.0000 C   0  0  0  0  0  0  0  0  0  0  0  0
    4.5981   -1.3465    0.0000 C   0  0  0  0  0  0  0  0  0  0  0  0
    8.0102    3.5655    0.0000 C   0  0  0  0  0  0  0  0  0  0  0  0
    8.9887    3.7717    0.0000 C   0  0  2  0  0  0  0  0  0  0  0  0
    3.7320   -1.8465    0.0000 C   0  0  0  0  0  0  0  0  0  0  0  0
    9.2993    4.7222    0.0000 C   0  0  0  0  0  0  0  0  0  0  0  0
    3.7320   -2.8465    0.0000 C   0  0  0  0  0  0  0  0  0  0  0  0
    2.8660   -3.3465    0.0000 C   0  0  0  0  0  0  0  0  0  0  0  0
   10.2778    4.9284    0.0000 C   0  0  0  0  0  0  0  0  0  0  0  0
    8.6315    5.4665    0.0000 C   0  0  0  0  0  0  0  0  0  0  0  0
    4.5981   -3.3465    0.0000 C   0  0  0  0  0  0  0  0  0  0  0  0
    2.8660   -4.3465    0.0000 C   0  0  2  0  0  0  0  0  0  0  0  0
    4.5981   -4.3465    0.0000 C   0  0  2  0  0  0  0  0  0  0  0  0
    3.7320   -4.8465    0.0000 C   0  0  0  0  0  0  0  0  0  0  0  0
    5.4641   -2.8465    0.0000 C   0  0  0  0  0  0  0  0  0  0  0  0
    7.2500    1.5901    0.0000 H   0  0  0  0  0  0  0  0  0  0  0  0
    5.5540   -0.6917    0.0000 H   0  0  0  0  0  0  0  0  0  0  0  0
    7.4548    0.2388    0.0000 H   0  0  0  0  0  0  0  0  0  0  0  0
    7.4548    1.0682    0.0000 H   0  0  0  0  0  0  0  0  0  0  0  0
    6.1593   -0.7182    0.0000 H   0  0  0  0  0  0  0  0  0  0  0  0
    6.9477   -0.4605    0.0000 H   0  0  0  0  0  0  0  0  0  0  0  0
    4.9966    2.1284    0.0000 H   0  0  0  0  0  0  0  0  0  0  0  0
    4.1996    2.1284    0.0000 H   0  0  0  0  0  0  0  0  0  0  0  0
    6.1143    2.2809    0.0000 H   0  0  0  0  0  0  0  0  0  0  0  0
    6.0841    2.1535    0.0000 H   0  0  0  0  0  0  0  0  0  0  0  0
    5.4641    2.7735    0.0000 H   0  0  0  0  0  0  0  0  0  0  0  0
    4.8441    2.1535    0.0000 H   0  0  0  0  0  0  0  0  0  0  0  0
    3.5200    1.7361    0.0000 H   0  0  0  0  0  0  0  0  0  0  0  0
    3.1215    1.0458    0.0000 H   0  0  0  0  0  0  0  0  0  0  0  0
    3.1215    0.2611    0.0000 H   0  0  0  0  0  0  0  0  0  0  0  0
    3.5200   -0.4291    0.0000 H   0  0  0  0  0  0  0  0  0  0  0  0
    7.7201    1.9953    0.0000 H   0  0  0  0  0  0  0  0  0  0  0  0
    8.3133    2.5276    0.0000 H   0  0  0  0  0  0  0  0  0  0  0  0
    6.5146    3.5671    0.0000 H   0  0  0  0  0  0  0  0  0  0  0  0
    5.6391    3.6145    0.0000 H   0  0  0  0  0  0  0  0  0  0  0  0
    5.5917    2.7390    0.0000 H   0  0  0  0  0  0  0  0  0  0  0  0
    5.1350   -1.6565    0.0000 H   0  0  0  0  0  0  0  0  0  0  0  0
    7.9896    4.1851    0.0000 H   0  0  0  0  0  0  0  0  0  0  0  0
    7.3963    3.6528    0.0000 H   0  0  0  0  0  0  0  0  0  0  0  0
    8.7960    3.1824    0.0000 H   0  0  0  0  0  0  0  0  0  0  0  0
    3.1951   -1.5365    0.0000 H   0  0  0  0  0  0  0  0  0  0  0  0
    9.4919    5.3115    0.0000 H   0  0  0  0  0  0  0  0  0  0  0  0
   10.2632    3.1552    0.0000 H   0  0  0  0  0  0  0  0  0  0  0  0
    2.6540   -2.7639    0.0000 H   0  0  0  0  0  0  0  0  0  0  0  0
    2.2554   -3.4542    0.0000 H   0  0  0  0  0  0  0  0  0  0  0  0
   10.4057    4.3218    0.0000 H   0  0  0  0  0  0  0  0  0  0  0  0
   10.8845    5.0563    0.0000 H   0  0  0  0  0  0  0  0  0  0  0  0
   10.1500    5.5351    0.0000 H   0  0  0  0  0  0  0  0  0  0  0  0
    9.0929    5.8806    0.0000 H   0  0  0  0  0  0  0  0  0  0  0  0
    8.2174    5.9280    0.0000 H   0  0  0  0  0  0  0  0  0  0  0  0
    8.1700    5.0524    0.0000 H   0  0  0  0  0  0  0  0  0  0  0  0
    2.8660   -4.9665    0.0000 H   0  0  0  0  0  0  0  0  0  0  0  0
    4.5981   -4.9665    0.0000 H   0  0  0  0  0  0  0  0  0  0  0  0
    3.3335   -5.3215    0.0000 H   0  0  0  0  0  0  0  0  0  0  0  0
    4.1306   -5.3215    0.0000 H   0  0  0  0  0  0  0  0  0  0  0  0
    6.0010   -3.1565    0.0000 H   0  0  0  0  0  0  0  0  0  0  0  0
    5.4641   -2.2265    0.0000 H   0  0  0  0  0  0  0  0  0  0  0  0
    2.0000   -5.4665    0.0000 H   0  0  0  0  0  0  0  0  0  0  0  0
    5.4641   -5.4665    0.0000 H   0  0  0  0  0  0  0  0  0  0  0  0
 19  1  1  6  0  0  0
  1 58  1  0  0  0  0
 27  2  1  6  0  0  0
  2 73  1  0  0  0  0
 28  3  1  1  0  0  0
  3 74  1  0  0  0  0
  4  5  1  0  0  0  0
  4  6  1  0  0  0  0
  4  9  1  0  0  0  0
  4 12  1  1  0  0  0
  5  7  1  0  0  0  0
  5 10  1  0  0  0  0
  5 31  1  6  0  0  0
  6  8  1  0  0  0  0
  6 11  1  0  0  0  0
  6 32  1  6  0  0  0
  7  8  1  0  0  0  0
  7 33  1  0  0  0  0
  7 34  1  0  0  0  0
  8 35  1  0  0  0  0
  8 36  1  0  0  0  0
  9 13  1  0  0  0  0
  9 37  1  0  0  0  0
  9 38  1  0  0  0  0
 10 15  1  0  0  0  0
 10 16  1  6  0  0  0
 10 39  1  0  0  0  0
 11 14  1  0  0  0  0
 11 17  2  0  0  0  0
 12 40  1  0  0  0  0
 12 41  1  0  0  0  0
 12 42  1  0  0  0  0
 13 14  1  0  0  0  0
 13 43  1  0  0  0  0
 13 44  1  0  0  0  0
 14 45  1  0  0  0  0
 14 46  1  0  0  0  0
 15 18  1  0  0  0  0
 15 47  1  0  0  0  0
 15 48  1  0  0  0  0
 16 49  1  0  0  0  0
 16 50  1  0  0  0  0
 16 51  1  0  0  0  0
 17 20  1  0  0  0  0
 17 52  1  0  0  0  0
 18 19  1  0  0  0  0
 18 53  1  0  0  0  0
 18 54  1  0  0  0  0
 19 21  1  0  0  0  0
 19 55  1  0  0  0  0
 20 22  2  0  0  0  0
 20 56  1  0  0  0  0
 21 24  1  0  0  0  0
 21 25  1  0  0  0  0
 21 57  1  0  0  0  0
 22 23  1  0  0  0  0
 22 26  1  0  0  0  0
 23 27  1  0  0  0  0
 23 59  1  0  0  0  0
 23 60  1  0  0  0  0
 24 61  1  0  0  0  0
 24 62  1  0  0  0  0
 24 63  1  0  0  0  0
 25 64  1  0  0  0  0
 25 65  1  0  0  0  0
 25 66  1  0  0  0  0
 26 28  1  0  0  0  0
 26 30  2  0  0  0  0
 27 29  1  0  0  0  0
 27 67  1  0  0  0  0
 28 29  1  0  0  0  0
 28 68  1  0  0  0  0
 29 69  1  0  0  0  0
 29 70  1  0  0  0  0
 30 71  1  0  0  0  0
 30 72  1  0  0  0  0
M  END
> <PUBCHEM_COMPOUND_CID>
5283734

> <PUBCHEM_COMPOUND_CANONICALIZED>
1

> <PUBCHEM_CACTVS_COMPLEXITY>
676

> <PUBCHEM_CACTVS_HBOND_ACCEPTOR>
3

> <PUBCHEM_CACTVS_HBOND_DONOR>
3

> <PUBCHEM_CACTVS_ROTATABLE_BOND>
6

> <PUBCHEM_CACTVS_SUBSKEYS>
AAADcfB4MAAAAAAAAAAAAAAAAAAAAYAAAAAwYAAAAAAAAGAAAAAAGgAACAAADxSggAICAAAAAgCAAiBCAAAAAAAgAAAACAAAAAgIFAIAAQAAQAAFwAAIkAOA4PQPgAAAAAAAAAAAAAAQACAAAQAACAAAAA==

> <PUBCHEM_IUPAC_OPENEYE_NAME>
(1R,3S,5Z)-5-[(2E)-2-[(1R,3aS,7aR)-1-[(1R,4R)-4-hydroxy-1,5-dimethyl-hexyl]-7a-methyl-2,3,3a,5,6,7-hexahydro-1H-inden-4-ylidene]ethylidene]-4-methylene-cyclohexane-1,3-diol

> <PUBCHEM_IUPAC_CAS_NAME>
(1R,3S,5Z)-5-[(2E)-2-[(1R,3aS,7aR)-1-[(2R,5R)-5-hydroxy-6-methylheptan-2-yl]-7a-methyl-2,3,3a,5,6,7-hexahydro-1H-inden-4-ylidene]ethylidene]-4-methylenecyclohexane-1,3-diol

> <PUBCHEM_IUPAC_NAME>
(1R,3S,5Z)-5-[(2E)-2-[(1R,3aS,7aR)-1-[(2R,5R)-5-hydroxy-6-methylheptan-2-yl]-7a-methyl-2,3,3a,5,6,7-hexahydro-1H-inden-4-ylidene]ethylidene]-4-methylidenecyclohexane-1,3-diol

> <PUBCHEM_IUPAC_SYSTEMATIC_NAME>
(1R,3S,5Z)-5-[(2E)-2-[(1R,3aS,7aR)-7a-methyl-1-[(2R,5R)-6-methyl-5-oxidanyl-heptan-2-yl]-2,3,3a,5,6,7-hexahydro-1H-inden-4-ylidene]ethylidene]-4-methylidene-cyclohexane-1,3-diol

> <PUBCHEM_IUPAC_TRADITIONAL_NAME>
(1R,3S,5Z)-5-[(2E)-2-[(1R,3aS,7aR)-1-[(1R,4R)-4-hydroxy-1,5-dimethyl-hexyl]-7a-methyl-2,3,3a,5,6,7-hexahydro-1H-inden-4-ylidene]ethylidene]-4-methylene-cyclohexane-1,3-diol

> <PUBCHEM_IUPAC_INCHI>
InChI=1S/C27H44O3/c1-17(2)25(29)13-8-18(3)23-11-12-24-20(7-6-14-27(23,24)5)9-10-21-15-22(28)16-26(30)19(21)4/h9-10,17-18,22-26,28-30H,4,6-8,11-16H2,1-3,5H3/b20-9+,21-10-/t18-,22-,23-,24+,25-,26+,27-/m1/s1

> <PUBCHEM_IUPAC_INCHIKEY>
BJYLYJCXYAMOFT-RSFVBTMBSA-N

> <PUBCHEM_XLOGP3_AA>
5.3

> <PUBCHEM_EXACT_MASS>
416.329045

> <PUBCHEM_MOLECULAR_FORMULA>
C27H44O3

> <PUBCHEM_MOLECULAR_WEIGHT>
416.63646

> <PUBCHEM_OPENEYE_CAN_SMILES>
CC(C)C(CCC(C)C1CCC2C1(CCCC2=CC=C3CC(CC(C3=C)O)O)C)O

> <PUBCHEM_OPENEYE_ISO_SMILES>
C[C@H](CC[C@H](C(C)C)O)[C@H]1CC[C@@H]\2[C@@]1(CCC/C2=C\C=C/3\C[C@H](C[C@@H](C3=C)O)O)C

> <PUBCHEM_CACTVS_TPSA>
60.7

> <PUBCHEM_MONOISOTOPIC_WEIGHT>
416.329045

> <PUBCHEM_TOTAL_CHARGE>
0

> <PUBCHEM_HEAVY_ATOM_COUNT>
30

> <PUBCHEM_ATOM_DEF_STEREO_COUNT>
7

> <PUBCHEM_ATOM_UDEF_STEREO_COUNT>
0

> <PUBCHEM_BOND_DEF_STEREO_COUNT>
2

> <PUBCHEM_BOND_UDEF_STEREO_COUNT>
0

> <PUBCHEM_ISOTOPIC_ATOM_COUNT>
0

> <PUBCHEM_COMPONENT_COUNT>
1

> <PUBCHEM_CACTVS_TAUTO_COUNT>
1

> <PUBCHEM_COORDINATE_TYPE>
1
5
255

> <PUBCHEM_BONDANNOTATIONS>
19  1  6
10  16  6
27  2  6
28  3  5
4  12  5
5  31  6
6  32  6

$$$$

