656877
  -OEChem-07051213043D

 25 26  0     1  0  0  0  0  0999 V2000
    1.2614   -2.3528    0.1636 O   0  0  0  0  0  0  0  0  0  0  0  0
    2.7455   -0.5936   -1.2601 O   0  0  0  0  0  0  0  0  0  0  0  0
    1.2437   -1.0067    0.6286 C   0  0  2  0  0  0  0  0  0  0  0  0
   -0.0544   -0.3089    0.2709 C   0  0  0  0  0  0  0  0  0  0  0  0
    2.4893   -0.2632    0.1060 C   0  0  2  0  0  0  0  0  0  0  0  0
   -0.0619    1.0933    0.1166 C   0  0  0  0  0  0  0  0  0  0  0  0
    2.3707    1.2286    0.2105 C   0  0  0  0  0  0  0  0  0  0  0  0
   -1.2642   -1.0129    0.1843 C   0  0  0  0  0  0  0  0  0  0  0  0
    1.1868    1.8560    0.2310 C   0  0  0  0  0  0  0  0  0  0  0  0
   -2.4577   -0.3396   -0.0783 C   0  0  0  0  0  0  0  0  0  0  0  0
   -1.2671    1.7605   -0.1370 C   0  0  0  0  0  0  0  0  0  0  0  0
   -2.4591    1.0438   -0.2392 C   0  0  0  0  0  0  0  0  0  0  0  0
   -3.7329   -1.1045   -0.1969 C   0  0  0  0  0  0  0  0  0  0  0  0
    1.2817   -1.0364    1.7260 H   0  0  0  0  0  0  0  0  0  0  0  0
    3.3632   -0.5995    0.6763 H   0  0  0  0  0  0  0  0  0  0  0  0
    3.2853    1.8128    0.2502 H   0  0  0  0  0  0  0  0  0  0  0  0
   -1.2785   -2.0909    0.3262 H   0  0  0  0  0  0  0  0  0  0  0  0
    1.1356    2.9377    0.2899 H   0  0  0  0  0  0  0  0  0  0  0  0
   -1.2898    2.8407   -0.2606 H   0  0  0  0  0  0  0  0  0  0  0  0
   -3.3833    1.5776   -0.4448 H   0  0  0  0  0  0  0  0  0  0  0  0
    2.0820   -2.7624    0.4871 H   0  0  0  0  0  0  0  0  0  0  0  0
    2.8014   -1.5624   -1.3204 H   0  0  0  0  0  0  0  0  0  0  0  0
   -3.8642   -1.4587   -1.2242 H   0  0  0  0  0  0  0  0  0  0  0  0
   -3.7378   -1.9679    0.4770 H   0  0  0  0  0  0  0  0  0  0  0  0
   -4.5948   -0.4842    0.0719 H   0  0  0  0  0  0  0  0  0  0  0  0
  1  3  1  0  0  0  0
  1 21  1  0  0  0  0
  2  5  1  0  0  0  0
  2 22  1  0  0  0  0
  3  4  1  0  0  0  0
  3  5  1  0  0  0  0
  3 14  1  0  0  0  0
  4  6  2  0  0  0  0
  4  8  1  0  0  0  0
  5  7  1  0  0  0  0
  5 15  1  0  0  0  0
  6  9  1  0  0  0  0
  6 11  1  0  0  0  0
  7  9  2  0  0  0  0
  7 16  1  0  0  0  0
  8 10  2  0  0  0  0
  8 17  1  0  0  0  0
  9 18  1  0  0  0  0
 10 12  1  0  0  0  0
 10 13  1  0  0  0  0
 11 12  2  0  0  0  0
 11 19  1  0  0  0  0
 12 20  1  0  0  0  0
 13 23  1  0  0  0  0
 13 24  1  0  0  0  0
 13 25  1  0  0  0  0
M  END
> <PUBCHEM_COMPOUND_CID>
656877

> <PUBCHEM_CONFORMER_RMSD>
0.4

> <PUBCHEM_CONFORMER_DIVERSEORDER>
1
2

> <PUBCHEM_MMFF94_PARTIAL_CHARGES>
20
1 -0.68
10 -0.14
11 -0.15
12 -0.15
13 0.14
16 0.15
17 0.15
18 0.15
19 0.15
2 -0.68
20 0.15
21 0.4
22 0.4
3 0.42
4 -0.14
5 0.42
6 0.03
7 -0.29
8 -0.15
9 -0.18

> <PUBCHEM_EFFECTIVE_ROTOR_COUNT>
0.4

> <PUBCHEM_PHARMACOPHORE_FEATURES>
6
1 1 acceptor
1 1 donor
1 2 acceptor
1 2 donor
6 3 4 5 6 7 9 rings
6 4 6 8 10 11 12 rings

> <PUBCHEM_HEAVY_ATOM_COUNT>
13

> <PUBCHEM_ATOM_DEF_STEREO_COUNT>
2

> <PUBCHEM_ATOM_UDEF_STEREO_COUNT>
0

> <PUBCHEM_BOND_DEF_STEREO_COUNT>
0

> <PUBCHEM_BOND_UDEF_STEREO_COUNT>
0

> <PUBCHEM_ISOTOPIC_ATOM_COUNT>
0

> <PUBCHEM_COMPONENT_COUNT>
1

> <PUBCHEM_CACTVS_TAUTO_COUNT>
1

> <PUBCHEM_CONFORMER_ID>
000A05ED00000001

> <PUBCHEM_MMFF94_ENERGY>
32.3693

> <PUBCHEM_FEATURE_SELFOVERLAP>
30.482

> <PUBCHEM_SHAPE_FINGERPRINT>
10967382 1 18267307534232013817
11206711 2 18342455971541206045
11471102 20 18339369574014819197
12032990 46 18340200787588742339
12524768 44 18339082588246895145
12897270 3 18412827988346669285
13380535 21 18268702982297542545
14251717 144 18265623074250598903
161256 15 18410295783066680425
16945 1 18412265064205366793
17844478 74 18131624570039808753
17990270 104 18338803415209228850
193761 8 18267309922344873033
20201158 50 18413112740510157347
20645477 70 18261398802316771031
21501502 16 18341053024795275985
22802520 49 17825661428873554782
2334 1 17763745395103856451
23402539 116 18265348204848959628
23419403 2 15534837739815695056
23552423 10 18342175570248368221
23559900 14 18046628091213672118
2748010 2 17981039713369040939
5084963 1 18187362108142979624
528886 8 18267030448653896553
581208 293 18264778657646507913
7364860 26 18335709385541924522
8030462 33 18131068259657375499
8809292 202 18130222662291226243

> <PUBCHEM_SHAPE_MULTIPOLES>
255.8
4.67
2.05
0.75
2.12
0.01
-0.1
0.87
-0.67
-0.33
0.08
-0.28
0.08
0.18

> <PUBCHEM_SHAPE_SELFOVERLAP>
548.944

> <PUBCHEM_SHAPE_VOLUME>
140.8

> <PUBCHEM_COORDINATE_TYPE>
2
5
10

$$$$

