442961
  -OEChem-07051213003D

 58 62  0     1  0  0  0  0  0999 V2000
   -2.1371    0.8660    0.5944 N   0  0  1  0  0  0  0  0  0  0  0  0
    1.4436   -1.2260    1.3822 N   0  0  0  0  0  0  0  0  0  0  0  0
    2.2154    1.5001    0.9887 N   0  0  0  0  0  0  0  0  0  0  0  0
    0.3628    0.4671   -0.2496 C   0  0  1  0  0  0  0  0  0  0  0  0
    0.8459   -1.0294    0.0540 C   0  0  2  0  0  0  0  0  0  0  0  0
   -1.5484   -0.4846   -1.3676 C   0  0  2  0  0  0  0  0  0  0  0  0
   -0.3034    0.3763   -1.6220 C   0  0  0  0  0  0  0  0  0  0  0  0
   -0.1605   -2.2159   -0.2128 C   0  0  1  0  0  0  0  0  0  0  0  0
   -2.6155    0.4632   -0.7769 C   0  0  1  0  0  0  0  0  0  0  0  0
   -0.6903    1.2043    0.6964 C   0  0  0  0  0  0  0  0  0  0  0  0
   -1.1160   -1.9635   -1.4472 C   0  0  0  0  0  0  0  0  0  0  0  0
    1.6086    1.3787   -0.3428 C   0  0  2  0  0  0  0  0  0  0  0  0
    0.6034   -3.5370   -0.2654 C   0  0  0  0  0  0  0  0  0  0  0  0
   -4.0014   -0.1799   -0.6744 C   0  0  0  0  0  0  0  0  0  0  0  0
    2.6170    0.8104   -1.3508 C   0  0  0  0  0  0  0  0  0  0  0  0
   -3.0221    1.8448    1.2183 C   0  0  0  0  0  0  0  0  0  0  0  0
    1.3728   -3.7142    1.0483 C   0  0  0  0  0  0  0  0  0  0  0  0
    2.2086   -2.4823    1.4183 C   0  0  0  0  0  0  0  0  0  0  0  0
   -4.9823    0.7823   -0.0049 C   0  0  0  0  0  0  0  0  0  0  0  0
   -4.4408    1.2785    1.3356 C   0  0  0  0  0  0  0  0  0  0  0  0
    3.8885    1.6533   -1.3962 C   0  0  0  0  0  0  0  0  0  0  0  0
    3.3940    2.3666    0.9680 C   0  0  0  0  0  0  0  0  0  0  0  0
    4.4570    1.8410    0.0064 C   0  0  0  0  0  0  0  0  0  0  0  0
    1.6083   -1.2620   -0.6880 H   0  0  0  0  0  0  0  0  0  0  0  0
   -1.9933   -0.4870   -2.3841 H   0  0  0  0  0  0  0  0  0  0  0  0
    0.3279   -0.0928   -2.3846 H   0  0  0  0  0  0  0  0  0  0  0  0
   -0.5574    1.3709   -2.0120 H   0  0  0  0  0  0  0  0  0  0  0  0
   -0.8410   -2.2546    0.6526 H   0  0  0  0  0  0  0  0  0  0  0  0
   -2.6947    1.3699   -1.3948 H   0  0  0  0  0  0  0  0  0  0  0  0
   -0.3888    1.0577    1.7404 H   0  0  0  0  0  0  0  0  0  0  0  0
   -0.6109    2.2816    0.4941 H   0  0  0  0  0  0  0  0  0  0  0  0
   -0.5797   -2.1836   -2.3785 H   0  0  0  0  0  0  0  0  0  0  0  0
   -1.9836   -2.6295   -1.3892 H   0  0  0  0  0  0  0  0  0  0  0  0
    1.3031    2.3775   -0.6840 H   0  0  0  0  0  0  0  0  0  0  0  0
    1.2991   -3.5458   -1.1128 H   0  0  0  0  0  0  0  0  0  0  0  0
   -0.0884   -4.3753   -0.4036 H   0  0  0  0  0  0  0  0  0  0  0  0
   -3.9455   -1.1093   -0.0935 H   0  0  0  0  0  0  0  0  0  0  0  0
   -4.3712   -0.4451   -1.6714 H   0  0  0  0  0  0  0  0  0  0  0  0
    0.7037   -1.2580    2.0832 H   0  0  0  0  0  0  0  0  0  0  0  0
    2.2104    0.7795   -2.3654 H   0  0  0  0  0  0  0  0  0  0  0  0
    2.9884   -0.1850   -1.1043 H   0  0  0  0  0  0  0  0  0  0  0  0
   -3.0363    2.7781    0.6419 H   0  0  0  0  0  0  0  0  0  0  0  0
   -2.6662    2.0881    2.2266 H   0  0  0  0  0  0  0  0  0  0  0  0
    0.6565   -3.9138    1.8556 H   0  0  0  0  0  0  0  0  0  0  0  0
    2.0228   -4.5936    0.9779 H   0  0  0  0  0  0  0  0  0  0  0  0
    2.6182   -2.6131    2.4261 H   0  0  0  0  0  0  0  0  0  0  0  0
    3.0705   -2.4016    0.7445 H   0  0  0  0  0  0  0  0  0  0  0  0
    2.4965    0.5787    1.3218 H   0  0  0  0  0  0  0  0  0  0  0  0
   -5.9481    0.2869    0.1437 H   0  0  0  0  0  0  0  0  0  0  0  0
   -5.1593    1.6405   -0.6649 H   0  0  0  0  0  0  0  0  0  0  0  0
   -5.1103    2.0459    1.7406 H   0  0  0  0  0  0  0  0  0  0  0  0
   -4.4409    0.4468    2.0521 H   0  0  0  0  0  0  0  0  0  0  0  0
    3.6610    2.6340   -1.8322 H   0  0  0  0  0  0  0  0  0  0  0  0
    4.6351    1.1803   -2.0440 H   0  0  0  0  0  0  0  0  0  0  0  0
    3.8115    2.4220    1.9793 H   0  0  0  0  0  0  0  0  0  0  0  0
    3.1011    3.3871    0.6932 H   0  0  0  0  0  0  0  0  0  0  0  0
    4.8457    0.8830    0.3746 H   0  0  0  0  0  0  0  0  0  0  0  0
    5.3027    2.5369   -0.0276 H   0  0  0  0  0  0  0  0  0  0  0  0
  1  9  1  0  0  0  0
  1 10  1  0  0  0  0
  1 16  1  0  0  0  0
  2  5  1  0  0  0  0
  2 18  1  0  0  0  0
  2 39  1  0  0  0  0
  3 12  1  0  0  0  0
  3 22  1  0  0  0  0
  3 48  1  0  0  0  0
  4  5  1  0  0  0  0
  4  7  1  0  0  0  0
  4 10  1  0  0  0  0
  4 12  1  0  0  0  0
  5  8  1  0  0  0  0
  5 24  1  0  0  0  0
  6  7  1  0  0  0  0
  6  9  1  0  0  0  0
  6 11  1  0  0  0  0
  6 25  1  0  0  0  0
  7 26  1  0  0  0  0
  7 27  1  0  0  0  0
  8 11  1  0  0  0  0
  8 13  1  0  0  0  0
  8 28  1  0  0  0  0
  9 14  1  0  0  0  0
  9 29  1  0  0  0  0
 10 30  1  0  0  0  0
 10 31  1  0  0  0  0
 11 32  1  0  0  0  0
 11 33  1  0  0  0  0
 12 15  1  0  0  0  0
 12 34  1  0  0  0  0
 13 17  1  0  0  0  0
 13 35  1  0  0  0  0
 13 36  1  0  0  0  0
 14 19  1  0  0  0  0
 14 37  1  0  0  0  0
 14 38  1  0  0  0  0
 15 21  1  0  0  0  0
 15 40  1  0  0  0  0
 15 41  1  0  0  0  0
 16 20  1  0  0  0  0
 16 42  1  0  0  0  0
 16 43  1  0  0  0  0
 17 18  1  0  0  0  0
 17 44  1  0  0  0  0
 17 45  1  0  0  0  0
 18 46  1  0  0  0  0
 18 47  1  0  0  0  0
 19 20  1  0  0  0  0
 19 49  1  0  0  0  0
 19 50  1  0  0  0  0
 20 51  1  0  0  0  0
 20 52  1  0  0  0  0
 21 23  1  0  0  0  0
 21 53  1  0  0  0  0
 21 54  1  0  0  0  0
 22 23  1  0  0  0  0
 22 55  1  0  0  0  0
 22 56  1  0  0  0  0
 23 57  1  0  0  0  0
 23 58  1  0  0  0  0
M  END
> <PUBCHEM_COMPOUND_CID>
442961

> <PUBCHEM_CONFORMER_RMSD>
0.8

> <PUBCHEM_CONFORMER_DIVERSEORDER>
1
2
3

> <PUBCHEM_MMFF94_PARTIAL_CHARGES>
12
1 -0.81
10 0.27
12 0.27
16 0.27
18 0.27
2 -0.9
22 0.27
3 -0.9
39 0.36
48 0.36
5 0.27
9 0.27

> <PUBCHEM_EFFECTIVE_ROTOR_COUNT>
4.4

> <PUBCHEM_PHARMACOPHORE_FEATURES>
10
1 1 cation
1 2 cation
1 2 donor
1 3 cation
1 3 donor
6 1 4 6 7 9 10 rings
6 1 9 14 16 19 20 rings
6 2 5 8 13 17 18 rings
6 3 12 15 21 22 23 rings
6 4 5 6 7 8 11 rings

> <PUBCHEM_HEAVY_ATOM_COUNT>
23

> <PUBCHEM_ATOM_DEF_STEREO_COUNT>
6

> <PUBCHEM_ATOM_UDEF_STEREO_COUNT>
0

> <PUBCHEM_BOND_DEF_STEREO_COUNT>
0

> <PUBCHEM_BOND_UDEF_STEREO_COUNT>
0

> <PUBCHEM_ISOTOPIC_ATOM_COUNT>
0

> <PUBCHEM_COMPONENT_COUNT>
1

> <PUBCHEM_CACTVS_TAUTO_COUNT>
1

> <PUBCHEM_CONFORMER_ID>
0006C25100000001

> <PUBCHEM_MMFF94_ENERGY>
82.4083

> <PUBCHEM_FEATURE_SELFOVERLAP>
51.63

> <PUBCHEM_SHAPE_FINGERPRINT>
10382601 240 18265315365465990057
10948715 1 18187641375569881573
1100329 8 18410296943072263138
12532896 13 18336824170041581076
12592029 89 18131918147743703548
12644460 14 18339070618320740915
12788726 201 17477196133708255390
13135754 10 17199931273099197618
13140716 1 18412833477457857226
133893 2 17914877962772596744
13533116 47 18268986648377364161
13681431 1 17910678988101124798
14022349 108 18342466983811102290
14251757 17 16588843780984630572
14468879 13 16953672541530001392
14787075 74 17756998809346915045
14910302 57 11598358415319842992
14955137 171 18192429899523708146
15309172 13 18201720600594458724
16752209 62 17910965638524145438
16945 1 18193847169816388263
17980427 23 17392218595371058029
1813 80 17905326582566749934
18785283 64 18130785694096809186
18915476 22 18058187165944003615
204376 136 18271520901402516445
20510252 161 17691416213114378666
20739085 24 18201157745130194516
21421861 104 17976237347548665777
21524375 3 18334006185826789573
23419403 2 17259275402884293158
23493267 7 17821728295529374077
23557571 272 17616535056511583276
23558518 356 17831304895641804072
23559900 14 17316190634964712997
25147074 1 18188789313523814407
2637199 183 18187634812817674764
298252 57 17458336416714834700
3759504 43 18198614450112434132
394222 165 18188481479979074899
404807 78 17698454222338233703
4340502 62 18343294847832397339
458136 41 18343014510436587542
469060 322 17915752968344409495
474 4 18341607083992795541
633830 44 18187643574572525469
7097593 13 17904199579216776419
7364860 26 18337953518627983162
7495541 125 5328456025573297221
81228 2 17762617287588896926
8272917 22 18270677692369940373
90316 7 17041762560935571715
9981440 41 16812380839179795416

> <PUBCHEM_SHAPE_MULTIPOLES>
458.39
7.49
3.66
1.59
4.18
3.99
-0.1
-6.49
0.78
-3.04
1.16
-0.13
0.05
-1.58

> <PUBCHEM_SHAPE_SELFOVERLAP>
960.935

> <PUBCHEM_SHAPE_VOLUME>
249.8

> <PUBCHEM_COORDINATE_TYPE>
2
5
10

$$$$

