5289462
  -OEChem-07051213032D

 52 53  0     1  0  0  0  0  0999 V2000
    6.2177    1.4937    0.0000 S   0  0  0  0  0  0  0  0  0  0  0  0
    9.8823    2.0367    0.0000 P   0  0  3  0  0  0  0  0  0  0  0  0
   11.4646    2.7412    0.0000 P   0  0  0  0  0  0  0  0  0  0  0  0
    9.2945    1.2277    0.0000 O   0  0  0  0  0  0  0  0  0  0  0  0
    3.5453    1.6459    0.0000 O   0  0  0  0  0  0  0  0  0  0  0  0
    3.9612    3.6022    0.0000 O   0  0  0  0  0  0  0  0  0  0  0  0
   10.4701    2.8457    0.0000 O   0  0  0  0  0  0  0  0  0  0  0  0
   10.6913    1.4489    0.0000 O   0  0  0  0  0  0  0  0  0  0  0  0
    9.0733    2.6245    0.0000 O   0  0  0  0  0  0  0  0  0  0  0  0
   12.4591    2.6366    0.0000 O   0  0  0  0  0  0  0  0  0  0  0  0
   11.5691    3.7357    0.0000 O   0  0  0  0  0  0  0  0  0  0  0  0
   11.3601    1.7467    0.0000 O   0  0  0  0  0  0  0  0  0  0  0  0
    5.1350    0.2913    0.0000 N   0  0  0  0  0  0  0  0  0  0  0  0
    3.4030   -2.7087    0.0000 N   0  0  0  0  0  0  0  0  0  0  0  0
    5.1350   -2.7087    0.0000 N   0  0  0  0  0  0  0  0  0  0  0  0
    2.5369   -1.2087    0.0000 N   0  0  0  0  0  0  0  0  0  0  0  0
    6.0486   -0.1154    0.0000 C   0  0  0  0  0  0  0  0  0  0  0  0
    6.7177    0.6277    0.0000 C   0  0  0  0  0  0  0  0  0  0  0  0
    4.2690   -0.2087    0.0000 C   0  0  0  0  0  0  0  0  0  0  0  0
    5.2395    1.2858    0.0000 C   0  0  0  0  0  0  0  0  0  0  0  0
    7.7122    0.5232    0.0000 C   0  0  0  0  0  0  0  0  0  0  0  0
    6.2565   -1.0936    0.0000 C   0  0  0  0  0  0  0  0  0  0  0  0
    4.2690   -1.2087    0.0000 C   0  0  0  0  0  0  0  0  0  0  0  0
    8.3000    1.3322    0.0000 C   0  0  0  0  0  0  0  0  0  0  0  0
    4.4964    1.9550    0.0000 C   0  0  0  0  0  0  0  0  0  0  0  0
    3.4030   -1.7087    0.0000 C   0  0  0  0  0  0  0  0  0  0  0  0
    4.7043    2.9331    0.0000 C   0  0  0  0  0  0  0  0  0  0  0  0
    5.1350   -1.7087    0.0000 C   0  0  0  0  0  0  0  0  0  0  0  0
    4.2690   -3.2087    0.0000 C   0  0  0  0  0  0  0  0  0  0  0  0
    4.2690   -4.2087    0.0000 C   0  0  0  0  0  0  0  0  0  0  0  0
    4.0569    0.3739    0.0000 H   0  0  0  0  0  0  0  0  0  0  0  0
    3.6584   -0.3164    0.0000 H   0  0  0  0  0  0  0  0  0  0  0  0
    7.5413   -0.0728    0.0000 H   0  0  0  0  0  0  0  0  0  0  0  0
    8.2695    0.2514    0.0000 H   0  0  0  0  0  0  0  0  0  0  0  0
    5.6500   -1.2225    0.0000 H   0  0  0  0  0  0  0  0  0  0  0  0
    6.3854   -1.7000    0.0000 H   0  0  0  0  0  0  0  0  0  0  0  0
    6.8629   -0.9647    0.0000 H   0  0  0  0  0  0  0  0  0  0  0  0
    8.4709    1.9282    0.0000 H   0  0  0  0  0  0  0  0  0  0  0  0
    7.7427    1.6040    0.0000 H   0  0  0  0  0  0  0  0  0  0  0  0
    5.6720   -1.3987    0.0000 H   0  0  0  0  0  0  0  0  0  0  0  0
    5.2792    2.7008    0.0000 H   0  0  0  0  0  0  0  0  0  0  0  0
    5.0329    3.4589    0.0000 H   0  0  0  0  0  0  0  0  0  0  0  0
    3.0846    2.0608    0.0000 H   0  0  0  0  0  0  0  0  0  0  0  0
    2.0000   -1.5187    0.0000 H   0  0  0  0  0  0  0  0  0  0  0  0
    2.5369   -0.5887    0.0000 H   0  0  0  0  0  0  0  0  0  0  0  0
    4.0901    4.2087    0.0000 H   0  0  0  0  0  0  0  0  0  0  0  0
    3.6490   -4.2087    0.0000 H   0  0  0  0  0  0  0  0  0  0  0  0
    4.2690   -4.8287    0.0000 H   0  0  0  0  0  0  0  0  0  0  0  0
    4.8890   -4.2087    0.0000 H   0  0  0  0  0  0  0  0  0  0  0  0
   10.6265    0.8323    0.0000 H   0  0  0  0  0  0  0  0  0  0  0  0
   12.8236    3.1382    0.0000 H   0  0  0  0  0  0  0  0  0  0  0  0
   11.0675    4.1001    0.0000 H   0  0  0  0  0  0  0  0  0  0  0  0
  1 18  1  0  0  0  0
  1 20  1  0  0  0  0
  2  4  1  0  0  0  0
  2  7  1  0  0  0  0
  2  8  1  0  0  0  0
  2  9  2  0  0  0  0
  3  7  1  0  0  0  0
  3 10  1  0  0  0  0
  3 11  1  0  0  0  0
  3 12  2  0  0  0  0
  4 24  1  0  0  0  0
  5 25  1  0  0  0  0
  5 43  1  0  0  0  0
  6 27  1  0  0  0  0
  6 46  1  0  0  0  0
  8 50  1  0  0  0  0
 10 51  1  0  0  0  0
 11 52  1  0  0  0  0
 13 17  1  0  0  0  0
 13 19  1  0  0  0  0
 13 20  1  0  0  0  0
 14 26  2  0  0  0  0
 14 29  1  0  0  0  0
 15 28  1  0  0  0  0
 15 29  2  0  0  0  0
 16 26  1  0  0  0  0
 16 44  1  0  0  0  0
 16 45  1  0  0  0  0
 17 18  2  0  0  0  0
 17 22  1  0  0  0  0
 18 21  1  0  0  0  0
 19 23  1  0  0  0  0
 19 31  1  0  0  0  0
 19 32  1  0  0  0  0
 20 25  2  0  0  0  0
 21 24  1  0  0  0  0
 21 33  1  0  0  0  0
 21 34  1  0  0  0  0
 22 35  1  0  0  0  0
 22 36  1  0  0  0  0
 22 37  1  0  0  0  0
 23 26  1  0  0  0  0
 23 28  2  0  0  0  0
 24 38  1  0  0  0  0
 24 39  1  0  0  0  0
 25 27  1  0  0  0  0
 27 41  1  0  0  0  0
 27 42  1  0  0  0  0
 28 40  1  0  0  0  0
 29 30  1  0  0  0  0
 30 47  1  0  0  0  0
 30 48  1  0  0  0  0
 30 49  1  0  0  0  0
M  END
> <PUBCHEM_COMPOUND_CID>
5289462

> <PUBCHEM_COMPOUND_CANONICALIZED>
1

> <PUBCHEM_CACTVS_COMPLEXITY>
789

> <PUBCHEM_CACTVS_HBOND_ACCEPTOR>
14

> <PUBCHEM_CACTVS_HBOND_DONOR>
6

> <PUBCHEM_CACTVS_ROTATABLE_BOND>
9

> <PUBCHEM_CACTVS_SUBSKEYS>
AAADceBzvANAAAAAAAAAAAAAAAAAAQAAAAAsAAAAAAAAAAABgAAAHgQQCCAADAzh2wYvsJdIExigQhZnZICAgClxALABWCA4RBiBHIBgSUAEBAgIQALJECIAAAAAAAAAAAAAAAAAAAAAAAAAAAAAAAAAAA==

> <PUBCHEM_IUPAC_OPENEYE_NAME>
2-[(2E)-3-[(4-amino-2-methyl-pyrimidin-5-yl)methyl]-2-(1,2-dihydroxyethylidene)-4-methyl-thiazol-5-yl]ethyl phosphono hydrogen phosphate

> <PUBCHEM_IUPAC_CAS_NAME>
2-[(2E)-3-[(4-amino-2-methyl-5-pyrimidinyl)methyl]-2-(1,2-dihydroxyethylidene)-4-methyl-5-thiazolyl]ethyl phosphono hydrogen phosphate

> <PUBCHEM_IUPAC_NAME>
2-[(2E)-3-[(4-amino-2-methylpyrimidin-5-yl)methyl]-2-(1,2-dihydroxyethylidene)-4-methyl-1,3-thiazol-5-yl]ethyl phosphono hydrogen phosphate

> <PUBCHEM_IUPAC_SYSTEMATIC_NAME>
2-[(2E)-3-[(4-azanyl-2-methyl-pyrimidin-5-yl)methyl]-2-[1,2-bis(oxidanyl)ethylidene]-4-methyl-1,3-thiazol-5-yl]ethyl phosphono hydrogen phosphate

> <PUBCHEM_IUPAC_TRADITIONAL_NAME>
2-[(2E)-3-[(4-amino-2-methyl-pyrimidin-5-yl)methyl]-2-(1,2-dihydroxyethylidene)-4-methyl-4-thiazolin-5-yl]ethyl phosphono hydrogen phosphate

> <PUBCHEM_IUPAC_INCHI>
InChI=1S/C14H22N4O9P2S/c1-8-12(3-4-26-29(24,25)27-28(21,22)23)30-14(11(20)7-19)18(8)6-10-5-16-9(2)17-13(10)15/h5,19-20H,3-4,6-7H2,1-2H3,(H,24,25)(H2,15,16,17)(H2,21,22,23)/b14-11+

> <PUBCHEM_IUPAC_INCHIKEY>
LXZUEFPJZTWGEL-SDNWHVSQSA-N

> <PUBCHEM_XLOGP3_AA>
-2.5

> <PUBCHEM_EXACT_MASS>
484.058273

> <PUBCHEM_MOLECULAR_FORMULA>
C14H22N4O9P2S

> <PUBCHEM_MOLECULAR_WEIGHT>
484.358404

> <PUBCHEM_OPENEYE_CAN_SMILES>
CC1=C(SC(=C(CO)O)N1CC2=CN=C(N=C2N)C)CCOP(=O)(O)OP(=O)(O)O

> <PUBCHEM_OPENEYE_ISO_SMILES>
CC1=C(S/C(=C(\CO)/O)/N1CC2=CN=C(N=C2N)C)CCOP(=O)(O)OP(=O)(O)O

> <PUBCHEM_CACTVS_TPSA>
234

> <PUBCHEM_MONOISOTOPIC_WEIGHT>
484.058273

> <PUBCHEM_TOTAL_CHARGE>
0

> <PUBCHEM_HEAVY_ATOM_COUNT>
30

> <PUBCHEM_ATOM_DEF_STEREO_COUNT>
0

> <PUBCHEM_ATOM_UDEF_STEREO_COUNT>
0

> <PUBCHEM_BOND_DEF_STEREO_COUNT>
1

> <PUBCHEM_BOND_UDEF_STEREO_COUNT>
0

> <PUBCHEM_ISOTOPIC_ATOM_COUNT>
0

> <PUBCHEM_COMPONENT_COUNT>
1

> <PUBCHEM_CACTVS_TAUTO_COUNT>
12

> <PUBCHEM_COORDINATE_TYPE>
1
5
255

> <PUBCHEM_BONDANNOTATIONS>
14  26  8
14  29  8
15  28  8
15  29  8
23  26  8
23  28  8

$$$$

