5353
  -OEChem-07051213042D

 33 35  0     1  0  0  0  0  0999 V2000
    9.2619    0.6020    0.0000 S   0  0  3  0  0  0  0  0  0  0  0  0
    6.2619   -1.1300    0.0000 O   0  0  0  0  0  0  0  0  0  0  0  0
    9.7619   -0.2640    0.0000 O   0  0  0  0  0  0  0  0  0  0  0  0
    4.6783    1.4067    0.0000 N   0  0  0  0  0  0  0  0  0  0  0  0
    4.6783   -0.2027    0.0000 N   0  0  0  0  0  0  0  0  0  0  0  0
    2.8660   -0.3980    0.0000 N   0  0  0  0  0  0  0  0  0  0  0  0
    6.2619    0.6020    0.0000 C   0  0  0  0  0  0  0  0  0  0  0  0
    5.2619    0.6020    0.0000 C   0  0  0  0  0  0  0  0  0  0  0  0
    6.7619   -0.2640    0.0000 C   0  0  0  0  0  0  0  0  0  0  0  0
    3.7320    1.1020    0.0000 C   0  0  0  0  0  0  0  0  0  0  0  0
    6.7619    1.4680    0.0000 C   0  0  0  0  0  0  0  0  0  0  0  0
    3.7320    0.1020    0.0000 C   0  0  0  0  0  0  0  0  0  0  0  0
    8.2619    0.6020    0.0000 C   0  0  0  0  0  0  0  0  0  0  0  0
    7.7619   -0.2640    0.0000 C   0  0  0  0  0  0  0  0  0  0  0  0
    7.7619    1.4680    0.0000 C   0  0  0  0  0  0  0  0  0  0  0  0
    2.8660    1.6020    0.0000 C   0  0  0  0  0  0  0  0  0  0  0  0
    2.0000    1.1020    0.0000 C   0  0  0  0  0  0  0  0  0  0  0  0
    2.0000    0.1020    0.0000 C   0  0  0  0  0  0  0  0  0  0  0  0
    9.7619    1.4680    0.0000 C   0  0  0  0  0  0  0  0  0  0  0  0
    6.7619   -1.9961    0.0000 C   0  0  0  0  0  0  0  0  0  0  0  0
    4.8709    1.9961    0.0000 H   0  0  0  0  0  0  0  0  0  0  0  0
    6.4519    2.0050    0.0000 H   0  0  0  0  0  0  0  0  0  0  0  0
    8.0719   -0.8010    0.0000 H   0  0  0  0  0  0  0  0  0  0  0  0
    8.0719    2.0050    0.0000 H   0  0  0  0  0  0  0  0  0  0  0  0
    2.8660    2.2220    0.0000 H   0  0  0  0  0  0  0  0  0  0  0  0
    1.4631    1.4120    0.0000 H   0  0  0  0  0  0  0  0  0  0  0  0
    1.4631   -0.2080    0.0000 H   0  0  0  0  0  0  0  0  0  0  0  0
   10.2988    1.1580    0.0000 H   0  0  0  0  0  0  0  0  0  0  0  0
   10.0719    2.0050    0.0000 H   0  0  0  0  0  0  0  0  0  0  0  0
    9.2249    1.7780    0.0000 H   0  0  0  0  0  0  0  0  0  0  0  0
    6.2249   -2.3061    0.0000 H   0  0  0  0  0  0  0  0  0  0  0  0
    7.0719   -2.5330    0.0000 H   0  0  0  0  0  0  0  0  0  0  0  0
    7.2988   -1.6861    0.0000 H   0  0  0  0  0  0  0  0  0  0  0  0
  1  3  2  0  0  0  0
  1 13  1  0  0  0  0
  1 19  1  0  0  0  0
  2  9  1  0  0  0  0
  2 20  1  0  0  0  0
  4  8  1  0  0  0  0
  4 10  1  0  0  0  0
  4 21  1  0  0  0  0
  5  8  2  0  0  0  0
  5 12  1  0  0  0  0
  6 12  1  0  0  0  0
  6 18  2  0  0  0  0
  7  8  1  0  0  0  0
  7  9  2  0  0  0  0
  7 11  1  0  0  0  0
  9 14  1  0  0  0  0
 10 12  2  0  0  0  0
 10 16  1  0  0  0  0
 11 15  2  0  0  0  0
 11 22  1  0  0  0  0
 13 14  2  0  0  0  0
 13 15  1  0  0  0  0
 14 23  1  0  0  0  0
 15 24  1  0  0  0  0
 16 17  2  0  0  0  0
 16 25  1  0  0  0  0
 17 18  1  0  0  0  0
 17 26  1  0  0  0  0
 18 27  1  0  0  0  0
 19 28  1  0  0  0  0
 19 29  1  0  0  0  0
 19 30  1  0  0  0  0
 20 31  1  0  0  0  0
 20 32  1  0  0  0  0
 20 33  1  0  0  0  0
M  END
> <PUBCHEM_COMPOUND_CID>
5353

> <PUBCHEM_COMPOUND_CANONICALIZED>
1

> <PUBCHEM_CACTVS_COMPLEXITY>
368

> <PUBCHEM_CACTVS_HBOND_ACCEPTOR>
5

> <PUBCHEM_CACTVS_HBOND_DONOR>
1

> <PUBCHEM_CACTVS_ROTATABLE_BOND>
3

> <PUBCHEM_CACTVS_SUBSKEYS>
AAADccBzMABAAAAAAAAAAAAAAAAAAWAAAAA8QAAAAAAAAFgB/AAAHgQQAAAADAzB3wa/977JlAqgAzZnZEDCiC2xOrAJ2Tg+fJiMbuLkuZuUMChu0BPI6CeQwCAOEAAABAAIAAAgAAAIABAAAAAAAAAAAA==

> <PUBCHEM_IUPAC_OPENEYE_NAME>
2-(2-methoxy-4-methylsulfinyl-phenyl)-1H-imidazo[4,5-b]pyridine

> <PUBCHEM_IUPAC_CAS_NAME>
2-(2-methoxy-4-methylsulfinylphenyl)-1H-imidazo[4,5-b]pyridine

> <PUBCHEM_IUPAC_NAME>
2-(2-methoxy-4-methylsulfinylphenyl)-1H-imidazo[4,5-b]pyridine

> <PUBCHEM_IUPAC_SYSTEMATIC_NAME>
2-(2-methoxy-4-methylsulfinyl-phenyl)-1H-imidazo[4,5-b]pyridine

> <PUBCHEM_IUPAC_TRADITIONAL_NAME>
2-(2-methoxy-4-methylsulfinyl-phenyl)-1H-imidazo[4,5-b]pyridine

> <PUBCHEM_IUPAC_INCHI>
InChI=1S/C14H13N3O2S/c1-19-12-8-9(20(2)18)5-6-10(12)13-16-11-4-3-7-15-14(11)17-13/h3-8H,1-2H3,(H,15,16,17)

> <PUBCHEM_IUPAC_INCHIKEY>
XMFCOYRWYYXZMY-UHFFFAOYSA-N

> <PUBCHEM_XLOGP3>
1.2

> <PUBCHEM_EXACT_MASS>
287.072848

> <PUBCHEM_MOLECULAR_FORMULA>
C14H13N3O2S

> <PUBCHEM_MOLECULAR_WEIGHT>
287.33692

> <PUBCHEM_OPENEYE_CAN_SMILES>
COC1=C(C=CC(=C1)S(=O)C)C2=NC3=C(N2)C=CC=N3

> <PUBCHEM_OPENEYE_ISO_SMILES>
COC1=C(C=CC(=C1)S(=O)C)C2=NC3=C(N2)C=CC=N3

> <PUBCHEM_CACTVS_TPSA>
87.1

> <PUBCHEM_MONOISOTOPIC_WEIGHT>
287.072848

> <PUBCHEM_TOTAL_CHARGE>
0

> <PUBCHEM_HEAVY_ATOM_COUNT>
20

> <PUBCHEM_ATOM_DEF_STEREO_COUNT>
0

> <PUBCHEM_ATOM_UDEF_STEREO_COUNT>
1

> <PUBCHEM_BOND_DEF_STEREO_COUNT>
0

> <PUBCHEM_BOND_UDEF_STEREO_COUNT>
0

> <PUBCHEM_ISOTOPIC_ATOM_COUNT>
0

> <PUBCHEM_COMPONENT_COUNT>
1

> <PUBCHEM_CACTVS_TAUTO_COUNT>
3

> <PUBCHEM_COORDINATE_TYPE>
1
5
255

> <PUBCHEM_BONDANNOTATIONS>
1  19  3
10  12  8
10  16  8
11  15  8
13  14  8
13  15  8
16  17  8
17  18  8
4  10  8
4  8  8
5  12  8
5  8  8
6  12  8
6  18  8
7  11  8
7  9  8
9  14  8

$$$$

