4437
  -OEChem-06261200072D

 27 28  0     0  0  0  0  0  0999 V2000
    4.5981   -1.4441    0.0000 S   0  0  0  0  0  0  0  0  0  0  0  0
    2.8660    1.5559    0.0000 S   0  0  0  0  0  0  0  0  0  0  0  0
    8.1282    1.5800    0.0000 S   0  0  0  0  0  0  0  0  0  0  0  0
    4.5981   -2.4441    0.0000 O   0  5  0  0  0  0  0  0  0  0  0  0
    3.5981   -1.4441    0.0000 O   0  0  0  0  0  0  0  0  0  0  0  0
    5.5981   -1.4441    0.0000 O   0  0  0  0  0  0  0  0  0  0  0  0
    2.0000    2.0559    0.0000 O   0  5  0  0  0  0  0  0  0  0  0  0
    3.3660    2.4219    0.0000 O   0  0  0  0  0  0  0  0  0  0  0  0
    2.3660    0.6899    0.0000 O   0  0  0  0  0  0  0  0  0  0  0  0
    8.9923    2.0834    0.0000 O   0  5  0  0  0  0  0  0  0  0  0  0
    8.6315    0.7159    0.0000 O   0  0  0  0  0  0  0  0  0  0  0  0
    7.6249    2.4441    0.0000 O   0  0  0  0  0  0  0  0  0  0  0  0
    5.4641    0.0559    0.0000 C   0  0  0  0  0  0  0  0  0  0  0  0
    5.4641    1.0559    0.0000 C   0  0  0  0  0  0  0  0  0  0  0  0
    4.5981   -0.4441    0.0000 C   0  0  0  0  0  0  0  0  0  0  0  0
    3.7320    1.0559    0.0000 C   0  0  0  0  0  0  0  0  0  0  0  0
    4.5981    1.5559    0.0000 C   0  0  0  0  0  0  0  0  0  0  0  0
    3.7320    0.0559    0.0000 C   0  0  0  0  0  0  0  0  0  0  0  0
    6.3580    1.5905    0.0000 C   0  0  0  0  0  0  0  0  0  0  0  0
    6.3580   -0.4788    0.0000 C   0  0  0  0  0  0  0  0  0  0  0  0
    7.2641    1.0767    0.0000 C   0  0  0  0  0  0  0  0  0  0  0  0
    7.2641    0.0351    0.0000 C   0  0  0  0  0  0  0  0  0  0  0  0
    4.5981    2.1759    0.0000 H   0  0  0  0  0  0  0  0  0  0  0  0
    3.1951   -0.2541    0.0000 H   0  0  0  0  0  0  0  0  0  0  0  0
    6.3509    2.2105    0.0000 H   0  0  0  0  0  0  0  0  0  0  0  0
    6.3509   -1.0987    0.0000 H   0  0  0  0  0  0  0  0  0  0  0  0
    7.7998   -0.2770    0.0000 H   0  0  0  0  0  0  0  0  0  0  0  0
  1  4  1  0  0  0  0
  1  5  2  0  0  0  0
  1  6  2  0  0  0  0
  1 15  1  0  0  0  0
  2  7  1  0  0  0  0
  2  8  2  0  0  0  0
  2  9  2  0  0  0  0
  2 16  1  0  0  0  0
  3 10  1  0  0  0  0
  3 11  2  0  0  0  0
  3 12  2  0  0  0  0
  3 21  1  0  0  0  0
 13 14  1  0  0  0  0
 13 15  2  0  0  0  0
 13 20  1  0  0  0  0
 14 17  2  0  0  0  0
 14 19  1  0  0  0  0
 15 18  1  0  0  0  0
 16 17  1  0  0  0  0
 16 18  2  0  0  0  0
 17 23  1  0  0  0  0
 18 24  1  0  0  0  0
 19 21  2  0  0  0  0
 19 25  1  0  0  0  0
 20 22  2  0  0  0  0
 20 26  1  0  0  0  0
 21 22  1  0  0  0  0
 22 27  1  0  0  0  0
M  CHG  3   4  -1   7  -1  10  -1
M  END
> <PUBCHEM_COMPOUND_CID>
4437

> <PUBCHEM_COMPOUND_CANONICALIZED>
1

> <PUBCHEM_CACTVS_COMPLEXITY>
680

> <PUBCHEM_CACTVS_HBOND_ACCEPTOR>
9

> <PUBCHEM_CACTVS_HBOND_DONOR>
0

> <PUBCHEM_CACTVS_ROTATABLE_BOND>
0

> <PUBCHEM_CACTVS_SUBSKEYS>
AAADcYBwPABgAAAAAAAAAAAAAAAAAAAAAAAwYAAAAAAAAADBUAAAGAQAAAAADACAWAAwAcAAAAKAAiBCAHBCAEAgAAAIiBgAAIgIICKAERCAIAAggAAIiAcAgIAOkAAAgEAUAAAgAAEAgCgAAAAAAAAAAA==

> <PUBCHEM_IUPAC_OPENEYE_NAME>
naphthalene-1,3,6-trisulfonate

> <PUBCHEM_IUPAC_CAS_NAME>
naphthalene-1,3,6-trisulfonate

> <PUBCHEM_IUPAC_NAME>
naphthalene-1,3,6-trisulfonate

> <PUBCHEM_IUPAC_SYSTEMATIC_NAME>
naphthalene-1,3,6-trisulfonate

> <PUBCHEM_IUPAC_TRADITIONAL_NAME>
naphthalene-1,3,6-trisulfonate

> <PUBCHEM_IUPAC_INCHI>
InChI=1S/C10H8O9S3/c11-20(12,13)7-1-2-9-6(3-7)4-8(21(14,15)16)5-10(9)22(17,18)19/h1-5H,(H,11,12,13)(H,14,15,16)(H,17,18,19)/p-3

> <PUBCHEM_IUPAC_INCHIKEY>
ZPBSAMLXSQCSOX-UHFFFAOYSA-K

> <PUBCHEM_XLOGP3_AA>
-0.8

> <PUBCHEM_EXACT_MASS>
364.90957

> <PUBCHEM_MOLECULAR_FORMULA>
C10H5O9S3-3

> <PUBCHEM_MOLECULAR_WEIGHT>
365.3363

> <PUBCHEM_OPENEYE_CAN_SMILES>
C1=CC2=C(C=C(C=C2C=C1S(=O)(=O)[O-])S(=O)(=O)[O-])S(=O)(=O)[O-]

> <PUBCHEM_OPENEYE_ISO_SMILES>
C1=CC2=C(C=C(C=C2C=C1S(=O)(=O)[O-])S(=O)(=O)[O-])S(=O)(=O)[O-]

> <PUBCHEM_CACTVS_TPSA>
197

> <PUBCHEM_MONOISOTOPIC_WEIGHT>
364.90957

> <PUBCHEM_TOTAL_CHARGE>
-3

> <PUBCHEM_HEAVY_ATOM_COUNT>
22

> <PUBCHEM_ATOM_DEF_STEREO_COUNT>
0

> <PUBCHEM_ATOM_UDEF_STEREO_COUNT>
0

> <PUBCHEM_BOND_DEF_STEREO_COUNT>
0

> <PUBCHEM_BOND_UDEF_STEREO_COUNT>
0

> <PUBCHEM_ISOTOPIC_ATOM_COUNT>
0

> <PUBCHEM_COMPONENT_COUNT>
1

> <PUBCHEM_CACTVS_TAUTO_COUNT>
1

> <PUBCHEM_COORDINATE_TYPE>
1
5
255

> <PUBCHEM_BONDANNOTATIONS>
13  14  8
13  15  8
13  20  8
14  17  8
14  19  8
15  18  8
16  17  8
16  18  8
19  21  8
20  22  8
21  22  8

$$$$

