5288768
  -OEChem-07051213153D

 45 46  0     1  0  0  0  0  0999 V2000
    0.1890    0.7407   -0.1272 O   0  0  0  0  0  0  0  0  0  0  0  0
    1.7509   -0.7093    0.9168 O   0  0  0  0  0  0  0  0  0  0  0  0
   -3.6352   -0.8560   -0.3342 O   0  0  0  0  0  0  0  0  0  0  0  0
   -2.1455    2.4790    0.0463 O   0  0  0  0  0  0  0  0  0  0  0  0
    3.0629    1.6515    1.8992 O   0  0  0  0  0  0  0  0  0  0  0  0
   -1.0062   -1.4435   -1.3355 O   0  0  0  0  0  0  0  0  0  0  0  0
    4.1875    2.3167   -0.5403 O   0  0  0  0  0  0  0  0  0  0  0  0
    4.2772   -0.3466   -1.7238 O   0  0  0  0  0  0  0  0  0  0  0  0
   -2.8741   -1.6354    1.7741 O   0  0  0  0  0  0  0  0  0  0  0  0
   -5.9196    0.6380   -0.4685 O   0  0  0  0  0  0  0  0  0  0  0  0
    1.8994   -3.3196    0.1216 O   0  0  0  0  0  0  0  0  0  0  0  0
   -1.0965    0.3213    0.3227 C   0  0  1  0  0  0  0  0  0  0  0  0
   -2.1948    1.1205   -0.3814 C   0  0  1  0  0  0  0  0  0  0  0  0
    1.1699    0.5992    0.8947 C   0  0  1  0  0  0  0  0  0  0  0  0
    2.2504    1.6660    0.7242 C   0  0  2  0  0  0  0  0  0  0  0  0
   -1.2517   -1.1750    0.0462 C   0  0  1  0  0  0  0  0  0  0  0  0
    3.1106    1.3840   -0.5088 C   0  0  2  0  0  0  0  0  0  0  0  0
    3.6464   -0.0486   -0.4811 C   0  0  1  0  0  0  0  0  0  0  0  0
   -3.5721    0.5409   -0.0352 C   0  0  1  0  0  0  0  0  0  0  0  0
    2.4950   -1.0374   -0.2593 C   0  0  1  0  0  0  0  0  0  0  0  0
   -2.6690   -1.6477    0.3655 C   0  0  2  0  0  0  0  0  0  0  0  0
   -4.6825    1.2259   -0.8270 C   0  0  0  0  0  0  0  0  0  0  0  0
    3.0081   -2.4646   -0.0890 C   0  0  0  0  0  0  0  0  0  0  0  0
   -1.2062    0.5144    1.3986 H   0  0  0  0  0  0  0  0  0  0  0  0
   -2.0163    1.1035   -1.4638 H   0  0  0  0  0  0  0  0  0  0  0  0
    0.7292    0.7504    1.8879 H   0  0  0  0  0  0  0  0  0  0  0  0
    1.8012    2.6629    0.6458 H   0  0  0  0  0  0  0  0  0  0  0  0
   -0.5278   -1.7527    0.6282 H   0  0  0  0  0  0  0  0  0  0  0  0
    2.5271    1.5452   -1.4228 H   0  0  0  0  0  0  0  0  0  0  0  0
    4.4027   -0.1415    0.3084 H   0  0  0  0  0  0  0  0  0  0  0  0
   -3.7921    0.6768    1.0322 H   0  0  0  0  0  0  0  0  0  0  0  0
    1.8192   -1.0299   -1.1215 H   0  0  0  0  0  0  0  0  0  0  0  0
   -2.7937   -2.6782    0.0134 H   0  0  0  0  0  0  0  0  0  0  0  0
   -4.5419    1.0778   -1.9029 H   0  0  0  0  0  0  0  0  0  0  0  0
   -4.7353    2.2969   -0.6124 H   0  0  0  0  0  0  0  0  0  0  0  0
    3.6603   -2.5420    0.7872 H   0  0  0  0  0  0  0  0  0  0  0  0
    3.5477   -2.8124   -0.9743 H   0  0  0  0  0  0  0  0  0  0  0  0
   -2.6754    3.0061   -0.5748 H   0  0  0  0  0  0  0  0  0  0  0  0
    3.6627    2.4149    1.8486 H   0  0  0  0  0  0  0  0  0  0  0  0
   -0.2181   -0.9430   -1.6021 H   0  0  0  0  0  0  0  0  0  0  0  0
    4.8047    2.0929    0.1764 H   0  0  0  0  0  0  0  0  0  0  0  0
    4.8079   -1.1516   -1.6030 H   0  0  0  0  0  0  0  0  0  0  0  0
   -3.5516   -2.3043    1.9707 H   0  0  0  0  0  0  0  0  0  0  0  0
   -6.6105    1.0831   -0.9882 H   0  0  0  0  0  0  0  0  0  0  0  0
    2.2483   -4.2202    0.2343 H   0  0  0  0  0  0  0  0  0  0  0  0
  1 12  1  0  0  0  0
  1 14  1  0  0  0  0
  2 14  1  0  0  0  0
  2 20  1  0  0  0  0
  3 19  1  0  0  0  0
  3 21  1  0  0  0  0
  4 13  1  0  0  0  0
  4 38  1  0  0  0  0
  5 15  1  0  0  0  0
  5 39  1  0  0  0  0
  6 16  1  0  0  0  0
  6 40  1  0  0  0  0
  7 17  1  0  0  0  0
  7 41  1  0  0  0  0
  8 18  1  0  0  0  0
  8 42  1  0  0  0  0
  9 21  1  0  0  0  0
  9 43  1  0  0  0  0
 10 22  1  0  0  0  0
 10 44  1  0  0  0  0
 11 23  1  0  0  0  0
 11 45  1  0  0  0  0
 12 13  1  0  0  0  0
 12 16  1  0  0  0  0
 12 24  1  0  0  0  0
 13 19  1  0  0  0  0
 13 25  1  0  0  0  0
 14 15  1  0  0  0  0
 14 26  1  0  0  0  0
 15 17  1  0  0  0  0
 15 27  1  0  0  0  0
 16 21  1  0  0  0  0
 16 28  1  0  0  0  0
 17 18  1  0  0  0  0
 17 29  1  0  0  0  0
 18 20  1  0  0  0  0
 18 30  1  0  0  0  0
 19 22  1  0  0  0  0
 19 31  1  0  0  0  0
 20 23  1  0  0  0  0
 20 32  1  0  0  0  0
 21 33  1  0  0  0  0
 22 34  1  0  0  0  0
 22 35  1  0  0  0  0
 23 36  1  0  0  0  0
 23 37  1  0  0  0  0
M  END
> <PUBCHEM_COMPOUND_CID>
5288768

> <PUBCHEM_CONFORMER_RMSD>
0.8

> <PUBCHEM_CONFORMER_DIVERSEORDER>
2
19
15
45
27
24
50
46
18
20
28
6
17
38
48
25
33
34
30
13
23
11
35
41
44
36
26
1
16
47
8
29
37
51
9
43
22
14
49
40
32
5
31
4
42
7
12
39
3
10
21

> <PUBCHEM_MMFF94_PARTIAL_CHARGES>
31
1 -0.56
10 -0.68
11 -0.68
12 0.28
13 0.28
14 0.56
15 0.28
16 0.28
17 0.28
18 0.28
19 0.28
2 -0.56
20 0.28
21 0.56
22 0.28
23 0.28
3 -0.56
38 0.4
39 0.4
4 -0.68
40 0.4
41 0.4
42 0.4
43 0.4
44 0.4
45 0.4
5 -0.68
6 -0.68
7 -0.68
8 -0.68
9 -0.68

> <PUBCHEM_EFFECTIVE_ROTOR_COUNT>
6.4

> <PUBCHEM_PHARMACOPHORE_FEATURES>
21
1 1 acceptor
1 10 acceptor
1 10 donor
1 11 acceptor
1 11 donor
1 2 acceptor
1 3 acceptor
1 4 acceptor
1 4 donor
1 5 acceptor
1 5 donor
1 6 acceptor
1 6 donor
1 7 acceptor
1 7 donor
1 8 acceptor
1 8 donor
1 9 acceptor
1 9 donor
6 2 14 15 17 18 20 rings
6 3 12 13 16 19 21 rings

> <PUBCHEM_HEAVY_ATOM_COUNT>
23

> <PUBCHEM_ATOM_DEF_STEREO_COUNT>
10

> <PUBCHEM_ATOM_UDEF_STEREO_COUNT>
0

> <PUBCHEM_BOND_DEF_STEREO_COUNT>
0

> <PUBCHEM_BOND_UDEF_STEREO_COUNT>
0

> <PUBCHEM_ISOTOPIC_ATOM_COUNT>
0

> <PUBCHEM_COMPONENT_COUNT>
1

> <PUBCHEM_CACTVS_TAUTO_COUNT>
1

> <PUBCHEM_CONFORMER_ID>
0050B34000000002

> <PUBCHEM_MMFF94_ENERGY>
65.4549

> <PUBCHEM_FEATURE_SELFOVERLAP>
106.674

> <PUBCHEM_SHAPE_FINGERPRINT>
10366900 7 18409725175133569495
10498660 4 18342738485778975181
10616163 171 18411134714675820015
12592029 89 17531530992197650399
12730499 353 18412819175147787067
12788726 201 17531238530467970777
13224815 77 18411698742628732656
13533116 47 18334580183110958837
15375358 24 18343306924847982011
15375462 6 18410292501627114469
16752209 62 17240758540323935123
18186145 218 18259707821825764673
19862831 5 18114176432534267960
200 152 16588024619542275773
20369508 70 18114190777920066088
20645477 70 18040152924511514684
221490 88 18340757200686627554
22393880 68 18334012757374808870
23557571 272 18270391686149991387
23559900 14 18412827997174045632
350125 39 18193838369565860361
3545911 37 18343300366380361877
4280585 95 17686605154650098590
474 4 17274812515939332164
495365 180 18187379717535260562
5104073 3 18413108338142299513
543358 83 18335978787122777994
7364860 26 18334866051670596890
9709674 26 18413108364007346827

> <PUBCHEM_SHAPE_MULTIPOLES>
408.77
9.41
2.71
1.18
6.06
0.98
0.21
-2.36
-2.26
-1.66
0.22
-0.52
-0.02
0.89

> <PUBCHEM_SHAPE_SELFOVERLAP>
838.133

> <PUBCHEM_SHAPE_VOLUME>
229.9

> <PUBCHEM_COORDINATE_TYPE>
2
5
10

$$$$

