17396059
  -OEChem-06241222543D

 42 45  0     1  0  0  0  0  0999 V2000
   -2.6792    1.8850   -2.2189 S   0  0  0  0  0  0  0  0  0  0  0  0
    2.8386    0.8212    0.6132 O   0  0  0  0  0  0  0  0  0  0  0  0
   -0.5811   -0.4023   -2.8540 O   0  0  0  0  0  0  0  0  0  0  0  0
    2.3129    2.6649    2.3883 O   0  0  0  0  0  0  0  0  0  0  0  0
    0.4216    0.2232   -0.8425 N   0  0  0  0  0  0  0  0  0  0  0  0
    1.9035    4.1825    0.7080 N   0  0  0  0  0  0  0  0  0  0  0  0
    0.5201    1.3156    0.1398 C   0  0  0  0  0  0  0  0  0  0  0  0
    1.9419    1.8376    0.1823 C   0  0  1  0  0  0  0  0  0  0  0  0
    1.5477   -0.6734   -0.8462 C   0  0  0  0  0  0  0  0  0  0  0  0
    2.6974   -0.3447   -0.1009 C   0  0  0  0  0  0  0  0  0  0  0  0
   -0.6706    0.1015   -1.7340 C   0  0  0  0  0  0  0  0  0  0  0  0
   -1.9570    0.6438   -1.2861 C   0  0  0  0  0  0  0  0  0  0  0  0
    1.5345   -1.9079   -1.5134 C   0  0  0  0  0  0  0  0  0  0  0  0
    2.0799    2.9140    1.2080 C   0  0  0  0  0  0  0  0  0  0  0  0
    3.7876   -1.2191   -0.0273 C   0  0  0  0  0  0  0  0  0  0  0  0
   -2.7213    0.3099   -0.1897 C   0  0  0  0  0  0  0  0  0  0  0  0
    2.6324   -2.7734   -1.4511 C   0  0  0  0  0  0  0  0  0  0  0  0
    3.7575   -2.4300   -0.7098 C   0  0  0  0  0  0  0  0  0  0  0  0
   -2.3067   -0.7119    0.7372 C   0  0  0  0  0  0  0  0  0  0  0  0
   -3.9158    1.0829   -0.1148 C   0  0  0  0  0  0  0  0  0  0  0  0
   -4.0188    1.9785   -1.1563 C   0  0  0  0  0  0  0  0  0  0  0  0
   -2.1046   -0.3953    2.0805 C   0  0  0  0  0  0  0  0  0  0  0  0
   -2.1072   -2.0181    0.2909 C   0  0  0  0  0  0  0  0  0  0  0  0
   -1.7034   -1.3851    2.9776 C   0  0  0  0  0  0  0  0  0  0  0  0
   -1.7059   -3.0080    1.1880 C   0  0  0  0  0  0  0  0  0  0  0  0
   -1.5040   -2.6915    2.5314 C   0  0  0  0  0  0  0  0  0  0  0  0
    0.2286    0.9057    1.1130 H   0  0  0  0  0  0  0  0  0  0  0  0
   -0.1738    2.1232   -0.1127 H   0  0  0  0  0  0  0  0  0  0  0  0
    2.2702    2.2097   -0.7978 H   0  0  0  0  0  0  0  0  0  0  0  0
    0.6668   -2.2498   -2.0687 H   0  0  0  0  0  0  0  0  0  0  0  0
    4.6660   -0.9556    0.5563 H   0  0  0  0  0  0  0  0  0  0  0  0
    2.5983   -3.7254   -1.9736 H   0  0  0  0  0  0  0  0  0  0  0  0
    4.6045   -3.1073   -0.6579 H   0  0  0  0  0  0  0  0  0  0  0  0
   -4.6678    0.9928    0.6593 H   0  0  0  0  0  0  0  0  0  0  0  0
   -4.8168    2.6829   -1.3444 H   0  0  0  0  0  0  0  0  0  0  0  0
    1.6982    4.3592   -0.2702 H   0  0  0  0  0  0  0  0  0  0  0  0
    1.9691    4.9948    1.3125 H   0  0  0  0  0  0  0  0  0  0  0  0
   -2.2511    0.6183    2.4465 H   0  0  0  0  0  0  0  0  0  0  0  0
   -2.2672   -2.2904   -0.7498 H   0  0  0  0  0  0  0  0  0  0  0  0
   -1.5448   -1.1384    4.0233 H   0  0  0  0  0  0  0  0  0  0  0  0
   -1.5516   -4.0255    0.8408 H   0  0  0  0  0  0  0  0  0  0  0  0
   -1.1911   -3.4621    3.2298 H   0  0  0  0  0  0  0  0  0  0  0  0
  1 12  1  0  0  0  0
  1 21  1  0  0  0  0
  2  8  1  0  0  0  0
  2 10  1  0  0  0  0
  3 11  2  0  0  0  0
  4 14  2  0  0  0  0
  5  7  1  0  0  0  0
  5  9  1  0  0  0  0
  5 11  1  0  0  0  0
  6 14  1  0  0  0  0
  6 36  1  0  0  0  0
  6 37  1  0  0  0  0
  7  8  1  0  0  0  0
  7 27  1  0  0  0  0
  7 28  1  0  0  0  0
  8 14  1  0  0  0  0
  8 29  1  0  0  0  0
  9 10  1  0  0  0  0
  9 13  2  0  0  0  0
 10 15  2  0  0  0  0
 11 12  1  0  0  0  0
 12 16  2  0  0  0  0
 13 17  1  0  0  0  0
 13 30  1  0  0  0  0
 15 18  1  0  0  0  0
 15 31  1  0  0  0  0
 16 19  1  0  0  0  0
 16 20  1  0  0  0  0
 17 18  2  0  0  0  0
 17 32  1  0  0  0  0
 18 33  1  0  0  0  0
 19 22  2  0  0  0  0
 19 23  1  0  0  0  0
 20 21  2  0  0  0  0
 20 34  1  0  0  0  0
 21 35  1  0  0  0  0
 22 24  1  0  0  0  0
 22 38  1  0  0  0  0
 23 25  2  0  0  0  0
 23 39  1  0  0  0  0
 24 26  2  0  0  0  0
 24 40  1  0  0  0  0
 25 26  1  0  0  0  0
 25 41  1  0  0  0  0
 26 42  1  0  0  0  0
M  END
> <PUBCHEM_COMPOUND_CID>
17396059

> <PUBCHEM_CONFORMER_RMSD>
0.8

> <PUBCHEM_CONFORMER_DIVERSEORDER>
1
51
12
42
22
63
32
66
18
68
44
25
41
61
50
60
17
45
38
7
33
67
46
4
34
49
58
43
23
54
39
31
47
64
6
26
59
53
13
29
40
27
48
8
16
3
28
56
30
10
57
35
24
21
36
15
52
62
19
14
20
37
55
11
65
5
2
9

> <PUBCHEM_MMFF94_PARTIAL_CHARGES>
39
1 -0.08
10 0.08
11 0.71
12 -0.05
13 -0.15
14 0.57
15 -0.15
16 -0.05
17 -0.15
18 -0.15
19 0.05
2 -0.36
20 -0.15
21 -0.11
22 -0.15
23 -0.15
24 -0.15
25 -0.15
26 -0.15
3 -0.57
30 0.15
31 0.15
32 0.15
33 0.15
34 0.15
35 0.15
36 0.37
37 0.37
38 0.15
39 0.15
4 -0.57
40 0.15
41 0.15
42 0.15
5 -0.48
6 -0.8
7 0.3
8 0.34
9 0.12

> <PUBCHEM_EFFECTIVE_ROTOR_COUNT>
4.8

> <PUBCHEM_PHARMACOPHORE_FEATURES>
8
1 2 acceptor
1 3 acceptor
1 4 acceptor
1 6 donor
5 1 12 16 20 21 rings
6 19 22 23 24 25 26 rings
6 2 5 7 8 9 10 rings
6 9 10 13 15 17 18 rings

> <PUBCHEM_HEAVY_ATOM_COUNT>
26

> <PUBCHEM_ATOM_DEF_STEREO_COUNT>
0

> <PUBCHEM_ATOM_UDEF_STEREO_COUNT>
1

> <PUBCHEM_BOND_DEF_STEREO_COUNT>
0

> <PUBCHEM_BOND_UDEF_STEREO_COUNT>
0

> <PUBCHEM_ISOTOPIC_ATOM_COUNT>
0

> <PUBCHEM_COMPONENT_COUNT>
1

> <PUBCHEM_CACTVS_TAUTO_COUNT>
2

> <PUBCHEM_CONFORMER_ID>
0109715B00000001

> <PUBCHEM_MMFF94_ENERGY>
85.2441

> <PUBCHEM_FEATURE_SELFOVERLAP>
40.638

> <PUBCHEM_SHAPE_FINGERPRINT>
10366900 7 18412542076610733076
10906281 52 18263073487301052220
1100329 8 16034364800282587207
11578080 2 18055604314140926861
11582403 64 17044648435134558581
11640471 11 15864619674093570395
12156800 1 15956470414351291139
12166972 35 16733567012107202165
12293681 4 18192992840469969584
12507560 18 18125158492037439183
12633257 1 18190717839132519827
12714826 92 17843368956196464082
12788726 201 17904764736841455570
14223421 5 18195241118257445754
15664445 248 10490286019847240046
16752209 62 16845575314365306791
17876694 64 16298953185371732265
17980427 26 17982486911490258021
20554085 129 17557733500822462765
20600515 1 18053081089842678676
20832881 197 18050851323158233493
21421861 104 13002557247972072016
229495 10 17896889742352658055
23559900 14 18272929384587969149
35225 105 17489601060137092065
3797600 57 16302299862406928570
469060 322 17037279302088341251
484985 159 17406232978863320386
5265222 85 17631154459536204718
7226269 152 18054234495005037922
81228 2 17773594923824574343
9981440 41 17683839555660246777

> <PUBCHEM_SHAPE_MULTIPOLES>
511.35
6.35
4
2.67
0.7
1.05
0.64
0.15
-1.43
1.05
2.39
-0.57
-0.19
3.98

> <PUBCHEM_SHAPE_SELFOVERLAP>
1121.257

> <PUBCHEM_SHAPE_VOLUME>
277

> <PUBCHEM_COORDINATE_TYPE>
2
5
10

$$$$

