443327
  -OEChem-07051213023D

 55 57  0     1  0  0  0  0  0999 V2000
    3.6544    0.3200    1.4826 O   0  0  0  0  0  0  0  0  0  0  0  0
    1.8002    2.3542    2.1724 O   0  0  0  0  0  0  0  0  0  0  0  0
    0.6595   -1.9937    0.2028 O   0  0  0  0  0  0  0  0  0  0  0  0
   -0.9836   -0.6868    1.1869 O   0  0  0  0  0  0  0  0  0  0  0  0
    1.6897    3.5733   -0.2706 O   0  0  0  0  0  0  0  0  0  0  0  0
   -2.2125    0.2270   -0.5734 O   0  0  0  0  0  0  0  0  0  0  0  0
    5.0012   -0.4067   -0.6253 O   0  0  0  0  0  0  0  0  0  0  0  0
   -3.3016   -2.0494    2.0689 O   0  0  0  0  0  0  0  0  0  0  0  0
   -5.7691   -0.6416    1.2875 O   0  0  0  0  0  0  0  0  0  0  0  0
   -5.7359   -0.0336   -1.5384 O   0  0  0  0  0  0  0  0  0  0  0  0
    4.4515   -2.5480   -1.3124 O   0  0  0  0  0  0  0  0  0  0  0  0
   -2.0046    1.1270   -3.1624 O   0  0  0  0  0  0  0  0  0  0  0  0
    1.2517    0.2177    1.1653 C   0  0  1  0  0  0  0  0  0  0  0  0
    2.6460    0.1456    0.4776 C   0  0  1  0  0  0  0  0  0  0  0  0
    0.9639    1.7423    1.1807 C   0  0  2  0  0  0  0  0  0  0  0  0
    1.4467    2.1791   -0.2066 C   0  0  2  0  0  0  0  0  0  0  0  0
    2.7196    1.3664   -0.4653 C   0  0  0  0  0  0  0  0  0  0  0  0
    0.2158   -0.6460    0.4140 C   0  0  1  0  0  0  0  0  0  0  0  0
    2.8765   -1.1637   -0.2070 C   0  0  0  0  0  0  0  0  0  0  0  0
   -0.4662    2.1815    1.4647 C   0  0  0  0  0  0  0  0  0  0  0  0
    1.9362   -2.1109   -0.2727 C   0  0  0  0  0  0  0  0  0  0  0  0
   -2.1313   -0.8520    0.3549 C   0  0  2  0  0  0  0  0  0  0  0  0
   -3.3660   -0.8781    1.2557 C   0  0  1  0  0  0  0  0  0  0  0  0
    4.1855   -1.4796   -0.7844 C   0  0  0  0  0  0  0  0  0  0  0  0
   -4.6543   -0.9015    0.4330 C   0  0  2  0  0  0  0  0  0  0  0  0
   -4.6342    0.1699   -0.6573 C   0  0  1  0  0  0  0  0  0  0  0  0
   -3.3299    0.1080   -1.4556 C   0  0  1  0  0  0  0  0  0  0  0  0
   -3.2358    1.2414   -2.4723 C   0  0  0  0  0  0  0  0  0  0  0  0
    6.3265   -0.5618   -1.1433 C   0  0  0  0  0  0  0  0  0  0  0  0
    1.3336   -0.1465    2.1994 H   0  0  0  0  0  0  0  0  0  0  0  0
    0.7063    1.9349   -0.9780 H   0  0  0  0  0  0  0  0  0  0  0  0
    2.7379    1.0772   -1.5232 H   0  0  0  0  0  0  0  0  0  0  0  0
    3.6135    1.9761   -0.2851 H   0  0  0  0  0  0  0  0  0  0  0  0
    0.0390   -0.2110   -0.5769 H   0  0  0  0  0  0  0  0  0  0  0  0
   -1.1406    1.9841    0.6328 H   0  0  0  0  0  0  0  0  0  0  0  0
   -0.8523    1.6957    2.3672 H   0  0  0  0  0  0  0  0  0  0  0  0
   -0.5053    3.2593    1.6627 H   0  0  0  0  0  0  0  0  0  0  0  0
    3.4994    1.1689    1.9299 H   0  0  0  0  0  0  0  0  0  0  0  0
    1.5139    2.0273    3.0426 H   0  0  0  0  0  0  0  0  0  0  0  0
    2.0776   -3.1018   -0.6832 H   0  0  0  0  0  0  0  0  0  0  0  0
   -2.0272   -1.8025   -0.1859 H   0  0  0  0  0  0  0  0  0  0  0  0
    0.8463    4.0282   -0.1079 H   0  0  0  0  0  0  0  0  0  0  0  0
   -3.3655   -0.0187    1.9368 H   0  0  0  0  0  0  0  0  0  0  0  0
   -4.8193   -1.8972    0.0030 H   0  0  0  0  0  0  0  0  0  0  0  0
   -4.7590    1.1586   -0.1988 H   0  0  0  0  0  0  0  0  0  0  0  0
   -3.2445   -0.8429   -1.9989 H   0  0  0  0  0  0  0  0  0  0  0  0
   -3.2542    2.2210   -1.9830 H   0  0  0  0  0  0  0  0  0  0  0  0
   -4.0469    1.1972   -3.2047 H   0  0  0  0  0  0  0  0  0  0  0  0
   -3.3015   -2.8245    1.4817 H   0  0  0  0  0  0  0  0  0  0  0  0
   -6.5685   -0.6498    0.7335 H   0  0  0  0  0  0  0  0  0  0  0  0
   -5.6297   -0.9056   -1.9554 H   0  0  0  0  0  0  0  0  0  0  0  0
    6.8378   -1.3845   -0.6346 H   0  0  0  0  0  0  0  0  0  0  0  0
    6.8757    0.3641   -0.9534 H   0  0  0  0  0  0  0  0  0  0  0  0
    6.2928   -0.7357   -2.2231 H   0  0  0  0  0  0  0  0  0  0  0  0
   -1.2923    1.1648   -2.5013 H   0  0  0  0  0  0  0  0  0  0  0  0
  1 14  1  0  0  0  0
  1 38  1  0  0  0  0
  2 15  1  0  0  0  0
  2 39  1  0  0  0  0
  3 18  1  0  0  0  0
  3 21  1  0  0  0  0
  4 18  1  0  0  0  0
  4 22  1  0  0  0  0
  5 16  1  0  0  0  0
  5 42  1  0  0  0  0
  6 22  1  0  0  0  0
  6 27  1  0  0  0  0
  7 24  1  0  0  0  0
  7 29  1  0  0  0  0
  8 23  1  0  0  0  0
  8 49  1  0  0  0  0
  9 25  1  0  0  0  0
  9 50  1  0  0  0  0
 10 26  1  0  0  0  0
 10 51  1  0  0  0  0
 11 24  2  0  0  0  0
 12 28  1  0  0  0  0
 12 55  1  0  0  0  0
 13 14  1  0  0  0  0
 13 15  1  0  0  0  0
 13 18  1  0  0  0  0
 13 30  1  0  0  0  0
 14 17  1  0  0  0  0
 14 19  1  0  0  0  0
 15 16  1  0  0  0  0
 15 20  1  0  0  0  0
 16 17  1  0  0  0  0
 16 31  1  0  0  0  0
 17 32  1  0  0  0  0
 17 33  1  0  0  0  0
 18 34  1  0  0  0  0
 19 21  2  0  0  0  0
 19 24  1  0  0  0  0
 20 35  1  0  0  0  0
 20 36  1  0  0  0  0
 20 37  1  0  0  0  0
 21 40  1  0  0  0  0
 22 23  1  0  0  0  0
 22 41  1  0  0  0  0
 23 25  1  0  0  0  0
 23 43  1  0  0  0  0
 25 26  1  0  0  0  0
 25 44  1  0  0  0  0
 26 27  1  0  0  0  0
 26 45  1  0  0  0  0
 27 28  1  0  0  0  0
 27 46  1  0  0  0  0
 28 47  1  0  0  0  0
 28 48  1  0  0  0  0
 29 52  1  0  0  0  0
 29 53  1  0  0  0  0
 29 54  1  0  0  0  0
M  END
> <PUBCHEM_COMPOUND_CID>
443327

> <PUBCHEM_CONFORMER_RMSD>
0.8

> <PUBCHEM_CONFORMER_DIVERSEORDER>
3
17
108
141
114
167
15
130
82
170
45
115
133
48
163
137
104
132
109
184
129
32
27
165
169
65
63
91
176
174
18
47
43
51
160
139
35
36
86
79
6
124
30
46
62
136
182
60
135
20
31
118
53
54
183
113
172
38
154
157
52
78
131
7
177
23
66
146
178
116
2
145
128
87
72
175
111
29
105
162
39
101
42
151
64
123
50
156
1
19
95
103
41
99
110
102
80
76
189
188
4
152
25
179
164
26
96
44
147
158
70
168
97
75
181
5
142
173
58
13
8
56
73
150
28
22
24
83
127
161
21
84
186
138
148
144
12
117
143
94
89
149
122
187
93
67
16
166
77
185
40
11
180
55
155
81
92
121
34
134
159
140
71
100
112
74
107
33
37
61
126
49
59
10
98
119
88
69
153
68
106
57
14
125
171
120
9
90
85

> <PUBCHEM_MMFF94_PARTIAL_CHARGES>
34
1 -0.68
10 -0.68
11 -0.57
12 -0.68
14 0.42
15 0.28
16 0.28
18 0.56
19 -0.12
2 -0.68
21 -0.07
22 0.56
23 0.28
24 0.71
25 0.28
26 0.28
27 0.28
28 0.28
29 0.28
3 -0.36
38 0.4
39 0.4
4 -0.56
40 0.15
42 0.4
49 0.4
5 -0.68
50 0.4
51 0.4
55 0.4
6 -0.56
7 -0.43
8 -0.68
9 -0.68

> <PUBCHEM_EFFECTIVE_ROTOR_COUNT>
7.2

> <PUBCHEM_PHARMACOPHORE_FEATURES>
21
1 1 acceptor
1 1 donor
1 10 acceptor
1 10 donor
1 11 acceptor
1 12 acceptor
1 12 donor
1 2 acceptor
1 2 donor
1 3 acceptor
1 4 acceptor
1 5 acceptor
1 5 donor
1 6 acceptor
1 8 acceptor
1 8 donor
1 9 acceptor
1 9 donor
5 13 14 15 16 17 rings
6 3 13 14 18 19 21 rings
6 6 22 23 25 26 27 rings

> <PUBCHEM_HEAVY_ATOM_COUNT>
29

> <PUBCHEM_ATOM_DEF_STEREO_COUNT>
10

> <PUBCHEM_ATOM_UDEF_STEREO_COUNT>
0

> <PUBCHEM_BOND_DEF_STEREO_COUNT>
0

> <PUBCHEM_BOND_UDEF_STEREO_COUNT>
0

> <PUBCHEM_ISOTOPIC_ATOM_COUNT>
0

> <PUBCHEM_COMPONENT_COUNT>
1

> <PUBCHEM_CACTVS_TAUTO_COUNT>
1

> <PUBCHEM_CONFORMER_ID>
0006C3BF00000003

> <PUBCHEM_MMFF94_ENERGY>
98.3117

> <PUBCHEM_FEATURE_SELFOVERLAP>
106.829

> <PUBCHEM_SHAPE_FINGERPRINT>
10165383 225 17763164861502013065
10366900 7 18131642188027422431
10369192 42 17766554651740557068
10498660 4 16917077659236251381
12156800 1 17538521742777495837
12236239 1 16587742023294342387
12553582 1 17967539012150539374
12623949 98 17761742128074353091
13009979 54 16009041531513764919
13134695 92 17967253078987161376
13402501 40 18202002127258216655
13544653 18 18041276664429602186
13726171 33 17417814014489794164
13782708 43 18272365331182004379
13911987 19 18337657668918258638
14251757 17 18130228258765052860
14739800 52 16415204417260724364
14840074 17 17458339750084060836
15806764 133 18272937124393453277
17357779 13 18261958543723698552
1813 80 17458615753051058916
20511986 3 16371019498161648619
21033648 29 18272379650681375417
21033650 10 16629106870913327438
21641784 216 18266997605804427644
21792961 116 18201430420368086702
221357 26 18410863187270407733
22182313 1 18340781368388513400
23536364 44 18125721433464463686
23557571 272 17560517301234140155
23559900 14 18271807900171166011
238 59 17978828668663616701
3524813 1 18202004321965490255
404807 14 15620066470433837298
46194498 28 18130499743489629660
5104073 3 8502116057851983615
513202 73 17316466599182372318
5281201 14 18342177756639728205
6287921 2 17841986694361048997
6823239 73 17703512112409719765
7471813 234 17603303760572421120
7495541 125 18131630062749170370
7808743 9 16844738671625759157
9971528 1 17967818236505936384

> <PUBCHEM_SHAPE_MULTIPOLES>
526.37
11.44
2.63
2.1
2.18
1.32
0.84
-4.96
3.7
-2.22
-0.36
1.96
0.62
2.3

> <PUBCHEM_SHAPE_SELFOVERLAP>
1115.453

> <PUBCHEM_SHAPE_VOLUME>
289

> <PUBCHEM_COORDINATE_TYPE>
2
5
10

$$$$

