441739
  -OEChem-07051212552D

 60 66  0     1  0  0  0  0  0999 V2000
    2.5785   -0.7726    0.0000 O   0  0  0  0  0  0  0  0  0  0  0  0
    2.0000    2.1132    0.0000 O   0  0  0  0  0  0  0  0  0  0  0  0
    5.2289    2.8180    0.0000 O   0  0  0  0  0  0  0  0  0  0  0  0
    2.6728   -2.0600    0.0000 O   0  0  0  0  0  0  0  0  0  0  0  0
    4.3628    4.3180    0.0000 O   0  0  0  0  0  0  0  0  0  0  0  0
    2.0878    3.8687    0.0000 O   0  0  0  0  0  0  0  0  0  0  0  0
    4.8530   -3.6775    0.0000 N   0  0  0  0  0  0  0  0  0  0  0  0
    3.4808   -0.2513    0.0000 C   0  0  2  0  0  0  0  0  0  0  0  0
    4.3628    1.3180    0.0000 C   0  0  2  0  0  0  0  0  0  0  0  0
    4.3789    0.2765    0.0000 C   0  0  2  0  0  0  0  0  0  0  0  0
    3.4968    1.8180    0.0000 C   0  0  1  0  0  0  0  0  0  0  0  0
    2.5788    0.2695    0.0000 C   0  0  2  0  0  0  0  0  0  0  0  0
    2.5868    1.3111    0.0000 C   0  0  1  0  0  0  0  0  0  0  0  0
    3.4725   -1.3362    0.0000 C   0  0  1  0  0  0  0  0  0  0  0  0
    3.4968    2.8180    0.0000 C   0  0  2  0  0  0  0  0  0  0  0  0
    4.4121   -1.8787    0.0000 C   0  0  1  0  0  0  0  0  0  0  0  0
    3.9628    1.9180    0.0000 C   0  0  0  0  0  0  0  0  0  0  0  0
    5.3308   -0.2442    0.0000 C   0  0  0  0  0  0  0  0  0  0  0  0
    4.3628    3.3180    0.0000 C   0  0  2  0  0  0  0  0  0  0  0  0
    5.2289    1.8180    0.0000 C   0  0  0  0  0  0  0  0  0  0  0  0
    5.3475   -1.3290    0.0000 C   0  0  0  0  0  0  0  0  0  0  0  0
    3.9628    2.7180    0.0000 C   0  0  0  0  0  0  0  0  0  0  0  0
    4.1851   -2.9332    0.0000 C   0  0  2  0  0  0  0  0  0  0  0  0
    2.5138    2.9639    0.0000 C   0  0  0  0  0  0  0  0  0  0  0  0
    3.4968    3.8180    0.0000 C   0  0  0  0  0  0  0  0  0  0  0  0
    3.1124   -3.0450    0.0000 C   0  0  0  0  0  0  0  0  0  0  0  0
    5.2781   -2.3787    0.0000 C   0  0  0  0  0  0  0  0  0  0  0  0
    4.5423   -4.6280    0.0000 C   0  0  0  0  0  0  0  0  0  0  0  0
    5.8315   -3.4712    0.0000 C   0  0  0  0  0  0  0  0  0  0  0  0
    5.1067    0.7156    0.0000 H   0  0  0  0  0  0  0  0  0  0  0  0
    3.4968    0.9680    0.0000 H   0  0  0  0  0  0  0  0  0  0  0  0
    1.7288    0.2729    0.0000 H   0  0  0  0  0  0  0  0  0  0  0  0
    1.7778    1.0502    0.0000 H   0  0  0  0  0  0  0  0  0  0  0  0
    2.6969   -0.9885    0.0000 H   0  0  0  0  0  0  0  0  0  0  0  0
    3.3758    2.1175    0.0000 H   0  0  0  0  0  0  0  0  0  0  0  0
    4.5562    2.0976    0.0000 H   0  0  0  0  0  0  0  0  0  0  0  0
    5.9432   -0.3408    0.0000 H   0  0  0  0  0  0  0  0  0  0  0  0
    5.5308    0.3427    0.0000 H   0  0  0  0  0  0  0  0  0  0  0  0
    5.4409    1.2354    0.0000 H   0  0  0  0  0  0  0  0  0  0  0  0
    5.8394    1.9256    0.0000 H   0  0  0  0  0  0  0  0  0  0  0  0
    5.5656   -1.9094    0.0000 H   0  0  0  0  0  0  0  0  0  0  0  0
    5.9567   -1.2135    0.0000 H   0  0  0  0  0  0  0  0  0  0  0  0
    3.5850    3.2096    0.0000 H   0  0  0  0  0  0  0  0  0  0  0  0
    4.5562    2.5383    0.0000 H   0  0  0  0  0  0  0  0  0  0  0  0
    3.9622   -3.5117    0.0000 H   0  0  0  0  0  0  0  0  0  0  0  0
    4.1168    3.8180    0.0000 H   0  0  0  0  0  0  0  0  0  0  0  0
    3.4968    4.4380    0.0000 H   0  0  0  0  0  0  0  0  0  0  0  0
    2.8768    3.8180    0.0000 H   0  0  0  0  0  0  0  0  0  0  0  0
    2.5228   -3.2367    0.0000 H   0  0  0  0  0  0  0  0  0  0  0  0
    3.2411   -3.6515    0.0000 H   0  0  0  0  0  0  0  0  0  0  0  0
    4.9681   -2.9157    0.0000 H   0  0  0  0  0  0  0  0  0  0  0  0
    5.8151   -2.6887    0.0000 H   0  0  0  0  0  0  0  0  0  0  0  0
    5.5881   -1.8418    0.0000 H   0  0  0  0  0  0  0  0  0  0  0  0
    4.8998    4.6280    0.0000 H   0  0  0  0  0  0  0  0  0  0  0  0
    3.9530   -4.4354    0.0000 H   0  0  0  0  0  0  0  0  0  0  0  0
    4.3497   -5.2173    0.0000 H   0  0  0  0  0  0  0  0  0  0  0  0
    5.1316   -4.8206    0.0000 H   0  0  0  0  0  0  0  0  0  0  0  0
    5.9593   -4.0779    0.0000 H   0  0  0  0  0  0  0  0  0  0  0  0
    6.4382   -3.3434    0.0000 H   0  0  0  0  0  0  0  0  0  0  0  0
    5.7036   -2.8646    0.0000 H   0  0  0  0  0  0  0  0  0  0  0  0
  8  1  1  1  0  0  0
  1 12  1  0  0  0  0
  2 13  1  0  0  0  0
  2 24  1  0  0  0  0
  3 19  1  0  0  0  0
  3 20  1  0  0  0  0
  4 14  1  0  0  0  0
  4 26  1  0  0  0  0
 19  5  1  6  0  0  0
  5 54  1  0  0  0  0
  6 24  2  0  0  0  0
 23  7  1  1  0  0  0
  7 28  1  0  0  0  0
  7 29  1  0  0  0  0
  8 10  1  0  0  0  0
  8 12  1  0  0  0  0
  8 14  1  0  0  0  0
  9 10  1  0  0  0  0
  9 11  1  0  0  0  0
  9 17  1  6  0  0  0
  9 20  1  0  0  0  0
 10 18  1  0  0  0  0
 10 30  1  1  0  0  0
 11 13  1  0  0  0  0
 11 15  1  0  0  0  0
 11 31  1  6  0  0  0
 12 13  1  0  0  0  0
 12 32  1  6  0  0  0
 13 33  1  6  0  0  0
 14 16  1  0  0  0  0
 14 34  1  6  0  0  0
 15 19  1  0  0  0  0
 15 24  1  0  0  0  0
 15 25  1  6  0  0  0
 16 21  1  0  0  0  0
 16 23  1  0  0  0  0
 16 27  1  6  0  0  0
 17 22  1  0  0  0  0
 17 35  1  0  0  0  0
 17 36  1  0  0  0  0
 18 21  1  0  0  0  0
 18 37  1  0  0  0  0
 18 38  1  0  0  0  0
 19 22  1  0  0  0  0
 20 39  1  0  0  0  0
 20 40  1  0  0  0  0
 21 41  1  0  0  0  0
 21 42  1  0  0  0  0
 22 43  1  0  0  0  0
 22 44  1  0  0  0  0
 23 26  1  0  0  0  0
 23 45  1  0  0  0  0
 25 46  1  0  0  0  0
 25 47  1  0  0  0  0
 25 48  1  0  0  0  0
 26 49  1  0  0  0  0
 26 50  1  0  0  0  0
 27 51  1  0  0  0  0
 27 52  1  0  0  0  0
 27 53  1  0  0  0  0
 28 55  1  0  0  0  0
 28 56  1  0  0  0  0
 28 57  1  0  0  0  0
 29 58  1  0  0  0  0
 29 59  1  0  0  0  0
 29 60  1  0  0  0  0
M  END
> <PUBCHEM_COMPOUND_CID>
441739

> <PUBCHEM_COMPOUND_CANONICALIZED>
1

> <PUBCHEM_CACTVS_COMPLEXITY>
834

> <PUBCHEM_CACTVS_HBOND_ACCEPTOR>
7

> <PUBCHEM_CACTVS_HBOND_DONOR>
1

> <PUBCHEM_CACTVS_ROTATABLE_BOND>
1

> <PUBCHEM_CACTVS_SUBSKEYS>
AAADceB6OAAAAAAAAAAAAAAAEgAAASJAAAA0aMECBIAAAEjQAAAAHgAACAAAD3zhgAYCCAMABgAIAACQCAAAAAAAAAAAAAEIAAATABYAgAAHQAAHIAAWAAH6/P/PgAAAAAAAAADAAAYQADCAAAAAAAAAAA==

> <PUBCHEM_IUPAC_INCHI>
InChI=1S/C22H31NO6/c1-18-6-5-11-20-7-8-21(25,27-10-20)19(2)14(20)13(28-17(19)24)15-22(11,29-15)16(18)26-9-12(18)23(3)4/h11-16,25H,5-10H2,1-4H3/t11-,12-,13-,14-,15-,16+,18-,19-,20-,21-,22+/m0/s1

> <PUBCHEM_IUPAC_INCHIKEY>
VSTATNJCZCHFTM-QVPHZILJSA-N

> <PUBCHEM_XLOGP3_AA>
0.6

> <PUBCHEM_EXACT_MASS>
405.215138

> <PUBCHEM_MOLECULAR_FORMULA>
C22H31NO6

> <PUBCHEM_MOLECULAR_WEIGHT>
405.48464

> <PUBCHEM_OPENEYE_CAN_SMILES>
CC12CCC3C45CCC(C6(C4C(C7C3(C1OCC2N(C)C)O7)OC6=O)C)(OC5)O

> <PUBCHEM_OPENEYE_ISO_SMILES>
C[C@@]12CC[C@H]3[C@@]45CC[C@@]([C@]6([C@@H]4[C@@H]([C@H]7[C@]3([C@@H]1OC[C@@H]2N(C)C)O7)OC6=O)C)(OC5)O

> <PUBCHEM_CACTVS_TPSA>
80.8

> <PUBCHEM_MONOISOTOPIC_WEIGHT>
405.215138

> <PUBCHEM_TOTAL_CHARGE>
0

> <PUBCHEM_HEAVY_ATOM_COUNT>
29

> <PUBCHEM_ATOM_DEF_STEREO_COUNT>
11

> <PUBCHEM_ATOM_UDEF_STEREO_COUNT>
0

> <PUBCHEM_BOND_DEF_STEREO_COUNT>
0

> <PUBCHEM_BOND_UDEF_STEREO_COUNT>
0

> <PUBCHEM_ISOTOPIC_ATOM_COUNT>
0

> <PUBCHEM_COMPONENT_COUNT>
1

> <PUBCHEM_CACTVS_TAUTO_COUNT>
1

> <PUBCHEM_COORDINATE_TYPE>
1
5
255

> <PUBCHEM_BONDANNOTATIONS>
8  1  5
10  30  5
11  31  6
12  32  6
13  33  6
14  34  6
15  25  6
16  27  6
19  5  6
23  7  5
9  17  6

$$$$

