12871
  -OEChem-06261207283D

 28 28  0     0  0  0  0  0  0999 V2000
   -3.4498    1.2705    0.0054 F   0  0  0  0  0  0  0  0  0  0  0  0
   -3.4632   -0.6044   -1.0846 F   0  0  0  0  0  0  0  0  0  0  0  0
   -3.4388   -0.6142    1.0898 F   0  0  0  0  0  0  0  0  0  0  0  0
    1.2460    2.3321    0.0068 N   0  0  0  0  0  0  0  0  0  0  0  0
    1.2138   -2.3576   -0.0077 N   0  0  0  0  0  0  0  0  0  0  0  0
    1.2616   -0.0131   -0.0021 N   0  0  0  0  0  0  0  0  0  0  0  0
   -0.8247   -1.1987   -0.0057 N   0  0  0  0  0  0  0  0  0  0  0  0
   -0.8082    1.2009    0.0016 N   0  0  0  0  0  0  0  0  0  0  0  0
    2.6859    2.4169    0.0072 C   0  0  0  0  0  0  0  0  0  0  0  0
    2.6409   -2.4386   -0.0079 C   0  0  0  0  0  0  0  0  0  0  0  0
    0.5447    1.1360    0.0013 C   0  0  0  0  0  0  0  0  0  0  0  0
    0.5164   -1.1301   -0.0057 C   0  0  0  0  0  0  0  0  0  0  0  0
   -1.4194    0.0053   -0.0020 C   0  0  0  0  0  0  0  0  0  0  0  0
    3.1234    3.8690   -0.0085 C   0  0  0  0  0  0  0  0  0  0  0  0
    3.0818   -3.8895    0.0122 C   0  0  0  0  0  0  0  0  0  0  0  0
   -2.9102    0.0154    0.0000 C   0  0  0  0  0  0  0  0  0  0  0  0
    3.0927    1.9278    0.8995 H   0  0  0  0  0  0  0  0  0  0  0  0
    3.0950    1.9099   -0.8743 H   0  0  0  0  0  0  0  0  0  0  0  0
    3.0511   -1.9534   -0.9012 H   0  0  0  0  0  0  0  0  0  0  0  0
    3.0535   -1.9304    0.8714 H   0  0  0  0  0  0  0  0  0  0  0  0
    0.6948    3.1828    0.0122 H   0  0  0  0  0  0  0  0  0  0  0  0
    0.6481   -3.1987   -0.0117 H   0  0  0  0  0  0  0  0  0  0  0  0
    2.7472    4.3837   -0.8991 H   0  0  0  0  0  0  0  0  0  0  0  0
    2.7466    4.4030    0.8705 H   0  0  0  0  0  0  0  0  0  0  0  0
    4.2156    3.9391   -0.0087 H   0  0  0  0  0  0  0  0  0  0  0  0
    2.7073   -4.4027    0.9044 H   0  0  0  0  0  0  0  0  0  0  0  0
    2.7065   -4.4273   -0.8651 H   0  0  0  0  0  0  0  0  0  0  0  0
    4.1741   -3.9570    0.0126 H   0  0  0  0  0  0  0  0  0  0  0  0
  1 16  1  0  0  0  0
  2 16  1  0  0  0  0
  3 16  1  0  0  0  0
  4  9  1  0  0  0  0
  4 11  1  0  0  0  0
  4 21  1  0  0  0  0
  5 10  1  0  0  0  0
  5 12  1  0  0  0  0
  5 22  1  0  0  0  0
  6 11  2  0  0  0  0
  6 12  1  0  0  0  0
  7 12  2  0  0  0  0
  7 13  1  0  0  0  0
  8 11  1  0  0  0  0
  8 13  2  0  0  0  0
  9 14  1  0  0  0  0
  9 17  1  0  0  0  0
  9 18  1  0  0  0  0
 10 15  1  0  0  0  0
 10 19  1  0  0  0  0
 10 20  1  0  0  0  0
 13 16  1  0  0  0  0
 14 23  1  0  0  0  0
 14 24  1  0  0  0  0
 14 25  1  0  0  0  0
 15 26  1  0  0  0  0
 15 27  1  0  0  0  0
 15 28  1  0  0  0  0
M  END
> <PUBCHEM_COMPOUND_CID>
12871

> <PUBCHEM_CONFORMER_RMSD>
0.6

> <PUBCHEM_CONFORMER_DIVERSEORDER>
1
19
17
6
7
18
14
15
2
5
16
8
12
13
9
11
3
4
10

> <PUBCHEM_MMFF94_PARTIAL_CHARGES>
16
1 -0.34
10 0.37
11 0.72
12 0.72
13 0.48
16 1.16
2 -0.34
21 0.4
22 0.4
3 -0.34
4 -0.87
5 -0.87
6 -0.62
7 -0.62
8 -0.62
9 0.37

> <PUBCHEM_EFFECTIVE_ROTOR_COUNT>
5

> <PUBCHEM_PHARMACOPHORE_FEATURES>
5
1 4 donor
1 5 donor
4 4 6 8 11 cation
4 5 6 7 12 cation
6 6 7 8 11 12 13 rings

> <PUBCHEM_HEAVY_ATOM_COUNT>
16

> <PUBCHEM_ATOM_DEF_STEREO_COUNT>
0

> <PUBCHEM_ATOM_UDEF_STEREO_COUNT>
0

> <PUBCHEM_BOND_DEF_STEREO_COUNT>
0

> <PUBCHEM_BOND_UDEF_STEREO_COUNT>
0

> <PUBCHEM_ISOTOPIC_ATOM_COUNT>
0

> <PUBCHEM_COMPONENT_COUNT>
1

> <PUBCHEM_CACTVS_TAUTO_COUNT>
5

> <PUBCHEM_CONFORMER_ID>
0000324700000001

> <PUBCHEM_MMFF94_ENERGY>
28.5483

> <PUBCHEM_FEATURE_SELFOVERLAP>
25.414

> <PUBCHEM_SHAPE_FINGERPRINT>
1 1 18338796702375785876
108231 29 18199456852013256442
11357001 24 17403455672625796770
11833330 49 17692253354101619714
12532896 13 17975970960749692188
12788726 201 17334494298947165210
13380535 76 18197505012699049633
136203 1 17257653842460713426
15042514 8 16971389938755893258
16945 1 18410855447369931911
19591789 44 18122617250410153082
204376 136 18051410669476325041
20510252 161 16677820943914001816
20645476 183 17626094249168503164
20645477 70 18341625797829715111
20671657 1 18409443678745475462
21339142 36 17836093638131729294
21426921 1 17329709233529350950
21499 59 18195254304013084893
21524375 3 17971470689395038788
21650355 55 17836088149327256522
21665056 4 17834396722755341388
23366157 5 18273215300523693172
23402539 116 17469619854315941109
23419403 2 17986694738162790340
23557571 272 17688023537223224454
2748010 2 18049460423795614342
305870 269 18338798896898572957
3071541 12 18410290328452946244
3071541 250 18267011937677374430
3091708 16 9255740006073054346
43471831 8 18194684765468860114
458136 41 18266727004919733129
474229 33 17836365943543212259
532947 4 18336260168385551404
68521 5 17689996060935475342
7364860 26 18410011043998993480
81228 2 17470156428664161986
90316 7 17762060243289627330

> <PUBCHEM_SHAPE_MULTIPOLES>
282.55
5.76
4.68
0.68
3.79
0.13
0
-0.21
0
-8.55
0
0.33
0.07
-0.01

> <PUBCHEM_SHAPE_SELFOVERLAP>
569.934

> <PUBCHEM_SHAPE_VOLUME>
165.3

> <PUBCHEM_COORDINATE_TYPE>
2
5
10

$$$$

