5281817
  -OEChem-07051212593D

 48 50  0     1  0  0  0  0  0999 V2000
   -1.3728   -0.3647    2.1016 O   0  0  0  0  0  0  0  0  0  0  0  0
   -1.0929   -2.6976    0.5427 O   0  0  0  0  0  0  0  0  0  0  0  0
   -4.6930   -0.7464   -1.8094 O   0  0  0  0  0  0  0  0  0  0  0  0
    5.5683   -1.1628   -0.5168 O   0  0  0  0  0  0  0  0  0  0  0  0
    6.3166    1.1259   -0.6141 O   0  0  0  0  0  0  0  0  0  0  0  0
   -1.3825   -0.2738    0.6718 C   0  0  2  0  0  0  0  0  0  0  0  0
    0.0204    0.0327    0.2151 C   0  0  0  0  0  0  0  0  0  0  0  0
   -2.3061    0.8551    0.2957 C   0  0  0  0  0  0  0  0  0  0  0  0
   -1.8473   -1.6076    0.1400 C   0  0  0  0  0  0  0  0  0  0  0  0
   -3.3836    0.7393   -0.4955 C   0  0  0  0  0  0  0  0  0  0  0  0
   -2.9156   -1.7600   -0.6532 C   0  0  0  0  0  0  0  0  0  0  0  0
    1.0957    0.1356    1.0193 C   0  0  0  0  0  0  0  0  0  0  0  0
   -3.7392   -0.5959   -1.0515 C   0  0  0  0  0  0  0  0  0  0  0  0
    0.1597    0.2449   -1.2686 C   0  0  0  0  0  0  0  0  0  0  0  0
   -4.2664    1.8934   -0.8538 C   0  0  0  0  0  0  0  0  0  0  0  0
    2.4667    0.4329    0.5923 C   0  0  0  0  0  0  0  0  0  0  0  0
    3.3161   -0.6141    0.2490 C   0  0  0  0  0  0  0  0  0  0  0  0
   -2.6717   -0.6234    2.6053 C   0  0  0  0  0  0  0  0  0  0  0  0
    2.8927    1.7658    0.5389 C   0  0  0  0  0  0  0  0  0  0  0  0
    4.5965   -0.2850   -0.1463 C   0  0  0  0  0  0  0  0  0  0  0  0
    5.0239    1.0219   -0.2019 C   0  0  0  0  0  0  0  0  0  0  0  0
   -5.3945    2.0572    0.1160 C   0  0  0  0  0  0  0  0  0  0  0  0
    4.1945    2.0718    0.1350 C   0  0  0  0  0  0  0  0  0  0  0  0
   -0.5535   -3.3687   -0.5767 C   0  0  0  0  0  0  0  0  0  0  0  0
    6.6550   -0.2619   -0.8124 C   0  0  0  0  0  0  0  0  0  0  0  0
   -6.6869    1.9854   -0.2224 C   0  0  0  0  0  0  0  0  0  0  0  0
   -2.0638    1.8373    0.7006 H   0  0  0  0  0  0  0  0  0  0  0  0
   -3.2402   -2.7301   -1.0121 H   0  0  0  0  0  0  0  0  0  0  0  0
    1.0036   -0.0119    2.0922 H   0  0  0  0  0  0  0  0  0  0  0  0
   -0.3975   -0.4965   -1.8479 H   0  0  0  0  0  0  0  0  0  0  0  0
    1.1905    0.1827   -1.6286 H   0  0  0  0  0  0  0  0  0  0  0  0
   -0.2173    1.2354   -1.5465 H   0  0  0  0  0  0  0  0  0  0  0  0
   -3.6810    2.8224   -0.8483 H   0  0  0  0  0  0  0  0  0  0  0  0
   -4.6315    1.7941   -1.8835 H   0  0  0  0  0  0  0  0  0  0  0  0
    2.9953   -1.6499    0.2871 H   0  0  0  0  0  0  0  0  0  0  0  0
   -2.5748   -0.6987    3.6941 H   0  0  0  0  0  0  0  0  0  0  0  0
   -3.3753    0.1945    2.4257 H   0  0  0  0  0  0  0  0  0  0  0  0
   -3.0890   -1.5793    2.2769 H   0  0  0  0  0  0  0  0  0  0  0  0
    2.2197    2.5761    0.8097 H   0  0  0  0  0  0  0  0  0  0  0  0
   -5.1426    2.2640    1.1535 H   0  0  0  0  0  0  0  0  0  0  0  0
    4.5352    3.1000    0.0902 H   0  0  0  0  0  0  0  0  0  0  0  0
   -0.0337   -2.6941   -1.2640 H   0  0  0  0  0  0  0  0  0  0  0  0
   -1.3159   -3.9451   -1.1109 H   0  0  0  0  0  0  0  0  0  0  0  0
    0.1874   -4.0853   -0.2076 H   0  0  0  0  0  0  0  0  0  0  0  0
    6.9545   -0.4043   -1.8571 H   0  0  0  0  0  0  0  0  0  0  0  0
    7.5039   -0.5120   -0.1657 H   0  0  0  0  0  0  0  0  0  0  0  0
   -7.4592    2.1217    0.5267 H   0  0  0  0  0  0  0  0  0  0  0  0
   -6.9959    1.7895   -1.2432 H   0  0  0  0  0  0  0  0  0  0  0  0
  1  6  1  0  0  0  0
  1 18  1  0  0  0  0
  2  9  1  0  0  0  0
  2 24  1  0  0  0  0
  3 13  2  0  0  0  0
  4 20  1  0  0  0  0
  4 25  1  0  0  0  0
  5 21  1  0  0  0  0
  5 25  1  0  0  0  0
  6  7  1  0  0  0  0
  6  8  1  0  0  0  0
  6  9  1  0  0  0  0
  7 12  2  0  0  0  0
  7 14  1  0  0  0  0
  8 10  2  0  0  0  0
  8 27  1  0  0  0  0
  9 11  2  0  0  0  0
 10 13  1  0  0  0  0
 10 15  1  0  0  0  0
 11 13  1  0  0  0  0
 11 28  1  0  0  0  0
 12 16  1  0  0  0  0
 12 29  1  0  0  0  0
 14 30  1  0  0  0  0
 14 31  1  0  0  0  0
 14 32  1  0  0  0  0
 15 22  1  0  0  0  0
 15 33  1  0  0  0  0
 15 34  1  0  0  0  0
 16 17  2  0  0  0  0
 16 19  1  0  0  0  0
 17 20  1  0  0  0  0
 17 35  1  0  0  0  0
 18 36  1  0  0  0  0
 18 37  1  0  0  0  0
 18 38  1  0  0  0  0
 19 23  2  0  0  0  0
 19 39  1  0  0  0  0
 20 21  2  0  0  0  0
 21 23  1  0  0  0  0
 22 26  2  0  0  0  0
 22 40  1  0  0  0  0
 23 41  1  0  0  0  0
 24 42  1  0  0  0  0
 24 43  1  0  0  0  0
 24 44  1  0  0  0  0
 25 45  1  0  0  0  0
 25 46  1  0  0  0  0
 26 47  1  0  0  0  0
 26 48  1  0  0  0  0
M  END
> <PUBCHEM_COMPOUND_CID>
5281817

> <PUBCHEM_CONFORMER_RMSD>
0.8

> <PUBCHEM_CONFORMER_DIVERSEORDER>
1
17
48
37
33
47
35
45
46
15
51
7
30
21
13
36
23
28
16
5
43
50
9
49
3
52
40
44
32
41
8
25
29
2
24
42
27
22
18
10
34
26
6
39
12
38
19
14
4
20
31
11

> <PUBCHEM_MMFF94_PARTIAL_CHARGES>
35
1 -0.56
10 -0.12
11 -0.14
12 -0.18
13 0.54
14 0.14
15 0.28
16 0.03
17 -0.15
18 0.28
19 -0.15
2 -0.36
20 0.08
21 0.08
22 -0.29
23 -0.15
24 0.28
25 0.56
26 -0.3
27 0.15
28 0.15
29 0.15
3 -0.57
35 0.15
39 0.15
4 -0.36
40 0.15
41 0.15
47 0.15
48 0.15
5 -0.36
6 0.69
7 -0.28
8 -0.29
9 -0.06

> <PUBCHEM_EFFECTIVE_ROTOR_COUNT>
6.8

> <PUBCHEM_PHARMACOPHORE_FEATURES>
10
1 1 acceptor
1 14 hydrophobe
1 2 acceptor
1 26 hydrophobe
1 3 acceptor
1 4 acceptor
1 5 acceptor
5 4 5 20 21 25 rings
6 16 17 19 20 21 23 rings
6 6 8 9 10 11 13 rings

> <PUBCHEM_HEAVY_ATOM_COUNT>
26

> <PUBCHEM_ATOM_DEF_STEREO_COUNT>
0

> <PUBCHEM_ATOM_UDEF_STEREO_COUNT>
1

> <PUBCHEM_BOND_DEF_STEREO_COUNT>
1

> <PUBCHEM_BOND_UDEF_STEREO_COUNT>
0

> <PUBCHEM_ISOTOPIC_ATOM_COUNT>
0

> <PUBCHEM_COMPONENT_COUNT>
1

> <PUBCHEM_CACTVS_TAUTO_COUNT>
1

> <PUBCHEM_CONFORMER_ID>
0050981900000001

> <PUBCHEM_MMFF94_ENERGY>
75.2726

> <PUBCHEM_FEATURE_SELFOVERLAP>
50.903

> <PUBCHEM_SHAPE_FINGERPRINT>
10 15 13830125092428148676
10165383 225 18260830449711404177
107951 10 17918269870097643579
10835480 77 18114468868874771096
11135609 201 12031200881757037054
11315181 36 18059577936747877188
12403259 415 18186807932918585505
12596602 18 12463575105499920212
12788726 201 17969503886484099104
13583140 156 17824826629418930488
14713325 29 18342175532348361587
15183329 4 18260551159828451388
15188451 53 6194557771612047100
15788980 27 18342452613504339384
15849732 13 17917425449989758933
167882 2 18267306619378450386
17349148 13 14996276982024080844
18222031 100 14490474179995597568
19377110 9 10591753286401413344
200 152 16950283979319800830
21033648 29 18340773650063290040
21756936 100 17703792526745636633
22224240 67 16917063400409513441
22393880 68 18335708204621129266
23402539 116 18261116274735546861
23559900 14 18041570160967313072
23622692 88 15985096414829457397
249057 3 18410291428513226500
3004659 81 18411419549334924814
3009799 131 16153718642787616368
404807 14 17178543963315137398
4073 2 18272368617058020194
4098825 35 18259985968334339061
5283173 99 18335424564516879132
559249 180 18334296478993870398
633830 44 17417812778218992336

> <PUBCHEM_SHAPE_MULTIPOLES>
505.72
14.74
2.54
1.43
10.49
1.21
-0.69
-7.92
4.64
-1.91
0.3
-1.33
0.32
0.32

> <PUBCHEM_SHAPE_SELFOVERLAP>
1092.291

> <PUBCHEM_SHAPE_VOLUME>
277.4

> <PUBCHEM_COORDINATE_TYPE>
2
5
10

$$$$

