586261
  -OEChem-06241222463D

 38 37  0     1  0  0  0  0  0999 V2000
   -0.3761    1.2721    0.0425 P   0  0  2  0  0  0  0  0  0  0  0  0
    0.7413    0.1386   -0.2153 O   0  0  0  0  0  0  0  0  0  0  0  0
   -1.7488    0.4883   -0.3061 O   0  0  0  0  0  0  0  0  0  0  0  0
   -0.1875    2.5384   -0.7427 O   0  0  0  0  0  0  0  0  0  0  0  0
   -4.3782   -0.3407    0.1574 O   0  0  0  0  0  0  0  0  0  0  0  0
    2.9651   -0.8806    0.0320 C   0  0  0  0  0  0  0  0  0  0  0  0
    2.0863    0.3958    0.1957 C   0  0  1  0  0  0  0  0  0  0  0  0
    2.3516   -2.0611    0.8080 C   0  0  0  0  0  0  0  0  0  0  0  0
    3.0248   -1.2649   -1.4621 C   0  0  0  0  0  0  0  0  0  0  0  0
    4.4084   -0.6632    0.5240 C   0  0  0  0  0  0  0  0  0  0  0  0
    2.5773    1.6350   -0.5493 C   0  0  0  0  0  0  0  0  0  0  0  0
   -0.4030    1.5185    1.8078 C   0  0  0  0  0  0  0  0  0  0  0  0
   -2.0271   -0.7794    0.2614 C   0  0  0  0  0  0  0  0  0  0  0  0
   -3.3726   -1.2632   -0.2440 C   0  0  0  0  0  0  0  0  0  0  0  0
   -5.6614   -0.7337   -0.3092 C   0  0  0  0  0  0  0  0  0  0  0  0
    2.0731    0.6311    1.2665 H   0  0  0  0  0  0  0  0  0  0  0  0
    2.2721   -1.8268    1.8754 H   0  0  0  0  0  0  0  0  0  0  0  0
    2.9646   -2.9642    0.7099 H   0  0  0  0  0  0  0  0  0  0  0  0
    1.3480   -2.3065    0.4439 H   0  0  0  0  0  0  0  0  0  0  0  0
    2.0248   -1.4408   -1.8736 H   0  0  0  0  0  0  0  0  0  0  0  0
    3.6028   -2.1856   -1.6056 H   0  0  0  0  0  0  0  0  0  0  0  0
    3.5048   -0.4858   -2.0637 H   0  0  0  0  0  0  0  0  0  0  0  0
    4.9804   -1.5978    0.4925 H   0  0  0  0  0  0  0  0  0  0  0  0
    4.9513    0.0618   -0.0898 H   0  0  0  0  0  0  0  0  0  0  0  0
    4.4172   -0.3047    1.5592 H   0  0  0  0  0  0  0  0  0  0  0  0
    2.3086    1.6031   -1.6103 H   0  0  0  0  0  0  0  0  0  0  0  0
    2.1410    2.5439   -0.1245 H   0  0  0  0  0  0  0  0  0  0  0  0
    3.6589    1.7663   -0.4678 H   0  0  0  0  0  0  0  0  0  0  0  0
   -0.4011    0.5695    2.3502 H   0  0  0  0  0  0  0  0  0  0  0  0
    0.4687    2.0942    2.1316 H   0  0  0  0  0  0  0  0  0  0  0  0
   -1.2973    2.0785    2.0955 H   0  0  0  0  0  0  0  0  0  0  0  0
   -1.2436   -1.4899   -0.0170 H   0  0  0  0  0  0  0  0  0  0  0  0
   -2.0569   -0.6809    1.3501 H   0  0  0  0  0  0  0  0  0  0  0  0
   -3.5922   -2.2545    0.1673 H   0  0  0  0  0  0  0  0  0  0  0  0
   -3.3582   -1.3188   -1.3387 H   0  0  0  0  0  0  0  0  0  0  0  0
   -6.3923    0.0051    0.0304 H   0  0  0  0  0  0  0  0  0  0  0  0
   -5.9362   -1.7104    0.1005 H   0  0  0  0  0  0  0  0  0  0  0  0
   -5.6793   -0.7647   -1.4029 H   0  0  0  0  0  0  0  0  0  0  0  0
  1  2  1  0  0  0  0
  1  3  1  0  0  0  0
  1  4  2  0  0  0  0
  1 12  1  0  0  0  0
  2  7  1  0  0  0  0
  3 13  1  0  0  0  0
  5 14  1  0  0  0  0
  5 15  1  0  0  0  0
  6  7  1  0  0  0  0
  6  8  1  0  0  0  0
  6  9  1  0  0  0  0
  6 10  1  0  0  0  0
  7 11  1  0  0  0  0
  7 16  1  0  0  0  0
  8 17  1  0  0  0  0
  8 18  1  0  0  0  0
  8 19  1  0  0  0  0
  9 20  1  0  0  0  0
  9 21  1  0  0  0  0
  9 22  1  0  0  0  0
 10 23  1  0  0  0  0
 10 24  1  0  0  0  0
 10 25  1  0  0  0  0
 11 26  1  0  0  0  0
 11 27  1  0  0  0  0
 11 28  1  0  0  0  0
 12 29  1  0  0  0  0
 12 30  1  0  0  0  0
 12 31  1  0  0  0  0
 13 14  1  0  0  0  0
 13 32  1  0  0  0  0
 13 33  1  0  0  0  0
 14 34  1  0  0  0  0
 14 35  1  0  0  0  0
 15 36  1  0  0  0  0
 15 37  1  0  0  0  0
 15 38  1  0  0  0  0
M  END
> <PUBCHEM_COMPOUND_CID>
586261

> <PUBCHEM_CONFORMER_RMSD>
0.8

> <PUBCHEM_CONFORMER_DIVERSEORDER>
2
17
40
36
21
38
5
8
33
28
26
6
37
42
43
12
51
46
32
25
44
18
14
15
27
30
20
29
23
47
45
39
31
22
35
48
13
50
11
19
16
7
49
4
41
9
34
1
24
10
3

> <PUBCHEM_MMFF94_PARTIAL_CHARGES>
9
1 1.24
13 0.28
14 0.28
15 0.28
2 -0.55
3 -0.55
4 -0.7
5 -0.56
7 0.28

> <PUBCHEM_EFFECTIVE_ROTOR_COUNT>
7

> <PUBCHEM_PHARMACOPHORE_FEATURES>
3
1 4 acceptor
1 5 acceptor
4 6 8 9 10 hydrophobe

> <PUBCHEM_HEAVY_ATOM_COUNT>
15

> <PUBCHEM_ATOM_DEF_STEREO_COUNT>
0

> <PUBCHEM_ATOM_UDEF_STEREO_COUNT>
2

> <PUBCHEM_BOND_DEF_STEREO_COUNT>
0

> <PUBCHEM_BOND_UDEF_STEREO_COUNT>
0

> <PUBCHEM_ISOTOPIC_ATOM_COUNT>
0

> <PUBCHEM_COMPONENT_COUNT>
1

> <PUBCHEM_CACTVS_TAUTO_COUNT>
1

> <PUBCHEM_CONFORMER_ID>
0008F21500000002

> <PUBCHEM_MMFF94_ENERGY>
31.7542

> <PUBCHEM_FEATURE_SELFOVERLAP>
15.223

> <PUBCHEM_SHAPE_FINGERPRINT>
10618630 7 18259982703769057222
10922049 32 10303814302153034881
12815109 37 18411985753829045154
12841375 25 18342179959710252077
14178342 30 18046067326881178778
14251717 144 18410575059088843723
14252887 29 18040992951543217966
15848700 24 18334013899820012367
15885798 251 18409165528389969329
17834072 8 18341900714554512031
1798214 20 18413110571678552675
18186145 218 15626225693405290733
200 152 18408606971818748898
20645477 70 18409446955985032919
20671657 53 18272089417664987548
20871998 22 18261951946522076310
20871999 31 17988928915762842749
21069387 34 16128097879294110890
21250096 35 18186522098871997787
21501925 9 18408888438442869216
22218785 32 12535628292784812000
22485316 2 18337112267984534159
23253445 4 17168436981843574242
23557571 272 18261393399057761312
23598291 2 18265310941328129716
2871803 45 18343582971102321738
3060560 45 13254801248011603194
31174 14 16805614672049194426
314173 41 18340762659310336487
4047638 21 11959730460486161022
83771 10 18410295808931241409
94968 8 18411696586761092670

> <PUBCHEM_SHAPE_MULTIPOLES>
289.07
8.99
2.15
1.12
10.66
0.69
-0.18
-5.07
0.76
-0.78
0.02
-0.55
0.17
-0.34

> <PUBCHEM_SHAPE_SELFOVERLAP>
524.048

> <PUBCHEM_SHAPE_VOLUME>
188.7

> <PUBCHEM_COORDINATE_TYPE>
2
5
10

$$$$

