72819
  -OEChem-07051213003D

 33 35  0     0  0  0  0  0  0999 V2000
    1.5681    1.1298    0.0010 O   0  0  0  0  0  0  0  0  0  0  0  0
   -0.2767   -3.2566    0.0009 O   0  0  0  0  0  0  0  0  0  0  0  0
   -1.7443   -1.4581    0.0000 N   0  0  0  0  0  0  0  0  0  0  0  0
    2.9345    0.6648   -0.0004 C   0  0  0  0  0  0  0  0  0  0  0  0
    0.5324    0.2198    0.0010 C   0  0  0  0  0  0  0  0  0  0  0  0
    0.7026   -1.1117    0.0003 C   0  0  0  0  0  0  0  0  0  0  0  0
   -0.8147    0.8060    0.0011 C   0  0  0  0  0  0  0  0  0  0  0  0
    3.0938   -0.8357   -0.0013 C   0  0  0  0  0  0  0  0  0  0  0  0
   -1.9360   -0.0397   -0.0001 C   0  0  0  0  0  0  0  0  0  0  0  0
    2.0393   -1.6561   -0.0008 C   0  0  0  0  0  0  0  0  0  0  0  0
    3.5933    1.2509   -1.2534 C   0  0  0  0  0  0  0  0  0  0  0  0
    3.5954    1.2498    1.2523 C   0  0  0  0  0  0  0  0  0  0  0  0
   -0.4731   -2.0394    0.0003 C   0  0  0  0  0  0  0  0  0  0  0  0
   -1.0021    2.2008    0.0015 C   0  0  0  0  0  0  0  0  0  0  0  0
   -3.2211    0.5335   -0.0014 C   0  0  0  0  0  0  0  0  0  0  0  0
   -2.9186   -2.3289   -0.0004 C   0  0  0  0  0  0  0  0  0  0  0  0
   -2.2819    2.7524    0.0005 C   0  0  0  0  0  0  0  0  0  0  0  0
   -3.3910    1.9185   -0.0012 C   0  0  0  0  0  0  0  0  0  0  0  0
    4.0963   -1.2550   -0.0022 H   0  0  0  0  0  0  0  0  0  0  0  0
    2.1882   -2.7299   -0.0014 H   0  0  0  0  0  0  0  0  0  0  0  0
    3.1042    0.8793   -2.1620 H   0  0  0  0  0  0  0  0  0  0  0  0
    3.4911    2.3423   -1.2741 H   0  0  0  0  0  0  0  0  0  0  0  0
    4.6590    1.0035   -1.3110 H   0  0  0  0  0  0  0  0  0  0  0  0
    4.6612    1.0023    1.3079 H   0  0  0  0  0  0  0  0  0  0  0  0
    3.4932    2.3411    1.2741 H   0  0  0  0  0  0  0  0  0  0  0  0
    3.1077    0.8772    2.1612 H   0  0  0  0  0  0  0  0  0  0  0  0
   -0.1551    2.8832    0.0024 H   0  0  0  0  0  0  0  0  0  0  0  0
   -4.1201   -0.0763   -0.0025 H   0  0  0  0  0  0  0  0  0  0  0  0
   -3.5121   -2.1417    0.8999 H   0  0  0  0  0  0  0  0  0  0  0  0
   -2.6346   -3.3851    0.0002 H   0  0  0  0  0  0  0  0  0  0  0  0
   -3.5111   -2.1424   -0.9015 H   0  0  0  0  0  0  0  0  0  0  0  0
   -2.4098    3.8308    0.0007 H   0  0  0  0  0  0  0  0  0  0  0  0
   -4.3909    2.3425   -0.0021 H   0  0  0  0  0  0  0  0  0  0  0  0
  1  4  1  0  0  0  0
  1  5  1  0  0  0  0
  2 13  2  0  0  0  0
  3  9  1  0  0  0  0
  3 13  1  0  0  0  0
  3 16  1  0  0  0  0
  4  8  1  0  0  0  0
  4 11  1  0  0  0  0
  4 12  1  0  0  0  0
  5  6  2  0  0  0  0
  5  7  1  0  0  0  0
  6 10  1  0  0  0  0
  6 13  1  0  0  0  0
  7  9  1  0  0  0  0
  7 14  2  0  0  0  0
  8 10  2  0  0  0  0
  8 19  1  0  0  0  0
  9 15  2  0  0  0  0
 10 20  1  0  0  0  0
 11 21  1  0  0  0  0
 11 22  1  0  0  0  0
 11 23  1  0  0  0  0
 12 24  1  0  0  0  0
 12 25  1  0  0  0  0
 12 26  1  0  0  0  0
 14 17  1  0  0  0  0
 14 27  1  0  0  0  0
 15 18  1  0  0  0  0
 15 28  1  0  0  0  0
 16 29  1  0  0  0  0
 16 30  1  0  0  0  0
 16 31  1  0  0  0  0
 17 18  2  0  0  0  0
 17 32  1  0  0  0  0
 18 33  1  0  0  0  0
M  END
> <PUBCHEM_COMPOUND_CID>
72819

> <PUBCHEM_CONFORMER_RMSD>
0.6

> <PUBCHEM_CONFORMER_DIVERSEORDER>
1

> <PUBCHEM_MMFF94_PARTIAL_CHARGES>
22
1 -0.36
10 -0.15
13 0.62
14 -0.15
15 -0.15
16 0.3
17 -0.15
18 -0.15
19 0.15
2 -0.57
20 0.15
27 0.15
28 0.15
3 -0.48
32 0.15
33 0.15
4 0.42
5 0.05
6 0.01
7 0.03
8 -0.29
9 0.12

> <PUBCHEM_EFFECTIVE_ROTOR_COUNT>
0.4

> <PUBCHEM_PHARMACOPHORE_FEATURES>
6
1 1 acceptor
1 2 acceptor
3 4 11 12 hydrophobe
6 1 4 5 6 8 10 rings
6 3 5 6 7 9 13 rings
6 7 9 14 15 17 18 rings

> <PUBCHEM_HEAVY_ATOM_COUNT>
18

> <PUBCHEM_ATOM_DEF_STEREO_COUNT>
0

> <PUBCHEM_ATOM_UDEF_STEREO_COUNT>
0

> <PUBCHEM_BOND_DEF_STEREO_COUNT>
0

> <PUBCHEM_BOND_UDEF_STEREO_COUNT>
0

> <PUBCHEM_ISOTOPIC_ATOM_COUNT>
0

> <PUBCHEM_COMPONENT_COUNT>
1

> <PUBCHEM_CACTVS_TAUTO_COUNT>
1

> <PUBCHEM_CONFORMER_ID>
00011C7300000001

> <PUBCHEM_MMFF94_ENERGY>
56.9031

> <PUBCHEM_FEATURE_SELFOVERLAP>
30.493

> <PUBCHEM_SHAPE_FINGERPRINT>
10319926 262 18190766162927821640
10411042 1 17402048895128169994
10498660 4 18340201895426788228
10608611 8 18335424573259599760
10616163 171 18411132524284437286
10967382 1 18266741479143928865
11132069 177 18411423903350347896
12173636 292 18410015454920091221
12553582 1 17978505339146528191
13027679 85 17978789000472069565
13140716 1 18339082699768598995
13380535 21 18337099150695385260
13380535 76 18266463281285319831
138480 1 16969422401141657991
13897977 150 18123190375093463485
14178342 30 18340781368351291464
14420673 8 18122924263911636482
14790565 3 17979896251884795921
15196674 1 18410574010937079175
15309172 13 18338226171800020297
15442244 35 18268715081225930522
16752209 62 18339364063171066158
16945 1 18266741268658921830
18186145 218 18113895009107980872
193761 8 18266459982761388743
19591789 44 18266171915083478419
20510252 161 18262235517131539217
21029758 11 18048042878677690431
21501502 16 18412546517870875082
21524375 3 18264490757282697431
2334 1 18410573980882922567
23402539 116 18117853100681152975
23463225 33 18198624530479701616
23557571 272 18189602874386109166
23558518 356 18343302574025499426
23559900 14 18188771773236060310
238 59 17265287687215476293
2748010 2 18410285917563776847
3091708 16 9270371198619314299
335352 9 18050568748401090903
350125 39 18339355374557526498
352729 6 18337954609634117875
43471831 8 18341335582193695443
458136 41 18121195826429891057
5104073 3 18410293648367487648
69090 78 18337958999254159689
7097593 13 17986131801231869138
7364860 26 17831583441334338999
81228 2 18268149751512039049
84936 182 17899706948366616313
9709674 26 18334013929768842846

> <PUBCHEM_SHAPE_MULTIPOLES>
353.71
6.09
3.22
0.78
1.92
1.14
0
-2.52
0
-1.94
0
0.65
-0.25
0

> <PUBCHEM_SHAPE_SELFOVERLAP>
776.786

> <PUBCHEM_SHAPE_VOLUME>
191.4

> <PUBCHEM_COORDINATE_TYPE>
2
5
10

$$$$

