656705
  -OEChem-07051213042D

 35 36  0     0  0  0  0  0  0999 V2000
    2.5369   -0.2342    0.0000 O   0  0  0  0  0  0  0  0  0  0  0  0
    7.6811    1.6778    0.0000 N   0  3  0  0  0  0  0  0  0  0  0  0
    6.0812   -2.0390    0.0000 N   0  0  0  0  0  0  0  0  0  0  0  0
    7.3704    0.7272    0.0000 C   0  0  0  0  0  0  0  0  0  0  0  0
    6.3919    0.5210    0.0000 C   0  0  0  0  0  0  0  0  0  0  0  0
    7.9917    2.6283    0.0000 C   0  0  0  0  0  0  0  0  0  0  0  0
    8.6316    1.3671    0.0000 C   0  0  0  0  0  0  0  0  0  0  0  0
    6.7305    1.9884    0.0000 C   0  0  0  0  0  0  0  0  0  0  0  0
    6.0812   -0.4295    0.0000 C   0  0  0  0  0  0  0  0  0  0  0  0
    5.1350   -0.7342    0.0000 C   0  0  0  0  0  0  0  0  0  0  0  0
    5.1350   -1.7342    0.0000 C   0  0  0  0  0  0  0  0  0  0  0  0
    6.6648   -1.2342    0.0000 C   0  0  0  0  0  0  0  0  0  0  0  0
    4.2690   -0.2342    0.0000 C   0  0  0  0  0  0  0  0  0  0  0  0
    4.2690   -2.2342    0.0000 C   0  0  0  0  0  0  0  0  0  0  0  0
    3.4030   -0.7342    0.0000 C   0  0  0  0  0  0  0  0  0  0  0  0
    3.4030   -1.7342    0.0000 C   0  0  0  0  0  0  0  0  0  0  0  0
    7.3910    0.1076    0.0000 H   0  0  0  0  0  0  0  0  0  0  0  0
    7.9842    0.6399    0.0000 H   0  0  0  0  0  0  0  0  0  0  0  0
    6.3713    1.1407    0.0000 H   0  0  0  0  0  0  0  0  0  0  0  0
    5.7781    0.6084    0.0000 H   0  0  0  0  0  0  0  0  0  0  0  0
    6.9232    2.5778    0.0000 H   0  0  0  0  0  0  0  0  0  0  0  0
    8.5810    2.4357    0.0000 H   0  0  0  0  0  0  0  0  0  0  0  0
    8.1843    3.2176    0.0000 H   0  0  0  0  0  0  0  0  0  0  0  0
    7.4024    2.8209    0.0000 H   0  0  0  0  0  0  0  0  0  0  0  0
    8.4390    0.7778    0.0000 H   0  0  0  0  0  0  0  0  0  0  0  0
    9.2209    1.1745    0.0000 H   0  0  0  0  0  0  0  0  0  0  0  0
    8.8242    1.9564    0.0000 H   0  0  0  0  0  0  0  0  0  0  0  0
    6.1412    2.1810    0.0000 H   0  0  0  0  0  0  0  0  0  0  0  0
    6.5379    1.3991    0.0000 H   0  0  0  0  0  0  0  0  0  0  0  0
    7.2848   -1.2342    0.0000 H   0  0  0  0  0  0  0  0  0  0  0  0
    6.2738   -2.6283    0.0000 H   0  0  0  0  0  0  0  0  0  0  0  0
    4.2690    0.3858    0.0000 H   0  0  0  0  0  0  0  0  0  0  0  0
    4.2690   -2.8542    0.0000 H   0  0  0  0  0  0  0  0  0  0  0  0
    2.8660   -2.0442    0.0000 H   0  0  0  0  0  0  0  0  0  0  0  0
    2.0000   -0.5442    0.0000 H   0  0  0  0  0  0  0  0  0  0  0  0
  1 15  1  0  0  0  0
  1 35  1  0  0  0  0
  2  4  1  0  0  0  0
  2  6  1  0  0  0  0
  2  7  1  0  0  0  0
  2  8  1  0  0  0  0
  3 11  1  0  0  0  0
  3 12  1  0  0  0  0
  3 31  1  0  0  0  0
  4  5  1  0  0  0  0
  4 17  1  0  0  0  0
  4 18  1  0  0  0  0
  5  9  1  0  0  0  0
  5 19  1  0  0  0  0
  5 20  1  0  0  0  0
  6 22  1  0  0  0  0
  6 23  1  0  0  0  0
  6 24  1  0  0  0  0
  7 25  1  0  0  0  0
  7 26  1  0  0  0  0
  7 27  1  0  0  0  0
  8 21  1  0  0  0  0
  8 28  1  0  0  0  0
  8 29  1  0  0  0  0
  9 10  1  0  0  0  0
  9 12  2  0  0  0  0
 10 11  2  0  0  0  0
 10 13  1  0  0  0  0
 11 14  1  0  0  0  0
 12 30  1  0  0  0  0
 13 15  2  0  0  0  0
 13 32  1  0  0  0  0
 14 16  2  0  0  0  0
 14 33  1  0  0  0  0
 15 16  1  0  0  0  0
 16 34  1  0  0  0  0
M  CHG  1   2   1
M  END
> <PUBCHEM_COMPOUND_CID>
656705

> <PUBCHEM_COMPOUND_CANONICALIZED>
1

> <PUBCHEM_CACTVS_COMPLEXITY>
237

> <PUBCHEM_CACTVS_HBOND_ACCEPTOR>
1

> <PUBCHEM_CACTVS_HBOND_DONOR>
2

> <PUBCHEM_CACTVS_ROTATABLE_BOND>
3

> <PUBCHEM_CACTVS_SUBSKEYS>
AAADceBzIAAAAAAAAAAAAAAAAAAAAWAAAAAwAAAAAAAAAFgB8AAAHgAQCAAADAzBngQ+xvPJkgCgAzRnRACCgCAxIiAI2aA+bJgIJuLCkZOEcAhk0BHI2Aew0PIOgEABAAACAAAAgAIAAAQAAAAAAAAAAA==

> <PUBCHEM_IUPAC_OPENEYE_NAME>
2-(5-hydroxy-1H-indol-3-yl)ethyl-trimethyl-ammonium

> <PUBCHEM_IUPAC_CAS_NAME>
2-(5-hydroxy-1H-indol-3-yl)ethyl-trimethylammonium

> <PUBCHEM_IUPAC_NAME>
2-(5-hydroxy-1H-indol-3-yl)ethyl-trimethylazanium

> <PUBCHEM_IUPAC_SYSTEMATIC_NAME>
trimethyl-[2-(5-oxidanyl-1H-indol-3-yl)ethyl]azanium

> <PUBCHEM_IUPAC_TRADITIONAL_NAME>
2-(5-hydroxy-1H-indol-3-yl)ethyl-trimethyl-ammonium

> <PUBCHEM_IUPAC_INCHI>
InChI=1S/C13H18N2O/c1-15(2,3)7-6-10-9-14-13-5-4-11(16)8-12(10)13/h4-5,8-9,14H,6-7H2,1-3H3/p+1

> <PUBCHEM_IUPAC_INCHIKEY>
HIYGARYIJIZXGW-UHFFFAOYSA-O

> <PUBCHEM_XLOGP3>
1.2

> <PUBCHEM_EXACT_MASS>
219.149738

> <PUBCHEM_MOLECULAR_FORMULA>
C13H19N2O+

> <PUBCHEM_MOLECULAR_WEIGHT>
219.30276

> <PUBCHEM_OPENEYE_CAN_SMILES>
C[N+](C)(C)CCC1=CNC2=C1C=C(C=C2)O

> <PUBCHEM_OPENEYE_ISO_SMILES>
C[N+](C)(C)CCC1=CNC2=C1C=C(C=C2)O

> <PUBCHEM_CACTVS_TPSA>
36

> <PUBCHEM_MONOISOTOPIC_WEIGHT>
219.149738

> <PUBCHEM_TOTAL_CHARGE>
1

> <PUBCHEM_HEAVY_ATOM_COUNT>
16

> <PUBCHEM_ATOM_DEF_STEREO_COUNT>
0

> <PUBCHEM_ATOM_UDEF_STEREO_COUNT>
0

> <PUBCHEM_BOND_DEF_STEREO_COUNT>
0

> <PUBCHEM_BOND_UDEF_STEREO_COUNT>
0

> <PUBCHEM_ISOTOPIC_ATOM_COUNT>
0

> <PUBCHEM_COMPONENT_COUNT>
1

> <PUBCHEM_CACTVS_TAUTO_COUNT>
9

> <PUBCHEM_COORDINATE_TYPE>
1
5
255

> <PUBCHEM_BONDANNOTATIONS>
10  11  8
10  13  8
11  14  8
13  15  8
14  16  8
15  16  8
3  11  8
3  12  8
9  10  8
9  12  8

$$$$

