11954211
  -OEChem-07051213072D

 70 74  0     1  0  0  0  0  0999 V2000
    6.0010   -0.1900    0.0000 O   0  0  0  0  0  0  0  0  0  0  0  0
    8.5991   -0.6900    0.0000 O   0  0  0  0  0  0  0  0  0  0  0  0
    5.1350   -1.6900    0.0000 O   0  0  0  0  0  0  0  0  0  0  0  0
    6.0010   -2.1900    0.0000 O   0  0  0  0  0  0  0  0  0  0  0  0
    7.7331    0.8100    0.0000 O   0  0  0  0  0  0  0  0  0  0  0  0
    7.7331   -3.1900    0.0000 O   0  0  0  0  0  0  0  0  0  0  0  0
    4.2690    0.8100    0.0000 O   0  0  0  0  0  0  0  0  0  0  0  0
    2.5369   -0.1900    0.0000 O   0  0  0  0  0  0  0  0  0  0  0  0
    2.5369   -2.1900    0.0000 O   0  0  0  0  0  0  0  0  0  0  0  0
    9.4651   -3.1900    0.0000 O   0  0  0  0  0  0  0  0  0  0  0  0
    3.4030   -3.6900    0.0000 O   0  0  0  0  0  0  0  0  0  0  0  0
    9.4651    2.8100    0.0000 O   0  0  0  0  0  0  0  0  0  0  0  0
    9.4651   -0.1900    0.0000 O   0  0  0  0  0  0  0  0  0  0  0  0
    6.8671   -0.6900    0.0000 C   0  0  2  0  0  0  0  0  0  0  0  0
    6.8671   -1.6900    0.0000 C   0  0  2  0  0  0  0  0  0  0  0  0
    7.7331   -2.1900    0.0000 C   0  0  1  0  0  0  0  0  0  0  0  0
    5.1350   -0.6900    0.0000 C   0  0  2  0  0  0  0  0  0  0  0  0
    4.2690   -0.1900    0.0000 C   0  0  1  0  0  0  0  0  0  0  0  0
    7.7331   -0.1900    0.0000 C   0  0  1  0  0  0  0  0  0  0  0  0
    8.5991   -1.6900    0.0000 C   0  0  1  0  0  0  0  0  0  0  0  0
    3.4030   -0.6900    0.0000 C   0  0  2  0  0  0  0  0  0  0  0  0
    3.4030   -1.6900    0.0000 C   0  0  1  0  0  0  0  0  0  0  0  0
    4.2690   -2.1900    0.0000 C   0  0  1  0  0  0  0  0  0  0  0  0
    9.4651   -2.1900    0.0000 C   0  0  0  0  0  0  0  0  0  0  0  0
    4.2690   -3.1900    0.0000 C   0  0  0  0  0  0  0  0  0  0  0  0
    8.5991    1.3100    0.0000 C   0  0  0  0  0  0  0  0  0  0  0  0
    8.5991    2.3100    0.0000 C   0  0  0  0  0  0  0  0  0  0  0  0
    9.4651    0.8100    0.0000 C   0  0  0  0  0  0  0  0  0  0  0  0
   10.3312    1.3100    0.0000 C   0  0  0  0  0  0  0  0  0  0  0  0
    7.7331    2.8100    0.0000 C   0  0  0  0  0  0  0  0  0  0  0  0
   10.3312    2.3100    0.0000 C   0  0  0  0  0  0  0  0  0  0  0  0
   11.2251    0.7753    0.0000 C   0  0  0  0  0  0  0  0  0  0  0  0
   11.2251    2.8447    0.0000 C   0  0  0  0  0  0  0  0  0  0  0  0
    7.7331    3.8100    0.0000 C   0  0  0  0  0  0  0  0  0  0  0  0
    6.8671    2.3100    0.0000 C   0  0  0  0  0  0  0  0  0  0  0  0
   12.1312    1.2892    0.0000 C   0  0  0  0  0  0  0  0  0  0  0  0
   12.1312    2.3308    0.0000 C   0  0  0  0  0  0  0  0  0  0  0  0
    6.8671    4.3100    0.0000 C   0  0  0  0  0  0  0  0  0  0  0  0
    6.0010    2.8100    0.0000 C   0  0  0  0  0  0  0  0  0  0  0  0
    6.0010    3.8100    0.0000 C   0  0  0  0  0  0  0  0  0  0  0  0
    6.3301   -1.0000    0.0000 H   0  0  0  0  0  0  0  0  0  0  0  0
    6.3301   -1.3800    0.0000 H   0  0  0  0  0  0  0  0  0  0  0  0
    8.2700   -2.5000    0.0000 H   0  0  0  0  0  0  0  0  0  0  0  0
    5.1350   -0.0700    0.0000 H   0  0  0  0  0  0  0  0  0  0  0  0
    4.8059    0.1200    0.0000 H   0  0  0  0  0  0  0  0  0  0  0  0
    7.1962    0.1200    0.0000 H   0  0  0  0  0  0  0  0  0  0  0  0
    9.1360   -1.3800    0.0000 H   0  0  0  0  0  0  0  0  0  0  0  0
    3.4030   -0.0700    0.0000 H   0  0  0  0  0  0  0  0  0  0  0  0
    3.4030   -2.3100    0.0000 H   0  0  0  0  0  0  0  0  0  0  0  0
    4.8059   -2.5000    0.0000 H   0  0  0  0  0  0  0  0  0  0  0  0
   10.0757   -2.2977    0.0000 H   0  0  0  0  0  0  0  0  0  0  0  0
    9.6772   -1.6074    0.0000 H   0  0  0  0  0  0  0  0  0  0  0  0
    4.4810   -3.7726    0.0000 H   0  0  0  0  0  0  0  0  0  0  0  0
    4.8796   -3.0823    0.0000 H   0  0  0  0  0  0  0  0  0  0  0  0
    6.0010   -2.8100    0.0000 H   0  0  0  0  0  0  0  0  0  0  0  0
    7.1962   -3.5000    0.0000 H   0  0  0  0  0  0  0  0  0  0  0  0
    3.7320    1.1200    0.0000 H   0  0  0  0  0  0  0  0  0  0  0  0
    2.0000   -0.5000    0.0000 H   0  0  0  0  0  0  0  0  0  0  0  0
    2.0000   -1.8800    0.0000 H   0  0  0  0  0  0  0  0  0  0  0  0
   10.0021   -3.5000    0.0000 H   0  0  0  0  0  0  0  0  0  0  0  0
    3.4030   -4.3100    0.0000 H   0  0  0  0  0  0  0  0  0  0  0  0
   11.2179    0.1554    0.0000 H   0  0  0  0  0  0  0  0  0  0  0  0
   11.2179    3.4646    0.0000 H   0  0  0  0  0  0  0  0  0  0  0  0
    8.2700    4.1200    0.0000 H   0  0  0  0  0  0  0  0  0  0  0  0
    6.8671    1.6900    0.0000 H   0  0  0  0  0  0  0  0  0  0  0  0
   12.6669    0.9771    0.0000 H   0  0  0  0  0  0  0  0  0  0  0  0
   12.6669    2.6429    0.0000 H   0  0  0  0  0  0  0  0  0  0  0  0
    6.8671    4.9300    0.0000 H   0  0  0  0  0  0  0  0  0  0  0  0
    5.4641    2.5000    0.0000 H   0  0  0  0  0  0  0  0  0  0  0  0
    5.4641    4.1200    0.0000 H   0  0  0  0  0  0  0  0  0  0  0  0
 14  1  1  1  0  0  0
 17  1  1  6  0  0  0
  2 19  1  0  0  0  0
  2 20  1  0  0  0  0
  3 17  1  0  0  0  0
  3 23  1  0  0  0  0
 15  4  1  6  0  0  0
  4 55  1  0  0  0  0
 19  5  1  6  0  0  0
  5 26  1  0  0  0  0
 16  6  1  1  0  0  0
  6 56  1  0  0  0  0
 18  7  1  1  0  0  0
  7 57  1  0  0  0  0
 21  8  1  6  0  0  0
  8 58  1  0  0  0  0
 22  9  1  1  0  0  0
  9 59  1  0  0  0  0
 10 24  1  0  0  0  0
 10 60  1  0  0  0  0
 11 25  1  0  0  0  0
 11 61  1  0  0  0  0
 12 27  1  0  0  0  0
 12 31  1  0  0  0  0
 13 28  2  0  0  0  0
 14 15  1  0  0  0  0
 14 19  1  0  0  0  0
 14 41  1  0  0  0  0
 15 16  1  0  0  0  0
 15 42  1  0  0  0  0
 16 20  1  0  0  0  0
 16 43  1  0  0  0  0
 17 18  1  0  0  0  0
 17 44  1  0  0  0  0
 18 21  1  0  0  0  0
 18 45  1  0  0  0  0
 19 46  1  0  0  0  0
 20 24  1  6  0  0  0
 20 47  1  0  0  0  0
 21 22  1  0  0  0  0
 21 48  1  0  0  0  0
 22 23  1  0  0  0  0
 22 49  1  0  0  0  0
 23 25  1  6  0  0  0
 23 50  1  0  0  0  0
 24 51  1  0  0  0  0
 24 52  1  0  0  0  0
 25 53  1  0  0  0  0
 25 54  1  0  0  0  0
 26 27  2  0  0  0  0
 26 28  1  0  0  0  0
 27 30  1  0  0  0  0
 28 29  1  0  0  0  0
 29 31  1  0  0  0  0
 29 32  2  0  0  0  0
 30 34  2  0  0  0  0
 30 35  1  0  0  0  0
 31 33  2  0  0  0  0
 32 36  1  0  0  0  0
 32 62  1  0  0  0  0
 33 37  1  0  0  0  0
 33 63  1  0  0  0  0
 34 38  1  0  0  0  0
 34 64  1  0  0  0  0
 35 39  2  0  0  0  0
 35 65  1  0  0  0  0
 36 37  2  0  0  0  0
 36 66  1  0  0  0  0
 37 67  1  0  0  0  0
 38 40  2  0  0  0  0
 38 68  1  0  0  0  0
 39 40  1  0  0  0  0
 39 69  1  0  0  0  0
 40 70  1  0  0  0  0
M  END
> <PUBCHEM_COMPOUND_CID>
11954211

> <PUBCHEM_COMPOUND_CANONICALIZED>
1

> <PUBCHEM_CACTVS_COMPLEXITY>
907

> <PUBCHEM_CACTVS_HBOND_ACCEPTOR>
13

> <PUBCHEM_CACTVS_HBOND_DONOR>
7

> <PUBCHEM_CACTVS_ROTATABLE_BOND>
7

> <PUBCHEM_CACTVS_SUBSKEYS>
AAADceB4PAAAAAAAAAAAAAAAAAAAAAAAAAA0aIECAAAAAACBQAAAGgAACAAADBSwmAMwDoAABgCIAqBSAAICCAAkIAAIiAFGCMgdNjaENR6ieWCl4BEPqYfI6KyOAAAAAAAIAAAAAAAAABAAAAAAAAAAAA==

> <PUBCHEM_IUPAC_OPENEYE_NAME>
3-[(2S,3R,4S,5S,6R)-4,5-dihydroxy-6-(hydroxymethyl)-3-[(2S,3R,4S,5S,6R)-3,4,5-trihydroxy-6-(hydroxymethyl)tetrahydropyran-2-yl]oxy-tetrahydropyran-2-yl]oxy-2-phenyl-chromen-4-one

> <PUBCHEM_IUPAC_CAS_NAME>
3-[[(2S,3R,4S,5S,6R)-4,5-dihydroxy-6-(hydroxymethyl)-3-[[(2S,3R,4S,5S,6R)-3,4,5-trihydroxy-6-(hydroxymethyl)-2-oxanyl]oxy]-2-oxanyl]oxy]-2-phenyl-1-benzopyran-4-one

> <PUBCHEM_IUPAC_NAME>
3-[(2S,3R,4S,5S,6R)-4,5-dihydroxy-6-(hydroxymethyl)-3-[(2S,3R,4S,5S,6R)-3,4,5-trihydroxy-6-(hydroxymethyl)oxan-2-yl]oxyoxan-2-yl]oxy-2-phenylchromen-4-one

> <PUBCHEM_IUPAC_SYSTEMATIC_NAME>
3-[(2S,3R,4S,5S,6R)-6-(hydroxymethyl)-3-[(2S,3R,4S,5S,6R)-6-(hydroxymethyl)-3,4,5-tris(oxidanyl)oxan-2-yl]oxy-4,5-bis(oxidanyl)oxan-2-yl]oxy-2-phenyl-chromen-4-one

> <PUBCHEM_IUPAC_TRADITIONAL_NAME>
3-[(2S,3R,4S,5S,6R)-4,5-dihydroxy-6-methylol-3-[(2S,3R,4S,5S,6R)-3,4,5-trihydroxy-6-methylol-tetrahydropyran-2-yl]oxy-tetrahydropyran-2-yl]oxy-2-phenyl-chromone

> <PUBCHEM_IUPAC_INCHI>
InChI=1S/C27H30O13/c28-10-15-18(31)20(33)22(35)26(37-15)40-25-21(34)19(32)16(11-29)38-27(25)39-24-17(30)13-8-4-5-9-14(13)36-23(24)12-6-2-1-3-7-12/h1-9,15-16,18-22,25-29,31-35H,10-11H2/t15-,16-,18-,19-,20+,21+,22-,25-,26+,27+/m1/s1

> <PUBCHEM_IUPAC_INCHIKEY>
JTDCBLLHQWIXFM-OWNIHXIWSA-N

> <PUBCHEM_XLOGP3_AA>
-0.4

> <PUBCHEM_EXACT_MASS>
562.168641

> <PUBCHEM_MOLECULAR_FORMULA>
C27H30O13

> <PUBCHEM_MOLECULAR_WEIGHT>
562.5193

> <PUBCHEM_OPENEYE_CAN_SMILES>
C1=CC=C(C=C1)C2=C(C(=O)C3=CC=CC=C3O2)OC4C(C(C(C(O4)CO)O)O)OC5C(C(C(C(O5)CO)O)O)O

> <PUBCHEM_OPENEYE_ISO_SMILES>
C1=CC=C(C=C1)C2=C(C(=O)C3=CC=CC=C3O2)O[C@H]4[C@@H]([C@H]([C@@H]([C@H](O4)CO)O)O)O[C@H]5[C@@H]([C@H]([C@@H]([C@H](O5)CO)O)O)O

> <PUBCHEM_CACTVS_TPSA>
205

> <PUBCHEM_MONOISOTOPIC_WEIGHT>
562.168641

> <PUBCHEM_TOTAL_CHARGE>
0

> <PUBCHEM_HEAVY_ATOM_COUNT>
40

> <PUBCHEM_ATOM_DEF_STEREO_COUNT>
10

> <PUBCHEM_ATOM_UDEF_STEREO_COUNT>
0

> <PUBCHEM_BOND_DEF_STEREO_COUNT>
0

> <PUBCHEM_BOND_UDEF_STEREO_COUNT>
0

> <PUBCHEM_ISOTOPIC_ATOM_COUNT>
0

> <PUBCHEM_COMPONENT_COUNT>
1

> <PUBCHEM_CACTVS_TAUTO_COUNT>
1

> <PUBCHEM_COORDINATE_TYPE>
1
5
255

> <PUBCHEM_BONDANNOTATIONS>
14  1  5
17  1  6
12  27  8
12  31  8
20  24  6
23  25  6
26  27  8
26  28  8
28  29  8
29  31  8
29  32  8
30  34  8
30  35  8
31  33  8
32  36  8
33  37  8
34  38  8
35  39  8
36  37  8
38  40  8
39  40  8
15  4  6
19  5  6
16  6  5
18  7  5
21  8  6
22  9  5

$$$$

