439966
  -OEChem-07051212483D

 20 20  0     1  0  0  0  0  0999 V2000
   -0.6005   -1.2524    0.0680 O   0  0  0  0  0  0  0  0  0  0  0  0
   -0.1191    1.6859    0.9535 O   0  0  0  0  0  0  0  0  0  0  0  0
    2.1386   -1.6861   -0.0511 O   0  0  0  0  0  0  0  0  0  0  0  0
    3.8906    0.4473    0.2152 O   0  0  0  0  0  0  0  0  0  0  0  0
   -2.8361    1.3040   -0.3527 O   0  0  0  0  0  0  0  0  0  0  0  0
   -2.8938   -1.4262    0.3484 O   0  0  0  0  0  0  0  0  0  0  0  0
    0.2753   -0.2485   -0.4902 C   0  0  1  0  0  0  0  0  0  0  0  0
   -0.4146    1.0951   -0.2930 C   0  0  1  0  0  0  0  0  0  0  0  0
    1.6385   -0.3694    0.1696 C   0  0  2  0  0  0  0  0  0  0  0  0
   -1.8263    0.6403   -0.2380 C   0  0  0  0  0  0  0  0  0  0  0  0
    2.6282    0.6265   -0.4180 C   0  0  0  0  0  0  0  0  0  0  0  0
   -1.8808   -0.8166    0.0883 C   0  0  0  0  0  0  0  0  0  0  0  0
    0.3492   -0.4913   -1.5589 H   0  0  0  0  0  0  0  0  0  0  0  0
   -0.2191    1.7899   -1.1131 H   0  0  0  0  0  0  0  0  0  0  0  0
    1.5761   -0.2537    1.2577 H   0  0  0  0  0  0  0  0  0  0  0  0
    2.7732    0.4629   -1.4911 H   0  0  0  0  0  0  0  0  0  0  0  0
    2.3184    1.6626   -0.2590 H   0  0  0  0  0  0  0  0  0  0  0  0
   -0.6067    2.5259    1.0035 H   0  0  0  0  0  0  0  0  0  0  0  0
    1.4879   -2.3104    0.3131 H   0  0  0  0  0  0  0  0  0  0  0  0
    4.1621   -0.4750    0.0688 H   0  0  0  0  0  0  0  0  0  0  0  0
  1  7  1  0  0  0  0
  1 12  1  0  0  0  0
  2  8  1  0  0  0  0
  2 18  1  0  0  0  0
  3  9  1  0  0  0  0
  3 19  1  0  0  0  0
  4 11  1  0  0  0  0
  4 20  1  0  0  0  0
  5 10  2  0  0  0  0
  6 12  2  0  0  0  0
  7  8  1  0  0  0  0
  7  9  1  0  0  0  0
  7 13  1  0  0  0  0
  8 10  1  0  0  0  0
  8 14  1  0  0  0  0
  9 11  1  0  0  0  0
  9 15  1  0  0  0  0
 10 12  1  0  0  0  0
 11 16  1  0  0  0  0
 11 17  1  0  0  0  0
M  END
> <PUBCHEM_COMPOUND_CID>
439966

> <PUBCHEM_CONFORMER_RMSD>
0.6

> <PUBCHEM_CONFORMER_DIVERSEORDER>
1
2
5
7
4
3
6

> <PUBCHEM_MMFF94_PARTIAL_CHARGES>
15
1 -0.43
10 0.51
11 0.28
12 0.72
18 0.4
19 0.4
2 -0.68
20 0.4
3 -0.68
4 -0.68
5 -0.57
6 -0.57
7 0.28
8 0.34
9 0.28

> <PUBCHEM_EFFECTIVE_ROTOR_COUNT>
2.6

> <PUBCHEM_PHARMACOPHORE_FEATURES>
9
1 2 acceptor
1 2 donor
1 3 acceptor
1 3 donor
1 4 acceptor
1 4 donor
1 5 acceptor
1 6 acceptor
5 1 7 8 10 12 rings

> <PUBCHEM_HEAVY_ATOM_COUNT>
12

> <PUBCHEM_ATOM_DEF_STEREO_COUNT>
3

> <PUBCHEM_ATOM_UDEF_STEREO_COUNT>
0

> <PUBCHEM_BOND_DEF_STEREO_COUNT>
0

> <PUBCHEM_BOND_UDEF_STEREO_COUNT>
0

> <PUBCHEM_ISOTOPIC_ATOM_COUNT>
0

> <PUBCHEM_COMPONENT_COUNT>
1

> <PUBCHEM_CACTVS_TAUTO_COUNT>
8

> <PUBCHEM_CONFORMER_ID>
0006B69E00000001

> <PUBCHEM_MMFF94_ENERGY>
21.7753

> <PUBCHEM_FEATURE_SELFOVERLAP>
45.683

> <PUBCHEM_SHAPE_FINGERPRINT>
10857977 72 18336836290196619448
12423570 1 11523504608255605729
12897270 3 18408601474577127588
12932764 1 17676213446204751398
13024252 1 13110965331504408085
14325111 11 18412826901941470086
15219456 202 18334570282789640974
16945 1 18270392772460141343
19973954 147 18337105791031329574
20201158 50 18410295800230562998
20871998 184 18334572408882998071
23402655 69 18263942084618518997
23552423 10 18201716292668375094
2748010 2 18410569630128758623
3312278 4 18409727369962162568
369184 2 18341050808402162671
53812653 166 18334580126648916113
6333449 129 18410577279528608285
7364860 26 18191589851233770406

> <PUBCHEM_SHAPE_MULTIPOLES>
211.74
4.73
1.62
0.71
2.3
0.11
-0.03
0.06
-0.06
-0.49
-0.15
0.01
-0.13
0.19

> <PUBCHEM_SHAPE_SELFOVERLAP>
435.137

> <PUBCHEM_SHAPE_VOLUME>
122.4

> <PUBCHEM_COORDINATE_TYPE>
2
5
10

$$$$

