46173801
  -OEChem-07051213033D

 60 62  0     1  0  0  0  0  0999 V2000
    0.4713   -3.5462    0.7294 P   0  0  2  0  0  0  0  0  0  0  0  0
    2.6203   -1.6669    1.4419 P   0  0  1  0  0  0  0  0  0  0  0  0
   -3.1355   -1.4907   -0.4415 O   0  0  0  0  0  0  0  0  0  0  0  0
    1.6385    0.9312   -0.8855 O   0  0  0  0  0  0  0  0  0  0  0  0
   -3.7988   -1.6174   -3.4275 O   0  0  0  0  0  0  0  0  0  0  0  0
   -0.9660   -3.1906    0.0778 O   0  0  0  0  0  0  0  0  0  0  0  0
    2.8529   -0.1998    0.8096 O   0  0  0  0  0  0  0  0  0  0  0  0
    2.9821    2.9633   -2.4823 O   0  0  0  0  0  0  0  0  0  0  0  0
    5.4977    2.3347   -1.5003 O   0  0  0  0  0  0  0  0  0  0  0  0
    1.1373   -2.0911    0.9577 O   0  0  0  0  0  0  0  0  0  0  0  0
   -4.6882    2.3318   -0.2484 O   0  0  0  0  0  0  0  0  0  0  0  0
    1.3222   -4.1453   -0.5091 O   0  0  0  0  0  0  0  0  0  0  0  0
    3.5839   -2.6394    0.5798 O   0  0  0  0  0  0  0  0  0  0  0  0
    0.4348   -4.4152    1.9524 O   0  0  0  0  0  0  0  0  0  0  0  0
    2.8292   -1.7460    2.9265 O   0  0  0  0  0  0  0  0  0  0  0  0
   -1.7316    3.2102    3.1627 O   0  0  0  0  0  0  0  0  0  0  0  0
   -3.0163    0.7609    0.1840 N   0  0  0  0  0  0  0  0  0  0  0  0
   -3.2069    2.7573    1.4500 N   0  0  0  0  0  0  0  0  0  0  0  0
   -2.5903   -1.2994   -2.7408 C   0  0  2  0  0  0  0  0  0  0  0  0
   -2.4495   -2.1781   -1.5057 C   0  0  1  0  0  0  0  0  0  0  0  0
   -2.6852    0.0930   -2.1612 C   0  0  0  0  0  0  0  0  0  0  0  0
   -3.4186   -0.1454   -0.8514 C   0  0  1  0  0  0  0  0  0  0  0  0
    3.1706    2.8195   -1.0728 C   0  0  2  0  0  0  0  0  0  0  0  0
    4.3469    1.8807   -0.7986 C   0  0  1  0  0  0  0  0  0  0  0  0
    1.8953    2.2651   -0.4244 C   0  0  1  0  0  0  0  0  0  0  0  0
    4.0097    0.4469   -1.2061 C   0  0  0  0  0  0  0  0  0  0  0  0
   -1.0005   -2.3735   -1.0792 C   0  0  0  0  0  0  0  0  0  0  0  0
    2.6843    0.0017   -0.5908 C   0  0  2  0  0  0  0  0  0  0  0  0
    0.6656    3.1038   -0.7537 C   0  0  0  0  0  0  0  0  0  0  0  0
   -1.9209    0.4251    0.9701 C   0  0  0  0  0  0  0  0  0  0  0  0
   -3.7095    1.9702    0.4081 C   0  0  0  0  0  0  0  0  0  0  0  0
   -1.4424    1.1806    1.9662 C   0  0  0  0  0  0  0  0  0  0  0  0
   -2.1203    2.4707    2.2625 C   0  0  0  0  0  0  0  0  0  0  0  0
   -0.2623    0.7983    2.8006 C   0  0  0  0  0  0  0  0  0  0  0  0
   -1.7676   -1.4056   -3.4543 H   0  0  0  0  0  0  0  0  0  0  0  0
   -2.9399   -3.1506   -1.6242 H   0  0  0  0  0  0  0  0  0  0  0  0
   -3.2211    0.8037   -2.7982 H   0  0  0  0  0  0  0  0  0  0  0  0
   -1.6782    0.4901   -1.9835 H   0  0  0  0  0  0  0  0  0  0  0  0
   -4.5017   -0.0731   -1.0069 H   0  0  0  0  0  0  0  0  0  0  0  0
    3.3972    3.8203   -0.6890 H   0  0  0  0  0  0  0  0  0  0  0  0
    4.5827    1.9090    0.2723 H   0  0  0  0  0  0  0  0  0  0  0  0
    2.0132    2.2420    0.6658 H   0  0  0  0  0  0  0  0  0  0  0  0
    4.8243   -0.2205   -0.9002 H   0  0  0  0  0  0  0  0  0  0  0  0
    3.9521    0.3873   -2.3000 H   0  0  0  0  0  0  0  0  0  0  0  0
   -0.4640   -2.8803   -1.8876 H   0  0  0  0  0  0  0  0  0  0  0  0
   -0.4938   -1.4258   -0.8835 H   0  0  0  0  0  0  0  0  0  0  0  0
    2.3920   -0.9440   -1.0594 H   0  0  0  0  0  0  0  0  0  0  0  0
    0.4454    3.0887   -1.8266 H   0  0  0  0  0  0  0  0  0  0  0  0
    0.7966    4.1419   -0.4342 H   0  0  0  0  0  0  0  0  0  0  0  0
   -0.2189    2.6972   -0.2567 H   0  0  0  0  0  0  0  0  0  0  0  0
   -3.7204   -2.5337   -3.7436 H   0  0  0  0  0  0  0  0  0  0  0  0
   -1.4270   -0.5113    0.7668 H   0  0  0  0  0  0  0  0  0  0  0  0
    2.6235    2.1280   -2.8267 H   0  0  0  0  0  0  0  0  0  0  0  0
    6.2221    1.7156   -1.3065 H   0  0  0  0  0  0  0  0  0  0  0  0
   -3.6906    3.6329    1.6294 H   0  0  0  0  0  0  0  0  0  0  0  0
   -0.5312    0.7883    3.8620 H   0  0  0  0  0  0  0  0  0  0  0  0
    0.1106   -0.1981    2.5500 H   0  0  0  0  0  0  0  0  0  0  0  0
    0.5557    1.5110    2.6565 H   0  0  0  0  0  0  0  0  0  0  0  0
    1.4951   -3.5857   -1.2955 H   0  0  0  0  0  0  0  0  0  0  0  0
    3.7063   -3.5672    0.8735 H   0  0  0  0  0  0  0  0  0  0  0  0
  1  6  1  0  0  0  0
  1 10  1  0  0  0  0
  1 12  1  0  0  0  0
  1 14  2  0  0  0  0
  2  7  1  0  0  0  0
  2 10  1  0  0  0  0
  2 13  1  0  0  0  0
  2 15  2  0  0  0  0
  3 20  1  0  0  0  0
  3 22  1  0  0  0  0
  4 25  1  0  0  0  0
  4 28  1  0  0  0  0
  5 19  1  0  0  0  0
  5 51  1  0  0  0  0
  6 27  1  0  0  0  0
  7 28  1  0  0  0  0
  8 23  1  0  0  0  0
  8 53  1  0  0  0  0
  9 24  1  0  0  0  0
  9 54  1  0  0  0  0
 11 31  2  0  0  0  0
 12 59  1  0  0  0  0
 13 60  1  0  0  0  0
 16 33  2  0  0  0  0
 17 22  1  0  0  0  0
 17 30  1  0  0  0  0
 17 31  1  0  0  0  0
 18 31  1  0  0  0  0
 18 33  1  0  0  0  0
 18 55  1  0  0  0  0
 19 20  1  0  0  0  0
 19 21  1  0  0  0  0
 19 35  1  0  0  0  0
 20 27  1  0  0  0  0
 20 36  1  0  0  0  0
 21 22  1  0  0  0  0
 21 37  1  0  0  0  0
 21 38  1  0  0  0  0
 22 39  1  0  0  0  0
 23 24  1  0  0  0  0
 23 25  1  0  0  0  0
 23 40  1  0  0  0  0
 24 26  1  0  0  0  0
 24 41  1  0  0  0  0
 25 29  1  0  0  0  0
 25 42  1  0  0  0  0
 26 28  1  0  0  0  0
 26 43  1  0  0  0  0
 26 44  1  0  0  0  0
 27 45  1  0  0  0  0
 27 46  1  0  0  0  0
 28 47  1  0  0  0  0
 29 48  1  0  0  0  0
 29 49  1  0  0  0  0
 29 50  1  0  0  0  0
 30 32  2  0  0  0  0
 30 52  1  0  0  0  0
 32 33  1  0  0  0  0
 32 34  1  0  0  0  0
 34 56  1  0  0  0  0
 34 57  1  0  0  0  0
 34 58  1  0  0  0  0
M  END
> <PUBCHEM_COMPOUND_CID>
46173801

> <PUBCHEM_CONFORMER_RMSD>
1.4

> <PUBCHEM_CONFORMER_DIVERSEORDER>
1
64
79
48
51
54
58
111
115
47
85
116
9
112
110
123
119
80
109
23
25
5
67
38
132
124
24
95
61
81
100
92
130
36
113
107
93
73
63
56
114
82
31
30
131
33
125
62
7
83
43
37
105
91
28
98
34
42
60
44
10
129
20
66
68
102
29
26
97
74
45
76
41
121
40
126
89
55
106
72
70
46
32
94
15
78
22
96
86
88
87
108
90
127
57
14
2
17
65
8
19
77
120
39
99
122
21
128
71
18
35
117
49
101
16
104
118
3
50
84
53
59
52
75
27
11
103
6
13
69
4
12

> <PUBCHEM_MMFF94_PARTIAL_CHARGES>
38
1 1.51
10 -0.54
11 -0.57
12 -0.77
13 -0.77
14 -0.7
15 -0.7
16 -0.57
17 -0.47
18 -0.49
19 0.28
2 1.51
20 0.28
22 0.58
23 0.28
24 0.28
25 0.28
27 0.28
28 0.56
3 -0.56
30 -0.04
31 0.69
32 -0.12
33 0.62
34 0.14
4 -0.56
5 -0.68
51 0.4
52 0.15
53 0.4
54 0.4
55 0.37
59 0.5
6 -0.55
60 0.5
7 -0.55
8 -0.68
9 -0.68

> <PUBCHEM_EFFECTIVE_ROTOR_COUNT>
10.2

> <PUBCHEM_PHARMACOPHORE_FEATURES>
18
1 11 acceptor
1 12 acceptor
1 13 acceptor
1 14 acceptor
1 15 acceptor
1 16 acceptor
1 18 donor
1 3 acceptor
1 4 acceptor
1 5 acceptor
1 5 donor
1 8 acceptor
1 8 donor
1 9 acceptor
1 9 donor
5 3 19 20 21 22 rings
6 17 18 30 31 32 33 rings
6 4 23 24 25 26 28 rings

> <PUBCHEM_HEAVY_ATOM_COUNT>
34

> <PUBCHEM_ATOM_DEF_STEREO_COUNT>
7

> <PUBCHEM_ATOM_UDEF_STEREO_COUNT>
0

> <PUBCHEM_BOND_DEF_STEREO_COUNT>
0

> <PUBCHEM_BOND_UDEF_STEREO_COUNT>
0

> <PUBCHEM_ISOTOPIC_ATOM_COUNT>
0

> <PUBCHEM_COMPONENT_COUNT>
1

> <PUBCHEM_CACTVS_TAUTO_COUNT>
3

> <PUBCHEM_CONFORMER_ID>
02C08E6900000001

> <PUBCHEM_MMFF94_ENERGY>
37.5518

> <PUBCHEM_FEATURE_SELFOVERLAP>
91.375

> <PUBCHEM_SHAPE_FINGERPRINT>
11513181 2 16375528797548653695
12166972 35 17981083874139116311
12539773 59 18042425653975309063
12788726 201 18188766141811112195
14114206 34 18187934911105189405
14289585 56 17693366051326733726
15463212 79 18335976519396545777
19311894 1 18341320094984646934
19319366 153 18408600379492596147
20511986 3 18408324414738016368
21315764 21 17843717475791611501
21796203 349 17839437219296488570
21860390 5 17769073984802332952
238 59 17703243822940052324
35225 105 17478844400185065063
469060 322 16627138461046581171
474144 1 18338523061445673513
50150288 127 16537007082176695597
5895379 119 18187650219487974502

> <PUBCHEM_SHAPE_MULTIPOLES>
615.27
8.1
5.41
3.12
3.56
3.03
-0.46
-4.73
4.24
0.83
-1.54
-1.34
-0.38
-5.03

> <PUBCHEM_SHAPE_SELFOVERLAP>
1249.734

> <PUBCHEM_SHAPE_VOLUME>
359

> <PUBCHEM_COORDINATE_TYPE>
2
5
10

$$$$

