23657851
  -OEChem-07051213072D

 36 37  0     1  0  0  0  0  0999 V2000
    6.8909   -2.5847    0.0000 P   0  0  0  0  0  0  0  0  0  0  0  0
    5.0298   -0.1201    0.0000 O   0  0  0  0  0  0  0  0  0  0  0  0
    2.4608    0.1889    0.0000 O   0  0  0  0  0  0  0  0  0  0  0  0
    3.1330   -1.8802    0.0000 O   0  0  0  0  0  0  0  0  0  0  0  0
    6.3031   -1.7757    0.0000 O   0  0  0  0  0  0  0  0  0  0  0  0
    7.4787   -3.3937    0.0000 O   0  0  0  0  0  0  0  0  0  0  0  0
    7.6999   -1.9969    0.0000 O   0  0  0  0  0  0  0  0  0  0  0  0
    6.0819   -3.1725    0.0000 O   0  0  0  0  0  0  0  0  0  0  0  0
    7.6751    2.1065    0.0000 O   0  0  0  0  0  0  0  0  0  0  0  0
    6.5161    3.3937    0.0000 O   0  0  0  0  0  0  0  0  0  0  0  0
    4.2208    1.4677    0.0000 N   0  0  0  0  0  0  0  0  0  0  0  0
    3.7208    3.0065    0.0000 N   0  0  0  0  0  0  0  0  0  0  0  0
    5.9809    1.7464    0.0000 N   0  0  0  0  0  0  0  0  0  0  0  0
    3.4118   -0.1201    0.0000 C   0  0  2  0  0  0  0  0  0  0  0  0
    3.7208   -1.0712    0.0000 C   0  0  1  0  0  0  0  0  0  0  0  0
    4.2208    0.4677    0.0000 C   0  0  1  0  0  0  0  0  0  0  0  0
    4.7208   -1.0712    0.0000 C   0  0  1  0  0  0  0  0  0  0  0  0
    5.3086   -1.8802    0.0000 C   0  0  0  0  0  0  0  0  0  0  0  0
    5.0298    2.0554    0.0000 C   0  0  0  0  0  0  0  0  0  0  0  0
    3.4118    2.0554    0.0000 C   0  0  0  0  0  0  0  0  0  0  0  0
    4.7208    3.0065    0.0000 C   0  0  0  0  0  0  0  0  0  0  0  0
    6.7240    2.4156    0.0000 C   0  0  0  0  0  0  0  0  0  0  0  0
    2.9734   -0.5585    0.0000 H   0  0  0  0  0  0  0  0  0  0  0  0
    3.1085   -0.9742    0.0000 H   0  0  0  0  0  0  0  0  0  0  0  0
    3.6684    0.7491    0.0000 H   0  0  0  0  0  0  0  0  0  0  0  0
    5.3332   -0.9742    0.0000 H   0  0  0  0  0  0  0  0  0  0  0  0
    4.7514   -2.1520    0.0000 H   0  0  0  0  0  0  0  0  0  0  0  0
    5.4795   -2.4762    0.0000 H   0  0  0  0  0  0  0  0  0  0  0  0
    2.0000   -0.2260    0.0000 H   0  0  0  0  0  0  0  0  0  0  0  0
    3.3852   -2.4466    0.0000 H   0  0  0  0  0  0  0  0  0  0  0  0
    2.8222    1.8638    0.0000 H   0  0  0  0  0  0  0  0  0  0  0  0
    5.0852    3.5081    0.0000 H   0  0  0  0  0  0  0  0  0  0  0  0
    6.1098    1.1400    0.0000 H   0  0  0  0  0  0  0  0  0  0  0  0
    8.0953   -3.3289    0.0000 H   0  0  0  0  0  0  0  0  0  0  0  0
    8.2663   -2.2491    0.0000 H   0  0  0  0  0  0  0  0  0  0  0  0
    8.1358    2.5214    0.0000 H   0  0  0  0  0  0  0  0  0  0  0  0
  1  5  1  0  0  0  0
  1  6  1  0  0  0  0
  1  7  1  0  0  0  0
  1  8  2  0  0  0  0
  2 16  1  0  0  0  0
  2 17  1  0  0  0  0
 14  3  1  1  0  0  0
  3 29  1  0  0  0  0
 15  4  1  1  0  0  0
  4 30  1  0  0  0  0
  5 18  1  0  0  0  0
  6 34  1  0  0  0  0
  7 35  1  0  0  0  0
  9 22  1  0  0  0  0
  9 36  1  0  0  0  0
 10 22  2  0  0  0  0
 16 11  1  6  0  0  0
 11 19  1  0  0  0  0
 11 20  1  0  0  0  0
 12 20  2  0  0  0  0
 12 21  1  0  0  0  0
 13 19  1  0  0  0  0
 13 22  1  0  0  0  0
 13 33  1  0  0  0  0
 14 15  1  0  0  0  0
 14 16  1  0  0  0  0
 14 23  1  0  0  0  0
 15 17  1  0  0  0  0
 15 24  1  0  0  0  0
 16 25  1  0  0  0  0
 17 18  1  6  0  0  0
 17 26  1  0  0  0  0
 18 27  1  0  0  0  0
 18 28  1  0  0  0  0
 19 21  2  0  0  0  0
 20 31  1  0  0  0  0
 21 32  1  0  0  0  0
M  END
> <PUBCHEM_COMPOUND_CID>
23657851

> <PUBCHEM_COMPOUND_CANONICALIZED>
1

> <PUBCHEM_CACTVS_COMPLEXITY>
460

> <PUBCHEM_CACTVS_HBOND_ACCEPTOR>
10

> <PUBCHEM_CACTVS_HBOND_DONOR>
6

> <PUBCHEM_CACTVS_ROTATABLE_BOND>
5

> <PUBCHEM_CACTVS_SUBSKEYS>
AAADccBzPAIAAAAAAAAAAAAAAAAAAWJAAAAAAAAAAAAAAAABgAAAHgAQCCAACBThggYtuBfMFxCoQBInfIAAgC0REqABQAAYMAGDWAIAiAAeQAAPFQKTACDwMAIAAAAAAAAAAAAAAAAAAAAAAAAAAAAAAA==

> <PUBCHEM_IUPAC_OPENEYE_NAME>
[3-[(2R,3R,4S,5R)-3,4-dihydroxy-5-(phosphonooxymethyl)tetrahydrofuran-2-yl]imidazol-4-yl]carbamic acid

> <PUBCHEM_IUPAC_CAS_NAME>
[3-[(2R,3R,4S,5R)-3,4-dihydroxy-5-(phosphonooxymethyl)-2-oxolanyl]-4-imidazolyl]carbamic acid

> <PUBCHEM_IUPAC_NAME>
[3-[(2R,3R,4S,5R)-3,4-dihydroxy-5-(phosphonooxymethyl)oxolan-2-yl]imidazol-4-yl]carbamic acid

> <PUBCHEM_IUPAC_SYSTEMATIC_NAME>
[3-[(2R,3R,4S,5R)-3,4-bis(oxidanyl)-5-(phosphonooxymethyl)oxolan-2-yl]imidazol-4-yl]carbamic acid

> <PUBCHEM_IUPAC_TRADITIONAL_NAME>
[3-[(2R,3R,4S,5R)-3,4-dihydroxy-5-(phosphonooxymethyl)tetrahydrofuran-2-yl]imidazol-4-yl]carbamic acid

> <PUBCHEM_IUPAC_INCHI>
InChI=1S/C9H14N3O9P/c13-6-4(2-20-22(17,18)19)21-8(7(6)14)12-3-10-1-5(12)11-9(15)16/h1,3-4,6-8,11,13-14H,2H2,(H,15,16)(H2,17,18,19)/t4-,6-,7-,8-/m1/s1

> <PUBCHEM_IUPAC_INCHIKEY>
JHLXDWGVSYMXPL-XVFCMESISA-N

> <PUBCHEM_XLOGP3_AA>
-3.7

> <PUBCHEM_EXACT_MASS>
339.046766

> <PUBCHEM_MOLECULAR_FORMULA>
C9H14N3O9P

> <PUBCHEM_MOLECULAR_WEIGHT>
339.195922

> <PUBCHEM_OPENEYE_CAN_SMILES>
C1=C(N(C=N1)C2C(C(C(O2)COP(=O)(O)O)O)O)NC(=O)O

> <PUBCHEM_OPENEYE_ISO_SMILES>
C1=C(N(C=N1)[C@H]2[C@@H]([C@@H]([C@H](O2)COP(=O)(O)O)O)O)NC(=O)O

> <PUBCHEM_CACTVS_TPSA>
184

> <PUBCHEM_MONOISOTOPIC_WEIGHT>
339.046766

> <PUBCHEM_TOTAL_CHARGE>
0

> <PUBCHEM_HEAVY_ATOM_COUNT>
22

> <PUBCHEM_ATOM_DEF_STEREO_COUNT>
4

> <PUBCHEM_ATOM_UDEF_STEREO_COUNT>
0

> <PUBCHEM_BOND_DEF_STEREO_COUNT>
0

> <PUBCHEM_BOND_UDEF_STEREO_COUNT>
0

> <PUBCHEM_ISOTOPIC_ATOM_COUNT>
0

> <PUBCHEM_COMPONENT_COUNT>
1

> <PUBCHEM_CACTVS_TAUTO_COUNT>
2

> <PUBCHEM_COORDINATE_TYPE>
1
5
255

> <PUBCHEM_BONDANNOTATIONS>
16  11  6
11  19  8
11  20  8
12  20  8
12  21  8
17  18  6
19  21  8
14  3  5
15  4  5

$$$$

