4057
  -OEChem-06251223513D

 51 53  0     1  0  0  0  0  0999 V2000
   -1.1121   -0.9152    0.6168 O   0  0  0  0  0  0  0  0  0  0  0  0
    0.9621   -0.3380    2.0087 O   0  0  0  0  0  0  0  0  0  0  0  0
    0.3758   -2.1286   -0.6490 O   0  0  0  0  0  0  0  0  0  0  0  0
   -4.1330   -0.2003    0.3719 N   0  3  0  0  0  0  0  0  0  0  0  0
   -3.4462   -1.4405    0.9696 C   0  0  0  0  0  0  0  0  0  0  0  0
   -4.2805   -0.3252   -1.1469 C   0  0  0  0  0  0  0  0  0  0  0  0
   -2.1507   -1.8184    0.2541 C   0  0  1  0  0  0  0  0  0  0  0  0
   -2.9488   -0.6201   -1.8221 C   0  0  0  0  0  0  0  0  0  0  0  0
   -2.3060   -1.8810   -1.2609 C   0  0  0  0  0  0  0  0  0  0  0  0
   -5.5435   -0.1113    0.9774 C   0  0  0  0  0  0  0  0  0  0  0  0
   -3.4084    1.0915    0.7508 C   0  0  0  0  0  0  0  0  0  0  0  0
    0.1266   -1.1842    0.0908 C   0  0  0  0  0  0  0  0  0  0  0  0
    1.1567   -0.1676    0.5899 C   0  0  0  0  0  0  0  0  0  0  0  0
    0.8533    1.2765    0.1835 C   0  0  0  0  0  0  0  0  0  0  0  0
    2.5912   -0.5493    0.2178 C   0  0  0  0  0  0  0  0  0  0  0  0
    0.3406    1.5136   -1.0710 C   0  0  0  0  0  0  0  0  0  0  0  0
    2.9654   -0.4936   -1.1051 C   0  0  0  0  0  0  0  0  0  0  0  0
    1.1045    2.2819    1.0885 C   0  0  0  0  0  0  0  0  0  0  0  0
    3.4518   -0.9330    1.2203 C   0  0  0  0  0  0  0  0  0  0  0  0
    0.0639    2.8296   -1.4414 C   0  0  0  0  0  0  0  0  0  0  0  0
    4.2729   -0.8413   -1.4443 C   0  0  0  0  0  0  0  0  0  0  0  0
    0.8277    3.5979    0.7181 C   0  0  0  0  0  0  0  0  0  0  0  0
    4.7595   -1.2805    0.8810 C   0  0  0  0  0  0  0  0  0  0  0  0
    0.3073    3.8717   -0.5469 C   0  0  0  0  0  0  0  0  0  0  0  0
    5.1700   -1.2347   -0.4514 C   0  0  0  0  0  0  0  0  0  0  0  0
   -4.1637   -2.2652    0.8801 H   0  0  0  0  0  0  0  0  0  0  0  0
   -3.2732   -1.2301    2.0312 H   0  0  0  0  0  0  0  0  0  0  0  0
   -4.7136    0.6106   -1.5180 H   0  0  0  0  0  0  0  0  0  0  0  0
   -4.9902   -1.1395   -1.3369 H   0  0  0  0  0  0  0  0  0  0  0  0
   -1.8565   -2.8101    0.6228 H   0  0  0  0  0  0  0  0  0  0  0  0
   -2.2694    0.2312   -1.7285 H   0  0  0  0  0  0  0  0  0  0  0  0
   -3.1218   -0.7546   -2.8967 H   0  0  0  0  0  0  0  0  0  0  0  0
   -2.9689   -2.7263   -1.4928 H   0  0  0  0  0  0  0  0  0  0  0  0
   -1.3997   -2.0701   -1.8340 H   0  0  0  0  0  0  0  0  0  0  0  0
   -6.0924   -1.0218    0.7188 H   0  0  0  0  0  0  0  0  0  0  0  0
   -5.4463   -0.0188    2.0632 H   0  0  0  0  0  0  0  0  0  0  0  0
   -6.0450    0.7663    0.5585 H   0  0  0  0  0  0  0  0  0  0  0  0
   -2.4214    1.1104    0.2918 H   0  0  0  0  0  0  0  0  0  0  0  0
   -3.9986    1.9373    0.3851 H   0  0  0  0  0  0  0  0  0  0  0  0
   -3.3214    1.1322    1.8406 H   0  0  0  0  0  0  0  0  0  0  0  0
    0.1217    0.0836    2.2592 H   0  0  0  0  0  0  0  0  0  0  0  0
    0.1431    0.7197   -1.7834 H   0  0  0  0  0  0  0  0  0  0  0  0
    2.2856   -0.2145   -1.9012 H   0  0  0  0  0  0  0  0  0  0  0  0
    1.5219    2.0917    2.0721 H   0  0  0  0  0  0  0  0  0  0  0  0
    3.1719   -0.9794    2.2669 H   0  0  0  0  0  0  0  0  0  0  0  0
   -0.3419    3.0426   -2.4260 H   0  0  0  0  0  0  0  0  0  0  0  0
    4.5914   -0.8109   -2.4823 H   0  0  0  0  0  0  0  0  0  0  0  0
    1.0202    4.4099    1.4133 H   0  0  0  0  0  0  0  0  0  0  0  0
    5.4586   -1.5867    1.6538 H   0  0  0  0  0  0  0  0  0  0  0  0
    0.0923    4.8964   -0.8355 H   0  0  0  0  0  0  0  0  0  0  0  0
    6.1877   -1.5065   -0.7157 H   0  0  0  0  0  0  0  0  0  0  0  0
  1  7  1  0  0  0  0
  1 12  1  0  0  0  0
  2 13  1  0  0  0  0
  2 41  1  0  0  0  0
  3 12  2  0  0  0  0
  4  5  1  0  0  0  0
  4  6  1  0  0  0  0
  4 10  1  0  0  0  0
  4 11  1  0  0  0  0
  5  7  1  0  0  0  0
  5 26  1  0  0  0  0
  5 27  1  0  0  0  0
  6  8  1  0  0  0  0
  6 28  1  0  0  0  0
  6 29  1  0  0  0  0
  7  9  1  0  0  0  0
  7 30  1  0  0  0  0
  8  9  1  0  0  0  0
  8 31  1  0  0  0  0
  8 32  1  0  0  0  0
  9 33  1  0  0  0  0
  9 34  1  0  0  0  0
 10 35  1  0  0  0  0
 10 36  1  0  0  0  0
 10 37  1  0  0  0  0
 11 38  1  0  0  0  0
 11 39  1  0  0  0  0
 11 40  1  0  0  0  0
 12 13  1  0  0  0  0
 13 14  1  0  0  0  0
 13 15  1  0  0  0  0
 14 16  2  0  0  0  0
 14 18  1  0  0  0  0
 15 17  2  0  0  0  0
 15 19  1  0  0  0  0
 16 20  1  0  0  0  0
 16 42  1  0  0  0  0
 17 21  1  0  0  0  0
 17 43  1  0  0  0  0
 18 22  2  0  0  0  0
 18 44  1  0  0  0  0
 19 23  2  0  0  0  0
 19 45  1  0  0  0  0
 20 24  2  0  0  0  0
 20 46  1  0  0  0  0
 21 25  2  0  0  0  0
 21 47  1  0  0  0  0
 22 24  1  0  0  0  0
 22 48  1  0  0  0  0
 23 25  1  0  0  0  0
 23 49  1  0  0  0  0
 24 50  1  0  0  0  0
 25 51  1  0  0  0  0
M  CHG  1   4   1
M  END
> <PUBCHEM_COMPOUND_CID>
4057

> <PUBCHEM_CONFORMER_RMSD>
0.8

> <PUBCHEM_CONFORMER_DIVERSEORDER>
23
136
120
150
125
57
128
16
157
45
48
15
77
113
123
26
130
135
147
114
140
143
85
6
76
59
107
4
90
117
8
88
58
106
96
154
134
43
89
98
60
149
40
119
12
148
86
30
126
68
99
87
65
72
33
100
54
142
109
44
118
37
24
9
122
7
29
152
19
35
51
146
49
153
5
46
78
10
63
66
83
70
97
137
116
25
2
56
91
121
11
75
112
61
108
129
36
104
141
31
124
103
50
80
3
101
105
138
84
82
32
64
55
73
95
38
18
145
133
115
155
28
27
144
41
14
93
39
20
81
79
69
131
62
92
21
127
102
74
1
67
139
53
17
156
94
13
42
47
71
132
151
52
22
110
34
111

> <PUBCHEM_MMFF94_PARTIAL_CHARGES>
34
1 -0.43
10 0.5
11 0.5
12 0.66
13 0.63
14 -0.14
15 -0.14
16 -0.15
17 -0.15
18 -0.15
19 -0.15
2 -0.68
20 -0.15
21 -0.15
22 -0.15
23 -0.15
24 -0.15
25 -0.15
3 -0.57
4 -1.01
41 0.4
42 0.15
43 0.15
44 0.15
45 0.15
46 0.15
47 0.15
48 0.15
49 0.15
5 0.5
50 0.15
51 0.15
6 0.5
7 0.28

> <PUBCHEM_EFFECTIVE_ROTOR_COUNT>
6.2

> <PUBCHEM_PHARMACOPHORE_FEATURES>
7
1 2 acceptor
1 2 donor
1 3 acceptor
1 4 cation
6 14 16 18 20 22 24 rings
6 15 17 19 21 23 25 rings
6 4 5 6 7 8 9 rings

> <PUBCHEM_HEAVY_ATOM_COUNT>
25

> <PUBCHEM_ATOM_DEF_STEREO_COUNT>
0

> <PUBCHEM_ATOM_UDEF_STEREO_COUNT>
1

> <PUBCHEM_BOND_DEF_STEREO_COUNT>
0

> <PUBCHEM_BOND_UDEF_STEREO_COUNT>
0

> <PUBCHEM_ISOTOPIC_ATOM_COUNT>
0

> <PUBCHEM_COMPONENT_COUNT>
1

> <PUBCHEM_CACTVS_TAUTO_COUNT>
1

> <PUBCHEM_CONFORMER_ID>
00000FD900000017

> <PUBCHEM_MMFF94_ENERGY>
80.5646

> <PUBCHEM_FEATURE_SELFOVERLAP>
35.52

> <PUBCHEM_SHAPE_FINGERPRINT>
10366900 7 17060342886375118955
104564 63 18268996564412572837
10764073 3 15071404592662295276
11421498 54 17703791486888524945
12156800 1 17758921056125527621
12166972 35 18261111838455959723
12293681 4 18130208437522676147
12422481 6 17903348548131233715
12553582 1 18412553136156937443
12633257 1 18270943697259625259
12760667 363 18267030625370762330
12788726 201 18199471133401546538
13009979 54 18041273266984000675
13134695 92 18338518543050725540
13140716 1 18337953360130989867
13681431 1 18265051336794083452
14181834 199 18044946666612793364
14347329 18 16413818057619989309
14347332 77 18194678409751342214
14955137 171 18337376193572042067
15238133 3 18271794779061907381
15420108 30 17681567939579152584
1601671 61 18337103561716670499
16752209 62 18200039585181719450
17357779 13 18335433390674425828
17492 89 18046350730019435911
17980427 23 17531537472744071817
1813 80 18335136496960138998
18981168 100 17913776011882711493
20600515 1 18187366493832382322
21033648 29 17531255001709619107
21285901 2 18043517507507747214
21304303 282 17407436935900913420
21304303 64 17916571047687185108
21330990 113 18042963358037026342
21641784 216 18058716044238578644
23175994 123 18341890796773756071
23402539 116 18337391646806305162
23419403 2 18194148290221826964
23557571 272 18336551633387633590
23558518 356 17977390434298395719
23559900 14 16153430545588890386
2818148 4 17842532090819684175
3027735 51 18122903393990265610
312423 11 18120089490558368439
314173 85 18335425681688229170
340366 18 18261111825228556223
3493558 16 17312827048185272448
350125 39 18123461683993737539
352729 6 17402352840898266170
4409770 3 17984438582957016725
5081480 168 18341328899150801797
550186 7 15502922164372990696
5895379 119 17169801523356356025
6287921 2 17625249811184150831
7164475 11 18127692845545433162
7226269 152 18201729483024520858
7495541 125 18059001788180873723
81228 2 18265886037944462272
9971528 1 18113340790838526330
9981440 41 17327751591108050201

> <PUBCHEM_SHAPE_MULTIPOLES>
491.9
9.18
3.38
1.59
1.7
4.51
0.19
-5.85
-0.43
-0.7
0.32
0.12
-0.03
-0.11

> <PUBCHEM_SHAPE_SELFOVERLAP>
1049.776

> <PUBCHEM_SHAPE_VOLUME>
271.4

> <PUBCHEM_COORDINATE_TYPE>
2
5
10

$$$$

