14015972
  -OEChem-07051213112D

 50 50  0     1  0  0  0  0  0999 V2000
    3.8660   -3.9050    0.0000 O   0  0  0  0  0  0  0  0  0  0  0  0
    9.9282    3.5950    0.0000 O   0  0  0  0  0  0  0  0  0  0  0  0
    3.0000   -1.4050    0.0000 C   0  0  0  0  0  0  0  0  0  0  0  0
    3.0000   -2.4050    0.0000 C   0  0  0  0  0  0  0  0  0  0  0  0
    3.8660   -2.9050    0.0000 C   0  0  3  0  0  0  0  0  0  0  0  0
    3.8660   -0.9050    0.0000 C   0  0  0  0  0  0  0  0  0  0  0  0
    4.7320   -2.4050    0.0000 C   0  0  0  0  0  0  0  0  0  0  0  0
    4.7320   -1.4050    0.0000 C   0  0  0  0  0  0  0  0  0  0  0  0
    2.0000   -1.4050    0.0000 C   0  0  0  0  0  0  0  0  0  0  0  0
    2.5000   -0.5390    0.0000 C   0  0  0  0  0  0  0  0  0  0  0  0
    3.8660    0.0950    0.0000 C   0  0  0  0  0  0  0  0  0  0  0  0
    5.5981   -0.9050    0.0000 C   0  0  0  0  0  0  0  0  0  0  0  0
    4.7320    0.5950    0.0000 C   0  0  0  0  0  0  0  0  0  0  0  0
    4.7320    1.5950    0.0000 C   0  0  0  0  0  0  0  0  0  0  0  0
    3.8660    2.0950    0.0000 C   0  0  0  0  0  0  0  0  0  0  0  0
    5.5981    2.0950    0.0000 C   0  0  0  0  0  0  0  0  0  0  0  0
    5.5981    3.0950    0.0000 C   0  0  0  0  0  0  0  0  0  0  0  0
    6.4641    3.5950    0.0000 C   0  0  0  0  0  0  0  0  0  0  0  0
    7.3301    3.0950    0.0000 C   0  0  0  0  0  0  0  0  0  0  0  0
    7.3301    2.0950    0.0000 C   0  0  0  0  0  0  0  0  0  0  0  0
    8.1962    3.5950    0.0000 C   0  0  0  0  0  0  0  0  0  0  0  0
    9.0622    3.0950    0.0000 C   0  0  0  0  0  0  0  0  0  0  0  0
    2.3894   -2.2973    0.0000 H   0  0  0  0  0  0  0  0  0  0  0  0
    2.7880   -2.9876    0.0000 H   0  0  0  0  0  0  0  0  0  0  0  0
    4.4030   -3.2150    0.0000 H   0  0  0  0  0  0  0  0  0  0  0  0
    4.9441   -2.9876    0.0000 H   0  0  0  0  0  0  0  0  0  0  0  0
    5.3426   -2.2973    0.0000 H   0  0  0  0  0  0  0  0  0  0  0  0
    2.0000   -0.7850    0.0000 H   0  0  0  0  0  0  0  0  0  0  0  0
    1.3800   -1.4050    0.0000 H   0  0  0  0  0  0  0  0  0  0  0  0
    2.0000   -2.0250    0.0000 H   0  0  0  0  0  0  0  0  0  0  0  0
    3.0369   -0.2290    0.0000 H   0  0  0  0  0  0  0  0  0  0  0  0
    2.1900   -0.0020    0.0000 H   0  0  0  0  0  0  0  0  0  0  0  0
    1.9631   -0.8490    0.0000 H   0  0  0  0  0  0  0  0  0  0  0  0
    3.3291    0.4050    0.0000 H   0  0  0  0  0  0  0  0  0  0  0  0
    5.9081   -1.4419    0.0000 H   0  0  0  0  0  0  0  0  0  0  0  0
    6.1350   -0.5950    0.0000 H   0  0  0  0  0  0  0  0  0  0  0  0
    5.2881   -0.3681    0.0000 H   0  0  0  0  0  0  0  0  0  0  0  0
    4.4030   -4.2150    0.0000 H   0  0  0  0  0  0  0  0  0  0  0  0
    5.2690    0.2850    0.0000 H   0  0  0  0  0  0  0  0  0  0  0  0
    4.1760    2.6319    0.0000 H   0  0  0  0  0  0  0  0  0  0  0  0
    3.3291    2.4050    0.0000 H   0  0  0  0  0  0  0  0  0  0  0  0
    3.5560    1.5581    0.0000 H   0  0  0  0  0  0  0  0  0  0  0  0
    6.1350    1.7850    0.0000 H   0  0  0  0  0  0  0  0  0  0  0  0
    5.0611    3.4050    0.0000 H   0  0  0  0  0  0  0  0  0  0  0  0
    6.4641    4.2150    0.0000 H   0  0  0  0  0  0  0  0  0  0  0  0
    6.7101    2.0950    0.0000 H   0  0  0  0  0  0  0  0  0  0  0  0
    7.3301    1.4750    0.0000 H   0  0  0  0  0  0  0  0  0  0  0  0
    7.9501    2.0950    0.0000 H   0  0  0  0  0  0  0  0  0  0  0  0
    8.1962    4.2150    0.0000 H   0  0  0  0  0  0  0  0  0  0  0  0
    9.0622    2.4750    0.0000 H   0  0  0  0  0  0  0  0  0  0  0  0
  1  5  1  0  0  0  0
  1 38  1  0  0  0  0
  2 22  2  0  0  0  0
  3  4  1  0  0  0  0
  3  6  1  0  0  0  0
  3  9  1  0  0  0  0
  3 10  1  0  0  0  0
  4  5  1  0  0  0  0
  4 23  1  0  0  0  0
  4 24  1  0  0  0  0
  5  7  1  0  0  0  0
  5 25  1  0  0  0  0
  6  8  2  0  0  0  0
  6 11  1  0  0  0  0
  7  8  1  0  0  0  0
  7 26  1  0  0  0  0
  7 27  1  0  0  0  0
  8 12  1  0  0  0  0
  9 28  1  0  0  0  0
  9 29  1  0  0  0  0
  9 30  1  0  0  0  0
 10 31  1  0  0  0  0
 10 32  1  0  0  0  0
 10 33  1  0  0  0  0
 11 13  2  0  0  0  0
 11 34  1  0  0  0  0
 12 35  1  0  0  0  0
 12 36  1  0  0  0  0
 12 37  1  0  0  0  0
 13 14  1  0  0  0  0
 13 39  1  0  0  0  0
 14 15  1  0  0  0  0
 14 16  2  0  0  0  0
 15 40  1  0  0  0  0
 15 41  1  0  0  0  0
 15 42  1  0  0  0  0
 16 17  1  0  0  0  0
 16 43  1  0  0  0  0
 17 18  2  0  0  0  0
 17 44  1  0  0  0  0
 18 19  1  0  0  0  0
 18 45  1  0  0  0  0
 19 20  1  0  0  0  0
 19 21  2  0  0  0  0
 20 46  1  0  0  0  0
 20 47  1  0  0  0  0
 20 48  1  0  0  0  0
 21 22  1  0  0  0  0
 21 49  1  0  0  0  0
 22 50  1  0  0  0  0
M  END
> <PUBCHEM_COMPOUND_CID>
14015972

> <PUBCHEM_COMPOUND_CANONICALIZED>
1

> <PUBCHEM_CACTVS_COMPLEXITY>
554

> <PUBCHEM_CACTVS_HBOND_ACCEPTOR>
2

> <PUBCHEM_CACTVS_HBOND_DONOR>
1

> <PUBCHEM_CACTVS_ROTATABLE_BOND>
5

> <PUBCHEM_CACTVS_SUBSKEYS>
AAADceB4MAAAAAAAAAAAAAAAAAAAAAAAAAAgAAAAAAAAAAAAAAAAGgAACAAADhSggAICAAAAAgCIAihSgAAAAAAgAAAICAAAAEgIEAIAAQAAQAAEwAAIgQOAgMAPAAAAAAAAAAAAAAAAAAAAAAAAAAAAAA==

> <PUBCHEM_IUPAC_OPENEYE_NAME>
(2E,4Z,6E,8E)-9-(4-hydroxy-2,6,6-trimethyl-cyclohexen-1-yl)-3,7-dimethyl-nona-2,4,6,8-tetraenal

> <PUBCHEM_IUPAC_CAS_NAME>
(2E,4Z,6E,8E)-9-(4-hydroxy-2,6,6-trimethyl-1-cyclohexenyl)-3,7-dimethylnona-2,4,6,8-tetraenal

> <PUBCHEM_IUPAC_NAME>
(2E,4Z,6E,8E)-9-(4-hydroxy-2,6,6-trimethylcyclohexen-1-yl)-3,7-dimethylnona-2,4,6,8-tetraenal

> <PUBCHEM_IUPAC_SYSTEMATIC_NAME>
(2E,4Z,6E,8E)-3,7-dimethyl-9-(2,6,6-trimethyl-4-oxidanyl-cyclohexen-1-yl)nona-2,4,6,8-tetraenal

> <PUBCHEM_IUPAC_TRADITIONAL_NAME>
(2E,4Z,6E,8E)-9-(4-hydroxy-2,6,6-trimethyl-cyclohexen-1-yl)-3,7-dimethyl-nona-2,4,6,8-tetraenal

> <PUBCHEM_IUPAC_INCHI>
InChI=1S/C20H28O2/c1-15(7-6-8-16(2)11-12-21)9-10-19-17(3)13-18(22)14-20(19,4)5/h6-12,18,22H,13-14H2,1-5H3/b8-6-,10-9+,15-7+,16-11+

> <PUBCHEM_IUPAC_INCHIKEY>
QPRQNCDEPWLQRO-SKVGZCNQSA-N

> <PUBCHEM_XLOGP3_AA>
4.5

> <PUBCHEM_EXACT_MASS>
300.20893

> <PUBCHEM_MOLECULAR_FORMULA>
C20H28O2

> <PUBCHEM_MOLECULAR_WEIGHT>
300.43512

> <PUBCHEM_OPENEYE_CAN_SMILES>
CC1=C(C(CC(C1)O)(C)C)C=CC(=CC=CC(=CC=O)C)C

> <PUBCHEM_OPENEYE_ISO_SMILES>
CC1=C(C(CC(C1)O)(C)C)/C=C/C(=C/C=C\C(=C\C=O)\C)/C

> <PUBCHEM_CACTVS_TPSA>
37.3

> <PUBCHEM_MONOISOTOPIC_WEIGHT>
300.20893

> <PUBCHEM_TOTAL_CHARGE>
0

> <PUBCHEM_HEAVY_ATOM_COUNT>
22

> <PUBCHEM_ATOM_DEF_STEREO_COUNT>
0

> <PUBCHEM_ATOM_UDEF_STEREO_COUNT>
1

> <PUBCHEM_BOND_DEF_STEREO_COUNT>
4

> <PUBCHEM_BOND_UDEF_STEREO_COUNT>
0

> <PUBCHEM_ISOTOPIC_ATOM_COUNT>
0

> <PUBCHEM_COMPONENT_COUNT>
1

> <PUBCHEM_CACTVS_TAUTO_COUNT>
1

> <PUBCHEM_COORDINATE_TYPE>
1
5
255

> <PUBCHEM_BONDANNOTATIONS>
5  1  3

$$$$

