583348
  -OEChem-06241222452D

 28 29  0     1  0  0  0  0  0999 V2000
    4.2690   -0.7990    0.0000 O   0  0  0  0  0  0  0  0  0  0  0  0
    2.5369   -0.7990    0.0000 N   0  0  0  0  0  0  0  0  0  0  0  0
    3.4030   -0.2990    0.0000 C   0  0  3  0  0  0  0  0  0  0  0  0
    2.5369   -1.7990    0.0000 C   0  0  0  0  0  0  0  0  0  0  0  0
    3.4030   -2.2990    0.0000 C   0  0  0  0  0  0  0  0  0  0  0  0
    4.2690   -1.7990    0.0000 C   0  0  0  0  0  0  0  0  0  0  0  0
    3.9030    0.5670    0.0000 C   0  0  0  0  0  0  0  0  0  0  0  0
    2.9030    0.5670    0.0000 C   0  0  0  0  0  0  0  0  0  0  0  0
    4.9030    0.5670    0.0000 C   0  0  0  0  0  0  0  0  0  0  0  0
    3.4030    1.4330    0.0000 C   0  0  0  0  0  0  0  0  0  0  0  0
    5.4030    1.4330    0.0000 C   0  0  0  0  0  0  0  0  0  0  0  0
    3.9030    2.2990    0.0000 C   0  0  0  0  0  0  0  0  0  0  0  0
    4.9030    2.2990    0.0000 C   0  0  0  0  0  0  0  0  0  0  0  0
    1.9264   -1.6914    0.0000 H   0  0  0  0  0  0  0  0  0  0  0  0
    2.3249   -2.3816    0.0000 H   0  0  0  0  0  0  0  0  0  0  0  0
    2.0000   -0.4890    0.0000 H   0  0  0  0  0  0  0  0  0  0  0  0
    3.0044   -2.7740    0.0000 H   0  0  0  0  0  0  0  0  0  0  0  0
    3.8015   -2.7740    0.0000 H   0  0  0  0  0  0  0  0  0  0  0  0
    4.4810   -2.3816    0.0000 H   0  0  0  0  0  0  0  0  0  0  0  0
    4.8796   -1.6914    0.0000 H   0  0  0  0  0  0  0  0  0  0  0  0
    3.4399    0.8770    0.0000 H   0  0  0  0  0  0  0  0  0  0  0  0
    2.5930    1.1039    0.0000 H   0  0  0  0  0  0  0  0  0  0  0  0
    2.3660    0.2570    0.0000 H   0  0  0  0  0  0  0  0  0  0  0  0
    5.2130    0.0301    0.0000 H   0  0  0  0  0  0  0  0  0  0  0  0
    2.7830    1.4330    0.0000 H   0  0  0  0  0  0  0  0  0  0  0  0
    6.0230    1.4330    0.0000 H   0  0  0  0  0  0  0  0  0  0  0  0
    3.5930    2.8360    0.0000 H   0  0  0  0  0  0  0  0  0  0  0  0
    5.2130    2.8360    0.0000 H   0  0  0  0  0  0  0  0  0  0  0  0
  1  3  1  0  0  0  0
  1  6  1  0  0  0  0
  2  3  1  0  0  0  0
  2  4  1  0  0  0  0
  2 16  1  0  0  0  0
  3  7  1  0  0  0  0
  3  8  1  0  0  0  0
  4  5  1  0  0  0  0
  4 14  1  0  0  0  0
  4 15  1  0  0  0  0
  5  6  1  0  0  0  0
  5 17  1  0  0  0  0
  5 18  1  0  0  0  0
  6 19  1  0  0  0  0
  6 20  1  0  0  0  0
  7  9  2  0  0  0  0
  7 10  1  0  0  0  0
  8 21  1  0  0  0  0
  8 22  1  0  0  0  0
  8 23  1  0  0  0  0
  9 11  1  0  0  0  0
  9 24  1  0  0  0  0
 10 12  2  0  0  0  0
 10 25  1  0  0  0  0
 11 13  2  0  0  0  0
 11 26  1  0  0  0  0
 12 13  1  0  0  0  0
 12 27  1  0  0  0  0
 13 28  1  0  0  0  0
M  END
> <PUBCHEM_COMPOUND_CID>
583348

> <PUBCHEM_COMPOUND_CANONICALIZED>
1

> <PUBCHEM_CACTVS_COMPLEXITY>
166

> <PUBCHEM_CACTVS_HBOND_ACCEPTOR>
2

> <PUBCHEM_CACTVS_HBOND_DONOR>
1

> <PUBCHEM_CACTVS_ROTATABLE_BOND>
1

> <PUBCHEM_CACTVS_SUBSKEYS>
AAADccByIAAAAAAAAAAAAAAAAAAAAAAAAAA8QAAAAAAAAAABAAAAHgAQAAAADAzhmAYyAILABACAAiBCAACCAAAgAAAIiIAIDIkIJiKAsRmOMAhm0AGIqAeQwKAOAAAAAAAAAAAAAAAAAAAAAAAAAAAAAA==

> <PUBCHEM_IUPAC_OPENEYE_NAME>
2-methyl-2-phenyl-1,3-oxazinane

> <PUBCHEM_IUPAC_CAS_NAME>
2-methyl-2-phenyl-1,3-oxazinane

> <PUBCHEM_IUPAC_NAME>
2-methyl-2-phenyl-1,3-oxazinane

> <PUBCHEM_IUPAC_SYSTEMATIC_NAME>
2-methyl-2-phenyl-1,3-oxazinane

> <PUBCHEM_IUPAC_TRADITIONAL_NAME>
2-methyl-2-phenyl-1,3-oxazinane

> <PUBCHEM_IUPAC_INCHI>
InChI=1S/C11H15NO/c1-11(12-8-5-9-13-11)10-6-3-2-4-7-10/h2-4,6-7,12H,5,8-9H2,1H3

> <PUBCHEM_IUPAC_INCHIKEY>
QAPLNTCALZVDJI-UHFFFAOYSA-N

> <PUBCHEM_XLOGP3_AA>
1.6

> <PUBCHEM_EXACT_MASS>
177.115364

> <PUBCHEM_MOLECULAR_FORMULA>
C11H15NO

> <PUBCHEM_MOLECULAR_WEIGHT>
177.2429

> <PUBCHEM_OPENEYE_CAN_SMILES>
CC1(NCCCO1)C2=CC=CC=C2

> <PUBCHEM_OPENEYE_ISO_SMILES>
CC1(NCCCO1)C2=CC=CC=C2

> <PUBCHEM_CACTVS_TPSA>
21.3

> <PUBCHEM_MONOISOTOPIC_WEIGHT>
177.115364

> <PUBCHEM_TOTAL_CHARGE>
0

> <PUBCHEM_HEAVY_ATOM_COUNT>
13

> <PUBCHEM_ATOM_DEF_STEREO_COUNT>
0

> <PUBCHEM_ATOM_UDEF_STEREO_COUNT>
1

> <PUBCHEM_BOND_DEF_STEREO_COUNT>
0

> <PUBCHEM_BOND_UDEF_STEREO_COUNT>
0

> <PUBCHEM_ISOTOPIC_ATOM_COUNT>
0

> <PUBCHEM_COMPONENT_COUNT>
1

> <PUBCHEM_CACTVS_TAUTO_COUNT>
1

> <PUBCHEM_COORDINATE_TYPE>
1
5
255

> <PUBCHEM_BONDANNOTATIONS>
10  12  8
11  13  8
12  13  8
3  8  3
7  10  8
7  9  8
9  11  8

$$$$

