46173957
  -OEChem-07051213103D

 63 64  0     1  0  0  0  0  0999 V2000
    1.3392   -0.6877    0.3149 O   0  0  0  0  0  0  0  0  0  0  0  0
   -1.3183   -1.0967   -0.2173 O   0  0  0  0  0  0  0  0  0  0  0  0
    3.0799    0.8258    0.0038 O   0  0  0  0  0  0  0  0  0  0  0  0
    1.2990   -4.3391    0.7110 O   0  0  0  0  0  0  0  0  0  0  0  0
    3.9571   -3.6159    1.5227 O   0  0  0  0  0  0  0  0  0  0  0  0
   -3.3887   -2.1492   -0.4584 O   0  0  0  0  0  0  0  0  0  0  0  0
    4.9315   -1.3411   -0.0080 O   0  0  0  0  0  0  0  0  0  0  0  0
   -2.6675    1.3557    0.3360 O   0  0  0  0  0  0  0  0  0  0  0  0
   -5.2717    1.4770   -0.9054 O   0  0  0  0  0  0  0  0  0  0  0  0
   -6.8270   -0.9453   -0.2666 O   0  0  0  0  0  0  0  0  0  0  0  0
    0.8554   -2.0207    0.1412 C   0  0  1  0  0  0  0  0  0  0  0  0
    1.7078   -2.9959    0.9566 C   0  0  2  0  0  0  0  0  0  0  0  0
    3.1839   -2.8732    0.5783 C   0  0  1  0  0  0  0  0  0  0  0  0
    3.6397   -1.4140    0.5936 C   0  0  2  0  0  0  0  0  0  0  0  0
    2.6673   -0.5198   -0.1756 C   0  0  1  0  0  0  0  0  0  0  0  0
   -0.6070   -2.0292    0.5760 C   0  0  0  0  0  0  0  0  0  0  0  0
   -2.7004   -1.0495    0.1343 C   0  0  2  0  0  0  0  0  0  0  0  0
   -3.2694    0.2751   -0.3765 C   0  0  1  0  0  0  0  0  0  0  0  0
   -4.7830    0.3504   -0.1763 C   0  0  2  0  0  0  0  0  0  0  0  0
   -5.4661   -0.9197   -0.6817 C   0  0  1  0  0  0  0  0  0  0  0  0
   -4.7734   -2.1572   -0.1290 C   0  0  0  0  0  0  0  0  0  0  0  0
    2.7459    1.6261   -1.1306 C   0  0  1  0  0  0  0  0  0  0  0  0
    2.4556    3.0520   -0.6385 C   0  0  0  0  0  0  0  0  0  0  0  0
    1.2864    3.1402    0.3458 C   0  0  0  0  0  0  0  0  0  0  0  0
    3.8440    1.5699   -2.1609 C   0  0  0  0  0  0  0  0  0  0  0  0
    0.9963    4.5923    0.7326 C   0  0  0  0  0  0  0  0  0  0  0  0
   -0.1967    4.6863    1.6836 C   0  0  0  0  0  0  0  0  0  0  0  0
    3.7481    1.0794   -3.4029 C   0  0  0  0  0  0  0  0  0  0  0  0
   -0.4678    6.1240    2.0972 C   0  0  0  0  0  0  0  0  0  0  0  0
    0.8905   -2.2683   -0.9286 H   0  0  0  0  0  0  0  0  0  0  0  0
    1.5851   -2.8071    2.0300 H   0  0  0  0  0  0  0  0  0  0  0  0
    3.3755   -3.3319   -0.3991 H   0  0  0  0  0  0  0  0  0  0  0  0
    3.7514   -1.0587    1.6250 H   0  0  0  0  0  0  0  0  0  0  0  0
    2.6995   -0.7935   -1.2393 H   0  0  0  0  0  0  0  0  0  0  0  0
   -1.0381   -3.0293    0.4556 H   0  0  0  0  0  0  0  0  0  0  0  0
   -0.6805   -1.7298    1.6287 H   0  0  0  0  0  0  0  0  0  0  0  0
   -2.7970   -1.0962    1.2282 H   0  0  0  0  0  0  0  0  0  0  0  0
   -3.0146    0.4155   -1.4339 H   0  0  0  0  0  0  0  0  0  0  0  0
   -5.0352    0.5331    0.8749 H   0  0  0  0  0  0  0  0  0  0  0  0
   -5.4498   -0.9333   -1.7783 H   0  0  0  0  0  0  0  0  0  0  0  0
   -5.2193   -3.0604   -0.5602 H   0  0  0  0  0  0  0  0  0  0  0  0
   -4.9007   -2.2416    0.9578 H   0  0  0  0  0  0  0  0  0  0  0  0
    1.8106    1.2583   -1.5776 H   0  0  0  0  0  0  0  0  0  0  0  0
    1.3646   -4.5031   -0.2452 H   0  0  0  0  0  0  0  0  0  0  0  0
    3.8144   -3.2269    2.4024 H   0  0  0  0  0  0  0  0  0  0  0  0
    4.8483   -1.6200   -0.9359 H   0  0  0  0  0  0  0  0  0  0  0  0
    2.2504    3.6968   -1.5028 H   0  0  0  0  0  0  0  0  0  0  0  0
    3.3506    3.4533   -0.1445 H   0  0  0  0  0  0  0  0  0  0  0  0
    1.5112    2.5586    1.2475 H   0  0  0  0  0  0  0  0  0  0  0  0
    0.3925    2.6971   -0.1100 H   0  0  0  0  0  0  0  0  0  0  0  0
   -2.8569    1.2356    1.2822 H   0  0  0  0  0  0  0  0  0  0  0  0
   -5.0804    1.3337   -1.8480 H   0  0  0  0  0  0  0  0  0  0  0  0
    4.8115    1.9583   -1.8485 H   0  0  0  0  0  0  0  0  0  0  0  0
    0.7911    5.1812   -0.1697 H   0  0  0  0  0  0  0  0  0  0  0  0
    1.8832    5.0282    1.2085 H   0  0  0  0  0  0  0  0  0  0  0  0
   -7.2274   -1.7579   -0.6203 H   0  0  0  0  0  0  0  0  0  0  0  0
   -1.0909    4.2747    1.2011 H   0  0  0  0  0  0  0  0  0  0  0  0
   -0.0064    4.0852    2.5804 H   0  0  0  0  0  0  0  0  0  0  0  0
    4.6074    1.0813   -4.0642 H   0  0  0  0  0  0  0  0  0  0  0  0
    2.8158    0.6700   -3.7756 H   0  0  0  0  0  0  0  0  0  0  0  0
    0.3966    6.5535    2.6136 H   0  0  0  0  0  0  0  0  0  0  0  0
   -0.6923    6.7471    1.2256 H   0  0  0  0  0  0  0  0  0  0  0  0
   -1.3252    6.1677    2.7761 H   0  0  0  0  0  0  0  0  0  0  0  0
  1 11  1  0  0  0  0
  1 15  1  0  0  0  0
  2 16  1  0  0  0  0
  2 17  1  0  0  0  0
  3 15  1  0  0  0  0
  3 22  1  0  0  0  0
  4 12  1  0  0  0  0
  4 44  1  0  0  0  0
  5 13  1  0  0  0  0
  5 45  1  0  0  0  0
  6 17  1  0  0  0  0
  6 21  1  0  0  0  0
  7 14  1  0  0  0  0
  7 46  1  0  0  0  0
  8 18  1  0  0  0  0
  8 51  1  0  0  0  0
  9 19  1  0  0  0  0
  9 52  1  0  0  0  0
 10 20  1  0  0  0  0
 10 56  1  0  0  0  0
 11 12  1  0  0  0  0
 11 16  1  0  0  0  0
 11 30  1  0  0  0  0
 12 13  1  0  0  0  0
 12 31  1  0  0  0  0
 13 14  1  0  0  0  0
 13 32  1  0  0  0  0
 14 15  1  0  0  0  0
 14 33  1  0  0  0  0
 15 34  1  0  0  0  0
 16 35  1  0  0  0  0
 16 36  1  0  0  0  0
 17 18  1  0  0  0  0
 17 37  1  0  0  0  0
 18 19  1  0  0  0  0
 18 38  1  0  0  0  0
 19 20  1  0  0  0  0
 19 39  1  0  0  0  0
 20 21  1  0  0  0  0
 20 40  1  0  0  0  0
 21 41  1  0  0  0  0
 21 42  1  0  0  0  0
 22 23  1  0  0  0  0
 22 25  1  0  0  0  0
 22 43  1  0  0  0  0
 23 24  1  0  0  0  0
 23 47  1  0  0  0  0
 23 48  1  0  0  0  0
 24 26  1  0  0  0  0
 24 49  1  0  0  0  0
 24 50  1  0  0  0  0
 25 28  2  0  0  0  0
 25 53  1  0  0  0  0
 26 27  1  0  0  0  0
 26 54  1  0  0  0  0
 26 55  1  0  0  0  0
 27 29  1  0  0  0  0
 27 57  1  0  0  0  0
 27 58  1  0  0  0  0
 28 59  1  0  0  0  0
 28 60  1  0  0  0  0
 29 61  1  0  0  0  0
 29 62  1  0  0  0  0
 29 63  1  0  0  0  0
M  END
> <PUBCHEM_COMPOUND_CID>
46173957

> <PUBCHEM_CONFORMER_RMSD>
1.2

> <PUBCHEM_CONFORMER_DIVERSEORDER>
1
83
62
5
103
113
95
104
114
61
66
77
75
98
86
18
29
34
3
22
72
55
73
89
38
100
78
70
12
60
36
107
52
23
40
58
87
81
35
65
82
53
94
49
45
46
88
64
37
21
31
59
7
42
91
28
39
11
109
93
41
63
19
106
85
24
26
33
56
110
80
105
20
10
90
69
48
51
30
9
4
44
108
15
2
84
67
112
6
96
74
8
57
27
99
32
101
54
71
111
97
43
13
92
68
47
102
14
17
79
16
25
76
50

> <PUBCHEM_MMFF94_PARTIAL_CHARGES>
33
1 -0.56
10 -0.68
11 0.28
12 0.28
13 0.28
14 0.28
15 0.56
16 0.28
17 0.56
18 0.28
19 0.28
2 -0.56
20 0.28
21 0.28
22 0.42
25 -0.29
28 -0.3
3 -0.56
4 -0.68
44 0.4
45 0.4
46 0.4
5 -0.68
51 0.4
52 0.4
53 0.15
56 0.4
59 0.15
6 -0.56
60 0.15
7 -0.68
8 -0.68
9 -0.68

> <PUBCHEM_EFFECTIVE_ROTOR_COUNT>
12.4

> <PUBCHEM_PHARMACOPHORE_FEATURES>
21
1 1 acceptor
1 10 acceptor
1 10 donor
1 2 acceptor
1 28 hydrophobe
1 29 hydrophobe
1 3 acceptor
1 4 acceptor
1 4 donor
1 5 acceptor
1 5 donor
1 6 acceptor
1 7 acceptor
1 7 donor
1 8 acceptor
1 8 donor
1 9 acceptor
1 9 donor
4 23 24 26 27 hydrophobe
6 1 11 12 13 14 15 rings
6 6 17 18 19 20 21 rings

> <PUBCHEM_HEAVY_ATOM_COUNT>
29

> <PUBCHEM_ATOM_DEF_STEREO_COUNT>
9

> <PUBCHEM_ATOM_UDEF_STEREO_COUNT>
1

> <PUBCHEM_BOND_DEF_STEREO_COUNT>
0

> <PUBCHEM_BOND_UDEF_STEREO_COUNT>
0

> <PUBCHEM_ISOTOPIC_ATOM_COUNT>
0

> <PUBCHEM_COMPONENT_COUNT>
1

> <PUBCHEM_CACTVS_TAUTO_COUNT>
1

> <PUBCHEM_CONFORMER_ID>
02C08F0500000001

> <PUBCHEM_MMFF94_ENERGY>
65.0488

> <PUBCHEM_FEATURE_SELFOVERLAP>
106.681

> <PUBCHEM_SHAPE_FINGERPRINT>
114674 6 18047473326943485857
12107183 9 17042614682600612195
12293681 160 18195786502665577916
12769317 202 18270127811585198205
12788726 201 18263345036297566860
13533116 47 18272090474876081311
138480 1 18409738352225460025
14114211 68 17915153785424458359
14150022 121 18049748475180068410
14931854 50 18339346484007334404
15351339 4 18411980243607894968
18681886 176 18334867099458728426
21304303 172 18122347049944374586
21344244 78 18268169701804467306
23559900 14 18341625836331777827
4015057 19 18340220647981957043
474 4 17917711279530758735
513532 50 18040710325968621884
653340 110 17831312961859100136

> <PUBCHEM_SHAPE_MULTIPOLES>
538.11
11.26
7.18
1.78
17.79
9.62
1.21
-4.9
4.87
-4.78
-6.17
-2.58
1.49
-2.39

> <PUBCHEM_SHAPE_SELFOVERLAP>
1073.814

> <PUBCHEM_SHAPE_VOLUME>
313.8

> <PUBCHEM_COORDINATE_TYPE>
2
5
10

$$$$

