5483872
  -OEChem-07051213123D

 37 38  0     0  0  0  0  0  0999 V2000
    0.8340    0.6956   -0.8957 O   0  0  0  0  0  0  0  0  0  0  0  0
   -2.5778    1.1316   -1.6961 O   0  0  0  0  0  0  0  0  0  0  0  0
   -0.4058   -2.4246   -0.4314 O   0  0  0  0  0  0  0  0  0  0  0  0
   -2.3656   -2.4019    0.8628 N   0  0  0  0  0  0  0  0  0  0  0  0
   -2.4171   -0.2427   -1.4713 N   0  0  0  0  0  0  0  0  0  0  0  0
   -1.1743    0.6417    0.4142 C   0  0  0  0  0  0  0  0  0  0  0  0
    0.0675    1.1687    0.1272 C   0  0  0  0  0  0  0  0  0  0  0  0
   -1.9540    1.1156    1.4495 C   0  0  0  0  0  0  0  0  0  0  0  0
   -1.7097   -0.4770   -0.4073 C   0  0  0  0  0  0  0  0  0  0  0  0
    0.5519    2.2165    0.9103 C   0  0  0  0  0  0  0  0  0  0  0  0
   -1.4694    2.1633    2.2325 C   0  0  0  0  0  0  0  0  0  0  0  0
   -0.2165    2.7137    1.9629 C   0  0  0  0  0  0  0  0  0  0  0  0
    2.0798    0.1823   -0.5800 C   0  0  0  0  0  0  0  0  0  0  0  0
   -1.4122   -1.8934    0.0096 C   0  0  0  0  0  0  0  0  0  0  0  0
    2.2027   -0.6741    0.4996 C   0  0  0  0  0  0  0  0  0  0  0  0
    3.1713    0.5391   -1.3517 C   0  0  0  0  0  0  0  0  0  0  0  0
    3.4586   -1.1908    0.8181 C   0  0  0  0  0  0  0  0  0  0  0  0
    4.4272    0.0223   -1.0332 C   0  0  0  0  0  0  0  0  0  0  0  0
    4.5707   -0.8427    0.0518 C   0  0  0  0  0  0  0  0  0  0  0  0
   -2.3037   -3.7414    1.3983 C   0  0  0  0  0  0  0  0  0  0  0  0
   -3.3576    1.2982   -2.8701 C   0  0  0  0  0  0  0  0  0  0  0  0
   -2.9311    0.6933    1.6643 H   0  0  0  0  0  0  0  0  0  0  0  0
    1.5211    2.6649    0.7080 H   0  0  0  0  0  0  0  0  0  0  0  0
   -2.0681    2.5513    3.0514 H   0  0  0  0  0  0  0  0  0  0  0  0
    0.1596    3.5312    2.5710 H   0  0  0  0  0  0  0  0  0  0  0  0
    1.3548   -0.9680    1.1097 H   0  0  0  0  0  0  0  0  0  0  0  0
    3.0610    1.2126   -2.1962 H   0  0  0  0  0  0  0  0  0  0  0  0
    3.5704   -1.8655    1.6619 H   0  0  0  0  0  0  0  0  0  0  0  0
    5.2933    0.2934   -1.6298 H   0  0  0  0  0  0  0  0  0  0  0  0
   -3.1554   -1.8219    1.1309 H   0  0  0  0  0  0  0  0  0  0  0  0
    5.5485   -1.2454    0.2995 H   0  0  0  0  0  0  0  0  0  0  0  0
   -3.1911   -4.2842    1.0637 H   0  0  0  0  0  0  0  0  0  0  0  0
   -2.3107   -3.6737    2.4888 H   0  0  0  0  0  0  0  0  0  0  0  0
   -1.4025   -4.2609    1.0639 H   0  0  0  0  0  0  0  0  0  0  0  0
   -2.8479    0.8552   -3.7315 H   0  0  0  0  0  0  0  0  0  0  0  0
   -3.4868    2.3684   -3.0511 H   0  0  0  0  0  0  0  0  0  0  0  0
   -4.3439    0.8421   -2.7398 H   0  0  0  0  0  0  0  0  0  0  0  0
  1  7  1  0  0  0  0
  1 13  1  0  0  0  0
  2  5  1  0  0  0  0
  2 21  1  0  0  0  0
  3 14  2  0  0  0  0
  4 14  1  0  0  0  0
  4 20  1  0  0  0  0
  4 30  1  0  0  0  0
  5  9  2  0  0  0  0
  6  7  1  0  0  0  0
  6  8  2  0  0  0  0
  6  9  1  0  0  0  0
  7 10  2  0  0  0  0
  8 11  1  0  0  0  0
  8 22  1  0  0  0  0
  9 14  1  0  0  0  0
 10 12  1  0  0  0  0
 10 23  1  0  0  0  0
 11 12  2  0  0  0  0
 11 24  1  0  0  0  0
 12 25  1  0  0  0  0
 13 15  2  0  0  0  0
 13 16  1  0  0  0  0
 15 17  1  0  0  0  0
 15 26  1  0  0  0  0
 16 18  2  0  0  0  0
 16 27  1  0  0  0  0
 17 19  2  0  0  0  0
 17 28  1  0  0  0  0
 18 19  1  0  0  0  0
 18 29  1  0  0  0  0
 19 31  1  0  0  0  0
 20 32  1  0  0  0  0
 20 33  1  0  0  0  0
 20 34  1  0  0  0  0
 21 35  1  0  0  0  0
 21 36  1  0  0  0  0
 21 37  1  0  0  0  0
M  END
> <PUBCHEM_COMPOUND_CID>
5483872

> <PUBCHEM_CONFORMER_RMSD>
0.8

> <PUBCHEM_CONFORMER_DIVERSEORDER>
2
21
17
14
36
31
24
13
7
8
35
26
23
15
29
34
22
19
30
9
12
5
16
6
25
20
11
18
10
28
27
33
32
1
4
3

> <PUBCHEM_MMFF94_PARTIAL_CHARGES>
31
1 -0.17
10 -0.15
11 -0.15
12 -0.15
13 0.08
14 0.63
15 -0.15
16 -0.15
17 -0.15
18 -0.15
19 -0.15
2 -0.22
20 0.3
21 0.28
22 0.15
23 0.15
24 0.15
25 0.15
26 0.15
27 0.15
28 0.15
29 0.15
3 -0.57
30 0.37
31 0.15
4 -0.73
5 -0.51
6 0.09
7 0.08
8 -0.15
9 0.36

> <PUBCHEM_EFFECTIVE_ROTOR_COUNT>
6

> <PUBCHEM_PHARMACOPHORE_FEATURES>
6
1 1 acceptor
1 3 acceptor
1 4 donor
1 5 acceptor
6 13 15 16 17 18 19 rings
6 6 7 8 10 11 12 rings

> <PUBCHEM_HEAVY_ATOM_COUNT>
21

> <PUBCHEM_ATOM_DEF_STEREO_COUNT>
0

> <PUBCHEM_ATOM_UDEF_STEREO_COUNT>
0

> <PUBCHEM_BOND_DEF_STEREO_COUNT>
1

> <PUBCHEM_BOND_UDEF_STEREO_COUNT>
0

> <PUBCHEM_ISOTOPIC_ATOM_COUNT>
0

> <PUBCHEM_COMPONENT_COUNT>
1

> <PUBCHEM_CACTVS_TAUTO_COUNT>
2

> <PUBCHEM_CONFORMER_ID>
0053AD6000000002

> <PUBCHEM_MMFF94_ENERGY>
66.5989

> <PUBCHEM_FEATURE_SELFOVERLAP>
30.446

> <PUBCHEM_SHAPE_FINGERPRINT>
10366900 7 17822588182879939354
11578080 2 18199474272395555092
12363563 72 17749399134904099884
12553582 1 17897711073111926542
12592029 89 17630333162540023315
12714826 92 18270961220014198287
12788726 201 18113890615198220841
12824470 246 18127959828627312722
13140716 1 18115009827925223872
13149001 5 18118993350199916245
13631057 29 18125710207032037294
14817 1 16689700698958825117
15420108 30 15737136021222370808
16752209 62 18191320470446933460
16945 1 18342182184577203284
20602899 9 18270409411374371303
21524375 3 17030202226798283936
229495 10 17487307427078537405
23402539 116 17822019756078292156
23419403 2 18118412735051294017
23526113 38 17973187061695567465
23558518 356 17973153221553673566
23559900 14 18338247028978497346
2748010 2 18118980086971588865
298252 57 17273713133112952685
427121 178 16883810972411728953
6438718 38 17314211418965362073
81228 2 17896035606243175840

> <PUBCHEM_SHAPE_MULTIPOLES>
404.6
6.44
3.25
2.19
7.55
1.97
0.85
1.8
2.51
-3.09
-2.42
-2.32
-1.23
0.52

> <PUBCHEM_SHAPE_SELFOVERLAP>
859.899

> <PUBCHEM_SHAPE_VOLUME>
225.9

> <PUBCHEM_COORDINATE_TYPE>
2
5
10

$$$$

