256729
  -OEChem-07051213063D

 57 60  0     1  0  0  0  0  0999 V2000
    5.3305   -0.2853   -0.1451 O   0  0  0  0  0  0  0  0  0  0  0  0
   -6.3498    2.4973   -0.3431 O   0  0  0  0  0  0  0  0  0  0  0  0
    5.7289    1.8135   -1.0245 O   0  0  0  0  0  0  0  0  0  0  0  0
   -0.4074   -0.7964   -0.3415 C   0  0  2  0  0  0  0  0  0  0  0  0
    1.0871   -0.8294    0.1498 C   0  0  2  0  0  0  0  0  0  0  0  0
   -1.2423    0.2928    0.4142 C   0  0  2  0  0  0  0  0  0  0  0  0
   -2.6607    0.2740   -0.1571 C   0  0  1  0  0  0  0  0  0  0  0  0
    1.6701    0.6093   -0.0379 C   0  0  1  0  0  0  0  0  0  0  0  0
   -3.3594   -1.0883    0.0717 C   0  0  2  0  0  0  0  0  0  0  0  0
   -1.1129   -2.1822   -0.3644 C   0  0  0  0  0  0  0  0  0  0  0  0
   -0.5936    1.6771    0.2879 C   0  0  0  0  0  0  0  0  0  0  0  0
    0.8702    1.6723    0.7245 C   0  0  0  0  0  0  0  0  0  0  0  0
   -2.6021   -2.1227   -0.7667 C   0  0  0  0  0  0  0  0  0  0  0  0
    1.9308   -1.7994   -0.7253 C   0  0  0  0  0  0  0  0  0  0  0  0
    3.1665    0.6927    0.2883 C   0  0  0  0  0  0  0  0  0  0  0  0
   -3.6947    1.3164    0.2674 C   0  0  0  0  0  0  0  0  0  0  0  0
    1.1716   -1.3022    1.6238 C   0  0  0  0  0  0  0  0  0  0  0  0
    3.4342   -1.7171   -0.4520 C   0  0  0  0  0  0  0  0  0  0  0  0
    3.9688   -0.2928   -0.5608 C   0  0  2  0  0  0  0  0  0  0  0  0
   -4.7515   -0.7074   -0.3685 C   0  0  0  0  0  0  0  0  0  0  0  0
   -3.4555   -1.5479    1.5439 C   0  0  0  0  0  0  0  0  0  0  0  0
   -4.9330    0.6126   -0.2076 C   0  0  0  0  0  0  0  0  0  0  0  0
   -6.1872    1.2853   -0.4932 C   0  0  0  0  0  0  0  0  0  0  0  0
    5.9674    0.9214   -0.2216 C   0  0  0  0  0  0  0  0  0  0  0  0
    7.0239    1.0063    0.8379 C   0  0  0  0  0  0  0  0  0  0  0  0
   -0.3752   -0.4798   -1.3967 H   0  0  0  0  0  0  0  0  0  0  0  0
   -1.2883    0.0540    1.4814 H   0  0  0  0  0  0  0  0  0  0  0  0
   -2.5425    0.4220   -1.2473 H   0  0  0  0  0  0  0  0  0  0  0  0
    1.5784    0.8621   -1.1062 H   0  0  0  0  0  0  0  0  0  0  0  0
   -1.0302   -2.6671    0.6128 H   0  0  0  0  0  0  0  0  0  0  0  0
   -0.6047   -2.8429   -1.0761 H   0  0  0  0  0  0  0  0  0  0  0  0
   -1.1425    2.4065    0.8951 H   0  0  0  0  0  0  0  0  0  0  0  0
   -0.6559    2.0230   -0.7520 H   0  0  0  0  0  0  0  0  0  0  0  0
    1.2951    2.6655    0.5340 H   0  0  0  0  0  0  0  0  0  0  0  0
    0.9383    1.5094    1.8061 H   0  0  0  0  0  0  0  0  0  0  0  0
   -2.6729   -1.8751   -1.8341 H   0  0  0  0  0  0  0  0  0  0  0  0
   -3.0514   -3.1169   -0.6529 H   0  0  0  0  0  0  0  0  0  0  0  0
    1.7585   -1.5768   -1.7866 H   0  0  0  0  0  0  0  0  0  0  0  0
    1.6117   -2.8365   -0.5691 H   0  0  0  0  0  0  0  0  0  0  0  0
    3.5042    1.7197    0.1073 H   0  0  0  0  0  0  0  0  0  0  0  0
    3.3526    0.5169    1.3547 H   0  0  0  0  0  0  0  0  0  0  0  0
   -3.5333    2.2687   -0.2466 H   0  0  0  0  0  0  0  0  0  0  0  0
   -3.7167    1.4813    1.3489 H   0  0  0  0  0  0  0  0  0  0  0  0
    0.5528   -0.7036    2.2963 H   0  0  0  0  0  0  0  0  0  0  0  0
    0.8492   -2.3437    1.7257 H   0  0  0  0  0  0  0  0  0  0  0  0
    2.1905   -1.2562    2.0184 H   0  0  0  0  0  0  0  0  0  0  0  0
    3.6674   -2.1298    0.5371 H   0  0  0  0  0  0  0  0  0  0  0  0
    3.9713   -2.3609   -1.1599 H   0  0  0  0  0  0  0  0  0  0  0  0
    3.9234    0.0073   -1.6166 H   0  0  0  0  0  0  0  0  0  0  0  0
   -5.5047   -1.4135   -0.6878 H   0  0  0  0  0  0  0  0  0  0  0  0
   -4.0347   -2.4765    1.6177 H   0  0  0  0  0  0  0  0  0  0  0  0
   -2.4790   -1.7429    1.9949 H   0  0  0  0  0  0  0  0  0  0  0  0
   -3.9530   -0.8064    2.1798 H   0  0  0  0  0  0  0  0  0  0  0  0
   -7.0075    0.6440   -0.8564 H   0  0  0  0  0  0  0  0  0  0  0  0
    7.7634    0.2159    0.6881 H   0  0  0  0  0  0  0  0  0  0  0  0
    6.5643    0.9222    1.8259 H   0  0  0  0  0  0  0  0  0  0  0  0
    7.5291    1.9741    0.7697 H   0  0  0  0  0  0  0  0  0  0  0  0
  1 19  1  0  0  0  0
  1 24  1  0  0  0  0
  2 23  2  0  0  0  0
  3 24  2  0  0  0  0
  4  5  1  0  0  0  0
  4  6  1  0  0  0  0
  4 10  1  0  0  0  0
  4 26  1  0  0  0  0
  5  8  1  0  0  0  0
  5 14  1  0  0  0  0
  5 17  1  0  0  0  0
  6  7  1  0  0  0  0
  6 11  1  0  0  0  0
  6 27  1  0  0  0  0
  7  9  1  0  0  0  0
  7 16  1  0  0  0  0
  7 28  1  0  0  0  0
  8 12  1  0  0  0  0
  8 15  1  0  0  0  0
  8 29  1  0  0  0  0
  9 13  1  0  0  0  0
  9 20  1  0  0  0  0
  9 21  1  0  0  0  0
 10 13  1  0  0  0  0
 10 30  1  0  0  0  0
 10 31  1  0  0  0  0
 11 12  1  0  0  0  0
 11 32  1  0  0  0  0
 11 33  1  0  0  0  0
 12 34  1  0  0  0  0
 12 35  1  0  0  0  0
 13 36  1  0  0  0  0
 13 37  1  0  0  0  0
 14 18  1  0  0  0  0
 14 38  1  0  0  0  0
 14 39  1  0  0  0  0
 15 19  1  0  0  0  0
 15 40  1  0  0  0  0
 15 41  1  0  0  0  0
 16 22  1  0  0  0  0
 16 42  1  0  0  0  0
 16 43  1  0  0  0  0
 17 44  1  0  0  0  0
 17 45  1  0  0  0  0
 17 46  1  0  0  0  0
 18 19  1  0  0  0  0
 18 47  1  0  0  0  0
 18 48  1  0  0  0  0
 19 49  1  0  0  0  0
 20 22  2  0  0  0  0
 20 50  1  0  0  0  0
 21 51  1  0  0  0  0
 21 52  1  0  0  0  0
 21 53  1  0  0  0  0
 22 23  1  0  0  0  0
 23 54  1  0  0  0  0
 24 25  1  0  0  0  0
 25 55  1  0  0  0  0
 25 56  1  0  0  0  0
 25 57  1  0  0  0  0
M  END
> <PUBCHEM_COMPOUND_CID>
256729

> <PUBCHEM_CONFORMER_RMSD>
0.8

> <PUBCHEM_CONFORMER_DIVERSEORDER>
1
4
2
3

> <PUBCHEM_MMFF94_PARTIAL_CHARGES>
13
1 -0.43
16 0.14
19 0.28
2 -0.57
20 -0.29
22 -0.12
23 0.5
24 0.66
25 0.06
3 -0.57
50 0.15
54 0.06
9 0.14

> <PUBCHEM_EFFECTIVE_ROTOR_COUNT>
4.8

> <PUBCHEM_PHARMACOPHORE_FEATURES>
6
1 2 acceptor
1 3 acceptor
5 7 9 16 20 22 rings
6 4 5 6 8 11 12 rings
6 4 6 7 9 10 13 rings
6 5 8 14 15 18 19 rings

> <PUBCHEM_HEAVY_ATOM_COUNT>
25

> <PUBCHEM_ATOM_DEF_STEREO_COUNT>
7

> <PUBCHEM_ATOM_UDEF_STEREO_COUNT>
0

> <PUBCHEM_BOND_DEF_STEREO_COUNT>
0

> <PUBCHEM_BOND_UDEF_STEREO_COUNT>
0

> <PUBCHEM_ISOTOPIC_ATOM_COUNT>
0

> <PUBCHEM_COMPONENT_COUNT>
1

> <PUBCHEM_CACTVS_TAUTO_COUNT>
1

> <PUBCHEM_CONFORMER_ID>
0003EAD900000001

> <PUBCHEM_MMFF94_ENERGY>
80.1781

> <PUBCHEM_FEATURE_SELFOVERLAP>
30.545

> <PUBCHEM_SHAPE_FINGERPRINT>
10 15 17774996877900529785
10366900 7 16226047812008294923
10411042 1 17688593762888785415
10835480 77 18409451400975672580
10906281 52 18115012121933443145
11315181 36 16950280672131608240
11578080 2 17344649233711380236
11719270 70 18261116301011999598
12011746 2 18040999557165703653
12166972 35 7276824697277361202
12236239 1 18202004321907441826
12403259 415 18113905918656787121
12516196 113 17748827401806062904
12616971 3 14045734898586838898
12788726 201 18189335843590585465
12838862 33 18336847354359915053
14251764 18 18408039603045450497
14790565 3 18335977661794224544
15048467 5 18343302573872070436
15099037 51 18334860558649972879
15196674 1 18408321107317162775
1601671 61 18408887342999485324
17349148 13 8142085372702572674
17980427 23 17846212211608429774
18222031 100 5473137419129599754
18608769 82 18341325597106934411
18681886 176 18113911420489001969
18769570 83 18131353003236294692
200 152 17603304860500649715
20511986 3 18410587188160688982
20681677 155 18343303669363076531
20715895 44 18411698786190413444
21033648 29 18334585611570066793
21150785 3 16805328777361433221
21267235 1 18263359205774166055
21279426 13 18335697303487762719
21421861 104 17916317198114215218
23402539 116 18271810082093660598
23559900 14 17968386658137358313
23569914 152 16668511314062873389
300161 21 18411140250824912726
3004659 81 18339358673688866190
335352 9 18407761438760778516
34797466 226 16515680001662148744
34934 24 18411140250877985027
350125 39 18408038507781616073
3545911 37 18335138687588586491
4073 2 18059850641301396274
4340502 62 16988838414587690235
474 4 17988918930079664094
5104073 3 18411131480887174266
6328613 192 18409447003140242425
633830 44 18059859411297352262

> <PUBCHEM_SHAPE_MULTIPOLES>
496.88
14.86
2.33
1.01
8.06
0.11
-0.3
-8.35
1.71
-1.27
0.17
0.11
0.25
0.47

> <PUBCHEM_SHAPE_SELFOVERLAP>
1056.301

> <PUBCHEM_SHAPE_VOLUME>
275.8

> <PUBCHEM_COORDINATE_TYPE>
2
5
10

$$$$

