222817
  -OEChem-07051213072D

 65 69  0     1  0  0  0  0  0999 V2000
   11.2461    2.1128    0.0000 O   0  0  0  0  0  0  0  0  0  0  0  0
    4.5961   -2.1948    0.0000 O   0  0  0  0  0  0  0  0  0  0  0  0
    2.8641   -2.1881    0.0000 O   0  0  0  0  0  0  0  0  0  0  0  0
    9.9892   -0.1425    0.0000 C   0  0  2  0  0  0  0  0  0  0  0  0
    9.9892    0.8575    0.0000 C   0  0  2  0  0  0  0  0  0  0  0  0
    9.1232   -0.6425    0.0000 C   0  0  1  0  0  0  0  0  0  0  0  0
    8.2572   -0.1425    0.0000 C   0  0  1  0  0  0  0  0  0  0  0  0
    7.3472   -0.6493    0.0000 C   0  0  2  0  0  0  0  0  0  0  0  0
    9.1232    1.3575    0.0000 C   0  0  0  0  0  0  0  0  0  0  0  0
    8.2572    0.8575    0.0000 C   0  0  0  0  0  0  0  0  0  0  0  0
   10.9354    1.1623    0.0000 C   0  0  2  0  0  0  0  0  0  0  0  0
   10.9354   -0.4472    0.0000 C   0  0  0  0  0  0  0  0  0  0  0  0
    9.1392   -1.6840    0.0000 C   0  0  0  0  0  0  0  0  0  0  0  0
   11.5190    0.3575    0.0000 C   0  0  0  0  0  0  0  0  0  0  0  0
    7.3391   -1.6909    0.0000 C   0  0  0  0  0  0  0  0  0  0  0  0
    6.4203   -0.0852    0.0000 C   0  0  0  0  0  0  0  0  0  0  0  0
    9.9892    1.8575    0.0000 C   0  0  0  0  0  0  0  0  0  0  0  0
    8.2412   -2.2117    0.0000 C   0  0  0  0  0  0  0  0  0  0  0  0
    7.3549    0.3507    0.0000 C   0  0  0  0  0  0  0  0  0  0  0  0
    6.4037   -2.2406    0.0000 C   0  0  0  0  0  0  0  0  0  0  0  0
    5.4724   -0.6132    0.0000 C   0  0  0  0  0  0  0  0  0  0  0  0
    5.4641   -1.6981    0.0000 C   0  0  2  0  0  0  0  0  0  0  0  0
    3.7320   -1.6915    0.0000 C   0  0  3  0  0  0  0  0  0  0  0  0
    3.7359   -0.6915    0.0000 C   0  0  0  0  0  0  0  0  0  0  0  0
    2.8718   -0.1881    0.0000 C   0  0  0  0  0  0  0  0  0  0  0  0
    2.0000   -1.6848    0.0000 C   0  0  0  0  0  0  0  0  0  0  0  0
    2.0038   -0.6848    0.0000 C   0  0  0  0  0  0  0  0  0  0  0  0
   10.0792   -0.9877    0.0000 H   0  0  0  0  0  0  0  0  0  0  0  0
    9.8626   -1.0618    0.0000 H   0  0  0  0  0  0  0  0  0  0  0  0
    8.9933    0.2825    0.0000 H   0  0  0  0  0  0  0  0  0  0  0  0
    9.5217    1.8325    0.0000 H   0  0  0  0  0  0  0  0  0  0  0  0
    8.7247    1.8325    0.0000 H   0  0  0  0  0  0  0  0  0  0  0  0
    8.0451    1.4401    0.0000 H   0  0  0  0  0  0  0  0  0  0  0  0
    7.6466    0.7499    0.0000 H   0  0  0  0  0  0  0  0  0  0  0  0
   10.4980    1.6016    0.0000 H   0  0  0  0  0  0  0  0  0  0  0  0
   10.6844   -1.0141    0.0000 H   0  0  0  0  0  0  0  0  0  0  0  0
   11.4728   -0.7564    0.0000 H   0  0  0  0  0  0  0  0  0  0  0  0
    9.3573   -2.2644    0.0000 H   0  0  0  0  0  0  0  0  0  0  0  0
    9.7484   -1.5685    0.0000 H   0  0  0  0  0  0  0  0  0  0  0  0
   11.9799   -0.0572    0.0000 H   0  0  0  0  0  0  0  0  0  0  0  0
   11.9799    0.7723    0.0000 H   0  0  0  0  0  0  0  0  0  0  0  0
    6.8285    0.3814    0.0000 H   0  0  0  0  0  0  0  0  0  0  0  0
    6.0304    0.3968    0.0000 H   0  0  0  0  0  0  0  0  0  0  0  0
   10.6092    1.8575    0.0000 H   0  0  0  0  0  0  0  0  0  0  0  0
    9.9892    2.4775    0.0000 H   0  0  0  0  0  0  0  0  0  0  0  0
    9.3692    1.8575    0.0000 H   0  0  0  0  0  0  0  0  0  0  0  0
    8.2436   -2.8317    0.0000 H   0  0  0  0  0  0  0  0  0  0  0  0
    7.9748    0.3459    0.0000 H   0  0  0  0  0  0  0  0  0  0  0  0
    7.3596    0.9706    0.0000 H   0  0  0  0  0  0  0  0  0  0  0  0
    6.7349    0.3554    0.0000 H   0  0  0  0  0  0  0  0  0  0  0  0
    6.0064   -2.7166    0.0000 H   0  0  0  0  0  0  0  0  0  0  0  0
    6.8047   -2.7135    0.0000 H   0  0  0  0  0  0  0  0  0  0  0  0
    5.2679   -0.0279    0.0000 H   0  0  0  0  0  0  0  0  0  0  0  0
    4.8608   -0.7146    0.0000 H   0  0  0  0  0  0  0  0  0  0  0  0
    4.9289   -1.3850    0.0000 H   0  0  0  0  0  0  0  0  0  0  0  0
   11.8528    2.2406    0.0000 H   0  0  0  0  0  0  0  0  0  0  0  0
    3.7288   -2.5415    0.0000 H   0  0  0  0  0  0  0  0  0  0  0  0
    4.3460   -0.8015    0.0000 H   0  0  0  0  0  0  0  0  0  0  0  0
    3.9502   -0.1097    0.0000 H   0  0  0  0  0  0  0  0  0  0  0  0
    3.2722    0.2853    0.0000 H   0  0  0  0  0  0  0  0  0  0  0  0
    2.4751    0.2883    0.0000 H   0  0  0  0  0  0  0  0  0  0  0  0
    1.3898   -1.5748    0.0000 H   0  0  0  0  0  0  0  0  0  0  0  0
    1.7857   -2.2666    0.0000 H   0  0  0  0  0  0  0  0  0  0  0  0
    1.7940   -0.1014    0.0000 H   0  0  0  0  0  0  0  0  0  0  0  0
    1.3929   -0.7901    0.0000 H   0  0  0  0  0  0  0  0  0  0  0  0
 11  1  1  1  0  0  0
  1 56  1  0  0  0  0
 22  2  1  1  0  0  0
  2 23  1  0  0  0  0
  3 23  1  0  0  0  0
  3 26  1  0  0  0  0
  4  5  1  0  0  0  0
  4  6  1  0  0  0  0
  4 12  1  0  0  0  0
  4 28  1  6  0  0  0
  5  9  1  0  0  0  0
  5 11  1  0  0  0  0
  5 17  1  1  0  0  0
  6  7  1  0  0  0  0
  6 13  1  0  0  0  0
  6 29  1  1  0  0  0
  7  8  1  0  0  0  0
  7 10  1  0  0  0  0
  7 30  1  6  0  0  0
  8 15  1  0  0  0  0
  8 16  1  0  0  0  0
  8 19  1  1  0  0  0
  9 10  1  0  0  0  0
  9 31  1  0  0  0  0
  9 32  1  0  0  0  0
 10 33  1  0  0  0  0
 10 34  1  0  0  0  0
 11 14  1  0  0  0  0
 11 35  1  0  0  0  0
 12 14  1  0  0  0  0
 12 36  1  0  0  0  0
 12 37  1  0  0  0  0
 13 18  1  0  0  0  0
 13 38  1  0  0  0  0
 13 39  1  0  0  0  0
 14 40  1  0  0  0  0
 14 41  1  0  0  0  0
 15 18  2  0  0  0  0
 15 20  1  0  0  0  0
 16 21  1  0  0  0  0
 16 42  1  0  0  0  0
 16 43  1  0  0  0  0
 17 44  1  0  0  0  0
 17 45  1  0  0  0  0
 17 46  1  0  0  0  0
 18 47  1  0  0  0  0
 19 48  1  0  0  0  0
 19 49  1  0  0  0  0
 19 50  1  0  0  0  0
 20 22  1  0  0  0  0
 20 51  1  0  0  0  0
 20 52  1  0  0  0  0
 21 22  1  0  0  0  0
 21 53  1  0  0  0  0
 21 54  1  0  0  0  0
 22 55  1  0  0  0  0
 23 24  1  0  0  0  0
 23 57  1  0  0  0  0
 24 25  1  0  0  0  0
 24 58  1  0  0  0  0
 24 59  1  0  0  0  0
 25 27  1  0  0  0  0
 25 60  1  0  0  0  0
 25 61  1  0  0  0  0
 26 27  1  0  0  0  0
 26 62  1  0  0  0  0
 26 63  1  0  0  0  0
 27 64  1  0  0  0  0
 27 65  1  0  0  0  0
M  END
> <PUBCHEM_COMPOUND_CID>
222817

> <PUBCHEM_COMPOUND_CANONICALIZED>
1

> <PUBCHEM_CACTVS_COMPLEXITY>
600

> <PUBCHEM_CACTVS_HBOND_ACCEPTOR>
3

> <PUBCHEM_CACTVS_HBOND_DONOR>
1

> <PUBCHEM_CACTVS_ROTATABLE_BOND>
2

> <PUBCHEM_CACTVS_SUBSKEYS>
AAADcfB4MAAAAAAAAAAAAAAAAAAAAYAAAAA0YIEAAAAAAGCAAAAAGgAACAAADxSwgAMCCAAABgCAAiBCAAAAAAAgAAAACAAAAAgQEAIAAQAiQAAEwAAMAAOA4PgPgAAAAAAAAADAAAQAACAAAIAADAAAAA==

> <PUBCHEM_IUPAC_OPENEYE_NAME>
(3S,8R,9S,10R,13S,14S,17S)-10,13-dimethyl-3-tetrahydropyran-2-yloxy-2,3,4,7,8,9,11,12,14,15,16,17-dodecahydro-1H-cyclopenta[a]phenanthren-17-ol

> <PUBCHEM_IUPAC_CAS_NAME>
(3S,8R,9S,10R,13S,14S,17S)-10,13-dimethyl-3-(2-oxanyloxy)-2,3,4,7,8,9,11,12,14,15,16,17-dodecahydro-1H-cyclopenta[a]phenanthren-17-ol

> <PUBCHEM_IUPAC_NAME>
(3S,8R,9S,10R,13S,14S,17S)-10,13-dimethyl-3-(oxan-2-yloxy)-2,3,4,7,8,9,11,12,14,15,16,17-dodecahydro-1H-cyclopenta[a]phenanthren-17-ol

> <PUBCHEM_IUPAC_SYSTEMATIC_NAME>
(3S,8R,9S,10R,13S,14S,17S)-10,13-dimethyl-3-(oxan-2-yloxy)-2,3,4,7,8,9,11,12,14,15,16,17-dodecahydro-1H-cyclopenta[a]phenanthren-17-ol

> <PUBCHEM_IUPAC_TRADITIONAL_NAME>
(3S,8R,9S,10R,13S,14S,17S)-10,13-dimethyl-3-tetrahydropyran-2-yloxy-2,3,4,7,8,9,11,12,14,15,16,17-dodecahydro-1H-cyclopenta[a]phenanthren-17-ol

> <PUBCHEM_IUPAC_INCHI>
InChI=1S/C24H38O3/c1-23-12-10-17(27-22-5-3-4-14-26-22)15-16(23)6-7-18-19-8-9-21(25)24(19,2)13-11-20(18)23/h6,17-22,25H,3-5,7-15H2,1-2H3/t17-,18-,19-,20-,21-,22?,23-,24-/m0/s1

> <PUBCHEM_IUPAC_INCHIKEY>
OEECLXWCHUIMAU-QDWRAYMQSA-N

> <PUBCHEM_XLOGP3>
4.9

> <PUBCHEM_EXACT_MASS>
374.282095

> <PUBCHEM_MOLECULAR_FORMULA>
C24H38O3

> <PUBCHEM_MOLECULAR_WEIGHT>
374.55672

> <PUBCHEM_OPENEYE_CAN_SMILES>
CC12CCC3C(C1CCC2O)CC=C4C3(CCC(C4)OC5CCCCO5)C

> <PUBCHEM_OPENEYE_ISO_SMILES>
C[C@]12CC[C@H]3[C@H]([C@@H]1CC[C@@H]2O)CC=C4[C@@]3(CC[C@@H](C4)OC5CCCCO5)C

> <PUBCHEM_CACTVS_TPSA>
38.7

> <PUBCHEM_MONOISOTOPIC_WEIGHT>
374.282095

> <PUBCHEM_TOTAL_CHARGE>
0

> <PUBCHEM_HEAVY_ATOM_COUNT>
27

> <PUBCHEM_ATOM_DEF_STEREO_COUNT>
7

> <PUBCHEM_ATOM_UDEF_STEREO_COUNT>
1

> <PUBCHEM_BOND_DEF_STEREO_COUNT>
0

> <PUBCHEM_BOND_UDEF_STEREO_COUNT>
0

> <PUBCHEM_ISOTOPIC_ATOM_COUNT>
0

> <PUBCHEM_COMPONENT_COUNT>
1

> <PUBCHEM_CACTVS_TAUTO_COUNT>
1

> <PUBCHEM_COORDINATE_TYPE>
1
5
255

> <PUBCHEM_BONDANNOTATIONS>
11  1  5
22  2  5
23  57  3
4  28  6
5  17  5
6  29  5
7  30  6
8  19  5

$$$$

