4575
  -OEChem-06261200132D

 47 50  0     1  0  0  0  0  0999 V2000
    6.0290   -0.2101    0.0000 O   0  0  0  0  0  0  0  0  0  0  0  0
    2.5369   -0.1754    0.0000 O   0  0  0  0  0  0  0  0  0  0  0  0
    6.0174    2.8592    0.0000 O   0  0  0  0  0  0  0  0  0  0  0  0
    4.2690    2.8246    0.0000 O   0  0  0  0  0  0  0  0  0  0  0  0
    3.4030   -1.6754    0.0000 N   0  0  3  0  0  0  0  0  0  0  0  0
    4.2690   -1.1754    0.0000 C   0  0  3  0  0  0  0  0  0  0  0  0
    5.1350   -1.6754    0.0000 C   0  0  0  0  0  0  0  0  0  0  0  0
    5.1350   -2.6754    0.0000 C   0  0  0  0  0  0  0  0  0  0  0  0
    3.4030   -2.6754    0.0000 C   0  0  0  0  0  0  0  0  0  0  0  0
    4.2690   -3.1754    0.0000 C   0  0  0  0  0  0  0  0  0  0  0  0
    4.2690   -0.1754    0.0000 C   0  0  0  0  0  0  0  0  0  0  0  0
    2.5369   -1.1754    0.0000 C   0  0  0  0  0  0  0  0  0  0  0  0
    5.1350    0.3246    0.0000 C   0  0  0  0  0  0  0  0  0  0  0  0
    3.4030    0.3246    0.0000 C   0  0  0  0  0  0  0  0  0  0  0  0
    5.1350    1.3246    0.0000 C   0  0  0  0  0  0  0  0  0  0  0  0
    3.4030    1.3246    0.0000 C   0  0  0  0  0  0  0  0  0  0  0  0
    4.2690    1.8246    0.0000 C   0  0  0  0  0  0  0  0  0  0  0  0
    6.0290    1.8593    0.0000 C   0  0  0  0  0  0  0  0  0  0  0  0
    6.9350    0.3038    0.0000 C   0  0  0  0  0  0  0  0  0  0  0  0
    6.9350    1.3454    0.0000 C   0  0  0  0  0  0  0  0  0  0  0  0
    7.7991   -0.1995    0.0000 C   0  0  0  0  0  0  0  0  0  0  0  0
    8.6671    0.2971    0.0000 C   0  0  0  0  0  0  0  0  0  0  0  0
    7.7953   -1.1995    0.0000 C   0  0  0  0  0  0  0  0  0  0  0  0
    9.5312   -0.2062    0.0000 C   0  0  0  0  0  0  0  0  0  0  0  0
    8.6593   -1.7029    0.0000 C   0  0  0  0  0  0  0  0  0  0  0  0
    9.5273   -1.2062    0.0000 C   0  0  0  0  0  0  0  0  0  0  0  0
    4.8059   -0.8654    0.0000 H   0  0  0  0  0  0  0  0  0  0  0  0
    5.7456   -1.7831    0.0000 H   0  0  0  0  0  0  0  0  0  0  0  0
    5.3471   -1.0928    0.0000 H   0  0  0  0  0  0  0  0  0  0  0  0
    5.3471   -3.2580    0.0000 H   0  0  0  0  0  0  0  0  0  0  0  0
    5.7456   -2.5677    0.0000 H   0  0  0  0  0  0  0  0  0  0  0  0
    2.7924   -2.5677    0.0000 H   0  0  0  0  0  0  0  0  0  0  0  0
    3.1909   -3.2580    0.0000 H   0  0  0  0  0  0  0  0  0  0  0  0
    3.8705   -3.6503    0.0000 H   0  0  0  0  0  0  0  0  0  0  0  0
    4.6675   -3.6503    0.0000 H   0  0  0  0  0  0  0  0  0  0  0  0
    2.8469   -0.6385    0.0000 H   0  0  0  0  0  0  0  0  0  0  0  0
    2.0000   -0.8654    0.0000 H   0  0  0  0  0  0  0  0  0  0  0  0
    2.2269   -1.7123    0.0000 H   0  0  0  0  0  0  0  0  0  0  0  0
    2.8660    1.6346    0.0000 H   0  0  0  0  0  0  0  0  0  0  0  0
    7.4708    1.6575    0.0000 H   0  0  0  0  0  0  0  0  0  0  0  0
    2.0000    0.1346    0.0000 H   0  0  0  0  0  0  0  0  0  0  0  0
    6.5507    3.1754    0.0000 H   0  0  0  0  0  0  0  0  0  0  0  0
    8.6694    0.9171    0.0000 H   0  0  0  0  0  0  0  0  0  0  0  0
    7.2571   -1.5075    0.0000 H   0  0  0  0  0  0  0  0  0  0  0  0
   10.0693    0.1017    0.0000 H   0  0  0  0  0  0  0  0  0  0  0  0
    8.6570   -2.3229    0.0000 H   0  0  0  0  0  0  0  0  0  0  0  0
   10.0630   -1.5183    0.0000 H   0  0  0  0  0  0  0  0  0  0  0  0
  1 13  1  0  0  0  0
  1 19  1  0  0  0  0
  2 14  1  0  0  0  0
  2 41  1  0  0  0  0
  3 18  1  0  0  0  0
  3 42  1  0  0  0  0
  4 17  2  0  0  0  0
  5  6  1  0  0  0  0
  5  9  1  0  0  0  0
  5 12  1  0  0  0  0
  6  7  1  0  0  0  0
  6 11  1  0  0  0  0
  6 27  1  0  0  0  0
  7  8  1  0  0  0  0
  7 28  1  0  0  0  0
  7 29  1  0  0  0  0
  8 10  1  0  0  0  0
  8 30  1  0  0  0  0
  8 31  1  0  0  0  0
  9 10  1  0  0  0  0
  9 32  1  0  0  0  0
  9 33  1  0  0  0  0
 10 34  1  0  0  0  0
 10 35  1  0  0  0  0
 11 13  2  0  0  0  0
 11 14  1  0  0  0  0
 12 36  1  0  0  0  0
 12 37  1  0  0  0  0
 12 38  1  0  0  0  0
 13 15  1  0  0  0  0
 14 16  2  0  0  0  0
 15 17  1  0  0  0  0
 15 18  2  0  0  0  0
 16 17  1  0  0  0  0
 16 39  1  0  0  0  0
 18 20  1  0  0  0  0
 19 20  2  0  0  0  0
 19 21  1  0  0  0  0
 20 40  1  0  0  0  0
 21 22  2  0  0  0  0
 21 23  1  0  0  0  0
 22 24  1  0  0  0  0
 22 43  1  0  0  0  0
 23 25  2  0  0  0  0
 23 44  1  0  0  0  0
 24 26  2  0  0  0  0
 24 45  1  0  0  0  0
 25 26  1  0  0  0  0
 25 46  1  0  0  0  0
 26 47  1  0  0  0  0
M  END
> <PUBCHEM_COMPOUND_CID>
4575

> <PUBCHEM_COMPOUND_CANONICALIZED>
1

> <PUBCHEM_CACTVS_COMPLEXITY>
737

> <PUBCHEM_CACTVS_HBOND_ACCEPTOR>
5

> <PUBCHEM_CACTVS_HBOND_DONOR>
2

> <PUBCHEM_CACTVS_ROTATABLE_BOND>
2

> <PUBCHEM_CACTVS_SUBSKEYS>
AAADceB6OAAAAAAAAAAAAAAAAAAAAAAAAAA8QIEAAAAAAACBAAAAHgAACAAADCzBmAQyAIMABgCIAqBSAACCCAAgIAAIiAEICMgIJiaAsRiGcAAm4AGIuQeQwCAOAAAAAAAAAAAAAAAAAAAAAAAAAAAAAA==

> <PUBCHEM_IUPAC_OPENEYE_NAME>
4,7-dihydroxy-8-(1-methyl-2-piperidyl)-2-phenyl-chromen-5-one

> <PUBCHEM_IUPAC_CAS_NAME>
4,7-dihydroxy-8-(1-methyl-2-piperidinyl)-2-phenyl-1-benzopyran-5-one

> <PUBCHEM_IUPAC_NAME>
4,7-dihydroxy-8-(1-methylpiperidin-2-yl)-2-phenylchromen-5-one

> <PUBCHEM_IUPAC_SYSTEMATIC_NAME>
8-(1-methylpiperidin-2-yl)-4,7-bis(oxidanyl)-2-phenyl-chromen-5-one

> <PUBCHEM_IUPAC_TRADITIONAL_NAME>
4,7-dihydroxy-8-(1-methyl-2-piperidyl)-2-phenyl-chromen-5-one

> <PUBCHEM_IUPAC_INCHI>
InChI=1S/C21H21NO4/c1-22-10-6-5-9-14(22)19-15(23)11-16(24)20-17(25)12-18(26-21(19)20)13-7-3-2-4-8-13/h2-4,7-8,11-12,14,23,25H,5-6,9-10H2,1H3

> <PUBCHEM_IUPAC_INCHIKEY>
VCZMGNMHQWXXAQ-UHFFFAOYSA-N

> <PUBCHEM_XLOGP3_AA>
2.6

> <PUBCHEM_EXACT_MASS>
351.147058

> <PUBCHEM_MOLECULAR_FORMULA>
C21H21NO4

> <PUBCHEM_MOLECULAR_WEIGHT>
351.39574

> <PUBCHEM_OPENEYE_CAN_SMILES>
CN1CCCCC1C2=C3C(=C(C=C(O3)C4=CC=CC=C4)O)C(=O)C=C2O

> <PUBCHEM_OPENEYE_ISO_SMILES>
CN1CCCCC1C2=C3C(=C(C=C(O3)C4=CC=CC=C4)O)C(=O)C=C2O

> <PUBCHEM_CACTVS_TPSA>
70

> <PUBCHEM_MONOISOTOPIC_WEIGHT>
351.147058

> <PUBCHEM_TOTAL_CHARGE>
0

> <PUBCHEM_HEAVY_ATOM_COUNT>
26

> <PUBCHEM_ATOM_DEF_STEREO_COUNT>
0

> <PUBCHEM_ATOM_UDEF_STEREO_COUNT>
1

> <PUBCHEM_BOND_DEF_STEREO_COUNT>
0

> <PUBCHEM_BOND_UDEF_STEREO_COUNT>
0

> <PUBCHEM_ISOTOPIC_ATOM_COUNT>
0

> <PUBCHEM_COMPONENT_COUNT>
1

> <PUBCHEM_CACTVS_TAUTO_COUNT>
12

> <PUBCHEM_COORDINATE_TYPE>
1
5
255

> <PUBCHEM_BONDANNOTATIONS>
1  13  8
1  19  8
11  13  8
11  14  8
14  16  8
15  17  8
15  18  8
16  17  8
18  20  8
19  20  8
21  22  8
21  23  8
22  24  8
23  25  8
24  26  8
25  26  8
6  11  3

$$$$

