13791
  -OEChem-07051213032D

 58 61  0     1  0  0  0  0  0999 V2000
    9.1857    0.9169    0.0000 O   0  0  0  0  0  0  0  0  0  0  0  0
   10.8321    0.3788    0.0000 O   0  0  0  0  0  0  0  0  0  0  0  0
    2.5357   -3.3907    0.0000 O   0  0  0  0  0  0  0  0  0  0  0  0
    7.9288   -0.3384    0.0000 C   0  0  1  0  0  0  0  0  0  0  0  0
    7.9288   -1.3384    0.0000 C   0  0  2  0  0  0  0  0  0  0  0  0
    7.0628   -1.8384    0.0000 C   0  0  1  0  0  0  0  0  0  0  0  0
    6.1968   -1.3384    0.0000 C   0  0  2  0  0  0  0  0  0  0  0  0
    8.8750   -0.0337    0.0000 C   0  0  2  0  0  0  0  0  0  0  0  0
    7.0628    0.1616    0.0000 C   0  0  0  0  0  0  0  0  0  0  0  0
    8.8750   -1.6431    0.0000 C   0  0  0  0  0  0  0  0  0  0  0  0
    6.1968   -0.3384    0.0000 C   0  0  0  0  0  0  0  0  0  0  0  0
    9.4586   -0.8384    0.0000 C   0  0  0  0  0  0  0  0  0  0  0  0
    7.0789   -2.8799    0.0000 C   0  0  0  0  0  0  0  0  0  0  0  0
    7.9288    0.6616    0.0000 C   0  0  0  0  0  0  0  0  0  0  0  0
    5.2868   -1.8452    0.0000 C   0  0  0  0  0  0  0  0  0  0  0  0
    6.1808   -3.4076    0.0000 C   0  0  0  0  0  0  0  0  0  0  0  0
    5.2787   -2.8868    0.0000 C   0  0  0  0  0  0  0  0  0  0  0  0
    4.3599   -1.2812    0.0000 C   0  0  0  0  0  0  0  0  0  0  0  0
    4.3433   -3.4366    0.0000 C   0  0  0  0  0  0  0  0  0  0  0  0
   10.1642    1.1231    0.0000 C   0  0  0  0  0  0  0  0  0  0  0  0
    3.4120   -1.8091    0.0000 C   0  0  0  0  0  0  0  0  0  0  0  0
    3.4037   -2.8941    0.0000 C   0  0  0  0  0  0  0  0  0  0  0  0
   10.4749    2.0736    0.0000 C   0  0  0  0  0  0  0  0  0  0  0  0
   11.4534    2.2798    0.0000 C   0  0  0  0  0  0  0  0  0  0  0  0
   11.7640    3.2303    0.0000 C   0  0  0  0  0  0  0  0  0  0  0  0
   12.7425    3.4366    0.0000 C   0  0  0  0  0  0  0  0  0  0  0  0
    8.0188   -2.1836    0.0000 H   0  0  0  0  0  0  0  0  0  0  0  0
    7.8022   -2.2577    0.0000 H   0  0  0  0  0  0  0  0  0  0  0  0
    6.9329   -0.9134    0.0000 H   0  0  0  0  0  0  0  0  0  0  0  0
    9.4875    0.0625    0.0000 H   0  0  0  0  0  0  0  0  0  0  0  0
    7.4613    0.6366    0.0000 H   0  0  0  0  0  0  0  0  0  0  0  0
    6.6643    0.6366    0.0000 H   0  0  0  0  0  0  0  0  0  0  0  0
    8.6240   -2.2100    0.0000 H   0  0  0  0  0  0  0  0  0  0  0  0
    9.4124   -1.9524    0.0000 H   0  0  0  0  0  0  0  0  0  0  0  0
    5.9847    0.2442    0.0000 H   0  0  0  0  0  0  0  0  0  0  0  0
    5.5862   -0.4461    0.0000 H   0  0  0  0  0  0  0  0  0  0  0  0
    9.9195   -1.2531    0.0000 H   0  0  0  0  0  0  0  0  0  0  0  0
    9.9195   -0.4237    0.0000 H   0  0  0  0  0  0  0  0  0  0  0  0
    7.2969   -3.4603    0.0000 H   0  0  0  0  0  0  0  0  0  0  0  0
    7.6880   -2.7644    0.0000 H   0  0  0  0  0  0  0  0  0  0  0  0
    8.5488    0.6616    0.0000 H   0  0  0  0  0  0  0  0  0  0  0  0
    7.9288    1.2816    0.0000 H   0  0  0  0  0  0  0  0  0  0  0  0
    7.3088    0.6616    0.0000 H   0  0  0  0  0  0  0  0  0  0  0  0
    5.7835   -3.8836    0.0000 H   0  0  0  0  0  0  0  0  0  0  0  0
    6.5818   -3.8805    0.0000 H   0  0  0  0  0  0  0  0  0  0  0  0
    4.3719   -0.6613    0.0000 H   0  0  0  0  0  0  0  0  0  0  0  0
    4.3457   -4.0566    0.0000 H   0  0  0  0  0  0  0  0  0  0  0  0
    2.8787   -1.4929    0.0000 H   0  0  0  0  0  0  0  0  0  0  0  0
   10.4543    2.6933    0.0000 H   0  0  0  0  0  0  0  0  0  0  0  0
    9.8611    2.1610    0.0000 H   0  0  0  0  0  0  0  0  0  0  0  0
   11.4739    1.6602    0.0000 H   0  0  0  0  0  0  0  0  0  0  0  0
   12.0672    2.1925    0.0000 H   0  0  0  0  0  0  0  0  0  0  0  0
    2.0000   -3.0786    0.0000 H   0  0  0  0  0  0  0  0  0  0  0  0
   11.7435    3.8500    0.0000 H   0  0  0  0  0  0  0  0  0  0  0  0
   11.1502    3.3177    0.0000 H   0  0  0  0  0  0  0  0  0  0  0  0
   12.8704    2.8299    0.0000 H   0  0  0  0  0  0  0  0  0  0  0  0
   13.3492    3.5644    0.0000 H   0  0  0  0  0  0  0  0  0  0  0  0
   12.6147    4.0432    0.0000 H   0  0  0  0  0  0  0  0  0  0  0  0
  8  1  1  1  0  0  0
  1 20  1  0  0  0  0
  2 20  2  0  0  0  0
  3 22  1  0  0  0  0
  3 53  1  0  0  0  0
  4  5  1  0  0  0  0
  4  8  1  0  0  0  0
  4  9  1  0  0  0  0
  4 14  1  1  0  0  0
  5  6  1  0  0  0  0
  5 10  1  0  0  0  0
  5 27  1  6  0  0  0
  6  7  1  0  0  0  0
  6 13  1  0  0  0  0
  6 28  1  1  0  0  0
  7 11  1  0  0  0  0
  7 15  1  0  0  0  0
  7 29  1  6  0  0  0
  8 12  1  0  0  0  0
  8 30  1  0  0  0  0
  9 11  1  0  0  0  0
  9 31  1  0  0  0  0
  9 32  1  0  0  0  0
 10 12  1  0  0  0  0
 10 33  1  0  0  0  0
 10 34  1  0  0  0  0
 11 35  1  0  0  0  0
 11 36  1  0  0  0  0
 12 37  1  0  0  0  0
 12 38  1  0  0  0  0
 13 16  1  0  0  0  0
 13 39  1  0  0  0  0
 13 40  1  0  0  0  0
 14 41  1  0  0  0  0
 14 42  1  0  0  0  0
 14 43  1  0  0  0  0
 15 17  2  0  0  0  0
 15 18  1  0  0  0  0
 16 17  1  0  0  0  0
 16 44  1  0  0  0  0
 16 45  1  0  0  0  0
 17 19  1  0  0  0  0
 18 21  2  0  0  0  0
 18 46  1  0  0  0  0
 19 22  2  0  0  0  0
 19 47  1  0  0  0  0
 20 23  1  0  0  0  0
 21 22  1  0  0  0  0
 21 48  1  0  0  0  0
 23 24  1  0  0  0  0
 23 49  1  0  0  0  0
 23 50  1  0  0  0  0
 24 25  1  0  0  0  0
 24 51  1  0  0  0  0
 24 52  1  0  0  0  0
 25 26  1  0  0  0  0
 25 54  1  0  0  0  0
 25 55  1  0  0  0  0
 26 56  1  0  0  0  0
 26 57  1  0  0  0  0
 26 58  1  0  0  0  0
M  END
> <PUBCHEM_COMPOUND_CID>
13791

> <PUBCHEM_COMPOUND_CANONICALIZED>
1

> <PUBCHEM_CACTVS_COMPLEXITY>
518

> <PUBCHEM_CACTVS_HBOND_ACCEPTOR>
3

> <PUBCHEM_CACTVS_HBOND_DONOR>
1

> <PUBCHEM_CACTVS_ROTATABLE_BOND>
5

> <PUBCHEM_CACTVS_SUBSKEYS>
AAADcfB4MAAAAAAAAAAAAAAAAAAAAYAAAAAwYMAAAAAAAGDBAAAAGgAACAAADxSgmAIyDoAABgCIAiDSCAACAAAgIAAIiAEGCIgIJjKCERKCcAAkwBEImAeIwPAPoAABAAAQAADAAAYAACAAAIAADAAAAA==

> <PUBCHEM_IUPAC_OPENEYE_NAME>
[(8R,9S,13S,14S,17S)-3-hydroxy-13-methyl-6,7,8,9,11,12,14,15,16,17-decahydrocyclopenta[a]phenanthren-17-yl] pentanoate

> <PUBCHEM_IUPAC_CAS_NAME>
pentanoic acid [(8R,9S,13S,14S,17S)-3-hydroxy-13-methyl-6,7,8,9,11,12,14,15,16,17-decahydrocyclopenta[a]phenanthren-17-yl] ester

> <PUBCHEM_IUPAC_NAME>
[(8R,9S,13S,14S,17S)-3-hydroxy-13-methyl-6,7,8,9,11,12,14,15,16,17-decahydrocyclopenta[a]phenanthren-17-yl] pentanoate

> <PUBCHEM_IUPAC_SYSTEMATIC_NAME>
[(8R,9S,13S,14S,17S)-13-methyl-3-oxidanyl-6,7,8,9,11,12,14,15,16,17-decahydrocyclopenta[a]phenanthren-17-yl] pentanoate

> <PUBCHEM_IUPAC_TRADITIONAL_NAME>
valeric acid [(8R,9S,13S,14S,17S)-3-hydroxy-13-methyl-6,7,8,9,11,12,14,15,16,17-decahydrocyclopenta[a]phenanthren-17-yl] ester

> <PUBCHEM_IUPAC_INCHI>
InChI=1S/C23H32O3/c1-3-4-5-22(25)26-21-11-10-20-19-8-6-15-14-16(24)7-9-17(15)18(19)12-13-23(20,21)2/h7,9,14,18-21,24H,3-6,8,10-13H2,1-2H3/t18-,19-,20+,21+,23+/m1/s1

> <PUBCHEM_IUPAC_INCHIKEY>
RSEPBGGWRJCQGY-RBRWEJTLSA-N

> <PUBCHEM_XLOGP3>
6

> <PUBCHEM_EXACT_MASS>
356.235145

> <PUBCHEM_MOLECULAR_FORMULA>
C23H32O3

> <PUBCHEM_MOLECULAR_WEIGHT>
356.49838

> <PUBCHEM_OPENEYE_CAN_SMILES>
CCCCC(=O)OC1CCC2C1(CCC3C2CCC4=C3C=CC(=C4)O)C

> <PUBCHEM_OPENEYE_ISO_SMILES>
CCCCC(=O)O[C@H]1CC[C@@H]2[C@@]1(CC[C@H]3[C@H]2CCC4=C3C=CC(=C4)O)C

> <PUBCHEM_CACTVS_TPSA>
46.5

> <PUBCHEM_MONOISOTOPIC_WEIGHT>
356.235145

> <PUBCHEM_TOTAL_CHARGE>
0

> <PUBCHEM_HEAVY_ATOM_COUNT>
26

> <PUBCHEM_ATOM_DEF_STEREO_COUNT>
5

> <PUBCHEM_ATOM_UDEF_STEREO_COUNT>
0

> <PUBCHEM_BOND_DEF_STEREO_COUNT>
0

> <PUBCHEM_BOND_UDEF_STEREO_COUNT>
0

> <PUBCHEM_ISOTOPIC_ATOM_COUNT>
0

> <PUBCHEM_COMPONENT_COUNT>
1

> <PUBCHEM_CACTVS_TAUTO_COUNT>
9

> <PUBCHEM_COORDINATE_TYPE>
1
5
255

> <PUBCHEM_BONDANNOTATIONS>
8  1  5
15  17  8
15  18  8
17  19  8
18  21  8
19  22  8
21  22  8
4  14  5
5  27  6
6  28  5
7  29  6

$$$$

