47205672
  -OEChem-06241222593D

 36 36  0     0  0  0  0  0  0999 V2000
    5.9482    2.5046   -0.6343 Cl  0  0  0  0  0  0  0  0  0  0  0  0
   -3.6483    0.6713   -1.2317 O   0  0  0  0  0  0  0  0  0  0  0  0
   -1.1862   -1.3953    1.1943 O   0  0  0  0  0  0  0  0  0  0  0  0
    0.8730    0.8137   -0.8668 O   0  0  0  0  0  0  0  0  0  0  0  0
   -3.6984   -1.2638    0.0496 N   0  0  0  0  0  0  0  0  0  0  0  0
   -0.2779   -1.6868   -0.9209 N   0  0  0  0  0  0  0  0  0  0  0  0
    1.0068   -1.4668   -0.4874 N   0  0  0  0  0  0  0  0  0  0  0  0
   -5.2380    0.5036    0.5867 C   0  0  0  0  0  0  0  0  0  0  0  0
   -5.7116    1.9040    0.2089 C   0  0  0  0  0  0  0  0  0  0  0  0
   -4.1156    0.0099   -0.3084 C   0  0  0  0  0  0  0  0  0  0  0  0
   -2.6421   -1.9545   -0.6512 C   0  0  0  0  0  0  0  0  0  0  0  0
   -6.8118    2.3903    1.1381 C   0  0  0  0  0  0  0  0  0  0  0  0
   -1.3131   -1.6305   -0.0051 C   0  0  0  0  0  0  0  0  0  0  0  0
    2.9025   -0.0183   -0.0321 C   0  0  0  0  0  0  0  0  0  0  0  0
    1.4994   -0.1759   -0.4962 C   0  0  0  0  0  0  0  0  0  0  0  0
    3.6763    1.0452   -0.4972 C   0  0  0  0  0  0  0  0  0  0  0  0
    3.4455   -0.9342    0.8692 C   0  0  0  0  0  0  0  0  0  0  0  0
    4.9930    1.1929   -0.0609 C   0  0  0  0  0  0  0  0  0  0  0  0
    4.7624   -0.7865    1.3051 C   0  0  0  0  0  0  0  0  0  0  0  0
    5.5360    0.2770    0.8403 C   0  0  0  0  0  0  0  0  0  0  0  0
   -6.0714   -0.2056    0.5161 H   0  0  0  0  0  0  0  0  0  0  0  0
   -4.8763    0.4972    1.6220 H   0  0  0  0  0  0  0  0  0  0  0  0
   -6.0804    1.9078   -0.8237 H   0  0  0  0  0  0  0  0  0  0  0  0
   -4.8707    2.6068    0.2476 H   0  0  0  0  0  0  0  0  0  0  0  0
   -2.8227   -3.0303   -0.5702 H   0  0  0  0  0  0  0  0  0  0  0  0
   -2.6497   -1.6632   -1.7063 H   0  0  0  0  0  0  0  0  0  0  0  0
   -4.1331   -1.7297    0.8409 H   0  0  0  0  0  0  0  0  0  0  0  0
   -7.6815    1.7269    1.0968 H   0  0  0  0  0  0  0  0  0  0  0  0
   -7.1365    3.3945    0.8483 H   0  0  0  0  0  0  0  0  0  0  0  0
   -6.4603    2.4327    2.1739 H   0  0  0  0  0  0  0  0  0  0  0  0
   -0.3969   -1.9051   -1.9046 H   0  0  0  0  0  0  0  0  0  0  0  0
    1.5379   -2.2942   -0.2398 H   0  0  0  0  0  0  0  0  0  0  0  0
    3.2591    1.7595   -1.2034 H   0  0  0  0  0  0  0  0  0  0  0  0
    2.8683   -1.7590    1.2763 H   0  0  0  0  0  0  0  0  0  0  0  0
    5.1836   -1.4958    2.0117 H   0  0  0  0  0  0  0  0  0  0  0  0
    6.5601    0.3802    1.1899 H   0  0  0  0  0  0  0  0  0  0  0  0
  1 18  1  0  0  0  0
  2 10  2  0  0  0  0
  3 13  2  0  0  0  0
  4 15  2  0  0  0  0
  5 10  1  0  0  0  0
  5 11  1  0  0  0  0
  5 27  1  0  0  0  0
  6  7  1  0  0  0  0
  6 13  1  0  0  0  0
  6 31  1  0  0  0  0
  7 15  1  0  0  0  0
  7 32  1  0  0  0  0
  8  9  1  0  0  0  0
  8 10  1  0  0  0  0
  8 21  1  0  0  0  0
  8 22  1  0  0  0  0
  9 12  1  0  0  0  0
  9 23  1  0  0  0  0
  9 24  1  0  0  0  0
 11 13  1  0  0  0  0
 11 25  1  0  0  0  0
 11 26  1  0  0  0  0
 12 28  1  0  0  0  0
 12 29  1  0  0  0  0
 12 30  1  0  0  0  0
 14 15  1  0  0  0  0
 14 16  2  0  0  0  0
 14 17  1  0  0  0  0
 16 18  1  0  0  0  0
 16 33  1  0  0  0  0
 17 19  2  0  0  0  0
 17 34  1  0  0  0  0
 18 20  2  0  0  0  0
 19 20  1  0  0  0  0
 19 35  1  0  0  0  0
 20 36  1  0  0  0  0
M  END
> <PUBCHEM_COMPOUND_CID>
47205672

> <PUBCHEM_CONFORMER_RMSD>
1

> <PUBCHEM_CONFORMER_DIVERSEORDER>
1
5
17
53
66
70
46
14
68
95
3
50
97
22
15
59
45
41
6
54
98
39
87
89
86
9
96
78
80
51
62
82
91
52
84
19
44
93
63
21
88
27
26
94
12
13
28
65
79
47
71
58
11
32
72
55
69
81
38
18
23
20
33
85
40
60
99
2
64
83
4
90
42
36
74
43
30
29
25
34
76
7
35
16
92
57
10
73
77
75
31
49
56
8
37
67
24
48
61

> <PUBCHEM_MMFF94_PARTIAL_CHARGES>
25
1 -0.18
10 0.57
11 0.36
13 0.57
14 0.09
15 0.54
16 -0.15
17 -0.15
18 0.18
19 -0.15
2 -0.57
20 -0.15
27 0.37
3 -0.57
31 0.37
32 0.37
33 0.15
34 0.15
35 0.15
36 0.15
4 -0.57
5 -0.73
6 -0.43
7 -0.43
8 0.06

> <PUBCHEM_EFFECTIVE_ROTOR_COUNT>
9

> <PUBCHEM_PHARMACOPHORE_FEATURES>
8
1 12 hydrophobe
1 2 acceptor
1 3 acceptor
1 4 acceptor
1 5 donor
1 6 donor
1 7 donor
6 14 16 17 18 19 20 rings

> <PUBCHEM_HEAVY_ATOM_COUNT>
20

> <PUBCHEM_ATOM_DEF_STEREO_COUNT>
0

> <PUBCHEM_ATOM_UDEF_STEREO_COUNT>
0

> <PUBCHEM_BOND_DEF_STEREO_COUNT>
0

> <PUBCHEM_BOND_UDEF_STEREO_COUNT>
0

> <PUBCHEM_ISOTOPIC_ATOM_COUNT>
0

> <PUBCHEM_COMPONENT_COUNT>
1

> <PUBCHEM_CACTVS_TAUTO_COUNT>
8

> <PUBCHEM_CONFORMER_ID>
02D04D2800000001

> <PUBCHEM_MMFF94_ENERGY>
36.4704

> <PUBCHEM_FEATURE_SELFOVERLAP>
42.134

> <PUBCHEM_SHAPE_FINGERPRINT>
10 15 18271516547065145345
10912923 1 18200043841273023562
11089746 13 18114474353436445320
117890 112 18260832600550587576
12107183 9 18268720578763185234
12596602 18 18060699481283536705
13073987 5 18200594696271433546
13167372 99 18410857672363523016
13785724 45 17979642556862538490
14123256 34 10951757604314089985
14251764 18 18272935977204480007
14251764 30 13038908871184885312
14294032 229 17822569414084320399
15188451 53 14907889445991326529
15519825 34 16486114104137472321
15880784 105 12175610794419610743
18222031 100 7709450602800027551
20281389 69 18410575072031560177
20526848 3 18334008424180068377
20621476 66 18408600366238435153
20871999 31 5400800545186153787
21054139 6 8070036558031771060
21315759 148 14908187481528662032
21421861 104 17987530358716505074
21637258 2 11743834742792091137
23559900 14 17749098986011226278
268830 7 18129676218097271414
270888 7 18261671580127235585
2748736 6 18262522614949063977
2767999 5 18186525427524302385
2838139 119 18041007245363021713
312425 54 16774074081616261601
314194 84 8718547250334771014
351380 3 10591754381839762785
3680242 22 18340764939816742537
4259306 186 8646772187977906939
465052 167 11815602104320085819
5104073 3 17988651740116792098
5718773 13 10735581472410996465
7062679 6 18408601448469934557
7970288 3 10447636977592944065
8272917 22 18413110576432774202

> <PUBCHEM_SHAPE_MULTIPOLES>
380.91
17.18
2.44
1.12
9.48
0.71
-0.15
14.13
-4.08
1.46
0.07
-0.12
0
-2.16

> <PUBCHEM_SHAPE_SELFOVERLAP>
765.152

> <PUBCHEM_SHAPE_VOLUME>
223.2

> <PUBCHEM_COORDINATE_TYPE>
2
5
10

$$$$

