5281921
  -OEChem-07051213012D

 24 27  0     1  0  0  0  0  0999 V2000
    7.0722    0.8044    0.0000 O   0  0  0  0  0  0  0  0  0  0  0  0
    2.5000   -2.4127    0.0000 O   0  0  0  0  0  0  0  0  0  0  0  0
    6.0718    0.8041    0.0000 C   0  0  3  0  0  0  0  0  0  0  0  0
    6.5718   -0.0619    0.0000 C   0  0  3  0  0  0  0  0  0  0  0  0
    5.1321    1.1462    0.0000 C   0  0  0  0  0  0  0  0  0  0  0  0
    6.6817    1.5891    0.0000 C   0  0  0  0  0  0  0  0  0  0  0  0
    3.0000   -1.5467    0.0000 C   0  0  3  0  0  0  0  0  0  0  0  0
    5.1693    2.1395    0.0000 C   0  0  0  0  0  0  0  0  0  0  0  0
    6.1252    2.4127    0.0000 C   0  0  0  0  0  0  0  0  0  0  0  0
    2.0000   -1.5467    0.0000 C   0  0  0  0  0  0  0  0  0  0  0  0
    6.3981   -1.0467    0.0000 C   0  0  0  0  0  0  0  0  0  0  0  0
    3.8660   -1.0467    0.0000 C   0  0  0  0  0  0  0  0  0  0  0  0
    4.1924    0.8041    0.0000 C   0  0  0  0  0  0  0  0  0  0  0  0
    4.6321   -1.6895    0.0000 C   0  0  0  0  0  0  0  0  0  0  0  0
    3.6924   -0.0619    0.0000 C   0  0  0  0  0  0  0  0  0  0  0  0
    5.6321   -1.6895    0.0000 C   0  0  0  0  0  0  0  0  0  0  0  0
    7.3705   -0.3527    0.0000 H   0  0  0  0  0  0  0  0  0  0  0  0
    7.3014    1.5685    0.0000 H   0  0  0  0  0  0  0  0  0  0  0  0
    2.7800   -0.7257    0.0000 H   0  0  0  0  0  0  0  0  0  0  0  0
    4.6814    2.5221    0.0000 H   0  0  0  0  0  0  0  0  0  0  0  0
    1.8923   -0.9361    0.0000 H   0  0  0  0  0  0  0  0  0  0  0  0
    1.4174   -1.7588    0.0000 H   0  0  0  0  0  0  0  0  0  0  0  0
    6.3372    2.9953    0.0000 H   0  0  0  0  0  0  0  0  0  0  0  0
    4.4200   -2.2721    0.0000 H   0  0  0  0  0  0  0  0  0  0  0  0
  1  3  1  0  0  0  0
  1  4  1  0  0  0  0
  2  7  1  0  0  0  0
  2 10  1  0  0  0  0
  3  4  1  0  0  0  0
  3  5  1  0  0  0  0
  3  6  1  0  0  0  0
  4 11  1  0  0  0  0
  4 17  1  0  0  0  0
  5  8  2  0  0  0  0
  5 13  1  0  0  0  0
  6  9  2  0  0  0  0
  6 18  1  0  0  0  0
  7 10  1  0  0  0  0
  7 12  1  0  0  0  0
  7 19  1  0  0  0  0
  8  9  1  0  0  0  0
  8 20  1  0  0  0  0
  9 23  1  0  0  0  0
 10 21  1  0  0  0  0
 10 22  1  0  0  0  0
 11 16  3  0  0  0  0
 12 14  2  0  0  0  0
 12 15  1  0  0  0  0
 13 15  3  0  0  0  0
 14 16  1  0  0  0  0
 14 24  1  0  0  0  0
M  END
> <PUBCHEM_COMPOUND_CID>
5281921

> <PUBCHEM_COMPOUND_CANONICALIZED>
1

> <PUBCHEM_CACTVS_COMPLEXITY>
608

> <PUBCHEM_CACTVS_HBOND_ACCEPTOR>
2

> <PUBCHEM_CACTVS_HBOND_DONOR>
0

> <PUBCHEM_CACTVS_ROTATABLE_BOND>
1

> <PUBCHEM_CACTVS_SUBSKEYS>
AAADccBwMAAAAAAAAAAAAAAAEiQAAQAAAAAAAAAAAAAAAECAAAAAGgAAAAAADFSggAIAAAAABADAEiBCAAgAAAAgAAAICAAAAAgIBAIAIQACEAAEwAAIoAIAAAAKAAAAAAAAAAAAAAAAAAAAAAAAAAAAAA==

> <PUBCHEM_IUPAC_INCHI>
InChI=1S/C14H8O2/c1-3-10(12-9-15-12)6-7-11-4-2-8-14(11)13(5-1)16-14/h2-4,8,12-13H,9H2/b10-3+

> <PUBCHEM_IUPAC_INCHIKEY>
UHODKFMUYXVQJH-XCVCLJGOSA-N

> <PUBCHEM_XLOGP3_AA>
0.6

> <PUBCHEM_EXACT_MASS>
208.052429

> <PUBCHEM_MOLECULAR_FORMULA>
C14H8O2

> <PUBCHEM_MOLECULAR_WEIGHT>
208.21212

> <PUBCHEM_OPENEYE_CAN_SMILES>
C1C(O1)C2=CC#CC3C4(O3)C=CC=C4C#C2

> <PUBCHEM_OPENEYE_ISO_SMILES>
C1C(O1)/C/2=C/C#CC3C4(O3)C=CC=C4C#C2

> <PUBCHEM_CACTVS_TPSA>
25.1

> <PUBCHEM_MONOISOTOPIC_WEIGHT>
208.052429

> <PUBCHEM_TOTAL_CHARGE>
0

> <PUBCHEM_HEAVY_ATOM_COUNT>
16

> <PUBCHEM_ATOM_DEF_STEREO_COUNT>
0

> <PUBCHEM_ATOM_UDEF_STEREO_COUNT>
3

> <PUBCHEM_BOND_DEF_STEREO_COUNT>
1

> <PUBCHEM_BOND_UDEF_STEREO_COUNT>
0

> <PUBCHEM_ISOTOPIC_ATOM_COUNT>
0

> <PUBCHEM_COMPONENT_COUNT>
1

> <PUBCHEM_CACTVS_TAUTO_COUNT>
1

> <PUBCHEM_COORDINATE_TYPE>
1
5
255

> <PUBCHEM_BONDANNOTATIONS>
3  6  3
4  17  3
7  19  3

$$$$

