5462452
  -OEChem-07051212593D

 52 55  0     1  0  0  0  0  0999 V2000
    1.1077    1.7277   -1.6305 O   0  0  0  0  0  0  0  0  0  0  0  0
   -2.9602    3.0560    0.3495 O   0  0  0  0  0  0  0  0  0  0  0  0
   -4.0655    1.1083    2.0158 O   0  0  0  0  0  0  0  0  0  0  0  0
    4.5938    0.6090    1.3388 O   0  0  0  0  0  0  0  0  0  0  0  0
    3.6054    2.0682   -0.7854 O   0  0  0  0  0  0  0  0  0  0  0  0
   -1.4201   -2.8357   -1.2693 N   0  0  1  0  0  0  0  0  0  0  0  0
   -0.8528   -0.0274   -0.4263 C   0  0  2  0  0  0  0  0  0  0  0  0
   -1.3977   -2.4780    0.1643 C   0  0  2  0  0  0  0  0  0  0  0  0
   -1.7375   -1.0078    0.3398 C   0  0  0  0  0  0  0  0  0  0  0  0
   -0.8821   -0.5128   -1.9085 C   0  0  0  0  0  0  0  0  0  0  0  0
   -0.5250   -1.9987   -2.0745 C   0  0  0  0  0  0  0  0  0  0  0  0
    0.6158    0.0534    0.0891 C   0  0  0  0  0  0  0  0  0  0  0  0
   -0.1087   -2.8765    0.9199 C   0  0  0  0  0  0  0  0  0  0  0  0
    0.4186   -1.8119    1.8828 C   0  0  0  0  0  0  0  0  0  0  0  0
    1.1597   -0.7148    1.1487 C   0  0  0  0  0  0  0  0  0  0  0  0
   -1.4649    1.3769   -0.3911 C   0  0  0  0  0  0  0  0  0  0  0  0
   -2.7827   -0.6408    1.1002 C   0  0  0  0  0  0  0  0  0  0  0  0
    1.4858    0.9757   -0.5496 C   0  0  0  0  0  0  0  0  0  0  0  0
   -1.2023   -4.2568   -1.5194 C   0  0  0  0  0  0  0  0  0  0  0  0
   -2.4993    1.7576    0.3676 C   0  0  0  0  0  0  0  0  0  0  0  0
   -3.1801    0.7743    1.2359 C   0  0  0  0  0  0  0  0  0  0  0  0
    2.4964   -0.4934    1.5541 C   0  0  0  0  0  0  0  0  0  0  0  0
    2.8069    1.1678   -0.1437 C   0  0  0  0  0  0  0  0  0  0  0  0
    3.3108    0.4381    0.9181 C   0  0  0  0  0  0  0  0  0  0  0  0
    1.8623    1.5393   -2.8175 C   0  0  0  0  0  0  0  0  0  0  0  0
   -3.9610    3.2215   -0.6368 C   0  0  0  0  0  0  0  0  0  0  0  0
    5.5767   -0.2192    0.7280 C   0  0  0  0  0  0  0  0  0  0  0  0
   -2.2106   -3.0574    0.6264 H   0  0  0  0  0  0  0  0  0  0  0  0
   -0.2459    0.0644   -2.5770 H   0  0  0  0  0  0  0  0  0  0  0  0
   -1.8991   -0.3726   -2.3090 H   0  0  0  0  0  0  0  0  0  0  0  0
   -0.6436   -2.2532   -3.1351 H   0  0  0  0  0  0  0  0  0  0  0  0
    0.5290   -2.1678   -1.8247 H   0  0  0  0  0  0  0  0  0  0  0  0
    0.6984   -3.1580    0.2326 H   0  0  0  0  0  0  0  0  0  0  0  0
   -0.3277   -3.7881    1.4928 H   0  0  0  0  0  0  0  0  0  0  0  0
    1.1048   -2.3190    2.5739 H   0  0  0  0  0  0  0  0  0  0  0  0
   -0.3628   -1.3858    2.5215 H   0  0  0  0  0  0  0  0  0  0  0  0
   -1.0545    2.1425   -1.0432 H   0  0  0  0  0  0  0  0  0  0  0  0
   -3.3823   -1.3680    1.6375 H   0  0  0  0  0  0  0  0  0  0  0  0
   -0.1813   -4.5795   -1.2915 H   0  0  0  0  0  0  0  0  0  0  0  0
   -1.4004   -4.4904   -2.5716 H   0  0  0  0  0  0  0  0  0  0  0  0
   -1.8972   -4.8653   -0.9303 H   0  0  0  0  0  0  0  0  0  0  0  0
    2.9155   -1.0718    2.3762 H   0  0  0  0  0  0  0  0  0  0  0  0
    4.4681    2.0958   -0.3374 H   0  0  0  0  0  0  0  0  0  0  0  0
    2.3797    0.5733   -2.8511 H   0  0  0  0  0  0  0  0  0  0  0  0
    2.5706    2.3615   -2.9547 H   0  0  0  0  0  0  0  0  0  0  0  0
    1.1710    1.5745   -3.6658 H   0  0  0  0  0  0  0  0  0  0  0  0
   -4.8221    2.5717   -0.4448 H   0  0  0  0  0  0  0  0  0  0  0  0
   -3.5652    3.0338   -1.6412 H   0  0  0  0  0  0  0  0  0  0  0  0
   -4.3073    4.2588   -0.6002 H   0  0  0  0  0  0  0  0  0  0  0  0
    5.3917   -1.2719    0.9647 H   0  0  0  0  0  0  0  0  0  0  0  0
    6.5560    0.0597    1.1268 H   0  0  0  0  0  0  0  0  0  0  0  0
    5.5900   -0.0769   -0.3575 H   0  0  0  0  0  0  0  0  0  0  0  0
  1 18  1  0  0  0  0
  1 25  1  0  0  0  0
  2 20  1  0  0  0  0
  2 26  1  0  0  0  0
  3 21  2  0  0  0  0
  4 24  1  0  0  0  0
  4 27  1  0  0  0  0
  5 23  1  0  0  0  0
  5 43  1  0  0  0  0
  6  8  1  0  0  0  0
  6 11  1  0  0  0  0
  6 19  1  0  0  0  0
  7  9  1  0  0  0  0
  7 10  1  0  0  0  0
  7 12  1  0  0  0  0
  7 16  1  0  0  0  0
  8  9  1  0  0  0  0
  8 13  1  0  0  0  0
  8 28  1  0  0  0  0
  9 17  2  0  0  0  0
 10 11  1  0  0  0  0
 10 29  1  0  0  0  0
 10 30  1  0  0  0  0
 11 31  1  0  0  0  0
 11 32  1  0  0  0  0
 12 15  1  0  0  0  0
 12 18  2  0  0  0  0
 13 14  1  0  0  0  0
 13 33  1  0  0  0  0
 13 34  1  0  0  0  0
 14 15  1  0  0  0  0
 14 35  1  0  0  0  0
 14 36  1  0  0  0  0
 15 22  2  0  0  0  0
 16 20  2  0  0  0  0
 16 37  1  0  0  0  0
 17 21  1  0  0  0  0
 17 38  1  0  0  0  0
 18 23  1  0  0  0  0
 19 39  1  0  0  0  0
 19 40  1  0  0  0  0
 19 41  1  0  0  0  0
 20 21  1  0  0  0  0
 22 24  1  0  0  0  0
 22 42  1  0  0  0  0
 23 24  2  0  0  0  0
 25 44  1  0  0  0  0
 25 45  1  0  0  0  0
 25 46  1  0  0  0  0
 26 47  1  0  0  0  0
 26 48  1  0  0  0  0
 26 49  1  0  0  0  0
 27 50  1  0  0  0  0
 27 51  1  0  0  0  0
 27 52  1  0  0  0  0
M  END
> <PUBCHEM_COMPOUND_CID>
5462452

> <PUBCHEM_CONFORMER_RMSD>
0.8

> <PUBCHEM_CONFORMER_DIVERSEORDER>
2
3
1
5
4

> <PUBCHEM_MMFF94_PARTIAL_CHARGES>
29
1 -0.36
11 0.27
12 -0.14
14 0.14
15 -0.14
16 -0.29
17 -0.14
18 0.08
19 0.27
2 -0.36
20 0.09
21 0.54
22 -0.15
23 0.08
24 0.08
25 0.28
26 0.28
27 0.28
3 -0.57
37 0.15
38 0.15
4 -0.36
42 0.15
43 0.45
5 -0.53
6 -0.81
7 0.42
8 0.41
9 -0.28

> <PUBCHEM_EFFECTIVE_ROTOR_COUNT>
4

> <PUBCHEM_PHARMACOPHORE_FEATURES>
10
1 1 acceptor
1 2 acceptor
1 3 acceptor
1 4 acceptor
1 5 donor
1 6 cation
6 12 15 18 22 23 24 rings
6 6 7 8 9 10 11 rings
6 7 9 16 17 20 21 rings
7 7 8 9 12 13 14 15 rings

> <PUBCHEM_HEAVY_ATOM_COUNT>
27

> <PUBCHEM_ATOM_DEF_STEREO_COUNT>
2

> <PUBCHEM_ATOM_UDEF_STEREO_COUNT>
0

> <PUBCHEM_BOND_DEF_STEREO_COUNT>
0

> <PUBCHEM_BOND_UDEF_STEREO_COUNT>
0

> <PUBCHEM_ISOTOPIC_ATOM_COUNT>
0

> <PUBCHEM_COMPONENT_COUNT>
1

> <PUBCHEM_CACTVS_TAUTO_COUNT>
3

> <PUBCHEM_CONFORMER_ID>
005359B400000002

> <PUBCHEM_MMFF94_ENERGY>
116.0031

> <PUBCHEM_FEATURE_SELFOVERLAP>
51.368

> <PUBCHEM_SHAPE_FINGERPRINT>
10165383 225 17320366429513181873
10764073 3 17123683822019531216
10863032 1 17458626743519155478
10948715 1 18263089970910624947
121448 382 17968108520772060853
12160290 23 18118663466784014195
12422481 6 18055370282084897770
12633257 1 16629956754320157305
12788726 201 18195805172138775207
13004483 165 17682692722135485623
131258 38 16407018350653444683
13134695 92 16962378908368816143
13140716 1 17339551601695191448
133893 2 17318163197316267491
13583140 156 16951990370633500266
13681431 1 16814038275506194375
14142880 1 18129683957248413737
14790565 3 17774711035675614212
14955137 171 17846204610138807384
15064986 96 18122347049316601658
15420108 30 18050588505308544553
16945 1 18191851349990111079
17859628 37 17771062997363966905
17980427 23 17988924530844157989
17980427 26 16373225209066662051
20600515 1 17247829255116561727
21033648 29 18115887332810053576
21524375 3 18407755945819262843
21731228 192 18337104661407471225
21756936 100 18200018539916186012
22112679 90 17977379443597819915
23419403 2 15808090774906371643
23559900 14 17764568199817661805
23598288 3 18341612568623256169
35225 105 18335416820806687961
469060 322 12313807023408432284
5845 1 11438275079770761871
6438718 38 18191011322853347674
81228 2 17897444978555274135
9862522 239 18341621454926643313

> <PUBCHEM_SHAPE_MULTIPOLES>
521.32
6.86
3.84
2.16
6.08
2.14
0.91
-5.18
-3.09
-3.56
1.63
0.13
0.37
-1.4

> <PUBCHEM_SHAPE_SELFOVERLAP>
1137.46

> <PUBCHEM_SHAPE_VOLUME>
281.7

> <PUBCHEM_COORDINATE_TYPE>
2
5
10

$$$$

