4437
  -OEChem-06261200073D

 27 28  0     0  0  0  0  0  0999 V2000
   -1.6445    2.8972   -0.0004 S   0  0  0  0  0  0  0  0  0  0  0  0
   -3.3516   -2.2180    0.0010 S   0  0  0  0  0  0  0  0  0  0  0  0
    4.4061   -0.7769   -0.0002 S   0  0  0  0  0  0  0  0  0  0  0  0
   -1.2527    3.3440   -1.3426 O   0  5  0  0  0  0  0  0  0  0  0  0
   -3.0924    2.9372    0.2441 O   0  0  0  0  0  0  0  0  0  0  0  0
   -0.8403    3.4505    1.0960 O   0  0  0  0  0  0  0  0  0  0  0  0
   -3.6176   -2.4445    1.4295 O   0  5  0  0  0  0  0  0  0  0  0  0
   -4.4541   -1.5462   -0.7062 O   0  0  0  0  0  0  0  0  0  0  0  0
   -2.8180   -3.3860   -0.7160 O   0  0  0  0  0  0  0  0  0  0  0  0
    4.7360   -0.8936   -1.4286 O   0  5  0  0  0  0  0  0  0  0  0  0
    5.1932    0.2467    0.7064 O   0  0  0  0  0  0  0  0  0  0  0  0
    4.3278   -2.0581    0.7175 O   0  0  0  0  0  0  0  0  0  0  0  0
    0.1116    0.7406   -0.0002 C   0  0  0  0  0  0  0  0  0  0  0  0
    0.3699   -0.6510    0.0000 C   0  0  0  0  0  0  0  0  0  0  0  0
   -1.2181    1.1921   -0.0001 C   0  0  0  0  0  0  0  0  0  0  0  0
   -2.0241   -1.0835    0.0002 C   0  0  0  0  0  0  0  0  0  0  0  0
   -0.7091   -1.5499    0.0003 C   0  0  0  0  0  0  0  0  0  0  0  0
   -2.2780    0.2849    0.0000 C   0  0  0  0  0  0  0  0  0  0  0  0
    1.6996   -1.1026    0.0001 C   0  0  0  0  0  0  0  0  0  0  0  0
    1.1908    1.6394   -0.0003 C   0  0  0  0  0  0  0  0  0  0  0  0
    2.7595   -0.1953   -0.0002 C   0  0  0  0  0  0  0  0  0  0  0  0
    2.5057    1.1731   -0.0004 C   0  0  0  0  0  0  0  0  0  0  0  0
   -0.5080   -2.6194    0.0118 H   0  0  0  0  0  0  0  0  0  0  0  0
   -3.3095    0.6222    0.0010 H   0  0  0  0  0  0  0  0  0  0  0  0
    1.8959   -2.1730   -0.0109 H   0  0  0  0  0  0  0  0  0  0  0  0
    1.0747    2.7161   -0.0406 H   0  0  0  0  0  0  0  0  0  0  0  0
    3.3165    1.8963   -0.0174 H   0  0  0  0  0  0  0  0  0  0  0  0
  1  4  1  0  0  0  0
  1  5  2  0  0  0  0
  1  6  2  0  0  0  0
  1 15  1  0  0  0  0
  2  7  1  0  0  0  0
  2  8  2  0  0  0  0
  2  9  2  0  0  0  0
  2 16  1  0  0  0  0
  3 10  1  0  0  0  0
  3 11  2  0  0  0  0
  3 12  2  0  0  0  0
  3 21  1  0  0  0  0
 13 14  1  0  0  0  0
 13 15  2  0  0  0  0
 13 20  1  0  0  0  0
 14 17  2  0  0  0  0
 14 19  1  0  0  0  0
 15 18  1  0  0  0  0
 16 17  1  0  0  0  0
 16 18  2  0  0  0  0
 17 23  1  0  0  0  0
 18 24  1  0  0  0  0
 19 21  2  0  0  0  0
 19 25  1  0  0  0  0
 20 22  2  0  0  0  0
 20 26  1  0  0  0  0
 21 22  1  0  0  0  0
 22 27  1  0  0  0  0
M  CHG  3   4  -1   7  -1  10  -1
M  END
> <PUBCHEM_COMPOUND_CID>
4437

> <PUBCHEM_CONFORMER_RMSD>
0.6

> <PUBCHEM_CONFORMER_DIVERSEORDER>
2
1
3
4

> <PUBCHEM_MMFF94_PARTIAL_CHARGES>
25
1 1.46
10 -0.82
11 -0.82
12 -0.82
15 -0.01
16 -0.01
17 -0.15
18 -0.15
19 -0.15
2 1.46
20 -0.15
21 -0.01
22 -0.15
23 0.15
24 0.15
25 0.15
26 0.15
27 0.15
3 1.46
4 -0.82
5 -0.82
6 -0.82
7 -0.82
8 -0.82
9 -0.82

> <PUBCHEM_EFFECTIVE_ROTOR_COUNT>
3

> <PUBCHEM_PHARMACOPHORE_FEATURES>
14
1 10 acceptor
1 11 acceptor
1 12 acceptor
1 4 acceptor
1 5 acceptor
1 6 acceptor
1 7 acceptor
1 8 acceptor
1 9 acceptor
4 1 4 5 6 anion
4 2 7 8 9 anion
4 3 10 11 12 anion
6 13 14 15 16 17 18 rings
6 13 14 19 20 21 22 rings

> <PUBCHEM_HEAVY_ATOM_COUNT>
22

> <PUBCHEM_ATOM_DEF_STEREO_COUNT>
0

> <PUBCHEM_ATOM_UDEF_STEREO_COUNT>
0

> <PUBCHEM_BOND_DEF_STEREO_COUNT>
0

> <PUBCHEM_BOND_UDEF_STEREO_COUNT>
0

> <PUBCHEM_ISOTOPIC_ATOM_COUNT>
0

> <PUBCHEM_COMPONENT_COUNT>
1

> <PUBCHEM_CACTVS_TAUTO_COUNT>
1

> <PUBCHEM_CONFORMER_ID>
0000115500000002

> <PUBCHEM_MMFF94_ENERGY>
49.2156

> <PUBCHEM_FEATURE_SELFOVERLAP>
71.276

> <PUBCHEM_SHAPE_FINGERPRINT>
10319926 262 18191046650062099554
10411042 1 18265896865177746319
10616163 171 18338232769144275254
10967382 1 17906171746030263824
1100329 8 18336543910610031713
11045515 52 18129385912646662469
11578080 2 17459490891239662089
116883 192 18408600340421054942
12293681 160 17900565654617232753
12403259 226 18335426729459743992
12553582 1 18338791204675813102
12788726 201 18342461443419504562
13052359 8 18268995469443877489
13134695 92 18118971282879547541
13140716 1 18410287000085303393
13583140 156 14418127465206150027
138480 1 15960052116607539169
14178342 30 18268726046667587338
14508225 48 18339652156829692957
14790565 3 17114380338910622433
14866123 147 18267304424913588355
15042514 8 18340199795340390881
16087824 20 18339361972651322781
16752209 62 18340495542203594026
16945 1 18337952397493708925
17357779 13 18336279954651174269
17492 89 18411419544639550626
1813 80 18190723255371181447
20510252 161 18334577949453762680
20739085 24 18123162659669372811
21029758 11 18338240345123408187
21041028 32 18268979909104262563
21267235 1 18339072692569022199
21478907 32 18411422812697699403
21524375 3 17911232042170431785
221490 88 17909547255555289419
22224240 67 18117832438358805585
23175994 123 18270116791316645711
23184049 29 18410012122130905740
2334 1 18266739087042265369
23402539 116 18334584512137696455
23557571 272 18261102015338265572
23558518 356 18343577443511079936
23559900 14 18336557049020082280
23845131 108 17759789743632058121
25147074 1 18059574754562369106
2748010 2 18265627497898089189
283562 15 18412266142152760362
3091708 16 9493568786150298993
314173 85 18335133150885612331
335352 9 18410012131163770493
350125 39 18409729522163284248
352729 6 18263923409325066981
5104073 3 18337116760937090562
54173680 148 18410293652773405712
5486654 2 18192709171208822821
68521 5 18411136935226269839
7164475 11 18413106152399454228
7364860 26 17544194879242070169
81228 2 18412818110317657441
9709674 26 18189054368692787758

> <PUBCHEM_SHAPE_MULTIPOLES>
411.47
8.37
4.01
0.92
7.95
2.25
-0.04
-5.7
0.02
-4.77
0.03
0
0
0.06

> <PUBCHEM_SHAPE_SELFOVERLAP>
867.354

> <PUBCHEM_SHAPE_VOLUME>
231.1

> <PUBCHEM_COORDINATE_TYPE>
2
5
10

$$$$

