8416
  -OEChem-06261202482D

 28 28  0     0  0  0  0  0  0999 V2000
    5.4641    2.1900    0.0000 O   0  0  0  0  0  0  0  0  0  0  0  0
    2.0000    2.1900    0.0000 O   0  0  0  0  0  0  0  0  0  0  0  0
    3.7320    0.1900    0.0000 N   0  0  0  0  0  0  0  0  0  0  0  0
    4.5981    0.6900    0.0000 C   0  0  0  0  0  0  0  0  0  0  0  0
    2.8660    0.6900    0.0000 C   0  0  0  0  0  0  0  0  0  0  0  0
    3.7320   -0.8100    0.0000 C   0  0  0  0  0  0  0  0  0  0  0  0
    4.5981    1.6900    0.0000 C   0  0  0  0  0  0  0  0  0  0  0  0
    2.8660    1.6900    0.0000 C   0  0  0  0  0  0  0  0  0  0  0  0
    2.8660   -1.3100    0.0000 C   0  0  0  0  0  0  0  0  0  0  0  0
    4.5981   -1.3100    0.0000 C   0  0  0  0  0  0  0  0  0  0  0  0
    2.8660   -2.3100    0.0000 C   0  0  0  0  0  0  0  0  0  0  0  0
    4.5981   -2.3100    0.0000 C   0  0  0  0  0  0  0  0  0  0  0  0
    3.7320   -2.8100    0.0000 C   0  0  0  0  0  0  0  0  0  0  0  0
    4.8101    0.1074    0.0000 H   0  0  0  0  0  0  0  0  0  0  0  0
    5.2087    0.7977    0.0000 H   0  0  0  0  0  0  0  0  0  0  0  0
    2.2554    0.7977    0.0000 H   0  0  0  0  0  0  0  0  0  0  0  0
    2.6540    0.1074    0.0000 H   0  0  0  0  0  0  0  0  0  0  0  0
    4.3860    2.2726    0.0000 H   0  0  0  0  0  0  0  0  0  0  0  0
    3.9875    1.5823    0.0000 H   0  0  0  0  0  0  0  0  0  0  0  0
    3.4766    1.5823    0.0000 H   0  0  0  0  0  0  0  0  0  0  0  0
    3.0781    2.2726    0.0000 H   0  0  0  0  0  0  0  0  0  0  0  0
    2.3291   -1.0000    0.0000 H   0  0  0  0  0  0  0  0  0  0  0  0
    5.1350   -1.0000    0.0000 H   0  0  0  0  0  0  0  0  0  0  0  0
    2.3291   -2.6200    0.0000 H   0  0  0  0  0  0  0  0  0  0  0  0
    5.1350   -2.6200    0.0000 H   0  0  0  0  0  0  0  0  0  0  0  0
    3.7320   -3.4300    0.0000 H   0  0  0  0  0  0  0  0  0  0  0  0
    5.4641    2.8100    0.0000 H   0  0  0  0  0  0  0  0  0  0  0  0
    2.0000    2.8100    0.0000 H   0  0  0  0  0  0  0  0  0  0  0  0
  1  7  1  0  0  0  0
  1 27  1  0  0  0  0
  2  8  1  0  0  0  0
  2 28  1  0  0  0  0
  3  4  1  0  0  0  0
  3  5  1  0  0  0  0
  3  6  1  0  0  0  0
  4  7  1  0  0  0  0
  4 14  1  0  0  0  0
  4 15  1  0  0  0  0
  5  8  1  0  0  0  0
  5 16  1  0  0  0  0
  5 17  1  0  0  0  0
  6  9  2  0  0  0  0
  6 10  1  0  0  0  0
  7 18  1  0  0  0  0
  7 19  1  0  0  0  0
  8 20  1  0  0  0  0
  8 21  1  0  0  0  0
  9 11  1  0  0  0  0
  9 22  1  0  0  0  0
 10 12  2  0  0  0  0
 10 23  1  0  0  0  0
 11 13  2  0  0  0  0
 11 24  1  0  0  0  0
 12 13  1  0  0  0  0
 12 25  1  0  0  0  0
 13 26  1  0  0  0  0
M  END
> <PUBCHEM_COMPOUND_CID>
8416

> <PUBCHEM_COMPOUND_CANONICALIZED>
1

> <PUBCHEM_CACTVS_COMPLEXITY>
118

> <PUBCHEM_CACTVS_HBOND_ACCEPTOR>
3

> <PUBCHEM_CACTVS_HBOND_DONOR>
2

> <PUBCHEM_CACTVS_ROTATABLE_BOND>
5

> <PUBCHEM_CACTVS_SUBSKEYS>
AAADccByMAAAAAAAAAAAAAAAAAAAAAAAAAAwAAAAAAAAAAABAAAAHgAACAAACAjhkAYwwIMAAgCAACRCQACCAAAhAgAIiAAIZIgKMCLAkZGEIAhggADYyAcQAAAAAAAAAAAAAAAAAAAAAAAAAAAAAAAAAA==

> <PUBCHEM_IUPAC_OPENEYE_NAME>
2-[N-(2-hydroxyethyl)anilino]ethanol

> <PUBCHEM_IUPAC_CAS_NAME>
2-[N-(2-hydroxyethyl)anilino]ethanol

> <PUBCHEM_IUPAC_NAME>
2-[N-(2-hydroxyethyl)anilino]ethanol

> <PUBCHEM_IUPAC_SYSTEMATIC_NAME>
2-[2-hydroxyethyl(phenyl)amino]ethanol

> <PUBCHEM_IUPAC_TRADITIONAL_NAME>
2-[N-(2-hydroxyethyl)anilino]ethanol

> <PUBCHEM_IUPAC_INCHI>
InChI=1S/C10H15NO2/c12-8-6-11(7-9-13)10-4-2-1-3-5-10/h1-5,12-13H,6-9H2

> <PUBCHEM_IUPAC_INCHIKEY>
OJPDDQSCZGTACX-UHFFFAOYSA-N

> <PUBCHEM_XLOGP3>
0.4

> <PUBCHEM_EXACT_MASS>
181.110279

> <PUBCHEM_MOLECULAR_FORMULA>
C10H15NO2

> <PUBCHEM_MOLECULAR_WEIGHT>
181.2316

> <PUBCHEM_OPENEYE_CAN_SMILES>
C1=CC=C(C=C1)N(CCO)CCO

> <PUBCHEM_OPENEYE_ISO_SMILES>
C1=CC=C(C=C1)N(CCO)CCO

> <PUBCHEM_CACTVS_TPSA>
43.7

> <PUBCHEM_MONOISOTOPIC_WEIGHT>
181.110279

> <PUBCHEM_TOTAL_CHARGE>
0

> <PUBCHEM_HEAVY_ATOM_COUNT>
13

> <PUBCHEM_ATOM_DEF_STEREO_COUNT>
0

> <PUBCHEM_ATOM_UDEF_STEREO_COUNT>
0

> <PUBCHEM_BOND_DEF_STEREO_COUNT>
0

> <PUBCHEM_BOND_UDEF_STEREO_COUNT>
0

> <PUBCHEM_ISOTOPIC_ATOM_COUNT>
0

> <PUBCHEM_COMPONENT_COUNT>
1

> <PUBCHEM_CACTVS_TAUTO_COUNT>
1

> <PUBCHEM_COORDINATE_TYPE>
1
5
255

> <PUBCHEM_BONDANNOTATIONS>
10  12  8
11  13  8
12  13  8
6  10  8
6  9  8
9  11  8

$$$$

