10211
  -OEChem-07051212563D

 42 44  0     1  0  0  0  0  0999 V2000
   -1.1695   -0.8399   -0.3814 O   0  0  0  0  0  0  0  0  0  0  0  0
   -3.4052    0.0868   -1.6310 O   0  0  0  0  0  0  0  0  0  0  0  0
   -4.1679   -1.5336    1.5692 O   0  0  0  0  0  0  0  0  0  0  0  0
    0.8426   -2.9446   -0.2507 O   0  0  0  0  0  0  0  0  0  0  0  0
   -0.2767    1.7597   -0.0921 O   0  0  0  0  0  0  0  0  0  0  0  0
    4.2709    0.1490    0.4078 O   0  0  0  0  0  0  0  0  0  0  0  0
   -0.7028    4.0083   -0.0042 O   0  0  0  0  0  0  0  0  0  0  0  0
   -4.0745   -0.0785   -0.3774 C   0  0  0  0  0  0  0  0  0  0  0  0
   -3.4250   -1.2650    0.3733 C   0  0  1  0  0  0  0  0  0  0  0  0
   -1.9679   -1.0395    0.7836 C   0  0  0  0  0  0  0  0  0  0  0  0
   -3.9428    1.2308    0.4079 C   0  0  0  0  0  0  0  0  0  0  0  0
   -5.5553   -0.3542   -0.6708 C   0  0  0  0  0  0  0  0  0  0  0  0
    0.1560   -0.5933   -0.1889 C   0  0  0  0  0  0  0  0  0  0  0  0
    1.1034   -1.6123   -0.1292 C   0  0  0  0  0  0  0  0  0  0  0  0
    0.6601    0.7014   -0.0369 C   0  0  0  0  0  0  0  0  0  0  0  0
    2.4658   -1.4050    0.0659 C   0  0  0  0  0  0  0  0  0  0  0  0
    2.0141    0.9718    0.1613 C   0  0  0  0  0  0  0  0  0  0  0  0
    2.9361   -0.0853    0.2149 C   0  0  0  0  0  0  0  0  0  0  0  0
    3.0568   -2.6962    0.0607 C   0  0  0  0  0  0  0  0  0  0  0  0
    2.4369    2.3557    0.3093 C   0  0  0  0  0  0  0  0  0  0  0  0
    2.0312   -3.5920   -0.1343 C   0  0  0  0  0  0  0  0  0  0  0  0
    1.5430    3.3458    0.2552 C   0  0  0  0  0  0  0  0  0  0  0  0
    0.1070    3.0891    0.0460 C   0  0  0  0  0  0  0  0  0  0  0  0
    5.0637    0.3410   -0.7585 C   0  0  0  0  0  0  0  0  0  0  0  0
   -3.4608   -2.1596   -0.2623 H   0  0  0  0  0  0  0  0  0  0  0  0
   -1.6073   -1.9255    1.3227 H   0  0  0  0  0  0  0  0  0  0  0  0
   -1.8697   -0.1953    1.4764 H   0  0  0  0  0  0  0  0  0  0  0  0
   -4.4568    2.0438   -0.1189 H   0  0  0  0  0  0  0  0  0  0  0  0
   -4.3734    1.1528    1.4112 H   0  0  0  0  0  0  0  0  0  0  0  0
   -2.9014    1.5527    0.4927 H   0  0  0  0  0  0  0  0  0  0  0  0
   -6.1609   -0.3839    0.2403 H   0  0  0  0  0  0  0  0  0  0  0  0
   -5.6765   -1.3051   -1.2021 H   0  0  0  0  0  0  0  0  0  0  0  0
   -5.9684    0.4196   -1.3285 H   0  0  0  0  0  0  0  0  0  0  0  0
   -3.5012   -0.7403   -2.1334 H   0  0  0  0  0  0  0  0  0  0  0  0
   -4.9972   -1.9688    1.3095 H   0  0  0  0  0  0  0  0  0  0  0  0
    4.1017   -2.9436    0.1839 H   0  0  0  0  0  0  0  0  0  0  0  0
    3.4837    2.5857    0.4718 H   0  0  0  0  0  0  0  0  0  0  0  0
    1.9852   -4.6684   -0.2104 H   0  0  0  0  0  0  0  0  0  0  0  0
    1.8543    4.3786    0.3677 H   0  0  0  0  0  0  0  0  0  0  0  0
    6.0811    0.5896   -0.4441 H   0  0  0  0  0  0  0  0  0  0  0  0
    4.6773    1.1635   -1.3685 H   0  0  0  0  0  0  0  0  0  0  0  0
    5.0979   -0.5779   -1.3521 H   0  0  0  0  0  0  0  0  0  0  0  0
  1 10  1  0  0  0  0
  1 13  1  0  0  0  0
  2  8  1  0  0  0  0
  2 34  1  0  0  0  0
  3  9  1  0  0  0  0
  3 35  1  0  0  0  0
  4 14  1  0  0  0  0
  4 21  1  0  0  0  0
  5 15  1  0  0  0  0
  5 23  1  0  0  0  0
  6 18  1  0  0  0  0
  6 24  1  0  0  0  0
  7 23  2  0  0  0  0
  8  9  1  0  0  0  0
  8 11  1  0  0  0  0
  8 12  1  0  0  0  0
  9 10  1  0  0  0  0
  9 25  1  0  0  0  0
 10 26  1  0  0  0  0
 10 27  1  0  0  0  0
 11 28  1  0  0  0  0
 11 29  1  0  0  0  0
 11 30  1  0  0  0  0
 12 31  1  0  0  0  0
 12 32  1  0  0  0  0
 12 33  1  0  0  0  0
 13 14  2  0  0  0  0
 13 15  1  0  0  0  0
 14 16  1  0  0  0  0
 15 17  2  0  0  0  0
 16 18  2  0  0  0  0
 16 19  1  0  0  0  0
 17 18  1  0  0  0  0
 17 20  1  0  0  0  0
 19 21  2  0  0  0  0
 19 36  1  0  0  0  0
 20 22  2  0  0  0  0
 20 37  1  0  0  0  0
 21 38  1  0  0  0  0
 22 23  1  0  0  0  0
 22 39  1  0  0  0  0
 24 40  1  0  0  0  0
 24 41  1  0  0  0  0
 24 42  1  0  0  0  0
M  END
> <PUBCHEM_COMPOUND_CID>
10211

> <PUBCHEM_CONFORMER_RMSD>
0.8

> <PUBCHEM_CONFORMER_DIVERSEORDER>
3
27
38
19
13
35
1
33
21
32
8
29
36
5
15
37
10
34
22
14
11
39
20
30
2
25
18
16
7
6
28
24
12
17
9
31
26
23
4

> <PUBCHEM_MMFF94_PARTIAL_CHARGES>
27
1 -0.36
10 0.28
13 0.08
14 0.14
15 0.08
17 0.03
18 0.08
19 -0.15
2 -0.68
20 -0.18
21 -0.01
22 -0.14
23 0.71
24 0.28
3 -0.68
34 0.4
35 0.4
36 0.15
37 0.15
38 0.15
39 0.15
4 -0.28
5 -0.23
6 -0.36
7 -0.57
8 0.28
9 0.28

> <PUBCHEM_EFFECTIVE_ROTOR_COUNT>
5

> <PUBCHEM_PHARMACOPHORE_FEATURES>
12
1 1 acceptor
1 2 acceptor
1 2 donor
1 3 acceptor
1 3 donor
1 4 acceptor
1 6 acceptor
1 7 acceptor
3 8 11 12 hydrophobe
5 4 14 16 19 21 rings
6 13 14 15 16 17 18 rings
6 5 15 17 20 22 23 rings

> <PUBCHEM_HEAVY_ATOM_COUNT>
24

> <PUBCHEM_ATOM_DEF_STEREO_COUNT>
1

> <PUBCHEM_ATOM_UDEF_STEREO_COUNT>
0

> <PUBCHEM_BOND_DEF_STEREO_COUNT>
0

> <PUBCHEM_BOND_UDEF_STEREO_COUNT>
0

> <PUBCHEM_ISOTOPIC_ATOM_COUNT>
0

> <PUBCHEM_COMPONENT_COUNT>
1

> <PUBCHEM_CACTVS_TAUTO_COUNT>
1

> <PUBCHEM_CONFORMER_ID>
000027E300000003

> <PUBCHEM_MMFF94_ENERGY>
84.048

> <PUBCHEM_FEATURE_SELFOVERLAP>
61.031

> <PUBCHEM_SHAPE_FINGERPRINT>
10366900 7 18202005395907735359
10411042 1 18193560201566566966
10693767 8 18113337535533684190
10906281 52 18270665533301811824
10967382 1 18410013230316760162
1100329 8 18265618672146217970
116883 192 18049161360632628854
12236239 1 17458063742479677455
12553582 1 18338788039220963019
12788726 201 17765150957458820899
13134695 92 18410299141768010039
13140716 1 18194692458393565026
13402501 40 18272373036167858889
13583140 156 18341328899615219687
138480 1 18410013255791541657
13911987 19 18270103622819945972
14790565 3 18338789006201313700
14866123 147 16899058059305940547
15042514 8 17329712531541735026
15081414 286 18336818775225008162
1601671 61 18411698781721158128
16945 1 18337118886793011254
19591789 44 18266736888071867844
19930381 70 18266744589206556019
20028762 73 17970909955592683807
20681677 76 18269837519747822299
21421861 104 18057042638790651522
21641784 216 18129645522077225828
221357 26 18341061808636529413
22289505 5 18341623649876322133
2334 1 17761497989574425834
23558518 356 17909548698679495040
23559900 14 18339085887272304601
266924 87 18339358686293927004
2748010 2 17977947887278337650
3060560 45 18333731286967313494
3091708 16 9358712585396771864
350125 39 17906729202731355418
352729 6 16608869938223053804
3886686 26 17036451404752353304
474 4 18335987450209074603
6438718 38 17607531533611652245
6443956 14 18412261744243022348
81228 2 17981600782000095202
9709674 26 18413388727057117163

> <PUBCHEM_SHAPE_MULTIPOLES>
452.82
8.86
4.2
0.88
7.68
1.75
0.02
-2.07
0.8
-2.76
-0.26
0.7
-0.14
0.43

> <PUBCHEM_SHAPE_SELFOVERLAP>
982.284

> <PUBCHEM_SHAPE_VOLUME>
250.2

> <PUBCHEM_COORDINATE_TYPE>
2
5
10

$$$$

