360322
  -OEChem-07051213003D

 30 33  0     0  0  0  0  0  0999 V2000
   -4.3053    1.3511    0.5506 O   0  0  0  0  0  0  0  0  0  0  0  0
   -5.0015   -0.8705   -0.0722 O   0  0  0  0  0  0  0  0  0  0  0  0
    1.2604   -0.7349    0.1142 N   0  0  0  0  0  0  0  0  0  0  0  0
   -0.9783   -0.0405   -0.1403 C   0  0  0  0  0  0  0  0  0  0  0  0
    0.4256    0.2967   -0.1486 C   0  0  0  0  0  0  0  0  0  0  0  0
   -3.2532    0.5527    0.2217 C   0  0  0  0  0  0  0  0  0  0  0  0
   -3.6508   -0.7158   -0.1338 C   0  0  0  0  0  0  0  0  0  0  0  0
   -1.9238    0.9219    0.2285 C   0  0  0  0  0  0  0  0  0  0  0  0
    3.1112    0.7888   -0.1310 C   0  0  0  0  0  0  0  0  0  0  0  0
   -1.3879   -1.3375   -0.5035 C   0  0  0  0  0  0  0  0  0  0  0  0
    2.5853   -0.4952    0.1234 C   0  0  0  0  0  0  0  0  0  0  0  0
   -2.7408   -1.6853   -0.5021 C   0  0  0  0  0  0  0  0  0  0  0  0
    0.8457    1.5853   -0.4090 C   0  0  0  0  0  0  0  0  0  0  0  0
    2.2114    1.8291   -0.3986 C   0  0  0  0  0  0  0  0  0  0  0  0
   -5.4096    0.4429    0.3616 C   0  0  0  0  0  0  0  0  0  0  0  0
    4.4999    1.0032   -0.1131 C   0  0  0  0  0  0  0  0  0  0  0  0
    3.4798   -1.5283    0.3892 C   0  0  0  0  0  0  0  0  0  0  0  0
    5.3715   -0.0483    0.1558 C   0  0  0  0  0  0  0  0  0  0  0  0
    4.8604   -1.3154    0.4071 C   0  0  0  0  0  0  0  0  0  0  0  0
   -1.6577    1.9264    0.5398 H   0  0  0  0  0  0  0  0  0  0  0  0
   -0.6685   -2.0960   -0.8046 H   0  0  0  0  0  0  0  0  0  0  0  0
   -3.0587   -2.6827   -0.7838 H   0  0  0  0  0  0  0  0  0  0  0  0
    0.1714    2.4014   -0.6435 H   0  0  0  0  0  0  0  0  0  0  0  0
    2.5710    2.8344   -0.6060 H   0  0  0  0  0  0  0  0  0  0  0  0
   -5.9511    0.3468    1.3097 H   0  0  0  0  0  0  0  0  0  0  0  0
   -6.0870    0.8657   -0.3892 H   0  0  0  0  0  0  0  0  0  0  0  0
    4.9104    1.9913   -0.3085 H   0  0  0  0  0  0  0  0  0  0  0  0
    3.1046   -2.5304    0.5892 H   0  0  0  0  0  0  0  0  0  0  0  0
    6.4438    0.1212    0.1689 H   0  0  0  0  0  0  0  0  0  0  0  0
    5.5332   -2.1417    0.6177 H   0  0  0  0  0  0  0  0  0  0  0  0
  1  6  1  0  0  0  0
  1 15  1  0  0  0  0
  2  7  1  0  0  0  0
  2 15  1  0  0  0  0
  3  5  2  0  0  0  0
  3 11  1  0  0  0  0
  4  5  1  0  0  0  0
  4  8  2  0  0  0  0
  4 10  1  0  0  0  0
  5 13  1  0  0  0  0
  6  7  2  0  0  0  0
  6  8  1  0  0  0  0
  7 12  1  0  0  0  0
  8 20  1  0  0  0  0
  9 11  1  0  0  0  0
  9 14  1  0  0  0  0
  9 16  2  0  0  0  0
 10 12  2  0  0  0  0
 10 21  1  0  0  0  0
 11 17  2  0  0  0  0
 12 22  1  0  0  0  0
 13 14  2  0  0  0  0
 13 23  1  0  0  0  0
 14 24  1  0  0  0  0
 15 25  1  0  0  0  0
 15 26  1  0  0  0  0
 16 18  1  0  0  0  0
 16 27  1  0  0  0  0
 17 19  1  0  0  0  0
 17 28  1  0  0  0  0
 18 19  2  0  0  0  0
 18 29  1  0  0  0  0
 19 30  1  0  0  0  0
M  END
> <PUBCHEM_COMPOUND_CID>
360322

> <PUBCHEM_CONFORMER_RMSD>
0.6

> <PUBCHEM_CONFORMER_DIVERSEORDER>
3
2
5
1
4

> <PUBCHEM_MMFF94_PARTIAL_CHARGES>
26
1 -0.36
10 -0.15
11 0.31
12 -0.15
13 -0.15
14 -0.15
15 0.56
16 -0.15
17 -0.15
18 -0.15
19 -0.15
2 -0.36
20 0.15
21 0.15
22 0.15
23 0.15
24 0.15
27 0.15
28 0.15
29 0.15
3 -0.62
30 0.15
5 0.31
6 0.08
7 0.08
8 -0.15

> <PUBCHEM_EFFECTIVE_ROTOR_COUNT>
1.6

> <PUBCHEM_PHARMACOPHORE_FEATURES>
7
1 1 acceptor
1 2 acceptor
1 3 acceptor
5 1 2 6 7 15 rings
6 3 5 9 11 13 14 rings
6 4 6 7 8 10 12 rings
6 9 11 16 17 18 19 rings

> <PUBCHEM_HEAVY_ATOM_COUNT>
19

> <PUBCHEM_ATOM_DEF_STEREO_COUNT>
0

> <PUBCHEM_ATOM_UDEF_STEREO_COUNT>
0

> <PUBCHEM_BOND_DEF_STEREO_COUNT>
0

> <PUBCHEM_BOND_UDEF_STEREO_COUNT>
0

> <PUBCHEM_ISOTOPIC_ATOM_COUNT>
0

> <PUBCHEM_COMPONENT_COUNT>
1

> <PUBCHEM_CACTVS_TAUTO_COUNT>
1

> <PUBCHEM_CONFORMER_ID>
00057F8200000003

> <PUBCHEM_MMFF94_ENERGY>
60.3126

> <PUBCHEM_FEATURE_SELFOVERLAP>
35.707

> <PUBCHEM_SHAPE_FINGERPRINT>
10062212 137 18261679194566090399
10616163 171 18263362499365619150
12107183 9 17761210324848137995
12236239 1 18408322181085016177
12251169 10 18409449184793185716
12670546 56 18261399918401547565
128620 24 10879993557841198874
13167823 11 18410576167016163898
13533116 47 14635139175192633046
13551218 46 18338234972087958183
13675066 3 18272931609191117393
14341114 176 18411975862482179394
15196674 1 18410575076073150839
15242433 33 18411418401787223110
15375462 189 18130796697813441402
15442244 35 18410574002442330508
15536298 74 18408605838364068536
15788980 27 18060701697259826853
17349148 13 17894912923334980885
17834072 33 18410012113456373756
1813 80 17346596396101074212
18186145 218 17489315152421672955
19141452 34 18409731746439086703
19489759 90 16660361498065434939
200 152 18334579027406073121
20279233 1 15430032141121428597
20612939 158 18060134302400525908
20645477 70 18341613745988036526
21033648 29 17632032878831421181
21267235 1 18411129234255131350
21421861 104 17914903264746886242
21641784 216 17345739906945775836
221490 88 18127967508171087266
22646028 1 18409731750691589412
23402539 116 17968101923723418917
23559900 14 18113904827724836680
26918003 58 18059855051884220739
300161 21 18335427858930491688
3004659 81 18413385458697352526
335352 9 18410575114764786735
345986 75 18198638811488821184
34797466 226 17095796617121803676
3545911 37 18408039606607240180
4073 2 17917142797711844490
42 15 18413106169025461156
4214541 1 18410012143632089965
4463277 17 18411699885855028284
474 4 17844244030245303196
5104073 3 18409729525903812195
542803 24 17603584127431575664
573450 72 18260553311786245803
77779 3 18410855438700869542
9709674 26 18408879616343329150
9971528 1 18273498949044480436
9981440 41 17259907316996133704

> <PUBCHEM_SHAPE_MULTIPOLES>
374.29
11.94
1.74
0.7
1.83
0
0.01
-1
-1.57
-0.45
0.11
0.05
-0.01
-0.86

> <PUBCHEM_SHAPE_SELFOVERLAP>
856.219

> <PUBCHEM_SHAPE_VOLUME>
193.9

> <PUBCHEM_COORDINATE_TYPE>
2
5
10

$$$$

