17396251
  -OEChem-06241222553D

 42 44  0     0  0  0  0  0  0999 V2000
    8.5858    0.4233    1.1775 Cl  0  0  0  0  0  0  0  0  0  0  0  0
    1.2590    2.2848    0.0625 S   0  0  0  0  0  0  0  0  0  0  0  0
   -7.2745    0.8719   -0.9311 O   0  0  0  0  0  0  0  0  0  0  0  0
   -6.6211   -0.5290    0.8103 N   0  0  0  0  0  0  0  0  0  0  0  0
    0.6061   -0.6337    0.1362 N   0  0  0  0  0  0  0  0  0  0  0  0
    3.6808    1.2812   -0.0063 N   0  0  0  0  0  0  0  0  0  0  0  0
    1.9606   -0.3167    0.0088 N   0  0  0  0  0  0  0  0  0  0  0  0
   -1.7303   -0.2493   -0.2325 C   0  0  0  0  0  0  0  0  0  0  0  0
   -4.4014   -1.0341   -0.0571 C   0  0  0  0  0  0  0  0  0  0  0  0
   -0.3036    0.1697   -0.3261 C   0  0  0  0  0  0  0  0  0  0  0  0
   -5.8300   -1.4525    0.0374 C   0  0  0  0  0  0  0  0  0  0  0  0
   -2.1485   -1.0704    0.8146 C   0  0  0  0  0  0  0  0  0  0  0  0
   -2.6474    0.1795   -1.1919 C   0  0  0  0  0  0  0  0  0  0  0  0
   -3.4842   -1.4628    0.9024 C   0  0  0  0  0  0  0  0  0  0  0  0
   -3.9831   -0.2130   -1.1042 C   0  0  0  0  0  0  0  0  0  0  0  0
    0.0014    1.5018   -0.9591 C   0  0  0  0  0  0  0  0  0  0  0  0
    2.3613    0.9201    0.0272 C   0  0  0  0  0  0  0  0  0  0  0  0
    4.7829    0.4266   -0.0638 C   0  0  0  0  0  0  0  0  0  0  0  0
   -7.2786    0.5592    0.2566 C   0  0  0  0  0  0  0  0  0  0  0  0
    5.9928    0.8087    0.5160 C   0  0  0  0  0  0  0  0  0  0  0  0
    4.6736   -0.8111   -0.6977 C   0  0  0  0  0  0  0  0  0  0  0  0
    7.0929   -0.0469    0.4620 C   0  0  0  0  0  0  0  0  0  0  0  0
    5.7738   -1.6667   -0.7519 C   0  0  0  0  0  0  0  0  0  0  0  0
    6.9835   -1.2846   -0.1720 C   0  0  0  0  0  0  0  0  0  0  0  0
   -8.0520    1.3441    1.2820 C   0  0  0  0  0  0  0  0  0  0  0  0
   -6.2662   -1.5530   -0.9638 H   0  0  0  0  0  0  0  0  0  0  0  0
   -5.9138   -2.4355    0.5150 H   0  0  0  0  0  0  0  0  0  0  0  0
   -1.4538   -1.4100    1.5782 H   0  0  0  0  0  0  0  0  0  0  0  0
   -2.3484    0.7991   -2.0324 H   0  0  0  0  0  0  0  0  0  0  0  0
   -3.7984   -2.0996    1.7251 H   0  0  0  0  0  0  0  0  0  0  0  0
   -4.6848    0.1222   -1.8631 H   0  0  0  0  0  0  0  0  0  0  0  0
   -0.8675    2.1623   -0.9838 H   0  0  0  0  0  0  0  0  0  0  0  0
    0.3703    1.3479   -1.9776 H   0  0  0  0  0  0  0  0  0  0  0  0
   -6.6856   -0.6865    1.8120 H   0  0  0  0  0  0  0  0  0  0  0  0
    3.9032    2.2613    0.1408 H   0  0  0  0  0  0  0  0  0  0  0  0
    6.0765    1.7737    1.0116 H   0  0  0  0  0  0  0  0  0  0  0  0
    3.7785   -1.1317   -1.2193 H   0  0  0  0  0  0  0  0  0  0  0  0
    5.6936   -2.6244   -1.2580 H   0  0  0  0  0  0  0  0  0  0  0  0
    7.8334   -1.9602   -0.2247 H   0  0  0  0  0  0  0  0  0  0  0  0
   -7.4218    1.5578    2.1501 H   0  0  0  0  0  0  0  0  0  0  0  0
   -8.3824    2.2918    0.8480 H   0  0  0  0  0  0  0  0  0  0  0  0
   -8.9261    0.7687    1.5986 H   0  0  0  0  0  0  0  0  0  0  0  0
  1 22  1  0  0  0  0
  2 16  1  0  0  0  0
  2 17  1  0  0  0  0
  3 19  2  0  0  0  0
  4 11  1  0  0  0  0
  4 19  1  0  0  0  0
  4 34  1  0  0  0  0
  5  7  1  0  0  0  0
  5 10  2  0  0  0  0
  6 17  1  0  0  0  0
  6 18  1  0  0  0  0
  6 35  1  0  0  0  0
  7 17  2  0  0  0  0
  8 10  1  0  0  0  0
  8 12  2  0  0  0  0
  8 13  1  0  0  0  0
  9 11  1  0  0  0  0
  9 14  2  0  0  0  0
  9 15  1  0  0  0  0
 10 16  1  0  0  0  0
 11 26  1  0  0  0  0
 11 27  1  0  0  0  0
 12 14  1  0  0  0  0
 12 28  1  0  0  0  0
 13 15  2  0  0  0  0
 13 29  1  0  0  0  0
 14 30  1  0  0  0  0
 15 31  1  0  0  0  0
 16 32  1  0  0  0  0
 16 33  1  0  0  0  0
 18 20  2  0  0  0  0
 18 21  1  0  0  0  0
 19 25  1  0  0  0  0
 20 22  1  0  0  0  0
 20 36  1  0  0  0  0
 21 23  2  0  0  0  0
 21 37  1  0  0  0  0
 22 24  2  0  0  0  0
 23 24  1  0  0  0  0
 23 38  1  0  0  0  0
 24 39  1  0  0  0  0
 25 40  1  0  0  0  0
 25 41  1  0  0  0  0
 25 42  1  0  0  0  0
M  END
> <PUBCHEM_COMPOUND_CID>
17396251

> <PUBCHEM_CONFORMER_RMSD>
1

> <PUBCHEM_CONFORMER_DIVERSEORDER>
1
37
38
7
53
41
33
45
35
26
43
55
9
34
52
48
50
40
17
32
30
29
39
24
51
11
49
8
13
47
14
15
54
2
28
21
18
5
42
27
44
23
6
19
46
16
10
36
22
12
20
3
25
4
31

> <PUBCHEM_MMFF94_PARTIAL_CHARGES>
35
1 -0.18
10 0.3
11 0.44
12 -0.15
13 -0.15
14 -0.15
15 -0.15
16 0.29
17 0.64
18 0.1
19 0.57
2 -0.37
20 -0.15
21 -0.15
22 0.18
23 -0.15
24 -0.15
25 0.06
28 0.15
29 0.15
3 -0.57
30 0.15
31 0.15
34 0.37
35 0.4
36 0.15
37 0.15
38 0.15
39 0.15
4 -0.73
5 -0.45
6 -0.55
7 -0.45
8 0.09
9 -0.14

> <PUBCHEM_EFFECTIVE_ROTOR_COUNT>
6.4

> <PUBCHEM_PHARMACOPHORE_FEATURES>
8
1 3 acceptor
1 4 donor
1 5 acceptor
1 6 donor
3 6 7 17 cation
6 18 20 21 22 23 24 rings
6 2 5 7 10 16 17 rings
6 8 9 12 13 14 15 rings

> <PUBCHEM_HEAVY_ATOM_COUNT>
25

> <PUBCHEM_ATOM_DEF_STEREO_COUNT>
0

> <PUBCHEM_ATOM_UDEF_STEREO_COUNT>
0

> <PUBCHEM_BOND_DEF_STEREO_COUNT>
0

> <PUBCHEM_BOND_UDEF_STEREO_COUNT>
0

> <PUBCHEM_ISOTOPIC_ATOM_COUNT>
0

> <PUBCHEM_COMPONENT_COUNT>
1

> <PUBCHEM_CACTVS_TAUTO_COUNT>
4

> <PUBCHEM_CONFORMER_ID>
0109721B00000001

> <PUBCHEM_MMFF94_ENERGY>
81.5885

> <PUBCHEM_FEATURE_SELFOVERLAP>
40.594

> <PUBCHEM_SHAPE_FINGERPRINT>
10 15 6555404319710528990
100830 39 18339360872686215497
10299344 5 15123791785960470403
10429389 143 15430034374926507177
10674148 151 17775569736480835376
11089746 13 17167863046118261345
11135926 11 17560812030359354355
11181472 205 17313651737561525264
11315181 36 15068622661099064727
12236239 1 17676205745513012575
12516196 113 18334296453297620728
13673619 4 17703793604334236813
13685833 64 18412262826949398686
13885169 127 18410856585758032317
13914758 101 17676201403533081033
14251764 18 17967531281019405040
14251764 46 18411139138438939067
14344974 204 17629464312664754059
14347424 109 18186522090493274512
14444916 359 17203604900435389979
14617045 38 17561083609251003442
14856354 85 15051727565785219011
15131766 46 16518524347785837688
15142383 8 17313103064284779512
15183329 4 18059864973532980769
15461852 350 14707214301371705509
17093844 174 18408886218583334219
17324776 126 15692893331900833219
18335252 98 11167941372933247961
20554085 129 14201400525005552999
21095086 128 13326855534597665504
21130935 74 18336827485508959627
21150785 3 10735876166589570889
21267235 1 17775283850408758805
21365058 27 13902189292337106569
21623969 137 18333731308848370894
21792934 111 18335147483893326744
21792961 116 17632310006926259404
22224240 67 17022906735820831118
23035841 295 17418376882743182187
23424782 7 9799686000499007697
23522609 53 17773288224526677309
23559900 14 18058170527130155901
246663 6 16702581623669984537
2838139 119 17894347779540001489
28498 318 18410293635493225470
3004659 81 17775286046012616996
335352 9 18343584019195440823
34797466 226 16917060050002466646
3633792 109 17096076017766298271
4073 2 18129940062091112818
4093350 32 17967813885841955686
4325135 7 9871746892892425681
439807 62 18130787906564330914
5104073 3 18188494705069505416
5381727 24 18410008829109607131
54039377 194 9078817586755724497
6691757 9 15285638751414684711

> <PUBCHEM_SHAPE_MULTIPOLES>
494.41
25.53
1.71
1.07
0.27
0.3
0.02
-0.37
6.65
0.04
0.02
-0.58
0.06
0.64

> <PUBCHEM_SHAPE_SELFOVERLAP>
1034.748

> <PUBCHEM_SHAPE_VOLUME>
280.3

> <PUBCHEM_COORDINATE_TYPE>
2
5
10

$$$$

