6427970
  -OEChem-07051213083D

 36 36  0     1  0  0  0  0  0999 V2000
    3.1056   -0.9801   -0.6960 O   0  0  0  0  0  0  0  0  0  0  0  0
   -2.7404    1.4308    0.6169 O   0  0  0  0  0  0  0  0  0  0  0  0
   -1.7384    1.5334   -1.4590 O   0  0  0  0  0  0  0  0  0  0  0  0
    0.8001    1.6487   -0.1043 C   0  0  2  0  0  0  0  0  0  0  0  0
    0.9885    0.1307   -0.2934 C   0  0  1  0  0  0  0  0  0  0  0  0
    2.0352    2.0917    0.6840 C   0  0  0  0  0  0  0  0  0  0  0  0
    3.1817    1.3078    0.0599 C   0  0  0  0  0  0  0  0  0  0  0  0
    2.5006    0.0275   -0.3501 C   0  0  0  0  0  0  0  0  0  0  0  0
   -0.4993    2.0747    0.5618 C   0  0  0  0  0  0  0  0  0  0  0  0
    0.4577   -0.7523    0.8266 C   0  0  0  0  0  0  0  0  0  0  0  0
    0.8884   -2.1802    0.6536 C   0  0  0  0  0  0  0  0  0  0  0  0
   -1.7017    1.6537   -0.2422 C   0  0  0  0  0  0  0  0  0  0  0  0
    0.1645   -3.1058    0.0072 C   0  0  0  0  0  0  0  0  0  0  0  0
   -1.1678   -2.8307   -0.6250 C   0  0  0  0  0  0  0  0  0  0  0  0
   -3.9681    1.0208    0.0059 C   0  0  0  0  0  0  0  0  0  0  0  0
   -2.3064   -3.0707    0.3542 C   0  0  0  0  0  0  0  0  0  0  0  0
    0.8560    2.1188   -1.0978 H   0  0  0  0  0  0  0  0  0  0  0  0
    0.5816   -0.1706   -1.2657 H   0  0  0  0  0  0  0  0  0  0  0  0
    1.9357    1.8316    1.7451 H   0  0  0  0  0  0  0  0  0  0  0  0
    2.2025    3.1715    0.6196 H   0  0  0  0  0  0  0  0  0  0  0  0
    3.9829    1.1191    0.7775 H   0  0  0  0  0  0  0  0  0  0  0  0
    3.5680    1.8065   -0.8335 H   0  0  0  0  0  0  0  0  0  0  0  0
   -0.5352    3.1662    0.6569 H   0  0  0  0  0  0  0  0  0  0  0  0
   -0.5659    1.6587    1.5736 H   0  0  0  0  0  0  0  0  0  0  0  0
   -0.6307   -0.6774    0.8999 H   0  0  0  0  0  0  0  0  0  0  0  0
    0.8409   -0.4158    1.7988 H   0  0  0  0  0  0  0  0  0  0  0  0
    1.8338   -2.4800    1.0986 H   0  0  0  0  0  0  0  0  0  0  0  0
    0.5443   -4.1223   -0.0495 H   0  0  0  0  0  0  0  0  0  0  0  0
   -1.2295   -1.8130   -1.0244 H   0  0  0  0  0  0  0  0  0  0  0  0
   -1.2842   -3.4960   -1.4889 H   0  0  0  0  0  0  0  0  0  0  0  0
   -2.2452   -2.4039    1.2201 H   0  0  0  0  0  0  0  0  0  0  0  0
   -3.2682   -2.8934   -0.1379 H   0  0  0  0  0  0  0  0  0  0  0  0
   -2.3017   -4.1032    0.7200 H   0  0  0  0  0  0  0  0  0  0  0  0
   -4.7107    0.8803    0.7957 H   0  0  0  0  0  0  0  0  0  0  0  0
   -3.8296    0.0705   -0.5189 H   0  0  0  0  0  0  0  0  0  0  0  0
   -4.3266    1.7937   -0.6806 H   0  0  0  0  0  0  0  0  0  0  0  0
  1  8  2  0  0  0  0
  2 12  1  0  0  0  0
  2 15  1  0  0  0  0
  3 12  2  0  0  0  0
  4  5  1  0  0  0  0
  4  6  1  0  0  0  0
  4  9  1  0  0  0  0
  4 17  1  0  0  0  0
  5  8  1  0  0  0  0
  5 10  1  0  0  0  0
  5 18  1  0  0  0  0
  6  7  1  0  0  0  0
  6 19  1  0  0  0  0
  6 20  1  0  0  0  0
  7  8  1  0  0  0  0
  7 21  1  0  0  0  0
  7 22  1  0  0  0  0
  9 12  1  0  0  0  0
  9 23  1  0  0  0  0
  9 24  1  0  0  0  0
 10 11  1  0  0  0  0
 10 25  1  0  0  0  0
 10 26  1  0  0  0  0
 11 13  2  0  0  0  0
 11 27  1  0  0  0  0
 13 14  1  0  0  0  0
 13 28  1  0  0  0  0
 14 16  1  0  0  0  0
 14 29  1  0  0  0  0
 14 30  1  0  0  0  0
 15 34  1  0  0  0  0
 15 35  1  0  0  0  0
 15 36  1  0  0  0  0
 16 31  1  0  0  0  0
 16 32  1  0  0  0  0
 16 33  1  0  0  0  0
M  END
> <PUBCHEM_COMPOUND_CID>
6427970

> <PUBCHEM_CONFORMER_RMSD>
0.8

> <PUBCHEM_CONFORMER_DIVERSEORDER>
1
68
22
31
9
61
62
46
48
29
34
21
64
2
55
41
47
51
33
53
16
60
70
8
19
37
13
30
57
32
73
42
50
12
23
40
66
38
15
65
27
25
17
49
26
5
45
6
11
43
36
10
28
18
39
58
20
35
56
54
59
72
71
4
52
7
24
67
44
3
14
63
69

> <PUBCHEM_MMFF94_PARTIAL_CHARGES>
15
1 -0.57
10 0.14
11 -0.29
12 0.66
13 -0.29
14 0.14
15 0.28
2 -0.43
27 0.15
28 0.15
3 -0.57
5 0.06
7 0.06
8 0.45
9 0.06

> <PUBCHEM_EFFECTIVE_ROTOR_COUNT>
6.8

> <PUBCHEM_PHARMACOPHORE_FEATURES>
4
1 1 acceptor
1 16 hydrophobe
1 3 acceptor
5 4 5 6 7 8 rings

> <PUBCHEM_HEAVY_ATOM_COUNT>
16

> <PUBCHEM_ATOM_DEF_STEREO_COUNT>
2

> <PUBCHEM_ATOM_UDEF_STEREO_COUNT>
0

> <PUBCHEM_BOND_DEF_STEREO_COUNT>
1

> <PUBCHEM_BOND_UDEF_STEREO_COUNT>
0

> <PUBCHEM_ISOTOPIC_ATOM_COUNT>
0

> <PUBCHEM_COMPONENT_COUNT>
1

> <PUBCHEM_CACTVS_TAUTO_COUNT>
3

> <PUBCHEM_CONFORMER_ID>
0062154200000001

> <PUBCHEM_MMFF94_ENERGY>
22.2293

> <PUBCHEM_FEATURE_SELFOVERLAP>
20.297

> <PUBCHEM_SHAPE_FINGERPRINT>
10064457 181 18263907943427526241
104564 63 17907007374904277460
10967382 1 18338515364653425210
11680611 10 17914081753372144320
116883 192 17976815389816392870
12553582 1 16681188752092848579
12715332 25 18337105773988831230
13140716 1 18410582772986946010
14251705 54 17762900274626386331
14251745 187 18118975693499626635
16945 1 18194971957295195408
17357779 13 17904776479049979983
18721546 61 18129097814672022064
19591789 44 18410851100900295915
20388701 513 17760380885396751832
20645477 70 18054797449432956429
21041028 32 17620748384879427483
21130352 189 17330842314061771642
21160774 45 18342183228391335117
21501502 16 18268430123278591092
2334 1 18266740177589418794
23402539 116 17831873343253435134
23530152 11 18411136956627207733
23559900 14 18334571387645872846
238 59 17839493259755486125
2748010 2 18339632356882433608
3060560 45 18341615974574870981
33824 294 18339643446867955825
6438718 38 17897156923551704415
7364860 26 17977949321122363297
81228 2 17982731874744055288
8199 65 18194964281987956499
8272917 22 18048032167245830757

> <PUBCHEM_SHAPE_MULTIPOLES>
311.66
4.82
4.06
0.92
0.49
1.62
-0.08
-0.91
-0.11
3.08
0.06
0.06
-0.09
0.37

> <PUBCHEM_SHAPE_SELFOVERLAP>
619.356

> <PUBCHEM_SHAPE_VOLUME>
186.4

> <PUBCHEM_COORDINATE_TYPE>
2
5
10

$$$$

