14743
  -OEChem-07051213052D

 67 71  0     1  0  0  0  0  0999 V2000
    8.6500    0.0695    0.0000 O   0  0  0  0  0  0  0  0  0  0  0  0
    2.0000   -4.2381    0.0000 O   0  0  0  0  0  0  0  0  0  0  0  0
   10.2963   -0.4686    0.0000 O   0  0  0  0  0  0  0  0  0  0  0  0
    7.3931   -2.1858    0.0000 C   0  0  2  0  0  0  0  0  0  0  0  0
    7.3931   -1.1858    0.0000 C   0  0  2  0  0  0  0  0  0  0  0  0
    6.5271   -2.6858    0.0000 C   0  0  1  0  0  0  0  0  0  0  0  0
    5.6610   -2.1858    0.0000 C   0  0  1  0  0  0  0  0  0  0  0  0
    4.7510   -2.6926    0.0000 C   0  0  2  0  0  0  0  0  0  0  0  0
    6.5271   -0.6858    0.0000 C   0  0  0  0  0  0  0  0  0  0  0  0
    5.6610   -1.1858    0.0000 C   0  0  0  0  0  0  0  0  0  0  0  0
    8.3393   -0.8811    0.0000 C   0  0  2  0  0  0  0  0  0  0  0  0
    8.3393   -2.4905    0.0000 C   0  0  0  0  0  0  0  0  0  0  0  0
    6.5431   -3.7273    0.0000 C   0  0  0  0  0  0  0  0  0  0  0  0
    8.9229   -1.6858    0.0000 C   0  0  0  0  0  0  0  0  0  0  0  0
    4.7430   -3.7342    0.0000 C   0  0  0  0  0  0  0  0  0  0  0  0
    7.3931   -0.1858    0.0000 C   0  0  0  0  0  0  0  0  0  0  0  0
    5.6451   -4.2551    0.0000 C   0  0  0  0  0  0  0  0  0  0  0  0
    3.8242   -2.1286    0.0000 C   0  0  0  0  0  0  0  0  0  0  0  0
    4.7587   -1.6927    0.0000 C   0  0  0  0  0  0  0  0  0  0  0  0
    2.8763   -2.6565    0.0000 C   0  0  0  0  0  0  0  0  0  0  0  0
    3.8076   -4.2840    0.0000 C   0  0  0  0  0  0  0  0  0  0  0  0
    2.8680   -3.7415    0.0000 C   0  0  0  0  0  0  0  0  0  0  0  0
    9.6285    0.2757    0.0000 C   0  0  0  0  0  0  0  0  0  0  0  0
    9.9391    1.2262    0.0000 C   0  0  0  0  0  0  0  0  0  0  0  0
   10.9176    1.4324    0.0000 C   0  0  0  0  0  0  0  0  0  0  0  0
   11.2283    2.3829    0.0000 C   0  0  0  0  0  0  0  0  0  0  0  0
   12.2068    2.5892    0.0000 C   0  0  0  0  0  0  0  0  0  0  0  0
   10.5605    3.1272    0.0000 C   0  0  0  0  0  0  0  0  0  0  0  0
   12.5175    3.5397    0.0000 C   0  0  0  0  0  0  0  0  0  0  0  0
   10.8711    4.0778    0.0000 C   0  0  0  0  0  0  0  0  0  0  0  0
   11.8496    4.2840    0.0000 C   0  0  0  0  0  0  0  0  0  0  0  0
    7.4830   -3.0310    0.0000 H   0  0  0  0  0  0  0  0  0  0  0  0
    7.2664   -3.1051    0.0000 H   0  0  0  0  0  0  0  0  0  0  0  0
    6.3972   -1.7608    0.0000 H   0  0  0  0  0  0  0  0  0  0  0  0
    6.9256   -0.2109    0.0000 H   0  0  0  0  0  0  0  0  0  0  0  0
    6.1285   -0.2109    0.0000 H   0  0  0  0  0  0  0  0  0  0  0  0
    5.4490   -0.6032    0.0000 H   0  0  0  0  0  0  0  0  0  0  0  0
    5.0504   -1.2935    0.0000 H   0  0  0  0  0  0  0  0  0  0  0  0
    7.9018   -0.4417    0.0000 H   0  0  0  0  0  0  0  0  0  0  0  0
    8.0883   -3.0574    0.0000 H   0  0  0  0  0  0  0  0  0  0  0  0
    8.8767   -2.7998    0.0000 H   0  0  0  0  0  0  0  0  0  0  0  0
    6.7612   -4.3077    0.0000 H   0  0  0  0  0  0  0  0  0  0  0  0
    7.1523   -3.6118    0.0000 H   0  0  0  0  0  0  0  0  0  0  0  0
    9.3838   -2.1005    0.0000 H   0  0  0  0  0  0  0  0  0  0  0  0
    9.3838   -1.2711    0.0000 H   0  0  0  0  0  0  0  0  0  0  0  0
    8.0131   -0.1858    0.0000 H   0  0  0  0  0  0  0  0  0  0  0  0
    7.3931    0.4342    0.0000 H   0  0  0  0  0  0  0  0  0  0  0  0
    6.7731   -0.1858    0.0000 H   0  0  0  0  0  0  0  0  0  0  0  0
    5.2478   -4.7310    0.0000 H   0  0  0  0  0  0  0  0  0  0  0  0
    6.0460   -4.7280    0.0000 H   0  0  0  0  0  0  0  0  0  0  0  0
    4.2324   -1.6619    0.0000 H   0  0  0  0  0  0  0  0  0  0  0  0
    3.4343   -1.6465    0.0000 H   0  0  0  0  0  0  0  0  0  0  0  0
    5.3787   -1.6975    0.0000 H   0  0  0  0  0  0  0  0  0  0  0  0
    4.7635   -1.0727    0.0000 H   0  0  0  0  0  0  0  0  0  0  0  0
    4.1388   -1.6879    0.0000 H   0  0  0  0  0  0  0  0  0  0  0  0
    2.6718   -2.0712    0.0000 H   0  0  0  0  0  0  0  0  0  0  0  0
    2.2647   -2.7579    0.0000 H   0  0  0  0  0  0  0  0  0  0  0  0
    3.8100   -4.9040    0.0000 H   0  0  0  0  0  0  0  0  0  0  0  0
    9.9186    1.8458    0.0000 H   0  0  0  0  0  0  0  0  0  0  0  0
    9.3253    1.3135    0.0000 H   0  0  0  0  0  0  0  0  0  0  0  0
   10.9382    0.8128    0.0000 H   0  0  0  0  0  0  0  0  0  0  0  0
   11.5315    1.3451    0.0000 H   0  0  0  0  0  0  0  0  0  0  0  0
   12.6209    2.1277    0.0000 H   0  0  0  0  0  0  0  0  0  0  0  0
    9.9538    2.9994    0.0000 H   0  0  0  0  0  0  0  0  0  0  0  0
   13.1241    3.6675    0.0000 H   0  0  0  0  0  0  0  0  0  0  0  0
   10.4571    4.5392    0.0000 H   0  0  0  0  0  0  0  0  0  0  0  0
   12.0422    4.8733    0.0000 H   0  0  0  0  0  0  0  0  0  0  0  0
 11  1  1  1  0  0  0
  1 23  1  0  0  0  0
  2 22  2  0  0  0  0
  3 23  2  0  0  0  0
  4  5  1  0  0  0  0
  4  6  1  0  0  0  0
  4 12  1  0  0  0  0
  4 32  1  6  0  0  0
  5  9  1  0  0  0  0
  5 11  1  0  0  0  0
  5 16  1  1  0  0  0
  6  7  1  0  0  0  0
  6 13  1  0  0  0  0
  6 33  1  1  0  0  0
  7  8  1  0  0  0  0
  7 10  1  0  0  0  0
  7 34  1  6  0  0  0
  8 15  1  0  0  0  0
  8 18  1  0  0  0  0
  8 19  1  1  0  0  0
  9 10  1  0  0  0  0
  9 35  1  0  0  0  0
  9 36  1  0  0  0  0
 10 37  1  0  0  0  0
 10 38  1  0  0  0  0
 11 14  1  0  0  0  0
 11 39  1  0  0  0  0
 12 14  1  0  0  0  0
 12 40  1  0  0  0  0
 12 41  1  0  0  0  0
 13 17  1  0  0  0  0
 13 42  1  0  0  0  0
 13 43  1  0  0  0  0
 14 44  1  0  0  0  0
 14 45  1  0  0  0  0
 15 17  1  0  0  0  0
 15 21  2  0  0  0  0
 16 46  1  0  0  0  0
 16 47  1  0  0  0  0
 16 48  1  0  0  0  0
 17 49  1  0  0  0  0
 17 50  1  0  0  0  0
 18 20  1  0  0  0  0
 18 51  1  0  0  0  0
 18 52  1  0  0  0  0
 19 53  1  0  0  0  0
 19 54  1  0  0  0  0
 19 55  1  0  0  0  0
 20 22  1  0  0  0  0
 20 56  1  0  0  0  0
 20 57  1  0  0  0  0
 21 22  1  0  0  0  0
 21 58  1  0  0  0  0
 23 24  1  0  0  0  0
 24 25  1  0  0  0  0
 24 59  1  0  0  0  0
 24 60  1  0  0  0  0
 25 26  1  0  0  0  0
 25 61  1  0  0  0  0
 25 62  1  0  0  0  0
 26 27  2  0  0  0  0
 26 28  1  0  0  0  0
 27 29  1  0  0  0  0
 27 63  1  0  0  0  0
 28 30  2  0  0  0  0
 28 64  1  0  0  0  0
 29 31  2  0  0  0  0
 29 65  1  0  0  0  0
 30 31  1  0  0  0  0
 30 66  1  0  0  0  0
 31 67  1  0  0  0  0
M  END
> <PUBCHEM_COMPOUND_CID>
14743

> <PUBCHEM_COMPOUND_CANONICALIZED>
1

> <PUBCHEM_CACTVS_COMPLEXITY>
747

> <PUBCHEM_CACTVS_HBOND_ACCEPTOR>
3

> <PUBCHEM_CACTVS_HBOND_DONOR>
0

> <PUBCHEM_CACTVS_ROTATABLE_BOND>
5

> <PUBCHEM_CACTVS_SUBSKEYS>
AAADcfB4MAAAAAAAAAAAAAAAAAAAAYAAAAAwYMEAAAAAAGDBAAAAGgAAAAAADxSgmAIyCIAABACIAqDSCAACAAAgAAAIiAEAAMgIIDKAERCCIAAkgAAIiQeIyPCPgAAAAAAAAACAAAQAACAAAIAADAAAAA==

> <PUBCHEM_IUPAC_OPENEYE_NAME>
[(8R,9S,10R,13S,14S,17S)-10,13-dimethyl-3-oxo-1,2,6,7,8,9,11,12,14,15,16,17-dodecahydrocyclopenta[a]phenanthren-17-yl] 3-phenylpropanoate

> <PUBCHEM_IUPAC_CAS_NAME>
3-phenylpropanoic acid [(8R,9S,10R,13S,14S,17S)-10,13-dimethyl-3-oxo-1,2,6,7,8,9,11,12,14,15,16,17-dodecahydrocyclopenta[a]phenanthren-17-yl] ester

> <PUBCHEM_IUPAC_NAME>
[(8R,9S,10R,13S,14S,17S)-10,13-dimethyl-3-oxo-1,2,6,7,8,9,11,12,14,15,16,17-dodecahydrocyclopenta[a]phenanthren-17-yl] 3-phenylpropanoate

> <PUBCHEM_IUPAC_SYSTEMATIC_NAME>
[(8R,9S,10R,13S,14S,17S)-10,13-dimethyl-3-oxidanylidene-1,2,6,7,8,9,11,12,14,15,16,17-dodecahydrocyclopenta[a]phenanthren-17-yl] 3-phenylpropanoate

> <PUBCHEM_IUPAC_TRADITIONAL_NAME>
3-phenylpropionic acid [(8R,9S,10R,13S,14S,17S)-3-keto-10,13-dimethyl-1,2,6,7,8,9,11,12,14,15,16,17-dodecahydrocyclopenta[a]phenanthren-17-yl] ester

> <PUBCHEM_IUPAC_INCHI>
InChI=1S/C28H36O3/c1-27-16-14-21(29)18-20(27)9-10-22-23-11-12-25(28(23,2)17-15-24(22)27)31-26(30)13-8-19-6-4-3-5-7-19/h3-7,18,22-25H,8-17H2,1-2H3/t22-,23-,24-,25-,27-,28-/m0/s1

> <PUBCHEM_IUPAC_INCHIKEY>
HHSXYDOROIURIP-FEZCWRLCSA-N

> <PUBCHEM_XLOGP3>
5.8

> <PUBCHEM_EXACT_MASS>
420.266445

> <PUBCHEM_MOLECULAR_FORMULA>
C28H36O3

> <PUBCHEM_MOLECULAR_WEIGHT>
420.58364

> <PUBCHEM_OPENEYE_CAN_SMILES>
CC12CCC3C(C1CCC2OC(=O)CCC4=CC=CC=C4)CCC5=CC(=O)CCC35C

> <PUBCHEM_OPENEYE_ISO_SMILES>
C[C@]12CC[C@H]3[C@H]([C@@H]1CC[C@@H]2OC(=O)CCC4=CC=CC=C4)CCC5=CC(=O)CC[C@]35C

> <PUBCHEM_CACTVS_TPSA>
43.4

> <PUBCHEM_MONOISOTOPIC_WEIGHT>
420.266445

> <PUBCHEM_TOTAL_CHARGE>
0

> <PUBCHEM_HEAVY_ATOM_COUNT>
31

> <PUBCHEM_ATOM_DEF_STEREO_COUNT>
6

> <PUBCHEM_ATOM_UDEF_STEREO_COUNT>
0

> <PUBCHEM_BOND_DEF_STEREO_COUNT>
0

> <PUBCHEM_BOND_UDEF_STEREO_COUNT>
0

> <PUBCHEM_ISOTOPIC_ATOM_COUNT>
0

> <PUBCHEM_COMPONENT_COUNT>
1

> <PUBCHEM_CACTVS_TAUTO_COUNT>
5

> <PUBCHEM_COORDINATE_TYPE>
1
5
255

> <PUBCHEM_BONDANNOTATIONS>
11  1  5
26  27  8
26  28  8
27  29  8
28  30  8
29  31  8
30  31  8
4  32  6
5  16  5
6  33  5
7  34  6
8  19  5

$$$$

