53297427
  -OEChem-07051213132D

 45 45  0     0  0  0  0  0  0999 V2000
    3.3828    8.1200    0.0000 S   0  0  0  0  0  0  0  0  0  0  0  0
    8.6450    8.1442    0.0000 S   0  0  0  0  0  0  0  0  0  0  0  0
    0.0000    4.5583    0.0000 Na  0  4  0  0  0  0  0  0  0  0  0  0
    2.5168    9.6200    0.0000 Na  0  3  0  0  0  0  0  0  0  0  0  0
    3.3828    6.1200    0.0000 O   0  0  0  0  0  0  0  0  0  0  0  0
    2.5168    8.6200    0.0000 O   0  5  0  0  0  0  0  0  0  0  0  0
    3.8828    8.9860    0.0000 O   0  0  0  0  0  0  0  0  0  0  0  0
    2.8828    7.2540    0.0000 O   0  0  0  0  0  0  0  0  0  0  0  0
    9.5091    8.6475    0.0000 O   0  5  0  0  0  0  0  0  0  0  0  0
    9.1483    7.2801    0.0000 O   0  0  0  0  0  0  0  0  0  0  0  0
    8.1416    9.0082    0.0000 O   0  0  0  0  0  0  0  0  0  0  0  0
    5.1149    5.1200    0.0000 N   0  0  0  0  0  0  0  0  0  0  0  0
    5.9809    4.6200    0.0000 N   0  0  0  0  0  0  0  0  0  0  0  0
    5.9809    6.6200    0.0000 C   0  0  0  0  0  0  0  0  0  0  0  0
    5.9809    7.6200    0.0000 C   0  0  0  0  0  0  0  0  0  0  0  0
    5.1149    6.1200    0.0000 C   0  0  0  0  0  0  0  0  0  0  0  0
    4.2488    7.6200    0.0000 C   0  0  0  0  0  0  0  0  0  0  0  0
    5.1149    8.1200    0.0000 C   0  0  0  0  0  0  0  0  0  0  0  0
    6.8748    8.1547    0.0000 C   0  0  0  0  0  0  0  0  0  0  0  0
    4.2488    6.6200    0.0000 C   0  0  0  0  0  0  0  0  0  0  0  0
    7.7809    7.6408    0.0000 C   0  0  0  0  0  0  0  0  0  0  0  0
    6.8748    6.0853    0.0000 C   0  0  0  0  0  0  0  0  0  0  0  0
    7.7809    6.5992    0.0000 C   0  0  0  0  0  0  0  0  0  0  0  0
    5.9809    3.6200    0.0000 C   0  0  0  0  0  0  0  0  0  0  0  0
    5.1149    3.1200    0.0000 C   0  0  0  0  0  0  0  0  0  0  0  0
    5.9809    1.6200    0.0000 C   0  0  0  0  0  0  0  0  0  0  0  0
    5.1149    2.1200    0.0000 C   0  0  0  0  0  0  0  0  0  0  0  0
    6.8469    3.1200    0.0000 C   0  0  0  0  0  0  0  0  0  0  0  0
    6.8469    2.1200    0.0000 C   0  0  0  0  0  0  0  0  0  0  0  0
    4.2488    3.6200    0.0000 C   0  0  0  0  0  0  0  0  0  0  0  0
    5.9809    0.6200    0.0000 C   0  0  0  0  0  0  0  0  0  0  0  0
    5.1149    8.7400    0.0000 H   0  0  0  0  0  0  0  0  0  0  0  0
    6.8677    8.7746    0.0000 H   0  0  0  0  0  0  0  0  0  0  0  0
    6.8677    5.4654    0.0000 H   0  0  0  0  0  0  0  0  0  0  0  0
    8.3166    6.2871    0.0000 H   0  0  0  0  0  0  0  0  0  0  0  0
    6.5178    4.9300    0.0000 H   0  0  0  0  0  0  0  0  0  0  0  0
    4.5779    1.8100    0.0000 H   0  0  0  0  0  0  0  0  0  0  0  0
    7.3838    3.4300    0.0000 H   0  0  0  0  0  0  0  0  0  0  0  0
    7.3838    1.8100    0.0000 H   0  0  0  0  0  0  0  0  0  0  0  0
    4.5588    4.1569    0.0000 H   0  0  0  0  0  0  0  0  0  0  0  0
    3.7119    3.9300    0.0000 H   0  0  0  0  0  0  0  0  0  0  0  0
    3.9388    3.0831    0.0000 H   0  0  0  0  0  0  0  0  0  0  0  0
    5.3609    0.6200    0.0000 H   0  0  0  0  0  0  0  0  0  0  0  0
    5.9809    0.0000    0.0000 H   0  0  0  0  0  0  0  0  0  0  0  0
    6.6009    0.6200    0.0000 H   0  0  0  0  0  0  0  0  0  0  0  0
  1  6  1  0  0  0  0
  1  7  2  0  0  0  0
  1  8  2  0  0  0  0
  1 17  1  0  0  0  0
  2  9  1  0  0  0  0
  2 10  2  0  0  0  0
  2 11  2  0  0  0  0
  2 21  1  0  0  0  0
  5 20  2  0  0  0  0
 12 13  1  0  0  0  0
 12 16  2  0  0  0  0
 13 24  1  0  0  0  0
 13 36  1  0  0  0  0
 14 15  2  0  0  0  0
 14 16  1  0  0  0  0
 14 22  1  0  0  0  0
 15 18  1  0  0  0  0
 15 19  1  0  0  0  0
 16 20  1  0  0  0  0
 17 18  2  0  0  0  0
 17 20  1  0  0  0  0
 18 32  1  0  0  0  0
 19 21  2  0  0  0  0
 19 33  1  0  0  0  0
 21 23  1  0  0  0  0
 22 23  2  0  0  0  0
 22 34  1  0  0  0  0
 23 35  1  0  0  0  0
 24 25  2  0  0  0  0
 24 28  1  0  0  0  0
 25 27  1  0  0  0  0
 25 30  1  0  0  0  0
 26 27  2  0  0  0  0
 26 29  1  0  0  0  0
 26 31  1  0  0  0  0
 27 37  1  0  0  0  0
 28 29  2  0  0  0  0
 28 38  1  0  0  0  0
 29 39  1  0  0  0  0
 30 40  1  0  0  0  0
 30 41  1  0  0  0  0
 30 42  1  0  0  0  0
 31 43  1  0  0  0  0
 31 44  1  0  0  0  0
 31 45  1  0  0  0  0
M  CHG  3   4   1   6  -1   9  -1
M  RAD  1   3   2
M  END
> <PUBCHEM_COMPOUND_CID>
53297427

> <PUBCHEM_COMPOUND_CANONICALIZED>
1

> <PUBCHEM_CACTVS_COMPLEXITY>
902

> <PUBCHEM_CACTVS_HBOND_ACCEPTOR>
9

> <PUBCHEM_CACTVS_HBOND_DONOR>
1

> <PUBCHEM_CACTVS_ROTATABLE_BOND>
2

> <PUBCHEM_CACTVS_SUBSKEYS>
AAADccB7ODBgAAAAAAAAAAAAAAAAAAAAAAAwYIAAAAAAAACBQAAAHgQYAAAADAyB2AAywYBiAAKoA6RyQHDSBEAgAgAYiBkgZNgIILKAlZGAIABgmAAIyYcYiMCOmAACgAASAAAwAAUAACQAAAAAAAAAAA==

> <PUBCHEM_IUPAC_OPENEYE_NAME>
sodium; (4E)-4-[(2,4-dimethylphenyl)hydrazono]-3-oxo-naphthalene-2,7-disulfonate; sodium

> <PUBCHEM_IUPAC_CAS_NAME>
sodium; (4E)-4-[(2,4-dimethylphenyl)hydrazinylidene]-3-oxonaphthalene-2,7-disulfonate; sodium

> <PUBCHEM_IUPAC_NAME>
sodium; (4E)-4-[(2,4-dimethylphenyl)hydrazinylidene]-3-oxonaphthalene-2,7-disulfonate; sodium

> <PUBCHEM_IUPAC_SYSTEMATIC_NAME>
sodium; (4E)-4-[(2,4-dimethylphenyl)hydrazinylidene]-3-oxidanylidene-naphthalene-2,7-disulfonate; sodium

> <PUBCHEM_IUPAC_TRADITIONAL_NAME>
sodium; (4E)-4-[(2,4-dimethylphenyl)hydrazono]-3-keto-naphthalene-2,7-disulfonate; sodium

> <PUBCHEM_IUPAC_INCHI>
InChI=1S/C18H16N2O7S2.2Na/c1-10-3-6-15(11(2)7-10)19-20-17-14-5-4-13(28(22,23)24)8-12(14)9-16(18(17)21)29(25,26)27;;/h3-9,19H,1-2H3,(H,22,23,24)(H,25,26,27);;/q;;+1/p-2/b20-17+;;

> <PUBCHEM_IUPAC_INCHIKEY>
BJZNCIUDHRBVNQ-NNIZZXHBSA-L

> <PUBCHEM_EXACT_MASS>
480.003781

> <PUBCHEM_MOLECULAR_FORMULA>
C18H14N2Na2O7S2-

> <PUBCHEM_MOLECULAR_WEIGHT>
480.422499

> <PUBCHEM_OPENEYE_CAN_SMILES>
CC1=CC(=C(C=C1)NN=C2C3=C(C=C(C=C3)S(=O)(=O)[O-])C=C(C2=O)S(=O)(=O)[O-])C.[Na].[Na+]

> <PUBCHEM_OPENEYE_ISO_SMILES>
CC1=CC(=C(C=C1)N/N=C/2\C3=C(C=C(C=C3)S(=O)(=O)[O-])C=C(C2=O)S(=O)(=O)[O-])C.[Na].[Na+]

> <PUBCHEM_CACTVS_TPSA>
173

> <PUBCHEM_MONOISOTOPIC_WEIGHT>
480.003781

> <PUBCHEM_TOTAL_CHARGE>
-1

> <PUBCHEM_HEAVY_ATOM_COUNT>
31

> <PUBCHEM_ATOM_DEF_STEREO_COUNT>
0

> <PUBCHEM_ATOM_UDEF_STEREO_COUNT>
0

> <PUBCHEM_BOND_DEF_STEREO_COUNT>
1

> <PUBCHEM_BOND_UDEF_STEREO_COUNT>
0

> <PUBCHEM_ISOTOPIC_ATOM_COUNT>
0

> <PUBCHEM_COMPONENT_COUNT>
3

> <PUBCHEM_CACTVS_TAUTO_COUNT>
5

> <PUBCHEM_COORDINATE_TYPE>
1
5
255

> <PUBCHEM_BONDANNOTATIONS>
14  15  8
14  22  8
15  19  8
19  21  8
21  23  8
22  23  8
24  25  8
24  28  8
25  27  8
26  27  8
26  29  8
28  29  8

$$$$

