252817
  -OEChem-07051213062D

 57 60  0     1  0  0  0  0  0999 V2000
    9.6285    1.4324    0.0000 O   0  0  0  0  0  0  0  0  0  0  0  0
    2.0000   -3.0814    0.0000 O   0  0  0  0  0  0  0  0  0  0  0  0
    9.2713    3.1272    0.0000 O   0  0  0  0  0  0  0  0  0  0  0  0
    7.3931   -0.0291    0.0000 C   0  0  1  0  0  0  0  0  0  0  0  0
    7.3931   -1.0291    0.0000 C   0  0  2  0  0  0  0  0  0  0  0  0
    6.5271   -1.5291    0.0000 C   0  0  1  0  0  0  0  0  0  0  0  0
    5.6610   -1.0291    0.0000 C   0  0  1  0  0  0  0  0  0  0  0  0
    8.3393    0.2757    0.0000 C   0  0  2  0  0  0  0  0  0  0  0  0
    6.5271    0.4709    0.0000 C   0  0  0  0  0  0  0  0  0  0  0  0
    4.7510   -1.5359    0.0000 C   0  0  2  0  0  0  0  0  0  0  0  0
    5.6610   -0.0291    0.0000 C   0  0  0  0  0  0  0  0  0  0  0  0
    8.3393   -1.3338    0.0000 C   0  0  0  0  0  0  0  0  0  0  0  0
    8.9229   -0.5291    0.0000 C   0  0  0  0  0  0  0  0  0  0  0  0
    6.5431   -2.5706    0.0000 C   0  0  0  0  0  0  0  0  0  0  0  0
    7.3931    0.9709    0.0000 C   0  0  0  0  0  0  0  0  0  0  0  0
    4.7430   -2.5775    0.0000 C   0  0  0  0  0  0  0  0  0  0  0  0
    5.6451   -3.0983    0.0000 C   0  0  0  0  0  0  0  0  0  0  0  0
    3.8242   -0.9718    0.0000 C   0  0  0  0  0  0  0  0  0  0  0  0
    8.6500    1.2262    0.0000 C   0  0  0  0  0  0  0  0  0  0  0  0
    4.7587   -0.5359    0.0000 C   0  0  0  0  0  0  0  0  0  0  0  0
    2.8763   -1.4998    0.0000 C   0  0  0  0  0  0  0  0  0  0  0  0
    3.8076   -3.1272    0.0000 C   0  0  0  0  0  0  0  0  0  0  0  0
    2.8680   -2.5847    0.0000 C   0  0  0  0  0  0  0  0  0  0  0  0
    9.9391    2.3829    0.0000 C   0  0  0  0  0  0  0  0  0  0  0  0
   10.9176    2.5892    0.0000 C   0  0  0  0  0  0  0  0  0  0  0  0
    7.4830   -1.8743    0.0000 H   0  0  0  0  0  0  0  0  0  0  0  0
    7.2664   -1.9484    0.0000 H   0  0  0  0  0  0  0  0  0  0  0  0
    6.3972   -0.6041    0.0000 H   0  0  0  0  0  0  0  0  0  0  0  0
    7.9018    0.7150    0.0000 H   0  0  0  0  0  0  0  0  0  0  0  0
    6.9256    0.9459    0.0000 H   0  0  0  0  0  0  0  0  0  0  0  0
    6.1285    0.9459    0.0000 H   0  0  0  0  0  0  0  0  0  0  0  0
    5.4490    0.5535    0.0000 H   0  0  0  0  0  0  0  0  0  0  0  0
    5.0504   -0.1367    0.0000 H   0  0  0  0  0  0  0  0  0  0  0  0
    8.0883   -1.9007    0.0000 H   0  0  0  0  0  0  0  0  0  0  0  0
    8.8767   -1.6430    0.0000 H   0  0  0  0  0  0  0  0  0  0  0  0
    9.3838   -0.9438    0.0000 H   0  0  0  0  0  0  0  0  0  0  0  0
    9.3838   -0.1143    0.0000 H   0  0  0  0  0  0  0  0  0  0  0  0
    6.7612   -3.1510    0.0000 H   0  0  0  0  0  0  0  0  0  0  0  0
    7.1523   -2.4551    0.0000 H   0  0  0  0  0  0  0  0  0  0  0  0
    8.0131    0.9709    0.0000 H   0  0  0  0  0  0  0  0  0  0  0  0
    7.3931    1.5909    0.0000 H   0  0  0  0  0  0  0  0  0  0  0  0
    6.7731    0.9709    0.0000 H   0  0  0  0  0  0  0  0  0  0  0  0
    5.2478   -3.5743    0.0000 H   0  0  0  0  0  0  0  0  0  0  0  0
    6.0460   -3.5712    0.0000 H   0  0  0  0  0  0  0  0  0  0  0  0
    4.2324   -0.5052    0.0000 H   0  0  0  0  0  0  0  0  0  0  0  0
    3.4343   -0.4898    0.0000 H   0  0  0  0  0  0  0  0  0  0  0  0
    8.6294    1.8458    0.0000 H   0  0  0  0  0  0  0  0  0  0  0  0
    8.0361    1.3135    0.0000 H   0  0  0  0  0  0  0  0  0  0  0  0
    5.3787   -0.5407    0.0000 H   0  0  0  0  0  0  0  0  0  0  0  0
    4.7635    0.0840    0.0000 H   0  0  0  0  0  0  0  0  0  0  0  0
    4.1388   -0.5312    0.0000 H   0  0  0  0  0  0  0  0  0  0  0  0
    2.6718   -0.9145    0.0000 H   0  0  0  0  0  0  0  0  0  0  0  0
    2.2647   -1.6012    0.0000 H   0  0  0  0  0  0  0  0  0  0  0  0
    3.8100   -3.7472    0.0000 H   0  0  0  0  0  0  0  0  0  0  0  0
   11.0455    1.9825    0.0000 H   0  0  0  0  0  0  0  0  0  0  0  0
   11.5243    2.7170    0.0000 H   0  0  0  0  0  0  0  0  0  0  0  0
   10.7898    3.1958    0.0000 H   0  0  0  0  0  0  0  0  0  0  0  0
  1 19  1  0  0  0  0
  1 24  1  0  0  0  0
  2 23  2  0  0  0  0
  3 24  2  0  0  0  0
  4  5  1  0  0  0  0
  4  8  1  0  0  0  0
  4  9  1  0  0  0  0
  4 15  1  1  0  0  0
  5  6  1  0  0  0  0
  5 12  1  0  0  0  0
  5 26  1  6  0  0  0
  6  7  1  0  0  0  0
  6 14  1  0  0  0  0
  6 27  1  1  0  0  0
  7 10  1  0  0  0  0
  7 11  1  0  0  0  0
  7 28  1  6  0  0  0
  8 13  1  0  0  0  0
  8 19  1  1  0  0  0
  8 29  1  0  0  0  0
  9 11  1  0  0  0  0
  9 30  1  0  0  0  0
  9 31  1  0  0  0  0
 10 16  1  0  0  0  0
 10 18  1  0  0  0  0
 10 20  1  1  0  0  0
 11 32  1  0  0  0  0
 11 33  1  0  0  0  0
 12 13  1  0  0  0  0
 12 34  1  0  0  0  0
 12 35  1  0  0  0  0
 13 36  1  0  0  0  0
 13 37  1  0  0  0  0
 14 17  1  0  0  0  0
 14 38  1  0  0  0  0
 14 39  1  0  0  0  0
 15 40  1  0  0  0  0
 15 41  1  0  0  0  0
 15 42  1  0  0  0  0
 16 17  1  0  0  0  0
 16 22  2  0  0  0  0
 17 43  1  0  0  0  0
 17 44  1  0  0  0  0
 18 21  1  0  0  0  0
 18 45  1  0  0  0  0
 18 46  1  0  0  0  0
 19 47  1  0  0  0  0
 19 48  1  0  0  0  0
 20 49  1  0  0  0  0
 20 50  1  0  0  0  0
 20 51  1  0  0  0  0
 21 23  1  0  0  0  0
 21 52  1  0  0  0  0
 21 53  1  0  0  0  0
 22 23  1  0  0  0  0
 22 54  1  0  0  0  0
 24 25  1  0  0  0  0
 25 55  1  0  0  0  0
 25 56  1  0  0  0  0
 25 57  1  0  0  0  0
M  END
> <PUBCHEM_COMPOUND_CID>
252817

> <PUBCHEM_COMPOUND_CANONICALIZED>
1

> <PUBCHEM_CACTVS_COMPLEXITY>
621

> <PUBCHEM_CACTVS_HBOND_ACCEPTOR>
3

> <PUBCHEM_CACTVS_HBOND_DONOR>
0

> <PUBCHEM_CACTVS_ROTATABLE_BOND>
3

> <PUBCHEM_CACTVS_SUBSKEYS>
AAADcfB4MAAAAAAAAAAAAAAAAAAAAYAAAAAwYIAAAAAAAGDAAAAAGgAAAAAADwSggAICCAAABACIAqDSCAAAAAAgAAAACAEAAEgAABIAAQACAAAEgAAIAQOIyPCPgAAAAAAAAACAAAQAACAAAQAACAAAAA==

> <PUBCHEM_IUPAC_OPENEYE_NAME>
[(8S,9S,10R,13S,14S,17S)-10,13-dimethyl-3-oxo-1,2,6,7,8,9,11,12,14,15,16,17-dodecahydrocyclopenta[a]phenanthren-17-yl]methyl acetate

> <PUBCHEM_IUPAC_CAS_NAME>
acetic acid [(8S,9S,10R,13S,14S,17S)-10,13-dimethyl-3-oxo-1,2,6,7,8,9,11,12,14,15,16,17-dodecahydrocyclopenta[a]phenanthren-17-yl]methyl ester

> <PUBCHEM_IUPAC_NAME>
[(8S,9S,10R,13S,14S,17S)-10,13-dimethyl-3-oxo-1,2,6,7,8,9,11,12,14,15,16,17-dodecahydrocyclopenta[a]phenanthren-17-yl]methyl acetate

> <PUBCHEM_IUPAC_SYSTEMATIC_NAME>
[(8S,9S,10R,13S,14S,17S)-10,13-dimethyl-3-oxidanylidene-1,2,6,7,8,9,11,12,14,15,16,17-dodecahydrocyclopenta[a]phenanthren-17-yl]methyl ethanoate

> <PUBCHEM_IUPAC_TRADITIONAL_NAME>
acetic acid [(8S,9S,10R,13S,14S,17S)-3-keto-10,13-dimethyl-1,2,6,7,8,9,11,12,14,15,16,17-dodecahydrocyclopenta[a]phenanthren-17-yl]methyl ester

> <PUBCHEM_IUPAC_INCHI>
InChI=1S/C22H32O3/c1-14(23)25-13-16-5-7-19-18-6-4-15-12-17(24)8-10-21(15,2)20(18)9-11-22(16,19)3/h12,16,18-20H,4-11,13H2,1-3H3/t16-,18+,19+,20+,21+,22-/m1/s1

> <PUBCHEM_IUPAC_INCHIKEY>
BZOKWUURHSTMML-UFMPMKONSA-N

> <PUBCHEM_XLOGP3>
4.3

> <PUBCHEM_EXACT_MASS>
344.235145

> <PUBCHEM_MOLECULAR_FORMULA>
C22H32O3

> <PUBCHEM_MOLECULAR_WEIGHT>
344.48768

> <PUBCHEM_OPENEYE_CAN_SMILES>
CC(=O)OCC1CCC2C1(CCC3C2CCC4=CC(=O)CCC34C)C

> <PUBCHEM_OPENEYE_ISO_SMILES>
CC(=O)OC[C@H]1CC[C@@H]2[C@@]1(CC[C@H]3[C@H]2CCC4=CC(=O)CC[C@]34C)C

> <PUBCHEM_CACTVS_TPSA>
43.4

> <PUBCHEM_MONOISOTOPIC_WEIGHT>
344.235145

> <PUBCHEM_TOTAL_CHARGE>
0

> <PUBCHEM_HEAVY_ATOM_COUNT>
25

> <PUBCHEM_ATOM_DEF_STEREO_COUNT>
6

> <PUBCHEM_ATOM_UDEF_STEREO_COUNT>
0

> <PUBCHEM_BOND_DEF_STEREO_COUNT>
0

> <PUBCHEM_BOND_UDEF_STEREO_COUNT>
0

> <PUBCHEM_ISOTOPIC_ATOM_COUNT>
0

> <PUBCHEM_COMPONENT_COUNT>
1

> <PUBCHEM_CACTVS_TAUTO_COUNT>
5

> <PUBCHEM_COORDINATE_TYPE>
1
5
255

> <PUBCHEM_BONDANNOTATIONS>
10  20  5
4  15  5
5  26  6
6  27  5
7  28  6
8  19  5

$$$$

