582722
  -OEChem-06241222432D

 29 30  0     0  0  0  0  0  0999 V2000
    6.8671   -2.0000    0.0000 O   0  0  0  0  0  0  0  0  0  0  0  0
    6.8671    2.0000    0.0000 O   0  0  0  0  0  0  0  0  0  0  0  0
    6.0010   -0.5000    0.0000 N   0  0  0  0  0  0  0  0  0  0  0  0
    6.0010    0.5000    0.0000 N   0  0  0  0  0  0  0  0  0  0  0  0
    2.5369   -0.5000    0.0000 N   0  0  0  0  0  0  0  0  0  0  0  0
    5.1350   -1.0000    0.0000 C   0  0  0  0  0  0  0  0  0  0  0  0
    4.2690   -0.5000    0.0000 C   0  0  0  0  0  0  0  0  0  0  0  0
    7.7331   -0.5000    0.0000 C   0  0  0  0  0  0  0  0  0  0  0  0
    6.8671   -1.0000    0.0000 C   0  0  0  0  0  0  0  0  0  0  0  0
    7.7331    0.5000    0.0000 C   0  0  0  0  0  0  0  0  0  0  0  0
    3.4030   -1.0000    0.0000 C   0  0  0  0  0  0  0  0  0  0  0  0
    6.8671    1.0000    0.0000 C   0  0  0  0  0  0  0  0  0  0  0  0
    8.6270   -1.0347    0.0000 C   0  0  0  0  0  0  0  0  0  0  0  0
    8.6270    1.0347    0.0000 C   0  0  0  0  0  0  0  0  0  0  0  0
    9.5331   -0.5208    0.0000 C   0  0  0  0  0  0  0  0  0  0  0  0
    9.5331    0.5208    0.0000 C   0  0  0  0  0  0  0  0  0  0  0  0
    4.7365   -1.4750    0.0000 H   0  0  0  0  0  0  0  0  0  0  0  0
    5.5335   -1.4750    0.0000 H   0  0  0  0  0  0  0  0  0  0  0  0
    4.6675   -0.0251    0.0000 H   0  0  0  0  0  0  0  0  0  0  0  0
    3.8705   -0.0251    0.0000 H   0  0  0  0  0  0  0  0  0  0  0  0
    5.4641    0.8100    0.0000 H   0  0  0  0  0  0  0  0  0  0  0  0
    3.0044   -1.4750    0.0000 H   0  0  0  0  0  0  0  0  0  0  0  0
    3.8015   -1.4750    0.0000 H   0  0  0  0  0  0  0  0  0  0  0  0
    8.6199   -1.6546    0.0000 H   0  0  0  0  0  0  0  0  0  0  0  0
    8.6199    1.6546    0.0000 H   0  0  0  0  0  0  0  0  0  0  0  0
   10.0688   -0.8329    0.0000 H   0  0  0  0  0  0  0  0  0  0  0  0
   10.0688    0.8329    0.0000 H   0  0  0  0  0  0  0  0  0  0  0  0
    2.0000   -0.8100    0.0000 H   0  0  0  0  0  0  0  0  0  0  0  0
    2.5369    0.1200    0.0000 H   0  0  0  0  0  0  0  0  0  0  0  0
  1  9  2  0  0  0  0
  2 12  2  0  0  0  0
  3  4  1  0  0  0  0
  3  6  1  0  0  0  0
  3  9  1  0  0  0  0
  4 12  1  0  0  0  0
  4 21  1  0  0  0  0
  5 11  1  0  0  0  0
  5 28  1  0  0  0  0
  5 29  1  0  0  0  0
  6  7  1  0  0  0  0
  6 17  1  0  0  0  0
  6 18  1  0  0  0  0
  7 11  1  0  0  0  0
  7 19  1  0  0  0  0
  7 20  1  0  0  0  0
  8  9  1  0  0  0  0
  8 10  1  0  0  0  0
  8 13  2  0  0  0  0
 10 12  1  0  0  0  0
 10 14  2  0  0  0  0
 11 22  1  0  0  0  0
 11 23  1  0  0  0  0
 13 15  1  0  0  0  0
 13 24  1  0  0  0  0
 14 16  1  0  0  0  0
 14 25  1  0  0  0  0
 15 16  2  0  0  0  0
 15 26  1  0  0  0  0
 16 27  1  0  0  0  0
M  END
> <PUBCHEM_COMPOUND_CID>
582722

> <PUBCHEM_COMPOUND_CANONICALIZED>
1

> <PUBCHEM_CACTVS_COMPLEXITY>
293

> <PUBCHEM_CACTVS_HBOND_ACCEPTOR>
3

> <PUBCHEM_CACTVS_HBOND_DONOR>
2

> <PUBCHEM_CACTVS_ROTATABLE_BOND>
3

> <PUBCHEM_CACTVS_SUBSKEYS>
AAADccBzMAAAAAAAAAAAAAAAAAAAAAAAAAA8QAAAAAAAAACxAAAAHgAYAAAADADBmAQwAIJiAACIAiFSEACCAAAkAAAaqIEIBMgIIDKA1RGEIQhglgCIiYcdiICOgAAAAAAQAAAAAAAAACAAAAAAAAAAAA==

> <PUBCHEM_IUPAC_OPENEYE_NAME>
3-(3-aminopropyl)-2H-phthalazine-1,4-dione

> <PUBCHEM_IUPAC_CAS_NAME>
3-(3-aminopropyl)-2H-phthalazine-1,4-dione

> <PUBCHEM_IUPAC_NAME>
3-(3-aminopropyl)-2H-phthalazine-1,4-dione

> <PUBCHEM_IUPAC_SYSTEMATIC_NAME>
3-(3-azanylpropyl)-2H-phthalazine-1,4-dione

> <PUBCHEM_IUPAC_TRADITIONAL_NAME>
3-(3-aminopropyl)-2H-phthalazine-1,4-quinone

> <PUBCHEM_IUPAC_INCHI>
InChI=1S/C11H13N3O2/c12-6-3-7-14-11(16)9-5-2-1-4-8(9)10(15)13-14/h1-2,4-5H,3,6-7,12H2,(H,13,15)

> <PUBCHEM_IUPAC_INCHIKEY>
PTUMXILTENAYOT-UHFFFAOYSA-N

> <PUBCHEM_XLOGP3_AA>
0

> <PUBCHEM_EXACT_MASS>
219.100777

> <PUBCHEM_MOLECULAR_FORMULA>
C11H13N3O2

> <PUBCHEM_MOLECULAR_WEIGHT>
219.23982

> <PUBCHEM_OPENEYE_CAN_SMILES>
C1=CC=C2C(=C1)C(=O)NN(C2=O)CCCN

> <PUBCHEM_OPENEYE_ISO_SMILES>
C1=CC=C2C(=C1)C(=O)NN(C2=O)CCCN

> <PUBCHEM_CACTVS_TPSA>
75.4

> <PUBCHEM_MONOISOTOPIC_WEIGHT>
219.100777

> <PUBCHEM_TOTAL_CHARGE>
0

> <PUBCHEM_HEAVY_ATOM_COUNT>
16

> <PUBCHEM_ATOM_DEF_STEREO_COUNT>
0

> <PUBCHEM_ATOM_UDEF_STEREO_COUNT>
0

> <PUBCHEM_BOND_DEF_STEREO_COUNT>
0

> <PUBCHEM_BOND_UDEF_STEREO_COUNT>
0

> <PUBCHEM_ISOTOPIC_ATOM_COUNT>
0

> <PUBCHEM_COMPONENT_COUNT>
1

> <PUBCHEM_CACTVS_TAUTO_COUNT>
2

> <PUBCHEM_COORDINATE_TYPE>
1
5
255

> <PUBCHEM_BONDANNOTATIONS>
10  12  8
10  14  8
13  15  8
14  16  8
15  16  8
3  4  8
3  9  8
4  12  8
8  10  8
8  13  8
8  9  8

$$$$

