17396484
  -OEChem-06241222563D

 39 40  0     0  0  0  0  0  0999 V2000
   -0.4960    1.6138   -1.8109 O   0  0  0  0  0  0  0  0  0  0  0  0
    1.9196   -2.7551   -0.2568 O   0  0  0  0  0  0  0  0  0  0  0  0
   -1.1056    1.5623    0.4453 N   0  0  0  0  0  0  0  0  0  0  0  0
    3.7256   -1.3006    0.1691 N   0  0  0  0  0  0  0  0  0  0  0  0
   -2.5412    1.7208    0.2229 C   0  0  0  0  0  0  0  0  0  0  0  0
   -3.2401    0.3928    0.1027 C   0  0  0  0  0  0  0  0  0  0  0  0
   -0.1831    1.5213   -0.6163 C   0  0  0  0  0  0  0  0  0  0  0  0
    1.2320    1.3775   -0.3142 C   0  0  0  0  0  0  0  0  0  0  0  0
   -0.6917    1.4495    1.8368 C   0  0  0  0  0  0  0  0  0  0  0  0
    1.7998    0.1071   -0.2181 C   0  0  0  0  0  0  0  0  0  0  0  0
    3.1570   -0.0300    0.0732 C   0  0  0  0  0  0  0  0  0  0  0  0
   -3.3783   -0.2122   -1.1465 C   0  0  0  0  0  0  0  0  0  0  0  0
   -3.7499   -0.2326    1.2407 C   0  0  0  0  0  0  0  0  0  0  0  0
    2.0214    2.5108   -0.1189 C   0  0  0  0  0  0  0  0  0  0  0  0
    3.9464    1.1033    0.2686 C   0  0  0  0  0  0  0  0  0  0  0  0
    3.3786    2.3738    0.1725 C   0  0  0  0  0  0  0  0  0  0  0  0
   -4.0262   -1.4425   -1.2577 C   0  0  0  0  0  0  0  0  0  0  0  0
   -4.3976   -1.4630    1.1294 C   0  0  0  0  0  0  0  0  0  0  0  0
   -4.5357   -2.0680   -0.1198 C   0  0  0  0  0  0  0  0  0  0  0  0
    3.0989   -2.5433    0.0066 C   0  0  0  0  0  0  0  0  0  0  0  0
    4.0659   -3.6856    0.1916 C   0  0  0  0  0  0  0  0  0  0  0  0
   -2.6922    2.2927   -0.7011 H   0  0  0  0  0  0  0  0  0  0  0  0
   -2.9750    2.3244    1.0293 H   0  0  0  0  0  0  0  0  0  0  0  0
   -1.0747    0.5098    2.2443 H   0  0  0  0  0  0  0  0  0  0  0  0
    0.3889    1.4630    1.9790 H   0  0  0  0  0  0  0  0  0  0  0  0
   -1.1140    2.2867    2.4011 H   0  0  0  0  0  0  0  0  0  0  0  0
    1.1345   -0.7303   -0.3792 H   0  0  0  0  0  0  0  0  0  0  0  0
   -2.9886    0.2637   -2.0420 H   0  0  0  0  0  0  0  0  0  0  0  0
   -3.6521    0.2294    2.2194 H   0  0  0  0  0  0  0  0  0  0  0  0
    1.5894    3.5055   -0.1907 H   0  0  0  0  0  0  0  0  0  0  0  0
    5.0054    1.0115    0.4963 H   0  0  0  0  0  0  0  0  0  0  0  0
    3.9930    3.2563    0.3249 H   0  0  0  0  0  0  0  0  0  0  0  0
   -4.1342   -1.9134   -2.2304 H   0  0  0  0  0  0  0  0  0  0  0  0
   -4.7951   -1.9496    2.0153 H   0  0  0  0  0  0  0  0  0  0  0  0
   -5.0402   -3.0258   -0.2065 H   0  0  0  0  0  0  0  0  0  0  0  0
    4.7204   -1.3161    0.3847 H   0  0  0  0  0  0  0  0  0  0  0  0
    3.5394   -4.6380    0.0847 H   0  0  0  0  0  0  0  0  0  0  0  0
    4.8543   -3.6282   -0.5641 H   0  0  0  0  0  0  0  0  0  0  0  0
    4.5112   -3.6371    1.1893 H   0  0  0  0  0  0  0  0  0  0  0  0
  1  7  2  0  0  0  0
  2 20  2  0  0  0  0
  3  5  1  0  0  0  0
  3  7  1  0  0  0  0
  3  9  1  0  0  0  0
  4 11  1  0  0  0  0
  4 20  1  0  0  0  0
  4 36  1  0  0  0  0
  5  6  1  0  0  0  0
  5 22  1  0  0  0  0
  5 23  1  0  0  0  0
  6 12  2  0  0  0  0
  6 13  1  0  0  0  0
  7  8  1  0  0  0  0
  8 10  2  0  0  0  0
  8 14  1  0  0  0  0
  9 24  1  0  0  0  0
  9 25  1  0  0  0  0
  9 26  1  0  0  0  0
 10 11  1  0  0  0  0
 10 27  1  0  0  0  0
 11 15  2  0  0  0  0
 12 17  1  0  0  0  0
 12 28  1  0  0  0  0
 13 18  2  0  0  0  0
 13 29  1  0  0  0  0
 14 16  2  0  0  0  0
 14 30  1  0  0  0  0
 15 16  1  0  0  0  0
 15 31  1  0  0  0  0
 16 32  1  0  0  0  0
 17 19  2  0  0  0  0
 17 33  1  0  0  0  0
 18 19  1  0  0  0  0
 18 34  1  0  0  0  0
 19 35  1  0  0  0  0
 20 21  1  0  0  0  0
 21 37  1  0  0  0  0
 21 38  1  0  0  0  0
 21 39  1  0  0  0  0
M  END
> <PUBCHEM_COMPOUND_CID>
17396484

> <PUBCHEM_CONFORMER_RMSD>
0.8

> <PUBCHEM_CONFORMER_DIVERSEORDER>
3
21
74
13
66
63
24
41
70
87
89
44
77
27
18
112
72
126
48
68
111
86
57
55
123
90
93
14
107
23
106
104
40
73
117
103
38
29
78
76
81
115
118
101
4
121
53
54
92
98
51
33
50
116
95
45
125
110
75
85
30
82
65
124
39
97
91
59
32
56
80
71
109
11
79
19
52
94
28
16
100
64
43
102
83
37
96
20
62
9
34
61
17
114
122
113
58
36
119
12
67
5
120
105
22
108
26
42
2
88
25
46
7
49
31
127
10
99
69
35
84
6
47
60
8
1
15

> <PUBCHEM_MMFF94_PARTIAL_CHARGES>
31
1 -0.57
10 -0.15
11 0.12
12 -0.15
13 -0.15
14 -0.15
15 -0.15
16 -0.15
17 -0.15
18 -0.15
19 -0.15
2 -0.57
20 0.57
21 0.06
27 0.15
28 0.15
29 0.15
3 -0.66
30 0.15
31 0.15
32 0.15
33 0.15
34 0.15
35 0.15
36 0.37
4 -0.55
5 0.44
6 -0.14
7 0.54
8 0.09
9 0.3

> <PUBCHEM_EFFECTIVE_ROTOR_COUNT>
6

> <PUBCHEM_PHARMACOPHORE_FEATURES>
5
1 1 acceptor
1 2 acceptor
1 4 donor
6 6 12 13 17 18 19 rings
6 8 10 11 14 15 16 rings

> <PUBCHEM_HEAVY_ATOM_COUNT>
21

> <PUBCHEM_ATOM_DEF_STEREO_COUNT>
0

> <PUBCHEM_ATOM_UDEF_STEREO_COUNT>
0

> <PUBCHEM_BOND_DEF_STEREO_COUNT>
0

> <PUBCHEM_BOND_UDEF_STEREO_COUNT>
0

> <PUBCHEM_ISOTOPIC_ATOM_COUNT>
0

> <PUBCHEM_COMPONENT_COUNT>
1

> <PUBCHEM_CACTVS_TAUTO_COUNT>
2

> <PUBCHEM_CONFORMER_ID>
0109730400000003

> <PUBCHEM_MMFF94_ENERGY>
65.6302

> <PUBCHEM_FEATURE_SELFOVERLAP>
25.371

> <PUBCHEM_SHAPE_FINGERPRINT>
10090160 65 18192715536070657272
108634 29 17559386955456437538
11405975 8 18335980969146097393
117890 22 18338512057497075847
12107183 9 18046898561903772801
12293681 25 17774138146629482122
12596599 1 17826221076160779026
12596602 18 17023742291173881451
12633257 1 17968931041094585147
13533116 47 18334579002116531567
13544653 18 18411136901135777637
13583140 156 17894927212533640281
14251757 17 17988924440312260979
14289901 80 18334013873913526353
14713325 29 7923613529244915014
14787075 74 17679302970847508112
14863182 85 18127401268446979060
15099037 8 18335137652085094393
15375462 189 17968373438470503497
15537594 2 18115579336573163735
17492 89 18410292527582028283
17974551 9 14640492916236223906
20291156 8 18408884070345214539
20645477 70 18272098158018367349
20681651 13 17894911798375335385
20775530 9 18267302212889574642
21315759 227 17988360369356693955
21421861 104 18115283670945197451
21673915 165 18336548205265473934
221490 88 18340767139124619998
22907989 373 12319157479270982313
235170 7 17775014440158602895
23559900 14 18337962280351055512
23598288 3 17676203619430835049
33824 294 18339927009267233672
3797600 57 17385718063383789360
392239 28 17532393997129600056
46194498 28 17416411957360483975
463206 1 18121782721243277435
5486654 36 18194953273897093490
6433294 58 18410575046167272074
7097593 13 18189324830909426489
88748 71 18341325703563277259
9709674 26 18343578538474279739

> <PUBCHEM_SHAPE_MULTIPOLES>
410.47
9.89
3.69
1.22
4.05
2.83
0.05
6.37
0.67
-4.38
0.05
1.23
-0.27
-0.3

> <PUBCHEM_SHAPE_SELFOVERLAP>
867.042

> <PUBCHEM_SHAPE_VOLUME>
229.6

> <PUBCHEM_COORDINATE_TYPE>
2
5
10

$$$$

