440223
  -OEChem-07051212493D

 17 16  0     1  0  0  0  0  0999 V2000
   -1.0893   -2.2525   -0.3835 O   0  0  0  0  0  0  0  0  0  0  0  0
   -1.9626    1.4973   -0.7755 O   0  0  0  0  0  0  0  0  0  0  0  0
   -2.0095    0.3328    1.1711 O   0  0  0  0  0  0  0  0  0  0  0  0
    3.3067    0.0799    0.3746 O   0  0  0  0  0  0  0  0  0  0  0  0
   -0.1508   -0.0129   -0.3734 C   0  0  1  0  0  0  0  0  0  0  0  0
    1.0141    0.8507    0.1208 C   0  0  0  0  0  0  0  0  0  0  0  0
   -0.0144   -1.4617    0.1121 C   0  0  0  0  0  0  0  0  0  0  0  0
   -1.4601    0.5967    0.1097 C   0  0  0  0  0  0  0  0  0  0  0  0
    2.3658    0.3698   -0.3560 C   0  0  0  0  0  0  0  0  0  0  0  0
   -0.1796   -0.0310   -1.4708 H   0  0  0  0  0  0  0  0  0  0  0  0
    1.0289    0.8867    1.2170 H   0  0  0  0  0  0  0  0  0  0  0  0
    0.8959    1.8824   -0.2305 H   0  0  0  0  0  0  0  0  0  0  0  0
   -0.0289   -1.5161    1.2063 H   0  0  0  0  0  0  0  0  0  0  0  0
    0.9178   -1.9099   -0.2458 H   0  0  0  0  0  0  0  0  0  0  0  0
    2.4783    0.3126   -1.4529 H   0  0  0  0  0  0  0  0  0  0  0  0
   -0.9566   -3.1559   -0.0488 H   0  0  0  0  0  0  0  0  0  0  0  0
   -2.8024    1.8923   -0.4576 H   0  0  0  0  0  0  0  0  0  0  0  0
  1  7  1  0  0  0  0
  1 16  1  0  0  0  0
  2  8  1  0  0  0  0
  2 17  1  0  0  0  0
  3  8  2  0  0  0  0
  4  9  2  0  0  0  0
  5  6  1  0  0  0  0
  5  7  1  0  0  0  0
  5  8  1  0  0  0  0
  5 10  1  0  0  0  0
  6  9  1  0  0  0  0
  6 11  1  0  0  0  0
  6 12  1  0  0  0  0
  7 13  1  0  0  0  0
  7 14  1  0  0  0  0
  9 15  1  0  0  0  0
M  END
> <PUBCHEM_COMPOUND_CID>
440223

> <PUBCHEM_CONFORMER_RMSD>
0.6

> <PUBCHEM_CONFORMER_DIVERSEORDER>
1
34
23
11
36
37
4
16
14
17
20
27
32
25
31
7
35
8
30
2
29
9
33
18
3
10
21
22
15
13
24
19
5
26
12
28
6

> <PUBCHEM_MMFF94_PARTIAL_CHARGES>
12
1 -0.68
15 0.06
16 0.4
17 0.5
2 -0.65
3 -0.57
4 -0.57
5 0.06
6 0.06
7 0.28
8 0.66
9 0.45

> <PUBCHEM_EFFECTIVE_ROTOR_COUNT>
4

> <PUBCHEM_PHARMACOPHORE_FEATURES>
6
1 1 acceptor
1 1 donor
1 2 acceptor
1 3 acceptor
1 4 acceptor
3 2 3 8 anion

> <PUBCHEM_HEAVY_ATOM_COUNT>
9

> <PUBCHEM_ATOM_DEF_STEREO_COUNT>
0

> <PUBCHEM_ATOM_UDEF_STEREO_COUNT>
1

> <PUBCHEM_BOND_DEF_STEREO_COUNT>
0

> <PUBCHEM_BOND_UDEF_STEREO_COUNT>
0

> <PUBCHEM_ISOTOPIC_ATOM_COUNT>
0

> <PUBCHEM_COMPONENT_COUNT>
1

> <PUBCHEM_CACTVS_TAUTO_COUNT>
2

> <PUBCHEM_CONFORMER_ID>
0006B79F00000001

> <PUBCHEM_MMFF94_ENERGY>
10.0748

> <PUBCHEM_FEATURE_SELFOVERLAP>
30.505

> <PUBCHEM_SHAPE_FINGERPRINT>
12932764 1 18271523109638114152
15310529 11 17489576845201173796
20645464 45 18186517700925479536
21040471 1 18410572920226428140
23552423 10 17983578498823958724
5084963 1 18260834769382718149

> <PUBCHEM_SHAPE_MULTIPOLES>
161.74
3.51
1.67
0.82
2.71
0.99
-0.08
-0.9
-0.36
-0.95
0.29
-0.28
-0.1
0.02

> <PUBCHEM_SHAPE_SELFOVERLAP>
303.571

> <PUBCHEM_SHAPE_VOLUME>
99.8

> <PUBCHEM_COORDINATE_TYPE>
2
5
10

$$$$

