36565
  -OEChem-07051213123D

 42 42  0     1  0  0  0  0  0999 V2000
    0.2796   -3.5769    0.0882 O   0  5  0  0  0  0  0  0  0  0  0  0
   -0.1244    3.4360    0.3100 O   0  5  0  0  0  0  0  0  0  0  0  0
   -1.6958   -2.6392    0.2827 O   0  0  0  0  0  0  0  0  0  0  0  0
   -1.9784    2.2675    0.4372 O   0  0  0  0  0  0  0  0  0  0  0  0
   -2.0129   -0.1964    0.3748 N   0  0  0  0  0  0  0  0  0  0  0  0
   -0.4495   -2.5616    0.1777 N   0  3  0  0  0  0  0  0  0  0  0  0
   -0.7318    2.3403    0.3329 N   0  3  0  0  0  0  0  0  0  0  0  0
    3.6548    0.1450   -0.1025 C   0  0  0  0  0  0  0  0  0  0  0  0
    2.1714    0.0556    0.0234 C   0  0  0  0  0  0  0  0  0  0  0  0
    4.1506   -0.5123   -1.4278 C   0  0  0  0  0  0  0  0  0  0  0  0
    4.3679   -0.5830    1.0790 C   0  0  0  0  0  0  0  0  0  0  0  0
    4.2415    1.5956   -0.1124 C   0  0  0  0  0  0  0  0  0  0  0  0
   -2.9122   -0.2102   -0.7601 C   0  0  1  0  0  0  0  0  0  0  0  0
   -0.6370   -0.1136    0.2593 C   0  0  0  0  0  0  0  0  0  0  0  0
    1.5470   -1.1914    0.0433 C   0  0  0  0  0  0  0  0  0  0  0  0
    1.4083    1.2191    0.1201 C   0  0  0  0  0  0  0  0  0  0  0  0
    0.1595   -1.2751    0.1599 C   0  0  0  0  0  0  0  0  0  0  0  0
    0.0207    1.1358    0.2366 C   0  0  0  0  0  0  0  0  0  0  0  0
   -4.2563    0.4222   -0.3798 C   0  0  0  0  0  0  0  0  0  0  0  0
   -2.2579    0.5494   -1.9095 C   0  0  0  0  0  0  0  0  0  0  0  0
   -4.9450   -0.3068    0.7670 C   0  0  0  0  0  0  0  0  0  0  0  0
   -3.0912   -1.2380   -1.0936 H   0  0  0  0  0  0  0  0  0  0  0  0
    5.2375   -0.4198   -1.5363 H   0  0  0  0  0  0  0  0  0  0  0  0
    3.9120   -1.5806   -1.4704 H   0  0  0  0  0  0  0  0  0  0  0  0
    3.6839   -0.0345   -2.2973 H   0  0  0  0  0  0  0  0  0  0  0  0
    4.1355   -1.6532    1.1020 H   0  0  0  0  0  0  0  0  0  0  0  0
    5.4578   -0.4912    1.0040 H   0  0  0  0  0  0  0  0  0  0  0  0
    4.0598   -0.1570    2.0412 H   0  0  0  0  0  0  0  0  0  0  0  0
    5.3342    1.5777   -0.2069 H   0  0  0  0  0  0  0  0  0  0  0  0
    3.8585    2.1794   -0.9577 H   0  0  0  0  0  0  0  0  0  0  0  0
    4.0112    2.1297    0.8169 H   0  0  0  0  0  0  0  0  0  0  0  0
    2.1534   -2.0899   -0.0332 H   0  0  0  0  0  0  0  0  0  0  0  0
    1.8814    2.1943    0.1055 H   0  0  0  0  0  0  0  0  0  0  0  0
   -2.3170   -0.7669    1.1596 H   0  0  0  0  0  0  0  0  0  0  0  0
   -4.9185    0.3872   -1.2545 H   0  0  0  0  0  0  0  0  0  0  0  0
   -4.1613    1.4793   -0.1163 H   0  0  0  0  0  0  0  0  0  0  0  0
   -2.8835    0.4177   -2.8031 H   0  0  0  0  0  0  0  0  0  0  0  0
   -2.1947    1.6299   -1.7789 H   0  0  0  0  0  0  0  0  0  0  0  0
   -1.2755    0.1575   -2.1920 H   0  0  0  0  0  0  0  0  0  0  0  0
   -4.4023   -0.1819    1.7088 H   0  0  0  0  0  0  0  0  0  0  0  0
   -5.9529    0.0954    0.9133 H   0  0  0  0  0  0  0  0  0  0  0  0
   -5.0366   -1.3770    0.5561 H   0  0  0  0  0  0  0  0  0  0  0  0
  1  6  1  0  0  0  0
  2  7  1  0  0  0  0
  3  6  2  0  0  0  0
  4  7  2  0  0  0  0
  5 13  1  0  0  0  0
  5 14  1  0  0  0  0
  5 34  1  0  0  0  0
  6 17  1  0  0  0  0
  7 18  1  0  0  0  0
  8  9  1  0  0  0  0
  8 10  1  0  0  0  0
  8 11  1  0  0  0  0
  8 12  1  0  0  0  0
  9 15  2  0  0  0  0
  9 16  1  0  0  0  0
 10 23  1  0  0  0  0
 10 24  1  0  0  0  0
 10 25  1  0  0  0  0
 11 26  1  0  0  0  0
 11 27  1  0  0  0  0
 11 28  1  0  0  0  0
 12 29  1  0  0  0  0
 12 30  1  0  0  0  0
 12 31  1  0  0  0  0
 13 19  1  0  0  0  0
 13 20  1  0  0  0  0
 13 22  1  0  0  0  0
 14 17  2  0  0  0  0
 14 18  1  0  0  0  0
 15 17  1  0  0  0  0
 15 32  1  0  0  0  0
 16 18  2  0  0  0  0
 16 33  1  0  0  0  0
 19 21  1  0  0  0  0
 19 35  1  0  0  0  0
 19 36  1  0  0  0  0
 20 37  1  0  0  0  0
 20 38  1  0  0  0  0
 20 39  1  0  0  0  0
 21 40  1  0  0  0  0
 21 41  1  0  0  0  0
 21 42  1  0  0  0  0
M  CHG  4   1  -1   2  -1   6   1   7   1
M  END
> <PUBCHEM_COMPOUND_CID>
36565

> <PUBCHEM_CONFORMER_RMSD>
0.8

> <PUBCHEM_CONFORMER_DIVERSEORDER>
2
3
5
1
4

> <PUBCHEM_MMFF94_PARTIAL_CHARGES>
18
1 -0.52
13 0.37
14 0.1
15 -0.15
16 -0.15
17 0.13
18 0.13
2 -0.52
3 -0.52
32 0.15
33 0.15
34 0.4
4 -0.52
5 -0.87
6 0.91
7 0.91
8 0.14
9 -0.14

> <PUBCHEM_EFFECTIVE_ROTOR_COUNT>
6

> <PUBCHEM_PHARMACOPHORE_FEATURES>
11
1 1 acceptor
1 1 anion
1 2 acceptor
1 2 anion
1 21 hydrophobe
1 3 acceptor
1 4 acceptor
1 5 cation
1 5 donor
4 8 10 11 12 hydrophobe
6 9 14 15 16 17 18 rings

> <PUBCHEM_HEAVY_ATOM_COUNT>
21

> <PUBCHEM_ATOM_DEF_STEREO_COUNT>
0

> <PUBCHEM_ATOM_UDEF_STEREO_COUNT>
1

> <PUBCHEM_BOND_DEF_STEREO_COUNT>
0

> <PUBCHEM_BOND_UDEF_STEREO_COUNT>
0

> <PUBCHEM_ISOTOPIC_ATOM_COUNT>
0

> <PUBCHEM_COMPONENT_COUNT>
1

> <PUBCHEM_CACTVS_TAUTO_COUNT>
1

> <PUBCHEM_CONFORMER_ID>
00008ED500000002

> <PUBCHEM_MMFF94_ENERGY>
104.0306

> <PUBCHEM_FEATURE_SELFOVERLAP>
55.981

> <PUBCHEM_SHAPE_FINGERPRINT>
10498660 4 18267012878718311020
10693767 8 18041576822546485951
10759866 29 17846776308850991666
10906281 52 18189041032808998192
10967382 1 18410575097653586402
1100329 8 18338797784559780001
11578080 2 16736645412673704251
11680986 33 17975139742496037217
12035758 1 18339080367817434089
12236239 1 17531241760688999977
12403814 3 17489312953725439367
12553582 1 18335709342238700157
12592029 89 17988928911188521634
12788726 201 18333726940344631776
13140716 1 18266182734095437562
13538477 17 18272376339388249210
13583140 156 16772976729972153184
13862211 1 18410298003770617819
14115302 16 18271517603031020788
14178342 30 17975987775694557168
14787075 74 18272369729117257827
14790565 3 18409718574059869537
15209289 33 18335422331576548623
16752209 62 18338799026248401072
16945 1 18410007754354744666
17349148 13 18268727137367734034
18186145 218 18411143528169861468
193761 8 17761495089843649763
19591789 44 18409727391373637139
20028762 73 18042965359972880575
20510252 161 18261110815916620384
20600515 1 18263095352774055712
20871999 31 18267583494682109470
21267235 1 18411130368559007754
21421861 104 17911517911331034651
2334 1 17977948986436537642
23366157 5 17697590353146452610
23402539 116 18261685817257714438
23419403 2 17044901151515969214
23493267 7 17489037049337311129
23557571 272 18040426724999371652
23558518 356 17911234245509448642
23559900 14 18335137558560787932
23566358 27 17905595954404325831
238 59 17766044663360230727
25 1 18340777017538903439
2748010 2 18048038476156617090
2871803 45 18335424620388195637
3084891 72 18409454695368536922
3250762 1 17689722960917898137
34934 24 18266463109913980472
350125 39 18122903402521677714
352729 6 18411696587003828722
353137 74 18338243781081303749
43471831 8 18268149940596510802
589210 1 17761775474020025441
633830 44 18260829327722328108
81228 2 18260258672967109192
9709674 26 18260261963217720726

> <PUBCHEM_SHAPE_MULTIPOLES>
393.75
7.99
2.94
1.05
0.47
0.51
0.43
-0.55
0.23
-0.38
-0.5
-0.03
-0.04
0.13

> <PUBCHEM_SHAPE_SELFOVERLAP>
813.891

> <PUBCHEM_SHAPE_VOLUME>
226.6

> <PUBCHEM_COORDINATE_TYPE>
2
5
10

$$$$

