127382
  -OEChem-07051213043D

 39 41  0     0  0  0  0  0  0999 V2000
    4.9289    0.2325    0.1755 S   0  0  0  0  0  0  0  0  0  0  0  0
   -3.3663    0.6599   -0.2106 O   0  0  0  0  0  0  0  0  0  0  0  0
    3.6927   -2.3288   -0.6624 O   0  0  0  0  0  0  0  0  0  0  0  0
   -2.4198   -1.2709    0.6108 O   0  0  0  0  0  0  0  0  0  0  0  0
    1.0822    1.1025   -0.0378 N   0  0  0  0  0  0  0  0  0  0  0  0
    1.5487   -1.9125    0.0524 N   0  0  0  0  0  0  0  0  0  0  0  0
   -0.9789    1.8730   -0.4323 N   0  0  0  0  0  0  0  0  0  0  0  0
    0.2117    0.0863    0.2878 C   0  0  0  0  0  0  0  0  0  0  0  0
    0.6521   -1.1698    0.9303 C   0  0  0  0  0  0  0  0  0  0  0  0
   -4.6712    0.0841   -0.0868 C   0  0  0  0  0  0  0  0  0  0  0  0
    2.4998    1.0470    0.0395 C   0  0  0  0  0  0  0  0  0  0  0  0
   -1.0426    0.5772    0.0001 C   0  0  0  0  0  0  0  0  0  0  0  0
    3.2465   -0.1225    0.0236 C   0  0  0  0  0  0  0  0  0  0  0  0
    2.8754   -1.5215   -0.2091 C   0  0  0  0  0  0  0  0  0  0  0  0
    0.3009    2.1719   -0.4104 C   0  0  0  0  0  0  0  0  0  0  0  0
   -2.2890   -0.1080    0.1695 C   0  0  0  0  0  0  0  0  0  0  0  0
   -4.9099   -0.2681    1.3808 C   0  0  0  0  0  0  0  0  0  0  0  0
   -5.6811    1.1274   -0.5601 C   0  0  0  0  0  0  0  0  0  0  0  0
   -4.7372   -1.1647   -0.9646 C   0  0  0  0  0  0  0  0  0  0  0  0
    3.3178    2.2178    0.0916 C   0  0  0  0  0  0  0  0  0  0  0  0
    1.0845   -3.2265   -0.3777 C   0  0  0  0  0  0  0  0  0  0  0  0
    4.6549    1.9137    0.1899 C   0  0  0  0  0  0  0  0  0  0  0  0
    1.2010   -0.9378    1.8519 H   0  0  0  0  0  0  0  0  0  0  0  0
   -0.1801   -1.8139    1.2235 H   0  0  0  0  0  0  0  0  0  0  0  0
    0.7140    3.1325   -0.6875 H   0  0  0  0  0  0  0  0  0  0  0  0
   -4.5995    0.5538    2.0364 H   0  0  0  0  0  0  0  0  0  0  0  0
   -5.9748   -0.4581    1.5609 H   0  0  0  0  0  0  0  0  0  0  0  0
   -4.3876   -1.1655    1.7213 H   0  0  0  0  0  0  0  0  0  0  0  0
   -5.4816    1.4180   -1.5980 H   0  0  0  0  0  0  0  0  0  0  0  0
   -5.6031    2.0426    0.0378 H   0  0  0  0  0  0  0  0  0  0  0  0
   -6.7098    0.7581   -0.4955 H   0  0  0  0  0  0  0  0  0  0  0  0
   -4.2052   -2.0297   -0.5612 H   0  0  0  0  0  0  0  0  0  0  0  0
   -5.7770   -1.4874   -1.0952 H   0  0  0  0  0  0  0  0  0  0  0  0
   -4.3192   -0.9662   -1.9584 H   0  0  0  0  0  0  0  0  0  0  0  0
    2.9571    3.2387    0.0919 H   0  0  0  0  0  0  0  0  0  0  0  0
    1.0363   -3.8832    0.4958 H   0  0  0  0  0  0  0  0  0  0  0  0
    1.7568   -3.6668   -1.1186 H   0  0  0  0  0  0  0  0  0  0  0  0
    0.0893   -3.1248   -0.8206 H   0  0  0  0  0  0  0  0  0  0  0  0
    5.4828    2.6043    0.2661 H   0  0  0  0  0  0  0  0  0  0  0  0
  1 13  1  0  0  0  0
  1 22  1  0  0  0  0
  2 10  1  0  0  0  0
  2 16  1  0  0  0  0
  3 14  2  0  0  0  0
  4 16  2  0  0  0  0
  5  8  1  0  0  0  0
  5 11  1  0  0  0  0
  5 15  1  0  0  0  0
  6  9  1  0  0  0  0
  6 14  1  0  0  0  0
  6 21  1  0  0  0  0
  7 12  1  0  0  0  0
  7 15  2  0  0  0  0
  8  9  1  0  0  0  0
  8 12  2  0  0  0  0
  9 23  1  0  0  0  0
  9 24  1  0  0  0  0
 10 17  1  0  0  0  0
 10 18  1  0  0  0  0
 10 19  1  0  0  0  0
 11 13  2  0  0  0  0
 11 20  1  0  0  0  0
 12 16  1  0  0  0  0
 13 14  1  0  0  0  0
 15 25  1  0  0  0  0
 17 26  1  0  0  0  0
 17 27  1  0  0  0  0
 17 28  1  0  0  0  0
 18 29  1  0  0  0  0
 18 30  1  0  0  0  0
 18 31  1  0  0  0  0
 19 32  1  0  0  0  0
 19 33  1  0  0  0  0
 19 34  1  0  0  0  0
 20 22  2  0  0  0  0
 20 35  1  0  0  0  0
 21 36  1  0  0  0  0
 21 37  1  0  0  0  0
 21 38  1  0  0  0  0
 22 39  1  0  0  0  0
M  END
> <PUBCHEM_COMPOUND_CID>
127382

> <PUBCHEM_CONFORMER_RMSD>
0.6

> <PUBCHEM_CONFORMER_DIVERSEORDER>
2
17
6
9
8
3
11
16
18
12
5
15
4
7
14
19
1
13
10

> <PUBCHEM_MMFF94_PARTIAL_CHARGES>
22
1 -0.08
10 0.28
11 -0.08
12 0.14
13 -0.05
14 0.71
15 0.04
16 0.81
2 -0.43
20 -0.15
21 0.3
22 -0.11
25 0.15
3 -0.57
35 0.15
39 0.15
4 -0.57
5 0.38
6 -0.66
7 -0.57
8 -0.33
9 0.48

> <PUBCHEM_EFFECTIVE_ROTOR_COUNT>
3.4

> <PUBCHEM_PHARMACOPHORE_FEATURES>
7
1 3 acceptor
1 4 acceptor
3 5 7 15 cation
4 10 17 18 19 hydrophobe
5 1 11 13 20 22 rings
5 5 7 8 12 15 rings
7 5 6 8 9 11 13 14 rings

> <PUBCHEM_HEAVY_ATOM_COUNT>
22

> <PUBCHEM_ATOM_DEF_STEREO_COUNT>
0

> <PUBCHEM_ATOM_UDEF_STEREO_COUNT>
0

> <PUBCHEM_BOND_DEF_STEREO_COUNT>
0

> <PUBCHEM_BOND_UDEF_STEREO_COUNT>
0

> <PUBCHEM_ISOTOPIC_ATOM_COUNT>
0

> <PUBCHEM_COMPONENT_COUNT>
1

> <PUBCHEM_CACTVS_TAUTO_COUNT>
1

> <PUBCHEM_CONFORMER_ID>
0001F19600000002

> <PUBCHEM_MMFF94_ENERGY>
53.5085

> <PUBCHEM_FEATURE_SELFOVERLAP>
35.58

> <PUBCHEM_SHAPE_FINGERPRINT>
10090160 65 18342182145864339022
10411042 1 17905889528673849974
10906281 52 18058713754572953796
10967382 1 18411136927111010832
11471102 20 18411138043338381600
11578080 2 13469247736661485828
12011746 2 18412536609998255156
12107183 9 17611173146055521857
12236239 1 17675923187977624849
12596602 18 17022903411067517195
12670546 56 17603867831902774569
13140716 1 18194971730194432208
13167823 11 18186804673502611839
13533116 47 18114181960526306873
13836976 161 18341892953322066628
13862211 1 18341901770509915578
14251717 144 18409167714280364162
14528608 73 18335704914222383157
14790565 3 18123466081829460164
15081414 286 18411971455872653025
15196674 1 18411700963248306235
15375358 24 18273214175289767155
15536298 74 18408885152476337673
1601671 61 18341050731166929112
16945 1 17834677476320003512
17834072 33 18260270720297230421
1813 80 17275379915484069021
200 152 18187085035602920121
20028762 73 18186809105867540638
20645477 70 18411422829650546487
21054139 6 18189066295585100695
21197605 99 18122899829019853515
21267235 1 18411692205677913066
21279426 13 18269559519209854229
21285901 2 17988365970067446301
21421861 104 17987244510766209264
21452121 103 18410300215805142200
21623969 137 18342447111261129347
221490 88 18268144434643317134
22182313 1 18201730599130618028
22224240 67 18188502281149514472
23402539 116 18341057332468262213
23557571 272 17203052983862327765
23559900 14 18411421738749835384
239999 70 18334009532033685126
2748010 2 18268973324924906258
2871803 45 18342738567525427686
3060560 45 18407758149317151990
335352 9 18410575068453861926
33824 294 18411419510131294154
34934 24 18412269415118013819
350125 39 18411138061177867600
3633792 109 18336835294856457237
38695281 34 18335140882122202895
4072396 5 18200891624930443200
42630746 31 18407760339607703574
4340502 62 18187368684260162152
465052 167 17917713492029266584
495365 180 18187938218324972336
5104073 3 18341612671950801289
543358 83 18337389460657207257
6443956 14 18411979178324084748
7364860 26 18408603699412274392
7495541 125 14333115348366697869
8272917 22 18334853943667088103
9709674 26 18413103978761081675

> <PUBCHEM_SHAPE_MULTIPOLES>
424.05
11.31
2.69
0.85
9.66
1.22
0.12
-2.03
-0.27
-2.5
-0.47
0.67
0.14
0.48

> <PUBCHEM_SHAPE_SELFOVERLAP>
905.894

> <PUBCHEM_SHAPE_VOLUME>
239.4

> <PUBCHEM_COORDINATE_TYPE>
2
5
10

$$$$

