2724362
  -OEChem-07051213093D

 38 42  0     1  0  0  0  0  0999 V2000
   -4.7628    0.5476    0.7942 O   0  0  0  0  0  0  0  0  0  0  0  0
   -3.6828   -1.2063   -0.4125 O   0  0  0  0  0  0  0  0  0  0  0  0
    0.0222    1.6688   -0.3997 O   0  0  0  0  0  0  0  0  0  0  0  0
    0.6160   -3.1331    0.2215 O   0  0  0  0  0  0  0  0  0  0  0  0
    4.5802    0.1235    0.4677 O   0  0  0  0  0  0  0  0  0  0  0  0
    1.7660    3.1134   -0.5538 O   0  0  0  0  0  0  0  0  0  0  0  0
    4.2679    2.1267   -0.5066 O   0  0  0  0  0  0  0  0  0  0  0  0
   -2.9206    1.1010   -0.6476 C   0  0  2  0  0  0  0  0  0  0  0  0
   -4.1242    0.1706   -0.4408 C   0  0  2  0  0  0  0  0  0  0  0  0
   -1.8180    0.1507   -0.3549 C   0  0  0  0  0  0  0  0  0  0  0  0
   -3.1517    2.2044    0.3585 C   0  0  0  0  0  0  0  0  0  0  0  0
   -3.9419    1.5182    1.4517 C   0  0  0  0  0  0  0  0  0  0  0  0
   -2.3246   -1.1312   -0.2588 C   0  0  0  0  0  0  0  0  0  0  0  0
   -0.4532    0.3627   -0.2359 C   0  0  0  0  0  0  0  0  0  0  0  0
    0.4185   -0.6982    0.0096 C   0  0  0  0  0  0  0  0  0  0  0  0
   -1.5058   -2.2203   -0.0423 C   0  0  0  0  0  0  0  0  0  0  0  0
    1.8559   -0.4025    0.1434 C   0  0  0  0  0  0  0  0  0  0  0  0
   -0.1300   -1.9966    0.0928 C   0  0  0  0  0  0  0  0  0  0  0  0
    2.8001   -1.5107    0.5169 C   0  0  0  0  0  0  0  0  0  0  0  0
    2.3103    0.8497   -0.0561 C   0  0  0  0  0  0  0  0  0  0  0  0
    1.3747    1.9668   -0.3615 C   0  0  0  0  0  0  0  0  0  0  0  0
    3.9933   -0.9277    1.2418 C   0  0  0  0  0  0  0  0  0  0  0  0
    3.7847    1.0977   -0.0450 C   0  0  0  0  0  0  0  0  0  0  0  0
    1.0258   -3.7752   -0.9826 C   0  0  0  0  0  0  0  0  0  0  0  0
   -2.8390    1.4588   -1.6791 H   0  0  0  0  0  0  0  0  0  0  0  0
   -4.8642    0.2811   -1.2409 H   0  0  0  0  0  0  0  0  0  0  0  0
   -2.2454    2.6850    0.7362 H   0  0  0  0  0  0  0  0  0  0  0  0
   -3.7798    2.9774   -0.1012 H   0  0  0  0  0  0  0  0  0  0  0  0
   -3.2857    0.9940    2.1551 H   0  0  0  0  0  0  0  0  0  0  0  0
   -4.5716    2.2128    2.0144 H   0  0  0  0  0  0  0  0  0  0  0  0
   -1.9205   -3.2220    0.0115 H   0  0  0  0  0  0  0  0  0  0  0  0
    2.3716   -2.2211    1.2266 H   0  0  0  0  0  0  0  0  0  0  0  0
    3.1296   -2.0340   -0.3867 H   0  0  0  0  0  0  0  0  0  0  0  0
    3.7253   -0.5281    2.2275 H   0  0  0  0  0  0  0  0  0  0  0  0
    4.7572   -1.6972    1.3939 H   0  0  0  0  0  0  0  0  0  0  0  0
    0.1964   -4.3616   -1.3900 H   0  0  0  0  0  0  0  0  0  0  0  0
    1.3681   -3.0533   -1.7315 H   0  0  0  0  0  0  0  0  0  0  0  0
    1.8493   -4.4550   -0.7471 H   0  0  0  0  0  0  0  0  0  0  0  0
  1  9  1  0  0  0  0
  1 12  1  0  0  0  0
  2  9  1  0  0  0  0
  2 13  1  0  0  0  0
  3 14  1  0  0  0  0
  3 21  1  0  0  0  0
  4 18  1  0  0  0  0
  4 24  1  0  0  0  0
  5 22  1  0  0  0  0
  5 23  1  0  0  0  0
  6 21  2  0  0  0  0
  7 23  2  0  0  0  0
  8  9  1  0  0  0  0
  8 10  1  0  0  0  0
  8 11  1  0  0  0  0
  8 25  1  0  0  0  0
  9 26  1  0  0  0  0
 10 13  1  0  0  0  0
 10 14  2  0  0  0  0
 11 12  1  0  0  0  0
 11 27  1  0  0  0  0
 11 28  1  0  0  0  0
 12 29  1  0  0  0  0
 12 30  1  0  0  0  0
 13 16  2  0  0  0  0
 14 15  1  0  0  0  0
 15 17  1  0  0  0  0
 15 18  2  0  0  0  0
 16 18  1  0  0  0  0
 16 31  1  0  0  0  0
 17 19  1  0  0  0  0
 17 20  2  0  0  0  0
 19 22  1  0  0  0  0
 19 32  1  0  0  0  0
 19 33  1  0  0  0  0
 20 21  1  0  0  0  0
 20 23  1  0  0  0  0
 22 34  1  0  0  0  0
 22 35  1  0  0  0  0
 24 36  1  0  0  0  0
 24 37  1  0  0  0  0
 24 38  1  0  0  0  0
M  END
> <PUBCHEM_COMPOUND_CID>
2724362

> <PUBCHEM_CONFORMER_RMSD>
0.6

> <PUBCHEM_CONFORMER_DIVERSEORDER>
1
2

> <PUBCHEM_MMFF94_PARTIAL_CHARGES>
24
1 -0.56
10 -0.14
12 0.28
13 0.08
14 0.08
15 0.03
16 -0.15
17 -0.17
18 0.08
19 0.14
2 -0.36
20 0.03
21 0.71
22 0.28
23 0.71
24 0.28
3 -0.23
31 0.15
4 -0.36
5 -0.43
6 -0.57
7 -0.57
8 0.14
9 0.56

> <PUBCHEM_EFFECTIVE_ROTOR_COUNT>
2.4

> <PUBCHEM_PHARMACOPHORE_FEATURES>
11
1 1 acceptor
1 2 acceptor
1 20 anion
1 4 acceptor
1 6 acceptor
1 7 acceptor
5 1 8 9 11 12 rings
5 2 8 9 10 13 rings
6 10 13 14 15 16 18 rings
6 3 14 15 17 20 21 rings
6 5 17 19 20 22 23 rings

> <PUBCHEM_HEAVY_ATOM_COUNT>
24

> <PUBCHEM_ATOM_DEF_STEREO_COUNT>
2

> <PUBCHEM_ATOM_UDEF_STEREO_COUNT>
0

> <PUBCHEM_BOND_DEF_STEREO_COUNT>
0

> <PUBCHEM_BOND_UDEF_STEREO_COUNT>
0

> <PUBCHEM_ISOTOPIC_ATOM_COUNT>
0

> <PUBCHEM_COMPONENT_COUNT>
1

> <PUBCHEM_CACTVS_TAUTO_COUNT>
1

> <PUBCHEM_CONFORMER_ID>
0029920A00000001

> <PUBCHEM_MMFF94_ENERGY>
94.275

> <PUBCHEM_FEATURE_SELFOVERLAP>
56.594

> <PUBCHEM_SHAPE_FINGERPRINT>
10411042 1 17474390652549814255
10493431 412 18410011009623703856
10616163 171 18339359639275740463
10967382 1 18339929310995144974
11578080 2 13841354421820452664
12173636 292 18263371299763391638
12403260 363 18337682905686971679
12422481 6 17833012781166402794
12553582 1 18268712877675163996
12592029 89 18411694417802576035
12633257 1 18201728387386049282
12644460 14 18060139847276989136
12788726 201 17900551072696666199
13140716 1 18339923714800399529
13583140 156 16988294169369654449
138480 1 17978228592818177142
14178342 30 18335426793826309091
14790565 3 18412256208547766156
14955137 171 18268693052058711336
15196674 1 18413111632250241934
15209294 21 18114183090007844801
15309172 13 18413671309654952385
15442244 35 18412550894479375544
15475509 8 16452047161578386999
15536298 74 18116153453209770687
15927050 60 16894264691567578511
1601671 61 18410855482220183256
16945 1 18339359764256839199
19591789 44 18339926034051123206
20028762 73 18188214174295633735
20510252 161 17975409123255870131
20739085 24 18271515511572137164
20775438 99 15590517653261502855
21267235 1 18413668015610358170
22182313 1 17836935863917182502
23184049 59 18343303699311620896
2334 1 18340209566016423350
23366157 5 18199183082260751878
23558518 356 17623008989518188860
23559900 14 18260543451227221294
238 59 17624461736114212447
2748010 2 18412267242086290198
3091708 16 9335960374172431787
335352 9 18412830187965972246
34934 24 18270126687079252352
350125 39 18267302041385612561
352729 6 18266456508206686463
474 4 18410293635751785683
484985 159 13891829964468506306
5104073 3 18342182111821047624
6138700 20 18265329681141016958
633830 44 18260264178708663198
7064713 232 18262247710733752664
7364860 26 18263361563162650511
90525 40 18337111163824706311
9709674 26 18410572847122885078

> <PUBCHEM_SHAPE_MULTIPOLES>
452.82
8.26
3.44
0.92
1.05
1.6
0.18
-3.44
1.82
-1.44
-0.71
0.16
-0.03
-0.95

> <PUBCHEM_SHAPE_SELFOVERLAP>
1029.243

> <PUBCHEM_SHAPE_VOLUME>
234.5

> <PUBCHEM_COORDINATE_TYPE>
2
5
10

$$$$

