93504
  -OEChem-07051213023D

 39 41  0     1  0  0  0  0  0999 V2000
    0.4115   -2.6048    0.5382 O   0  0  0  0  0  0  0  0  0  0  0  0
    3.2272   -0.4266   -0.4594 O   0  0  0  0  0  0  0  0  0  0  0  0
    1.4470    2.7109   -1.8525 O   0  0  0  0  0  0  0  0  0  0  0  0
    1.0288    1.4804    0.1105 N   0  0  0  0  0  0  0  0  0  0  0  0
   -5.0197    1.2671   -0.4698 N   0  0  0  0  0  0  0  0  0  0  0  0
    0.8791    0.1417   -0.4175 C   0  0  1  0  0  0  0  0  0  0  0  0
    1.9824   -0.7576    0.1525 C   0  0  1  0  0  0  0  0  0  0  0  0
    1.6679   -2.2503   -0.0678 C   0  0  0  0  0  0  0  0  0  0  0  0
   -0.4865   -0.4284   -0.1261 C   0  0  0  0  0  0  0  0  0  0  0  0
    0.7947    1.7743    1.5043 C   0  0  0  0  0  0  0  0  0  0  0  0
    1.3992    3.1540    1.6712 C   0  0  0  0  0  0  0  0  0  0  0  0
   -0.6338   -1.7446    0.3311 C   0  0  0  0  0  0  0  0  0  0  0  0
    1.2714    2.6244   -0.6464 C   0  0  0  0  0  0  0  0  0  0  0  0
    1.2221    3.7993    0.3020 C   0  0  0  0  0  0  0  0  0  0  0  0
    2.7259   -3.1086    0.6482 C   0  0  0  0  0  0  0  0  0  0  0  0
    1.6510   -2.6655   -1.5501 C   0  0  0  0  0  0  0  0  0  0  0  0
   -1.6439    0.3371   -0.3459 C   0  0  0  0  0  0  0  0  0  0  0  0
   -1.9023   -2.2590    0.6196 C   0  0  0  0  0  0  0  0  0  0  0  0
   -2.9099   -0.1826   -0.0708 C   0  0  0  0  0  0  0  0  0  0  0  0
   -3.0384   -1.4783    0.4194 C   0  0  0  0  0  0  0  0  0  0  0  0
   -4.0737    0.6171   -0.2910 C   0  0  0  0  0  0  0  0  0  0  0  0
    0.9936    0.2021   -1.5076 H   0  0  0  0  0  0  0  0  0  0  0  0
    2.0994   -0.6019    1.2306 H   0  0  0  0  0  0  0  0  0  0  0  0
    1.2632    1.0531    2.1761 H   0  0  0  0  0  0  0  0  0  0  0  0
   -0.2834    1.8016    1.6917 H   0  0  0  0  0  0  0  0  0  0  0  0
    2.4697    3.0649    1.8950 H   0  0  0  0  0  0  0  0  0  0  0  0
    0.9340    3.7288    2.4770 H   0  0  0  0  0  0  0  0  0  0  0  0
    2.0184    4.5145    0.0829 H   0  0  0  0  0  0  0  0  0  0  0  0
    0.2447    4.2832    0.2111 H   0  0  0  0  0  0  0  0  0  0  0  0
    3.7295   -2.9499    0.2408 H   0  0  0  0  0  0  0  0  0  0  0  0
    2.7471   -2.8850    1.7212 H   0  0  0  0  0  0  0  0  0  0  0  0
    2.4847   -4.1749    0.5637 H   0  0  0  0  0  0  0  0  0  0  0  0
    1.4083   -3.7303   -1.6478 H   0  0  0  0  0  0  0  0  0  0  0  0
    0.8836   -2.1303   -2.1182 H   0  0  0  0  0  0  0  0  0  0  0  0
    2.6177   -2.4890   -2.0327 H   0  0  0  0  0  0  0  0  0  0  0  0
   -1.5550    1.3498   -0.7354 H   0  0  0  0  0  0  0  0  0  0  0  0
    3.3933    0.5160   -0.2875 H   0  0  0  0  0  0  0  0  0  0  0  0
   -2.0116   -3.2753    0.9898 H   0  0  0  0  0  0  0  0  0  0  0  0
   -4.0163   -1.8977    0.6424 H   0  0  0  0  0  0  0  0  0  0  0  0
  1  8  1  0  0  0  0
  1 12  1  0  0  0  0
  2  7  1  0  0  0  0
  2 37  1  0  0  0  0
  3 13  2  0  0  0  0
  4  6  1  0  0  0  0
  4 10  1  0  0  0  0
  4 13  1  0  0  0  0
  5 21  3  0  0  0  0
  6  7  1  0  0  0  0
  6  9  1  0  0  0  0
  6 22  1  0  0  0  0
  7  8  1  0  0  0  0
  7 23  1  0  0  0  0
  8 15  1  0  0  0  0
  8 16  1  0  0  0  0
  9 12  2  0  0  0  0
  9 17  1  0  0  0  0
 10 11  1  0  0  0  0
 10 24  1  0  0  0  0
 10 25  1  0  0  0  0
 11 14  1  0  0  0  0
 11 26  1  0  0  0  0
 11 27  1  0  0  0  0
 12 18  1  0  0  0  0
 13 14  1  0  0  0  0
 14 28  1  0  0  0  0
 14 29  1  0  0  0  0
 15 30  1  0  0  0  0
 15 31  1  0  0  0  0
 15 32  1  0  0  0  0
 16 33  1  0  0  0  0
 16 34  1  0  0  0  0
 16 35  1  0  0  0  0
 17 19  2  0  0  0  0
 17 36  1  0  0  0  0
 18 20  2  0  0  0  0
 18 38  1  0  0  0  0
 19 20  1  0  0  0  0
 19 21  1  0  0  0  0
 20 39  1  0  0  0  0
M  END
> <PUBCHEM_COMPOUND_CID>
93504

> <PUBCHEM_CONFORMER_RMSD>
0.6

> <PUBCHEM_CONFORMER_DIVERSEORDER>
2
3
1
4

> <PUBCHEM_MMFF94_PARTIAL_CHARGES>
22
1 -0.36
10 0.3
12 0.08
13 0.57
14 0.06
17 -0.15
18 -0.15
19 0.07
2 -0.68
20 -0.15
21 0.48
3 -0.57
36 0.15
37 0.4
38 0.15
39 0.15
4 -0.66
5 -0.56
6 0.44
7 0.28
8 0.28
9 -0.14

> <PUBCHEM_EFFECTIVE_ROTOR_COUNT>
2.6

> <PUBCHEM_PHARMACOPHORE_FEATURES>
9
1 1 acceptor
1 2 acceptor
1 2 donor
1 3 acceptor
1 5 acceptor
3 8 15 16 hydrophobe
5 4 10 11 13 14 rings
6 1 6 7 8 9 12 rings
6 9 12 17 18 19 20 rings

> <PUBCHEM_HEAVY_ATOM_COUNT>
21

> <PUBCHEM_ATOM_DEF_STEREO_COUNT>
2

> <PUBCHEM_ATOM_UDEF_STEREO_COUNT>
0

> <PUBCHEM_BOND_DEF_STEREO_COUNT>
0

> <PUBCHEM_BOND_UDEF_STEREO_COUNT>
0

> <PUBCHEM_ISOTOPIC_ATOM_COUNT>
0

> <PUBCHEM_COMPONENT_COUNT>
1

> <PUBCHEM_CACTVS_TAUTO_COUNT>
2

> <PUBCHEM_CONFORMER_ID>
00016D4000000002

> <PUBCHEM_MMFF94_ENERGY>
56.1779

> <PUBCHEM_FEATURE_SELFOVERLAP>
45.697

> <PUBCHEM_SHAPE_FINGERPRINT>
10165383 225 17618188764611808449
104564 63 17616527801831454107
10967382 1 18340486776254282191
11578080 2 13032074345540152388
116883 192 17757266355191284094
12173636 292 17691127037425064325
12507560 14 18192720157523857703
12788726 201 17905886229774554226
13132413 78 18263357165063346193
13134695 92 18189065337833526773
13140716 1 18194682570777346041
13681431 1 18334568087808060591
13878862 14 18410290316686435305
14648413 74 18340487772829093867
14866123 147 16824459502565226083
15131766 46 15650764615980352546
15210252 30 17985253312409729692
15230672 131 17979919312218946572
15420108 30 17898038804912509426
15490181 7 17830452774124587158
16945 1 18341895126016751626
17138139 8 16321237198102214061
17980427 23 17972634084524761003
20510252 161 17762629781675628738
20511035 2 18194969534854376254
20600515 1 18197214965025956854
20642791 239 17842524544287884590
21029758 11 18193563482836580907
21041028 32 18119534490288510621
21524375 3 17830728760117438082
21731228 192 17831587478619356960
22149856 69 18197486331068996603
22620623 9 16814859584838307662
2334 1 17906168451901033127
23419403 2 17319902559791281392
23557571 272 17974854183411837238
23558518 356 18127138468040935715
23559900 14 18340494361614867839
238 59 18117848689870728159
2748010 2 18052814741550912415
283562 15 17763185043484849778
3380486 77 17913201254648157219
350125 39 18051685555925328195
495365 180 18115882806172413937
5939293 188 18410017653753442386
6443956 14 18264210377675790445
7364860 26 18335701602792028723
7471813 234 17896905311872973333
7808743 9 17042040161841913873
81228 2 17761199316952784106
84936 182 18261395482127904329
9981440 41 17976560316283401649

> <PUBCHEM_SHAPE_MULTIPOLES>
404.6
5.36
4.71
1.23
7.59
1.42
0.09
0.58
0.54
-4.09
-0.46
-0.68
0.51
0.64

> <PUBCHEM_SHAPE_SELFOVERLAP>
873.448

> <PUBCHEM_SHAPE_VOLUME>
221.1

> <PUBCHEM_COORDINATE_TYPE>
2
5
10

$$$$

