14777879
  -OEChem-07051213112D

 80 82  0     0  0  0  0  0  0999 V2000
    2.8660   -0.9050    0.0000 O   0  0  0  0  0  0  0  0  0  0  0  0
    9.7942    0.0950    0.0000 O   0  0  0  0  0  0  0  0  0  0  0  0
    5.4641    3.5950    0.0000 O   0  0  0  0  0  0  0  0  0  0  0  0
    2.8660   -6.9050    0.0000 O   0  0  0  0  0  0  0  0  0  0  0  0
   14.9904   -2.9050    0.0000 O   0  0  0  0  0  0  0  0  0  0  0  0
   10.6603    6.5950    0.0000 O   0  0  0  0  0  0  0  0  0  0  0  0
    4.5981   -0.9050    0.0000 N   0  0  0  0  0  0  0  0  0  0  0  0
    8.9282   -1.4050    0.0000 N   0  0  0  0  0  0  0  0  0  0  0  0
    6.3301    2.0950    0.0000 N   0  0  0  0  0  0  0  0  0  0  0  0
    5.4641   -1.4050    0.0000 C   0  0  0  0  0  0  0  0  0  0  0  0
    6.3301   -0.9050    0.0000 C   0  0  0  0  0  0  0  0  0  0  0  0
    4.5981    0.0950    0.0000 C   0  0  0  0  0  0  0  0  0  0  0  0
    7.1962   -1.4050    0.0000 C   0  0  0  0  0  0  0  0  0  0  0  0
    5.4641    0.5950    0.0000 C   0  0  0  0  0  0  0  0  0  0  0  0
    8.0622   -0.9050    0.0000 C   0  0  0  0  0  0  0  0  0  0  0  0
    5.4641    1.5950    0.0000 C   0  0  0  0  0  0  0  0  0  0  0  0
    3.7320   -1.4050    0.0000 C   0  0  0  0  0  0  0  0  0  0  0  0
    3.7320   -2.4050    0.0000 C   0  0  0  0  0  0  0  0  0  0  0  0
    9.7942   -0.9050    0.0000 C   0  0  0  0  0  0  0  0  0  0  0  0
    2.8660   -2.9050    0.0000 C   0  0  0  0  0  0  0  0  0  0  0  0
    6.3301    3.0950    0.0000 C   0  0  0  0  0  0  0  0  0  0  0  0
    2.8660   -3.9050    0.0000 C   0  0  0  0  0  0  0  0  0  0  0  0
   10.6603   -1.4050    0.0000 C   0  0  0  0  0  0  0  0  0  0  0  0
    7.1962    3.5950    0.0000 C   0  0  0  0  0  0  0  0  0  0  0  0
    2.0000   -4.4050    0.0000 C   0  0  0  0  0  0  0  0  0  0  0  0
    3.7320   -4.4050    0.0000 C   0  0  0  0  0  0  0  0  0  0  0  0
   11.5263   -0.9050    0.0000 C   0  0  0  0  0  0  0  0  0  0  0  0
    7.1962    4.5950    0.0000 C   0  0  0  0  0  0  0  0  0  0  0  0
    2.0000   -5.4050    0.0000 C   0  0  0  0  0  0  0  0  0  0  0  0
    3.7320   -5.4050    0.0000 C   0  0  0  0  0  0  0  0  0  0  0  0
   12.3923   -1.4050    0.0000 C   0  0  0  0  0  0  0  0  0  0  0  0
    8.0622    5.0950    0.0000 C   0  0  0  0  0  0  0  0  0  0  0  0
    2.8660   -5.9050    0.0000 C   0  0  0  0  0  0  0  0  0  0  0  0
   12.3923   -2.4050    0.0000 C   0  0  0  0  0  0  0  0  0  0  0  0
   13.2583   -0.9050    0.0000 C   0  0  0  0  0  0  0  0  0  0  0  0
    8.9282    4.5950    0.0000 C   0  0  0  0  0  0  0  0  0  0  0  0
    8.0622    6.0950    0.0000 C   0  0  0  0  0  0  0  0  0  0  0  0
   13.2583   -2.9050    0.0000 C   0  0  0  0  0  0  0  0  0  0  0  0
   14.1244   -1.4050    0.0000 C   0  0  0  0  0  0  0  0  0  0  0  0
    9.7942    5.0950    0.0000 C   0  0  0  0  0  0  0  0  0  0  0  0
    8.9282    6.5950    0.0000 C   0  0  0  0  0  0  0  0  0  0  0  0
   14.1244   -2.4050    0.0000 C   0  0  0  0  0  0  0  0  0  0  0  0
    9.7942    6.0950    0.0000 C   0  0  0  0  0  0  0  0  0  0  0  0
    5.0656   -1.8800    0.0000 H   0  0  0  0  0  0  0  0  0  0  0  0
    5.8626   -1.8800    0.0000 H   0  0  0  0  0  0  0  0  0  0  0  0
    6.7287   -0.4301    0.0000 H   0  0  0  0  0  0  0  0  0  0  0  0
    5.9316   -0.4301    0.0000 H   0  0  0  0  0  0  0  0  0  0  0  0
    4.3860    0.6776    0.0000 H   0  0  0  0  0  0  0  0  0  0  0  0
    3.9875   -0.0127    0.0000 H   0  0  0  0  0  0  0  0  0  0  0  0
    6.7976   -1.8800    0.0000 H   0  0  0  0  0  0  0  0  0  0  0  0
    7.5947   -1.8800    0.0000 H   0  0  0  0  0  0  0  0  0  0  0  0
    5.6762    0.0124    0.0000 H   0  0  0  0  0  0  0  0  0  0  0  0
    6.0747    0.7027    0.0000 H   0  0  0  0  0  0  0  0  0  0  0  0
    8.4607   -0.4301    0.0000 H   0  0  0  0  0  0  0  0  0  0  0  0
    7.6636   -0.4301    0.0000 H   0  0  0  0  0  0  0  0  0  0  0  0
    5.2520    2.1776    0.0000 H   0  0  0  0  0  0  0  0  0  0  0  0
    4.8535    1.4873    0.0000 H   0  0  0  0  0  0  0  0  0  0  0  0
    8.9282   -2.0250    0.0000 H   0  0  0  0  0  0  0  0  0  0  0  0
    6.8671    1.7850    0.0000 H   0  0  0  0  0  0  0  0  0  0  0  0
    4.2690   -2.7150    0.0000 H   0  0  0  0  0  0  0  0  0  0  0  0
    2.3291   -2.5950    0.0000 H   0  0  0  0  0  0  0  0  0  0  0  0
   10.6603   -2.0250    0.0000 H   0  0  0  0  0  0  0  0  0  0  0  0
    7.7331    3.2850    0.0000 H   0  0  0  0  0  0  0  0  0  0  0  0
    1.4631   -4.0950    0.0000 H   0  0  0  0  0  0  0  0  0  0  0  0
    4.2690   -4.0950    0.0000 H   0  0  0  0  0  0  0  0  0  0  0  0
   11.5263   -0.2850    0.0000 H   0  0  0  0  0  0  0  0  0  0  0  0
    6.6592    4.9050    0.0000 H   0  0  0  0  0  0  0  0  0  0  0  0
    1.4631   -5.7150    0.0000 H   0  0  0  0  0  0  0  0  0  0  0  0
    4.2690   -5.7150    0.0000 H   0  0  0  0  0  0  0  0  0  0  0  0
   11.8554   -2.7150    0.0000 H   0  0  0  0  0  0  0  0  0  0  0  0
   13.2583   -0.2850    0.0000 H   0  0  0  0  0  0  0  0  0  0  0  0
    8.9282    3.9750    0.0000 H   0  0  0  0  0  0  0  0  0  0  0  0
    7.5252    6.4050    0.0000 H   0  0  0  0  0  0  0  0  0  0  0  0
   13.2583   -3.5250    0.0000 H   0  0  0  0  0  0  0  0  0  0  0  0
   14.6613   -1.0950    0.0000 H   0  0  0  0  0  0  0  0  0  0  0  0
   10.3312    4.7850    0.0000 H   0  0  0  0  0  0  0  0  0  0  0  0
    8.9282    7.2150    0.0000 H   0  0  0  0  0  0  0  0  0  0  0  0
    2.3291   -7.2150    0.0000 H   0  0  0  0  0  0  0  0  0  0  0  0
   15.5273   -2.5950    0.0000 H   0  0  0  0  0  0  0  0  0  0  0  0
   10.6603    7.2150    0.0000 H   0  0  0  0  0  0  0  0  0  0  0  0
  1 17  2  0  0  0  0
  2 19  2  0  0  0  0
  3 21  2  0  0  0  0
  4 33  1  0  0  0  0
  4 78  1  0  0  0  0
  5 42  1  0  0  0  0
  5 79  1  0  0  0  0
  6 43  1  0  0  0  0
  6 80  1  0  0  0  0
  7 10  1  0  0  0  0
  7 12  1  0  0  0  0
  7 17  1  0  0  0  0
  8 15  1  0  0  0  0
  8 19  1  0  0  0  0
  8 58  1  0  0  0  0
  9 16  1  0  0  0  0
  9 21  1  0  0  0  0
  9 59  1  0  0  0  0
 10 11  1  0  0  0  0
 10 44  1  0  0  0  0
 10 45  1  0  0  0  0
 11 13  1  0  0  0  0
 11 46  1  0  0  0  0
 11 47  1  0  0  0  0
 12 14  1  0  0  0  0
 12 48  1  0  0  0  0
 12 49  1  0  0  0  0
 13 15  1  0  0  0  0
 13 50  1  0  0  0  0
 13 51  1  0  0  0  0
 14 16  1  0  0  0  0
 14 52  1  0  0  0  0
 14 53  1  0  0  0  0
 15 54  1  0  0  0  0
 15 55  1  0  0  0  0
 16 56  1  0  0  0  0
 16 57  1  0  0  0  0
 17 18  1  0  0  0  0
 18 20  2  0  0  0  0
 18 60  1  0  0  0  0
 19 23  1  0  0  0  0
 20 22  1  0  0  0  0
 20 61  1  0  0  0  0
 21 24  1  0  0  0  0
 22 25  2  0  0  0  0
 22 26  1  0  0  0  0
 23 27  2  0  0  0  0
 23 62  1  0  0  0  0
 24 28  2  0  0  0  0
 24 63  1  0  0  0  0
 25 29  1  0  0  0  0
 25 64  1  0  0  0  0
 26 30  2  0  0  0  0
 26 65  1  0  0  0  0
 27 31  1  0  0  0  0
 27 66  1  0  0  0  0
 28 32  1  0  0  0  0
 28 67  1  0  0  0  0
 29 33  2  0  0  0  0
 29 68  1  0  0  0  0
 30 33  1  0  0  0  0
 30 69  1  0  0  0  0
 31 34  2  0  0  0  0
 31 35  1  0  0  0  0
 32 36  2  0  0  0  0
 32 37  1  0  0  0  0
 34 38  1  0  0  0  0
 34 70  1  0  0  0  0
 35 39  2  0  0  0  0
 35 71  1  0  0  0  0
 36 40  1  0  0  0  0
 36 72  1  0  0  0  0
 37 41  2  0  0  0  0
 37 73  1  0  0  0  0
 38 42  2  0  0  0  0
 38 74  1  0  0  0  0
 39 42  1  0  0  0  0
 39 75  1  0  0  0  0
 40 43  2  0  0  0  0
 40 76  1  0  0  0  0
 41 43  1  0  0  0  0
 41 77  1  0  0  0  0
M  END
> <PUBCHEM_COMPOUND_CID>
14777879

> <PUBCHEM_COMPOUND_CANONICALIZED>
1

> <PUBCHEM_CACTVS_COMPLEXITY>
926

> <PUBCHEM_CACTVS_HBOND_ACCEPTOR>
6

> <PUBCHEM_CACTVS_HBOND_DONOR>
5

> <PUBCHEM_CACTVS_ROTATABLE_BOND>
15

> <PUBCHEM_CACTVS_SUBSKEYS>
AAADcfB/OAAAAAAAAAAAAAAAAAAAAAAAAAAwYMAAAAAAAAABUAAAHgAQCAAADATBmAQwBoPAAgCIAiFSEACCAAAgIAAIiIAOCMgIJiKC0RKEcAAk1hGImYeAwAAOIAAAAAAAAABAAAAAAAAAAAAAAAAAAA==

> <PUBCHEM_IUPAC_OPENEYE_NAME>
(E)-3-(4-hydroxyphenyl)-N-[4-[[(E)-3-(4-hydroxyphenyl)prop-2-enoyl]-[3-[[(E)-3-(4-hydroxyphenyl)prop-2-enoyl]amino]propyl]amino]butyl]prop-2-enamide

> <PUBCHEM_IUPAC_CAS_NAME>
(E)-3-(4-hydroxyphenyl)-N-[4-[[(E)-3-(4-hydroxyphenyl)-1-oxoprop-2-enyl]-[3-[[(E)-3-(4-hydroxyphenyl)-1-oxoprop-2-enyl]amino]propyl]amino]butyl]-2-propenamide

> <PUBCHEM_IUPAC_NAME>
(E)-3-(4-hydroxyphenyl)-N-[4-[[(E)-3-(4-hydroxyphenyl)prop-2-enoyl]-[3-[[(E)-3-(4-hydroxyphenyl)prop-2-enoyl]amino]propyl]amino]butyl]prop-2-enamide

> <PUBCHEM_IUPAC_SYSTEMATIC_NAME>
(E)-3-(4-hydroxyphenyl)-N-[4-[[(E)-3-(4-hydroxyphenyl)prop-2-enoyl]-[3-[[(E)-3-(4-hydroxyphenyl)prop-2-enoyl]amino]propyl]amino]butyl]prop-2-enamide

> <PUBCHEM_IUPAC_TRADITIONAL_NAME>
(E)-3-(4-hydroxyphenyl)-N-[4-[[(E)-3-(4-hydroxyphenyl)acryloyl]-[3-[[(E)-3-(4-hydroxyphenyl)acryloyl]amino]propyl]amino]butyl]acrylamide

> <PUBCHEM_IUPAC_INCHI>
InChI=1S/C34H37N3O6/c38-29-13-4-26(5-14-29)10-19-32(41)35-22-1-2-24-37(34(43)21-12-28-8-17-31(40)18-9-28)25-3-23-36-33(42)20-11-27-6-15-30(39)16-7-27/h4-21,38-40H,1-3,22-25H2,(H,35,41)(H,36,42)/b19-10+,20-11+,21-12+

> <PUBCHEM_IUPAC_INCHIKEY>
PFDVWJCSCYDRMZ-AUCPOXKISA-N

> <PUBCHEM_XLOGP3_AA>
4.6

> <PUBCHEM_EXACT_MASS>
583.268236

> <PUBCHEM_MOLECULAR_FORMULA>
C34H37N3O6

> <PUBCHEM_MOLECULAR_WEIGHT>
583.67408

> <PUBCHEM_OPENEYE_CAN_SMILES>
C1=CC(=CC=C1C=CC(=O)NCCCCN(CCCNC(=O)C=CC2=CC=C(C=C2)O)C(=O)C=CC3=CC=C(C=C3)O)O

> <PUBCHEM_OPENEYE_ISO_SMILES>
C1=CC(=CC=C1/C=C/C(=O)NCCCCN(CCCNC(=O)/C=C/C2=CC=C(C=C2)O)C(=O)/C=C/C3=CC=C(C=C3)O)O

> <PUBCHEM_CACTVS_TPSA>
139

> <PUBCHEM_MONOISOTOPIC_WEIGHT>
583.268236

> <PUBCHEM_TOTAL_CHARGE>
0

> <PUBCHEM_HEAVY_ATOM_COUNT>
43

> <PUBCHEM_ATOM_DEF_STEREO_COUNT>
0

> <PUBCHEM_ATOM_UDEF_STEREO_COUNT>
0

> <PUBCHEM_BOND_DEF_STEREO_COUNT>
3

> <PUBCHEM_BOND_UDEF_STEREO_COUNT>
0

> <PUBCHEM_ISOTOPIC_ATOM_COUNT>
0

> <PUBCHEM_COMPONENT_COUNT>
1

> <PUBCHEM_CACTVS_TAUTO_COUNT>
196

> <PUBCHEM_COORDINATE_TYPE>
1
5
255

> <PUBCHEM_BONDANNOTATIONS>
22  25  8
22  26  8
25  29  8
26  30  8
29  33  8
30  33  8
31  34  8
31  35  8
32  36  8
32  37  8
34  38  8
35  39  8
36  40  8
37  41  8
38  42  8
39  42  8
40  43  8
41  43  8

$$$$

