68844
  -OEChem-07051212543D

 44 45  0     1  0  0  0  0  0999 V2000
    0.3779    1.9156    0.2123 S   0  0  0  0  0  0  0  0  0  0  0  0
   -2.4299    1.2981   -0.5663 S   0  0  0  0  0  0  0  0  0  0  0  0
   -4.8382   -0.3542   -0.7189 S   0  0  0  0  0  0  0  0  0  0  0  0
    0.0031    2.9006    1.2068 O   0  0  0  0  0  0  0  0  0  0  0  0
    0.6748    2.2729   -1.1591 O   0  0  0  0  0  0  0  0  0  0  0  0
    4.9963    0.2262   -1.6965 O   0  0  0  0  0  0  0  0  0  0  0  0
   -4.9839    0.5548   -1.8501 O   0  0  0  0  0  0  0  0  0  0  0  0
   -5.0573   -1.7855   -0.8849 O   0  0  0  0  0  0  0  0  0  0  0  0
    1.6264    0.8905    0.8366 N   0  0  2  0  0  0  0  0  0  0  0  0
    0.8178   -1.9944    0.4003 N   0  0  0  0  0  0  0  0  0  0  0  0
   -5.8634    0.2080    0.5397 N   0  0  0  0  0  0  0  0  0  0  0  0
    0.1690   -1.0986    1.3614 C   0  0  1  0  0  0  0  0  0  0  0  0
    1.1831   -0.0653    1.9140 C   0  0  0  0  0  0  0  0  0  0  0  0
   -1.0195   -0.4696    0.6789 C   0  0  0  0  0  0  0  0  0  0  0  0
   -0.9828    0.8035    0.1521 C   0  0  0  0  0  0  0  0  0  0  0  0
    2.9153    1.5523    1.1476 C   0  0  0  0  0  0  0  0  0  0  0  0
   -2.3080   -1.0543    0.4741 C   0  0  0  0  0  0  0  0  0  0  0  0
    3.8244    1.5418   -0.0736 C   0  0  0  0  0  0  0  0  0  0  0  0
   -3.1679   -0.2049   -0.1928 C   0  0  0  0  0  0  0  0  0  0  0  0
    1.9832   -2.6285    0.9953 C   0  0  0  0  0  0  0  0  0  0  0  0
    4.1325    0.1345   -0.5713 C   0  0  0  0  0  0  0  0  0  0  0  0
    2.6451   -3.5866    0.0196 C   0  0  0  0  0  0  0  0  0  0  0  0
    5.3020   -1.0570   -2.2251 C   0  0  0  0  0  0  0  0  0  0  0  0
   -0.2050   -1.6889    2.2091 H   0  0  0  0  0  0  0  0  0  0  0  0
    2.0304   -0.5238    2.4290 H   0  0  0  0  0  0  0  0  0  0  0  0
    0.6891    0.5330    2.6937 H   0  0  0  0  0  0  0  0  0  0  0  0
    3.4255    1.0510    1.9777 H   0  0  0  0  0  0  0  0  0  0  0  0
    2.7402    2.5823    1.4779 H   0  0  0  0  0  0  0  0  0  0  0  0
    0.1586   -2.7130    0.1006 H   0  0  0  0  0  0  0  0  0  0  0  0
   -2.5879   -2.0485    0.7987 H   0  0  0  0  0  0  0  0  0  0  0  0
    3.3804    2.1226   -0.8909 H   0  0  0  0  0  0  0  0  0  0  0  0
    4.7648    2.0520    0.1693 H   0  0  0  0  0  0  0  0  0  0  0  0
    1.7088   -3.1792    1.9026 H   0  0  0  0  0  0  0  0  0  0  0  0
    2.7657   -1.9108    1.2503 H   0  0  0  0  0  0  0  0  0  0  0  0
    3.2115   -0.3749   -0.8738 H   0  0  0  0  0  0  0  0  0  0  0  0
    4.6208   -0.4469    0.2192 H   0  0  0  0  0  0  0  0  0  0  0  0
    1.9617   -4.3930   -0.2670 H   0  0  0  0  0  0  0  0  0  0  0  0
    2.9633   -3.0689   -0.8913 H   0  0  0  0  0  0  0  0  0  0  0  0
    3.5303   -4.0421    0.4754 H   0  0  0  0  0  0  0  0  0  0  0  0
   -5.8350    1.2160    0.7402 H   0  0  0  0  0  0  0  0  0  0  0  0
   -5.8970   -0.3620    1.3947 H   0  0  0  0  0  0  0  0  0  0  0  0
    5.9806   -0.9275   -3.0725 H   0  0  0  0  0  0  0  0  0  0  0  0
    4.3926   -1.5517   -2.5794 H   0  0  0  0  0  0  0  0  0  0  0  0
    5.7986   -1.6755   -1.4710 H   0  0  0  0  0  0  0  0  0  0  0  0
  1  4  2  0  0  0  0
  1  5  2  0  0  0  0
  1  9  1  0  0  0  0
  1 15  1  0  0  0  0
  2 15  1  0  0  0  0
  2 19  1  0  0  0  0
  3  7  2  0  0  0  0
  3  8  2  0  0  0  0
  3 11  1  0  0  0  0
  3 19  1  0  0  0  0
  6 21  1  0  0  0  0
  6 23  1  0  0  0  0
  9 13  1  0  0  0  0
  9 16  1  0  0  0  0
 10 12  1  0  0  0  0
 10 20  1  0  0  0  0
 10 29  1  0  0  0  0
 11 40  1  0  0  0  0
 11 41  1  0  0  0  0
 12 13  1  0  0  0  0
 12 14  1  0  0  0  0
 12 24  1  0  0  0  0
 13 25  1  0  0  0  0
 13 26  1  0  0  0  0
 14 15  2  0  0  0  0
 14 17  1  0  0  0  0
 16 18  1  0  0  0  0
 16 27  1  0  0  0  0
 16 28  1  0  0  0  0
 17 19  2  0  0  0  0
 17 30  1  0  0  0  0
 18 21  1  0  0  0  0
 18 31  1  0  0  0  0
 18 32  1  0  0  0  0
 20 22  1  0  0  0  0
 20 33  1  0  0  0  0
 20 34  1  0  0  0  0
 21 35  1  0  0  0  0
 21 36  1  0  0  0  0
 22 37  1  0  0  0  0
 22 38  1  0  0  0  0
 22 39  1  0  0  0  0
 23 42  1  0  0  0  0
 23 43  1  0  0  0  0
 23 44  1  0  0  0  0
M  END
> <PUBCHEM_COMPOUND_CID>
68844

> <PUBCHEM_CONFORMER_RMSD>
0.8

> <PUBCHEM_CONFORMER_DIVERSEORDER>
2
13
48
3
78
61
73
47
66
69
60
71
30
53
34
29
8
17
72
18
59
74
67
55
58
57
10
36
46
40
62
70
37
38
1
49
21
54
19
75
76
11
45
4
14
33
15
6
31
43
65
64
50
68
52
41
44
51
27
22
20
56
35
28
9
12
16
23
25
77
42
7
39
24
63
26
32
5

> <PUBCHEM_MMFF94_PARTIAL_CHARGES>
25
1 1.5
10 -0.9
11 -0.98
12 0.45
13 0.36
14 -0.18
15 -0.02
16 0.36
17 -0.15
19 -0.02
2 -0.08
20 0.27
21 0.28
23 0.28
29 0.36
3 1.5
30 0.15
4 -0.65
40 0.42
41 0.42
5 -0.65
6 -0.56
7 -0.65
8 -0.65
9 -0.85

> <PUBCHEM_EFFECTIVE_ROTOR_COUNT>
7.6

> <PUBCHEM_PHARMACOPHORE_FEATURES>
10
1 10 cation
1 10 donor
1 11 donor
1 4 acceptor
1 5 acceptor
1 6 acceptor
1 7 acceptor
1 8 acceptor
5 2 14 15 17 19 rings
6 1 9 12 13 14 15 rings

> <PUBCHEM_HEAVY_ATOM_COUNT>
23

> <PUBCHEM_ATOM_DEF_STEREO_COUNT>
1

> <PUBCHEM_ATOM_UDEF_STEREO_COUNT>
0

> <PUBCHEM_BOND_DEF_STEREO_COUNT>
0

> <PUBCHEM_BOND_UDEF_STEREO_COUNT>
0

> <PUBCHEM_ISOTOPIC_ATOM_COUNT>
0

> <PUBCHEM_COMPONENT_COUNT>
1

> <PUBCHEM_CACTVS_TAUTO_COUNT>
1

> <PUBCHEM_CONFORMER_ID>
00010CEC00000002

> <PUBCHEM_MMFF94_ENERGY>
32.4583

> <PUBCHEM_FEATURE_SELFOVERLAP>
50.817

> <PUBCHEM_SHAPE_FINGERPRINT>
10693767 8 18113624477586940006
10756046 5 18197782321652584500
11796584 16 16515677823738950037
14931854 50 18267566062127358342
15163728 17 16271918359366895302
15475509 35 14418140603505639878
15475509 8 18338503231719525965
15664445 248 18272368663986799212
15848702 151 17822287950984565829
1601671 61 18272381849356653257
16945 1 17559682741469627136
17492 54 17417802925258151492
19784866 140 18187361055965760121
20567600 234 11599715152010857839
20645477 70 18040998406283240956
21637258 2 16370725963212228286
22713019 99 18335976498253329840
23559900 14 18191583056722446560
23566358 2 18199763598788046013
2818148 4 18046341100628262368
2838139 119 16272209661276103092
2871803 45 18408881845884425732
3060560 45 18339092479704316522
3323516 105 18408885144260981894
3472631 163 15841257161249056550
3886686 26 6332554078811438980
4990 188 18334299721129592001
5104073 3 7708885557493234911
6669772 16 18188500064914662834
7364860 26 18338250305426738115

> <PUBCHEM_SHAPE_MULTIPOLES>
440.59
10.68
2.99
1.66
6.14
1.3
-0.41
2.06
-7
-2.47
0.47
-1.31
0.03
0.31

> <PUBCHEM_SHAPE_SELFOVERLAP>
857.65

> <PUBCHEM_SHAPE_VOLUME>
267

> <PUBCHEM_COORDINATE_TYPE>
2
5
10

$$$$

