8588
  -OEChem-06261202562D

 30 32  0     0  0  0  0  0  0999 V2000
    4.5274    0.9748    0.0000 N   0  0  0  0  0  0  0  0  0  0  0  0
    7.3991   -1.8858    0.0000 N   0  0  0  0  0  0  0  0  0  0  0  0
    5.3364    0.3870    0.0000 C   0  0  0  0  0  0  0  0  0  0  0  0
    3.7183    0.3870    0.0000 C   0  0  0  0  0  0  0  0  0  0  0  0
    5.0274   -0.5641    0.0000 C   0  0  0  0  0  0  0  0  0  0  0  0
    4.0274   -0.5641    0.0000 C   0  0  0  0  0  0  0  0  0  0  0  0
    4.5274    1.9748    0.0000 C   0  0  0  0  0  0  0  0  0  0  0  0
    5.7123   -1.3488    0.0000 C   0  0  0  0  0  0  0  0  0  0  0  0
    6.3518    0.6192    0.0000 C   0  0  0  0  0  0  0  0  0  0  0  0
    2.7029    0.6192    0.0000 C   0  0  0  0  0  0  0  0  0  0  0  0
    3.3424   -1.3488    0.0000 C   0  0  0  0  0  0  0  0  0  0  0  0
    6.7328   -1.1401    0.0000 C   0  0  0  0  0  0  0  0  0  0  0  0
    7.0547   -0.1495    0.0000 C   0  0  0  0  0  0  0  0  0  0  0  0
    3.6613    2.4747    0.0000 C   0  0  0  0  0  0  0  0  0  0  0  0
    2.0000   -0.1495    0.0000 C   0  0  0  0  0  0  0  0  0  0  0  0
    2.3219   -1.1401    0.0000 C   0  0  0  0  0  0  0  0  0  0  0  0
    5.1379    1.8671    0.0000 H   0  0  0  0  0  0  0  0  0  0  0  0
    4.7394    2.5574    0.0000 H   0  0  0  0  0  0  0  0  0  0  0  0
    5.5139   -1.9362    0.0000 H   0  0  0  0  0  0  0  0  0  0  0  0
    6.5365    1.2110    0.0000 H   0  0  0  0  0  0  0  0  0  0  0  0
    2.5182    1.2110    0.0000 H   0  0  0  0  0  0  0  0  0  0  0  0
    3.5408   -1.9362    0.0000 H   0  0  0  0  0  0  0  0  0  0  0  0
    7.6607   -0.0182    0.0000 H   0  0  0  0  0  0  0  0  0  0  0  0
    3.9713    3.0117    0.0000 H   0  0  0  0  0  0  0  0  0  0  0  0
    3.1244    2.7848    0.0000 H   0  0  0  0  0  0  0  0  0  0  0  0
    3.3513    1.9378    0.0000 H   0  0  0  0  0  0  0  0  0  0  0  0
    1.3940   -0.0182    0.0000 H   0  0  0  0  0  0  0  0  0  0  0  0
    1.9088   -1.6025    0.0000 H   0  0  0  0  0  0  0  0  0  0  0  0
    8.0060   -1.7593    0.0000 H   0  0  0  0  0  0  0  0  0  0  0  0
    7.2052   -2.4747    0.0000 H   0  0  0  0  0  0  0  0  0  0  0  0
  1  3  1  0  0  0  0
  1  4  1  0  0  0  0
  1  7  1  0  0  0  0
  2 12  1  0  0  0  0
  2 29  1  0  0  0  0
  2 30  1  0  0  0  0
  3  5  2  0  0  0  0
  3  9  1  0  0  0  0
  4  6  1  0  0  0  0
  4 10  2  0  0  0  0
  5  6  1  0  0  0  0
  5  8  1  0  0  0  0
  6 11  2  0  0  0  0
  7 14  1  0  0  0  0
  7 17  1  0  0  0  0
  7 18  1  0  0  0  0
  8 12  2  0  0  0  0
  8 19  1  0  0  0  0
  9 13  2  0  0  0  0
  9 20  1  0  0  0  0
 10 15  1  0  0  0  0
 10 21  1  0  0  0  0
 11 16  1  0  0  0  0
 11 22  1  0  0  0  0
 12 13  1  0  0  0  0
 13 23  1  0  0  0  0
 14 24  1  0  0  0  0
 14 25  1  0  0  0  0
 14 26  1  0  0  0  0
 15 16  2  0  0  0  0
 15 27  1  0  0  0  0
 16 28  1  0  0  0  0
M  END
> <PUBCHEM_COMPOUND_CID>
8588

> <PUBCHEM_COMPOUND_CANONICALIZED>
1

> <PUBCHEM_CACTVS_COMPLEXITY>
253

> <PUBCHEM_CACTVS_HBOND_ACCEPTOR>
1

> <PUBCHEM_CACTVS_HBOND_DONOR>
1

> <PUBCHEM_CACTVS_ROTATABLE_BOND>
1

> <PUBCHEM_CACTVS_SUBSKEYS>
AAADccBzAAAAAAAAAAAAAAAAAAAAAWAAAAAwYAAAAAAAAFgB/AAAHAAQAAAADAjBHgQywPNMEACgAyRiRACCgCAhAiAI2CA4ZJgIIOLAkZGEIAhgkADIyAcQgMAOgACAQAACAAAAAQCAAAQAAAAAAAAAAA==

> <PUBCHEM_IUPAC_OPENEYE_NAME>
9-ethylcarbazol-3-amine

> <PUBCHEM_IUPAC_CAS_NAME>
9-ethyl-3-carbazolamine

> <PUBCHEM_IUPAC_NAME>
9-ethylcarbazol-3-amine

> <PUBCHEM_IUPAC_SYSTEMATIC_NAME>
9-ethylcarbazol-3-amine

> <PUBCHEM_IUPAC_TRADITIONAL_NAME>
(9-ethylcarbazol-3-yl)amine

> <PUBCHEM_IUPAC_INCHI>
InChI=1S/C14H14N2/c1-2-16-13-6-4-3-5-11(13)12-9-10(15)7-8-14(12)16/h3-9H,2,15H2,1H3

> <PUBCHEM_IUPAC_INCHIKEY>
OXEUETBFKVCRNP-UHFFFAOYSA-N

> <PUBCHEM_XLOGP3_AA>
3

> <PUBCHEM_EXACT_MASS>
210.115698

> <PUBCHEM_MOLECULAR_FORMULA>
C14H14N2

> <PUBCHEM_MOLECULAR_WEIGHT>
210.27436

> <PUBCHEM_OPENEYE_CAN_SMILES>
CCN1C2=C(C=C(C=C2)N)C3=CC=CC=C31

> <PUBCHEM_OPENEYE_ISO_SMILES>
CCN1C2=C(C=C(C=C2)N)C3=CC=CC=C31

> <PUBCHEM_CACTVS_TPSA>
31

> <PUBCHEM_MONOISOTOPIC_WEIGHT>
210.115698

> <PUBCHEM_TOTAL_CHARGE>
0

> <PUBCHEM_HEAVY_ATOM_COUNT>
16

> <PUBCHEM_ATOM_DEF_STEREO_COUNT>
0

> <PUBCHEM_ATOM_UDEF_STEREO_COUNT>
0

> <PUBCHEM_BOND_DEF_STEREO_COUNT>
0

> <PUBCHEM_BOND_UDEF_STEREO_COUNT>
0

> <PUBCHEM_ISOTOPIC_ATOM_COUNT>
0

> <PUBCHEM_COMPONENT_COUNT>
1

> <PUBCHEM_CACTVS_TAUTO_COUNT>
1

> <PUBCHEM_COORDINATE_TYPE>
1
5
255

> <PUBCHEM_BONDANNOTATIONS>
1  3  8
1  4  8
10  15  8
11  16  8
12  13  8
15  16  8
3  5  8
3  9  8
4  10  8
4  6  8
5  6  8
5  8  8
6  11  8
8  12  8
9  13  8

$$$$

