92847
  -OEChem-07051213052D

 56 59  0     1  0  0  0  0  0999 V2000
    7.9821    3.0344    0.0000 O   0  0  0  0  0  0  0  0  0  0  0  0
    2.0000   -2.0175    0.0000 O   0  0  0  0  0  0  0  0  0  0  0  0
    7.3931    0.0348    0.0000 C   0  0  2  0  0  0  0  0  0  0  0  0
    7.3931    1.0348    0.0000 C   0  0  2  0  0  0  0  0  0  0  0  0
    6.5271   -0.4652    0.0000 C   0  0  1  0  0  0  0  0  0  0  0  0
    5.6610    0.0348    0.0000 C   0  0  1  0  0  0  0  0  0  0  0  0
    4.7510   -0.4720    0.0000 C   0  0  2  0  0  0  0  0  0  0  0  0
    6.5271    1.5348    0.0000 C   0  0  0  0  0  0  0  0  0  0  0  0
    8.3393    1.3396    0.0000 C   0  0  2  0  0  0  0  0  0  0  0  0
    5.6610    1.0348    0.0000 C   0  0  0  0  0  0  0  0  0  0  0  0
    8.3393   -0.2699    0.0000 C   0  0  0  0  0  0  0  0  0  0  0  0
    6.5431   -1.5067    0.0000 C   0  0  0  0  0  0  0  0  0  0  0  0
    8.9229    0.5349    0.0000 C   0  0  0  0  0  0  0  0  0  0  0  0
    5.6451   -2.0344    0.0000 C   0  0  1  0  0  0  0  0  0  0  0  0
    4.7430   -1.5136    0.0000 C   0  0  0  0  0  0  0  0  0  0  0  0
    7.3931    2.0348    0.0000 C   0  0  0  0  0  0  0  0  0  0  0  0
    3.8242    0.0921    0.0000 C   0  0  0  0  0  0  0  0  0  0  0  0
    4.7587    0.5280    0.0000 C   0  0  0  0  0  0  0  0  0  0  0  0
    8.6500    2.2901    0.0000 C   0  0  0  0  0  0  0  0  0  0  0  0
    2.8763   -0.4359    0.0000 C   0  0  0  0  0  0  0  0  0  0  0  0
    3.8076   -2.0633    0.0000 C   0  0  0  0  0  0  0  0  0  0  0  0
    5.6489   -3.0344    0.0000 C   0  0  0  0  0  0  0  0  0  0  0  0
    2.8680   -1.5208    0.0000 C   0  0  0  0  0  0  0  0  0  0  0  0
    9.6285    2.4963    0.0000 C   0  0  0  0  0  0  0  0  0  0  0  0
    7.4830   -0.8104    0.0000 H   0  0  0  0  0  0  0  0  0  0  0  0
    7.2664   -0.8845    0.0000 H   0  0  0  0  0  0  0  0  0  0  0  0
    6.3972    0.4598    0.0000 H   0  0  0  0  0  0  0  0  0  0  0  0
    6.9256    2.0098    0.0000 H   0  0  0  0  0  0  0  0  0  0  0  0
    6.1285    2.0098    0.0000 H   0  0  0  0  0  0  0  0  0  0  0  0
    7.9018    1.7789    0.0000 H   0  0  0  0  0  0  0  0  0  0  0  0
    5.4490    1.6175    0.0000 H   0  0  0  0  0  0  0  0  0  0  0  0
    5.0504    0.9272    0.0000 H   0  0  0  0  0  0  0  0  0  0  0  0
    8.0883   -0.8368    0.0000 H   0  0  0  0  0  0  0  0  0  0  0  0
    8.8767   -0.5791    0.0000 H   0  0  0  0  0  0  0  0  0  0  0  0
    6.7612   -2.0871    0.0000 H   0  0  0  0  0  0  0  0  0  0  0  0
    7.1523   -1.3912    0.0000 H   0  0  0  0  0  0  0  0  0  0  0  0
    9.3838    0.1201    0.0000 H   0  0  0  0  0  0  0  0  0  0  0  0
    9.3838    0.9496    0.0000 H   0  0  0  0  0  0  0  0  0  0  0  0
    5.1087   -2.3454    0.0000 H   0  0  0  0  0  0  0  0  0  0  0  0
    8.0131    2.0348    0.0000 H   0  0  0  0  0  0  0  0  0  0  0  0
    7.3931    2.6548    0.0000 H   0  0  0  0  0  0  0  0  0  0  0  0
    6.7731    2.0348    0.0000 H   0  0  0  0  0  0  0  0  0  0  0  0
    4.2324    0.5587    0.0000 H   0  0  0  0  0  0  0  0  0  0  0  0
    3.4343    0.5741    0.0000 H   0  0  0  0  0  0  0  0  0  0  0  0
    5.3787    0.5232    0.0000 H   0  0  0  0  0  0  0  0  0  0  0  0
    4.7635    1.1480    0.0000 H   0  0  0  0  0  0  0  0  0  0  0  0
    4.1388    0.5328    0.0000 H   0  0  0  0  0  0  0  0  0  0  0  0
    2.6718    0.1494    0.0000 H   0  0  0  0  0  0  0  0  0  0  0  0
    2.2647   -0.5372    0.0000 H   0  0  0  0  0  0  0  0  0  0  0  0
    3.8100   -2.6833    0.0000 H   0  0  0  0  0  0  0  0  0  0  0  0
    5.0289   -3.0368    0.0000 H   0  0  0  0  0  0  0  0  0  0  0  0
    5.6513   -3.6544    0.0000 H   0  0  0  0  0  0  0  0  0  0  0  0
    6.2689   -3.0320    0.0000 H   0  0  0  0  0  0  0  0  0  0  0  0
    9.7563    1.8896    0.0000 H   0  0  0  0  0  0  0  0  0  0  0  0
   10.2351    2.6242    0.0000 H   0  0  0  0  0  0  0  0  0  0  0  0
    9.5006    3.1030    0.0000 H   0  0  0  0  0  0  0  0  0  0  0  0
  1 19  2  0  0  0  0
  2 23  2  0  0  0  0
  3  4  1  0  0  0  0
  3  5  1  0  0  0  0
  3 11  1  0  0  0  0
  3 25  1  6  0  0  0
  4  8  1  0  0  0  0
  4  9  1  0  0  0  0
  4 16  1  1  0  0  0
  5  6  1  0  0  0  0
  5 12  1  0  0  0  0
  5 26  1  1  0  0  0
  6  7  1  0  0  0  0
  6 10  1  0  0  0  0
  6 27  1  6  0  0  0
  7 15  1  0  0  0  0
  7 17  1  0  0  0  0
  7 18  1  1  0  0  0
  8 10  1  0  0  0  0
  8 28  1  0  0  0  0
  8 29  1  0  0  0  0
  9 13  1  0  0  0  0
  9 19  1  1  0  0  0
  9 30  1  0  0  0  0
 10 31  1  0  0  0  0
 10 32  1  0  0  0  0
 11 13  1  0  0  0  0
 11 33  1  0  0  0  0
 11 34  1  0  0  0  0
 12 14  1  0  0  0  0
 12 35  1  0  0  0  0
 12 36  1  0  0  0  0
 13 37  1  0  0  0  0
 13 38  1  0  0  0  0
 14 15  1  0  0  0  0
 14 22  1  6  0  0  0
 14 39  1  0  0  0  0
 15 21  2  0  0  0  0
 16 40  1  0  0  0  0
 16 41  1  0  0  0  0
 16 42  1  0  0  0  0
 17 20  1  0  0  0  0
 17 43  1  0  0  0  0
 17 44  1  0  0  0  0
 18 45  1  0  0  0  0
 18 46  1  0  0  0  0
 18 47  1  0  0  0  0
 19 24  1  0  0  0  0
 20 23  1  0  0  0  0
 20 48  1  0  0  0  0
 20 49  1  0  0  0  0
 21 23  1  0  0  0  0
 21 50  1  0  0  0  0
 22 51  1  0  0  0  0
 22 52  1  0  0  0  0
 22 53  1  0  0  0  0
 24 54  1  0  0  0  0
 24 55  1  0  0  0  0
 24 56  1  0  0  0  0
M  END
> <PUBCHEM_COMPOUND_CID>
92847

> <PUBCHEM_COMPOUND_CANONICALIZED>
1

> <PUBCHEM_CACTVS_COMPLEXITY>
618

> <PUBCHEM_CACTVS_HBOND_ACCEPTOR>
2

> <PUBCHEM_CACTVS_HBOND_DONOR>
0

> <PUBCHEM_CACTVS_ROTATABLE_BOND>
1

> <PUBCHEM_CACTVS_SUBSKEYS>
AAADcfB4MAAAAAAAAAAAAAAAAAAAAYAAAAAwYIAAAAAAAGDAAAAAGgAAAAAADwSAgAACAAAAAACIAqBSAAAAAAAgAAAACAEAAEgAABIAAQAAAAAAgAAIAQMIiMCPgAAAAAAAAACAAAQAACAAAQAACAAAAA==

> <PUBCHEM_IUPAC_OPENEYE_NAME>
(6S,8S,9S,10R,13S,14S,17S)-17-acetyl-6,10,13-trimethyl-1,2,6,7,8,9,11,12,14,15,16,17-dodecahydrocyclopenta[a]phenanthren-3-one

> <PUBCHEM_IUPAC_CAS_NAME>
(6S,8S,9S,10R,13S,14S,17S)-17-acetyl-6,10,13-trimethyl-1,2,6,7,8,9,11,12,14,15,16,17-dodecahydrocyclopenta[a]phenanthren-3-one

> <PUBCHEM_IUPAC_NAME>
(6S,8S,9S,10R,13S,14S,17S)-17-acetyl-6,10,13-trimethyl-1,2,6,7,8,9,11,12,14,15,16,17-dodecahydrocyclopenta[a]phenanthren-3-one

> <PUBCHEM_IUPAC_SYSTEMATIC_NAME>
(6S,8S,9S,10R,13S,14S,17S)-17-ethanoyl-6,10,13-trimethyl-1,2,6,7,8,9,11,12,14,15,16,17-dodecahydrocyclopenta[a]phenanthren-3-one

> <PUBCHEM_IUPAC_TRADITIONAL_NAME>
(6S,8S,9S,10R,13S,14S,17S)-17-acetyl-6,10,13-trimethyl-1,2,6,7,8,9,11,12,14,15,16,17-dodecahydrocyclopenta[a]phenanthren-3-one

> <PUBCHEM_IUPAC_INCHI>
InChI=1S/C22H32O2/c1-13-11-16-18-6-5-17(14(2)23)21(18,3)10-8-19(16)22(4)9-7-15(24)12-20(13)22/h12-13,16-19H,5-11H2,1-4H3/t13-,16-,17+,18-,19-,21+,22+/m0/s1

> <PUBCHEM_IUPAC_INCHIKEY>
GNFABWAPJFOZSF-KTORGGLSSA-N

> <PUBCHEM_XLOGP3>
4.2

> <PUBCHEM_EXACT_MASS>
328.24023

> <PUBCHEM_MOLECULAR_FORMULA>
C22H32O2

> <PUBCHEM_MOLECULAR_WEIGHT>
328.48828

> <PUBCHEM_OPENEYE_CAN_SMILES>
CC1CC2C3CCC(C3(CCC2C4(C1=CC(=O)CC4)C)C)C(=O)C

> <PUBCHEM_OPENEYE_ISO_SMILES>
C[C@H]1C[C@H]2[C@@H]3CC[C@@H]([C@]3(CC[C@@H]2[C@@]4(C1=CC(=O)CC4)C)C)C(=O)C

> <PUBCHEM_CACTVS_TPSA>
34.1

> <PUBCHEM_MONOISOTOPIC_WEIGHT>
328.24023

> <PUBCHEM_TOTAL_CHARGE>
0

> <PUBCHEM_HEAVY_ATOM_COUNT>
24

> <PUBCHEM_ATOM_DEF_STEREO_COUNT>
7

> <PUBCHEM_ATOM_UDEF_STEREO_COUNT>
0

> <PUBCHEM_BOND_DEF_STEREO_COUNT>
0

> <PUBCHEM_BOND_UDEF_STEREO_COUNT>
0

> <PUBCHEM_ISOTOPIC_ATOM_COUNT>
0

> <PUBCHEM_COMPONENT_COUNT>
1

> <PUBCHEM_CACTVS_TAUTO_COUNT>
15

> <PUBCHEM_COORDINATE_TYPE>
1
5
255

> <PUBCHEM_BONDANNOTATIONS>
14  22  6
3  25  6
4  16  5
5  26  5
6  27  6
7  18  5
9  19  5

$$$$

