24820753
  -OEChem-07051212522D

 88 94  0     1  0  0  0  0  0999 V2000
    9.2314    1.8032    0.0000 O   0  0  0  0  0  0  0  0  0  0  0  0
   11.6793   -2.1665    0.0000 O   0  0  0  0  0  0  0  0  0  0  0  0
    8.9883   -2.3553    0.0000 O   0  0  0  0  0  0  0  0  0  0  0  0
   10.4814    1.9084    0.0000 O   0  0  0  0  0  0  0  0  0  0  0  0
    6.3187    1.3010    0.0000 O   0  0  0  0  0  0  0  0  0  0  0  0
    8.2515    3.5467    0.0000 O   0  0  0  0  0  0  0  0  0  0  0  0
    6.7416    2.6981    0.0000 O   0  0  0  0  0  0  0  0  0  0  0  0
    9.0667   -4.0872    0.0000 O   0  0  0  0  0  0  0  0  0  0  0  0
    5.9695   -2.0124    0.0000 O   0  0  0  0  0  0  0  0  0  0  0  0
    4.8154    0.4408    0.0000 O   0  0  0  0  0  0  0  0  0  0  0  0
    5.3254    3.0369    0.0000 O   0  0  0  0  0  0  0  0  0  0  0  0
    3.3254    3.0446    0.0000 O   0  0  0  0  0  0  0  0  0  0  0  0
    2.3187    1.3164    0.0000 O   0  0  0  0  0  0  0  0  0  0  0  0
    2.3121   -0.4156    0.0000 O   0  0  0  0  0  0  0  0  0  0  0  0
    8.7214    0.9430    0.0000 C   0  0  1  0  0  0  0  0  0  0  0  0
    9.6154    0.4084    0.0000 C   0  0  1  0  0  0  0  0  0  0  0  0
    9.6154   -0.5916    0.0000 C   0  0  1  0  0  0  0  0  0  0  0  0
   10.4814   -1.0916    0.0000 C   0  0  2  0  0  0  0  0  0  0  0  0
    7.8154    0.4292    0.0000 C   0  0  1  0  0  0  0  0  0  0  0  0
   11.3474   -0.5916    0.0000 C   0  0  1  0  0  0  0  0  0  0  0  0
    8.2315    1.8148    0.0000 C   0  0  1  0  0  0  0  0  0  0  0  0
    8.7214   -1.1263    0.0000 C   0  0  0  0  0  0  0  0  0  0  0  0
    7.8154   -0.6124    0.0000 C   0  0  0  0  0  0  0  0  0  0  0  0
   10.6906   -2.0634    0.0000 C   0  0  2  0  0  0  0  0  0  0  0  0
   10.4814    0.9084    0.0000 C   0  0  0  0  0  0  0  0  0  0  0  0
   11.3474    0.4084    0.0000 C   0  0  0  0  0  0  0  0  0  0  0  0
   12.0844   -1.2587    0.0000 C   0  0  0  0  0  0  0  0  0  0  0  0
    9.7890    1.3932    0.0000 C   0  0  0  0  0  0  0  0  0  0  0  0
    9.4659   -1.2939    0.0000 C   0  0  0  0  0  0  0  0  0  0  0  0
    6.8154    0.4331    0.0000 C   0  0  2  0  0  0  0  0  0  0  0  0
    7.3187    1.2972    0.0000 C   0  0  0  0  0  0  0  0  0  0  0  0
   10.3884   -3.0538    0.0000 C   0  0  0  0  0  0  0  0  0  0  0  0
    7.7415    2.6866    0.0000 C   0  0  0  0  0  0  0  0  0  0  0  0
   12.9973   -1.6670    0.0000 C   0  0  0  0  0  0  0  0  0  0  0  0
   12.7549   -0.5167    0.0000 C   0  0  0  0  0  0  0  0  0  0  0  0
    9.5305   -3.2013    0.0000 C   0  0  0  0  0  0  0  0  0  0  0  0
    6.3120   -0.4310    0.0000 C   0  0  0  0  0  0  0  0  0  0  0  0
    5.3187    1.3049    0.0000 C   0  0  2  0  0  0  0  0  0  0  0  0
    5.3171   -0.5317    0.0000 C   0  0  0  0  0  0  0  0  0  0  0  0
    6.7152   -1.3461    0.0000 C   0  0  0  0  0  0  0  0  0  0  0  0
    4.8221    2.1728    0.0000 C   0  0  1  0  0  0  0  0  0  0  0  0
    5.1054   -1.5091    0.0000 C   0  0  0  0  0  0  0  0  0  0  0  0
    3.8221    2.1767    0.0000 C   0  0  2  0  0  0  0  0  0  0  0  0
    3.8154    0.4446    0.0000 C   0  0  1  0  0  0  0  0  0  0  0  0
    3.3187    1.3126    0.0000 C   0  0  1  0  0  0  0  0  0  0  0  0
    3.3121   -0.4195    0.0000 C   0  0  0  0  0  0  0  0  0  0  0  0
    9.6219   -1.4416    0.0000 H   0  0  0  0  0  0  0  0  0  0  0  0
   12.1244   -0.2469    0.0000 H   0  0  0  0  0  0  0  0  0  0  0  0
    8.5477    2.3481    0.0000 H   0  0  0  0  0  0  0  0  0  0  0  0
    8.3278   -1.6053    0.0000 H   0  0  0  0  0  0  0  0  0  0  0  0
    9.1260   -1.5961    0.0000 H   0  0  0  0  0  0  0  0  0  0  0  0
    7.2045   -0.5063    0.0000 H   0  0  0  0  0  0  0  0  0  0  0  0
    7.6063   -1.1961    0.0000 H   0  0  0  0  0  0  0  0  0  0  0  0
   11.1603   -2.7719    0.0000 H   0  0  0  0  0  0  0  0  0  0  0  0
   11.9580    0.3007    0.0000 H   0  0  0  0  0  0  0  0  0  0  0  0
   11.5595    0.9910    0.0000 H   0  0  0  0  0  0  0  0  0  0  0  0
   10.3996    1.2855    0.0000 H   0  0  0  0  0  0  0  0  0  0  0  0
    9.8967    2.0038    0.0000 H   0  0  0  0  0  0  0  0  0  0  0  0
    9.1784    1.5009    0.0000 H   0  0  0  0  0  0  0  0  0  0  0  0
    9.4720   -0.6739    0.0000 H   0  0  0  0  0  0  0  0  0  0  0  0
    8.8603   -1.1608    0.0000 H   0  0  0  0  0  0  0  0  0  0  0  0
    7.1274    0.9688    0.0000 H   0  0  0  0  0  0  0  0  0  0  0  0
    7.8568    1.6051    0.0000 H   0  0  0  0  0  0  0  0  0  0  0  0
    7.0108    1.8353    0.0000 H   0  0  0  0  0  0  0  0  0  0  0  0
    6.7806    0.9892    0.0000 H   0  0  0  0  0  0  0  0  0  0  0  0
   10.3976   -3.6738    0.0000 H   0  0  0  0  0  0  0  0  0  0  0  0
   11.0023   -3.1408    0.0000 H   0  0  0  0  0  0  0  0  0  0  0  0
   12.7441   -2.2330    0.0000 H   0  0  0  0  0  0  0  0  0  0  0  0
   13.5632   -1.9202    0.0000 H   0  0  0  0  0  0  0  0  0  0  0  0
   13.2504   -1.1010    0.0000 H   0  0  0  0  0  0  0  0  0  0  0  0
   13.2149   -0.9324    0.0000 H   0  0  0  0  0  0  0  0  0  0  0  0
   13.1705   -0.0567    0.0000 H   0  0  0  0  0  0  0  0  0  0  0  0
   12.2948   -0.1011    0.0000 H   0  0  0  0  0  0  0  0  0  0  0  0
    5.6266    0.7667    0.0000 H   0  0  0  0  0  0  0  0  0  0  0  0
    7.9477    4.0872    0.0000 H   0  0  0  0  0  0  0  0  0  0  0  0
    4.9040   -0.0694    0.0000 H   0  0  0  0  0  0  0  0  0  0  0  0
    7.3212   -1.4774    0.0000 H   0  0  0  0  0  0  0  0  0  0  0  0
    4.5141    2.7109    0.0000 H   0  0  0  0  0  0  0  0  0  0  0  0
    4.5381   -1.7591    0.0000 H   0  0  0  0  0  0  0  0  0  0  0  0
    4.1341    2.7124    0.0000 H   0  0  0  0  0  0  0  0  0  0  0  0
    4.1233   -0.0935    0.0000 H   0  0  0  0  0  0  0  0  0  0  0  0
    3.0108    1.8507    0.0000 H   0  0  0  0  0  0  0  0  0  0  0  0
    5.0175    3.5750    0.0000 H   0  0  0  0  0  0  0  0  0  0  0  0
    3.2020   -1.0296    0.0000 H   0  0  0  0  0  0  0  0  0  0  0  0
    3.8938   -0.6338    0.0000 H   0  0  0  0  0  0  0  0  0  0  0  0
    2.7054    3.0470    0.0000 H   0  0  0  0  0  0  0  0  0  0  0  0
    2.0108    1.8546    0.0000 H   0  0  0  0  0  0  0  0  0  0  0  0
    2.0000   -0.9514    0.0000 H   0  0  0  0  0  0  0  0  0  0  0  0
 15  1  1  1  0  0  0
  1 21  1  0  0  0  0
  2 24  1  0  0  0  0
  2 27  1  0  0  0  0
  3 29  1  0  0  0  0
  3 36  1  0  0  0  0
  4 25  2  0  0  0  0
 30  5  1  6  0  0  0
 38  5  1  6  0  0  0
  6 33  1  0  0  0  0
  6 75  1  0  0  0  0
  7 33  2  0  0  0  0
  8 36  2  0  0  0  0
  9 40  1  0  0  0  0
  9 42  1  0  0  0  0
 10 38  1  0  0  0  0
 10 44  1  0  0  0  0
 41 11  1  1  0  0  0
 11 83  1  0  0  0  0
 43 12  1  6  0  0  0
 12 86  1  0  0  0  0
 45 13  1  1  0  0  0
 13 87  1  0  0  0  0
 14 46  1  0  0  0  0
 14 88  1  0  0  0  0
 15 16  1  0  0  0  0
 15 19  1  0  0  0  0
 15 21  1  0  0  0  0
 16 17  1  0  0  0  0
 16 25  1  0  0  0  0
 16 28  1  1  0  0  0
 17 18  1  0  0  0  0
 17 22  1  0  0  0  0
 17 47  1  6  0  0  0
 18 20  1  0  0  0  0
 18 24  1  0  0  0  0
 18 29  1  1  0  0  0
 19 23  1  0  0  0  0
 19 30  1  0  0  0  0
 19 31  1  6  0  0  0
 20 26  1  0  0  0  0
 20 27  1  0  0  0  0
 20 48  1  6  0  0  0
 21 33  1  1  0  0  0
 21 49  1  0  0  0  0
 22 23  1  0  0  0  0
 22 50  1  0  0  0  0
 22 51  1  0  0  0  0
 23 52  1  0  0  0  0
 23 53  1  0  0  0  0
 24 32  1  0  0  0  0
 24 54  1  6  0  0  0
 25 26  1  0  0  0  0
 26 55  1  0  0  0  0
 26 56  1  0  0  0  0
 27 34  1  0  0  0  0
 27 35  1  0  0  0  0
 28 57  1  0  0  0  0
 28 58  1  0  0  0  0
 28 59  1  0  0  0  0
 29 60  1  0  0  0  0
 29 61  1  0  0  0  0
 30 37  1  0  0  0  0
 30 62  1  0  0  0  0
 31 63  1  0  0  0  0
 31 64  1  0  0  0  0
 31 65  1  0  0  0  0
 32 36  1  0  0  0  0
 32 66  1  0  0  0  0
 32 67  1  0  0  0  0
 34 68  1  0  0  0  0
 34 69  1  0  0  0  0
 34 70  1  0  0  0  0
 35 71  1  0  0  0  0
 35 72  1  0  0  0  0
 35 73  1  0  0  0  0
 37 39  1  0  0  0  0
 37 40  2  0  0  0  0
 38 41  1  0  0  0  0
 38 74  1  0  0  0  0
 39 42  2  0  0  0  0
 39 76  1  0  0  0  0
 40 77  1  0  0  0  0
 41 43  1  0  0  0  0
 41 78  1  0  0  0  0
 42 79  1  0  0  0  0
 43 45  1  0  0  0  0
 43 80  1  0  0  0  0
 44 45  1  0  0  0  0
 44 46  1  6  0  0  0
 44 81  1  0  0  0  0
 45 82  1  0  0  0  0
 46 84  1  0  0  0  0
 46 85  1  0  0  0  0
M  END
> <PUBCHEM_COMPOUND_CID>
24820753

> <PUBCHEM_COMPOUND_CANONICALIZED>
1

> <PUBCHEM_CACTVS_COMPLEXITY>
1290

> <PUBCHEM_CACTVS_HBOND_ACCEPTOR>
14

> <PUBCHEM_CACTVS_HBOND_DONOR>
5

> <PUBCHEM_CACTVS_ROTATABLE_BOND>
6

> <PUBCHEM_CACTVS_SUBSKEYS>
AAADcfB8PAAAAAAAAAAAAAAAEgAAASJAAAA0aIEAAAAAAEjBgAAAGgAACAAAD1SwmAMyDIAABkCIAqjSiAICCAAkIAAIiAFGCMgdNxYENQ6iWSCl4BEPKYPK7vzvgAAAAAAAAACAAAYAADAAAAAAAAAAAA==

> <PUBCHEM_IUPAC_INCHI>
InChI=1S/C32H42O14/c1-28(2)17-9-18(34)30(4)16(31(17)13-42-20(35)10-19(31)45-28)5-7-29(3,32(30)25(46-32)26(39)40)24(14-6-8-41-12-14)44-27-23(38)22(37)21(36)15(11-33)43-27/h6,8,12,15-17,19,21-25,27,33,36-38H,5,7,9-11,13H2,1-4H3,(H,39,40)/t15-,16+,17+,19+,21-,22+,23-,24+,25-,27+,29+,30+,31-,32-/m1/s1

> <PUBCHEM_IUPAC_INCHIKEY>
FYIKIBQJAJRKQM-WNCNYDOCSA-N

> <PUBCHEM_XLOGP3_AA>
-0.6

> <PUBCHEM_EXACT_MASS>
650.257456

> <PUBCHEM_MOLECULAR_FORMULA>
C32H42O14

> <PUBCHEM_MOLECULAR_WEIGHT>
650.66748

> <PUBCHEM_OPENEYE_CAN_SMILES>
CC1(C2CC(=O)C3(C(C24COC(=O)CC4O1)CCC(C35C(O5)C(=O)O)(C)C(C6=COC=C6)OC7C(C(C(C(O7)CO)O)O)O)C)C

> <PUBCHEM_OPENEYE_ISO_SMILES>
C[C@]1(CC[C@H]2[C@]([C@@]13[C@H](O3)C(=O)O)(C(=O)C[C@@H]4[C@@]25COC(=O)C[C@@H]5OC4(C)C)C)[C@H](C6=COC=C6)O[C@H]7[C@@H]([C@H]([C@@H]([C@H](O7)CO)O)O)O

> <PUBCHEM_CACTVS_TPSA>
215

> <PUBCHEM_MONOISOTOPIC_WEIGHT>
650.257456

> <PUBCHEM_TOTAL_CHARGE>
0

> <PUBCHEM_HEAVY_ATOM_COUNT>
46

> <PUBCHEM_ATOM_DEF_STEREO_COUNT>
14

> <PUBCHEM_ATOM_UDEF_STEREO_COUNT>
0

> <PUBCHEM_BOND_DEF_STEREO_COUNT>
0

> <PUBCHEM_BOND_UDEF_STEREO_COUNT>
0

> <PUBCHEM_ISOTOPIC_ATOM_COUNT>
0

> <PUBCHEM_COMPONENT_COUNT>
1

> <PUBCHEM_CACTVS_TAUTO_COUNT>
4

> <PUBCHEM_COORDINATE_TYPE>
1
5
255

> <PUBCHEM_BONDANNOTATIONS>
15  1  5
41  11  5
43  12  6
45  13  5
16  28  5
17  47  6
18  29  5
19  31  6
20  48  6
21  33  5
24  54  6
37  39  8
37  40  8
39  42  8
44  46  6
30  5  6
38  5  6
9  40  8
9  42  8

$$$$

