114709
  -OEChem-07051212533D

 33 35  0     1  0  0  0  0  0999 V2000
    0.5539    0.6539   -2.4934 O   0  0  0  0  0  0  0  0  0  0  0  0
   -1.0820   -2.9016   -0.8579 O   0  0  0  0  0  0  0  0  0  0  0  0
   -0.0395   -0.9159   -0.1383 N   0  0  0  0  0  0  0  0  0  0  0  0
    1.1786   -2.8293   -0.8324 N   0  0  0  0  0  0  0  0  0  0  0  0
    0.7764    1.5676   -1.4229 C   0  0  1  0  0  0  0  0  0  0  0  0
   -0.5381    2.1049   -0.8695 C   0  0  0  0  0  0  0  0  0  0  0  0
    1.5861    0.9282   -0.3323 C   0  0  0  0  0  0  0  0  0  0  0  0
   -1.4741    1.1641   -0.1350 C   0  0  0  0  0  0  0  0  0  0  0  0
    1.1643   -0.2643    0.2714 C   0  0  0  0  0  0  0  0  0  0  0  0
   -1.2613   -0.2037    0.1486 C   0  0  0  0  0  0  0  0  0  0  0  0
    2.7818    1.5279    0.0944 C   0  0  0  0  0  0  0  0  0  0  0  0
   -2.7042    1.7550    0.2440 C   0  0  0  0  0  0  0  0  0  0  0  0
    1.9472   -0.8421    1.2866 C   0  0  0  0  0  0  0  0  0  0  0  0
   -2.2983   -0.9153    0.7961 C   0  0  0  0  0  0  0  0  0  0  0  0
   -0.0616   -2.2590   -0.5929 C   0  0  0  0  0  0  0  0  0  0  0  0
    3.5504    0.9483    1.1035 C   0  0  0  0  0  0  0  0  0  0  0  0
   -3.7083    1.0291    0.8772 C   0  0  0  0  0  0  0  0  0  0  0  0
    3.1331   -0.2367    1.6997 C   0  0  0  0  0  0  0  0  0  0  0  0
   -3.5044   -0.3111    1.1529 C   0  0  0  0  0  0  0  0  0  0  0  0
    1.3376    2.4049   -1.8557 H   0  0  0  0  0  0  0  0  0  0  0  0
   -1.1031    2.5281   -1.7116 H   0  0  0  0  0  0  0  0  0  0  0  0
   -0.3087    2.9307   -0.1812 H   0  0  0  0  0  0  0  0  0  0  0  0
    3.1243    2.4549   -0.3592 H   0  0  0  0  0  0  0  0  0  0  0  0
   -2.8868    2.8070    0.0294 H   0  0  0  0  0  0  0  0  0  0  0  0
    1.6309   -1.7607    1.7756 H   0  0  0  0  0  0  0  0  0  0  0  0
   -2.1667   -1.9561    1.0846 H   0  0  0  0  0  0  0  0  0  0  0  0
    4.4731    1.4231    1.4237 H   0  0  0  0  0  0  0  0  0  0  0  0
    0.0217    1.1121   -3.1659 H   0  0  0  0  0  0  0  0  0  0  0  0
   -4.6408    1.5112    1.1530 H   0  0  0  0  0  0  0  0  0  0  0  0
    3.7279   -0.6886    2.4879 H   0  0  0  0  0  0  0  0  0  0  0  0
   -4.2731   -0.8886    1.6577 H   0  0  0  0  0  0  0  0  0  0  0  0
    1.2431   -3.7836   -1.1717 H   0  0  0  0  0  0  0  0  0  0  0  0
    2.0548   -2.3249   -0.7694 H   0  0  0  0  0  0  0  0  0  0  0  0
  1  5  1  0  0  0  0
  1 28  1  0  0  0  0
  2 15  2  0  0  0  0
  3  9  1  0  0  0  0
  3 10  1  0  0  0  0
  3 15  1  0  0  0  0
  4 15  1  0  0  0  0
  4 32  1  0  0  0  0
  4 33  1  0  0  0  0
  5  6  1  0  0  0  0
  5  7  1  0  0  0  0
  5 20  1  0  0  0  0
  6  8  1  0  0  0  0
  6 21  1  0  0  0  0
  6 22  1  0  0  0  0
  7  9  1  0  0  0  0
  7 11  2  0  0  0  0
  8 10  1  0  0  0  0
  8 12  2  0  0  0  0
  9 13  2  0  0  0  0
 10 14  2  0  0  0  0
 11 16  1  0  0  0  0
 11 23  1  0  0  0  0
 12 17  1  0  0  0  0
 12 24  1  0  0  0  0
 13 18  1  0  0  0  0
 13 25  1  0  0  0  0
 14 19  1  0  0  0  0
 14 26  1  0  0  0  0
 16 18  2  0  0  0  0
 16 27  1  0  0  0  0
 17 19  2  0  0  0  0
 17 29  1  0  0  0  0
 18 30  1  0  0  0  0
 19 31  1  0  0  0  0
M  END
> <PUBCHEM_COMPOUND_CID>
114709

> <PUBCHEM_CONFORMER_RMSD>
0.6

> <PUBCHEM_CONFORMER_DIVERSEORDER>
1
14
2
11
8
13
15
10
9
4
5
6
12
3
7

> <PUBCHEM_MMFF94_PARTIAL_CHARGES>
30
1 -0.68
10 0.12
11 -0.15
12 -0.15
13 -0.15
14 -0.15
15 0.69
16 -0.15
17 -0.15
18 -0.15
19 -0.15
2 -0.57
23 0.15
24 0.15
25 0.15
26 0.15
27 0.15
28 0.4
29 0.15
3 -0.29
30 0.15
31 0.15
32 0.37
33 0.37
4 -0.8
5 0.42
6 0.14
7 -0.14
8 -0.14
9 0.12

> <PUBCHEM_EFFECTIVE_ROTOR_COUNT>
1.6

> <PUBCHEM_PHARMACOPHORE_FEATURES>
7
1 1 acceptor
1 1 donor
1 2 acceptor
1 4 donor
6 7 9 11 13 16 18 rings
6 8 10 12 14 17 19 rings
7 3 5 6 7 8 9 10 rings

> <PUBCHEM_HEAVY_ATOM_COUNT>
19

> <PUBCHEM_ATOM_DEF_STEREO_COUNT>
0

> <PUBCHEM_ATOM_UDEF_STEREO_COUNT>
1

> <PUBCHEM_BOND_DEF_STEREO_COUNT>
0

> <PUBCHEM_BOND_UDEF_STEREO_COUNT>
0

> <PUBCHEM_ISOTOPIC_ATOM_COUNT>
0

> <PUBCHEM_COMPONENT_COUNT>
1

> <PUBCHEM_CACTVS_TAUTO_COUNT>
2

> <PUBCHEM_CONFORMER_ID>
0001C01500000001

> <PUBCHEM_MMFF94_ENERGY>
95.9002

> <PUBCHEM_FEATURE_SELFOVERLAP>
35.542

> <PUBCHEM_SHAPE_FINGERPRINT>
10863032 1 15068623772820335501
11086676 242 18060144245191800192
12251169 10 18201441397497146793
12382932 28 18343017826383819169
12400797 245 17775569744938387728
12633257 1 17840317940225339616
12696612 119 17989198252866562465
13027679 85 17253983672378145716
13140716 1 18195802088732103995
13172582 1 18343304764284233728
14178342 30 18337092554369606025
14617773 55 17906468631708224908
14817 1 8422725051420378886
15309172 13 18336275608001832680
15375462 478 18060142015829265537
15881359 60 18128842865408043453
16945 1 17988369276949676928
20559304 39 17987783134310085233
20671657 53 11743834798231111912
21731228 192 18335424560126667907
22112679 90 17759797048795849695
23184049 59 18342745121555811800
23388829 49 18054798281838492533
23419403 2 17692822896392133942
23463225 33 18060134323606460081
25 1 4678827163602441168
2748010 2 18054508277299520317
2803657 2 17690845562295294831
298252 57 17695018329229145332
394222 165 17556826210271753205
427121 178 17749652039937796419
495365 180 17826524545854929617
6992083 37 18270132196931494902
7364860 26 18118110592575845459
7471813 234 17107644756295274383
81228 2 17830198829988685122
84936 31 17315363775776075406
90316 7 17560526229997024941
90525 40 18339923710167919318

> <PUBCHEM_SHAPE_MULTIPOLES>
369.31
5.24
2.62
1.56
1.01
1.47
-0.38
-1.52
3.41
0.17
-1.15
-0.58
-0.03
-0.17

> <PUBCHEM_SHAPE_SELFOVERLAP>
812.618

> <PUBCHEM_SHAPE_VOLUME>
194.9

> <PUBCHEM_COORDINATE_TYPE>
2
5
10

$$$$

