11698
  -OEChem-06261206002D

 26 26  0     0  0  0  0  0  0999 V2000
    3.5000   -0.7500    0.0000 P   0  0  0  0  0  0  0  0  0  0  0  0
    3.5000    2.2500    0.0000 O   0  0  0  0  0  0  0  0  0  0  0  0
    3.5000   -1.7500    0.0000 O   0  0  0  0  0  0  0  0  0  0  0  0
    2.5000   -0.7500    0.0000 O   0  0  0  0  0  0  0  0  0  0  0  0
    4.5000   -0.7500    0.0000 O   0  0  0  0  0  0  0  0  0  0  0  0
    3.5000    0.2500    0.0000 N   0  0  0  0  0  0  0  0  0  0  0  0
    4.3660    0.7500    0.0000 C   0  0  0  0  0  0  0  0  0  0  0  0
    2.6340    0.7500    0.0000 C   0  0  0  0  0  0  0  0  0  0  0  0
    4.3660    1.7500    0.0000 C   0  0  0  0  0  0  0  0  0  0  0  0
    2.6340    1.7500    0.0000 C   0  0  0  0  0  0  0  0  0  0  0  0
    2.6340   -2.2500    0.0000 C   0  0  0  0  0  0  0  0  0  0  0  0
    2.0000   -1.6160    0.0000 C   0  0  0  0  0  0  0  0  0  0  0  0
    4.5781    0.1674    0.0000 H   0  0  0  0  0  0  0  0  0  0  0  0
    4.9766    0.8577    0.0000 H   0  0  0  0  0  0  0  0  0  0  0  0
    2.0234    0.8577    0.0000 H   0  0  0  0  0  0  0  0  0  0  0  0
    2.4219    0.1674    0.0000 H   0  0  0  0  0  0  0  0  0  0  0  0
    4.9766    1.6423    0.0000 H   0  0  0  0  0  0  0  0  0  0  0  0
    4.5781    2.3326    0.0000 H   0  0  0  0  0  0  0  0  0  0  0  0
    2.4219    2.3326    0.0000 H   0  0  0  0  0  0  0  0  0  0  0  0
    2.0234    1.6423    0.0000 H   0  0  0  0  0  0  0  0  0  0  0  0
    2.3240   -1.7131    0.0000 H   0  0  0  0  0  0  0  0  0  0  0  0
    2.0970   -2.5600    0.0000 H   0  0  0  0  0  0  0  0  0  0  0  0
    2.9440   -2.7869    0.0000 H   0  0  0  0  0  0  0  0  0  0  0  0
    1.4631   -1.3060    0.0000 H   0  0  0  0  0  0  0  0  0  0  0  0
    1.6900   -2.1530    0.0000 H   0  0  0  0  0  0  0  0  0  0  0  0
    2.5369   -1.9260    0.0000 H   0  0  0  0  0  0  0  0  0  0  0  0
  1  3  1  0  0  0  0
  1  4  1  0  0  0  0
  1  5  2  0  0  0  0
  1  6  1  0  0  0  0
  2  9  1  0  0  0  0
  2 10  1  0  0  0  0
  3 11  1  0  0  0  0
  4 12  1  0  0  0  0
  6  7  1  0  0  0  0
  6  8  1  0  0  0  0
  7  9  1  0  0  0  0
  7 13  1  0  0  0  0
  7 14  1  0  0  0  0
  8 10  1  0  0  0  0
  8 15  1  0  0  0  0
  8 16  1  0  0  0  0
  9 17  1  0  0  0  0
  9 18  1  0  0  0  0
 10 19  1  0  0  0  0
 10 20  1  0  0  0  0
 11 21  1  0  0  0  0
 11 22  1  0  0  0  0
 11 23  1  0  0  0  0
 12 24  1  0  0  0  0
 12 25  1  0  0  0  0
 12 26  1  0  0  0  0
M  END
> <PUBCHEM_COMPOUND_CID>
11698

> <PUBCHEM_COMPOUND_CANONICALIZED>
1

> <PUBCHEM_CACTVS_COMPLEXITY>
172

> <PUBCHEM_CACTVS_HBOND_ACCEPTOR>
5

> <PUBCHEM_CACTVS_HBOND_DONOR>
0

> <PUBCHEM_CACTVS_ROTATABLE_BOND>
3

> <PUBCHEM_CACTVS_SUBSKEYS>
AAADccBiOAIAAAAAAAAAAAAAAAAAAAAAAAAsAAAAAAAAAAAAAAAAHgAAgCAAAADhgAYCAAIABRAAQAAAAIAAAAAAAAAAAAAIAAACAAAAAAADAAAAAACQAAAAAAAAAAAAAAAAAAAAAAAAAAAAAAAAAAAAAA==

> <PUBCHEM_IUPAC_OPENEYE_NAME>
4-dimethoxyphosphorylmorpholine

> <PUBCHEM_IUPAC_CAS_NAME>
4-dimethoxyphosphorylmorpholine

> <PUBCHEM_IUPAC_NAME>
4-dimethoxyphosphorylmorpholine

> <PUBCHEM_IUPAC_SYSTEMATIC_NAME>
4-dimethoxyphosphorylmorpholine

> <PUBCHEM_IUPAC_TRADITIONAL_NAME>
4-dimethoxyphosphorylmorpholine

> <PUBCHEM_IUPAC_INCHI>
InChI=1S/C6H14NO4P/c1-9-12(8,10-2)7-3-5-11-6-4-7/h3-6H2,1-2H3

> <PUBCHEM_IUPAC_INCHIKEY>
BZXUQIDKDGGYPB-UHFFFAOYSA-N

> <PUBCHEM_XLOGP3_AA>
-0.7

> <PUBCHEM_EXACT_MASS>
195.066045

> <PUBCHEM_MOLECULAR_FORMULA>
C6H14NO4P

> <PUBCHEM_MOLECULAR_WEIGHT>
195.153422

> <PUBCHEM_OPENEYE_CAN_SMILES>
COP(=O)(N1CCOCC1)OC

> <PUBCHEM_OPENEYE_ISO_SMILES>
COP(=O)(N1CCOCC1)OC

> <PUBCHEM_CACTVS_TPSA>
48

> <PUBCHEM_MONOISOTOPIC_WEIGHT>
195.066045

> <PUBCHEM_TOTAL_CHARGE>
0

> <PUBCHEM_HEAVY_ATOM_COUNT>
12

> <PUBCHEM_ATOM_DEF_STEREO_COUNT>
0

> <PUBCHEM_ATOM_UDEF_STEREO_COUNT>
0

> <PUBCHEM_BOND_DEF_STEREO_COUNT>
0

> <PUBCHEM_BOND_UDEF_STEREO_COUNT>
0

> <PUBCHEM_ISOTOPIC_ATOM_COUNT>
0

> <PUBCHEM_COMPONENT_COUNT>
1

> <PUBCHEM_CACTVS_TAUTO_COUNT>
1

> <PUBCHEM_COORDINATE_TYPE>
1
5
255

$$$$

