443249
  -OEChem-07051213013D

 21 20  0     1  0  0  0  0  0999 V2000
    2.5439   -0.3745    0.0435 S   0  0  0  0  0  0  0  0  0  0  0  0
   -1.9230   -1.0789    0.0360 P   0  0  0  0  0  0  0  0  0  0  0  0
   -0.4563   -0.5395   -0.3799 O   0  0  0  0  0  0  0  0  0  0  0  0
    3.8004    0.1897   -0.8296 O   0  0  0  0  0  0  0  0  0  0  0  0
    2.0504   -1.5891   -0.5778 O   0  0  0  0  0  0  0  0  0  0  0  0
    2.8945   -0.3277    1.4506 O   0  0  0  0  0  0  0  0  0  0  0  0
   -1.0322    2.6366    0.9434 O   0  0  0  0  0  0  0  0  0  0  0  0
   -1.7448   -1.5271    1.5796 O   0  0  0  0  0  0  0  0  0  0  0  0
   -2.0226   -2.4879   -0.7512 O   0  0  0  0  0  0  0  0  0  0  0  0
   -1.5703    1.8719   -1.1299 O   0  0  0  0  0  0  0  0  0  0  0  0
   -3.0500   -0.1238   -0.2289 O   0  0  0  0  0  0  0  0  0  0  0  0
    0.0280    0.6446    0.2388 C   0  0  1  0  0  0  0  0  0  0  0  0
    1.4169    0.9423   -0.3035 C   0  0  0  0  0  0  0  0  0  0  0  0
   -0.9348    1.7633   -0.0911 C   0  0  0  0  0  0  0  0  0  0  0  0
    0.0524    0.4780    1.3212 H   0  0  0  0  0  0  0  0  0  0  0  0
    1.3834    1.0459   -1.3942 H   0  0  0  0  0  0  0  0  0  0  0  0
    1.8246    1.8625    0.1261 H   0  0  0  0  0  0  0  0  0  0  0  0
    3.6954    0.1357   -1.8087 H   0  0  0  0  0  0  0  0  0  0  0  0
   -1.6638    3.3622    0.7513 H   0  0  0  0  0  0  0  0  0  0  0  0
   -2.5320   -1.8322    2.0789 H   0  0  0  0  0  0  0  0  0  0  0  0
   -2.8706   -2.9808   -0.7363 H   0  0  0  0  0  0  0  0  0  0  0  0
  1  4  1  0  0  0  0
  1  5  2  0  0  0  0
  1  6  2  0  0  0  0
  1 13  1  0  0  0  0
  2  3  1  0  0  0  0
  2  8  1  0  0  0  0
  2  9  1  0  0  0  0
  2 11  2  0  0  0  0
  3 12  1  0  0  0  0
  4 18  1  0  0  0  0
  7 14  1  0  0  0  0
  7 19  1  0  0  0  0
  8 20  1  0  0  0  0
  9 21  1  0  0  0  0
 10 14  2  0  0  0  0
 12 13  1  0  0  0  0
 12 14  1  0  0  0  0
 12 15  1  0  0  0  0
 13 16  1  0  0  0  0
 13 17  1  0  0  0  0
M  END
> <PUBCHEM_COMPOUND_CID>
443249

> <PUBCHEM_CONFORMER_RMSD>
0.6

> <PUBCHEM_CONFORMER_DIVERSEORDER>
1
2
8
5
6
4
7
9
3

> <PUBCHEM_MMFF94_PARTIAL_CHARGES>
18
1 1.38
10 -0.57
11 -0.7
12 0.34
13 0.11
14 0.66
18 0.5
19 0.5
2 1.51
20 0.5
21 0.5
3 -0.55
4 -0.68
5 -0.65
6 -0.65
7 -0.65
8 -0.77
9 -0.77

> <PUBCHEM_EFFECTIVE_ROTOR_COUNT>
5

> <PUBCHEM_PHARMACOPHORE_FEATURES>
11
1 10 acceptor
1 11 acceptor
1 4 acceptor
1 5 acceptor
1 6 acceptor
1 7 acceptor
1 8 acceptor
1 9 acceptor
3 7 10 14 anion
4 1 4 5 6 anion
4 2 8 9 11 anion

> <PUBCHEM_HEAVY_ATOM_COUNT>
14

> <PUBCHEM_ATOM_DEF_STEREO_COUNT>
1

> <PUBCHEM_ATOM_UDEF_STEREO_COUNT>
0

> <PUBCHEM_BOND_DEF_STEREO_COUNT>
0

> <PUBCHEM_BOND_UDEF_STEREO_COUNT>
0

> <PUBCHEM_ISOTOPIC_ATOM_COUNT>
0

> <PUBCHEM_COMPONENT_COUNT>
1

> <PUBCHEM_CACTVS_TAUTO_COUNT>
1

> <PUBCHEM_CONFORMER_ID>
0006C37100000001

> <PUBCHEM_MMFF94_ENERGY>
-13.6423

> <PUBCHEM_FEATURE_SELFOVERLAP>
55.976

> <PUBCHEM_SHAPE_FINGERPRINT>
12138202 97 18269002049148970716
12932764 1 17487889215264615828
14817 1 5655347751381285953
16945 1 18335710463214679885
20201158 50 18411421700063767038
20645477 70 17401779519037617175
20711985 344 18343024401725216721
20711985 365 18266178507678962318
20871998 184 18336816576312561495
21061003 4 17968093062852420520
21501502 16 18265046028108919606
21524375 3 17030501311083210561
23526114 1 17905326230167889405
23552423 10 18058447599612381588
2748010 2 18121789326316792741
3312278 4 18129936789225487818
7364860 26 17613437740481595249
81228 2 18412824715666232897

> <PUBCHEM_SHAPE_MULTIPOLES>
242.99
4.69
2.4
1.1
3.1
0.51
0.31
-1.48
-0.29
-1.77
-0.02
0.05
-0.1
0.03

> <PUBCHEM_SHAPE_SELFOVERLAP>
452.419

> <PUBCHEM_SHAPE_VOLUME>
151.6

> <PUBCHEM_COORDINATE_TYPE>
2
5
10

$$$$

