442936
  -OEChem-07051213002D

 37 39  0     1  0  0  0  0  0999 V2000
    3.1608   -2.9193    0.0000 O   0  0  0  0  0  0  0  0  0  0  0  0
    2.8520    0.1344    0.0000 N   0  0  3  0  0  0  0  0  0  0  0  0
    7.7826    0.5555    0.0000 N   0  0  0  0  0  0  0  0  0  0  0  0
    5.3007    0.9708    0.0000 C   0  0  2  0  0  0  0  0  0  0  0  0
    3.7656   -0.2724    0.0000 C   0  0  1  0  0  0  0  0  0  0  0  0
    5.5596    1.9367    0.0000 C   0  0  1  0  0  0  0  0  0  0  0  0
    4.8229    2.9193    0.0000 C   0  0  0  0  0  0  0  0  0  0  0  0
    7.0054   -0.0739    0.0000 C   0  0  1  0  0  0  0  0  0  0  0  0
    2.9566    1.1289    0.0000 C   0  0  0  0  0  0  0  0  0  0  0  0
    7.4242    1.4890    0.0000 C   0  0  0  0  0  0  0  0  0  0  0  0
    3.8904   -1.3065    0.0000 C   0  0  0  0  0  0  0  0  0  0  0  0
    7.0578   -1.0725    0.0000 C   0  0  0  0  0  0  0  0  0  0  0  0
    2.0000   -0.4648    0.0000 C   0  0  0  0  0  0  0  0  0  0  0  0
    3.0525   -1.9252    0.0000 C   0  0  0  0  0  0  0  0  0  0  0  0
    2.1009   -1.5016    0.0000 C   0  0  0  0  0  0  0  0  0  0  0  0
    7.9488   -1.5265    0.0000 C   0  0  0  0  0  0  0  0  0  0  0  0
    8.0011   -2.5251    0.0000 C   0  0  0  0  0  0  0  0  0  0  0  0
    5.0807    0.1497    0.0000 H   0  0  0  0  0  0  0  0  0  0  0  0
    4.5421   -0.6181    0.0000 H   0  0  0  0  0  0  0  0  0  0  0  0
    5.7796    2.7578    0.0000 H   0  0  0  0  0  0  0  0  0  0  0  0
    5.1408    3.4517    0.0000 H   0  0  0  0  0  0  0  0  0  0  0  0
    4.2098    3.0113    0.0000 H   0  0  0  0  0  0  0  0  0  0  0  0
    7.5718   -0.3260    0.0000 H   0  0  0  0  0  0  0  0  0  0  0  0
    2.8543    1.7404    0.0000 H   0  0  0  0  0  0  0  0  0  0  0  0
    2.3368    1.1100    0.0000 H   0  0  0  0  0  0  0  0  0  0  0  0
    8.0357    1.5914    0.0000 H   0  0  0  0  0  0  0  0  0  0  0  0
    7.4458    2.1087    0.0000 H   0  0  0  0  0  0  0  0  0  0  0  0
    8.3814    0.3950    0.0000 H   0  0  0  0  0  0  0  0  0  0  0  0
    4.1679   -1.8609    0.0000 H   0  0  0  0  0  0  0  0  0  0  0  0
    4.4842   -1.1279    0.0000 H   0  0  0  0  0  0  0  0  0  0  0  0
    6.4424   -0.9969    0.0000 H   0  0  0  0  0  0  0  0  0  0  0  0
    6.8765   -1.6654    0.0000 H   0  0  0  0  0  0  0  0  0  0  0  0
    1.4366   -0.2061    0.0000 H   0  0  0  0  0  0  0  0  0  0  0  0
    1.5979   -1.8640    0.0000 H   0  0  0  0  0  0  0  0  0  0  0  0
    8.4688   -1.1888    0.0000 H   0  0  0  0  0  0  0  0  0  0  0  0
    7.4811   -2.8628    0.0000 H   0  0  0  0  0  0  0  0  0  0  0  0
    8.5535   -2.8066    0.0000 H   0  0  0  0  0  0  0  0  0  0  0  0
  1 14  2  0  0  0  0
  2  5  1  0  0  0  0
  2  9  1  0  0  0  0
  2 13  1  0  0  0  0
  3  8  1  0  0  0  0
  3 10  1  0  0  0  0
  3 28  1  0  0  0  0
  4  5  1  0  0  0  0
  4  7  1  0  0  0  0
  4  8  1  0  0  0  0
  4 18  1  1  0  0  0
  5 11  1  0  0  0  0
  5 19  1  6  0  0  0
  6  7  1  0  0  0  0
  6  9  1  0  0  0  0
  6 10  1  0  0  0  0
  6 20  1  1  0  0  0
  7 21  1  0  0  0  0
  7 22  1  0  0  0  0
  8 12  1  6  0  0  0
  8 23  1  0  0  0  0
  9 24  1  0  0  0  0
  9 25  1  0  0  0  0
 10 26  1  0  0  0  0
 10 27  1  0  0  0  0
 11 14  1  0  0  0  0
 11 29  1  0  0  0  0
 11 30  1  0  0  0  0
 12 16  1  0  0  0  0
 12 31  1  0  0  0  0
 12 32  1  0  0  0  0
 13 15  2  0  0  0  0
 13 33  1  0  0  0  0
 14 15  1  0  0  0  0
 15 34  1  0  0  0  0
 16 17  2  0  0  0  0
 16 35  1  0  0  0  0
 17 36  1  0  0  0  0
 17 37  1  0  0  0  0
M  END
> <PUBCHEM_COMPOUND_CID>
442936

> <PUBCHEM_COMPOUND_CANONICALIZED>
1

> <PUBCHEM_CACTVS_COMPLEXITY>
363

> <PUBCHEM_CACTVS_HBOND_ACCEPTOR>
3

> <PUBCHEM_CACTVS_HBOND_DONOR>
1

> <PUBCHEM_CACTVS_ROTATABLE_BOND>
2

> <PUBCHEM_CACTVS_SUBSKEYS>
AAADceBzIAAAAAAAAAAAAAAAAAAAAAAAAAAsWIAAAAAWAACAAAAAHgAQAAAADSzBgAQAAAPAAACIAKBWQAAAAAAgAgAIAIEIAEgAABoAwQAEAAAAkACAAMEYicCeAAAAAAAAAAAAAAAAAAAAAAAAAAAAAA==

> <PUBCHEM_IUPAC_INCHI>
InChI=1S/C14H20N2O/c1-2-3-13-12-6-10(8-15-13)9-16-5-4-11(17)7-14(12)16/h2,4-5,10,12-15H,1,3,6-9H2/t10-,12-,13-,14-/m1/s1

> <PUBCHEM_IUPAC_INCHIKEY>
QJVOZXGJOGJKPT-FMKGYKFTSA-N

> <PUBCHEM_XLOGP3_AA>
1.3

> <PUBCHEM_EXACT_MASS>
232.157563

> <PUBCHEM_MOLECULAR_FORMULA>
C14H20N2O

> <PUBCHEM_MOLECULAR_WEIGHT>
232.3214

> <PUBCHEM_OPENEYE_CAN_SMILES>
C=CCC1C2CC(CN1)CN3C2CC(=O)C=C3

> <PUBCHEM_OPENEYE_ISO_SMILES>
C=CC[C@@H]1[C@H]2C[C@H](CN1)CN3[C@@H]2CC(=O)C=C3

> <PUBCHEM_CACTVS_TPSA>
32.3

> <PUBCHEM_MONOISOTOPIC_WEIGHT>
232.157563

> <PUBCHEM_TOTAL_CHARGE>
0

> <PUBCHEM_HEAVY_ATOM_COUNT>
17

> <PUBCHEM_ATOM_DEF_STEREO_COUNT>
4

> <PUBCHEM_ATOM_UDEF_STEREO_COUNT>
0

> <PUBCHEM_BOND_DEF_STEREO_COUNT>
0

> <PUBCHEM_BOND_UDEF_STEREO_COUNT>
0

> <PUBCHEM_ISOTOPIC_ATOM_COUNT>
0

> <PUBCHEM_COMPONENT_COUNT>
1

> <PUBCHEM_CACTVS_TAUTO_COUNT>
2

> <PUBCHEM_COORDINATE_TYPE>
1
5
255

> <PUBCHEM_BONDANNOTATIONS>
4  18  5
5  19  6
6  20  5
8  12  6

$$$$

