9830520
  -OEChem-07051213013D

 57 60  0     1  0  0  0  0  0999 V2000
    0.0228    1.1995    1.5407 S   0  0  0  0  0  0  0  0  0  0  0  0
   -4.9374   -3.1808    0.7405 S   0  0  0  0  0  0  0  0  0  0  0  0
   -0.8456   -0.3518   -2.7548 O   0  0  0  0  0  0  0  0  0  0  0  0
    2.2359   -1.1064   -2.6676 O   0  0  0  0  0  0  0  0  0  0  0  0
    1.7470   -2.8179   -1.2316 O   0  0  0  0  0  0  0  0  0  0  0  0
   -3.7446    0.9136   -2.2461 O   0  0  0  0  0  0  0  0  0  0  0  0
    7.4696   -1.1207   -0.4521 O   0  0  0  0  0  0  0  0  0  0  0  0
   -5.0662    2.8873   -0.2437 O   0  0  0  0  0  0  0  0  0  0  0  0
    0.4771    0.2703   -0.9045 N   0  0  0  0  0  0  0  0  0  0  0  0
   -2.3838    1.2401   -0.3615 N   0  0  0  0  0  0  0  0  0  0  0  0
    4.4493   -0.3358    1.2914 N   0  0  2  0  0  0  0  0  0  0  0  0
    5.1255    0.3052    0.2900 N   0  0  0  0  0  0  0  0  0  0  0  0
    6.7920    2.0508    0.3609 N   0  0  0  0  0  0  0  0  0  0  0  0
   -5.4784    1.6541    0.2801 N   0  0  0  0  0  0  0  0  0  0  0  0
   -6.0833   -0.9072    1.1873 N   0  0  0  0  0  0  0  0  0  0  0  0
   -7.0754   -2.7628    2.2656 N   0  0  0  0  0  0  0  0  0  0  0  0
    0.1839    1.5219   -0.2302 C   0  0  1  0  0  0  0  0  0  0  0  0
   -1.1274    1.5430   -1.0460 C   0  0  1  0  0  0  0  0  0  0  0  0
   -0.5257    0.3276   -1.8077 C   0  0  0  0  0  0  0  0  0  0  0  0
    1.5017   -0.5511   -0.5591 C   0  0  0  0  0  0  0  0  0  0  0  0
    2.1502   -0.4145    0.6221 C   0  0  0  0  0  0  0  0  0  0  0  0
    1.7345    0.5863    1.6979 C   0  0  0  0  0  0  0  0  0  0  0  0
    3.3476   -1.2328    1.0420 C   0  0  0  0  0  0  0  0  0  0  0  0
    1.8323   -1.6354   -1.4957 C   0  0  0  0  0  0  0  0  0  0  0  0
   -3.5561    0.9582   -1.0411 C   0  0  0  0  0  0  0  0  0  0  0  0
    4.7587    0.2599    2.4981 C   0  0  0  0  0  0  0  0  0  0  0  0
    5.3091   -0.2444   -1.0291 C   0  0  0  0  0  0  0  0  0  0  0  0
    5.9273    1.2605    0.9080 C   0  0  0  0  0  0  0  0  0  0  0  0
    5.6598    1.2492    2.3861 C   0  0  0  0  0  0  0  0  0  0  0  0
   -4.7175    0.6810   -0.1219 C   0  0  0  0  0  0  0  0  0  0  0  0
    6.1906   -1.4797   -0.9595 C   0  0  0  0  0  0  0  0  0  0  0  0
   -5.0131   -0.6774    0.3448 C   0  0  0  0  0  0  0  0  0  0  0  0
   -4.2743   -1.7873   -0.0076 C   0  0  0  0  0  0  0  0  0  0  0  0
   -6.1398   -2.1915    1.4617 C   0  0  0  0  0  0  0  0  0  0  0  0
   -5.9462    3.8889    0.2427 C   0  0  0  0  0  0  0  0  0  0  0  0
    0.8846    2.3229   -0.4944 H   0  0  0  0  0  0  0  0  0  0  0  0
   -1.2249    2.4342   -1.6774 H   0  0  0  0  0  0  0  0  0  0  0  0
    2.3939    1.4593    1.6777 H   0  0  0  0  0  0  0  0  0  0  0  0
    1.7942    0.1241    2.6885 H   0  0  0  0  0  0  0  0  0  0  0  0
   -2.4136    1.2361    0.6554 H   0  0  0  0  0  0  0  0  0  0  0  0
    3.0996   -1.7971    1.9505 H   0  0  0  0  0  0  0  0  0  0  0  0
    3.6278   -1.9873    0.3040 H   0  0  0  0  0  0  0  0  0  0  0  0
    4.2777   -0.0859    3.4005 H   0  0  0  0  0  0  0  0  0  0  0  0
    5.7807    0.5074   -1.6730 H   0  0  0  0  0  0  0  0  0  0  0  0
    4.3535   -0.4880   -1.4889 H   0  0  0  0  0  0  0  0  0  0  0  0
    6.0929    1.8848    3.1352 H   0  0  0  0  0  0  0  0  0  0  0  0
    2.4693   -1.7974   -3.3237 H   0  0  0  0  0  0  0  0  0  0  0  0
    6.3251   -1.8979   -1.9622 H   0  0  0  0  0  0  0  0  0  0  0  0
    5.7738   -2.2577   -0.3144 H   0  0  0  0  0  0  0  0  0  0  0  0
    7.2358    2.6429    1.0712 H   0  0  0  0  0  0  0  0  0  0  0  0
    8.0084   -1.9301   -0.4378 H   0  0  0  0  0  0  0  0  0  0  0  0
   -3.4044   -1.8589   -0.6452 H   0  0  0  0  0  0  0  0  0  0  0  0
   -5.6303    4.8540   -0.1623 H   0  0  0  0  0  0  0  0  0  0  0  0
   -5.9033    3.9354    1.3353 H   0  0  0  0  0  0  0  0  0  0  0  0
   -6.9705    3.6881   -0.0863 H   0  0  0  0  0  0  0  0  0  0  0  0
   -7.0828   -3.7602    2.4522 H   0  0  0  0  0  0  0  0  0  0  0  0
   -7.8032   -2.2145    2.7121 H   0  0  0  0  0  0  0  0  0  0  0  0
  1 17  1  0  0  0  0
  1 22  1  0  0  0  0
  2 33  1  0  0  0  0
  2 34  1  0  0  0  0
  3 19  2  0  0  0  0
  4 24  1  0  0  0  0
  4 47  1  0  0  0  0
  5 24  2  0  0  0  0
  6 25  2  0  0  0  0
  7 31  1  0  0  0  0
  7 51  1  0  0  0  0
  8 14  1  0  0  0  0
  8 35  1  0  0  0  0
  9 17  1  0  0  0  0
  9 19  1  0  0  0  0
  9 20  1  0  0  0  0
 10 18  1  0  0  0  0
 10 25  1  0  0  0  0
 10 40  1  0  0  0  0
 11 12  1  0  0  0  0
 11 23  1  0  0  0  0
 11 26  1  0  0  0  0
 12 27  1  0  0  0  0
 12 28  1  0  0  0  0
 13 28  2  0  0  0  0
 13 50  1  0  0  0  0
 14 30  2  0  0  0  0
 15 32  1  0  0  0  0
 15 34  2  0  0  0  0
 16 34  1  0  0  0  0
 16 56  1  0  0  0  0
 16 57  1  0  0  0  0
 17 18  1  0  0  0  0
 17 36  1  0  0  0  0
 18 19  1  0  0  0  0
 18 37  1  0  0  0  0
 20 21  2  0  0  0  0
 20 24  1  0  0  0  0
 21 22  1  0  0  0  0
 21 23  1  0  0  0  0
 22 38  1  0  0  0  0
 22 39  1  0  0  0  0
 23 41  1  0  0  0  0
 23 42  1  0  0  0  0
 25 30  1  0  0  0  0
 26 29  2  0  0  0  0
 26 43  1  0  0  0  0
 27 31  1  0  0  0  0
 27 44  1  0  0  0  0
 27 45  1  0  0  0  0
 28 29  1  0  0  0  0
 29 46  1  0  0  0  0
 30 32  1  0  0  0  0
 31 48  1  0  0  0  0
 31 49  1  0  0  0  0
 32 33  2  0  0  0  0
 33 52  1  0  0  0  0
 35 53  1  0  0  0  0
 35 54  1  0  0  0  0
 35 55  1  0  0  0  0
M  END
> <PUBCHEM_COMPOUND_CID>
9830520

> <PUBCHEM_CONFORMER_RMSD>
1

> <PUBCHEM_CONFORMER_DIVERSEORDER>
1
77
37
7
84
55
73
67
63
76
87
62
104
91
92
24
89
22
29
96
83
31
99
88
102
94
90
50
60
93
72
64
103
105
26
69
15
10
100
46
74
56
53
68
51
45
70
59
81
12
85
42
39
23
32
21
75
54
47
52
41
86
101
65
33
8
66
98
78
30
82
71
28
9
35
79
61
36
40
20
34
43
18
44
14
57
80
97
27
48
5
25
2
95
13
16
58
11
6
38
49
19
3
17
4

> <PUBCHEM_MMFF94_PARTIAL_CHARGES>
44
1 -0.45
10 -0.65
11 -0.47
12 -0.42
13 -0.85
14 -0.51
15 -0.57
16 -0.88
17 0.44
18 0.28
19 0.58
2 -0.08
20 0.12
21 -0.28
22 0.37
23 0.51
24 0.71
25 0.63
26 -0.05
27 0.37
28 0.49
29 -0.14
3 -0.57
30 0.54
31 0.28
32 0.14
33 -0.11
34 0.46
35 0.28
4 -0.65
40 0.37
43 0.15
46 0.15
47 0.5
5 -0.57
50 0.4
51 0.4
52 0.15
56 0.4
57 0.4
6 -0.57
7 -0.68
8 -0.22
9 -0.39

> <PUBCHEM_EFFECTIVE_ROTOR_COUNT>
10.6

> <PUBCHEM_PHARMACOPHORE_FEATURES>
17
1 10 donor
1 13 donor
1 14 acceptor
1 16 donor
1 3 acceptor
1 4 acceptor
1 5 acceptor
1 6 acceptor
1 7 acceptor
1 7 donor
3 12 13 28 cation
3 15 16 34 cation
3 4 5 24 anion
4 9 17 18 19 rings
5 11 12 26 28 29 rings
5 2 15 32 33 34 rings
6 1 9 17 20 21 22 rings

> <PUBCHEM_HEAVY_ATOM_COUNT>
35

> <PUBCHEM_ATOM_DEF_STEREO_COUNT>
2

> <PUBCHEM_ATOM_UDEF_STEREO_COUNT>
0

> <PUBCHEM_BOND_DEF_STEREO_COUNT>
1

> <PUBCHEM_BOND_UDEF_STEREO_COUNT>
0

> <PUBCHEM_ISOTOPIC_ATOM_COUNT>
0

> <PUBCHEM_COMPONENT_COUNT>
1

> <PUBCHEM_CACTVS_TAUTO_COUNT>
4

> <PUBCHEM_CONFORMER_ID>
0096007800000001

> <PUBCHEM_MMFF94_ENERGY>
98.0204

> <PUBCHEM_FEATURE_SELFOVERLAP>
86.58

> <PUBCHEM_SHAPE_FINGERPRINT>
10190108 129 16951104249544017826
10794284 68 17838886041695853678
11007060 377 17241914002475007461
1200032 147 6338143051287596879
12422481 6 18186807963189221468
14790565 3 17605296007360538120
14840074 17 16225763004505766827
14856354 85 18271807947399956437
14955137 171 18187086135405049032
15183329 4 16272206366704176234
17349148 13 15410611540444654884
18335252 98 18411695449275039882
20028762 73 16415492562094695578
21315759 148 18409730668360019435
21781051 124 18334005100181557342
21814621 53 18261677060030602664
23522609 53 15792291462977978344
23559900 14 18265886050449712551
2838139 119 6050438215496422371
3178227 256 17603300475861786734
32027 91 17555192593627645195
38570 142 14707197782526408975
3882209 13 17614295359969350167
397830 11 18410576141399418944
4073 2 18410293640162726097
437795 51 17967246473538326350
439807 62 16486690256941992091
4938544 92 18342461474128067533
6009941 240 18263359347523976249
6086070 43 16081954622944677089
6328613 192 14490476331341417104

> <PUBCHEM_SHAPE_MULTIPOLES>
652.92
19.51
3.14
2.33
1.34
0.4
-0.17
-1.76
8.07
-6.46
0.47
1.01
-0.48
4.15

> <PUBCHEM_SHAPE_SELFOVERLAP>
1370.504

> <PUBCHEM_SHAPE_VOLUME>
371

> <PUBCHEM_COORDINATE_TYPE>
2
5
10

$$$$

