10656
  -OEChem-06261204483D

 35 37  0     0  0  0  0  0  0999 V2000
   -5.8605    0.2106   -0.2153 S   0  0  0  0  0  0  0  0  0  0  0  0
    5.9856   -1.4492    0.2329 O   0  0  0  0  0  0  0  0  0  0  0  0
   -6.5015    0.2395    1.2884 O   0  0  0  0  0  0  0  0  0  0  0  0
   -6.0731    1.5298   -0.7928 O   0  0  0  0  0  0  0  0  0  0  0  0
   -6.3474   -0.9821   -0.8909 O   0  0  0  0  0  0  0  0  0  0  0  0
    0.5543   -0.5535   -0.5193 N   0  0  0  0  0  0  0  0  0  0  0  0
   -0.0263   -0.5173    0.5892 N   0  0  0  0  0  0  0  0  0  0  0  0
    2.7994    0.3717   -0.1909 C   0  0  0  0  0  0  0  0  0  0  0  0
    4.1827    0.1422    0.0005 C   0  0  0  0  0  0  0  0  0  0  0  0
    1.9336   -0.7256   -0.3276 C   0  0  0  0  0  0  0  0  0  0  0  0
    4.6595   -1.1779    0.0496 C   0  0  0  0  0  0  0  0  0  0  0  0
    2.3225    1.6918   -0.2402 C   0  0  0  0  0  0  0  0  0  0  0  0
    5.0485    1.2395    0.1369 C   0  0  0  0  0  0  0  0  0  0  0  0
    2.4246   -2.0305   -0.2763 C   0  0  0  0  0  0  0  0  0  0  0  0
    3.7850   -2.2561   -0.0881 C   0  0  0  0  0  0  0  0  0  0  0  0
    3.1971    2.7701   -0.1025 C   0  0  0  0  0  0  0  0  0  0  0  0
   -4.1440   -0.0039    0.0220 C   0  0  0  0  0  0  0  0  0  0  0  0
    4.5575    2.5444    0.0856 C   0  0  0  0  0  0  0  0  0  0  0  0
   -1.4078   -0.3446    0.3976 C   0  0  0  0  0  0  0  0  0  0  0  0
   -3.6022   -1.2880    0.0785 C   0  0  0  0  0  0  0  0  0  0  0  0
   -3.3141    1.1094    0.1539 C   0  0  0  0  0  0  0  0  0  0  0  0
   -2.2307   -1.4589    0.2668 C   0  0  0  0  0  0  0  0  0  0  0  0
   -1.9426    0.9387    0.3421 C   0  0  0  0  0  0  0  0  0  0  0  0
    1.2686    1.9118   -0.3912 H   0  0  0  0  0  0  0  0  0  0  0  0
    6.1204    1.1245    0.2696 H   0  0  0  0  0  0  0  0  0  0  0  0
    1.7537   -2.8793   -0.3832 H   0  0  0  0  0  0  0  0  0  0  0  0
    4.1595   -3.2755   -0.0494 H   0  0  0  0  0  0  0  0  0  0  0  0
    2.8160    3.7863   -0.1445 H   0  0  0  0  0  0  0  0  0  0  0  0
    5.2378    3.3848    0.1885 H   0  0  0  0  0  0  0  0  0  0  0  0
   -4.2294   -2.1701   -0.0138 H   0  0  0  0  0  0  0  0  0  0  0  0
   -3.7147    2.1186    0.1205 H   0  0  0  0  0  0  0  0  0  0  0  0
   -1.8171   -2.4628    0.3123 H   0  0  0  0  0  0  0  0  0  0  0  0
   -1.3040    1.8116    0.4472 H   0  0  0  0  0  0  0  0  0  0  0  0
    6.4121   -0.7337    0.7292 H   0  0  0  0  0  0  0  0  0  0  0  0
   -6.1899    0.9750    1.8667 H   0  0  0  0  0  0  0  0  0  0  0  0
  1  3  1  0  0  0  0
  1  4  2  0  0  0  0
  1  5  2  0  0  0  0
  1 17  1  0  0  0  0
  2 11  1  0  0  0  0
  2 34  1  0  0  0  0
  3 35  1  0  0  0  0
  6  7  2  0  0  0  0
  6 10  1  0  0  0  0
  7 19  1  0  0  0  0
  8  9  1  0  0  0  0
  8 10  1  0  0  0  0
  8 12  2  0  0  0  0
  9 11  1  0  0  0  0
  9 13  2  0  0  0  0
 10 14  2  0  0  0  0
 11 15  2  0  0  0  0
 12 16  1  0  0  0  0
 12 24  1  0  0  0  0
 13 18  1  0  0  0  0
 13 25  1  0  0  0  0
 14 15  1  0  0  0  0
 14 26  1  0  0  0  0
 15 27  1  0  0  0  0
 16 18  2  0  0  0  0
 16 28  1  0  0  0  0
 17 20  2  0  0  0  0
 17 21  1  0  0  0  0
 18 29  1  0  0  0  0
 19 22  2  0  0  0  0
 19 23  1  0  0  0  0
 20 22  1  0  0  0  0
 20 30  1  0  0  0  0
 21 23  2  0  0  0  0
 21 31  1  0  0  0  0
 22 32  1  0  0  0  0
 23 33  1  0  0  0  0
M  END
> <PUBCHEM_COMPOUND_CID>
10656

> <PUBCHEM_CONFORMER_RMSD>
0.6

> <PUBCHEM_CONFORMER_DIVERSEORDER>
1
2
3
4

> <PUBCHEM_MMFF94_PARTIAL_CHARGES>
33
1 1.49
10 0.18
11 0.08
12 -0.15
13 -0.15
14 -0.15
15 -0.15
16 -0.15
17 -0.01
18 -0.15
19 0.18
2 -0.53
20 -0.15
21 -0.15
22 -0.15
23 -0.15
24 0.15
25 0.15
26 0.15
27 0.15
28 0.15
29 0.15
3 -0.68
30 0.15
31 0.15
32 0.15
33 0.15
34 0.45
35 0.5
4 -0.65
5 -0.65
6 -0.18
7 -0.18

> <PUBCHEM_EFFECTIVE_ROTOR_COUNT>
3

> <PUBCHEM_PHARMACOPHORE_FEATURES>
8
1 2 donor
1 3 acceptor
1 4 acceptor
1 5 acceptor
4 1 3 4 5 anion
6 17 19 20 21 22 23 rings
6 8 9 10 11 14 15 rings
6 8 9 12 13 16 18 rings

> <PUBCHEM_HEAVY_ATOM_COUNT>
23

> <PUBCHEM_ATOM_DEF_STEREO_COUNT>
0

> <PUBCHEM_ATOM_UDEF_STEREO_COUNT>
0

> <PUBCHEM_BOND_DEF_STEREO_COUNT>
0

> <PUBCHEM_BOND_UDEF_STEREO_COUNT>
0

> <PUBCHEM_ISOTOPIC_ATOM_COUNT>
0

> <PUBCHEM_COMPONENT_COUNT>
1

> <PUBCHEM_CACTVS_TAUTO_COUNT>
4

> <PUBCHEM_CONFORMER_ID>
000029A000000001

> <PUBCHEM_MMFF94_ENERGY>
61.7812

> <PUBCHEM_FEATURE_SELFOVERLAP>
40.678

> <PUBCHEM_SHAPE_FINGERPRINT>
10411042 1 18122061181717455262
10595046 47 18333733498917272413
10835480 77 18411987953485530933
11089746 13 18271811245718678351
11405975 8 18413386523142626747
12107183 9 17758953010312288347
12166972 35 18113899390280363960
12236239 1 17967251992360129871
12403259 415 17917717919739628621
12596602 18 13830129473157777237
12616971 3 18113341903245547335
12730499 353 18341886377231270690
12788726 201 17168412844591679177
13167372 99 18261668268301366217
13533116 47 18409166623458741986
13878862 14 18267606682999791212
14170010 4 18410013239302346792
14251764 18 18343585149046016034
14341114 176 18412539912037029076
14528608 73 18261673683864352949
15183329 4 18408604781828721353
15196674 1 18410855425784267193
15483637 11 18123752212313797461
17844677 252 18410568526796910441
18681886 176 18187088364867466258
19427546 62 18340204077597273846
200 152 18113339713023326375
20157964 124 18409730651195760031
20511986 3 18115040640083758943
20645477 56 18202565068885434311
20645477 70 18334010618597048910
21033648 29 17418384601231982341
21033650 10 15358514437294466482
21267235 1 18336819892549845646
21315763 129 18411140280884519589
21315764 268 18343871034295140269
21859007 373 17631187435972811397
221357 26 18412828018580622356
23081809 10 17749108894505656203
23402539 116 18335988640379122503
23522609 53 17750211666030045601
23557571 272 5112012707416196938
23559900 14 18409451388227758522
29717793 49 17748820843554350446
3004659 81 18413672426520483928
335352 9 18410571782925401222
3411729 13 18270684156986999368
34797466 226 17894902997512605205
350125 39 18411417336556322892
351380 180 18412263934592025077
3545911 37 18412259527934434924
397830 11 17773863217609886377
4015057 19 18337677417298938329
4073 2 17988075587112571578
4214541 1 18411136965449218395
4325135 7 18333453119347107189
474 4 18341892936004943184
5104073 3 18340763758658402259
5283173 99 18342182215095902061
542803 24 17530962497182687723
8272917 22 18408881824552053102
9709674 26 18340478981094842658
9971528 1 17989486312181015244

> <PUBCHEM_SHAPE_MULTIPOLES>
443.74
16.2
2.46
0.76
17.26
0.65
-0.03
1.6
0.28
-3.63
0.12
0.64
0.01
0.05

> <PUBCHEM_SHAPE_SELFOVERLAP>
967.966

> <PUBCHEM_SHAPE_VOLUME>
241.3

> <PUBCHEM_COORDINATE_TYPE>
2
5
10

$$$$

