23724461
  -OEChem-07051212443D

 66 68  0     1  0  0  0  0  0999 V2000
   -3.4905    1.4728   -0.8182 P   0  0  1  0  0  0  0  0  0  0  0  0
   -1.3447    3.1361   -1.9525 P   0  0  2  0  0  0  0  0  0  0  0  0
    1.6480    1.0996    0.4163 O   0  0  0  0  0  0  0  0  0  0  0  0
   -3.5132   -1.7093    0.1863 O   0  0  0  0  0  0  0  0  0  0  0  0
   -2.4721    0.3744   -0.2187 O   0  0  0  0  0  0  0  0  0  0  0  0
    0.2393   -2.2628    1.8803 O   0  0  0  0  0  0  0  0  0  0  0  0
    3.3005    3.3381    1.5333 O   0  0  0  0  0  0  0  0  0  0  0  0
   -1.9196   -3.8617    1.2954 O   0  0  0  0  0  0  0  0  0  0  0  0
    5.1812    1.7123    0.4116 O   0  0  0  0  0  0  0  0  0  0  0  0
   -0.1922    2.1188   -1.4487 O   0  0  0  0  0  0  0  0  0  0  0  0
   -4.4367   -3.0782   -1.9910 O   0  0  0  0  0  0  0  0  0  0  0  0
   -2.6611    2.1993   -2.0006 O   0  0  0  0  0  0  0  0  0  0  0  0
   -4.5982    0.6080   -1.6197 O   0  0  0  0  0  0  0  0  0  0  0  0
   -4.0601    2.4149    0.2025 O   0  0  0  0  0  0  0  0  0  0  0  0
    4.7437   -1.4697    1.2535 O   0  0  0  0  0  0  0  0  0  0  0  0
   -1.0043    3.3654   -3.5173 O   0  0  0  0  0  0  0  0  0  0  0  0
   -2.5371    0.4205    4.1626 O   0  0  0  0  0  0  0  0  0  0  0  0
   -1.5016    4.3929   -1.1473 O   0  0  0  0  0  0  0  0  0  0  0  0
    3.2733   -4.1738   -2.1772 O   0  0  0  0  0  0  0  0  0  0  0  0
    3.0931   -0.6397   -0.1765 N   0  0  0  0  0  0  0  0  0  0  0  0
   -1.1595    0.2368    2.2949 N   0  0  0  0  0  0  0  0  0  0  0  0
    4.0107   -2.8145   -0.4560 N   0  0  0  0  0  0  0  0  0  0  0  0
   -1.7736   -0.9332    1.7097 C   0  0  2  0  0  0  0  0  0  0  0  0
   -0.7441   -1.7893    0.9631 C   0  0  2  0  0  0  0  0  0  0  0  0
    3.1035    2.9528    0.1731 C   0  0  1  0  0  0  0  0  0  0  0  0
   -1.4308   -2.9792    0.2826 C   0  0  2  0  0  0  0  0  0  0  0  0
    3.8772    1.6876   -0.1315 C   0  0  2  0  0  0  0  0  0  0  0  0
    1.6611    2.4890    0.0212 C   0  0  1  0  0  0  0  0  0  0  0  0
    3.0003    0.6214    0.5023 C   0  0  1  0  0  0  0  0  0  0  0  0
   -2.5928   -2.4893   -0.5911 C   0  0  1  0  0  0  0  0  0  0  0  0
   -2.9270   -0.5440    0.7742 C   0  0  2  0  0  0  0  0  0  0  0  0
    1.1469    2.5803   -1.4093 C   0  0  0  0  0  0  0  0  0  0  0  0
   -3.3866   -3.6302   -1.2177 C   0  0  0  0  0  0  0  0  0  0  0  0
    4.0021   -1.6226    0.2806 C   0  0  0  0  0  0  0  0  0  0  0  0
    2.2897   -0.8933   -1.2821 C   0  0  0  0  0  0  0  0  0  0  0  0
   -1.5978    0.8132    3.4756 C   0  0  0  0  0  0  0  0  0  0  0  0
    2.3090   -2.0344   -1.9741 C   0  0  0  0  0  0  0  0  0  0  0  0
   -0.7667    2.0037    3.8726 C   0  0  0  0  0  0  0  0  0  0  0  0
    3.2305   -3.1125   -1.5624 C   0  0  0  0  0  0  0  0  0  0  0  0
   -2.1852   -1.5314    2.5337 H   0  0  0  0  0  0  0  0  0  0  0  0
   -0.2270   -1.1840    0.2113 H   0  0  0  0  0  0  0  0  0  0  0  0
    3.3835    3.7986   -0.4612 H   0  0  0  0  0  0  0  0  0  0  0  0
   -0.6969   -3.5398   -0.3078 H   0  0  0  0  0  0  0  0  0  0  0  0
    3.9566    1.5551   -1.2174 H   0  0  0  0  0  0  0  0  0  0  0  0
    0.9766    3.0140    0.6971 H   0  0  0  0  0  0  0  0  0  0  0  0
    3.2439    0.4854    1.5630 H   0  0  0  0  0  0  0  0  0  0  0  0
   -2.2127   -1.8522   -1.4002 H   0  0  0  0  0  0  0  0  0  0  0  0
   -3.7114   -0.0541    1.3623 H   0  0  0  0  0  0  0  0  0  0  0  0
    1.2005    3.6184   -1.7562 H   0  0  0  0  0  0  0  0  0  0  0  0
    1.7301    1.9739   -2.1061 H   0  0  0  0  0  0  0  0  0  0  0  0
   -3.8508   -4.2616   -0.4538 H   0  0  0  0  0  0  0  0  0  0  0  0
   -2.7513   -4.2457   -1.8618 H   0  0  0  0  0  0  0  0  0  0  0  0
   -0.4032    0.6829    1.7832 H   0  0  0  0  0  0  0  0  0  0  0  0
   -0.2091   -2.8329    2.5281 H   0  0  0  0  0  0  0  0  0  0  0  0
    2.7546    4.1267    1.6939 H   0  0  0  0  0  0  0  0  0  0  0  0
   -2.1335   -4.7092    0.8702 H   0  0  0  0  0  0  0  0  0  0  0  0
    5.5818    0.8415    0.2489 H   0  0  0  0  0  0  0  0  0  0  0  0
    1.6045   -0.1209   -1.5975 H   0  0  0  0  0  0  0  0  0  0  0  0
   -4.9255   -3.8214   -2.3838 H   0  0  0  0  0  0  0  0  0  0  0  0
    4.6565   -3.5349   -0.1452 H   0  0  0  0  0  0  0  0  0  0  0  0
    1.6654   -2.1977   -2.8296 H   0  0  0  0  0  0  0  0  0  0  0  0
   -0.7397    2.7299    3.0550 H   0  0  0  0  0  0  0  0  0  0  0  0
    0.2516    1.6799    4.1057 H   0  0  0  0  0  0  0  0  0  0  0  0
   -1.2021    2.4814    4.7544 H   0  0  0  0  0  0  0  0  0  0  0  0
   -5.3224    0.1804   -1.1148 H   0  0  0  0  0  0  0  0  0  0  0  0
   -0.2839    3.9846   -3.7618 H   0  0  0  0  0  0  0  0  0  0  0  0
  1  5  1  0  0  0  0
  1 12  1  0  0  0  0
  1 13  1  0  0  0  0
  1 14  2  0  0  0  0
  2 10  1  0  0  0  0
  2 12  1  0  0  0  0
  2 16  1  0  0  0  0
  2 18  2  0  0  0  0
  3 28  1  0  0  0  0
  3 29  1  0  0  0  0
  4 30  1  0  0  0  0
  4 31  1  0  0  0  0
  5 31  1  0  0  0  0
  6 24  1  0  0  0  0
  6 54  1  0  0  0  0
  7 25  1  0  0  0  0
  7 55  1  0  0  0  0
  8 26  1  0  0  0  0
  8 56  1  0  0  0  0
  9 27  1  0  0  0  0
  9 57  1  0  0  0  0
 10 32  1  0  0  0  0
 11 33  1  0  0  0  0
 11 59  1  0  0  0  0
 13 65  1  0  0  0  0
 15 34  2  0  0  0  0
 16 66  1  0  0  0  0
 17 36  2  0  0  0  0
 19 39  2  0  0  0  0
 20 29  1  0  0  0  0
 20 34  1  0  0  0  0
 20 35  1  0  0  0  0
 21 23  1  0  0  0  0
 21 36  1  0  0  0  0
 21 53  1  0  0  0  0
 22 34  1  0  0  0  0
 22 39  1  0  0  0  0
 22 60  1  0  0  0  0
 23 24  1  0  0  0  0
 23 31  1  0  0  0  0
 23 40  1  0  0  0  0
 24 26  1  0  0  0  0
 24 41  1  0  0  0  0
 25 27  1  0  0  0  0
 25 28  1  0  0  0  0
 25 42  1  0  0  0  0
 26 30  1  0  0  0  0
 26 43  1  0  0  0  0
 27 29  1  0  0  0  0
 27 44  1  0  0  0  0
 28 32  1  0  0  0  0
 28 45  1  0  0  0  0
 29 46  1  0  0  0  0
 30 33  1  0  0  0  0
 30 47  1  0  0  0  0
 31 48  1  0  0  0  0
 32 49  1  0  0  0  0
 32 50  1  0  0  0  0
 33 51  1  0  0  0  0
 33 52  1  0  0  0  0
 35 37  2  0  0  0  0
 35 58  1  0  0  0  0
 36 38  1  0  0  0  0
 37 39  1  0  0  0  0
 37 61  1  0  0  0  0
 38 62  1  0  0  0  0
 38 63  1  0  0  0  0
 38 64  1  0  0  0  0
M  END
> <PUBCHEM_COMPOUND_CID>
23724461

> <PUBCHEM_CONFORMER_RMSD>
1.4

> <PUBCHEM_CONFORMER_DIVERSEORDER>
1
119
210
56
244
469
80
168
325
79
186
229
233
409
324
183
202
356
73
224
77
147
218
464
433
37
435
332
458
362
9
475
413
81
237
352
410
432
342
47
140
460
83
16
228
307
380
441
267
215
36
40
125
144
450
354
122
24
303
304
131
294
297
120
443
141
381
316
387
257
236
476
71
145
418
213
185
69
53
377
20
57
436
451
440
59
457
222
314
170
159
30
249
478
242
5
44
317
165
99
296
87
470
472
289
453
301
252
276
115
337
7
42
425
375
247
51
338
208
452
74
96
105
123
38
88
271
180
72
367
404
223
293
292
364
192
280
358
399
454
392
55
254
274
234
284
41
308
320
256
360
279
373
54
395
11
372
116
91
456
265
374
49
305
263
114
467
290
355
151
167
33
4
315
312
398
23
235
109
240
89
153
429
340
110
187
135
172
171
117
166
86
477
428
136
90
384
100
94
65
259
13
98
207
48
205
127
28
431
391
45
113
253
329
217
414
62
175
164
27
225
211
93
471
334
212
402
226
264
396
158
179
361
112
134
346
350
287
330
401
198
385
382
32
273
437
269
348
416
465
204
343
150
121
415
106
19
35
124
126
412
188
270
143
22
370
363
46
333
64
445
285
182
321
189
95
50
323
335
209
389
459
383
250
14
129
107
366
173
216
258
423
394
326
181
70
85
193
378
60
468
155
262
245
266
261
43
39
255
407
422
411
31
447
349
63
174
331
118
238
388
177
405
291
194
400
203
76
344
103
18
406
163
371
288
75
260
298
379
232
448
132
474
393
286
427
368
21
97
108
268
397
434
68
176
199
152
357
386
463
444
66
101
78
417
195
339
25
420
449
52
306
302
214
421
243
206
196
142
26
201
455
219
133
369
220
319
462
149
251
351
130
227
82
309
295
137
277
246
111
102
154
390
439
239
300
169
345
299
272
328
408
241
419
313
10
190
461
310
230
67
221
365
353
157
138
197
2
184
466
376
327
200
426
341
15
29
322
84
231
61
438
446
34
17
12
128
473
318
278
275
3
104
281
359
403
442
58
146
191
311
248
156
148
6
92
347
139
424
162
178
430
161
8
283
282
336
160

> <PUBCHEM_MMFF94_PARTIAL_CHARGES>
50
1 1.51
10 -0.55
11 -0.68
12 -0.54
13 -0.77
14 -0.7
15 -0.57
16 -0.77
17 -0.57
18 -0.7
19 -0.57
2 1.51
20 -0.47
21 -0.73
22 -0.49
23 0.3
24 0.28
25 0.28
26 0.28
27 0.28
28 0.28
29 0.58
3 -0.56
30 0.28
31 0.56
32 0.28
33 0.28
34 0.69
35 -0.04
36 0.57
37 -0.14
38 0.06
39 0.62
4 -0.56
5 -0.55
53 0.37
54 0.4
55 0.4
56 0.4
57 0.4
58 0.15
59 0.4
6 -0.68
60 0.37
61 0.15
65 0.5
66 0.5
7 -0.68
8 -0.68
9 -0.68

> <PUBCHEM_EFFECTIVE_ROTOR_COUNT>
13.2

> <PUBCHEM_PHARMACOPHORE_FEATURES>
24
1 11 acceptor
1 11 donor
1 13 acceptor
1 14 acceptor
1 15 acceptor
1 16 acceptor
1 17 acceptor
1 18 acceptor
1 19 acceptor
1 21 donor
1 22 donor
1 3 acceptor
1 4 acceptor
1 6 acceptor
1 6 donor
1 7 acceptor
1 7 donor
1 8 acceptor
1 8 donor
1 9 acceptor
1 9 donor
5 3 25 27 28 29 rings
6 20 22 34 35 37 39 rings
6 4 23 24 26 30 31 rings

> <PUBCHEM_HEAVY_ATOM_COUNT>
39

> <PUBCHEM_ATOM_DEF_STEREO_COUNT>
8

> <PUBCHEM_ATOM_UDEF_STEREO_COUNT>
1

> <PUBCHEM_BOND_DEF_STEREO_COUNT>
0

> <PUBCHEM_BOND_UDEF_STEREO_COUNT>
0

> <PUBCHEM_ISOTOPIC_ATOM_COUNT>
0

> <PUBCHEM_COMPONENT_COUNT>
1

> <PUBCHEM_CACTVS_TAUTO_COUNT>
6

> <PUBCHEM_CONFORMER_ID>
016A01AD00000001

> <PUBCHEM_MMFF94_ENERGY>
52.3929

> <PUBCHEM_FEATURE_SELFOVERLAP>
121.844

> <PUBCHEM_SHAPE_FINGERPRINT>
10032420 55 16738037377109442304
12156800 1 17265311730120274611
12422481 6 18056730249372580433
140371 6 17911801271777373247
14251757 17 18194975264261517516
14725015 67 18128265673480290093
15219462 58 17240485814501516482
20764821 26 18273493468417842908
21987440 362 16333614349420554628
3380486 145 18341319038106570736
3493558 16 18259984877475910567
469060 322 17468794825452771964

> <PUBCHEM_SHAPE_MULTIPOLES>
695.58
8.53
5.93
3.37
3.57
1.11
-2.51
2.76
1.36
0.18
3.3
-2.65
-1.93
1.53

> <PUBCHEM_SHAPE_SELFOVERLAP>
1416.625

> <PUBCHEM_SHAPE_VOLUME>
403.4

> <PUBCHEM_COORDINATE_TYPE>
2
5
10

$$$$

