656687
  -OEChem-07051213033D

 33 34  0     0  0  0  0  0  0999 V2000
   -3.1911   -2.0473   -2.1806 Br  0  0  0  0  0  0  0  0  0  0  0  0
    3.1602   -2.0786    2.1702 Br  0  0  0  0  0  0  0  0  0  0  0  0
   -4.6874   -1.4805    0.4989 O   0  0  0  0  0  0  0  0  0  0  0  0
    4.6598   -1.5045   -0.5059 O   0  0  0  0  0  0  0  0  0  0  0  0
   -0.0048    1.6314    0.0058 C   0  0  0  0  0  0  0  0  0  0  0  0
   -1.2404    0.8052    0.1273 C   0  0  0  0  0  0  0  0  0  0  0  0
    1.2868    0.7577   -0.1268 C   0  0  0  0  0  0  0  0  0  0  0  0
    0.2911    2.5959    1.2158 C   0  0  0  0  0  0  0  0  0  0  0  0
   -0.1757    2.6081   -1.2104 C   0  0  0  0  0  0  0  0  0  0  0  0
   -1.5905   -0.0811   -0.8915 C   0  0  0  0  0  0  0  0  0  0  0  0
    1.5710   -0.0955    0.8928 C   0  0  0  0  0  0  0  0  0  0  0  0
   -2.0460    0.9188    1.2604 C   0  0  0  0  0  0  0  0  0  0  0  0
    2.0323    0.9145   -1.2530 C   0  0  0  0  0  0  0  0  0  0  0  0
   -2.7462   -0.8538   -0.7769 C   0  0  0  0  0  0  0  0  0  0  0  0
    2.7223   -0.8741    0.7737 C   0  0  0  0  0  0  0  0  0  0  0  0
   -3.2016    0.1462    1.3748 C   0  0  0  0  0  0  0  0  0  0  0  0
    3.1834    0.1361   -1.3721 C   0  0  0  0  0  0  0  0  0  0  0  0
   -3.5517   -0.7401    0.3564 C   0  0  0  0  0  0  0  0  0  0  0  0
    3.5284   -0.7584   -0.3589 C   0  0  0  0  0  0  0  0  0  0  0  0
   -0.5096    3.3354    1.3396 H   0  0  0  0  0  0  0  0  0  0  0  0
    0.3999    2.0630    2.1674 H   0  0  0  0  0  0  0  0  0  0  0  0
    1.2226    3.1541    1.0553 H   0  0  0  0  0  0  0  0  0  0  0  0
   -1.0740    3.2252   -1.0740 H   0  0  0  0  0  0  0  0  0  0  0  0
    0.6669    3.3034   -1.3090 H   0  0  0  0  0  0  0  0  0  0  0  0
   -0.3086    2.0850   -2.1647 H   0  0  0  0  0  0  0  0  0  0  0  0
   -0.9646   -0.1770   -1.7755 H   0  0  0  0  0  0  0  0  0  0  0  0
    0.9376   -0.1867    1.7690 H   0  0  0  0  0  0  0  0  0  0  0  0
   -1.8207    1.5921    2.0800 H   0  0  0  0  0  0  0  0  0  0  0  0
    1.8160    1.5854   -2.0723 H   0  0  0  0  0  0  0  0  0  0  0  0
   -3.8197    0.2456    2.2633 H   0  0  0  0  0  0  0  0  0  0  0  0
    3.8070    0.2300   -2.2574 H   0  0  0  0  0  0  0  0  0  0  0  0
   -5.1078   -1.2616    1.3482 H   0  0  0  0  0  0  0  0  0  0  0  0
    4.7554   -2.0704    0.2797 H   0  0  0  0  0  0  0  0  0  0  0  0
  1 14  1  0  0  0  0
  2 15  1  0  0  0  0
  3 18  1  0  0  0  0
  3 32  1  0  0  0  0
  4 19  1  0  0  0  0
  4 33  1  0  0  0  0
  5  6  1  0  0  0  0
  5  7  1  0  0  0  0
  5  8  1  0  0  0  0
  5  9  1  0  0  0  0
  6 10  2  0  0  0  0
  6 12  1  0  0  0  0
  7 11  2  0  0  0  0
  7 13  1  0  0  0  0
  8 20  1  0  0  0  0
  8 21  1  0  0  0  0
  8 22  1  0  0  0  0
  9 23  1  0  0  0  0
  9 24  1  0  0  0  0
  9 25  1  0  0  0  0
 10 14  1  0  0  0  0
 10 26  1  0  0  0  0
 11 15  1  0  0  0  0
 11 27  1  0  0  0  0
 12 16  2  0  0  0  0
 12 28  1  0  0  0  0
 13 17  2  0  0  0  0
 13 29  1  0  0  0  0
 14 18  2  0  0  0  0
 15 19  2  0  0  0  0
 16 18  1  0  0  0  0
 16 30  1  0  0  0  0
 17 19  1  0  0  0  0
 17 31  1  0  0  0  0
M  END
> <PUBCHEM_COMPOUND_CID>
656687

> <PUBCHEM_CONFORMER_RMSD>
0.6

> <PUBCHEM_CONFORMER_DIVERSEORDER>
1
12
4
10
11
9
8
3
5
6
2
7

> <PUBCHEM_MMFF94_PARTIAL_CHARGES>
25
1 -0.11
10 -0.15
11 -0.15
12 -0.15
13 -0.15
14 0.11
15 0.11
16 -0.15
17 -0.15
18 0.08
19 0.08
2 -0.11
26 0.15
27 0.15
28 0.15
29 0.15
3 -0.53
30 0.15
31 0.15
32 0.45
33 0.45
4 -0.53
5 0.29
6 -0.14
7 -0.14

> <PUBCHEM_EFFECTIVE_ROTOR_COUNT>
2

> <PUBCHEM_PHARMACOPHORE_FEATURES>
7
1 1 hydrophobe
1 2 hydrophobe
1 3 donor
1 4 donor
3 5 8 9 hydrophobe
6 6 10 12 14 16 18 rings
6 7 11 13 15 17 19 rings

> <PUBCHEM_HEAVY_ATOM_COUNT>
19

> <PUBCHEM_ATOM_DEF_STEREO_COUNT>
0

> <PUBCHEM_ATOM_UDEF_STEREO_COUNT>
0

> <PUBCHEM_BOND_DEF_STEREO_COUNT>
0

> <PUBCHEM_BOND_UDEF_STEREO_COUNT>
0

> <PUBCHEM_ISOTOPIC_ATOM_COUNT>
0

> <PUBCHEM_COMPONENT_COUNT>
1

> <PUBCHEM_CACTVS_TAUTO_COUNT>
5

> <PUBCHEM_CONFORMER_ID>
000A052F00000001

> <PUBCHEM_MMFF94_ENERGY>
67.2725

> <PUBCHEM_FEATURE_SELFOVERLAP>
35.52

> <PUBCHEM_SHAPE_FINGERPRINT>
11046707 91 18335979865243887312
11578080 2 18338533987600959480
11582403 64 15694621742151477556
11725454 13 15480695300958333140
12346177 29 17530971284970605805
12403259 327 16081085991399685839
12553582 1 18410864260527213991
12633257 1 15647052663838372747
12714826 92 18338240482420086284
12824470 246 18343581875563700353
12892183 10 15647345099539844355
13083527 12 17682436604571525769
13911987 19 16986279735788574788
14178342 30 17313100843744691223
14576447 43 17989483044043484858
14787075 74 18338240354473141216
15375462 189 18341323457347778320
15534591 1 11167943614573490253
15653759 3 16153702141507219706
16752209 62 18260553372284981677
16945 1 17846493721324744608
17804303 29 17241031172084406309
1813 80 18339061753228836444
18186145 218 14764343877135775376
18981168 100 9294445129931231301
19422 9 18338499902739621441
200 152 17703501173248939536
20291156 8 18410572889934959559
20361792 2 18413390916936290469
20671657 53 17632860858246867140
21033648 29 16733545052303252721
212916 134 17241878999103508049
21421861 104 17246122808954594911
21475661 188 4894175226513006699
21713013 43 17060052601945937971
21731516 1 18410581686027819365
22112679 90 18334282176151478857
2255824 54 18123745361898118741
22646028 28 18410571790439233991
23114952 82 15984812744844922934
232386 152 18113892732764517645
23402539 116 18272646892110028374
23419403 2 16668025025365384433
235170 7 15913321373235721894
23526113 38 16845577491549670849
23559900 14 16515952692739766189
23598288 3 18124884713779376948
238 59 17345213128647913251
2838139 119 12462412840838634326
46194498 28 16199581369074528991
465052 167 18265316336619423811
49207404 50 14635156668146302303
5161694 15 15769227153237528475
5262128 65 15051723209744226238
602551 16 17603302657129972030
7364860 26 17606112884022443065
7970288 3 18410849966871427747
83771 10 18410285913173798996
85463 6 18265350545427028298

> <PUBCHEM_SHAPE_MULTIPOLES>
391.16
7.7
2.51
1.95
0.24
0.71
0.01
-6.34
0.03
-0.08
-0.02
0.02
-0.65
-1.75

> <PUBCHEM_SHAPE_SELFOVERLAP>
815.258

> <PUBCHEM_SHAPE_VOLUME>
232.6

> <PUBCHEM_COORDINATE_TYPE>
2
5
10

$$$$

