17395782
  -OEChem-06241222522D

 49 52  0     0  0  0  0  0  0999 V2000
    4.6844   -0.2489    0.0000 S   0  0  0  0  0  0  0  0  0  0  0  0
    4.0696    1.6543    0.0000 O   0  0  0  0  0  0  0  0  0  0  0  0
    4.4026   -2.0085    0.0000 N   0  0  0  0  0  0  0  0  0  0  0  0
    5.9405   -2.5112    0.0000 N   0  0  0  0  0  0  0  0  0  0  0  0
    5.9422   -1.5112    0.0000 N   0  0  0  0  0  0  0  0  0  0  0  0
    4.6783   -5.3785    0.0000 N   0  0  0  0  0  0  0  0  0  0  0  0
    5.7178    2.1866    0.0000 N   0  0  0  0  0  0  0  0  0  0  0  0
    3.4026   -2.0068    0.0000 C   0  0  0  0  0  0  0  0  0  0  0  0
    2.5374   -1.5053    0.0000 C   0  0  0  0  0  0  0  0  0  0  0  0
    2.5357   -2.5053    0.0000 C   0  0  0  0  0  0  0  0  0  0  0  0
    4.9889   -2.8185    0.0000 C   0  0  0  0  0  0  0  0  0  0  0  0
    4.9917   -1.2005    0.0000 C   0  0  0  0  0  0  0  0  0  0  0  0
    4.6783   -3.7691    0.0000 C   0  0  0  0  0  0  0  0  0  0  0  0
    3.7320   -4.0738    0.0000 C   0  0  0  0  0  0  0  0  0  0  0  0
    5.2619   -4.5738    0.0000 C   0  0  0  0  0  0  0  0  0  0  0  0
    3.7320   -5.0738    0.0000 C   0  0  0  0  0  0  0  0  0  0  0  0
    5.3548    0.4931    0.0000 C   0  0  0  0  0  0  0  0  0  0  0  0
    2.8660   -3.5738    0.0000 C   0  0  0  0  0  0  0  0  0  0  0  0
    2.8660   -5.5738    0.0000 C   0  0  0  0  0  0  0  0  0  0  0  0
    5.0474    1.4447    0.0000 C   0  0  0  0  0  0  0  0  0  0  0  0
    2.0000   -4.0738    0.0000 C   0  0  0  0  0  0  0  0  0  0  0  0
    2.0000   -5.0738    0.0000 C   0  0  0  0  0  0  0  0  0  0  0  0
    5.4104    3.1382    0.0000 C   0  0  0  0  0  0  0  0  0  0  0  0
    6.0809    3.8802    0.0000 C   0  0  0  0  0  0  0  0  0  0  0  0
    5.7735    4.8318    0.0000 C   0  0  0  0  0  0  0  0  0  0  0  0
    6.4439    5.5738    0.0000 C   0  0  0  0  0  0  0  0  0  0  0  0
    3.5620   -2.6059    0.0000 H   0  0  0  0  0  0  0  0  0  0  0  0
    2.7504   -0.9230    0.0000 H   0  0  0  0  0  0  0  0  0  0  0  0
    1.9270   -1.3966    0.0000 H   0  0  0  0  0  0  0  0  0  0  0  0
    1.9249   -2.6119    0.0000 H   0  0  0  0  0  0  0  0  0  0  0  0
    2.7467   -3.0882    0.0000 H   0  0  0  0  0  0  0  0  0  0  0  0
    6.4415   -2.8765    0.0000 H   0  0  0  0  0  0  0  0  0  0  0  0
    5.8819   -4.5738    0.0000 H   0  0  0  0  0  0  0  0  0  0  0  0
    5.7356    0.0038    0.0000 H   0  0  0  0  0  0  0  0  0  0  0  0
    5.9027    0.7832    0.0000 H   0  0  0  0  0  0  0  0  0  0  0  0
    2.8660   -2.9538    0.0000 H   0  0  0  0  0  0  0  0  0  0  0  0
    2.8660   -6.1938    0.0000 H   0  0  0  0  0  0  0  0  0  0  0  0
    1.4631   -3.7638    0.0000 H   0  0  0  0  0  0  0  0  0  0  0  0
    5.0296    3.6275    0.0000 H   0  0  0  0  0  0  0  0  0  0  0  0
    4.8625    2.8481    0.0000 H   0  0  0  0  0  0  0  0  0  0  0  0
    1.4631   -5.3838    0.0000 H   0  0  0  0  0  0  0  0  0  0  0  0
    6.4617    3.3910    0.0000 H   0  0  0  0  0  0  0  0  0  0  0  0
    6.6288    4.1703    0.0000 H   0  0  0  0  0  0  0  0  0  0  0  0
    6.3240    2.0567    0.0000 H   0  0  0  0  0  0  0  0  0  0  0  0
    5.3926    5.3210    0.0000 H   0  0  0  0  0  0  0  0  0  0  0  0
    5.2256    4.5417    0.0000 H   0  0  0  0  0  0  0  0  0  0  0  0
    6.9039    5.1581    0.0000 H   0  0  0  0  0  0  0  0  0  0  0  0
    6.8596    6.0338    0.0000 H   0  0  0  0  0  0  0  0  0  0  0  0
    5.9839    5.9894    0.0000 H   0  0  0  0  0  0  0  0  0  0  0  0
  1 12  1  0  0  0  0
  1 17  1  0  0  0  0
  2 20  2  0  0  0  0
  3  8  1  0  0  0  0
  3 11  1  0  0  0  0
  3 12  1  0  0  0  0
  4  5  1  0  0  0  0
  4 11  1  0  0  0  0
  4 32  1  0  0  0  0
  5 12  2  0  0  0  0
  6 15  2  0  0  0  0
  6 16  1  0  0  0  0
  7 20  1  0  0  0  0
  7 23  1  0  0  0  0
  7 44  1  0  0  0  0
  8  9  1  0  0  0  0
  8 10  1  0  0  0  0
  8 27  1  0  0  0  0
  9 10  1  0  0  0  0
  9 28  1  0  0  0  0
  9 29  1  0  0  0  0
 10 30  1  0  0  0  0
 10 31  1  0  0  0  0
 11 13  2  0  0  0  0
 13 14  1  0  0  0  0
 13 15  1  0  0  0  0
 14 16  1  0  0  0  0
 14 18  2  0  0  0  0
 15 33  1  0  0  0  0
 16 19  2  0  0  0  0
 17 20  1  0  0  0  0
 17 34  1  0  0  0  0
 17 35  1  0  0  0  0
 18 21  1  0  0  0  0
 18 36  1  0  0  0  0
 19 22  1  0  0  0  0
 19 37  1  0  0  0  0
 21 22  2  0  0  0  0
 21 38  1  0  0  0  0
 22 41  1  0  0  0  0
 23 24  1  0  0  0  0
 23 39  1  0  0  0  0
 23 40  1  0  0  0  0
 24 25  1  0  0  0  0
 24 42  1  0  0  0  0
 24 43  1  0  0  0  0
 25 26  1  0  0  0  0
 25 45  1  0  0  0  0
 25 46  1  0  0  0  0
 26 47  1  0  0  0  0
 26 48  1  0  0  0  0
 26 49  1  0  0  0  0
M  END
> <PUBCHEM_COMPOUND_CID>
17395782

> <PUBCHEM_COMPOUND_CANONICALIZED>
1

> <PUBCHEM_CACTVS_COMPLEXITY>
640

> <PUBCHEM_CACTVS_HBOND_ACCEPTOR>
5

> <PUBCHEM_CACTVS_HBOND_DONOR>
2

> <PUBCHEM_CACTVS_ROTATABLE_BOND>
7

> <PUBCHEM_CACTVS_SUBSKEYS>
AAADceB7oABAAAAAAAAAAAAAGAAAAQIAAAAwAAAAAAAAAEABAAAAHgQYAAAADCjF2ASzwIPiAAioAjVzdACSAABgAhANiIAoZJiIICKAmZGEIABglgKIyAcQgIAOAAAAAAACAAAAAAAAAAQAAAAAAAAAAA==

> <PUBCHEM_IUPAC_OPENEYE_NAME>
N-butyl-2-[[(5Z)-4-cyclopropyl-5-indol-3-ylidene-1H-1,2,4-triazol-3-yl]sulfanyl]acetamide

> <PUBCHEM_IUPAC_CAS_NAME>
N-butyl-2-[[(5Z)-4-cyclopropyl-5-(3-indolylidene)-1H-1,2,4-triazol-3-yl]thio]acetamide

> <PUBCHEM_IUPAC_NAME>
N-butyl-2-[[(5Z)-4-cyclopropyl-5-indol-3-ylidene-1H-1,2,4-triazol-3-yl]sulfanyl]acetamide

> <PUBCHEM_IUPAC_SYSTEMATIC_NAME>
N-butyl-2-[[(5Z)-4-cyclopropyl-5-indol-3-ylidene-1H-1,2,4-triazol-3-yl]sulfanyl]ethanamide

> <PUBCHEM_IUPAC_TRADITIONAL_NAME>
N-butyl-2-[[(5Z)-4-cyclopropyl-5-indol-3-ylidene-1H-1,2,4-triazol-3-yl]thio]acetamide

> <PUBCHEM_IUPAC_INCHI>
InChI=1S/C19H23N5OS/c1-2-3-10-20-17(25)12-26-19-23-22-18(24(19)13-8-9-13)15-11-21-16-7-5-4-6-14(15)16/h4-7,11,13,22H,2-3,8-10,12H2,1H3,(H,20,25)/b18-15-

> <PUBCHEM_IUPAC_INCHIKEY>
XYFRCRXMKHCMEL-SDXDJHTJSA-N

> <PUBCHEM_XLOGP3_AA>
3

> <PUBCHEM_EXACT_MASS>
369.162331

> <PUBCHEM_MOLECULAR_FORMULA>
C19H23N5OS

> <PUBCHEM_MOLECULAR_WEIGHT>
369.48382

> <PUBCHEM_OPENEYE_CAN_SMILES>
CCCCNC(=O)CSC1=NNC(=C2C=NC3=CC=CC=C32)N1C4CC4

> <PUBCHEM_OPENEYE_ISO_SMILES>
CCCCNC(=O)CSC1=NN/C(=C/2\C=NC3=CC=CC=C32)/N1C4CC4

> <PUBCHEM_CACTVS_TPSA>
94.4

> <PUBCHEM_MONOISOTOPIC_WEIGHT>
369.162331

> <PUBCHEM_TOTAL_CHARGE>
0

> <PUBCHEM_HEAVY_ATOM_COUNT>
26

> <PUBCHEM_ATOM_DEF_STEREO_COUNT>
0

> <PUBCHEM_ATOM_UDEF_STEREO_COUNT>
0

> <PUBCHEM_BOND_DEF_STEREO_COUNT>
1

> <PUBCHEM_BOND_UDEF_STEREO_COUNT>
0

> <PUBCHEM_ISOTOPIC_ATOM_COUNT>
0

> <PUBCHEM_COMPONENT_COUNT>
1

> <PUBCHEM_CACTVS_TAUTO_COUNT>
6

> <PUBCHEM_COORDINATE_TYPE>
1
5
255

> <PUBCHEM_BONDANNOTATIONS>
14  16  8
14  18  8
16  19  8
18  21  8
19  22  8
21  22  8

$$$$

