11960
  -OEChem-06261206202D

 25 26  0     0  0  0  0  0  0999 V2000
    2.8660   -4.2500    0.0000 Cl  0  0  0  0  0  0  0  0  0  0  0  0
    3.7320    4.2500    0.0000 Cl  0  0  0  0  0  0  0  0  0  0  0  0
    2.0000    0.2500    0.0000 O   0  5  0  0  0  0  0  0  0  0  0  0
    2.8660   -0.2500    0.0000 N   0  3  0  0  0  0  0  0  0  0  0  0
    3.7320    0.2500    0.0000 N   0  0  0  0  0  0  0  0  0  0  0  0
    2.8660   -1.2500    0.0000 C   0  0  0  0  0  0  0  0  0  0  0  0
    3.7320    1.2500    0.0000 C   0  0  0  0  0  0  0  0  0  0  0  0
    2.0000   -1.7500    0.0000 C   0  0  0  0  0  0  0  0  0  0  0  0
    3.7320   -1.7500    0.0000 C   0  0  0  0  0  0  0  0  0  0  0  0
    4.5981    1.7500    0.0000 C   0  0  0  0  0  0  0  0  0  0  0  0
    2.8660    1.7500    0.0000 C   0  0  0  0  0  0  0  0  0  0  0  0
    2.0000   -2.7500    0.0000 C   0  0  0  0  0  0  0  0  0  0  0  0
    3.7320   -2.7500    0.0000 C   0  0  0  0  0  0  0  0  0  0  0  0
    2.8660   -3.2500    0.0000 C   0  0  0  0  0  0  0  0  0  0  0  0
    4.5981    2.7500    0.0000 C   0  0  0  0  0  0  0  0  0  0  0  0
    2.8660    2.7500    0.0000 C   0  0  0  0  0  0  0  0  0  0  0  0
    3.7320    3.2500    0.0000 C   0  0  0  0  0  0  0  0  0  0  0  0
    1.4631   -1.4400    0.0000 H   0  0  0  0  0  0  0  0  0  0  0  0
    4.2690   -1.4400    0.0000 H   0  0  0  0  0  0  0  0  0  0  0  0
    5.1350    1.4400    0.0000 H   0  0  0  0  0  0  0  0  0  0  0  0
    2.3291    1.4400    0.0000 H   0  0  0  0  0  0  0  0  0  0  0  0
    1.4631   -3.0600    0.0000 H   0  0  0  0  0  0  0  0  0  0  0  0
    4.2690   -3.0600    0.0000 H   0  0  0  0  0  0  0  0  0  0  0  0
    5.1350    3.0600    0.0000 H   0  0  0  0  0  0  0  0  0  0  0  0
    2.3291    3.0600    0.0000 H   0  0  0  0  0  0  0  0  0  0  0  0
  1 14  1  0  0  0  0
  2 17  1  0  0  0  0
  3  4  1  0  0  0  0
  4  5  2  0  0  0  0
  4  6  1  0  0  0  0
  5  7  1  0  0  0  0
  6  8  2  0  0  0  0
  6  9  1  0  0  0  0
  7 10  2  0  0  0  0
  7 11  1  0  0  0  0
  8 12  1  0  0  0  0
  8 18  1  0  0  0  0
  9 13  2  0  0  0  0
  9 19  1  0  0  0  0
 10 15  1  0  0  0  0
 10 20  1  0  0  0  0
 11 16  2  0  0  0  0
 11 21  1  0  0  0  0
 12 14  2  0  0  0  0
 12 22  1  0  0  0  0
 13 14  1  0  0  0  0
 13 23  1  0  0  0  0
 15 17  2  0  0  0  0
 15 24  1  0  0  0  0
 16 17  1  0  0  0  0
 16 25  1  0  0  0  0
M  CHG  2   3  -1   4   1
M  END
> <PUBCHEM_COMPOUND_CID>
11960

> <PUBCHEM_COMPOUND_CANONICALIZED>
1

> <PUBCHEM_CACTVS_COMPLEXITY>
270

> <PUBCHEM_CACTVS_HBOND_ACCEPTOR>
2

> <PUBCHEM_CACTVS_HBOND_DONOR>
0

> <PUBCHEM_CACTVS_ROTATABLE_BOND>
2

> <PUBCHEM_CACTVS_SUBSKEYS>
AAADccBzIAAGAAAAAAAAAAAAAAAAAAAAAAAwYAAAAAAAAAABQAAAHAIMAAAACAqBECAwwIAQAACCACRCQACCAAAgBwAoiAAAZooIICKBk5GAIABggAAIyAcQAAAAAABAAAAAAAAAAIAAAAAAAAAAAAAAAA==

> <PUBCHEM_IUPAC_OPENEYE_NAME>
(4-chlorophenyl)-(4-chlorophenyl)imino-oxido-ammonium

> <PUBCHEM_IUPAC_CAS_NAME>
(4-chlorophenyl)-(4-chlorophenyl)imino-oxidoammonium

> <PUBCHEM_IUPAC_NAME>
(4-chlorophenyl)-(4-chlorophenyl)imino-oxidoazanium

> <PUBCHEM_IUPAC_SYSTEMATIC_NAME>
(4-chlorophenyl)-(4-chlorophenyl)imino-oxidanidyl-azanium

> <PUBCHEM_IUPAC_TRADITIONAL_NAME>
(4-chlorophenyl)-(4-chlorophenyl)imino-oxido-ammonium

> <PUBCHEM_IUPAC_INCHI>
InChI=1S/C12H8Cl2N2O/c13-9-1-5-11(6-2-9)15-16(17)12-7-3-10(14)4-8-12/h1-8H

> <PUBCHEM_IUPAC_INCHIKEY>
NMAZIJPSESMWSA-UHFFFAOYSA-N

> <PUBCHEM_XLOGP3_AA>
4.4

> <PUBCHEM_EXACT_MASS>
266.001368

> <PUBCHEM_MOLECULAR_FORMULA>
C12H8Cl2N2O

> <PUBCHEM_MOLECULAR_WEIGHT>
267.11072

> <PUBCHEM_OPENEYE_CAN_SMILES>
C1=CC(=CC=C1N=[N+](C2=CC=C(C=C2)Cl)[O-])Cl

> <PUBCHEM_OPENEYE_ISO_SMILES>
C1=CC(=CC=C1N=[N+](C2=CC=C(C=C2)Cl)[O-])Cl

> <PUBCHEM_CACTVS_TPSA>
41.1

> <PUBCHEM_MONOISOTOPIC_WEIGHT>
266.001368

> <PUBCHEM_TOTAL_CHARGE>
0

> <PUBCHEM_HEAVY_ATOM_COUNT>
17

> <PUBCHEM_ATOM_DEF_STEREO_COUNT>
0

> <PUBCHEM_ATOM_UDEF_STEREO_COUNT>
0

> <PUBCHEM_BOND_DEF_STEREO_COUNT>
0

> <PUBCHEM_BOND_UDEF_STEREO_COUNT>
0

> <PUBCHEM_ISOTOPIC_ATOM_COUNT>
0

> <PUBCHEM_COMPONENT_COUNT>
1

> <PUBCHEM_CACTVS_TAUTO_COUNT>
1

> <PUBCHEM_COORDINATE_TYPE>
1
5
255

> <PUBCHEM_BONDANNOTATIONS>
10  15  8
11  16  8
12  14  8
13  14  8
15  17  8
16  17  8
6  8  8
6  9  8
7  10  8
7  11  8
8  12  8
9  13  8

$$$$

