249674
  -OEChem-07051213062D

 25 27  0     0  0  0  0  0  0999 V2000
    6.0682   -1.4626    0.0000 O   0  0  0  0  0  0  0  0  0  0  0  0
    7.8003   -1.4626    0.0000 O   0  0  0  0  0  0  0  0  0  0  0  0
    2.5381   -1.4867    0.0000 N   0  0  0  0  0  0  0  0  0  0  0  0
    5.2022    0.0374    0.0000 C   0  0  0  0  0  0  0  0  0  0  0  0
    6.0682    0.5374    0.0000 C   0  0  0  0  0  0  0  0  0  0  0  0
    6.9343    0.0374    0.0000 C   0  0  0  0  0  0  0  0  0  0  0  0
    5.2022   -0.9626    0.0000 C   0  0  0  0  0  0  0  0  0  0  0  0
    4.3083    0.5721    0.0000 C   0  0  0  0  0  0  0  0  0  0  0  0
    6.0522    1.5790    0.0000 C   0  0  0  0  0  0  0  0  0  0  0  0
    4.3083   -1.4972    0.0000 C   0  0  0  0  0  0  0  0  0  0  0  0
    6.9343   -0.9626    0.0000 C   0  0  0  0  0  0  0  0  0  0  0  0
    7.8443    0.5443    0.0000 C   0  0  0  0  0  0  0  0  0  0  0  0
    3.4022   -0.9834    0.0000 C   0  0  0  0  0  0  0  0  0  0  0  0
    3.4022    0.0583    0.0000 C   0  0  0  0  0  0  0  0  0  0  0  0
    6.9502    2.1067    0.0000 C   0  0  0  0  0  0  0  0  0  0  0  0
    7.8523    1.5859    0.0000 C   0  0  0  0  0  0  0  0  0  0  0  0
    4.3154    1.1921    0.0000 H   0  0  0  0  0  0  0  0  0  0  0  0
    5.5117    1.8827    0.0000 H   0  0  0  0  0  0  0  0  0  0  0  0
    4.3154   -2.1172    0.0000 H   0  0  0  0  0  0  0  0  0  0  0  0
    8.3776    0.2281    0.0000 H   0  0  0  0  0  0  0  0  0  0  0  0
    2.8665    0.3703    0.0000 H   0  0  0  0  0  0  0  0  0  0  0  0
    6.9478    2.7267    0.0000 H   0  0  0  0  0  0  0  0  0  0  0  0
    8.3904    1.8938    0.0000 H   0  0  0  0  0  0  0  0  0  0  0  0
    2.0000   -1.1788    0.0000 H   0  0  0  0  0  0  0  0  0  0  0  0
    2.5405   -2.1067    0.0000 H   0  0  0  0  0  0  0  0  0  0  0  0
  1  7  1  0  0  0  0
  1 11  1  0  0  0  0
  2 11  2  0  0  0  0
  3 13  1  0  0  0  0
  3 24  1  0  0  0  0
  3 25  1  0  0  0  0
  4  5  1  0  0  0  0
  4  7  2  0  0  0  0
  4  8  1  0  0  0  0
  5  6  1  0  0  0  0
  5  9  2  0  0  0  0
  6 11  1  0  0  0  0
  6 12  2  0  0  0  0
  7 10  1  0  0  0  0
  8 14  2  0  0  0  0
  8 17  1  0  0  0  0
  9 15  1  0  0  0  0
  9 18  1  0  0  0  0
 10 13  2  0  0  0  0
 10 19  1  0  0  0  0
 12 16  1  0  0  0  0
 12 20  1  0  0  0  0
 13 14  1  0  0  0  0
 14 21  1  0  0  0  0
 15 16  2  0  0  0  0
 15 22  1  0  0  0  0
 16 23  1  0  0  0  0
M  END
> <PUBCHEM_COMPOUND_CID>
249674

> <PUBCHEM_COMPOUND_CANONICALIZED>
1

> <PUBCHEM_CACTVS_COMPLEXITY>
292

> <PUBCHEM_CACTVS_HBOND_ACCEPTOR>
3

> <PUBCHEM_CACTVS_HBOND_DONOR>
1

> <PUBCHEM_CACTVS_ROTATABLE_BOND>
0

> <PUBCHEM_CACTVS_SUBSKEYS>
AAADccByMAAAAAAAAAAAAAAAAAAAAAAAAAA0YIAAAAAAAACRQAAAHgAQAAAADAyBmAAwzoBABACIAiTSSACCCAAkIgAIiAEGbMgMJjKEtZuCOyDm0BkI6YeY3OHOiAAAAgAYAAAQAAAEADAAAAAAAAAAAA==

> <PUBCHEM_IUPAC_OPENEYE_NAME>
3-aminobenzo[c]chromen-6-one

> <PUBCHEM_IUPAC_CAS_NAME>
3-amino-6-benzo[c][1]benzopyranone

> <PUBCHEM_IUPAC_NAME>
3-aminobenzo[c]chromen-6-one

> <PUBCHEM_IUPAC_SYSTEMATIC_NAME>
3-azanylbenzo[c]chromen-6-one

> <PUBCHEM_IUPAC_TRADITIONAL_NAME>
3-aminobenzo[c]chromen-6-one

> <PUBCHEM_IUPAC_INCHI>
InChI=1S/C13H9NO2/c14-8-5-6-10-9-3-1-2-4-11(9)13(15)16-12(10)7-8/h1-7H,14H2

> <PUBCHEM_IUPAC_INCHIKEY>
YQQVBNFLJJKBGW-UHFFFAOYSA-N

> <PUBCHEM_XLOGP3_AA>
2.4

> <PUBCHEM_EXACT_MASS>
211.063329

> <PUBCHEM_MOLECULAR_FORMULA>
C13H9NO2

> <PUBCHEM_MOLECULAR_WEIGHT>
211.21606

> <PUBCHEM_OPENEYE_CAN_SMILES>
C1=CC=C2C(=C1)C3=C(C=C(C=C3)N)OC2=O

> <PUBCHEM_OPENEYE_ISO_SMILES>
C1=CC=C2C(=C1)C3=C(C=C(C=C3)N)OC2=O

> <PUBCHEM_CACTVS_TPSA>
52.3

> <PUBCHEM_MONOISOTOPIC_WEIGHT>
211.063329

> <PUBCHEM_TOTAL_CHARGE>
0

> <PUBCHEM_HEAVY_ATOM_COUNT>
16

> <PUBCHEM_ATOM_DEF_STEREO_COUNT>
0

> <PUBCHEM_ATOM_UDEF_STEREO_COUNT>
0

> <PUBCHEM_BOND_DEF_STEREO_COUNT>
0

> <PUBCHEM_BOND_UDEF_STEREO_COUNT>
0

> <PUBCHEM_ISOTOPIC_ATOM_COUNT>
0

> <PUBCHEM_COMPONENT_COUNT>
1

> <PUBCHEM_CACTVS_TAUTO_COUNT>
6

> <PUBCHEM_COORDINATE_TYPE>
1
5
255

> <PUBCHEM_BONDANNOTATIONS>
1  11  8
1  7  8
10  13  8
12  16  8
13  14  8
15  16  8
4  5  8
4  7  8
4  8  8
5  6  8
5  9  8
6  11  8
6  12  8
7  10  8
8  14  8
9  15  8

$$$$

