14332
  -OEChem-06241222432D

 23 23  0     0  0  0  0  0  0999 V2000
    5.4641   -1.5600    0.0000 O   0  0  0  0  0  0  0  0  0  0  0  0
    2.0000   -1.5600    0.0000 O   0  0  0  0  0  0  0  0  0  0  0  0
    4.5981    1.9400    0.0000 O   0  0  0  0  0  0  0  0  0  0  0  0
    2.8660    1.9400    0.0000 O   0  0  0  0  0  0  0  0  0  0  0  0
    3.7320    0.4400    0.0000 C   0  0  0  0  0  0  0  0  0  0  0  0
    4.5981   -1.0600    0.0000 C   0  0  0  0  0  0  0  0  0  0  0  0
    2.8660   -1.0600    0.0000 C   0  0  0  0  0  0  0  0  0  0  0  0
    2.8660   -0.0600    0.0000 C   0  0  0  0  0  0  0  0  0  0  0  0
    4.5981   -0.0600    0.0000 C   0  0  0  0  0  0  0  0  0  0  0  0
    3.7320   -1.5600    0.0000 C   0  0  0  0  0  0  0  0  0  0  0  0
    3.7320    1.4400    0.0000 C   0  0  0  0  0  0  0  0  0  0  0  0
    5.4641   -2.5600    0.0000 C   0  0  0  0  0  0  0  0  0  0  0  0
    2.0000   -2.5600    0.0000 C   0  0  0  0  0  0  0  0  0  0  0  0
    2.3291    0.2500    0.0000 H   0  0  0  0  0  0  0  0  0  0  0  0
    5.1350    0.2500    0.0000 H   0  0  0  0  0  0  0  0  0  0  0  0
    3.7320   -2.1800    0.0000 H   0  0  0  0  0  0  0  0  0  0  0  0
    4.8441   -2.5600    0.0000 H   0  0  0  0  0  0  0  0  0  0  0  0
    5.4641   -3.1800    0.0000 H   0  0  0  0  0  0  0  0  0  0  0  0
    6.0841   -2.5600    0.0000 H   0  0  0  0  0  0  0  0  0  0  0  0
    1.3800   -2.5600    0.0000 H   0  0  0  0  0  0  0  0  0  0  0  0
    2.0000   -3.1800    0.0000 H   0  0  0  0  0  0  0  0  0  0  0  0
    2.6200   -2.5600    0.0000 H   0  0  0  0  0  0  0  0  0  0  0  0
    4.5981    2.5600    0.0000 H   0  0  0  0  0  0  0  0  0  0  0  0
  1  6  1  0  0  0  0
  1 12  1  0  0  0  0
  2  7  1  0  0  0  0
  2 13  1  0  0  0  0
  3 11  1  0  0  0  0
  3 23  1  0  0  0  0
  4 11  2  0  0  0  0
  5  8  2  0  0  0  0
  5  9  1  0  0  0  0
  5 11  1  0  0  0  0
  6  9  2  0  0  0  0
  6 10  1  0  0  0  0
  7  8  1  0  0  0  0
  7 10  2  0  0  0  0
  8 14  1  0  0  0  0
  9 15  1  0  0  0  0
 10 16  1  0  0  0  0
 12 17  1  0  0  0  0
 12 18  1  0  0  0  0
 12 19  1  0  0  0  0
 13 20  1  0  0  0  0
 13 21  1  0  0  0  0
 13 22  1  0  0  0  0
M  END
> <PUBCHEM_COMPOUND_CID>
14332

> <PUBCHEM_COMPOUND_CANONICALIZED>
1

> <PUBCHEM_CACTVS_COMPLEXITY>
169

> <PUBCHEM_CACTVS_HBOND_ACCEPTOR>
4

> <PUBCHEM_CACTVS_HBOND_DONOR>
1

> <PUBCHEM_CACTVS_ROTATABLE_BOND>
3

> <PUBCHEM_CACTVS_SUBSKEYS>
AAADccBwOAAAAAAAAAAAAAAAAAAAAAAAAAAwAAAAAAAAAAABAAAAGgAACAAADASAmAIyDoAABgCIAiDSCAACCAAkIAAAiAEGCMgMJzKENRqAcSAlwBUIuYfK6DyOAAABCAAAAAAAAAIQAAAAAAAAAAAAAA==

> <PUBCHEM_IUPAC_OPENEYE_NAME>
3,5-dimethoxybenzoic acid

> <PUBCHEM_IUPAC_CAS_NAME>
3,5-dimethoxybenzoic acid

> <PUBCHEM_IUPAC_NAME>
3,5-dimethoxybenzoic acid

> <PUBCHEM_IUPAC_SYSTEMATIC_NAME>
3,5-dimethoxybenzoic acid

> <PUBCHEM_IUPAC_TRADITIONAL_NAME>
3,5-dimethoxybenzoic acid

> <PUBCHEM_IUPAC_INCHI>
InChI=1S/C9H10O4/c1-12-7-3-6(9(10)11)4-8(5-7)13-2/h3-5H,1-2H3,(H,10,11)

> <PUBCHEM_IUPAC_INCHIKEY>
IWPZKOJSYQZABD-UHFFFAOYSA-N

> <PUBCHEM_XLOGP3>
2.2

> <PUBCHEM_EXACT_MASS>
182.057909

> <PUBCHEM_MOLECULAR_FORMULA>
C9H10O4

> <PUBCHEM_MOLECULAR_WEIGHT>
182.1733

> <PUBCHEM_OPENEYE_CAN_SMILES>
COC1=CC(=CC(=C1)C(=O)O)OC

> <PUBCHEM_OPENEYE_ISO_SMILES>
COC1=CC(=CC(=C1)C(=O)O)OC

> <PUBCHEM_CACTVS_TPSA>
55.8

> <PUBCHEM_MONOISOTOPIC_WEIGHT>
182.057909

> <PUBCHEM_TOTAL_CHARGE>
0

> <PUBCHEM_HEAVY_ATOM_COUNT>
13

> <PUBCHEM_ATOM_DEF_STEREO_COUNT>
0

> <PUBCHEM_ATOM_UDEF_STEREO_COUNT>
0

> <PUBCHEM_BOND_DEF_STEREO_COUNT>
0

> <PUBCHEM_BOND_UDEF_STEREO_COUNT>
0

> <PUBCHEM_ISOTOPIC_ATOM_COUNT>
0

> <PUBCHEM_COMPONENT_COUNT>
1

> <PUBCHEM_CACTVS_TAUTO_COUNT>
1

> <PUBCHEM_COORDINATE_TYPE>
1
5
255

> <PUBCHEM_BONDANNOTATIONS>
5  8  8
5  9  8
6  10  8
6  9  8
7  10  8
7  8  8

$$$$

