7807
  -OEChem-06261202213D

 14 14  0     0  0  0  0  0  0999 V2000
   -3.2248    0.0003   -0.0009 Br  0  0  0  0  0  0  0  0  0  0  0  0
    2.8652    0.0003   -0.0008 N   0  0  0  0  0  0  0  0  0  0  0  0
    1.4549   -0.0002    0.0000 C   0  0  0  0  0  0  0  0  0  0  0  0
    0.7573   -1.2081    0.0002 C   0  0  0  0  0  0  0  0  0  0  0  0
    0.7575    1.2078    0.0002 C   0  0  0  0  0  0  0  0  0  0  0  0
   -0.6376   -1.2080    0.0005 C   0  0  0  0  0  0  0  0  0  0  0  0
   -0.6374    1.2079    0.0005 C   0  0  0  0  0  0  0  0  0  0  0  0
   -1.3349    0.0000    0.0004 C   0  0  0  0  0  0  0  0  0  0  0  0
    1.2893   -2.1560    0.0000 H   0  0  0  0  0  0  0  0  0  0  0  0
    1.2896    2.1557   -0.0001 H   0  0  0  0  0  0  0  0  0  0  0  0
   -1.1660   -2.1579    0.0003 H   0  0  0  0  0  0  0  0  0  0  0  0
   -1.1657    2.1580    0.0003 H   0  0  0  0  0  0  0  0  0  0  0  0
    3.3717   -0.8751   -0.0003 H   0  0  0  0  0  0  0  0  0  0  0  0
    3.3712    0.8759   -0.0003 H   0  0  0  0  0  0  0  0  0  0  0  0
  1  8  1  0  0  0  0
  2  3  1  0  0  0  0
  2 13  1  0  0  0  0
  2 14  1  0  0  0  0
  3  4  2  0  0  0  0
  3  5  1  0  0  0  0
  4  6  1  0  0  0  0
  4  9  1  0  0  0  0
  5  7  2  0  0  0  0
  5 10  1  0  0  0  0
  6  8  2  0  0  0  0
  6 11  1  0  0  0  0
  7  8  1  0  0  0  0
  7 12  1  0  0  0  0
M  END
> <PUBCHEM_COMPOUND_CID>
7807

> <PUBCHEM_CONFORMER_RMSD>
0.4

> <PUBCHEM_CONFORMER_DIVERSEORDER>
1

> <PUBCHEM_MMFF94_PARTIAL_CHARGES>
14
1 -0.11
10 0.15
11 0.15
12 0.15
13 0.4
14 0.4
2 -0.9
3 0.1
4 -0.15
5 -0.15
6 -0.15
7 -0.15
8 0.11
9 0.15

> <PUBCHEM_EFFECTIVE_ROTOR_COUNT>
0

> <PUBCHEM_PHARMACOPHORE_FEATURES>
4
1 1 hydrophobe
1 2 cation
1 2 donor
6 3 4 5 6 7 8 rings

> <PUBCHEM_HEAVY_ATOM_COUNT>
8

> <PUBCHEM_ATOM_DEF_STEREO_COUNT>
0

> <PUBCHEM_ATOM_UDEF_STEREO_COUNT>
0

> <PUBCHEM_BOND_DEF_STEREO_COUNT>
0

> <PUBCHEM_BOND_UDEF_STEREO_COUNT>
0

> <PUBCHEM_ISOTOPIC_ATOM_COUNT>
0

> <PUBCHEM_COMPONENT_COUNT>
1

> <PUBCHEM_CACTVS_TAUTO_COUNT>
1

> <PUBCHEM_CONFORMER_ID>
00001E7F00000001

> <PUBCHEM_MMFF94_ENERGY>
27.0603

> <PUBCHEM_FEATURE_SELFOVERLAP>
20.297

> <PUBCHEM_SHAPE_FINGERPRINT>
14325111 11 18410575063520681729
16714656 1 18410572885819164990
16945 1 18410856559740009863
21040471 1 18194683665972991553
23235685 24 18410859853895575341
23402655 69 18193575561055115021
23552423 10 18055627571451917262
2748010 2 18122342372096637503
29004967 10 18343577460585103353
5084963 1 18260547826975793897

> <PUBCHEM_SHAPE_MULTIPOLES>
165.6
3.75
1.35
0.62
1.38
0
0
0
0
-0.1
0
0.09
0
0

> <PUBCHEM_SHAPE_SELFOVERLAP>
327.635

> <PUBCHEM_SHAPE_VOLUME>
102.3

> <PUBCHEM_COORDINATE_TYPE>
2
5
10

$$$$

