5320318
  -OEChem-07051213113D

 31 32  0     0  0  0  0  0  0999 V2000
    0.3233   -1.2763   -0.4558 O   0  0  0  0  0  0  0  0  0  0  0  0
   -0.4180    3.4605   -0.4396 O   0  0  0  0  0  0  0  0  0  0  0  0
    0.7010   -3.5351   -0.4544 O   0  0  0  0  0  0  0  0  0  0  0  0
   -0.0553    1.0921   -0.4503 C   0  0  0  0  0  0  0  0  0  0  0  0
   -1.4260    0.8569   -0.9935 C   0  0  0  0  0  0  0  0  0  0  0  0
    0.7996    0.0235   -0.1887 C   0  0  0  0  0  0  0  0  0  0  0  0
    2.0815    0.2180    0.3185 C   0  0  0  0  0  0  0  0  0  0  0  0
    0.3873    2.3885   -0.1963 C   0  0  0  0  0  0  0  0  0  0  0  0
   -2.4639    0.6822    0.0873 C   0  0  0  0  0  0  0  0  0  0  0  0
    2.5174    1.5208    0.5700 C   0  0  0  0  0  0  0  0  0  0  0  0
    1.6705    2.6027    0.3125 C   0  0  0  0  0  0  0  0  0  0  0  0
   -3.2333   -0.3953    0.3334 C   0  0  0  0  0  0  0  0  0  0  0  0
    2.9200   -0.9420    0.5680 C   0  0  0  0  0  0  0  0  0  0  0  0
    2.4617   -2.1699    0.3120 C   0  0  0  0  0  0  0  0  0  0  0  0
    1.1082   -2.4014   -0.2255 C   0  0  0  0  0  0  0  0  0  0  0  0
   -4.2519   -0.5014    1.4327 C   0  0  0  0  0  0  0  0  0  0  0  0
   -3.1223   -1.6237   -0.5302 C   0  0  0  0  0  0  0  0  0  0  0  0
   -1.7357    1.7183   -1.6011 H   0  0  0  0  0  0  0  0  0  0  0  0
   -1.3989    0.0472   -1.7257 H   0  0  0  0  0  0  0  0  0  0  0  0
   -2.5985    1.5477    0.7358 H   0  0  0  0  0  0  0  0  0  0  0  0
    3.5122    1.7090    0.9659 H   0  0  0  0  0  0  0  0  0  0  0  0
    2.0255    3.6102    0.5139 H   0  0  0  0  0  0  0  0  0  0  0  0
    3.9189   -0.7946    0.9633 H   0  0  0  0  0  0  0  0  0  0  0  0
    3.0817   -3.0406    0.4956 H   0  0  0  0  0  0  0  0  0  0  0  0
   -4.3024    0.4183    2.0247 H   0  0  0  0  0  0  0  0  0  0  0  0
   -5.2469   -0.6858    1.0151 H   0  0  0  0  0  0  0  0  0  0  0  0
   -3.9981   -1.3223    2.1109 H   0  0  0  0  0  0  0  0  0  0  0  0
   -2.3331   -1.6146   -1.2800 H   0  0  0  0  0  0  0  0  0  0  0  0
   -2.9337   -2.4989    0.1024 H   0  0  0  0  0  0  0  0  0  0  0  0
   -4.0683   -1.7891   -1.0574 H   0  0  0  0  0  0  0  0  0  0  0  0
    0.0578    4.2752   -0.2031 H   0  0  0  0  0  0  0  0  0  0  0  0
  1  6  1  0  0  0  0
  1 15  1  0  0  0  0
  2  8  1  0  0  0  0
  2 31  1  0  0  0  0
  3 15  2  0  0  0  0
  4  5  1  0  0  0  0
  4  6  1  0  0  0  0
  4  8  2  0  0  0  0
  5  9  1  0  0  0  0
  5 18  1  0  0  0  0
  5 19  1  0  0  0  0
  6  7  2  0  0  0  0
  7 10  1  0  0  0  0
  7 13  1  0  0  0  0
  8 11  1  0  0  0  0
  9 12  2  0  0  0  0
  9 20  1  0  0  0  0
 10 11  2  0  0  0  0
 10 21  1  0  0  0  0
 11 22  1  0  0  0  0
 12 16  1  0  0  0  0
 12 17  1  0  0  0  0
 13 14  2  0  0  0  0
 13 23  1  0  0  0  0
 14 15  1  0  0  0  0
 14 24  1  0  0  0  0
 16 25  1  0  0  0  0
 16 26  1  0  0  0  0
 16 27  1  0  0  0  0
 17 28  1  0  0  0  0
 17 29  1  0  0  0  0
 17 30  1  0  0  0  0
M  END
> <PUBCHEM_COMPOUND_CID>
5320318

> <PUBCHEM_CONFORMER_RMSD>
0.6

> <PUBCHEM_CONFORMER_DIVERSEORDER>
1
10
3
14
13
12
9
5
11
7
4
2
8
6

> <PUBCHEM_MMFF94_PARTIAL_CHARGES>
23
1 -0.23
10 -0.15
11 -0.15
12 -0.28
13 -0.18
14 -0.14
15 0.71
16 0.14
17 0.14
2 -0.53
20 0.15
21 0.15
22 0.15
23 0.15
24 0.15
3 -0.57
31 0.45
4 -0.14
5 0.28
6 0.08
7 0.03
8 0.08
9 -0.29

> <PUBCHEM_EFFECTIVE_ROTOR_COUNT>
2

> <PUBCHEM_PHARMACOPHORE_FEATURES>
5
1 2 donor
1 3 acceptor
3 12 16 17 hydrophobe
6 1 6 7 13 14 15 rings
6 4 6 7 8 10 11 rings

> <PUBCHEM_HEAVY_ATOM_COUNT>
17

> <PUBCHEM_ATOM_DEF_STEREO_COUNT>
0

> <PUBCHEM_ATOM_UDEF_STEREO_COUNT>
0

> <PUBCHEM_BOND_DEF_STEREO_COUNT>
0

> <PUBCHEM_BOND_UDEF_STEREO_COUNT>
0

> <PUBCHEM_ISOTOPIC_ATOM_COUNT>
0

> <PUBCHEM_COMPONENT_COUNT>
1

> <PUBCHEM_CACTVS_TAUTO_COUNT>
3

> <PUBCHEM_CONFORMER_ID>
00512E7E00000001

> <PUBCHEM_MMFF94_ENERGY>
45.5802

> <PUBCHEM_FEATURE_SELFOVERLAP>
25.399

> <PUBCHEM_SHAPE_FINGERPRINT>
10064457 181 17974839584606436609
10493431 412 17976823086456491800
10967382 1 18194692457807937398
11067466 332 18200861916293405988
11471102 22 18341330015736510993
11578080 2 16954833827603999345
12553582 1 18338515347632019535
12954195 1 16323416906752945380
13140716 1 18337686281451878808
14178342 30 18335708234522350969
14251705 54 18339923839043409522
14790565 3 18267855091276997204
15309172 13 18194684765622003257
16945 1 18193288604950606148
19591789 44 18267304240519650948
20645477 70 18270694077918042663
20739085 24 18341316834361040824
21197605 99 17477471016354201379
2255824 54 18196080058841719765
2334 1 18338530624840870692
2748010 2 18267888183999278948
33824 294 18267872674956528507
458136 41 18196639718660262156
54173680 148 17473826603026210234
6443956 14 18341614836951700565
7364860 26 18409444765493390587
81228 2 17836090348118429257
8809292 202 17112135698906925470

> <PUBCHEM_SHAPE_MULTIPOLES>
332.24
5.37
3.71
0.92
5.5
0.21
0.13
1.53
2.06
-2.1
-0.56
0.55
0.01
0.15

> <PUBCHEM_SHAPE_SELFOVERLAP>
708.056

> <PUBCHEM_SHAPE_VOLUME>
184.9

> <PUBCHEM_COORDINATE_TYPE>
2
5
10

$$$$

