5280968
  -OEChem-07051212512D

 26 26  0     0  0  0  0  0  0999 V2000
    2.8660   -4.4050    0.0000 Cl  0  0  0  0  0  0  0  0  0  0  0  0
    2.0000    0.0950    0.0000 O   0  0  0  0  0  0  0  0  0  0  0  0
    3.7320    3.0950    0.0000 O   0  0  0  0  0  0  0  0  0  0  0  0
    5.4641    4.0950    0.0000 O   0  0  0  0  0  0  0  0  0  0  0  0
    6.3301    2.5950    0.0000 O   0  0  0  0  0  0  0  0  0  0  0  0
    2.8660   -1.4050    0.0000 C   0  0  0  0  0  0  0  0  0  0  0  0
    2.8660   -0.4050    0.0000 C   0  0  0  0  0  0  0  0  0  0  0  0
    2.0000   -1.9050    0.0000 C   0  0  0  0  0  0  0  0  0  0  0  0
    3.7320   -1.9050    0.0000 C   0  0  0  0  0  0  0  0  0  0  0  0
    2.0000   -2.9050    0.0000 C   0  0  0  0  0  0  0  0  0  0  0  0
    3.7320   -2.9050    0.0000 C   0  0  0  0  0  0  0  0  0  0  0  0
    2.8660   -3.4050    0.0000 C   0  0  0  0  0  0  0  0  0  0  0  0
    3.7320    0.0950    0.0000 C   0  0  0  0  0  0  0  0  0  0  0  0
    3.7320    1.0950    0.0000 C   0  0  0  0  0  0  0  0  0  0  0  0
    4.5981    1.5950    0.0000 C   0  0  0  0  0  0  0  0  0  0  0  0
    4.5981    2.5950    0.0000 C   0  0  0  0  0  0  0  0  0  0  0  0
    5.4641    3.0950    0.0000 C   0  0  0  0  0  0  0  0  0  0  0  0
    1.4631   -1.5950    0.0000 H   0  0  0  0  0  0  0  0  0  0  0  0
    4.2690   -1.5950    0.0000 H   0  0  0  0  0  0  0  0  0  0  0  0
    1.4631   -3.2150    0.0000 H   0  0  0  0  0  0  0  0  0  0  0  0
    4.2690   -3.2150    0.0000 H   0  0  0  0  0  0  0  0  0  0  0  0
    4.2690   -0.2150    0.0000 H   0  0  0  0  0  0  0  0  0  0  0  0
    3.1951    1.4050    0.0000 H   0  0  0  0  0  0  0  0  0  0  0  0
    5.1350    1.2850    0.0000 H   0  0  0  0  0  0  0  0  0  0  0  0
    2.0000    0.7150    0.0000 H   0  0  0  0  0  0  0  0  0  0  0  0
    6.0010    4.4050    0.0000 H   0  0  0  0  0  0  0  0  0  0  0  0
  1 12  1  0  0  0  0
  2  7  1  0  0  0  0
  2 25  1  0  0  0  0
  3 16  2  0  0  0  0
  4 17  1  0  0  0  0
  4 26  1  0  0  0  0
  5 17  2  0  0  0  0
  6  7  1  0  0  0  0
  6  8  2  0  0  0  0
  6  9  1  0  0  0  0
  7 13  2  0  0  0  0
  8 10  1  0  0  0  0
  8 18  1  0  0  0  0
  9 11  2  0  0  0  0
  9 19  1  0  0  0  0
 10 12  2  0  0  0  0
 10 20  1  0  0  0  0
 11 12  1  0  0  0  0
 11 21  1  0  0  0  0
 13 14  1  0  0  0  0
 13 22  1  0  0  0  0
 14 15  2  0  0  0  0
 14 23  1  0  0  0  0
 15 16  1  0  0  0  0
 15 24  1  0  0  0  0
 16 17  1  0  0  0  0
M  END
> <PUBCHEM_COMPOUND_CID>
5280968

> <PUBCHEM_COMPOUND_CANONICALIZED>
1

> <PUBCHEM_CACTVS_COMPLEXITY>
352

> <PUBCHEM_CACTVS_HBOND_ACCEPTOR>
4

> <PUBCHEM_CACTVS_HBOND_DONOR>
2

> <PUBCHEM_CACTVS_ROTATABLE_BOND>
4

> <PUBCHEM_CACTVS_SUBSKEYS>
AAADccBwOAAEAAAAAAAAAAAAAAAAAAAAAAAwAAAAAAAAAAABAAAAGgIACAAADAaAmCAwCIAAAgCIAqDSCAICAAAgJQAIiAFACsgIJiKBExCAcAAkwAEImYeAwCAOBAAAAAAAAAAIAAAAAAAAAAAAAAAAAA==

> <PUBCHEM_IUPAC_OPENEYE_NAME>
(3E,5Z)-6-(4-chlorophenyl)-6-hydroxy-2-oxo-hexa-3,5-dienoic acid

> <PUBCHEM_IUPAC_CAS_NAME>
(3E,5Z)-6-(4-chlorophenyl)-6-hydroxy-2-oxohexa-3,5-dienoic acid

> <PUBCHEM_IUPAC_NAME>
(3E,5Z)-6-(4-chlorophenyl)-6-hydroxy-2-oxohexa-3,5-dienoic acid

> <PUBCHEM_IUPAC_SYSTEMATIC_NAME>
(3E,5Z)-6-(4-chlorophenyl)-6-oxidanyl-2-oxidanylidene-hexa-3,5-dienoic acid

> <PUBCHEM_IUPAC_TRADITIONAL_NAME>
(3E,5Z)-6-(4-chlorophenyl)-6-hydroxy-2-keto-hexa-3,5-dienoic acid

> <PUBCHEM_IUPAC_INCHI>
InChI=1S/C12H9ClO4/c13-9-6-4-8(5-7-9)10(14)2-1-3-11(15)12(16)17/h1-7,14H,(H,16,17)/b3-1+,10-2-

> <PUBCHEM_IUPAC_INCHIKEY>
AIUXSVZNECQYBE-PGSNLPAFSA-N

> <PUBCHEM_XLOGP3_AA>
2.5

> <PUBCHEM_EXACT_MASS>
252.018936

> <PUBCHEM_MOLECULAR_FORMULA>
C12H9ClO4

> <PUBCHEM_MOLECULAR_WEIGHT>
252.65046

> <PUBCHEM_OPENEYE_CAN_SMILES>
C1=CC(=CC=C1C(=CC=CC(=O)C(=O)O)O)Cl

> <PUBCHEM_OPENEYE_ISO_SMILES>
C1=CC(=CC=C1/C(=C/C=C/C(=O)C(=O)O)/O)Cl

> <PUBCHEM_CACTVS_TPSA>
74.6

> <PUBCHEM_MONOISOTOPIC_WEIGHT>
252.018936

> <PUBCHEM_TOTAL_CHARGE>
0

> <PUBCHEM_HEAVY_ATOM_COUNT>
17

> <PUBCHEM_ATOM_DEF_STEREO_COUNT>
0

> <PUBCHEM_ATOM_UDEF_STEREO_COUNT>
0

> <PUBCHEM_BOND_DEF_STEREO_COUNT>
2

> <PUBCHEM_BOND_UDEF_STEREO_COUNT>
0

> <PUBCHEM_ISOTOPIC_ATOM_COUNT>
0

> <PUBCHEM_COMPONENT_COUNT>
1

> <PUBCHEM_CACTVS_TAUTO_COUNT>
4

> <PUBCHEM_COORDINATE_TYPE>
1
5
255

> <PUBCHEM_BONDANNOTATIONS>
10  12  8
11  12  8
6  8  8
6  9  8
8  10  8
9  11  8

$$$$

