17396410
  -OEChem-06241222563D

 42 44  0     0  0  0  0  0  0999 V2000
   -5.9966   -0.7864    0.3317 O   0  0  0  0  0  0  0  0  0  0  0  0
    5.7800    0.3471   -0.2063 O   0  0  0  0  0  0  0  0  0  0  0  0
    4.1768   -1.8765   -0.6644 O   0  0  0  0  0  0  0  0  0  0  0  0
   -0.3076    1.9441   -0.5273 O   0  0  0  0  0  0  0  0  0  0  0  0
   -0.5450   -0.2970    0.1422 N   0  0  0  0  0  0  0  0  0  0  0  0
   -5.2123    1.2499   -0.2809 N   0  0  0  0  0  0  0  0  0  0  0  0
   -1.9293   -0.4689    0.2045 C   0  0  0  0  0  0  0  0  0  0  0  0
   -4.1558    0.4057   -0.0379 C   0  0  0  0  0  0  0  0  0  0  0  0
   -4.6321   -0.8418    0.3376 C   0  0  0  0  0  0  0  0  0  0  0  0
    1.6449    0.7203   -0.2085 C   0  0  0  0  0  0  0  0  0  0  0  0
   -2.7701    0.6085   -0.1096 C   0  0  0  0  0  0  0  0  0  0  0  0
   -2.4520   -1.7129    0.5793 C   0  0  0  0  0  0  0  0  0  0  0  0
   -3.8317   -1.9319    0.6558 C   0  0  0  0  0  0  0  0  0  0  0  0
    0.1648    0.8585   -0.2077 C   0  0  0  0  0  0  0  0  0  0  0  0
    2.2291   -0.5253   -0.4387 C   0  0  0  0  0  0  0  0  0  0  0  0
    4.4226    0.4609   -0.2080 C   0  0  0  0  0  0  0  0  0  0  0  0
    3.6179   -0.6549   -0.4386 C   0  0  0  0  0  0  0  0  0  0  0  0
    2.4494    1.8362    0.0221 C   0  0  0  0  0  0  0  0  0  0  0  0
    3.8383    1.7065    0.0225 C   0  0  0  0  0  0  0  0  0  0  0  0
   -6.2632    0.4948   -0.0474 C   0  0  0  0  0  0  0  0  0  0  0  0
   -7.6864    0.8529   -0.1450 C   0  0  0  0  0  0  0  0  0  0  0  0
    6.4590    0.7059    0.9956 C   0  0  0  0  0  0  0  0  0  0  0  0
    7.7149   -0.1301    1.1206 C   0  0  0  0  0  0  0  0  0  0  0  0
    3.2843   -2.9656   -0.8914 C   0  0  0  0  0  0  0  0  0  0  0  0
   -2.4410    1.5916   -0.4052 H   0  0  0  0  0  0  0  0  0  0  0  0
   -1.7831   -2.5374    0.8190 H   0  0  0  0  0  0  0  0  0  0  0  0
   -0.0178   -1.1156    0.4325 H   0  0  0  0  0  0  0  0  0  0  0  0
   -4.2460   -2.8899    0.9443 H   0  0  0  0  0  0  0  0  0  0  0  0
    1.5837   -1.3637   -0.6659 H   0  0  0  0  0  0  0  0  0  0  0  0
    2.0137    2.8145    0.2071 H   0  0  0  0  0  0  0  0  0  0  0  0
    4.4524    2.5858    0.1965 H   0  0  0  0  0  0  0  0  0  0  0  0
    5.8238    0.5349    1.8737 H   0  0  0  0  0  0  0  0  0  0  0  0
    6.7215    1.7685    0.9512 H   0  0  0  0  0  0  0  0  0  0  0  0
   -8.1923    0.2211   -0.8812 H   0  0  0  0  0  0  0  0  0  0  0  0
   -8.1823    0.7248    0.8218 H   0  0  0  0  0  0  0  0  0  0  0  0
   -7.8039    1.8962   -0.4529 H   0  0  0  0  0  0  0  0  0  0  0  0
    8.2680    0.1281    2.0280 H   0  0  0  0  0  0  0  0  0  0  0  0
    8.3670    0.0212    0.2541 H   0  0  0  0  0  0  0  0  0  0  0  0
    7.4664   -1.1963    1.1495 H   0  0  0  0  0  0  0  0  0  0  0  0
    2.6505   -3.1596   -0.0193 H   0  0  0  0  0  0  0  0  0  0  0  0
    2.7043   -2.8278   -1.8103 H   0  0  0  0  0  0  0  0  0  0  0  0
    3.9000   -3.8593   -1.0386 H   0  0  0  0  0  0  0  0  0  0  0  0
  1  9  1  0  0  0  0
  1 20  1  0  0  0  0
  2 16  1  0  0  0  0
  2 22  1  0  0  0  0
  3 17  1  0  0  0  0
  3 24  1  0  0  0  0
  4 14  2  0  0  0  0
  5  7  1  0  0  0  0
  5 14  1  0  0  0  0
  5 27  1  0  0  0  0
  6  8  1  0  0  0  0
  6 20  2  0  0  0  0
  7 11  2  0  0  0  0
  7 12  1  0  0  0  0
  8  9  2  0  0  0  0
  8 11  1  0  0  0  0
  9 13  1  0  0  0  0
 10 14  1  0  0  0  0
 10 15  2  0  0  0  0
 10 18  1  0  0  0  0
 11 25  1  0  0  0  0
 12 13  2  0  0  0  0
 12 26  1  0  0  0  0
 13 28  1  0  0  0  0
 15 17  1  0  0  0  0
 15 29  1  0  0  0  0
 16 17  2  0  0  0  0
 16 19  1  0  0  0  0
 18 19  2  0  0  0  0
 18 30  1  0  0  0  0
 19 31  1  0  0  0  0
 20 21  1  0  0  0  0
 21 34  1  0  0  0  0
 21 35  1  0  0  0  0
 21 36  1  0  0  0  0
 22 23  1  0  0  0  0
 22 32  1  0  0  0  0
 22 33  1  0  0  0  0
 23 37  1  0  0  0  0
 23 38  1  0  0  0  0
 23 39  1  0  0  0  0
 24 40  1  0  0  0  0
 24 41  1  0  0  0  0
 24 42  1  0  0  0  0
M  END
> <PUBCHEM_COMPOUND_CID>
17396410

> <PUBCHEM_CONFORMER_RMSD>
0.8

> <PUBCHEM_CONFORMER_DIVERSEORDER>
2
6
9
13
25
11
14
18
24
22
28
10
23
7
12
19
5
1
15
3
8
16
27
26
21
17
20
4

> <PUBCHEM_MMFF94_PARTIAL_CHARGES>
30
1 -0.28
10 0.09
11 -0.15
12 -0.15
13 -0.15
14 0.54
15 -0.15
16 0.08
17 0.08
18 -0.15
19 -0.15
2 -0.36
20 0.3
21 0.18
22 0.28
24 0.28
25 0.15
26 0.15
27 0.37
28 0.15
29 0.15
3 -0.36
30 0.15
31 0.15
4 -0.57
5 -0.55
6 -0.57
7 0.12
8 0.23
9 0.14

> <PUBCHEM_EFFECTIVE_ROTOR_COUNT>
6

> <PUBCHEM_PHARMACOPHORE_FEATURES>
7
1 2 acceptor
1 3 acceptor
1 4 acceptor
1 5 donor
5 1 6 8 9 20 rings
6 10 15 16 17 18 19 rings
6 7 8 9 11 12 13 rings

> <PUBCHEM_HEAVY_ATOM_COUNT>
24

> <PUBCHEM_ATOM_DEF_STEREO_COUNT>
0

> <PUBCHEM_ATOM_UDEF_STEREO_COUNT>
0

> <PUBCHEM_BOND_DEF_STEREO_COUNT>
0

> <PUBCHEM_BOND_UDEF_STEREO_COUNT>
0

> <PUBCHEM_ISOTOPIC_ATOM_COUNT>
0

> <PUBCHEM_COMPONENT_COUNT>
1

> <PUBCHEM_CACTVS_TAUTO_COUNT>
2

> <PUBCHEM_CONFORMER_ID>
010972BA00000002

> <PUBCHEM_MMFF94_ENERGY>
77.7555

> <PUBCHEM_FEATURE_SELFOVERLAP>
35.643

> <PUBCHEM_SHAPE_FINGERPRINT>
10299344 5 17489871531671217496
10835480 77 18337392643334163689
11089746 13 17240767250496785136
11315181 36 18040431062794716377
11719270 70 18407760335819573758
12166972 35 9007056876802723526
12236239 1 16988561277533242237
12516196 113 18040151807698971040
12596602 18 16370726985303947390
12616971 3 13038901093120730275
12838862 33 18338532888082907150
13073987 5 18188485890857941521
13402501 40 18413103965723380950
13533116 47 18040997388112423051
14123256 10 7925913690063558513
14251764 18 18342740693412900369
15183329 4 18410568513859131233
1813 80 16917345926850930061
19141452 34 18341048528333860287
20511986 3 17676780798389050487
20645477 70 18261105309504757310
21095086 128 14045740418210463641
21150785 3 5545195047426838096
21279426 13 18267866279924421997
21315759 40 14979955861443797801
2215653 11 18409163338014716543
22224240 67 18041287582742974834
23559900 14 18409168775105897897
239999 70 18187634809340404918
26918003 58 18408884010141845496
300161 21 17603588516972671846
3004659 81 18202277022529672094
335352 9 18343021068830666765
3545911 37 18411134723460634525
3633792 109 18114177592444385435
4073 2 18059569127226699435
4214541 1 18341328912383576741
4340502 62 18186804669513657982
5104073 3 18189612916267554368
5385378 56 18130222783283312755
559249 180 18272654511313621731
9995097 60 18410011018023435415

> <PUBCHEM_SHAPE_MULTIPOLES>
460.47
19.6
2.11
0.83
3.37
1.08
0.08
-1.9
3.55
-1
-0.34
-0.75
0.17
1.29

> <PUBCHEM_SHAPE_SELFOVERLAP>
998.997

> <PUBCHEM_SHAPE_VOLUME>
253.9

> <PUBCHEM_COORDINATE_TYPE>
2
5
10

$$$$

