12290
  -OEChem-06261206463D

 12 12  0     0  0  0  0  0  0999 V2000
    2.2734    0.0000    0.0005 O   0  0  0  0  0  0  0  0  0  0  0  0
   -1.7372    0.0000    0.0003 N   0  0  0  0  0  0  0  0  0  0  0  0
    1.0473    0.0000   -0.0003 C   0  0  0  0  0  0  0  0  0  0  0  0
    0.2725   -1.2786   -0.0004 C   0  0  0  0  0  0  0  0  0  0  0  0
    0.2726    1.2786   -0.0003 C   0  0  0  0  0  0  0  0  0  0  0  0
   -1.0643   -1.1908    0.0002 C   0  0  0  0  0  0  0  0  0  0  0  0
   -1.0643    1.1909    0.0000 C   0  0  0  0  0  0  0  0  0  0  0  0
    0.8021   -2.2221   -0.0006 H   0  0  0  0  0  0  0  0  0  0  0  0
    0.8022    2.2220   -0.0004 H   0  0  0  0  0  0  0  0  0  0  0  0
   -1.7054   -2.0634    0.0004 H   0  0  0  0  0  0  0  0  0  0  0  0
   -1.7053    2.0635    0.0002 H   0  0  0  0  0  0  0  0  0  0  0  0
   -2.7489    0.0001    0.0006 H   0  0  0  0  0  0  0  0  0  0  0  0
  1  3  2  0  0  0  0
  2  6  1  0  0  0  0
  2  7  1  0  0  0  0
  2 12  1  0  0  0  0
  3  4  1  0  0  0  0
  3  5  1  0  0  0  0
  4  6  2  0  0  0  0
  4  8  1  0  0  0  0
  5  7  2  0  0  0  0
  5  9  1  0  0  0  0
  6 10  1  0  0  0  0
  7 11  1  0  0  0  0
M  END
> <PUBCHEM_COMPOUND_CID>
12290

> <PUBCHEM_CONFORMER_RMSD>
0.4

> <PUBCHEM_CONFORMER_DIVERSEORDER>
1

> <PUBCHEM_MMFF94_PARTIAL_CHARGES>
12
1 -0.57
10 0.15
11 0.15
12 0.4
2 -0.6
3 0.54
4 -0.14
5 -0.14
6 -0.05
7 -0.05
8 0.15
9 0.15

> <PUBCHEM_EFFECTIVE_ROTOR_COUNT>
0

> <PUBCHEM_PHARMACOPHORE_FEATURES>
4
1 1 acceptor
1 2 cation
1 2 donor
6 2 3 4 5 6 7 rings

> <PUBCHEM_HEAVY_ATOM_COUNT>
7

> <PUBCHEM_ATOM_DEF_STEREO_COUNT>
0

> <PUBCHEM_ATOM_UDEF_STEREO_COUNT>
0

> <PUBCHEM_BOND_DEF_STEREO_COUNT>
0

> <PUBCHEM_BOND_UDEF_STEREO_COUNT>
0

> <PUBCHEM_ISOTOPIC_ATOM_COUNT>
0

> <PUBCHEM_COMPONENT_COUNT>
1

> <PUBCHEM_CACTVS_TAUTO_COUNT>
3

> <PUBCHEM_CONFORMER_ID>
0000300200000001

> <PUBCHEM_MMFF94_ENERGY>
15.7577

> <PUBCHEM_FEATURE_SELFOVERLAP>
20.297

> <PUBCHEM_SHAPE_FINGERPRINT>
16714656 1 18410849962765188838
18185500 45 18341052917262863886
20096714 4 18050003595155612219
21040471 1 18266740375152769440
23552423 10 18272644684344169214
29004967 10 18272922817429784593

> <PUBCHEM_SHAPE_MULTIPOLES>
133.21
2.06
1.53
0.59
0.62
0
0
0
0
-0.31
0
-0.01
0
0

> <PUBCHEM_SHAPE_SELFOVERLAP>
272.446

> <PUBCHEM_SHAPE_VOLUME>
75.7

> <PUBCHEM_COORDINATE_TYPE>
2
5
10

$$$$

