4308
  -OEChem-06261200023D

 49 51  0     1  0  0  0  0  0999 V2000
   -0.1608   -0.2663    0.9145 O   0  0  0  0  0  0  0  0  0  0  0  0
   -3.3107   -2.5918   -0.2312 O   0  0  0  0  0  0  0  0  0  0  0  0
   -2.0049   -0.4728    2.2681 O   0  0  0  0  0  0  0  0  0  0  0  0
   -5.4386   -1.8350   -0.1236 O   0  0  0  0  0  0  0  0  0  0  0  0
   -2.2129   -0.1839   -0.0244 N   0  0  0  0  0  0  0  0  0  0  0  0
    2.1341   -0.3092    1.5767 C   0  0  0  0  0  0  0  0  0  0  0  0
    2.4607   -1.3193    0.4860 C   0  0  0  0  0  0  0  0  0  0  0  0
    2.4489    1.0062    0.8785 C   0  0  0  0  0  0  0  0  0  0  0  0
    2.9183   -0.6586   -0.6765 C   0  0  0  0  0  0  0  0  0  0  0  0
    2.9111    0.7682   -0.4356 C   0  0  0  0  0  0  0  0  0  0  0  0
    0.6861   -0.3950    2.0426 C   0  0  0  0  0  0  0  0  0  0  0  0
   -4.1850    0.7187   -1.2181 C   0  0  0  0  0  0  0  0  0  0  0  0
   -3.6824    2.1802   -1.2427 C   0  0  0  0  0  0  0  0  0  0  0  0
    2.3725   -2.7008    0.5400 C   0  0  0  0  0  0  0  0  0  0  0  0
    2.3471    2.2926    1.3828 C   0  0  0  0  0  0  0  0  0  0  0  0
   -3.6553   -0.1997   -0.1065 C   0  0  1  0  0  0  0  0  0  0  0  0
    3.2834   -1.3813   -1.8007 C   0  0  0  0  0  0  0  0  0  0  0  0
    3.2669    1.8234   -1.2599 C   0  0  0  0  0  0  0  0  0  0  0  0
    2.7402   -3.4286   -0.5932 C   0  0  0  0  0  0  0  0  0  0  0  0
    2.7056    3.3556    0.5517 C   0  0  0  0  0  0  0  0  0  0  0  0
    3.1905   -2.7752   -1.7524 C   0  0  0  0  0  0  0  0  0  0  0  0
    3.1602    3.1233   -0.7570 C   0  0  0  0  0  0  0  0  0  0  0  0
   -2.1805    2.3125   -1.4843 C   0  0  0  0  0  0  0  0  0  0  0  0
   -4.0475    2.8619    0.0815 C   0  0  0  0  0  0  0  0  0  0  0  0
   -1.5118   -0.3217    1.1550 C   0  0  0  0  0  0  0  0  0  0  0  0
   -4.2352   -1.6036   -0.1713 C   0  0  0  0  0  0  0  0  0  0  0  0
    2.8293   -0.4440    2.4138 H   0  0  0  0  0  0  0  0  0  0  0  0
    0.4660    0.4027    2.7622 H   0  0  0  0  0  0  0  0  0  0  0  0
    0.5023   -1.3624    2.5257 H   0  0  0  0  0  0  0  0  0  0  0  0
   -3.9411    0.2632   -2.1882 H   0  0  0  0  0  0  0  0  0  0  0  0
   -5.2825    0.7284   -1.1719 H   0  0  0  0  0  0  0  0  0  0  0  0
   -4.2072    2.6940   -2.0580 H   0  0  0  0  0  0  0  0  0  0  0  0
    2.0295   -3.2094    1.4341 H   0  0  0  0  0  0  0  0  0  0  0  0
    2.0009    2.4764    2.3938 H   0  0  0  0  0  0  0  0  0  0  0  0
   -4.0168    0.1851    0.8563 H   0  0  0  0  0  0  0  0  0  0  0  0
    3.6350   -0.8913   -2.7025 H   0  0  0  0  0  0  0  0  0  0  0  0
    3.6215    1.6600   -2.2721 H   0  0  0  0  0  0  0  0  0  0  0  0
    2.6794   -4.5136   -0.5795 H   0  0  0  0  0  0  0  0  0  0  0  0
    2.6342    4.3753    0.9206 H   0  0  0  0  0  0  0  0  0  0  0  0
    3.4718   -3.3630   -2.6224 H   0  0  0  0  0  0  0  0  0  0  0  0
    3.4339    3.9667   -1.3855 H   0  0  0  0  0  0  0  0  0  0  0  0
   -1.6789   -0.1830   -0.8879 H   0  0  0  0  0  0  0  0  0  0  0  0
   -1.5788    2.1349   -0.5893 H   0  0  0  0  0  0  0  0  0  0  0  0
   -1.8444    1.6506   -2.2887 H   0  0  0  0  0  0  0  0  0  0  0  0
   -1.9531    3.3385   -1.7981 H   0  0  0  0  0  0  0  0  0  0  0  0
   -5.1175    2.7614    0.2918 H   0  0  0  0  0  0  0  0  0  0  0  0
   -3.4902    2.4500    0.9288 H   0  0  0  0  0  0  0  0  0  0  0  0
   -3.8202    3.9325    0.0302 H   0  0  0  0  0  0  0  0  0  0  0  0
   -3.7247   -3.4810   -0.2462 H   0  0  0  0  0  0  0  0  0  0  0  0
  1 11  1  0  0  0  0
  1 25  1  0  0  0  0
  2 26  1  0  0  0  0
  2 49  1  0  0  0  0
  3 25  2  0  0  0  0
  4 26  2  0  0  0  0
  5 16  1  0  0  0  0
  5 25  1  0  0  0  0
  5 42  1  0  0  0  0
  6  7  1  0  0  0  0
  6  8  1  0  0  0  0
  6 11  1  0  0  0  0
  6 27  1  0  0  0  0
  7  9  1  0  0  0  0
  7 14  2  0  0  0  0
  8 10  1  0  0  0  0
  8 15  2  0  0  0  0
  9 10  1  0  0  0  0
  9 17  2  0  0  0  0
 10 18  2  0  0  0  0
 11 28  1  0  0  0  0
 11 29  1  0  0  0  0
 12 13  1  0  0  0  0
 12 16  1  0  0  0  0
 12 30  1  0  0  0  0
 12 31  1  0  0  0  0
 13 23  1  0  0  0  0
 13 24  1  0  0  0  0
 13 32  1  0  0  0  0
 14 19  1  0  0  0  0
 14 33  1  0  0  0  0
 15 20  1  0  0  0  0
 15 34  1  0  0  0  0
 16 26  1  0  0  0  0
 16 35  1  0  0  0  0
 17 21  1  0  0  0  0
 17 36  1  0  0  0  0
 18 22  1  0  0  0  0
 18 37  1  0  0  0  0
 19 21  2  0  0  0  0
 19 38  1  0  0  0  0
 20 22  2  0  0  0  0
 20 39  1  0  0  0  0
 21 40  1  0  0  0  0
 22 41  1  0  0  0  0
 23 43  1  0  0  0  0
 23 44  1  0  0  0  0
 23 45  1  0  0  0  0
 24 46  1  0  0  0  0
 24 47  1  0  0  0  0
 24 48  1  0  0  0  0
M  END
> <PUBCHEM_COMPOUND_CID>
4308

> <PUBCHEM_CONFORMER_RMSD>
1

> <PUBCHEM_CONFORMER_DIVERSEORDER>
1
117
13
53
107
79
132
27
138
135
45
124
44
71
101
113
59
118
142
144
62
112
74
32
54
20
57
111
35
83
77
6
147
36
86
39
56
94
61
137
89
67
64
50
131
84
37
11
81
91
78
16
119
110
18
52
43
42
146
8
96
63
125
66
128
46
34
58
14
48
31
82
22
4
120
40
2
49
130
148
5
100
108
136
80
97
28
41
93
55
51
12
76
105
47
60
139
116
103
73
25
9
98
21
90
68
127
114
23
65
122
88
72
75
106
24
115
10
102
104
99
134
26
33
123
15
140
38
95
17
30
7
141
143
19
145
87
121
92
69
126
29
129
70
3
133
85
109

> <PUBCHEM_MMFF94_PARTIAL_CHARGES>
30
1 -0.43
11 0.28
14 -0.15
15 -0.15
16 0.36
17 -0.15
18 -0.15
19 -0.15
2 -0.65
20 -0.15
21 -0.15
22 -0.15
25 0.78
26 0.66
3 -0.57
33 0.15
34 0.15
36 0.15
37 0.15
38 0.15
39 0.15
4 -0.57
40 0.15
41 0.15
42 0.37
49 0.5
5 -0.73
6 0.29
7 -0.14
8 -0.14

> <PUBCHEM_EFFECTIVE_ROTOR_COUNT>
8.2

> <PUBCHEM_PHARMACOPHORE_FEATURES>
9
1 2 acceptor
1 3 acceptor
1 4 acceptor
1 5 donor
3 13 23 24 hydrophobe
3 2 4 26 anion
5 6 7 8 9 10 rings
6 7 9 14 17 19 21 rings
6 8 10 15 18 20 22 rings

> <PUBCHEM_HEAVY_ATOM_COUNT>
26

> <PUBCHEM_ATOM_DEF_STEREO_COUNT>
0

> <PUBCHEM_ATOM_UDEF_STEREO_COUNT>
1

> <PUBCHEM_BOND_DEF_STEREO_COUNT>
0

> <PUBCHEM_BOND_UDEF_STEREO_COUNT>
0

> <PUBCHEM_ISOTOPIC_ATOM_COUNT>
0

> <PUBCHEM_COMPONENT_COUNT>
1

> <PUBCHEM_CACTVS_TAUTO_COUNT>
2

> <PUBCHEM_CONFORMER_ID>
000010D400000001

> <PUBCHEM_MMFF94_ENERGY>
70.1729

> <PUBCHEM_FEATURE_SELFOVERLAP>
45.892

> <PUBCHEM_SHAPE_FINGERPRINT>
10764073 3 17621648125041531624
11578080 2 17315921241889541432
12160290 23 15768628890474256011
12596599 1 18270408303421021621
13224815 77 17203615895451115073
1361 2 17762059835563074733
17921350 177 18196666304475994758
20600515 1 17831892361273280952
20775438 99 18121818055959542109
21304303 282 17105131329307946896
21864079 5 15697434571861928927
235170 7 18336549292219033087
23557571 272 18271249326805159041
23559900 14 18335993068105425535
238 59 18337096862010755034
25222932 49 15433175589178566805
26353 1 18048861185948346076
312425 83 18412260670596235101
340366 18 18191868044533258763
4280585 95 18120934169055243990
44802255 64 17407649855137250788
46194498 28 18411412895391288550
5281201 14 18410292544835172215
5895379 119 18339654454632135768
6287921 2 18341891862041722781
7399639 24 18119543045821211953

> <PUBCHEM_SHAPE_MULTIPOLES>
506.61
9.65
4.29
1.84
11.7
0.76
-0.3
-0.88
3.25
-2.3
1.04
-0.72
-0.03
1.57

> <PUBCHEM_SHAPE_SELFOVERLAP>
1084.985

> <PUBCHEM_SHAPE_VOLUME>
281.4

> <PUBCHEM_COORDINATE_TYPE>
2
5
10

$$$$

