442662
  -OEChem-07051212593D

 42 44  0     0  0  0  0  0  0999 V2000
    0.0841    0.1414   -0.0741 O   0  0  0  0  0  0  0  0  0  0  0  0
   -1.4042    2.4025   -0.1956 O   0  0  0  0  0  0  0  0  0  0  0  0
   -4.1545    2.2851   -0.0847 O   0  0  0  0  0  0  0  0  0  0  0  0
   -3.9861   -2.4581    0.2751 O   0  0  0  0  0  0  0  0  0  0  0  0
   -5.4281   -0.1457    0.1471 O   0  0  0  0  0  0  0  0  0  0  0  0
   -1.6132   -3.5462    0.2715 O   0  0  0  0  0  0  0  0  0  0  0  0
    4.7330    1.8159    0.8335 O   0  0  0  0  0  0  0  0  0  0  0  0
    6.4023   -0.0902   -0.3093 O   0  0  0  0  0  0  0  0  0  0  0  0
   -1.9265   -1.2099    0.1045 C   0  0  0  0  0  0  0  0  0  0  0  0
   -1.2811    0.0198   -0.0146 C   0  0  0  0  0  0  0  0  0  0  0  0
    0.8533   -1.0101   -0.0040 C   0  0  0  0  0  0  0  0  0  0  0  0
   -2.0286    1.1960   -0.0794 C   0  0  0  0  0  0  0  0  0  0  0  0
   -3.3207   -1.2737    0.1599 C   0  0  0  0  0  0  0  0  0  0  0  0
   -1.1138   -2.4342    0.1695 C   0  0  0  0  0  0  0  0  0  0  0  0
   -3.4214    1.1365   -0.0242 C   0  0  0  0  0  0  0  0  0  0  0  0
    2.3076   -0.7659   -0.0824 C   0  0  0  0  0  0  0  0  0  0  0  0
    0.3499   -2.2500    0.1048 C   0  0  0  0  0  0  0  0  0  0  0  0
   -4.0658   -0.0956    0.0952 C   0  0  0  0  0  0  0  0  0  0  0  0
    2.8479    0.4220    0.4167 C   0  0  0  0  0  0  0  0  0  0  0  0
    3.1499   -1.7214   -0.6564 C   0  0  0  0  0  0  0  0  0  0  0  0
    4.2215    0.6528    0.3425 C   0  0  0  0  0  0  0  0  0  0  0  0
    4.5234   -1.4907   -0.7308 C   0  0  0  0  0  0  0  0  0  0  0  0
    5.0592   -0.3036   -0.2313 C   0  0  0  0  0  0  0  0  0  0  0  0
   -1.0628    3.0734    1.0151 C   0  0  0  0  0  0  0  0  0  0  0  0
   -4.5481    2.7334   -1.3794 C   0  0  0  0  0  0  0  0  0  0  0  0
    4.8229    2.9165   -0.0692 C   0  0  0  0  0  0  0  0  0  0  0  0
    0.9537   -3.1474    0.1719 H   0  0  0  0  0  0  0  0  0  0  0  0
    2.2128    1.1767    0.8758 H   0  0  0  0  0  0  0  0  0  0  0  0
    2.7692   -2.6486   -1.0765 H   0  0  0  0  0  0  0  0  0  0  0  0
    5.1645   -2.2418   -1.1845 H   0  0  0  0  0  0  0  0  0  0  0  0
   -3.3637   -3.1999    0.3123 H   0  0  0  0  0  0  0  0  0  0  0  0
   -5.6981   -1.0769    0.2283 H   0  0  0  0  0  0  0  0  0  0  0  0
   -0.3711    2.4685    1.6099 H   0  0  0  0  0  0  0  0  0  0  0  0
   -1.9616    3.2979    1.5981 H   0  0  0  0  0  0  0  0  0  0  0  0
   -0.5698    4.0148    0.7574 H   0  0  0  0  0  0  0  0  0  0  0  0
   -3.6700    2.9473   -1.9969 H   0  0  0  0  0  0  0  0  0  0  0  0
   -5.1248    3.6549   -1.2620 H   0  0  0  0  0  0  0  0  0  0  0  0
   -5.1794    1.9865   -1.8711 H   0  0  0  0  0  0  0  0  0  0  0  0
    6.8207   -0.8575   -0.7362 H   0  0  0  0  0  0  0  0  0  0  0  0
    3.8281    3.2006   -0.4269 H   0  0  0  0  0  0  0  0  0  0  0  0
    5.4705    2.6691   -0.9161 H   0  0  0  0  0  0  0  0  0  0  0  0
    5.2571    3.7648    0.4670 H   0  0  0  0  0  0  0  0  0  0  0  0
  1 10  1  0  0  0  0
  1 11  1  0  0  0  0
  2 12  1  0  0  0  0
  2 24  1  0  0  0  0
  3 15  1  0  0  0  0
  3 25  1  0  0  0  0
  4 13  1  0  0  0  0
  4 31  1  0  0  0  0
  5 18  1  0  0  0  0
  5 32  1  0  0  0  0
  6 14  2  0  0  0  0
  7 21  1  0  0  0  0
  7 26  1  0  0  0  0
  8 23  1  0  0  0  0
  8 39  1  0  0  0  0
  9 10  1  0  0  0  0
  9 13  2  0  0  0  0
  9 14  1  0  0  0  0
 10 12  2  0  0  0  0
 11 16  1  0  0  0  0
 11 17  2  0  0  0  0
 12 15  1  0  0  0  0
 13 18  1  0  0  0  0
 14 17  1  0  0  0  0
 15 18  2  0  0  0  0
 16 19  2  0  0  0  0
 16 20  1  0  0  0  0
 17 27  1  0  0  0  0
 19 21  1  0  0  0  0
 19 28  1  0  0  0  0
 20 22  2  0  0  0  0
 20 29  1  0  0  0  0
 21 23  2  0  0  0  0
 22 23  1  0  0  0  0
 22 30  1  0  0  0  0
 24 33  1  0  0  0  0
 24 34  1  0  0  0  0
 24 35  1  0  0  0  0
 25 36  1  0  0  0  0
 25 37  1  0  0  0  0
 25 38  1  0  0  0  0
 26 40  1  0  0  0  0
 26 41  1  0  0  0  0
 26 42  1  0  0  0  0
M  END
> <PUBCHEM_COMPOUND_CID>
442662

> <PUBCHEM_CONFORMER_RMSD>
0.8

> <PUBCHEM_CONFORMER_DIVERSEORDER>
1
2
6
5
4
3
7

> <PUBCHEM_MMFF94_PARTIAL_CHARGES>
33
1 -0.16
10 0.08
11 0.05
12 0.08
13 0.08
14 0.47
15 0.08
16 0.03
17 -0.14
18 0.08
19 -0.15
2 -0.36
20 -0.15
21 0.08
22 -0.15
23 0.08
24 0.28
25 0.28
26 0.28
27 0.15
28 0.15
29 0.15
3 -0.36
30 0.15
31 0.45
32 0.45
39 0.45
4 -0.53
5 -0.53
6 -0.57
7 -0.36
8 -0.53
9 0.09

> <PUBCHEM_EFFECTIVE_ROTOR_COUNT>
4

> <PUBCHEM_PHARMACOPHORE_FEATURES>
11
1 1 acceptor
1 2 acceptor
1 3 acceptor
1 4 donor
1 5 donor
1 6 acceptor
1 7 acceptor
1 8 donor
6 1 9 10 11 14 17 rings
6 16 19 20 21 22 23 rings
6 9 10 12 13 15 18 rings

> <PUBCHEM_HEAVY_ATOM_COUNT>
26

> <PUBCHEM_ATOM_DEF_STEREO_COUNT>
0

> <PUBCHEM_ATOM_UDEF_STEREO_COUNT>
0

> <PUBCHEM_BOND_DEF_STEREO_COUNT>
0

> <PUBCHEM_BOND_UDEF_STEREO_COUNT>
0

> <PUBCHEM_ISOTOPIC_ATOM_COUNT>
0

> <PUBCHEM_COMPONENT_COUNT>
1

> <PUBCHEM_CACTVS_TAUTO_COUNT>
38

> <PUBCHEM_CONFORMER_ID>
0006C12600000001

> <PUBCHEM_MMFF94_ENERGY>
110.2821

> <PUBCHEM_FEATURE_SELFOVERLAP>
55.863

> <PUBCHEM_SHAPE_FINGERPRINT>
10319926 262 18338531776673224658
10411042 1 17908137682007741923
10498660 4 18339364170492488033
11112241 14 16662919923778726385
11595378 159 17632307791108282320
12107183 9 18055647363252178594
12236239 1 17561364002017157402
12390115 104 18263349438722895609
12403259 415 18411417340671773189
13140716 1 17835517120630132803
13402501 40 18334296452965422016
14787075 74 18334582313182726525
14790565 3 18191578860407438905
15042514 8 18197772207685721315
15196674 1 18410011005470927384
15961568 22 18128534873884353844
16087824 20 18411983560725789943
17844677 252 18410847738188439728
20510252 161 18408038524381152387
20645477 56 18412259540914574662
20715895 44 18198071480537401653
21033648 29 18410302423033587312
21065198 57 18410291398511960046
21133410 127 17985273976020735020
21267235 1 18411972551479391835
21279426 13 18265048218542598158
21315764 268 18342462538577856524
21623110 236 18335692811142109049
21859007 373 17700152159821074348
221357 26 18114460145616116804
23227448 37 18336829688979559172
23402539 116 18408326566210170111
23557571 272 18335975394420530110
23559900 14 18262519324829723502
245318 6 16624324764280179764
350125 39 18267583692355878970
3545911 37 18409164420298852582
4073 2 18201995487856390930
4214541 1 18410291424049258950
469060 322 16988843878171166951
5104073 3 18341048609368611778
5283173 99 18412266137952497912
9709674 26 18334287682895768526
9981440 41 18201434822245498147

> <PUBCHEM_SHAPE_MULTIPOLES>
488.11
12.24
3.67
0.8
8.82
0.73
-0.08
4.4
-1.39
-1.77
0.14
-0.11
0.31
1.43

> <PUBCHEM_SHAPE_SELFOVERLAP>
1074.684

> <PUBCHEM_SHAPE_VOLUME>
263.5

> <PUBCHEM_COORDINATE_TYPE>
2
5
10

$$$$

