10526
  -OEChem-06261204393D

 59 63  0     1  0  0  0  0  0999 V2000
    1.5582    1.3714   -0.5340 O   0  0  0  0  0  0  0  0  0  0  0  0
   -4.2109   -0.8500   -2.3926 O   0  0  0  0  0  0  0  0  0  0  0  0
   -7.1395    0.7262    0.3934 O   0  0  0  0  0  0  0  0  0  0  0  0
    5.3743    1.3906   -0.1883 O   0  0  0  0  0  0  0  0  0  0  0  0
    7.3361    0.8203   -1.1852 O   0  0  0  0  0  0  0  0  0  0  0  0
    0.7318    0.4982    0.2507 C   0  0  2  0  0  0  0  0  0  0  0  0
    1.3390   -0.9318    0.2048 C   0  0  1  0  0  0  0  0  0  0  0  0
   -0.7150    0.5769   -0.3089 C   0  0  1  0  0  0  0  0  0  0  0  0
   -1.6669   -0.4972    0.2913 C   0  0  1  0  0  0  0  0  0  0  0  0
    2.5724   -0.8184    1.1569 C   0  0  2  0  0  0  0  0  0  0  0  0
    0.3442   -1.9649    0.7986 C   0  0  0  0  0  0  0  0  0  0  0  0
    0.8856    0.9056    1.7277 C   0  0  0  0  0  0  0  0  0  0  0  0
   -3.1297   -0.4229   -0.2731 C   0  0  2  0  0  0  0  0  0  0  0  0
   -1.0467   -1.9019    0.1722 C   0  0  0  0  0  0  0  0  0  0  0  0
    2.1216    0.1634    2.2554 C   0  0  0  0  0  0  0  0  0  0  0  0
   -1.3315    1.9811   -0.1437 C   0  0  0  0  0  0  0  0  0  0  0  0
    1.7297   -1.3811   -1.2186 C   0  0  0  0  0  0  0  0  0  0  0  0
   -3.6391    1.0129   -0.2431 C   0  0  0  0  0  0  0  0  0  0  0  0
   -2.7115    2.0692   -0.7871 C   0  0  0  0  0  0  0  0  0  0  0  0
   -4.0509   -1.3905    0.5239 C   0  0  0  0  0  0  0  0  0  0  0  0
    3.8507   -0.3422    0.5286 C   0  0  0  0  0  0  0  0  0  0  0  0
   -3.1790   -0.8328   -1.7298 C   0  0  0  0  0  0  0  0  0  0  0  0
   -5.5351   -1.0606    0.3845 C   0  0  0  0  0  0  0  0  0  0  0  0
   -4.8370    1.3556    0.2654 C   0  0  0  0  0  0  0  0  0  0  0  0
   -5.8247    0.3733    0.8162 C   0  0  1  0  0  0  0  0  0  0  0  0
    4.7814   -1.3234    0.0347 C   0  0  0  0  0  0  0  0  0  0  0  0
    4.1805    0.9469    0.3981 C   0  0  0  0  0  0  0  0  0  0  0  0
    5.9332   -0.9523   -0.5326 C   0  0  0  0  0  0  0  0  0  0  0  0
    6.2787    0.4785   -0.6655 C   0  0  0  0  0  0  0  0  0  0  0  0
   -0.6482    0.3996   -1.3915 H   0  0  0  0  0  0  0  0  0  0  0  0
   -1.7479   -0.2821    1.3671 H   0  0  0  0  0  0  0  0  0  0  0  0
    2.7732   -1.7873    1.6355 H   0  0  0  0  0  0  0  0  0  0  0  0
    0.2338   -1.8220    1.8809 H   0  0  0  0  0  0  0  0  0  0  0  0
    0.7457   -2.9794    0.6769 H   0  0  0  0  0  0  0  0  0  0  0  0
    0.0184    0.6237    2.3326 H   0  0  0  0  0  0  0  0  0  0  0  0
    1.0263    1.9871    1.8343 H   0  0  0  0  0  0  0  0  0  0  0  0
   -0.9882   -2.2287   -0.8697 H   0  0  0  0  0  0  0  0  0  0  0  0
   -1.6742   -2.6370    0.6882 H   0  0  0  0  0  0  0  0  0  0  0  0
    2.8892    0.8514    2.6242 H   0  0  0  0  0  0  0  0  0  0  0  0
    1.8181   -0.4120    3.1408 H   0  0  0  0  0  0  0  0  0  0  0  0
   -0.6809    2.7346   -0.6029 H   0  0  0  0  0  0  0  0  0  0  0  0
   -1.4118    2.2368    0.9202 H   0  0  0  0  0  0  0  0  0  0  0  0
    2.1708   -2.3842   -1.2021 H   0  0  0  0  0  0  0  0  0  0  0  0
    0.8595   -1.4206   -1.8812 H   0  0  0  0  0  0  0  0  0  0  0  0
    2.4498   -0.7133   -1.7006 H   0  0  0  0  0  0  0  0  0  0  0  0
   -2.6213    1.9459   -1.8733 H   0  0  0  0  0  0  0  0  0  0  0  0
   -3.1130    3.0767   -0.6237 H   0  0  0  0  0  0  0  0  0  0  0  0
   -3.7940   -1.3567    1.5911 H   0  0  0  0  0  0  0  0  0  0  0  0
   -3.8988   -2.4263    0.1954 H   0  0  0  0  0  0  0  0  0  0  0  0
    1.3716    1.2131   -1.4744 H   0  0  0  0  0  0  0  0  0  0  0  0
   -2.2262   -1.0946   -2.2153 H   0  0  0  0  0  0  0  0  0  0  0  0
   -5.8872   -1.2324   -0.6391 H   0  0  0  0  0  0  0  0  0  0  0  0
   -6.1244   -1.7492    1.0034 H   0  0  0  0  0  0  0  0  0  0  0  0
   -5.1264    2.4035    0.2958 H   0  0  0  0  0  0  0  0  0  0  0  0
   -5.8038    0.4484    1.9099 H   0  0  0  0  0  0  0  0  0  0  0  0
    4.5372   -2.3763    0.1271 H   0  0  0  0  0  0  0  0  0  0  0  0
    3.6192    1.8106    0.7219 H   0  0  0  0  0  0  0  0  0  0  0  0
   -7.7564    0.0888    0.7922 H   0  0  0  0  0  0  0  0  0  0  0  0
    6.6387   -1.6848   -0.9072 H   0  0  0  0  0  0  0  0  0  0  0  0
  1  6  1  0  0  0  0
  1 50  1  0  0  0  0
  2 22  2  0  0  0  0
  3 25  1  0  0  0  0
  3 58  1  0  0  0  0
  4 27  1  0  0  0  0
  4 29  1  0  0  0  0
  5 29  2  0  0  0  0
  6  7  1  0  0  0  0
  6  8  1  0  0  0  0
  6 12  1  0  0  0  0
  7 10  1  0  0  0  0
  7 11  1  0  0  0  0
  7 17  1  0  0  0  0
  8  9  1  0  0  0  0
  8 16  1  0  0  0  0
  8 30  1  0  0  0  0
  9 13  1  0  0  0  0
  9 14  1  0  0  0  0
  9 31  1  0  0  0  0
 10 15  1  0  0  0  0
 10 21  1  0  0  0  0
 10 32  1  0  0  0  0
 11 14  1  0  0  0  0
 11 33  1  0  0  0  0
 11 34  1  0  0  0  0
 12 15  1  0  0  0  0
 12 35  1  0  0  0  0
 12 36  1  0  0  0  0
 13 18  1  0  0  0  0
 13 20  1  0  0  0  0
 13 22  1  0  0  0  0
 14 37  1  0  0  0  0
 14 38  1  0  0  0  0
 15 39  1  0  0  0  0
 15 40  1  0  0  0  0
 16 19  1  0  0  0  0
 16 41  1  0  0  0  0
 16 42  1  0  0  0  0
 17 43  1  0  0  0  0
 17 44  1  0  0  0  0
 17 45  1  0  0  0  0
 18 19  1  0  0  0  0
 18 24  2  0  0  0  0
 19 46  1  0  0  0  0
 19 47  1  0  0  0  0
 20 23  1  0  0  0  0
 20 48  1  0  0  0  0
 20 49  1  0  0  0  0
 21 26  1  0  0  0  0
 21 27  2  0  0  0  0
 22 51  1  0  0  0  0
 23 25  1  0  0  0  0
 23 52  1  0  0  0  0
 23 53  1  0  0  0  0
 24 25  1  0  0  0  0
 24 54  1  0  0  0  0
 25 55  1  0  0  0  0
 26 28  2  0  0  0  0
 26 56  1  0  0  0  0
 27 57  1  0  0  0  0
 28 29  1  0  0  0  0
 28 59  1  0  0  0  0
M  END
> <PUBCHEM_COMPOUND_CID>
10526

> <PUBCHEM_CONFORMER_RMSD>
0.8

> <PUBCHEM_CONFORMER_DIVERSEORDER>
1
9
18
21
13
6
2
12
14
17
16
4
20
7
5
15
19
10
3
11
8

> <PUBCHEM_MMFF94_PARTIAL_CHARGES>
25
1 -0.68
10 0.14
13 0.2
18 -0.28
19 0.14
2 -0.57
21 -0.14
22 0.45
24 -0.29
25 0.42
26 -0.15
27 -0.07
28 -0.14
29 0.71
3 -0.68
4 -0.23
5 -0.57
50 0.4
51 0.06
54 0.15
56 0.15
57 0.15
58 0.4
59 0.15
6 0.28

> <PUBCHEM_EFFECTIVE_ROTOR_COUNT>
4

> <PUBCHEM_PHARMACOPHORE_FEATURES>
11
1 1 acceptor
1 1 donor
1 2 acceptor
1 3 acceptor
1 3 donor
1 5 acceptor
5 6 7 10 12 15 rings
6 13 18 20 23 24 25 rings
6 4 21 26 27 28 29 rings
6 6 7 8 9 11 14 rings
6 8 9 13 16 18 19 rings

> <PUBCHEM_HEAVY_ATOM_COUNT>
29

> <PUBCHEM_ATOM_DEF_STEREO_COUNT>
5

> <PUBCHEM_ATOM_UDEF_STEREO_COUNT>
2

> <PUBCHEM_BOND_DEF_STEREO_COUNT>
0

> <PUBCHEM_BOND_UDEF_STEREO_COUNT>
0

> <PUBCHEM_ISOTOPIC_ATOM_COUNT>
0

> <PUBCHEM_COMPONENT_COUNT>
1

> <PUBCHEM_CACTVS_TAUTO_COUNT>
1

> <PUBCHEM_CONFORMER_ID>
0000291E00000001

> <PUBCHEM_MMFF94_ENERGY>
97.8813

> <PUBCHEM_FEATURE_SELFOVERLAP>
56.018

> <PUBCHEM_SHAPE_FINGERPRINT>
10670039 82 18273218620998007204
11524674 6 16370727024079836983
11796584 16 15430040941799783142
12236239 1 17346599707119860800
12403259 415 18261403246990867224
12553582 1 18270978902795352729
12596602 18 16988565731493508281
12788726 201 17968376882760008097
13224815 77 18341061769723120043
13533116 47 17203052988526566898
13583140 156 16200164179051184773
13631057 29 16629955509101077315
13726171 33 18200312259190984536
13782708 43 15358556124769255215
13911987 19 17988379104299275735
13914758 101 5761658049255285595
14790565 3 18412539924869534385
14840074 17 18131350808444469373
14856354 85 17022900134118454469
14933364 13 18412258441539778640
14955137 171 18411975845651048025
15142383 8 15285637733311827496
15183329 4 16732979838511870250
15461852 350 17748831818108479717
15575132 122 17988931110274970309
15685185 35 16842736251136829676
15788980 27 17749112183675346310
18681886 176 18342177721900519665
19377110 9 14405187291679046685
21033648 29 18187657859781055738
21267235 1 18341045234399951299
21521721 280 18410567375624167992
21792961 116 17968372468177036262
21859007 373 5977838497400786578
22079108 93 15913323581418072464
22224240 67 14405181738360270880
23402539 116 18410295808767691734
23516275 137 17823954892175526919
23522609 53 18116129165022337480
23559900 14 18335988575432724328
23569917 315 8286198370599452357
2838139 119 18131073727963490828
3004659 81 18339641244204068578
32027 91 11813970471640269033
335352 9 18413390930791623341
34797466 226 18336256904110322812
350125 39 18412543219315120193
4073 2 17988915652740659986
4258327 124 15625073371403144430
4325135 7 17989202646539004572
4340502 62 15267342924829773026
4461854 278 18192132829853906243
474 4 16917343706906861788
5104073 3 18341623671261722120
5265222 85 18187641346101001830
53794403 172 17772742781071230308
542803 24 18334860523720561259

> <PUBCHEM_SHAPE_MULTIPOLES>
567.46
15.4
1.89
1.45
5.84
0.08
-0.04
2.07
-2.54
-0.5
-0.13
-0.06
-0.15
-0.31

> <PUBCHEM_SHAPE_SELFOVERLAP>
1241.406

> <PUBCHEM_SHAPE_VOLUME>
302.5

> <PUBCHEM_COORDINATE_TYPE>
2
5
10

$$$$

