92200
  -OEChem-07051213122D

 42 43  0     1  0  0  0  0  0999 V2000
    4.5981    2.7500    0.0000 S   0  0  0  0  0  0  0  0  0  0  0  0
    3.7320   -2.7500    0.0000 S   0  0  0  0  0  0  0  0  0  0  0  0
    5.4641    1.2500    0.0000 S   0  0  0  0  0  0  0  0  0  0  0  0
    2.8660   -1.2500    0.0000 S   0  0  0  0  0  0  0  0  0  0  0  0
    3.7320    1.2500    0.0000 N   0  0  0  0  0  0  0  0  0  0  0  0
    4.5981   -1.2500    0.0000 N   0  0  0  0  0  0  0  0  0  0  0  0
    2.8660    2.7500    0.0000 N   0  0  0  0  0  0  0  0  0  0  0  0
    5.4641   -2.7500    0.0000 N   0  0  0  0  0  0  0  0  0  0  0  0
    3.7320    0.2500    0.0000 C   0  0  0  0  0  0  0  0  0  0  0  0
    4.5981   -0.2500    0.0000 C   0  0  0  0  0  0  0  0  0  0  0  0
    2.8660    1.7500    0.0000 C   0  0  3  0  0  0  0  0  0  0  0  0
    5.4641   -1.7500    0.0000 C   0  0  3  0  0  0  0  0  0  0  0  0
    3.7320    3.2500    0.0000 C   0  0  3  0  0  0  0  0  0  0  0  0
    4.5981   -3.2500    0.0000 C   0  0  3  0  0  0  0  0  0  0  0  0
    4.5981    1.7500    0.0000 C   0  0  0  0  0  0  0  0  0  0  0  0
    3.7320   -1.7500    0.0000 C   0  0  0  0  0  0  0  0  0  0  0  0
    2.0000    1.2500    0.0000 C   0  0  0  0  0  0  0  0  0  0  0  0
    6.3301   -1.2500    0.0000 C   0  0  0  0  0  0  0  0  0  0  0  0
    3.7320    4.2500    0.0000 C   0  0  0  0  0  0  0  0  0  0  0  0
    4.5981   -4.2500    0.0000 C   0  0  0  0  0  0  0  0  0  0  0  0
    3.1215    0.3577    0.0000 H   0  0  0  0  0  0  0  0  0  0  0  0
    3.5200   -0.3326    0.0000 H   0  0  0  0  0  0  0  0  0  0  0  0
    5.2087   -0.3577    0.0000 H   0  0  0  0  0  0  0  0  0  0  0  0
    4.8101    0.3326    0.0000 H   0  0  0  0  0  0  0  0  0  0  0  0
    2.8660    1.1300    0.0000 H   0  0  0  0  0  0  0  0  0  0  0  0
    5.4641   -1.1300    0.0000 H   0  0  0  0  0  0  0  0  0  0  0  0
    6.0010   -3.0600    0.0000 H   0  0  0  0  0  0  0  0  0  0  0  0
    2.3291    3.0600    0.0000 H   0  0  0  0  0  0  0  0  0  0  0  0
    5.1350   -3.5600    0.0000 H   0  0  0  0  0  0  0  0  0  0  0  0
    4.2690    3.5600    0.0000 H   0  0  0  0  0  0  0  0  0  0  0  0
    6.6401   -1.7869    0.0000 H   0  0  0  0  0  0  0  0  0  0  0  0
    1.6900    1.7869    0.0000 H   0  0  0  0  0  0  0  0  0  0  0  0
    1.4631    0.9400    0.0000 H   0  0  0  0  0  0  0  0  0  0  0  0
    2.3100    0.7131    0.0000 H   0  0  0  0  0  0  0  0  0  0  0  0
    6.8671   -0.9400    0.0000 H   0  0  0  0  0  0  0  0  0  0  0  0
    6.0201   -0.7131    0.0000 H   0  0  0  0  0  0  0  0  0  0  0  0
    4.3520    4.2500    0.0000 H   0  0  0  0  0  0  0  0  0  0  0  0
    3.7320    4.8700    0.0000 H   0  0  0  0  0  0  0  0  0  0  0  0
    3.1120    4.2500    0.0000 H   0  0  0  0  0  0  0  0  0  0  0  0
    3.9781   -4.2500    0.0000 H   0  0  0  0  0  0  0  0  0  0  0  0
    4.5981   -4.8700    0.0000 H   0  0  0  0  0  0  0  0  0  0  0  0
    5.2181   -4.2500    0.0000 H   0  0  0  0  0  0  0  0  0  0  0  0
  1 13  1  0  0  0  0
  1 15  1  0  0  0  0
  2 14  1  0  0  0  0
  2 16  1  0  0  0  0
  3 15  2  0  0  0  0
  4 16  2  0  0  0  0
  5  9  1  0  0  0  0
  5 11  1  0  0  0  0
  5 15  1  0  0  0  0
  6 10  1  0  0  0  0
  6 12  1  0  0  0  0
  6 16  1  0  0  0  0
  7 11  1  0  0  0  0
  7 13  1  0  0  0  0
  7 28  1  0  0  0  0
  8 12  1  0  0  0  0
  8 14  1  0  0  0  0
  8 27  1  0  0  0  0
  9 10  1  0  0  0  0
  9 21  1  0  0  0  0
  9 22  1  0  0  0  0
 10 23  1  0  0  0  0
 10 24  1  0  0  0  0
 11 17  1  0  0  0  0
 11 25  1  0  0  0  0
 12 18  1  0  0  0  0
 12 26  1  0  0  0  0
 13 19  1  0  0  0  0
 13 30  1  0  0  0  0
 14 20  1  0  0  0  0
 14 29  1  0  0  0  0
 17 32  1  0  0  0  0
 17 33  1  0  0  0  0
 17 34  1  0  0  0  0
 18 31  1  0  0  0  0
 18 35  1  0  0  0  0
 18 36  1  0  0  0  0
 19 37  1  0  0  0  0
 19 38  1  0  0  0  0
 19 39  1  0  0  0  0
 20 40  1  0  0  0  0
 20 41  1  0  0  0  0
 20 42  1  0  0  0  0
M  END
> <PUBCHEM_COMPOUND_CID>
92200

> <PUBCHEM_COMPOUND_CANONICALIZED>
1

> <PUBCHEM_CACTVS_COMPLEXITY>
356

> <PUBCHEM_CACTVS_HBOND_ACCEPTOR>
6

> <PUBCHEM_CACTVS_HBOND_DONOR>
2

> <PUBCHEM_CACTVS_ROTATABLE_BOND>
3

> <PUBCHEM_CACTVS_SUBSKEYS>
AAADceBzgABwAAAAAAAAAAAAAAAAAAAAAAAsWAAAAAAAAAAAAAAAHAQQAAAAAADFQASDAAPAAAgEAAAAAAAAAABAABgAAIAIAACAQAAAAAAQAAAIEAKAAAAAAAAAAAAAAAAAAAAAAAAAAAAAAAAAAAAAAA==

> <PUBCHEM_IUPAC_OPENEYE_NAME>
3-[2-(4,6-dimethyl-2-thioxo-1,3,5-thiadiazinan-3-yl)ethyl]-4,6-dimethyl-1,3,5-thiadiazinane-2-thione

> <PUBCHEM_IUPAC_CAS_NAME>
3-[2-(4,6-dimethyl-2-sulfanylidene-1,3,5-thiadiazinan-3-yl)ethyl]-4,6-dimethyl-1,3,5-thiadiazinane-2-thione

> <PUBCHEM_IUPAC_NAME>
3-[2-(4,6-dimethyl-2-sulfanylidene-1,3,5-thiadiazinan-3-yl)ethyl]-4,6-dimethyl-1,3,5-thiadiazinane-2-thione

> <PUBCHEM_IUPAC_SYSTEMATIC_NAME>
3-[2-(4,6-dimethyl-2-sulfanylidene-1,3,5-thiadiazinan-3-yl)ethyl]-4,6-dimethyl-1,3,5-thiadiazinane-2-thione

> <PUBCHEM_IUPAC_TRADITIONAL_NAME>
3-[2-(4,6-dimethyl-2-thioxo-1,3,5-thiadiazinan-3-yl)ethyl]-4,6-dimethyl-1,3,5-thiadiazinane-2-thione

> <PUBCHEM_IUPAC_INCHI>
InChI=1S/C12H22N4S4/c1-7-13-9(3)19-11(17)15(7)5-6-16-8(2)14-10(4)20-12(16)18/h7-10,13-14H,5-6H2,1-4H3

> <PUBCHEM_IUPAC_INCHIKEY>
JZFICWYCTCCINF-UHFFFAOYSA-N

> <PUBCHEM_XLOGP3_AA>
3.1

> <PUBCHEM_EXACT_MASS>
350.072731

> <PUBCHEM_MOLECULAR_FORMULA>
C12H22N4S4

> <PUBCHEM_MOLECULAR_WEIGHT>
350.58988

> <PUBCHEM_OPENEYE_CAN_SMILES>
CC1NC(SC(=S)N1CCN2C(NC(SC2=S)C)C)C

> <PUBCHEM_OPENEYE_ISO_SMILES>
CC1NC(SC(=S)N1CCN2C(NC(SC2=S)C)C)C

> <PUBCHEM_CACTVS_TPSA>
145

> <PUBCHEM_MONOISOTOPIC_WEIGHT>
350.072731

> <PUBCHEM_TOTAL_CHARGE>
0

> <PUBCHEM_HEAVY_ATOM_COUNT>
20

> <PUBCHEM_ATOM_DEF_STEREO_COUNT>
0

> <PUBCHEM_ATOM_UDEF_STEREO_COUNT>
4

> <PUBCHEM_BOND_DEF_STEREO_COUNT>
0

> <PUBCHEM_BOND_UDEF_STEREO_COUNT>
0

> <PUBCHEM_ISOTOPIC_ATOM_COUNT>
0

> <PUBCHEM_COMPONENT_COUNT>
1

> <PUBCHEM_CACTVS_TAUTO_COUNT>
1

> <PUBCHEM_COORDINATE_TYPE>
1
5
255

> <PUBCHEM_BONDANNOTATIONS>
11  17  3
12  18  3
13  19  3
14  20  3

$$$$

