1864
  -OEChem-07051212503D

 34 35  0     0  0  0  0  0  0999 V2000
   -1.9295   -2.3117   -0.8071 O   0  0  0  0  0  0  0  0  0  0  0  0
   -4.0165   -0.8809    0.3124 O   0  0  0  0  0  0  0  0  0  0  0  0
    3.6375   -1.6878   -0.7211 O   0  0  0  0  0  0  0  0  0  0  0  0
   -0.9548    2.9217    0.5059 N   0  0  0  0  0  0  0  0  0  0  0  0
    2.6524   -0.1865    0.7618 N   0  0  0  0  0  0  0  0  0  0  0  0
    0.7718    1.8479   -0.3847 C   0  0  0  0  0  0  0  0  0  0  0  0
   -0.3247    0.9440   -0.3119 C   0  0  0  0  0  0  0  0  0  0  0  0
    2.1201    1.5540   -0.9107 C   0  0  0  0  0  0  0  0  0  0  0  0
   -1.3951    1.6424    0.2507 C   0  0  0  0  0  0  0  0  0  0  0  0
    0.3534    3.0555    0.1250 C   0  0  0  0  0  0  0  0  0  0  0  0
    3.1070    1.0314    0.1462 C   0  0  0  0  0  0  0  0  0  0  0  0
   -0.5098   -0.4058   -0.6716 C   0  0  0  0  0  0  0  0  0  0  0  0
   -2.6464    1.0563    0.4725 C   0  0  0  0  0  0  0  0  0  0  0  0
   -1.7559   -1.0052   -0.4556 C   0  0  0  0  0  0  0  0  0  0  0  0
   -2.8064   -0.2836    0.1077 C   0  0  0  0  0  0  0  0  0  0  0  0
    2.9577   -1.4495    0.2737 C   0  0  0  0  0  0  0  0  0  0  0  0
    2.3774   -2.5498    1.1213 C   0  0  0  0  0  0  0  0  0  0  0  0
   -1.6384   -3.2924    0.1856 C   0  0  0  0  0  0  0  0  0  0  0  0
    2.5435    2.4619   -1.3591 H   0  0  0  0  0  0  0  0  0  0  0  0
    2.0454    0.8237   -1.7267 H   0  0  0  0  0  0  0  0  0  0  0  0
    0.8677    3.9980    0.2524 H   0  0  0  0  0  0  0  0  0  0  0  0
    4.0839    0.8574   -0.3182 H   0  0  0  0  0  0  0  0  0  0  0  0
    3.2370    1.7684    0.9463 H   0  0  0  0  0  0  0  0  0  0  0  0
   -1.5166    3.6552    0.9154 H   0  0  0  0  0  0  0  0  0  0  0  0
    0.2988   -0.9767   -1.1191 H   0  0  0  0  0  0  0  0  0  0  0  0
   -3.4616    1.6224    0.9116 H   0  0  0  0  0  0  0  0  0  0  0  0
    2.0830   -0.1042    1.5990 H   0  0  0  0  0  0  0  0  0  0  0  0
   -3.9747   -1.7904   -0.0301 H   0  0  0  0  0  0  0  0  0  0  0  0
    2.1446   -3.4099    0.4873 H   0  0  0  0  0  0  0  0  0  0  0  0
    3.1102   -2.8428    1.8778 H   0  0  0  0  0  0  0  0  0  0  0  0
    1.4574   -2.2284    1.6172 H   0  0  0  0  0  0  0  0  0  0  0  0
   -1.9177   -4.2729   -0.2094 H   0  0  0  0  0  0  0  0  0  0  0  0
   -2.2114   -3.1079    1.0999 H   0  0  0  0  0  0  0  0  0  0  0  0
   -0.5679   -3.2986    0.4093 H   0  0  0  0  0  0  0  0  0  0  0  0
  1 14  1  0  0  0  0
  1 18  1  0  0  0  0
  2 15  1  0  0  0  0
  2 28  1  0  0  0  0
  3 16  2  0  0  0  0
  4  9  1  0  0  0  0
  4 10  1  0  0  0  0
  4 24  1  0  0  0  0
  5 11  1  0  0  0  0
  5 16  1  0  0  0  0
  5 27  1  0  0  0  0
  6  7  1  0  0  0  0
  6  8  1  0  0  0  0
  6 10  2  0  0  0  0
  7  9  1  0  0  0  0
  7 12  2  0  0  0  0
  8 11  1  0  0  0  0
  8 19  1  0  0  0  0
  8 20  1  0  0  0  0
  9 13  2  0  0  0  0
 10 21  1  0  0  0  0
 11 22  1  0  0  0  0
 11 23  1  0  0  0  0
 12 14  1  0  0  0  0
 12 25  1  0  0  0  0
 13 15  1  0  0  0  0
 13 26  1  0  0  0  0
 14 15  2  0  0  0  0
 16 17  1  0  0  0  0
 17 29  1  0  0  0  0
 17 30  1  0  0  0  0
 17 31  1  0  0  0  0
 18 32  1  0  0  0  0
 18 33  1  0  0  0  0
 18 34  1  0  0  0  0
M  END
> <PUBCHEM_COMPOUND_CID>
1864

> <PUBCHEM_CONFORMER_RMSD>
0.6

> <PUBCHEM_CONFORMER_DIVERSEORDER>
1
28
27
36
24
56
3
21
40
14
20
49
35
5
53
51
39
2
45
33
19
46
52
29
9
25
42
34
18
30
55
22
44
10
8
38
15
7
23
26
41
31
13
32
43
6
50
11
48
12
47
37
54
17
4
16

> <PUBCHEM_MMFF94_PARTIAL_CHARGES>
23
1 -0.36
10 -0.3
11 0.3
12 -0.15
13 -0.15
14 0.08
15 0.08
16 0.57
17 0.06
18 0.28
2 -0.53
21 0.15
24 0.27
25 0.15
26 0.15
27 0.37
28 0.45
3 -0.57
4 0.03
5 -0.73
6 -0.18
8 0.18
9 -0.15

> <PUBCHEM_EFFECTIVE_ROTOR_COUNT>
5

> <PUBCHEM_PHARMACOPHORE_FEATURES>
8
1 1 acceptor
1 2 donor
1 3 acceptor
1 4 cation
1 4 donor
1 5 donor
5 4 6 7 9 10 rings
6 7 9 12 13 14 15 rings

> <PUBCHEM_HEAVY_ATOM_COUNT>
18

> <PUBCHEM_ATOM_DEF_STEREO_COUNT>
0

> <PUBCHEM_ATOM_UDEF_STEREO_COUNT>
0

> <PUBCHEM_BOND_DEF_STEREO_COUNT>
0

> <PUBCHEM_BOND_UDEF_STEREO_COUNT>
0

> <PUBCHEM_ISOTOPIC_ATOM_COUNT>
0

> <PUBCHEM_COMPONENT_COUNT>
1

> <PUBCHEM_CACTVS_TAUTO_COUNT>
18

> <PUBCHEM_CONFORMER_ID>
0000074800000001

> <PUBCHEM_MMFF94_ENERGY>
36.3527

> <PUBCHEM_FEATURE_SELFOVERLAP>
40.686

> <PUBCHEM_SHAPE_FINGERPRINT>
10967382 1 18338516335289510895
12553582 1 18337958887310521596
13140716 1 18411422782685851554
14022347 108 17974251453449896781
14178342 30 18047765805467478033
1420 336 18340488971067245970
14251705 54 18123470479807061530
15375462 189 18268989782706620209
16752209 62 18194409007083136109
16945 1 18266180535098912701
17804303 29 18116428327111436548
20291156 8 18412544344617260962
20442098 301 18337114561486416794
21197605 99 14448804445834865162
21634736 98 18342166783325432054
22445834 79 18339077094862625121
2255824 54 17837489644163412693
23184049 29 18337676420523549636
2334 1 18409444825660102949
23463225 33 18410007745332494837
23559900 14 18334861580858217472
2748010 2 16681737399968964461
34934 24 18262802847925514333
539174 4 16814313148812080123
7097593 13 18337948970420984713
7364860 26 18191870024434418224
90525 40 17907016527648247354

> <PUBCHEM_SHAPE_MULTIPOLES>
342.86
5.51
3.86
0.89
1.07
0.67
0.01
2.84
-0.41
0.09
-0.42
0.26
0.16
-0.75

> <PUBCHEM_SHAPE_SELFOVERLAP>
728.325

> <PUBCHEM_SHAPE_VOLUME>
193.3

> <PUBCHEM_COORDINATE_TYPE>
2
5
10

$$$$

