255703
  -OEChem-07051213063D

 52 55  0     1  0  0  0  0  0999 V2000
   -5.3709    0.2321   -0.9419 O   0  0  0  0  0  0  0  0  0  0  0  0
    6.2802    0.4359    0.3940 O   0  0  0  0  0  0  0  0  0  0  0  0
   -1.3790   -0.9420    0.4032 C   0  0  2  0  0  0  0  0  0  0  0  0
   -2.2127    0.2617   -0.0874 C   0  0  2  0  0  0  0  0  0  0  0  0
    0.0495   -0.9349   -0.1447 C   0  0  1  0  0  0  0  0  0  0  0  0
    0.7607    0.3687    0.3254 C   0  0  1  0  0  0  0  0  0  0  0  0
    2.2060    0.4223   -0.2443 C   0  0  2  0  0  0  0  0  0  0  0  0
   -1.5415    1.5396    0.4326 C   0  0  0  0  0  0  0  0  0  0  0  0
   -3.5627   -0.0806    0.5810 C   0  0  2  0  0  0  0  0  0  0  0  0
   -0.0697    1.6330   -0.0082 C   0  0  0  0  0  0  0  0  0  0  0  0
   -2.2803   -2.1372    0.1136 C   0  0  0  0  0  0  0  0  0  0  0  0
    0.8405   -2.1698    0.3011 C   0  0  0  0  0  0  0  0  0  0  0  0
    2.9953   -0.8440    0.1783 C   0  0  1  0  0  0  0  0  0  0  0  0
   -3.6955   -1.6084    0.4093 C   0  0  0  0  0  0  0  0  0  0  0  0
    2.2679   -2.1290   -0.2331 C   0  0  0  0  0  0  0  0  0  0  0  0
   -2.3591    0.3404   -1.6296 C   0  0  0  0  0  0  0  0  0  0  0  0
    2.9757    1.6797    0.2071 C   0  0  0  0  0  0  0  0  0  0  0  0
    4.4132   -0.8407   -0.3985 C   0  0  0  0  0  0  0  0  0  0  0  0
   -4.7369    0.6607    0.0211 C   0  0  0  0  0  0  0  0  0  0  0  0
    4.3966    1.7205   -0.3411 C   0  0  0  0  0  0  0  0  0  0  0  0
    5.1272    0.4376   -0.0338 C   0  0  0  0  0  0  0  0  0  0  0  0
   -5.1048    1.9544    0.6958 C   0  0  0  0  0  0  0  0  0  0  0  0
   -1.2950   -0.8830    1.5016 H   0  0  0  0  0  0  0  0  0  0  0  0
    0.0219   -0.9498   -1.2412 H   0  0  0  0  0  0  0  0  0  0  0  0
    0.8388    0.3289    1.4225 H   0  0  0  0  0  0  0  0  0  0  0  0
    2.1395    0.4434   -1.3417 H   0  0  0  0  0  0  0  0  0  0  0  0
   -1.5797    1.5656    1.5293 H   0  0  0  0  0  0  0  0  0  0  0  0
   -2.0738    2.4306    0.0817 H   0  0  0  0  0  0  0  0  0  0  0  0
   -3.5169    0.1255    1.6594 H   0  0  0  0  0  0  0  0  0  0  0  0
   -0.0153    1.8365   -1.0839 H   0  0  0  0  0  0  0  0  0  0  0  0
    0.3643    2.5057    0.4928 H   0  0  0  0  0  0  0  0  0  0  0  0
   -2.0389   -2.9987    0.7445 H   0  0  0  0  0  0  0  0  0  0  0  0
   -2.1995   -2.4579   -0.9309 H   0  0  0  0  0  0  0  0  0  0  0  0
    0.3553   -3.0833   -0.0612 H   0  0  0  0  0  0  0  0  0  0  0  0
    0.8602   -2.2312    1.3965 H   0  0  0  0  0  0  0  0  0  0  0  0
    3.0783   -0.8389    1.2753 H   0  0  0  0  0  0  0  0  0  0  0  0
   -4.3790   -1.9119   -0.3902 H   0  0  0  0  0  0  0  0  0  0  0  0
   -4.0800   -2.0516    1.3357 H   0  0  0  0  0  0  0  0  0  0  0  0
    2.8154   -3.0032    0.1393 H   0  0  0  0  0  0  0  0  0  0  0  0
    2.2466   -2.2119   -1.3274 H   0  0  0  0  0  0  0  0  0  0  0  0
   -2.8798   -0.5274   -2.0466 H   0  0  0  0  0  0  0  0  0  0  0  0
   -2.9268    1.2319   -1.9204 H   0  0  0  0  0  0  0  0  0  0  0  0
   -1.3964    0.4076   -2.1428 H   0  0  0  0  0  0  0  0  0  0  0  0
    3.0074    1.7128    1.3037 H   0  0  0  0  0  0  0  0  0  0  0  0
    2.4642    2.5878   -0.1282 H   0  0  0  0  0  0  0  0  0  0  0  0
    4.4021   -0.9225   -1.4913 H   0  0  0  0  0  0  0  0  0  0  0  0
    4.9846   -1.6873   -0.0013 H   0  0  0  0  0  0  0  0  0  0  0  0
    4.9423    2.5595    0.1034 H   0  0  0  0  0  0  0  0  0  0  0  0
    4.3912    1.8563   -1.4281 H   0  0  0  0  0  0  0  0  0  0  0  0
   -5.2784    1.7805    1.7606 H   0  0  0  0  0  0  0  0  0  0  0  0
   -4.3128    2.6916    0.5571 H   0  0  0  0  0  0  0  0  0  0  0  0
   -6.0267    2.3449    0.2551 H   0  0  0  0  0  0  0  0  0  0  0  0
  1 19  2  0  0  0  0
  2 21  2  0  0  0  0
  3  4  1  0  0  0  0
  3  5  1  0  0  0  0
  3 11  1  0  0  0  0
  3 23  1  0  0  0  0
  4  8  1  0  0  0  0
  4  9  1  0  0  0  0
  4 16  1  0  0  0  0
  5  6  1  0  0  0  0
  5 12  1  0  0  0  0
  5 24  1  0  0  0  0
  6  7  1  0  0  0  0
  6 10  1  0  0  0  0
  6 25  1  0  0  0  0
  7 13  1  0  0  0  0
  7 17  1  0  0  0  0
  7 26  1  0  0  0  0
  8 10  1  0  0  0  0
  8 27  1  0  0  0  0
  8 28  1  0  0  0  0
  9 14  1  0  0  0  0
  9 19  1  0  0  0  0
  9 29  1  0  0  0  0
 10 30  1  0  0  0  0
 10 31  1  0  0  0  0
 11 14  1  0  0  0  0
 11 32  1  0  0  0  0
 11 33  1  0  0  0  0
 12 15  1  0  0  0  0
 12 34  1  0  0  0  0
 12 35  1  0  0  0  0
 13 15  1  0  0  0  0
 13 18  1  0  0  0  0
 13 36  1  0  0  0  0
 14 37  1  0  0  0  0
 14 38  1  0  0  0  0
 15 39  1  0  0  0  0
 15 40  1  0  0  0  0
 16 41  1  0  0  0  0
 16 42  1  0  0  0  0
 16 43  1  0  0  0  0
 17 20  1  0  0  0  0
 17 44  1  0  0  0  0
 17 45  1  0  0  0  0
 18 21  1  0  0  0  0
 18 46  1  0  0  0  0
 18 47  1  0  0  0  0
 19 22  1  0  0  0  0
 20 21  1  0  0  0  0
 20 48  1  0  0  0  0
 20 49  1  0  0  0  0
 22 50  1  0  0  0  0
 22 51  1  0  0  0  0
 22 52  1  0  0  0  0
M  END
> <PUBCHEM_COMPOUND_CID>
255703

> <PUBCHEM_CONFORMER_RMSD>
0.6

> <PUBCHEM_CONFORMER_DIVERSEORDER>
1
2

> <PUBCHEM_MMFF94_PARTIAL_CHARGES>
8
1 -0.57
18 0.06
19 0.45
2 -0.57
20 0.06
21 0.45
22 0.06
9 0.06

> <PUBCHEM_EFFECTIVE_ROTOR_COUNT>
3

> <PUBCHEM_PHARMACOPHORE_FEATURES>
6
1 1 acceptor
1 2 acceptor
5 3 4 9 11 14 rings
6 3 4 5 6 8 10 rings
6 5 6 7 12 13 15 rings
6 7 13 17 18 20 21 rings

> <PUBCHEM_HEAVY_ATOM_COUNT>
22

> <PUBCHEM_ATOM_DEF_STEREO_COUNT>
7

> <PUBCHEM_ATOM_UDEF_STEREO_COUNT>
0

> <PUBCHEM_BOND_DEF_STEREO_COUNT>
0

> <PUBCHEM_BOND_UDEF_STEREO_COUNT>
0

> <PUBCHEM_ISOTOPIC_ATOM_COUNT>
0

> <PUBCHEM_COMPONENT_COUNT>
1

> <PUBCHEM_CACTVS_TAUTO_COUNT>
9

> <PUBCHEM_CONFORMER_ID>
0003E6D700000001

> <PUBCHEM_MMFF94_ENERGY>
61.715

> <PUBCHEM_FEATURE_SELFOVERLAP>
30.539

> <PUBCHEM_SHAPE_FINGERPRINT>
10411042 1 17618219503487764507
10616163 171 18409444752424294583
10906281 52 18338217345446827128
10967382 1 18410854386739908658
11089746 13 17749113283313756712
11471102 20 18410012147642084278
11578080 2 16915394418366347718
11595378 159 16128388106876230356
12107183 9 17542216209035700857
12236239 1 17749391493977834396
12403259 415 18262516966903078392
12403814 3 17632580448617231351
12788726 201 17532086275333865729
12838862 33 18338254707889912240
13140716 1 18411706448148325458
13214271 11 18335700520824345119
13224815 77 18412265025740604082
14251764 18 18259700117213507537
14528608 73 18334014986272508909
14790565 3 18410285917426880145
15196674 1 18411134710475551378
15375358 24 18412259540961937051
15536298 74 18335135397554135870
15788980 27 16630528422903617316
15840311 113 18048302634506490761
1601671 61 18411135840178576744
16945 1 18339931539940928642
18186145 218 18343305855627900638
19489759 90 5256408292605810905
19784866 170 18343862225517273185
200 152 17967817145589484945
20645477 56 17988929989446456037
20645477 70 18261110811241734470
21267235 1 18338789027343418635
21279426 13 18337386170474875374
21304253 335 18270108128056302285
21421861 104 17916311713308901674
21709351 56 18341335491814376430
23227448 37 18410011000933594679
23402539 116 18335987480352798142
23402655 69 18334576849578228654
23557571 272 18262791870052519606
23559900 14 18336266752233280272
26918003 58 18411419496982778120
2871803 45 18411418444826397942
296302 2 18342174475242652327
3004659 81 18342736321996055612
335352 9 18411135849190465846
34797466 226 16153707574809920560
34934 24 18410577309667511667
351380 180 18410855443560248386
3545911 37 18412543210492641716
3680242 22 18270682081873970826
4214541 1 18411417293485200681
4340502 62 16916778622001247539
474 4 18201716236891556160
5104073 3 18342738507211348074
542803 24 17704349957523462692
543358 83 18336542827955720594
633830 44 18408605851011736918
9709674 26 18335413625134982118

> <PUBCHEM_SHAPE_MULTIPOLES>
441.01
11.71
2.27
0.86
3.71
0.46
0.21
-3.8
-0.07
-0.16
-0.23
-0.56
-0.08
-0.04

> <PUBCHEM_SHAPE_SELFOVERLAP>
937.222

> <PUBCHEM_SHAPE_VOLUME>
244.1

> <PUBCHEM_COORDINATE_TYPE>
2
5
10

$$$$

