168927
  -OEChem-07051212562D

 84 96  0     1  0  0  0  0  0999 V2000
    2.9325    0.0134    0.0000 O   0  0  0  0  0  0  0  0  0  0  0  0
    7.3300    0.8343    0.0000 O   0  0  0  0  0  0  0  0  0  0  0  0
    6.1072    1.2024    0.0000 N   0  0  3  0  0  0  0  0  0  0  0  0
    4.2594   -0.6453    0.0000 N   0  0  3  0  0  0  0  0  0  0  0  0
    3.7701    3.1977    0.0000 N   0  0  3  0  0  0  0  0  0  0  0  0
    6.0311   -3.7190    0.0000 N   0  0  3  0  0  0  0  0  0  0  0  0
    5.2639    2.5759    0.0000 C   0  0  2  0  0  0  0  0  0  0  0  0
    5.0314   -2.0585    0.0000 C   0  0  2  0  0  0  0  0  0  0  0  0
    5.1833    1.5851    0.0000 C   0  0  2  0  0  0  0  0  0  0  0  0
    5.1833   -1.0280    0.0000 C   0  0  2  0  0  0  0  0  0  0  0  0
    6.1072   -0.6453    0.0000 C   0  0  1  0  0  0  0  0  0  0  0  0
    4.2594    1.2024    0.0000 C   0  0  1  0  0  0  0  0  0  0  0  0
    5.8529   -2.6990    0.0000 C   0  0  2  0  0  0  0  0  0  0  0  0
    4.2911    2.3442    0.0000 C   0  0  2  0  0  0  0  0  0  0  0  0
    3.7792    2.0576    0.0000 C   0  0  1  0  0  0  0  0  0  0  0  0
    6.9432   -1.2666    0.0000 C   0  0  1  0  0  0  0  0  0  0  0  0
    6.4898    0.2785    0.0000 C   0  0  1  0  0  0  0  0  0  0  0  0
    3.8767    0.2785    0.0000 C   0  0  1  0  0  0  0  0  0  0  0  0
    4.5094    1.3536    0.0000 C   0  0  0  0  0  0  0  0  0  0  0  0
    6.8152   -2.3004    0.0000 C   0  0  0  0  0  0  0  0  0  0  0  0
    4.5809   -2.9908    0.0000 C   0  0  0  0  0  0  0  0  0  0  0  0
    5.3440    3.5727    0.0000 C   0  0  0  0  0  0  0  0  0  0  0  0
    6.2307    2.8071    0.0000 C   0  0  0  0  0  0  0  0  0  0  0  0
    4.0550   -2.2403    0.0000 C   0  0  0  0  0  0  0  0  0  0  0  0
    5.2220   -3.9570    0.0000 C   0  0  0  0  0  0  0  0  0  0  0  0
    4.4208    3.9570    0.0000 C   0  0  0  0  0  0  0  0  0  0  0  0
    3.5788   -1.3687    0.0000 C   0  0  0  0  0  0  0  0  0  0  0  0
    6.7508    1.9600    0.0000 C   0  0  0  0  0  0  0  0  0  0  0  0
    2.8116    2.2180    0.0000 C   0  0  0  0  0  0  0  0  0  0  0  0
    7.9504   -1.2803    0.0000 C   0  0  0  0  0  0  0  0  0  0  0  0
    2.7686    3.2188    0.0000 C   0  0  0  0  0  0  0  0  0  0  0  0
    7.6948   -3.0537    0.0000 C   0  0  0  0  0  0  0  0  0  0  0  0
    6.7099    3.7250    0.0000 C   0  0  0  0  0  0  0  0  0  0  0  0
    3.5304   -3.1320    0.0000 C   0  0  0  0  0  0  0  0  0  0  0  0
    2.0812    1.5635    0.0000 C   0  0  0  0  0  0  0  0  0  0  0  0
    8.5596   -0.4781    0.0000 C   0  0  0  0  0  0  0  0  0  0  0  0
    8.2760    0.4884    0.0000 C   0  0  0  0  0  0  0  0  0  0  0  0
    2.1349    0.5842    0.0000 C   0  0  0  0  0  0  0  0  0  0  0  0
    7.7862    1.9720    0.0000 C   0  0  0  0  0  0  0  0  0  0  0  0
    2.5451   -1.3284    0.0000 C   0  0  0  0  0  0  0  0  0  0  0  0
    7.7447    3.7610    0.0000 C   0  0  0  0  0  0  0  0  0  0  0  0
    2.4960   -3.1156    0.0000 C   0  0  0  0  0  0  0  0  0  0  0  0
    8.2865    2.8786    0.0000 C   0  0  0  0  0  0  0  0  0  0  0  0
    2.0000   -2.2077    0.0000 C   0  0  0  0  0  0  0  0  0  0  0  0
    4.9277    2.3958    0.0000 H   0  0  0  0  0  0  0  0  0  0  0  0
    5.9686   -1.3533    0.0000 H   0  0  0  0  0  0  0  0  0  0  0  0
    4.2965    2.0516    0.0000 H   0  0  0  0  0  0  0  0  0  0  0  0
    5.7819   -1.4306    0.0000 H   0  0  0  0  0  0  0  0  0  0  0  0
    3.8931    3.0952    0.0000 H   0  0  0  0  0  0  0  0  0  0  0  0
    6.5232   -3.2216    0.0000 H   0  0  0  0  0  0  0  0  0  0  0  0
    7.7247   -0.9323    0.0000 H   0  0  0  0  0  0  0  0  0  0  0  0
    3.2596    2.7304    0.0000 H   0  0  0  0  0  0  0  0  0  0  0  0
    7.1457   -0.2622    0.0000 H   0  0  0  0  0  0  0  0  0  0  0  0
    3.5054   -0.4860    0.0000 H   0  0  0  0  0  0  0  0  0  0  0  0
    4.2459    0.7924    0.0000 H   0  0  0  0  0  0  0  0  0  0  0  0
    5.1256    1.2849    0.0000 H   0  0  0  0  0  0  0  0  0  0  0  0
    6.9510   -2.9053    0.0000 H   0  0  0  0  0  0  0  0  0  0  0  0
    7.4345   -2.2701    0.0000 H   0  0  0  0  0  0  0  0  0  0  0  0
    5.9535    3.4587    0.0000 H   0  0  0  0  0  0  0  0  0  0  0  0
    5.5212    4.1669    0.0000 H   0  0  0  0  0  0  0  0  0  0  0  0
    4.0793   -2.6263    0.0000 H   0  0  0  0  0  0  0  0  0  0  0  0
    4.1332   -3.4198    0.0000 H   0  0  0  0  0  0  0  0  0  0  0  0
    4.7176    4.5013    0.0000 H   0  0  0  0  0  0  0  0  0  0  0  0
    3.9105    4.3090    0.0000 H   0  0  0  0  0  0  0  0  0  0  0  0
    4.6738   -4.2465    0.0000 H   0  0  0  0  0  0  0  0  0  0  0  0
    5.4554   -4.5314    0.0000 H   0  0  0  0  0  0  0  0  0  0  0  0
    2.7684    3.8388    0.0000 H   0  0  0  0  0  0  0  0  0  0  0  0
    2.1487    3.2054    0.0000 H   0  0  0  0  0  0  0  0  0  0  0  0
    7.8215   -3.6606    0.0000 H   0  0  0  0  0  0  0  0  0  0  0  0
    8.3144   -3.0343    0.0000 H   0  0  0  0  0  0  0  0  0  0  0  0
    6.3794    4.2496    0.0000 H   0  0  0  0  0  0  0  0  0  0  0  0
    3.8339   -3.6726    0.0000 H   0  0  0  0  0  0  0  0  0  0  0  0
    9.1694   -0.5904    0.0000 H   0  0  0  0  0  0  0  0  0  0  0  0
    1.5084    1.8007    0.0000 H   0  0  0  0  0  0  0  0  0  0  0  0
    1.5239    0.6894    0.0000 H   0  0  0  0  0  0  0  0  0  0  0  0
    1.8958    0.0121    0.0000 H   0  0  0  0  0  0  0  0  0  0  0  0
    8.8944    0.5339    0.0000 H   0  0  0  0  0  0  0  0  0  0  0  0
    8.3617    1.1025    0.0000 H   0  0  0  0  0  0  0  0  0  0  0  0
    2.2542   -0.7808    0.0000 H   0  0  0  0  0  0  0  0  0  0  0  0
    8.1045    1.4400    0.0000 H   0  0  0  0  0  0  0  0  0  0  0  0
    8.0380    4.3073    0.0000 H   0  0  0  0  0  0  0  0  0  0  0  0
    2.1754   -3.6463    0.0000 H   0  0  0  0  0  0  0  0  0  0  0  0
    8.9063    2.8930    0.0000 H   0  0  0  0  0  0  0  0  0  0  0  0
    1.3802   -2.1907    0.0000 H   0  0  0  0  0  0  0  0  0  0  0  0
  1 18  1  0  0  0  0
  1 38  1  0  0  0  0
  2 17  1  0  0  0  0
  2 37  1  0  0  0  0
  3  9  1  0  0  0  0
  3 17  1  0  0  0  0
  3 28  1  0  0  0  0
  4 10  1  0  0  0  0
  4 18  1  0  0  0  0
  4 27  1  0  0  0  0
  5 14  1  0  0  0  0
  5 26  1  0  0  0  0
  5 31  1  0  0  0  0
  6 13  1  0  0  0  0
  6 25  1  0  0  0  0
  6 32  1  0  0  0  0
  7  9  1  0  0  0  0
  7 14  1  0  0  0  0
  7 22  1  6  0  0  0
  7 23  1  0  0  0  0
  8 10  1  0  0  0  0
  8 13  1  0  0  0  0
  8 21  1  6  0  0  0
  8 24  1  0  0  0  0
  9 12  1  0  0  0  0
  9 45  1  6  0  0  0
 10 11  1  0  0  0  0
 10 46  1  6  0  0  0
 11 16  1  0  0  0  0
 11 17  1  0  0  0  0
 11 48  1  1  0  0  0
 12 15  1  0  0  0  0
 12 18  1  0  0  0  0
 12 47  1  1  0  0  0
 13 20  1  0  0  0  0
 13 50  1  1  0  0  0
 14 19  1  0  0  0  0
 14 49  1  1  0  0  0
 15 19  1  0  0  0  0
 15 29  1  0  0  0  0
 15 52  1  1  0  0  0
 16 20  1  0  0  0  0
 16 30  1  0  0  0  0
 16 51  1  1  0  0  0
 17 53  1  1  0  0  0
 18 54  1  1  0  0  0
 19 55  1  0  0  0  0
 19 56  1  0  0  0  0
 20 57  1  0  0  0  0
 20 58  1  0  0  0  0
 21 25  1  0  0  0  0
 21 61  1  0  0  0  0
 21 62  1  0  0  0  0
 22 26  1  0  0  0  0
 22 59  1  0  0  0  0
 22 60  1  0  0  0  0
 23 28  1  0  0  0  0
 23 33  2  0  0  0  0
 24 27  1  0  0  0  0
 24 34  2  0  0  0  0
 25 65  1  0  0  0  0
 25 66  1  0  0  0  0
 26 63  1  0  0  0  0
 26 64  1  0  0  0  0
 27 40  2  0  0  0  0
 28 39  2  0  0  0  0
 29 31  1  0  0  0  0
 29 35  2  0  0  0  0
 30 32  1  0  0  0  0
 30 36  2  0  0  0  0
 31 67  1  0  0  0  0
 31 68  1  0  0  0  0
 32 69  1  0  0  0  0
 32 70  1  0  0  0  0
 33 41  1  0  0  0  0
 33 71  1  0  0  0  0
 34 42  1  0  0  0  0
 34 72  1  0  0  0  0
 35 38  1  0  0  0  0
 35 74  1  0  0  0  0
 36 37  1  0  0  0  0
 36 73  1  0  0  0  0
 37 77  1  0  0  0  0
 37 78  1  0  0  0  0
 38 75  1  0  0  0  0
 38 76  1  0  0  0  0
 39 43  1  0  0  0  0
 39 80  1  0  0  0  0
 40 44  1  0  0  0  0
 40 79  1  0  0  0  0
 41 43  2  0  0  0  0
 41 81  1  0  0  0  0
 42 44  2  0  0  0  0
 42 82  1  0  0  0  0
 43 83  1  0  0  0  0
 44 84  1  0  0  0  0
M  END
> <PUBCHEM_COMPOUND_CID>
168927

> <PUBCHEM_COMPOUND_CANONICALIZED>
1

> <PUBCHEM_CACTVS_COMPLEXITY>
1280

> <PUBCHEM_CACTVS_HBOND_ACCEPTOR>
6

> <PUBCHEM_CACTVS_HBOND_DONOR>
0

> <PUBCHEM_CACTVS_ROTATABLE_BOND>
0

> <PUBCHEM_CACTVS_SUBSKEYS>
AAADcfB/sAAAAAAAAAAAAAAAAAAAAWLFiwA8eMGCBAgWLFgBQAAAHgAAAAAADyjhmAYwwIMABACAAiRCQACCAAAhAgAIiAAIZIgIJCLA8ZGOMAhmgADI6AeQ0PMPgAAAAAACAACQAASACCQAAAAAAAAAAA==

> <PUBCHEM_IUPAC_INCHI>
InChI=1S/C38H40N4O2/c1-3-7-27-25(5-1)37-11-13-39-19-21-10-16-44-36-31(23(21)17-29(37)39)33(37)41(27)35-32-24-18-30-38(12-14-40(30)20-22(24)9-15-43-35)26-6-2-4-8-28(26)42(36)34(32)38/h1-10,23-24,29-36H,11-20H2/t23-,24-,29-,30-,31+,32+,33-,34-,35+,36+,37+,38+/m0/s1

> <PUBCHEM_IUPAC_INCHIKEY>
CIRUUTNLDXXBKU-HCKBHOMASA-N

> <PUBCHEM_XLOGP3_AA>
3.9

> <PUBCHEM_EXACT_MASS>
584.315127

> <PUBCHEM_MOLECULAR_FORMULA>
C38H40N4O2

> <PUBCHEM_MOLECULAR_WEIGHT>
584.7498

> <PUBCHEM_OPENEYE_CAN_SMILES>
C1CN2CC3=CCOC4C5C3CC2C16C5N(C7C8C9CC1C2(C8N4C3=CC=CC=C32)CCN1CC9=CCO7)C1=CC=CC=C61

> <PUBCHEM_OPENEYE_ISO_SMILES>
C1CN2CC3=CCO[C@@H]4[C@@H]5[C@H]3C[C@H]2[C@@]16[C@H]5N([C@H]7[C@@H]8[C@H]9C[C@H]1[C@@]2([C@H]8N4C3=CC=CC=C32)CCN1CC9=CCO7)C1=CC=CC=C61

> <PUBCHEM_CACTVS_TPSA>
31.4

> <PUBCHEM_MONOISOTOPIC_WEIGHT>
584.315127

> <PUBCHEM_TOTAL_CHARGE>
0

> <PUBCHEM_HEAVY_ATOM_COUNT>
44

> <PUBCHEM_ATOM_DEF_STEREO_COUNT>
12

> <PUBCHEM_ATOM_UDEF_STEREO_COUNT>
0

> <PUBCHEM_BOND_DEF_STEREO_COUNT>
0

> <PUBCHEM_BOND_UDEF_STEREO_COUNT>
0

> <PUBCHEM_ISOTOPIC_ATOM_COUNT>
0

> <PUBCHEM_COMPONENT_COUNT>
1

> <PUBCHEM_CACTVS_TAUTO_COUNT>
1

> <PUBCHEM_COORDINATE_TYPE>
1
5
255

> <PUBCHEM_BONDANNOTATIONS>
10  46  6
11  48  5
12  47  5
13  50  5
14  49  5
15  52  5
16  51  5
17  53  5
18  54  5
23  28  8
23  33  8
24  27  8
24  34  8
27  40  8
28  39  8
33  41  8
34  42  8
39  43  8
40  44  8
41  43  8
42  44  8
7  22  6
8  21  6
9  45  6

$$$$

