6438581
  -OEChem-07051213152D

100102  0     1  0  0  0  0  0999 V2000
   12.7520   -2.1705    0.0000 Cl  0  0  0  0  0  0  0  0  0  0  0  0
    9.2879   -2.1705    0.0000 O   0  0  0  0  0  0  0  0  0  0  0  0
    7.4219   -0.9385    0.0000 O   0  0  0  0  0  0  0  0  0  0  0  0
    6.3873   -5.1112    0.0000 O   0  0  0  0  0  0  0  0  0  0  0  0
   11.8681   -5.7002    0.0000 O   0  0  0  0  0  0  0  0  0  0  0  0
    6.6212    0.1635    0.0000 O   0  0  0  0  0  0  0  0  0  0  0  0
   11.0199   -1.1705    0.0000 O   0  0  0  0  0  0  0  0  0  0  0  0
    9.5303   -7.1931    0.0000 O   0  0  0  0  0  0  0  0  0  0  0  0
    3.6357    2.1850    0.0000 O   0  0  0  0  0  0  0  0  0  0  0  0
    2.6064    4.6224    0.0000 O   0  0  0  0  0  0  0  0  0  0  0  0
    2.9666    2.9282    0.0000 O   0  0  0  0  0  0  0  0  0  0  0  0
    4.2026    6.7324    0.0000 O   0  0  0  0  0  0  0  0  0  0  0  0
    2.9155    5.5734    0.0000 O   0  0  0  0  0  0  0  0  0  0  0  0
    5.9219   -1.8045    0.0000 N   0  0  0  0  0  0  0  0  0  0  0  0
    6.9219   -3.5365    0.0000 N   0  0  0  0  0  0  0  0  0  0  0  0
    8.3055   -5.9684    0.0000 N   0  0  0  0  0  0  0  0  0  0  0  0
    4.9740    0.6987    0.0000 N   0  0  0  0  0  0  0  0  0  0  0  0
    9.1791   -4.9193    0.0000 N   0  0  0  0  0  0  0  0  0  0  0  0
    4.9229    3.3440    0.0000 N   0  0  0  0  0  0  0  0  0  0  0  0
    8.4219   -2.6705    0.0000 C   0  0  1  0  0  0  0  0  0  0  0  0
    7.4219   -2.6705    0.0000 C   0  0  1  0  0  0  0  0  0  0  0  0
    8.9219   -3.5365    0.0000 C   0  0  0  0  0  0  0  0  0  0  0  0
    6.9219   -1.8045    0.0000 C   0  0  0  0  0  0  0  0  0  0  0  0
    7.6559   -3.3134    0.0000 C   0  0  0  0  0  0  0  0  0  0  0  0
    5.3341   -0.9955    0.0000 C   0  0  1  0  0  0  0  0  0  0  0  0
    5.3341   -2.6135    0.0000 C   0  0  0  0  0  0  0  0  0  0  0  0
    9.5647   -2.7705    0.0000 C   0  0  0  0  0  0  0  0  0  0  0  0
    4.3830   -1.3045    0.0000 C   0  0  0  0  0  0  0  0  0  0  0  0
    7.1807   -4.5025    0.0000 C   0  0  0  0  0  0  0  0  0  0  0  0
    4.3830   -2.3045    0.0000 C   0  0  0  0  0  0  0  0  0  0  0  0
   10.1539   -2.6705    0.0000 C   0  0  0  0  0  0  0  0  0  0  0  0
    8.0467   -5.0025    0.0000 C   0  0  2  0  0  0  0  0  0  0  0  0
    5.6431   -0.0444    0.0000 C   0  0  0  0  0  0  0  0  0  0  0  0
   11.0199   -5.1705    0.0000 C   0  0  2  0  0  0  0  0  0  0  0  0
    9.9786   -5.5201    0.0000 C   0  0  1  0  0  0  0  0  0  0  0  0
   11.0199   -4.1705    0.0000 C   0  0  0  0  0  0  0  0  0  0  0  0
   10.1539   -3.6705    0.0000 C   0  0  0  0  0  0  0  0  0  0  0  0
   11.0199   -2.1705    0.0000 C   0  0  0  0  0  0  0  0  0  0  0  0
    9.2714   -6.2272    0.0000 C   0  0  0  0  0  0  0  0  0  0  0  0
    8.8400   -4.3937    0.0000 C   0  0  0  0  0  0  0  0  0  0  0  0
   11.8860   -3.6705    0.0000 C   0  0  0  0  0  0  0  0  0  0  0  0
   11.8860   -2.6705    0.0000 C   0  0  0  0  0  0  0  0  0  0  0  0
    9.8164   -4.6102    0.0000 C   0  0  0  0  0  0  0  0  0  0  0  0
    5.2830    1.6498    0.0000 C   0  0  0  0  0  0  0  0  0  0  0  0
    8.2313   -3.6004    0.0000 C   0  0  0  0  0  0  0  0  0  0  0  0
    9.4702   -3.9626    0.0000 C   0  0  0  0  0  0  0  0  0  0  0  0
    6.2611    1.8577    0.0000 C   0  0  0  0  0  0  0  0  0  0  0  0
    4.6138    2.3929    0.0000 C   0  0  0  0  0  0  0  0  0  0  0  0
    6.5701    2.8088    0.0000 C   0  0  0  0  0  0  0  0  0  0  0  0
    6.9302    1.1146    0.0000 C   0  0  0  0  0  0  0  0  0  0  0  0
    7.5483    3.0167    0.0000 C   0  0  0  0  0  0  0  0  0  0  0  0
    4.2537    4.0871    0.0000 C   0  0  0  0  0  0  0  0  0  0  0  0
    4.5628    5.0382    0.0000 C   0  0  0  0  0  0  0  0  0  0  0  0
    3.2756    3.8792    0.0000 C   0  0  0  0  0  0  0  0  0  0  0  0
    3.8936    5.7813    0.0000 C   0  0  0  0  0  0  0  0  0  0  0  0
    6.8019   -2.6705    0.0000 H   0  0  0  0  0  0  0  0  0  0  0  0
    8.4245   -3.9068    0.0000 H   0  0  0  0  0  0  0  0  0  0  0  0
    9.3473   -3.9875    0.0000 H   0  0  0  0  0  0  0  0  0  0  0  0
    7.2573   -2.8385    0.0000 H   0  0  0  0  0  0  0  0  0  0  0  0
    7.1810   -3.7120    0.0000 H   0  0  0  0  0  0  0  0  0  0  0  0
    8.0545   -3.7883    0.0000 H   0  0  0  0  0  0  0  0  0  0  0  0
    5.9464   -0.8985    0.0000 H   0  0  0  0  0  0  0  0  0  0  0  0
    6.3072   -3.4556    0.0000 H   0  0  0  0  0  0  0  0  0  0  0  0
    5.0819   -3.1799    0.0000 H   0  0  0  0  0  0  0  0  0  0  0  0
    5.8710   -2.9235    0.0000 H   0  0  0  0  0  0  0  0  0  0  0  0
   10.0396   -3.1691    0.0000 H   0  0  0  0  0  0  0  0  0  0  0  0
    9.9632   -2.2956    0.0000 H   0  0  0  0  0  0  0  0  0  0  0  0
    9.0898   -2.3720    0.0000 H   0  0  0  0  0  0  0  0  0  0  0  0
    3.8814   -0.9401    0.0000 H   0  0  0  0  0  0  0  0  0  0  0  0
    3.8814   -2.6689    0.0000 H   0  0  0  0  0  0  0  0  0  0  0  0
    8.6338   -5.2018    0.0000 H   0  0  0  0  0  0  0  0  0  0  0  0
   10.9474   -5.7863    0.0000 H   0  0  0  0  0  0  0  0  0  0  0  0
   10.0775   -4.9080    0.0000 H   0  0  0  0  0  0  0  0  0  0  0  0
    9.6170   -3.9805    0.0000 H   0  0  0  0  0  0  0  0  0  0  0  0
    7.8671   -6.4068    0.0000 H   0  0  0  0  0  0  0  0  0  0  0  0
   12.4229   -3.9805    0.0000 H   0  0  0  0  0  0  0  0  0  0  0  0
    4.3675    0.5698    0.0000 H   0  0  0  0  0  0  0  0  0  0  0  0
    8.8066   -5.4150    0.0000 H   0  0  0  0  0  0  0  0  0  0  0  0
    9.6822   -5.2154    0.0000 H   0  0  0  0  0  0  0  0  0  0  0  0
   10.4217   -4.7443    0.0000 H   0  0  0  0  0  0  0  0  0  0  0  0
    9.9505   -4.0048    0.0000 H   0  0  0  0  0  0  0  0  0  0  0  0
   11.8466   -6.3199    0.0000 H   0  0  0  0  0  0  0  0  0  0  0  0
    8.4686   -3.0276    0.0000 H   0  0  0  0  0  0  0  0  0  0  0  0
    7.6166   -3.6813    0.0000 H   0  0  0  0  0  0  0  0  0  0  0  0
   11.5569   -0.8605    0.0000 H   0  0  0  0  0  0  0  0  0  0  0  0
   10.0634   -4.1431    0.0000 H   0  0  0  0  0  0  0  0  0  0  0  0
    9.6507   -3.3695    0.0000 H   0  0  0  0  0  0  0  0  0  0  0  0
    8.8771   -3.7822    0.0000 H   0  0  0  0  0  0  0  0  0  0  0  0
    6.5485    3.4284    0.0000 H   0  0  0  0  0  0  0  0  0  0  0  0
    5.9562    2.8950    0.0000 H   0  0  0  0  0  0  0  0  0  0  0  0
    6.4695    0.6997    0.0000 H   0  0  0  0  0  0  0  0  0  0  0  0
    7.3451    0.6538    0.0000 H   0  0  0  0  0  0  0  0  0  0  0  0
    7.3910    1.5294    0.0000 H   0  0  0  0  0  0  0  0  0  0  0  0
    7.6772    2.4102    0.0000 H   0  0  0  0  0  0  0  0  0  0  0  0
    8.1547    3.1456    0.0000 H   0  0  0  0  0  0  0  0  0  0  0  0
    7.4194    3.6231    0.0000 H   0  0  0  0  0  0  0  0  0  0  0  0
    5.5293    3.4729    0.0000 H   0  0  0  0  0  0  0  0  0  0  0  0
    5.1692    5.1671    0.0000 H   0  0  0  0  0  0  0  0  0  0  0  0
    2.0000    4.4935    0.0000 H   0  0  0  0  0  0  0  0  0  0  0  0
    3.7878    7.1931    0.0000 H   0  0  0  0  0  0  0  0  0  0  0  0
  1 42  1  0  0  0  0
  2 20  1  0  0  0  0
  2 31  1  0  0  0  0
  3 23  2  0  0  0  0
  4 29  2  0  0  0  0
 34  5  1  6  0  0  0
  5 82  1  0  0  0  0
  6 33  2  0  0  0  0
  7 38  1  0  0  0  0
  7 85  1  0  0  0  0
  8 39  2  0  0  0  0
  9 48  2  0  0  0  0
 10 54  1  0  0  0  0
 10 99  1  0  0  0  0
 11 54  2  0  0  0  0
 12 55  1  0  0  0  0
 12100  1  0  0  0  0
 13 55  2  0  0  0  0
 14 23  1  0  0  0  0
 14 25  1  0  0  0  0
 14 26  1  0  0  0  0
 15 21  1  0  0  0  0
 15 29  1  0  0  0  0
 15 63  1  0  0  0  0
 16 32  1  0  0  0  0
 16 39  1  0  0  0  0
 16 75  1  0  0  0  0
 17 33  1  0  0  0  0
 17 44  1  0  0  0  0
 17 77  1  0  0  0  0
 35 18  1  1  0  0  0
 18 46  1  0  0  0  0
 18 78  1  0  0  0  0
 19 48  1  0  0  0  0
 19 52  1  0  0  0  0
 19 97  1  0  0  0  0
 20 21  1  0  0  0  0
 20 22  1  0  0  0  0
 20 24  1  1  0  0  0
 21 23  1  6  0  0  0
 21 56  1  0  0  0  0
 22 27  1  0  0  0  0
 22 57  1  0  0  0  0
 22 58  1  0  0  0  0
 24 59  1  0  0  0  0
 24 60  1  0  0  0  0
 24 61  1  0  0  0  0
 25 28  1  0  0  0  0
 25 33  1  1  0  0  0
 25 62  1  0  0  0  0
 26 30  1  0  0  0  0
 26 64  1  0  0  0  0
 26 65  1  0  0  0  0
 27 66  1  0  0  0  0
 27 67  1  0  0  0  0
 27 68  1  0  0  0  0
 28 30  2  0  0  0  0
 28 69  1  0  0  0  0
 29 32  1  0  0  0  0
 30 70  1  0  0  0  0
 31 37  1  0  0  0  0
 31 38  2  0  0  0  0
 32 40  1  6  0  0  0
 32 71  1  0  0  0  0
 34 35  1  0  0  0  0
 34 36  1  0  0  0  0
 34 72  1  0  0  0  0
 35 39  1  0  0  0  0
 35 73  1  0  0  0  0
 36 37  2  0  0  0  0
 36 41  1  0  0  0  0
 37 74  1  0  0  0  0
 38 42  1  0  0  0  0
 40 43  1  0  0  0  0
 40 45  2  0  0  0  0
 41 42  2  0  0  0  0
 41 76  1  0  0  0  0
 43 79  1  0  0  0  0
 43 80  1  0  0  0  0
 43 81  1  0  0  0  0
 44 47  2  0  0  0  0
 44 48  1  0  0  0  0
 45 83  1  0  0  0  0
 45 84  1  0  0  0  0
 46 86  1  0  0  0  0
 46 87  1  0  0  0  0
 46 88  1  0  0  0  0
 47 49  1  0  0  0  0
 47 50  1  0  0  0  0
 49 51  1  0  0  0  0
 49 89  1  0  0  0  0
 49 90  1  0  0  0  0
 50 91  1  0  0  0  0
 50 92  1  0  0  0  0
 50 93  1  0  0  0  0
 51 94  1  0  0  0  0
 51 95  1  0  0  0  0
 51 96  1  0  0  0  0
 52 53  2  0  0  0  0
 52 54  1  0  0  0  0
 53 55  1  0  0  0  0
 53 98  1  0  0  0  0
M  END
> <PUBCHEM_COMPOUND_CID>
6438581

> <PUBCHEM_COMPOUND_CANONICALIZED>
1

> <PUBCHEM_CACTVS_COMPLEXITY>
1660

> <PUBCHEM_CACTVS_HBOND_ACCEPTOR>
13

> <PUBCHEM_CACTVS_HBOND_DONOR>
9

> <PUBCHEM_CACTVS_ROTATABLE_BOND>
11

> <PUBCHEM_CACTVS_SUBSKEYS>
AAADcfB/vAAEAAAAAAAAAAAAAAAAAQAAAAAwAAAAAAAAAAABAAAAHgIQCAAADH7hmCYyDoPABgCIAiXSWACCCAAgJ0AIiIGOi8gPdjaHszuXeCOm9hGbucfY+LeOIAABIQAASABAAAJCAACQAAAAAAAAAA==

> <PUBCHEM_IUPAC_OPENEYE_NAME>
(E)-2-[[(E)-2-[[(2S)-1-[(2S,3S,6S,9S,10R)-14-chloro-10-ethyl-2,13-dihydroxy-6-isopropenyl-10-methyl-3-(methylamino)-4,7-dioxo-11-oxa-5,8-diazabicyclo[10.3.1]hexadeca-1(16),12,14-triene-9-carbonyl]-2,5-dihydropyrrole-2-carbonyl]amino]-3-methyl-pent-2-enoyl]amino]but-2-enedioic acid

> <PUBCHEM_IUPAC_CAS_NAME>
(E)-2-[[(E)-2-[[[(2S)-1-[[(2S,3S,6S,9S,10R)-14-chloro-10-ethyl-2,13-dihydroxy-10-methyl-3-(methylamino)-6-(1-methylethenyl)-4,7-dioxo-11-oxa-5,8-diazabicyclo[10.3.1]hexadeca-1(16),12,14-trien-9-yl]-oxomethyl]-2,5-dihydropyrrol-2-yl]-oxomethyl]amino]-3-methyl-1-oxopent-2-enyl]amino]-2-butenedioic acid

> <PUBCHEM_IUPAC_NAME>
(E)-2-[[(E)-2-[[(2S)-1-[(2S,3S,6S,9S,10R)-14-chloro-10-ethyl-2,13-dihydroxy-10-methyl-3-(methylamino)-4,7-dioxo-6-prop-1-en-2-yl-11-oxa-5,8-diazabicyclo[10.3.1]hexadeca-1(16),12,14-triene-9-carbonyl]-2,5-dihydropyrrole-2-carbonyl]amino]-3-methylpent-2-enoyl]amino]but-2-enedioic acid

> <PUBCHEM_IUPAC_SYSTEMATIC_NAME>
(E)-2-[[(E)-2-[[(2S)-1-[[(2S,3S,6S,9S,10R)-14-chloranyl-10-ethyl-10-methyl-3-(methylamino)-2,13-bis(oxidanyl)-4,7-bis(oxidanylidene)-6-prop-1-en-2-yl-11-oxa-5,8-diazabicyclo[10.3.1]hexadeca-1(16),12,14-trien-9-yl]carbonyl]-2,5-dihydropyrrol-2-yl]carbonylamino]-3-methyl-pent-2-enoyl]amino]but-2-enedioic acid

> <PUBCHEM_IUPAC_TRADITIONAL_NAME>
(E)-2-[[(E)-2-[[(2S)-1-[(2S,3S,6S,9S,10R)-14-chloro-10-ethyl-2,13-dihydroxy-6-isopropenyl-4,7-diketo-10-methyl-3-(methylamino)-11-oxa-5,8-diazabicyclo[10.3.1]hexadeca-1(16),12,14-triene-9-carbonyl]-3-pyrroline-2-carbonyl]amino]-3-methyl-pent-2-enoyl]amino]but-2-enedioic acid

> <PUBCHEM_IUPAC_INCHI>
InChI=1S/C36H45ClN6O12/c1-8-17(5)25(32(50)39-20(35(53)54)15-23(44)45)41-30(48)21-11-10-12-43(21)34(52)29-36(6,9-2)55-22-14-18(13-19(37)28(22)47)27(46)26(38-7)33(51)40-24(16(3)4)31(49)42-29/h10-11,13-15,21,24,26-27,29,38,46-47H,3,8-9,12H2,1-2,4-7H3,(H,39,50)(H,40,51)(H,41,48)(H,42,49)(H,44,45)(H,53,54)/b20-15+,25-17+/t21-,24-,26-,27-,29+,36+/m0/s1

> <PUBCHEM_IUPAC_INCHIKEY>
FAFRRYBYQKPKSY-AJSRVUJESA-N

> <PUBCHEM_XLOGP3_AA>
0.3

> <PUBCHEM_EXACT_MASS>
788.278399

> <PUBCHEM_MOLECULAR_FORMULA>
C36H45ClN6O12

> <PUBCHEM_MOLECULAR_WEIGHT>
789.2285

> <PUBCHEM_OPENEYE_CAN_SMILES>
CCC(=C(C(=O)NC(=CC(=O)O)C(=O)O)NC(=O)C1C=CCN1C(=O)C2C(OC3=C(C(=CC(=C3)C(C(C(=O)NC(C(=O)N2)C(=C)C)NC)O)Cl)O)(C)CC)C

> <PUBCHEM_OPENEYE_ISO_SMILES>
CC/C(=C(\C(=O)N/C(=C/C(=O)O)/C(=O)O)/NC(=O)[C@@H]1C=CCN1C(=O)[C@@H]2[C@@](OC3=C(C(=CC(=C3)[C@@H]([C@@H](C(=O)N[C@H](C(=O)N2)C(=C)C)NC)O)Cl)O)(C)CC)/C

> <PUBCHEM_CACTVS_TPSA>
273

> <PUBCHEM_MONOISOTOPIC_WEIGHT>
788.278399

> <PUBCHEM_TOTAL_CHARGE>
0

> <PUBCHEM_HEAVY_ATOM_COUNT>
55

> <PUBCHEM_ATOM_DEF_STEREO_COUNT>
6

> <PUBCHEM_ATOM_UDEF_STEREO_COUNT>
0

> <PUBCHEM_BOND_DEF_STEREO_COUNT>
2

> <PUBCHEM_BOND_UDEF_STEREO_COUNT>
0

> <PUBCHEM_ISOTOPIC_ATOM_COUNT>
0

> <PUBCHEM_COMPONENT_COUNT>
1

> <PUBCHEM_CACTVS_TAUTO_COUNT>
108

> <PUBCHEM_COORDINATE_TYPE>
1
5
255

> <PUBCHEM_BONDANNOTATIONS>
35  18  5
20  24  5
21  23  6
25  33  5
31  37  8
31  38  8
32  40  6
36  37  8
36  41  8
38  42  8
41  42  8
34  5  6

$$$$

