107737
  -OEChem-07051212453D

 29 29  0     1  0  0  0  0  0999 V2000
   -2.9271   -0.1388   -0.0964 P   0  0  0  0  0  0  0  0  0  0  0  0
   -1.6570    0.7642    0.3243 O   0  0  0  0  0  0  0  0  0  0  0  0
    0.3524    2.7273   -0.2089 O   0  0  0  0  0  0  0  0  0  0  0  0
   -0.0266   -1.1472    1.5157 O   0  0  0  0  0  0  0  0  0  0  0  0
    3.0053    1.8686    0.5243 O   0  0  0  0  0  0  0  0  0  0  0  0
    1.6577   -2.7004   -0.1051 O   0  0  0  0  0  0  0  0  0  0  0  0
    3.6323   -0.7380   -0.6531 O   0  0  0  0  0  0  0  0  0  0  0  0
   -3.1450    0.2059   -1.6613 O   0  0  0  0  0  0  0  0  0  0  0  0
   -4.1564    0.6234    0.6269 O   0  0  0  0  0  0  0  0  0  0  0  0
   -2.8075   -1.5990    0.2284 O   0  0  0  0  0  0  0  0  0  0  0  0
   -0.3881    0.4501   -0.2479 C   0  0  0  0  0  0  0  0  0  0  0  0
    0.6704    1.4212    0.2813 C   0  0  1  0  0  0  0  0  0  0  0  0
   -0.0437   -0.9990    0.0925 C   0  0  1  0  0  0  0  0  0  0  0  0
    2.0788    1.0486   -0.1937 C   0  0  2  0  0  0  0  0  0  0  0  0
    1.3300   -1.3612   -0.4746 C   0  0  1  0  0  0  0  0  0  0  0  0
    2.4246   -0.4257    0.0475 C   0  0  0  0  0  0  0  0  0  0  0  0
   -0.4802    0.5678   -1.3349 H   0  0  0  0  0  0  0  0  0  0  0  0
    0.6291    1.4919    1.3744 H   0  0  0  0  0  0  0  0  0  0  0  0
   -0.7403   -1.7244   -0.3199 H   0  0  0  0  0  0  0  0  0  0  0  0
    2.2050    1.3019   -1.2538 H   0  0  0  0  0  0  0  0  0  0  0  0
    1.3103   -1.3297   -1.5713 H   0  0  0  0  0  0  0  0  0  0  0  0
    2.6303   -0.6059    1.1097 H   0  0  0  0  0  0  0  0  0  0  0  0
    0.3810    2.7003   -1.1805 H   0  0  0  0  0  0  0  0  0  0  0  0
    0.2495   -2.0595    1.7087 H   0  0  0  0  0  0  0  0  0  0  0  0
    3.8990    1.6219    0.2304 H   0  0  0  0  0  0  0  0  0  0  0  0
    0.9664   -3.2817   -0.4654 H   0  0  0  0  0  0  0  0  0  0  0  0
    3.8270   -1.6772   -0.4924 H   0  0  0  0  0  0  0  0  0  0  0  0
   -3.8368   -0.2770   -2.1616 H   0  0  0  0  0  0  0  0  0  0  0  0
   -5.0481    0.2154    0.6020 H   0  0  0  0  0  0  0  0  0  0  0  0
  1  2  1  0  0  0  0
  1  8  1  0  0  0  0
  1  9  1  0  0  0  0
  1 10  2  0  0  0  0
  2 11  1  0  0  0  0
  3 12  1  0  0  0  0
  3 23  1  0  0  0  0
  4 13  1  0  0  0  0
  4 24  1  0  0  0  0
  5 14  1  0  0  0  0
  5 25  1  0  0  0  0
  6 15  1  0  0  0  0
  6 26  1  0  0  0  0
  7 16  1  0  0  0  0
  7 27  1  0  0  0  0
  8 28  1  0  0  0  0
  9 29  1  0  0  0  0
 11 12  1  0  0  0  0
 11 13  1  0  0  0  0
 11 17  1  0  0  0  0
 12 14  1  0  0  0  0
 12 18  1  0  0  0  0
 13 15  1  0  0  0  0
 13 19  1  0  0  0  0
 14 16  1  0  0  0  0
 14 20  1  0  0  0  0
 15 16  1  0  0  0  0
 15 21  1  0  0  0  0
 16 22  1  0  0  0  0
M  END
> <PUBCHEM_COMPOUND_CID>
107737

> <PUBCHEM_CONFORMER_RMSD>
0.6

> <PUBCHEM_CONFORMER_DIVERSEORDER>
1
2
4
3

> <PUBCHEM_MMFF94_PARTIAL_CHARGES>
23
1 1.51
10 -0.7
11 0.28
12 0.28
13 0.28
14 0.28
15 0.28
16 0.28
2 -0.55
23 0.4
24 0.4
25 0.4
26 0.4
27 0.4
28 0.5
29 0.5
3 -0.68
4 -0.68
5 -0.68
6 -0.68
7 -0.68
8 -0.77
9 -0.77

> <PUBCHEM_EFFECTIVE_ROTOR_COUNT>
3.2

> <PUBCHEM_PHARMACOPHORE_FEATURES>
15
1 10 acceptor
1 3 acceptor
1 3 donor
1 4 acceptor
1 4 donor
1 5 acceptor
1 5 donor
1 6 acceptor
1 6 donor
1 7 acceptor
1 7 donor
1 8 acceptor
1 9 acceptor
4 1 8 9 10 anion
6 11 12 13 14 15 16 rings

> <PUBCHEM_HEAVY_ATOM_COUNT>
16

> <PUBCHEM_ATOM_DEF_STEREO_COUNT>
4

> <PUBCHEM_ATOM_UDEF_STEREO_COUNT>
0

> <PUBCHEM_BOND_DEF_STEREO_COUNT>
0

> <PUBCHEM_BOND_UDEF_STEREO_COUNT>
0

> <PUBCHEM_ISOTOPIC_ATOM_COUNT>
0

> <PUBCHEM_COMPONENT_COUNT>
1

> <PUBCHEM_CACTVS_TAUTO_COUNT>
1

> <PUBCHEM_CONFORMER_ID>
0001A4D900000001

> <PUBCHEM_MMFF94_ENERGY>
10.3852

> <PUBCHEM_FEATURE_SELFOVERLAP>
76.175

> <PUBCHEM_SHAPE_FINGERPRINT>
10967382 1 18410290336921321211
10980938 120 18411703175024367517
11132069 177 18341619182909984304
11206711 2 18268140049603177076
11471102 20 18410014321217412949
12654215 9 18342751727162966948
12932764 1 17775291573097567003
13140716 1 18410295770498225066
13380535 76 18195531389738719832
13897977 150 18411421665804053973
14251717 144 18335710411674910087
14325111 11 18337389336008385441
15219456 202 18339920416144268267
15536298 74 18187363212202886008
161256 15 18338799030258817516
16945 1 18338519750041751254
18186145 218 18343303656166788693
193761 8 17906451378819367412
20201158 50 18412823616049148746
20645477 70 18187086165390088679
21501502 16 18269270158293074235
21524375 3 17840030641304811600
2334 1 18194401096059208302
23402539 116 18335424612157015558
23557571 272 17346596404922987269
23559900 14 18412538813522440054
25 1 18342455932691191350
2748010 2 18267012865543115646
528886 8 18335422378320269442
7364860 26 18333730247294934282
7832392 63 18334855047922270809
8809292 202 18272925003689860323

> <PUBCHEM_SHAPE_MULTIPOLES>
280.3
5.53
2.27
0.93
3.28
0.12
0.06
0.08
0.48
-1.34
-0.09
0.42
-0.09
0.3

> <PUBCHEM_SHAPE_SELFOVERLAP>
553.512

> <PUBCHEM_SHAPE_VOLUME>
167.7

> <PUBCHEM_COORDINATE_TYPE>
2
5
10

$$$$

