5543
  -OEChem-07051213123D

 32 31  0     0  0  0  0  0  0999 V2000
   -3.6932   -0.2873    2.1418 Cl  0  0  0  0  0  0  0  0  0  0  0  0
   -5.5788    0.7871   -0.2037 Cl  0  0  0  0  0  0  0  0  0  0  0  0
   -3.5259    0.1145   -2.1800 Cl  0  0  0  0  0  0  0  0  0  0  0  0
   -0.5539    0.3732    0.2952 S   0  0  0  0  0  0  0  0  0  0  0  0
    0.8230   -1.8127   -0.0850 O   0  0  0  0  0  0  0  0  0  0  0  0
    2.1233    0.1130    0.0176 N   0  0  0  0  0  0  0  0  0  0  0  0
    2.1917    1.5652    0.1885 C   0  0  0  0  0  0  0  0  0  0  0  0
    3.4076   -0.5437   -0.1946 C   0  0  0  0  0  0  0  0  0  0  0  0
    2.7620    2.2193   -1.0632 C   0  0  0  0  0  0  0  0  0  0  0  0
    3.0145    1.9204    1.4208 C   0  0  0  0  0  0  0  0  0  0  0  0
    3.4336   -1.2291   -1.5546 C   0  0  0  0  0  0  0  0  0  0  0  0
    3.6940   -1.5335    0.9279 C   0  0  0  0  0  0  0  0  0  0  0  0
    0.9112   -0.5948    0.0552 C   0  0  0  0  0  0  0  0  0  0  0  0
   -1.8213   -0.9135    0.2762 C   0  0  0  0  0  0  0  0  0  0  0  0
   -3.1879   -0.3111    0.4679 C   0  0  0  0  0  0  0  0  0  0  0  0
   -3.9999    0.1331   -0.5103 C   0  0  0  0  0  0  0  0  0  0  0  0
    1.2174    2.0240    0.3445 H   0  0  0  0  0  0  0  0  0  0  0  0
    4.2237    0.1834   -0.1904 H   0  0  0  0  0  0  0  0  0  0  0  0
    2.7006    3.3106   -0.9806 H   0  0  0  0  0  0  0  0  0  0  0  0
    3.8129    1.9754   -1.2441 H   0  0  0  0  0  0  0  0  0  0  0  0
    2.1920    1.9238   -1.9511 H   0  0  0  0  0  0  0  0  0  0  0  0
    2.6240    1.4112    2.3089 H   0  0  0  0  0  0  0  0  0  0  0  0
    2.9657    2.9988    1.6104 H   0  0  0  0  0  0  0  0  0  0  0  0
    4.0736    1.6635    1.3271 H   0  0  0  0  0  0  0  0  0  0  0  0
    4.4348   -1.6230   -1.7621 H   0  0  0  0  0  0  0  0  0  0  0  0
    2.7378   -2.0707   -1.6206 H   0  0  0  0  0  0  0  0  0  0  0  0
    3.1810   -0.5262   -2.3557 H   0  0  0  0  0  0  0  0  0  0  0  0
    3.6293   -1.0478    1.9074 H   0  0  0  0  0  0  0  0  0  0  0  0
    4.7057   -1.9418    0.8255 H   0  0  0  0  0  0  0  0  0  0  0  0
    3.0037   -2.3821    0.9328 H   0  0  0  0  0  0  0  0  0  0  0  0
   -1.6090   -1.6480    1.0618 H   0  0  0  0  0  0  0  0  0  0  0  0
   -1.7669   -1.4603   -0.6712 H   0  0  0  0  0  0  0  0  0  0  0  0
  1 15  1  0  0  0  0
  2 16  1  0  0  0  0
  3 16  1  0  0  0  0
  4 13  1  0  0  0  0
  4 14  1  0  0  0  0
  5 13  2  0  0  0  0
  6  7  1  0  0  0  0
  6  8  1  0  0  0  0
  6 13  1  0  0  0  0
  7  9  1  0  0  0  0
  7 10  1  0  0  0  0
  7 17  1  0  0  0  0
  8 11  1  0  0  0  0
  8 12  1  0  0  0  0
  8 18  1  0  0  0  0
  9 19  1  0  0  0  0
  9 20  1  0  0  0  0
  9 21  1  0  0  0  0
 10 22  1  0  0  0  0
 10 23  1  0  0  0  0
 10 24  1  0  0  0  0
 11 25  1  0  0  0  0
 11 26  1  0  0  0  0
 11 27  1  0  0  0  0
 12 28  1  0  0  0  0
 12 29  1  0  0  0  0
 12 30  1  0  0  0  0
 14 15  1  0  0  0  0
 14 31  1  0  0  0  0
 14 32  1  0  0  0  0
 15 16  2  0  0  0  0
M  END
> <PUBCHEM_COMPOUND_CID>
5543

> <PUBCHEM_CONFORMER_RMSD>
0.8

> <PUBCHEM_CONFORMER_DIVERSEORDER>
1
11
22
33
40
24
14
34
3
2
30
9
19
35
20
38
39
26
12
23
32
37
28
7
29
5
18
16
27
4
36
21
8
25
13
6
10
31
15
17

> <PUBCHEM_MMFF94_PARTIAL_CHARGES>
11
1 -0.14
13 0.77
14 0.37
16 0.28
2 -0.14
3 -0.14
4 -0.37
5 -0.57
6 -0.66
7 0.3
8 0.3

> <PUBCHEM_EFFECTIVE_ROTOR_COUNT>
6

> <PUBCHEM_PHARMACOPHORE_FEATURES>
2
3 7 9 10 hydrophobe
3 8 11 12 hydrophobe

> <PUBCHEM_HEAVY_ATOM_COUNT>
16

> <PUBCHEM_ATOM_DEF_STEREO_COUNT>
0

> <PUBCHEM_ATOM_UDEF_STEREO_COUNT>
0

> <PUBCHEM_BOND_DEF_STEREO_COUNT>
0

> <PUBCHEM_BOND_UDEF_STEREO_COUNT>
0

> <PUBCHEM_ISOTOPIC_ATOM_COUNT>
0

> <PUBCHEM_COMPONENT_COUNT>
1

> <PUBCHEM_CACTVS_TAUTO_COUNT>
1

> <PUBCHEM_CONFORMER_ID>
000015A700000001

> <PUBCHEM_MMFF94_ENERGY>
30.1502

> <PUBCHEM_FEATURE_SELFOVERLAP>
10.149

> <PUBCHEM_SHAPE_FINGERPRINT>
11405975 8 18131069333726143691
11543360 7 15285915793483835817
11595378 159 14620802595638203445
12616971 3 18040723571568615111
12932764 1 18059853939440627387
13134695 92 18409738386922658860
13296908 3 18131067104485148931
13583140 156 17846781788881206067
13922767 16 18409171013005112794
18186145 218 18412821369807574875
192875 21 17968096442759366185
19422 9 17167578280711142767
19433438 15 18040722472041260533
200 152 18040722493463141433
20645477 56 17346880079144525023
20645477 70 18409729560247946430
212847 35 17846497071008689478
2255824 54 18340760473472533194
22943178 12 17775002358479012939
23402655 69 18113053826724981597
23503958 25 17561076986717147597
23557571 272 17417798553282150107
23559900 14 16917064477528289738
23598291 2 17604413193780313793
3060560 45 18335419105866822878
5104073 3 18409446956290904211
5281201 14 18343864420251109333
6049 1 17775279443941169965
633830 44 18410575089427551279
7615 1 17240198816001839865
9971528 1 17822008761442107534

> <PUBCHEM_SHAPE_MULTIPOLES>
327.88
10.37
1.86
1.71
8.81
0.61
0.11
0.88
0.56
-2.62
-0.05
0.98
0.06
0.78

> <PUBCHEM_SHAPE_SELFOVERLAP>
589.434

> <PUBCHEM_SHAPE_VOLUME>
214.4

> <PUBCHEM_COORDINATE_TYPE>
2
5
10

$$$$

