11784975
  -OEChem-07051213123D

 46 48  0     0  0  0  0  0  0999 V2000
    1.6907   -0.2163   -1.5578 S   0  0  0  0  0  0  0  0  0  0  0  0
    3.5599   -3.6277    0.5680 F   0  0  0  0  0  0  0  0  0  0  0  0
    1.6875   -3.0273   -0.3475 F   0  0  0  0  0  0  0  0  0  0  0  0
    3.5696   -2.6094   -1.3534 F   0  0  0  0  0  0  0  0  0  0  0  0
    1.6242    4.9441   -0.1078 F   0  0  0  0  0  0  0  0  0  0  0  0
    0.0844    3.7301   -1.0607 F   0  0  0  0  0  0  0  0  0  0  0  0
    2.0826    2.2221    0.1268 O   0  0  0  0  0  0  0  0  0  0  0  0
    1.1246    1.0944   -1.8142 O   0  0  0  0  0  0  0  0  0  0  0  0
    2.6139   -0.8156   -2.5025 O   0  0  0  0  0  0  0  0  0  0  0  0
   -3.0774    2.4699    0.3661 O   0  0  0  0  0  0  0  0  0  0  0  0
   -4.1702   -2.8583    0.3030 O   0  0  0  0  0  0  0  0  0  0  0  0
    0.4358   -1.3211   -1.2032 N   0  0  0  0  0  0  0  0  0  0  0  0
   -2.7767   -1.0825   -0.0420 N   0  0  0  0  0  0  0  0  0  0  0  0
   -1.1766    0.3432   -0.4905 N   0  0  0  0  0  0  0  0  0  0  0  0
   -1.7781   -1.8729   -0.4631 N   0  0  0  0  0  0  0  0  0  0  0  0
   -4.9507   -0.6967    0.7621 N   0  0  0  0  0  0  0  0  0  0  0  0
    2.5170   -0.1368    0.0044 C   0  0  0  0  0  0  0  0  0  0  0  0
    3.0587   -1.2885    0.5565 C   0  0  0  0  0  0  0  0  0  0  0  0
    2.6110    1.0836    0.6576 C   0  0  0  0  0  0  0  0  0  0  0  0
    3.7084   -1.2184    1.7888 C   0  0  0  0  0  0  0  0  0  0  0  0
   -0.8335   -0.9628   -0.7218 C   0  0  0  0  0  0  0  0  0  0  0  0
    3.2610    1.1536    1.8898 C   0  0  0  0  0  0  0  0  0  0  0  0
    2.9695   -2.6131   -0.1286 C   0  0  0  0  0  0  0  0  0  0  0  0
   -2.4136    0.2399   -0.0593 C   0  0  0  0  0  0  0  0  0  0  0  0
    3.8097    0.0026    2.4554 C   0  0  0  0  0  0  0  0  0  0  0  0
   -3.4126    1.1414    0.3722 C   0  0  0  0  0  0  0  0  0  0  0  0
   -4.0268   -1.5156    0.3650 C   0  0  0  0  0  0  0  0  0  0  0  0
    1.0820    2.8899    0.8925 C   0  0  0  0  0  0  0  0  0  0  0  0
   -4.6055    0.6456    0.7538 C   0  0  0  0  0  0  0  0  0  0  0  0
    0.5897    4.1040    0.1402 C   0  0  0  0  0  0  0  0  0  0  0  0
   -3.3932    3.0715   -0.8781 C   0  0  0  0  0  0  0  0  0  0  0  0
   -5.4650   -3.2730    0.7282 C   0  0  0  0  0  0  0  0  0  0  0  0
    0.5463   -2.2989   -1.4974 H   0  0  0  0  0  0  0  0  0  0  0  0
    4.1444   -2.1011    2.2484 H   0  0  0  0  0  0  0  0  0  0  0  0
    3.3683    2.0972    2.4172 H   0  0  0  0  0  0  0  0  0  0  0  0
    4.3196    0.0581    3.4128 H   0  0  0  0  0  0  0  0  0  0  0  0
    0.2483    2.2030    1.0739 H   0  0  0  0  0  0  0  0  0  0  0  0
    1.4963    3.2209    1.8502 H   0  0  0  0  0  0  0  0  0  0  0  0
   -5.3875    1.3194    1.0897 H   0  0  0  0  0  0  0  0  0  0  0  0
   -0.1818    4.6464    0.6932 H   0  0  0  0  0  0  0  0  0  0  0  0
   -4.4676    3.0150   -1.0855 H   0  0  0  0  0  0  0  0  0  0  0  0
   -2.8261    2.6164   -1.6976 H   0  0  0  0  0  0  0  0  0  0  0  0
   -3.1149    4.1283   -0.8239 H   0  0  0  0  0  0  0  0  0  0  0  0
   -5.6411   -3.0064    1.7758 H   0  0  0  0  0  0  0  0  0  0  0  0
   -6.2447   -2.8636    0.0771 H   0  0  0  0  0  0  0  0  0  0  0  0
   -5.5064   -4.3637    0.6512 H   0  0  0  0  0  0  0  0  0  0  0  0
  1  8  2  0  0  0  0
  1  9  2  0  0  0  0
  1 12  1  0  0  0  0
  1 17  1  0  0  0  0
  2 23  1  0  0  0  0
  3 23  1  0  0  0  0
  4 23  1  0  0  0  0
  5 30  1  0  0  0  0
  6 30  1  0  0  0  0
  7 19  1  0  0  0  0
  7 28  1  0  0  0  0
 10 26  1  0  0  0  0
 10 31  1  0  0  0  0
 11 27  1  0  0  0  0
 11 32  1  0  0  0  0
 12 21  1  0  0  0  0
 12 33  1  0  0  0  0
 13 15  1  0  0  0  0
 13 24  1  0  0  0  0
 13 27  1  0  0  0  0
 14 21  1  0  0  0  0
 14 24  2  0  0  0  0
 15 21  2  0  0  0  0
 16 27  2  0  0  0  0
 16 29  1  0  0  0  0
 17 18  2  0  0  0  0
 17 19  1  0  0  0  0
 18 20  1  0  0  0  0
 18 23  1  0  0  0  0
 19 22  2  0  0  0  0
 20 25  2  0  0  0  0
 20 34  1  0  0  0  0
 22 25  1  0  0  0  0
 22 35  1  0  0  0  0
 24 26  1  0  0  0  0
 25 36  1  0  0  0  0
 26 29  2  0  0  0  0
 28 30  1  0  0  0  0
 28 37  1  0  0  0  0
 28 38  1  0  0  0  0
 29 39  1  0  0  0  0
 30 40  1  0  0  0  0
 31 41  1  0  0  0  0
 31 42  1  0  0  0  0
 31 43  1  0  0  0  0
 32 44  1  0  0  0  0
 32 45  1  0  0  0  0
 32 46  1  0  0  0  0
M  END
> <PUBCHEM_COMPOUND_CID>
11784975

> <PUBCHEM_CONFORMER_RMSD>
1

> <PUBCHEM_CONFORMER_DIVERSEORDER>
1
19
23
86
99
35
56
73
26
66
60
47
64
59
27
3
51
74
10
45
63
52
103
13
58
49
85
18
37
79
5
54
69
55
40
32
102
38
34
93
97
21
57
30
78
77
83
17
70
42
29
8
28
7
36
88
24
11
15
2
9
43
80
46
44
92
65
101
20
72
76
53
91
12
50
82
62
39
81
90
68
31
84
33
67
75
96
41
89
4
71
95
94
61
16
22
6
48
98
14
87
25
100

> <PUBCHEM_MMFF94_PARTIAL_CHARGES>
37
1 1.45
10 -0.36
11 -0.43
12 -0.7
13 0.56
14 -0.57
15 -0.71
16 -0.62
17 -0.01
18 -0.14
19 0.08
2 -0.34
20 -0.15
21 0.66
22 -0.15
23 1.16
24 0.14
25 -0.15
26 0.12
27 0.61
28 0.28
29 0.02
3 -0.34
30 0.68
31 0.28
32 0.28
33 0.42
34 0.15
35 0.15
36 0.15
39 0.15
4 -0.34
5 -0.34
6 -0.34
7 -0.36
8 -0.65
9 -0.65

> <PUBCHEM_EFFECTIVE_ROTOR_COUNT>
9

> <PUBCHEM_PHARMACOPHORE_FEATURES>
10
1 10 acceptor
1 12 donor
1 7 acceptor
1 8 acceptor
1 9 acceptor
3 13 14 24 cation
3 13 16 27 cation
5 13 14 15 21 24 rings
6 13 16 24 26 27 29 rings
6 17 18 19 20 22 25 rings

> <PUBCHEM_HEAVY_ATOM_COUNT>
32

> <PUBCHEM_ATOM_DEF_STEREO_COUNT>
0

> <PUBCHEM_ATOM_UDEF_STEREO_COUNT>
0

> <PUBCHEM_BOND_DEF_STEREO_COUNT>
0

> <PUBCHEM_BOND_UDEF_STEREO_COUNT>
0

> <PUBCHEM_ISOTOPIC_ATOM_COUNT>
0

> <PUBCHEM_COMPONENT_COUNT>
1

> <PUBCHEM_CACTVS_TAUTO_COUNT>
2

> <PUBCHEM_CONFORMER_ID>
00B3D30F00000001

> <PUBCHEM_MMFF94_ENERGY>
80.9632

> <PUBCHEM_FEATURE_SELFOVERLAP>
51.044

> <PUBCHEM_SHAPE_FINGERPRINT>
10366900 7 18058160627177661443
11387372 6 15889151192034724442
11421498 54 18130205117713727972
11578080 2 17488486120860624341
12422481 6 17972067892540496904
12633257 1 18340500979600250192
12788726 201 17910092935618981514
13140716 1 18266744755998598271
13402501 40 17830746708707017053
13583140 156 18188219787632668535
13965767 371 17386303046735560970
14866123 147 16753249640165574955
17492 89 18411135810267351811
20739085 24 18338246968580443392
21033648 29 17530688739940552371
21421861 104 18266454296350782987
21756936 100 17536895277802139304
21792934 111 18410288147843722611
22149856 69 17096909315059262507
23559900 14 18261657221729604215
508706 21 18267875050289948693
5104073 3 18187638116412884707
5776283 40 17688565197229851980
6823239 73 18188474827079962540
7097593 13 18410863130987303267
8988823 20 18125732188511257895

> <PUBCHEM_SHAPE_MULTIPOLES>
571.77
9.51
5.14
1.68
9.85
3.7
0.11
-6.27
-4.07
-0.24
0.33
-2.04
-0.17
1.2

> <PUBCHEM_SHAPE_SELFOVERLAP>
1231.88

> <PUBCHEM_SHAPE_VOLUME>
317.6

> <PUBCHEM_COORDINATE_TYPE>
2
5
10

$$$$

