5360515
  -OEChem-07051212532D

 48 53  0     1  0  0  0  0  0999 V2000
    2.2314   -0.2572    0.0000 O   0  0  0  0  0  0  0  0  0  0  0  0
    5.1561   -2.0271    0.0000 O   0  0  0  0  0  0  0  0  0  0  0  0
    2.0000   -2.7122    0.0000 O   0  0  0  0  0  0  0  0  0  0  0  0
    2.0000    2.0922    0.0000 O   0  0  0  0  0  0  0  0  0  0  0  0
    6.1607   -1.2611    0.0000 N   0  0  3  0  0  0  0  0  0  0  0  0
    3.6897   -0.7855    0.0000 C   0  0  1  0  0  0  0  0  0  0  0  0
    4.5133   -1.2611    0.0000 C   0  0  1  0  0  0  0  0  0  0  0  0
    5.3370   -0.7855    0.0000 C   0  0  1  0  0  0  0  0  0  0  0  0
    2.8660   -1.2611    0.0000 C   0  0  2  0  0  0  0  0  0  0  0  0
    4.2392   -0.0881    0.0000 C   0  0  0  0  0  0  0  0  0  0  0  0
    3.6897    0.1655    0.0000 C   0  0  0  0  0  0  0  0  0  0  0  0
    4.5133   -2.2122    0.0000 C   0  0  0  0  0  0  0  0  0  0  0  0
    5.5918   -0.0881    0.0000 C   0  0  0  0  0  0  0  0  0  0  0  0
    5.3370    0.1655    0.0000 C   0  0  0  0  0  0  0  0  0  0  0  0
    4.5133    0.6411    0.0000 C   0  0  0  0  0  0  0  0  0  0  0  0
    6.8418   -1.9932    0.0000 C   0  0  0  0  0  0  0  0  0  0  0  0
    3.6897   -2.6877    0.0000 C   0  0  0  0  0  0  0  0  0  0  0  0
    7.8164   -1.7694    0.0000 C   0  0  0  0  0  0  0  0  0  0  0  0
    2.8660   -2.2122    0.0000 C   0  0  0  0  0  0  0  0  0  0  0  0
    2.8660    0.6411    0.0000 C   0  0  0  0  0  0  0  0  0  0  0  0
    8.7724   -2.0628    0.0000 C   0  0  0  0  0  0  0  0  0  0  0  0
    8.5486   -1.0882    0.0000 C   0  0  0  0  0  0  0  0  0  0  0  0
    4.5133    1.5922    0.0000 C   0  0  0  0  0  0  0  0  0  0  0  0
    2.8660    1.5922    0.0000 C   0  0  0  0  0  0  0  0  0  0  0  0
    3.6897    2.0677    0.0000 C   0  0  0  0  0  0  0  0  0  0  0  0
    5.6284   -1.5840    0.0000 H   0  0  0  0  0  0  0  0  0  0  0  0
    2.0496   -1.4975    0.0000 H   0  0  0  0  0  0  0  0  0  0  0  0
    4.3760    0.5166    0.0000 H   0  0  0  0  0  0  0  0  0  0  0  0
    3.6795    0.1787    0.0000 H   0  0  0  0  0  0  0  0  0  0  0  0
    4.7254   -2.7948    0.0000 H   0  0  0  0  0  0  0  0  0  0  0  0
    5.1239   -2.1045    0.0000 H   0  0  0  0  0  0  0  0  0  0  0  0
    6.1840    0.0957    0.0000 H   0  0  0  0  0  0  0  0  0  0  0  0
    5.4989    0.5249    0.0000 H   0  0  0  0  0  0  0  0  0  0  0  0
    5.9476    0.0579    0.0000 H   0  0  0  0  0  0  0  0  0  0  0  0
    5.5490    0.7481    0.0000 H   0  0  0  0  0  0  0  0  0  0  0  0
    6.3215   -2.3303    0.0000 H   0  0  0  0  0  0  0  0  0  0  0  0
    7.0834   -2.5642    0.0000 H   0  0  0  0  0  0  0  0  0  0  0  0
    7.5260   -1.2216    0.0000 H   0  0  0  0  0  0  0  0  0  0  0  0
    3.2912   -3.1626    0.0000 H   0  0  0  0  0  0  0  0  0  0  0  0
    4.0882   -3.1626    0.0000 H   0  0  0  0  0  0  0  0  0  0  0  0
    8.6962   -2.6781    0.0000 H   0  0  0  0  0  0  0  0  0  0  0  0
    9.3916   -2.0311    0.0000 H   0  0  0  0  0  0  0  0  0  0  0  0
    9.1196   -0.8466    0.0000 H   0  0  0  0  0  0  0  0  0  0  0  0
    8.2115   -0.5678    0.0000 H   0  0  0  0  0  0  0  0  0  0  0  0
    5.2638   -2.6377    0.0000 H   0  0  0  0  0  0  0  0  0  0  0  0
    5.0503    1.9022    0.0000 H   0  0  0  0  0  0  0  0  0  0  0  0
    3.6897    2.6877    0.0000 H   0  0  0  0  0  0  0  0  0  0  0  0
    2.0000    2.7122    0.0000 H   0  0  0  0  0  0  0  0  0  0  0  0
  1  9  1  0  0  0  0
  1 20  1  0  0  0  0
  7  2  1  1  0  0  0
  2 45  1  0  0  0  0
  3 19  2  0  0  0  0
  4 24  1  0  0  0  0
  4 48  1  0  0  0  0
  5  8  1  0  0  0  0
  5 13  1  0  0  0  0
  5 16  1  0  0  0  0
  6  7  1  0  0  0  0
  6  9  1  0  0  0  0
  6 10  1  1  0  0  0
  6 11  1  0  0  0  0
  7  8  1  0  0  0  0
  7 12  1  0  0  0  0
  8 14  1  0  0  0  0
  8 26  1  6  0  0  0
  9 19  1  0  0  0  0
  9 27  1  1  0  0  0
 10 13  1  0  0  0  0
 10 28  1  0  0  0  0
 10 29  1  0  0  0  0
 11 15  2  0  0  0  0
 11 20  1  0  0  0  0
 12 17  1  0  0  0  0
 12 30  1  0  0  0  0
 12 31  1  0  0  0  0
 13 32  1  0  0  0  0
 13 33  1  0  0  0  0
 14 15  1  0  0  0  0
 14 34  1  0  0  0  0
 14 35  1  0  0  0  0
 15 23  1  0  0  0  0
 16 18  1  0  0  0  0
 16 36  1  0  0  0  0
 16 37  1  0  0  0  0
 17 19  1  0  0  0  0
 17 39  1  0  0  0  0
 17 40  1  0  0  0  0
 18 21  1  0  0  0  0
 18 22  1  0  0  0  0
 18 38  1  0  0  0  0
 20 24  2  0  0  0  0
 21 22  1  0  0  0  0
 21 41  1  0  0  0  0
 21 42  1  0  0  0  0
 22 43  1  0  0  0  0
 22 44  1  0  0  0  0
 23 25  2  0  0  0  0
 23 46  1  0  0  0  0
 24 25  1  0  0  0  0
 25 47  1  0  0  0  0
M  END
> <PUBCHEM_COMPOUND_CID>
5360515

> <PUBCHEM_COMPOUND_CANONICALIZED>
1

> <PUBCHEM_CACTVS_COMPLEXITY>
621

> <PUBCHEM_CACTVS_HBOND_ACCEPTOR>
5

> <PUBCHEM_CACTVS_HBOND_DONOR>
2

> <PUBCHEM_CACTVS_ROTATABLE_BOND>
2

> <PUBCHEM_CACTVS_SUBSKEYS>
AAADceB6OAAAAAAAAAAAAAAAGAAAASAAAAA8YMEAAAAWAEjxAAAAHgAACAAAD3zhmAYwBoMABgCIAqBSAAICCAAgIAAIiAFOiIgPJjKGsR+GeCOlwBGbuAf6/f/foAABAAAYQADQAAaQADSgAAAAAAAAAA==

> <PUBCHEM_IUPAC_OPENEYE_NAME>
(4R,4aS,7aR,12bS)-3-(cyclopropylmethyl)-4a,9-dihydroxy-2,4,5,6,7a,13-hexahydro-1H-4,12-methanobenzofuro[3,2-e]isoquinoline-7-one

> <PUBCHEM_IUPAC_CAS_NAME>
(4R,4aS,7aR,12bS)-3-(cyclopropylmethyl)-4a,9-dihydroxy-2,4,5,6,7a,13-hexahydro-1H-4,12-methanobenzofuro[3,2-e]isoquinoline-7-one

> <PUBCHEM_IUPAC_NAME>
(4R,4aS,7aR,12bS)-3-(cyclopropylmethyl)-4a,9-dihydroxy-2,4,5,6,7a,13-hexahydro-1H-4,12-methanobenzofuro[3,2-e]isoquinoline-7-one

> <PUBCHEM_IUPAC_SYSTEMATIC_NAME>
(4R,4aS,7aR,12bS)-3-(cyclopropylmethyl)-4a,9-bis(oxidanyl)-2,4,5,6,7a,13-hexahydro-1H-4,12-methanobenzofuro[3,2-e]isoquinoline-7-one

> <PUBCHEM_IUPAC_TRADITIONAL_NAME>
(4R,4aS,7aR,12bS)-3-(cyclopropylmethyl)-4a,9-dihydroxy-2,4,5,6,7a,13-hexahydro-1H-4,12-methanobenzofuro[3,2-e]isoquinoline-7-one

> <PUBCHEM_IUPAC_INCHI>
InChI=1S/C20H23NO4/c22-13-4-3-12-9-15-20(24)6-5-14(23)18-19(20,16(12)17(13)25-18)7-8-21(15)10-11-1-2-11/h3-4,11,15,18,22,24H,1-2,5-10H2/t15-,18+,19+,20-/m1/s1

> <PUBCHEM_IUPAC_INCHIKEY>
DQCKKXVULJGBQN-XFWGSAIBSA-N

> <PUBCHEM_XLOGP3>
1.9

> <PUBCHEM_EXACT_MASS>
341.162708

> <PUBCHEM_MOLECULAR_FORMULA>
C20H23NO4

> <PUBCHEM_MOLECULAR_WEIGHT>
341.40092

> <PUBCHEM_OPENEYE_CAN_SMILES>
C1CC1CN2CCC34C5C(=O)CCC3(C2CC6=C4C(=C(C=C6)O)O5)O

> <PUBCHEM_OPENEYE_ISO_SMILES>
C1CC1CN2CC[C@]34[C@@H]5C(=O)CC[C@]3([C@H]2CC6=C4C(=C(C=C6)O)O5)O

> <PUBCHEM_CACTVS_TPSA>
70

> <PUBCHEM_MONOISOTOPIC_WEIGHT>
341.162708

> <PUBCHEM_TOTAL_CHARGE>
0

> <PUBCHEM_HEAVY_ATOM_COUNT>
25

> <PUBCHEM_ATOM_DEF_STEREO_COUNT>
4

> <PUBCHEM_ATOM_UDEF_STEREO_COUNT>
0

> <PUBCHEM_BOND_DEF_STEREO_COUNT>
0

> <PUBCHEM_BOND_UDEF_STEREO_COUNT>
0

> <PUBCHEM_ISOTOPIC_ATOM_COUNT>
0

> <PUBCHEM_COMPONENT_COUNT>
1

> <PUBCHEM_CACTVS_TAUTO_COUNT>
6

> <PUBCHEM_COORDINATE_TYPE>
1
5
255

> <PUBCHEM_BONDANNOTATIONS>
11  15  8
11  20  8
15  23  8
7  2  5
20  24  8
23  25  8
24  25  8
6  10  5
8  26  6
9  27  5

$$$$

