41539
  -OEChem-07051213152D

 22 22  0     1  0  0  0  0  0999 V2000
    2.0000    2.2320    0.0000 Cl  0  0  0  0  0  0  0  0  0  0  0  0
    2.0000    0.5000    0.0000 Cl  0  0  0  0  0  0  0  0  0  0  0  0
    2.5000   -1.3660    0.0000 O   0  0  0  0  0  0  0  0  0  0  0  0
    4.0000   -2.2320    0.0000 O   0  0  0  0  0  0  0  0  0  0  0  0
    4.8660    0.0000    0.0000 C   0  0  0  0  0  0  0  0  0  0  0  0
    4.0000    0.5000    0.0000 C   0  0  2  0  0  0  0  0  0  0  0  0
    4.0000   -0.5000    0.0000 C   0  0  2  0  0  0  0  0  0  0  0  0
    5.3660   -0.8660    0.0000 C   0  0  0  0  0  0  0  0  0  0  0  0
    5.3660    0.8660    0.0000 C   0  0  0  0  0  0  0  0  0  0  0  0
    3.5000    1.3660    0.0000 C   0  0  0  0  0  0  0  0  0  0  0  0
    3.5000   -1.3660    0.0000 C   0  0  0  0  0  0  0  0  0  0  0  0
    2.5000    1.3660    0.0000 C   0  0  0  0  0  0  0  0  0  0  0  0
    3.4011    0.3395    0.0000 H   0  0  0  0  0  0  0  0  0  0  0  0
    3.4011   -0.3395    0.0000 H   0  0  0  0  0  0  0  0  0  0  0  0
    5.9030    0.5560    0.0000 H   0  0  0  0  0  0  0  0  0  0  0  0
    5.6760    1.4030    0.0000 H   0  0  0  0  0  0  0  0  0  0  0  0
    4.8291    1.1760    0.0000 H   0  0  0  0  0  0  0  0  0  0  0  0
    4.8291   -1.1760    0.0000 H   0  0  0  0  0  0  0  0  0  0  0  0
    5.6760   -1.4030    0.0000 H   0  0  0  0  0  0  0  0  0  0  0  0
    5.9030   -0.5560    0.0000 H   0  0  0  0  0  0  0  0  0  0  0  0
    3.8100    1.9030    0.0000 H   0  0  0  0  0  0  0  0  0  0  0  0
    2.1900   -1.9030    0.0000 H   0  0  0  0  0  0  0  0  0  0  0  0
  1 12  1  0  0  0  0
  2 12  1  0  0  0  0
  3 11  1  0  0  0  0
  3 22  1  0  0  0  0
  4 11  2  0  0  0  0
  5  6  1  0  0  0  0
  5  7  1  0  0  0  0
  5  8  1  0  0  0  0
  5  9  1  0  0  0  0
  6  7  1  0  0  0  0
  6 10  1  6  0  0  0
  6 13  1  0  0  0  0
  7 11  1  1  0  0  0
  7 14  1  0  0  0  0
  8 18  1  0  0  0  0
  8 19  1  0  0  0  0
  8 20  1  0  0  0  0
  9 15  1  0  0  0  0
  9 16  1  0  0  0  0
  9 17  1  0  0  0  0
 10 12  2  0  0  0  0
 10 21  1  0  0  0  0
M  END
> <PUBCHEM_COMPOUND_CID>
41539

> <PUBCHEM_COMPOUND_CANONICALIZED>
1

> <PUBCHEM_CACTVS_COMPLEXITY>
241

> <PUBCHEM_CACTVS_HBOND_ACCEPTOR>
2

> <PUBCHEM_CACTVS_HBOND_DONOR>
1

> <PUBCHEM_CACTVS_ROTATABLE_BOND>
2

> <PUBCHEM_CACTVS_SUBSKEYS>
AAADccBwMAAGAAAAAAAAAAAAGAAAAAAAAAAAAAAAAAAAAAAAAAAAGgIACAAADwKAgIACCAAAAgCIACDSCAAAAAAgAAAAAAEAAAgAABIAAAAAQAAEgAAAAACIAAAPgAAAAAAAAAAAAAAAAAAAAAAAAAAAAA==

> <PUBCHEM_IUPAC_OPENEYE_NAME>
(1S,3R)-3-(2,2-dichlorovinyl)-2,2-dimethyl-cyclopropanecarboxylic acid

> <PUBCHEM_IUPAC_CAS_NAME>
(1S,3R)-3-(2,2-dichloroethenyl)-2,2-dimethyl-1-cyclopropanecarboxylic acid

> <PUBCHEM_IUPAC_NAME>
(1S,3R)-3-(2,2-dichloroethenyl)-2,2-dimethylcyclopropane-1-carboxylic acid

> <PUBCHEM_IUPAC_SYSTEMATIC_NAME>
(1S,3R)-3-[2,2-bis(chloranyl)ethenyl]-2,2-dimethyl-cyclopropane-1-carboxylic acid

> <PUBCHEM_IUPAC_TRADITIONAL_NAME>
(1S,3R)-3-(2,2-dichlorovinyl)-2,2-dimethyl-cyclopropanecarboxylic acid

> <PUBCHEM_IUPAC_INCHI>
InChI=1S/C8H10Cl2O2/c1-8(2)4(3-5(9)10)6(8)7(11)12/h3-4,6H,1-2H3,(H,11,12)/t4-,6+/m0/s1

> <PUBCHEM_IUPAC_INCHIKEY>
LLMLSUSAKZVFOA-UJURSFKZSA-N

> <PUBCHEM_XLOGP3>
3.3

> <PUBCHEM_EXACT_MASS>
208.005785

> <PUBCHEM_MOLECULAR_FORMULA>
C8H10Cl2O2

> <PUBCHEM_MOLECULAR_WEIGHT>
209.0698

> <PUBCHEM_OPENEYE_CAN_SMILES>
CC1(C(C1C(=O)O)C=C(Cl)Cl)C

> <PUBCHEM_OPENEYE_ISO_SMILES>
CC1([C@H]([C@@H]1C(=O)O)C=C(Cl)Cl)C

> <PUBCHEM_CACTVS_TPSA>
37.3

> <PUBCHEM_MONOISOTOPIC_WEIGHT>
208.005785

> <PUBCHEM_TOTAL_CHARGE>
0

> <PUBCHEM_HEAVY_ATOM_COUNT>
12

> <PUBCHEM_ATOM_DEF_STEREO_COUNT>
2

> <PUBCHEM_ATOM_UDEF_STEREO_COUNT>
0

> <PUBCHEM_BOND_DEF_STEREO_COUNT>
0

> <PUBCHEM_BOND_UDEF_STEREO_COUNT>
0

> <PUBCHEM_ISOTOPIC_ATOM_COUNT>
0

> <PUBCHEM_COMPONENT_COUNT>
1

> <PUBCHEM_CACTVS_TAUTO_COUNT>
1

> <PUBCHEM_COORDINATE_TYPE>
1
5
255

> <PUBCHEM_BONDANNOTATIONS>
6  10  6
7  11  5

$$$$

