441083
  -OEChem-07051212513D

 22 22  0     0  0  0  0  0  0999 V2000
   -2.9673    1.8574   -0.1925 O   0  0  0  0  0  0  0  0  0  0  0  0
   -1.6883   -2.5262    0.2149 O   0  0  0  0  0  0  0  0  0  0  0  0
    1.5379    0.7884    0.0799 N   0  0  0  0  0  0  0  0  0  0  0  0
   -0.7343    1.3014   -0.0559 N   0  0  0  0  0  0  0  0  0  0  0  0
   -0.0501   -0.9337    0.1540 N   0  0  0  0  0  0  0  0  0  0  0  0
   -2.3504   -0.3563    0.0122 N   0  0  0  0  0  0  0  0  0  0  0  0
    2.6599   -0.0940    0.1766 C   0  0  0  0  0  0  0  0  0  0  0  0
    3.8662    0.6823    0.6882 C   0  0  0  0  0  0  0  0  0  0  0  0
    2.9372   -0.7157   -1.1859 C   0  0  0  0  0  0  0  0  0  0  0  0
    0.2469    0.3316    0.0636 C   0  0  0  0  0  0  0  0  0  0  0  0
   -2.0878    1.0041   -0.0872 C   0  0  0  0  0  0  0  0  0  0  0  0
   -1.3699   -1.3392    0.1321 C   0  0  0  0  0  0  0  0  0  0  0  0
    2.4574   -0.8936    0.9001 H   0  0  0  0  0  0  0  0  0  0  0  0
    1.7138    1.7816   -0.0414 H   0  0  0  0  0  0  0  0  0  0  0  0
    4.7366    0.0260    0.7933 H   0  0  0  0  0  0  0  0  0  0  0  0
    4.1371    1.4977    0.0078 H   0  0  0  0  0  0  0  0  0  0  0  0
    3.6575    1.1260    1.6681 H   0  0  0  0  0  0  0  0  0  0  0  0
    2.0894   -1.3112   -1.5399 H   0  0  0  0  0  0  0  0  0  0  0  0
    3.8094   -1.3764   -1.1400 H   0  0  0  0  0  0  0  0  0  0  0  0
    3.1358    0.0532   -1.9413 H   0  0  0  0  0  0  0  0  0  0  0  0
   -0.4523    2.2746   -0.1232 H   0  0  0  0  0  0  0  0  0  0  0  0
   -3.3212   -0.6548   -0.0036 H   0  0  0  0  0  0  0  0  0  0  0  0
  1 11  2  0  0  0  0
  2 12  2  0  0  0  0
  3  7  1  0  0  0  0
  3 10  1  0  0  0  0
  3 14  1  0  0  0  0
  4 10  1  0  0  0  0
  4 11  1  0  0  0  0
  4 21  1  0  0  0  0
  5 10  2  0  0  0  0
  5 12  1  0  0  0  0
  6 11  1  0  0  0  0
  6 12  1  0  0  0  0
  6 22  1  0  0  0  0
  7  8  1  0  0  0  0
  7  9  1  0  0  0  0
  7 13  1  0  0  0  0
  8 15  1  0  0  0  0
  8 16  1  0  0  0  0
  8 17  1  0  0  0  0
  9 18  1  0  0  0  0
  9 19  1  0  0  0  0
  9 20  1  0  0  0  0
M  END
> <PUBCHEM_COMPOUND_CID>
441083

> <PUBCHEM_CONFORMER_RMSD>
0.6

> <PUBCHEM_CONFORMER_DIVERSEORDER>
1
3
2

> <PUBCHEM_MMFF94_PARTIAL_CHARGES>
13
1 -0.57
10 0.56
11 0.69
12 0.84
14 0.4
2 -0.57
21 0.37
22 0.37
3 -0.82
4 -0.49
5 -0.66
6 -0.49
7 0.37

> <PUBCHEM_EFFECTIVE_ROTOR_COUNT>
2

> <PUBCHEM_PHARMACOPHORE_FEATURES>
8
1 1 acceptor
1 2 acceptor
1 3 donor
1 4 donor
1 5 donor
1 6 donor
3 7 8 9 hydrophobe
6 4 5 6 10 11 12 rings

> <PUBCHEM_HEAVY_ATOM_COUNT>
12

> <PUBCHEM_ATOM_DEF_STEREO_COUNT>
0

> <PUBCHEM_ATOM_UDEF_STEREO_COUNT>
0

> <PUBCHEM_BOND_DEF_STEREO_COUNT>
0

> <PUBCHEM_BOND_UDEF_STEREO_COUNT>
0

> <PUBCHEM_ISOTOPIC_ATOM_COUNT>
0

> <PUBCHEM_COMPONENT_COUNT>
1

> <PUBCHEM_CACTVS_TAUTO_COUNT>
10

> <PUBCHEM_CONFORMER_ID>
0006BAFB00000001

> <PUBCHEM_MMFF94_ENERGY>
19.9497

> <PUBCHEM_FEATURE_SELFOVERLAP>
40.804

> <PUBCHEM_SHAPE_FINGERPRINT>
10608611 8 18334299743016099600
12716758 59 18409443721647662482
12932764 1 18341603820191605826
13380535 76 18336553814455839319
14325111 11 18410013277324199008
15219456 202 18113897165518738262
15775835 57 18130227163506330592
16945 1 18413103957154213943
18186145 218 18189332553313268052
20201158 50 18040714805397926110
20279233 1 18187364337700426550
20510252 161 18333448759507285721
20645464 45 18333735723383336136
20645476 183 17845917619928320406
20645477 56 18411135844289155080
20645477 70 17168421675123327046
20715346 28 17968090894157498006
20871998 184 18189050906548350375
21040471 1 18340488966803563233
21501502 16 18196370325558566868
23402539 116 18336561429965495007
23552423 10 18057883546020923246
23559900 14 18335135449821776414
2748010 2 18336829667325530276
3248919 1 18408609136814692420
369184 2 16008744710418458170
6333449 129 18409453578518420584
81228 2 18269272374691326059
88987 49 18342170060142717068

> <PUBCHEM_SHAPE_MULTIPOLES>
215.29
5.48
1.85
0.76
3.58
0.65
0.12
-1.15
-0.06
-1.72
-0.05
0.56
0.08
0.65

> <PUBCHEM_SHAPE_SELFOVERLAP>
434.722

> <PUBCHEM_SHAPE_VOLUME>
124.7

> <PUBCHEM_COORDINATE_TYPE>
2
5
10

$$$$

