1548992
  -OEChem-07051212533D

 31 31  0     0  0  0  0  0  0999 V2000
    0.3093   -0.8707   -0.4413 S   0  0  0  0  0  0  0  0  0  0  0  0
   -4.2044    1.5887   -1.5158 S   0  0  0  0  0  0  0  0  0  0  0  0
    4.5249    0.9230   -0.3497 N   0  0  0  0  0  0  0  0  0  0  0  0
   -2.8247   -0.5945   -0.9732 N   0  0  0  0  0  0  0  0  0  0  0  0
    3.7684   -1.1492   -0.0930 N   0  0  0  0  0  0  0  0  0  0  0  0
   -4.2629    0.0774    0.7534 N   0  0  0  0  0  0  0  0  0  0  0  0
    2.8457   -0.2404    0.3295 C   0  0  0  0  0  0  0  0  0  0  0  0
    1.5400   -0.7150    0.8726 C   0  0  0  0  0  0  0  0  0  0  0  0
   -1.0851   -1.4470    0.5741 C   0  0  0  0  0  0  0  0  0  0  0  0
    3.2747    1.0450    0.1880 C   0  0  0  0  0  0  0  0  0  0  0  0
   -2.3192   -1.7533   -0.2634 C   0  0  0  0  0  0  0  0  0  0  0  0
    2.6685    2.3509    0.4906 C   0  0  0  0  0  0  0  0  0  0  0  0
    4.7777   -0.4122   -0.5005 C   0  0  0  0  0  0  0  0  0  0  0  0
   -3.7622    0.3115   -0.5155 C   0  0  0  0  0  0  0  0  0  0  0  0
   -5.2508    0.8859    1.4443 C   0  0  0  0  0  0  0  0  0  0  0  0
    1.6790   -1.6896    1.3528 H   0  0  0  0  0  0  0  0  0  0  0  0
    1.1738   -0.0162    1.6324 H   0  0  0  0  0  0  0  0  0  0  0  0
   -1.3158   -0.6763    1.3170 H   0  0  0  0  0  0  0  0  0  0  0  0
   -0.7787   -2.3550    1.1037 H   0  0  0  0  0  0  0  0  0  0  0  0
   -3.1048   -2.1963    0.3555 H   0  0  0  0  0  0  0  0  0  0  0  0
   -2.0774   -2.5034   -1.0264 H   0  0  0  0  0  0  0  0  0  0  0  0
    5.1516    1.6788   -0.5926 H   0  0  0  0  0  0  0  0  0  0  0  0
   -2.4461   -0.4280   -1.9008 H   0  0  0  0  0  0  0  0  0  0  0  0
    3.3131    3.1811    0.1839 H   0  0  0  0  0  0  0  0  0  0  0  0
    1.7118    2.4607   -0.0301 H   0  0  0  0  0  0  0  0  0  0  0  0
    2.4848    2.4477    1.5654 H   0  0  0  0  0  0  0  0  0  0  0  0
    5.7088   -0.7776   -0.9096 H   0  0  0  0  0  0  0  0  0  0  0  0
   -3.8780   -0.6832    1.2989 H   0  0  0  0  0  0  0  0  0  0  0  0
   -5.4704    0.4165    2.4063 H   0  0  0  0  0  0  0  0  0  0  0  0
   -6.1633    0.9419    0.8454 H   0  0  0  0  0  0  0  0  0  0  0  0
   -4.8474    1.8887    1.6068 H   0  0  0  0  0  0  0  0  0  0  0  0
  1  8  1  0  0  0  0
  1  9  1  0  0  0  0
  2 14  2  0  0  0  0
  3 10  1  0  0  0  0
  3 13  1  0  0  0  0
  3 22  1  0  0  0  0
  4 11  1  0  0  0  0
  4 14  1  0  0  0  0
  4 23  1  0  0  0  0
  5  7  1  0  0  0  0
  5 13  2  0  0  0  0
  6 14  1  0  0  0  0
  6 15  1  0  0  0  0
  6 28  1  0  0  0  0
  7  8  1  0  0  0  0
  7 10  2  0  0  0  0
  8 16  1  0  0  0  0
  8 17  1  0  0  0  0
  9 11  1  0  0  0  0
  9 18  1  0  0  0  0
  9 19  1  0  0  0  0
 10 12  1  0  0  0  0
 11 20  1  0  0  0  0
 11 21  1  0  0  0  0
 12 24  1  0  0  0  0
 12 25  1  0  0  0  0
 12 26  1  0  0  0  0
 13 27  1  0  0  0  0
 15 29  1  0  0  0  0
 15 30  1  0  0  0  0
 15 31  1  0  0  0  0
M  END
> <PUBCHEM_COMPOUND_CID>
1548992

> <PUBCHEM_CONFORMER_RMSD>
0.8

> <PUBCHEM_CONFORMER_DIVERSEORDER>
5
155
45
177
214
176
130
71
91
13
39
107
47
185
14
179
187
134
181
44
11
49
6
192
100
41
183
79
164
70
16
206
10
175
97
52
30
196
73
3
59
117
144
158
109
182
77
74
19
122
205
143
68
98
1
172
65
22
115
37
204
89
120
184
60
104
9
88
209
92
216
7
112
111
54
94
78
108
215
180
193
82
151
135
26
72
17
146
103
51
62
159
217
126
53
80
213
139
2
207
110
12
76
95
150
208
186
197
119
93
4
61
166
212
57
201
116
36
15
194
141
173
121
90
46
129
58
66
195
81
203
160
131
188
156
189
124
8
25
163
171
35
21
200
29
105
40
99
55
64
202
157
24
153
162
106
101
145
18
149
165
199
191
161
211
138
154
20
198
83
32
190
48
114
152
128
27
167
86
170
168
50
174
125
56
133
75
42
210
136
123
178
33
147
148
96
63
169
67
132
84
69
23
140
137
43
31
127
34
87
113
38
118
28
142
85
102

> <PUBCHEM_MMFF94_PARTIAL_CHARGES>
19
1 -0.46
10 -0.33
11 0.3
12 0.18
13 0.04
14 0.5
15 0.3
2 -0.38
22 0.27
23 0.37
27 0.15
28 0.37
3 0.03
4 -0.73
5 -0.57
6 -0.73
7 0.05
8 0.41
9 0.23

> <PUBCHEM_EFFECTIVE_ROTOR_COUNT>
7

> <PUBCHEM_PHARMACOPHORE_FEATURES>
6
1 2 acceptor
1 3 donor
1 4 donor
1 6 donor
3 3 5 13 cation
5 3 5 7 10 13 rings

> <PUBCHEM_HEAVY_ATOM_COUNT>
15

> <PUBCHEM_ATOM_DEF_STEREO_COUNT>
0

> <PUBCHEM_ATOM_UDEF_STEREO_COUNT>
0

> <PUBCHEM_BOND_DEF_STEREO_COUNT>
0

> <PUBCHEM_BOND_UDEF_STEREO_COUNT>
0

> <PUBCHEM_ISOTOPIC_ATOM_COUNT>
0

> <PUBCHEM_COMPONENT_COUNT>
1

> <PUBCHEM_CACTVS_TAUTO_COUNT>
6

> <PUBCHEM_CONFORMER_ID>
0017A2C000000005

> <PUBCHEM_MMFF94_ENERGY>
14.7072

> <PUBCHEM_FEATURE_SELFOVERLAP>
30.487

> <PUBCHEM_SHAPE_FINGERPRINT>
10447042 23 9151172017554188024
12596602 18 15051726482509344597
13911882 115 10231756742802211000
14123255 352 18272375308284712669
14123260 362 17676198079228394139
1420 369 8214137508169409549
14252887 29 13254803473015626346
15239154 128 18272375260570580293
17834072 14 7781518122454226387
18186145 218 18409737239654649018
19433438 15 17240484688988099277
20432913 95 11095885973206408865
20645477 56 18342455946077643047
20645477 70 17968088742485001782
20671657 53 4967605105256162907
21033648 29 18130798862366571757
21652331 79 18272373074807000309
22485316 2 10663828476820353367
23402539 116 16877663486831032051
23402655 69 18188207611758690718
23403322 49 7420939885917102181
32948 21 16950561107810811114
339767 52 7997683164958120405
4028521 119 18412271652917339965
5104073 3 18341055108076169266
5281201 14 18335136436851877622
5283173 99 7564798819001763923
633830 44 18333734593728166990
90127 26 17989205979554705127
9882013 296 12751241410632059547

> <PUBCHEM_SHAPE_MULTIPOLES>
296.47
12.17
1.94
1.18
2.99
0.59
-0.03
4.25
-0.12
-0.1
0.03
1.6
0.32
0.52

> <PUBCHEM_SHAPE_SELFOVERLAP>
561.756

> <PUBCHEM_SHAPE_VOLUME>
186.4

> <PUBCHEM_COORDINATE_TYPE>
2
5
10

$$$$

