440750
  -OEChem-07051212503D

 27 28  0     1  0  0  0  0  0999 V2000
    3.0168    1.2732    0.9338 O   0  0  0  0  0  0  0  0  0  0  0  0
   -4.7429   -1.2696    0.4583 O   0  0  0  0  0  0  0  0  0  0  0  0
    3.2846   -2.0864   -0.2900 O   0  0  0  0  0  0  0  0  0  0  0  0
    4.8522   -0.5226    0.2098 O   0  0  0  0  0  0  0  0  0  0  0  0
   -1.3762    2.2439   -0.0330 N   0  0  0  0  0  0  0  0  0  0  0  0
    0.2992    0.8607   -0.4874 C   0  0  0  0  0  0  0  0  0  0  0  0
   -0.8761    0.0845   -0.2856 C   0  0  0  0  0  0  0  0  0  0  0  0
    1.6455    0.3484   -0.8134 C   0  0  0  0  0  0  0  0  0  0  0  0
   -1.9127    0.9765   -0.0020 C   0  0  0  0  0  0  0  0  0  0  0  0
    2.4981    0.0457    0.4365 C   0  0  1  0  0  0  0  0  0  0  0  0
   -0.0400    2.1842   -0.3255 C   0  0  0  0  0  0  0  0  0  0  0  0
   -1.1588   -1.2955   -0.3172 C   0  0  0  0  0  0  0  0  0  0  0  0
   -3.2227    0.5557    0.2527 C   0  0  0  0  0  0  0  0  0  0  0  0
   -2.4646   -1.7310   -0.0646 C   0  0  0  0  0  0  0  0  0  0  0  0
   -3.4792   -0.8179    0.2158 C   0  0  0  0  0  0  0  0  0  0  0  0
    3.6768   -0.8497    0.1118 C   0  0  0  0  0  0  0  0  0  0  0  0
    2.1690    1.0813   -1.4424 H   0  0  0  0  0  0  0  0  0  0  0  0
    1.5415   -0.5538   -1.4288 H   0  0  0  0  0  0  0  0  0  0  0  0
    1.9099   -0.4254    1.2323 H   0  0  0  0  0  0  0  0  0  0  0  0
    0.5476    3.0894   -0.3914 H   0  0  0  0  0  0  0  0  0  0  0  0
   -1.8945    3.0950    0.1360 H   0  0  0  0  0  0  0  0  0  0  0  0
   -0.3794   -2.0209   -0.5324 H   0  0  0  0  0  0  0  0  0  0  0  0
   -4.0099    1.2702    0.4706 H   0  0  0  0  0  0  0  0  0  0  0  0
   -2.6744   -2.7977   -0.0904 H   0  0  0  0  0  0  0  0  0  0  0  0
    3.4593    1.0829    1.7787 H   0  0  0  0  0  0  0  0  0  0  0  0
   -4.7493   -2.2402    0.3945 H   0  0  0  0  0  0  0  0  0  0  0  0
    4.0503   -2.6653   -0.4917 H   0  0  0  0  0  0  0  0  0  0  0  0
  1 10  1  0  0  0  0
  1 25  1  0  0  0  0
  2 15  1  0  0  0  0
  2 26  1  0  0  0  0
  3 16  1  0  0  0  0
  3 27  1  0  0  0  0
  4 16  2  0  0  0  0
  5  9  1  0  0  0  0
  5 11  1  0  0  0  0
  5 21  1  0  0  0  0
  6  7  1  0  0  0  0
  6  8  1  0  0  0  0
  6 11  2  0  0  0  0
  7  9  2  0  0  0  0
  7 12  1  0  0  0  0
  8 10  1  0  0  0  0
  8 17  1  0  0  0  0
  8 18  1  0  0  0  0
  9 13  1  0  0  0  0
 10 16  1  0  0  0  0
 10 19  1  0  0  0  0
 11 20  1  0  0  0  0
 12 14  2  0  0  0  0
 12 22  1  0  0  0  0
 13 15  2  0  0  0  0
 13 23  1  0  0  0  0
 14 15  1  0  0  0  0
 14 24  1  0  0  0  0
M  END
> <PUBCHEM_COMPOUND_CID>
440750

> <PUBCHEM_CONFORMER_RMSD>
0.6

> <PUBCHEM_CONFORMER_DIVERSEORDER>
5
25
22
26
10
13
6
11
7
9
8
21
17
19
14
16
23
15
20
2
18
24
1
12
4
3

> <PUBCHEM_MMFF94_PARTIAL_CHARGES>
23
1 -0.68
10 0.34
11 -0.3
12 -0.15
13 -0.15
14 -0.15
15 0.08
16 0.66
2 -0.53
20 0.15
21 0.27
22 0.15
23 0.15
24 0.15
25 0.4
26 0.45
27 0.5
3 -0.65
4 -0.57
5 0.03
6 -0.18
8 0.18
9 -0.15

> <PUBCHEM_EFFECTIVE_ROTOR_COUNT>
3

> <PUBCHEM_PHARMACOPHORE_FEATURES>
10
1 1 acceptor
1 1 donor
1 2 donor
1 3 acceptor
1 4 acceptor
1 5 cation
1 5 donor
3 3 4 16 anion
5 5 6 7 9 11 rings
6 7 9 12 13 14 15 rings

> <PUBCHEM_HEAVY_ATOM_COUNT>
16

> <PUBCHEM_ATOM_DEF_STEREO_COUNT>
0

> <PUBCHEM_ATOM_UDEF_STEREO_COUNT>
1

> <PUBCHEM_BOND_DEF_STEREO_COUNT>
0

> <PUBCHEM_BOND_UDEF_STEREO_COUNT>
0

> <PUBCHEM_ISOTOPIC_ATOM_COUNT>
0

> <PUBCHEM_COMPONENT_COUNT>
1

> <PUBCHEM_CACTVS_TAUTO_COUNT>
9

> <PUBCHEM_CONFORMER_ID>
0006B9AE00000005

> <PUBCHEM_MMFF94_ENERGY>
20.4818

> <PUBCHEM_FEATURE_SELFOVERLAP>
50.902

> <PUBCHEM_SHAPE_FINGERPRINT>
10618630 7 18342457028024006830
11543360 7 14692563278481658211
12032990 46 18413105052639912759
12251169 10 18113058216439826062
13296908 3 18342181059153243036
13581323 91 18409449206537015020
13675066 3 18343302527086190539
13690532 89 18412544276261846079
14115302 16 17417805089626301579
14252887 29 18340202994779790250
15885798 251 18342173345798070329
16945 1 18337097970207223981
17804303 29 18335133232742756876
17834074 16 18335984263570174678
1813 80 17704351069777451020
19141452 34 18260267417641933911
193927 3 17917134040463509675
20281475 54 18341045195185875013
20361792 2 16988563511216851876
20510252 161 18261674890782052064
20645477 70 18057610854600661439
20671657 53 16988848267501077916
20871998 184 18261395593295439542
20871998 22 18411981321538859661
21267235 1 18340759386276328914
21296965 67 18341614793722504501
21501925 9 18337955576165244333
22646028 28 18273213084146683530
2297311 6 18261661654330824532
232386 152 18341044129738554253
23402539 116 18187372025987331279
23463225 33 18411976949246107423
23559900 14 18410017632790490624
2748010 2 18121483920425913269
31174 14 18041004999026710336
42 15 18410290306972796107
43471831 8 18200314458224438955
465052 167 18127677254861907627
5104073 3 18409449197715154552
7364860 26 18267862775020410388
83771 10 18413107255937049572
84936 31 15792846917865256687
9709674 26 18409726292136894102

> <PUBCHEM_SHAPE_MULTIPOLES>
300.81
7.79
2.12
0.75
3.26
0.35
-0.01
-4.02
1.55
-0.35
-0.1
0.18
0.07
0.26

> <PUBCHEM_SHAPE_SELFOVERLAP>
650.743

> <PUBCHEM_SHAPE_VOLUME>
166

> <PUBCHEM_COORDINATE_TYPE>
2
5
10

$$$$

