5281602
  -OEChem-07051212583D

 59 62  0     1  0  0  0  0  0999 V2000
    3.0387   -0.4294    0.9185 O   0  0  0  0  0  0  0  0  0  0  0  0
    2.9015    1.8997    0.9374 O   0  0  0  0  0  0  0  0  0  0  0  0
    5.5039   -2.7591   -0.4631 O   0  0  0  0  0  0  0  0  0  0  0  0
    7.0108   -0.3165   -0.1192 O   0  0  0  0  0  0  0  0  0  0  0  0
    5.2893    2.0306   -0.5758 O   0  0  0  0  0  0  0  0  0  0  0  0
    1.5189   -2.7195    0.9597 O   0  0  0  0  0  0  0  0  0  0  0  0
   -1.7329    0.9953    0.4281 O   0  0  0  0  0  0  0  0  0  0  0  0
    0.0904    5.3174   -0.7923 O   0  0  0  0  0  0  0  0  0  0  0  0
    1.4773   -3.9100   -1.0141 O   0  0  0  0  0  0  0  0  0  0  0  0
   -2.4540    4.7269   -1.0395 O   0  0  0  0  0  0  0  0  0  0  0  0
   -2.7363   -3.4510   -0.8912 O   0  0  0  0  0  0  0  0  0  0  0  0
   -1.0078   -4.3240   -2.0832 O   0  0  0  0  0  0  0  0  0  0  0  0
   -6.9490   -2.5647    0.7454 O   0  0  0  0  0  0  0  0  0  0  0  0
    5.0443   -1.6249    0.2672 C   0  0  1  0  0  0  0  0  0  0  0  0
    5.6049   -0.3528   -0.3691 C   0  0  1  0  0  0  0  0  0  0  0  0
    3.5139   -1.6058    0.2618 C   0  0  1  0  0  0  0  0  0  0  0  0
    4.9504    0.8961    0.2214 C   0  0  2  0  0  0  0  0  0  0  0  0
    3.4274    0.7666    0.2470 C   0  0  1  0  0  0  0  0  0  0  0  0
    2.9315   -2.8095    0.9959 C   0  0  0  0  0  0  0  0  0  0  0  0
    1.6594    2.3199    0.5633 C   0  0  0  0  0  0  0  0  0  0  0  0
    0.5696    1.4563    0.6764 C   0  0  0  0  0  0  0  0  0  0  0  0
    1.4804    3.6128    0.0693 C   0  0  0  0  0  0  0  0  0  0  0  0
    0.9019   -3.3187   -0.1116 C   0  0  0  0  0  0  0  0  0  0  0  0
   -0.7005    1.8889    0.2945 C   0  0  0  0  0  0  0  0  0  0  0  0
   -0.8773    3.1804   -0.1989 C   0  0  0  0  0  0  0  0  0  0  0  0
    0.2112    4.0480   -0.3139 C   0  0  0  0  0  0  0  0  0  0  0  0
   -0.5903   -3.1222   -0.0009 C   0  0  0  0  0  0  0  0  0  0  0  0
   -2.2269    3.6098   -0.5959 C   0  0  0  0  0  0  0  0  0  0  0  0
   -3.0079    1.3996    0.0627 C   0  0  0  0  0  0  0  0  0  0  0  0
   -3.3037    2.6126   -0.4307 C   0  0  0  0  0  0  0  0  0  0  0  0
   -4.0412    0.3598    0.2412 C   0  0  0  0  0  0  0  0  0  0  0  0
   -1.4201   -3.7047   -1.1147 C   0  0  0  0  0  0  0  0  0  0  0  0
   -5.1504    0.3195   -0.6071 C   0  0  0  0  0  0  0  0  0  0  0  0
   -3.9141   -0.5879    1.2599 C   0  0  0  0  0  0  0  0  0  0  0  0
   -6.1266   -0.6625   -0.4377 C   0  0  0  0  0  0  0  0  0  0  0  0
   -4.8903   -1.5698    1.4291 C   0  0  0  0  0  0  0  0  0  0  0  0
   -5.9965   -1.6071    0.5803 C   0  0  0  0  0  0  0  0  0  0  0  0
    5.4251   -1.7181    1.2917 H   0  0  0  0  0  0  0  0  0  0  0  0
    5.4847   -0.3725   -1.4593 H   0  0  0  0  0  0  0  0  0  0  0  0
    3.1309   -1.6082   -0.7676 H   0  0  0  0  0  0  0  0  0  0  0  0
    5.3393    1.0887    1.2284 H   0  0  0  0  0  0  0  0  0  0  0  0
    3.0382    0.7547   -0.7821 H   0  0  0  0  0  0  0  0  0  0  0  0
    3.2885   -3.7623    0.5886 H   0  0  0  0  0  0  0  0  0  0  0  0
    3.2184   -2.7815    2.0533 H   0  0  0  0  0  0  0  0  0  0  0  0
    5.1638   -2.6894   -1.3715 H   0  0  0  0  0  0  0  0  0  0  0  0
    7.3942   -1.1280   -0.4938 H   0  0  0  0  0  0  0  0  0  0  0  0
    4.9502    1.8800   -1.4746 H   0  0  0  0  0  0  0  0  0  0  0  0
    0.6886    0.4531    1.0749 H   0  0  0  0  0  0  0  0  0  0  0  0
    2.3340    4.2808   -0.0174 H   0  0  0  0  0  0  0  0  0  0  0  0
   -0.7804   -2.0434    0.0238 H   0  0  0  0  0  0  0  0  0  0  0  0
   -0.9172   -3.5870    0.9357 H   0  0  0  0  0  0  0  0  0  0  0  0
   -4.3031    2.9302   -0.7040 H   0  0  0  0  0  0  0  0  0  0  0  0
   -0.8315    5.5073   -1.0242 H   0  0  0  0  0  0  0  0  0  0  0  0
   -5.2774    1.0233   -1.4254 H   0  0  0  0  0  0  0  0  0  0  0  0
   -3.0660   -0.5783    1.9402 H   0  0  0  0  0  0  0  0  0  0  0  0
   -6.9814   -0.6841   -1.1085 H   0  0  0  0  0  0  0  0  0  0  0  0
   -4.7840   -2.3025    2.2244 H   0  0  0  0  0  0  0  0  0  0  0  0
   -3.3059   -3.8203   -1.5993 H   0  0  0  0  0  0  0  0  0  0  0  0
   -7.6405   -2.4409    0.0727 H   0  0  0  0  0  0  0  0  0  0  0  0
  1 16  1  0  0  0  0
  1 18  1  0  0  0  0
  2 18  1  0  0  0  0
  2 20  1  0  0  0  0
  3 14  1  0  0  0  0
  3 45  1  0  0  0  0
  4 15  1  0  0  0  0
  4 46  1  0  0  0  0
  5 17  1  0  0  0  0
  5 47  1  0  0  0  0
  6 19  1  0  0  0  0
  6 23  1  0  0  0  0
  7 24  1  0  0  0  0
  7 29  1  0  0  0  0
  8 26  1  0  0  0  0
  8 53  1  0  0  0  0
  9 23  2  0  0  0  0
 10 28  2  0  0  0  0
 11 32  1  0  0  0  0
 11 58  1  0  0  0  0
 12 32  2  0  0  0  0
 13 37  1  0  0  0  0
 13 59  1  0  0  0  0
 14 15  1  0  0  0  0
 14 16  1  0  0  0  0
 14 38  1  0  0  0  0
 15 17  1  0  0  0  0
 15 39  1  0  0  0  0
 16 19  1  0  0  0  0
 16 40  1  0  0  0  0
 17 18  1  0  0  0  0
 17 41  1  0  0  0  0
 18 42  1  0  0  0  0
 19 43  1  0  0  0  0
 19 44  1  0  0  0  0
 20 21  1  0  0  0  0
 20 22  2  0  0  0  0
 21 24  2  0  0  0  0
 21 48  1  0  0  0  0
 22 26  1  0  0  0  0
 22 49  1  0  0  0  0
 23 27  1  0  0  0  0
 24 25  1  0  0  0  0
 25 26  2  0  0  0  0
 25 28  1  0  0  0  0
 27 32  1  0  0  0  0
 27 50  1  0  0  0  0
 27 51  1  0  0  0  0
 28 30  1  0  0  0  0
 29 30  2  0  0  0  0
 29 31  1  0  0  0  0
 30 52  1  0  0  0  0
 31 33  2  0  0  0  0
 31 34  1  0  0  0  0
 33 35  1  0  0  0  0
 33 54  1  0  0  0  0
 34 36  2  0  0  0  0
 34 55  1  0  0  0  0
 35 37  2  0  0  0  0
 35 56  1  0  0  0  0
 36 37  1  0  0  0  0
 36 57  1  0  0  0  0
M  END
> <PUBCHEM_COMPOUND_CID>
5281602

> <PUBCHEM_CONFORMER_RMSD>
1

> <PUBCHEM_CONFORMER_DIVERSEORDER>
1
150
28
170
115
85
33
240
103
17
50
308
309
113
201
245
97
98
297
246
110
143
242
14
56
169
60
180
322
59
225
5
185
118
90
195
259
134
204
267
61
13
179
281
24
47
227
256
31
217
202
253
191
112
167
64
82
88
100
99
293
206
200
119
276
20
65
260
86
101
23
286
123
193
300
325
212
228
141
78
9
323
161
62
287
284
116
304
166
55
279
49
74
132
94
107
18
222
296
146
105
102
236
196
67
294
320
51
117
292
295
251
22
41
133
153
135
57
289
6
140
45
120
3
317
79
70
139
263
29
87
224
182
305
43
92
283
11
247
26
271
311
12
176
73
302
278
66
53
38
282
183
288
16
80
37
190
10
7
178
157
109
81
40
27
255
106
44
58
25
159
75
144
197
54
104
69
319
273
19
155
15
164
277
248
137
42
232
154
158
34
21
266
35
4
171
181
36
32
230
208
39
173
83
48
272
93
84
265
310
136
223
205
8
160
46
291
254
262
221
264
321
151
125
2
250
274
285
68
187
184
189
211
126
71
270
72
268
30
239
114
226
237
313
257
307
165
306
214
218
229
52
96
241
127
162
188
235
149
111
91
199
129
312
299
177
174
231
216
318
316
145
269
108
77
147
207
148
89
152
138
131
219
172
233
220
121
261
234
76
95
194
124
203
210
275
249
192
209
258
186
168
303
128
122
142
163
298
244
213
130
324
290
301
280
63
315
198
238
243
175
314
156
215
252

> <PUBCHEM_MMFF94_PARTIAL_CHARGES>
50
1 -0.56
10 -0.57
11 -0.65
12 -0.57
13 -0.53
14 0.28
15 0.28
16 0.28
17 0.28
18 0.56
19 0.28
2 -0.36
20 0.08
21 -0.15
22 -0.15
23 0.66
24 0.08
25 0.09
26 0.08
27 0.12
28 0.47
29 0.05
3 -0.68
30 -0.14
31 0.03
32 0.66
33 -0.15
34 -0.15
35 -0.15
36 -0.15
37 0.08
4 -0.68
45 0.4
46 0.4
47 0.4
48 0.15
49 0.15
5 -0.68
52 0.15
53 0.45
54 0.15
55 0.15
56 0.15
57 0.15
58 0.5
59 0.45
6 -0.43
7 -0.16
8 -0.53
9 -0.57

> <PUBCHEM_EFFECTIVE_ROTOR_COUNT>
9.2

> <PUBCHEM_PHARMACOPHORE_FEATURES>
21
1 1 acceptor
1 10 acceptor
1 11 acceptor
1 12 acceptor
1 13 donor
1 2 acceptor
1 27 anion
1 3 acceptor
1 3 donor
1 4 acceptor
1 4 donor
1 5 acceptor
1 5 donor
1 7 acceptor
1 8 donor
1 9 acceptor
3 11 12 32 anion
6 1 14 15 16 17 18 rings
6 20 21 22 24 25 26 rings
6 31 33 34 35 36 37 rings
6 7 24 25 28 29 30 rings

> <PUBCHEM_HEAVY_ATOM_COUNT>
37

> <PUBCHEM_ATOM_DEF_STEREO_COUNT>
5

> <PUBCHEM_ATOM_UDEF_STEREO_COUNT>
0

> <PUBCHEM_BOND_DEF_STEREO_COUNT>
0

> <PUBCHEM_BOND_UDEF_STEREO_COUNT>
0

> <PUBCHEM_ISOTOPIC_ATOM_COUNT>
0

> <PUBCHEM_COMPONENT_COUNT>
1

> <PUBCHEM_CACTVS_TAUTO_COUNT>
21

> <PUBCHEM_CONFORMER_ID>
0050974200000001

> <PUBCHEM_MMFF94_ENERGY>
106.9697

> <PUBCHEM_FEATURE_SELFOVERLAP>
106.979

> <PUBCHEM_SHAPE_FINGERPRINT>
10675989 125 16751576665031652503
10677394 325 17627223465032874084
11513181 2 18044381766539206798
13383661 66 17823962615116731006
13402501 40 18412260636147072755
1361 2 18268148656517139321
14117953 113 18408323272913999639
14415361 349 18044376015704240700
14840074 17 18335699425792625675
15001296 14 18339089168058002930
15320467 1 18411139121291127650
15927050 60 17689710861937555388
15961568 22 18410569609065826863
15968369 153 18335431123116446530
19319366 153 18130788949830180618
19611394 137 18129085741963182291
20764821 26 18122356678659178526
21133410 38 17755301167552004595
21133410 62 18058748939388395143
21796203 349 17981569781216518089
23559900 14 18342183224561065681
338550 245 18196934370469750719
463206 1 18338517439101478256
484989 97 18263640831491522058
5047190 2 18045789979532336383
50677037 204 18190475869365055230
5309563 4 18412544306205362977
550186 72 18341048626522548380

> <PUBCHEM_SHAPE_MULTIPOLES>
685.14
13.91
7.14
1.1
0.67
2.24
-0.1
-7.64
1.27
-1.35
-2.68
-0.59
-0.71
0.75

> <PUBCHEM_SHAPE_SELFOVERLAP>
1490.326

> <PUBCHEM_SHAPE_VOLUME>
368.1

> <PUBCHEM_COORDINATE_TYPE>
2
5
10

$$$$

