56927940
  -OEChem-07051213153D

 53 56  0     1  0  0  0  0  0999 V2000
   -3.6915   -2.6608   -0.8062 O   0  0  0  0  0  0  0  0  0  0  0  0
   -0.7064   -0.4937    0.1906 C   0  0  1  0  0  0  0  0  0  0  0  0
    0.7568   -0.5097   -0.4371 C   0  0  1  0  0  0  0  0  0  0  0  0
    1.5913    0.7965   -0.2032 C   0  0  1  0  0  0  0  0  0  0  0  0
   -1.3956    0.8549   -0.2507 C   0  0  1  0  0  0  0  0  0  0  0  0
    0.8004    2.0826   -0.4378 C   0  0  0  0  0  0  0  0  0  0  0  0
   -2.9410    0.9707    0.0061 C   0  0  0  0  0  0  0  0  0  0  0  0
    2.2986    0.7759    1.1623 C   0  0  0  0  0  0  0  0  0  0  0  0
   -0.5787    2.0770    0.2147 C   0  0  0  0  0  0  0  0  0  0  0  0
    1.5961   -1.7971   -0.1329 C   0  0  0  0  0  0  0  0  0  0  0  0
   -1.5318   -1.6686   -0.4140 C   0  0  0  0  0  0  0  0  0  0  0  0
    3.3847   -0.2728    0.9283 C   0  0  1  0  0  0  0  0  0  0  0  0
    2.7234   -1.6566    0.9142 C   0  0  0  0  0  0  0  0  0  0  0  0
    2.8323    0.7518   -1.0874 C   0  0  0  0  0  0  0  0  0  0  0  0
   -3.6443   -0.2867   -0.5584 C   0  0  0  0  0  0  0  0  0  0  0  0
   -3.0302   -1.6054   -0.1072 C   0  0  1  0  0  0  0  0  0  0  0  0
   -0.6555   -0.6914    1.7225 C   0  0  0  0  0  0  0  0  0  0  0  0
    3.8392    0.1383   -0.4474 C   0  0  0  0  0  0  0  0  0  0  0  0
   -3.5183    2.1824   -0.7744 C   0  0  0  0  0  0  0  0  0  0  0  0
   -3.3232    1.1869    1.4815 C   0  0  0  0  0  0  0  0  0  0  0  0
    5.1937   -0.1745   -0.9634 C   0  0  0  0  0  0  0  0  0  0  0  0
    0.5792   -0.5492   -1.5251 H   0  0  0  0  0  0  0  0  0  0  0  0
   -1.3153    0.8608   -1.3513 H   0  0  0  0  0  0  0  0  0  0  0  0
    0.6643    2.2354   -1.5177 H   0  0  0  0  0  0  0  0  0  0  0  0
    1.3618    2.9568   -0.0836 H   0  0  0  0  0  0  0  0  0  0  0  0
    1.6593    0.5276    2.0088 H   0  0  0  0  0  0  0  0  0  0  0  0
    2.7557    1.7499    1.3924 H   0  0  0  0  0  0  0  0  0  0  0  0
   -0.4805    2.1094    1.3034 H   0  0  0  0  0  0  0  0  0  0  0  0
   -1.0731    3.0097   -0.0726 H   0  0  0  0  0  0  0  0  0  0  0  0
    2.0737   -2.0978   -1.0769 H   0  0  0  0  0  0  0  0  0  0  0  0
    0.9663   -2.6494    0.1365 H   0  0  0  0  0  0  0  0  0  0  0  0
   -1.1541   -2.6359   -0.0621 H   0  0  0  0  0  0  0  0  0  0  0  0
   -1.4024   -1.6931   -1.5051 H   0  0  0  0  0  0  0  0  0  0  0  0
    4.1761   -0.1991    1.6799 H   0  0  0  0  0  0  0  0  0  0  0  0
    2.3136   -1.8609    1.9105 H   0  0  0  0  0  0  0  0  0  0  0  0
    3.4773   -2.4320    0.7297 H   0  0  0  0  0  0  0  0  0  0  0  0
    2.8692    1.1020   -2.1092 H   0  0  0  0  0  0  0  0  0  0  0  0
   -4.7121   -0.2796   -0.2999 H   0  0  0  0  0  0  0  0  0  0  0  0
   -3.6238   -0.2574   -1.6577 H   0  0  0  0  0  0  0  0  0  0  0  0
   -3.2257   -1.7659    0.9566 H   0  0  0  0  0  0  0  0  0  0  0  0
   -0.3935    0.2185    2.2633 H   0  0  0  0  0  0  0  0  0  0  0  0
    0.0605   -1.4662    2.0070 H   0  0  0  0  0  0  0  0  0  0  0  0
   -1.6041   -1.0323    2.1384 H   0  0  0  0  0  0  0  0  0  0  0  0
   -4.3943    1.4055    1.5746 H   0  0  0  0  0  0  0  0  0  0  0  0
   -3.1414    0.3138    2.1063 H   0  0  0  0  0  0  0  0  0  0  0  0
   -2.7856    2.0347    1.9179 H   0  0  0  0  0  0  0  0  0  0  0  0
   -3.2102    2.1640   -1.8258 H   0  0  0  0  0  0  0  0  0  0  0  0
   -4.6148    2.1757   -0.7546 H   0  0  0  0  0  0  0  0  0  0  0  0
   -3.2006    3.1379   -0.3453 H   0  0  0  0  0  0  0  0  0  0  0  0
    5.9573    0.3030   -0.3419 H   0  0  0  0  0  0  0  0  0  0  0  0
    5.3239    0.1811   -1.9906 H   0  0  0  0  0  0  0  0  0  0  0  0
    5.3658   -1.2551   -0.9563 H   0  0  0  0  0  0  0  0  0  0  0  0
   -3.3041   -3.4998   -0.5035 H   0  0  0  0  0  0  0  0  0  0  0  0
  1 16  1  0  0  0  0
  1 53  1  0  0  0  0
  2  3  1  0  0  0  0
  2  5  1  0  0  0  0
  2 11  1  0  0  0  0
  2 17  1  0  0  0  0
  3  4  1  0  0  0  0
  3 10  1  0  0  0  0
  3 22  1  0  0  0  0
  4  6  1  0  0  0  0
  4  8  1  0  0  0  0
  4 14  1  0  0  0  0
  5  7  1  0  0  0  0
  5  9  1  0  0  0  0
  5 23  1  0  0  0  0
  6  9  1  0  0  0  0
  6 24  1  0  0  0  0
  6 25  1  0  0  0  0
  7 15  1  0  0  0  0
  7 19  1  0  0  0  0
  7 20  1  0  0  0  0
  8 12  1  0  0  0  0
  8 26  1  0  0  0  0
  8 27  1  0  0  0  0
  9 28  1  0  0  0  0
  9 29  1  0  0  0  0
 10 13  1  0  0  0  0
 10 30  1  0  0  0  0
 10 31  1  0  0  0  0
 11 16  1  0  0  0  0
 11 32  1  0  0  0  0
 11 33  1  0  0  0  0
 12 13  1  0  0  0  0
 12 18  1  0  0  0  0
 12 34  1  0  0  0  0
 13 35  1  0  0  0  0
 13 36  1  0  0  0  0
 14 18  2  0  0  0  0
 14 37  1  0  0  0  0
 15 16  1  0  0  0  0
 15 38  1  0  0  0  0
 15 39  1  0  0  0  0
 16 40  1  0  0  0  0
 17 41  1  0  0  0  0
 17 42  1  0  0  0  0
 17 43  1  0  0  0  0
 18 21  1  0  0  0  0
 19 47  1  0  0  0  0
 19 48  1  0  0  0  0
 19 49  1  0  0  0  0
 20 44  1  0  0  0  0
 20 45  1  0  0  0  0
 20 46  1  0  0  0  0
 21 50  1  0  0  0  0
 21 51  1  0  0  0  0
 21 52  1  0  0  0  0
M  END
> <PUBCHEM_COMPOUND_CID>
56927940

> <PUBCHEM_CONFORMER_RMSD>
0.6

> <PUBCHEM_CONFORMER_DIVERSEORDER>
1

> <PUBCHEM_MMFF94_PARTIAL_CHARGES>
9
1 -0.68
12 0.14
14 -0.29
16 0.28
18 -0.28
21 0.14
37 0.15
4 0.14
53 0.4

> <PUBCHEM_EFFECTIVE_ROTOR_COUNT>
1.8

> <PUBCHEM_PHARMACOPHORE_FEATURES>
6
1 1 acceptor
1 1 donor
3 7 19 20 hydrophobe
6 2 3 4 5 6 9 rings
6 2 5 7 11 15 16 rings
8 3 4 8 10 12 13 14 18 rings

> <PUBCHEM_HEAVY_ATOM_COUNT>
21

> <PUBCHEM_ATOM_DEF_STEREO_COUNT>
6

> <PUBCHEM_ATOM_UDEF_STEREO_COUNT>
0

> <PUBCHEM_BOND_DEF_STEREO_COUNT>
0

> <PUBCHEM_BOND_UDEF_STEREO_COUNT>
0

> <PUBCHEM_ISOTOPIC_ATOM_COUNT>
0

> <PUBCHEM_COMPONENT_COUNT>
1

> <PUBCHEM_CACTVS_TAUTO_COUNT>
1

> <PUBCHEM_CONFORMER_ID>
0364A6C400000001

> <PUBCHEM_MMFF94_ENERGY>
90.8181

> <PUBCHEM_FEATURE_SELFOVERLAP>
30.476

> <PUBCHEM_SHAPE_FINGERPRINT>
10062212 137 18343027704686923211
10366900 7 17531537588623922753
10498660 4 18410857676711432628
10616163 171 18410291410663450766
10646746 165 18260269637918090000
10759866 29 18059009609516370270
10863032 1 18335145327196719002
10948715 1 17774993601225390368
10967382 1 18194687192236028711
11132069 177 18411989091171582464
11578080 2 17605289388879083441
12011746 2 18335422421407235604
12236239 1 17989205953885173676
12403814 3 17775285006161409901
12491281 212 18336540607663331073
12500047 106 18337398248202850165
12553582 1 18413670218501468968
13140716 1 18337387141148572992
13221675 6 18343015605880107792
13224815 77 18411142411225104656
13296908 3 17603305925293752040
13538477 17 18341054098663713468
13760787 19 18272370909905833404
14144814 61 18411985758187017155
14178342 30 18337125508915014482
15196674 1 18412263960673039310
15309172 13 18338508741998477705
15375462 189 18272083902927044512
15415430 112 18410853269895405060
16752209 62 18410582751317261719
16945 1 18336267941385294153
17349148 13 18060425685703056498
17492 89 18413394245515618915
17804303 29 18260547814122676840
1813 80 16986041365309667066
18186145 218 17967536799999561729
19862831 5 18131080298603752071
200 152 18343585101173946550
20261772 1 18410280420295554769
20600515 1 17895459410837778576
20691752 17 17846225405837892960
21267235 1 18411128117605975415
21421861 104 17628643243354313530
21501502 16 18342178877257161098
21634736 98 18269558230212938285
22393880 68 18409732854851638670
2334 1 18410857655131074999
23402539 116 18060420235637523044
23402655 69 18200876278790884692
23463225 33 18342461473399489188
23493267 7 17846771927641348304
23557571 272 18040148513801783855
23559900 14 18187646951202238268
2748010 2 18335704927033360471
296302 2 16056874737066368788
335352 9 18123475148256794334
34934 24 18342741870170811348
350125 39 18410006612020213353
474 4 17561079207109556014
5104073 3 18409169913530460962
633830 44 17131832135189215874
69090 78 18338804519527422797
6992083 37 18411416250198609289
74978 22 18409730629668513696
7832392 63 18410298033724476085
90525 40 18334295374849691431
9709674 26 18342452638710251362

> <PUBCHEM_SHAPE_MULTIPOLES>
426.3
7.86
2.34
1.22
2.61
0.28
-0.38
0.4
1.45
-1.9
0.33
0.07
0
-0.66

> <PUBCHEM_SHAPE_SELFOVERLAP>
911.776

> <PUBCHEM_SHAPE_VOLUME>
235.1

> <PUBCHEM_COORDINATE_TYPE>
2
5
10

$$$$

