10536
  -OEChem-06261204392D

 72 77  0     1  0  0  0  0  0999 V2000
    5.5954   -2.5456    0.0000 O   0  0  0  0  0  0  0  0  0  0  0  0
    3.9300   -1.4644    0.0000 O   0  0  0  0  0  0  0  0  0  0  0  0
   12.0027    2.8336    0.0000 O   0  0  0  0  0  0  0  0  0  0  0  0
    6.6628   -0.3108    0.0000 C   0  0  3  0  0  0  0  0  0  0  0  0
    7.5288   -0.8108    0.0000 C   0  0  3  0  0  0  0  0  0  0  0  0
    5.9258   -0.9778    0.0000 C   0  0  3  0  0  0  0  0  0  0  0  0
    8.3948   -0.3108    0.0000 C   0  0  3  0  0  0  0  0  0  0  0  0
    6.3309   -1.8856    0.0000 C   0  0  3  0  0  0  0  0  0  0  0  0
    8.3948    0.6892    0.0000 C   0  0  3  0  0  0  0  0  0  0  0  0
    7.3196   -1.7826    0.0000 C   0  0  0  0  0  0  0  0  0  0  0  0
    6.6628    0.6892    0.0000 C   0  0  0  0  0  0  0  0  0  0  0  0
    4.9434   -1.0845    0.0000 C   0  0  1  0  0  0  0  0  0  0  0  0
    7.5288    1.1892    0.0000 C   0  0  0  0  0  0  0  0  0  0  0  0
    9.2888    1.2239    0.0000 C   0  0  3  0  0  0  0  0  0  0  0  0
    4.7396   -2.0515    0.0000 C   0  0  1  0  0  0  0  0  0  0  0  0
    5.7968    0.1892    0.0000 C   0  0  0  0  0  0  0  0  0  0  0  0
    9.2888   -0.8454    0.0000 C   0  0  0  0  0  0  0  0  0  0  0  0
   10.1949    0.7101    0.0000 C   0  0  0  0  0  0  0  0  0  0  0  0
    9.2637    2.3086    0.0000 C   0  0  0  0  0  0  0  0  0  0  0  0
    4.2723   -0.3431    0.0000 C   0  0  0  0  0  0  0  0  0  0  0  0
    4.6359   -3.0461    0.0000 C   0  0  0  0  0  0  0  0  0  0  0  0
   10.1949   -0.3316    0.0000 C   0  0  0  0  0  0  0  0  0  0  0  0
    8.4189    1.7172    0.0000 C   0  0  0  0  0  0  0  0  0  0  0  0
   11.1386    1.2453    0.0000 C   0  0  0  0  0  0  0  0  0  0  0  0
   10.1949    2.8655    0.0000 C   0  0  0  0  0  0  0  0  0  0  0  0
    3.7227   -3.4536    0.0000 C   0  0  0  0  0  0  0  0  0  0  0  0
   11.1386    2.3303    0.0000 C   0  0  3  0  0  0  0  0  0  0  0  0
    2.9132   -2.8665    0.0000 C   0  0  2  0  0  0  0  0  0  0  0  0
    3.0169   -1.8719    0.0000 C   0  0  0  0  0  0  0  0  0  0  0  0
    2.0000   -3.2741    0.0000 C   0  0  0  0  0  0  0  0  0  0  0  0
    8.2158   -1.3113    0.0000 H   0  0  0  0  0  0  0  0  0  0  0  0
    5.5777   -0.2024    0.0000 H   0  0  0  0  0  0  0  0  0  0  0  0
    8.3883   -1.1607    0.0000 H   0  0  0  0  0  0  0  0  0  0  0  0
    6.6756   -2.6626    0.0000 H   0  0  0  0  0  0  0  0  0  0  0  0
    8.3883    1.5392    0.0000 H   0  0  0  0  0  0  0  0  0  0  0  0
    7.3187   -2.4026    0.0000 H   0  0  0  0  0  0  0  0  0  0  0  0
    7.9361   -1.8486    0.0000 H   0  0  0  0  0  0  0  0  0  0  0  0
    6.4507    1.2719    0.0000 H   0  0  0  0  0  0  0  0  0  0  0  0
    6.0522    0.5816    0.0000 H   0  0  0  0  0  0  0  0  0  0  0  0
    4.3448   -1.2463    0.0000 H   0  0  0  0  0  0  0  0  0  0  0  0
    7.9274    1.6642    0.0000 H   0  0  0  0  0  0  0  0  0  0  0  0
    7.1303    1.6642    0.0000 H   0  0  0  0  0  0  0  0  0  0  0  0
    6.1068    0.7262    0.0000 H   0  0  0  0  0  0  0  0  0  0  0  0
    5.2598    0.4992    0.0000 H   0  0  0  0  0  0  0  0  0  0  0  0
    5.4868   -0.3477    0.0000 H   0  0  0  0  0  0  0  0  0  0  0  0
    8.8842   -1.3152    0.0000 H   0  0  0  0  0  0  0  0  0  0  0  0
    9.6824   -1.3244    0.0000 H   0  0  0  0  0  0  0  0  0  0  0  0
    9.0412    2.8873    0.0000 H   0  0  0  0  0  0  0  0  0  0  0  0
    8.6555    2.1884    0.0000 H   0  0  0  0  0  0  0  0  0  0  0  0
    4.7320    0.0729    0.0000 H   0  0  0  0  0  0  0  0  0  0  0  0
    3.8562    0.1165    0.0000 H   0  0  0  0  0  0  0  0  0  0  0  0
    3.8126   -0.7592    0.0000 H   0  0  0  0  0  0  0  0  0  0  0  0
    4.7864   -3.6476    0.0000 H   0  0  0  0  0  0  0  0  0  0  0  0
    5.2544   -3.0023    0.0000 H   0  0  0  0  0  0  0  0  0  0  0  0
   10.7306   -0.6436    0.0000 H   0  0  0  0  0  0  0  0  0  0  0  0
    8.7248    2.2565    0.0000 H   0  0  0  0  0  0  0  0  0  0  0  0
    7.8796    2.0231    0.0000 H   0  0  0  0  0  0  0  0  0  0  0  0
    8.1131    1.1779    0.0000 H   0  0  0  0  0  0  0  0  0  0  0  0
   11.3477    0.6616    0.0000 H   0  0  0  0  0  0  0  0  0  0  0  0
   11.7495    1.3514    0.0000 H   0  0  0  0  0  0  0  0  0  0  0  0
   10.5885    3.3446    0.0000 H   0  0  0  0  0  0  0  0  0  0  0  0
    9.7903    3.3353    0.0000 H   0  0  0  0  0  0  0  0  0  0  0  0
    3.2771   -3.8847    0.0000 H   0  0  0  0  0  0  0  0  0  0  0  0
    4.0699   -3.9673    0.0000 H   0  0  0  0  0  0  0  0  0  0  0  0
   11.1337    3.1803    0.0000 H   0  0  0  0  0  0  0  0  0  0  0  0
    2.4113   -2.5026    0.0000 H   0  0  0  0  0  0  0  0  0  0  0  0
    2.8664   -1.2705    0.0000 H   0  0  0  0  0  0  0  0  0  0  0  0
    2.3984   -1.9157    0.0000 H   0  0  0  0  0  0  0  0  0  0  0  0
    1.7473   -2.7079    0.0000 H   0  0  0  0  0  0  0  0  0  0  0  0
    1.4338   -3.5267    0.0000 H   0  0  0  0  0  0  0  0  0  0  0  0
    2.2527   -3.8402    0.0000 H   0  0  0  0  0  0  0  0  0  0  0  0
   12.0003    3.4536    0.0000 H   0  0  0  0  0  0  0  0  0  0  0  0
  1  8  1  0  0  0  0
 15  1  1  1  0  0  0
  2 15  1  0  0  0  0
  2 29  1  0  0  0  0
  3 27  1  0  0  0  0
  3 72  1  0  0  0  0
  4  5  1  0  0  0  0
  4  6  1  0  0  0  0
  4 11  1  0  0  0  0
  4 16  1  0  0  0  0
  5  7  1  0  0  0  0
  5 10  1  0  0  0  0
  5 31  1  0  0  0  0
  6  8  1  0  0  0  0
  6 12  1  0  0  0  0
  6 32  1  0  0  0  0
  7  9  1  0  0  0  0
  7 17  1  0  0  0  0
  7 33  1  0  0  0  0
  8 10  1  0  0  0  0
  8 34  1  0  0  0  0
  9 13  1  0  0  0  0
  9 14  1  0  0  0  0
  9 35  1  0  0  0  0
 10 36  1  0  0  0  0
 10 37  1  0  0  0  0
 11 13  1  0  0  0  0
 11 38  1  0  0  0  0
 11 39  1  0  0  0  0
 12 15  1  0  0  0  0
 12 20  1  1  0  0  0
 12 40  1  0  0  0  0
 13 41  1  0  0  0  0
 13 42  1  0  0  0  0
 14 18  1  0  0  0  0
 14 19  1  0  0  0  0
 14 23  1  0  0  0  0
 15 21  1  0  0  0  0
 16 43  1  0  0  0  0
 16 44  1  0  0  0  0
 16 45  1  0  0  0  0
 17 22  1  0  0  0  0
 17 46  1  0  0  0  0
 17 47  1  0  0  0  0
 18 22  2  0  0  0  0
 18 24  1  0  0  0  0
 19 25  1  0  0  0  0
 19 48  1  0  0  0  0
 19 49  1  0  0  0  0
 20 50  1  0  0  0  0
 20 51  1  0  0  0  0
 20 52  1  0  0  0  0
 21 26  1  0  0  0  0
 21 53  1  0  0  0  0
 21 54  1  0  0  0  0
 22 55  1  0  0  0  0
 23 56  1  0  0  0  0
 23 57  1  0  0  0  0
 23 58  1  0  0  0  0
 24 27  1  0  0  0  0
 24 59  1  0  0  0  0
 24 60  1  0  0  0  0
 25 27  1  0  0  0  0
 25 61  1  0  0  0  0
 25 62  1  0  0  0  0
 26 28  1  0  0  0  0
 26 63  1  0  0  0  0
 26 64  1  0  0  0  0
 27 65  1  0  0  0  0
 28 29  1  0  0  0  0
 28 30  1  1  0  0  0
 28 66  1  0  0  0  0
 29 67  1  0  0  0  0
 29 68  1  0  0  0  0
 30 69  1  0  0  0  0
 30 70  1  0  0  0  0
 30 71  1  0  0  0  0
M  END
> <PUBCHEM_COMPOUND_CID>
10536

> <PUBCHEM_COMPOUND_CANONICALIZED>
1

> <PUBCHEM_CACTVS_COMPLEXITY>
746

> <PUBCHEM_CACTVS_HBOND_ACCEPTOR>
3

> <PUBCHEM_CACTVS_HBOND_DONOR>
1

> <PUBCHEM_CACTVS_ROTATABLE_BOND>
0

> <PUBCHEM_CACTVS_SUBSKEYS>
AAADcfB4MAAAAAAAAAAAAAAAAAAAAaIAAAA0YIEAAAASAGCAAAAAGgAACAAADxSggAICCAAABgCAAiBCAAAAAAAgAAAACAAAAAgQEAIAAQAiQAAEwAAMAAPA4PwPgAAAAAAAAADAAAQAACAAAYAADAAAAA==

> <PUBCHEM_IUPAC_INCHI>
InChI=1S/C27H42O3/c1-16-7-12-27(29-15-16)17(2)24-23(30-27)14-22-20-6-5-18-13-19(28)8-10-25(18,3)21(20)9-11-26(22,24)4/h5,16-17,19-24,28H,6-15H2,1-4H3/t16-,17+,19?,20?,21?,22?,23?,24?,25?,26?,27-/m1/s1

> <PUBCHEM_IUPAC_INCHIKEY>
WQLVFSAGQJTQCK-BNCGEXHVSA-N

> <PUBCHEM_XLOGP3_AA>
5.7

> <PUBCHEM_EXACT_MASS>
414.313395

> <PUBCHEM_MOLECULAR_FORMULA>
C27H42O3

> <PUBCHEM_MOLECULAR_WEIGHT>
414.62058

> <PUBCHEM_OPENEYE_CAN_SMILES>
CC1CCC2(C(C3C(O2)CC4C3(CCC5C4CC=C6C5(CCC(C6)O)C)C)C)OC1

> <PUBCHEM_OPENEYE_ISO_SMILES>
C[C@@H]1CC[C@@]2([C@H](C3C(O2)CC4C3(CCC5C4CC=C6C5(CCC(C6)O)C)C)C)OC1

> <PUBCHEM_CACTVS_TPSA>
38.7

> <PUBCHEM_MONOISOTOPIC_WEIGHT>
414.313395

> <PUBCHEM_TOTAL_CHARGE>
0

> <PUBCHEM_HEAVY_ATOM_COUNT>
30

> <PUBCHEM_ATOM_DEF_STEREO_COUNT>
3

> <PUBCHEM_ATOM_UDEF_STEREO_COUNT>
8

> <PUBCHEM_BOND_DEF_STEREO_COUNT>
0

> <PUBCHEM_BOND_UDEF_STEREO_COUNT>
0

> <PUBCHEM_ISOTOPIC_ATOM_COUNT>
0

> <PUBCHEM_COMPONENT_COUNT>
1

> <PUBCHEM_CACTVS_TAUTO_COUNT>
1

> <PUBCHEM_COORDINATE_TYPE>
1
5
255

> <PUBCHEM_BONDANNOTATIONS>
15  1  5
12  20  5
14  23  3
27  65  3
28  30  5
4  16  3
5  31  3
6  32  3
7  33  3
8  34  3
9  35  3

$$$$

