5363397
  -OEChem-07051213103D

 30 29  0     0  0  0  0  0  0999 V2000
   -2.5133   -2.0577    0.0758 O   0  0  0  0  0  0  0  0  0  0  0  0
    1.7868   -2.8378   -0.2470 O   0  0  0  0  0  0  0  0  0  0  0  0
    1.0835    1.9340   -0.7825 C   0  0  0  0  0  0  0  0  0  0  0  0
   -0.3729    2.1848   -0.3698 C   0  0  0  0  0  0  0  0  0  0  0  0
    1.7379    0.7870   -0.0411 C   0  0  0  0  0  0  0  0  0  0  0  0
   -1.2799    1.0430   -0.7368 C   0  0  0  0  0  0  0  0  0  0  0  0
   -2.0442    0.2900    0.0777 C   0  0  0  0  0  0  0  0  0  0  0  0
    2.3696    1.1541    1.2774 C   0  0  0  0  0  0  0  0  0  0  0  0
    1.8072   -0.4812   -0.4911 C   0  0  0  0  0  0  0  0  0  0  0  0
   -2.8962   -0.8143   -0.4972 C   0  0  0  0  0  0  0  0  0  0  0  0
   -2.1388    0.4541    1.5695 C   0  0  0  0  0  0  0  0  0  0  0  0
    2.4601   -1.6559    0.1652 C   0  0  0  0  0  0  0  0  0  0  0  0
    1.1248    1.7379   -1.8627 H   0  0  0  0  0  0  0  0  0  0  0  0
    1.6676    2.8502   -0.6311 H   0  0  0  0  0  0  0  0  0  0  0  0
   -0.7329    3.0762   -0.8990 H   0  0  0  0  0  0  0  0  0  0  0  0
   -0.4114    2.4310    0.6942 H   0  0  0  0  0  0  0  0  0  0  0  0
   -1.3099    0.8269   -1.8045 H   0  0  0  0  0  0  0  0  0  0  0  0
    1.5925    1.3901    2.0117 H   0  0  0  0  0  0  0  0  0  0  0  0
    3.0108    0.3785    1.7019 H   0  0  0  0  0  0  0  0  0  0  0  0
    3.0031    2.0398    1.1551 H   0  0  0  0  0  0  0  0  0  0  0  0
    1.3677   -0.6817   -1.4680 H   0  0  0  0  0  0  0  0  0  0  0  0
   -3.9510   -0.6381   -0.2628 H   0  0  0  0  0  0  0  0  0  0  0  0
   -2.8080   -0.8980   -1.5854 H   0  0  0  0  0  0  0  0  0  0  0  0
   -1.5964    1.3195    1.9537 H   0  0  0  0  0  0  0  0  0  0  0  0
   -3.1859    0.5767    1.8667 H   0  0  0  0  0  0  0  0  0  0  0  0
   -1.7394   -0.4312    2.0750 H   0  0  0  0  0  0  0  0  0  0  0  0
    3.5014   -1.7372   -0.1590 H   0  0  0  0  0  0  0  0  0  0  0  0
    2.4220   -1.6210    1.2563 H   0  0  0  0  0  0  0  0  0  0  0  0
   -1.5834   -2.2171   -0.1610 H   0  0  0  0  0  0  0  0  0  0  0  0
    0.8719   -2.7859    0.0794 H   0  0  0  0  0  0  0  0  0  0  0  0
  1 10  1  0  0  0  0
  1 29  1  0  0  0  0
  2 12  1  0  0  0  0
  2 30  1  0  0  0  0
  3  4  1  0  0  0  0
  3  5  1  0  0  0  0
  3 13  1  0  0  0  0
  3 14  1  0  0  0  0
  4  6  1  0  0  0  0
  4 15  1  0  0  0  0
  4 16  1  0  0  0  0
  5  8  1  0  0  0  0
  5  9  2  0  0  0  0
  6  7  2  0  0  0  0
  6 17  1  0  0  0  0
  7 10  1  0  0  0  0
  7 11  1  0  0  0  0
  8 18  1  0  0  0  0
  8 19  1  0  0  0  0
  8 20  1  0  0  0  0
  9 12  1  0  0  0  0
  9 21  1  0  0  0  0
 10 22  1  0  0  0  0
 10 23  1  0  0  0  0
 11 24  1  0  0  0  0
 11 25  1  0  0  0  0
 11 26  1  0  0  0  0
 12 27  1  0  0  0  0
 12 28  1  0  0  0  0
M  END
> <PUBCHEM_COMPOUND_CID>
5363397

> <PUBCHEM_CONFORMER_RMSD>
0.6

> <PUBCHEM_CONFORMER_DIVERSEORDER>
1
184
28
32
136
141
173
15
54
33
190
67
106
215
52
61
25
9
200
132
20
120
137
91
170
150
187
83
85
17
36
87
29
124
202
23
209
6
152
119
8
195
220
46
115
146
43
131
232
75
130
94
181
62
122
13
108
133
3
185
188
174
68
129
16
186
231
147
31
169
118
79
57
89
42
149
58
90
221
105
30
155
201
50
71
86
18
21
192
93
55
107
24
125
35
205
144
80
179
14
203
163
74
158
47
40
96
110
236
176
111
228
223
121
211
66
78
225
180
128
44
82
127
151
140
34
168
102
56
48
99
161
229
126
11
19
88
72
97
113
171
101
12
189
227
109
41
138
214
194
2
198
7
182
237
199
235
81
157
160
114
22
210
73
222
53
224
165
234
207
117
145
98
63
156
216
219
51
76
135
166
218
77
208
148
38
4
153
69
100
123
177
134
230
59
212
197
143
172
193
183
104
142
175
84
159
139
206
112
204
162
65
167
213
39
5
37
196
217
233
164
64
226
95
116
103
27
191
70
49
154
10
45
178
60
26
92

> <PUBCHEM_MMFF94_PARTIAL_CHARGES>
16
1 -0.68
10 0.42
11 0.14
12 0.42
17 0.15
2 -0.68
21 0.15
29 0.4
3 0.14
30 0.4
4 0.14
5 -0.28
6 -0.29
7 -0.28
8 0.14
9 -0.29

> <PUBCHEM_EFFECTIVE_ROTOR_COUNT>
5

> <PUBCHEM_PHARMACOPHORE_FEATURES>
7
1 1 acceptor
1 1 donor
1 11 hydrophobe
1 2 acceptor
1 2 donor
1 8 hydrophobe
4 3 4 5 6 hydrophobe

> <PUBCHEM_HEAVY_ATOM_COUNT>
12

> <PUBCHEM_ATOM_DEF_STEREO_COUNT>
0

> <PUBCHEM_ATOM_UDEF_STEREO_COUNT>
0

> <PUBCHEM_BOND_DEF_STEREO_COUNT>
2

> <PUBCHEM_BOND_UDEF_STEREO_COUNT>
0

> <PUBCHEM_ISOTOPIC_ATOM_COUNT>
0

> <PUBCHEM_COMPONENT_COUNT>
1

> <PUBCHEM_CACTVS_TAUTO_COUNT>
1

> <PUBCHEM_CONFORMER_ID>
0051D6C500000001

> <PUBCHEM_MMFF94_ENERGY>
11.1708

> <PUBCHEM_FEATURE_SELFOVERLAP>
35.526

> <PUBCHEM_SHAPE_FINGERPRINT>
14251705 54 18197213638118809411
14251711 518 17768813417816622827
15207287 21 17844266028814215497
17990270 104 18272933786708011452
18522853 303 11095879341755837785
19766037 51 17700944834167705107
20201158 50 18271815562107816503
20645477 70 17984992488305567351
20711985 344 17344636060915385877
22445834 79 18262785303353173849
22713034 7 18125984002052919049
23552423 10 18340759343600767941
66348 1 18410571768985678591
81228 2 17987806348550856733
8199 65 17907298754186556959

> <PUBCHEM_SHAPE_MULTIPOLES>
235.22
4.52
2.71
1.12
1.17
1.23
0.43
2.01
0.62
-1.04
-0.43
0.15
-0.36
0.13

> <PUBCHEM_SHAPE_SELFOVERLAP>
437.128

> <PUBCHEM_SHAPE_VOLUME>
148.2

> <PUBCHEM_COORDINATE_TYPE>
2
5
10

$$$$

