441131
  -OEChem-07051212522D

 51 54  0     1  0  0  0  0  0999 V2000
    4.6650   -0.4900    0.0000 O   0  0  0  0  0  0  0  0  0  0  0  0
   11.3406    0.4900    0.0000 O   0  0  0  0  0  0  0  0  0  0  0  0
    6.7528   -2.1651    0.0000 O   0  0  0  0  0  0  0  0  0  0  0  0
    9.2528    2.1651    0.0000 O   0  0  0  0  0  0  0  0  0  0  0  0
    2.0000   -2.5117    0.0000 O   0  0  0  0  0  0  0  0  0  0  0  0
   14.0055    2.5117    0.0000 O   0  0  0  0  0  0  0  0  0  0  0  0
    7.7528    1.2990    0.0000 O   0  0  0  0  0  0  0  0  0  0  0  0
    6.7528    1.2990    0.0000 O   0  0  0  0  0  0  0  0  0  0  0  0
    5.2528    0.4330    0.0000 O   0  0  0  0  0  0  0  0  0  0  0  0
    3.7139   -1.7990    0.0000 N   0  0  0  0  0  0  0  0  0  0  0  0
   12.2916    1.7990    0.0000 N   0  0  0  0  0  0  0  0  0  0  0  0
    7.7528   -0.4330    0.0000 N   0  0  0  0  0  0  0  0  0  0  0  0
    9.7528   -0.4330    0.0000 N   0  0  0  0  0  0  0  0  0  0  0  0
    3.7139   -0.7990    0.0000 C   0  0  2  0  0  0  0  0  0  0  0  0
   12.2916    0.7990    0.0000 C   0  0  2  0  0  0  0  0  0  0  0  0
    5.2528   -1.2990    0.0000 C   0  0  2  0  0  0  0  0  0  0  0  0
   10.7528    1.2990    0.0000 C   0  0  2  0  0  0  0  0  0  0  0  0
    4.6650   -2.1081    0.0000 C   0  0  0  0  0  0  0  0  0  0  0  0
   11.3406    2.1081    0.0000 C   0  0  0  0  0  0  0  0  0  0  0  0
    2.7056   -0.7949    0.0000 C   0  0  0  0  0  0  0  0  0  0  0  0
   13.2999    0.7949    0.0000 C   0  0  0  0  0  0  0  0  0  0  0  0
    6.2528   -1.2990    0.0000 C   0  0  3  0  0  0  0  0  0  0  0  0
    9.7528    1.2990    0.0000 C   0  0  3  0  0  0  0  0  0  0  0  0
    2.7056   -1.8032    0.0000 C   0  0  0  0  0  0  0  0  0  0  0  0
   13.2999    1.8032    0.0000 C   0  0  0  0  0  0  0  0  0  0  0  0
    6.7528   -0.4330    0.0000 C   0  0  3  0  0  0  0  0  0  0  0  0
    9.2528    0.4330    0.0000 C   0  0  3  0  0  0  0  0  0  0  0  0
    8.2528    0.4330    0.0000 C   0  0  0  0  0  0  0  0  0  0  0  0
    6.2528    0.4330    0.0000 C   0  0  0  0  0  0  0  0  0  0  0  0
    3.5827    0.0408    0.0000 H   0  0  0  0  0  0  0  0  0  0  0  0
   12.4229   -0.0408    0.0000 H   0  0  0  0  0  0  0  0  0  0  0  0
    5.5342   -0.7466    0.0000 H   0  0  0  0  0  0  0  0  0  0  0  0
   10.4713    0.7466    0.0000 H   0  0  0  0  0  0  0  0  0  0  0  0
    4.4128   -2.6745    0.0000 H   0  0  0  0  0  0  0  0  0  0  0  0
    5.2019   -2.4181    0.0000 H   0  0  0  0  0  0  0  0  0  0  0  0
   11.5927    2.6745    0.0000 H   0  0  0  0  0  0  0  0  0  0  0  0
   10.8036    2.4181    0.0000 H   0  0  0  0  0  0  0  0  0  0  0  0
    2.7074   -0.1749    0.0000 H   0  0  0  0  0  0  0  0  0  0  0  0
    2.0856   -0.7940    0.0000 H   0  0  0  0  0  0  0  0  0  0  0  0
   13.2982    0.1749    0.0000 H   0  0  0  0  0  0  0  0  0  0  0  0
   13.9199    0.7940    0.0000 H   0  0  0  0  0  0  0  0  0  0  0  0
    7.1028   -1.2990    0.0000 H   0  0  0  0  0  0  0  0  0  0  0  0
    8.9028    1.2990    0.0000 H   0  0  0  0  0  0  0  0  0  0  0  0
    7.1778   -1.1691    0.0000 H   0  0  0  0  0  0  0  0  0  0  0  0
    8.8278   -0.3031    0.0000 H   0  0  0  0  0  0  0  0  0  0  0  0
    8.0628   -0.9699    0.0000 H   0  0  0  0  0  0  0  0  0  0  0  0
    6.4428   -2.7020    0.0000 H   0  0  0  0  0  0  0  0  0  0  0  0
    9.5628    2.7020    0.0000 H   0  0  0  0  0  0  0  0  0  0  0  0
   10.3728   -0.4330    0.0000 H   0  0  0  0  0  0  0  0  0  0  0  0
    9.4428   -0.9699    0.0000 H   0  0  0  0  0  0  0  0  0  0  0  0
    6.4428    1.8360    0.0000 H   0  0  0  0  0  0  0  0  0  0  0  0
  1 14  1  0  0  0  0
  1 16  1  0  0  0  0
  2 15  1  0  0  0  0
  2 17  1  0  0  0  0
  3 22  1  0  0  0  0
  3 47  1  0  0  0  0
  4 23  1  0  0  0  0
  4 48  1  0  0  0  0
  5 24  2  0  0  0  0
  6 25  2  0  0  0  0
  7 28  2  0  0  0  0
  8 29  1  0  0  0  0
  8 51  1  0  0  0  0
  9 29  2  0  0  0  0
 10 14  1  0  0  0  0
 10 18  1  0  0  0  0
 10 24  1  0  0  0  0
 11 15  1  0  0  0  0
 11 19  1  0  0  0  0
 11 25  1  0  0  0  0
 12 26  1  0  0  0  0
 12 28  1  0  0  0  0
 12 46  1  0  0  0  0
 13 27  1  0  0  0  0
 13 49  1  0  0  0  0
 13 50  1  0  0  0  0
 14 20  1  0  0  0  0
 14 30  1  1  0  0  0
 15 21  1  0  0  0  0
 15 31  1  1  0  0  0
 16 18  1  0  0  0  0
 16 22  1  1  0  0  0
 16 32  1  0  0  0  0
 17 19  1  0  0  0  0
 17 23  1  1  0  0  0
 17 33  1  0  0  0  0
 18 34  1  0  0  0  0
 18 35  1  0  0  0  0
 19 36  1  0  0  0  0
 19 37  1  0  0  0  0
 20 24  1  0  0  0  0
 20 38  1  0  0  0  0
 20 39  1  0  0  0  0
 21 25  1  0  0  0  0
 21 40  1  0  0  0  0
 21 41  1  0  0  0  0
 22 26  1  0  0  0  0
 22 42  1  0  0  0  0
 23 27  1  0  0  0  0
 23 43  1  0  0  0  0
 26 29  1  0  0  0  0
 26 44  1  0  0  0  0
 27 28  1  0  0  0  0
 27 45  1  0  0  0  0
M  END
> <PUBCHEM_COMPOUND_CID>
441131

> <PUBCHEM_COMPOUND_CANONICALIZED>
1

> <PUBCHEM_CACTVS_COMPLEXITY>
748

> <PUBCHEM_CACTVS_HBOND_ACCEPTOR>
10

> <PUBCHEM_CACTVS_HBOND_DONOR>
5

> <PUBCHEM_CACTVS_ROTATABLE_BOND>
7

> <PUBCHEM_CACTVS_SUBSKEYS>
AAADceB7vAAAAAAAAAAAAAAAAABYsWLAAAAAAAAABYsAAAAAAAAAHgAQCAAACDzhgAYACAPABgAIAAGQGAAAAAAAAAAAAIGIAAADUB4AgCAfQAAHNgCTAAD6EQIAAAAAAAAAAAAAAAAAAAAAAAAAAAAAAA==

> <PUBCHEM_IUPAC_OPENEYE_NAME>
2-[[2-amino-3-hydroxy-3-[(3R,5S)-7-oxo-4-oxa-1-azabicyclo[3.2.0]heptan-3-yl]propanoyl]amino]-3-hydroxy-3-[(3R,5S)-7-oxo-4-oxa-1-azabicyclo[3.2.0]heptan-3-yl]propanoic acid

> <PUBCHEM_IUPAC_CAS_NAME>
2-[[2-amino-3-hydroxy-1-oxo-3-[(3R,5S)-7-oxo-4-oxa-1-azabicyclo[3.2.0]heptan-3-yl]propyl]amino]-3-hydroxy-3-[(3R,5S)-7-oxo-4-oxa-1-azabicyclo[3.2.0]heptan-3-yl]propanoic acid

> <PUBCHEM_IUPAC_NAME>
2-[[2-amino-3-hydroxy-3-[(3R,5S)-7-oxo-4-oxa-1-azabicyclo[3.2.0]heptan-3-yl]propanoyl]amino]-3-hydroxy-3-[(3R,5S)-7-oxo-4-oxa-1-azabicyclo[3.2.0]heptan-3-yl]propanoic acid

> <PUBCHEM_IUPAC_SYSTEMATIC_NAME>
2-[[2-azanyl-3-oxidanyl-3-[(3R,5S)-7-oxidanylidene-4-oxa-1-azabicyclo[3.2.0]heptan-3-yl]propanoyl]amino]-3-oxidanyl-3-[(3R,5S)-7-oxidanylidene-4-oxa-1-azabicyclo[3.2.0]heptan-3-yl]propanoic acid

> <PUBCHEM_IUPAC_TRADITIONAL_NAME>
2-[[2-amino-3-hydroxy-3-[(3R,5S)-7-keto-4-oxa-1-azabicyclo[3.2.0]heptan-3-yl]propanoyl]amino]-3-hydroxy-3-[(3R,5S)-7-keto-4-oxa-1-azabicyclo[3.2.0]heptan-3-yl]propionic acid

> <PUBCHEM_IUPAC_INCHI>
InChI=1S/C16H22N4O9/c17-11(13(23)5-3-19-7(21)1-9(19)28-5)15(25)18-12(16(26)27)14(24)6-4-20-8(22)2-10(20)29-6/h5-6,9-14,23-24H,1-4,17H2,(H,18,25)(H,26,27)/t5-,6-,9+,10+,11?,12?,13?,14?/m1/s1

> <PUBCHEM_IUPAC_INCHIKEY>
SAFJOTXIKNUGOJ-LNWOBJSJSA-N

> <PUBCHEM_XLOGP3_AA>
-7.1

> <PUBCHEM_EXACT_MASS>
414.138678

> <PUBCHEM_MOLECULAR_FORMULA>
C16H22N4O9

> <PUBCHEM_MOLECULAR_WEIGHT>
414.36728

> <PUBCHEM_OPENEYE_CAN_SMILES>
C1C2N(C1=O)CC(O2)C(C(C(=O)NC(C(C3CN4C(O3)CC4=O)O)C(=O)O)N)O

> <PUBCHEM_OPENEYE_ISO_SMILES>
C1[C@H]2N(C1=O)C[C@@H](O2)C(C(C(=O)NC(C([C@H]3CN4[C@@H](O3)CC4=O)O)C(=O)O)N)O

> <PUBCHEM_CACTVS_TPSA>
192

> <PUBCHEM_MONOISOTOPIC_WEIGHT>
414.138678

> <PUBCHEM_TOTAL_CHARGE>
0

> <PUBCHEM_HEAVY_ATOM_COUNT>
29

> <PUBCHEM_ATOM_DEF_STEREO_COUNT>
4

> <PUBCHEM_ATOM_UDEF_STEREO_COUNT>
4

> <PUBCHEM_BOND_DEF_STEREO_COUNT>
0

> <PUBCHEM_BOND_UDEF_STEREO_COUNT>
0

> <PUBCHEM_ISOTOPIC_ATOM_COUNT>
0

> <PUBCHEM_COMPONENT_COUNT>
1

> <PUBCHEM_CACTVS_TAUTO_COUNT>
8

> <PUBCHEM_COORDINATE_TYPE>
1
5
255

> <PUBCHEM_BONDANNOTATIONS>
14  30  5
15  31  5
16  22  5
17  23  5
22  42  3
23  43  3
26  44  3
27  45  3

$$$$

