3526
  -OEChem-07051213002D

 66 65  0     0  0  0  0  0  0999 V2000
    7.7331    0.0950    0.0000 N   0  0  0  0  0  0  0  0  0  0  0  0
    4.2690   -6.9050    0.0000 N   0  0  0  0  0  0  0  0  0  0  0  0
   12.0632    6.5950    0.0000 N   0  0  0  0  0  0  0  0  0  0  0  0
    3.4030   -8.4050    0.0000 N   0  0  0  0  0  0  0  0  0  0  0  0
    2.5369   -6.9050    0.0000 N   0  0  0  0  0  0  0  0  0  0  0  0
   12.9292    8.0950    0.0000 N   0  0  0  0  0  0  0  0  0  0  0  0
   11.1972    8.0950    0.0000 N   0  0  0  0  0  0  0  0  0  0  0  0
    6.8671   -2.4050    0.0000 C   0  0  0  0  0  0  0  0  0  0  0  0
    9.4651    2.0950    0.0000 C   0  0  0  0  0  0  0  0  0  0  0  0
    6.0010   -2.9050    0.0000 C   0  0  0  0  0  0  0  0  0  0  0  0
    9.4651    3.0950    0.0000 C   0  0  0  0  0  0  0  0  0  0  0  0
    8.5991    1.5950    0.0000 C   0  0  0  0  0  0  0  0  0  0  0  0
    6.8671   -1.4050    0.0000 C   0  0  0  0  0  0  0  0  0  0  0  0
   10.3312    3.5950    0.0000 C   0  0  0  0  0  0  0  0  0  0  0  0
    6.0010   -3.9050    0.0000 C   0  0  0  0  0  0  0  0  0  0  0  0
    8.5991    0.5950    0.0000 C   0  0  0  0  0  0  0  0  0  0  0  0
    7.7331   -0.9050    0.0000 C   0  0  0  0  0  0  0  0  0  0  0  0
    5.1350   -4.4050    0.0000 C   0  0  0  0  0  0  0  0  0  0  0  0
   10.3312    4.5950    0.0000 C   0  0  0  0  0  0  0  0  0  0  0  0
    5.1350   -5.4050    0.0000 C   0  0  0  0  0  0  0  0  0  0  0  0
   11.1972    5.0950    0.0000 C   0  0  0  0  0  0  0  0  0  0  0  0
   11.1972    6.0950    0.0000 C   0  0  0  0  0  0  0  0  0  0  0  0
    4.2690   -5.9050    0.0000 C   0  0  0  0  0  0  0  0  0  0  0  0
   12.0632    7.5950    0.0000 C   0  0  0  0  0  0  0  0  0  0  0  0
    3.4030   -7.4050    0.0000 C   0  0  0  0  0  0  0  0  0  0  0  0
    9.6772    1.5124    0.0000 H   0  0  0  0  0  0  0  0  0  0  0  0
   10.0757    2.2027    0.0000 H   0  0  0  0  0  0  0  0  0  0  0  0
    7.0791   -2.9876    0.0000 H   0  0  0  0  0  0  0  0  0  0  0  0
    7.4776   -2.2973    0.0000 H   0  0  0  0  0  0  0  0  0  0  0  0
    9.2531    3.6776    0.0000 H   0  0  0  0  0  0  0  0  0  0  0  0
    8.8546    2.9873    0.0000 H   0  0  0  0  0  0  0  0  0  0  0  0
    5.7890   -2.3224    0.0000 H   0  0  0  0  0  0  0  0  0  0  0  0
    5.3905   -3.0127    0.0000 H   0  0  0  0  0  0  0  0  0  0  0  0
    8.3871    2.1776    0.0000 H   0  0  0  0  0  0  0  0  0  0  0  0
    7.9885    1.4873    0.0000 H   0  0  0  0  0  0  0  0  0  0  0  0
    6.6550   -0.8224    0.0000 H   0  0  0  0  0  0  0  0  0  0  0  0
    6.2565   -1.5127    0.0000 H   0  0  0  0  0  0  0  0  0  0  0  0
   10.5432    3.0124    0.0000 H   0  0  0  0  0  0  0  0  0  0  0  0
   10.9417    3.7027    0.0000 H   0  0  0  0  0  0  0  0  0  0  0  0
    6.2131   -4.4876    0.0000 H   0  0  0  0  0  0  0  0  0  0  0  0
    6.6116   -3.7973    0.0000 H   0  0  0  0  0  0  0  0  0  0  0  0
    8.8112    0.0124    0.0000 H   0  0  0  0  0  0  0  0  0  0  0  0
    9.2097    0.7027    0.0000 H   0  0  0  0  0  0  0  0  0  0  0  0
    7.9451   -1.4876    0.0000 H   0  0  0  0  0  0  0  0  0  0  0  0
    8.3437   -0.7973    0.0000 H   0  0  0  0  0  0  0  0  0  0  0  0
   10.1191    5.1776    0.0000 H   0  0  0  0  0  0  0  0  0  0  0  0
    9.7206    4.4873    0.0000 H   0  0  0  0  0  0  0  0  0  0  0  0
    4.9230   -3.8224    0.0000 H   0  0  0  0  0  0  0  0  0  0  0  0
    4.5244   -4.5127    0.0000 H   0  0  0  0  0  0  0  0  0  0  0  0
    7.1962    0.4050    0.0000 H   0  0  0  0  0  0  0  0  0  0  0  0
    5.3471   -5.9876    0.0000 H   0  0  0  0  0  0  0  0  0  0  0  0
    5.7456   -5.2973    0.0000 H   0  0  0  0  0  0  0  0  0  0  0  0
   11.4092    4.5124    0.0000 H   0  0  0  0  0  0  0  0  0  0  0  0
   11.8078    5.2027    0.0000 H   0  0  0  0  0  0  0  0  0  0  0  0
    4.0569   -5.3224    0.0000 H   0  0  0  0  0  0  0  0  0  0  0  0
    3.6584   -6.0127    0.0000 H   0  0  0  0  0  0  0  0  0  0  0  0
   10.9851    6.6776    0.0000 H   0  0  0  0  0  0  0  0  0  0  0  0
   10.5866    5.9873    0.0000 H   0  0  0  0  0  0  0  0  0  0  0  0
   10.6603    7.7850    0.0000 H   0  0  0  0  0  0  0  0  0  0  0  0
   11.1972    8.7150    0.0000 H   0  0  0  0  0  0  0  0  0  0  0  0
   13.4662    7.7850    0.0000 H   0  0  0  0  0  0  0  0  0  0  0  0
   12.9292    8.7150    0.0000 H   0  0  0  0  0  0  0  0  0  0  0  0
    2.0000   -7.2150    0.0000 H   0  0  0  0  0  0  0  0  0  0  0  0
    2.5369   -6.2850    0.0000 H   0  0  0  0  0  0  0  0  0  0  0  0
    2.8660   -8.7150    0.0000 H   0  0  0  0  0  0  0  0  0  0  0  0
    3.9399   -8.7150    0.0000 H   0  0  0  0  0  0  0  0  0  0  0  0
  1 16  1  0  0  0  0
  1 17  1  0  0  0  0
  1 50  1  0  0  0  0
  2 23  1  0  0  0  0
  2 25  2  0  0  0  0
  3 22  1  0  0  0  0
  3 24  2  0  0  0  0
  4 25  1  0  0  0  0
  4 65  1  0  0  0  0
  4 66  1  0  0  0  0
  5 25  1  0  0  0  0
  5 63  1  0  0  0  0
  5 64  1  0  0  0  0
  6 24  1  0  0  0  0
  6 61  1  0  0  0  0
  6 62  1  0  0  0  0
  7 24  1  0  0  0  0
  7 59  1  0  0  0  0
  7 60  1  0  0  0  0
  8 10  1  0  0  0  0
  8 13  1  0  0  0  0
  8 28  1  0  0  0  0
  8 29  1  0  0  0  0
  9 11  1  0  0  0  0
  9 12  1  0  0  0  0
  9 26  1  0  0  0  0
  9 27  1  0  0  0  0
 10 15  1  0  0  0  0
 10 32  1  0  0  0  0
 10 33  1  0  0  0  0
 11 14  1  0  0  0  0
 11 30  1  0  0  0  0
 11 31  1  0  0  0  0
 12 16  1  0  0  0  0
 12 34  1  0  0  0  0
 12 35  1  0  0  0  0
 13 17  1  0  0  0  0
 13 36  1  0  0  0  0
 13 37  1  0  0  0  0
 14 19  1  0  0  0  0
 14 38  1  0  0  0  0
 14 39  1  0  0  0  0
 15 18  1  0  0  0  0
 15 40  1  0  0  0  0
 15 41  1  0  0  0  0
 16 42  1  0  0  0  0
 16 43  1  0  0  0  0
 17 44  1  0  0  0  0
 17 45  1  0  0  0  0
 18 20  1  0  0  0  0
 18 48  1  0  0  0  0
 18 49  1  0  0  0  0
 19 21  1  0  0  0  0
 19 46  1  0  0  0  0
 19 47  1  0  0  0  0
 20 23  1  0  0  0  0
 20 51  1  0  0  0  0
 20 52  1  0  0  0  0
 21 22  1  0  0  0  0
 21 53  1  0  0  0  0
 21 54  1  0  0  0  0
 22 57  1  0  0  0  0
 22 58  1  0  0  0  0
 23 55  1  0  0  0  0
 23 56  1  0  0  0  0
M  END
> <PUBCHEM_COMPOUND_CID>
3526

> <PUBCHEM_COMPOUND_CANONICALIZED>
1

> <PUBCHEM_CACTVS_COMPLEXITY>
302

> <PUBCHEM_CACTVS_HBOND_ACCEPTOR>
3

> <PUBCHEM_CACTVS_HBOND_DONOR>
5

> <PUBCHEM_CACTVS_ROTATABLE_BOND>
18

> <PUBCHEM_CACTVS_SUBSKEYS>
AAADcfB7gAAAAAAAAAAAAAAAAAAAAAAAAAAAAAAAAAAAAAAAAAAAHAAQAAAACADBAAQBAALAAAAgAAAAJAAAAAEAAAAAAIAIAAAAAAIAgAAEAAAAEACAAAEQgIAAAAAAAAAAAAAAAAAAAAAAAAAAAAAAAA==

> <PUBCHEM_IUPAC_OPENEYE_NAME>
2-[8-(8-guanidinooctylamino)octyl]guanidine

> <PUBCHEM_IUPAC_CAS_NAME>
2-[8-[8-(diaminomethylideneamino)octylamino]octyl]guanidine

> <PUBCHEM_IUPAC_NAME>
2-[8-[8-(diaminomethylideneamino)octylamino]octyl]guanidine

> <PUBCHEM_IUPAC_SYSTEMATIC_NAME>
2-[8-[8-[bis(azanyl)methylideneamino]octylamino]octyl]guanidine

> <PUBCHEM_IUPAC_TRADITIONAL_NAME>
2-[8-(8-guanidinooctylamino)octyl]guanidine

> <PUBCHEM_IUPAC_INCHI>
InChI=1S/C18H41N7/c19-17(20)24-15-11-7-3-1-5-9-13-23-14-10-6-2-4-8-12-16-25-18(21)22/h23H,1-16H2,(H4,19,20,24)(H4,21,22,25)

> <PUBCHEM_IUPAC_INCHIKEY>
RONFGUROBZGJKP-UHFFFAOYSA-N

> <PUBCHEM_XLOGP3_AA>
1.7

> <PUBCHEM_EXACT_MASS>
355.342344

> <PUBCHEM_MOLECULAR_FORMULA>
C18H41N7

> <PUBCHEM_MOLECULAR_WEIGHT>
355.56504

> <PUBCHEM_OPENEYE_CAN_SMILES>
C(CCCCN=C(N)N)CCCNCCCCCCCCN=C(N)N

> <PUBCHEM_OPENEYE_ISO_SMILES>
C(CCCCN=C(N)N)CCCNCCCCCCCCN=C(N)N

> <PUBCHEM_CACTVS_TPSA>
141

> <PUBCHEM_MONOISOTOPIC_WEIGHT>
355.342344

> <PUBCHEM_TOTAL_CHARGE>
0

> <PUBCHEM_HEAVY_ATOM_COUNT>
25

> <PUBCHEM_ATOM_DEF_STEREO_COUNT>
0

> <PUBCHEM_ATOM_UDEF_STEREO_COUNT>
0

> <PUBCHEM_BOND_DEF_STEREO_COUNT>
0

> <PUBCHEM_BOND_UDEF_STEREO_COUNT>
0

> <PUBCHEM_ISOTOPIC_ATOM_COUNT>
0

> <PUBCHEM_COMPONENT_COUNT>
1

> <PUBCHEM_CACTVS_TAUTO_COUNT>
3

> <PUBCHEM_COORDINATE_TYPE>
1
5
255

$$$$

