24892782
  -OEChem-07051213083D

 61 63  0     1  0  0  0  0  0999 V2000
    4.1442    1.8053    0.8177 P   0  0  1  0  0  0  0  0  0  0  0  0
    2.1359    3.7358   -0.1340 P   0  0  2  0  0  0  0  0  0  0  0  0
   -0.3803    2.5937   -1.1673 P   0  0  0  0  0  0  0  0  0  0  0  0
    2.1112   -2.7901    1.0858 O   0  0  0  0  0  0  0  0  0  0  0  0
    2.2643   -3.3698   -2.4664 O   0  0  0  0  0  0  0  0  0  0  0  0
    4.4084   -3.5214   -0.7488 O   0  0  0  0  0  0  0  0  0  0  0  0
    4.1580    0.1960    0.6510 O   0  0  0  0  0  0  0  0  0  0  0  0
    2.8324    2.2861    0.0064 O   0  0  0  0  0  0  0  0  0  0  0  0
    3.7318    2.0457    2.3635 O   0  0  0  0  0  0  0  0  0  0  0  0
    5.4116    2.4931    0.4005 O   0  0  0  0  0  0  0  0  0  0  0  0
    0.9667    3.4850   -1.2204 O   0  0  0  0  0  0  0  0  0  0  0  0
    3.2243    4.6111   -0.9478 O   0  0  0  0  0  0  0  0  0  0  0  0
    1.6706    4.3490    1.1538 O   0  0  0  0  0  0  0  0  0  0  0  0
   -4.3130    3.1809   -1.0090 O   0  0  0  0  0  0  0  0  0  0  0  0
    0.1711    1.0765   -1.0925 O   0  0  0  0  0  0  0  0  0  0  0  0
   -0.9565    2.7113   -2.6728 O   0  0  0  0  0  0  0  0  0  0  0  0
   -1.3438    2.9803   -0.0840 O   0  0  0  0  0  0  0  0  0  0  0  0
    0.0492   -3.2301   -0.1448 N   0  0  0  0  0  0  0  0  0  0  0  0
   -2.0758   -3.7337   -0.5927 N   0  0  0  0  0  0  0  0  0  0  0  0
   -0.2641   -1.1635    1.0927 N   0  0  0  0  0  0  0  0  0  0  0  0
   -2.6297   -0.5944    1.2830 N   0  0  0  0  0  0  0  0  0  0  0  0
   -4.3584   -1.9545    0.3409 N   0  0  0  0  0  0  0  0  0  0  0  0
    2.2300   -2.6150   -1.2717 C   0  0  2  0  0  0  0  0  0  0  0  0
    3.6085   -2.3406   -0.7044 C   0  0  1  0  0  0  0  0  0  0  0  0
    1.5544   -3.3526   -0.1203 C   0  0  1  0  0  0  0  0  0  0  0  0
    3.2999   -2.0370    0.7562 C   0  0  1  0  0  0  0  0  0  0  0  0
    3.0168   -0.5632    1.0126 C   0  0  0  0  0  0  0  0  0  0  0  0
   -0.7010   -2.2339    0.4122 C   0  0  0  0  0  0  0  0  0  0  0  0
   -0.8212   -4.1064   -0.7370 C   0  0  0  0  0  0  0  0  0  0  0  0
   -2.0153   -2.5649    0.1238 C   0  0  0  0  0  0  0  0  0  0  0  0
   -2.9988   -1.6970    0.5876 C   0  0  0  0  0  0  0  0  0  0  0  0
   -1.3048   -0.3990    1.4892 C   0  0  0  0  0  0  0  0  0  0  0  0
   -5.4115   -1.0955    0.7947 C   0  0  0  0  0  0  0  0  0  0  0  0
   -5.5081    0.0824   -0.1250 C   0  0  0  0  0  0  0  0  0  0  0  0
   -5.3500    1.3841    0.1842 C   0  0  0  0  0  0  0  0  0  0  0  0
   -5.5204    2.4420   -0.8771 C   0  0  0  0  0  0  0  0  0  0  0  0
   -5.0366    1.9041    1.5602 C   0  0  0  0  0  0  0  0  0  0  0  0
    1.7132   -1.6696   -1.4777 H   0  0  0  0  0  0  0  0  0  0  0  0
    4.1458   -1.5569   -1.2452 H   0  0  0  0  0  0  0  0  0  0  0  0
    1.7559   -4.4308   -0.1303 H   0  0  0  0  0  0  0  0  0  0  0  0
    4.1091   -2.3752    1.4137 H   0  0  0  0  0  0  0  0  0  0  0  0
    2.7820   -0.4052    2.0706 H   0  0  0  0  0  0  0  0  0  0  0  0
    2.1566   -0.2181    0.4331 H   0  0  0  0  0  0  0  0  0  0  0  0
    2.8026   -2.8756   -3.1079 H   0  0  0  0  0  0  0  0  0  0  0  0
    5.2689   -3.3049   -0.3509 H   0  0  0  0  0  0  0  0  0  0  0  0
   -0.4842   -4.9925   -1.2571 H   0  0  0  0  0  0  0  0  0  0  0  0
   -1.0454    0.4943    2.0472 H   0  0  0  0  0  0  0  0  0  0  0  0
   -4.5908   -2.7827   -0.1960 H   0  0  0  0  0  0  0  0  0  0  0  0
   -5.2811   -0.8403    1.8488 H   0  0  0  0  0  0  0  0  0  0  0  0
   -6.3598   -1.6428    0.7369 H   0  0  0  0  0  0  0  0  0  0  0  0
    3.7793    2.9539    2.7309 H   0  0  0  0  0  0  0  0  0  0  0  0
   -5.7525   -0.1697   -1.1569 H   0  0  0  0  0  0  0  0  0  0  0  0
    3.0594    5.5688   -1.0814 H   0  0  0  0  0  0  0  0  0  0  0  0
   -6.3247    3.1301   -0.5957 H   0  0  0  0  0  0  0  0  0  0  0  0
   -5.7651    2.0132   -1.8546 H   0  0  0  0  0  0  0  0  0  0  0  0
   -5.7909    2.6385    1.8626 H   0  0  0  0  0  0  0  0  0  0  0  0
   -5.0151    1.1348    2.3333 H   0  0  0  0  0  0  0  0  0  0  0  0
   -4.0584    2.3964    1.5649 H   0  0  0  0  0  0  0  0  0  0  0  0
   -4.4670    3.8611   -1.6866 H   0  0  0  0  0  0  0  0  0  0  0  0
   -0.4733    0.3393   -1.0437 H   0  0  0  0  0  0  0  0  0  0  0  0
   -1.8352    2.3253   -2.8760 H   0  0  0  0  0  0  0  0  0  0  0  0
  1  7  1  0  0  0  0
  1  8  1  0  0  0  0
  1  9  1  0  0  0  0
  1 10  2  0  0  0  0
  2  8  1  0  0  0  0
  2 11  1  0  0  0  0
  2 12  1  0  0  0  0
  2 13  2  0  0  0  0
  3 11  1  0  0  0  0
  3 15  1  0  0  0  0
  3 16  1  0  0  0  0
  3 17  2  0  0  0  0
  4 25  1  0  0  0  0
  4 26  1  0  0  0  0
  5 23  1  0  0  0  0
  5 44  1  0  0  0  0
  6 24  1  0  0  0  0
  6 45  1  0  0  0  0
  7 27  1  0  0  0  0
  9 51  1  0  0  0  0
 12 53  1  0  0  0  0
 14 36  1  0  0  0  0
 14 59  1  0  0  0  0
 15 60  1  0  0  0  0
 16 61  1  0  0  0  0
 18 25  1  0  0  0  0
 18 28  1  0  0  0  0
 18 29  1  0  0  0  0
 19 29  2  0  0  0  0
 19 30  1  0  0  0  0
 20 28  2  0  0  0  0
 20 32  1  0  0  0  0
 21 31  1  0  0  0  0
 21 32  2  0  0  0  0
 22 31  1  0  0  0  0
 22 33  1  0  0  0  0
 22 48  1  0  0  0  0
 23 24  1  0  0  0  0
 23 25  1  0  0  0  0
 23 38  1  0  0  0  0
 24 26  1  0  0  0  0
 24 39  1  0  0  0  0
 25 40  1  0  0  0  0
 26 27  1  0  0  0  0
 26 41  1  0  0  0  0
 27 42  1  0  0  0  0
 27 43  1  0  0  0  0
 28 30  1  0  0  0  0
 29 46  1  0  0  0  0
 30 31  2  0  0  0  0
 32 47  1  0  0  0  0
 33 34  1  0  0  0  0
 33 49  1  0  0  0  0
 33 50  1  0  0  0  0
 34 35  2  0  0  0  0
 34 52  1  0  0  0  0
 35 36  1  0  0  0  0
 35 37  1  0  0  0  0
 36 54  1  0  0  0  0
 36 55  1  0  0  0  0
 37 56  1  0  0  0  0
 37 57  1  0  0  0  0
 37 58  1  0  0  0  0
M  END
> <PUBCHEM_COMPOUND_CID>
24892782

> <PUBCHEM_CONFORMER_RMSD>
1.2

> <PUBCHEM_CONFORMER_DIVERSEORDER>
3
105
34
78
54
95
110
87
147
65
131
111
113
96
68
133
21
39
101
56
44
51
92
124
63
108
102
19
143
49
119
47
62
72
120
122
69
146
98
141
31
81
135
132
66
61
115
79
73
83
46
99
58
126
117
89
140
55
125
18
64
27
114
80
90
59
11
112
45
43
121
38
128
32
15
136
109
86
13
24
42
93
33
25
17
50
139
60
2
36
82
100
148
88
67
127
74
14
5
137
150
149
76
91
10
16
118
138
12
26
107
77
53
22
1
75
116
104
41
130
142
129
134
40
57
84
52
71
23
29
6
35
94
28
48
97
70
106
145
20
8
144
85
37
123
103
30
4
7
9

> <PUBCHEM_MMFF94_PARTIAL_CHARGES>
48
1 1.51
10 -0.7
11 -0.54
12 -0.77
13 -0.7
14 -0.68
15 -0.77
16 -0.77
17 -0.7
18 0.05
19 -0.57
2 1.51
20 -0.57
21 -0.62
22 -0.87
23 0.28
24 0.28
25 0.54
26 0.28
27 0.28
28 0.11
29 0.04
3 1.51
30 0.23
31 0.41
32 0.47
33 0.51
34 -0.29
35 -0.28
36 0.42
37 0.14
4 -0.56
44 0.4
45 0.4
46 0.15
47 0.15
48 0.4
5 -0.68
51 0.5
52 0.15
53 0.5
59 0.4
6 -0.68
60 0.5
61 0.5
7 -0.55
8 -0.54
9 -0.77

> <PUBCHEM_EFFECTIVE_ROTOR_COUNT>
13

> <PUBCHEM_PHARMACOPHORE_FEATURES>
24
1 10 acceptor
1 12 acceptor
1 13 acceptor
1 14 acceptor
1 14 donor
1 15 acceptor
1 16 acceptor
1 17 acceptor
1 22 cation
1 22 donor
1 37 hydrophobe
1 4 acceptor
1 5 acceptor
1 5 donor
1 6 acceptor
1 6 donor
1 9 acceptor
3 18 19 29 cation
3 18 20 28 cation
3 20 21 32 cation
4 3 15 16 17 anion
5 18 19 28 29 30 rings
5 4 23 24 25 26 rings
6 20 21 28 30 31 32 rings

> <PUBCHEM_HEAVY_ATOM_COUNT>
37

> <PUBCHEM_ATOM_DEF_STEREO_COUNT>
4

> <PUBCHEM_ATOM_UDEF_STEREO_COUNT>
0

> <PUBCHEM_BOND_DEF_STEREO_COUNT>
1

> <PUBCHEM_BOND_UDEF_STEREO_COUNT>
0

> <PUBCHEM_ISOTOPIC_ATOM_COUNT>
0

> <PUBCHEM_COMPONENT_COUNT>
1

> <PUBCHEM_CACTVS_TAUTO_COUNT>
3

> <PUBCHEM_CONFORMER_ID>
017BD56E00000003

> <PUBCHEM_MMFF94_ENERGY>
0.7179

> <PUBCHEM_FEATURE_SELFOVERLAP>
122.461

> <PUBCHEM_SHAPE_FINGERPRINT>
10864689 126 17621889007833843301
11513181 2 18334296461671349623
12422481 6 18200890537929313905
12788726 201 17697305579592465715
13402501 40 18268712899223879318
1361 2 18338524135346012721
13617811 41 16966624668067036195
14117953 113 18337675222333065292
15264996 163 16754943360702778191
15968369 26 17335371666534855340
15975801 100 16841911921730317028
16112460 7 18263913501321215073
161222 619 18266193883561636244
17818456 19 18052537673564432489
20764821 26 18123745619886001288
23559900 14 17822006536417823330
25265897 201 17825916322171369287
3388396 114 16748758616486731988
3493558 16 18042678584662771633
4409770 3 17762048145037310294
5047190 48 18268431239453273085
5265222 85 17909814449760862908
550186 83 17560805467295618432

> <PUBCHEM_SHAPE_MULTIPOLES>
665.92
11.21
7.19
1.66
9.69
2.14
0.34
4.59
-1.95
-4.71
2.3
-0.44
0.55
1.99

> <PUBCHEM_SHAPE_SELFOVERLAP>
1346.355

> <PUBCHEM_SHAPE_VOLUME>
390.9

> <PUBCHEM_COORDINATE_TYPE>
2
5
10

$$$$

