5281594
  -OEChem-07051212583D

 63 65  0     1  0  0  0  0  0999 V2000
    0.4032    3.5978    0.4006 O   0  0  0  0  0  0  0  0  0  0  0  0
    0.0822   -0.1373    2.1228 O   0  0  0  0  0  0  0  0  0  0  0  0
   -2.4076   -0.5935   -1.0747 O   0  0  0  0  0  0  0  0  0  0  0  0
    1.8430   -3.8650   -1.2185 O   0  0  0  0  0  0  0  0  0  0  0  0
   -2.0944    1.0768    0.4989 N   0  0  0  0  0  0  0  0  0  0  0  0
    0.4117   -0.9063   -0.0408 N   0  0  0  0  0  0  0  0  0  0  0  0
   -5.0173   -0.3067   -1.0426 N   0  0  0  0  0  0  0  0  0  0  0  0
    3.0986   -1.9733   -1.0492 N   0  0  0  0  0  0  0  0  0  0  0  0
   -0.6546    1.2891    0.3027 C   0  0  1  0  0  0  0  0  0  0  0  0
   -0.3277    2.5807    1.1195 C   0  0  2  0  0  0  0  0  0  0  0  0
   -1.7067    3.1701    1.4410 C   0  0  0  0  0  0  0  0  0  0  0  0
   -2.6157    1.9635    1.5290 C   0  0  0  0  0  0  0  0  0  0  0  0
    0.0090    0.0381    0.9060 C   0  0  0  0  0  0  0  0  0  0  0  0
    0.9891   -2.2061    0.3361 C   0  0  1  0  0  0  0  0  0  0  0  0
   -2.8560    0.1543   -0.2035 C   0  0  0  0  0  0  0  0  0  0  0  0
   -0.1409   -3.2045    0.5855 C   0  0  2  0  0  0  0  0  0  0  0  0
   -4.3186    0.0973    0.1580 C   0  0  0  0  0  0  0  0  0  0  0  0
    0.4349   -4.5210    1.1381 C   0  0  0  0  0  0  0  0  0  0  0  0
    1.6431    3.1547    0.0208 C   0  0  0  0  0  0  0  0  0  0  0  0
   -0.9402   -3.4163   -0.7018 C   0  0  0  0  0  0  0  0  0  0  0  0
    1.9885   -2.7435   -0.7211 C   0  0  0  0  0  0  0  0  0  0  0  0
    1.1284   -4.3668    2.4842 C   0  0  0  0  0  0  0  0  0  0  0  0
    2.6073    2.7759    0.9561 C   0  0  0  0  0  0  0  0  0  0  0  0
    1.8574    2.9792   -1.3446 C   0  0  0  0  0  0  0  0  0  0  0  0
   -6.4561   -0.4535   -0.7908 C   0  0  0  0  0  0  0  0  0  0  0  0
   -4.7976    0.6555   -2.1292 C   0  0  0  0  0  0  0  0  0  0  0  0
    3.7241    1.5566   -0.7928 C   0  0  0  0  0  0  0  0  0  0  0  0
    3.6725    1.9811    0.5439 C   0  0  0  0  0  0  0  0  0  0  0  0
    2.9056    2.1680   -1.7573 C   0  0  0  0  0  0  0  0  0  0  0  0
    3.3686   -0.7314   -0.5528 C   0  0  0  0  0  0  0  0  0  0  0  0
    4.1660    0.1863   -1.1234 C   0  0  0  0  0  0  0  0  0  0  0  0
   -0.4510    1.3725   -0.7684 H   0  0  0  0  0  0  0  0  0  0  0  0
    0.1791    2.3597    2.0673 H   0  0  0  0  0  0  0  0  0  0  0  0
   -2.0328    3.8372    0.6325 H   0  0  0  0  0  0  0  0  0  0  0  0
   -1.7003    3.7594    2.3633 H   0  0  0  0  0  0  0  0  0  0  0  0
   -2.5151    1.4526    2.4927 H   0  0  0  0  0  0  0  0  0  0  0  0
   -3.6491    2.2752    1.3955 H   0  0  0  0  0  0  0  0  0  0  0  0
    1.5482   -2.0461    1.2644 H   0  0  0  0  0  0  0  0  0  0  0  0
    0.3043   -0.6964   -1.0288 H   0  0  0  0  0  0  0  0  0  0  0  0
   -0.8255   -2.7817    1.3334 H   0  0  0  0  0  0  0  0  0  0  0  0
   -4.4287   -0.6481    0.9539 H   0  0  0  0  0  0  0  0  0  0  0  0
   -4.7357    1.0398    0.5046 H   0  0  0  0  0  0  0  0  0  0  0  0
    1.0895   -5.0655    0.4566 H   0  0  0  0  0  0  0  0  0  0  0  0
   -0.4171   -5.1974    1.2959 H   0  0  0  0  0  0  0  0  0  0  0  0
   -1.0007   -2.5385   -1.3451 H   0  0  0  0  0  0  0  0  0  0  0  0
   -1.9662   -3.7060   -0.4460 H   0  0  0  0  0  0  0  0  0  0  0  0
   -0.5416   -4.2366   -1.3076 H   0  0  0  0  0  0  0  0  0  0  0  0
    1.3165   -5.3529    2.9216 H   0  0  0  0  0  0  0  0  0  0  0  0
    0.5102   -3.8006    3.1879 H   0  0  0  0  0  0  0  0  0  0  0  0
    2.0962   -3.8669    2.3855 H   0  0  0  0  0  0  0  0  0  0  0  0
    2.4664    2.9734    2.0147 H   0  0  0  0  0  0  0  0  0  0  0  0
    1.1260    3.3233   -2.0704 H   0  0  0  0  0  0  0  0  0  0  0  0
    3.6995   -2.3177   -1.7932 H   0  0  0  0  0  0  0  0  0  0  0  0
   -6.9219    0.4915   -0.4886 H   0  0  0  0  0  0  0  0  0  0  0  0
   -6.6324   -1.1935   -0.0021 H   0  0  0  0  0  0  0  0  0  0  0  0
   -6.9680   -0.8219   -1.6867 H   0  0  0  0  0  0  0  0  0  0  0  0
   -5.3855    0.3634   -3.0082 H   0  0  0  0  0  0  0  0  0  0  0  0
   -3.7652    0.7056   -2.4857 H   0  0  0  0  0  0  0  0  0  0  0  0
   -5.1107    1.6679   -1.8457 H   0  0  0  0  0  0  0  0  0  0  0  0
    4.3133    1.5301    1.2982 H   0  0  0  0  0  0  0  0  0  0  0  0
    2.9478    1.8625   -2.8007 H   0  0  0  0  0  0  0  0  0  0  0  0
    2.7572   -0.4435    0.2909 H   0  0  0  0  0  0  0  0  0  0  0  0
    4.7551    0.0063   -2.0135 H   0  0  0  0  0  0  0  0  0  0  0  0
  1 10  1  0  0  0  0
  1 19  1  0  0  0  0
  2 13  2  0  0  0  0
  3 15  2  0  0  0  0
  4 21  2  0  0  0  0
  5  9  1  0  0  0  0
  5 12  1  0  0  0  0
  5 15  1  0  0  0  0
  6 13  1  0  0  0  0
  6 14  1  0  0  0  0
  6 39  1  0  0  0  0
  7 17  1  0  0  0  0
  7 25  1  0  0  0  0
  7 26  1  0  0  0  0
  8 21  1  0  0  0  0
  8 30  1  0  0  0  0
  8 53  1  0  0  0  0
  9 10  1  0  0  0  0
  9 13  1  0  0  0  0
  9 32  1  0  0  0  0
 10 11  1  0  0  0  0
 10 33  1  0  0  0  0
 11 12  1  0  0  0  0
 11 34  1  0  0  0  0
 11 35  1  0  0  0  0
 12 36  1  0  0  0  0
 12 37  1  0  0  0  0
 14 16  1  0  0  0  0
 14 21  1  0  0  0  0
 14 38  1  0  0  0  0
 15 17  1  0  0  0  0
 16 18  1  0  0  0  0
 16 20  1  0  0  0  0
 16 40  1  0  0  0  0
 17 41  1  0  0  0  0
 17 42  1  0  0  0  0
 18 22  1  0  0  0  0
 18 43  1  0  0  0  0
 18 44  1  0  0  0  0
 19 23  2  0  0  0  0
 19 24  1  0  0  0  0
 20 45  1  0  0  0  0
 20 46  1  0  0  0  0
 20 47  1  0  0  0  0
 22 48  1  0  0  0  0
 22 49  1  0  0  0  0
 22 50  1  0  0  0  0
 23 28  1  0  0  0  0
 23 51  1  0  0  0  0
 24 29  2  0  0  0  0
 24 52  1  0  0  0  0
 25 54  1  0  0  0  0
 25 55  1  0  0  0  0
 25 56  1  0  0  0  0
 26 57  1  0  0  0  0
 26 58  1  0  0  0  0
 26 59  1  0  0  0  0
 27 28  2  0  0  0  0
 27 29  1  0  0  0  0
 27 31  1  0  0  0  0
 28 60  1  0  0  0  0
 29 61  1  0  0  0  0
 30 31  2  0  0  0  0
 30 62  1  0  0  0  0
 31 63  1  0  0  0  0
M  END
> <PUBCHEM_COMPOUND_CID>
5281594

> <PUBCHEM_CONFORMER_RMSD>
0.8

> <PUBCHEM_CONFORMER_DIVERSEORDER>
1
5
6
2
3
4

> <PUBCHEM_MMFF94_PARTIAL_CHARGES>
34
1 -0.36
10 0.28
12 0.3
13 0.57
14 0.36
15 0.57
17 0.33
19 0.08
2 -0.57
21 0.57
23 -0.15
24 -0.15
25 0.27
26 0.27
27 0.03
28 -0.15
29 -0.15
3 -0.57
30 -0.04
31 -0.18
39 0.37
4 -0.57
5 -0.66
51 0.15
52 0.15
53 0.37
6 -0.73
60 0.15
61 0.15
62 0.15
63 0.15
7 -0.81
8 -0.54
9 0.36

> <PUBCHEM_EFFECTIVE_ROTOR_COUNT>
6.4

> <PUBCHEM_PHARMACOPHORE_FEATURES>
11
1 1 acceptor
1 2 acceptor
1 20 hydrophobe
1 22 hydrophobe
1 3 acceptor
1 4 acceptor
1 6 donor
1 7 cation
1 8 donor
5 5 9 10 11 12 rings
6 19 23 24 27 28 29 rings

> <PUBCHEM_HEAVY_ATOM_COUNT>
31

> <PUBCHEM_ATOM_DEF_STEREO_COUNT>
4

> <PUBCHEM_ATOM_UDEF_STEREO_COUNT>
0

> <PUBCHEM_BOND_DEF_STEREO_COUNT>
1

> <PUBCHEM_BOND_UDEF_STEREO_COUNT>
0

> <PUBCHEM_ISOTOPIC_ATOM_COUNT>
0

> <PUBCHEM_COMPONENT_COUNT>
1

> <PUBCHEM_CACTVS_TAUTO_COUNT>
4

> <PUBCHEM_CONFORMER_ID>
0050973A00000001

> <PUBCHEM_MMFF94_ENERGY>
142.9584

> <PUBCHEM_FEATURE_SELFOVERLAP>
55.818

> <PUBCHEM_SHAPE_FINGERPRINT>
10090160 65 18412262843839065491
10675989 125 18335144154961616065
10693767 8 17895204264199815175
10930396 42 18126875831624086578
1100329 8 18410579444255851210
11014199 57 17689437513097198847
11135609 187 18336544911210804393
11513181 2 17827617464808140446
12156800 1 15724222845765010750
12553582 1 17474100385489595123
13122387 1 18193541475645533494
13140716 1 17832126239876279288
14931854 50 18335409175886435348
15484559 13 18337115579182858279
16728300 4 17270637821113474682
17492 54 18342164566900728948
19026451 147 18339374078998247427
19319366 153 18411147913595987975
19591789 44 17975970965118577363
19930381 70 18338223989903554856
20764821 26 18119239567521133382
20775438 99 18042417832645145742
21304303 94 18335709286857864511
21304304 249 18410020923231123440
23559900 14 17900260806333714408
238 59 18341883091765846936
3298306 158 18339648815671930511
352729 6 18120920729648458912
437795 51 18340758253391322131
463206 1 18188491268120066501
484989 97 18196357135529481982
6669772 16 17826526469684104737

> <PUBCHEM_SHAPE_MULTIPOLES>
594.56
8.32
6.11
1.84
11.26
5.75
0.26
-3.26
-5.01
-3.71
2.24
0.28
0.28
-0.57

> <PUBCHEM_SHAPE_SELFOVERLAP>
1246.703

> <PUBCHEM_SHAPE_VOLUME>
334.6

> <PUBCHEM_COORDINATE_TYPE>
2
5
10

$$$$

