440063
  -OEChem-07051212482D

 51 53  0     1  0  0  0  0  0999 V2000
    5.0474    0.8029    0.0000 P   0  0  3  0  0  0  0  0  0  0  0  0
    5.4104    2.4964    0.0000 P   0  0  3  0  0  0  0  0  0  0  0  0
    5.7735    4.1900    0.0000 P   0  0  3  0  0  0  0  0  0  0  0  0
    6.1365    5.8836    0.0000 P   0  0  0  0  0  0  0  0  0  0  0  0
    4.4026   -2.6503    0.0000 O   0  0  0  0  0  0  0  0  0  0  0  0
    6.7485   -3.7421    0.0000 O   0  0  0  0  0  0  0  0  0  0  0  0
    6.7523   -1.5666    0.0000 O   0  0  0  0  0  0  0  0  0  0  0  0
    5.3548   -0.1487    0.0000 O   0  0  0  0  0  0  0  0  0  0  0  0
    4.7400    1.7545    0.0000 O   0  0  0  0  0  0  0  0  0  0  0  0
    5.9990    1.1102    0.0000 O   0  0  0  0  0  0  0  0  0  0  0  0
    4.0958    0.4955    0.0000 O   0  0  0  0  0  0  0  0  0  0  0  0
    2.8660   -7.2156    0.0000 O   0  0  0  0  0  0  0  0  0  0  0  0
    6.0809    3.2384    0.0000 O   0  0  0  0  0  0  0  0  0  0  0  0
    4.6685    3.1669    0.0000 O   0  0  0  0  0  0  0  0  0  0  0  0
    6.1524    1.8260    0.0000 O   0  0  0  0  0  0  0  0  0  0  0  0
    5.4661    5.1416    0.0000 O   0  0  0  0  0  0  0  0  0  0  0  0
    6.7251    4.4974    0.0000 O   0  0  0  0  0  0  0  0  0  0  0  0
    4.8219    3.8827    0.0000 O   0  0  0  0  0  0  0  0  0  0  0  0
    6.8070    6.6256    0.0000 O   0  0  0  0  0  0  0  0  0  0  0  0
    5.3946    6.5540    0.0000 O   0  0  0  0  0  0  0  0  0  0  0  0
    6.8785    5.2132    0.0000 O   0  0  0  0  0  0  0  0  0  0  0  0
    4.6783   -4.4108    0.0000 N   0  0  0  0  0  0  0  0  0  0  0  0
    4.6783   -6.0203    0.0000 N   0  0  0  0  0  0  0  0  0  0  0  0
    2.8660   -4.2156    0.0000 N   0  0  0  0  0  0  0  0  0  0  0  0
    2.0000   -5.7156    0.0000 N   0  0  0  0  0  0  0  0  0  0  0  0
    5.9405   -3.1530    0.0000 C   0  0  2  0  0  0  0  0  0  0  0  0
    5.9422   -2.1530    0.0000 C   0  0  1  0  0  0  0  0  0  0  0  0
    4.9889   -3.4603    0.0000 C   0  0  1  0  0  0  0  0  0  0  0  0
    4.9917   -1.8423    0.0000 C   0  0  1  0  0  0  0  0  0  0  0  0
    4.6844   -0.8907    0.0000 C   0  0  0  0  0  0  0  0  0  0  0  0
    3.7320   -4.7156    0.0000 C   0  0  0  0  0  0  0  0  0  0  0  0
    5.2619   -5.2156    0.0000 C   0  0  0  0  0  0  0  0  0  0  0  0
    3.7320   -5.7156    0.0000 C   0  0  0  0  0  0  0  0  0  0  0  0
    2.8660   -6.2156    0.0000 C   0  0  0  0  0  0  0  0  0  0  0  0
    2.0000   -4.7156    0.0000 C   0  0  0  0  0  0  0  0  0  0  0  0
    5.8425   -3.7652    0.0000 H   0  0  0  0  0  0  0  0  0  0  0  0
    6.4942   -2.4354    0.0000 H   0  0  0  0  0  0  0  0  0  0  0  0
    5.4266   -3.8995    0.0000 H   0  0  0  0  0  0  0  0  0  0  0  0
    4.3795   -1.7442    0.0000 H   0  0  0  0  0  0  0  0  0  0  0  0
    4.3035   -0.4015    0.0000 H   0  0  0  0  0  0  0  0  0  0  0  0
    4.1364   -1.1808    0.0000 H   0  0  0  0  0  0  0  0  0  0  0  0
    7.3154   -3.4909    0.0000 H   0  0  0  0  0  0  0  0  0  0  0  0
    7.3182   -1.8197    0.0000 H   0  0  0  0  0  0  0  0  0  0  0  0
    5.8819   -5.2156    0.0000 H   0  0  0  0  0  0  0  0  0  0  0  0
    2.8660   -3.5956    0.0000 H   0  0  0  0  0  0  0  0  0  0  0  0
    1.4631   -4.4056    0.0000 H   0  0  0  0  0  0  0  0  0  0  0  0
    6.4590    0.6946    0.0000 H   0  0  0  0  0  0  0  0  0  0  0  0
    4.0785    2.9763    0.0000 H   0  0  0  0  0  0  0  0  0  0  0  0
    7.1851    4.0817    0.0000 H   0  0  0  0  0  0  0  0  0  0  0  0
    6.6164    7.2156    0.0000 H   0  0  0  0  0  0  0  0  0  0  0  0
    4.8046    6.3634    0.0000 H   0  0  0  0  0  0  0  0  0  0  0  0
  1  8  1  0  0  0  0
  1  9  1  0  0  0  0
  1 10  1  0  0  0  0
  1 11  2  0  0  0  0
  2  9  1  0  0  0  0
  2 13  1  0  0  0  0
  2 14  1  0  0  0  0
  2 15  2  0  0  0  0
  3 13  1  0  0  0  0
  3 16  1  0  0  0  0
  3 17  1  0  0  0  0
  3 18  2  0  0  0  0
  4 16  1  0  0  0  0
  4 19  1  0  0  0  0
  4 20  1  0  0  0  0
  4 21  2  0  0  0  0
  5 28  1  0  0  0  0
  5 29  1  0  0  0  0
 26  6  1  1  0  0  0
  6 42  1  0  0  0  0
 27  7  1  1  0  0  0
  7 43  1  0  0  0  0
  8 30  1  0  0  0  0
 10 47  1  0  0  0  0
 12 34  2  0  0  0  0
 14 48  1  0  0  0  0
 17 49  1  0  0  0  0
 19 50  1  0  0  0  0
 20 51  1  0  0  0  0
 28 22  1  6  0  0  0
 22 31  1  0  0  0  0
 22 32  1  0  0  0  0
 23 32  2  0  0  0  0
 23 33  1  0  0  0  0
 24 31  1  0  0  0  0
 24 35  1  0  0  0  0
 24 45  1  0  0  0  0
 25 34  1  0  0  0  0
 25 35  2  0  0  0  0
 26 27  1  0  0  0  0
 26 28  1  0  0  0  0
 26 36  1  0  0  0  0
 27 29  1  0  0  0  0
 27 37  1  0  0  0  0
 28 38  1  0  0  0  0
 29 30  1  6  0  0  0
 29 39  1  0  0  0  0
 30 40  1  0  0  0  0
 30 41  1  0  0  0  0
 31 33  2  0  0  0  0
 32 44  1  0  0  0  0
 33 34  1  0  0  0  0
 35 46  1  0  0  0  0
M  END
> <PUBCHEM_COMPOUND_CID>
440063

> <PUBCHEM_COMPOUND_CANONICALIZED>
1

> <PUBCHEM_CACTVS_COMPLEXITY>
1050

> <PUBCHEM_CACTVS_HBOND_ACCEPTOR>
18

> <PUBCHEM_CACTVS_HBOND_DONOR>
8

> <PUBCHEM_CACTVS_ROTATABLE_BOND>
10

> <PUBCHEM_CACTVS_SUBSKEYS>
AAADceBzvgOAAAAAAAAAAAAAAAAAAWJAAAAgAAAAAAAAAEABgAAAHgAQCCAACBzhlgYFsBfMFxCoQQdxdICAgC0XEKABUIGoVECDWApAyCAeQIAPAALTAGDwMAIAAAAAAAAAAAAAAAAAAAAAAAAAAAAAAA==

> <PUBCHEM_IUPAC_OPENEYE_NAME>
[[(2R,3S,4R,5R)-3,4-dihydroxy-5-(6-oxo-3H-purin-9-yl)tetrahydrofuran-2-yl]methoxy-hydroxy-phosphoryl] [hydroxy(phosphonooxy)phosphoryl] hydrogen phosphate

> <PUBCHEM_IUPAC_CAS_NAME>
[[(2R,3S,4R,5R)-3,4-dihydroxy-5-(6-oxo-3H-purin-9-yl)-2-oxolanyl]methoxy-hydroxyphosphoryl] [hydroxy(phosphonooxy)phosphoryl] hydrogen phosphate

> <PUBCHEM_IUPAC_NAME>
[[(2R,3S,4R,5R)-3,4-dihydroxy-5-(6-oxo-3H-purin-9-yl)oxolan-2-yl]methoxy-hydroxyphosphoryl] [hydroxy(phosphonooxy)phosphoryl] hydrogen phosphate

> <PUBCHEM_IUPAC_SYSTEMATIC_NAME>
[[(2R,3S,4R,5R)-3,4-bis(oxidanyl)-5-(6-oxidanylidene-3H-purin-9-yl)oxolan-2-yl]methoxy-oxidanyl-phosphoryl] [oxidanyl(phosphonooxy)phosphoryl] hydrogen phosphate

> <PUBCHEM_IUPAC_TRADITIONAL_NAME>
[[(2R,3S,4R,5R)-3,4-dihydroxy-5-(6-keto-3H-purin-9-yl)tetrahydrofuran-2-yl]methoxy-hydroxy-phosphoryl] [hydroxy(phosphonooxy)phosphoryl] hydrogen phosphate

> <PUBCHEM_IUPAC_INCHI>
InChI=1S/C10H16N4O17P4/c15-6-4(28-10(7(6)16)14-3-13-5-8(14)11-2-12-9(5)17)1-27-33(21,22)30-35(25,26)31-34(23,24)29-32(18,19)20/h2-4,6-7,10,15-16H,1H2,(H,21,22)(H,23,24)(H,25,26)(H,11,12,17)(H2,18,19,20)/t4-,6-,7-,10-/m1/s1

> <PUBCHEM_IUPAC_INCHIKEY>
CNCKBPIZHHRXIO-KQYNXXCUSA-N

> <PUBCHEM_XLOGP3>
-7

> <PUBCHEM_EXACT_MASS>
587.946092

> <PUBCHEM_MOLECULAR_FORMULA>
C10H16N4O17P4

> <PUBCHEM_MOLECULAR_WEIGHT>
588.145688

> <PUBCHEM_OPENEYE_CAN_SMILES>
C1=NC(=O)C2=C(N1)N(C=N2)C3C(C(C(O3)COP(=O)(O)OP(=O)(O)OP(=O)(O)OP(=O)(O)O)O)O

> <PUBCHEM_OPENEYE_ISO_SMILES>
C1=NC(=O)C2=C(N1)N(C=N2)[C@H]3[C@@H]([C@@H]([C@H](O3)COP(=O)(O)OP(=O)(O)OP(=O)(O)OP(=O)(O)O)O)O

> <PUBCHEM_CACTVS_TPSA>
315

> <PUBCHEM_MONOISOTOPIC_WEIGHT>
587.946092

> <PUBCHEM_TOTAL_CHARGE>
0

> <PUBCHEM_HEAVY_ATOM_COUNT>
35

> <PUBCHEM_ATOM_DEF_STEREO_COUNT>
4

> <PUBCHEM_ATOM_UDEF_STEREO_COUNT>
0

> <PUBCHEM_BOND_DEF_STEREO_COUNT>
0

> <PUBCHEM_BOND_UDEF_STEREO_COUNT>
0

> <PUBCHEM_ISOTOPIC_ATOM_COUNT>
0

> <PUBCHEM_COMPONENT_COUNT>
1

> <PUBCHEM_CACTVS_TAUTO_COUNT>
3

> <PUBCHEM_COORDINATE_TYPE>
1
5
255

> <PUBCHEM_BONDANNOTATIONS>
28  22  6
22  31  8
22  32  8
23  32  8
23  33  8
24  31  8
24  35  8
25  34  8
25  35  8
29  30  6
31  33  8
33  34  8
26  6  5
27  7  5

$$$$

