10559
  -OEChem-06261204413D

 14 13  0     1  0  0  0  0  0999 V2000
    2.2831   -0.7305   -0.0503 I   0  0  0  0  0  0  0  0  0  0  0  0
    0.3303    0.1515    0.3809 C   0  0  2  0  0  0  0  0  0  0  0  0
   -0.7571   -0.7425   -0.2348 C   0  0  0  0  0  0  0  0  0  0  0  0
    0.3130    1.5802   -0.1597 C   0  0  0  0  0  0  0  0  0  0  0  0
   -2.1693   -0.2587    0.0639 C   0  0  0  0  0  0  0  0  0  0  0  0
    0.2126    0.1775    1.4706 H   0  0  0  0  0  0  0  0  0  0  0  0
   -0.6564   -1.7633    0.1552 H   0  0  0  0  0  0  0  0  0  0  0  0
   -0.6293   -0.8095   -1.3226 H   0  0  0  0  0  0  0  0  0  0  0  0
    0.3931    1.5986   -1.2522 H   0  0  0  0  0  0  0  0  0  0  0  0
    1.1440    2.1676    0.2465 H   0  0  0  0  0  0  0  0  0  0  0  0
   -0.6109    2.0961    0.1197 H   0  0  0  0  0  0  0  0  0  0  0  0
   -2.3251   -0.1411    1.1409 H   0  0  0  0  0  0  0  0  0  0  0  0
   -2.3787    0.6972   -0.4249 H   0  0  0  0  0  0  0  0  0  0  0  0
   -2.9002   -0.9848   -0.3065 H   0  0  0  0  0  0  0  0  0  0  0  0
  1  2  1  0  0  0  0
  2  3  1  0  0  0  0
  2  4  1  0  0  0  0
  2  6  1  0  0  0  0
  3  5  1  0  0  0  0
  3  7  1  0  0  0  0
  3  8  1  0  0  0  0
  4  9  1  0  0  0  0
  4 10  1  0  0  0  0
  4 11  1  0  0  0  0
  5 12  1  0  0  0  0
  5 13  1  0  0  0  0
  5 14  1  0  0  0  0
M  END
> <PUBCHEM_COMPOUND_CID>
10559

> <PUBCHEM_CONFORMER_RMSD>
0.4

> <PUBCHEM_CONFORMER_DIVERSEORDER>
2
3
4
5
1
6

> <PUBCHEM_MMFF94_PARTIAL_CHARGES>
2
1 -0.19
2 0.19

> <PUBCHEM_EFFECTIVE_ROTOR_COUNT>
1

> <PUBCHEM_PHARMACOPHORE_FEATURES>
3
1 1 hydrophobe
1 5 hydrophobe
3 1 2 4 hydrophobe

> <PUBCHEM_HEAVY_ATOM_COUNT>
5

> <PUBCHEM_ATOM_DEF_STEREO_COUNT>
0

> <PUBCHEM_ATOM_UDEF_STEREO_COUNT>
1

> <PUBCHEM_BOND_DEF_STEREO_COUNT>
0

> <PUBCHEM_BOND_UDEF_STEREO_COUNT>
0

> <PUBCHEM_ISOTOPIC_ATOM_COUNT>
0

> <PUBCHEM_COMPONENT_COUNT>
1

> <PUBCHEM_CACTVS_TAUTO_COUNT>
1

> <PUBCHEM_CONFORMER_ID>
0000293F00000002

> <PUBCHEM_MMFF94_ENERGY>
2.2404

> <PUBCHEM_FEATURE_SELFOVERLAP>
15.808

> <PUBCHEM_SHAPE_FINGERPRINT>
139733 1 9583516525309438810
16714656 1 18337109085113106934
20096714 4 18050849922988514289
23552449 11 18187373082011196170
24536 1 18051429374148219139
29004967 10 18413667998203564378
5460574 1 10087640403226460578
5943 1 11524314849382688944

> <PUBCHEM_SHAPE_MULTIPOLES>
114.83
3.1
1.37
0.72
0.44
0.61
0
-1.13
-0.02
0.06
-0.1
0.12
-0.02
0

> <PUBCHEM_SHAPE_SELFOVERLAP>
175.097

> <PUBCHEM_SHAPE_VOLUME>
86.2

> <PUBCHEM_COORDINATE_TYPE>
2
5
10

$$$$

