62274
  -OEChem-07051213133D

 28 30  0     0  0  0  0  0  0999 V2000
   -2.3495    0.0243    0.0001 N   0  0  0  0  0  0  0  0  0  0  0  0
   -1.0698   -1.7910    0.0001 N   0  0  0  0  0  0  0  0  0  0  0  0
    3.0538    0.9224    0.0003 N   0  0  0  0  0  0  0  0  0  0  0  0
   -3.4589   -2.0492    0.0002 N   0  0  0  0  0  0  0  0  0  0  0  0
   -1.0584    0.4850   -0.0001 C   0  0  0  0  0  0  0  0  0  0  0  0
   -0.2757   -0.6640   -0.0002 C   0  0  0  0  0  0  0  0  0  0  0  0
   -0.5226    1.7697   -0.0001 C   0  0  0  0  0  0  0  0  0  0  0  0
    1.1354   -0.5242   -0.0001 C   0  0  0  0  0  0  0  0  0  0  0  0
    1.7174    0.7637    0.0000 C   0  0  0  0  0  0  0  0  0  0  0  0
    0.8759    1.8741    0.0000 C   0  0  0  0  0  0  0  0  0  0  0  0
   -2.3044   -1.3416    0.0000 C   0  0  0  0  0  0  0  0  0  0  0  0
   -3.5466    0.8376    0.0000 C   0  0  0  0  0  0  0  0  0  0  0  0
   -1.3447    3.0151    0.0000 C   0  0  0  0  0  0  0  0  0  0  0  0
    1.9705   -1.6532   -0.0002 C   0  0  0  0  0  0  0  0  0  0  0  0
    3.3462   -1.4817    0.0000 C   0  0  0  0  0  0  0  0  0  0  0  0
    3.8314   -0.1872    0.0001 C   0  0  0  0  0  0  0  0  0  0  0  0
    1.3305    2.8653    0.0014 H   0  0  0  0  0  0  0  0  0  0  0  0
   -4.4444    0.2496    0.1837 H   0  0  0  0  0  0  0  0  0  0  0  0
   -3.4740    1.5694    0.8068 H   0  0  0  0  0  0  0  0  0  0  0  0
   -3.6301    1.3245   -0.9744 H   0  0  0  0  0  0  0  0  0  0  0  0
   -1.8694    3.1286    0.9530 H   0  0  0  0  0  0  0  0  0  0  0  0
   -0.7214    3.9069   -0.1317 H   0  0  0  0  0  0  0  0  0  0  0  0
   -2.0611    3.0138   -0.8260 H   0  0  0  0  0  0  0  0  0  0  0  0
    1.5584   -2.6587   -0.0003 H   0  0  0  0  0  0  0  0  0  0  0  0
    4.0173   -2.3327   -0.0001 H   0  0  0  0  0  0  0  0  0  0  0  0
   -3.4380   -3.0644    0.0068 H   0  0  0  0  0  0  0  0  0  0  0  0
   -4.3887   -1.6493   -0.0326 H   0  0  0  0  0  0  0  0  0  0  0  0
    4.8999    0.0034    0.0002 H   0  0  0  0  0  0  0  0  0  0  0  0
  1  5  1  0  0  0  0
  1 11  1  0  0  0  0
  1 12  1  0  0  0  0
  2  6  1  0  0  0  0
  2 11  2  0  0  0  0
  3  9  1  0  0  0  0
  3 16  2  0  0  0  0
  4 11  1  0  0  0  0
  4 26  1  0  0  0  0
  4 27  1  0  0  0  0
  5  6  2  0  0  0  0
  5  7  1  0  0  0  0
  6  8  1  0  0  0  0
  7 10  2  0  0  0  0
  7 13  1  0  0  0  0
  8  9  2  0  0  0  0
  8 14  1  0  0  0  0
  9 10  1  0  0  0  0
 10 17  1  0  0  0  0
 12 18  1  0  0  0  0
 12 19  1  0  0  0  0
 12 20  1  0  0  0  0
 13 21  1  0  0  0  0
 13 22  1  0  0  0  0
 13 23  1  0  0  0  0
 14 15  2  0  0  0  0
 14 24  1  0  0  0  0
 15 16  1  0  0  0  0
 15 25  1  0  0  0  0
 16 28  1  0  0  0  0
M  END
> <PUBCHEM_COMPOUND_CID>
62274

> <PUBCHEM_CONFORMER_RMSD>
0.4

> <PUBCHEM_CONFORMER_DIVERSEORDER>
1

> <PUBCHEM_MMFF94_PARTIAL_CHARGES>
21
1 0.05
10 -0.15
11 0.27
12 0.26
13 0.14
14 -0.15
15 -0.15
16 0.16
17 0.15
2 -0.57
24 0.15
25 0.15
26 0.4
27 0.4
28 0.15
3 -0.62
4 -0.88
5 -0.15
6 0.23
7 -0.14
9 0.31

> <PUBCHEM_EFFECTIVE_ROTOR_COUNT>
0

> <PUBCHEM_PHARMACOPHORE_FEATURES>
6
1 3 acceptor
1 4 donor
4 1 2 4 11 cation
5 1 2 5 6 11 rings
6 3 8 9 14 15 16 rings
6 5 6 7 8 9 10 rings

> <PUBCHEM_HEAVY_ATOM_COUNT>
16

> <PUBCHEM_ATOM_DEF_STEREO_COUNT>
0

> <PUBCHEM_ATOM_UDEF_STEREO_COUNT>
0

> <PUBCHEM_BOND_DEF_STEREO_COUNT>
0

> <PUBCHEM_BOND_UDEF_STEREO_COUNT>
0

> <PUBCHEM_ISOTOPIC_ATOM_COUNT>
0

> <PUBCHEM_COMPONENT_COUNT>
1

> <PUBCHEM_CACTVS_TAUTO_COUNT>
3

> <PUBCHEM_CONFORMER_ID>
0000F34200000001

> <PUBCHEM_MMFF94_ENERGY>
43.3678

> <PUBCHEM_FEATURE_SELFOVERLAP>
30.579

> <PUBCHEM_SHAPE_FINGERPRINT>
10608611 8 18336833077888415344
10618630 7 18411981347345365870
10967382 1 18338799051506495301
11132069 177 18408609179563742960
11578080 2 17241632549358269001
12032990 46 18411133593652315483
12382932 28 18408322176779486536
13140716 1 18410572872844618667
13221675 6 18410854390892392658
13380535 76 17975701906438586860
13583140 156 14057007169114584087
15196674 1 18410575072105380546
15375462 189 18202563994574112899
15442244 35 18123753316493964498
15536298 74 18334012761853950336
16945 1 18338516447043147524
193761 8 17690280829845912935
19591789 44 16678928151669374350
200 152 17968667016923582255
20510252 161 18116717515522805216
20645477 70 17693107266794649079
20871998 184 18187083983261969430
21029758 11 18337116661857332295
21267235 1 18410846642592477798
21501502 16 18411134718943971748
221490 88 17981604866978782363
22721475 48 18411134732029333676
2334 1 18266741281406569735
23402539 116 18335996357749557727
23463225 33 18411417289258681718
23559900 14 18263650735459077754
2748010 2 18337676286952159093
3091708 16 9424038969228804417
3312278 4 18411980256275908194
335352 9 18266459995392583284
34934 24 18411146839310006544
427121 178 15796468735358675105
5104073 3 18410012130752502794
528886 8 18409735066374713059
54173680 148 18411417340856311523
7364860 26 17976259036737851665
81228 2 18342453776649666712
8809292 202 18343016709502281586
9709674 26 18190179168882371718

> <PUBCHEM_SHAPE_MULTIPOLES>
309.35
5.73
2.64
0.6
1.29
0.84
0
-1.73
0
-1.39
0
0.02
0.02
0

> <PUBCHEM_SHAPE_SELFOVERLAP>
696.185

> <PUBCHEM_SHAPE_VOLUME>
163.9

> <PUBCHEM_COORDINATE_TYPE>
2
5
10

$$$$

