568
  -OEChem-07051212543D

 21 23  0     0  0  0  0  0  0999 V2000
    0.0001   -1.6238    0.0003 O   0  0  0  0  0  0  0  0  0  0  0  0
    0.7128    0.5224    0.0001 C   0  0  0  0  0  0  0  0  0  0  0  0
   -0.7128    0.5225    0.0002 C   0  0  0  0  0  0  0  0  0  0  0  0
    1.0961   -0.8151    0.0001 C   0  0  0  0  0  0  0  0  0  0  0  0
   -1.0961   -0.8151    0.0002 C   0  0  0  0  0  0  0  0  0  0  0  0
    1.7187    1.5064    0.0003 C   0  0  0  0  0  0  0  0  0  0  0  0
   -1.7187    1.5065    0.0001 C   0  0  0  0  0  0  0  0  0  0  0  0
    2.4208   -1.2488    0.0000 C   0  0  0  0  0  0  0  0  0  0  0  0
   -2.4208   -1.2489   -0.0001 C   0  0  0  0  0  0  0  0  0  0  0  0
    3.0601    1.1005    0.0000 C   0  0  0  0  0  0  0  0  0  0  0  0
   -3.0601    1.1005   -0.0003 C   0  0  0  0  0  0  0  0  0  0  0  0
    3.4022   -0.2535   -0.0007 C   0  0  0  0  0  0  0  0  0  0  0  0
   -3.4023   -0.2536   -0.0003 C   0  0  0  0  0  0  0  0  0  0  0  0
    1.4691    2.5632    0.0005 H   0  0  0  0  0  0  0  0  0  0  0  0
   -1.4692    2.5634    0.0001 H   0  0  0  0  0  0  0  0  0  0  0  0
    2.6788   -2.3012   -0.0001 H   0  0  0  0  0  0  0  0  0  0  0  0
   -2.6788   -2.3013   -0.0002 H   0  0  0  0  0  0  0  0  0  0  0  0
    3.8453    1.8522   -0.0001 H   0  0  0  0  0  0  0  0  0  0  0  0
   -3.8454    1.8522   -0.0005 H   0  0  0  0  0  0  0  0  0  0  0  0
    4.4511   -0.5395   -0.0011 H   0  0  0  0  0  0  0  0  0  0  0  0
   -4.4512   -0.5395   -0.0005 H   0  0  0  0  0  0  0  0  0  0  0  0
  1  4  1  0  0  0  0
  1  5  1  0  0  0  0
  2  3  1  0  0  0  0
  2  4  1  0  0  0  0
  2  6  2  0  0  0  0
  3  5  1  0  0  0  0
  3  7  2  0  0  0  0
  4  8  2  0  0  0  0
  5  9  2  0  0  0  0
  6 10  1  0  0  0  0
  6 14  1  0  0  0  0
  7 11  1  0  0  0  0
  7 15  1  0  0  0  0
  8 12  1  0  0  0  0
  8 16  1  0  0  0  0
  9 13  1  0  0  0  0
  9 17  1  0  0  0  0
 10 12  2  0  0  0  0
 10 18  1  0  0  0  0
 11 13  2  0  0  0  0
 11 19  1  0  0  0  0
 12 20  1  0  0  0  0
 13 21  1  0  0  0  0
M  END
> <PUBCHEM_COMPOUND_CID>
568

> <PUBCHEM_CONFORMER_RMSD>
0.4

> <PUBCHEM_CONFORMER_DIVERSEORDER>
1

> <PUBCHEM_MMFF94_PARTIAL_CHARGES>
19
1 -0.28
10 -0.15
11 -0.15
12 -0.15
13 -0.15
14 0.15
15 0.15
16 0.15
17 0.15
18 0.15
19 0.15
20 0.15
21 0.15
4 0.14
5 0.14
6 -0.15
7 -0.15
8 -0.15
9 -0.15

> <PUBCHEM_EFFECTIVE_ROTOR_COUNT>
0

> <PUBCHEM_PHARMACOPHORE_FEATURES>
4
1 1 acceptor
5 1 2 3 4 5 rings
6 2 4 6 8 10 12 rings
6 3 5 7 9 11 13 rings

> <PUBCHEM_HEAVY_ATOM_COUNT>
13

> <PUBCHEM_ATOM_DEF_STEREO_COUNT>
0

> <PUBCHEM_ATOM_UDEF_STEREO_COUNT>
0

> <PUBCHEM_BOND_DEF_STEREO_COUNT>
0

> <PUBCHEM_BOND_UDEF_STEREO_COUNT>
0

> <PUBCHEM_ISOTOPIC_ATOM_COUNT>
0

> <PUBCHEM_COMPONENT_COUNT>
1

> <PUBCHEM_CACTVS_TAUTO_COUNT>
1

> <PUBCHEM_CONFORMER_ID>
0000023800000001

> <PUBCHEM_MMFF94_ENERGY>
27.4531

> <PUBCHEM_FEATURE_SELFOVERLAP>
20.499

> <PUBCHEM_SHAPE_FINGERPRINT>
10608611 8 18410859862470114400
10967382 1 18410855473023652167
11132069 177 18409454682356729248
11471102 20 18410016549983556325
12032990 46 18410848863058616003
12491281 212 18337378435291737217
13380535 76 18410576184175070467
14144814 61 18411138047559476512
14325111 11 18410575080373581248
15219456 202 18409728465015214701
15442244 35 18194120948111341194
15536298 74 18334013900183768546
15775835 57 18410849962570256773
16945 1 18410856563934867303
17844478 74 18201710748187122081
18186145 218 18334852861393527012
193761 8 17257934221972843462
19973954 147 18410572889934979041
200 152 18113631075151831381
20201158 50 18408886256288389383
20510252 161 18260827094450305433
20871998 184 18115583743236327543
21267235 1 18410846668330470663
21501502 16 18410575084663078919
2334 1 18410856533880554789
23402539 116 18334024877566341533
23402655 69 18263375823134425565
23463225 33 18341614845256583930
23552423 10 18343582910629576439
23559900 14 18261955254322270238
2748010 2 18410855460133462701
5104073 3 18410855460128169305
528886 8 18410299120171613696
53812653 166 18334299747221188368
6333449 129 18410014334065242101
69090 78 18334019388999213111
7364860 26 18263082270308907358
8809292 202 18272364256922806083

> <PUBCHEM_SHAPE_MULTIPOLES>
261.66
5.56
1.71
0.61
0
0.05
0
0.43
0
0
0
0
0.01
0

> <PUBCHEM_SHAPE_SELFOVERLAP>
596.375

> <PUBCHEM_SHAPE_VOLUME>
138.7

> <PUBCHEM_COORDINATE_TYPE>
2
5
10

$$$$

