5121
  -OEChem-06261200313D

 26 28  0     1  0  0  0  0  0999 V2000
    5.4470    0.6658    0.7133 Br  0  0  0  0  0  0  0  0  0  0  0  0
   -3.7002    1.4672   -0.4816 S   0  0  0  0  0  0  0  0  0  0  0  0
   -2.4593   -0.6488    0.2987 N   0  0  0  0  0  0  0  0  0  0  0  0
   -1.2093    0.5741   -1.1837 N   0  0  0  0  0  0  0  0  0  0  0  0
   -1.1985   -1.3115    0.4330 C   0  0  0  0  0  0  0  0  0  0  0  0
   -0.4212   -0.6522   -0.7509 C   0  0  2  0  0  0  0  0  0  0  0  0
   -3.5309   -0.6072    1.2571 C   0  0  0  0  0  0  0  0  0  0  0  0
   -2.3204    0.4186   -0.5252 C   0  0  0  0  0  0  0  0  0  0  0  0
   -4.6030    0.2916    0.6179 C   0  0  0  0  0  0  0  0  0  0  0  0
    1.0097   -0.3297   -0.3931 C   0  0  0  0  0  0  0  0  0  0  0  0
    1.3303    0.9120    0.1561 C   0  0  0  0  0  0  0  0  0  0  0  0
    2.0127   -1.2746   -0.6122 C   0  0  0  0  0  0  0  0  0  0  0  0
    2.6527    1.2087    0.4861 C   0  0  0  0  0  0  0  0  0  0  0  0
    3.3351   -0.9779   -0.2822 C   0  0  0  0  0  0  0  0  0  0  0  0
    3.6551    0.2637    0.2669 C   0  0  0  0  0  0  0  0  0  0  0  0
   -1.2805   -2.3953    0.3066 H   0  0  0  0  0  0  0  0  0  0  0  0
   -0.7412   -1.0928    1.4044 H   0  0  0  0  0  0  0  0  0  0  0  0
   -0.4305   -1.3318   -1.6146 H   0  0  0  0  0  0  0  0  0  0  0  0
   -3.1792   -0.1656    2.1968 H   0  0  0  0  0  0  0  0  0  0  0  0
   -3.9270   -1.6044    1.4721 H   0  0  0  0  0  0  0  0  0  0  0  0
   -5.2745   -0.3031   -0.0100 H   0  0  0  0  0  0  0  0  0  0  0  0
   -5.1944    0.8238    1.3676 H   0  0  0  0  0  0  0  0  0  0  0  0
    0.5667    1.6606    0.3482 H   0  0  0  0  0  0  0  0  0  0  0  0
    1.7754   -2.2461   -1.0376 H   0  0  0  0  0  0  0  0  0  0  0  0
    2.8851    2.1798    0.9156 H   0  0  0  0  0  0  0  0  0  0  0  0
    4.1041   -1.7255   -0.4589 H   0  0  0  0  0  0  0  0  0  0  0  0
  1 15  1  0  0  0  0
  2  8  1  0  0  0  0
  2  9  1  0  0  0  0
  3  5  1  0  0  0  0
  3  7  1  0  0  0  0
  3  8  1  0  0  0  0
  4  6  1  0  0  0  0
  4  8  2  0  0  0  0
  5  6  1  0  0  0  0
  5 16  1  0  0  0  0
  5 17  1  0  0  0  0
  6 10  1  0  0  0  0
  6 18  1  0  0  0  0
  7  9  1  0  0  0  0
  7 19  1  0  0  0  0
  7 20  1  0  0  0  0
  9 21  1  0  0  0  0
  9 22  1  0  0  0  0
 10 11  2  0  0  0  0
 10 12  1  0  0  0  0
 11 13  1  0  0  0  0
 11 23  1  0  0  0  0
 12 14  2  0  0  0  0
 12 24  1  0  0  0  0
 13 15  2  0  0  0  0
 13 25  1  0  0  0  0
 14 15  1  0  0  0  0
 14 26  1  0  0  0  0
M  END
> <PUBCHEM_COMPOUND_CID>
5121

> <PUBCHEM_CONFORMER_RMSD>
0.6

> <PUBCHEM_CONFORMER_DIVERSEORDER>
1
2
3
4

> <PUBCHEM_MMFF94_PARTIAL_CHARGES>
19
1 -0.11
10 -0.14
11 -0.15
12 -0.15
13 -0.15
14 -0.15
15 0.11
2 -0.37
23 0.15
24 0.15
25 0.15
26 0.15
3 -0.79
4 -0.7
5 0.37
6 0.39
7 0.37
8 0.64
9 0.23

> <PUBCHEM_EFFECTIVE_ROTOR_COUNT>
2

> <PUBCHEM_PHARMACOPHORE_FEATURES>
5
1 1 hydrophobe
3 3 4 8 cation
5 2 3 7 8 9 rings
5 3 4 5 6 8 rings
6 10 11 12 13 14 15 rings

> <PUBCHEM_HEAVY_ATOM_COUNT>
15

> <PUBCHEM_ATOM_DEF_STEREO_COUNT>
0

> <PUBCHEM_ATOM_UDEF_STEREO_COUNT>
1

> <PUBCHEM_BOND_DEF_STEREO_COUNT>
0

> <PUBCHEM_BOND_UDEF_STEREO_COUNT>
0

> <PUBCHEM_ISOTOPIC_ATOM_COUNT>
0

> <PUBCHEM_COMPONENT_COUNT>
1

> <PUBCHEM_CACTVS_TAUTO_COUNT>
1

> <PUBCHEM_CONFORMER_ID>
0000140100000001

> <PUBCHEM_MMFF94_ENERGY>
44.1406

> <PUBCHEM_FEATURE_SELFOVERLAP>
25.59

> <PUBCHEM_SHAPE_FINGERPRINT>
10354089 29 17967808336500830304
10608611 8 18411140238003606789
1100329 8 14520581668062990235
11089746 13 16226055483510540600
11132069 177 17917425454215738367
11471102 20 18186803603902644270
11543360 7 5328453830686259456
12119455 92 18187367649046488863
12236239 1 16370725941336451855
12251169 10 18272368637730990239
12507557 5 18040998410377858985
12507560 40 18411698824222477311
12670546 177 6266892485044278456
13214271 11 18412267220458206709
13288520 33 13110969742467411144
13581323 91 17203610384659778294
13675066 3 18411980265119076290
13705890 14 9727630605373377214
14943859 89 16443062794311567471
14993402 34 15285361716943117984
15219456 202 18410855490240522742
15309172 13 18113336418409085191
15375358 24 18409451396980885390
15375462 189 14692572117355580780
15653759 3 18131349717422529465
15775835 57 16660362575696005168
17844478 74 18343581858394432548
17870717 6 7925637738435993577
1813 80 14620515683523532962
18186145 218 17894624876799896463
19049666 15 18126004012147445015
19422 9 15626216922770803350
19784866 170 18412545414375406028
19784866 240 13758356674042618819
200 152 17749399148179307327
20112054 13 18334016094484866940
20279233 1 18413669119000137439
20361792 2 14908180811581777135
20374829 77 8646772183456248749
20645464 45 18413107255989901167
20645476 183 15285365002656624477
20645477 56 18410015424754963156
20645477 70 18041845141837570702
21065199 12 18342173388383818107
22646028 28 14189578533096919608
22854114 59 18408038511591065787
231179 274 18186239532973405580
23402539 116 18271535221129189639
23402655 69 17749113321825979029
23559900 14 17986944344408954374
293599 30 18114182983113865856
296302 2 18041000635371215478
351380 180 18409732876500756041
3545911 37 18040996228428892626
42 15 17346601889258717810
449060 50 18408321077494776948
465052 167 14476659903024339753
474 4 16879369826294154088
5104073 3 18270116941007109355
602551 16 17417804011605296250
633830 44 16878771829228229359
69090 78 18335422357378455823
77492 1 16226050028211153383
90316 7 16558470885127688845

> <PUBCHEM_SHAPE_MULTIPOLES>
308.52
9.89
1.39
1.02
3.33
0.03
0.06
2.72
2.79
0.04
-0.05
-0.48
-0.03
0.95

> <PUBCHEM_SHAPE_SELFOVERLAP>
636.972

> <PUBCHEM_SHAPE_VOLUME>
183.9

> <PUBCHEM_COORDINATE_TYPE>
2
5
10

$$$$

