47205768
  -OEChem-06241223002D

 37 37  0     0  0  0  0  0  0999 V2000
    4.5032   -1.7715    0.0000 S   0  0  0  0  0  0  0  0  0  0  0  0
    6.4712   -2.4709    0.0000 O   0  0  0  0  0  0  0  0  0  0  0  0
    8.4927    0.5146    0.0000 O   0  0  0  0  0  0  0  0  0  0  0  0
    2.5352   -2.4709    0.0000 O   0  0  0  0  0  0  0  0  0  0  0  0
    7.0064   -0.8236    0.0000 N   0  0  0  0  0  0  0  0  0  0  0  0
    9.6517   -0.7725    0.0000 N   0  0  0  0  0  0  0  0  0  0  0  0
    6.7985    0.1545    0.0000 C   0  0  0  0  0  0  0  0  0  0  0  0
    7.5417    0.8236    0.0000 C   0  0  0  0  0  0  0  0  0  0  0  0
    7.3338    1.8018    0.0000 C   0  0  0  0  0  0  0  0  0  0  0  0
    7.9575   -1.1327    0.0000 C   0  0  0  0  0  0  0  0  0  0  0  0
    6.2633   -1.4928    0.0000 C   0  0  0  0  0  0  0  0  0  0  0  0
    8.0769    2.4709    0.0000 C   0  0  0  0  0  0  0  0  0  0  0  0
    5.3122   -1.1838    0.0000 C   0  0  0  0  0  0  0  0  0  0  0  0
    8.7006   -0.4635    0.0000 C   0  0  0  0  0  0  0  0  0  0  0  0
    5.0032   -0.2327    0.0000 C   0  0  0  0  0  0  0  0  0  0  0  0
    3.6942   -1.1838    0.0000 C   0  0  0  0  0  0  0  0  0  0  0  0
    4.0032   -0.2327    0.0000 C   0  0  0  0  0  0  0  0  0  0  0  0
    2.7431   -1.4928    0.0000 C   0  0  0  0  0  0  0  0  0  0  0  0
    2.0000   -0.8236    0.0000 C   0  0  0  0  0  0  0  0  0  0  0  0
    6.4700    0.6803    0.0000 H   0  0  0  0  0  0  0  0  0  0  0  0
    6.2237   -0.0777    0.0000 H   0  0  0  0  0  0  0  0  0  0  0  0
    7.8702    0.2978    0.0000 H   0  0  0  0  0  0  0  0  0  0  0  0
    8.1165    1.0559    0.0000 H   0  0  0  0  0  0  0  0  0  0  0  0
    7.0052    2.3276    0.0000 H   0  0  0  0  0  0  0  0  0  0  0  0
    6.7589    1.5695    0.0000 H   0  0  0  0  0  0  0  0  0  0  0  0
    7.6664   -1.6801    0.0000 H   0  0  0  0  0  0  0  0  0  0  0  0
    8.4461   -1.5144    0.0000 H   0  0  0  0  0  0  0  0  0  0  0  0
    8.4918    2.0102    0.0000 H   0  0  0  0  0  0  0  0  0  0  0  0
    8.5376    2.8858    0.0000 H   0  0  0  0  0  0  0  0  0  0  0  0
    7.6620    2.9317    0.0000 H   0  0  0  0  0  0  0  0  0  0  0  0
    5.3676    0.2689    0.0000 H   0  0  0  0  0  0  0  0  0  0  0  0
    3.6388    0.2689    0.0000 H   0  0  0  0  0  0  0  0  0  0  0  0
   10.1124   -0.3577    0.0000 H   0  0  0  0  0  0  0  0  0  0  0  0
    9.7806   -1.3790    0.0000 H   0  0  0  0  0  0  0  0  0  0  0  0
    2.4149   -0.3629    0.0000 H   0  0  0  0  0  0  0  0  0  0  0  0
    1.5392   -0.4088    0.0000 H   0  0  0  0  0  0  0  0  0  0  0  0
    1.5851   -1.2844    0.0000 H   0  0  0  0  0  0  0  0  0  0  0  0
  1 13  1  0  0  0  0
  1 16  1  0  0  0  0
  2 11  2  0  0  0  0
  3 14  2  0  0  0  0
  4 18  2  0  0  0  0
  5  7  1  0  0  0  0
  5 10  1  0  0  0  0
  5 11  1  0  0  0  0
  6 14  1  0  0  0  0
  6 33  1  0  0  0  0
  6 34  1  0  0  0  0
  7  8  1  0  0  0  0
  7 20  1  0  0  0  0
  7 21  1  0  0  0  0
  8  9  1  0  0  0  0
  8 22  1  0  0  0  0
  8 23  1  0  0  0  0
  9 12  1  0  0  0  0
  9 24  1  0  0  0  0
  9 25  1  0  0  0  0
 10 14  1  0  0  0  0
 10 26  1  0  0  0  0
 10 27  1  0  0  0  0
 11 13  1  0  0  0  0
 12 28  1  0  0  0  0
 12 29  1  0  0  0  0
 12 30  1  0  0  0  0
 13 15  2  0  0  0  0
 15 17  1  0  0  0  0
 15 31  1  0  0  0  0
 16 17  2  0  0  0  0
 16 18  1  0  0  0  0
 17 32  1  0  0  0  0
 18 19  1  0  0  0  0
 19 35  1  0  0  0  0
 19 36  1  0  0  0  0
 19 37  1  0  0  0  0
M  END
> <PUBCHEM_COMPOUND_CID>
47205768

> <PUBCHEM_COMPOUND_CANONICALIZED>
1

> <PUBCHEM_CACTVS_COMPLEXITY>
360

> <PUBCHEM_CACTVS_HBOND_ACCEPTOR>
4

> <PUBCHEM_CACTVS_HBOND_DONOR>
1

> <PUBCHEM_CACTVS_ROTATABLE_BOND>
7

> <PUBCHEM_CACTVS_SUBSKEYS>
AAADceBzMABAAAAAAAAAAAAAAAAAASAAAAAAAAAAAAAAAAABgAAAHgQQAAAACATB0AQyAYNAAAiMAKFSEACDAIAkCBBIiBmIBMgIYDKglDGUAQhglgCoiYcYiACAAAAAAAAAAAAAAAAAAAAAAAAAAAAAAA==

> <PUBCHEM_IUPAC_OPENEYE_NAME>
5-acetyl-N-(2-amino-2-oxo-ethyl)-N-butyl-thiophene-2-carboxamide

> <PUBCHEM_IUPAC_CAS_NAME>
5-acetyl-N-(2-amino-2-oxoethyl)-N-butyl-2-thiophenecarboxamide

> <PUBCHEM_IUPAC_NAME>
5-acetyl-N-(2-amino-2-oxoethyl)-N-butylthiophene-2-carboxamide

> <PUBCHEM_IUPAC_SYSTEMATIC_NAME>
N-(2-azanyl-2-oxidanylidene-ethyl)-N-butyl-5-ethanoyl-thiophene-2-carboxamide

> <PUBCHEM_IUPAC_TRADITIONAL_NAME>
5-acetyl-N-(2-amino-2-keto-ethyl)-N-butyl-thiophene-2-carboxamide

> <PUBCHEM_IUPAC_INCHI>
InChI=1S/C13H18N2O3S/c1-3-4-7-15(8-12(14)17)13(18)11-6-5-10(19-11)9(2)16/h5-6H,3-4,7-8H2,1-2H3,(H2,14,17)

> <PUBCHEM_IUPAC_INCHIKEY>
HKMDGFXXEKEWLM-UHFFFAOYSA-N

> <PUBCHEM_XLOGP3_AA>
1.6

> <PUBCHEM_EXACT_MASS>
282.103813

> <PUBCHEM_MOLECULAR_FORMULA>
C13H18N2O3S

> <PUBCHEM_MOLECULAR_WEIGHT>
282.35862

> <PUBCHEM_OPENEYE_CAN_SMILES>
CCCCN(CC(=O)N)C(=O)C1=CC=C(S1)C(=O)C

> <PUBCHEM_OPENEYE_ISO_SMILES>
CCCCN(CC(=O)N)C(=O)C1=CC=C(S1)C(=O)C

> <PUBCHEM_CACTVS_TPSA>
109

> <PUBCHEM_MONOISOTOPIC_WEIGHT>
282.103813

> <PUBCHEM_TOTAL_CHARGE>
0

> <PUBCHEM_HEAVY_ATOM_COUNT>
19

> <PUBCHEM_ATOM_DEF_STEREO_COUNT>
0

> <PUBCHEM_ATOM_UDEF_STEREO_COUNT>
0

> <PUBCHEM_BOND_DEF_STEREO_COUNT>
0

> <PUBCHEM_BOND_UDEF_STEREO_COUNT>
0

> <PUBCHEM_ISOTOPIC_ATOM_COUNT>
0

> <PUBCHEM_COMPONENT_COUNT>
1

> <PUBCHEM_CACTVS_TAUTO_COUNT>
6

> <PUBCHEM_COORDINATE_TYPE>
1
5
255

> <PUBCHEM_BONDANNOTATIONS>
1  13  8
1  16  8
13  15  8
15  17  8
16  17  8

$$$$

