23245326
  -OEChem-07051213102D

 35 37  0     1  0  0  0  0  0999 V2000
    2.0000   -0.0454    0.0000 Br  0  0  0  0  0  0  0  0  0  0  0  0
    6.0047    0.5809    0.0000 O   0  0  0  0  0  0  0  0  0  0  0  0
    7.0182    1.2121    0.0000 O   0  0  0  0  0  0  0  0  0  0  0  0
    5.5047   -0.9580    0.0000 C   0  0  1  0  0  0  0  0  0  0  0  0
    6.3137   -0.3702    0.0000 C   0  0  2  0  0  0  0  0  0  0  0  0
    7.1164   -0.9566    0.0000 C   0  0  2  0  0  0  0  0  0  0  0  0
    5.8143   -1.9026    0.0000 C   0  0  0  0  0  0  0  0  0  0  0  0
    6.8084   -1.9018    0.0000 C   0  0  0  0  0  0  0  0  0  0  0  0
    4.6957   -0.3702    0.0000 C   0  0  0  0  0  0  0  0  0  0  0  0
    4.6957   -1.5458    0.0000 C   0  0  0  0  0  0  0  0  0  0  0  0
    5.0047    0.5809    0.0000 C   0  0  0  0  0  0  0  0  0  0  0  0
    8.0680   -0.6492    0.0000 C   0  0  0  0  0  0  0  0  0  0  0  0
    7.1227    0.2176    0.0000 C   0  0  0  0  0  0  0  0  0  0  0  0
    3.6803   -0.6024    0.0000 C   0  0  0  0  0  0  0  0  0  0  0  0
    4.3197    1.3656    0.0000 C   0  0  0  0  0  0  0  0  0  0  0  0
    2.9773    0.1662    0.0000 C   0  0  0  0  0  0  0  0  0  0  0  0
    3.2992    1.1569    0.0000 C   0  0  0  0  0  0  0  0  0  0  0  0
    2.6330    1.9026    0.0000 C   0  0  0  0  0  0  0  0  0  0  0  0
    7.2147   -0.3444    0.0000 H   0  0  0  0  0  0  0  0  0  0  0  0
    5.2082   -2.0327    0.0000 H   0  0  0  0  0  0  0  0  0  0  0  0
    5.8800   -2.5191    0.0000 H   0  0  0  0  0  0  0  0  0  0  0  0
    6.7438   -2.5184    0.0000 H   0  0  0  0  0  0  0  0  0  0  0  0
    7.4148   -2.0308    0.0000 H   0  0  0  0  0  0  0  0  0  0  0  0
    4.3312   -1.0442    0.0000 H   0  0  0  0  0  0  0  0  0  0  0  0
    4.1941   -1.9102    0.0000 H   0  0  0  0  0  0  0  0  0  0  0  0
    5.0601   -2.0474    0.0000 H   0  0  0  0  0  0  0  0  0  0  0  0
    8.2586   -1.2392    0.0000 H   0  0  0  0  0  0  0  0  0  0  0  0
    8.6580   -0.4586    0.0000 H   0  0  0  0  0  0  0  0  0  0  0  0
    7.8774   -0.0592    0.0000 H   0  0  0  0  0  0  0  0  0  0  0  0
    7.6891   -0.0346    0.0000 H   0  0  0  0  0  0  0  0  0  0  0  0
    3.4955   -1.1943    0.0000 H   0  0  0  0  0  0  0  0  0  0  0  0
    4.5181    1.9530    0.0000 H   0  0  0  0  0  0  0  0  0  0  0  0
    3.0953    2.3157    0.0000 H   0  0  0  0  0  0  0  0  0  0  0  0
    2.2199    2.3650    0.0000 H   0  0  0  0  0  0  0  0  0  0  0  0
    2.1706    1.4895    0.0000 H   0  0  0  0  0  0  0  0  0  0  0  0
  1 16  1  0  0  0  0
  2  5  1  0  0  0  0
  2 11  1  0  0  0  0
  3 13  2  0  0  0  0
  4  5  1  0  0  0  0
  4  7  1  0  0  0  0
  4  9  1  0  0  0  0
  4 10  1  6  0  0  0
  5  6  1  0  0  0  0
  5 13  1  6  0  0  0
  6  8  1  0  0  0  0
  6 12  1  1  0  0  0
  6 19  1  0  0  0  0
  7  8  1  0  0  0  0
  7 20  1  0  0  0  0
  7 21  1  0  0  0  0
  8 22  1  0  0  0  0
  8 23  1  0  0  0  0
  9 11  2  0  0  0  0
  9 14  1  0  0  0  0
 10 24  1  0  0  0  0
 10 25  1  0  0  0  0
 10 26  1  0  0  0  0
 11 15  1  0  0  0  0
 12 27  1  0  0  0  0
 12 28  1  0  0  0  0
 12 29  1  0  0  0  0
 13 30  1  0  0  0  0
 14 16  2  0  0  0  0
 14 31  1  0  0  0  0
 15 17  2  0  0  0  0
 15 32  1  0  0  0  0
 16 17  1  0  0  0  0
 17 18  1  0  0  0  0
 18 33  1  0  0  0  0
 18 34  1  0  0  0  0
 18 35  1  0  0  0  0
M  END
> <PUBCHEM_COMPOUND_CID>
23245326

> <PUBCHEM_COMPOUND_CANONICALIZED>
1

> <PUBCHEM_CACTVS_COMPLEXITY>
372

> <PUBCHEM_CACTVS_HBOND_ACCEPTOR>
2

> <PUBCHEM_CACTVS_HBOND_DONOR>
0

> <PUBCHEM_CACTVS_ROTATABLE_BOND>
1

> <PUBCHEM_CACTVS_SUBSKEYS>
AAADceBwMAAAEAAAAAAAAAAAAAAAAaIAAAAwAAAAAAASAEgBAAAAGgBAAAABr0SgmAIyBoAABACIAihSgAICCAAgIAQAiAFGCKgMJjKEMR6COCCkwBEIqheIzPDPwBABEAAIgACAIAIgABEAAQAADAAAAA==

> <PUBCHEM_IUPAC_OPENEYE_NAME>
(3S,3aS,8bS)-7-bromo-3,6,8b-trimethyl-2,3-dihydro-1H-cyclopenta[b]benzofuran-3a-carbaldehyde

> <PUBCHEM_IUPAC_CAS_NAME>
(3S,3aS,8bS)-7-bromo-3,6,8b-trimethyl-2,3-dihydro-1H-cyclopenta[b]benzofuran-3a-carboxaldehyde

> <PUBCHEM_IUPAC_NAME>
(3S,3aS,8bS)-7-bromo-3,6,8b-trimethyl-2,3-dihydro-1H-cyclopenta[b][1]benzofuran-3a-carbaldehyde

> <PUBCHEM_IUPAC_SYSTEMATIC_NAME>
(3S,3aS,8bS)-7-bromanyl-3,6,8b-trimethyl-2,3-dihydro-1H-cyclopenta[b][1]benzofuran-3a-carbaldehyde

> <PUBCHEM_IUPAC_TRADITIONAL_NAME>
(3S,3aS,8bS)-7-bromo-3,6,8b-trimethyl-2,3-dihydro-1H-cyclopenta[b]benzofuran-3a-carbaldehyde

> <PUBCHEM_IUPAC_INCHI>
InChI=1S/C15H17BrO2/c1-9-6-13-11(7-12(9)16)14(3)5-4-10(2)15(14,8-17)18-13/h6-8,10H,4-5H2,1-3H3/t10-,14-,15-/m0/s1

> <PUBCHEM_IUPAC_INCHIKEY>
VRWMUPPZOHFLPX-LKTVYLICSA-N

> <PUBCHEM_XLOGP3_AA>
4

> <PUBCHEM_EXACT_MASS>
308.041192

> <PUBCHEM_MOLECULAR_FORMULA>
C15H17BrO2

> <PUBCHEM_MOLECULAR_WEIGHT>
309.19828

> <PUBCHEM_OPENEYE_CAN_SMILES>
CC1CCC2(C1(OC3=CC(=C(C=C32)Br)C)C=O)C

> <PUBCHEM_OPENEYE_ISO_SMILES>
C[C@H]1CC[C@@]2([C@]1(OC3=CC(=C(C=C32)Br)C)C=O)C

> <PUBCHEM_CACTVS_TPSA>
26.3

> <PUBCHEM_MONOISOTOPIC_WEIGHT>
308.041192

> <PUBCHEM_TOTAL_CHARGE>
0

> <PUBCHEM_HEAVY_ATOM_COUNT>
18

> <PUBCHEM_ATOM_DEF_STEREO_COUNT>
3

> <PUBCHEM_ATOM_UDEF_STEREO_COUNT>
0

> <PUBCHEM_BOND_DEF_STEREO_COUNT>
0

> <PUBCHEM_BOND_UDEF_STEREO_COUNT>
0

> <PUBCHEM_ISOTOPIC_ATOM_COUNT>
0

> <PUBCHEM_COMPONENT_COUNT>
1

> <PUBCHEM_CACTVS_TAUTO_COUNT>
1

> <PUBCHEM_COORDINATE_TYPE>
1
5
255

> <PUBCHEM_BONDANNOTATIONS>
11  15  8
14  16  8
15  17  8
16  17  8
4  10  6
5  13  6
6  12  5
9  11  8
9  14  8

$$$$

