55432
  -OEChem-07051213142D

 28 31  0     0  0  0  0  0  0999 V2000
    2.8760    0.0541    0.0000 O   0  0  0  0  0  0  0  0  0  0  0  0
    4.8612    3.0327    0.0000 O   0  0  0  0  0  0  0  0  0  0  0  0
    2.0000   -1.4842    0.0000 O   0  0  0  0  0  0  0  0  0  0  0  0
    4.7013   -3.1358    0.0000 N   0  0  0  0  0  0  0  0  0  0  0  0
    4.6520    0.0609    0.0000 C   0  0  0  0  0  0  0  0  0  0  0  0
    3.7860    0.5609    0.0000 C   0  0  0  0  0  0  0  0  0  0  0  0
    3.7860    1.5609    0.0000 C   0  0  0  0  0  0  0  0  0  0  0  0
    4.6520    2.0609    0.0000 C   0  0  0  0  0  0  0  0  0  0  0  0
    5.5180    1.5609    0.0000 C   0  0  0  0  0  0  0  0  0  0  0  0
    4.6681   -0.9806    0.0000 C   0  0  0  0  0  0  0  0  0  0  0  0
    5.5180    0.5609    0.0000 C   0  0  0  0  0  0  0  0  0  0  0  0
    3.7700   -1.5083    0.0000 C   0  0  0  0  0  0  0  0  0  0  0  0
    2.9200    2.0609    0.0000 C   0  0  0  0  0  0  0  0  0  0  0  0
    6.2550    2.2280    0.0000 C   0  0  0  0  0  0  0  0  0  0  0  0
    2.8680   -0.9875    0.0000 C   0  0  0  0  0  0  0  0  0  0  0  0
    5.6200   -1.5012    0.0000 C   0  0  0  0  0  0  0  0  0  0  0  0
    5.8499    3.1358    0.0000 C   0  0  0  0  0  0  0  0  0  0  0  0
    3.7617   -2.5933    0.0000 C   0  0  0  0  0  0  0  0  0  0  0  0
    5.6367   -2.5861    0.0000 C   0  0  0  0  0  0  0  0  0  0  0  0
    6.0550    0.2509    0.0000 H   0  0  0  0  0  0  0  0  0  0  0  0
    3.2300    2.5979    0.0000 H   0  0  0  0  0  0  0  0  0  0  0  0
    2.3830    2.3709    0.0000 H   0  0  0  0  0  0  0  0  0  0  0  0
    2.6100    1.5240    0.0000 H   0  0  0  0  0  0  0  0  0  0  0  0
    6.8617    2.1002    0.0000 H   0  0  0  0  0  0  0  0  0  0  0  0
    6.1508   -1.1809    0.0000 H   0  0  0  0  0  0  0  0  0  0  0  0
    6.1599    3.6727    0.0000 H   0  0  0  0  0  0  0  0  0  0  0  0
    3.2235   -2.9012    0.0000 H   0  0  0  0  0  0  0  0  0  0  0  0
    6.1772   -2.8898    0.0000 H   0  0  0  0  0  0  0  0  0  0  0  0
  1  6  1  0  0  0  0
  1 15  1  0  0  0  0
  2  8  1  0  0  0  0
  2 17  1  0  0  0  0
  3 15  2  0  0  0  0
  4 18  2  0  0  0  0
  4 19  1  0  0  0  0
  5  6  2  0  0  0  0
  5 10  1  0  0  0  0
  5 11  1  0  0  0  0
  6  7  1  0  0  0  0
  7  8  2  0  0  0  0
  7 13  1  0  0  0  0
  8  9  1  0  0  0  0
  9 11  2  0  0  0  0
  9 14  1  0  0  0  0
 10 12  2  0  0  0  0
 10 16  1  0  0  0  0
 11 20  1  0  0  0  0
 12 15  1  0  0  0  0
 12 18  1  0  0  0  0
 13 21  1  0  0  0  0
 13 22  1  0  0  0  0
 13 23  1  0  0  0  0
 14 17  2  0  0  0  0
 14 24  1  0  0  0  0
 16 19  2  0  0  0  0
 16 25  1  0  0  0  0
 17 26  1  0  0  0  0
 18 27  1  0  0  0  0
 19 28  1  0  0  0  0
M  END
> <PUBCHEM_COMPOUND_CID>
55432

> <PUBCHEM_COMPOUND_CANONICALIZED>
1

> <PUBCHEM_CACTVS_COMPLEXITY>
386

> <PUBCHEM_CACTVS_HBOND_ACCEPTOR>
4

> <PUBCHEM_CACTVS_HBOND_DONOR>
0

> <PUBCHEM_CACTVS_ROTATABLE_BOND>
0

> <PUBCHEM_CACTVS_SUBSKEYS>
AAADccByMAAAAAAAAAAAAAAAAAAAASAAAAA8SIAAAAAAAEix/AAAHgAAAAAADAThmgY+jtIIFECoArj3zACCiCA1IiAI2CE+bNgMJ37EtZuGO+jn4BXI6ceY/f7OoAACCAAIAABAAAQQABAAAAAAAAAAAA==

> <PUBCHEM_IUPAC_INCHI>
InChI=1S/C15H9NO3/c1-8-13-9(3-5-18-13)6-11-10-2-4-16-7-12(10)15(17)19-14(8)11/h2-7H,1H3

> <PUBCHEM_IUPAC_INCHIKEY>
HUAHUHGFYQDAJK-UHFFFAOYSA-N

> <PUBCHEM_XLOGP3_AA>
2.7

> <PUBCHEM_EXACT_MASS>
251.058243

> <PUBCHEM_MOLECULAR_FORMULA>
C15H9NO3

> <PUBCHEM_MOLECULAR_WEIGHT>
251.23686

> <PUBCHEM_OPENEYE_CAN_SMILES>
CC1=C2C(=CC3=C1OC(=O)C4=C3C=CN=C4)C=CO2

> <PUBCHEM_OPENEYE_ISO_SMILES>
CC1=C2C(=CC3=C1OC(=O)C4=C3C=CN=C4)C=CO2

> <PUBCHEM_CACTVS_TPSA>
52.3

> <PUBCHEM_MONOISOTOPIC_WEIGHT>
251.058243

> <PUBCHEM_TOTAL_CHARGE>
0

> <PUBCHEM_HEAVY_ATOM_COUNT>
19

> <PUBCHEM_ATOM_DEF_STEREO_COUNT>
0

> <PUBCHEM_ATOM_UDEF_STEREO_COUNT>
0

> <PUBCHEM_BOND_DEF_STEREO_COUNT>
0

> <PUBCHEM_BOND_UDEF_STEREO_COUNT>
0

> <PUBCHEM_ISOTOPIC_ATOM_COUNT>
0

> <PUBCHEM_COMPONENT_COUNT>
1

> <PUBCHEM_CACTVS_TAUTO_COUNT>
1

> <PUBCHEM_COORDINATE_TYPE>
1
5
255

> <PUBCHEM_BONDANNOTATIONS>
1  15  8
1  6  8
10  12  8
10  16  8
12  15  8
12  18  8
14  17  8
16  19  8
2  17  8
2  8  8
4  18  8
4  19  8
5  10  8
5  11  8
5  6  8
6  7  8
7  8  8
8  9  8
9  11  8
9  14  8

$$$$

