108374
  -OEChem-07051212492D

 31 31  0     1  0  0  0  0  0999 V2000
    5.4641    3.2500    0.0000 N   0  0  0  0  0  0  0  0  0  0  0  0
    2.8660   -2.2500    0.0000 C   0  0  0  0  0  0  0  0  0  0  0  0
    3.7320   -1.7500    0.0000 C   0  0  0  0  0  0  0  0  0  0  0  0
    3.7320   -0.7500    0.0000 C   0  0  0  0  0  0  0  0  0  0  0  0
    2.8660   -3.2500    0.0000 C   0  0  0  0  0  0  0  0  0  0  0  0
    2.0000   -1.7500    0.0000 C   0  0  0  0  0  0  0  0  0  0  0  0
    3.7320    1.2500    0.0000 C   0  0  0  0  0  0  0  0  0  0  0  0
    4.5981   -0.2500    0.0000 C   0  0  0  0  0  0  0  0  0  0  0  0
    2.8660   -0.2500    0.0000 C   0  0  0  0  0  0  0  0  0  0  0  0
    3.7320    2.2500    0.0000 C   0  0  3  0  0  0  0  0  0  0  0  0
    4.5981    0.7500    0.0000 C   0  0  0  0  0  0  0  0  0  0  0  0
    2.8660    0.7500    0.0000 C   0  0  0  0  0  0  0  0  0  0  0  0
    2.8660    2.7500    0.0000 C   0  0  0  0  0  0  0  0  0  0  0  0
    4.5981    2.7500    0.0000 C   0  0  0  0  0  0  0  0  0  0  0  0
    2.8660   -1.6300    0.0000 H   0  0  0  0  0  0  0  0  0  0  0  0
    3.9441   -2.3326    0.0000 H   0  0  0  0  0  0  0  0  0  0  0  0
    4.3426   -1.6423    0.0000 H   0  0  0  0  0  0  0  0  0  0  0  0
    2.2460   -3.2500    0.0000 H   0  0  0  0  0  0  0  0  0  0  0  0
    2.8660   -3.8700    0.0000 H   0  0  0  0  0  0  0  0  0  0  0  0
    3.4860   -3.2500    0.0000 H   0  0  0  0  0  0  0  0  0  0  0  0
    2.3100   -1.2131    0.0000 H   0  0  0  0  0  0  0  0  0  0  0  0
    1.4631   -1.4400    0.0000 H   0  0  0  0  0  0  0  0  0  0  0  0
    1.6900   -2.2869    0.0000 H   0  0  0  0  0  0  0  0  0  0  0  0
    5.1350   -0.5600    0.0000 H   0  0  0  0  0  0  0  0  0  0  0  0
    2.3291   -0.5600    0.0000 H   0  0  0  0  0  0  0  0  0  0  0  0
    3.7320    3.1000    0.0000 H   0  0  0  0  0  0  0  0  0  0  0  0
    5.1350    1.0600    0.0000 H   0  0  0  0  0  0  0  0  0  0  0  0
    2.3291    1.0600    0.0000 H   0  0  0  0  0  0  0  0  0  0  0  0
    3.1760    3.2869    0.0000 H   0  0  0  0  0  0  0  0  0  0  0  0
    2.3291    3.0600    0.0000 H   0  0  0  0  0  0  0  0  0  0  0  0
    2.5560    2.2131    0.0000 H   0  0  0  0  0  0  0  0  0  0  0  0
  1 14  3  0  0  0  0
  2  3  1  0  0  0  0
  2  5  1  0  0  0  0
  2  6  1  0  0  0  0
  2 15  1  0  0  0  0
  3  4  1  0  0  0  0
  3 16  1  0  0  0  0
  3 17  1  0  0  0  0
  4  8  2  0  0  0  0
  4  9  1  0  0  0  0
  5 18  1  0  0  0  0
  5 19  1  0  0  0  0
  5 20  1  0  0  0  0
  6 21  1  0  0  0  0
  6 22  1  0  0  0  0
  6 23  1  0  0  0  0
  7 10  1  0  0  0  0
  7 11  2  0  0  0  0
  7 12  1  0  0  0  0
  8 11  1  0  0  0  0
  8 24  1  0  0  0  0
  9 12  2  0  0  0  0
  9 25  1  0  0  0  0
 10 13  1  0  0  0  0
 10 14  1  0  0  0  0
 10 26  1  0  0  0  0
 11 27  1  0  0  0  0
 12 28  1  0  0  0  0
 13 29  1  0  0  0  0
 13 30  1  0  0  0  0
 13 31  1  0  0  0  0
M  END
> <PUBCHEM_COMPOUND_CID>
108374

> <PUBCHEM_COMPOUND_CANONICALIZED>
1

> <PUBCHEM_CACTVS_COMPLEXITY>
203

> <PUBCHEM_CACTVS_HBOND_ACCEPTOR>
1

> <PUBCHEM_CACTVS_HBOND_DONOR>
0

> <PUBCHEM_CACTVS_ROTATABLE_BOND>
3

> <PUBCHEM_CACTVS_SUBSKEYS>
AAADceByAAAAAAAAAAAAAAAAAAAAAAAAAAAwAAAAAAAAAAABAAAAHAAAAAAADQCBGAAyAIAAAACQBiBCAAACAAAgAAAIiAAAAIgIoCKAERCAIAAggAAIiA8AgMAOwAAAAAAAAACAAAAAAAAAAAAAAAAAAA==

> <PUBCHEM_IUPAC_OPENEYE_NAME>
2-(4-isobutylphenyl)propanenitrile

> <PUBCHEM_IUPAC_CAS_NAME>
2-[4-(2-methylpropyl)phenyl]propanenitrile

> <PUBCHEM_IUPAC_NAME>
2-[4-(2-methylpropyl)phenyl]propanenitrile

> <PUBCHEM_IUPAC_SYSTEMATIC_NAME>
2-[4-(2-methylpropyl)phenyl]propanenitrile

> <PUBCHEM_IUPAC_TRADITIONAL_NAME>
2-(4-isobutylphenyl)propionitrile

> <PUBCHEM_IUPAC_INCHI>
InChI=1S/C13H17N/c1-10(2)8-12-4-6-13(7-5-12)11(3)9-14/h4-7,10-11H,8H2,1-3H3

> <PUBCHEM_IUPAC_INCHIKEY>
PKQKHWNHCKNYSW-UHFFFAOYSA-N

> <PUBCHEM_XLOGP3_AA>
3.7

> <PUBCHEM_EXACT_MASS>
187.1361

> <PUBCHEM_MOLECULAR_FORMULA>
C13H17N

> <PUBCHEM_MOLECULAR_WEIGHT>
187.28078

> <PUBCHEM_OPENEYE_CAN_SMILES>
CC(C)CC1=CC=C(C=C1)C(C)C#N

> <PUBCHEM_OPENEYE_ISO_SMILES>
CC(C)CC1=CC=C(C=C1)C(C)C#N

> <PUBCHEM_CACTVS_TPSA>
23.8

> <PUBCHEM_MONOISOTOPIC_WEIGHT>
187.1361

> <PUBCHEM_TOTAL_CHARGE>
0

> <PUBCHEM_HEAVY_ATOM_COUNT>
14

> <PUBCHEM_ATOM_DEF_STEREO_COUNT>
0

> <PUBCHEM_ATOM_UDEF_STEREO_COUNT>
1

> <PUBCHEM_BOND_DEF_STEREO_COUNT>
0

> <PUBCHEM_BOND_UDEF_STEREO_COUNT>
0

> <PUBCHEM_ISOTOPIC_ATOM_COUNT>
0

> <PUBCHEM_COMPONENT_COUNT>
1

> <PUBCHEM_CACTVS_TAUTO_COUNT>
1

> <PUBCHEM_COORDINATE_TYPE>
1
5
255

> <PUBCHEM_BONDANNOTATIONS>
10  26  3
4  8  8
4  9  8
7  11  8
7  12  8
8  11  8
9  12  8

$$$$

