21117640
  -OEChem-07051213113D

 73 76  0     1  0  0  0  0  0999 V2000
    2.6202    2.3630    0.8440 O   0  0  0  0  0  0  0  0  0  0  0  0
   -8.2300   -1.2656    0.8927 O   0  0  0  0  0  0  0  0  0  0  0  0
    4.7833    1.7328   -1.1206 O   0  0  0  0  0  0  0  0  0  0  0  0
    8.6377   -0.3823    1.5978 O   0  0  0  0  0  0  0  0  0  0  0  0
    0.1689    0.4396   -0.8476 C   0  0  1  0  0  0  0  0  0  0  0  0
   -0.5463    0.8727    0.4530 C   0  0  2  0  0  0  0  0  0  0  0  0
   -2.0688    0.9666    0.3032 C   0  0  1  0  0  0  0  0  0  0  0  0
   -2.6346   -0.4091   -0.1548 C   0  0  1  0  0  0  0  0  0  0  0  0
   -4.2014   -0.3508   -0.3613 C   0  0  2  0  0  0  0  0  0  0  0  0
    1.6502    0.4924   -0.3865 C   0  0  2  0  0  0  0  0  0  0  0  0
   -0.3294   -0.9713   -1.1946 C   0  0  0  0  0  0  0  0  0  0  0  0
   -1.8582   -1.0073   -1.3594 C   0  0  0  0  0  0  0  0  0  0  0  0
    0.2146    2.1154    0.9100 C   0  0  0  0  0  0  0  0  0  0  0  0
   -2.7197    1.3894    1.6292 C   0  0  0  0  0  0  0  0  0  0  0  0
    1.6253    1.7385    0.4978 C   0  0  0  0  0  0  0  0  0  0  0  0
   -4.8767    0.3953    0.7980 C   0  0  0  0  0  0  0  0  0  0  0  0
   -0.0785    1.3941   -2.0437 C   0  0  0  0  0  0  0  0  0  0  0  0
   -4.7418   -1.8112   -0.4121 C   0  0  0  0  0  0  0  0  0  0  0  0
    2.7027    0.5605   -1.4782 C   0  0  2  0  0  0  0  0  0  0  0  0
   -4.1947    1.1503    1.6767 C   0  0  0  0  0  0  0  0  0  0  0  0
   -4.5693    0.3772   -1.6765 C   0  0  0  0  0  0  0  0  0  0  0  0
   -6.3747    0.2484    0.9334 C   0  0  0  0  0  0  0  0  0  0  0  0
   -6.2637   -1.9234   -0.3340 C   0  0  0  0  0  0  0  0  0  0  0  0
   -6.8070   -1.2140    0.9023 C   0  0  2  0  0  0  0  0  0  0  0  0
    2.6751   -0.6925   -2.3524 C   0  0  0  0  0  0  0  0  0  0  0  0
    4.0855    0.7541   -0.8551 C   0  0  0  0  0  0  0  0  0  0  0  0
    4.5545   -0.3434    0.0907 C   0  0  0  0  0  0  0  0  0  0  0  0
    6.0770   -0.4816    0.1167 C   0  0  0  0  0  0  0  0  0  0  0  0
    6.5767   -1.5714    1.0866 C   0  0  2  0  0  0  0  0  0  0  0  0
    8.1061   -1.6363    1.1943 C   0  0  0  0  0  0  0  0  0  0  0  0
    6.0168   -2.9303    0.6504 C   0  0  0  0  0  0  0  0  0  0  0  0
   -0.3542    0.0989    1.2164 H   0  0  0  0  0  0  0  0  0  0  0  0
   -2.3137    1.7311   -0.4424 H   0  0  0  0  0  0  0  0  0  0  0  0
   -2.4488   -1.1022    0.6820 H   0  0  0  0  0  0  0  0  0  0  0  0
    1.8466   -0.3501    0.2911 H   0  0  0  0  0  0  0  0  0  0  0  0
   -0.0442   -1.6788   -0.4054 H   0  0  0  0  0  0  0  0  0  0  0  0
    0.1137   -1.3450   -2.1210 H   0  0  0  0  0  0  0  0  0  0  0  0
   -2.1572   -2.0510   -1.5092 H   0  0  0  0  0  0  0  0  0  0  0  0
   -2.1156   -0.4804   -2.2827 H   0  0  0  0  0  0  0  0  0  0  0  0
   -0.0974    3.0204    0.3828 H   0  0  0  0  0  0  0  0  0  0  0  0
    0.1559    2.2553    1.9920 H   0  0  0  0  0  0  0  0  0  0  0  0
   -2.2651    0.8528    2.4713 H   0  0  0  0  0  0  0  0  0  0  0  0
   -2.5313    2.4569    1.7957 H   0  0  0  0  0  0  0  0  0  0  0  0
   -1.1417    1.5379   -2.2539 H   0  0  0  0  0  0  0  0  0  0  0  0
    0.3635    1.0068   -2.9666 H   0  0  0  0  0  0  0  0  0  0  0  0
    0.3421    2.3905   -1.8728 H   0  0  0  0  0  0  0  0  0  0  0  0
   -4.3196   -2.3878    0.4223 H   0  0  0  0  0  0  0  0  0  0  0  0
   -4.4091   -2.3095   -1.3304 H   0  0  0  0  0  0  0  0  0  0  0  0
    2.5540    1.4401   -2.1169 H   0  0  0  0  0  0  0  0  0  0  0  0
   -4.7261    1.6383    2.4903 H   0  0  0  0  0  0  0  0  0  0  0  0
   -4.1175    1.3730   -1.7303 H   0  0  0  0  0  0  0  0  0  0  0  0
   -4.2442   -0.1875   -2.5563 H   0  0  0  0  0  0  0  0  0  0  0  0
   -5.6500    0.5152   -1.7879 H   0  0  0  0  0  0  0  0  0  0  0  0
   -6.7438    0.7055    1.8608 H   0  0  0  0  0  0  0  0  0  0  0  0
   -6.8735    0.8037    0.1290 H   0  0  0  0  0  0  0  0  0  0  0  0
   -6.5552   -2.9807   -0.3089 H   0  0  0  0  0  0  0  0  0  0  0  0
   -6.7294   -1.5157   -1.2397 H   0  0  0  0  0  0  0  0  0  0  0  0
   -6.4600   -1.7225    1.8102 H   0  0  0  0  0  0  0  0  0  0  0  0
    1.9049   -0.6255   -3.1248 H   0  0  0  0  0  0  0  0  0  0  0  0
    2.5052   -1.6052   -1.7722 H   0  0  0  0  0  0  0  0  0  0  0  0
    3.6293   -0.8172   -2.8778 H   0  0  0  0  0  0  0  0  0  0  0  0
    4.1082   -1.2870   -0.2263 H   0  0  0  0  0  0  0  0  0  0  0  0
    4.1802   -0.1081    1.0927 H   0  0  0  0  0  0  0  0  0  0  0  0
   -8.4889   -2.2028    0.8767 H   0  0  0  0  0  0  0  0  0  0  0  0
    6.5120    0.4829    0.4071 H   0  0  0  0  0  0  0  0  0  0  0  0
    6.4442   -0.6868   -0.8973 H   0  0  0  0  0  0  0  0  0  0  0  0
    6.1856   -1.3340    2.0848 H   0  0  0  0  0  0  0  0  0  0  0  0
    8.5493   -1.9005    0.2279 H   0  0  0  0  0  0  0  0  0  0  0  0
    8.4068   -2.3886    1.9312 H   0  0  0  0  0  0  0  0  0  0  0  0
    4.9340   -2.9903    0.7927 H   0  0  0  0  0  0  0  0  0  0  0  0
    6.4541   -3.7353    1.2519 H   0  0  0  0  0  0  0  0  0  0  0  0
    6.2436   -3.1389   -0.4006 H   0  0  0  0  0  0  0  0  0  0  0  0
    9.6035   -0.4840    1.6470 H   0  0  0  0  0  0  0  0  0  0  0  0
  1 15  2  0  0  0  0
  2 24  1  0  0  0  0
  2 64  1  0  0  0  0
  3 26  2  0  0  0  0
  4 30  1  0  0  0  0
  4 73  1  0  0  0  0
  5  6  1  0  0  0  0
  5 10  1  0  0  0  0
  5 11  1  0  0  0  0
  5 17  1  0  0  0  0
  6  7  1  0  0  0  0
  6 13  1  0  0  0  0
  6 32  1  0  0  0  0
  7  8  1  0  0  0  0
  7 14  1  0  0  0  0
  7 33  1  0  0  0  0
  8  9  1  0  0  0  0
  8 12  1  0  0  0  0
  8 34  1  0  0  0  0
  9 16  1  0  0  0  0
  9 18  1  0  0  0  0
  9 21  1  0  0  0  0
 10 15  1  0  0  0  0
 10 19  1  0  0  0  0
 10 35  1  0  0  0  0
 11 12  1  0  0  0  0
 11 36  1  0  0  0  0
 11 37  1  0  0  0  0
 12 38  1  0  0  0  0
 12 39  1  0  0  0  0
 13 15  1  0  0  0  0
 13 40  1  0  0  0  0
 13 41  1  0  0  0  0
 14 20  1  0  0  0  0
 14 42  1  0  0  0  0
 14 43  1  0  0  0  0
 16 20  2  0  0  0  0
 16 22  1  0  0  0  0
 17 44  1  0  0  0  0
 17 45  1  0  0  0  0
 17 46  1  0  0  0  0
 18 23  1  0  0  0  0
 18 47  1  0  0  0  0
 18 48  1  0  0  0  0
 19 25  1  0  0  0  0
 19 26  1  0  0  0  0
 19 49  1  0  0  0  0
 20 50  1  0  0  0  0
 21 51  1  0  0  0  0
 21 52  1  0  0  0  0
 21 53  1  0  0  0  0
 22 24  1  0  0  0  0
 22 54  1  0  0  0  0
 22 55  1  0  0  0  0
 23 24  1  0  0  0  0
 23 56  1  0  0  0  0
 23 57  1  0  0  0  0
 24 58  1  0  0  0  0
 25 59  1  0  0  0  0
 25 60  1  0  0  0  0
 25 61  1  0  0  0  0
 26 27  1  0  0  0  0
 27 28  1  0  0  0  0
 27 62  1  0  0  0  0
 27 63  1  0  0  0  0
 28 29  1  0  0  0  0
 28 65  1  0  0  0  0
 28 66  1  0  0  0  0
 29 30  1  0  0  0  0
 29 31  1  0  0  0  0
 29 67  1  0  0  0  0
 30 68  1  0  0  0  0
 30 69  1  0  0  0  0
 31 70  1  0  0  0  0
 31 71  1  0  0  0  0
 31 72  1  0  0  0  0
M  END
> <PUBCHEM_COMPOUND_CID>
21117640

> <PUBCHEM_CONFORMER_RMSD>
1

> <PUBCHEM_CONFORMER_DIVERSEORDER>
4
6
18
1
3
8
16
12
5
7
11
15
10
2
17
14
9
13

> <PUBCHEM_MMFF94_PARTIAL_CHARGES>
20
1 -0.57
10 0.06
13 0.06
14 0.14
15 0.45
16 -0.28
19 0.06
2 -0.68
20 -0.29
22 0.14
24 0.28
26 0.45
27 0.06
3 -0.57
30 0.28
4 -0.68
50 0.15
64 0.4
73 0.4
9 0.14

> <PUBCHEM_EFFECTIVE_ROTOR_COUNT>
7.8

> <PUBCHEM_PHARMACOPHORE_FEATURES>
12
1 1 acceptor
1 2 acceptor
1 2 donor
1 25 hydrophobe
1 3 acceptor
1 31 hydrophobe
1 4 acceptor
1 4 donor
5 5 6 10 13 15 rings
6 5 6 7 8 11 12 rings
6 7 8 9 14 16 20 rings
6 9 16 18 22 23 24 rings

> <PUBCHEM_HEAVY_ATOM_COUNT>
31

> <PUBCHEM_ATOM_DEF_STEREO_COUNT>
9

> <PUBCHEM_ATOM_UDEF_STEREO_COUNT>
0

> <PUBCHEM_BOND_DEF_STEREO_COUNT>
0

> <PUBCHEM_BOND_UDEF_STEREO_COUNT>
0

> <PUBCHEM_ISOTOPIC_ATOM_COUNT>
0

> <PUBCHEM_COMPONENT_COUNT>
1

> <PUBCHEM_CACTVS_TAUTO_COUNT>
9

> <PUBCHEM_CONFORMER_ID>
01423AC800000004

> <PUBCHEM_MMFF94_ENERGY>
86.2331

> <PUBCHEM_FEATURE_SELFOVERLAP>
60.993

> <PUBCHEM_SHAPE_FINGERPRINT>
10 15 16950566575747167162
10939801 23 17968100764488457008
11456790 92 18334564738645933803
12035758 1 16805322188717869289
12166972 35 18131628967622440844
12236239 1 18341324527158748533
12838862 33 17385723639095241425
12954195 1 14979682138550727836
13533116 47 18272930514681137212
13560911 43 17967526844207750856
13668630 136 16558746772705322891
13673619 4 17775570844766604740
13685833 64 17704072915496326850
13782708 43 18059857285367701174
14028597 1 18261671570883212954
14251764 18 18334294245499742876
15131766 46 17912075049983702252
15198563 99 15626233449926772839
15347590 135 17022899068618977267
15475509 35 18410863166106781890
15961568 22 7709464930574011994
16728300 4 18265622163401553862
16994733 274 7060381401117641415
1979834 28 16805314522770945814
19841028 212 17915749876211569746
2026 5 17489030473938112834
21033648 29 15791725330142215607
21057603 130 18059855078519343698
21267235 1 17604410935065437429
21344244 181 16773793684454776818
21792934 111 17385997438073772535
23522609 53 18122310602509554841
23559900 14 14332836029368306621
23569943 247 17774728678747028891
23576562 1 10663515090194721699
24771293 8 16226056565631588168
2838139 119 8358248264261320818
3004659 81 18187350005194652236
3383291 50 18334293158367686610
3411729 13 17314520227953286720
34797466 226 16415475995878248645
350125 39 17749095670191049817
392239 28 15502382218200654474
397830 11 14129349437927051990
4149490 64 17916864613143974970
437815 12 16487253283502607044
474113 269 18336273418085885831
5104073 3 17677326105112276587
513202 73 17917150605925452149
54039377 194 18343020030488096774
6081469 158 18343866602938196237
9689198 14 7276825810237918874
9953998 17 16008753498037817847
9962374 69 17917715661246323818

> <PUBCHEM_SHAPE_MULTIPOLES>
614.49
21.15
2.23
1.81
14.43
0.31
0.53
14.22
-11.05
1.23
-0.52
0.59
-0.17
-1.85

> <PUBCHEM_SHAPE_SELFOVERLAP>
1287.381

> <PUBCHEM_SHAPE_VOLUME>
345.9

> <PUBCHEM_COORDINATE_TYPE>
2
5
10

$$$$

