441751
  -OEChem-07051212563D

 63 68  0     1  0  0  0  0  0999 V2000
    1.6155    1.9841    0.2752 O   0  0  0  0  0  0  0  0  0  0  0  0
   -3.0415   -1.2674   -0.0358 O   0  0  0  0  0  0  0  0  0  0  0  0
   -5.1721   -1.7490    0.7163 O   0  0  0  0  0  0  0  0  0  0  0  0
    3.4505    0.7967   -0.5514 N   0  0  2  0  0  0  0  0  0  0  0  0
    1.1206   -0.3190   -0.6144 C   0  0  2  0  0  0  0  0  0  0  0  0
   -0.4540   -0.0728   -0.5559 C   0  0  1  0  0  0  0  0  0  0  0  0
   -1.1414    0.1022    0.8577 C   0  0  1  0  0  0  0  0  0  0  0  0
    1.5566   -1.2422    0.5612 C   0  0  1  0  0  0  0  0  0  0  0  0
    3.0948   -1.4728    0.4913 C   0  0  2  0  0  0  0  0  0  0  0  0
    1.9947    0.9844   -0.6640 C   0  0  1  0  0  0  0  0  0  0  0  0
   -0.5011   -0.7971    1.9195 C   0  0  0  0  0  0  0  0  0  0  0  0
    1.0227   -0.7459    1.9114 C   0  0  0  0  0  0  0  0  0  0  0  0
    1.4133   -1.1418   -1.9299 C   0  0  0  0  0  0  0  0  0  0  0  0
   -1.2089    1.5686    1.3217 C   0  0  0  0  0  0  0  0  0  0  0  0
   -0.9754    0.9442   -1.6078 C   0  0  0  0  0  0  0  0  0  0  0  0
   -2.6874   -0.1706    0.7842 C   0  0  1  0  0  0  0  0  0  0  0  0
   -2.1577    2.1800    0.2955 C   0  0  1  0  0  0  0  0  0  0  0  0
    3.8331   -0.1150    0.5326 C   0  0  0  0  0  0  0  0  0  0  0  0
    3.4135   -2.2554   -0.8138 C   0  0  0  0  0  0  0  0  0  0  0  0
   -1.4315    2.2967   -1.0475 C   0  0  0  0  0  0  0  0  0  0  0  0
    2.8481   -1.6417   -2.0908 C   0  0  0  0  0  0  0  0  0  0  0  0
   -3.2442    1.1300    0.2520 C   0  0  0  0  0  0  0  0  0  0  0  0
    3.6015   -2.3338    1.6682 C   0  0  0  0  0  0  0  0  0  0  0  0
    3.9030    2.1627   -0.2756 C   0  0  0  0  0  0  0  0  0  0  0  0
    2.7949    2.7375    0.5857 C   0  0  0  0  0  0  0  0  0  0  0  0
   -4.4971    1.3367   -0.1687 C   0  0  0  0  0  0  0  0  0  0  0  0
   -4.3841   -1.4985   -0.1856 C   0  0  0  0  0  0  0  0  0  0  0  0
   -4.7665   -1.4010   -1.6314 C   0  0  0  0  0  0  0  0  0  0  0  0
   -0.8449   -1.0401   -0.9057 H   0  0  0  0  0  0  0  0  0  0  0  0
    1.0875   -2.2274    0.4074 H   0  0  0  0  0  0  0  0  0  0  0  0
    1.8235    1.4414   -1.6483 H   0  0  0  0  0  0  0  0  0  0  0  0
   -0.8204   -1.8355    1.7583 H   0  0  0  0  0  0  0  0  0  0  0  0
   -0.8601   -0.5247    2.9201 H   0  0  0  0  0  0  0  0  0  0  0  0
    1.3747    0.2620    2.1479 H   0  0  0  0  0  0  0  0  0  0  0  0
    1.3691   -1.3959    2.7215 H   0  0  0  0  0  0  0  0  0  0  0  0
    1.1525   -0.5549   -2.8181 H   0  0  0  0  0  0  0  0  0  0  0  0
    0.7600   -2.0250   -1.9531 H   0  0  0  0  0  0  0  0  0  0  0  0
   -0.2569    2.0848    1.3802 H   0  0  0  0  0  0  0  0  0  0  0  0
   -1.6459    1.6420    2.3288 H   0  0  0  0  0  0  0  0  0  0  0  0
   -1.8405    0.4867   -2.1078 H   0  0  0  0  0  0  0  0  0  0  0  0
   -0.2565    1.1147   -2.4145 H   0  0  0  0  0  0  0  0  0  0  0  0
   -3.0754   -0.3381    1.7993 H   0  0  0  0  0  0  0  0  0  0  0  0
   -2.5274    3.1541    0.6314 H   0  0  0  0  0  0  0  0  0  0  0  0
    3.6703    0.3455    1.5158 H   0  0  0  0  0  0  0  0  0  0  0  0
    4.9141   -0.2931    0.4585 H   0  0  0  0  0  0  0  0  0  0  0  0
    3.0031   -3.2709   -0.7235 H   0  0  0  0  0  0  0  0  0  0  0  0
    4.4981   -2.3786   -0.9286 H   0  0  0  0  0  0  0  0  0  0  0  0
   -0.5614    2.9536   -0.9317 H   0  0  0  0  0  0  0  0  0  0  0  0
   -2.0841    2.7819   -1.7841 H   0  0  0  0  0  0  0  0  0  0  0  0
    2.8790   -2.3907   -2.8921 H   0  0  0  0  0  0  0  0  0  0  0  0
    3.4943   -0.8302   -2.4413 H   0  0  0  0  0  0  0  0  0  0  0  0
    4.6534   -2.6088    1.5279 H   0  0  0  0  0  0  0  0  0  0  0  0
    3.5384   -1.8020    2.6232 H   0  0  0  0  0  0  0  0  0  0  0  0
    3.0246   -3.2610    1.7571 H   0  0  0  0  0  0  0  0  0  0  0  0
    3.9590    2.7124   -1.2235 H   0  0  0  0  0  0  0  0  0  0  0  0
    4.8910    2.2301    0.1919 H   0  0  0  0  0  0  0  0  0  0  0  0
    2.9986    2.6177    1.6544 H   0  0  0  0  0  0  0  0  0  0  0  0
    2.6131    3.7957    0.3767 H   0  0  0  0  0  0  0  0  0  0  0  0
   -5.3190    0.6447   -0.1022 H   0  0  0  0  0  0  0  0  0  0  0  0
   -4.7690    2.3245   -0.5331 H   0  0  0  0  0  0  0  0  0  0  0  0
   -4.6416   -2.3810   -2.0990 H   0  0  0  0  0  0  0  0  0  0  0  0
   -4.1497   -0.6695   -2.1595 H   0  0  0  0  0  0  0  0  0  0  0  0
   -5.8117   -1.0906   -1.7154 H   0  0  0  0  0  0  0  0  0  0  0  0
  1 10  1  0  0  0  0
  1 25  1  0  0  0  0
  2 16  1  0  0  0  0
  2 27  1  0  0  0  0
  3 27  2  0  0  0  0
  4 10  1  0  0  0  0
  4 18  1  0  0  0  0
  4 24  1  0  0  0  0
  5  6  1  0  0  0  0
  5  8  1  0  0  0  0
  5 10  1  0  0  0  0
  5 13  1  0  0  0  0
  6  7  1  0  0  0  0
  6 15  1  0  0  0  0
  6 29  1  0  0  0  0
  7 11  1  0  0  0  0
  7 14  1  0  0  0  0
  7 16  1  0  0  0  0
  8  9  1  0  0  0  0
  8 12  1  0  0  0  0
  8 30  1  0  0  0  0
  9 18  1  0  0  0  0
  9 19  1  0  0  0  0
  9 23  1  0  0  0  0
 10 31  1  0  0  0  0
 11 12  1  0  0  0  0
 11 32  1  0  0  0  0
 11 33  1  0  0  0  0
 12 34  1  0  0  0  0
 12 35  1  0  0  0  0
 13 21  1  0  0  0  0
 13 36  1  0  0  0  0
 13 37  1  0  0  0  0
 14 17  1  0  0  0  0
 14 38  1  0  0  0  0
 14 39  1  0  0  0  0
 15 20  1  0  0  0  0
 15 40  1  0  0  0  0
 15 41  1  0  0  0  0
 16 22  1  0  0  0  0
 16 42  1  0  0  0  0
 17 20  1  0  0  0  0
 17 22  1  0  0  0  0
 17 43  1  0  0  0  0
 18 44  1  0  0  0  0
 18 45  1  0  0  0  0
 19 21  1  0  0  0  0
 19 46  1  0  0  0  0
 19 47  1  0  0  0  0
 20 48  1  0  0  0  0
 20 49  1  0  0  0  0
 21 50  1  0  0  0  0
 21 51  1  0  0  0  0
 22 26  2  0  0  0  0
 23 52  1  0  0  0  0
 23 53  1  0  0  0  0
 23 54  1  0  0  0  0
 24 25  1  0  0  0  0
 24 55  1  0  0  0  0
 24 56  1  0  0  0  0
 25 57  1  0  0  0  0
 25 58  1  0  0  0  0
 26 59  1  0  0  0  0
 26 60  1  0  0  0  0
 27 28  1  0  0  0  0
 28 61  1  0  0  0  0
 28 62  1  0  0  0  0
 28 63  1  0  0  0  0
M  END
> <PUBCHEM_COMPOUND_CID>
441751

> <PUBCHEM_CONFORMER_RMSD>
0.8

> <PUBCHEM_CONFORMER_DIVERSEORDER>
2
1
3

> <PUBCHEM_MMFF94_PARTIAL_CHARGES>
16
1 -0.56
10 0.55
16 0.42
17 0.14
18 0.27
2 -0.43
22 -0.28
24 0.27
25 0.28
26 -0.3
27 0.66
28 0.06
3 -0.57
4 -0.81
59 0.15
60 0.15

> <PUBCHEM_EFFECTIVE_ROTOR_COUNT>
4.6

> <PUBCHEM_PHARMACOPHORE_FEATURES>
8
1 1 acceptor
1 3 acceptor
1 4 cation
5 1 4 10 24 25 rings
6 4 5 8 9 10 18 rings
6 5 6 7 8 11 12 rings
6 5 8 9 13 19 21 rings
8 6 7 14 15 16 17 20 22 rings

> <PUBCHEM_HEAVY_ATOM_COUNT>
28

> <PUBCHEM_ATOM_DEF_STEREO_COUNT>
7

> <PUBCHEM_ATOM_UDEF_STEREO_COUNT>
1

> <PUBCHEM_BOND_DEF_STEREO_COUNT>
0

> <PUBCHEM_BOND_UDEF_STEREO_COUNT>
0

> <PUBCHEM_ISOTOPIC_ATOM_COUNT>
0

> <PUBCHEM_COMPONENT_COUNT>
1

> <PUBCHEM_CACTVS_TAUTO_COUNT>
1

> <PUBCHEM_CONFORMER_ID>
0006BD9700000002

> <PUBCHEM_MMFF94_ENERGY>
129.9511

> <PUBCHEM_FEATURE_SELFOVERLAP>
42.546

> <PUBCHEM_SHAPE_FINGERPRINT>
10366900 7 18202273676797660016
10863032 1 18335417967436517617
10948715 1 18266737987720814568
11578080 2 17559974253721754692
12011746 2 17988922211566761372
12166972 35 16271931467338076487
12293681 4 17977392959934039380
12596599 1 18263635341436244745
12633257 1 18263916820966573913
13009979 54 16807549898714320278
13140716 1 18340207508774931665
13224815 77 18342452643036379913
13544653 18 18335416834166265303
14178342 30 17972035009443157554
14223421 5 18409444786868247156
14289901 80 17894621569891336707
14787075 74 17972876960693789873
15664445 248 18129661872849084845
16752209 62 15410621414442359437
16945 1 18126549146639936448
17349148 13 16272210794957668225
17492 89 18335979843727632455
18681886 176 17894633613464859856
19862831 5 17632576076272192279
19930381 70 18042404625446799064
20600515 1 17203036392229830244
20691752 17 17346593088538691529
20715895 44 18047194326368870145
20905425 154 18411702105947308624
22393880 68 18340481252762718660
23557571 272 17823989041501610921
23559900 14 18042117820451934671
238 59 18268136579280112104
25222932 49 18052536565452768855
312423 11 18410000061630539023
3286 77 18131074874192023418
3797600 57 17313376773649408580
469060 322 17097243604229837095
474 4 17987513715385741388
5104073 3 18410571803841055945
5283173 99 18200046135239273397
9709674 26 18411972555410303931

> <PUBCHEM_SHAPE_MULTIPOLES>
553.64
8.72
2.83
1.78
6.06
0.87
0.13
-2.9
0.66
-1.03
0.05
-0.51
-0.75
-0.19

> <PUBCHEM_SHAPE_SELFOVERLAP>
1212.458

> <PUBCHEM_SHAPE_VOLUME>
292.7

> <PUBCHEM_COORDINATE_TYPE>
2
5
10

$$$$

