5461066
  -OEChem-07051213113D

 54 58  0     1  0  0  0  0  0999 V2000
   -0.5753    1.1844   -1.2887 O   0  0  0  0  0  0  0  0  0  0  0  0
   -2.0570   -0.4376   -2.2116 O   0  0  0  0  0  0  0  0  0  0  0  0
   -4.9742   -0.0067   -0.7720 O   0  0  0  0  0  0  0  0  0  0  0  0
   -5.9767    2.0757    0.5981 O   0  0  0  0  0  0  0  0  0  0  0  0
    6.4157    0.6643    0.9122 O   0  0  0  0  0  0  0  0  0  0  0  0
   -1.8936   -0.0433    0.2764 C   0  0  2  0  0  0  0  0  0  0  0  0
   -1.0079   -1.2786    0.5885 C   0  0  2  0  0  0  0  0  0  0  0  0
    0.3936   -1.1839   -0.0319 C   0  0  1  0  0  0  0  0  0  0  0  0
    1.0084    0.2092    0.3058 C   0  0  2  0  0  0  0  0  0  0  0  0
   -0.0402    1.3323    0.0443 C   0  0  2  0  0  0  0  0  0  0  0  0
   -1.2552    1.1512    0.9644 C   0  0  0  0  0  0  0  0  0  0  0  0
   -3.2502   -0.5269    0.7836 C   0  0  2  0  0  0  0  0  0  0  0  0
    2.4190    0.4150   -0.3636 C   0  0  2  0  0  0  0  0  0  0  0  0
   -1.8689   -2.4844    0.2158 C   0  0  0  0  0  0  0  0  0  0  0  0
   -1.8391    0.4947   -1.1721 C   0  0  1  0  0  0  0  0  0  0  0  0
   -3.3187   -1.9921    0.3301 C   0  0  0  0  0  0  0  0  0  0  0  0
    1.3286   -2.2975    0.4446 C   0  0  0  0  0  0  0  0  0  0  0  0
    3.3063   -0.7970   -0.0359 C   0  0  0  0  0  0  0  0  0  0  0  0
    2.6939   -2.1683   -0.2248 C   0  0  0  0  0  0  0  0  0  0  0  0
    3.0505    1.7094    0.2279 C   0  0  0  0  0  0  0  0  0  0  0  0
    2.3353    0.5591   -1.8982 C   0  0  0  0  0  0  0  0  0  0  0  0
   -4.4173    0.2680    0.2899 C   0  0  0  0  0  0  0  0  0  0  0  0
    4.5456    1.8285   -0.0235 C   0  0  0  0  0  0  0  0  0  0  0  0
    4.5781   -0.7008    0.3871 C   0  0  0  0  0  0  0  0  0  0  0  0
    5.2639    0.6078    0.4863 C   0  0  0  0  0  0  0  0  0  0  0  0
   -4.8648    1.4176    1.1673 C   0  0  0  0  0  0  0  0  0  0  0  0
   -0.8749   -1.3282    1.6817 H   0  0  0  0  0  0  0  0  0  0  0  0
    0.3018   -1.2874   -1.1179 H   0  0  0  0  0  0  0  0  0  0  0  0
    1.1886    0.2164    1.3934 H   0  0  0  0  0  0  0  0  0  0  0  0
    0.3855    2.3318    0.1574 H   0  0  0  0  0  0  0  0  0  0  0  0
   -0.9835    0.9857    2.0115 H   0  0  0  0  0  0  0  0  0  0  0  0
   -1.8957    2.0374    0.9126 H   0  0  0  0  0  0  0  0  0  0  0  0
   -3.2674   -0.5156    1.8819 H   0  0  0  0  0  0  0  0  0  0  0  0
   -1.6855   -3.3200    0.9005 H   0  0  0  0  0  0  0  0  0  0  0  0
   -1.6643   -2.8535   -0.7937 H   0  0  0  0  0  0  0  0  0  0  0  0
   -2.5940    1.2769   -1.3120 H   0  0  0  0  0  0  0  0  0  0  0  0
   -3.8187   -2.1225   -0.6359 H   0  0  0  0  0  0  0  0  0  0  0  0
   -3.8795   -2.5937    1.0547 H   0  0  0  0  0  0  0  0  0  0  0  0
    0.9039   -3.2790    0.2042 H   0  0  0  0  0  0  0  0  0  0  0  0
    1.4435   -2.2574    1.5353 H   0  0  0  0  0  0  0  0  0  0  0  0
    2.5921   -2.3617   -1.3001 H   0  0  0  0  0  0  0  0  0  0  0  0
    3.3505   -2.9549    0.1672 H   0  0  0  0  0  0  0  0  0  0  0  0
    2.8873    1.7335    1.3146 H   0  0  0  0  0  0  0  0  0  0  0  0
    2.5595    2.6016   -0.1781 H   0  0  0  0  0  0  0  0  0  0  0  0
    1.8337    1.4887   -2.1867 H   0  0  0  0  0  0  0  0  0  0  0  0
    3.3318    0.5805   -2.3546 H   0  0  0  0  0  0  0  0  0  0  0  0
    1.7948   -0.2684   -2.3673 H   0  0  0  0  0  0  0  0  0  0  0  0
   -1.5407   -1.2365   -2.0359 H   0  0  0  0  0  0  0  0  0  0  0  0
    4.9297    2.7054    0.5095 H   0  0  0  0  0  0  0  0  0  0  0  0
    4.7717    1.9515   -1.0872 H   0  0  0  0  0  0  0  0  0  0  0  0
    5.1708   -1.5785    0.6228 H   0  0  0  0  0  0  0  0  0  0  0  0
   -4.0591    2.1454    1.2667 H   0  0  0  0  0  0  0  0  0  0  0  0
   -5.1438    1.0416    2.1555 H   0  0  0  0  0  0  0  0  0  0  0  0
   -6.7187    1.4469    0.5945 H   0  0  0  0  0  0  0  0  0  0  0  0
  1 10  1  0  0  0  0
  1 15  1  0  0  0  0
  2 15  1  0  0  0  0
  2 48  1  0  0  0  0
  3 22  2  0  0  0  0
  4 26  1  0  0  0  0
  4 54  1  0  0  0  0
  5 25  2  0  0  0  0
  6  7  1  0  0  0  0
  6 11  1  0  0  0  0
  6 12  1  0  0  0  0
  6 15  1  0  0  0  0
  7  8  1  0  0  0  0
  7 14  1  0  0  0  0
  7 27  1  0  0  0  0
  8  9  1  0  0  0  0
  8 17  1  0  0  0  0
  8 28  1  0  0  0  0
  9 10  1  0  0  0  0
  9 13  1  0  0  0  0
  9 29  1  0  0  0  0
 10 11  1  0  0  0  0
 10 30  1  0  0  0  0
 11 31  1  0  0  0  0
 11 32  1  0  0  0  0
 12 16  1  0  0  0  0
 12 22  1  0  0  0  0
 12 33  1  0  0  0  0
 13 18  1  0  0  0  0
 13 20  1  0  0  0  0
 13 21  1  0  0  0  0
 14 16  1  0  0  0  0
 14 34  1  0  0  0  0
 14 35  1  0  0  0  0
 15 36  1  0  0  0  0
 16 37  1  0  0  0  0
 16 38  1  0  0  0  0
 17 19  1  0  0  0  0
 17 39  1  0  0  0  0
 17 40  1  0  0  0  0
 18 19  1  0  0  0  0
 18 24  2  0  0  0  0
 19 41  1  0  0  0  0
 19 42  1  0  0  0  0
 20 23  1  0  0  0  0
 20 43  1  0  0  0  0
 20 44  1  0  0  0  0
 21 45  1  0  0  0  0
 21 46  1  0  0  0  0
 21 47  1  0  0  0  0
 22 26  1  0  0  0  0
 23 25  1  0  0  0  0
 23 49  1  0  0  0  0
 23 50  1  0  0  0  0
 24 25  1  0  0  0  0
 24 51  1  0  0  0  0
 26 52  1  0  0  0  0
 26 53  1  0  0  0  0
M  END
> <PUBCHEM_COMPOUND_CID>
5461066

> <PUBCHEM_CONFORMER_RMSD>
0.8

> <PUBCHEM_CONFORMER_DIVERSEORDER>
1
3
2

> <PUBCHEM_MMFF94_PARTIAL_CHARGES>
19
1 -0.56
10 0.28
12 0.06
13 0.14
15 0.56
18 -0.28
19 0.14
2 -0.68
22 0.45
23 0.06
24 -0.14
25 0.49
26 0.34
3 -0.57
4 -0.68
48 0.4
5 -0.57
51 0.15
54 0.4

> <PUBCHEM_EFFECTIVE_ROTOR_COUNT>
4

> <PUBCHEM_PHARMACOPHORE_FEATURES>
11
1 1 acceptor
1 2 acceptor
1 2 donor
1 3 acceptor
1 4 acceptor
1 4 donor
1 5 acceptor
5 6 7 12 14 16 rings
6 13 18 20 23 24 25 rings
6 8 9 13 17 18 19 rings
8 1 6 7 8 9 10 11 15 rings

> <PUBCHEM_HEAVY_ATOM_COUNT>
26

> <PUBCHEM_ATOM_DEF_STEREO_COUNT>
7

> <PUBCHEM_ATOM_UDEF_STEREO_COUNT>
1

> <PUBCHEM_BOND_DEF_STEREO_COUNT>
0

> <PUBCHEM_BOND_UDEF_STEREO_COUNT>
0

> <PUBCHEM_ISOTOPIC_ATOM_COUNT>
0

> <PUBCHEM_COMPONENT_COUNT>
1

> <PUBCHEM_CACTVS_TAUTO_COUNT>
20

> <PUBCHEM_CONFORMER_ID>
0053544A00000001

> <PUBCHEM_MMFF94_ENERGY>
82.5979

> <PUBCHEM_FEATURE_SELFOVERLAP>
55.947

> <PUBCHEM_SHAPE_FINGERPRINT>
10411042 1 17329988509119238083
10493431 412 18412258450393606987
10863032 1 18409722950762854091
10906281 52 18059276700684445316
10948715 1 18334008411163063679
11089746 13 17676212363720259048
11132069 177 18201434753203753991
12236239 1 17822014228386667326
12403259 415 18131075948245006124
12403814 3 17704075071105737975
12422481 6 17775568653927147213
12633257 1 17060055904664661554
12788726 201 17386280016693834697
13140716 1 18199744748160759440
13224815 77 18342176631432350990
13583140 156 17676488294136647339
14790565 3 18410851040623073880
15196674 1 18411697651860312634
15238133 3 18338223938353982612
15375358 24 18187920664334378919
15788980 27 16773799168974934569
15840311 113 18119517981072872737
16945 1 18263625351606129619
17349148 13 18060141999187290932
17980427 23 18058447617345924892
1813 80 16773789299155971607
19141452 34 18343581819940134755
200 152 18260272914630113654
20511986 3 18188504548100689491
20691752 17 17203326689311966011
20715895 44 18340487880261558281
21033648 29 17987540172500641124
21150785 3 16805332089330006829
21267235 1 18340477859823548322
21304253 335 18341884234253508597
21421861 104 17917157212049481434
21452121 103 18339921614308223194
21859007 373 17487348276791980645
22182313 1 17702953676260938607
23402539 116 18261116227601331972
23557571 272 17203335541244552420
23559900 14 18335697235443232954
26918003 58 18410577258312286720
296302 2 18411980239064539842
335352 9 18411133675657549518
34797466 226 16877936092753218785
34934 24 18333450958424857459
350125 39 18342453751591765876
3633792 109 18339653342915633309
3680242 22 18271246118480537330
4340502 62 18410565215339896905
474 4 18408885110059557768
5104073 3 18343864398649705330
633830 44 18261391105650785580
7064713 232 18340768152636486676
7226269 152 18186799205830344585
7495541 125 13398620632836065541
9709674 26 18410847746726315474

> <PUBCHEM_SHAPE_MULTIPOLES>
505.72
11.37
2.29
1.22
1.39
0.82
0.6
-4.79
-2.87
-0.41
-0.32
-0.35
-0.23
-0.3

> <PUBCHEM_SHAPE_SELFOVERLAP>
1107.803

> <PUBCHEM_SHAPE_VOLUME>
269.5

> <PUBCHEM_COORDINATE_TYPE>
2
5
10

$$$$

