854321
  -OEChem-06241222473D

 41 42  0     0  0  0  0  0  0999 V2000
   -0.7687    2.2504    0.1867 O   0  0  0  0  0  0  0  0  0  0  0  0
    0.4955   -2.3503   -0.7771 O   0  0  0  0  0  0  0  0  0  0  0  0
    3.7266    1.0887   -0.8816 O   0  0  0  0  0  0  0  0  0  0  0  0
   -2.8856    2.8690    0.7168 O   0  0  0  0  0  0  0  0  0  0  0  0
    0.9331   -2.6232    1.5063 O   0  0  0  0  0  0  0  0  0  0  0  0
    4.1287    0.7126    1.3935 O   0  0  0  0  0  0  0  0  0  0  0  0
   -2.5395    0.5496    0.2896 C   0  0  0  0  0  0  0  0  0  0  0  0
   -1.6731   -0.4191   -0.0767 C   0  0  0  0  0  0  0  0  0  0  0  0
   -3.9961    0.3223    0.6120 C   0  0  0  0  0  0  0  0  0  0  0  0
   -0.2533   -0.0770   -0.2996 C   0  0  0  0  0  0  0  0  0  0  0  0
    0.1495    1.2478   -0.1608 C   0  0  0  0  0  0  0  0  0  0  0  0
   -4.8635    0.4542   -0.6308 C   0  0  0  0  0  0  0  0  0  0  0  0
    0.7357   -1.0143   -0.6372 C   0  0  0  0  0  0  0  0  0  0  0  0
   -2.1041    1.9699    0.4216 C   0  0  0  0  0  0  0  0  0  0  0  0
   -2.1368   -1.8381   -0.3042 C   0  0  0  0  0  0  0  0  0  0  0  0
    1.4719    1.6562   -0.3527 C   0  0  0  0  0  0  0  0  0  0  0  0
    2.0658   -0.6235   -0.8329 C   0  0  0  0  0  0  0  0  0  0  0  0
    2.4335    0.7119   -0.6919 C   0  0  0  0  0  0  0  0  0  0  0  0
   -6.3259    0.2014   -0.2986 C   0  0  0  0  0  0  0  0  0  0  0  0
    0.6294   -3.0817    0.4128 C   0  0  0  0  0  0  0  0  0  0  0  0
    4.5141    1.0470    0.2810 C   0  0  0  0  0  0  0  0  0  0  0  0
    0.3464   -4.5320    0.1553 C   0  0  0  0  0  0  0  0  0  0  0  0
    5.9163    1.4782   -0.0314 C   0  0  0  0  0  0  0  0  0  0  0  0
   -4.1402   -0.6611    1.0758 H   0  0  0  0  0  0  0  0  0  0  0  0
   -4.3338    1.0279    1.3819 H   0  0  0  0  0  0  0  0  0  0  0  0
   -4.7655    1.4595   -1.0582 H   0  0  0  0  0  0  0  0  0  0  0  0
   -4.5480   -0.2530   -1.4065 H   0  0  0  0  0  0  0  0  0  0  0  0
   -3.2246   -1.9278   -0.3713 H   0  0  0  0  0  0  0  0  0  0  0  0
   -1.8385   -2.4839    0.5242 H   0  0  0  0  0  0  0  0  0  0  0  0
   -1.7871   -2.2323   -1.2629 H   0  0  0  0  0  0  0  0  0  0  0  0
    1.7456    2.7014   -0.2364 H   0  0  0  0  0  0  0  0  0  0  0  0
    2.8183   -1.3644   -1.0942 H   0  0  0  0  0  0  0  0  0  0  0  0
   -6.6899    0.9177    0.4450 H   0  0  0  0  0  0  0  0  0  0  0  0
   -6.4701   -0.8092    0.0967 H   0  0  0  0  0  0  0  0  0  0  0  0
   -6.9414    0.3046   -1.1977 H   0  0  0  0  0  0  0  0  0  0  0  0
   -0.6460   -4.6470   -0.2873 H   0  0  0  0  0  0  0  0  0  0  0  0
    0.3675   -5.0787    1.1023 H   0  0  0  0  0  0  0  0  0  0  0  0
    1.1118   -4.9433   -0.5070 H   0  0  0  0  0  0  0  0  0  0  0  0
    6.3533    0.8039   -0.7718 H   0  0  0  0  0  0  0  0  0  0  0  0
    6.5204    1.4360    0.8793 H   0  0  0  0  0  0  0  0  0  0  0  0
    5.9121    2.5064   -0.4013 H   0  0  0  0  0  0  0  0  0  0  0  0
  1 11  1  0  0  0  0
  1 14  1  0  0  0  0
  2 13  1  0  0  0  0
  2 20  1  0  0  0  0
  3 18  1  0  0  0  0
  3 21  1  0  0  0  0
  4 14  2  0  0  0  0
  5 20  2  0  0  0  0
  6 21  2  0  0  0  0
  7  8  2  0  0  0  0
  7  9  1  0  0  0  0
  7 14  1  0  0  0  0
  8 10  1  0  0  0  0
  8 15  1  0  0  0  0
  9 12  1  0  0  0  0
  9 24  1  0  0  0  0
  9 25  1  0  0  0  0
 10 11  2  0  0  0  0
 10 13  1  0  0  0  0
 11 16  1  0  0  0  0
 12 19  1  0  0  0  0
 12 26  1  0  0  0  0
 12 27  1  0  0  0  0
 13 17  2  0  0  0  0
 15 28  1  0  0  0  0
 15 29  1  0  0  0  0
 15 30  1  0  0  0  0
 16 18  2  0  0  0  0
 16 31  1  0  0  0  0
 17 18  1  0  0  0  0
 17 32  1  0  0  0  0
 19 33  1  0  0  0  0
 19 34  1  0  0  0  0
 19 35  1  0  0  0  0
 20 22  1  0  0  0  0
 21 23  1  0  0  0  0
 22 36  1  0  0  0  0
 22 37  1  0  0  0  0
 22 38  1  0  0  0  0
 23 39  1  0  0  0  0
 23 40  1  0  0  0  0
 23 41  1  0  0  0  0
M  END
> <PUBCHEM_COMPOUND_CID>
854321

> <PUBCHEM_CONFORMER_RMSD>
0.8

> <PUBCHEM_CONFORMER_DIVERSEORDER>
1
14
37
40
19
25
27
24
22
4
28
43
21
17
39
23
18
42
20
35
5
26
33
15
44
10
9
8
32
7
38
12
2
13
11
31
36
3
34
30
6
29
16
41

> <PUBCHEM_MMFF94_PARTIAL_CHARGES>
23
1 -0.23
10 0.03
11 0.08
13 0.08
14 0.71
15 0.14
16 -0.15
17 -0.15
18 0.08
2 -0.23
20 0.66
21 0.66
22 0.06
23 0.06
3 -0.23
31 0.15
32 0.15
4 -0.57
5 -0.57
6 -0.57
7 -0.12
8 -0.17
9 0.14

> <PUBCHEM_EFFECTIVE_ROTOR_COUNT>
6

> <PUBCHEM_PHARMACOPHORE_FEATURES>
6
1 19 hydrophobe
1 4 acceptor
1 5 acceptor
1 6 acceptor
6 1 7 8 10 11 14 rings
6 10 11 13 16 17 18 rings

> <PUBCHEM_HEAVY_ATOM_COUNT>
23

> <PUBCHEM_ATOM_DEF_STEREO_COUNT>
0

> <PUBCHEM_ATOM_UDEF_STEREO_COUNT>
0

> <PUBCHEM_BOND_DEF_STEREO_COUNT>
0

> <PUBCHEM_BOND_UDEF_STEREO_COUNT>
0

> <PUBCHEM_ISOTOPIC_ATOM_COUNT>
0

> <PUBCHEM_COMPONENT_COUNT>
1

> <PUBCHEM_CACTVS_TAUTO_COUNT>
1

> <PUBCHEM_CONFORMER_ID>
000D093100000001

> <PUBCHEM_MMFF94_ENERGY>
73.6801

> <PUBCHEM_FEATURE_SELFOVERLAP>
30.472

> <PUBCHEM_SHAPE_FINGERPRINT>
10090160 65 18412826880688322805
10319926 262 18189348866801793472
10906281 52 18190441784795050012
10967382 1 18409721893994859357
1100329 8 18265615373078941857
11578080 2 16913125094959234654
12236239 1 17917431986924753716
12788726 201 17623834748425786138
12838862 33 18336000696299983869
12839892 36 18340499948924176242
13052359 8 18268707208234417734
13083527 12 18055648453477415579
13140716 1 18192707848353172961
13583140 156 17203040790355605000
14178342 30 18339633550783595704
14787075 74 17968098590280463329
15042514 8 18195520385874680530
15131766 46 16341154418259757836
15196674 1 18262794193767002805
15927050 60 18410009919293595022
16945 1 18335686244173789613
17492 89 18122342643629727551
19591789 44 18266452290728020046
20567600 347 18341609343187596386
20691752 17 17701240654504132241
21054139 6 18263653883543635695
212916 134 18335151868874944840
21421861 104 18198057187107039859
21524375 3 18333728013906470972
22224240 67 18335706009491998993
22393880 68 18192141822934084253
22956985 138 17984427613938363554
2334 1 17904475212990478629
23366157 5 17913477214838925774
23402539 116 18262805055559537396
23559900 14 17832147495389832487
23569917 315 18410568474899490526
2871803 45 18336820974681073029
3091708 16 9554383856772694434
33824 294 18412259575606505575
34934 24 18334016090596198719
352729 6 18195227949929881933
4072396 5 18343030998784440401
4340502 62 17560795550896231179
43471831 8 18339639048478358394
474229 33 18409727339734004101
5104073 3 18264477563454479169
5486654 2 18409444748245216124
7364860 26 18049156962849991774
9981440 41 18413385449490285459

> <PUBCHEM_SHAPE_MULTIPOLES>
438.11
9.8
3.75
0.95
1.25
4.82
0.13
-6.77
-0.01
-0.49
0.76
-0.34
0.14
-0.4

> <PUBCHEM_SHAPE_SELFOVERLAP>
927.902

> <PUBCHEM_SHAPE_VOLUME>
242

> <PUBCHEM_COORDINATE_TYPE>
2
5
10

$$$$

