5281636
  -OEChem-07051212583D

 29 31  0     0  0  0  0  0  0999 V2000
    0.1058    1.5215    0.0001 O   0  0  0  0  0  0  0  0  0  0  0  0
   -4.5853    0.8310    0.0001 O   0  0  0  0  0  0  0  0  0  0  0  0
   -1.7455   -2.9733   -0.0010 O   0  0  0  0  0  0  0  0  0  0  0  0
    0.8470   -2.5027    0.0019 O   0  0  0  0  0  0  0  0  0  0  0  0
    5.3607   -0.1887    0.0001 O   0  0  0  0  0  0  0  0  0  0  0  0
   -0.7581   -0.7628   -0.0001 C   0  0  0  0  0  0  0  0  0  0  0  0
    1.7060   -0.3233    0.0001 C   0  0  0  0  0  0  0  0  0  0  0  0
   -0.9311    0.6210    0.0001 C   0  0  0  0  0  0  0  0  0  0  0  0
    1.3899    1.0350    0.0001 C   0  0  0  0  0  0  0  0  0  0  0  0
    0.6096   -1.3039    0.0001 C   0  0  0  0  0  0  0  0  0  0  0  0
   -1.8644   -1.6165   -0.0003 C   0  0  0  0  0  0  0  0  0  0  0  0
   -2.2208    1.1562   -0.0001 C   0  0  0  0  0  0  0  0  0  0  0  0
    3.0393   -0.7419   -0.0001 C   0  0  0  0  0  0  0  0  0  0  0  0
   -3.3286    0.3078   -0.0003 C   0  0  0  0  0  0  0  0  0  0  0  0
   -3.1504   -1.0758   -0.0005 C   0  0  0  0  0  0  0  0  0  0  0  0
    2.4151    1.9831   -0.0002 C   0  0  0  0  0  0  0  0  0  0  0  0
    4.0591    0.2099   -0.0003 C   0  0  0  0  0  0  0  0  0  0  0  0
    3.7479    1.5699   -0.0004 C   0  0  0  0  0  0  0  0  0  0  0  0
   -4.6962    2.2534    0.0007 C   0  0  0  0  0  0  0  0  0  0  0  0
   -2.2986    2.2387    0.0000 H   0  0  0  0  0  0  0  0  0  0  0  0
    3.2886   -1.7998   -0.0001 H   0  0  0  0  0  0  0  0  0  0  0  0
   -4.0169   -1.7327   -0.0007 H   0  0  0  0  0  0  0  0  0  0  0  0
    2.1838    3.0450   -0.0002 H   0  0  0  0  0  0  0  0  0  0  0  0
    4.5404    2.3134   -0.0005 H   0  0  0  0  0  0  0  0  0  0  0  0
   -0.8111   -3.2319   -0.0019 H   0  0  0  0  0  0  0  0  0  0  0  0
    5.3934   -1.1608    0.0002 H   0  0  0  0  0  0  0  0  0  0  0  0
   -4.2706    2.6902    0.9107 H   0  0  0  0  0  0  0  0  0  0  0  0
   -5.7644    2.4941    0.0011 H   0  0  0  0  0  0  0  0  0  0  0  0
   -4.2710    2.6910   -0.9089 H   0  0  0  0  0  0  0  0  0  0  0  0
  1  8  1  0  0  0  0
  1  9  1  0  0  0  0
  2 14  1  0  0  0  0
  2 19  1  0  0  0  0
  3 11  1  0  0  0  0
  3 25  1  0  0  0  0
  4 10  2  0  0  0  0
  5 17  1  0  0  0  0
  5 26  1  0  0  0  0
  6  8  1  0  0  0  0
  6 10  1  0  0  0  0
  6 11  2  0  0  0  0
  7  9  2  0  0  0  0
  7 10  1  0  0  0  0
  7 13  1  0  0  0  0
  8 12  2  0  0  0  0
  9 16  1  0  0  0  0
 11 15  1  0  0  0  0
 12 14  1  0  0  0  0
 12 20  1  0  0  0  0
 13 17  2  0  0  0  0
 13 21  1  0  0  0  0
 14 15  2  0  0  0  0
 15 22  1  0  0  0  0
 16 18  2  0  0  0  0
 16 23  1  0  0  0  0
 17 18  1  0  0  0  0
 18 24  1  0  0  0  0
 19 27  1  0  0  0  0
 19 28  1  0  0  0  0
 19 29  1  0  0  0  0
M  END
> <PUBCHEM_COMPOUND_CID>
5281636

> <PUBCHEM_CONFORMER_RMSD>
0.6

> <PUBCHEM_CONFORMER_DIVERSEORDER>
1

> <PUBCHEM_MMFF94_PARTIAL_CHARGES>
26
1 -0.17
10 0.4
11 0.08
12 -0.15
13 -0.15
14 0.08
15 -0.15
16 -0.15
17 0.08
18 -0.15
19 0.28
2 -0.36
20 0.15
21 0.15
22 0.15
23 0.15
24 0.15
25 0.45
26 0.45
3 -0.53
4 -0.57
5 -0.53
6 0.09
7 0.09
8 0.08
9 0.08

> <PUBCHEM_EFFECTIVE_ROTOR_COUNT>
1

> <PUBCHEM_PHARMACOPHORE_FEATURES>
8
1 1 acceptor
1 2 acceptor
1 3 donor
1 4 acceptor
1 5 donor
6 1 6 7 8 9 10 rings
6 6 8 11 12 14 15 rings
6 7 9 13 16 17 18 rings

> <PUBCHEM_HEAVY_ATOM_COUNT>
19

> <PUBCHEM_ATOM_DEF_STEREO_COUNT>
0

> <PUBCHEM_ATOM_UDEF_STEREO_COUNT>
0

> <PUBCHEM_BOND_DEF_STEREO_COUNT>
0

> <PUBCHEM_BOND_UDEF_STEREO_COUNT>
0

> <PUBCHEM_ISOTOPIC_ATOM_COUNT>
0

> <PUBCHEM_COMPONENT_COUNT>
1

> <PUBCHEM_CACTVS_TAUTO_COUNT>
14

> <PUBCHEM_CONFORMER_ID>
0050976400000001

> <PUBCHEM_MMFF94_ENERGY>
66.6702

> <PUBCHEM_FEATURE_SELFOVERLAP>
40.652

> <PUBCHEM_SHAPE_FINGERPRINT>
10062212 137 18339370681826575522
10411042 1 17041760886246966350
10608611 8 18337111146607939640
10616163 171 18338233765175793734
10967382 1 18338517542191138788
11132069 177 18410296878451977216
11471102 20 18337956786939800989
12403814 3 17703795829485641181
12500047 106 18408889520737814961
12644460 14 18129660944845310275
13140716 1 18411705348536405896
13380535 76 18408885148350487303
13544592 145 18261943154797959102
138480 1 17618223253241613923
14790565 3 18339071691810273084
15099037 51 18410011061226400572
15196674 1 18410856512753962368
15375358 24 18260828206667161958
15442244 35 18339644434778752232
15536298 74 18335421223348405264
16945 1 18410856606884481798
17804303 29 18410007702604263932
18186145 218 18272097075876512924
19784866 9 18339926012307235672
200 152 17821450140293344869
20510252 161 18118118065607905401
21267235 1 18339071601589053395
21279426 13 18192709166396079300
21421861 104 17773325732480932186
21501502 16 18268148656553873716
221490 88 18196365919253975992
2334 1 18194399991899094370
23402539 116 18260555527847036964
23402655 69 18334015003489613196
23463225 33 18341614789522287836
23558518 356 17984139262391061082
23559900 14 18261112946689734880
25 1 18412267267613188919
2748010 2 18266739086715256806
293599 30 18338796818524694357
3004659 81 18271518789507669726
335352 9 18410856607306455902
34934 24 18410860992120086986
350125 39 18267297639033695097
4214541 1 18410575063193751045
495365 180 17385737867615063480
5104073 3 18339644438926228800
633830 44 17417811695523301816
69090 78 18410015429260797069
7364860 26 18264205992451131110
7832392 63 18411141303355800236
8272917 22 18118682351876462669
8809292 202 18270397187813343122
9709674 26 18335133159644391198

> <PUBCHEM_SHAPE_MULTIPOLES>
361.66
8.67
2.53
0.59
1.01
0.79
0
-3.8
0
-1.31
0
0
-0.02
0

> <PUBCHEM_SHAPE_SELFOVERLAP>
813.378

> <PUBCHEM_SHAPE_VOLUME>
190.4

> <PUBCHEM_COORDINATE_TYPE>
2
5
10

$$$$

