83975
  -OEChem-07051213112D

 49 51  0     1  0  0  0  0  0999 V2000
    6.7619    0.9214    0.0000 O   0  0  0  0  0  0  0  0  0  0  0  0
    8.2619    1.7874    0.0000 O   0  0  0  0  0  0  0  0  0  0  0  0
    4.9889    0.0322    0.0000 O   0  0  0  0  0  0  0  0  0  0  0  0
    4.9889    3.5427    0.0000 O   0  0  0  0  0  0  0  0  0  0  0  0
    5.2619    1.7874    0.0000 N   0  0  0  0  0  0  0  0  0  0  0  0
    9.1279   -0.4446    0.0000 C   0  0  0  0  0  0  0  0  0  0  0  0
    8.2619   -0.9446    0.0000 C   0  0  3  0  0  0  0  0  0  0  0  0
    8.2619    0.0554    0.0000 C   0  0  3  0  0  0  0  0  0  0  0  0
    9.6279   -1.3106    0.0000 C   0  0  0  0  0  0  0  0  0  0  0  0
    9.6279    0.4214    0.0000 C   0  0  0  0  0  0  0  0  0  0  0  0
    7.7619   -1.8106    0.0000 C   0  0  0  0  0  0  0  0  0  0  0  0
    7.7619    0.9214    0.0000 C   0  0  0  0  0  0  0  0  0  0  0  0
    8.2619   -2.6767    0.0000 C   0  0  0  0  0  0  0  0  0  0  0  0
    6.2619    1.7874    0.0000 C   0  0  0  0  0  0  0  0  0  0  0  0
    7.7619   -3.5427    0.0000 C   0  0  0  0  0  0  0  0  0  0  0  0
    9.2619   -2.6767    0.0000 C   0  0  0  0  0  0  0  0  0  0  0  0
    3.7320    2.2874    0.0000 C   0  0  0  0  0  0  0  0  0  0  0  0
    3.7320    1.2874    0.0000 C   0  0  0  0  0  0  0  0  0  0  0  0
    2.8660    0.7874    0.0000 C   0  0  0  0  0  0  0  0  0  0  0  0
    2.8660    2.7874    0.0000 C   0  0  0  0  0  0  0  0  0  0  0  0
    2.0000    1.2874    0.0000 C   0  0  0  0  0  0  0  0  0  0  0  0
    2.0000    2.2874    0.0000 C   0  0  0  0  0  0  0  0  0  0  0  0
    4.6783    0.9827    0.0000 C   0  0  0  0  0  0  0  0  0  0  0  0
    4.6783    2.5922    0.0000 C   0  0  0  0  0  0  0  0  0  0  0  0
    8.8629   -1.5456    0.0000 H   0  0  0  0  0  0  0  0  0  0  0  0
    8.8629    0.6564    0.0000 H   0  0  0  0  0  0  0  0  0  0  0  0
   10.1648    0.1114    0.0000 H   0  0  0  0  0  0  0  0  0  0  0  0
    9.9379    0.9583    0.0000 H   0  0  0  0  0  0  0  0  0  0  0  0
    9.0910   -1.6206    0.0000 H   0  0  0  0  0  0  0  0  0  0  0  0
    9.9379   -1.8476    0.0000 H   0  0  0  0  0  0  0  0  0  0  0  0
   10.1648   -1.0006    0.0000 H   0  0  0  0  0  0  0  0  0  0  0  0
    9.0910    0.7314    0.0000 H   0  0  0  0  0  0  0  0  0  0  0  0
    7.1419   -1.8106    0.0000 H   0  0  0  0  0  0  0  0  0  0  0  0
    6.8445    1.9995    0.0000 H   0  0  0  0  0  0  0  0  0  0  0  0
    6.1542    2.3980    0.0000 H   0  0  0  0  0  0  0  0  0  0  0  0
    7.2249   -3.2327    0.0000 H   0  0  0  0  0  0  0  0  0  0  0  0
    7.4519   -4.0796    0.0000 H   0  0  0  0  0  0  0  0  0  0  0  0
    9.2619   -3.2967    0.0000 H   0  0  0  0  0  0  0  0  0  0  0  0
    9.8819   -2.6767    0.0000 H   0  0  0  0  0  0  0  0  0  0  0  0
    9.2619   -2.0567    0.0000 H   0  0  0  0  0  0  0  0  0  0  0  0
    8.2988   -3.8527    0.0000 H   0  0  0  0  0  0  0  0  0  0  0  0
    3.2646    3.2624    0.0000 H   0  0  0  0  0  0  0  0  0  0  0  0
    2.4675    3.2624    0.0000 H   0  0  0  0  0  0  0  0  0  0  0  0
    2.4675    0.3125    0.0000 H   0  0  0  0  0  0  0  0  0  0  0  0
    3.2646    0.3125    0.0000 H   0  0  0  0  0  0  0  0  0  0  0  0
    1.7880    2.8700    0.0000 H   0  0  0  0  0  0  0  0  0  0  0  0
    1.3894    2.1798    0.0000 H   0  0  0  0  0  0  0  0  0  0  0  0
    1.3894    1.3951    0.0000 H   0  0  0  0  0  0  0  0  0  0  0  0
    1.7880    0.7048    0.0000 H   0  0  0  0  0  0  0  0  0  0  0  0
  1 12  1  0  0  0  0
  1 14  1  0  0  0  0
  2 12  2  0  0  0  0
  3 23  2  0  0  0  0
  4 24  2  0  0  0  0
  5 14  1  0  0  0  0
  5 23  1  0  0  0  0
  5 24  1  0  0  0  0
  6  7  1  0  0  0  0
  6  8  1  0  0  0  0
  6  9  1  0  0  0  0
  6 10  1  0  0  0  0
  7  8  1  0  0  0  0
  7 11  1  0  0  0  0
  7 25  1  0  0  0  0
  8 12  1  0  0  0  0
  8 26  1  0  0  0  0
  9 29  1  0  0  0  0
  9 30  1  0  0  0  0
  9 31  1  0  0  0  0
 10 27  1  0  0  0  0
 10 28  1  0  0  0  0
 10 32  1  0  0  0  0
 11 13  2  0  0  0  0
 11 33  1  0  0  0  0
 13 15  1  0  0  0  0
 13 16  1  0  0  0  0
 14 34  1  0  0  0  0
 14 35  1  0  0  0  0
 15 36  1  0  0  0  0
 15 37  1  0  0  0  0
 15 41  1  0  0  0  0
 16 38  1  0  0  0  0
 16 39  1  0  0  0  0
 16 40  1  0  0  0  0
 17 18  2  0  0  0  0
 17 20  1  0  0  0  0
 17 24  1  0  0  0  0
 18 19  1  0  0  0  0
 18 23  1  0  0  0  0
 19 21  1  0  0  0  0
 19 44  1  0  0  0  0
 19 45  1  0  0  0  0
 20 22  1  0  0  0  0
 20 42  1  0  0  0  0
 20 43  1  0  0  0  0
 21 22  1  0  0  0  0
 21 48  1  0  0  0  0
 21 49  1  0  0  0  0
 22 46  1  0  0  0  0
 22 47  1  0  0  0  0
M  END
> <PUBCHEM_COMPOUND_CID>
83975

> <PUBCHEM_COMPOUND_CANONICALIZED>
1

> <PUBCHEM_CACTVS_COMPLEXITY>
639

> <PUBCHEM_CACTVS_HBOND_ACCEPTOR>
4

> <PUBCHEM_CACTVS_HBOND_DONOR>
0

> <PUBCHEM_CACTVS_ROTATABLE_BOND>
5

> <PUBCHEM_CACTVS_SUBSKEYS>
AAADceB6OAAAAAAAAAAAAAAAGAAAAQAAAAAgAAAAAAAAAFgAAAAAHgAAAAAADwCBgAYCCAMABACIAiHSGACAAAAgAAAACAEIAEgAABIAgQAMAAAEhiCIAQOYiICPgAAAAAAAAAAAAAAAAAAAAAAAAAAAAA==

> <PUBCHEM_IUPAC_OPENEYE_NAME>
(1,3-dioxo-4,5,6,7-tetrahydroisoindol-2-yl)methyl 2,2-dimethyl-3-(2-methylprop-1-enyl)cyclopropanecarboxylate

> <PUBCHEM_IUPAC_CAS_NAME>
2,2-dimethyl-3-(2-methylprop-1-enyl)-1-cyclopropanecarboxylic acid (1,3-dioxo-4,5,6,7-tetrahydroisoindol-2-yl)methyl ester

> <PUBCHEM_IUPAC_NAME>
(1,3-dioxo-4,5,6,7-tetrahydroisoindol-2-yl)methyl 2,2-dimethyl-3-(2-methylprop-1-enyl)cyclopropane-1-carboxylate

> <PUBCHEM_IUPAC_SYSTEMATIC_NAME>
[1,3-bis(oxidanylidene)-4,5,6,7-tetrahydroisoindol-2-yl]methyl 2,2-dimethyl-3-(2-methylprop-1-enyl)cyclopropane-1-carboxylate

> <PUBCHEM_IUPAC_TRADITIONAL_NAME>
2,2-dimethyl-3-(2-methylprop-1-enyl)cyclopropanecarboxylic acid (1,3-diketo-4,5,6,7-tetrahydroisoindol-2-yl)methyl ester

> <PUBCHEM_IUPAC_INCHI>
InChI=1S/C19H25NO4/c1-11(2)9-14-15(19(14,3)4)18(23)24-10-20-16(21)12-7-5-6-8-13(12)17(20)22/h9,14-15H,5-8,10H2,1-4H3

> <PUBCHEM_IUPAC_INCHIKEY>
CXBMCYHAMVGWJQ-UHFFFAOYSA-N

> <PUBCHEM_XLOGP3>
4.7

> <PUBCHEM_EXACT_MASS>
331.178358

> <PUBCHEM_MOLECULAR_FORMULA>
C19H25NO4

> <PUBCHEM_MOLECULAR_WEIGHT>
331.4061

> <PUBCHEM_OPENEYE_CAN_SMILES>
CC(=CC1C(C1(C)C)C(=O)OCN2C(=O)C3=C(C2=O)CCCC3)C

> <PUBCHEM_OPENEYE_ISO_SMILES>
CC(=CC1C(C1(C)C)C(=O)OCN2C(=O)C3=C(C2=O)CCCC3)C

> <PUBCHEM_CACTVS_TPSA>
63.7

> <PUBCHEM_MONOISOTOPIC_WEIGHT>
331.178358

> <PUBCHEM_TOTAL_CHARGE>
0

> <PUBCHEM_HEAVY_ATOM_COUNT>
24

> <PUBCHEM_ATOM_DEF_STEREO_COUNT>
0

> <PUBCHEM_ATOM_UDEF_STEREO_COUNT>
2

> <PUBCHEM_BOND_DEF_STEREO_COUNT>
0

> <PUBCHEM_BOND_UDEF_STEREO_COUNT>
0

> <PUBCHEM_ISOTOPIC_ATOM_COUNT>
0

> <PUBCHEM_COMPONENT_COUNT>
1

> <PUBCHEM_CACTVS_TAUTO_COUNT>
1

> <PUBCHEM_COORDINATE_TYPE>
1
5
255

> <PUBCHEM_BONDANNOTATIONS>
7  25  3
8  26  3

$$$$

