115084
  -OEChem-07051213153D

 21 21  0     0  0  0  0  0  0999 V2000
   -0.4869   -2.0820    0.0134 O   0  0  0  0  0  0  0  0  0  0  0  0
   -4.0352    1.4877   -0.0118 O   0  0  0  0  0  0  0  0  0  0  0  0
    2.3681    1.6890    0.0108 N   0  0  0  0  0  0  0  0  0  0  0  0
   -1.5635    0.0775    0.0521 C   0  0  0  0  0  0  0  0  0  0  0  0
   -2.8982   -0.6607   -0.0105 C   0  0  0  0  0  0  0  0  0  0  0  0
   -0.3628   -0.8596    0.0220 C   0  0  0  0  0  0  0  0  0  0  0  0
    1.0077   -0.2678    0.0079 C   0  0  0  0  0  0  0  0  0  0  0  0
    2.1009   -1.0933   -0.0192 C   0  0  0  0  0  0  0  0  0  0  0  0
    1.1565    1.0892    0.0222 C   0  0  0  0  0  0  0  0  0  0  0  0
   -4.0944    0.2632   -0.0391 C   0  0  0  0  0  0  0  0  0  0  0  0
    3.3645   -0.5133   -0.0316 C   0  0  0  0  0  0  0  0  0  0  0  0
    3.4433    0.8700   -0.0160 C   0  0  0  0  0  0  0  0  0  0  0  0
   -1.5252    0.6691    0.9741 H   0  0  0  0  0  0  0  0  0  0  0  0
   -1.5015    0.7535   -0.8089 H   0  0  0  0  0  0  0  0  0  0  0  0
   -2.9459   -1.2859   -0.9093 H   0  0  0  0  0  0  0  0  0  0  0  0
   -3.0095   -1.3196    0.8579 H   0  0  0  0  0  0  0  0  0  0  0  0
    2.0165   -2.1752   -0.0312 H   0  0  0  0  0  0  0  0  0  0  0  0
    0.3340    1.7929    0.0469 H   0  0  0  0  0  0  0  0  0  0  0  0
   -5.0723   -0.2466   -0.0866 H   0  0  0  0  0  0  0  0  0  0  0  0
    4.2595   -1.1244   -0.0531 H   0  0  0  0  0  0  0  0  0  0  0  0
    4.4055    1.3714   -0.0247 H   0  0  0  0  0  0  0  0  0  0  0  0
  1  6  2  0  0  0  0
  2 10  2  0  0  0  0
  3  9  1  0  0  0  0
  3 12  2  0  0  0  0
  4  5  1  0  0  0  0
  4  6  1  0  0  0  0
  4 13  1  0  0  0  0
  4 14  1  0  0  0  0
  5 10  1  0  0  0  0
  5 15  1  0  0  0  0
  5 16  1  0  0  0  0
  6  7  1  0  0  0  0
  7  8  1  0  0  0  0
  7  9  2  0  0  0  0
  8 11  2  0  0  0  0
  8 17  1  0  0  0  0
  9 18  1  0  0  0  0
 10 19  1  0  0  0  0
 11 12  1  0  0  0  0
 11 20  1  0  0  0  0
 12 21  1  0  0  0  0
M  END
> <PUBCHEM_COMPOUND_CID>
115084

> <PUBCHEM_CONFORMER_RMSD>
0.6

> <PUBCHEM_CONFORMER_DIVERSEORDER>
1
56
33
5
54
32
53
28
22
55
50
13
57
45
34
30
17
6
48
12
2
46
52
4
41
21
51
3
40
47
7
49
43
20
18
36
38
9
27
35
24
10
39
26
31
29
11
15
23
44
19
37
16
14
8
42
25

> <PUBCHEM_MMFF94_PARTIAL_CHARGES>
17
1 -0.57
10 0.45
11 -0.15
12 0.16
17 0.15
18 0.15
19 0.06
2 -0.57
20 0.15
21 0.15
3 -0.62
4 0.06
5 0.06
6 0.42
7 0.09
8 -0.15
9 0.16

> <PUBCHEM_EFFECTIVE_ROTOR_COUNT>
4

> <PUBCHEM_PHARMACOPHORE_FEATURES>
4
1 1 acceptor
1 2 acceptor
1 3 acceptor
6 3 7 8 9 11 12 rings

> <PUBCHEM_HEAVY_ATOM_COUNT>
12

> <PUBCHEM_ATOM_DEF_STEREO_COUNT>
0

> <PUBCHEM_ATOM_UDEF_STEREO_COUNT>
0

> <PUBCHEM_BOND_DEF_STEREO_COUNT>
0

> <PUBCHEM_BOND_UDEF_STEREO_COUNT>
0

> <PUBCHEM_ISOTOPIC_ATOM_COUNT>
0

> <PUBCHEM_COMPONENT_COUNT>
1

> <PUBCHEM_CACTVS_TAUTO_COUNT>
4

> <PUBCHEM_CONFORMER_ID>
0001C18C00000001

> <PUBCHEM_MMFF94_ENERGY>
25.6145

> <PUBCHEM_FEATURE_SELFOVERLAP>
20.297

> <PUBCHEM_SHAPE_FINGERPRINT>
10608611 8 18338235942697488305
11471102 20 18410295826116326964
12932764 1 17346331392023425035
13380535 76 18408886200675665942
13922767 16 18408889554891753656
14325111 11 18410855434653848075
14415576 193 18410289220303768445
14897335 6 18335705983774741170
14911166 2 18336817659166663662
15442244 35 18120935272101534282
15775835 57 18411698777173009317
18186145 218 18187917396069904003
20281407 28 9295294945229702343
20606313 2 18408323306377107652
20645477 70 18261391199539218567
23402539 116 18186811278698102372
23402655 69 18260548930771988965
25 1 18411983580570240679
276578 36 16845576430513329362
6430166 295 18412267250269867337

> <PUBCHEM_SHAPE_MULTIPOLES>
230.23
7.18
1.63
0.59
5
0.04
0
-2.31
-0.12
-0.18
0
-0.02
0.01
0.02

> <PUBCHEM_SHAPE_SELFOVERLAP>
472.222

> <PUBCHEM_SHAPE_VOLUME>
131.2

> <PUBCHEM_COORDINATE_TYPE>
2
5
10

$$$$

