31404
  -OEChem-07051213053D

 40 40  0     0  0  0  0  0  0999 V2000
    0.0079   -1.9528   -0.0005 O   0  0  0  0  0  0  0  0  0  0  0  0
   -2.5157   -0.6433    0.0011 C   0  0  0  0  0  0  0  0  0  0  0  0
    2.5068   -0.5969   -0.0025 C   0  0  0  0  0  0  0  0  0  0  0  0
   -1.1805    0.1195    0.0002 C   0  0  0  0  0  0  0  0  0  0  0  0
    1.1968    0.1198   -0.0018 C   0  0  0  0  0  0  0  0  0  0  0  0
   -0.0047   -0.5887   -0.0004 C   0  0  0  0  0  0  0  0  0  0  0  0
   -1.2319    1.4923   -0.0006 C   0  0  0  0  0  0  0  0  0  0  0  0
    1.1838    1.5146   -0.0026 C   0  0  0  0  0  0  0  0  0  0  0  0
   -3.6879    0.3616    0.0011 C   0  0  0  0  0  0  0  0  0  0  0  0
   -2.6068   -1.5297    1.2621 C   0  0  0  0  0  0  0  0  0  0  0  0
   -2.7079   -1.5687   -1.2217 C   0  0  0  0  0  0  0  0  0  0  0  0
    2.5070   -1.9923    0.7039 C   0  0  0  0  0  0  0  0  0  0  0  0
    3.0017   -0.8662   -1.4567 C   0  0  0  0  0  0  0  0  0  0  0  0
    3.6063    0.2376    0.7231 C   0  0  0  0  0  0  0  0  0  0  0  0
   -0.0305    2.2009   -0.0020 C   0  0  0  0  0  0  0  0  0  0  0  0
   -0.0443    3.6922   -0.0027 C   0  0  0  0  0  0  0  0  0  0  0  0
   -2.1329    2.0904   -0.0043 H   0  0  0  0  0  0  0  0  0  0  0  0
    2.0930    2.1046   -0.0334 H   0  0  0  0  0  0  0  0  0  0  0  0
   -3.7145    0.9835   -0.9019 H   0  0  0  0  0  0  0  0  0  0  0  0
   -3.7037    0.9949    0.8966 H   0  0  0  0  0  0  0  0  0  0  0  0
   -4.6437   -0.1797    0.0141 H   0  0  0  0  0  0  0  0  0  0  0  0
   -1.9229   -2.3824    1.2564 H   0  0  0  0  0  0  0  0  0  0  0  0
   -3.6157   -1.9476    1.3668 H   0  0  0  0  0  0  0  0  0  0  0  0
   -2.4027   -0.9472    2.1687 H   0  0  0  0  0  0  0  0  0  0  0  0
   -2.0011   -2.4024   -1.2484 H   0  0  0  0  0  0  0  0  0  0  0  0
   -2.5837   -1.0072   -2.1552 H   0  0  0  0  0  0  0  0  0  0  0  0
   -3.7124   -2.0084   -1.2299 H   0  0  0  0  0  0  0  0  0  0  0  0
    3.5334   -2.3099    0.9302 H   0  0  0  0  0  0  0  0  0  0  0  0
    1.9732   -1.9611    1.6607 H   0  0  0  0  0  0  0  0  0  0  0  0
    2.1098   -2.8008    0.0833 H   0  0  0  0  0  0  0  0  0  0  0  0
    3.1163    0.0724   -2.0117 H   0  0  0  0  0  0  0  0  0  0  0  0
    3.9714   -1.3768   -1.4592 H   0  0  0  0  0  0  0  0  0  0  0  0
    2.2900   -1.4879   -2.0116 H   0  0  0  0  0  0  0  0  0  0  0  0
    4.5299   -0.3429    0.8400 H   0  0  0  0  0  0  0  0  0  0  0  0
    3.8984    1.1317    0.1617 H   0  0  0  0  0  0  0  0  0  0  0  0
    3.2837    0.5402    1.7263 H   0  0  0  0  0  0  0  0  0  0  0  0
   -0.8758    4.0777    0.5971 H   0  0  0  0  0  0  0  0  0  0  0  0
   -0.1445    4.0662   -1.0265 H   0  0  0  0  0  0  0  0  0  0  0  0
    0.8759    4.1009    0.4287 H   0  0  0  0  0  0  0  0  0  0  0  0
    0.3642   -2.2241   -0.8650 H   0  0  0  0  0  0  0  0  0  0  0  0
  1  6  1  0  0  0  0
  1 40  1  0  0  0  0
  2  4  1  0  0  0  0
  2  9  1  0  0  0  0
  2 10  1  0  0  0  0
  2 11  1  0  0  0  0
  3  5  1  0  0  0  0
  3 12  1  0  0  0  0
  3 13  1  0  0  0  0
  3 14  1  0  0  0  0
  4  6  2  0  0  0  0
  4  7  1  0  0  0  0
  5  6  1  0  0  0  0
  5  8  2  0  0  0  0
  7 15  2  0  0  0  0
  7 17  1  0  0  0  0
  8 15  1  0  0  0  0
  8 18  1  0  0  0  0
  9 19  1  0  0  0  0
  9 20  1  0  0  0  0
  9 21  1  0  0  0  0
 10 22  1  0  0  0  0
 10 23  1  0  0  0  0
 10 24  1  0  0  0  0
 11 25  1  0  0  0  0
 11 26  1  0  0  0  0
 11 27  1  0  0  0  0
 12 28  1  0  0  0  0
 12 29  1  0  0  0  0
 12 30  1  0  0  0  0
 13 31  1  0  0  0  0
 13 32  1  0  0  0  0
 13 33  1  0  0  0  0
 14 34  1  0  0  0  0
 14 35  1  0  0  0  0
 14 36  1  0  0  0  0
 15 16  1  0  0  0  0
 16 37  1  0  0  0  0
 16 38  1  0  0  0  0
 16 39  1  0  0  0  0
M  END
> <PUBCHEM_COMPOUND_CID>
31404

> <PUBCHEM_CONFORMER_RMSD>
0.6

> <PUBCHEM_CONFORMER_DIVERSEORDER>
1
2

> <PUBCHEM_MMFF94_PARTIAL_CHARGES>
13
1 -0.53
15 -0.14
16 0.14
17 0.15
18 0.15
2 0.14
3 0.14
4 -0.14
40 0.45
5 -0.14
6 0.08
7 -0.15
8 -0.15

> <PUBCHEM_EFFECTIVE_ROTOR_COUNT>
2

> <PUBCHEM_PHARMACOPHORE_FEATURES>
4
1 1 donor
4 2 9 10 11 hydrophobe
4 3 12 13 14 hydrophobe
6 4 5 6 7 8 15 rings

> <PUBCHEM_HEAVY_ATOM_COUNT>
16

> <PUBCHEM_ATOM_DEF_STEREO_COUNT>
0

> <PUBCHEM_ATOM_UDEF_STEREO_COUNT>
0

> <PUBCHEM_BOND_DEF_STEREO_COUNT>
0

> <PUBCHEM_BOND_UDEF_STEREO_COUNT>
0

> <PUBCHEM_ISOTOPIC_ATOM_COUNT>
0

> <PUBCHEM_COMPONENT_COUNT>
1

> <PUBCHEM_CACTVS_TAUTO_COUNT>
2

> <PUBCHEM_CONFORMER_ID>
00007AAC00000001

> <PUBCHEM_MMFF94_ENERGY>
76.8687

> <PUBCHEM_FEATURE_SELFOVERLAP>
20.297

> <PUBCHEM_SHAPE_FINGERPRINT>
10130415 120 18272371970831372865
104564 63 18193831763404583501
10618630 7 18412262861050654670
108231 29 18271517590098672130
10967382 1 18410858754389196393
11132069 177 18187370930227410010
12553582 1 18411134744735212299
12759256 9 18120655734123555341
13132413 78 18408603630392572085
13140716 1 18410571816198696585
13296908 3 18408600357516612302
13538477 17 18056473096167697812
14022347 108 18269258209614773187
14115302 16 17775558758528342239
14181834 199 18052830147482597996
14252887 29 18187636990561454402
14289901 80 15647060330354905207
14614273 12 18057330689061514165
14648413 74 18197780990566313233
14817 1 11487794433042669757
15490181 8 17617946828840046593
15848700 24 18334018306424692637
16752209 62 18052545657596912229
16945 1 17847061086103379198
17990270 104 18267305326819368209
19591789 44 17116901527778364400
19868273 325 18410009957214064181
20361792 2 18335701624288022967
20388701 513 18338247058399995472
20510252 161 18190746529740858304
20645476 183 17477182295418365556
20645477 70 18120098273792849775
20711985 344 18192980750131782612
20871998 184 18189901000740081644
20871998 22 18335132090207629030
21041028 32 18338218381045915105
21296965 67 18409166606278996121
21501502 16 17980195610783093090
21524375 3 17331400281711023077
22802520 49 17899405669664520398
2334 1 18410572842716926921
23388829 49 18336552633381939900
23402539 116 18335151873238652518
23419403 2 17767168308093302972
23463225 33 18412263964593408195
23557571 272 18335983181386154740
23558518 356 17621034700146701779
23559900 14 18265054807533723606
2748010 2 18409454678040896748
3091708 16 9139175289086165928
31174 14 17910091535575642499
3312278 4 18273207612448051850
34934 24 18410584997510908121
352729 6 17546166766983352097
4175511 71 18336531742803560421
589210 1 17690560109989087159
5902787 121 18201160940453831690
6992083 37 18040988540796154919
7364860 26 18046907074006778273
74978 22 18338517413790792223
81228 2 18267296723784012328

> <PUBCHEM_SHAPE_MULTIPOLES>
323.4
5.34
2.94
1.01
0.11
2.7
-0.14
-2.53
0.02
-0.11
0.1
0.08
-0.48
0.05

> <PUBCHEM_SHAPE_SELFOVERLAP>
667.797

> <PUBCHEM_SHAPE_VOLUME>
190.2

> <PUBCHEM_COORDINATE_TYPE>
2
5
10

$$$$

