443462
  -OEChem-07051213022D

 47 50  0     1  0  0  0  0  0999 V2000
    2.9693   -2.1867    0.0000 O   0  0  0  0  0  0  0  0  0  0  0  0
    7.7163   -0.7029    0.0000 O   0  0  0  0  0  0  0  0  0  0  0  0
    6.5172   -1.9528    0.0000 O   0  0  0  0  0  0  0  0  0  0  0  0
    5.3658   -2.8706    0.0000 O   0  0  0  0  0  0  0  0  0  0  0  0
    2.0000   -0.3892    0.0000 O   0  0  0  0  0  0  0  0  0  0  0  0
    3.6340   -2.8402    0.0000 O   0  0  0  0  0  0  0  0  0  0  0  0
    6.1703    0.6954    0.0000 C   0  0  1  0  0  0  0  0  0  0  0  0
    5.2693    1.1292    0.0000 C   0  0  2  0  0  0  0  0  0  0  0  0
    6.0343   -0.2894    0.0000 C   0  0  2  0  0  0  0  0  0  0  0  0
    5.0561   -0.4660    0.0000 C   0  0  1  0  0  0  0  0  0  0  0  0
    6.0635    1.8721    0.0000 C   0  0  0  0  0  0  0  0  0  0  0  0
    6.6703    2.8860    0.0000 C   0  0  1  0  0  0  0  0  0  0  0  0
    7.0713    1.1292    0.0000 C   0  0  0  0  0  0  0  0  0  0  0  0
    4.5842    0.4089    0.0000 C   0  0  0  0  0  0  0  0  0  0  0  0
    5.0468    2.1042    0.0000 C   0  0  0  0  0  0  0  0  0  0  0  0
    5.6703    2.8860    0.0000 C   0  0  0  0  0  0  0  0  0  0  0  0
    4.5262   -1.3556    0.0000 C   0  0  2  0  0  0  0  0  0  0  0  0
    7.2938    2.1042    0.0000 C   0  0  0  0  0  0  0  0  0  0  0  0
    3.4909   -1.3335    0.0000 C   0  0  2  0  0  0  0  0  0  0  0  0
    6.7559   -0.9817    0.0000 C   0  0  0  0  0  0  0  0  0  0  0  0
    3.5498    0.4550    0.0000 C   0  0  0  0  0  0  0  0  0  0  0  0
    5.3833   -1.8707    0.0000 C   0  0  0  0  0  0  0  0  0  0  0  0
    2.9995   -0.4221    0.0000 C   0  0  0  0  0  0  0  0  0  0  0  0
    4.5087   -2.3555    0.0000 C   0  0  0  0  0  0  0  0  0  0  0  0
    8.2687    2.3267    0.0000 C   0  0  0  0  0  0  0  0  0  0  0  0
    4.5035    1.4980    0.0000 H   0  0  0  0  0  0  0  0  0  0  0  0
    6.6200   -0.0859    0.0000 H   0  0  0  0  0  0  0  0  0  0  0  0
    5.5403   -1.1646    0.0000 H   0  0  0  0  0  0  0  0  0  0  0  0
    5.6557    2.3391    0.0000 H   0  0  0  0  0  0  0  0  0  0  0  0
    5.4934    1.6283    0.0000 H   0  0  0  0  0  0  0  0  0  0  0  0
    6.8595    3.7147    0.0000 H   0  0  0  0  0  0  0  0  0  0  0  0
    7.2092    0.5248    0.0000 H   0  0  0  0  0  0  0  0  0  0  0  0
    7.6913    1.1292    0.0000 H   0  0  0  0  0  0  0  0  0  0  0  0
    4.6603    2.5889    0.0000 H   0  0  0  0  0  0  0  0  0  0  0  0
    4.4882    1.8352    0.0000 H   0  0  0  0  0  0  0  0  0  0  0  0
    5.8083    3.4904    0.0000 H   0  0  0  0  0  0  0  0  0  0  0  0
    5.1117    3.1550    0.0000 H   0  0  0  0  0  0  0  0  0  0  0  0
    2.8712   -1.3167    0.0000 H   0  0  0  0  0  0  0  0  0  0  0  0
    3.2619    1.0041    0.0000 H   0  0  0  0  0  0  0  0  0  0  0  0
    5.0640   -2.4021    0.0000 H   0  0  0  0  0  0  0  0  0  0  0  0
    5.9147   -2.1900    0.0000 H   0  0  0  0  0  0  0  0  0  0  0  0
    5.7026   -1.3393    0.0000 H   0  0  0  0  0  0  0  0  0  0  0  0
    8.6904    1.8722    0.0000 H   0  0  0  0  0  0  0  0  0  0  0  0
    8.4515    2.9191    0.0000 H   0  0  0  0  0  0  0  0  0  0  0  0
    2.3495   -2.1711    0.0000 H   0  0  0  0  0  0  0  0  0  0  0  0
    8.1637   -1.1322    0.0000 H   0  0  0  0  0  0  0  0  0  0  0  0
    5.3550   -3.4904    0.0000 H   0  0  0  0  0  0  0  0  0  0  0  0
 19  1  1  1  0  0  0
  1 45  1  0  0  0  0
  2 20  1  0  0  0  0
  2 46  1  0  0  0  0
  3 20  2  0  0  0  0
  4 24  1  0  0  0  0
  4 47  1  0  0  0  0
  5 23  2  0  0  0  0
  6 24  2  0  0  0  0
  7  8  1  0  0  0  0
  7  9  1  0  0  0  0
  7 11  1  6  0  0  0
  7 13  1  0  0  0  0
  8 14  1  0  0  0  0
  8 15  1  0  0  0  0
  8 26  1  1  0  0  0
  9 10  1  0  0  0  0
  9 20  1  1  0  0  0
  9 27  1  0  0  0  0
 10 14  1  0  0  0  0
 10 17  1  0  0  0  0
 10 28  1  1  0  0  0
 11 12  1  0  0  0  0
 11 29  1  0  0  0  0
 11 30  1  0  0  0  0
 12 16  1  0  0  0  0
 12 18  1  0  0  0  0
 12 31  1  6  0  0  0
 13 18  1  0  0  0  0
 13 32  1  0  0  0  0
 13 33  1  0  0  0  0
 14 21  2  0  0  0  0
 15 16  1  0  0  0  0
 15 34  1  0  0  0  0
 15 35  1  0  0  0  0
 16 36  1  0  0  0  0
 16 37  1  0  0  0  0
 17 19  1  0  0  0  0
 17 22  1  1  0  0  0
 17 24  1  0  0  0  0
 18 25  2  0  0  0  0
 19 23  1  0  0  0  0
 19 38  1  0  0  0  0
 21 23  1  0  0  0  0
 21 39  1  0  0  0  0
 22 40  1  0  0  0  0
 22 41  1  0  0  0  0
 22 42  1  0  0  0  0
 25 43  1  0  0  0  0
 25 44  1  0  0  0  0
M  END
> <PUBCHEM_COMPOUND_CID>
443462

> <PUBCHEM_COMPOUND_CANONICALIZED>
1

> <PUBCHEM_CACTVS_COMPLEXITY>
751

> <PUBCHEM_CACTVS_HBOND_ACCEPTOR>
6

> <PUBCHEM_CACTVS_HBOND_DONOR>
3

> <PUBCHEM_CACTVS_ROTATABLE_BOND>
2

> <PUBCHEM_CACTVS_SUBSKEYS>
AAADceB4OAAAAAAAAAAAAAAAAAAAAYMAAAAwQAAABgAAAGDAAAAAGgAACAAADxSggAICCAAAAgCIAqDSCAIAAAAgAAAACAFAAEgAEBYAAQAAQAAF4AAIAQOL7vTPgAAAAAAAAACAAAQAACAAAQAACAAAAA==

> <PUBCHEM_IUPAC_INCHI>
InChI=1S/C19H22O6/c1-8-6-19-7-9(8)3-4-11(19)10-5-12(20)15(21)18(2,17(24)25)13(10)14(19)16(22)23/h5,9,11,13-15,21H,1,3-4,6-7H2,2H3,(H,22,23)(H,24,25)/t9-,11+,13-,14-,15+,18+,19+/m1/s1

> <PUBCHEM_IUPAC_INCHIKEY>
ZHUFJGRQVHLFRM-ONBGMUNTSA-N

> <PUBCHEM_XLOGP3_AA>
1.2

> <PUBCHEM_EXACT_MASS>
346.141638

> <PUBCHEM_MOLECULAR_FORMULA>
C19H22O6

> <PUBCHEM_MOLECULAR_WEIGHT>
346.37438

> <PUBCHEM_OPENEYE_CAN_SMILES>
CC1(C2C(C34CC(CCC3C2=CC(=O)C1O)C(=C)C4)C(=O)O)C(=O)O

> <PUBCHEM_OPENEYE_ISO_SMILES>
C[C@@]1([C@H]2[C@@H]([C@@]34C[C@@H](CC[C@H]3C2=CC(=O)[C@@H]1O)C(=C)C4)C(=O)O)C(=O)O

> <PUBCHEM_CACTVS_TPSA>
112

> <PUBCHEM_MONOISOTOPIC_WEIGHT>
346.141638

> <PUBCHEM_TOTAL_CHARGE>
0

> <PUBCHEM_HEAVY_ATOM_COUNT>
25

> <PUBCHEM_ATOM_DEF_STEREO_COUNT>
7

> <PUBCHEM_ATOM_UDEF_STEREO_COUNT>
0

> <PUBCHEM_BOND_DEF_STEREO_COUNT>
0

> <PUBCHEM_BOND_UDEF_STEREO_COUNT>
0

> <PUBCHEM_ISOTOPIC_ATOM_COUNT>
0

> <PUBCHEM_COMPONENT_COUNT>
1

> <PUBCHEM_CACTVS_TAUTO_COUNT>
13

> <PUBCHEM_COORDINATE_TYPE>
1
5
255

> <PUBCHEM_BONDANNOTATIONS>
19  1  5
10  28  5
12  31  6
17  22  5
7  11  6
8  26  5
9  20  5

$$$$

