14845451
  -OEChem-07051212572D

 50 52  0     1  0  0  0  0  0999 V2000
    5.1482    2.5376    0.0000 O   0  0  0  0  0  0  0  0  0  0  0  0
    5.7812   -0.6709    0.0000 O   0  0  0  0  0  0  0  0  0  0  0  0
    3.1645    2.6103    0.0000 O   0  0  0  0  0  0  0  0  0  0  0  0
    4.6840   -2.1583    0.0000 O   0  0  0  0  0  0  0  0  0  0  0  0
    6.8881    2.8958    0.0000 O   0  0  0  0  0  0  0  0  0  0  0  0
    7.4789   -0.3277    0.0000 O   0  0  0  0  0  0  0  0  0  0  0  0
    4.0984   -0.4813    0.0000 C   0  0  2  0  0  0  0  0  0  0  0  0
    3.1974   -0.0474    0.0000 C   0  0  2  0  0  0  0  0  0  0  0  0
    4.9994   -0.0474    0.0000 C   0  0  2  0  0  0  0  0  0  0  0  0
    2.9749    0.9275    0.0000 C   0  0  1  0  0  0  0  0  0  0  0  0
    5.2219    0.9275    0.0000 C   0  0  1  0  0  0  0  0  0  0  0  0
    4.5984    1.7094    0.0000 C   0  0  1  0  0  0  0  0  0  0  0  0
    3.5984    1.7094    0.0000 C   0  0  2  0  0  0  0  0  0  0  0  0
    3.9624   -1.4660    0.0000 C   0  0  0  0  0  0  0  0  0  0  0  0
    4.9994   -0.9152    0.0000 C   0  0  0  0  0  0  0  0  0  0  0  0
    2.5124   -0.7677    0.0000 C   0  0  0  0  0  0  0  0  0  0  0  0
    6.1517    1.2792    0.0000 C   0  0  0  0  0  0  0  0  0  0  0  0
    2.0000    1.1500    0.0000 C   0  0  0  0  0  0  0  0  0  0  0  0
    2.9842   -1.6427    0.0000 C   0  0  0  0  0  0  0  0  0  0  0  0
    6.1062    2.2723    0.0000 C   0  0  0  0  0  0  0  0  0  0  0  0
    7.1449    1.3954    0.0000 C   0  0  0  0  0  0  0  0  0  0  0  0
    6.7292   -0.9894    0.0000 C   0  0  0  0  0  0  0  0  0  0  0  0
    6.9273   -1.9696    0.0000 C   0  0  0  0  0  0  0  0  0  0  0  0
    6.1775   -2.6312    0.0000 C   0  0  0  0  0  0  0  0  0  0  0  0
    7.8752   -2.2880    0.0000 C   0  0  0  0  0  0  0  0  0  0  0  0
    8.6250   -1.6264    0.0000 C   0  0  0  0  0  0  0  0  0  0  0  0
    2.3778    0.1777    0.0000 H   0  0  0  0  0  0  0  0  0  0  0  0
    5.5846    0.1574    0.0000 H   0  0  0  0  0  0  0  0  0  0  0  0
    2.7702    1.5127    0.0000 H   0  0  0  0  0  0  0  0  0  0  0  0
    5.8627    0.3691    0.0000 H   0  0  0  0  0  0  0  0  0  0  0  0
    4.1966    2.4584    0.0000 H   0  0  0  0  0  0  0  0  0  0  0  0
    2.9823    1.7788    0.0000 H   0  0  0  0  0  0  0  0  0  0  0  0
    4.7304   -1.4738    0.0000 H   0  0  0  0  0  0  0  0  0  0  0  0
    5.5580   -1.1842    0.0000 H   0  0  0  0  0  0  0  0  0  0  0  0
    5.2684   -0.3566    0.0000 H   0  0  0  0  0  0  0  0  0  0  0  0
    1.8978   -0.6855    0.0000 H   0  0  0  0  0  0  0  0  0  0  0  0
    2.1380    1.7545    0.0000 H   0  0  0  0  0  0  0  0  0  0  0  0
    1.3955    1.2880    0.0000 H   0  0  0  0  0  0  0  0  0  0  0  0
    1.8620    0.5456    0.0000 H   0  0  0  0  0  0  0  0  0  0  0  0
    2.7152   -2.2013    0.0000 H   0  0  0  0  0  0  0  0  0  0  0  0
    2.5463    2.6566    0.0000 H   0  0  0  0  0  0  0  0  0  0  0  0
    7.5152    0.8981    0.0000 H   0  0  0  0  0  0  0  0  0  0  0  0
    7.3904    1.9647    0.0000 H   0  0  0  0  0  0  0  0  0  0  0  0
    5.7673   -2.1664    0.0000 H   0  0  0  0  0  0  0  0  0  0  0  0
    5.7126   -3.0415    0.0000 H   0  0  0  0  0  0  0  0  0  0  0  0
    6.5878   -3.0961    0.0000 H   0  0  0  0  0  0  0  0  0  0  0  0
    7.9981   -2.8958    0.0000 H   0  0  0  0  0  0  0  0  0  0  0  0
    9.0352   -2.0912    0.0000 H   0  0  0  0  0  0  0  0  0  0  0  0
    9.0899   -1.2161    0.0000 H   0  0  0  0  0  0  0  0  0  0  0  0
    8.2148   -1.1615    0.0000 H   0  0  0  0  0  0  0  0  0  0  0  0
  1 12  1  0  0  0  0
  1 20  1  0  0  0  0
  9  2  1  6  0  0  0
  2 22  1  0  0  0  0
 13  3  1  1  0  0  0
  3 41  1  0  0  0  0
  4 14  2  0  0  0  0
  5 20  2  0  0  0  0
  6 22  2  0  0  0  0
  7  8  1  0  0  0  0
  7  9  1  0  0  0  0
  7 14  1  0  0  0  0
  7 15  1  1  0  0  0
  8 10  1  0  0  0  0
  8 16  1  0  0  0  0
  8 27  1  6  0  0  0
  9 11  1  0  0  0  0
  9 28  1  0  0  0  0
 10 13  1  0  0  0  0
 10 18  1  6  0  0  0
 10 29  1  0  0  0  0
 11 12  1  0  0  0  0
 11 17  1  0  0  0  0
 11 30  1  6  0  0  0
 12 13  1  0  0  0  0
 12 31  1  6  0  0  0
 13 32  1  0  0  0  0
 14 19  1  0  0  0  0
 15 33  1  0  0  0  0
 15 34  1  0  0  0  0
 15 35  1  0  0  0  0
 16 19  2  0  0  0  0
 16 36  1  0  0  0  0
 17 20  1  0  0  0  0
 17 21  2  0  0  0  0
 18 37  1  0  0  0  0
 18 38  1  0  0  0  0
 18 39  1  0  0  0  0
 19 40  1  0  0  0  0
 21 42  1  0  0  0  0
 21 43  1  0  0  0  0
 22 23  1  0  0  0  0
 23 24  1  0  0  0  0
 23 25  2  0  0  0  0
 24 44  1  0  0  0  0
 24 45  1  0  0  0  0
 24 46  1  0  0  0  0
 25 26  1  0  0  0  0
 25 47  1  0  0  0  0
 26 48  1  0  0  0  0
 26 49  1  0  0  0  0
 26 50  1  0  0  0  0
M  END
> <PUBCHEM_COMPOUND_CID>
14845451

> <PUBCHEM_COMPOUND_CANONICALIZED>
1

> <PUBCHEM_CACTVS_COMPLEXITY>
747

> <PUBCHEM_CACTVS_HBOND_ACCEPTOR>
6

> <PUBCHEM_CACTVS_HBOND_DONOR>
1

> <PUBCHEM_CACTVS_ROTATABLE_BOND>
3

> <PUBCHEM_CACTVS_SUBSKEYS>
AAADceB4OAAAAAAAAAAAAAAAAAAAASIAAAAAAAAABgAAAACQAAAAGgAACAAADxSggAICCAAABgCIAqDSCAAAAAAgAAAICAEAAEgBFBYAIQACUAAF4AALIYPK7PzPgAAAAAAAAAAAAAAAAAAAAAAAAAAAAA==

> <PUBCHEM_IUPAC_OPENEYE_NAME>
[(3aS,4R,5S,5aS,8aR,9S,9aS)-4-hydroxy-5,8a-dimethyl-1-methylene-2,8-dioxo-3a,4,5,5a,9,9a-hexahydroazuleno[6,5-b]furan-9-yl] (Z)-2-methylbut-2-enoate

> <PUBCHEM_IUPAC_CAS_NAME>
(Z)-2-methyl-2-butenoic acid [(3aS,4R,5S,5aS,8aR,9S,9aS)-4-hydroxy-5,8a-dimethyl-1-methylene-2,8-dioxo-3a,4,5,5a,9,9a-hexahydroazuleno[6,5-b]furan-9-yl] ester

> <PUBCHEM_IUPAC_NAME>
[(3aS,4R,5S,5aS,8aR,9S,9aS)-4-hydroxy-5,8a-dimethyl-1-methylidene-2,8-dioxo-3a,4,5,5a,9,9a-hexahydroazuleno[6,5-b]furan-9-yl] (Z)-2-methylbut-2-enoate

> <PUBCHEM_IUPAC_SYSTEMATIC_NAME>
[(3aS,4R,5S,5aS,8aR,9S,9aS)-5,8a-dimethyl-1-methylidene-4-oxidanyl-2,8-bis(oxidanylidene)-3a,4,5,5a,9,9a-hexahydroazuleno[6,5-b]furan-9-yl] (Z)-2-methylbut-2-enoate

> <PUBCHEM_IUPAC_TRADITIONAL_NAME>
(Z)-2-methylbut-2-enoic acid [(3aS,4R,5S,5aS,8aR,9S,9aS)-4-hydroxy-2,8-diketo-5,8a-dimethyl-1-methylene-3a,4,5,5a,9,9a-hexahydroazuleno[6,5-b]furan-9-yl] ester

> <PUBCHEM_IUPAC_INCHI>
InChI=1S/C20H24O6/c1-6-9(2)18(23)26-17-14-11(4)19(24)25-16(14)15(22)10(3)12-7-8-13(21)20(12,17)5/h6-8,10,12,14-17,22H,4H2,1-3,5H3/b9-6-/t10-,12-,14+,15+,16-,17-,20-/m0/s1

> <PUBCHEM_IUPAC_INCHIKEY>
UQFKZAAOUCMTRM-NMEMHIFPSA-N

> <PUBCHEM_XLOGP3_AA>
2.2

> <PUBCHEM_EXACT_MASS>
360.157288

> <PUBCHEM_MOLECULAR_FORMULA>
C20H24O6

> <PUBCHEM_MOLECULAR_WEIGHT>
360.40096

> <PUBCHEM_OPENEYE_CAN_SMILES>
CC=C(C)C(=O)OC1C2C(C(C(C3C1(C(=O)C=C3)C)C)O)OC(=O)C2=C

> <PUBCHEM_OPENEYE_ISO_SMILES>
C/C=C(/C)\C(=O)O[C@H]1[C@H]2[C@@H]([C@@H]([C@H]([C@H]3[C@]1(C(=O)C=C3)C)C)O)OC(=O)C2=C

> <PUBCHEM_CACTVS_TPSA>
89.9

> <PUBCHEM_MONOISOTOPIC_WEIGHT>
360.157288

> <PUBCHEM_TOTAL_CHARGE>
0

> <PUBCHEM_HEAVY_ATOM_COUNT>
26

> <PUBCHEM_ATOM_DEF_STEREO_COUNT>
7

> <PUBCHEM_ATOM_UDEF_STEREO_COUNT>
0

> <PUBCHEM_BOND_DEF_STEREO_COUNT>
1

> <PUBCHEM_BOND_UDEF_STEREO_COUNT>
0

> <PUBCHEM_ISOTOPIC_ATOM_COUNT>
0

> <PUBCHEM_COMPONENT_COUNT>
1

> <PUBCHEM_CACTVS_TAUTO_COUNT>
3

> <PUBCHEM_COORDINATE_TYPE>
1
5
255

> <PUBCHEM_BONDANNOTATIONS>
10  18  6
11  30  6
12  31  6
9  2  6
13  3  5
7  15  5
8  27  6

$$$$

