442192
  -OEChem-07051212573D

 37 39  0     1  0  0  0  0  0999 V2000
    1.4505   -1.4035   -0.2006 O   0  0  0  0  0  0  0  0  0  0  0  0
    3.7373   -1.7525   -0.2055 O   0  0  0  0  0  0  0  0  0  0  0  0
   -1.5174    1.0427    0.0979 C   0  0  1  0  0  0  0  0  0  0  0  0
   -0.7971   -0.2958   -0.3090 C   0  0  1  0  0  0  0  0  0  0  0  0
    0.6515   -0.2826    0.2019 C   0  0  2  0  0  0  0  0  0  0  0  0
   -0.6764    2.2756   -0.3558 C   0  0  0  0  0  0  0  0  0  0  0  0
    1.3910    0.8968   -0.4061 C   0  0  1  0  0  0  0  0  0  0  0  0
   -2.9013    1.0858   -0.6089 C   0  0  0  0  0  0  0  0  0  0  0  0
    0.8024    2.2138    0.0668 C   0  0  0  0  0  0  0  0  0  0  0  0
   -1.6695   -1.4839    0.0660 C   0  0  0  0  0  0  0  0  0  0  0  0
   -3.7646   -0.1509   -0.3282 C   0  0  0  0  0  0  0  0  0  0  0  0
   -1.7348    1.1517    1.6304 C   0  0  0  0  0  0  0  0  0  0  0  0
   -3.0245   -1.4613   -0.6045 C   0  0  0  0  0  0  0  0  0  0  0  0
    2.7709    0.4692   -0.0734 C   0  0  0  0  0  0  0  0  0  0  0  0
    2.7697   -1.0163   -0.1537 C   0  0  0  0  0  0  0  0  0  0  0  0
   -1.3308   -2.4705    0.9098 C   0  0  0  0  0  0  0  0  0  0  0  0
    3.8429    1.1817    0.2728 C   0  0  0  0  0  0  0  0  0  0  0  0
   -0.7318   -0.3322   -1.4083 H   0  0  0  0  0  0  0  0  0  0  0  0
    0.6637   -0.2587    1.3011 H   0  0  0  0  0  0  0  0  0  0  0  0
   -1.1220    3.2020    0.0278 H   0  0  0  0  0  0  0  0  0  0  0  0
   -0.7126    2.3505   -1.4511 H   0  0  0  0  0  0  0  0  0  0  0  0
    1.3165    0.8616   -1.5042 H   0  0  0  0  0  0  0  0  0  0  0  0
   -2.7527    1.1607   -1.6945 H   0  0  0  0  0  0  0  0  0  0  0  0
   -3.4535    1.9857   -0.3106 H   0  0  0  0  0  0  0  0  0  0  0  0
    1.3432    3.0551   -0.3823 H   0  0  0  0  0  0  0  0  0  0  0  0
    0.8990    2.3219    1.1529 H   0  0  0  0  0  0  0  0  0  0  0  0
   -4.6679   -0.1082   -0.9484 H   0  0  0  0  0  0  0  0  0  0  0  0
   -4.1083   -0.1352    0.7130 H   0  0  0  0  0  0  0  0  0  0  0  0
   -0.7922    1.1909    2.1834 H   0  0  0  0  0  0  0  0  0  0  0  0
   -2.2885    2.0654    1.8764 H   0  0  0  0  0  0  0  0  0  0  0  0
   -2.3052    0.3112    2.0361 H   0  0  0  0  0  0  0  0  0  0  0  0
   -2.8830   -1.5793   -1.6863 H   0  0  0  0  0  0  0  0  0  0  0  0
   -3.6495   -2.3011   -0.2785 H   0  0  0  0  0  0  0  0  0  0  0  0
   -0.3726   -2.4985    1.4145 H   0  0  0  0  0  0  0  0  0  0  0  0
   -2.0184   -3.2817    1.1270 H   0  0  0  0  0  0  0  0  0  0  0  0
    3.7969    2.2637    0.3329 H   0  0  0  0  0  0  0  0  0  0  0  0
    4.7904    0.7070    0.5038 H   0  0  0  0  0  0  0  0  0  0  0  0
  1  5  1  0  0  0  0
  1 15  1  0  0  0  0
  2 15  2  0  0  0  0
  3  4  1  0  0  0  0
  3  6  1  0  0  0  0
  3  8  1  0  0  0  0
  3 12  1  0  0  0  0
  4  5  1  0  0  0  0
  4 10  1  0  0  0  0
  4 18  1  0  0  0  0
  5  7  1  0  0  0  0
  5 19  1  0  0  0  0
  6  9  1  0  0  0  0
  6 20  1  0  0  0  0
  6 21  1  0  0  0  0
  7  9  1  0  0  0  0
  7 14  1  0  0  0  0
  7 22  1  0  0  0  0
  8 11  1  0  0  0  0
  8 23  1  0  0  0  0
  8 24  1  0  0  0  0
  9 25  1  0  0  0  0
  9 26  1  0  0  0  0
 10 13  1  0  0  0  0
 10 16  2  0  0  0  0
 11 13  1  0  0  0  0
 11 27  1  0  0  0  0
 11 28  1  0  0  0  0
 12 29  1  0  0  0  0
 12 30  1  0  0  0  0
 12 31  1  0  0  0  0
 13 32  1  0  0  0  0
 13 33  1  0  0  0  0
 14 15  1  0  0  0  0
 14 17  2  0  0  0  0
 16 34  1  0  0  0  0
 16 35  1  0  0  0  0
 17 36  1  0  0  0  0
 17 37  1  0  0  0  0
M  END
> <PUBCHEM_COMPOUND_CID>
442192

> <PUBCHEM_CONFORMER_RMSD>
0.6

> <PUBCHEM_CONFORMER_DIVERSEORDER>
1

> <PUBCHEM_MMFF94_PARTIAL_CHARGES>
15
1 -0.43
10 -0.28
13 0.14
14 -0.12
15 0.71
16 -0.3
17 -0.3
2 -0.57
34 0.15
35 0.15
36 0.15
37 0.15
4 0.14
5 0.28
7 0.14

> <PUBCHEM_EFFECTIVE_ROTOR_COUNT>
1.2

> <PUBCHEM_PHARMACOPHORE_FEATURES>
4
1 2 acceptor
5 1 5 7 14 15 rings
6 3 4 5 6 7 9 rings
6 3 4 8 10 11 13 rings

> <PUBCHEM_HEAVY_ATOM_COUNT>
17

> <PUBCHEM_ATOM_DEF_STEREO_COUNT>
4

> <PUBCHEM_ATOM_UDEF_STEREO_COUNT>
0

> <PUBCHEM_BOND_DEF_STEREO_COUNT>
0

> <PUBCHEM_BOND_UDEF_STEREO_COUNT>
0

> <PUBCHEM_ISOTOPIC_ATOM_COUNT>
0

> <PUBCHEM_COMPONENT_COUNT>
1

> <PUBCHEM_CACTVS_TAUTO_COUNT>
1

> <PUBCHEM_CONFORMER_ID>
0006BF5000000001

> <PUBCHEM_MMFF94_ENERGY>
45.4455

> <PUBCHEM_FEATURE_SELFOVERLAP>
20.388

> <PUBCHEM_SHAPE_FINGERPRINT>
10608611 8 18410862048771816604
10967382 1 18339361868368691046
11132069 177 18409737269830202784
11680986 33 18338516322399353841
12382932 28 18411419492756330712
13140716 1 18338228366654818242
13380535 76 18411704261688231070
14115302 16 18059849541399086039
14144814 61 18411136943715906090
14251745 187 18338242565705721224
14289901 80 15791448236137797932
15001771 113 18266169544240386673
15196674 1 18410577292571655341
15442244 35 18337390564611508234
15536298 74 18334014999537166860
16945 1 18268140964220155613
18186145 218 18201728391728118935
19591789 44 16533120823872935764
200 152 17968102997174819735
20201158 50 18339083670515473631
20510252 161 18335703870719682945
21267235 1 18410285926053569142
21501502 16 18335415798794173864
22721475 48 18337951186392020269
2334 1 18410569557383248750
23388829 49 18117843192138437692
23402539 116 18335714878493885895
23419403 2 16605272568010213657
23463225 33 18410855460307607508
23559900 14 18336554906073611298
2748010 2 18409722933435097134
3286 77 17096102379679358194
3312278 4 18338232639820002442
335352 9 18194684993007103781
34934 24 18337963293910063532
353137 74 18412552028424477899
427121 178 15723570006504427329
5104073 3 18409731767887309707
69090 78 18410016537446989391
7364860 26 18191308169576364064
81228 2 18340198678380167368
8809292 202 18341891909165088810
9709674 26 18410292480384750398

> <PUBCHEM_SHAPE_MULTIPOLES>
338.11
5.92
2.5
0.91
2.44
0.21
-0.28
1.06
0.62
-0.1
-0.19
-0.46
-0.1
0.14

> <PUBCHEM_SHAPE_SELFOVERLAP>
721.897

> <PUBCHEM_SHAPE_VOLUME>
186.7

> <PUBCHEM_COORDINATE_TYPE>
2
5
10

$$$$

