11954155
  -OEChem-07051213072D

 52 55  0     1  0  0  0  0  0999 V2000
    2.0969   -3.5541    0.0000 O   0  0  0  0  0  0  0  0  0  0  0  0
    2.9316    4.1741    0.0000 O   0  0  0  0  0  0  0  0  0  0  0  0
    3.8507   -0.5226    0.0000 C   0  0  1  0  0  0  0  0  0  0  0  0
    3.8507   -1.5226    0.0000 C   0  0  1  0  0  0  0  0  0  0  0  0
    2.9847   -0.0226    0.0000 C   0  0  1  0  0  0  0  0  0  0  0  0
    2.9847   -2.0226    0.0000 C   0  0  2  0  0  0  0  0  0  0  0  0
    2.9686    1.0189    0.0000 C   0  0  2  0  0  0  0  0  0  0  0  0
    2.1187   -0.5226    0.0000 C   0  0  0  0  0  0  0  0  0  0  0  0
    2.1187   -1.5226    0.0000 C   0  0  0  0  0  0  0  0  0  0  0  0
    4.7607   -0.0158    0.0000 C   0  0  0  0  0  0  0  0  0  0  0  0
    2.9686   -3.0642    0.0000 C   0  0  2  0  0  0  0  0  0  0  0  0
    4.7607   -2.0295    0.0000 C   0  0  0  0  0  0  0  0  0  0  0  0
    3.8667    1.5466    0.0000 C   0  0  0  0  0  0  0  0  0  0  0  0
    4.7688    1.0258    0.0000 C   0  0  0  0  0  0  0  0  0  0  0  0
    3.8667   -3.5919    0.0000 C   0  0  0  0  0  0  0  0  0  0  0  0
    4.7688   -3.0711    0.0000 C   0  0  0  0  0  0  0  0  0  0  0  0
    2.0167    1.5395    0.0000 C   0  0  0  0  0  0  0  0  0  0  0  0
    2.1187   -2.5226    0.0000 C   0  0  0  0  0  0  0  0  0  0  0  0
    2.1065    0.5122    0.0000 C   0  0  0  0  0  0  0  0  0  0  0  0
    2.0000    2.6244    0.0000 C   0  0  0  0  0  0  0  0  0  0  0  0
    3.8751    2.6316    0.0000 C   0  0  0  0  0  0  0  0  0  0  0  0
    2.9354    3.1741    0.0000 C   0  0  0  0  0  0  0  0  0  0  0  0
    4.5836   -0.9533    0.0000 H   0  0  0  0  0  0  0  0  0  0  0  0
    4.5836   -1.0920    0.0000 H   0  0  0  0  0  0  0  0  0  0  0  0
    2.2453    0.3967    0.0000 H   0  0  0  0  0  0  0  0  0  0  0  0
    1.9066    0.0600    0.0000 H   0  0  0  0  0  0  0  0  0  0  0  0
    1.5081   -0.6303    0.0000 H   0  0  0  0  0  0  0  0  0  0  0  0
    1.5081   -1.4150    0.0000 H   0  0  0  0  0  0  0  0  0  0  0  0
    1.9066   -2.1053    0.0000 H   0  0  0  0  0  0  0  0  0  0  0  0
    4.9653   -0.6011    0.0000 H   0  0  0  0  0  0  0  0  0  0  0  0
    5.3724    0.0856    0.0000 H   0  0  0  0  0  0  0  0  0  0  0  0
    2.9627   -3.6841    0.0000 H   0  0  0  0  0  0  0  0  0  0  0  0
    5.3724   -2.1309    0.0000 H   0  0  0  0  0  0  0  0  0  0  0  0
    4.9653   -1.4442    0.0000 H   0  0  0  0  0  0  0  0  0  0  0  0
    5.3788    0.9150    0.0000 H   0  0  0  0  0  0  0  0  0  0  0  0
    4.9823    1.6079    0.0000 H   0  0  0  0  0  0  0  0  0  0  0  0
    3.4657   -4.0648    0.0000 H   0  0  0  0  0  0  0  0  0  0  0  0
    4.2640   -4.0679    0.0000 H   0  0  0  0  0  0  0  0  0  0  0  0
    4.9823   -3.6532    0.0000 H   0  0  0  0  0  0  0  0  0  0  0  0
    5.3788   -2.9603    0.0000 H   0  0  0  0  0  0  0  0  0  0  0  0
    1.4043    1.6361    0.0000 H   0  0  0  0  0  0  0  0  0  0  0  0
    1.8167    0.9526    0.0000 H   0  0  0  0  0  0  0  0  0  0  0  0
    1.8087   -1.9857    0.0000 H   0  0  0  0  0  0  0  0  0  0  0  0
    1.5818   -2.8326    0.0000 H   0  0  0  0  0  0  0  0  0  0  0  0
    2.4287   -3.0596    0.0000 H   0  0  0  0  0  0  0  0  0  0  0  0
    1.7924    1.0467    0.0000 H   0  0  0  0  0  0  0  0  0  0  0  0
    1.5720    0.1981    0.0000 H   0  0  0  0  0  0  0  0  0  0  0  0
    2.4206   -0.0223    0.0000 H   0  0  0  0  0  0  0  0  0  0  0  0
    1.7820    3.2048    0.0000 H   0  0  0  0  0  0  0  0  0  0  0  0
    1.3908    2.5088    0.0000 H   0  0  0  0  0  0  0  0  0  0  0  0
    4.4132    2.9395    0.0000 H   0  0  0  0  0  0  0  0  0  0  0  0
    2.0897   -4.1741    0.0000 H   0  0  0  0  0  0  0  0  0  0  0  0
 11  1  1  6  0  0  0
  1 52  1  0  0  0  0
  2 22  2  0  0  0  0
  3  4  1  0  0  0  0
  3  5  1  0  0  0  0
  3 10  1  0  0  0  0
  3 23  1  6  0  0  0
  4  6  1  0  0  0  0
  4 12  1  0  0  0  0
  4 24  1  1  0  0  0
  5  7  1  0  0  0  0
  5  8  1  0  0  0  0
  5 25  1  1  0  0  0
  6  9  1  0  0  0  0
  6 11  1  0  0  0  0
  6 18  1  6  0  0  0
  7 13  1  0  0  0  0
  7 17  1  0  0  0  0
  7 19  1  6  0  0  0
  8  9  1  0  0  0  0
  8 26  1  0  0  0  0
  8 27  1  0  0  0  0
  9 28  1  0  0  0  0
  9 29  1  0  0  0  0
 10 14  1  0  0  0  0
 10 30  1  0  0  0  0
 10 31  1  0  0  0  0
 11 15  1  0  0  0  0
 11 32  1  0  0  0  0
 12 16  1  0  0  0  0
 12 33  1  0  0  0  0
 12 34  1  0  0  0  0
 13 14  1  0  0  0  0
 13 21  2  0  0  0  0
 14 35  1  0  0  0  0
 14 36  1  0  0  0  0
 15 16  1  0  0  0  0
 15 37  1  0  0  0  0
 15 38  1  0  0  0  0
 16 39  1  0  0  0  0
 16 40  1  0  0  0  0
 17 20  1  0  0  0  0
 17 41  1  0  0  0  0
 17 42  1  0  0  0  0
 18 43  1  0  0  0  0
 18 44  1  0  0  0  0
 18 45  1  0  0  0  0
 19 46  1  0  0  0  0
 19 47  1  0  0  0  0
 19 48  1  0  0  0  0
 20 22  1  0  0  0  0
 20 49  1  0  0  0  0
 20 50  1  0  0  0  0
 21 22  1  0  0  0  0
 21 51  1  0  0  0  0
M  END
> <PUBCHEM_COMPOUND_CID>
11954155

> <PUBCHEM_COMPOUND_CANONICALIZED>
1

> <PUBCHEM_CACTVS_COMPLEXITY>
522

> <PUBCHEM_CACTVS_HBOND_ACCEPTOR>
2

> <PUBCHEM_CACTVS_HBOND_DONOR>
1

> <PUBCHEM_CACTVS_ROTATABLE_BOND>
0

> <PUBCHEM_CACTVS_SUBSKEYS>
AAADceB4MAAAAAAAAAAAAAAAAAAAAAAAAAAwYMEAAAAAAADAAAAAGgAACAAADxSggAICAAAAAgCIAqBSAAAAAAAgAAAACAEAAEgAEBIAAQAAQAAEgAAIAQOIyPCPgAAAAAAAAACAAAYAADAAAAAAAAAAAA==

> <PUBCHEM_IUPAC_OPENEYE_NAME>
(4aR,4bS,6aS,7S,10aS,10bR)-7-hydroxy-4a,6a-dimethyl-4,4b,5,6,7,8,9,10,10a,10b,11,12-dodecahydro-3H-chrysen-2-one

> <PUBCHEM_IUPAC_CAS_NAME>
(4aR,4bS,6aS,7S,10aS,10bR)-7-hydroxy-4a,6a-dimethyl-4,4b,5,6,7,8,9,10,10a,10b,11,12-dodecahydro-3H-chrysen-2-one

> <PUBCHEM_IUPAC_NAME>
(4aR,4bS,6aS,7S,10aS,10bR)-7-hydroxy-4a,6a-dimethyl-4,4b,5,6,7,8,9,10,10a,10b,11,12-dodecahydro-3H-chrysen-2-one

> <PUBCHEM_IUPAC_SYSTEMATIC_NAME>
(4aR,4bS,6aS,7S,10aS,10bR)-4a,6a-dimethyl-7-oxidanyl-4,4b,5,6,7,8,9,10,10a,10b,11,12-dodecahydro-3H-chrysen-2-one

> <PUBCHEM_IUPAC_TRADITIONAL_NAME>
(4aR,4bS,6aS,7S,10aS,10bR)-7-hydroxy-4a,6a-dimethyl-4,4b,5,6,7,8,9,10,10a,10b,11,12-dodecahydro-3H-chrysen-2-one

> <PUBCHEM_IUPAC_INCHI>
InChI=1S/C20H30O2/c1-19-10-8-14(21)12-13(19)6-7-15-16-4-3-5-18(22)20(16,2)11-9-17(15)19/h12,15-18,22H,3-11H2,1-2H3/t15-,16-,17-,18-,19-,20-/m0/s1

> <PUBCHEM_IUPAC_INCHIKEY>
FFZVTLPCFSOGJI-RABCQHRBSA-N

> <PUBCHEM_XLOGP3>
3.9

> <PUBCHEM_EXACT_MASS>
302.22458

> <PUBCHEM_MOLECULAR_FORMULA>
C20H30O2

> <PUBCHEM_MOLECULAR_WEIGHT>
302.451

> <PUBCHEM_OPENEYE_CAN_SMILES>
CC12CCC3C(C1CCCC2O)CCC4=CC(=O)CCC34C

> <PUBCHEM_OPENEYE_ISO_SMILES>
C[C@]12CC[C@H]3[C@H]([C@@H]1CCC[C@@H]2O)CCC4=CC(=O)CC[C@]34C

> <PUBCHEM_CACTVS_TPSA>
37.3

> <PUBCHEM_MONOISOTOPIC_WEIGHT>
302.22458

> <PUBCHEM_TOTAL_CHARGE>
0

> <PUBCHEM_HEAVY_ATOM_COUNT>
22

> <PUBCHEM_ATOM_DEF_STEREO_COUNT>
6

> <PUBCHEM_ATOM_UDEF_STEREO_COUNT>
0

> <PUBCHEM_BOND_DEF_STEREO_COUNT>
0

> <PUBCHEM_BOND_UDEF_STEREO_COUNT>
0

> <PUBCHEM_ISOTOPIC_ATOM_COUNT>
0

> <PUBCHEM_COMPONENT_COUNT>
1

> <PUBCHEM_CACTVS_TAUTO_COUNT>
5

> <PUBCHEM_COORDINATE_TYPE>
1
5
255

> <PUBCHEM_BONDANNOTATIONS>
11  1  6
3  23  6
4  24  5
5  25  5
6  18  6
7  19  6

$$$$

