4224
  -OEChem-06251223582D

 44 44  0     1  0  0  0  0  0999 V2000
    4.2690    0.0950    0.0000 S   0  0  0  0  0  0  0  0  0  0  0  0
    5.2690    0.0950    0.0000 O   0  0  0  0  0  0  0  0  0  0  0  0
    3.2690    0.0950    0.0000 O   0  0  0  0  0  0  0  0  0  0  0  0
    4.2690    3.0950    0.0000 O   0  0  0  0  0  0  0  0  0  0  0  0
    4.2690   -3.9050    0.0000 O   0  0  0  0  0  0  0  0  0  0  0  0
    2.5369    4.0950    0.0000 O   0  0  0  0  0  0  0  0  0  0  0  0
    4.2690    1.0950    0.0000 N   0  0  3  0  0  0  0  0  0  0  0  0
    2.5369    3.0950    0.0000 N   0  0  0  0  0  0  0  0  0  0  0  0
    5.1350    1.5950    0.0000 C   0  0  3  0  0  0  0  0  0  0  0  0
    5.1350    2.5950    0.0000 C   0  0  0  0  0  0  0  0  0  0  0  0
    6.0010    1.0950    0.0000 C   0  0  0  0  0  0  0  0  0  0  0  0
    6.0010    3.0950    0.0000 C   0  0  0  0  0  0  0  0  0  0  0  0
    3.4030    1.5950    0.0000 C   0  0  0  0  0  0  0  0  0  0  0  0
    4.2690   -0.9050    0.0000 C   0  0  0  0  0  0  0  0  0  0  0  0
    6.0010    4.0950    0.0000 C   0  0  0  0  0  0  0  0  0  0  0  0
    3.4030    2.5950    0.0000 C   0  0  0  0  0  0  0  0  0  0  0  0
    3.4030   -1.4050    0.0000 C   0  0  0  0  0  0  0  0  0  0  0  0
    5.1350   -1.4050    0.0000 C   0  0  0  0  0  0  0  0  0  0  0  0
    3.4030   -2.4050    0.0000 C   0  0  0  0  0  0  0  0  0  0  0  0
    5.1350   -2.4050    0.0000 C   0  0  0  0  0  0  0  0  0  0  0  0
    4.2690   -2.9050    0.0000 C   0  0  0  0  0  0  0  0  0  0  0  0
    3.4030   -4.4050    0.0000 C   0  0  0  0  0  0  0  0  0  0  0  0
    5.1350    0.9750    0.0000 H   0  0  0  0  0  0  0  0  0  0  0  0
    4.9230    3.1776    0.0000 H   0  0  0  0  0  0  0  0  0  0  0  0
    4.5244    2.4873    0.0000 H   0  0  0  0  0  0  0  0  0  0  0  0
    5.6910    0.5581    0.0000 H   0  0  0  0  0  0  0  0  0  0  0  0
    6.5380    0.7850    0.0000 H   0  0  0  0  0  0  0  0  0  0  0  0
    6.3110    1.6319    0.0000 H   0  0  0  0  0  0  0  0  0  0  0  0
    6.2131    2.5124    0.0000 H   0  0  0  0  0  0  0  0  0  0  0  0
    6.6116    3.2027    0.0000 H   0  0  0  0  0  0  0  0  0  0  0  0
    2.7924    1.7027    0.0000 H   0  0  0  0  0  0  0  0  0  0  0  0
    3.1909    1.0124    0.0000 H   0  0  0  0  0  0  0  0  0  0  0  0
    6.6210    4.0950    0.0000 H   0  0  0  0  0  0  0  0  0  0  0  0
    6.0010    4.7150    0.0000 H   0  0  0  0  0  0  0  0  0  0  0  0
    5.3810    4.0950    0.0000 H   0  0  0  0  0  0  0  0  0  0  0  0
    2.8660   -1.0950    0.0000 H   0  0  0  0  0  0  0  0  0  0  0  0
    5.6720   -1.0950    0.0000 H   0  0  0  0  0  0  0  0  0  0  0  0
    2.8660   -2.7150    0.0000 H   0  0  0  0  0  0  0  0  0  0  0  0
    5.6720   -2.7150    0.0000 H   0  0  0  0  0  0  0  0  0  0  0  0
    2.0000    2.7850    0.0000 H   0  0  0  0  0  0  0  0  0  0  0  0
    2.0000    4.4050    0.0000 H   0  0  0  0  0  0  0  0  0  0  0  0
    3.0930   -3.8681    0.0000 H   0  0  0  0  0  0  0  0  0  0  0  0
    2.8660   -4.7150    0.0000 H   0  0  0  0  0  0  0  0  0  0  0  0
    3.7130   -4.9419    0.0000 H   0  0  0  0  0  0  0  0  0  0  0  0
  1  2  2  0  0  0  0
  1  3  2  0  0  0  0
  1  7  1  0  0  0  0
  1 14  1  0  0  0  0
  4 16  2  0  0  0  0
  5 21  1  0  0  0  0
  5 22  1  0  0  0  0
  6  8  1  0  0  0  0
  6 41  1  0  0  0  0
  7  9  1  0  0  0  0
  7 13  1  0  0  0  0
  8 16  1  0  0  0  0
  8 40  1  0  0  0  0
  9 10  1  0  0  0  0
  9 11  1  0  0  0  0
  9 23  1  0  0  0  0
 10 12  1  0  0  0  0
 10 24  1  0  0  0  0
 10 25  1  0  0  0  0
 11 26  1  0  0  0  0
 11 27  1  0  0  0  0
 11 28  1  0  0  0  0
 12 15  1  0  0  0  0
 12 29  1  0  0  0  0
 12 30  1  0  0  0  0
 13 16  1  0  0  0  0
 13 31  1  0  0  0  0
 13 32  1  0  0  0  0
 14 17  2  0  0  0  0
 14 18  1  0  0  0  0
 15 33  1  0  0  0  0
 15 34  1  0  0  0  0
 15 35  1  0  0  0  0
 17 19  1  0  0  0  0
 17 36  1  0  0  0  0
 18 20  2  0  0  0  0
 18 37  1  0  0  0  0
 19 21  2  0  0  0  0
 19 38  1  0  0  0  0
 20 21  1  0  0  0  0
 20 39  1  0  0  0  0
 22 42  1  0  0  0  0
 22 43  1  0  0  0  0
 22 44  1  0  0  0  0
M  END
> <PUBCHEM_COMPOUND_CID>
4224

> <PUBCHEM_COMPOUND_CANONICALIZED>
1

> <PUBCHEM_CACTVS_COMPLEXITY>
441

> <PUBCHEM_CACTVS_HBOND_ACCEPTOR>
6

> <PUBCHEM_CACTVS_HBOND_DONOR>
2

> <PUBCHEM_CACTVS_ROTATABLE_BOND>
8

> <PUBCHEM_CACTVS_SUBSKEYS>
AAADceBzOABAAAAAAAAAAAAAAAAAAAAAAAAwAAAAAAAAAAABAAAAHgQUSAAACCzB0AYyB4JQBAKIACFSEHBCCBAgIAAoiBiOCIgMZiKEsTqUMCAk0BGIqAeAQAAAAIAAAAAAAAABAAAAAAAAAAAAAAAAAA==

> <PUBCHEM_IUPAC_OPENEYE_NAME>
2-[(4-methoxyphenyl)sulfonyl-(1-methylbutyl)amino]ethanehydroxamic acid

> <PUBCHEM_IUPAC_CAS_NAME>
N-hydroxy-2-[(4-methoxyphenyl)sulfonyl-pentan-2-ylamino]acetamide

> <PUBCHEM_IUPAC_NAME>
N-hydroxy-2-[(4-methoxyphenyl)sulfonyl-pentan-2-ylamino]acetamide

> <PUBCHEM_IUPAC_SYSTEMATIC_NAME>
2-[(4-methoxyphenyl)sulfonyl-pentan-2-yl-amino]-N-oxidanyl-ethanamide

> <PUBCHEM_IUPAC_TRADITIONAL_NAME>
2-[(4-methoxyphenyl)sulfonyl-(1-methylbutyl)amino]ethanehydroxamic acid

> <PUBCHEM_IUPAC_INCHI>
InChI=1S/C14H22N2O5S/c1-4-5-11(2)16(10-14(17)15-18)22(19,20)13-8-6-12(21-3)7-9-13/h6-9,11,18H,4-5,10H2,1-3H3,(H,15,17)

> <PUBCHEM_IUPAC_INCHIKEY>
SOWTUVGDQUZPJS-UHFFFAOYSA-N

> <PUBCHEM_XLOGP3_AA>
1.6

> <PUBCHEM_EXACT_MASS>
330.124943

> <PUBCHEM_MOLECULAR_FORMULA>
C14H22N2O5S

> <PUBCHEM_MOLECULAR_WEIGHT>
330.39988

> <PUBCHEM_OPENEYE_CAN_SMILES>
CCCC(C)N(CC(=O)NO)S(=O)(=O)C1=CC=C(C=C1)OC

> <PUBCHEM_OPENEYE_ISO_SMILES>
CCCC(C)N(CC(=O)NO)S(=O)(=O)C1=CC=C(C=C1)OC

> <PUBCHEM_CACTVS_TPSA>
104

> <PUBCHEM_MONOISOTOPIC_WEIGHT>
330.124943

> <PUBCHEM_TOTAL_CHARGE>
0

> <PUBCHEM_HEAVY_ATOM_COUNT>
22

> <PUBCHEM_ATOM_DEF_STEREO_COUNT>
0

> <PUBCHEM_ATOM_UDEF_STEREO_COUNT>
1

> <PUBCHEM_BOND_DEF_STEREO_COUNT>
0

> <PUBCHEM_BOND_UDEF_STEREO_COUNT>
0

> <PUBCHEM_ISOTOPIC_ATOM_COUNT>
0

> <PUBCHEM_COMPONENT_COUNT>
1

> <PUBCHEM_CACTVS_TAUTO_COUNT>
4

> <PUBCHEM_COORDINATE_TYPE>
1
5
255

> <PUBCHEM_BONDANNOTATIONS>
14  17  8
14  18  8
17  19  8
18  20  8
19  21  8
20  21  8
9  11  3

$$$$

