442979
  -OEChem-07051213002D

 71 74  0     1  0  0  0  0  0999 V2000
   10.4926    2.2816    0.0000 N   0  0  0  0  0  0  0  0  0  0  0  0
    2.8641   -2.2322    0.0000 N   0  0  0  0  0  0  0  0  0  0  0  0
    8.2572    0.8202    0.0000 C   0  0  1  0  0  0  0  0  0  0  0  0
    8.2572   -0.1798    0.0000 C   0  0  2  0  0  0  0  0  0  0  0  0
    7.3912   -0.6798    0.0000 C   0  0  1  0  0  0  0  0  0  0  0  0
    6.5251   -0.1798    0.0000 C   0  0  1  0  0  0  0  0  0  0  0  0
    9.2034    1.1249    0.0000 C   0  0  2  0  0  0  0  0  0  0  0  0
    5.6151   -0.6867    0.0000 C   0  0  2  0  0  0  0  0  0  0  0  0
    7.3912    1.3202    0.0000 C   0  0  0  0  0  0  0  0  0  0  0  0
    9.2034   -0.4846    0.0000 C   0  0  0  0  0  0  0  0  0  0  0  0
    6.5251    0.8202    0.0000 C   0  0  0  0  0  0  0  0  0  0  0  0
    9.7870    0.3202    0.0000 C   0  0  0  0  0  0  0  0  0  0  0  0
    7.4072   -1.7213    0.0000 C   0  0  0  0  0  0  0  0  0  0  0  0
    8.2572    1.8202    0.0000 C   0  0  0  0  0  0  0  0  0  0  0  0
    5.6071   -1.7283    0.0000 C   0  0  0  0  0  0  0  0  0  0  0  0
    9.5141    2.0754    0.0000 C   0  0  2  0  0  0  0  0  0  0  0  0
    4.6883   -0.1226    0.0000 C   0  0  0  0  0  0  0  0  0  0  0  0
    6.5092   -2.2491    0.0000 C   0  0  0  0  0  0  0  0  0  0  0  0
    5.6228    0.3133    0.0000 C   0  0  0  0  0  0  0  0  0  0  0  0
    4.6717   -2.2780    0.0000 C   0  0  0  0  0  0  0  0  0  0  0  0
    3.7404   -0.6505    0.0000 C   0  0  0  0  0  0  0  0  0  0  0  0
    3.7320   -1.7355    0.0000 C   0  0  2  0  0  0  0  0  0  0  0  0
    8.8462    2.8197    0.0000 C   0  0  0  0  0  0  0  0  0  0  0  0
   10.8032    3.2322    0.0000 C   0  0  0  0  0  0  0  0  0  0  0  0
   11.1604    1.5373    0.0000 C   0  0  0  0  0  0  0  0  0  0  0  0
    2.0000   -1.7288    0.0000 C   0  0  0  0  0  0  0  0  0  0  0  0
    2.8602   -3.2322    0.0000 C   0  0  0  0  0  0  0  0  0  0  0  0
    8.3471   -1.0251    0.0000 H   0  0  0  0  0  0  0  0  0  0  0  0
    8.1305   -1.0992    0.0000 H   0  0  0  0  0  0  0  0  0  0  0  0
    7.2612    0.2452    0.0000 H   0  0  0  0  0  0  0  0  0  0  0  0
   10.0431    1.2568    0.0000 H   0  0  0  0  0  0  0  0  0  0  0  0
    7.7897    1.7951    0.0000 H   0  0  0  0  0  0  0  0  0  0  0  0
    6.9926    1.7951    0.0000 H   0  0  0  0  0  0  0  0  0  0  0  0
    8.9524   -1.0515    0.0000 H   0  0  0  0  0  0  0  0  0  0  0  0
    9.7408   -0.7938    0.0000 H   0  0  0  0  0  0  0  0  0  0  0  0
    6.3131    1.4028    0.0000 H   0  0  0  0  0  0  0  0  0  0  0  0
    5.9145    0.7125    0.0000 H   0  0  0  0  0  0  0  0  0  0  0  0
   10.2479   -0.0946    0.0000 H   0  0  0  0  0  0  0  0  0  0  0  0
   10.2479    0.7349    0.0000 H   0  0  0  0  0  0  0  0  0  0  0  0
    7.6252   -2.3017    0.0000 H   0  0  0  0  0  0  0  0  0  0  0  0
    8.0164   -1.6058    0.0000 H   0  0  0  0  0  0  0  0  0  0  0  0
    8.8772    1.8202    0.0000 H   0  0  0  0  0  0  0  0  0  0  0  0
    8.2572    2.4402    0.0000 H   0  0  0  0  0  0  0  0  0  0  0  0
    7.6372    1.8202    0.0000 H   0  0  0  0  0  0  0  0  0  0  0  0
    9.7067    2.6647    0.0000 H   0  0  0  0  0  0  0  0  0  0  0  0
    5.0965    0.3441    0.0000 H   0  0  0  0  0  0  0  0  0  0  0  0
    4.2984    0.3594    0.0000 H   0  0  0  0  0  0  0  0  0  0  0  0
    6.5116   -2.8691    0.0000 H   0  0  0  0  0  0  0  0  0  0  0  0
    6.2428    0.3085    0.0000 H   0  0  0  0  0  0  0  0  0  0  0  0
    5.6276    0.9333    0.0000 H   0  0  0  0  0  0  0  0  0  0  0  0
    5.0028    0.3181    0.0000 H   0  0  0  0  0  0  0  0  0  0  0  0
    4.2744   -2.7540    0.0000 H   0  0  0  0  0  0  0  0  0  0  0  0
    5.0726   -2.7509    0.0000 H   0  0  0  0  0  0  0  0  0  0  0  0
    3.5358   -0.0653    0.0000 H   0  0  0  0  0  0  0  0  0  0  0  0
    3.1288   -0.7519    0.0000 H   0  0  0  0  0  0  0  0  0  0  0  0
    3.1969   -1.4224    0.0000 H   0  0  0  0  0  0  0  0  0  0  0  0
    9.3077    3.2338    0.0000 H   0  0  0  0  0  0  0  0  0  0  0  0
    8.4322    3.2812    0.0000 H   0  0  0  0  0  0  0  0  0  0  0  0
    8.3848    2.4057    0.0000 H   0  0  0  0  0  0  0  0  0  0  0  0
   11.3925    3.0396    0.0000 H   0  0  0  0  0  0  0  0  0  0  0  0
   10.9958    3.8215    0.0000 H   0  0  0  0  0  0  0  0  0  0  0  0
   10.2139    3.4248    0.0000 H   0  0  0  0  0  0  0  0  0  0  0  0
   10.6989    1.1233    0.0000 H   0  0  0  0  0  0  0  0  0  0  0  0
   11.5745    1.0759    0.0000 H   0  0  0  0  0  0  0  0  0  0  0  0
   11.6219    1.9514    0.0000 H   0  0  0  0  0  0  0  0  0  0  0  0
    2.3121   -1.1931    0.0000 H   0  0  0  0  0  0  0  0  0  0  0  0
    1.4643   -1.4168    0.0000 H   0  0  0  0  0  0  0  0  0  0  0  0
    1.6879   -2.2646    0.0000 H   0  0  0  0  0  0  0  0  0  0  0  0
    2.2402   -3.2298    0.0000 H   0  0  0  0  0  0  0  0  0  0  0  0
    2.8578   -3.8522    0.0000 H   0  0  0  0  0  0  0  0  0  0  0  0
    3.4802   -3.2346    0.0000 H   0  0  0  0  0  0  0  0  0  0  0  0
 16  1  1  6  0  0  0
  1 24  1  0  0  0  0
  1 25  1  0  0  0  0
 22  2  1  1  0  0  0
  2 26  1  0  0  0  0
  2 27  1  0  0  0  0
  3  4  1  0  0  0  0
  3  7  1  0  0  0  0
  3  9  1  0  0  0  0
  3 14  1  1  0  0  0
  4  5  1  0  0  0  0
  4 10  1  0  0  0  0
  4 28  1  6  0  0  0
  5  6  1  0  0  0  0
  5 13  1  0  0  0  0
  5 29  1  1  0  0  0
  6  8  1  0  0  0  0
  6 11  1  0  0  0  0
  6 30  1  6  0  0  0
  7 12  1  0  0  0  0
  7 16  1  0  0  0  0
  7 31  1  6  0  0  0
  8 15  1  0  0  0  0
  8 17  1  0  0  0  0
  8 19  1  1  0  0  0
  9 11  1  0  0  0  0
  9 32  1  0  0  0  0
  9 33  1  0  0  0  0
 10 12  1  0  0  0  0
 10 34  1  0  0  0  0
 10 35  1  0  0  0  0
 11 36  1  0  0  0  0
 11 37  1  0  0  0  0
 12 38  1  0  0  0  0
 12 39  1  0  0  0  0
 13 18  1  0  0  0  0
 13 40  1  0  0  0  0
 13 41  1  0  0  0  0
 14 42  1  0  0  0  0
 14 43  1  0  0  0  0
 14 44  1  0  0  0  0
 15 18  2  0  0  0  0
 15 20  1  0  0  0  0
 16 23  1  0  0  0  0
 16 45  1  0  0  0  0
 17 21  1  0  0  0  0
 17 46  1  0  0  0  0
 17 47  1  0  0  0  0
 18 48  1  0  0  0  0
 19 49  1  0  0  0  0
 19 50  1  0  0  0  0
 19 51  1  0  0  0  0
 20 22  1  0  0  0  0
 20 52  1  0  0  0  0
 20 53  1  0  0  0  0
 21 22  1  0  0  0  0
 21 54  1  0  0  0  0
 21 55  1  0  0  0  0
 22 56  1  0  0  0  0
 23 57  1  0  0  0  0
 23 58  1  0  0  0  0
 23 59  1  0  0  0  0
 24 60  1  0  0  0  0
 24 61  1  0  0  0  0
 24 62  1  0  0  0  0
 25 63  1  0  0  0  0
 25 64  1  0  0  0  0
 25 65  1  0  0  0  0
 26 66  1  0  0  0  0
 26 67  1  0  0  0  0
 26 68  1  0  0  0  0
 27 69  1  0  0  0  0
 27 70  1  0  0  0  0
 27 71  1  0  0  0  0
M  END
> <PUBCHEM_COMPOUND_CID>
442979

> <PUBCHEM_COMPOUND_CANONICALIZED>
1

> <PUBCHEM_CACTVS_COMPLEXITY>
593

> <PUBCHEM_CACTVS_HBOND_ACCEPTOR>
2

> <PUBCHEM_CACTVS_HBOND_DONOR>
0

> <PUBCHEM_CACTVS_ROTATABLE_BOND>
3

> <PUBCHEM_CACTVS_SUBSKEYS>
AAADcfB7AAAAAAAAAAAAAAAAAAAAAYAAAAAwYIAAAAAAAGCAAAAAHAAAAAAADyjBAAQCAAMAAACAAiBCAAAAAAAgAAAACAAIAAgAAAIAgQAEAAAAgAAIAAMQgMAPgAAAAAAAAACQAAQAACAAAQAACAAAAA==

> <PUBCHEM_IUPAC_OPENEYE_NAME>
(3S,8S,9S,10R,13S,14S,17S)-17-[(1S)-1-(dimethylamino)ethyl]-N,N,10,13-tetramethyl-2,3,4,7,8,9,11,12,14,15,16,17-dodecahydro-1H-cyclopenta[a]phenanthren-3-amine

> <PUBCHEM_IUPAC_CAS_NAME>
(3S,8S,9S,10R,13S,14S,17S)-17-[(1S)-1-(dimethylamino)ethyl]-N,N,10,13-tetramethyl-2,3,4,7,8,9,11,12,14,15,16,17-dodecahydro-1H-cyclopenta[a]phenanthren-3-amine

> <PUBCHEM_IUPAC_NAME>
(3S,8S,9S,10R,13S,14S,17S)-17-[(1S)-1-(dimethylamino)ethyl]-N,N,10,13-tetramethyl-2,3,4,7,8,9,11,12,14,15,16,17-dodecahydro-1H-cyclopenta[a]phenanthren-3-amine

> <PUBCHEM_IUPAC_SYSTEMATIC_NAME>
(3S,8S,9S,10R,13S,14S,17S)-17-[(1S)-1-(dimethylamino)ethyl]-N,N,10,13-tetramethyl-2,3,4,7,8,9,11,12,14,15,16,17-dodecahydro-1H-cyclopenta[a]phenanthren-3-amine

> <PUBCHEM_IUPAC_TRADITIONAL_NAME>
[(1S)-1-[(3S,8S,9S,10R,13S,14S,17S)-3-(dimethylamino)-10,13-dimethyl-2,3,4,7,8,9,11,12,14,15,16,17-dodecahydro-1H-cyclopenta[a]phenanthren-17-yl]ethyl]-dimethyl-amine

> <PUBCHEM_IUPAC_INCHI>
InChI=1S/C25H44N2/c1-17(26(4)5)21-10-11-22-20-9-8-18-16-19(27(6)7)12-14-24(18,2)23(20)13-15-25(21,22)3/h8,17,19-23H,9-16H2,1-7H3/t17-,19-,20-,21+,22-,23-,24-,25+/m0/s1

> <PUBCHEM_IUPAC_INCHIKEY>
YTNIUPZRMQLHNV-XSIUSZODSA-N

> <PUBCHEM_XLOGP3_AA>
5.8

> <PUBCHEM_EXACT_MASS>
372.350449

> <PUBCHEM_MOLECULAR_FORMULA>
C25H44N2

> <PUBCHEM_MOLECULAR_WEIGHT>
372.63026

> <PUBCHEM_OPENEYE_CAN_SMILES>
CC(C1CCC2C1(CCC3C2CC=C4C3(CCC(C4)N(C)C)C)C)N(C)C

> <PUBCHEM_OPENEYE_ISO_SMILES>
C[C@@H]([C@H]1CC[C@@H]2[C@@]1(CC[C@H]3[C@H]2CC=C4[C@@]3(CC[C@@H](C4)N(C)C)C)C)N(C)C

> <PUBCHEM_CACTVS_TPSA>
6.5

> <PUBCHEM_MONOISOTOPIC_WEIGHT>
372.350449

> <PUBCHEM_TOTAL_CHARGE>
0

> <PUBCHEM_HEAVY_ATOM_COUNT>
27

> <PUBCHEM_ATOM_DEF_STEREO_COUNT>
8

> <PUBCHEM_ATOM_UDEF_STEREO_COUNT>
0

> <PUBCHEM_BOND_DEF_STEREO_COUNT>
0

> <PUBCHEM_BOND_UDEF_STEREO_COUNT>
0

> <PUBCHEM_ISOTOPIC_ATOM_COUNT>
0

> <PUBCHEM_COMPONENT_COUNT>
1

> <PUBCHEM_CACTVS_TAUTO_COUNT>
1

> <PUBCHEM_COORDINATE_TYPE>
1
5
255

> <PUBCHEM_BONDANNOTATIONS>
16  1  6
22  2  5
3  14  5
4  28  6
5  29  5
6  30  6
7  31  6
8  19  5

$$$$

