441788
  -OEChem-07051212563D

 55 59  0     1  0  0  0  0  0999 V2000
    2.2947   -1.4485   -1.7628 O   0  0  0  0  0  0  0  0  0  0  0  0
    0.6440    2.5007    0.1835 O   0  0  0  0  0  0  0  0  0  0  0  0
    3.1401    1.1068   -1.1076 O   0  0  0  0  0  0  0  0  0  0  0  0
    0.0350   -2.9646   -0.6375 O   0  0  0  0  0  0  0  0  0  0  0  0
    2.3390   -1.8937    1.8889 O   0  0  0  0  0  0  0  0  0  0  0  0
    3.6649    1.1413    1.5752 O   0  0  0  0  0  0  0  0  0  0  0  0
   -2.4318   -2.4451    1.0459 O   0  0  0  0  0  0  0  0  0  0  0  0
    2.0325    3.2908    1.7725 O   0  0  0  0  0  0  0  0  0  0  0  0
   -4.8763   -1.4244    1.2493 O   0  0  0  0  0  0  0  0  0  0  0  0
    0.8839    0.2319   -0.8120 C   0  0  2  0  0  0  0  0  0  0  0  0
   -0.0889   -0.5997    0.1295 C   0  0  1  0  0  0  0  0  0  0  0  0
    2.3112    0.3055   -0.2337 C   0  0  1  0  0  0  0  0  0  0  0  0
   -1.6478   -0.4341   -0.2049 C   0  0  2  0  0  0  0  0  0  0  0  0
    2.7317   -1.1579   -0.4007 C   0  0  1  0  0  0  0  0  0  0  0  0
    0.4034    1.6711   -1.0037 C   0  0  1  0  0  0  0  0  0  0  0  0
    0.4369   -2.0483    0.3731 C   0  0  2  0  0  0  0  0  0  0  0  0
    1.2039   -0.5475   -2.0990 C   0  0  0  0  0  0  0  0  0  0  0  0
   -1.9512    1.1105   -0.2377 C   0  0  1  0  0  0  0  0  0  0  0  0
    1.9689   -2.1281    0.5342 C   0  0  2  0  0  0  0  0  0  0  0  0
   -1.0879    1.8066   -1.3108 C   0  0  0  0  0  0  0  0  0  0  0  0
    2.3290    0.9940    1.1190 C   0  0  2  0  0  0  0  0  0  0  0  0
   -2.5130   -1.0323    0.9470 C   0  0  1  0  0  0  0  0  0  0  0  0
   -2.0758   -1.0877   -1.5491 C   0  0  0  0  0  0  0  0  0  0  0  0
    4.2381   -1.4135   -0.3311 C   0  0  0  0  0  0  0  0  0  0  0  0
   -3.4409    1.4312   -0.3062 C   0  0  0  0  0  0  0  0  0  0  0  0
    1.6879    2.3662    1.0405 C   0  0  0  0  0  0  0  0  0  0  0  0
   -3.9897   -0.6856    0.8220 C   0  0  0  0  0  0  0  0  0  0  0  0
   -4.3693    0.5989    0.1909 C   0  0  0  0  0  0  0  0  0  0  0  0
   -3.8725    2.7555   -0.8746 C   0  0  0  0  0  0  0  0  0  0  0  0
   -0.0084   -0.1274    1.1175 H   0  0  0  0  0  0  0  0  0  0  0  0
    0.9516    2.1627   -1.8169 H   0  0  0  0  0  0  0  0  0  0  0  0
    0.0056   -2.4104    1.3145 H   0  0  0  0  0  0  0  0  0  0  0  0
    0.3933   -1.1547   -2.4947 H   0  0  0  0  0  0  0  0  0  0  0  0
    1.5437    0.0995   -2.9153 H   0  0  0  0  0  0  0  0  0  0  0  0
   -1.6393    1.5300    0.7319 H   0  0  0  0  0  0  0  0  0  0  0  0
    2.2685   -3.1577    0.2959 H   0  0  0  0  0  0  0  0  0  0  0  0
   -1.3100    1.4325   -2.3147 H   0  0  0  0  0  0  0  0  0  0  0  0
   -1.3172    2.8792   -1.3255 H   0  0  0  0  0  0  0  0  0  0  0  0
    1.7926    0.4511    1.8979 H   0  0  0  0  0  0  0  0  0  0  0  0
   -2.1809   -0.6262    1.9105 H   0  0  0  0  0  0  0  0  0  0  0  0
   -1.9117   -2.1640   -1.5818 H   0  0  0  0  0  0  0  0  0  0  0  0
   -3.1451   -0.9537   -1.7445 H   0  0  0  0  0  0  0  0  0  0  0  0
   -1.5713   -0.6549   -2.4125 H   0  0  0  0  0  0  0  0  0  0  0  0
    4.4560   -2.4742   -0.5027 H   0  0  0  0  0  0  0  0  0  0  0  0
    4.7774   -0.8732   -1.1163 H   0  0  0  0  0  0  0  0  0  0  0  0
    4.6640   -1.1296    0.6348 H   0  0  0  0  0  0  0  0  0  0  0  0
    3.3362    0.6137   -1.9204 H   0  0  0  0  0  0  0  0  0  0  0  0
   -0.7516   -3.4336   -0.3111 H   0  0  0  0  0  0  0  0  0  0  0  0
    3.2641   -2.1698    1.9993 H   0  0  0  0  0  0  0  0  0  0  0  0
   -5.4277    0.8355    0.1616 H   0  0  0  0  0  0  0  0  0  0  0  0
    4.1740    1.5799    0.8721 H   0  0  0  0  0  0  0  0  0  0  0  0
   -2.8363   -2.8334    0.2524 H   0  0  0  0  0  0  0  0  0  0  0  0
   -4.9515    2.9176   -0.7747 H   0  0  0  0  0  0  0  0  0  0  0  0
   -3.6343    2.8136   -1.9414 H   0  0  0  0  0  0  0  0  0  0  0  0
   -3.3727    3.5766   -0.3505 H   0  0  0  0  0  0  0  0  0  0  0  0
  1 14  1  0  0  0  0
  1 17  1  0  0  0  0
  2 15  1  0  0  0  0
  2 26  1  0  0  0  0
  3 12  1  0  0  0  0
  3 47  1  0  0  0  0
  4 16  1  0  0  0  0
  4 48  1  0  0  0  0
  5 19  1  0  0  0  0
  5 49  1  0  0  0  0
  6 21  1  0  0  0  0
  6 51  1  0  0  0  0
  7 22  1  0  0  0  0
  7 52  1  0  0  0  0
  8 26  2  0  0  0  0
  9 27  2  0  0  0  0
 10 11  1  0  0  0  0
 10 12  1  0  0  0  0
 10 15  1  0  0  0  0
 10 17  1  0  0  0  0
 11 13  1  0  0  0  0
 11 16  1  0  0  0  0
 11 30  1  0  0  0  0
 12 14  1  0  0  0  0
 12 21  1  0  0  0  0
 13 18  1  0  0  0  0
 13 22  1  0  0  0  0
 13 23  1  0  0  0  0
 14 19  1  0  0  0  0
 14 24  1  0  0  0  0
 15 20  1  0  0  0  0
 15 31  1  0  0  0  0
 16 19  1  0  0  0  0
 16 32  1  0  0  0  0
 17 33  1  0  0  0  0
 17 34  1  0  0  0  0
 18 20  1  0  0  0  0
 18 25  1  0  0  0  0
 18 35  1  0  0  0  0
 19 36  1  0  0  0  0
 20 37  1  0  0  0  0
 20 38  1  0  0  0  0
 21 26  1  0  0  0  0
 21 39  1  0  0  0  0
 22 27  1  0  0  0  0
 22 40  1  0  0  0  0
 23 41  1  0  0  0  0
 23 42  1  0  0  0  0
 23 43  1  0  0  0  0
 24 44  1  0  0  0  0
 24 45  1  0  0  0  0
 24 46  1  0  0  0  0
 25 28  2  0  0  0  0
 25 29  1  0  0  0  0
 27 28  1  0  0  0  0
 28 50  1  0  0  0  0
 29 53  1  0  0  0  0
 29 54  1  0  0  0  0
 29 55  1  0  0  0  0
M  END
> <PUBCHEM_COMPOUND_CID>
441788

> <PUBCHEM_CONFORMER_RMSD>
0.6

> <PUBCHEM_CONFORMER_DIVERSEORDER>
1

> <PUBCHEM_MMFF94_PARTIAL_CHARGES>
29
1 -0.56
12 0.28
14 0.28
15 0.28
16 0.28
17 0.28
18 0.14
19 0.28
2 -0.43
21 0.34
22 0.34
25 -0.28
26 0.66
27 0.49
28 -0.14
29 0.14
3 -0.68
4 -0.68
47 0.4
48 0.4
49 0.4
5 -0.68
50 0.15
51 0.4
52 0.4
6 -0.68
7 -0.68
8 -0.57
9 -0.57

> <PUBCHEM_EFFECTIVE_ROTOR_COUNT>
1.6

> <PUBCHEM_PHARMACOPHORE_FEATURES>
17
1 1 acceptor
1 3 acceptor
1 3 donor
1 4 acceptor
1 4 donor
1 5 acceptor
1 5 donor
1 6 acceptor
1 6 donor
1 7 acceptor
1 7 donor
1 8 acceptor
1 9 acceptor
6 10 11 13 15 18 20 rings
6 13 18 22 25 27 28 rings
6 2 10 12 15 21 26 rings
8 1 10 11 12 14 16 17 19 rings

> <PUBCHEM_HEAVY_ATOM_COUNT>
29

> <PUBCHEM_ATOM_DEF_STEREO_COUNT>
11

> <PUBCHEM_ATOM_UDEF_STEREO_COUNT>
0

> <PUBCHEM_BOND_DEF_STEREO_COUNT>
0

> <PUBCHEM_BOND_UDEF_STEREO_COUNT>
0

> <PUBCHEM_ISOTOPIC_ATOM_COUNT>
0

> <PUBCHEM_COMPONENT_COUNT>
1

> <PUBCHEM_CACTVS_TAUTO_COUNT>
13

> <PUBCHEM_CONFORMER_ID>
0006BDBC00000001

> <PUBCHEM_MMFF94_ENERGY>
133.418

> <PUBCHEM_FEATURE_SELFOVERLAP>
86.458

> <PUBCHEM_SHAPE_FINGERPRINT>
10165383 225 17973992969095946688
10366900 7 18269269076209099217
10646746 165 18341610464342488877
10675989 125 16827009265582441396
10863032 1 18272082842064698100
10948715 1 17534345531268557944
1100329 8 16536515020599848761
11640471 11 15792021029982331184
12011746 2 18266180728018558748
12035758 1 18261117348904431298
12156800 1 6858894065660370479
12403259 226 18411415124869626979
12633257 1 18192449493047987664
12788726 201 17902512919747667880
13134695 92 18041282174788519932
13140716 1 18269846482726994371
13224815 77 18343582941137517743
13583140 156 18409453622085298103
14081887 123 18341615876338898617
14142880 1 17106236290500349865
14178342 30 18131357379834141859
14223421 5 18338798897162018355
14787075 74 18413101745889680414
14790565 3 18271516491041225180
14955137 171 18263081170818502138
15238133 3 18124314071402488868
16945 1 18119534236927333046
17349148 13 17417816080911920331
1813 80 15432255470145788972
19049666 15 18339644542042587077
20600515 1 17979352285406709332
20691752 17 17418089940557920785
20905425 154 18200591539549481495
21033648 29 18260840305664200017
21756936 100 17468482512912608440
2334 1 18411983550478907614
23559900 14 18198340869486158326
238 59 18116739398628935813
2748010 2 18412268341186208189
350125 39 18341321241413730565
35225 105 16311956817193504976
394222 165 16052083954219214829
474 4 17750515061733454777
495365 180 18117016540015318793
5104073 3 18342453785650870105

> <PUBCHEM_SHAPE_MULTIPOLES>
543.98
7.19
3.21
1.63
4.6
0.77
0.08
-0.28
-1.35
-0.13
-0.81
-0.67
0.09
1.6

> <PUBCHEM_SHAPE_SELFOVERLAP>
1205.585

> <PUBCHEM_SHAPE_VOLUME>
283.2

> <PUBCHEM_COORDINATE_TYPE>
2
5
10

$$$$

