162204
  -OEChem-07051213113D

 24 23  0     0  0  0  0  0  0999 V2000
    2.7569    0.2608    0.0461 P   0  0  0  0  0  0  0  0  0  0  0  0
    2.8273   -0.5216    1.4512 O   0  0  0  0  0  0  0  0  0  0  0  0
    3.0144    1.7994    0.4440 O   0  0  0  0  0  0  0  0  0  0  0  0
    3.6010   -0.2838   -1.0525 O   0  0  0  0  0  0  0  0  0  0  0  0
   -1.7896   -1.2510    1.2796 O   0  0  0  0  0  0  0  0  0  0  0  0
   -2.7538    1.1229   -1.2262 O   0  0  0  0  0  0  0  0  0  0  0  0
   -1.8767   -0.5747    0.0525 N   0  0  0  0  0  0  0  0  0  0  0  0
    0.4321   -1.1499   -0.5911 C   0  0  0  0  0  0  0  0  0  0  0  0
    0.9885    0.2438   -0.3216 C   0  0  0  0  0  0  0  0  0  0  0  0
   -1.0458   -1.1530   -0.9674 C   0  0  0  0  0  0  0  0  0  0  0  0
   -2.6732    0.5254   -0.1521 C   0  0  0  0  0  0  0  0  0  0  0  0
   -3.4810    0.9816    1.0374 C   0  0  0  0  0  0  0  0  0  0  0  0
    1.0056   -1.6132   -1.4027 H   0  0  0  0  0  0  0  0  0  0  0  0
    0.5990   -1.7770    0.2929 H   0  0  0  0  0  0  0  0  0  0  0  0
    0.4682    0.7043    0.5253 H   0  0  0  0  0  0  0  0  0  0  0  0
    0.8211    0.8849   -1.1944 H   0  0  0  0  0  0  0  0  0  0  0  0
   -1.1859   -0.6227   -1.9156 H   0  0  0  0  0  0  0  0  0  0  0  0
   -1.3810   -2.1854   -1.1204 H   0  0  0  0  0  0  0  0  0  0  0  0
    3.7011   -0.6763    1.8690 H   0  0  0  0  0  0  0  0  0  0  0  0
    3.9241    2.0891    0.6690 H   0  0  0  0  0  0  0  0  0  0  0  0
   -4.0659    1.8662    0.7703 H   0  0  0  0  0  0  0  0  0  0  0  0
   -2.8123    1.2374    1.8640 H   0  0  0  0  0  0  0  0  0  0  0  0
   -4.1641    0.1865    1.3485 H   0  0  0  0  0  0  0  0  0  0  0  0
   -2.4419   -1.9580    1.1372 H   0  0  0  0  0  0  0  0  0  0  0  0
  1  2  1  0  0  0  0
  1  3  1  0  0  0  0
  1  4  2  0  0  0  0
  1  9  1  0  0  0  0
  2 19  1  0  0  0  0
  3 20  1  0  0  0  0
  5  7  1  0  0  0  0
  5 24  1  0  0  0  0
  6 11  2  0  0  0  0
  7 10  1  0  0  0  0
  7 11  1  0  0  0  0
  8  9  1  0  0  0  0
  8 10  1  0  0  0  0
  8 13  1  0  0  0  0
  8 14  1  0  0  0  0
  9 15  1  0  0  0  0
  9 16  1  0  0  0  0
 10 17  1  0  0  0  0
 10 18  1  0  0  0  0
 11 12  1  0  0  0  0
 12 21  1  0  0  0  0
 12 22  1  0  0  0  0
 12 23  1  0  0  0  0
M  END
> <PUBCHEM_COMPOUND_CID>
162204

> <PUBCHEM_CONFORMER_RMSD>
0.6

> <PUBCHEM_CONFORMER_DIVERSEORDER>
3
35
24
10
4
17
33
11
14
20
6
30
15
9
12
19
2
31
21
29
13
5
26
7
18
8
25
1
23
27
32
22
16
28
34

> <PUBCHEM_MMFF94_PARTIAL_CHARGES>
13
1 1.24
10 0.3
11 0.57
12 0.06
19 0.5
2 -0.77
20 0.5
24 0.4
3 -0.77
4 -0.7
5 -0.44
6 -0.57
7 -0.32

> <PUBCHEM_EFFECTIVE_ROTOR_COUNT>
5

> <PUBCHEM_PHARMACOPHORE_FEATURES>
5
1 2 acceptor
1 3 acceptor
1 4 acceptor
1 6 acceptor
4 1 2 3 4 anion

> <PUBCHEM_HEAVY_ATOM_COUNT>
12

> <PUBCHEM_ATOM_DEF_STEREO_COUNT>
0

> <PUBCHEM_ATOM_UDEF_STEREO_COUNT>
0

> <PUBCHEM_BOND_DEF_STEREO_COUNT>
0

> <PUBCHEM_BOND_UDEF_STEREO_COUNT>
0

> <PUBCHEM_ISOTOPIC_ATOM_COUNT>
0

> <PUBCHEM_COMPONENT_COUNT>
1

> <PUBCHEM_CACTVS_TAUTO_COUNT>
1

> <PUBCHEM_CONFORMER_ID>
0002799C00000003

> <PUBCHEM_MMFF94_ENERGY>
-17.6451

> <PUBCHEM_FEATURE_SELFOVERLAP>
25.408

> <PUBCHEM_SHAPE_FINGERPRINT>
10149128 111 17968089850227425985
11127187 94 5833700271711080941
12251169 10 17203321195921765183
12897270 3 5328739664938730879
12932764 1 18202567267534039524
15775835 57 18334012770043140184
17834069 15 17846503672362821855
18186145 218 17894631495344402156
20279233 1 10952052221289014796
20281407 28 11455888070325347671
20645464 45 18271800259345277095
20653085 51 17967810544119411951
21119208 17 14634867595472502813
22485316 2 11959728252988982757
3248919 1 17531252725276406390

> <PUBCHEM_SHAPE_MULTIPOLES>
216.48
6.51
1.44
1.23
1.39
0.15
0.27
2.55
0.04
0.03
-0.07
-0.27
-0.04
0.12

> <PUBCHEM_SHAPE_SELFOVERLAP>
391.94

> <PUBCHEM_SHAPE_VOLUME>
139.4

> <PUBCHEM_COORDINATE_TYPE>
2
5
10

$$$$

