443074
  -OEChem-07051213013D

 16 15  0     1  0  0  0  0  0999 V2000
    1.2752    1.1727    0.5718 O   0  0  0  0  0  0  0  0  0  0  0  0
   -1.3670    1.1451   -0.4228 O   0  0  0  0  0  0  0  0  0  0  0  0
   -2.3840   -0.7891    0.2907 N   0  0  0  0  0  0  0  0  0  0  0  0
    1.2346    0.0460   -0.3019 C   0  0  2  0  0  0  0  0  0  0  0  0
    0.0111   -0.7992    0.0500 C   0  0  0  0  0  0  0  0  0  0  0  0
    2.5211   -0.7503   -0.1270 C   0  0  0  0  0  0  0  0  0  0  0  0
   -1.2911   -0.0252   -0.0608 C   0  0  0  0  0  0  0  0  0  0  0  0
    1.1617    0.4236   -1.3273 H   0  0  0  0  0  0  0  0  0  0  0  0
   -0.0478   -1.6725   -0.6100 H   0  0  0  0  0  0  0  0  0  0  0  0
    0.0861   -1.1569    1.0850 H   0  0  0  0  0  0  0  0  0  0  0  0
    2.5429   -1.6191   -0.7919 H   0  0  0  0  0  0  0  0  0  0  0  0
    2.6363   -1.0959    0.9063 H   0  0  0  0  0  0  0  0  0  0  0  0
    3.3903   -0.1207   -0.3461 H   0  0  0  0  0  0  0  0  0  0  0  0
    1.3470    0.8437    1.4842 H   0  0  0  0  0  0  0  0  0  0  0  0
   -2.2978   -1.7563    0.5861 H   0  0  0  0  0  0  0  0  0  0  0  0
   -3.3214   -0.4019    0.2639 H   0  0  0  0  0  0  0  0  0  0  0  0
  1  4  1  0  0  0  0
  1 14  1  0  0  0  0
  2  7  2  0  0  0  0
  3  7  1  0  0  0  0
  3 15  1  0  0  0  0
  3 16  1  0  0  0  0
  4  5  1  0  0  0  0
  4  6  1  0  0  0  0
  4  8  1  0  0  0  0
  5  7  1  0  0  0  0
  5  9  1  0  0  0  0
  5 10  1  0  0  0  0
  6 11  1  0  0  0  0
  6 12  1  0  0  0  0
  6 13  1  0  0  0  0
M  END
> <PUBCHEM_COMPOUND_CID>
443074

> <PUBCHEM_CONFORMER_RMSD>
0.4

> <PUBCHEM_CONFORMER_DIVERSEORDER>
2
18
11
5
15
9
10
19
17
8
7
13
3
4
6
1
12
16
14

> <PUBCHEM_MMFF94_PARTIAL_CHARGES>
9
1 -0.68
14 0.4
15 0.37
16 0.37
2 -0.57
3 -0.8
4 0.28
5 0.06
7 0.57

> <PUBCHEM_EFFECTIVE_ROTOR_COUNT>
2

> <PUBCHEM_PHARMACOPHORE_FEATURES>
4
1 1 acceptor
1 1 donor
1 2 acceptor
1 3 donor

> <PUBCHEM_HEAVY_ATOM_COUNT>
7

> <PUBCHEM_ATOM_DEF_STEREO_COUNT>
0

> <PUBCHEM_ATOM_UDEF_STEREO_COUNT>
1

> <PUBCHEM_BOND_DEF_STEREO_COUNT>
0

> <PUBCHEM_BOND_UDEF_STEREO_COUNT>
0

> <PUBCHEM_ISOTOPIC_ATOM_COUNT>
0

> <PUBCHEM_COMPONENT_COUNT>
1

> <PUBCHEM_CACTVS_TAUTO_COUNT>
2

> <PUBCHEM_CONFORMER_ID>
0006C2C200000002

> <PUBCHEM_MMFF94_ENERGY>
8.1394

> <PUBCHEM_FEATURE_SELFOVERLAP>
20.301

> <PUBCHEM_SHAPE_FINGERPRINT>
16714656 1 18272082799083474087
20096714 4 18408326592021716852
21040471 1 17983584292508202077
23552423 10 17987510584349346558
24536 1 17846224323415956932
29004967 10 17822289128095677310
5084963 1 18201717357719725926
5460574 1 8718827578713611694

> <PUBCHEM_SHAPE_MULTIPOLES>
127.34
3.21
1.15
0.66
0.23
0.2
0
-0.66
0.03
-0.04
0.06
0.05
0.05
0.26

> <PUBCHEM_SHAPE_SELFOVERLAP>
232.118

> <PUBCHEM_SHAPE_VOLUME>
81.5

> <PUBCHEM_COORDINATE_TYPE>
2
5
10

$$$$

