5311018
  -OEChem-07051213112D

 63 68  0     1  0  0  0  0  0999 V2000
    4.8294    1.9928    0.0000 O   0  0  0  0  0  0  0  0  0  0  0  0
    7.7542    0.2229    0.0000 O   0  0  0  0  0  0  0  0  0  0  0  0
    4.5981    4.3422    0.0000 O   0  0  0  0  0  0  0  0  0  0  0  0
    5.4641   -1.9622    0.0000 O   0  0  0  0  0  0  0  0  0  0  0  0
    2.8660   -4.4622    0.0000 O   0  0  0  0  0  0  0  0  0  0  0  0
    2.0000   -2.9622    0.0000 O   0  0  0  0  0  0  0  0  0  0  0  0
    8.7587    0.9889    0.0000 N   0  0  3  0  0  0  0  0  0  0  0  0
    4.5981   -0.4622    0.0000 N   0  0  0  0  0  0  0  0  0  0  0  0
    6.2878    1.4645    0.0000 C   0  0  1  0  0  0  0  0  0  0  0  0
    7.1114    0.9889    0.0000 C   0  0  1  0  0  0  0  0  0  0  0  0
    7.9351    1.4645    0.0000 C   0  0  1  0  0  0  0  0  0  0  0  0
    5.4641    0.9889    0.0000 C   0  0  2  0  0  0  0  0  0  0  0  0
    6.8373    2.1619    0.0000 C   0  0  0  0  0  0  0  0  0  0  0  0
    6.2878    2.4155    0.0000 C   0  0  0  0  0  0  0  0  0  0  0  0
    7.1114    0.0378    0.0000 C   0  0  0  0  0  0  0  0  0  0  0  0
    5.4641    0.0378    0.0000 C   0  0  1  0  0  0  0  0  0  0  0  0
    7.9351    2.4155    0.0000 C   0  0  0  0  0  0  0  0  0  0  0  0
    8.1899    2.1619    0.0000 C   0  0  0  0  0  0  0  0  0  0  0  0
    6.2878   -0.4377    0.0000 C   0  0  0  0  0  0  0  0  0  0  0  0
    7.1114    2.8911    0.0000 C   0  0  0  0  0  0  0  0  0  0  0  0
    5.4641    2.8911    0.0000 C   0  0  0  0  0  0  0  0  0  0  0  0
    9.4399    0.2568    0.0000 C   0  0  0  0  0  0  0  0  0  0  0  0
   10.4145    0.4806    0.0000 C   0  0  0  0  0  0  0  0  0  0  0  0
   11.3705    0.1872    0.0000 C   0  0  0  0  0  0  0  0  0  0  0  0
   11.1466    1.1618    0.0000 C   0  0  0  0  0  0  0  0  0  0  0  0
    7.1114    3.8422    0.0000 C   0  0  0  0  0  0  0  0  0  0  0  0
    5.4641    3.8422    0.0000 C   0  0  0  0  0  0  0  0  0  0  0  0
    6.2878    4.3177    0.0000 C   0  0  0  0  0  0  0  0  0  0  0  0
    4.5981   -1.4622    0.0000 C   0  0  0  0  0  0  0  0  0  0  0  0
    3.7321   -1.9622    0.0000 C   0  0  0  0  0  0  0  0  0  0  0  0
    3.7320   -2.9622    0.0000 C   0  0  0  0  0  0  0  0  0  0  0  0
    2.8660   -3.4622    0.0000 C   0  0  0  0  0  0  0  0  0  0  0  0
    2.0000   -4.9622    0.0000 C   0  0  0  0  0  0  0  0  0  0  0  0
    8.2265    0.6660    0.0000 H   0  0  0  0  0  0  0  0  0  0  0  0
    4.6476    0.7525    0.0000 H   0  0  0  0  0  0  0  0  0  0  0  0
    6.9741    2.7666    0.0000 H   0  0  0  0  0  0  0  0  0  0  0  0
    6.2776    2.4287    0.0000 H   0  0  0  0  0  0  0  0  0  0  0  0
    7.3235   -0.5448    0.0000 H   0  0  0  0  0  0  0  0  0  0  0  0
    7.7220    0.1455    0.0000 H   0  0  0  0  0  0  0  0  0  0  0  0
    5.4641   -0.5822    0.0000 H   0  0  0  0  0  0  0  0  0  0  0  0
    8.5457    2.3079    0.0000 H   0  0  0  0  0  0  0  0  0  0  0  0
    8.1471    2.9981    0.0000 H   0  0  0  0  0  0  0  0  0  0  0  0
    8.7820    2.3457    0.0000 H   0  0  0  0  0  0  0  0  0  0  0  0
    8.0970    2.7749    0.0000 H   0  0  0  0  0  0  0  0  0  0  0  0
    5.8892   -0.9126    0.0000 H   0  0  0  0  0  0  0  0  0  0  0  0
    6.6863   -0.9126    0.0000 H   0  0  0  0  0  0  0  0  0  0  0  0
    8.9195   -0.0803    0.0000 H   0  0  0  0  0  0  0  0  0  0  0  0
    9.6815   -0.3142    0.0000 H   0  0  0  0  0  0  0  0  0  0  0  0
   10.3922   -0.1390    0.0000 H   0  0  0  0  0  0  0  0  0  0  0  0
    7.8619   -0.3877    0.0000 H   0  0  0  0  0  0  0  0  0  0  0  0
   11.2942   -0.4281    0.0000 H   0  0  0  0  0  0  0  0  0  0  0  0
   11.9897    0.2189    0.0000 H   0  0  0  0  0  0  0  0  0  0  0  0
   11.7176    1.4034    0.0000 H   0  0  0  0  0  0  0  0  0  0  0  0
   10.8096    1.6822    0.0000 H   0  0  0  0  0  0  0  0  0  0  0  0
    4.0611   -0.1522    0.0000 H   0  0  0  0  0  0  0  0  0  0  0  0
    7.6484    4.1522    0.0000 H   0  0  0  0  0  0  0  0  0  0  0  0
    6.2878    4.9377    0.0000 H   0  0  0  0  0  0  0  0  0  0  0  0
    4.5981    4.9622    0.0000 H   0  0  0  0  0  0  0  0  0  0  0  0
    3.1951   -1.6522    0.0000 H   0  0  0  0  0  0  0  0  0  0  0  0
    4.2690   -3.2722    0.0000 H   0  0  0  0  0  0  0  0  0  0  0  0
    1.6900   -4.4252    0.0000 H   0  0  0  0  0  0  0  0  0  0  0  0
    1.4631   -5.2722    0.0000 H   0  0  0  0  0  0  0  0  0  0  0  0
    2.3100   -5.4991    0.0000 H   0  0  0  0  0  0  0  0  0  0  0  0
  1 12  1  0  0  0  0
  1 21  1  0  0  0  0
 10  2  1  1  0  0  0
  2 50  1  0  0  0  0
  3 27  1  0  0  0  0
  3 58  1  0  0  0  0
  4 29  2  0  0  0  0
  5 32  1  0  0  0  0
  5 33  1  0  0  0  0
  6 32  2  0  0  0  0
  7 11  1  0  0  0  0
  7 18  1  0  0  0  0
  7 22  1  0  0  0  0
 16  8  1  1  0  0  0
  8 29  1  0  0  0  0
  8 55  1  0  0  0  0
  9 10  1  0  0  0  0
  9 12  1  0  0  0  0
  9 13  1  1  0  0  0
  9 14  1  0  0  0  0
 10 11  1  0  0  0  0
 10 15  1  0  0  0  0
 11 17  1  0  0  0  0
 11 34  1  6  0  0  0
 12 16  1  0  0  0  0
 12 35  1  1  0  0  0
 13 18  1  0  0  0  0
 13 36  1  0  0  0  0
 13 37  1  0  0  0  0
 14 20  2  0  0  0  0
 14 21  1  0  0  0  0
 15 19  1  0  0  0  0
 15 38  1  0  0  0  0
 15 39  1  0  0  0  0
 16 19  1  0  0  0  0
 16 40  1  0  0  0  0
 17 20  1  0  0  0  0
 17 41  1  0  0  0  0
 17 42  1  0  0  0  0
 18 43  1  0  0  0  0
 18 44  1  0  0  0  0
 19 45  1  0  0  0  0
 19 46  1  0  0  0  0
 20 26  1  0  0  0  0
 21 27  2  0  0  0  0
 22 23  1  0  0  0  0
 22 47  1  0  0  0  0
 22 48  1  0  0  0  0
 23 24  1  0  0  0  0
 23 25  1  0  0  0  0
 23 49  1  0  0  0  0
 24 25  1  0  0  0  0
 24 51  1  0  0  0  0
 24 52  1  0  0  0  0
 25 53  1  0  0  0  0
 25 54  1  0  0  0  0
 26 28  2  0  0  0  0
 26 56  1  0  0  0  0
 27 28  1  0  0  0  0
 28 57  1  0  0  0  0
 29 30  1  0  0  0  0
 30 31  2  0  0  0  0
 30 59  1  0  0  0  0
 31 32  1  0  0  0  0
 31 60  1  0  0  0  0
 33 61  1  0  0  0  0
 33 62  1  0  0  0  0
 33 63  1  0  0  0  0
M  END
> <PUBCHEM_COMPOUND_CID>
5311018

> <PUBCHEM_COMPOUND_CANONICALIZED>
1

> <PUBCHEM_CACTVS_COMPLEXITY>
860

> <PUBCHEM_CACTVS_HBOND_ACCEPTOR>
7

> <PUBCHEM_CACTVS_HBOND_DONOR>
3

> <PUBCHEM_CACTVS_ROTATABLE_BOND>
6

> <PUBCHEM_CACTVS_SUBSKEYS>
AAADceB7OAAAAAAAAAAAAAAAGAAAASAAAAA8YMEAAAAWAEjxAAAAHgAQCAAAD3zhmAYyDoPABgCIAiHSGACCCAAgIAAIiIAOiMgPJiKGsRuHeCOl1hGbuYfw8P8PoAABAAAYQADQgAaQADSgAAAAAAAAAA==

> <PUBCHEM_IUPAC_OPENEYE_NAME>
methyl (E)-4-[[(4R,4aS,7R,7aR,12bS)-3-(cyclopropylmethyl)-4a,9-dihydroxy-1,2,4,5,6,7,7a,13-octahydro-4,12-methanobenzofuro[3,2-e]isoquinoline-7-yl]amino]-4-oxo-but-2-enoate

> <PUBCHEM_IUPAC_CAS_NAME>
(E)-4-[[(4R,4aS,7R,7aR,12bS)-3-(cyclopropylmethyl)-4a,9-dihydroxy-1,2,4,5,6,7,7a,13-octahydro-4,12-methanobenzofuro[3,2-e]isoquinoline-7-yl]amino]-4-oxo-2-butenoic acid methyl ester

> <PUBCHEM_IUPAC_NAME>
methyl (E)-4-[[(4R,4aS,7R,7aR,12bS)-3-(cyclopropylmethyl)-4a,9-dihydroxy-1,2,4,5,6,7,7a,13-octahydro-4,12-methanobenzofuro[3,2-e]isoquinoline-7-yl]amino]-4-oxobut-2-enoate

> <PUBCHEM_IUPAC_SYSTEMATIC_NAME>
methyl (E)-4-[[(4R,4aS,7R,7aR,12bS)-3-(cyclopropylmethyl)-4a,9-bis(oxidanyl)-1,2,4,5,6,7,7a,13-octahydro-4,12-methanobenzofuro[3,2-e]isoquinoline-7-yl]amino]-4-oxidanylidene-but-2-enoate

> <PUBCHEM_IUPAC_TRADITIONAL_NAME>
(E)-4-[[(4R,4aS,7R,7aR,12bS)-3-(cyclopropylmethyl)-4a,9-dihydroxy-1,2,4,5,6,7,7a,13-octahydro-4,12-methanobenzofuro[3,2-e]isoquinoline-7-yl]amino]-4-keto-but-2-enoic acid methyl ester

> <PUBCHEM_IUPAC_INCHI>
InChI=1S/C25H30N2O6/c1-32-20(30)7-6-19(29)26-16-8-9-25(31)18-12-15-4-5-17(28)22-21(15)24(25,23(16)33-22)10-11-27(18)13-14-2-3-14/h4-7,14,16,18,23,28,31H,2-3,8-13H2,1H3,(H,26,29)/b7-6+/t16-,18-,23+,24+,25-/m1/s1

> <PUBCHEM_IUPAC_INCHIKEY>
PQKHESYTSKMWFP-WZJCLRDWSA-N

> <PUBCHEM_XLOGP3>
-0.3

> <PUBCHEM_EXACT_MASS>
454.210387

> <PUBCHEM_MOLECULAR_FORMULA>
C25H30N2O6

> <PUBCHEM_MOLECULAR_WEIGHT>
454.5155

> <PUBCHEM_OPENEYE_CAN_SMILES>
COC(=O)C=CC(=O)NC1CCC2(C3CC4=C5C2(C1OC5=C(C=C4)O)CCN3CC6CC6)O

> <PUBCHEM_OPENEYE_ISO_SMILES>
COC(=O)/C=C/C(=O)N[C@@H]1CC[C@]2([C@H]3CC4=C5[C@]2([C@H]1OC5=C(C=C4)O)CCN3CC6CC6)O

> <PUBCHEM_CACTVS_TPSA>
108

> <PUBCHEM_MONOISOTOPIC_WEIGHT>
454.210387

> <PUBCHEM_TOTAL_CHARGE>
0

> <PUBCHEM_HEAVY_ATOM_COUNT>
33

> <PUBCHEM_ATOM_DEF_STEREO_COUNT>
5

> <PUBCHEM_ATOM_UDEF_STEREO_COUNT>
0

> <PUBCHEM_BOND_DEF_STEREO_COUNT>
1

> <PUBCHEM_BOND_UDEF_STEREO_COUNT>
0

> <PUBCHEM_ISOTOPIC_ATOM_COUNT>
0

> <PUBCHEM_COMPONENT_COUNT>
1

> <PUBCHEM_CACTVS_TAUTO_COUNT>
4

> <PUBCHEM_COORDINATE_TYPE>
1
5
255

> <PUBCHEM_BONDANNOTATIONS>
11  34  6
12  35  5
14  20  8
14  21  8
10  2  5
20  26  8
21  27  8
26  28  8
27  28  8
16  8  5
9  13  5

$$$$

