439964
  -OEChem-07051212483D

 30 29  0     1  0  0  0  0  0999 V2000
    0.0069   -1.9614    0.0700 P   0  0  0  0  0  0  0  0  0  0  0  0
   -1.2082   -0.9968    0.5212 O   0  0  0  0  0  0  0  0  0  0  0  0
    1.1642   -0.9593   -0.4587 O   0  0  0  0  0  0  0  0  0  0  0  0
   -3.9041   -0.1631    0.6057 O   0  0  0  0  0  0  0  0  0  0  0  0
    3.8333   -0.1106   -0.7848 O   0  0  0  0  0  0  0  0  0  0  0  0
   -0.5213   -2.6609   -1.2907 O   0  0  0  0  0  0  0  0  0  0  0  0
   -4.4995    2.4714   -0.0212 O   0  0  0  0  0  0  0  0  0  0  0  0
    4.5197    2.4460    0.0402 O   0  0  0  0  0  0  0  0  0  0  0  0
    0.4554   -2.9326    1.1242 O   0  0  0  0  0  0  0  0  0  0  0  0
   -2.8560    0.7480    0.2668 C   0  0  1  0  0  0  0  0  0  0  0  0
    2.8406    0.7537   -0.2271 C   0  0  1  0  0  0  0  0  0  0  0  0
   -1.7231   -0.0320   -0.3907 C   0  0  0  0  0  0  0  0  0  0  0  0
    1.7899   -0.0976    0.4765 C   0  0  0  0  0  0  0  0  0  0  0  0
   -3.4312    1.7961   -0.6767 C   0  0  0  0  0  0  0  0  0  0  0  0
    3.5335    1.6993    0.7452 C   0  0  0  0  0  0  0  0  0  0  0  0
   -2.5266    1.2020    1.2073 H   0  0  0  0  0  0  0  0  0  0  0  0
    2.4032    1.3030   -1.0675 H   0  0  0  0  0  0  0  0  0  0  0  0
   -2.0890   -0.5623   -1.2764 H   0  0  0  0  0  0  0  0  0  0  0  0
   -0.9197    0.6470   -0.6919 H   0  0  0  0  0  0  0  0  0  0  0  0
    2.2537   -0.7190    1.2505 H   0  0  0  0  0  0  0  0  0  0  0  0
    1.0328    0.5393    0.9449 H   0  0  0  0  0  0  0  0  0  0  0  0
   -3.8355    1.3441   -1.5886 H   0  0  0  0  0  0  0  0  0  0  0  0
   -2.6757    2.5367   -0.9552 H   0  0  0  0  0  0  0  0  0  0  0  0
    4.0443    1.1454    1.5400 H   0  0  0  0  0  0  0  0  0  0  0  0
    2.8186    2.3971    1.1922 H   0  0  0  0  0  0  0  0  0  0  0  0
   -4.2108   -0.5866   -0.2143 H   0  0  0  0  0  0  0  0  0  0  0  0
    4.2326   -0.6182   -0.0577 H   0  0  0  0  0  0  0  0  0  0  0  0
   -1.1321   -3.4255   -1.2240 H   0  0  0  0  0  0  0  0  0  0  0  0
   -5.1599    1.8015    0.2257 H   0  0  0  0  0  0  0  0  0  0  0  0
    4.9418    3.0395    0.6846 H   0  0  0  0  0  0  0  0  0  0  0  0
  1  2  1  0  0  0  0
  1  3  1  0  0  0  0
  1  6  1  0  0  0  0
  1  9  2  0  0  0  0
  2 12  1  0  0  0  0
  3 13  1  0  0  0  0
  4 10  1  0  0  0  0
  4 26  1  0  0  0  0
  5 11  1  0  0  0  0
  5 27  1  0  0  0  0
  6 28  1  0  0  0  0
  7 14  1  0  0  0  0
  7 29  1  0  0  0  0
  8 15  1  0  0  0  0
  8 30  1  0  0  0  0
 10 12  1  0  0  0  0
 10 14  1  0  0  0  0
 10 16  1  0  0  0  0
 11 13  1  0  0  0  0
 11 15  1  0  0  0  0
 11 17  1  0  0  0  0
 12 18  1  0  0  0  0
 12 19  1  0  0  0  0
 13 20  1  0  0  0  0
 13 21  1  0  0  0  0
 14 22  1  0  0  0  0
 14 23  1  0  0  0  0
 15 24  1  0  0  0  0
 15 25  1  0  0  0  0
M  END
> <PUBCHEM_COMPOUND_CID>
439964

> <PUBCHEM_CONFORMER_RMSD>
1

> <PUBCHEM_CONFORMER_DIVERSEORDER>
1
725
142
532
560
16
372
106
596
438
632
113
417
66
110
500
105
587
37
22
78
733
672
779
34
574
5
433
403
54
206
722
275
537
419
24
255
125
33
407
638
427
361
710
414
464
505
61
301
390
158
233
238
606
305
552
111
450
115
258
18
611
609
584
509
322
29
706
248
103
135
28
223
25
234
278
345
559
2
738
101
569
746
3
476
17
429
482
666
302
271
449
616
631
200
71
48
51
121
320
52
70
4
499
664
295
7
296
690
483
140
90
213
207
130
742
55
246

> <PUBCHEM_MMFF94_PARTIAL_CHARGES>
20
1 1.51
10 0.28
11 0.28
12 0.28
13 0.28
14 0.28
15 0.28
2 -0.55
26 0.4
27 0.4
28 0.5
29 0.4
3 -0.55
30 0.4
4 -0.68
5 -0.68
6 -0.77
7 -0.68
8 -0.68
9 -0.7

> <PUBCHEM_EFFECTIVE_ROTOR_COUNT>
8

> <PUBCHEM_PHARMACOPHORE_FEATURES>
10
1 4 acceptor
1 4 donor
1 5 acceptor
1 5 donor
1 6 acceptor
1 7 acceptor
1 7 donor
1 8 acceptor
1 8 donor
1 9 acceptor

> <PUBCHEM_HEAVY_ATOM_COUNT>
15

> <PUBCHEM_ATOM_DEF_STEREO_COUNT>
0

> <PUBCHEM_ATOM_UDEF_STEREO_COUNT>
2

> <PUBCHEM_BOND_DEF_STEREO_COUNT>
0

> <PUBCHEM_BOND_UDEF_STEREO_COUNT>
0

> <PUBCHEM_ISOTOPIC_ATOM_COUNT>
0

> <PUBCHEM_COMPONENT_COUNT>
1

> <PUBCHEM_CACTVS_TAUTO_COUNT>
1

> <PUBCHEM_CONFORMER_ID>
0006B69C00000001

> <PUBCHEM_MMFF94_ENERGY>
6.0375

> <PUBCHEM_FEATURE_SELFOVERLAP>
50.773

> <PUBCHEM_SHAPE_FINGERPRINT>
10922049 32 18410284813599101543
12006461 19 9511455632720926797
122479 349 18412544271623876960
12363563 72 8790885211190246728
12532896 13 18340770351697100738
13294875 104 18261692444840833842
14123255 52 18411141333177991192
14252887 29 9871457717107860260
17134986 127 18335704987289691662
1741750 31 18337112267915832680
17834072 32 18411138013268965924
1798214 55 18411982481069493637
18186145 218 18113892775677124352
20645477 56 18116428142364487384
20671657 1 18267870673185497851
20871998 22 9367339336379945686
21499 59 18334863839640931749
21524375 3 18410011035208956122
23403322 49 8646778793506278521
23500284 214 18336823079077703080
23557571 272 17826781548197372708
23558518 356 18270963419217152710
27216 239 18200030634090060201
633830 44 18334861653160037749
7364860 26 18050287260639964639
81228 2 17908149776059945890

> <PUBCHEM_SHAPE_MULTIPOLES>
265.59
8.28
3.13
0.93
0.07
0.95
0.04
-9.03
-0.02
-0.07
-0.05
0.07
0.36
0.39

> <PUBCHEM_SHAPE_SELFOVERLAP>
484.88

> <PUBCHEM_SHAPE_VOLUME>
168.7

> <PUBCHEM_COORDINATE_TYPE>
2
5
10

$$$$

