5281756
  -OEChem-07051212592D

 50 52  0     1  0  0  0  0  0999 V2000
    4.2496    0.5343    0.0000 O   0  0  0  0  0  0  0  0  0  0  0  0
    6.7897    0.0455    0.0000 O   0  0  0  0  0  0  0  0  0  0  0  0
    5.5205   -2.3273    0.0000 O   0  0  0  0  0  0  0  0  0  0  0  0
    2.5369    0.5455    0.0000 O   0  0  0  0  0  0  0  0  0  0  0  0
    7.6557   -1.4322    0.0000 O   0  0  0  0  0  0  0  0  0  0  0  0
    7.1678   -2.6457    0.0000 O   0  0  0  0  0  0  0  0  0  0  0  0
    5.0964    2.9785    0.0000 N   0  0  3  0  0  0  0  0  0  0  0  0
    5.0964    2.0008    0.0000 C   0  0  1  0  0  0  0  0  0  0  0  0
    4.2496    1.5120    0.0000 C   0  0  1  0  0  0  0  0  0  0  0  0
    3.5551    2.4408    0.0000 C   0  0  0  0  0  0  0  0  0  0  0  0
    4.0765    3.2229    0.0000 C   0  0  0  0  0  0  0  0  0  0  0  0
    5.9430    1.5120    0.0000 C   0  0  0  0  0  0  0  0  0  0  0  0
    6.0318    3.2446    0.0000 C   0  0  0  0  0  0  0  0  0  0  0  0
    6.6401    2.4408    0.0000 C   0  0  0  0  0  0  0  0  0  0  0  0
    5.9430    0.5343    0.0000 C   0  0  0  0  0  0  0  0  0  0  0  0
    5.0964   -0.9322    0.0000 C   0  0  1  0  0  0  0  0  0  0  0  0
    5.9430   -1.4210    0.0000 C   0  0  2  0  0  0  0  0  0  0  0  0
    4.2496   -1.4210    0.0000 C   0  0  0  0  0  0  0  0  0  0  0  0
    3.4030    0.0455    0.0000 C   0  0  0  0  0  0  0  0  0  0  0  0
    3.4030   -0.9322    0.0000 C   0  0  0  0  0  0  0  0  0  0  0  0
    6.7897   -0.9322    0.0000 C   0  0  0  0  0  0  0  0  0  0  0  0
    6.2018   -2.3869    0.0000 C   0  0  0  0  0  0  0  0  0  0  0  0
    5.0964    0.0678    0.0000 C   0  0  0  0  0  0  0  0  0  0  0  0
    2.5369   -1.4322    0.0000 C   0  0  0  0  0  0  0  0  0  0  0  0
    2.5370   -2.4322    0.0000 C   0  0  0  0  0  0  0  0  0  0  0  0
    5.0964    1.1508    0.0000 H   0  0  0  0  0  0  0  0  0  0  0  0
    3.4430    1.2438    0.0000 H   0  0  0  0  0  0  0  0  0  0  0  0
    3.0815    2.8409    0.0000 H   0  0  0  0  0  0  0  0  0  0  0  0
    3.1038    2.0156    0.0000 H   0  0  0  0  0  0  0  0  0  0  0  0
    4.2907    3.8047    0.0000 H   0  0  0  0  0  0  0  0  0  0  0  0
    3.5238    3.5039    0.0000 H   0  0  0  0  0  0  0  0  0  0  0  0
    6.5685    3.5550    0.0000 H   0  0  0  0  0  0  0  0  0  0  0  0
    5.7900    3.8155    0.0000 H   0  0  0  0  0  0  0  0  0  0  0  0
    7.2601    2.4420    0.0000 H   0  0  0  0  0  0  0  0  0  0  0  0
    5.3324    0.6420    0.0000 H   0  0  0  0  0  0  0  0  0  0  0  0
    5.7310   -0.0483    0.0000 H   0  0  0  0  0  0  0  0  0  0  0  0
    5.6333   -0.6222    0.0000 H   0  0  0  0  0  0  0  0  0  0  0  0
    3.8511   -1.8959    0.0000 H   0  0  0  0  0  0  0  0  0  0  0  0
    4.6481   -1.8960    0.0000 H   0  0  0  0  0  0  0  0  0  0  0  0
    5.5842   -2.4410    0.0000 H   0  0  0  0  0  0  0  0  0  0  0  0
    6.1478   -3.0046    0.0000 H   0  0  0  0  0  0  0  0  0  0  0  0
    5.7164    0.0678    0.0000 H   0  0  0  0  0  0  0  0  0  0  0  0
    5.0964    0.6878    0.0000 H   0  0  0  0  0  0  0  0  0  0  0  0
    4.4764    0.0678    0.0000 H   0  0  0  0  0  0  0  0  0  0  0  0
    4.9028   -2.3814    0.0000 H   0  0  0  0  0  0  0  0  0  0  0  0
    2.0000   -1.1222    0.0000 H   0  0  0  0  0  0  0  0  0  0  0  0
    7.3282   -3.2446    0.0000 H   0  0  0  0  0  0  0  0  0  0  0  0
    1.9170   -2.4322    0.0000 H   0  0  0  0  0  0  0  0  0  0  0  0
    2.5370   -3.0522    0.0000 H   0  0  0  0  0  0  0  0  0  0  0  0
    3.1570   -2.4322    0.0000 H   0  0  0  0  0  0  0  0  0  0  0  0
  1  9  1  0  0  0  0
  1 19  1  0  0  0  0
  2 15  1  0  0  0  0
  2 21  1  0  0  0  0
 17  3  1  6  0  0  0
  3 45  1  0  0  0  0
  4 19  2  0  0  0  0
  5 21  2  0  0  0  0
  6 22  1  0  0  0  0
  6 47  1  0  0  0  0
  7  8  1  0  0  0  0
  7 11  1  0  0  0  0
  7 13  1  0  0  0  0
  8  9  1  0  0  0  0
  8 12  1  0  0  0  0
  8 26  1  1  0  0  0
  9 10  1  0  0  0  0
  9 27  1  1  0  0  0
 10 11  1  0  0  0  0
 10 28  1  0  0  0  0
 10 29  1  0  0  0  0
 11 30  1  0  0  0  0
 11 31  1  0  0  0  0
 12 14  2  0  0  0  0
 12 15  1  0  0  0  0
 13 14  1  0  0  0  0
 13 32  1  0  0  0  0
 13 33  1  0  0  0  0
 14 34  1  0  0  0  0
 15 35  1  0  0  0  0
 15 36  1  0  0  0  0
 16 17  1  0  0  0  0
 16 18  1  0  0  0  0
 16 23  1  1  0  0  0
 16 37  1  0  0  0  0
 17 21  1  0  0  0  0
 17 22  1  0  0  0  0
 18 20  1  0  0  0  0
 18 38  1  0  0  0  0
 18 39  1  0  0  0  0
 19 20  1  0  0  0  0
 20 24  2  0  0  0  0
 22 40  1  0  0  0  0
 22 41  1  0  0  0  0
 23 42  1  0  0  0  0
 23 43  1  0  0  0  0
 23 44  1  0  0  0  0
 24 25  1  0  0  0  0
 24 46  1  0  0  0  0
 25 48  1  0  0  0  0
 25 49  1  0  0  0  0
 25 50  1  0  0  0  0
M  END
> <PUBCHEM_COMPOUND_CID>
5281756

> <PUBCHEM_COMPOUND_CANONICALIZED>
1

> <PUBCHEM_CACTVS_COMPLEXITY>
627

> <PUBCHEM_CACTVS_HBOND_ACCEPTOR>
7

> <PUBCHEM_CACTVS_HBOND_DONOR>
2

> <PUBCHEM_CACTVS_ROTATABLE_BOND>
1

> <PUBCHEM_CACTVS_SUBSKEYS>
AAADceB6OAAAAAAAAAAAAAAAAAAAAWIAAAAAAAAAAAAQAAAAAAAAHgAACAAADXzhgAYCCAMABgCIAiDSCAKAAAAgAAAACAFIAEgDFBYAoQAHUAAH4ACbIYPYbBxOgAAAAAAAAAAAAAAAAAAAAAAAAAAAAA==

> <PUBCHEM_IUPAC_INCHI>
InChI=1S/C18H25NO6/c1-3-12-8-11(2)18(23,10-20)17(22)24-9-13-4-6-19-7-5-14(15(13)19)25-16(12)21/h3-4,11,14-15,20,23H,5-10H2,1-2H3/b12-3+/t11-,14-,15-,18-/m1/s1

> <PUBCHEM_IUPAC_INCHIKEY>
BCJMNZRQJAVDLD-FXGRWVCYSA-N

> <PUBCHEM_XLOGP3_AA>
0.6

> <PUBCHEM_EXACT_MASS>
351.168188

> <PUBCHEM_MOLECULAR_FORMULA>
C18H25NO6

> <PUBCHEM_MOLECULAR_WEIGHT>
351.3942

> <PUBCHEM_OPENEYE_CAN_SMILES>
CC=C1CC(C(C(=O)OCC2=CCN3C2C(CC3)OC1=O)(CO)O)C

> <PUBCHEM_OPENEYE_ISO_SMILES>
C/C=C/1\C[C@H]([C@@](C(=O)OCC2=CCN3[C@H]2[C@@H](CC3)OC1=O)(CO)O)C

> <PUBCHEM_CACTVS_TPSA>
96.3

> <PUBCHEM_MONOISOTOPIC_WEIGHT>
351.168188

> <PUBCHEM_TOTAL_CHARGE>
0

> <PUBCHEM_HEAVY_ATOM_COUNT>
25

> <PUBCHEM_ATOM_DEF_STEREO_COUNT>
4

> <PUBCHEM_ATOM_UDEF_STEREO_COUNT>
0

> <PUBCHEM_BOND_DEF_STEREO_COUNT>
1

> <PUBCHEM_BOND_UDEF_STEREO_COUNT>
0

> <PUBCHEM_ISOTOPIC_ATOM_COUNT>
0

> <PUBCHEM_COMPONENT_COUNT>
1

> <PUBCHEM_CACTVS_TAUTO_COUNT>
1

> <PUBCHEM_COORDINATE_TYPE>
1
5
255

> <PUBCHEM_BONDANNOTATIONS>
16  23  5
17  3  6
8  26  5
9  27  5

$$$$

