442300
  -OEChem-07051212573D

 44 47  0     1  0  0  0  0  0999 V2000
   -2.3787    2.6455   -1.3411 O   0  0  0  0  0  0  0  0  0  0  0  0
    3.5403    1.4115    1.0970 O   0  0  0  0  0  0  0  0  0  0  0  0
   -1.5265   -1.8852   -0.0749 N   0  0  2  0  0  0  0  0  0  0  0  0
   -0.9423   -0.5342    0.1810 C   0  0  2  0  0  0  0  0  0  0  0  0
   -1.4352   -0.1866    1.6204 C   0  0  2  0  0  0  0  0  0  0  0  0
   -1.6307    0.4112   -0.8482 C   0  0  0  0  0  0  0  0  0  0  0  0
   -2.6438   -1.0956    1.8254 C   0  0  0  0  0  0  0  0  0  0  0  0
   -2.2064   -2.3652    1.1303 C   0  0  0  0  0  0  0  0  0  0  0  0
    0.5787   -0.4644   -0.0086 C   0  0  0  0  0  0  0  0  0  0  0  0
   -0.6583   -2.9088   -0.6527 C   0  0  0  0  0  0  0  0  0  0  0  0
   -1.4905    1.9014   -0.5073 C   0  0  2  0  0  0  0  0  0  0  0  0
   -1.7912    1.2511    1.8798 C   0  0  0  0  0  0  0  0  0  0  0  0
    0.3280   -2.3309   -1.6621 C   0  0  0  0  0  0  0  0  0  0  0  0
    1.1840   -1.3163   -0.9562 C   0  0  0  0  0  0  0  0  0  0  0  0
   -1.7940    2.1956    0.9299 C   0  0  0  0  0  0  0  0  0  0  0  0
    1.3952    0.4504    0.6736 C   0  0  0  0  0  0  0  0  0  0  0  0
    2.5549   -1.2255   -1.2284 C   0  0  0  0  0  0  0  0  0  0  0  0
    2.7655    0.5256    0.4113 C   0  0  0  0  0  0  0  0  0  0  0  0
    3.3435   -0.3068   -0.5420 C   0  0  0  0  0  0  0  0  0  0  0  0
   -2.1251    2.3958   -2.7141 C   0  0  0  0  0  0  0  0  0  0  0  0
    4.9327    1.4312    0.7869 C   0  0  0  0  0  0  0  0  0  0  0  0
   -0.6705   -0.4853    2.3521 H   0  0  0  0  0  0  0  0  0  0  0  0
   -2.7045    0.1751   -0.9134 H   0  0  0  0  0  0  0  0  0  0  0  0
   -1.2306    0.2075   -1.8493 H   0  0  0  0  0  0  0  0  0  0  0  0
   -3.5456   -0.6856    1.3526 H   0  0  0  0  0  0  0  0  0  0  0  0
   -2.8615   -1.2628    2.8854 H   0  0  0  0  0  0  0  0  0  0  0  0
   -1.5254   -2.9201    1.7880 H   0  0  0  0  0  0  0  0  0  0  0  0
   -3.0576   -3.0081    0.8864 H   0  0  0  0  0  0  0  0  0  0  0  0
   -1.2771   -3.6670   -1.1464 H   0  0  0  0  0  0  0  0  0  0  0  0
   -0.0877   -3.4227    0.1336 H   0  0  0  0  0  0  0  0  0  0  0  0
   -0.4699    2.2499   -0.7088 H   0  0  0  0  0  0  0  0  0  0  0  0
   -2.0273    1.5326    2.9024 H   0  0  0  0  0  0  0  0  0  0  0  0
   -0.1883   -1.8622   -2.5076 H   0  0  0  0  0  0  0  0  0  0  0  0
    0.9457   -3.1441   -2.0608 H   0  0  0  0  0  0  0  0  0  0  0  0
   -2.0178    3.2220    1.2067 H   0  0  0  0  0  0  0  0  0  0  0  0
    0.9781    1.1272    1.4131 H   0  0  0  0  0  0  0  0  0  0  0  0
    3.0142   -1.8781   -1.9661 H   0  0  0  0  0  0  0  0  0  0  0  0
    4.3976   -0.2970   -0.7965 H   0  0  0  0  0  0  0  0  0  0  0  0
   -2.5961    1.4641   -3.0408 H   0  0  0  0  0  0  0  0  0  0  0  0
   -1.0544    2.3991   -2.9436 H   0  0  0  0  0  0  0  0  0  0  0  0
   -2.5901    3.2036   -3.2878 H   0  0  0  0  0  0  0  0  0  0  0  0
    5.3952    2.1906    1.4260 H   0  0  0  0  0  0  0  0  0  0  0  0
    5.1099    1.7358   -0.2501 H   0  0  0  0  0  0  0  0  0  0  0  0
    5.4126    0.4764    1.0275 H   0  0  0  0  0  0  0  0  0  0  0  0
  1 11  1  0  0  0  0
  1 20  1  0  0  0  0
  2 18  1  0  0  0  0
  2 21  1  0  0  0  0
  3  4  1  0  0  0  0
  3  8  1  0  0  0  0
  3 10  1  0  0  0  0
  4  5  1  0  0  0  0
  4  6  1  0  0  0  0
  4  9  1  0  0  0  0
  5  7  1  0  0  0  0
  5 12  1  0  0  0  0
  5 22  1  0  0  0  0
  6 11  1  0  0  0  0
  6 23  1  0  0  0  0
  6 24  1  0  0  0  0
  7  8  1  0  0  0  0
  7 25  1  0  0  0  0
  7 26  1  0  0  0  0
  8 27  1  0  0  0  0
  8 28  1  0  0  0  0
  9 14  2  0  0  0  0
  9 16  1  0  0  0  0
 10 13  1  0  0  0  0
 10 29  1  0  0  0  0
 10 30  1  0  0  0  0
 11 15  1  0  0  0  0
 11 31  1  0  0  0  0
 12 15  2  0  0  0  0
 12 32  1  0  0  0  0
 13 14  1  0  0  0  0
 13 33  1  0  0  0  0
 13 34  1  0  0  0  0
 14 17  1  0  0  0  0
 15 35  1  0  0  0  0
 16 18  2  0  0  0  0
 16 36  1  0  0  0  0
 17 19  2  0  0  0  0
 17 37  1  0  0  0  0
 18 19  1  0  0  0  0
 19 38  1  0  0  0  0
 20 39  1  0  0  0  0
 20 40  1  0  0  0  0
 20 41  1  0  0  0  0
 21 42  1  0  0  0  0
 21 43  1  0  0  0  0
 21 44  1  0  0  0  0
M  END
> <PUBCHEM_COMPOUND_CID>
442300

> <PUBCHEM_CONFORMER_RMSD>
0.6

> <PUBCHEM_CONFORMER_DIVERSEORDER>
4
1
6
8
3
9
2
5
7

> <PUBCHEM_MMFF94_PARTIAL_CHARGES>
24
1 -0.56
10 0.27
11 0.42
12 -0.29
13 0.14
14 -0.14
15 -0.29
16 -0.15
17 -0.15
18 0.08
19 -0.15
2 -0.36
20 0.28
21 0.28
3 -0.81
32 0.15
35 0.15
36 0.15
37 0.15
38 0.15
4 0.41
5 0.14
8 0.27
9 -0.14

> <PUBCHEM_EFFECTIVE_ROTOR_COUNT>
3.2

> <PUBCHEM_PHARMACOPHORE_FEATURES>
7
1 1 acceptor
1 2 acceptor
1 3 cation
5 3 4 5 7 8 rings
6 3 4 9 10 13 14 rings
6 4 5 6 11 12 15 rings
6 9 14 16 17 18 19 rings

> <PUBCHEM_HEAVY_ATOM_COUNT>
21

> <PUBCHEM_ATOM_DEF_STEREO_COUNT>
3

> <PUBCHEM_ATOM_UDEF_STEREO_COUNT>
0

> <PUBCHEM_BOND_DEF_STEREO_COUNT>
0

> <PUBCHEM_BOND_UDEF_STEREO_COUNT>
0

> <PUBCHEM_ISOTOPIC_ATOM_COUNT>
0

> <PUBCHEM_COMPONENT_COUNT>
1

> <PUBCHEM_CACTVS_TAUTO_COUNT>
1

> <PUBCHEM_CONFORMER_ID>
0006BFBC00000004

> <PUBCHEM_MMFF94_ENERGY>
69.4307

> <PUBCHEM_FEATURE_SELFOVERLAP>
35.753

> <PUBCHEM_SHAPE_FINGERPRINT>
10165383 225 17405100455989572581
11725454 13 17700714009656258220
12077114 3 18340501018803705072
12173636 292 17895461592464367696
12403814 3 18264772047723442698
12423570 1 15598128459794687731
13140716 1 17465662286961141314
13294875 104 16909471473612543395
13583140 156 18272380767499382368
14142880 1 17822570504098165089
14614273 12 18261397680876573750
14817 1 5539525716376308785
14840074 17 16543575453009231944
14955137 171 17112373772980387522
15852999 172 18196666300112312164
16945 1 17897987063109282515
1813 80 17912910704616299979
18219364 16 18191011494841858928
18769570 83 17846224319959837535
18981168 100 18261103106391976512
20511035 2 16411528998543160219
20600515 1 17985813849060983219
21304303 282 17341580415333265613
21524375 3 17842004582714882469
21639500 275 17829892383892338687
21756936 100 16733252457841094984
22182313 1 18334006207965946012
22907989 373 18411696548058999340
2306618 200 18190191095974527280
2334 1 16888365845648724682
238 59 17903368335150950957
25 1 17759227888203375076
2748010 2 18261663865901417070
350125 39 18116410653279107670
3524813 1 17118560068175603363
6049 1 18335403687134144374
81228 2 18057016134726653163
90316 7 18129654193251724475
9981440 41 18044402571586881528

> <PUBCHEM_SHAPE_MULTIPOLES>
415.45
5.53
3.18
2.05
7.57
0.37
0.65
-2.73
-1.54
-1.93
1.14
-1.48
-0.81
2.16

> <PUBCHEM_SHAPE_SELFOVERLAP>
902.992

> <PUBCHEM_SHAPE_VOLUME>
226

> <PUBCHEM_COORDINATE_TYPE>
2
5
10

$$$$

