256420
  -OEChem-07051213063D

 55 57  0     0  0  0  0  0  0999 V2000
   -0.0355    0.4235    0.1289 O   0  0  0  0  0  0  0  0  0  0  0  0
   -3.9678   -2.3727   -0.2734 O   0  0  0  0  0  0  0  0  0  0  0  0
   -1.6390    2.5918    0.3934 O   0  0  0  0  0  0  0  0  0  0  0  0
   -5.5280   -0.1513   -0.0011 O   0  0  0  0  0  0  0  0  0  0  0  0
   -4.3810    2.3302    0.3326 O   0  0  0  0  0  0  0  0  0  0  0  0
    2.3147   -0.6649    2.4317 O   0  0  0  0  0  0  0  0  0  0  0  0
   -1.5411   -3.3283   -0.3761 O   0  0  0  0  0  0  0  0  0  0  0  0
    4.8976    0.5671   -2.2830 O   0  0  0  0  0  0  0  0  0  0  0  0
    6.2887    0.5560    0.1225 O   0  0  0  0  0  0  0  0  0  0  0  0
   -1.9746   -1.0246   -0.0781 C   0  0  0  0  0  0  0  0  0  0  0  0
   -1.3933    0.2310    0.0907 C   0  0  0  0  0  0  0  0  0  0  0  0
    0.7922   -0.6815    0.0007 C   0  0  0  0  0  0  0  0  0  0  0  0
   -3.3643   -1.1612   -0.1102 C   0  0  0  0  0  0  0  0  0  0  0  0
   -2.2007    1.3602    0.2286 C   0  0  0  0  0  0  0  0  0  0  0  0
    2.2329   -0.3608    0.0491 C   0  0  0  0  0  0  0  0  0  0  0  0
   -1.0996   -2.1980   -0.2228 C   0  0  0  0  0  0  0  0  0  0  0  0
   -4.1695   -0.0301    0.0282 C   0  0  0  0  0  0  0  0  0  0  0  0
   -3.5892    1.2280    0.1973 C   0  0  0  0  0  0  0  0  0  0  0  0
    0.3534   -1.9384   -0.1731 C   0  0  0  0  0  0  0  0  0  0  0  0
    2.9378   -0.3636    1.2568 C   0  0  0  0  0  0  0  0  0  0  0  0
    2.9018   -0.0467   -1.1379 C   0  0  0  0  0  0  0  0  0  0  0  0
    4.2619    0.2617   -1.1175 C   0  0  0  0  0  0  0  0  0  0  0  0
    4.2980   -0.0553    1.2772 C   0  0  0  0  0  0  0  0  0  0  0  0
    4.9602    0.2573    0.0900 C   0  0  0  0  0  0  0  0  0  0  0  0
   -4.2411   -2.7846   -1.6108 C   0  0  0  0  0  0  0  0  0  0  0  0
   -1.3599    3.3388   -0.7883 C   0  0  0  0  0  0  0  0  0  0  0  0
   -6.2183    0.5600   -1.0254 C   0  0  0  0  0  0  0  0  0  0  0  0
   -4.7693    2.6888    1.6565 C   0  0  0  0  0  0  0  0  0  0  0  0
    3.1139   -0.6425    3.6121 C   0  0  0  0  0  0  0  0  0  0  0  0
    4.9177    1.9398   -2.6698 C   0  0  0  0  0  0  0  0  0  0  0  0
    7.2011   -0.5298   -0.0286 C   0  0  0  0  0  0  0  0  0  0  0  0
    1.0243   -2.7837   -0.2781 H   0  0  0  0  0  0  0  0  0  0  0  0
    2.3661   -0.0397   -2.0851 H   0  0  0  0  0  0  0  0  0  0  0  0
    4.9007   -0.0384    2.1790 H   0  0  0  0  0  0  0  0  0  0  0  0
   -5.1090   -2.2427   -1.9985 H   0  0  0  0  0  0  0  0  0  0  0  0
   -3.3808   -2.6210   -2.2679 H   0  0  0  0  0  0  0  0  0  0  0  0
   -4.4746   -3.8528   -1.5992 H   0  0  0  0  0  0  0  0  0  0  0  0
   -2.2812    3.5389   -1.3444 H   0  0  0  0  0  0  0  0  0  0  0  0
   -0.6469    2.8039   -1.4237 H   0  0  0  0  0  0  0  0  0  0  0  0
   -0.9161    4.2935   -0.4929 H   0  0  0  0  0  0  0  0  0  0  0  0
   -6.6078    1.5023   -0.6304 H   0  0  0  0  0  0  0  0  0  0  0  0
   -7.0692   -0.0498   -1.3432 H   0  0  0  0  0  0  0  0  0  0  0  0
   -5.5868    0.7453   -1.9016 H   0  0  0  0  0  0  0  0  0  0  0  0
   -5.4024    3.5783    1.5982 H   0  0  0  0  0  0  0  0  0  0  0  0
   -5.3431    1.8816    2.1228 H   0  0  0  0  0  0  0  0  0  0  0  0
   -3.8906    2.9244    2.2651 H   0  0  0  0  0  0  0  0  0  0  0  0
    2.4579   -0.9062    4.4484 H   0  0  0  0  0  0  0  0  0  0  0  0
    3.5014    0.3608    3.8201 H   0  0  0  0  0  0  0  0  0  0  0  0
    3.9044   -1.4002    3.5808 H   0  0  0  0  0  0  0  0  0  0  0  0
    5.4292    2.5455   -1.9151 H   0  0  0  0  0  0  0  0  0  0  0  0
    3.8989    2.3101   -2.8219 H   0  0  0  0  0  0  0  0  0  0  0  0
    5.4643    2.0219   -3.6132 H   0  0  0  0  0  0  0  0  0  0  0  0
    7.0571   -1.0226   -0.9953 H   0  0  0  0  0  0  0  0  0  0  0  0
    7.0755   -1.2521    0.7842 H   0  0  0  0  0  0  0  0  0  0  0  0
    8.2183   -0.1306    0.0123 H   0  0  0  0  0  0  0  0  0  0  0  0
  1 11  1  0  0  0  0
  1 12  1  0  0  0  0
  2 13  1  0  0  0  0
  2 25  1  0  0  0  0
  3 14  1  0  0  0  0
  3 26  1  0  0  0  0
  4 17  1  0  0  0  0
  4 27  1  0  0  0  0
  5 18  1  0  0  0  0
  5 28  1  0  0  0  0
  6 20  1  0  0  0  0
  6 29  1  0  0  0  0
  7 16  2  0  0  0  0
  8 22  1  0  0  0  0
  8 30  1  0  0  0  0
  9 24  1  0  0  0  0
  9 31  1  0  0  0  0
 10 11  2  0  0  0  0
 10 13  1  0  0  0  0
 10 16  1  0  0  0  0
 11 14  1  0  0  0  0
 12 15  1  0  0  0  0
 12 19  2  0  0  0  0
 13 17  2  0  0  0  0
 14 18  2  0  0  0  0
 15 20  1  0  0  0  0
 15 21  2  0  0  0  0
 16 19  1  0  0  0  0
 17 18  1  0  0  0  0
 19 32  1  0  0  0  0
 20 23  2  0  0  0  0
 21 22  1  0  0  0  0
 21 33  1  0  0  0  0
 22 24  2  0  0  0  0
 23 24  1  0  0  0  0
 23 34  1  0  0  0  0
 25 35  1  0  0  0  0
 25 36  1  0  0  0  0
 25 37  1  0  0  0  0
 26 38  1  0  0  0  0
 26 39  1  0  0  0  0
 26 40  1  0  0  0  0
 27 41  1  0  0  0  0
 27 42  1  0  0  0  0
 27 43  1  0  0  0  0
 28 44  1  0  0  0  0
 28 45  1  0  0  0  0
 28 46  1  0  0  0  0
 29 47  1  0  0  0  0
 29 48  1  0  0  0  0
 29 49  1  0  0  0  0
 30 50  1  0  0  0  0
 30 51  1  0  0  0  0
 30 52  1  0  0  0  0
 31 53  1  0  0  0  0
 31 54  1  0  0  0  0
 31 55  1  0  0  0  0
M  END
> <PUBCHEM_COMPOUND_CID>
256420

> <PUBCHEM_CONFORMER_RMSD>
1

> <PUBCHEM_CONFORMER_DIVERSEORDER>
8
5
9
1
6
4
10
2
7
3

> <PUBCHEM_MMFF94_PARTIAL_CHARGES>
34
1 -0.16
10 0.09
11 0.08
12 0.05
13 0.08
14 0.08
15 0.03
16 0.47
17 0.08
18 0.08
19 -0.14
2 -0.36
20 0.08
21 -0.15
22 0.08
23 -0.15
24 0.08
25 0.28
26 0.28
27 0.28
28 0.28
29 0.28
3 -0.36
30 0.28
31 0.28
32 0.15
33 0.15
34 0.15
4 -0.36
5 -0.36
6 -0.36
7 -0.57
8 -0.36
9 -0.36

> <PUBCHEM_EFFECTIVE_ROTOR_COUNT>
8

> <PUBCHEM_PHARMACOPHORE_FEATURES>
12
1 1 acceptor
1 2 acceptor
1 3 acceptor
1 4 acceptor
1 5 acceptor
1 6 acceptor
1 7 acceptor
1 8 acceptor
1 9 acceptor
6 1 10 11 12 16 19 rings
6 10 11 13 14 17 18 rings
6 15 20 21 22 23 24 rings

> <PUBCHEM_HEAVY_ATOM_COUNT>
31

> <PUBCHEM_ATOM_DEF_STEREO_COUNT>
0

> <PUBCHEM_ATOM_UDEF_STEREO_COUNT>
0

> <PUBCHEM_BOND_DEF_STEREO_COUNT>
0

> <PUBCHEM_BOND_UDEF_STEREO_COUNT>
0

> <PUBCHEM_ISOTOPIC_ATOM_COUNT>
0

> <PUBCHEM_COMPONENT_COUNT>
1

> <PUBCHEM_CACTVS_TAUTO_COUNT>
1

> <PUBCHEM_CONFORMER_ID>
0003E9A400000008

> <PUBCHEM_MMFF94_ENERGY>
168.1499

> <PUBCHEM_FEATURE_SELFOVERLAP>
60.96

> <PUBCHEM_SHAPE_FINGERPRINT>
10319926 262 18042426710859446258
10369192 42 16736945592845185368
10411042 1 18046632197070863151
10670039 82 18337109068012521452
10906281 52 18269545191673480777
11595378 159 18201732785390005032
12236239 1 18060703858261528830
12390115 104 17895743132472177961
12403259 415 17531256036522287658
12596602 18 17561075869772449451
12616971 3 17775560944946186500
12788726 201 18271249416836403673
13140716 1 18191025604716813907
13782708 43 17458626675385566558
14294032 229 18338801246446592301
14790565 3 18338504322630714941
14840074 17 17988628706028348797
14910302 57 18187632652913290854
15021287 119 17631177557832723994
15131766 46 16628257811507736404
15183329 4 18409447025269070210
15297060 5 18187920733154108832
15328829 1 17988654003775715898
15575132 122 18130780209371202165
16087824 20 18333733530116362319
16988056 13 15603999478104311300
19319366 153 17775567542015765248
20511986 3 18060146396706626156
21033648 144 16916219958446396966
21033648 29 17168157744581676784
21133410 230 14163714059598995555
21792961 116 17022893572289075692
22122407 14 17203607125080846813
23402539 116 18335144154755296911
23559900 14 17968100784987132906
34797466 226 17313382297019802492
350125 39 18120934168321793498
38570 142 17344598549646384516
46194498 28 17168985574391400048
474 4 17203323387035593984
5252454 2 18116432733700422785
5265222 85 18114742608936842598
6823239 73 18113623335573655360
7808743 9 18336264642897877384

> <PUBCHEM_SHAPE_MULTIPOLES>
585.14
14.8
2.97
2.05
8.81
0.35
1.04
3
-2.66
-4.6
-0.7
3.16
0.27
-3.07

> <PUBCHEM_SHAPE_SELFOVERLAP>
1263.537

> <PUBCHEM_SHAPE_VOLUME>
323.5

> <PUBCHEM_COORDINATE_TYPE>
2
5
10

$$$$

