47205539
  -OEChem-06241222592D

 26 27  0     0  0  0  0  0  0999 V2000
    2.0570   -1.1442    0.0000 O   0  0  0  0  0  0  0  0  0  0  0  0
    4.9483    0.5114    0.0000 O   0  0  0  0  0  0  0  0  0  0  0  0
    2.3660   -0.1931    0.0000 N   0  0  0  0  0  0  0  0  0  0  0  0
    3.5471    1.5294    0.0000 N   0  0  0  0  0  0  0  0  0  0  0  0
    3.7320   -4.2320    0.0000 N   0  0  0  0  0  0  0  0  0  0  0  0
    2.8660   -1.7320    0.0000 C   0  0  0  0  0  0  0  0  0  0  0  0
    2.8660   -2.7320    0.0000 C   0  0  0  0  0  0  0  0  0  0  0  0
    3.6750   -1.1442    0.0000 C   0  0  0  0  0  0  0  0  0  0  0  0
    3.3660   -0.1931    0.0000 C   0  0  0  0  0  0  0  0  0  0  0  0
    2.0000   -3.2320    0.0000 C   0  0  0  0  0  0  0  0  0  0  0  0
    3.9538    0.6159    0.0000 C   0  0  0  0  0  0  0  0  0  0  0  0
    3.7320   -3.2320    0.0000 C   0  0  0  0  0  0  0  0  0  0  0  0
    2.0000   -4.2320    0.0000 C   0  0  0  0  0  0  0  0  0  0  0  0
    4.1349    2.3385    0.0000 C   0  0  0  0  0  0  0  0  0  0  0  0
    2.8660   -4.7320    0.0000 C   0  0  0  0  0  0  0  0  0  0  0  0
    3.7281    3.2520    0.0000 C   0  0  0  0  0  0  0  0  0  0  0  0
    3.3214    4.1656    0.0000 C   0  0  0  0  0  0  0  0  0  0  0  0
    4.2647   -1.3358    0.0000 H   0  0  0  0  0  0  0  0  0  0  0  0
    1.4631   -2.9220    0.0000 H   0  0  0  0  0  0  0  0  0  0  0  0
    4.2690   -2.9220    0.0000 H   0  0  0  0  0  0  0  0  0  0  0  0
    2.9305    1.5943    0.0000 H   0  0  0  0  0  0  0  0  0  0  0  0
    1.4631   -4.5420    0.0000 H   0  0  0  0  0  0  0  0  0  0  0  0
    4.5656    1.8925    0.0000 H   0  0  0  0  0  0  0  0  0  0  0  0
    4.6489    2.6852    0.0000 H   0  0  0  0  0  0  0  0  0  0  0  0
    2.8660   -5.3520    0.0000 H   0  0  0  0  0  0  0  0  0  0  0  0
    3.0692    4.7320    0.0000 H   0  0  0  0  0  0  0  0  0  0  0  0
  1  3  1  0  0  0  0
  1  6  1  0  0  0  0
  2 11  2  0  0  0  0
  3  9  2  0  0  0  0
  4 11  1  0  0  0  0
  4 14  1  0  0  0  0
  4 21  1  0  0  0  0
  5 12  1  0  0  0  0
  5 15  2  0  0  0  0
  6  7  1  0  0  0  0
  6  8  2  0  0  0  0
  7 10  1  0  0  0  0
  7 12  2  0  0  0  0
  8  9  1  0  0  0  0
  8 18  1  0  0  0  0
  9 11  1  0  0  0  0
 10 13  2  0  0  0  0
 10 19  1  0  0  0  0
 12 20  1  0  0  0  0
 13 15  1  0  0  0  0
 13 22  1  0  0  0  0
 14 16  1  0  0  0  0
 14 23  1  0  0  0  0
 14 24  1  0  0  0  0
 15 25  1  0  0  0  0
 16 17  3  0  0  0  0
 17 26  1  0  0  0  0
M  END
> <PUBCHEM_COMPOUND_CID>
47205539

> <PUBCHEM_COMPOUND_CANONICALIZED>
1

> <PUBCHEM_CACTVS_COMPLEXITY>
323

> <PUBCHEM_CACTVS_HBOND_ACCEPTOR>
4

> <PUBCHEM_CACTVS_HBOND_DONOR>
1

> <PUBCHEM_CACTVS_ROTATABLE_BOND>
3

> <PUBCHEM_CACTVS_SUBSKEYS>
AAADccBzMAAAAAAAAAAAAAAAAAAAAWAAAAAsAAAAAAAAAAAB4AAAHgAUAAAADAzBngQ8hJLYEADpG7V3VgCCgCA3IiAo2KG+bNoIZvrAlZOUMYhmxhnIyce/mYKOAAAAAAAAAAAAAAAAAAAAAAAAAAAAAA==

> <PUBCHEM_IUPAC_OPENEYE_NAME>
N-prop-2-ynyl-5-(3-pyridyl)isoxazole-3-carboxamide

> <PUBCHEM_IUPAC_CAS_NAME>
N-prop-2-ynyl-5-(3-pyridinyl)-3-isoxazolecarboxamide

> <PUBCHEM_IUPAC_NAME>
N-prop-2-ynyl-5-pyridin-3-yl-1,2-oxazole-3-carboxamide

> <PUBCHEM_IUPAC_SYSTEMATIC_NAME>
N-prop-2-ynyl-5-pyridin-3-yl-1,2-oxazole-3-carboxamide

> <PUBCHEM_IUPAC_TRADITIONAL_NAME>
N-propargyl-5-(3-pyridyl)isoxazole-3-carboxamide

> <PUBCHEM_IUPAC_INCHI>
InChI=1S/C12H9N3O2/c1-2-5-14-12(16)10-7-11(17-15-10)9-4-3-6-13-8-9/h1,3-4,6-8H,5H2,(H,14,16)

> <PUBCHEM_IUPAC_INCHIKEY>
IOESZMKMKLQGGI-UHFFFAOYSA-N

> <PUBCHEM_XLOGP3_AA>
0.7

> <PUBCHEM_EXACT_MASS>
227.069477

> <PUBCHEM_MOLECULAR_FORMULA>
C12H9N3O2

> <PUBCHEM_MOLECULAR_WEIGHT>
227.21876

> <PUBCHEM_OPENEYE_CAN_SMILES>
C#CCNC(=O)C1=NOC(=C1)C2=CN=CC=C2

> <PUBCHEM_OPENEYE_ISO_SMILES>
C#CCNC(=O)C1=NOC(=C1)C2=CN=CC=C2

> <PUBCHEM_CACTVS_TPSA>
68

> <PUBCHEM_MONOISOTOPIC_WEIGHT>
227.069477

> <PUBCHEM_TOTAL_CHARGE>
0

> <PUBCHEM_HEAVY_ATOM_COUNT>
17

> <PUBCHEM_ATOM_DEF_STEREO_COUNT>
0

> <PUBCHEM_ATOM_UDEF_STEREO_COUNT>
0

> <PUBCHEM_BOND_DEF_STEREO_COUNT>
0

> <PUBCHEM_BOND_UDEF_STEREO_COUNT>
0

> <PUBCHEM_ISOTOPIC_ATOM_COUNT>
0

> <PUBCHEM_COMPONENT_COUNT>
1

> <PUBCHEM_CACTVS_TAUTO_COUNT>
2

> <PUBCHEM_COORDINATE_TYPE>
1
5
255

> <PUBCHEM_BONDANNOTATIONS>
1  3  8
1  6  8
10  13  8
13  15  8
3  9  8
5  12  8
5  15  8
6  8  8
7  10  8
7  12  8
8  9  8

$$$$

