130669
  -OEChem-07051213143D

 38 43  0     0  0  0  0  0  0999 V2000
   -1.2551   -0.7860    0.0004 C   0  0  0  0  0  0  0  0  0  0  0  0
   -1.0363    0.5763    0.0007 C   0  0  0  0  0  0  0  0  0  0  0  0
   -0.2493   -1.7483    0.0001 C   0  0  0  0  0  0  0  0  0  0  0  0
   -2.6241   -1.0421    0.0004 C   0  0  0  0  0  0  0  0  0  0  0  0
   -2.3280    1.2494    0.0006 C   0  0  0  0  0  0  0  0  0  0  0  0
    1.1019   -1.2560    0.0001 C   0  0  0  0  0  0  0  0  0  0  0  0
    1.3705    0.1589    0.0004 C   0  0  0  0  0  0  0  0  0  0  0  0
   -3.3230    0.2349    0.0004 C   0  0  0  0  0  0  0  0  0  0  0  0
    0.2615    1.0534    0.0007 C   0  0  0  0  0  0  0  0  0  0  0  0
    2.7357    0.6237    0.0004 C   0  0  0  0  0  0  0  0  0  0  0  0
   -0.7352   -3.0843   -0.0003 C   0  0  0  0  0  0  0  0  0  0  0  0
   -3.0737   -2.3470    0.0002 C   0  0  0  0  0  0  0  0  0  0  0  0
    2.1910   -2.1407   -0.0004 C   0  0  0  0  0  0  0  0  0  0  0  0
    3.7926   -0.3215   -0.0002 C   0  0  0  0  0  0  0  0  0  0  0  0
   -2.6719    2.5880   -0.0001 C   0  0  0  0  0  0  0  0  0  0  0  0
   -4.6683    0.5514   -0.0003 C   0  0  0  0  0  0  0  0  0  0  0  0
   -2.1187   -3.3705   -0.0002 C   0  0  0  0  0  0  0  0  0  0  0  0
    3.5058   -1.6853   -0.0005 C   0  0  0  0  0  0  0  0  0  0  0  0
    3.1179    1.9910    0.0003 C   0  0  0  0  0  0  0  0  0  0  0  0
   -4.0321    2.9103   -0.0008 C   0  0  0  0  0  0  0  0  0  0  0  0
   -5.0177    1.9048   -0.0010 C   0  0  0  0  0  0  0  0  0  0  0  0
    5.1348    0.0966   -0.0006 C   0  0  0  0  0  0  0  0  0  0  0  0
    4.4561    2.3958    0.0001 C   0  0  0  0  0  0  0  0  0  0  0  0
    5.4656    1.4473   -0.0004 C   0  0  0  0  0  0  0  0  0  0  0  0
    0.4040    2.1297    0.0009 H   0  0  0  0  0  0  0  0  0  0  0  0
   -0.0462   -3.9252   -0.0006 H   0  0  0  0  0  0  0  0  0  0  0  0
   -4.1317   -2.5855    0.0001 H   0  0  0  0  0  0  0  0  0  0  0  0
    2.0413   -3.2178   -0.0007 H   0  0  0  0  0  0  0  0  0  0  0  0
   -1.9217    3.3708   -0.0002 H   0  0  0  0  0  0  0  0  0  0  0  0
   -5.4355   -0.2148   -0.0006 H   0  0  0  0  0  0  0  0  0  0  0  0
   -2.4460   -4.4074   -0.0006 H   0  0  0  0  0  0  0  0  0  0  0  0
    4.3074   -2.4220   -0.0009 H   0  0  0  0  0  0  0  0  0  0  0  0
    2.3748    2.7841    0.0007 H   0  0  0  0  0  0  0  0  0  0  0  0
   -4.3360    3.9540   -0.0014 H   0  0  0  0  0  0  0  0  0  0  0  0
   -6.0672    2.1878   -0.0016 H   0  0  0  0  0  0  0  0  0  0  0  0
    5.9419   -0.6340   -0.0010 H   0  0  0  0  0  0  0  0  0  0  0  0
    4.7020    3.4537    0.0002 H   0  0  0  0  0  0  0  0  0  0  0  0
    6.5068    1.7550   -0.0007 H   0  0  0  0  0  0  0  0  0  0  0  0
  1  2  2  0  0  0  0
  1  3  1  0  0  0  0
  1  4  1  0  0  0  0
  2  5  1  0  0  0  0
  2  9  1  0  0  0  0
  3  6  2  0  0  0  0
  3 11  1  0  0  0  0
  4  8  1  0  0  0  0
  4 12  2  0  0  0  0
  5  8  1  0  0  0  0
  5 15  2  0  0  0  0
  6  7  1  0  0  0  0
  6 13  1  0  0  0  0
  7  9  2  0  0  0  0
  7 10  1  0  0  0  0
  8 16  2  0  0  0  0
  9 25  1  0  0  0  0
 10 14  1  0  0  0  0
 10 19  2  0  0  0  0
 11 17  2  0  0  0  0
 11 26  1  0  0  0  0
 12 17  1  0  0  0  0
 12 27  1  0  0  0  0
 13 18  2  0  0  0  0
 13 28  1  0  0  0  0
 14 18  1  0  0  0  0
 14 22  2  0  0  0  0
 15 20  1  0  0  0  0
 15 29  1  0  0  0  0
 16 21  1  0  0  0  0
 16 30  1  0  0  0  0
 17 31  1  0  0  0  0
 18 32  1  0  0  0  0
 19 23  1  0  0  0  0
 19 33  1  0  0  0  0
 20 21  2  0  0  0  0
 20 34  1  0  0  0  0
 21 35  1  0  0  0  0
 22 24  1  0  0  0  0
 22 36  1  0  0  0  0
 23 24  2  0  0  0  0
 23 37  1  0  0  0  0
 24 38  1  0  0  0  0
M  END
> <PUBCHEM_COMPOUND_CID>
130669

> <PUBCHEM_CONFORMER_RMSD>
0.6

> <PUBCHEM_CONFORMER_DIVERSEORDER>
1

> <PUBCHEM_MMFF94_PARTIAL_CHARGES>
28
11 -0.15
12 -0.15
13 -0.15
15 -0.15
16 -0.15
17 -0.15
18 -0.15
19 -0.15
20 -0.15
21 -0.15
22 -0.15
23 -0.15
24 -0.15
25 0.15
26 0.15
27 0.15
28 0.15
29 0.15
30 0.15
31 0.15
32 0.15
33 0.15
34 0.15
35 0.15
36 0.15
37 0.15
38 0.15
9 -0.15

> <PUBCHEM_EFFECTIVE_ROTOR_COUNT>
0

> <PUBCHEM_PHARMACOPHORE_FEATURES>
6
5 1 2 4 5 8 rings
6 1 2 3 6 7 9 rings
6 1 3 4 11 12 17 rings
6 10 14 19 22 23 24 rings
6 5 8 15 16 20 21 rings
6 6 7 10 13 14 18 rings

> <PUBCHEM_HEAVY_ATOM_COUNT>
24

> <PUBCHEM_ATOM_DEF_STEREO_COUNT>
0

> <PUBCHEM_ATOM_UDEF_STEREO_COUNT>
0

> <PUBCHEM_BOND_DEF_STEREO_COUNT>
0

> <PUBCHEM_BOND_UDEF_STEREO_COUNT>
0

> <PUBCHEM_ISOTOPIC_ATOM_COUNT>
0

> <PUBCHEM_COMPONENT_COUNT>
1

> <PUBCHEM_CACTVS_TAUTO_COUNT>
1

> <PUBCHEM_CONFORMER_ID>
0001FE6D00000001

> <PUBCHEM_MMFF94_ENERGY>
106.7361

> <PUBCHEM_FEATURE_SELFOVERLAP>
30.794

> <PUBCHEM_SHAPE_FINGERPRINT>
10050765 1 18410855418207429254
10319926 262 18263941977344063354
10411042 1 17617940227455038575
10493431 412 18411134762358024249
10616163 171 18338233748227877254
10948715 1 18338517542518459239
10967382 1 18266460004088343779
1100329 8 18196094563120689698
11370993 70 18410295851775497285
11578080 2 17024608693420200883
12107183 9 18198072563343511618
12173636 292 18410857655115023799
12390115 104 18262783147089940553
12633257 1 18270693064184376506
12788726 201 18126576626004727267
13140716 1 18342175634641385307
133893 2 15938352975259988063
138480 1 17329991807637705763
14767858 380 18263382360280079933
14787075 74 18187653526702320221
14790565 3 18265047123368304369
15042514 8 18196647407179392291
15131766 46 15839560537202341766
15196674 1 18410573955598584358
15320467 1 5008143458943911656
16087824 20 18337674119497797703
17492 89 18411699859764302642
19591789 44 18051412060955577511
20510252 161 18335416816506419923
20715895 44 18194688287347752881
21033648 144 18342186582444354068
21033648 29 18338247045357500929
21065198 57 18410573968536012908
21133410 171 17255180667418196734
21236236 1 18335984169144230183
21267235 1 18267576910613600706
21279426 13 18335413600208859574
21421861 104 17845385504230751018
21859007 373 17485949710870605164
22182313 1 18263340582247610983
22393880 68 18336539448517974870
23227448 37 18409167696942129357
23558518 356 18200871764785693674
23559900 14 18261393407922489678
283562 15 18125164835609820210
335352 9 18338797931269410046
34934 24 18412830191744299290
350125 39 18409727327487178417
3545911 37 18410009944540477012
3680242 22 18269839886079351258
4073 2 18201715112427913010
4214541 1 18410573964077820612
474 4 18265334091507407641
495365 180 17386021571753523858
5081480 168 17245229193494600806
5104073 3 18342179942946985138
633830 44 18116717524455306469
7808743 9 18411421674594728224
9709674 26 18335415755866087406
9981440 41 18413109437501394539

> <PUBCHEM_SHAPE_MULTIPOLES>
493.91
10.57
3.73
0.62
5.33
1.12
0
-7.04
0
-2.3
0
0
0
0

> <PUBCHEM_SHAPE_SELFOVERLAP>
1169.449

> <PUBCHEM_SHAPE_VOLUME>
227.6

> <PUBCHEM_COORDINATE_TYPE>
2
5
10

$$$$

