12123
  -OEChem-06261206333D

 19 19  0     0  0  0  0  0  0999 V2000
    3.8373   -1.4574   -0.0007 Br  0  0  0  0  0  0  0  0  0  0  0  0
   -2.8684    1.0559   -0.0021 O   0  0  0  0  0  0  0  0  0  0  0  0
   -1.3862   -0.7775    0.0001 N   0  0  0  0  0  0  0  0  0  0  0  0
   -0.1241   -0.1829    0.0000 C   0  0  0  0  0  0  0  0  0  0  0  0
    1.0226   -0.9771   -0.0001 C   0  0  0  0  0  0  0  0  0  0  0  0
   -0.0095    1.2073    0.0004 C   0  0  0  0  0  0  0  0  0  0  0  0
    2.2837   -0.3812    0.0000 C   0  0  0  0  0  0  0  0  0  0  0  0
    1.2516    1.8032    0.0006 C   0  0  0  0  0  0  0  0  0  0  0  0
    2.3982    1.0089    0.0003 C   0  0  0  0  0  0  0  0  0  0  0  0
   -2.6387   -0.1491    0.0007 C   0  0  0  0  0  0  0  0  0  0  0  0
   -3.7666   -1.1502    0.0007 C   0  0  0  0  0  0  0  0  0  0  0  0
    0.9308   -2.0612   -0.0004 H   0  0  0  0  0  0  0  0  0  0  0  0
   -0.8495    1.8877    0.0009 H   0  0  0  0  0  0  0  0  0  0  0  0
   -1.3868   -1.7954    0.0001 H   0  0  0  0  0  0  0  0  0  0  0  0
    1.3421    2.8857    0.0011 H   0  0  0  0  0  0  0  0  0  0  0  0
    3.3733    1.4891    0.0003 H   0  0  0  0  0  0  0  0  0  0  0  0
   -3.7200   -1.7588   -0.9068 H   0  0  0  0  0  0  0  0  0  0  0  0
   -4.7265   -0.6272    0.0294 H   0  0  0  0  0  0  0  0  0  0  0  0
   -3.6891   -1.7969    0.8792 H   0  0  0  0  0  0  0  0  0  0  0  0
  1  7  1  0  0  0  0
  2 10  2  0  0  0  0
  3  4  1  0  0  0  0
  3 10  1  0  0  0  0
  3 14  1  0  0  0  0
  4  5  2  0  0  0  0
  4  6  1  0  0  0  0
  5  7  1  0  0  0  0
  5 12  1  0  0  0  0
  6  8  2  0  0  0  0
  6 13  1  0  0  0  0
  7  9  2  0  0  0  0
  8  9  1  0  0  0  0
  8 15  1  0  0  0  0
  9 16  1  0  0  0  0
 10 11  1  0  0  0  0
 11 17  1  0  0  0  0
 11 18  1  0  0  0  0
 11 19  1  0  0  0  0
M  END
> <PUBCHEM_COMPOUND_CID>
12123

> <PUBCHEM_CONFORMER_RMSD>
0.4

> <PUBCHEM_CONFORMER_DIVERSEORDER>
1
3
4
2

> <PUBCHEM_MMFF94_PARTIAL_CHARGES>
16
1 -0.11
10 0.57
11 0.06
12 0.15
13 0.15
14 0.37
15 0.15
16 0.15
2 -0.57
3 -0.55
4 0.12
5 -0.15
6 -0.15
7 0.11
8 -0.15
9 -0.15

> <PUBCHEM_EFFECTIVE_ROTOR_COUNT>
2

> <PUBCHEM_PHARMACOPHORE_FEATURES>
4
1 1 hydrophobe
1 2 acceptor
1 3 donor
6 4 5 6 7 8 9 rings

> <PUBCHEM_HEAVY_ATOM_COUNT>
11

> <PUBCHEM_ATOM_DEF_STEREO_COUNT>
0

> <PUBCHEM_ATOM_UDEF_STEREO_COUNT>
0

> <PUBCHEM_BOND_DEF_STEREO_COUNT>
0

> <PUBCHEM_BOND_UDEF_STEREO_COUNT>
0

> <PUBCHEM_ISOTOPIC_ATOM_COUNT>
0

> <PUBCHEM_COMPONENT_COUNT>
1

> <PUBCHEM_CACTVS_TAUTO_COUNT>
2

> <PUBCHEM_CONFORMER_ID>
00002F5B00000001

> <PUBCHEM_MMFF94_ENERGY>
28.2925

> <PUBCHEM_FEATURE_SELFOVERLAP>
20.297

> <PUBCHEM_SHAPE_FINGERPRINT>
10130415 120 18341895225058903810
10219947 1 18260266356415493230
11543360 7 15841254987652849214
11769659 78 18408608058366444318
12032990 46 18410007771344956590
12932764 1 17531249392271066693
14144814 61 18409448068286337523
14252887 29 18186515540662957362
14325111 11 18410575054825271585
15442244 35 18409164445609856945
15477762 27 18338517430559113847
16945 1 18194683666036379524
18186145 218 17775570844450080167
20201158 50 18412263973199478823
20645477 70 18410860932354873271
20871998 22 18188765188539616150
21501925 9 18409740542748230770
23402655 69 18409174286033995141
23463225 33 18410292540572015902
23552423 10 18343581815460440708
2748010 2 18339654411687470980
7364860 26 18262519178763879704
8809292 202 18272927224224843179

> <PUBCHEM_SHAPE_MULTIPOLES>
221.47
6.25
1.74
0.61
2.13
0.39
0
-2.96
0
-0.69
0
-0.09
-0.02
0

> <PUBCHEM_SHAPE_SELFOVERLAP>
440.735

> <PUBCHEM_SHAPE_VOLUME>
134.5

> <PUBCHEM_COORDINATE_TYPE>
2
5
10

$$$$

