5730
  -OEChem-06261200503D

 52 54  0     0  0  0  0  0  0999 V2000
   -3.6024    2.7165    0.1225 O   0  0  0  0  0  0  0  0  0  0  0  0
    2.1009   -1.2350   -0.2945 O   0  0  0  0  0  0  0  0  0  0  0  0
    8.3294   -2.1864   -0.1385 O   0  0  0  0  0  0  0  0  0  0  0  0
   -1.9928    1.0150   -0.0826 N   0  0  0  0  0  0  0  0  0  0  0  0
   -4.9910   -3.0250    0.4445 N   0  0  0  0  0  0  0  0  0  0  0  0
    2.8293    0.9677    0.0563 N   0  0  0  0  0  0  0  0  0  0  0  0
    1.6146    1.6930    0.1278 C   0  0  0  0  0  0  0  0  0  0  0  0
    1.6331    3.0627    0.3326 C   0  0  0  0  0  0  0  0  0  0  0  0
   -0.7837    1.6972    0.0559 C   0  0  0  0  0  0  0  0  0  0  0  0
    0.4226    1.0003   -0.0116 C   0  0  0  0  0  0  0  0  0  0  0  0
   -4.3863    0.5496   -0.1954 C   0  0  0  0  0  0  0  0  0  0  0  0
   -5.1919   -1.6851    0.0521 C   0  0  0  0  0  0  0  0  0  0  0  0
    0.4268    3.7596    0.4002 C   0  0  0  0  0  0  0  0  0  0  0  0
   -0.7816    3.0769    0.2619 C   0  0  0  0  0  0  0  0  0  0  0  0
   -4.1628   -0.7543    0.1944 C   0  0  0  0  0  0  0  0  0  0  0  0
   -3.2904    1.5422   -0.0434 C   0  0  0  0  0  0  0  0  0  0  0  0
    2.9123    3.8201    0.4842 C   0  0  0  0  0  0  0  0  0  0  0  0
   -5.5918    0.9654   -0.7210 C   0  0  0  0  0  0  0  0  0  0  0  0
   -6.4211   -1.2904   -0.4767 C   0  0  0  0  0  0  0  0  0  0  0  0
   -6.6208    0.0347   -0.8633 C   0  0  0  0  0  0  0  0  0  0  0  0
    3.0141   -0.4075   -0.1434 C   0  0  0  0  0  0  0  0  0  0  0  0
    4.3932   -0.8693   -0.1426 C   0  0  0  0  0  0  0  0  0  0  0  0
   -5.6954   -4.0995   -0.2261 C   0  0  0  0  0  0  0  0  0  0  0  0
   -4.0668   -3.3455    1.5140 C   0  0  0  0  0  0  0  0  0  0  0  0
    4.6894   -2.1807    0.2288 C   0  0  0  0  0  0  0  0  0  0  0  0
    5.4197   -0.0005   -0.5130 C   0  0  0  0  0  0  0  0  0  0  0  0
    6.0121   -2.6234    0.2299 C   0  0  0  0  0  0  0  0  0  0  0  0
    6.7426   -0.4432   -0.5121 C   0  0  0  0  0  0  0  0  0  0  0  0
    7.0388   -1.7547   -0.1407 C   0  0  0  0  0  0  0  0  0  0  0  0
    0.3469   -0.0643   -0.1720 H   0  0  0  0  0  0  0  0  0  0  0  0
    0.4112    4.8345    0.5603 H   0  0  0  0  0  0  0  0  0  0  0  0
   -1.6717    3.6865    0.3259 H   0  0  0  0  0  0  0  0  0  0  0  0
   -1.8823    0.0244   -0.2787 H   0  0  0  0  0  0  0  0  0  0  0  0
   -3.2229   -1.0641    0.6367 H   0  0  0  0  0  0  0  0  0  0  0  0
    3.6573    1.5299    0.2196 H   0  0  0  0  0  0  0  0  0  0  0  0
    3.4645    3.4717    1.3633 H   0  0  0  0  0  0  0  0  0  0  0  0
    3.5356    3.7083   -0.4094 H   0  0  0  0  0  0  0  0  0  0  0  0
    2.7350    4.8929    0.6192 H   0  0  0  0  0  0  0  0  0  0  0  0
   -7.2470   -1.9869   -0.5897 H   0  0  0  0  0  0  0  0  0  0  0  0
   -5.7624    1.9918   -1.0319 H   0  0  0  0  0  0  0  0  0  0  0  0
   -7.5781    0.3425   -1.2738 H   0  0  0  0  0  0  0  0  0  0  0  0
   -5.7163   -3.9496   -1.3115 H   0  0  0  0  0  0  0  0  0  0  0  0
   -6.7224   -4.1814    0.1450 H   0  0  0  0  0  0  0  0  0  0  0  0
   -5.2048   -5.0637   -0.0512 H   0  0  0  0  0  0  0  0  0  0  0  0
   -4.1578   -2.6417    2.3491 H   0  0  0  0  0  0  0  0  0  0  0  0
   -3.0340   -3.3410    1.1498 H   0  0  0  0  0  0  0  0  0  0  0  0
   -4.2667   -4.3428    1.9219 H   0  0  0  0  0  0  0  0  0  0  0  0
    3.9057   -2.8728    0.5260 H   0  0  0  0  0  0  0  0  0  0  0  0
    5.2375    1.0159   -0.8491 H   0  0  0  0  0  0  0  0  0  0  0  0
    6.2301   -3.6470    0.5228 H   0  0  0  0  0  0  0  0  0  0  0  0
    7.5375    0.2351   -0.8100 H   0  0  0  0  0  0  0  0  0  0  0  0
    8.3500   -3.1167    0.1444 H   0  0  0  0  0  0  0  0  0  0  0  0
  1 16  2  0  0  0  0
  2 21  2  0  0  0  0
  3 29  1  0  0  0  0
  3 52  1  0  0  0  0
  4  9  1  0  0  0  0
  4 16  1  0  0  0  0
  4 33  1  0  0  0  0
  5 12  1  0  0  0  0
  5 23  1  0  0  0  0
  5 24  1  0  0  0  0
  6  7  1  0  0  0  0
  6 21  1  0  0  0  0
  6 35  1  0  0  0  0
  7  8  2  0  0  0  0
  7 10  1  0  0  0  0
  8 13  1  0  0  0  0
  8 17  1  0  0  0  0
  9 10  2  0  0  0  0
  9 14  1  0  0  0  0
 10 30  1  0  0  0  0
 11 15  2  0  0  0  0
 11 16  1  0  0  0  0
 11 18  1  0  0  0  0
 12 15  1  0  0  0  0
 12 19  2  0  0  0  0
 13 14  2  0  0  0  0
 13 31  1  0  0  0  0
 14 32  1  0  0  0  0
 15 34  1  0  0  0  0
 17 36  1  0  0  0  0
 17 37  1  0  0  0  0
 17 38  1  0  0  0  0
 18 20  2  0  0  0  0
 18 40  1  0  0  0  0
 19 20  1  0  0  0  0
 19 39  1  0  0  0  0
 20 41  1  0  0  0  0
 21 22  1  0  0  0  0
 22 25  2  0  0  0  0
 22 26  1  0  0  0  0
 23 42  1  0  0  0  0
 23 43  1  0  0  0  0
 23 44  1  0  0  0  0
 24 45  1  0  0  0  0
 24 46  1  0  0  0  0
 24 47  1  0  0  0  0
 25 27  1  0  0  0  0
 25 48  1  0  0  0  0
 26 28  2  0  0  0  0
 26 49  1  0  0  0  0
 27 29  2  0  0  0  0
 27 50  1  0  0  0  0
 28 29  1  0  0  0  0
 28 51  1  0  0  0  0
M  END
> <PUBCHEM_COMPOUND_CID>
5730

> <PUBCHEM_CONFORMER_RMSD>
0.8

> <PUBCHEM_CONFORMER_DIVERSEORDER>
3
38
30
7
41
42
31
25
2
29
36
11
40
12
20
28
8
26
34
37
13
39
27
22
17
21
23
33
6
32
24
1
15
18
16
14
19
5
35
4
9
10

> <PUBCHEM_MMFF94_PARTIAL_CHARGES>
43
1 -0.57
10 -0.15
11 0.09
12 0.1
13 -0.15
14 -0.15
15 -0.15
16 0.54
17 0.14
18 -0.15
19 -0.15
2 -0.57
20 -0.15
21 0.54
22 0.09
23 0.37
24 0.37
25 -0.15
26 -0.15
27 -0.15
28 -0.15
29 0.08
3 -0.53
30 0.15
31 0.15
32 0.15
33 0.37
34 0.15
35 0.37
39 0.15
4 -0.55
40 0.15
41 0.15
48 0.15
49 0.15
5 -0.84
50 0.15
51 0.15
52 0.45
6 -0.55
7 0.12
8 -0.14
9 0.12

> <PUBCHEM_EFFECTIVE_ROTOR_COUNT>
7

> <PUBCHEM_PHARMACOPHORE_FEATURES>
9
1 1 acceptor
1 2 acceptor
1 3 donor
1 4 donor
1 5 cation
1 6 donor
6 11 12 15 18 19 20 rings
6 22 25 26 27 28 29 rings
6 7 8 9 10 13 14 rings

> <PUBCHEM_HEAVY_ATOM_COUNT>
29

> <PUBCHEM_ATOM_DEF_STEREO_COUNT>
0

> <PUBCHEM_ATOM_UDEF_STEREO_COUNT>
0

> <PUBCHEM_BOND_DEF_STEREO_COUNT>
0

> <PUBCHEM_BOND_UDEF_STEREO_COUNT>
0

> <PUBCHEM_ISOTOPIC_ATOM_COUNT>
0

> <PUBCHEM_COMPONENT_COUNT>
1

> <PUBCHEM_CACTVS_TAUTO_COUNT>
14

> <PUBCHEM_CONFORMER_ID>
0000166200000003

> <PUBCHEM_MMFF94_ENERGY>
115.3204

> <PUBCHEM_FEATURE_SELFOVERLAP>
45.669

> <PUBCHEM_SHAPE_FINGERPRINT>
10050765 1 18408887347369494592
10100884 174 18199754812040372434
10169797 241 18119789349321298214
10391435 84 18411991238771106322
11135609 99 18410012139748735790
11204353 107 18194116318601345958
11315621 136 18270399386757262805
117089 54 18268424642863918091
11756154 67 18410572903167956494
11963148 33 18048321046181397846
12107183 9 18261662784124255065
12166972 35 18059851797011589500
12522641 126 18128529376458090372
12643181 29 18341335569572453063
12758862 65 17749392559773607554
12977781 61 17842826738223956184
13248334 5 18192997011053337856
13631057 29 18338236098044298328
13690498 29 18130791196076730589
14178184 131 18114467773204722631
14420673 8 18411418406609756543
14429380 30 18410008831890362986
14866123 147 18336260258749300065
14910302 57 18059023791746620325
15019793 15 18048599209712709367
15183329 4 18272933851275199322
15320467 1 18410012156538935407
15351339 4 18059866098694010051
15361156 5 18130217165181323997
15392192 29 18335972164557611721
15927050 60 17901389983690188468
16990366 60 18412553098256697370
16991971 28 18260539044569456004
16992752 21 18336254726762519740
17138139 8 17989210356511775330
17492 89 18265897960942519777
17686467 74 18334866039534872400
19246450 95 18045760525073824329
19611394 137 18408318900310737934
20028762 73 18336547226693977782
20567600 70 18410575097817084122
21033650 10 16845300492319961565
21307412 95 18341905078415364903
21756936 100 10447630384190221920
22393880 68 18131082502433573945
23424784 1240 18126279736774973867
23522609 53 18120340333681371400
23559900 14 18339086991153389241
249999 5 18115878395463314112
25025965 108 17824565159825736671
2747138 104 18259989306040944872
2838139 119 10087631581516323202
3004659 81 18202567284645648668
32027 91 18410300194383098465
335352 9 18410296956542617309
3421961 26 18335424525830797936
3627633 1 18191868036271580216
4046055 25 18201998880522125444
4073 2 18200030634221974521
4280585 95 18412829117991815457
437795 163 18341044121966199700
439807 62 18343014468051468975
4616759 239 17823991241010040432
484989 97 18411974733728778210
5104073 3 17968087587275884481
54583773 228 18342449302527984692
6376802 137 17894908559463755128
6697151 62 18116741602058467381
6823239 73 18410583855113165001
7970288 3 18338238270744069834
8863177 126 18410293562489259255
9709674 26 18126286346966862937
9896288 288 17680143268651392600
999808 66 17988628710892463139

> <PUBCHEM_SHAPE_MULTIPOLES>
564.26
20.87
5.16
0.8
11.08
0.57
0.09
-22.29
-3.28
-1.39
1.27
-0.54
-0.23
1.17

> <PUBCHEM_SHAPE_SELFOVERLAP>
1221.913

> <PUBCHEM_SHAPE_VOLUME>
309.1

> <PUBCHEM_COORDINATE_TYPE>
2
5
10

$$$$

