4820
  -OEChem-06261200213D

 44 46  0     0  0  0  0  0  0999 V2000
   -0.0016    0.0945    1.2796 O   0  0  0  0  0  0  0  0  0  0  0  0
   -3.6924    0.0325   -0.8325 N   0  0  0  0  0  0  0  0  0  0  0  0
    1.1528   -0.0278   -0.7625 N   0  0  0  0  0  0  0  0  0  0  0  0
   -2.5034    0.0160    0.0643 C   0  0  0  0  0  0  0  0  0  0  0  0
   -2.5706    1.2957    0.9074 C   0  0  0  0  0  0  0  0  0  0  0  0
   -2.6344   -1.2647    0.9019 C   0  0  0  0  0  0  0  0  0  0  0  0
   -4.3747    1.3177   -0.6305 C   0  0  0  0  0  0  0  0  0  0  0  0
   -4.5463   -1.1075   -0.4654 C   0  0  0  0  0  0  0  0  0  0  0  0
   -4.0159    1.7427    0.7818 C   0  0  0  0  0  0  0  0  0  0  0  0
   -3.5762   -2.1309    0.0878 C   0  0  0  0  0  0  0  0  0  0  0  0
   -1.2312   -0.0208   -0.7884 C   0  0  0  0  0  0  0  0  0  0  0  0
    0.0276    0.0234    0.0554 C   0  0  0  0  0  0  0  0  0  0  0  0
    2.5106   -0.0096   -0.3640 C   0  0  0  0  0  0  0  0  0  0  0  0
    3.1684    1.2052   -0.2413 C   0  0  0  0  0  0  0  0  0  0  0  0
    3.1603   -1.2068   -0.1030 C   0  0  0  0  0  0  0  0  0  0  0  0
    4.5067    1.2231    0.1514 C   0  0  0  0  0  0  0  0  0  0  0  0
    4.4986   -1.1888    0.2900 C   0  0  0  0  0  0  0  0  0  0  0  0
    2.4836    2.5041   -0.5187 C   0  0  0  0  0  0  0  0  0  0  0  0
    2.4665   -2.5243   -0.2305 C   0  0  0  0  0  0  0  0  0  0  0  0
    5.1718    0.0262    0.4173 C   0  0  0  0  0  0  0  0  0  0  0  0
   -1.9286    2.0845    0.4947 H   0  0  0  0  0  0  0  0  0  0  0  0
   -2.2960    1.1514    1.9572 H   0  0  0  0  0  0  0  0  0  0  0  0
   -3.0958   -1.0565    1.8757 H   0  0  0  0  0  0  0  0  0  0  0  0
   -1.6954   -1.7943    1.0864 H   0  0  0  0  0  0  0  0  0  0  0  0
   -5.4562    1.2719   -0.7979 H   0  0  0  0  0  0  0  0  0  0  0  0
   -3.9679    2.0416   -1.3473 H   0  0  0  0  0  0  0  0  0  0  0  0
   -5.0899   -1.4899   -1.3347 H   0  0  0  0  0  0  0  0  0  0  0  0
   -5.2779   -0.8478    0.3106 H   0  0  0  0  0  0  0  0  0  0  0  0
   -4.6409    1.2219    1.5167 H   0  0  0  0  0  0  0  0  0  0  0  0
   -4.1298    2.8198    0.9354 H   0  0  0  0  0  0  0  0  0  0  0  0
   -3.0354   -2.6345   -0.7223 H   0  0  0  0  0  0  0  0  0  0  0  0
   -4.0724   -2.8911    0.6980 H   0  0  0  0  0  0  0  0  0  0  0  0
   -1.2064    0.8357   -1.4758 H   0  0  0  0  0  0  0  0  0  0  0  0
   -1.2022   -0.9304   -1.4028 H   0  0  0  0  0  0  0  0  0  0  0  0
    1.0125   -0.0837   -1.7690 H   0  0  0  0  0  0  0  0  0  0  0  0
    5.0464    2.1606    0.2564 H   0  0  0  0  0  0  0  0  0  0  0  0
    5.0320   -2.1118    0.5018 H   0  0  0  0  0  0  0  0  0  0  0  0
    2.0595    2.5084   -1.5284 H   0  0  0  0  0  0  0  0  0  0  0  0
    1.6849    2.6776    0.2099 H   0  0  0  0  0  0  0  0  0  0  0  0
    3.1752    3.3514   -0.4567 H   0  0  0  0  0  0  0  0  0  0  0  0
    2.0428   -2.6412   -1.2336 H   0  0  0  0  0  0  0  0  0  0  0  0
    3.1523   -3.3636   -0.0710 H   0  0  0  0  0  0  0  0  0  0  0  0
    1.6664   -2.6077    0.5122 H   0  0  0  0  0  0  0  0  0  0  0  0
    6.2137    0.0402    0.7236 H   0  0  0  0  0  0  0  0  0  0  0  0
  1 12  2  0  0  0  0
  2  4  1  0  0  0  0
  2  7  1  0  0  0  0
  2  8  1  0  0  0  0
  3 12  1  0  0  0  0
  3 13  1  0  0  0  0
  3 35  1  0  0  0  0
  4  5  1  0  0  0  0
  4  6  1  0  0  0  0
  4 11  1  0  0  0  0
  5  9  1  0  0  0  0
  5 21  1  0  0  0  0
  5 22  1  0  0  0  0
  6 10  1  0  0  0  0
  6 23  1  0  0  0  0
  6 24  1  0  0  0  0
  7  9  1  0  0  0  0
  7 25  1  0  0  0  0
  7 26  1  0  0  0  0
  8 10  1  0  0  0  0
  8 27  1  0  0  0  0
  8 28  1  0  0  0  0
  9 29  1  0  0  0  0
  9 30  1  0  0  0  0
 10 31  1  0  0  0  0
 10 32  1  0  0  0  0
 11 12  1  0  0  0  0
 11 33  1  0  0  0  0
 11 34  1  0  0  0  0
 13 14  2  0  0  0  0
 13 15  1  0  0  0  0
 14 16  1  0  0  0  0
 14 18  1  0  0  0  0
 15 17  2  0  0  0  0
 15 19  1  0  0  0  0
 16 20  2  0  0  0  0
 16 36  1  0  0  0  0
 17 20  1  0  0  0  0
 17 37  1  0  0  0  0
 18 38  1  0  0  0  0
 18 39  1  0  0  0  0
 18 40  1  0  0  0  0
 19 41  1  0  0  0  0
 19 42  1  0  0  0  0
 19 43  1  0  0  0  0
 20 44  1  0  0  0  0
M  END
> <PUBCHEM_COMPOUND_CID>
4820

> <PUBCHEM_CONFORMER_RMSD>
0.8

> <PUBCHEM_CONFORMER_DIVERSEORDER>
1
10
8
6
5
9
13
12
3
11
7
2
4

> <PUBCHEM_MMFF94_PARTIAL_CHARGES>
20
1 -0.57
11 0.06
12 0.57
13 0.12
14 -0.14
15 -0.14
16 -0.15
17 -0.15
18 0.14
19 0.14
2 -0.81
20 -0.15
3 -0.55
35 0.37
36 0.15
37 0.15
4 0.27
44 0.15
7 0.27
8 0.27

> <PUBCHEM_EFFECTIVE_ROTOR_COUNT>
5.2

> <PUBCHEM_PHARMACOPHORE_FEATURES>
6
1 1 acceptor
1 2 cation
1 3 donor
5 2 4 5 7 9 rings
5 2 4 6 8 10 rings
6 13 14 15 16 17 20 rings

> <PUBCHEM_HEAVY_ATOM_COUNT>
20

> <PUBCHEM_ATOM_DEF_STEREO_COUNT>
0

> <PUBCHEM_ATOM_UDEF_STEREO_COUNT>
0

> <PUBCHEM_BOND_DEF_STEREO_COUNT>
0

> <PUBCHEM_BOND_UDEF_STEREO_COUNT>
0

> <PUBCHEM_ISOTOPIC_ATOM_COUNT>
0

> <PUBCHEM_COMPONENT_COUNT>
1

> <PUBCHEM_CACTVS_TAUTO_COUNT>
2

> <PUBCHEM_CONFORMER_ID>
000012D400000001

> <PUBCHEM_MMFF94_ENERGY>
71.8076

> <PUBCHEM_FEATURE_SELFOVERLAP>
30.88

> <PUBCHEM_SHAPE_FINGERPRINT>
10014705 185 18272373096455890637
10616163 171 18335417941814686351
11315181 36 18341613694089388536
11370993 70 18412265021277292994
11405975 8 18413668019498968417
12107183 9 17759800746651759923
12236239 1 17967817158975507836
12507557 5 18410576167153489368
12633257 1 18201443622643412938
128620 24 16950278494641302140
13167823 11 18410013221458099142
13224815 77 17168136849481365486
13533116 47 18334860554054688819
13583140 156 17895202081770729177
13631057 29 18191870028771797975
13675066 3 17561073735205423109
14004511 7 17704069603380163945
14289901 80 18337106765772686531
14341114 176 18409442587739269136
15196674 1 18410855460550323854
15375358 24 18343301474529526858
15788980 27 18411697690440807866
15848702 151 18343021103158607101
17349148 13 18272654510812234242
17492 89 18408881836857440295
17834072 33 18409451370926375015
17844677 252 18408879620674797276
1813 80 16988836207153679372
18186145 218 17917711318221757528
18681886 176 18260833666435803930
19050596 39 18408318895419320880
19489759 90 18333736827084455697
200 152 18334017176705855719
20645477 56 18202283632658517933
20645477 70 18334575780485079502
20715895 44 17972595765043246305
21065198 57 18413107260015732654
21709351 56 18411421691869198916
23402539 116 18272939323152730708
23559900 14 18335703888026068042
26918003 58 18410298029650905594
300161 21 18410862091694888333
351380 180 18341617005435496124
3545911 37 18410008853428704365
4214541 1 18411982468405644189
474 4 18343019956787675012
4921388 177 17632571618138428627
5104073 3 18411138034917174954
5283173 99 18271256009874979533
543358 83 18338514265458341106
5924683 9 18409450241946406367
633830 44 16487249976071924508
7495541 125 17749955431963742003
77779 3 18410855455891242830
9709674 26 18411411813017818782
9971528 1 18341048605806853820
9981440 41 17407111058977887544

> <PUBCHEM_SHAPE_MULTIPOLES>
395.76
11.38
2.28
0.94
1.72
0.18
-0.09
-0.27
-0.2
0.14
0.03
-0.46
-0.1
-0.33

> <PUBCHEM_SHAPE_SELFOVERLAP>
842.811

> <PUBCHEM_SHAPE_VOLUME>
223.3

> <PUBCHEM_COORDINATE_TYPE>
2
5
10

$$$$

