24405
  -OEChem-07051213082D

 45 47  0     1  0  0  0  0  0999 V2000
    6.1346    2.2369    0.0000 O   0  0  0  0  0  0  0  0  0  0  0  0
    8.4806    1.1450    0.0000 O   0  0  0  0  0  0  0  0  0  0  0  0
    8.4843    3.3206    0.0000 O   0  0  0  0  0  0  0  0  0  0  0  0
    7.0868    4.7384    0.0000 O   0  0  0  0  0  0  0  0  0  0  0  0
    6.4103    0.4763    0.0000 N   0  0  0  0  0  0  0  0  0  0  0  0
    6.4103   -1.1332    0.0000 N   0  0  0  0  0  0  0  0  0  0  0  0
    4.5981    0.6716    0.0000 N   0  0  0  0  0  0  0  0  0  0  0  0
    4.5981   -2.3284    0.0000 N   0  0  0  0  0  0  0  0  0  0  0  0
    3.7320   -0.8284    0.0000 N   0  0  0  0  0  0  0  0  0  0  0  0
    7.6726    1.7342    0.0000 C   0  0  1  0  0  0  0  0  0  0  0  0
    6.7210    1.4268    0.0000 C   0  0  1  0  0  0  0  0  0  0  0  0
    7.6743    2.7342    0.0000 C   0  0  1  0  0  0  0  0  0  0  0  0
    6.7238    3.0449    0.0000 C   0  0  1  0  0  0  0  0  0  0  0  0
    6.4164    3.9964    0.0000 C   0  0  0  0  0  0  0  0  0  0  0  0
    5.4641    0.1716    0.0000 C   0  0  0  0  0  0  0  0  0  0  0  0
    6.9939   -0.3284    0.0000 C   0  0  0  0  0  0  0  0  0  0  0  0
    5.4641   -0.8284    0.0000 C   0  0  0  0  0  0  0  0  0  0  0  0
    4.5981   -1.3284    0.0000 C   0  0  0  0  0  0  0  0  0  0  0  0
    3.7320    0.1716    0.0000 C   0  0  0  0  0  0  0  0  0  0  0  0
    3.7320   -2.8284    0.0000 C   0  0  0  0  0  0  0  0  0  0  0  0
    3.7320   -3.8284    0.0000 C   0  0  0  0  0  0  0  0  0  0  0  0
    2.8660   -4.3284    0.0000 C   0  0  0  0  0  0  0  0  0  0  0  0
    2.8660   -5.3284    0.0000 C   0  0  0  0  0  0  0  0  0  0  0  0
    2.0000   -3.8284    0.0000 C   0  0  0  0  0  0  0  0  0  0  0  0
    8.2255    2.0147    0.0000 H   0  0  0  0  0  0  0  0  0  0  0  0
    6.1085    1.3309    0.0000 H   0  0  0  0  0  0  0  0  0  0  0  0
    8.2262    2.4518    0.0000 H   0  0  0  0  0  0  0  0  0  0  0  0
    6.1116    3.1429    0.0000 H   0  0  0  0  0  0  0  0  0  0  0  0
    6.0356    4.4857    0.0000 H   0  0  0  0  0  0  0  0  0  0  0  0
    5.8685    3.7063    0.0000 H   0  0  0  0  0  0  0  0  0  0  0  0
    9.0474    1.3962    0.0000 H   0  0  0  0  0  0  0  0  0  0  0  0
    9.0503    3.0674    0.0000 H   0  0  0  0  0  0  0  0  0  0  0  0
    7.6139   -0.3284    0.0000 H   0  0  0  0  0  0  0  0  0  0  0  0
    6.8963    5.3284    0.0000 H   0  0  0  0  0  0  0  0  0  0  0  0
    3.1951    0.4816    0.0000 H   0  0  0  0  0  0  0  0  0  0  0  0
    5.1350   -2.6384    0.0000 H   0  0  0  0  0  0  0  0  0  0  0  0
    3.5200   -2.2458    0.0000 H   0  0  0  0  0  0  0  0  0  0  0  0
    3.1215   -2.9361    0.0000 H   0  0  0  0  0  0  0  0  0  0  0  0
    4.2690   -4.1384    0.0000 H   0  0  0  0  0  0  0  0  0  0  0  0
    2.2460   -5.3284    0.0000 H   0  0  0  0  0  0  0  0  0  0  0  0
    2.8660   -5.9484    0.0000 H   0  0  0  0  0  0  0  0  0  0  0  0
    3.4860   -5.3284    0.0000 H   0  0  0  0  0  0  0  0  0  0  0  0
    2.3100   -3.2915    0.0000 H   0  0  0  0  0  0  0  0  0  0  0  0
    1.4631   -3.5184    0.0000 H   0  0  0  0  0  0  0  0  0  0  0  0
    1.6900   -4.3654    0.0000 H   0  0  0  0  0  0  0  0  0  0  0  0
  1 11  1  0  0  0  0
  1 13  1  0  0  0  0
 10  2  1  1  0  0  0
  2 31  1  0  0  0  0
 12  3  1  1  0  0  0
  3 32  1  0  0  0  0
  4 14  1  0  0  0  0
  4 34  1  0  0  0  0
 11  5  1  6  0  0  0
  5 15  1  0  0  0  0
  5 16  1  0  0  0  0
  6 16  2  0  0  0  0
  6 17  1  0  0  0  0
  7 15  1  0  0  0  0
  7 19  2  0  0  0  0
  8 18  1  0  0  0  0
  8 20  1  0  0  0  0
  8 36  1  0  0  0  0
  9 18  2  0  0  0  0
  9 19  1  0  0  0  0
 10 11  1  0  0  0  0
 10 12  1  0  0  0  0
 10 25  1  0  0  0  0
 11 26  1  0  0  0  0
 12 13  1  0  0  0  0
 12 27  1  0  0  0  0
 13 14  1  6  0  0  0
 13 28  1  0  0  0  0
 14 29  1  0  0  0  0
 14 30  1  0  0  0  0
 15 17  2  0  0  0  0
 16 33  1  0  0  0  0
 17 18  1  0  0  0  0
 19 35  1  0  0  0  0
 20 21  1  0  0  0  0
 20 37  1  0  0  0  0
 20 38  1  0  0  0  0
 21 22  2  0  0  0  0
 21 39  1  0  0  0  0
 22 23  1  0  0  0  0
 22 24  1  0  0  0  0
 23 40  1  0  0  0  0
 23 41  1  0  0  0  0
 23 42  1  0  0  0  0
 24 43  1  0  0  0  0
 24 44  1  0  0  0  0
 24 45  1  0  0  0  0
M  END
> <PUBCHEM_COMPOUND_CID>
24405

> <PUBCHEM_COMPOUND_CANONICALIZED>
1

> <PUBCHEM_CACTVS_COMPLEXITY>
461

> <PUBCHEM_CACTVS_HBOND_ACCEPTOR>
8

> <PUBCHEM_CACTVS_HBOND_DONOR>
4

> <PUBCHEM_CACTVS_ROTATABLE_BOND>
5

> <PUBCHEM_CACTVS_SUBSKEYS>
AAADceBzuAAAAAAAAAAAAAAAAAAAAWJAAAAsAAAAAAAAAFgB+AAAHgAQCAAADBzhlwYH8L/MFgCgAyZjZACAgC0REKABWKAoVBCDWAJAyUAeRAgPEALTACDwMAIAAAAAAAAAAAAAAAAAAAAAAAAAAAAAAA==

> <PUBCHEM_IUPAC_OPENEYE_NAME>
(2R,3S,4R,5R)-2-(hydroxymethyl)-5-[6-(3-methylbut-2-enylamino)purin-9-yl]tetrahydrofuran-3,4-diol

> <PUBCHEM_IUPAC_CAS_NAME>
(2R,3S,4R,5R)-2-(hydroxymethyl)-5-[6-(3-methylbut-2-enylamino)-9-purinyl]oxolane-3,4-diol

> <PUBCHEM_IUPAC_NAME>
(2R,3S,4R,5R)-2-(hydroxymethyl)-5-[6-(3-methylbut-2-enylamino)purin-9-yl]oxolane-3,4-diol

> <PUBCHEM_IUPAC_SYSTEMATIC_NAME>
(2R,3S,4R,5R)-2-(hydroxymethyl)-5-[6-(3-methylbut-2-enylamino)purin-9-yl]oxolane-3,4-diol

> <PUBCHEM_IUPAC_TRADITIONAL_NAME>
(2R,3R,4S,5R)-2-[6-(3-methylbut-2-enylamino)purin-9-yl]-5-methylol-tetrahydrofuran-3,4-diol

> <PUBCHEM_IUPAC_INCHI>
InChI=1S/C15H21N5O4/c1-8(2)3-4-16-13-10-14(18-6-17-13)20(7-19-10)15-12(23)11(22)9(5-21)24-15/h3,6-7,9,11-12,15,21-23H,4-5H2,1-2H3,(H,16,17,18)/t9-,11-,12-,15-/m1/s1

> <PUBCHEM_IUPAC_INCHIKEY>
USVMJSALORZVDV-SDBHATRESA-N

> <PUBCHEM_XLOGP3>
1.1

> <PUBCHEM_EXACT_MASS>
335.159354

> <PUBCHEM_MOLECULAR_FORMULA>
C15H21N5O4

> <PUBCHEM_MOLECULAR_WEIGHT>
335.35834

> <PUBCHEM_OPENEYE_CAN_SMILES>
CC(=CCNC1=NC=NC2=C1N=CN2C3C(C(C(O3)CO)O)O)C

> <PUBCHEM_OPENEYE_ISO_SMILES>
CC(=CCNC1=NC=NC2=C1N=CN2[C@H]3[C@@H]([C@@H]([C@H](O3)CO)O)O)C

> <PUBCHEM_CACTVS_TPSA>
126

> <PUBCHEM_MONOISOTOPIC_WEIGHT>
335.159354

> <PUBCHEM_TOTAL_CHARGE>
0

> <PUBCHEM_HEAVY_ATOM_COUNT>
24

> <PUBCHEM_ATOM_DEF_STEREO_COUNT>
4

> <PUBCHEM_ATOM_UDEF_STEREO_COUNT>
0

> <PUBCHEM_BOND_DEF_STEREO_COUNT>
0

> <PUBCHEM_BOND_UDEF_STEREO_COUNT>
0

> <PUBCHEM_ISOTOPIC_ATOM_COUNT>
0

> <PUBCHEM_COMPONENT_COUNT>
1

> <PUBCHEM_CACTVS_TAUTO_COUNT>
3

> <PUBCHEM_COORDINATE_TYPE>
1
5
255

> <PUBCHEM_BONDANNOTATIONS>
13  14  6
15  17  8
17  18  8
10  2  5
12  3  5
11  5  6
5  15  8
5  16  8
6  16  8
6  17  8
7  15  8
7  19  8
9  18  8
9  19  8

$$$$

