53297358
  -OEChem-07051213033D

 46 48  0     0  0  0  0  0  0999 V2000
    0.1340   -1.9784   -0.9906 O   0  0  0  0  0  0  0  0  0  0  0  0
   -2.3950   -2.1019   -0.8527 O   0  0  0  0  0  0  0  0  0  0  0  0
   -4.9278   -2.4114   -0.7905 O   0  0  0  0  0  0  0  0  0  0  0  0
    2.9411   -0.3899   -1.6782 O   0  0  0  0  0  0  0  0  0  0  0  0
    4.2443    2.8869   -0.4794 O   0  0  0  0  0  0  0  0  0  0  0  0
    5.3591   -0.6570   -0.3931 O   0  0  0  0  0  0  0  0  0  0  0  0
    2.2693    3.0064   -1.5928 O   0  0  0  0  0  0  0  0  0  0  0  0
   -1.3335    1.0674    0.4907 C   0  0  0  0  0  0  0  0  0  0  0  0
   -2.6502    1.6860    0.8725 C   0  0  0  0  0  0  0  0  0  0  0  0
   -1.2422   -0.2034   -0.0869 C   0  0  0  0  0  0  0  0  0  0  0  0
   -3.8675    0.8485    0.5920 C   0  0  0  0  0  0  0  0  0  0  0  0
   -3.7853   -0.4227    0.0139 C   0  0  0  0  0  0  0  0  0  0  0  0
    1.0898    1.2561    0.3862 C   0  0  0  0  0  0  0  0  0  0  0  0
    1.1691   -0.0097   -0.1877 C   0  0  0  0  0  0  0  0  0  0  0  0
   -0.1535    1.7911    0.7233 C   0  0  0  0  0  0  0  0  0  0  0  0
    0.0064   -0.7414   -0.4254 C   0  0  0  0  0  0  0  0  0  0  0  0
   -2.4676   -0.9899   -0.3450 C   0  0  0  0  0  0  0  0  0  0  0  0
    2.3170    2.0657    0.6527 C   0  0  0  0  0  0  0  0  0  0  0  0
   -5.1319    1.3608    0.9225 C   0  0  0  0  0  0  0  0  0  0  0  0
   -4.9461   -1.1685   -0.2297 C   0  0  0  0  0  0  0  0  0  0  0  0
    2.4706   -0.5684   -0.5409 C   0  0  0  0  0  0  0  0  0  0  0  0
    3.2405   -1.4020    0.4889 C   0  0  0  0  0  0  0  0  0  0  0  0
   -6.2881    0.6190    0.6800 C   0  0  0  0  0  0  0  0  0  0  0  0
   -6.1945   -0.6449    0.1042 C   0  0  0  0  0  0  0  0  0  0  0  0
    2.9031    2.6971   -0.5932 C   0  0  0  0  0  0  0  0  0  0  0  0
    4.7574   -1.3525    0.4235 C   0  0  0  0  0  0  0  0  0  0  0  0
    5.4857   -2.1799    1.4706 C   0  0  0  0  0  0  0  0  0  0  0  0
    6.9956   -2.0632    1.3649 C   0  0  0  0  0  0  0  0  0  0  0  0
   -2.7538    2.6329    0.3272 H   0  0  0  0  0  0  0  0  0  0  0  0
   -2.6261    1.9044    1.9479 H   0  0  0  0  0  0  0  0  0  0  0  0
   -0.2177    2.7814    1.1701 H   0  0  0  0  0  0  0  0  0  0  0  0
    3.0764    1.4415    1.1374 H   0  0  0  0  0  0  0  0  0  0  0  0
    2.1041    2.8805    1.3558 H   0  0  0  0  0  0  0  0  0  0  0  0
   -5.2208    2.3467    1.3730 H   0  0  0  0  0  0  0  0  0  0  0  0
    2.9305   -2.4441    0.3545 H   0  0  0  0  0  0  0  0  0  0  0  0
    2.9455   -1.0736    1.4917 H   0  0  0  0  0  0  0  0  0  0  0  0
   -7.2600    1.0277    0.9405 H   0  0  0  0  0  0  0  0  0  0  0  0
   -7.0996   -1.2170   -0.0818 H   0  0  0  0  0  0  0  0  0  0  0  0
   -0.7224   -2.4253   -1.0529 H   0  0  0  0  0  0  0  0  0  0  0  0
    5.1893   -3.2265    1.3443 H   0  0  0  0  0  0  0  0  0  0  0  0
    5.1622   -1.8404    2.4601 H   0  0  0  0  0  0  0  0  0  0  0  0
   -4.0204   -2.6890   -0.9848 H   0  0  0  0  0  0  0  0  0  0  0  0
    7.4798   -2.6739    2.1331 H   0  0  0  0  0  0  0  0  0  0  0  0
    7.3486   -2.4021    0.3853 H   0  0  0  0  0  0  0  0  0  0  0  0
    7.3201   -1.0258    1.4978 H   0  0  0  0  0  0  0  0  0  0  0  0
    4.6252    3.2942   -1.2865 H   0  0  0  0  0  0  0  0  0  0  0  0
  1 16  1  0  0  0  0
  1 39  1  0  0  0  0
  2 17  2  0  0  0  0
  3 20  1  0  0  0  0
  3 42  1  0  0  0  0
  4 21  2  0  0  0  0
  5 25  1  0  0  0  0
  5 46  1  0  0  0  0
  6 26  2  0  0  0  0
  7 25  2  0  0  0  0
  8  9  1  0  0  0  0
  8 10  1  0  0  0  0
  8 15  2  0  0  0  0
  9 11  1  0  0  0  0
  9 29  1  0  0  0  0
  9 30  1  0  0  0  0
 10 16  2  0  0  0  0
 10 17  1  0  0  0  0
 11 12  2  0  0  0  0
 11 19  1  0  0  0  0
 12 17  1  0  0  0  0
 12 20  1  0  0  0  0
 13 14  2  0  0  0  0
 13 15  1  0  0  0  0
 13 18  1  0  0  0  0
 14 16  1  0  0  0  0
 14 21  1  0  0  0  0
 15 31  1  0  0  0  0
 18 25  1  0  0  0  0
 18 32  1  0  0  0  0
 18 33  1  0  0  0  0
 19 23  2  0  0  0  0
 19 34  1  0  0  0  0
 20 24  2  0  0  0  0
 21 22  1  0  0  0  0
 22 26  1  0  0  0  0
 22 35  1  0  0  0  0
 22 36  1  0  0  0  0
 23 24  1  0  0  0  0
 23 37  1  0  0  0  0
 24 38  1  0  0  0  0
 26 27  1  0  0  0  0
 27 28  1  0  0  0  0
 27 40  1  0  0  0  0
 27 41  1  0  0  0  0
 28 43  1  0  0  0  0
 28 44  1  0  0  0  0
 28 45  1  0  0  0  0
M  END
> <PUBCHEM_COMPOUND_CID>
53297358

> <PUBCHEM_CONFORMER_RMSD>
0.8

> <PUBCHEM_CONFORMER_DIVERSEORDER>
1
3
27
4
35
33
36
39
37
47
40
25
10
53
20
54
26
5
51
29
12
41
9
19
55
23
57
22
32
21
49
11
59
31
24
50
14
43
60
16
7
52
18
46
8
6
34
30
58
15
48
38
2
56
42
13
28
45
17
44

> <PUBCHEM_MMFF94_PARTIAL_CHARGES>
34
1 -0.53
10 0.09
11 -0.14
12 0.09
13 -0.14
14 0.09
15 -0.15
16 0.08
17 0.4
18 0.2
19 -0.15
2 -0.57
20 0.08
21 0.42
22 0.12
23 -0.15
24 -0.15
25 0.66
26 0.45
27 0.06
3 -0.53
31 0.15
34 0.15
37 0.15
38 0.15
39 0.45
4 -0.57
42 0.45
46 0.5
5 -0.65
6 -0.57
7 -0.57
8 -0.14
9 0.29

> <PUBCHEM_EFFECTIVE_ROTOR_COUNT>
6.2

> <PUBCHEM_PHARMACOPHORE_FEATURES>
13
1 1 donor
1 2 acceptor
1 22 anion
1 28 hydrophobe
1 3 donor
1 4 acceptor
1 5 acceptor
1 6 acceptor
1 7 acceptor
3 5 7 25 anion
6 11 12 19 20 23 24 rings
6 8 10 13 14 15 16 rings
6 8 9 10 11 12 17 rings

> <PUBCHEM_HEAVY_ATOM_COUNT>
28

> <PUBCHEM_ATOM_DEF_STEREO_COUNT>
0

> <PUBCHEM_ATOM_UDEF_STEREO_COUNT>
0

> <PUBCHEM_BOND_DEF_STEREO_COUNT>
0

> <PUBCHEM_BOND_UDEF_STEREO_COUNT>
0

> <PUBCHEM_ISOTOPIC_ATOM_COUNT>
0

> <PUBCHEM_COMPONENT_COUNT>
1

> <PUBCHEM_CACTVS_TAUTO_COUNT>
998

> <PUBCHEM_CONFORMER_ID>
032D40CE00000001

> <PUBCHEM_MMFF94_ENERGY>
76.4906

> <PUBCHEM_FEATURE_SELFOVERLAP>
66.071

> <PUBCHEM_SHAPE_FINGERPRINT>
10 15 17385737906528569986
1100329 8 18409732833140042346
11405975 8 18412260602003534107
11963148 33 17762062038555250127
12107183 9 18266176308930033257
12107698 1 18343302604053184873
12166972 35 17917990620588711830
12236239 1 18273212036180074554
12403260 363 18409728478264327929
12616971 3 18333448734064152423
12633257 1 18335415794536233863
12788726 201 17604131676060035817
12838862 33 18042980942366450393
13140716 1 18261112954598849771
13533116 47 18131632292491240290
13540713 5 18262524662925238711
13782708 43 17203327818740652843
14739800 52 17896608284434926424
14790565 3 18188196633870209713
14849402 71 18342453695699584444
14955137 171 18113616828755898722
15196674 1 18261107436082923297
15250474 111 18261118430988913095
15927050 60 17902516987508711530
17349148 13 18113056038575045220
17857418 61 18409166619095222483
17980427 23 17677350358898442556
1813 80 18199744903286010454
18681886 176 18186517692325014974
20028762 73 18259706704802491414
20612939 158 18341330015884366253
21033648 29 16299246741949567730
21267235 1 18261664922764292435
21781055 127 17096906122626365787
21792934 111 18260271859102147265
21859007 373 18198076965369024141
23522609 53 18196904816895661436
23559900 14 17605536933318737103
25147074 1 18261397697855794679
3004659 81 18334284366695433508
335352 9 18261110794858170781
3411729 13 18115594734627408880
350125 39 18408038519965131765
3680242 22 18336539499324489330
3886686 26 16538215961374066874
4073 2 18057598763951024090
474 4 17986105214915022309
5104073 3 18260541183231106419
9981440 41 17692250734072109432

> <PUBCHEM_SHAPE_MULTIPOLES>
535.14
14.97
3
1.16
0.65
1.38
-0.06
-7.33
4.4
2.9
-0.41
0.94
-0.01
-2.85

> <PUBCHEM_SHAPE_SELFOVERLAP>
1172.123

> <PUBCHEM_SHAPE_VOLUME>
286.9

> <PUBCHEM_COORDINATE_TYPE>
2
5
10

$$$$

