11954044
  -OEChem-07051213063D

 56 57  0     1  0  0  0  0  0999 V2000
    0.7089    0.7557    0.3047 S   0  0  0  0  0  0  0  0  0  0  0  0
   -1.0459    2.9841   -2.5123 O   0  0  0  0  0  0  0  0  0  0  0  0
    3.6191   -1.5017    1.1823 O   0  0  0  0  0  0  0  0  0  0  0  0
    0.4373   -3.6588   -1.6377 O   0  0  0  0  0  0  0  0  0  0  0  0
   -2.6161   -3.9443   -1.2880 O   0  0  0  0  0  0  0  0  0  0  0  0
   -4.0459   -4.1812    0.4559 O   0  0  0  0  0  0  0  0  0  0  0  0
    4.0918    1.9756    0.5180 O   0  0  0  0  0  0  0  0  0  0  0  0
    6.3175    2.0937    0.9419 O   0  0  0  0  0  0  0  0  0  0  0  0
    1.3292   -2.4145    0.1091 N   0  0  0  0  0  0  0  0  0  0  0  0
    4.2065   -0.3189   -0.7252 N   0  0  0  0  0  0  0  0  0  0  0  0
   -2.9934   -1.8941    1.5781 N   0  0  0  0  0  0  0  0  0  0  0  0
    0.2915    2.2790   -0.6229 C   0  0  1  0  0  0  0  0  0  0  0  0
   -1.0438    2.1084   -1.3795 C   0  0  1  0  0  0  0  0  0  0  0  0
   -2.2602    2.4598   -0.5553 C   0  0  0  0  0  0  0  0  0  0  0  0
    2.0845   -1.4842   -0.6976 C   0  0  1  0  0  0  0  0  0  0  0  0
    1.2583   -0.2616   -1.1045 C   0  0  0  0  0  0  0  0  0  0  0  0
   -2.1535    3.3734    0.5103 C   0  0  0  0  0  0  0  0  0  0  0  0
    0.2773    3.4276    0.3500 C   0  0  0  0  0  0  0  0  0  0  0  0
   -0.8497    3.9441    0.8593 C   0  0  0  0  0  0  0  0  0  0  0  0
   -3.5137    1.9246   -0.8828 C   0  0  0  0  0  0  0  0  0  0  0  0
   -3.2982    3.7379    1.2293 C   0  0  0  0  0  0  0  0  0  0  0  0
   -0.1297   -4.2507    0.6407 C   0  0  0  0  0  0  0  0  0  0  0  0
    3.3744   -1.1261    0.0376 C   0  0  0  0  0  0  0  0  0  0  0  0
   -1.0671   -3.4039    1.5040 C   0  0  0  0  0  0  0  0  0  0  0  0
    0.5620   -3.4332   -0.4371 C   0  0  0  0  0  0  0  0  0  0  0  0
   -4.6466    2.2865   -0.1546 C   0  0  0  0  0  0  0  0  0  0  0  0
   -2.1398   -2.6793    0.6832 C   0  0  1  0  0  0  0  0  0  0  0  0
   -4.5391    3.1924    0.8984 C   0  0  0  0  0  0  0  0  0  0  0  0
    5.4743    0.1730   -0.2388 C   0  0  0  0  0  0  0  0  0  0  0  0
   -3.0477   -3.6646   -0.0304 C   0  0  0  0  0  0  0  0  0  0  0  0
    5.3579    1.5010    0.4640 C   0  0  0  0  0  0  0  0  0  0  0  0
    1.0990    2.4787   -1.3374 H   0  0  0  0  0  0  0  0  0  0  0  0
   -1.1531    1.0938   -1.7778 H   0  0  0  0  0  0  0  0  0  0  0  0
    2.3825   -2.0105   -1.6143 H   0  0  0  0  0  0  0  0  0  0  0  0
    0.3660   -0.5970   -1.6436 H   0  0  0  0  0  0  0  0  0  0  0  0
    1.8352    0.3675   -1.7891 H   0  0  0  0  0  0  0  0  0  0  0  0
    1.2323    3.8550    0.6457 H   0  0  0  0  0  0  0  0  0  0  0  0
   -0.8108    4.7688    1.5626 H   0  0  0  0  0  0  0  0  0  0  0  0
   -3.6141    1.2268   -1.7102 H   0  0  0  0  0  0  0  0  0  0  0  0
    1.3843   -2.3159    1.1183 H   0  0  0  0  0  0  0  0  0  0  0  0
   -0.6672   -5.0774    0.1646 H   0  0  0  0  0  0  0  0  0  0  0  0
    0.6432   -4.7024    1.2742 H   0  0  0  0  0  0  0  0  0  0  0  0
   -3.2361    4.4439    2.0541 H   0  0  0  0  0  0  0  0  0  0  0  0
   -0.4925   -2.6731    2.0860 H   0  0  0  0  0  0  0  0  0  0  0  0
   -1.5431   -4.0716    2.2349 H   0  0  0  0  0  0  0  0  0  0  0  0
   -0.3156    2.7110   -3.0936 H   0  0  0  0  0  0  0  0  0  0  0  0
   -5.6143    1.8661   -0.4125 H   0  0  0  0  0  0  0  0  0  0  0  0
   -1.7013   -1.9936   -0.0494 H   0  0  0  0  0  0  0  0  0  0  0  0
   -5.4233    3.4759    1.4621 H   0  0  0  0  0  0  0  0  0  0  0  0
    3.9384   -0.0697   -1.6721 H   0  0  0  0  0  0  0  0  0  0  0  0
    6.1287    0.2939   -1.1065 H   0  0  0  0  0  0  0  0  0  0  0  0
    5.9016   -0.5542    0.4579 H   0  0  0  0  0  0  0  0  0  0  0  0
   -2.4244   -1.2163    2.0842 H   0  0  0  0  0  0  0  0  0  0  0  0
   -3.6564   -1.3496    1.0269 H   0  0  0  0  0  0  0  0  0  0  0  0
   -3.1990   -4.5916   -1.7389 H   0  0  0  0  0  0  0  0  0  0  0  0
    4.0416    2.8396    0.9799 H   0  0  0  0  0  0  0  0  0  0  0  0
  1 12  1  0  0  0  0
  1 16  1  0  0  0  0
  2 13  1  0  0  0  0
  2 46  1  0  0  0  0
  3 23  2  0  0  0  0
  4 25  2  0  0  0  0
  5 30  1  0  0  0  0
  5 55  1  0  0  0  0
  6 30  2  0  0  0  0
  7 31  1  0  0  0  0
  7 56  1  0  0  0  0
  8 31  2  0  0  0  0
  9 15  1  0  0  0  0
  9 25  1  0  0  0  0
  9 40  1  0  0  0  0
 10 23  1  0  0  0  0
 10 29  1  0  0  0  0
 10 50  1  0  0  0  0
 11 27  1  0  0  0  0
 11 53  1  0  0  0  0
 11 54  1  0  0  0  0
 12 13  1  0  0  0  0
 12 18  1  0  0  0  0
 12 32  1  0  0  0  0
 13 14  1  0  0  0  0
 13 33  1  0  0  0  0
 14 17  1  0  0  0  0
 14 20  2  0  0  0  0
 15 16  1  0  0  0  0
 15 23  1  0  0  0  0
 15 34  1  0  0  0  0
 16 35  1  0  0  0  0
 16 36  1  0  0  0  0
 17 19  1  0  0  0  0
 17 21  2  0  0  0  0
 18 19  2  0  0  0  0
 18 37  1  0  0  0  0
 19 38  1  0  0  0  0
 20 26  1  0  0  0  0
 20 39  1  0  0  0  0
 21 28  1  0  0  0  0
 21 43  1  0  0  0  0
 22 24  1  0  0  0  0
 22 25  1  0  0  0  0
 22 41  1  0  0  0  0
 22 42  1  0  0  0  0
 24 27  1  0  0  0  0
 24 44  1  0  0  0  0
 24 45  1  0  0  0  0
 26 28  2  0  0  0  0
 26 47  1  0  0  0  0
 27 30  1  0  0  0  0
 27 48  1  0  0  0  0
 28 49  1  0  0  0  0
 29 31  1  0  0  0  0
 29 51  1  0  0  0  0
 29 52  1  0  0  0  0
M  END
> <PUBCHEM_COMPOUND_CID>
11954044

> <PUBCHEM_CONFORMER_RMSD>
1.2

> <PUBCHEM_CONFORMER_DIVERSEORDER>
1
12
44
46
26
81
35
33
3
79
28
38
18
75
72
57
25
65
2
29
21
50
15
66
48
73
17
30
76
52
11
14
60
71
22
70
83
59
69
77
41
74
42
78
19
56
40
64
67
10
43
39
58
68
63
51
8
27
31
62
20
61
80
32
54
82
7
13
45
9
47
36
55
16
23
4
53
49
37
6
34
24
5

> <PUBCHEM_MMFF94_PARTIAL_CHARGES>
43
1 -0.46
10 -0.73
11 -0.99
12 0.37
13 0.42
14 -0.14
15 0.36
16 0.23
17 0.03
18 -0.29
19 -0.18
2 -0.68
20 -0.15
21 -0.15
22 0.06
23 0.57
25 0.57
26 -0.15
27 0.33
28 -0.15
29 0.36
3 -0.57
30 0.66
31 0.66
37 0.15
38 0.15
39 0.15
4 -0.57
40 0.37
43 0.15
46 0.4
47 0.15
49 0.15
5 -0.65
50 0.37
53 0.36
54 0.36
55 0.5
56 0.5
6 -0.57
7 -0.65
8 -0.57
9 -0.73

> <PUBCHEM_EFFECTIVE_ROTOR_COUNT>
13.4

> <PUBCHEM_PHARMACOPHORE_FEATURES>
16
1 10 donor
1 11 cation
1 11 donor
1 2 acceptor
1 2 donor
1 3 acceptor
1 4 acceptor
1 5 acceptor
1 6 acceptor
1 7 acceptor
1 8 acceptor
1 9 donor
3 5 6 30 anion
3 7 8 31 anion
6 12 13 14 17 18 19 rings
6 14 17 20 21 26 28 rings

> <PUBCHEM_HEAVY_ATOM_COUNT>
31

> <PUBCHEM_ATOM_DEF_STEREO_COUNT>
4

> <PUBCHEM_ATOM_UDEF_STEREO_COUNT>
0

> <PUBCHEM_BOND_DEF_STEREO_COUNT>
0

> <PUBCHEM_BOND_UDEF_STEREO_COUNT>
0

> <PUBCHEM_ISOTOPIC_ATOM_COUNT>
0

> <PUBCHEM_COMPONENT_COUNT>
1

> <PUBCHEM_CACTVS_TAUTO_COUNT>
4

> <PUBCHEM_CONFORMER_ID>
00B6677C00000001

> <PUBCHEM_MMFF94_ENERGY>
56.3811

> <PUBCHEM_FEATURE_SELFOVERLAP>
81.332

> <PUBCHEM_SHAPE_FINGERPRINT>
12156800 1 18053134802350125049
12788726 201 18198074581877829394
13583140 156 17402899315373686068
13590594 115 18048880693442358586
150020 26 16760849954531701843
16993438 75 18410292484463011378
19930381 70 17619062176197080457
20764821 26 18411703196731436329
23559900 14 17330560259143604968
23845131 108 18266463281327855660
6287921 2 17185037709691076995
653340 110 18410292480431742570
7097593 13 16536791002197466837
86090 222 16762207246054981193
9777508 108 18409730668850564856

> <PUBCHEM_SHAPE_MULTIPOLES>
585.79
9.73
7.88
1.44
6.73
8.8
0.37
-9.97
-1.98
-4.04
-1.16
-0.54
-0.03
0.76

> <PUBCHEM_SHAPE_SELFOVERLAP>
1199.35

> <PUBCHEM_SHAPE_VOLUME>
337

> <PUBCHEM_COORDINATE_TYPE>
2
5
10

$$$$

