6705
  -OEChem-06261201273D

 28 30  0     0  0  0  0  0  0999 V2000
   -1.5222   -2.1956    0.0017 O   0  0  0  0  0  0  0  0  0  0  0  0
    1.5221    2.1956   -0.0032 O   0  0  0  0  0  0  0  0  0  0  0  0
   -4.1276   -1.2471   -1.0967 O   0  5  0  0  0  0  0  0  0  0  0  0
    4.1276    1.2491   -1.0947 O   0  5  0  0  0  0  0  0  0  0  0  0
   -4.1278   -1.2458    1.0985 O   0  0  0  0  0  0  0  0  0  0  0  0
    4.1278    1.2438    1.1006 O   0  0  0  0  0  0  0  0  0  0  0  0
   -3.7430   -0.7815    0.0006 N   0  3  0  0  0  0  0  0  0  0  0  0
    3.7430    0.7815    0.0018 N   0  3  0  0  0  0  0  0  0  0  0  0
   -1.4414    0.1752    0.0000 C   0  0  0  0  0  0  0  0  0  0  0  0
    1.4414   -0.1751   -0.0004 C   0  0  0  0  0  0  0  0  0  0  0  0
   -0.6271    1.3096   -0.0003 C   0  0  0  0  0  0  0  0  0  0  0  0
    0.6270   -1.3096   -0.0005 C   0  0  0  0  0  0  0  0  0  0  0  0
   -0.8440   -1.1759    0.0000 C   0  0  0  0  0  0  0  0  0  0  0  0
    0.8441    1.1759   -0.0010 C   0  0  0  0  0  0  0  0  0  0  0  0
   -2.8344    0.3156    0.0000 C   0  0  0  0  0  0  0  0  0  0  0  0
    2.8344   -0.3156   -0.0007 C   0  0  0  0  0  0  0  0  0  0  0  0
   -1.2057    2.5844   -0.0001 C   0  0  0  0  0  0  0  0  0  0  0  0
    1.2056   -2.5845   -0.0013 C   0  0  0  0  0  0  0  0  0  0  0  0
   -3.4068    1.5879   -0.0004 C   0  0  0  0  0  0  0  0  0  0  0  0
    3.4069   -1.5879   -0.0017 C   0  0  0  0  0  0  0  0  0  0  0  0
   -2.5942    2.7199   -0.0002 C   0  0  0  0  0  0  0  0  0  0  0  0
    2.5942   -2.7199   -0.0020 C   0  0  0  0  0  0  0  0  0  0  0  0
   -0.5965    3.4843   -0.0001 H   0  0  0  0  0  0  0  0  0  0  0  0
    0.5964   -3.4844   -0.0016 H   0  0  0  0  0  0  0  0  0  0  0  0
   -4.4870    1.7167   -0.0005 H   0  0  0  0  0  0  0  0  0  0  0  0
    4.4870   -1.7167   -0.0018 H   0  0  0  0  0  0  0  0  0  0  0  0
   -3.0423    3.7094   -0.0003 H   0  0  0  0  0  0  0  0  0  0  0  0
    3.0422   -3.7094   -0.0026 H   0  0  0  0  0  0  0  0  0  0  0  0
  1 13  2  0  0  0  0
  2 14  2  0  0  0  0
  3  7  1  0  0  0  0
  4  8  1  0  0  0  0
  5  7  2  0  0  0  0
  6  8  2  0  0  0  0
  7 15  1  0  0  0  0
  8 16  1  0  0  0  0
  9 11  2  0  0  0  0
  9 13  1  0  0  0  0
  9 15  1  0  0  0  0
 10 12  2  0  0  0  0
 10 14  1  0  0  0  0
 10 16  1  0  0  0  0
 11 14  1  0  0  0  0
 11 17  1  0  0  0  0
 12 13  1  0  0  0  0
 12 18  1  0  0  0  0
 15 19  2  0  0  0  0
 16 20  2  0  0  0  0
 17 21  2  0  0  0  0
 17 23  1  0  0  0  0
 18 22  2  0  0  0  0
 18 24  1  0  0  0  0
 19 21  1  0  0  0  0
 19 25  1  0  0  0  0
 20 22  1  0  0  0  0
 20 26  1  0  0  0  0
 21 27  1  0  0  0  0
 22 28  1  0  0  0  0
M  CHG  4   3  -1   4  -1   7   1   8   1
M  END
> <PUBCHEM_COMPOUND_CID>
6705

> <PUBCHEM_CONFORMER_RMSD>
0.6

> <PUBCHEM_CONFORMER_DIVERSEORDER>
1

> <PUBCHEM_MMFF94_PARTIAL_CHARGES>
28
1 -0.57
10 0.09
11 0.09
12 0.09
13 0.4
14 0.4
15 0.13
16 0.13
17 -0.15
18 -0.15
19 -0.15
2 -0.57
20 -0.15
21 -0.15
22 -0.15
23 0.15
24 0.15
25 0.15
26 0.15
27 0.15
28 0.15
3 -0.52
4 -0.52
5 -0.52
6 -0.52
7 0.91
8 0.91
9 0.09

> <PUBCHEM_EFFECTIVE_ROTOR_COUNT>
2

> <PUBCHEM_PHARMACOPHORE_FEATURES>
11
1 1 acceptor
1 2 acceptor
1 3 acceptor
1 3 anion
1 4 acceptor
1 4 anion
1 5 acceptor
1 6 acceptor
6 10 12 16 18 20 22 rings
6 9 10 11 12 13 14 rings
6 9 11 15 17 19 21 rings

> <PUBCHEM_HEAVY_ATOM_COUNT>
22

> <PUBCHEM_ATOM_DEF_STEREO_COUNT>
0

> <PUBCHEM_ATOM_UDEF_STEREO_COUNT>
0

> <PUBCHEM_BOND_DEF_STEREO_COUNT>
0

> <PUBCHEM_BOND_UDEF_STEREO_COUNT>
0

> <PUBCHEM_ISOTOPIC_ATOM_COUNT>
0

> <PUBCHEM_COMPONENT_COUNT>
1

> <PUBCHEM_CACTVS_TAUTO_COUNT>
1

> <PUBCHEM_CONFORMER_ID>
00001A3100000001

> <PUBCHEM_MMFF94_ENERGY>
83.2549

> <PUBCHEM_FEATURE_SELFOVERLAP>
56.029

> <PUBCHEM_SHAPE_FINGERPRINT>
10608611 8 18338237196875262032
10616163 171 18337388361003375559
10670039 82 18271512144750216636
10863032 1 18336547243118901113
10967382 1 18338516331015649062
1100329 8 17834113421826589016
11578080 2 17129878346266488374
12553582 1 18337953381373535599
13140716 1 18050286959854616968
13224815 77 18410854394976272498
14178342 30 18339089284428516176
14223421 5 18338516455543313922
14787075 74 17843958148616270675
14790565 3 18051676772707450821
15196674 1 18410855498782867461
15442244 35 18194966468195057370
15536298 74 18335422425833785534
16945 1 18410855425768423430
17492 89 18339079410109155595
19591789 44 17475783265429453615
20510252 161 18334575758809627033
20691752 17 17632291345372427312
20905425 154 18335136526840287238
21267235 1 18338507650866203518
21501502 16 18338517563639595020
221490 88 18339071722127771058
2334 1 17690280408807112711
23366157 5 17987230213416607826
23463225 33 18195808698433519014
23558518 356 18201148949158225267
23559900 14 18119536685233050738
238 59 16619022300313461181
2748010 2 18266741478938116252
2871803 45 18410859862543590895
335352 9 17906453581762920869
34934 24 18336836290191747359
350125 39 18339077198537724762
352729 6 17974853075067103381
5104073 3 18338517546459726794
7097593 13 17410223123529177995
7364860 26 18191026914228223114
8809292 202 18198335363448737547
9709674 26 18338794627822620866
9981440 41 18270681970421066538

> <PUBCHEM_SHAPE_MULTIPOLES>
407.57
7.46
3.15
0.76
0
0
0
0
0
0
0
0
0
0

> <PUBCHEM_SHAPE_SELFOVERLAP>
922.486

> <PUBCHEM_SHAPE_VOLUME>
211.2

> <PUBCHEM_COORDINATE_TYPE>
2
5
10

$$$$

