440294
  -OEChem-07051212493D

 22 23  0     1  0  0  0  0  0999 V2000
    1.4453   -2.1980    0.1342 O   0  0  0  0  0  0  0  0  0  0  0  0
    2.4900   -0.1061   -1.2622 O   0  0  0  0  0  0  0  0  0  0  0  0
    1.1361   -0.8934    0.6145 C   0  0  1  0  0  0  0  0  0  0  0  0
    2.2030    0.1033    0.1210 C   0  0  2  0  0  0  0  0  0  0  0  0
   -0.2725   -0.4769    0.2380 C   0  0  0  0  0  0  0  0  0  0  0  0
   -0.5721    0.8967    0.1197 C   0  0  0  0  0  0  0  0  0  0  0  0
    1.7757    1.5323    0.2747 C   0  0  0  0  0  0  0  0  0  0  0  0
    0.4867    1.8990    0.2889 C   0  0  0  0  0  0  0  0  0  0  0  0
   -1.3041   -1.4163    0.1001 C   0  0  0  0  0  0  0  0  0  0  0  0
   -1.8849    1.3038   -0.1488 C   0  0  0  0  0  0  0  0  0  0  0  0
   -2.6068   -1.0006   -0.1777 C   0  0  0  0  0  0  0  0  0  0  0  0
   -2.8965    0.3561   -0.3024 C   0  0  0  0  0  0  0  0  0  0  0  0
    1.1633   -0.9318    1.7118 H   0  0  0  0  0  0  0  0  0  0  0  0
    3.1361   -0.0679    0.6698 H   0  0  0  0  0  0  0  0  0  0  0  0
    2.5478    2.2917    0.3548 H   0  0  0  0  0  0  0  0  0  0  0  0
    0.2093    2.9432    0.3828 H   0  0  0  0  0  0  0  0  0  0  0  0
   -1.1076   -2.4788    0.2163 H   0  0  0  0  0  0  0  0  0  0  0  0
   -2.1323    2.3586   -0.2433 H   0  0  0  0  0  0  0  0  0  0  0  0
   -3.3983   -1.7363   -0.2875 H   0  0  0  0  0  0  0  0  0  0  0  0
   -3.9125    0.6769   -0.5135 H   0  0  0  0  0  0  0  0  0  0  0  0
    2.3334   -2.4257    0.4584 H   0  0  0  0  0  0  0  0  0  0  0  0
    2.7389   -1.0400   -1.3696 H   0  0  0  0  0  0  0  0  0  0  0  0
  1  3  1  0  0  0  0
  1 21  1  0  0  0  0
  2  4  1  0  0  0  0
  2 22  1  0  0  0  0
  3  4  1  0  0  0  0
  3  5  1  0  0  0  0
  3 13  1  0  0  0  0
  4  7  1  0  0  0  0
  4 14  1  0  0  0  0
  5  6  1  0  0  0  0
  5  9  2  0  0  0  0
  6  8  1  0  0  0  0
  6 10  2  0  0  0  0
  7  8  2  0  0  0  0
  7 15  1  0  0  0  0
  8 16  1  0  0  0  0
  9 11  1  0  0  0  0
  9 17  1  0  0  0  0
 10 12  1  0  0  0  0
 10 18  1  0  0  0  0
 11 12  2  0  0  0  0
 11 19  1  0  0  0  0
 12 20  1  0  0  0  0
M  END
> <PUBCHEM_COMPOUND_CID>
440294

> <PUBCHEM_CONFORMER_RMSD>
0.4

> <PUBCHEM_CONFORMER_DIVERSEORDER>
1
2

> <PUBCHEM_MMFF94_PARTIAL_CHARGES>
20
1 -0.68
10 -0.15
11 -0.15
12 -0.15
15 0.15
16 0.15
17 0.15
18 0.15
19 0.15
2 -0.68
20 0.15
21 0.4
22 0.4
3 0.42
4 0.42
5 -0.14
6 0.03
7 -0.29
8 -0.18
9 -0.15

> <PUBCHEM_EFFECTIVE_ROTOR_COUNT>
0.4

> <PUBCHEM_PHARMACOPHORE_FEATURES>
6
1 1 acceptor
1 1 donor
1 2 acceptor
1 2 donor
6 3 4 5 6 7 8 rings
6 5 6 9 10 11 12 rings

> <PUBCHEM_HEAVY_ATOM_COUNT>
12

> <PUBCHEM_ATOM_DEF_STEREO_COUNT>
2

> <PUBCHEM_ATOM_UDEF_STEREO_COUNT>
0

> <PUBCHEM_BOND_DEF_STEREO_COUNT>
0

> <PUBCHEM_BOND_UDEF_STEREO_COUNT>
0

> <PUBCHEM_ISOTOPIC_ATOM_COUNT>
0

> <PUBCHEM_COMPONENT_COUNT>
1

> <PUBCHEM_CACTVS_TAUTO_COUNT>
1

> <PUBCHEM_CONFORMER_ID>
0006B7E600000001

> <PUBCHEM_MMFF94_ENERGY>
29.7018

> <PUBCHEM_FEATURE_SELFOVERLAP>
30.481

> <PUBCHEM_SHAPE_FINGERPRINT>
11206711 2 18413109446354592173
12423570 1 11115981897535477801
12524768 44 18411141333441579387
12897270 3 18411983524840952975
15775835 57 18271803553295075301
161256 15 18338234847712858361
16945 1 18411421704553718249
17844478 74 18059846234833385137
193761 8 15455375205758482425
20201158 50 18409737248318358527
21040471 1 18341056297370542417
2334 1 17907299845171241745
23552423 10 18341333288601778077
23559900 14 18335415812465196014
241688 4 17905893934681600216
2748010 2 17980201881324348099
5084963 1 18115020779980785577
528886 8 18338525122850685961
53812653 166 18408611339737386976
66348 1 18410577288107928353
7364860 26 18334866042938263410

> <PUBCHEM_SHAPE_MULTIPOLES>
235.22
3.77
2
0.77
0.99
0.13
-0.11
0.1
-0.64
-0.33
0.17
-0.28
0.03
0.1

> <PUBCHEM_SHAPE_SELFOVERLAP>
507.123

> <PUBCHEM_SHAPE_VOLUME>
128

> <PUBCHEM_COORDINATE_TYPE>
2
5
10

$$$$

