25202476
  -OEChem-07051213103D

 20 19  0     0  0  0  0  0  0999 V2000
    2.9417    0.1383    0.8021 S   0  0  0  0  0  0  0  0  0  0  0  0
   -1.6793   -2.2583   -0.0433 S   0  0  0  0  0  0  0  0  0  0  0  0
   -2.5714    1.5725   -0.0982 O   0  0  0  0  0  0  0  0  0  0  0  0
   -2.6973    0.1798   -0.1240 N   0  0  0  0  0  0  0  0  0  0  0  0
    0.5359    0.5236   -0.5694 C   0  0  0  0  0  0  0  0  0  0  0  0
   -0.3343    0.0878    0.6158 C   0  0  0  0  0  0  0  0  0  0  0  0
    1.8365    1.2138   -0.1590 C   0  0  0  0  0  0  0  0  0  0  0  0
   -1.6078   -0.5904    0.1351 C   0  0  0  0  0  0  0  0  0  0  0  0
    3.5761   -0.8670   -0.5591 C   0  0  0  0  0  0  0  0  0  0  0  0
   -0.0370    1.2235   -1.1912 H   0  0  0  0  0  0  0  0  0  0  0  0
    0.7485   -0.3339   -1.2188 H   0  0  0  0  0  0  0  0  0  0  0  0
    0.2098   -0.6036    1.2689 H   0  0  0  0  0  0  0  0  0  0  0  0
   -0.5884    0.9610    1.2280 H   0  0  0  0  0  0  0  0  0  0  0  0
    1.6043    2.0865    0.4611 H   0  0  0  0  0  0  0  0  0  0  0  0
    2.3670    1.5845   -1.0423 H   0  0  0  0  0  0  0  0  0  0  0  0
    4.3439   -1.5431   -0.1730 H   0  0  0  0  0  0  0  0  0  0  0  0
    4.0305   -0.2353   -1.3267 H   0  0  0  0  0  0  0  0  0  0  0  0
    2.7811   -1.4728   -1.0000 H   0  0  0  0  0  0  0  0  0  0  0  0
   -3.5763   -0.1865   -0.4726 H   0  0  0  0  0  0  0  0  0  0  0  0
   -3.1387    1.8149   -0.8494 H   0  0  0  0  0  0  0  0  0  0  0  0
  1  7  1  0  0  0  0
  1  9  1  0  0  0  0
  2  8  2  0  0  0  0
  3  4  1  0  0  0  0
  3 20  1  0  0  0  0
  4  8  1  0  0  0  0
  4 19  1  0  0  0  0
  5  6  1  0  0  0  0
  5  7  1  0  0  0  0
  5 10  1  0  0  0  0
  5 11  1  0  0  0  0
  6  8  1  0  0  0  0
  6 12  1  0  0  0  0
  6 13  1  0  0  0  0
  7 14  1  0  0  0  0
  7 15  1  0  0  0  0
  9 16  1  0  0  0  0
  9 17  1  0  0  0  0
  9 18  1  0  0  0  0
M  END
> <PUBCHEM_COMPOUND_CID>
25202476

> <PUBCHEM_CONFORMER_RMSD>
0.6

> <PUBCHEM_CONFORMER_DIVERSEORDER>
1
106
109
24
126
125
6
95
108
92
67
132
81
119
89
123
111
20
85
91
64
117
66
7
45
83
124
120
116
60
88
86
74
43
14
122
53
110
71
36
17
63
31
114
12
9
99
62
11
55
76
98
21
70
41
59
30
79
129
80
13
107
82
38
134
100
37
26
69
34
84
101
102
113
27
135
18
105
112
28
90
104
32
57
127
78
25
10
87
130
35
133
23
51
93
72
94
42
128
8
22
73
77
131
29
58
75
52
121
46
96
61
56
118
39
19
50
5
15
49
3
40
16
4
44
103
97
68
33
65
48
115
54
2
47

> <PUBCHEM_MMFF94_PARTIAL_CHARGES>
10
1 -0.46
19 0.37
2 -0.38
20 0.4
3 -0.44
4 -0.39
6 0.06
7 0.23
8 0.38
9 0.23

> <PUBCHEM_EFFECTIVE_ROTOR_COUNT>
5

> <PUBCHEM_PHARMACOPHORE_FEATURES>
3
1 2 acceptor
1 9 hydrophobe
4 1 5 6 7 hydrophobe

> <PUBCHEM_HEAVY_ATOM_COUNT>
9

> <PUBCHEM_ATOM_DEF_STEREO_COUNT>
0

> <PUBCHEM_ATOM_UDEF_STEREO_COUNT>
0

> <PUBCHEM_BOND_DEF_STEREO_COUNT>
0

> <PUBCHEM_BOND_UDEF_STEREO_COUNT>
0

> <PUBCHEM_ISOTOPIC_ATOM_COUNT>
0

> <PUBCHEM_COMPONENT_COUNT>
1

> <PUBCHEM_CACTVS_TAUTO_COUNT>
3

> <PUBCHEM_CONFORMER_ID>
01808F2C00000001

> <PUBCHEM_MMFF94_ENERGY>
15.3174

> <PUBCHEM_FEATURE_SELFOVERLAP>
15.227

> <PUBCHEM_SHAPE_FINGERPRINT>
12500047 106 18335426785299372562
12716758 59 18335424555995107339
12932741 1 17894627024626299176
12932764 1 18191855747931198536
14325111 11 18410575050556652112
14577589 140 18341891913396635682
18342897 137 18335417980500689566
18511873 20 18342739654136426848
20201158 50 18187079598548999790
20653085 51 18272643554467083593
22485316 2 18411983585709233194
23402539 116 18260842500930532237
23552423 10 18058449798777873330
3248919 1 18338528430202357020
9939556 21 18343300327757116300

> <PUBCHEM_SHAPE_MULTIPOLES>
182.06
5.46
1.8
0.83
2.56
0.62
-0.06
0.67
0.14
-1.19
0.16
0.4
0.04
0.22

> <PUBCHEM_SHAPE_SELFOVERLAP>
306.257

> <PUBCHEM_SHAPE_VOLUME>
125.2

> <PUBCHEM_COORDINATE_TYPE>
2
5
10

$$$$

