11965
  -OEChem-06261206203D

 21 21  0     0  0  0  0  0  0999 V2000
    3.6207   -1.4230   -0.6754 F   0  0  0  0  0  0  0  0  0  0  0  0
    1.4522    0.0604    0.1735 O   0  0  0  0  0  0  0  0  0  0  0  0
    0.6175    2.1868   -0.1105 O   0  0  0  0  0  0  0  0  0  0  0  0
   -0.8621    0.3209    0.0087 C   0  0  0  0  0  0  0  0  0  0  0  0
    2.7871    0.5772    0.1957 C   0  0  0  0  0  0  0  0  0  0  0  0
   -2.0195    1.0847   -0.1427 C   0  0  0  0  0  0  0  0  0  0  0  0
   -0.9542   -1.0633    0.1553 C   0  0  0  0  0  0  0  0  0  0  0  0
    0.4404    0.9675    0.0134 C   0  0  0  0  0  0  0  0  0  0  0  0
   -3.2689    0.4646   -0.1474 C   0  0  0  0  0  0  0  0  0  0  0  0
   -2.2037   -1.6834    0.1505 C   0  0  0  0  0  0  0  0  0  0  0  0
    3.7516   -0.5729    0.3798 C   0  0  0  0  0  0  0  0  0  0  0  0
   -3.3610   -0.9194   -0.0009 C   0  0  0  0  0  0  0  0  0  0  0  0
    2.8903    1.2913    1.0196 H   0  0  0  0  0  0  0  0  0  0  0  0
    2.9866    1.0769   -0.7584 H   0  0  0  0  0  0  0  0  0  0  0  0
   -1.9701    2.1642   -0.2585 H   0  0  0  0  0  0  0  0  0  0  0  0
   -0.0809   -1.6980    0.2758 H   0  0  0  0  0  0  0  0  0  0  0  0
   -4.1701    1.0591   -0.2653 H   0  0  0  0  0  0  0  0  0  0  0  0
   -2.2763   -2.7611    0.2646 H   0  0  0  0  0  0  0  0  0  0  0  0
    4.7877   -0.2266    0.4135 H   0  0  0  0  0  0  0  0  0  0  0  0
    3.5246   -1.1429    1.2851 H   0  0  0  0  0  0  0  0  0  0  0  0
   -4.3337   -1.4023   -0.0047 H   0  0  0  0  0  0  0  0  0  0  0  0
  1 11  1  0  0  0  0
  2  5  1  0  0  0  0
  2  8  1  0  0  0  0
  3  8  2  0  0  0  0
  4  6  2  0  0  0  0
  4  7  1  0  0  0  0
  4  8  1  0  0  0  0
  5 11  1  0  0  0  0
  5 13  1  0  0  0  0
  5 14  1  0  0  0  0
  6  9  1  0  0  0  0
  6 15  1  0  0  0  0
  7 10  2  0  0  0  0
  7 16  1  0  0  0  0
  9 12  2  0  0  0  0
  9 17  1  0  0  0  0
 10 12  1  0  0  0  0
 10 18  1  0  0  0  0
 11 19  1  0  0  0  0
 11 20  1  0  0  0  0
 12 21  1  0  0  0  0
M  END
> <PUBCHEM_COMPOUND_CID>
11965

> <PUBCHEM_CONFORMER_RMSD>
0.6

> <PUBCHEM_CONFORMER_DIVERSEORDER>
1
24
6
13
14
23
7
20
9
11
4
21
12
10
18
19
2
3
25
15
22
8
5
16
17

> <PUBCHEM_MMFF94_PARTIAL_CHARGES>
17
1 -0.34
10 -0.15
11 0.34
12 -0.15
15 0.15
16 0.15
17 0.15
18 0.15
2 -0.43
21 0.15
3 -0.57
4 0.09
5 0.28
6 -0.15
7 -0.15
8 0.63
9 -0.15

> <PUBCHEM_EFFECTIVE_ROTOR_COUNT>
4

> <PUBCHEM_PHARMACOPHORE_FEATURES>
2
1 3 acceptor
6 4 6 7 9 10 12 rings

> <PUBCHEM_HEAVY_ATOM_COUNT>
12

> <PUBCHEM_ATOM_DEF_STEREO_COUNT>
0

> <PUBCHEM_ATOM_UDEF_STEREO_COUNT>
0

> <PUBCHEM_BOND_DEF_STEREO_COUNT>
0

> <PUBCHEM_BOND_UDEF_STEREO_COUNT>
0

> <PUBCHEM_ISOTOPIC_ATOM_COUNT>
0

> <PUBCHEM_COMPONENT_COUNT>
1

> <PUBCHEM_CACTVS_TAUTO_COUNT>
1

> <PUBCHEM_CONFORMER_ID>
00002EBD00000001

> <PUBCHEM_MMFF94_ENERGY>
26.0618

> <PUBCHEM_FEATURE_SELFOVERLAP>
10.148

> <PUBCHEM_SHAPE_FINGERPRINT>
10465860 71 18270101483847098156
10751810 167 17846493746719833006
11543360 7 15195277590976174323
11769659 78 18336270028913180983
12032990 46 18411133640875655394
12932764 1 17313951801103665640
13296908 3 18410576171601067226
13690532 89 18411141320751908287
14144814 61 18411702062606752033
14325111 11 18411139112685121969
14577589 140 18113340807955209079
16945 1 18342468027830806297
17804303 29 18409726257565652313
18186145 218 17132116823075757332
20201158 50 18408040727652045102
20281407 28 18407757041072813842
20645477 70 18124885564431276255
21501502 16 18267017250546670741
22485316 2 18412831291566929602
23402539 116 17967822652439412493
23463225 33 18412546530761019254
23552423 10 17985832523414911369
23559900 14 18337397136391434688
2748010 2 18126574418538579877
7364860 26 18121218684293754744

> <PUBCHEM_SHAPE_MULTIPOLES>
227.94
6.42
1.73
0.64
3.9
0.15
0
-2.22
-0.17
-0.11
-0.08
0.11
-0.06
0.28

> <PUBCHEM_SHAPE_SELFOVERLAP>
468.266

> <PUBCHEM_SHAPE_VOLUME>
131.2

> <PUBCHEM_COORDINATE_TYPE>
2
5
10

$$$$

