442327
  -OEChem-07051212572D

 44 47  0     1  0  0  0  0  0999 V2000
    5.9507   -3.3698    0.0000 O   0  0  0  0  0  0  0  0  0  0  0  0
    3.7230   -1.5228    0.0000 O   0  0  0  0  0  0  0  0  0  0  0  0
    4.5447    1.6426    0.0000 O   0  0  0  0  0  0  0  0  0  0  0  0
    2.0000   -1.0906    0.0000 O   0  0  0  0  0  0  0  0  0  0  0  0
    6.1053    2.3941    0.0000 O   0  0  0  0  0  0  0  0  0  0  0  0
    5.6146   -2.4338    0.0000 C   0  0  3  0  0  0  0  0  0  0  0  0
    5.4786   -1.4490    0.0000 C   0  0  1  0  0  0  0  0  0  0  0  0
    6.5929   -2.6104    0.0000 C   0  0  3  0  0  0  0  0  0  0  0  0
    6.3796   -1.0152    0.0000 C   0  0  1  0  0  0  0  0  0  0  0  0
    7.0647   -1.7354    0.0000 C   0  0  0  0  0  0  0  0  0  0  0  0
    4.5777   -1.0152    0.0000 C   0  0  2  0  0  0  0  0  0  0  0  0
    4.3551   -0.0402    0.0000 C   0  0  1  0  0  0  0  0  0  0  0  0
    4.6305   -2.2561    0.0000 C   0  0  0  0  0  0  0  0  0  0  0  0
    6.6021   -0.0402    0.0000 C   0  0  0  0  0  0  0  0  0  0  0  0
    4.9786    0.7416    0.0000 C   0  0  2  0  0  0  0  0  0  0  0  0
    3.3648    0.0463    0.0000 C   0  0  1  0  0  0  0  0  0  0  0  0
    5.9786    0.7416    0.0000 C   0  0  0  0  0  0  0  0  0  0  0  0
    2.9749   -0.8681    0.0000 C   0  0  0  0  0  0  0  0  0  0  0  0
    2.8504    0.9039    0.0000 C   0  0  0  0  0  0  0  0  0  0  0  0
    7.5770    0.1823    0.0000 C   0  0  0  0  0  0  0  0  0  0  0  0
    5.1081    2.4688    0.0000 C   0  0  0  0  0  0  0  0  0  0  0  0
    4.6742    3.3698    0.0000 C   0  0  0  0  0  0  0  0  0  0  0  0
    4.7916   -1.9495    0.0000 H   0  0  0  0  0  0  0  0  0  0  0  0
    7.2952   -3.0892    0.0000 H   0  0  0  0  0  0  0  0  0  0  0  0
    7.1993   -0.7901    0.0000 H   0  0  0  0  0  0  0  0  0  0  0  0
    7.5765   -2.0854    0.0000 H   0  0  0  0  0  0  0  0  0  0  0  0
    7.4666   -1.2633    0.0000 H   0  0  0  0  0  0  0  0  0  0  0  0
    4.6147   -1.8643    0.0000 H   0  0  0  0  0  0  0  0  0  0  0  0
    4.0200    0.7409    0.0000 H   0  0  0  0  0  0  0  0  0  0  0  0
    4.7407   -1.6459    0.0000 H   0  0  0  0  0  0  0  0  0  0  0  0
    4.0204   -2.1459    0.0000 H   0  0  0  0  0  0  0  0  0  0  0  0
    4.5204   -2.8662    0.0000 H   0  0  0  0  0  0  0  0  0  0  0  0
    4.3625    0.8110    0.0000 H   0  0  0  0  0  0  0  0  0  0  0  0
    3.6936    0.5720    0.0000 H   0  0  0  0  0  0  0  0  0  0  0  0
    6.5372    1.0106    0.0000 H   0  0  0  0  0  0  0  0  0  0  0  0
    5.8407    1.3461    0.0000 H   0  0  0  0  0  0  0  0  0  0  0  0
    3.3821    1.2228    0.0000 H   0  0  0  0  0  0  0  0  0  0  0  0
    2.5315    1.4356    0.0000 H   0  0  0  0  0  0  0  0  0  0  0  0
    2.3188    0.5850    0.0000 H   0  0  0  0  0  0  0  0  0  0  0  0
    7.9988   -0.2722    0.0000 H   0  0  0  0  0  0  0  0  0  0  0  0
    7.7598    0.7748    0.0000 H   0  0  0  0  0  0  0  0  0  0  0  0
    5.2328    3.6388    0.0000 H   0  0  0  0  0  0  0  0  0  0  0  0
    4.4052    3.9284    0.0000 H   0  0  0  0  0  0  0  0  0  0  0  0
    4.1156    3.1008    0.0000 H   0  0  0  0  0  0  0  0  0  0  0  0
  1  6  1  0  0  0  0
  1  8  1  0  0  0  0
  2 11  1  0  0  0  0
  2 18  1  0  0  0  0
 15  3  1  1  0  0  0
  3 21  1  0  0  0  0
  4 18  2  0  0  0  0
  5 21  2  0  0  0  0
  6  7  1  0  0  0  0
  6  8  1  0  0  0  0
  6 13  1  0  0  0  0
  7  9  1  0  0  0  0
  7 11  1  0  0  0  0
  7 23  1  1  0  0  0
  8 10  1  0  0  0  0
  8 24  1  0  0  0  0
  9 10  1  0  0  0  0
  9 14  1  0  0  0  0
  9 25  1  1  0  0  0
 10 26  1  0  0  0  0
 10 27  1  0  0  0  0
 11 12  1  0  0  0  0
 11 28  1  6  0  0  0
 12 15  1  0  0  0  0
 12 16  1  0  0  0  0
 12 29  1  1  0  0  0
 13 30  1  0  0  0  0
 13 31  1  0  0  0  0
 13 32  1  0  0  0  0
 14 17  1  0  0  0  0
 14 20  2  0  0  0  0
 15 17  1  0  0  0  0
 15 33  1  0  0  0  0
 16 18  1  0  0  0  0
 16 19  1  1  0  0  0
 16 34  1  0  0  0  0
 17 35  1  0  0  0  0
 17 36  1  0  0  0  0
 19 37  1  0  0  0  0
 19 38  1  0  0  0  0
 19 39  1  0  0  0  0
 20 40  1  0  0  0  0
 20 41  1  0  0  0  0
 21 22  1  0  0  0  0
 22 42  1  0  0  0  0
 22 43  1  0  0  0  0
 22 44  1  0  0  0  0
M  END
> <PUBCHEM_COMPOUND_CID>
442327

> <PUBCHEM_COMPOUND_CANONICALIZED>
1

> <PUBCHEM_CACTVS_COMPLEXITY>
569

> <PUBCHEM_CACTVS_HBOND_ACCEPTOR>
5

> <PUBCHEM_CACTVS_HBOND_DONOR>
0

> <PUBCHEM_CACTVS_ROTATABLE_BOND>
2

> <PUBCHEM_CACTVS_SUBSKEYS>
AAADceB4OAAAAAAAAAAAAAAAEgAAAaIAAAAkAAAABgAAAADQAAAAGgAAAAAADVSggAICCAAABACIAgDSCAAAAAAgAAAAAAEAAAgAABIAAQACAAAFwAAAAAHK6PyOgAAAAAAAAAAAAAAAAAAAAYAADAAAAA==

> <PUBCHEM_IUPAC_INCHI>
InChI=1S/C17H22O5/c1-7-5-11(20-9(3)18)13-8(2)16(19)21-15(13)14-10(7)6-12-17(14,4)22-12/h8,10-15H,1,5-6H2,2-4H3/t8-,10-,11-,12?,13+,14-,15-,17?/m0/s1

> <PUBCHEM_IUPAC_INCHIKEY>
CZIGIXZHIBZWBA-MGCWZZKMSA-N

> <PUBCHEM_XLOGP3_AA>
1.6

> <PUBCHEM_EXACT_MASS>
306.146724

> <PUBCHEM_MOLECULAR_FORMULA>
C17H22O5

> <PUBCHEM_MOLECULAR_WEIGHT>
306.35358

> <PUBCHEM_OPENEYE_CAN_SMILES>
CC1C2C(CC(=C)C3CC4C(C3C2OC1=O)(O4)C)OC(=O)C

> <PUBCHEM_OPENEYE_ISO_SMILES>
C[C@H]1[C@@H]2[C@H](CC(=C)[C@@H]3CC4C([C@@H]3[C@H]2OC1=O)(O4)C)OC(=O)C

> <PUBCHEM_CACTVS_TPSA>
65.1

> <PUBCHEM_MONOISOTOPIC_WEIGHT>
306.146724

> <PUBCHEM_TOTAL_CHARGE>
0

> <PUBCHEM_HEAVY_ATOM_COUNT>
22

> <PUBCHEM_ATOM_DEF_STEREO_COUNT>
6

> <PUBCHEM_ATOM_UDEF_STEREO_COUNT>
2

> <PUBCHEM_BOND_DEF_STEREO_COUNT>
0

> <PUBCHEM_BOND_UDEF_STEREO_COUNT>
0

> <PUBCHEM_ISOTOPIC_ATOM_COUNT>
0

> <PUBCHEM_COMPONENT_COUNT>
1

> <PUBCHEM_CACTVS_TAUTO_COUNT>
2

> <PUBCHEM_COORDINATE_TYPE>
1
5
255

> <PUBCHEM_BONDANNOTATIONS>
11  28  6
12  29  5
16  19  5
15  3  5
6  13  3
7  23  5
8  24  3
9  25  5

$$$$

