23724666
  -OEChem-07051213083D

 32 35  0     0  0  0  0  0  0999 V2000
   -4.4139   -1.7007   -0.8563 O   0  0  0  0  0  0  0  0  0  0  0  0
   -5.4751    0.1435    0.2756 O   0  0  0  0  0  0  0  0  0  0  0  0
    1.9863    0.7975   -1.6625 O   0  0  0  0  0  0  0  0  0  0  0  0
   -1.2705    2.3524    1.0397 O   0  0  0  0  0  0  0  0  0  0  0  0
    0.5529   -0.9439    1.7377 O   0  0  0  0  0  0  0  0  0  0  0  0
    6.4746   -0.1180   -0.4133 O   0  0  0  0  0  0  0  0  0  0  0  0
   -1.3895    0.2394   -0.1132 C   0  0  0  0  0  0  0  0  0  0  0  0
    0.0713    0.2061   -0.2909 C   0  0  0  0  0  0  0  0  0  0  0  0
   -3.5175   -0.7660   -0.4384 C   0  0  0  0  0  0  0  0  0  0  0  0
   -2.1500   -0.8194   -0.6155 C   0  0  0  0  0  0  0  0  0  0  0  0
   -4.1235    0.2872    0.2078 C   0  0  0  0  0  0  0  0  0  0  0  0
    2.4204   -0.3324    0.4412 C   0  0  0  0  0  0  0  0  0  0  0  0
   -2.0087    1.3153    0.5470 C   0  0  0  0  0  0  0  0  0  0  0  0
    0.9750   -0.4019    0.7243 C   0  0  0  0  0  0  0  0  0  0  0  0
   -3.3955    1.3449    0.7127 C   0  0  0  0  0  0  0  0  0  0  0  0
    2.8525    0.2646   -0.7425 C   0  0  0  0  0  0  0  0  0  0  0  0
    0.6433    0.7456   -1.3779 C   0  0  0  0  0  0  0  0  0  0  0  0
   -5.6522   -1.1175   -0.4015 C   0  0  0  0  0  0  0  0  0  0  0  0
    3.3491   -0.8600    1.3423 C   0  0  0  0  0  0  0  0  0  0  0  0
    4.2153    0.3372   -1.0324 C   0  0  0  0  0  0  0  0  0  0  0  0
    4.7117   -0.7855    1.0504 C   0  0  0  0  0  0  0  0  0  0  0  0
    5.1441   -0.1885   -0.1343 C   0  0  0  0  0  0  0  0  0  0  0  0
   -1.6917   -1.6596   -1.1274 H   0  0  0  0  0  0  0  0  0  0  0  0
   -3.8903    2.1665    1.2195 H   0  0  0  0  0  0  0  0  0  0  0  0
    0.0871    1.2187   -2.1779 H   0  0  0  0  0  0  0  0  0  0  0  0
   -6.3058   -0.9621   -1.2676 H   0  0  0  0  0  0  0  0  0  0  0  0
   -6.1390   -1.8193    0.2854 H   0  0  0  0  0  0  0  0  0  0  0  0
    3.0331   -1.3293    2.2696 H   0  0  0  0  0  0  0  0  0  0  0  0
    4.5544    0.8020   -1.9548 H   0  0  0  0  0  0  0  0  0  0  0  0
    5.4281   -1.1979    1.7563 H   0  0  0  0  0  0  0  0  0  0  0  0
   -1.8666    2.9964    1.4591 H   0  0  0  0  0  0  0  0  0  0  0  0
    6.9716   -0.5291    0.3147 H   0  0  0  0  0  0  0  0  0  0  0  0
  1  9  1  0  0  0  0
  1 18  1  0  0  0  0
  2 11  1  0  0  0  0
  2 18  1  0  0  0  0
  3 16  1  0  0  0  0
  3 17  1  0  0  0  0
  4 13  1  0  0  0  0
  4 31  1  0  0  0  0
  5 14  2  0  0  0  0
  6 22  1  0  0  0  0
  6 32  1  0  0  0  0
  7  8  1  0  0  0  0
  7 10  2  0  0  0  0
  7 13  1  0  0  0  0
  8 14  1  0  0  0  0
  8 17  2  0  0  0  0
  9 10  1  0  0  0  0
  9 11  2  0  0  0  0
 10 23  1  0  0  0  0
 11 15  1  0  0  0  0
 12 14  1  0  0  0  0
 12 16  2  0  0  0  0
 12 19  1  0  0  0  0
 13 15  2  0  0  0  0
 15 24  1  0  0  0  0
 16 20  1  0  0  0  0
 17 25  1  0  0  0  0
 18 26  1  0  0  0  0
 18 27  1  0  0  0  0
 19 21  2  0  0  0  0
 19 28  1  0  0  0  0
 20 22  2  0  0  0  0
 20 29  1  0  0  0  0
 21 22  1  0  0  0  0
 21 30  1  0  0  0  0
M  END
> <PUBCHEM_COMPOUND_CID>
23724666

> <PUBCHEM_CONFORMER_RMSD>
0.6

> <PUBCHEM_CONFORMER_DIVERSEORDER>
1
6
4
5
3
2

> <PUBCHEM_MMFF94_PARTIAL_CHARGES>
30
1 -0.36
10 -0.15
11 0.08
12 0.09
13 0.08
14 0.47
15 -0.15
16 0.08
17 -0.07
18 0.56
19 -0.15
2 -0.36
20 -0.15
21 -0.15
22 0.08
23 0.15
24 0.15
25 0.15
28 0.15
29 0.15
3 -0.16
30 0.15
31 0.45
32 0.45
4 -0.53
5 -0.57
6 -0.53
7 0.03
8 -0.01
9 0.08

> <PUBCHEM_EFFECTIVE_ROTOR_COUNT>
1.6

> <PUBCHEM_PHARMACOPHORE_FEATURES>
10
1 1 acceptor
1 2 acceptor
1 3 acceptor
1 4 donor
1 5 acceptor
1 6 donor
5 1 2 9 11 18 rings
6 12 16 19 20 21 22 rings
6 3 8 12 14 16 17 rings
6 7 9 10 11 13 15 rings

> <PUBCHEM_HEAVY_ATOM_COUNT>
22

> <PUBCHEM_ATOM_DEF_STEREO_COUNT>
0

> <PUBCHEM_ATOM_UDEF_STEREO_COUNT>
0

> <PUBCHEM_BOND_DEF_STEREO_COUNT>
0

> <PUBCHEM_BOND_UDEF_STEREO_COUNT>
0

> <PUBCHEM_ISOTOPIC_ATOM_COUNT>
0

> <PUBCHEM_COMPONENT_COUNT>
1

> <PUBCHEM_CACTVS_TAUTO_COUNT>
15

> <PUBCHEM_CONFORMER_ID>
016A027A00000001

> <PUBCHEM_MMFF94_ENERGY>
65.8524

> <PUBCHEM_FEATURE_SELFOVERLAP>
50.927

> <PUBCHEM_SHAPE_FINGERPRINT>
10 15 16805900524146452698
11315181 36 18410853248251847796
11471102 20 16917348134727844070
11578080 2 18055667016690650669
12107183 9 17617941773874354562
12166972 35 18131068208097156564
12236239 1 18272087205899150845
12403259 415 16153433869808629512
12596602 18 18410576176091395368
13288520 33 18259984873043786447
13533116 47 18343307002521695914
13583140 156 17532675600823447008
13862211 1 17274830185851304786
13911987 19 16343405272642378246
14341114 176 17022905622980975330
14386348 63 16515400768098957159
17349148 13 18202843266285140018
17834072 33 18342458136278504548
17844677 252 17385721387561798408
17862501 102 18413108376828633256
1813 80 17845927550151035726
18222031 100 17918279774845478746
18681886 176 18410014295621578448
18785283 64 16154570652830245848
19489759 90 18113336423036108207
200 152 17775288274504680885
20645477 70 16630533972460495018
21033648 29 15719685358297120562
21033650 10 18119218870564519752
21267235 1 18334572413536440259
21641784 216 15912755219954000510
221357 26 16271938103495046791
22646028 1 18272371979226108991
2297311 6 17822004320023910928
23175994 123 15574714690308965971
23366157 5 18049446933678650553
23402539 116 18261112976094902293
23557571 272 17603577564737696537
23559900 14 18113903736291368912
23569943 247 17913489327475759994
34797466 226 17822000974888160724
4340502 62 17603588539228477126
474 4 17914610558357239588
5104073 3 17969216738599031563
542803 24 18343864424292628262
602551 16 17894918386264778374
7495541 125 17530967947427718720
77492 1 18272082812295456021

> <PUBCHEM_SHAPE_MULTIPOLES>
417.53
12.71
1.37
1.3
1.79
0.2
0.07
-3.04
-1.39
-0.68
0.25
0.16
0.12
-1.78

> <PUBCHEM_SHAPE_SELFOVERLAP>
951.18

> <PUBCHEM_SHAPE_VOLUME>
216.5

> <PUBCHEM_COORDINATE_TYPE>
2
5
10

$$$$

