5402
  -OEChem-06261200403D

 47 48  0     1  0  0  0  0  0999 V2000
   -0.9164    2.1133   -0.8008 N   0  0  2  0  0  0  0  0  0  0  0  0
   -1.0077    1.4006    0.4743 C   0  0  0  0  0  0  0  0  0  0  0  0
   -2.3314    0.6997    0.5480 C   0  0  0  0  0  0  0  0  0  0  0  0
   -2.5043   -0.6120    0.0796 C   0  0  0  0  0  0  0  0  0  0  0  0
   -3.7798   -1.2177    0.1772 C   0  0  0  0  0  0  0  0  0  0  0  0
    5.4879   -0.9322    0.2878 C   0  0  0  0  0  0  0  0  0  0  0  0
    0.3856    2.7577   -0.9362 C   0  0  0  0  0  0  0  0  0  0  0  0
   -3.3970    1.4055    1.1047 C   0  0  0  0  0  0  0  0  0  0  0  0
   -1.4413   -1.3364   -0.4834 C   0  0  0  0  0  0  0  0  0  0  0  0
   -1.9925    3.0993   -0.9102 C   0  0  0  0  0  0  0  0  0  0  0  0
   -4.8430   -0.4929    0.7401 C   0  0  0  0  0  0  0  0  0  0  0  0
   -4.6513    0.8102    1.2004 C   0  0  0  0  0  0  0  0  0  0  0  0
   -3.9544   -2.5304   -0.2910 C   0  0  0  0  0  0  0  0  0  0  0  0
    6.8119   -0.2675   -0.1139 C   0  0  0  0  0  0  0  0  0  0  0  0
    5.1799   -2.0870   -0.6756 C   0  0  0  0  0  0  0  0  0  0  0  0
    5.5984   -1.4736    1.7200 C   0  0  0  0  0  0  0  0  0  0  0  0
    1.5046    1.7662   -0.8273 C   0  0  0  0  0  0  0  0  0  0  0  0
   -1.6329   -2.6393   -0.9439 C   0  0  0  0  0  0  0  0  0  0  0  0
   -2.8869   -3.2353   -0.8479 C   0  0  0  0  0  0  0  0  0  0  0  0
    4.3971    0.0658    0.2225 C   0  0  0  0  0  0  0  0  0  0  0  0
    2.4631    1.8317    0.1073 C   0  0  0  0  0  0  0  0  0  0  0  0
    3.5103    0.8744    0.1683 C   0  0  0  0  0  0  0  0  0  0  0  0
   -0.9182    2.1033    1.3167 H   0  0  0  0  0  0  0  0  0  0  0  0
   -0.2017    0.6822    0.6478 H   0  0  0  0  0  0  0  0  0  0  0  0
    0.4630    3.2265   -1.9254 H   0  0  0  0  0  0  0  0  0  0  0  0
    0.5043    3.5595   -0.1949 H   0  0  0  0  0  0  0  0  0  0  0  0
   -3.2702    2.4122    1.4940 H   0  0  0  0  0  0  0  0  0  0  0  0
   -0.4447   -0.9240   -0.6031 H   0  0  0  0  0  0  0  0  0  0  0  0
   -1.8198    3.7387   -1.7860 H   0  0  0  0  0  0  0  0  0  0  0  0
   -2.0533    3.7662   -0.0424 H   0  0  0  0  0  0  0  0  0  0  0  0
   -2.9652    2.6405   -1.1099 H   0  0  0  0  0  0  0  0  0  0  0  0
   -5.8316   -0.9389    0.8264 H   0  0  0  0  0  0  0  0  0  0  0  0
   -5.4807    1.3575    1.6389 H   0  0  0  0  0  0  0  0  0  0  0  0
   -4.9261   -3.0158   -0.2263 H   0  0  0  0  0  0  0  0  0  0  0  0
    6.7634    0.1349   -1.1329 H   0  0  0  0  0  0  0  0  0  0  0  0
    7.6421   -0.9819   -0.0760 H   0  0  0  0  0  0  0  0  0  0  0  0
    7.0581    0.5669    0.5538 H   0  0  0  0  0  0  0  0  0  0  0  0
    4.2350   -2.5803   -0.4180 H   0  0  0  0  0  0  0  0  0  0  0  0
    5.0896   -1.7311   -1.7090 H   0  0  0  0  0  0  0  0  0  0  0  0
    5.9703   -2.8456   -0.6513 H   0  0  0  0  0  0  0  0  0  0  0  0
    5.8134   -0.6702    2.4348 H   0  0  0  0  0  0  0  0  0  0  0  0
    4.6643   -1.9514    2.0391 H   0  0  0  0  0  0  0  0  0  0  0  0
    6.3991   -2.2173    1.8024 H   0  0  0  0  0  0  0  0  0  0  0  0
    1.5246    0.9670   -1.5662 H   0  0  0  0  0  0  0  0  0  0  0  0
   -0.8036   -3.1878   -1.3813 H   0  0  0  0  0  0  0  0  0  0  0  0
   -3.0354   -4.2493   -1.2075 H   0  0  0  0  0  0  0  0  0  0  0  0
    2.4586    2.6258    0.8468 H   0  0  0  0  0  0  0  0  0  0  0  0
  1  2  1  0  0  0  0
  1  7  1  0  0  0  0
  1 10  1  0  0  0  0
  2  3  1  0  0  0  0
  2 23  1  0  0  0  0
  2 24  1  0  0  0  0
  3  4  1  0  0  0  0
  3  8  2  0  0  0  0
  4  5  1  0  0  0  0
  4  9  2  0  0  0  0
  5 11  1  0  0  0  0
  5 13  2  0  0  0  0
  6 14  1  0  0  0  0
  6 15  1  0  0  0  0
  6 16  1  0  0  0  0
  6 20  1  0  0  0  0
  7 17  1  0  0  0  0
  7 25  1  0  0  0  0
  7 26  1  0  0  0  0
  8 12  1  0  0  0  0
  8 27  1  0  0  0  0
  9 18  1  0  0  0  0
  9 28  1  0  0  0  0
 10 29  1  0  0  0  0
 10 30  1  0  0  0  0
 10 31  1  0  0  0  0
 11 12  2  0  0  0  0
 11 32  1  0  0  0  0
 12 33  1  0  0  0  0
 13 19  1  0  0  0  0
 13 34  1  0  0  0  0
 14 35  1  0  0  0  0
 14 36  1  0  0  0  0
 14 37  1  0  0  0  0
 15 38  1  0  0  0  0
 15 39  1  0  0  0  0
 15 40  1  0  0  0  0
 16 41  1  0  0  0  0
 16 42  1  0  0  0  0
 16 43  1  0  0  0  0
 17 21  2  0  0  0  0
 17 44  1  0  0  0  0
 18 19  2  0  0  0  0
 18 45  1  0  0  0  0
 19 46  1  0  0  0  0
 20 22  3  0  0  0  0
 21 22  1  0  0  0  0
 21 47  1  0  0  0  0
M  END
> <PUBCHEM_COMPOUND_CID>
5402

> <PUBCHEM_CONFORMER_RMSD>
0.6

> <PUBCHEM_CONFORMER_DIVERSEORDER>
1
6
3
33
59
17
45
19
27
7
29
44
52
21
15
38
46
61
2
20
58
50
18
13
10
41
55
24
26
14
43
5
51
62
37
12
4
25
54
16
39
30
32
60
48
9
8
40
31
53
11
34
49
23
47
22
42
63
57
35
36
56
28

> <PUBCHEM_MMFF94_PARTIAL_CHARGES>
26
1 -0.81
10 0.27
11 -0.15
12 -0.15
13 -0.15
17 -0.29
18 -0.15
19 -0.15
2 0.41
20 -0.2
21 -0.09
22 -0.06
27 0.15
28 0.15
3 -0.14
32 0.15
33 0.15
34 0.15
44 0.15
45 0.15
46 0.15
47 0.15
6 0.2
7 0.41
8 -0.15
9 -0.15

> <PUBCHEM_EFFECTIVE_ROTOR_COUNT>
4

> <PUBCHEM_PHARMACOPHORE_FEATURES>
4
1 1 cation
4 6 14 15 16 hydrophobe
6 3 4 5 8 11 12 rings
6 4 5 9 13 18 19 rings

> <PUBCHEM_HEAVY_ATOM_COUNT>
22

> <PUBCHEM_ATOM_DEF_STEREO_COUNT>
0

> <PUBCHEM_ATOM_UDEF_STEREO_COUNT>
0

> <PUBCHEM_BOND_DEF_STEREO_COUNT>
0

> <PUBCHEM_BOND_UDEF_STEREO_COUNT>
1

> <PUBCHEM_ISOTOPIC_ATOM_COUNT>
0

> <PUBCHEM_COMPONENT_COUNT>
1

> <PUBCHEM_CACTVS_TAUTO_COUNT>
1

> <PUBCHEM_CONFORMER_ID>
0000151A00000001

> <PUBCHEM_MMFF94_ENERGY>
61.6637

> <PUBCHEM_FEATURE_SELFOVERLAP>
20.324

> <PUBCHEM_SHAPE_FINGERPRINT>
10291535 26 8934990486602877204
10483366 6 18196960905732774301
10622 236 18046920281210874015
11524674 6 17531250594740506527
12107183 9 18337099142554539169
12174731 88 18056213594450169090
12422481 6 18260820527287053823
12633257 1 18186512203088051744
13551218 46 18411131463353577698
14100547 121 18114182995096870071
14251751 93 18270405009148924434
14420673 8 18262790878316163302
15250474 111 18264770961344695126
15537594 2 18201717379848846410
16110190 28 18335980892147421932
17492 89 17979070488170749299
17780758 139 18186803586596532064
17857418 61 18411702076034953202
1813 80 17775560940693404620
19141452 34 18408037424743014728
19319366 153 16535951409437567135
20403669 9 18413105082989643862
20621476 51 18335424504318466807
229767 44 18334294266669332494
235170 7 14045742655698183066
23559900 14 18042691598208398129
312425 54 18186240632522022312
351380 3 18130787871797832648
4409770 3 18199759196800645397
463206 1 18342735170354249850
5081480 168 15697721402383101509
5104073 3 18115297861501547049
559249 180 18412262844182035041
56633871 153 18409162191079359855
7064713 232 18113612404343446155

> <PUBCHEM_SHAPE_MULTIPOLES>
447.77
14.02
3.74
1.17
22.71
0.26
-0.2
7.61
-3.97
-2.48
1.54
0.04
-0.02
-1.28

> <PUBCHEM_SHAPE_SELFOVERLAP>
936.052

> <PUBCHEM_SHAPE_VOLUME>
253.3

> <PUBCHEM_COORDINATE_TYPE>
2
5
10

$$$$

