111326
  -OEChem-07051213052D

 32 34  0     1  0  0  0  0  0999 V2000
    5.0000    1.4205    0.0000 C   0  0  1  0  0  0  0  0  0  0  0  0
    5.7071    0.7134    0.0000 C   0  0  2  0  0  0  0  0  0  0  0  0
    6.4142    1.4205    0.0000 C   0  0  0  0  0  0  0  0  0  0  0  0
    5.7071    2.1276    0.0000 C   0  0  0  0  0  0  0  0  0  0  0  0
    5.7071   -0.2866    0.0000 C   0  0  0  0  0  0  0  0  0  0  0  0
    4.0000    1.4205    0.0000 C   0  0  0  0  0  0  0  0  0  0  0  0
    4.8411   -0.7866    0.0000 C   0  0  0  0  0  0  0  0  0  0  0  0
    3.5000    2.2866    0.0000 C   0  0  0  0  0  0  0  0  0  0  0  0
    6.5731   -0.7866    0.0000 C   0  0  0  0  0  0  0  0  0  0  0  0
    3.5000    0.5545    0.0000 C   0  0  0  0  0  0  0  0  0  0  0  0
    4.8411   -1.7866    0.0000 C   0  0  0  0  0  0  0  0  0  0  0  0
    2.5000    2.2866    0.0000 C   0  0  0  0  0  0  0  0  0  0  0  0
    6.5731   -1.7866    0.0000 C   0  0  0  0  0  0  0  0  0  0  0  0
    2.5000    0.5545    0.0000 C   0  0  0  0  0  0  0  0  0  0  0  0
    2.0000    1.4205    0.0000 C   0  0  0  0  0  0  0  0  0  0  0  0
    5.7071   -2.2866    0.0000 C   0  0  0  0  0  0  0  0  0  0  0  0
    4.7627    1.9934    0.0000 H   0  0  0  0  0  0  0  0  0  0  0  0
    5.1343    0.4762    0.0000 H   0  0  0  0  0  0  0  0  0  0  0  0
    6.8526    0.9821    0.0000 H   0  0  0  0  0  0  0  0  0  0  0  0
    6.8526    1.8590    0.0000 H   0  0  0  0  0  0  0  0  0  0  0  0
    6.1455    2.5660    0.0000 H   0  0  0  0  0  0  0  0  0  0  0  0
    5.2687    2.5660    0.0000 H   0  0  0  0  0  0  0  0  0  0  0  0
    4.3042   -0.4766    0.0000 H   0  0  0  0  0  0  0  0  0  0  0  0
    3.8100    2.8235    0.0000 H   0  0  0  0  0  0  0  0  0  0  0  0
    7.1101   -0.4766    0.0000 H   0  0  0  0  0  0  0  0  0  0  0  0
    3.8100    0.0176    0.0000 H   0  0  0  0  0  0  0  0  0  0  0  0
    4.3042   -2.0966    0.0000 H   0  0  0  0  0  0  0  0  0  0  0  0
    2.1900    2.8235    0.0000 H   0  0  0  0  0  0  0  0  0  0  0  0
    7.1101   -2.0966    0.0000 H   0  0  0  0  0  0  0  0  0  0  0  0
    2.1900    0.0176    0.0000 H   0  0  0  0  0  0  0  0  0  0  0  0
    1.3800    1.4205    0.0000 H   0  0  0  0  0  0  0  0  0  0  0  0
    5.7071   -2.9066    0.0000 H   0  0  0  0  0  0  0  0  0  0  0  0
  1  2  1  0  0  0  0
  1  4  1  0  0  0  0
  1  6  1  6  0  0  0
  1 17  1  0  0  0  0
  2  3  1  0  0  0  0
  2  5  1  6  0  0  0
  2 18  1  0  0  0  0
  3  4  1  0  0  0  0
  3 19  1  0  0  0  0
  3 20  1  0  0  0  0
  4 21  1  0  0  0  0
  4 22  1  0  0  0  0
  5  7  2  0  0  0  0
  5  9  1  0  0  0  0
  6  8  2  0  0  0  0
  6 10  1  0  0  0  0
  7 11  1  0  0  0  0
  7 23  1  0  0  0  0
  8 12  1  0  0  0  0
  8 24  1  0  0  0  0
  9 13  2  0  0  0  0
  9 25  1  0  0  0  0
 10 14  2  0  0  0  0
 10 26  1  0  0  0  0
 11 16  2  0  0  0  0
 11 27  1  0  0  0  0
 12 15  2  0  0  0  0
 12 28  1  0  0  0  0
 13 16  1  0  0  0  0
 13 29  1  0  0  0  0
 14 15  1  0  0  0  0
 14 30  1  0  0  0  0
 15 31  1  0  0  0  0
 16 32  1  0  0  0  0
M  END
> <PUBCHEM_COMPOUND_CID>
111326

> <PUBCHEM_COMPOUND_CANONICALIZED>
1

> <PUBCHEM_CACTVS_COMPLEXITY>
184

> <PUBCHEM_CACTVS_HBOND_ACCEPTOR>
0

> <PUBCHEM_CACTVS_HBOND_DONOR>
0

> <PUBCHEM_CACTVS_ROTATABLE_BOND>
2

> <PUBCHEM_CACTVS_SUBSKEYS>
AAADceB4AAAAAAAAAAAAAAAAAABgAAAAAAAwYAAAAAAAAAABQAAAGAAAAAAADQCAGAAwAIAAAACAAiBCAAACAAAgAAAIiAAAAIgIICKAERCAIAAggAAIiAcAgMAOgAAAAAAAAAAAAAAAAAAAAAAAAAAAAA==

> <PUBCHEM_IUPAC_OPENEYE_NAME>
[(1S,2R)-2-phenylcyclobutyl]benzene

> <PUBCHEM_IUPAC_CAS_NAME>
[(1S,2R)-2-phenylcyclobutyl]benzene

> <PUBCHEM_IUPAC_NAME>
[(1S,2R)-2-phenylcyclobutyl]benzene

> <PUBCHEM_IUPAC_SYSTEMATIC_NAME>
[(1S,2R)-2-phenylcyclobutyl]benzene

> <PUBCHEM_IUPAC_TRADITIONAL_NAME>
[(1S,2R)-2-phenylcyclobutyl]benzene

> <PUBCHEM_IUPAC_INCHI>
InChI=1S/C16H16/c1-3-7-13(8-4-1)15-11-12-16(15)14-9-5-2-6-10-14/h1-10,15-16H,11-12H2/t15-,16+

> <PUBCHEM_IUPAC_INCHIKEY>
AERGGMDNGDDGPI-IYBDPMFKSA-N

> <PUBCHEM_XLOGP3_AA>
4.6

> <PUBCHEM_EXACT_MASS>
208.125201

> <PUBCHEM_MOLECULAR_FORMULA>
C16H16

> <PUBCHEM_MOLECULAR_WEIGHT>
208.29824

> <PUBCHEM_OPENEYE_CAN_SMILES>
C1CC(C1C2=CC=CC=C2)C3=CC=CC=C3

> <PUBCHEM_OPENEYE_ISO_SMILES>
C1C[C@@H]([C@@H]1C2=CC=CC=C2)C3=CC=CC=C3

> <PUBCHEM_CACTVS_TPSA>
0

> <PUBCHEM_MONOISOTOPIC_WEIGHT>
208.125201

> <PUBCHEM_TOTAL_CHARGE>
0

> <PUBCHEM_HEAVY_ATOM_COUNT>
16

> <PUBCHEM_ATOM_DEF_STEREO_COUNT>
2

> <PUBCHEM_ATOM_UDEF_STEREO_COUNT>
0

> <PUBCHEM_BOND_DEF_STEREO_COUNT>
0

> <PUBCHEM_BOND_UDEF_STEREO_COUNT>
0

> <PUBCHEM_ISOTOPIC_ATOM_COUNT>
0

> <PUBCHEM_COMPONENT_COUNT>
1

> <PUBCHEM_CACTVS_TAUTO_COUNT>
1

> <PUBCHEM_COORDINATE_TYPE>
1
5
255

> <PUBCHEM_BONDANNOTATIONS>
1  6  6
10  14  8
11  16  8
12  15  8
13  16  8
14  15  8
2  5  6
5  7  8
5  9  8
6  10  8
6  8  8
7  11  8
8  12  8
9  13  8

$$$$

