854195
  -OEChem-06241222473D

 28 28  0     1  0  0  0  0  0999 V2000
   -5.1553   -0.8809    0.3525 Br  0  0  0  0  0  0  0  0  0  0  0  0
    1.0334    1.7866   -0.9938 O   0  0  0  0  0  0  0  0  0  0  0  0
    1.6461   -0.0294    0.2726 N   0  0  0  0  0  0  0  0  0  0  0  0
    3.0655    0.2187    0.1738 C   0  0  2  0  0  0  0  0  0  0  0  0
    3.8637   -1.0906    0.2219 C   0  0  0  0  0  0  0  0  0  0  0  0
    3.5029    1.1616    1.2898 C   0  0  0  0  0  0  0  0  0  0  0  0
    3.4598   -2.0661   -0.8763 C   0  0  0  0  0  0  0  0  0  0  0  0
    0.7043    0.7974   -0.3366 C   0  0  0  0  0  0  0  0  0  0  0  0
   -0.6998    0.3953   -0.1727 C   0  0  0  0  0  0  0  0  0  0  0  0
   -1.6955    1.3601   -0.2181 C   0  0  0  0  0  0  0  0  0  0  0  0
   -1.0072   -0.9428    0.0262 C   0  0  0  0  0  0  0  0  0  0  0  0
   -3.0280    0.9784   -0.0613 C   0  0  0  0  0  0  0  0  0  0  0  0
   -2.3397   -1.3245    0.1828 C   0  0  0  0  0  0  0  0  0  0  0  0
   -3.3500   -0.3639    0.1391 C   0  0  0  0  0  0  0  0  0  0  0  0
    3.2642    0.7112   -0.7862 H   0  0  0  0  0  0  0  0  0  0  0  0
    3.7243   -1.5818    1.1931 H   0  0  0  0  0  0  0  0  0  0  0  0
    4.9336   -0.8704    0.1249 H   0  0  0  0  0  0  0  0  0  0  0  0
    1.3497   -0.7729    0.8964 H   0  0  0  0  0  0  0  0  0  0  0  0
    2.9623    2.1129    1.2358 H   0  0  0  0  0  0  0  0  0  0  0  0
    3.3058    0.7274    2.2765 H   0  0  0  0  0  0  0  0  0  0  0  0
    4.5738    1.3794    1.2205 H   0  0  0  0  0  0  0  0  0  0  0  0
    3.5670   -1.6088   -1.8651 H   0  0  0  0  0  0  0  0  0  0  0  0
    4.0996   -2.9537   -0.8429 H   0  0  0  0  0  0  0  0  0  0  0  0
    2.4239   -2.3992   -0.7596 H   0  0  0  0  0  0  0  0  0  0  0  0
   -1.4605    2.4100   -0.3694 H   0  0  0  0  0  0  0  0  0  0  0  0
   -0.2549   -1.7255    0.0340 H   0  0  0  0  0  0  0  0  0  0  0  0
   -3.8034    1.7395   -0.0967 H   0  0  0  0  0  0  0  0  0  0  0  0
   -2.5747   -2.3754    0.3312 H   0  0  0  0  0  0  0  0  0  0  0  0
  1 14  1  0  0  0  0
  2  8  2  0  0  0  0
  3  4  1  0  0  0  0
  3  8  1  0  0  0  0
  3 18  1  0  0  0  0
  4  5  1  0  0  0  0
  4  6  1  0  0  0  0
  4 15  1  0  0  0  0
  5  7  1  0  0  0  0
  5 16  1  0  0  0  0
  5 17  1  0  0  0  0
  6 19  1  0  0  0  0
  6 20  1  0  0  0  0
  6 21  1  0  0  0  0
  7 22  1  0  0  0  0
  7 23  1  0  0  0  0
  7 24  1  0  0  0  0
  8  9  1  0  0  0  0
  9 10  2  0  0  0  0
  9 11  1  0  0  0  0
 10 12  1  0  0  0  0
 10 25  1  0  0  0  0
 11 13  2  0  0  0  0
 11 26  1  0  0  0  0
 12 14  2  0  0  0  0
 12 27  1  0  0  0  0
 13 14  1  0  0  0  0
 13 28  1  0  0  0  0
M  END
> <PUBCHEM_COMPOUND_CID>
854195

> <PUBCHEM_CONFORMER_RMSD>
0.6

> <PUBCHEM_CONFORMER_DIVERSEORDER>
1
6
5
7
4
9
8
3
2

> <PUBCHEM_MMFF94_PARTIAL_CHARGES>
16
1 -0.11
10 -0.15
11 -0.15
12 -0.15
13 -0.15
14 0.11
18 0.37
2 -0.57
25 0.15
26 0.15
27 0.15
28 0.15
3 -0.73
4 0.3
8 0.54
9 0.09

> <PUBCHEM_EFFECTIVE_ROTOR_COUNT>
4

> <PUBCHEM_PHARMACOPHORE_FEATURES>
5
1 1 hydrophobe
1 2 acceptor
1 3 donor
1 7 hydrophobe
6 9 10 11 12 13 14 rings

> <PUBCHEM_HEAVY_ATOM_COUNT>
14

> <PUBCHEM_ATOM_DEF_STEREO_COUNT>
1

> <PUBCHEM_ATOM_UDEF_STEREO_COUNT>
0

> <PUBCHEM_BOND_DEF_STEREO_COUNT>
0

> <PUBCHEM_BOND_UDEF_STEREO_COUNT>
0

> <PUBCHEM_ISOTOPIC_ATOM_COUNT>
0

> <PUBCHEM_COMPONENT_COUNT>
1

> <PUBCHEM_CACTVS_TAUTO_COUNT>
2

> <PUBCHEM_CONFORMER_ID>
000D08B300000001

> <PUBCHEM_MMFF94_ENERGY>
26.397

> <PUBCHEM_FEATURE_SELFOVERLAP>
25.371

> <PUBCHEM_SHAPE_FINGERPRINT>
10922523 26 18410857676394655246
11543360 7 13182730421100113387
12032990 46 18412822520853353479
12251169 10 18337955584454498537
12507560 40 18261116283198802904
12932764 1 17530690879145566740
13296908 3 18343023315351561900
13533116 47 18040431101154191539
13675066 3 18410856538692441475
13690532 89 18343865515652216815
14115302 16 17131823232017728483
14252887 29 18412261727221447874
14289901 80 17749119858903106896
14866123 147 16600393309300796890
15219456 202 18261397771170886246
15536298 74 18408887342983739106
177051 138 18411698785673273035
17804303 29 18335697303635195614
17834074 16 18336265742652110966
17959699 21 10159703490765287927
19107657 162 18341611490665930714
193927 3 18059279999156369779
200 152 18187655682870666767
20374829 77 18270116958730764430
20510252 161 18334860541169787417
20559304 39 18341325587641371268
20645477 70 18130224844324256407
20871998 22 18343021103438233788
20871999 31 17917423280656370766
21065199 12 18260834808137650976
21267235 1 18341886407211794930
21501925 9 18343024346038419285
23402539 116 18260274036513162517
23463225 33 18342455945576132302
23532345 42 18343586248188372166
23559900 14 18335426781126068960
42 15 18407757040930479963
43471831 8 18059300971297371907
449060 50 18261399897317231360
5104073 3 18408886269268107825
5374978 207 18334299746899272728
69090 78 18259991448591646679
7364860 26 18268143163370408212
9709674 26 18411417271957973954

> <PUBCHEM_SHAPE_MULTIPOLES>
283.21
9.05
1.81
0.88
2.5
0.24
0.06
3.27
1.62
-0.98
-0.3
-0.54
-0.13
0.89

> <PUBCHEM_SHAPE_SELFOVERLAP>
560.729

> <PUBCHEM_SHAPE_VOLUME>
173.2

> <PUBCHEM_COORDINATE_TYPE>
2
5
10

$$$$

