93016
  -OEChem-07051212573D

 37 39  0     1  0  0  0  0  0999 V2000
   -2.6999   -1.2581    0.4035 O   0  0  0  0  0  0  0  0  0  0  0  0
   -0.3548    2.1199    0.9562 O   0  0  0  0  0  0  0  0  0  0  0  0
    2.6956    2.5414   -0.1285 O   0  0  0  0  0  0  0  0  0  0  0  0
   -4.6501   -0.1569   -0.1086 O   0  0  0  0  0  0  0  0  0  0  0  0
    1.3791    0.5230    0.3207 C   0  0  2  0  0  0  0  0  0  0  0  0
    1.6290   -0.8121   -0.4486 C   0  0  2  0  0  0  0  0  0  0  0  0
    0.0507    1.2187   -0.0786 C   0  0  1  0  0  0  0  0  0  0  0  0
    1.0525   -2.0695    0.2502 C   0  0  1  0  0  0  0  0  0  0  0  0
   -1.0991    0.2588   -0.4505 C   0  0  1  0  0  0  0  0  0  0  0  0
   -1.3002   -0.9075    0.5110 C   0  0  2  0  0  0  0  0  0  0  0  0
   -0.4888   -2.1545    0.1423 C   0  0  0  0  0  0  0  0  0  0  0  0
    2.5831    1.3249   -0.1616 C   0  0  0  0  0  0  0  0  0  0  0  0
    1.5944    0.4213    1.8518 C   0  0  0  0  0  0  0  0  0  0  0  0
    3.1174   -0.7741   -0.7002 C   0  0  0  0  0  0  0  0  0  0  0  0
   -2.4800    0.8258   -0.5010 C   0  0  0  0  0  0  0  0  0  0  0  0
    1.6308   -3.3737   -0.3241 C   0  0  0  0  0  0  0  0  0  0  0  0
    3.6674    0.4383   -0.6090 C   0  0  0  0  0  0  0  0  0  0  0  0
   -3.4345   -0.2073   -0.0561 C   0  0  0  0  0  0  0  0  0  0  0  0
   -2.8925    2.0416   -0.8687 C   0  0  0  0  0  0  0  0  0  0  0  0
    1.1891   -0.7628   -1.4553 H   0  0  0  0  0  0  0  0  0  0  0  0
    0.2250    1.8477   -0.9623 H   0  0  0  0  0  0  0  0  0  0  0  0
    1.3167   -2.0636    1.3134 H   0  0  0  0  0  0  0  0  0  0  0  0
   -0.9050   -0.1409   -1.4557 H   0  0  0  0  0  0  0  0  0  0  0  0
   -1.1341   -0.6331    1.5571 H   0  0  0  0  0  0  0  0  0  0  0  0
   -0.7646   -2.4558   -0.8787 H   0  0  0  0  0  0  0  0  0  0  0  0
   -0.8372   -2.9843    0.7732 H   0  0  0  0  0  0  0  0  0  0  0  0
    1.7064    1.4124    2.3077 H   0  0  0  0  0  0  0  0  0  0  0  0
    0.7656   -0.0772    2.3584 H   0  0  0  0  0  0  0  0  0  0  0  0
    2.5096   -0.1305    2.0981 H   0  0  0  0  0  0  0  0  0  0  0  0
    3.6822   -1.6279   -1.0497 H   0  0  0  0  0  0  0  0  0  0  0  0
    1.1353   -4.2466    0.1152 H   0  0  0  0  0  0  0  0  0  0  0  0
    1.5000   -3.4225   -1.4104 H   0  0  0  0  0  0  0  0  0  0  0  0
    2.6974   -3.4694   -0.0988 H   0  0  0  0  0  0  0  0  0  0  0  0
    4.6804    0.7330   -0.8168 H   0  0  0  0  0  0  0  0  0  0  0  0
    0.3330    2.8029    1.0337 H   0  0  0  0  0  0  0  0  0  0  0  0
   -2.1859    2.7940   -1.2022 H   0  0  0  0  0  0  0  0  0  0  0  0
   -3.9412    2.3191   -0.8536 H   0  0  0  0  0  0  0  0  0  0  0  0
  1 10  1  0  0  0  0
  1 18  1  0  0  0  0
  2  7  1  0  0  0  0
  2 35  1  0  0  0  0
  3 12  2  0  0  0  0
  4 18  2  0  0  0  0
  5  6  1  0  0  0  0
  5  7  1  0  0  0  0
  5 12  1  0  0  0  0
  5 13  1  0  0  0  0
  6  8  1  0  0  0  0
  6 14  1  0  0  0  0
  6 20  1  0  0  0  0
  7  9  1  0  0  0  0
  7 21  1  0  0  0  0
  8 11  1  0  0  0  0
  8 16  1  0  0  0  0
  8 22  1  0  0  0  0
  9 10  1  0  0  0  0
  9 15  1  0  0  0  0
  9 23  1  0  0  0  0
 10 11  1  0  0  0  0
 10 24  1  0  0  0  0
 11 25  1  0  0  0  0
 11 26  1  0  0  0  0
 12 17  1  0  0  0  0
 13 27  1  0  0  0  0
 13 28  1  0  0  0  0
 13 29  1  0  0  0  0
 14 17  2  0  0  0  0
 14 30  1  0  0  0  0
 15 18  1  0  0  0  0
 15 19  2  0  0  0  0
 16 31  1  0  0  0  0
 16 32  1  0  0  0  0
 16 33  1  0  0  0  0
 17 34  1  0  0  0  0
 19 36  1  0  0  0  0
 19 37  1  0  0  0  0
M  END
> <PUBCHEM_COMPOUND_CID>
93016

> <PUBCHEM_CONFORMER_RMSD>
0.6

> <PUBCHEM_CONFORMER_DIVERSEORDER>
1

> <PUBCHEM_MMFF94_PARTIAL_CHARGES>
20
1 -0.43
10 0.28
12 0.49
14 -0.29
15 -0.12
17 -0.14
18 0.71
19 -0.3
2 -0.68
3 -0.57
30 0.15
34 0.15
35 0.4
36 0.15
37 0.15
4 -0.57
5 0.06
6 0.14
7 0.28
9 0.14

> <PUBCHEM_EFFECTIVE_ROTOR_COUNT>
0.8

> <PUBCHEM_PHARMACOPHORE_FEATURES>
7
1 2 acceptor
1 2 donor
1 3 acceptor
1 4 acceptor
5 1 9 10 15 18 rings
5 5 6 12 14 17 rings
7 5 6 7 8 9 10 11 rings

> <PUBCHEM_HEAVY_ATOM_COUNT>
19

> <PUBCHEM_ATOM_DEF_STEREO_COUNT>
6

> <PUBCHEM_ATOM_UDEF_STEREO_COUNT>
0

> <PUBCHEM_BOND_DEF_STEREO_COUNT>
0

> <PUBCHEM_BOND_UDEF_STEREO_COUNT>
0

> <PUBCHEM_ISOTOPIC_ATOM_COUNT>
0

> <PUBCHEM_COMPONENT_COUNT>
1

> <PUBCHEM_CACTVS_TAUTO_COUNT>
3

> <PUBCHEM_CONFORMER_ID>
00016B5800000001

> <PUBCHEM_MMFF94_ENERGY>
62.6044

> <PUBCHEM_FEATURE_SELFOVERLAP>
35.58

> <PUBCHEM_SHAPE_FINGERPRINT>
10498660 4 18271813363316656821
10608611 8 18342177790830882509
10863032 1 18268708488081534863
10948715 1 18272089357756926356
10967382 1 18411135835624964750
10980938 120 18408608080136829323
11471102 20 18409728469331404598
12553582 1 17401758026583099454
12716301 132 17903934266070021834
13140716 1 18337394825150793290
13897977 150 18341050808555124117
14178342 30 18119819263974249888
14251745 187 18118971295184336811
15001771 113 17904477755278808394
15309172 13 18338226060257256715
16945 1 18336535131680287626
18186145 218 18335695061593942164
19049666 15 18339926038419949901
19591789 44 18337668603245727679
20510252 161 18337388232397164281
20645477 70 18260550060733412639
20905425 154 18263926724892172159
21501502 16 18267303329717584723
2334 1 18120935001772061874
23402539 116 18335708191799284316
23419403 2 16967221101700892026
23493267 7 17775279469520959634
23526113 38 18041552555774741666
23559900 14 18337396053880366934
238 59 18053137091926324925
25 1 18411698807069079294
2748010 2 18194109721061788402
2871803 45 18411703184036360567
3060560 45 18412829066663016398
3323516 105 18338509837041110447
353137 74 18335414712030486456
5262128 65 17825090760885092862
528886 8 18410573946797510362
53812653 166 18408042896515467146
7364860 26 18338799030316969758
81228 2 17327190848741587522
9709674 26 18341609360678825263

> <PUBCHEM_SHAPE_MULTIPOLES>
367.53
5.98
2.84
0.99
3.77
1.1
0.32
-1.02
-1.25
-1.28
-0.13
-0.3
-0.2
0.52

> <PUBCHEM_SHAPE_SELFOVERLAP>
794.403

> <PUBCHEM_SHAPE_VOLUME>
202.3

> <PUBCHEM_COORDINATE_TYPE>
2
5
10

$$$$

