442611
  -OEChem-07051212513D

 55 58  0     1  0  0  0  0  0999 V2000
    4.0514    1.1086    0.3813 O   0  0  0  0  0  0  0  0  0  0  0  0
    3.7580   -2.3212   -0.8916 O   0  0  0  0  0  0  0  0  0  0  0  0
    6.2713   -1.3488   -2.0634 O   0  0  0  0  0  0  0  0  0  0  0  0
    7.5989    0.4802   -0.2753 O   0  0  0  0  0  0  0  0  0  0  0  0
    5.1251    3.1055    1.9319 O   0  0  0  0  0  0  0  0  0  0  0  0
    1.7818   -2.1614    1.3026 O   0  0  0  0  0  0  0  0  0  0  0  0
    2.2675    1.9445   -1.0774 O   0  0  0  0  0  0  0  0  0  0  0  0
   -2.0902    0.2405   -0.3284 O   0  0  0  0  0  0  0  0  0  0  0  0
   -0.6549   -3.0089    1.6668 O   0  0  0  0  0  0  0  0  0  0  0  0
   -6.6147    2.3971   -0.4699 O   0  0  0  0  0  0  0  0  0  0  0  0
   -8.4055    0.2852   -0.7042 O   0  0  0  0  0  0  0  0  0  0  0  0
    4.1803   -0.9579   -0.9168 C   0  0  2  0  0  0  0  0  0  0  0  0
    5.7080   -0.9080   -0.8267 C   0  0  2  0  0  0  0  0  0  0  0  0
    3.5353   -0.2214    0.2674 C   0  0  2  0  0  0  0  0  0  0  0  0
    6.2033    0.5138   -0.5630 C   0  0  1  0  0  0  0  0  0  0  0  0
    5.4593    1.1374    0.6194 C   0  0  1  0  0  0  0  0  0  0  0  0
    2.0298   -0.1196    0.1194 C   0  0  0  0  0  0  0  0  0  0  0  0
    5.8581    2.5939    0.8337 C   0  0  0  0  0  0  0  0  0  0  0  0
    1.2052   -1.1104    0.6538 C   0  0  0  0  0  0  0  0  0  0  0  0
    1.4732    0.9700   -0.5520 C   0  0  0  0  0  0  0  0  0  0  0  0
   -0.1801   -1.0032    0.5110 C   0  0  0  0  0  0  0  0  0  0  0  0
    0.0890    1.0734   -0.6922 C   0  0  0  0  0  0  0  0  0  0  0  0
   -0.7378    0.0841   -0.1595 C   0  0  0  0  0  0  0  0  0  0  0  0
   -1.0753   -2.0307    1.0645 C   0  0  0  0  0  0  0  0  0  0  0  0
   -2.9366   -0.7307    0.1846 C   0  0  0  0  0  0  0  0  0  0  0  0
   -2.5216   -1.8178    0.8541 C   0  0  0  0  0  0  0  0  0  0  0  0
   -4.3697   -0.4610   -0.0477 C   0  0  0  0  0  0  0  0  0  0  0  0
   -4.8284    0.8544   -0.1519 C   0  0  0  0  0  0  0  0  0  0  0  0
   -5.2731   -1.5202   -0.1646 C   0  0  0  0  0  0  0  0  0  0  0  0
   -6.1820    1.1092   -0.3719 C   0  0  0  0  0  0  0  0  0  0  0  0
   -6.6268   -1.2654   -0.3842 C   0  0  0  0  0  0  0  0  0  0  0  0
   -7.0813    0.0493   -0.4880 C   0  0  0  0  0  0  0  0  0  0  0  0
   -7.0174    3.0395    0.7382 C   0  0  0  0  0  0  0  0  0  0  0  0
    3.8560   -0.5348   -1.8752 H   0  0  0  0  0  0  0  0  0  0  0  0
    6.0793   -1.5946   -0.0559 H   0  0  0  0  0  0  0  0  0  0  0  0
    3.7611   -0.7370    1.2103 H   0  0  0  0  0  0  0  0  0  0  0  0
    6.0689    1.1201   -1.4672 H   0  0  0  0  0  0  0  0  0  0  0  0
    5.6666    0.5896    1.5487 H   0  0  0  0  0  0  0  0  0  0  0  0
    5.6196    3.2073   -0.0416 H   0  0  0  0  0  0  0  0  0  0  0  0
    6.9245    2.6940    1.0546 H   0  0  0  0  0  0  0  0  0  0  0  0
    4.0412   -2.7086   -0.0457 H   0  0  0  0  0  0  0  0  0  0  0  0
    5.9284   -2.2425   -2.2355 H   0  0  0  0  0  0  0  0  0  0  0  0
    7.7268   -0.0474    0.5315 H   0  0  0  0  0  0  0  0  0  0  0  0
   -0.3427    1.9230   -1.2153 H   0  0  0  0  0  0  0  0  0  0  0  0
    4.1798    3.0082    1.7254 H   0  0  0  0  0  0  0  0  0  0  0  0
    1.1093   -2.7837    1.6178 H   0  0  0  0  0  0  0  0  0  0  0  0
    3.1868    1.6430   -1.1397 H   0  0  0  0  0  0  0  0  0  0  0  0
   -3.1858   -2.5614    1.2786 H   0  0  0  0  0  0  0  0  0  0  0  0
   -4.1457    1.6960   -0.0564 H   0  0  0  0  0  0  0  0  0  0  0  0
   -4.9562   -2.5583   -0.1124 H   0  0  0  0  0  0  0  0  0  0  0  0
   -7.3219   -2.0954   -0.4789 H   0  0  0  0  0  0  0  0  0  0  0  0
   -8.5387    1.2450   -0.7893 H   0  0  0  0  0  0  0  0  0  0  0  0
   -6.1692    3.1265    1.4246 H   0  0  0  0  0  0  0  0  0  0  0  0
   -7.8332    2.4896    1.2181 H   0  0  0  0  0  0  0  0  0  0  0  0
   -7.3711    4.0440    0.4905 H   0  0  0  0  0  0  0  0  0  0  0  0
  1 14  1  0  0  0  0
  1 16  1  0  0  0  0
  2 12  1  0  0  0  0
  2 41  1  0  0  0  0
  3 13  1  0  0  0  0
  3 42  1  0  0  0  0
  4 15  1  0  0  0  0
  4 43  1  0  0  0  0
  5 18  1  0  0  0  0
  5 45  1  0  0  0  0
  6 19  1  0  0  0  0
  6 46  1  0  0  0  0
  7 20  1  0  0  0  0
  7 47  1  0  0  0  0
  8 23  1  0  0  0  0
  8 25  1  0  0  0  0
  9 24  2  0  0  0  0
 10 30  1  0  0  0  0
 10 33  1  0  0  0  0
 11 32  1  0  0  0  0
 11 52  1  0  0  0  0
 12 13  1  0  0  0  0
 12 14  1  0  0  0  0
 12 34  1  0  0  0  0
 13 15  1  0  0  0  0
 13 35  1  0  0  0  0
 14 17  1  0  0  0  0
 14 36  1  0  0  0  0
 15 16  1  0  0  0  0
 15 37  1  0  0  0  0
 16 18  1  0  0  0  0
 16 38  1  0  0  0  0
 17 19  2  0  0  0  0
 17 20  1  0  0  0  0
 18 39  1  0  0  0  0
 18 40  1  0  0  0  0
 19 21  1  0  0  0  0
 20 22  2  0  0  0  0
 21 23  2  0  0  0  0
 21 24  1  0  0  0  0
 22 23  1  0  0  0  0
 22 44  1  0  0  0  0
 24 26  1  0  0  0  0
 25 26  2  0  0  0  0
 25 27  1  0  0  0  0
 26 48  1  0  0  0  0
 27 28  2  0  0  0  0
 27 29  1  0  0  0  0
 28 30  1  0  0  0  0
 28 49  1  0  0  0  0
 29 31  2  0  0  0  0
 29 50  1  0  0  0  0
 30 32  2  0  0  0  0
 31 32  1  0  0  0  0
 31 51  1  0  0  0  0
 33 53  1  0  0  0  0
 33 54  1  0  0  0  0
 33 55  1  0  0  0  0
M  END
> <PUBCHEM_COMPOUND_CID>
442611

> <PUBCHEM_CONFORMER_RMSD>
0.8

> <PUBCHEM_CONFORMER_DIVERSEORDER>
3
19
28
26
20
29
16
7
1
23
25
18
9
27
12
13
30
24
11
2
21
10
5
17
22
6
15
14
8
4

> <PUBCHEM_MMFF94_PARTIAL_CHARGES>
45
1 -0.56
10 -0.36
11 -0.53
12 0.28
13 0.28
14 0.42
15 0.28
16 0.28
17 -0.14
18 0.28
19 0.08
2 -0.68
20 0.08
21 0.09
22 -0.15
23 0.08
24 0.47
25 0.05
26 -0.14
27 0.03
28 -0.15
29 -0.15
3 -0.68
30 0.08
31 -0.15
32 0.08
33 0.28
4 -0.68
41 0.4
42 0.4
43 0.4
44 0.15
45 0.4
46 0.45
47 0.45
48 0.15
49 0.15
5 -0.68
50 0.15
51 0.15
52 0.45
6 -0.53
7 -0.53
8 -0.16
9 -0.57

> <PUBCHEM_EFFECTIVE_ROTOR_COUNT>
5.2

> <PUBCHEM_PHARMACOPHORE_FEATURES>
19
1 1 acceptor
1 10 acceptor
1 11 donor
1 2 acceptor
1 2 donor
1 3 acceptor
1 3 donor
1 4 acceptor
1 4 donor
1 5 acceptor
1 5 donor
1 6 donor
1 7 donor
1 8 acceptor
1 9 acceptor
6 1 12 13 14 15 16 rings
6 17 19 20 21 22 23 rings
6 27 28 29 30 31 32 rings
6 8 21 23 24 25 26 rings

> <PUBCHEM_HEAVY_ATOM_COUNT>
33

> <PUBCHEM_ATOM_DEF_STEREO_COUNT>
5

> <PUBCHEM_ATOM_UDEF_STEREO_COUNT>
0

> <PUBCHEM_BOND_DEF_STEREO_COUNT>
0

> <PUBCHEM_BOND_UDEF_STEREO_COUNT>
0

> <PUBCHEM_ISOTOPIC_ATOM_COUNT>
0

> <PUBCHEM_COMPONENT_COUNT>
1

> <PUBCHEM_CACTVS_TAUTO_COUNT>
69

> <PUBCHEM_CONFORMER_ID>
0006C0F300000003

> <PUBCHEM_MMFF94_ENERGY>
116.2232

> <PUBCHEM_FEATURE_SELFOVERLAP>
96.458

> <PUBCHEM_SHAPE_FINGERPRINT>
10 15 14476954593399343015
10835480 77 18334297539281145328
10906281 52 17846205657567476066
10951579 204 18268977860078608164
11007060 377 18412259515877981555
12236239 1 18334860541464809267
12838862 33 18059592259957290261
13782708 43 14201405997252355431
14294032 229 17346321547932042428
14394314 77 18339077211808859625
14556957 393 16153975872937822529
14933364 13 18334012796256036197
15131766 46 17026299699987816536
15183329 4 18187642548449563051
15475509 8 18272359923427041422
1577012 14 18341336699681432977
15849732 13 18259703384844648903
15927050 60 18202004304733985163
18681886 176 18335708208974034555
19319366 153 16128665149668238202
21033648 29 18272932682980284696
21130935 74 18343869917751674499
21298829 104 18343581863079913197
21424621 283 18343303673784469115
21792934 111 18059310841126397440
21792965 106 17273155694125214965
23516275 100 18266752285161931040
23559900 14 18337111168108981184
23569943 247 18122055666230829018
23576562 1 17487882424546983175
24771293 8 18343305825326389660
335352 9 18131068208218131526
3383291 50 17988076674256463955
34797466 226 17894345562191670671
350125 39 18131634504125305645
3633792 109 18040991864689547915
4073 2 18200872877060975675
4093350 32 18040716991431025222
5104073 3 17988927799503798051
5385378 56 17846218911794678851
5758199 1 18202001045300841987
6328613 192 17845926330121951652

> <PUBCHEM_SHAPE_MULTIPOLES>
614.56
22.08
2.84
1.21
13.63
0.95
-0.11
10.35
4.25
0.23
-1.15
-1.37
-0.15
1.81

> <PUBCHEM_SHAPE_SELFOVERLAP>
1351.836

> <PUBCHEM_SHAPE_VOLUME>
328.3

> <PUBCHEM_COORDINATE_TYPE>
2
5
10

$$$$

