13092596
  -OEChem-07051213112D

 50 51  0     1  0  0  0  0  0999 V2000
    6.8671    0.5000    0.0000 O   0  0  0  0  0  0  0  0  0  0  0  0
    5.1350    0.5000    0.0000 O   0  0  0  0  0  0  0  0  0  0  0  0
    5.1350   -0.5000    0.0000 O   0  0  0  0  0  0  0  0  0  0  0  0
    6.8671   -3.5000    0.0000 O   0  0  0  0  0  0  0  0  0  0  0  0
    5.1350    3.5000    0.0000 O   0  0  0  0  0  0  0  0  0  0  0  0
    3.4030    2.5000    0.0000 O   0  0  0  0  0  0  0  0  0  0  0  0
    2.5369    1.0000    0.0000 O   0  0  0  0  0  0  0  0  0  0  0  0
    5.1350   -2.5000    0.0000 N   0  0  0  0  0  0  0  0  0  0  0  0
    8.5991   -0.5000    0.0000 N   0  0  0  0  0  0  0  0  0  0  0  0
    6.8671    2.5000    0.0000 N   0  0  0  0  0  0  0  0  0  0  0  0
    6.8671   -0.5000    0.0000 C   0  0  1  0  0  0  0  0  0  0  0  0
    6.0010   -1.0000    0.0000 C   0  0  1  0  0  0  0  0  0  0  0  0
    7.7331   -1.0000    0.0000 C   0  0  2  0  0  0  0  0  0  0  0  0
    6.0010   -2.0000    0.0000 C   0  0  2  0  0  0  0  0  0  0  0  0
    6.8671   -2.5000    0.0000 C   0  0  1  0  0  0  0  0  0  0  0  0
    7.7331   -2.0000    0.0000 C   0  0  0  0  0  0  0  0  0  0  0  0
    6.0010    1.0000    0.0000 C   0  0  1  0  0  0  0  0  0  0  0  0
    6.0010    2.0000    0.0000 C   0  0  1  0  0  0  0  0  0  0  0  0
    5.1350    2.5000    0.0000 C   0  0  2  0  0  0  0  0  0  0  0  0
    4.2690    2.0000    0.0000 C   0  0  1  0  0  0  0  0  0  0  0  0
    4.2690    1.0000    0.0000 C   0  0  1  0  0  0  0  0  0  0  0  0
    3.4030    0.5000    0.0000 C   0  0  0  0  0  0  0  0  0  0  0  0
    5.1350   -3.5000    0.0000 C   0  0  0  0  0  0  0  0  0  0  0  0
    6.3301   -0.1900    0.0000 H   0  0  0  0  0  0  0  0  0  0  0  0
    5.4641   -1.3100    0.0000 H   0  0  0  0  0  0  0  0  0  0  0  0
    7.7331   -0.3800    0.0000 H   0  0  0  0  0  0  0  0  0  0  0  0
    5.4641   -1.6900    0.0000 H   0  0  0  0  0  0  0  0  0  0  0  0
    6.3301   -2.8100    0.0000 H   0  0  0  0  0  0  0  0  0  0  0  0
    7.9451   -2.5826    0.0000 H   0  0  0  0  0  0  0  0  0  0  0  0
    8.3437   -1.8923    0.0000 H   0  0  0  0  0  0  0  0  0  0  0  0
    6.5380    1.3100    0.0000 H   0  0  0  0  0  0  0  0  0  0  0  0
    6.5380    1.6900    0.0000 H   0  0  0  0  0  0  0  0  0  0  0  0
    5.6720    2.8100    0.0000 H   0  0  0  0  0  0  0  0  0  0  0  0
    4.2690    2.6200    0.0000 H   0  0  0  0  0  0  0  0  0  0  0  0
    4.2690    0.3800    0.0000 H   0  0  0  0  0  0  0  0  0  0  0  0
    4.5981   -2.1900    0.0000 H   0  0  0  0  0  0  0  0  0  0  0  0
    9.1360   -0.8100    0.0000 H   0  0  0  0  0  0  0  0  0  0  0  0
    8.5991    0.1200    0.0000 H   0  0  0  0  0  0  0  0  0  0  0  0
    4.5981   -0.8100    0.0000 H   0  0  0  0  0  0  0  0  0  0  0  0
    7.4040   -3.8100    0.0000 H   0  0  0  0  0  0  0  0  0  0  0  0
    3.0044    0.0251    0.0000 H   0  0  0  0  0  0  0  0  0  0  0  0
    3.8015    0.0251    0.0000 H   0  0  0  0  0  0  0  0  0  0  0  0
    6.8671    3.1200    0.0000 H   0  0  0  0  0  0  0  0  0  0  0  0
    7.4040    2.1900    0.0000 H   0  0  0  0  0  0  0  0  0  0  0  0
    4.5150   -3.5000    0.0000 H   0  0  0  0  0  0  0  0  0  0  0  0
    5.1350   -4.1200    0.0000 H   0  0  0  0  0  0  0  0  0  0  0  0
    5.7550   -3.5000    0.0000 H   0  0  0  0  0  0  0  0  0  0  0  0
    4.5981    3.8100    0.0000 H   0  0  0  0  0  0  0  0  0  0  0  0
    3.4030    3.1200    0.0000 H   0  0  0  0  0  0  0  0  0  0  0  0
    2.0000    0.6900    0.0000 H   0  0  0  0  0  0  0  0  0  0  0  0
 11  1  1  6  0  0  0
 17  1  1  1  0  0  0
  2 17  1  0  0  0  0
  2 21  1  0  0  0  0
 12  3  1  1  0  0  0
  3 39  1  0  0  0  0
 15  4  1  1  0  0  0
  4 40  1  0  0  0  0
 19  5  1  6  0  0  0
  5 48  1  0  0  0  0
 20  6  1  1  0  0  0
  6 49  1  0  0  0  0
  7 22  1  0  0  0  0
  7 50  1  0  0  0  0
 14  8  1  6  0  0  0
  8 23  1  0  0  0  0
  8 36  1  0  0  0  0
 13  9  1  1  0  0  0
  9 37  1  0  0  0  0
  9 38  1  0  0  0  0
 18 10  1  1  0  0  0
 10 43  1  0  0  0  0
 10 44  1  0  0  0  0
 11 12  1  0  0  0  0
 11 13  1  0  0  0  0
 11 24  1  0  0  0  0
 12 14  1  0  0  0  0
 12 25  1  0  0  0  0
 13 16  1  0  0  0  0
 13 26  1  0  0  0  0
 14 15  1  0  0  0  0
 14 27  1  0  0  0  0
 15 16  1  0  0  0  0
 15 28  1  0  0  0  0
 16 29  1  0  0  0  0
 16 30  1  0  0  0  0
 17 18  1  0  0  0  0
 17 31  1  0  0  0  0
 18 19  1  0  0  0  0
 18 32  1  0  0  0  0
 19 20  1  0  0  0  0
 19 33  1  0  0  0  0
 20 21  1  0  0  0  0
 20 34  1  0  0  0  0
 21 22  1  6  0  0  0
 21 35  1  0  0  0  0
 22 41  1  0  0  0  0
 22 42  1  0  0  0  0
 23 45  1  0  0  0  0
 23 46  1  0  0  0  0
 23 47  1  0  0  0  0
M  END
> <PUBCHEM_COMPOUND_CID>
13092596

> <PUBCHEM_COMPOUND_CANONICALIZED>
1

> <PUBCHEM_CACTVS_COMPLEXITY>
391

> <PUBCHEM_CACTVS_HBOND_ACCEPTOR>
10

> <PUBCHEM_CACTVS_HBOND_DONOR>
8

> <PUBCHEM_CACTVS_ROTATABLE_BOND>
4

> <PUBCHEM_CACTVS_SUBSKEYS>
AAADceBzOAAAAAAAAAAAAAAAAAAAAAAAAAA0QAAAAAAAAAAAAAAAHgAQCAAACDzxgAcCCALABgAAAAAAAAAAAAAAAAAAAIAIAAATEAIAgAAnQAAHEAAXAAHwcA8AAAAAAAAAAAACAQAUAACgAAAAAAAAAA==

> <PUBCHEM_IUPAC_OPENEYE_NAME>
(2R,3S,4R,5R,6S)-5-amino-6-[(1R,2R,3S,4R,6S)-6-amino-2,4-dihydroxy-3-(methylamino)cyclohexoxy]-2-(hydroxymethyl)tetrahydropyran-3,4-diol

> <PUBCHEM_IUPAC_CAS_NAME>
(2R,3S,4R,5R,6S)-5-amino-6-[(1R,2R,3S,4R,6S)-6-amino-2,4-dihydroxy-3-(methylamino)cyclohexyl]oxy-2-(hydroxymethyl)oxane-3,4-diol

> <PUBCHEM_IUPAC_NAME>
(2R,3S,4R,5R,6S)-5-amino-6-[(1R,2R,3S,4R,6S)-6-amino-2,4-dihydroxy-3-(methylamino)cyclohexyl]oxy-2-(hydroxymethyl)oxane-3,4-diol

> <PUBCHEM_IUPAC_SYSTEMATIC_NAME>
(2R,3S,4R,5R,6S)-5-azanyl-6-[(1R,2R,3S,4R,6S)-6-azanyl-3-(methylamino)-2,4-bis(oxidanyl)cyclohexyl]oxy-2-(hydroxymethyl)oxane-3,4-diol

> <PUBCHEM_IUPAC_TRADITIONAL_NAME>
(2R,3S,4R,5R,6S)-5-amino-6-[(1R,2R,3S,4R,6S)-6-amino-2,4-dihydroxy-3-(methylamino)cyclohexoxy]-2-methylol-tetrahydropyran-3,4-diol

> <PUBCHEM_IUPAC_INCHI>
InChI=1S/C13H27N3O7/c1-16-8-5(18)2-4(14)12(11(8)21)23-13-7(15)10(20)9(19)6(3-17)22-13/h4-13,16-21H,2-3,14-15H2,1H3/t4-,5+,6+,7+,8-,9+,10+,11+,12+,13+/m0/s1

> <PUBCHEM_IUPAC_INCHIKEY>
SHVSVMWFARPGSO-NVLSRCHWSA-N

> <PUBCHEM_XLOGP3_AA>
-4.6

> <PUBCHEM_EXACT_MASS>
337.1849

> <PUBCHEM_MOLECULAR_FORMULA>
C13H27N3O7

> <PUBCHEM_MOLECULAR_WEIGHT>
337.36938

> <PUBCHEM_OPENEYE_CAN_SMILES>
CNC1C(CC(C(C1O)OC2C(C(C(C(O2)CO)O)O)N)N)O

> <PUBCHEM_OPENEYE_ISO_SMILES>
CN[C@H]1[C@@H](C[C@@H]([C@H]([C@@H]1O)O[C@@H]2[C@@H]([C@H]([C@@H]([C@H](O2)CO)O)O)N)N)O

> <PUBCHEM_CACTVS_TPSA>
184

> <PUBCHEM_MONOISOTOPIC_WEIGHT>
337.1849

> <PUBCHEM_TOTAL_CHARGE>
0

> <PUBCHEM_HEAVY_ATOM_COUNT>
23

> <PUBCHEM_ATOM_DEF_STEREO_COUNT>
10

> <PUBCHEM_ATOM_UDEF_STEREO_COUNT>
0

> <PUBCHEM_BOND_DEF_STEREO_COUNT>
0

> <PUBCHEM_BOND_UDEF_STEREO_COUNT>
0

> <PUBCHEM_ISOTOPIC_ATOM_COUNT>
0

> <PUBCHEM_COMPONENT_COUNT>
1

> <PUBCHEM_CACTVS_TAUTO_COUNT>
1

> <PUBCHEM_COORDINATE_TYPE>
1
5
255

> <PUBCHEM_BONDANNOTATIONS>
11  1  6
17  1  5
18  10  5
21  22  6
12  3  5
15  4  5
19  5  6
20  6  5
14  8  6
13  9  5

$$$$

