160710
  -OEChem-07051213093D

 32 33  0     1  0  0  0  0  0999 V2000
   -0.3368    1.2235   -0.1102 O   0  0  0  0  0  0  0  0  0  0  0  0
    1.4490    2.5315   -0.7076 O   0  0  0  0  0  0  0  0  0  0  0  0
    0.8170   -0.6217    0.7570 C   0  0  2  0  0  0  0  0  0  0  0  0
   -0.5352    0.0823    0.7406 C   0  0  2  0  0  0  0  0  0  0  0  0
    1.7624    0.5807    0.7342 C   0  0  2  0  0  0  0  0  0  0  0  0
    1.0676   -1.5590   -0.4370 C   0  0  0  0  0  0  0  0  0  0  0  0
   -1.7142   -0.7320    0.2397 C   0  0  0  0  0  0  0  0  0  0  0  0
    2.5303   -2.0006   -0.5114 C   0  0  0  0  0  0  0  0  0  0  0  0
    0.9922    1.5632   -0.1201 C   0  0  0  0  0  0  0  0  0  0  0  0
    3.1264    0.3170    0.1827 C   0  0  0  0  0  0  0  0  0  0  0  0
   -3.0037    0.0903    0.2338 C   0  0  0  0  0  0  0  0  0  0  0  0
    3.4834   -0.8563   -0.3563 C   0  0  0  0  0  0  0  0  0  0  0  0
   -4.1813   -0.7225   -0.3035 C   0  0  0  0  0  0  0  0  0  0  0  0
   -5.4571    0.1035   -0.3419 C   0  0  0  0  0  0  0  0  0  0  0  0
    0.9375   -1.2010    1.6809 H   0  0  0  0  0  0  0  0  0  0  0  0
   -0.7641    0.4686    1.7431 H   0  0  0  0  0  0  0  0  0  0  0  0
    1.8455    1.0106    1.7400 H   0  0  0  0  0  0  0  0  0  0  0  0
    0.8023   -1.0577   -1.3774 H   0  0  0  0  0  0  0  0  0  0  0  0
    0.4301   -2.4478   -0.3628 H   0  0  0  0  0  0  0  0  0  0  0  0
   -1.8423   -1.6244    0.8634 H   0  0  0  0  0  0  0  0  0  0  0  0
   -1.5357   -1.0665   -0.7890 H   0  0  0  0  0  0  0  0  0  0  0  0
    2.7037   -2.4877   -1.4778 H   0  0  0  0  0  0  0  0  0  0  0  0
    2.7408   -2.7434    0.2668 H   0  0  0  0  0  0  0  0  0  0  0  0
    3.8665    1.1089    0.2582 H   0  0  0  0  0  0  0  0  0  0  0  0
   -3.2272    0.4317    1.2520 H   0  0  0  0  0  0  0  0  0  0  0  0
   -2.8765    0.9862   -0.3856 H   0  0  0  0  0  0  0  0  0  0  0  0
    4.5037   -0.9961   -0.7007 H   0  0  0  0  0  0  0  0  0  0  0  0
   -4.3417   -1.6057    0.3258 H   0  0  0  0  0  0  0  0  0  0  0  0
   -3.9570   -1.0810   -1.3149 H   0  0  0  0  0  0  0  0  0  0  0  0
   -5.3402    0.9765   -0.9919 H   0  0  0  0  0  0  0  0  0  0  0  0
   -5.7278    0.4539    0.6592 H   0  0  0  0  0  0  0  0  0  0  0  0
   -6.2865   -0.4979   -0.7271 H   0  0  0  0  0  0  0  0  0  0  0  0
  1  4  1  0  0  0  0
  1  9  1  0  0  0  0
  2  9  2  0  0  0  0
  3  4  1  0  0  0  0
  3  5  1  0  0  0  0
  3  6  1  0  0  0  0
  3 15  1  0  0  0  0
  4  7  1  0  0  0  0
  4 16  1  0  0  0  0
  5  9  1  0  0  0  0
  5 10  1  0  0  0  0
  5 17  1  0  0  0  0
  6  8  1  0  0  0  0
  6 18  1  0  0  0  0
  6 19  1  0  0  0  0
  7 11  1  0  0  0  0
  7 20  1  0  0  0  0
  7 21  1  0  0  0  0
  8 12  1  0  0  0  0
  8 22  1  0  0  0  0
  8 23  1  0  0  0  0
 10 12  2  0  0  0  0
 10 24  1  0  0  0  0
 11 13  1  0  0  0  0
 11 25  1  0  0  0  0
 11 26  1  0  0  0  0
 12 27  1  0  0  0  0
 13 14  1  0  0  0  0
 13 28  1  0  0  0  0
 13 29  1  0  0  0  0
 14 30  1  0  0  0  0
 14 31  1  0  0  0  0
 14 32  1  0  0  0  0
M  END
> <PUBCHEM_COMPOUND_CID>
160710

> <PUBCHEM_CONFORMER_RMSD>
0.6

> <PUBCHEM_CONFORMER_DIVERSEORDER>
1
8
2
4
5
3
7
6

> <PUBCHEM_MMFF94_PARTIAL_CHARGES>
10
1 -0.43
10 -0.29
12 -0.29
2 -0.57
24 0.15
27 0.15
4 0.28
5 0.2
8 0.14
9 0.66

> <PUBCHEM_EFFECTIVE_ROTOR_COUNT>
3.8

> <PUBCHEM_PHARMACOPHORE_FEATURES>
4
1 14 hydrophobe
1 2 acceptor
5 1 3 4 5 9 rings
6 3 5 6 8 10 12 rings

> <PUBCHEM_HEAVY_ATOM_COUNT>
14

> <PUBCHEM_ATOM_DEF_STEREO_COUNT>
3

> <PUBCHEM_ATOM_UDEF_STEREO_COUNT>
0

> <PUBCHEM_BOND_DEF_STEREO_COUNT>
0

> <PUBCHEM_BOND_UDEF_STEREO_COUNT>
0

> <PUBCHEM_ISOTOPIC_ATOM_COUNT>
0

> <PUBCHEM_COMPONENT_COUNT>
1

> <PUBCHEM_CACTVS_TAUTO_COUNT>
2

> <PUBCHEM_CONFORMER_ID>
000273C600000001

> <PUBCHEM_MMFF94_ENERGY>
9.9214

> <PUBCHEM_FEATURE_SELFOVERLAP>
20.446

> <PUBCHEM_SHAPE_FINGERPRINT>
10219947 1 18409164402855258898
11471102 20 18411700976011654955
116883 192 18338797935063321157
11806522 49 18187083961755536139
12346645 6 18337391539258081964
13571099 22 18335136492665281939
13836976 161 18187647977325187895
14115302 16 17894630314634720367
14251717 144 18335138695799070311
14344429 50 17775571913780859928
14350558 41 17967247602835091887
14911166 2 18272929423036907002
14993402 34 18408877426194279574
15477762 27 18408884040138044639
15757776 16 18409729607761852306
15848700 24 18410294743758175036
16945 1 18339344302353325202
18186145 218 18059864948169397931
200 152 17967255299906947459
20201158 50 18412541015801614699
20233049 118 17275393117891503677
20606313 2 18413388717786193836
20645477 70 18411983525257905223
20708731 107 18409726227384875724
20871998 22 18336547243314092954
20871999 31 18200586037564221045
21501502 16 18120927567346962666
21637258 2 16081362029506657822
221490 88 18268984285486500803
22289505 5 18342186612968041269
23402539 116 18268997647150532614
23402655 69 18408045121893855029
2748010 2 18266742570308202212
2871803 45 18338796822418891014
3060560 45 18409451388106660110
4047638 21 12031783682157704250
4463277 69 17676764400166913391
4990 188 18202002127495729755
522135 26 18408042918486104227
581208 293 18260833678629719714
7364860 26 18335421205878905560

> <PUBCHEM_SHAPE_MULTIPOLES>
276.37
7.7
1.88
0.82
12.03
0.49
-0.05
-1.63
1.3
-1.62
0.51
-0.13
0.03
0.12

> <PUBCHEM_SHAPE_SELFOVERLAP>
565.248

> <PUBCHEM_SHAPE_VOLUME>
160.1

> <PUBCHEM_COORDINATE_TYPE>
2
5
10

$$$$

