188955
  -OEChem-07051212452D

 33 36  0     1  0  0  0  0  0999 V2000
    3.3100   -0.2255    0.0000 P   0  0  3  0  0  0  0  0  0  0  0  0
    5.9883   -1.5303    0.0000 O   0  0  0  0  0  0  0  0  0  0  0  0
    4.1760    0.2745    0.0000 O   0  0  0  0  0  0  0  0  0  0  0  0
    3.3100   -1.2255    0.0000 O   0  0  0  0  0  0  0  0  0  0  0  0
    2.3100   -0.2255    0.0000 O   0  0  0  0  0  0  0  0  0  0  0  0
    2.8100    0.6405    0.0000 O   0  0  0  0  0  0  0  0  0  0  0  0
    7.5719   -0.7255    0.0000 N   0  0  0  0  0  0  0  0  0  0  0  0
    9.1017   -1.2255    0.0000 N   0  0  0  0  0  0  0  0  0  0  0  0
    7.9493    1.0577    0.0000 N   0  0  0  0  0  0  0  0  0  0  0  0
    9.6441    1.4149    0.0000 N   0  0  0  0  0  0  0  0  0  0  0  0
   10.8008    0.1257    0.0000 N   0  0  0  0  0  0  0  0  0  0  0  0
    5.0420   -0.2255    0.0000 C   0  0  2  0  0  0  0  0  0  0  0  0
    5.0420   -1.2255    0.0000 C   0  0  1  0  0  0  0  0  0  0  0  0
    5.9883    0.0792    0.0000 C   0  0  0  0  0  0  0  0  0  0  0  0
    6.5719   -0.7255    0.0000 C   0  0  1  0  0  0  0  0  0  0  0  0
    4.1760   -1.7255    0.0000 C   0  0  0  0  0  0  0  0  0  0  0  0
    8.1555    0.0792    0.0000 C   0  0  0  0  0  0  0  0  0  0  0  0
    8.1555   -1.5303    0.0000 C   0  0  0  0  0  0  0  0  0  0  0  0
    9.1060   -0.2315    0.0000 C   0  0  0  0  0  0  0  0  0  0  0  0
    9.8503    0.4364    0.0000 C   0  0  0  0  0  0  0  0  0  0  0  0
    8.6936    1.7255    0.0000 C   0  0  0  0  0  0  0  0  0  0  0  0
    5.1320    0.6197    0.0000 H   0  0  0  0  0  0  0  0  0  0  0  0
    5.1320   -2.0708    0.0000 H   0  0  0  0  0  0  0  0  0  0  0  0
    6.5256    0.3884    0.0000 H   0  0  0  0  0  0  0  0  0  0  0  0
    5.7372    0.6461    0.0000 H   0  0  0  0  0  0  0  0  0  0  0  0
    6.8536   -1.2778    0.0000 H   0  0  0  0  0  0  0  0  0  0  0  0
    3.7775   -2.2005    0.0000 H   0  0  0  0  0  0  0  0  0  0  0  0
    4.5746   -2.2005    0.0000 H   0  0  0  0  0  0  0  0  0  0  0  0
    7.9629   -2.1196    0.0000 H   0  0  0  0  0  0  0  0  0  0  0  0
    2.0000   -0.7625    0.0000 H   0  0  0  0  0  0  0  0  0  0  0  0
    8.5657    2.3322    0.0000 H   0  0  0  0  0  0  0  0  0  0  0  0
   11.2623    0.5398    0.0000 H   0  0  0  0  0  0  0  0  0  0  0  0
   10.9287   -0.4810    0.0000 H   0  0  0  0  0  0  0  0  0  0  0  0
  1  3  1  0  0  0  0
  1  4  1  0  0  0  0
  1  5  1  0  0  0  0
  1  6  2  0  0  0  0
  2 13  1  0  0  0  0
  2 15  1  0  0  0  0
  3 12  1  0  0  0  0
  4 16  1  0  0  0  0
  5 30  1  0  0  0  0
 15  7  1  6  0  0  0
  7 17  1  0  0  0  0
  7 18  1  0  0  0  0
  8 18  2  0  0  0  0
  8 19  1  0  0  0  0
  9 17  1  0  0  0  0
  9 21  2  0  0  0  0
 10 20  2  0  0  0  0
 10 21  1  0  0  0  0
 11 20  1  0  0  0  0
 11 32  1  0  0  0  0
 11 33  1  0  0  0  0
 12 13  1  0  0  0  0
 12 14  1  0  0  0  0
 12 22  1  6  0  0  0
 13 16  1  0  0  0  0
 13 23  1  1  0  0  0
 14 15  1  0  0  0  0
 14 24  1  0  0  0  0
 14 25  1  0  0  0  0
 15 26  1  0  0  0  0
 16 27  1  0  0  0  0
 16 28  1  0  0  0  0
 17 19  2  0  0  0  0
 18 29  1  0  0  0  0
 19 20  1  0  0  0  0
 21 31  1  0  0  0  0
M  END
> <PUBCHEM_COMPOUND_CID>
188955

> <PUBCHEM_COMPOUND_CANONICALIZED>
1

> <PUBCHEM_CACTVS_COMPLEXITY>
469

> <PUBCHEM_CACTVS_HBOND_ACCEPTOR>
9

> <PUBCHEM_CACTVS_HBOND_DONOR>
2

> <PUBCHEM_CACTVS_ROTATABLE_BOND>
1

> <PUBCHEM_CACTVS_SUBSKEYS>
AAADccBzuAIAAAAAAAAAAAAAAAAAAWJAAAAsSAAAAAAAAFgB+AAAHgAQCCAACBzhlwYF8L9MFRCgQQZhZICAgC0REKABUCAoVBCBSAJAyEAeBAgPAALCACCwMAIAAAAAAAAAAAAAAAAAAAAAAAAAAAAAAA==

> <PUBCHEM_IUPAC_OPENEYE_NAME>
9-[(4aR,6R,7aS)-2-hydroxy-2-oxo-4a,6,7,7a-tetrahydro-4H-furo[3,2-d][1,3,2]dioxaphosphinin-6-yl]purin-6-amine

> <PUBCHEM_IUPAC_CAS_NAME>
9-[(4aR,6R,7aS)-2-hydroxy-2-oxo-4a,6,7,7a-tetrahydro-4H-furo[3,2-d][1,3,2]dioxaphosphorin-6-yl]-6-purinamine

> <PUBCHEM_IUPAC_NAME>
9-[(4aR,6R,7aS)-2-hydroxy-2-oxo-4a,6,7,7a-tetrahydro-4H-furo[3,2-d][1,3,2]dioxaphosphinin-6-yl]purin-6-amine

> <PUBCHEM_IUPAC_SYSTEMATIC_NAME>
9-[(4aR,6R,7aS)-2-oxidanyl-2-oxidanylidene-4a,6,7,7a-tetrahydro-4H-furo[3,2-d][1,3,2]dioxaphosphinin-6-yl]purin-6-amine

> <PUBCHEM_IUPAC_TRADITIONAL_NAME>
[9-[(4aR,6R,7aS)-2-hydroxy-2-keto-4a,6,7,7a-tetrahydro-4H-furo[3,2-d][1,3,2]dioxaphosphorin-6-yl]purin-6-yl]amine

> <PUBCHEM_IUPAC_INCHI>
InChI=1S/C10H12N5O5P/c11-9-8-10(13-3-12-9)15(4-14-8)7-1-5-6(19-7)2-18-21(16,17)20-5/h3-7H,1-2H2,(H,16,17)(H2,11,12,13)/t5-,6+,7+/m0/s1

> <PUBCHEM_IUPAC_INCHIKEY>
MKMZAENVDZADSW-RRKCRQDMSA-N

> <PUBCHEM_XLOGP3_AA>
-1.6

> <PUBCHEM_EXACT_MASS>
313.057605

> <PUBCHEM_MOLECULAR_FORMULA>
C10H12N5O5P

> <PUBCHEM_MOLECULAR_WEIGHT>
313.206542

> <PUBCHEM_OPENEYE_CAN_SMILES>
C1C2C(COP(=O)(O2)O)OC1N3C=NC4=C3N=CN=C4N

> <PUBCHEM_OPENEYE_ISO_SMILES>
C1[C@H]2[C@@H](COP(=O)(O2)O)O[C@H]1N3C=NC4=C3N=CN=C4N

> <PUBCHEM_CACTVS_TPSA>
135

> <PUBCHEM_MONOISOTOPIC_WEIGHT>
313.057605

> <PUBCHEM_TOTAL_CHARGE>
0

> <PUBCHEM_HEAVY_ATOM_COUNT>
21

> <PUBCHEM_ATOM_DEF_STEREO_COUNT>
3

> <PUBCHEM_ATOM_UDEF_STEREO_COUNT>
0

> <PUBCHEM_BOND_DEF_STEREO_COUNT>
0

> <PUBCHEM_BOND_UDEF_STEREO_COUNT>
0

> <PUBCHEM_ISOTOPIC_ATOM_COUNT>
0

> <PUBCHEM_COMPONENT_COUNT>
1

> <PUBCHEM_CACTVS_TAUTO_COUNT>
3

> <PUBCHEM_COORDINATE_TYPE>
1
5
255

> <PUBCHEM_BONDANNOTATIONS>
10  20  8
10  21  8
12  22  6
13  23  5
17  19  8
19  20  8
15  7  6
7  17  8
7  18  8
8  18  8
8  19  8
9  17  8
9  21  8

$$$$

