442202
  -OEChem-07051212573D

 39 41  0     1  0  0  0  0  0999 V2000
   -3.6133   -0.0263    0.0854 O   0  0  0  0  0  0  0  0  0  0  0  0
   -2.6369   -2.0876    0.2407 O   0  0  0  0  0  0  0  0  0  0  0  0
    0.0437   -0.5319    0.1535 C   0  0  1  0  0  0  0  0  0  0  0  0
    1.0610    0.5782   -0.3092 C   0  0  2  0  0  0  0  0  0  0  0  0
    2.5742    0.2996    0.0331 C   0  0  0  0  0  0  0  0  0  0  0  0
   -1.3199   -0.1845   -0.5193 C   0  0  2  0  0  0  0  0  0  0  0  0
    0.4905   -1.9406   -0.3422 C   0  0  0  0  0  0  0  0  0  0  0  0
    2.8603   -1.2206    0.1270 C   0  0  0  0  0  0  0  0  0  0  0  0
    0.5848    2.0082    0.0746 C   0  0  0  0  0  0  0  0  0  0  0  0
    1.9517   -2.0370   -0.7757 C   0  0  0  0  0  0  0  0  0  0  0  0
   -0.0916   -0.5671    1.6965 C   0  0  0  0  0  0  0  0  0  0  0  0
   -1.7433    1.2304   -0.3265 C   0  0  0  0  0  0  0  0  0  0  0  0
    3.4443    0.8919   -1.1058 C   0  0  0  0  0  0  0  0  0  0  0  0
    3.0636    0.9580    1.3403 C   0  0  0  0  0  0  0  0  0  0  0  0
   -0.8950    2.2287   -0.0575 C   0  0  0  0  0  0  0  0  0  0  0  0
   -2.5564   -0.8936   -0.0101 C   0  0  0  0  0  0  0  0  0  0  0  0
   -3.2177    1.2942   -0.3047 C   0  0  0  0  0  0  0  0  0  0  0  0
    1.0004    0.5517   -1.4107 H   0  0  0  0  0  0  0  0  0  0  0  0
   -1.2733   -0.3738   -1.6010 H   0  0  0  0  0  0  0  0  0  0  0  0
   -0.1211   -2.2738   -1.1903 H   0  0  0  0  0  0  0  0  0  0  0  0
    0.3109   -2.6845    0.4453 H   0  0  0  0  0  0  0  0  0  0  0  0
    2.7353   -1.5742    1.1581 H   0  0  0  0  0  0  0  0  0  0  0  0
    3.9070   -1.4281   -0.1292 H   0  0  0  0  0  0  0  0  0  0  0  0
    1.1055    2.7435   -0.5494 H   0  0  0  0  0  0  0  0  0  0  0  0
    0.8362    2.2357    1.1157 H   0  0  0  0  0  0  0  0  0  0  0  0
    2.2612   -3.0887   -0.7621 H   0  0  0  0  0  0  0  0  0  0  0  0
    2.0526   -1.7001   -1.8143 H   0  0  0  0  0  0  0  0  0  0  0  0
   -0.8376   -1.3018    2.0178 H   0  0  0  0  0  0  0  0  0  0  0  0
    0.8443   -0.8583    2.1790 H   0  0  0  0  0  0  0  0  0  0  0  0
   -0.3917    0.3977    2.1153 H   0  0  0  0  0  0  0  0  0  0  0  0
    4.5119    0.7339   -0.9132 H   0  0  0  0  0  0  0  0  0  0  0  0
    3.2137    0.4279   -2.0710 H   0  0  0  0  0  0  0  0  0  0  0  0
    3.2868    1.9710   -1.2087 H   0  0  0  0  0  0  0  0  0  0  0  0
    2.4427    0.6835    2.1969 H   0  0  0  0  0  0  0  0  0  0  0  0
    4.0904    0.6489    1.5709 H   0  0  0  0  0  0  0  0  0  0  0  0
    3.0741    2.0510    1.2674 H   0  0  0  0  0  0  0  0  0  0  0  0
   -1.2748    3.2274    0.1367 H   0  0  0  0  0  0  0  0  0  0  0  0
   -3.6034    2.0089    0.4277 H   0  0  0  0  0  0  0  0  0  0  0  0
   -3.6377    1.5062   -1.2923 H   0  0  0  0  0  0  0  0  0  0  0  0
  1 16  1  0  0  0  0
  1 17  1  0  0  0  0
  2 16  2  0  0  0  0
  3  4  1  0  0  0  0
  3  6  1  0  0  0  0
  3  7  1  0  0  0  0
  3 11  1  0  0  0  0
  4  5  1  0  0  0  0
  4  9  1  0  0  0  0
  4 18  1  0  0  0  0
  5  8  1  0  0  0  0
  5 13  1  0  0  0  0
  5 14  1  0  0  0  0
  6 12  1  0  0  0  0
  6 16  1  0  0  0  0
  6 19  1  0  0  0  0
  7 10  1  0  0  0  0
  7 20  1  0  0  0  0
  7 21  1  0  0  0  0
  8 10  1  0  0  0  0
  8 22  1  0  0  0  0
  8 23  1  0  0  0  0
  9 15  1  0  0  0  0
  9 24  1  0  0  0  0
  9 25  1  0  0  0  0
 10 26  1  0  0  0  0
 10 27  1  0  0  0  0
 11 28  1  0  0  0  0
 11 29  1  0  0  0  0
 11 30  1  0  0  0  0
 12 15  2  0  0  0  0
 12 17  1  0  0  0  0
 13 31  1  0  0  0  0
 13 32  1  0  0  0  0
 13 33  1  0  0  0  0
 14 34  1  0  0  0  0
 14 35  1  0  0  0  0
 14 36  1  0  0  0  0
 15 37  1  0  0  0  0
 17 38  1  0  0  0  0
 17 39  1  0  0  0  0
M  END
> <PUBCHEM_COMPOUND_CID>
442202

> <PUBCHEM_CONFORMER_RMSD>
0.6

> <PUBCHEM_CONFORMER_DIVERSEORDER>
1

> <PUBCHEM_MMFF94_PARTIAL_CHARGES>
9
1 -0.43
12 -0.28
15 -0.29
16 0.66
17 0.42
2 -0.57
37 0.15
6 0.2
9 0.14

> <PUBCHEM_EFFECTIVE_ROTOR_COUNT>
1.4

> <PUBCHEM_PHARMACOPHORE_FEATURES>
5
1 2 acceptor
3 5 13 14 hydrophobe
5 1 6 12 16 17 rings
6 3 4 5 7 8 10 rings
6 3 4 6 9 12 15 rings

> <PUBCHEM_HEAVY_ATOM_COUNT>
17

> <PUBCHEM_ATOM_DEF_STEREO_COUNT>
3

> <PUBCHEM_ATOM_UDEF_STEREO_COUNT>
0

> <PUBCHEM_BOND_DEF_STEREO_COUNT>
0

> <PUBCHEM_BOND_UDEF_STEREO_COUNT>
0

> <PUBCHEM_ISOTOPIC_ATOM_COUNT>
0

> <PUBCHEM_COMPONENT_COUNT>
1

> <PUBCHEM_CACTVS_TAUTO_COUNT>
2

> <PUBCHEM_CONFORMER_ID>
0006BF5A00000001

> <PUBCHEM_MMFF94_ENERGY>
52.1162

> <PUBCHEM_FEATURE_SELFOVERLAP>
25.469

> <PUBCHEM_SHAPE_FINGERPRINT>
10062212 137 18342184362020049402
10608611 8 18337397144195704013
10863032 1 18335701662831809150
10922523 26 18338518646003015383
10967382 1 18410292518901831759
11132069 177 18341620312481212313
12382932 28 18409736161739066593
12423570 1 12528664943912153297
12491281 212 18263350542186709889
13140716 1 18337955704634591755
13172582 1 18337682901396960752
13221675 6 18412266155433040933
13380535 21 18336818788326187927
13897977 150 18408047316063194909
14178342 30 18408612443612359017
15219456 202 18335987553034945555
15536298 74 18334577992255670828
15775835 57 18259703393698275004
16945 1 18338802208333896693
17804303 29 18192433189405034806
18186145 218 17749103366286647440
19591789 44 16468943876390088277
20525323 117 18337122210585787655
20588541 1 18410293631456798821
21267235 1 18339350963552611295
21501502 16 18265608960666044436
22344851 341 18198631123075120842
22721475 48 18409445912138979829
22802520 49 18189616205748337234
2334 1 18410293609707694766
23402539 116 18342468023525263574
23419403 2 14816801671333631449
23463225 33 18341615953321255588
23493267 7 17845923049172768256
23557571 272 18335698321421294310
23559900 14 18409450319503412780
2748010 2 18409448115330602286
34934 24 18410304609435418477
353137 74 18270121360649976801
5104073 3 18410574028512627131
528886 8 18408327682906486795
53812653 166 18261116248823207800
7364860 26 18115875281310655102
8809292 202 18341609377462964562
9709674 26 18335421326137899079

> <PUBCHEM_SHAPE_MULTIPOLES>
338.11
5.37
2.32
1.05
0.63
0.18
0.31
-0.26
-0.35
0.12
-0.19
-0.59
-0.01
0.39

> <PUBCHEM_SHAPE_SELFOVERLAP>
719.194

> <PUBCHEM_SHAPE_VOLUME>
188.7

> <PUBCHEM_COORDINATE_TYPE>
2
5
10

$$$$

