94775
  -OEChem-07051212523D

 26 27  0     0  0  0  0  0  0999 V2000
   -5.2906   -1.5094   -0.0008 Cl  0  0  0  0  0  0  0  0  0  0  0  0
    5.2781   -1.5174   -0.0007 Cl  0  0  0  0  0  0  0  0  0  0  0  0
   -0.0041    1.2543    0.0007 C   0  0  0  0  0  0  0  0  0  0  0  0
   -1.2928    0.5797    0.0006 C   0  0  0  0  0  0  0  0  0  0  0  0
    1.3255    0.5557    0.0000 C   0  0  0  0  0  0  0  0  0  0  0  0
   -1.9108    0.2553    1.2084 C   0  0  0  0  0  0  0  0  0  0  0  0
    1.9011    0.2537   -1.2080 C   0  0  0  0  0  0  0  0  0  0  0  0
   -1.9111    0.2579   -1.2075 C   0  0  0  0  0  0  0  0  0  0  0  0
    1.9014    0.2536    1.2079 C   0  0  0  0  0  0  0  0  0  0  0  0
   -3.1470   -0.3907    1.2078 C   0  0  0  0  0  0  0  0  0  0  0  0
    3.1363   -0.3943   -1.2081 C   0  0  0  0  0  0  0  0  0  0  0  0
   -3.1474   -0.3882   -1.2081 C   0  0  0  0  0  0  0  0  0  0  0  0
    3.1367   -0.3943    1.2078 C   0  0  0  0  0  0  0  0  0  0  0  0
   -3.7653   -0.7126   -0.0004 C   0  0  0  0  0  0  0  0  0  0  0  0
    3.7541   -0.7183   -0.0003 C   0  0  0  0  0  0  0  0  0  0  0  0
    0.0358    2.6150    0.0007 C   0  0  0  0  0  0  0  0  0  0  0  0
   -1.4428    0.4993    2.1591 H   0  0  0  0  0  0  0  0  0  0  0  0
    1.4272    0.5025   -2.1528 H   0  0  0  0  0  0  0  0  0  0  0  0
   -1.4435    0.5040   -2.1580 H   0  0  0  0  0  0  0  0  0  0  0  0
    1.4278    0.5025    2.1528 H   0  0  0  0  0  0  0  0  0  0  0  0
   -3.6169   -0.6372    2.1565 H   0  0  0  0  0  0  0  0  0  0  0  0
    3.6058   -0.6405   -2.1571 H   0  0  0  0  0  0  0  0  0  0  0  0
   -3.6176   -0.6327   -2.1572 H   0  0  0  0  0  0  0  0  0  0  0  0
    3.6064   -0.6405    2.1567 H   0  0  0  0  0  0  0  0  0  0  0  0
    0.9751    3.1603    0.0005 H   0  0  0  0  0  0  0  0  0  0  0  0
   -0.8750    3.2069    0.0009 H   0  0  0  0  0  0  0  0  0  0  0  0
  1 14  1  0  0  0  0
  2 15  1  0  0  0  0
  3  4  1  0  0  0  0
  3  5  1  0  0  0  0
  3 16  2  0  0  0  0
  4  6  2  0  0  0  0
  4  8  1  0  0  0  0
  5  7  2  0  0  0  0
  5  9  1  0  0  0  0
  6 10  1  0  0  0  0
  6 17  1  0  0  0  0
  7 11  1  0  0  0  0
  7 18  1  0  0  0  0
  8 12  2  0  0  0  0
  8 19  1  0  0  0  0
  9 13  2  0  0  0  0
  9 20  1  0  0  0  0
 10 14  2  0  0  0  0
 10 21  1  0  0  0  0
 11 15  2  0  0  0  0
 11 22  1  0  0  0  0
 12 14  1  0  0  0  0
 12 23  1  0  0  0  0
 13 15  1  0  0  0  0
 13 24  1  0  0  0  0
 16 25  1  0  0  0  0
 16 26  1  0  0  0  0
M  END
> <PUBCHEM_COMPOUND_CID>
94775

> <PUBCHEM_CONFORMER_RMSD>
0.6

> <PUBCHEM_CONFORMER_DIVERSEORDER>
1
2

> <PUBCHEM_MMFF94_PARTIAL_CHARGES>
26
1 -0.18
10 -0.15
11 -0.15
12 -0.15
13 -0.15
14 0.18
15 0.18
16 -0.3
17 0.15
18 0.15
19 0.15
2 -0.18
20 0.15
21 0.15
22 0.15
23 0.15
24 0.15
25 0.15
26 0.15
3 -0.06
4 0.03
5 0.03
6 -0.15
7 -0.15
8 -0.15
9 -0.15

> <PUBCHEM_EFFECTIVE_ROTOR_COUNT>
2

> <PUBCHEM_PHARMACOPHORE_FEATURES>
3
1 16 hydrophobe
6 4 6 8 10 12 14 rings
6 5 7 9 11 13 15 rings

> <PUBCHEM_HEAVY_ATOM_COUNT>
16

> <PUBCHEM_ATOM_DEF_STEREO_COUNT>
0

> <PUBCHEM_ATOM_UDEF_STEREO_COUNT>
0

> <PUBCHEM_BOND_DEF_STEREO_COUNT>
0

> <PUBCHEM_BOND_UDEF_STEREO_COUNT>
0

> <PUBCHEM_ISOTOPIC_ATOM_COUNT>
0

> <PUBCHEM_COMPONENT_COUNT>
1

> <PUBCHEM_CACTVS_TAUTO_COUNT>
1

> <PUBCHEM_CONFORMER_ID>
0001723700000001

> <PUBCHEM_MMFF94_ENERGY>
51.546

> <PUBCHEM_FEATURE_SELFOVERLAP>
15.223

> <PUBCHEM_SHAPE_FINGERPRINT>
10498660 4 11743847945374353487
11046707 91 18335420205267089250
11132069 177 5761654810855219033
11543360 7 15769771342773495542
12251169 10 15646773383605391353
12363563 72 18411979161011761861
12507560 40 14562801201041226176
12633257 1 15647059239422623515
12707595 3 18271527515731104585
12892183 10 15647323190937865834
13288520 33 18337389443699013974
13296908 3 18411146830715173973
13581323 91 16732975410585152329
13583140 156 15430323589043914177
13675066 3 17313380102892478711
14178342 30 17749936886395074033
1420 369 18336543906256730158
14252887 29 18261678086395754968
14341114 176 15430028868710023510
14341114 328 15068625941789375882
14576447 43 17418378008536433794
15188451 53 17313674746355535671
15209289 33 17749105612660551510
15375462 189 17530968033543569670
16752209 62 17917439756272302289
17804303 29 16371546194349092733
1798214 20 17704077299956485130
1813 80 18188197763024550580
18186145 218 16487249976204039976
19050596 39 15647060334617951126
19784866 240 18411697673651543143
19862831 5 16558746823632844504
200 152 17917990598654783226
20112054 13 7709456125948284450
20361792 2 18410013225763609565
204376 136 8718825388153794109
20645477 70 18201158750125979519
20671657 53 18341611495050685457
20871999 31 16056884641324244023
21065199 12 15647326476577330242
21119208 17 15770056124827648779
21637258 2 18410862061493337478
21713013 43 16988559070236751595
21731228 192 5400796167949834828
22646028 28 18410573985156966243
22926399 37 11384119643935887351
231179 274 9871750195848857198
23402539 116 18270679882934993732
23402655 69 14405190590013580598
23403322 49 18272936058761522258
23559900 14 16630241398950570804
25 1 12247682703246113940
26918003 58 17312825974464455123
2838139 119 11167065023801868470
2916195 48 10519692380838458526
3082319 5 15770059440542251872
3286 77 18270966735253002565
4028521 119 12895357689793444231
42 15 17095518479197252591
465052 167 18339633426946981871
5104073 3 15575290791231421918
5374978 207 15791726374278276107
7097593 13 15357695318496044196
7970288 3 18410572889941130759
81228 2 18193839468581992913
83771 10 18334011700712334472
93112 12 15770055021020936779

> <PUBCHEM_SHAPE_MULTIPOLES>
333.01
9.68
1.61
1.34
0.14
0.75
0
-7.41
0
-0.02
0
0
-0.04
0

> <PUBCHEM_SHAPE_SELFOVERLAP>
700.952

> <PUBCHEM_SHAPE_VOLUME>
180

> <PUBCHEM_COORDINATE_TYPE>
2
5
10

$$$$

