28935
  -OEChem-07051213133D

 24 24  0     0  0  0  0  0  0999 V2000
   -5.0929    0.2094   -0.2210 I   0  0  0  0  0  0  0  0  0  0  0  0
   -0.6007   -3.2002    0.2559 Cl  0  0  0  0  0  0  0  0  0  0  0  0
   -2.6277    2.6963   -0.0707 Cl  0  0  0  0  0  0  0  0  0  0  0  0
    2.1658    0.7035   -2.1364 S   0  0  0  0  0  0  0  0  0  0  0  0
    2.2421    0.2553   -0.2398 P   0  0  0  0  0  0  0  0  0  0  0  0
    1.0676   -0.7019    0.3371 O   0  0  0  0  0  0  0  0  0  0  0  0
    3.5700   -0.5520    0.2473 O   0  0  0  0  0  0  0  0  0  0  0  0
    2.2253    1.4897    0.8201 O   0  0  0  0  0  0  0  0  0  0  0  0
   -0.2807   -0.4997    0.2149 C   0  0  0  0  0  0  0  0  0  0  0  0
   -1.1660   -1.5726    0.1653 C   0  0  0  0  0  0  0  0  0  0  0  0
   -0.7535    0.8076    0.1405 C   0  0  0  0  0  0  0  0  0  0  0  0
   -2.1226    1.0436    0.0155 C   0  0  0  0  0  0  0  0  0  0  0  0
   -2.5351   -1.3367    0.0404 C   0  0  0  0  0  0  0  0  0  0  0  0
   -3.0133   -0.0286   -0.0344 C   0  0  0  0  0  0  0  0  0  0  0  0
    3.7897   -1.8811   -0.1949 C   0  0  0  0  0  0  0  0  0  0  0  0
    3.1319    2.5675    0.6603 C   0  0  0  0  0  0  0  0  0  0  0  0
   -0.0824    1.6575    0.1858 H   0  0  0  0  0  0  0  0  0  0  0  0
   -3.2209   -2.1807    0.0023 H   0  0  0  0  0  0  0  0  0  0  0  0
    4.7139   -2.2498    0.2569 H   0  0  0  0  0  0  0  0  0  0  0  0
    3.8938   -1.9060   -1.2821 H   0  0  0  0  0  0  0  0  0  0  0  0
    2.9633   -2.5250    0.1161 H   0  0  0  0  0  0  0  0  0  0  0  0
    3.1718    3.1308    1.5958 H   0  0  0  0  0  0  0  0  0  0  0  0
    2.7834    3.2295   -0.1361 H   0  0  0  0  0  0  0  0  0  0  0  0
    4.1331    2.1948    0.4280 H   0  0  0  0  0  0  0  0  0  0  0  0
  1 14  1  0  0  0  0
  2 10  1  0  0  0  0
  3 12  1  0  0  0  0
  4  5  2  0  0  0  0
  5  6  1  0  0  0  0
  5  7  1  0  0  0  0
  5  8  1  0  0  0  0
  6  9  1  0  0  0  0
  7 15  1  0  0  0  0
  8 16  1  0  0  0  0
  9 10  1  0  0  0  0
  9 11  2  0  0  0  0
 10 13  2  0  0  0  0
 11 12  1  0  0  0  0
 11 17  1  0  0  0  0
 12 14  2  0  0  0  0
 13 14  1  0  0  0  0
 13 18  1  0  0  0  0
 15 19  1  0  0  0  0
 15 20  1  0  0  0  0
 15 21  1  0  0  0  0
 16 22  1  0  0  0  0
 16 23  1  0  0  0  0
 16 24  1  0  0  0  0
M  END
> <PUBCHEM_COMPOUND_CID>
28935

> <PUBCHEM_CONFORMER_RMSD>
0.6

> <PUBCHEM_CONFORMER_DIVERSEORDER>
1
22
28
9
17
29
27
23
4
16
10
20
13
19
14
15
24
3
18
26
8
25
2
11
21
6
12
5
7

> <PUBCHEM_MMFF94_PARTIAL_CHARGES>
18
1 -0.08
10 0.18
11 -0.15
12 0.18
13 -0.15
14 0.08
15 0.28
16 0.28
17 0.15
18 0.15
2 -0.18
3 -0.18
4 -0.68
5 1.49
6 -0.35
7 -0.55
8 -0.55
9 0.08

> <PUBCHEM_EFFECTIVE_ROTOR_COUNT>
4

> <PUBCHEM_PHARMACOPHORE_FEATURES>
2
1 1 hydrophobe
6 9 10 11 12 13 14 rings

> <PUBCHEM_HEAVY_ATOM_COUNT>
16

> <PUBCHEM_ATOM_DEF_STEREO_COUNT>
0

> <PUBCHEM_ATOM_UDEF_STEREO_COUNT>
0

> <PUBCHEM_BOND_DEF_STEREO_COUNT>
0

> <PUBCHEM_BOND_UDEF_STEREO_COUNT>
0

> <PUBCHEM_ISOTOPIC_ATOM_COUNT>
0

> <PUBCHEM_COMPONENT_COUNT>
1

> <PUBCHEM_CACTVS_TAUTO_COUNT>
1

> <PUBCHEM_CONFORMER_ID>
0000710700000001

> <PUBCHEM_MMFF94_ENERGY>
33.2586

> <PUBCHEM_FEATURE_SELFOVERLAP>
10.148

> <PUBCHEM_SHAPE_FINGERPRINT>
10608611 8 18408608032807786704
12173636 292 18412266116841587253
12403259 226 18338804523448194501
12403260 363 18336273430569477465
12500047 106 18340206280741124718
12553582 1 17333635090676777266
13140716 1 18411412891602924875
14115302 16 18343012285749159878
14178342 30 17983301426246969642
15196674 1 18410014300027263603
16945 1 18125150542126846847
17802600 8 18410859896982586737
17804303 29 18339920527971679974
18186145 218 18187638120127160913
19591789 44 18409730681846152035
20510252 161 18335702707005014025
20645476 183 17915725505875586975
20645477 56 18341335491798766113
20645477 70 18040432174642535406
21524375 3 18270678787570861059
23402539 116 18335148604752625311
23419403 2 16469565147651499581
23557571 272 17974278833470568236
23559900 14 18335141956064045024
2748010 2 18121781630421129043
3286 77 18410014376788354356
350125 39 18340764939821880513
4990 188 17749387079400235831
5104073 3 18411138000663152619
633830 44 18113894979575829861
69090 78 18334582330225627599
7364860 26 18335421245055330882
74978 22 18409163307865412714
81228 2 18053942857803389291
9709674 26 18335701594503320246
9981440 41 17553754067836702664

> <PUBCHEM_SHAPE_MULTIPOLES>
335.04
7.94
2.99
1.05
2.6
0.47
-0.61
-1.4
-0.49
-0.64
0.52
-0.86
-0.37
0.35

> <PUBCHEM_SHAPE_SELFOVERLAP>
616.194

> <PUBCHEM_SHAPE_VOLUME>
218.3

> <PUBCHEM_COORDINATE_TYPE>
2
5
10

$$$$

