5248526
  -OEChem-07051213102D

 49 51  0     1  0  0  0  0  0999 V2000
    6.0290   -1.0347    0.0000 O   0  0  0  0  0  0  0  0  0  0  0  0
    6.0290    1.0347    0.0000 O   0  0  0  0  0  0  0  0  0  0  0  0
    4.2690    1.0000    0.0000 O   0  0  0  0  0  0  0  0  0  0  0  0
    4.2690   -2.0000    0.0000 O   0  0  0  0  0  0  0  0  0  0  0  0
    2.5369   -1.0000    0.0000 O   0  0  0  0  0  0  0  0  0  0  0  0
    7.9283   -2.2567    0.0000 O   0  0  0  0  0  0  0  0  0  0  0  0
    2.5369    2.0000    0.0000 O   0  0  0  0  0  0  0  0  0  0  0  0
    6.9350   -0.5208    0.0000 C   0  0  3  0  0  0  0  0  0  0  0  0
    7.9350   -0.5247    0.0000 C   0  0  3  0  0  0  0  0  0  0  0  0
    5.1350   -0.5000    0.0000 C   0  0  3  0  0  0  0  0  0  0  0  0
    8.4384    0.3394    0.0000 C   0  0  0  0  0  0  0  0  0  0  0  0
    5.1350    0.5000    0.0000 C   0  0  3  0  0  0  0  0  0  0  0  0
    6.9350    0.5208    0.0000 C   0  0  0  0  0  0  0  0  0  0  0  0
    4.2690   -1.0000    0.0000 C   0  0  3  0  0  0  0  0  0  0  0  0
    9.4383    0.3356    0.0000 C   0  0  0  0  0  0  0  0  0  0  0  0
    9.9350   -0.5324    0.0000 C   0  0  3  0  0  0  0  0  0  0  0  0
    8.4317   -1.3926    0.0000 C   0  0  0  0  0  0  0  0  0  0  0  0
    3.4030   -0.5000    0.0000 C   0  0  3  0  0  0  0  0  0  0  0  0
    9.4317   -1.3965    0.0000 C   0  0  0  0  0  0  0  0  0  0  0  0
    7.4317   -1.3888    0.0000 C   0  0  0  0  0  0  0  0  0  0  0  0
    3.4030    0.5000    0.0000 C   0  0  3  0  0  0  0  0  0  0  0  0
   10.9350   -0.5362    0.0000 C   0  0  0  0  0  0  0  0  0  0  0  0
    2.5369    1.0000    0.0000 C   0  0  0  0  0  0  0  0  0  0  0  0
    7.6271    0.0135    0.0000 H   0  0  0  0  0  0  0  0  0  0  0  0
    5.1302   -1.1200    0.0000 H   0  0  0  0  0  0  0  0  0  0  0  0
    8.5484    0.9496    0.0000 H   0  0  0  0  0  0  0  0  0  0  0  0
    7.8566    0.5537    0.0000 H   0  0  0  0  0  0  0  0  0  0  0  0
    5.1302    1.1200    0.0000 H   0  0  0  0  0  0  0  0  0  0  0  0
    7.5459    0.4147    0.0000 H   0  0  0  0  0  0  0  0  0  0  0  0
    7.1441    1.1045    0.0000 H   0  0  0  0  0  0  0  0  0  0  0  0
    4.8059   -1.3100    0.0000 H   0  0  0  0  0  0  0  0  0  0  0  0
   10.0218    0.5454    0.0000 H   0  0  0  0  0  0  0  0  0  0  0  0
    9.3330    0.9466    0.0000 H   0  0  0  0  0  0  0  0  0  0  0  0
   10.2471    0.0034    0.0000 H   0  0  0  0  0  0  0  0  0  0  0  0
    3.4030   -1.1200    0.0000 H   0  0  0  0  0  0  0  0  0  0  0  0
    9.3216   -2.0066    0.0000 H   0  0  0  0  0  0  0  0  0  0  0  0
   10.0135   -1.6108    0.0000 H   0  0  0  0  0  0  0  0  0  0  0  0
    6.8936   -1.6967    0.0000 H   0  0  0  0  0  0  0  0  0  0  0  0
    7.7396   -1.9269    0.0000 H   0  0  0  0  0  0  0  0  0  0  0  0
    7.9698   -1.0808    0.0000 H   0  0  0  0  0  0  0  0  0  0  0  0
    3.4030    1.1200    0.0000 H   0  0  0  0  0  0  0  0  0  0  0  0
   10.9326   -1.1562    0.0000 H   0  0  0  0  0  0  0  0  0  0  0  0
   11.5550   -0.5386    0.0000 H   0  0  0  0  0  0  0  0  0  0  0  0
   10.9374    0.0838    0.0000 H   0  0  0  0  0  0  0  0  0  0  0  0
    1.9264    1.1077    0.0000 H   0  0  0  0  0  0  0  0  0  0  0  0
    2.3249    0.4174    0.0000 H   0  0  0  0  0  0  0  0  0  0  0  0
    3.7320   -2.3100    0.0000 H   0  0  0  0  0  0  0  0  0  0  0  0
    2.0000   -0.6900    0.0000 H   0  0  0  0  0  0  0  0  0  0  0  0
    2.0000    2.3100    0.0000 H   0  0  0  0  0  0  0  0  0  0  0  0
  1  8  1  0  0  0  0
  1 10  1  0  0  0  0
  2 12  1  0  0  0  0
  2 13  1  0  0  0  0
  3 12  1  0  0  0  0
  3 21  1  0  0  0  0
  4 14  1  0  0  0  0
  4 47  1  0  0  0  0
  5 18  1  0  0  0  0
  5 48  1  0  0  0  0
  6 17  2  0  0  0  0
  7 23  1  0  0  0  0
  7 49  1  0  0  0  0
  8  9  1  0  0  0  0
  8 13  1  0  0  0  0
  8 20  1  0  0  0  0
  9 11  1  0  0  0  0
  9 17  1  0  0  0  0
  9 24  1  0  0  0  0
 10 12  1  0  0  0  0
 10 14  1  0  0  0  0
 10 25  1  0  0  0  0
 11 15  1  0  0  0  0
 11 26  1  0  0  0  0
 11 27  1  0  0  0  0
 12 28  1  0  0  0  0
 13 29  1  0  0  0  0
 13 30  1  0  0  0  0
 14 18  1  0  0  0  0
 14 31  1  0  0  0  0
 15 16  1  0  0  0  0
 15 32  1  0  0  0  0
 15 33  1  0  0  0  0
 16 19  1  0  0  0  0
 16 22  1  0  0  0  0
 16 34  1  0  0  0  0
 17 19  1  0  0  0  0
 18 21  1  0  0  0  0
 18 35  1  0  0  0  0
 19 36  1  0  0  0  0
 19 37  1  0  0  0  0
 20 38  1  0  0  0  0
 20 39  1  0  0  0  0
 20 40  1  0  0  0  0
 21 23  1  0  0  0  0
 21 41  1  0  0  0  0
 22 42  1  0  0  0  0
 22 43  1  0  0  0  0
 22 44  1  0  0  0  0
 23 45  1  0  0  0  0
 23 46  1  0  0  0  0
M  END
> <PUBCHEM_COMPOUND_CID>
5248526

> <PUBCHEM_COMPOUND_CANONICALIZED>
1

> <PUBCHEM_CACTVS_COMPLEXITY>
456

> <PUBCHEM_CACTVS_HBOND_ACCEPTOR>
7

> <PUBCHEM_CACTVS_HBOND_DONOR>
3

> <PUBCHEM_CACTVS_ROTATABLE_BOND>
2

> <PUBCHEM_CACTVS_SUBSKEYS>
AAADceB4OAAAAAAAAAAAAAAAAAAAAAAAAAA0SIAAAAAAAACQAAAAGgAACAAADVSwgAMCCAAABgAIAIAQAAAAAAAAAAAAAAEAAAAREBYAAAAiQAAFIAAHAAHK6PyOgAAAAAAAAACAAAAAAAAAAAAAAAAAAA==

> <PUBCHEM_IUPAC_OPENEYE_NAME>
2-[7,8-dihydroxy-6-(hydroxymethyl)-2-methyl-3,4a,6,7,8,8a-hexahydropyrano[2,3-b][1,4]dioxin-2-yl]-5-methyl-cyclohexanone

> <PUBCHEM_IUPAC_CAS_NAME>
2-[7,8-dihydroxy-6-(hydroxymethyl)-2-methyl-3,4a,6,7,8,8a-hexahydropyrano[2,3-b][1,4]dioxin-2-yl]-5-methyl-1-cyclohexanone

> <PUBCHEM_IUPAC_NAME>
2-[7,8-dihydroxy-6-(hydroxymethyl)-2-methyl-3,4a,6,7,8,8a-hexahydropyrano[2,3-b][1,4]dioxin-2-yl]-5-methylcyclohexan-1-one

> <PUBCHEM_IUPAC_SYSTEMATIC_NAME>
2-[6-(hydroxymethyl)-2-methyl-7,8-bis(oxidanyl)-3,4a,6,7,8,8a-hexahydropyrano[2,3-b][1,4]dioxin-2-yl]-5-methyl-cyclohexan-1-one

> <PUBCHEM_IUPAC_TRADITIONAL_NAME>
2-(7,8-dihydroxy-2-methyl-6-methylol-3,4a,6,7,8,8a-hexahydropyrano[2,3-b][1,4]dioxin-2-yl)-5-methyl-cyclohexanone

> <PUBCHEM_IUPAC_INCHI>
InChI=1S/C16H26O7/c1-8-3-4-9(10(18)5-8)16(2)7-21-15-14(23-16)13(20)12(19)11(6-17)22-15/h8-9,11-15,17,19-20H,3-7H2,1-2H3

> <PUBCHEM_IUPAC_INCHIKEY>
ZJJQMILJDZZZHQ-UHFFFAOYSA-N

> <PUBCHEM_XLOGP3_AA>
-0.3

> <PUBCHEM_EXACT_MASS>
330.167853

> <PUBCHEM_MOLECULAR_FORMULA>
C16H26O7

> <PUBCHEM_MOLECULAR_WEIGHT>
330.37344

> <PUBCHEM_OPENEYE_CAN_SMILES>
CC1CCC(C(=O)C1)C2(COC3C(O2)C(C(C(O3)CO)O)O)C

> <PUBCHEM_OPENEYE_ISO_SMILES>
CC1CCC(C(=O)C1)C2(COC3C(O2)C(C(C(O3)CO)O)O)C

> <PUBCHEM_CACTVS_TPSA>
105

> <PUBCHEM_MONOISOTOPIC_WEIGHT>
330.167853

> <PUBCHEM_TOTAL_CHARGE>
0

> <PUBCHEM_HEAVY_ATOM_COUNT>
23

> <PUBCHEM_ATOM_DEF_STEREO_COUNT>
0

> <PUBCHEM_ATOM_UDEF_STEREO_COUNT>
8

> <PUBCHEM_BOND_DEF_STEREO_COUNT>
0

> <PUBCHEM_BOND_UDEF_STEREO_COUNT>
0

> <PUBCHEM_ISOTOPIC_ATOM_COUNT>
0

> <PUBCHEM_COMPONENT_COUNT>
1

> <PUBCHEM_CACTVS_TAUTO_COUNT>
3

> <PUBCHEM_COORDINATE_TYPE>
1
5
255

> <PUBCHEM_BONDANNOTATIONS>
10  1  3
16  22  3
12  2  3
21  23  3
14  4  3
18  5  3
8  20  3
9  11  3

$$$$

