5281649
  -OEChem-07051212583D

 32 34  0     0  0  0  0  0  0999 V2000
   -0.3830    0.7710   -0.0375 O   0  0  0  0  0  0  0  0  0  0  0  0
   -4.4668   -1.8263    0.2300 O   0  0  0  0  0  0  0  0  0  0  0  0
    1.8389   -0.2315   -2.4609 O   0  0  0  0  0  0  0  0  0  0  0  0
   -2.0834   -2.9232    0.2090 O   0  0  0  0  0  0  0  0  0  0  0  0
   -4.6194    2.9140   -0.0185 O   0  0  0  0  0  0  0  0  0  0  0  0
    4.6171    0.4282    2.2579 O   0  0  0  0  0  0  0  0  0  0  0  0
    5.9385    0.5585   -0.1840 O   0  0  0  0  0  0  0  0  0  0  0  0
   -2.3948   -0.5833    0.0988 C   0  0  0  0  0  0  0  0  0  0  0  0
    0.3856   -0.3823    0.0070 C   0  0  0  0  0  0  0  0  0  0  0  0
   -1.7484    0.6486    0.0128 C   0  0  0  0  0  0  0  0  0  0  0  0
    1.8402   -0.1368   -0.0592 C   0  0  0  0  0  0  0  0  0  0  0  0
   -1.5831   -1.8093    0.1371 C   0  0  0  0  0  0  0  0  0  0  0  0
   -0.1187   -1.6242    0.0828 C   0  0  0  0  0  0  0  0  0  0  0  0
   -3.7891   -0.6478    0.1462 C   0  0  0  0  0  0  0  0  0  0  0  0
   -2.4951    1.8264   -0.0269 C   0  0  0  0  0  0  0  0  0  0  0  0
    2.5102   -0.0706   -1.2849 C   0  0  0  0  0  0  0  0  0  0  0  0
    2.5584    0.0323    1.1284 C   0  0  0  0  0  0  0  0  0  0  0  0
   -3.8881    1.7662    0.0204 C   0  0  0  0  0  0  0  0  0  0  0  0
   -4.5335    0.5318    0.1068 C   0  0  0  0  0  0  0  0  0  0  0  0
    3.9332    0.2655    1.0911 C   0  0  0  0  0  0  0  0  0  0  0  0
    3.8849    0.1623   -1.3222 C   0  0  0  0  0  0  0  0  0  0  0  0
    4.5964    0.3306   -0.1343 C   0  0  0  0  0  0  0  0  0  0  0  0
    0.5063   -2.5099    0.1080 H   0  0  0  0  0  0  0  0  0  0  0  0
   -1.9948    2.7891   -0.0945 H   0  0  0  0  0  0  0  0  0  0  0  0
    2.0438   -0.0169    2.0861 H   0  0  0  0  0  0  0  0  0  0  0  0
   -5.6194    0.4837    0.1435 H   0  0  0  0  0  0  0  0  0  0  0  0
    4.4096    0.2146   -2.2731 H   0  0  0  0  0  0  0  0  0  0  0  0
   -3.8492   -2.5732    0.2529 H   0  0  0  0  0  0  0  0  0  0  0  0
    2.4664   -0.1537   -3.1998 H   0  0  0  0  0  0  0  0  0  0  0  0
   -5.5644    2.6876    0.0235 H   0  0  0  0  0  0  0  0  0  0  0  0
    3.9967    0.3515    3.0029 H   0  0  0  0  0  0  0  0  0  0  0  0
    6.2671    0.6505    0.7273 H   0  0  0  0  0  0  0  0  0  0  0  0
  1  9  1  0  0  0  0
  1 10  1  0  0  0  0
  2 14  1  0  0  0  0
  2 28  1  0  0  0  0
  3 16  1  0  0  0  0
  3 29  1  0  0  0  0
  4 12  2  0  0  0  0
  5 18  1  0  0  0  0
  5 30  1  0  0  0  0
  6 20  1  0  0  0  0
  6 31  1  0  0  0  0
  7 22  1  0  0  0  0
  7 32  1  0  0  0  0
  8 10  1  0  0  0  0
  8 12  1  0  0  0  0
  8 14  2  0  0  0  0
  9 11  1  0  0  0  0
  9 13  2  0  0  0  0
 10 15  2  0  0  0  0
 11 16  1  0  0  0  0
 11 17  2  0  0  0  0
 12 13  1  0  0  0  0
 13 23  1  0  0  0  0
 14 19  1  0  0  0  0
 15 18  1  0  0  0  0
 15 24  1  0  0  0  0
 16 21  2  0  0  0  0
 17 20  1  0  0  0  0
 17 25  1  0  0  0  0
 18 19  2  0  0  0  0
 19 26  1  0  0  0  0
 20 22  2  0  0  0  0
 21 22  1  0  0  0  0
 21 27  1  0  0  0  0
M  END
> <PUBCHEM_COMPOUND_CID>
5281649

> <PUBCHEM_CONFORMER_RMSD>
0.6

> <PUBCHEM_CONFORMER_DIVERSEORDER>
2
3
4
1
5
6

> <PUBCHEM_MMFF94_PARTIAL_CHARGES>
32
1 -0.16
10 0.08
11 0.03
12 0.47
13 -0.14
14 0.08
15 -0.15
16 0.08
17 -0.15
18 0.08
19 -0.15
2 -0.53
20 0.08
21 -0.15
22 0.08
23 0.15
24 0.15
25 0.15
26 0.15
27 0.15
28 0.45
29 0.45
3 -0.53
30 0.45
31 0.45
32 0.45
4 -0.57
5 -0.53
6 -0.53
7 -0.53
8 0.09
9 0.05

> <PUBCHEM_EFFECTIVE_ROTOR_COUNT>
1

> <PUBCHEM_PHARMACOPHORE_FEATURES>
10
1 1 acceptor
1 2 donor
1 3 donor
1 4 acceptor
1 5 donor
1 6 donor
1 7 donor
6 1 8 9 10 12 13 rings
6 11 16 17 20 21 22 rings
6 8 10 14 15 18 19 rings

> <PUBCHEM_HEAVY_ATOM_COUNT>
22

> <PUBCHEM_ATOM_DEF_STEREO_COUNT>
0

> <PUBCHEM_ATOM_UDEF_STEREO_COUNT>
0

> <PUBCHEM_BOND_DEF_STEREO_COUNT>
0

> <PUBCHEM_BOND_UDEF_STEREO_COUNT>
0

> <PUBCHEM_ISOTOPIC_ATOM_COUNT>
0

> <PUBCHEM_COMPONENT_COUNT>
1

> <PUBCHEM_CACTVS_TAUTO_COUNT>
318

> <PUBCHEM_CONFORMER_ID>
0050977100000002

> <PUBCHEM_MMFF94_ENERGY>
66.1782

> <PUBCHEM_FEATURE_SELFOVERLAP>
50.776

> <PUBCHEM_SHAPE_FINGERPRINT>
10319926 262 18335718134833399354
10411042 1 17907012873122676315
10498660 4 18336543927615496025
10646746 165 18335421283203699248
10912923 1 17704073984331306064
11315181 36 17988642956813745020
11796584 16 18335696174929923534
12107183 9 17912375526079410818
12173636 292 18338799047834131045
12236239 1 17704072872240620802
12390115 104 18189322619660502833
12403259 415 17894349956354645224
12403814 3 17346600789974008493
12596602 18 17561079159960082272
12670546 56 17489592238205609860
12788726 201 17413566386202036970
12969540 114 17313394443181787853
13140716 1 18052532176180178971
13583140 156 17967255269721279342
14386348 63 17749382642482883918
15042514 8 18196365927987231899
15375358 24 17967534575248453292
16752209 62 18341328916351762843
16988056 13 15390369862043172509
17349148 13 17917992754544054771
18186145 218 17895464925390299923
18915476 22 16950553432619942119
19489759 90 18409168805143931171
200 152 16128664024196693671
20510252 161 18333728035655575273
20511986 3 17703238316897668980
20645477 56 18335417971936829953
20645477 70 16588295121009401606
21033648 29 17749119872057118936
21065198 48 18060144249497076730
21065201 7 18408037395000217802
212916 134 18410583915131690026
23366157 5 17843681316336059963
23402539 116 18408889529063888924
23557571 272 18260821583970113716
23559900 14 18261946457817681318
3268164 11 18334583425689955039
341906 21 18410577292540292640
3472631 163 18413103965903002220
38570 142 16556459805651751190
469060 322 18268970061018495145
495365 180 17604438517076477926
5104073 3 18338515351927026563
573450 72 18202569474936259218
633830 44 15936676151571818095
7064713 232 18271809080992117749
77492 1 17560802096088805710
9862522 239 17702677694958986253
9981440 41 18271523191311279723

> <PUBCHEM_SHAPE_MULTIPOLES>
411.66
11.15
2.06
1.29
4.97
0.25
0.17
-3.85
-1.32
-3.87
-0.12
2.2
-0.07
0.34

> <PUBCHEM_SHAPE_SELFOVERLAP>
923.842

> <PUBCHEM_SHAPE_VOLUME>
216

> <PUBCHEM_COORDINATE_TYPE>
2
5
10

$$$$

