46173376
  -OEChem-07051213113D

 44 44  0     0  0  0  0  0  0999 V2000
    0.8947   -2.5793   -1.1089 O   0  0  0  0  0  0  0  0  0  0  0  0
   -4.4926    1.9620    1.4145 O   0  0  0  0  0  0  0  0  0  0  0  0
   -6.5697    1.2917   -0.3072 O   0  0  0  0  0  0  0  0  0  0  0  0
    1.4718   -1.9754    1.0614 N   0  0  0  0  0  0  0  0  0  0  0  0
    4.7907    1.0019   -0.3424 N   0  0  0  0  0  0  0  0  0  0  0  0
    5.4438    2.2786   -2.1633 N   0  0  0  0  0  0  0  0  0  0  0  0
    6.7985    2.3207   -0.3306 N   0  0  0  0  0  0  0  0  0  0  0  0
    3.8726   -1.6436    0.6263 C   0  0  0  0  0  0  0  0  0  0  0  0
    3.9843   -0.3893    1.5014 C   0  0  0  0  0  0  0  0  0  0  0  0
    2.7708   -2.5880    1.0969 C   0  0  0  0  0  0  0  0  0  0  0  0
    5.0794    0.5580    1.0222 C   0  0  0  0  0  0  0  0  0  0  0  0
    0.6353   -2.0223   -0.0472 C   0  0  0  0  0  0  0  0  0  0  0  0
   -2.8828   -0.5859   -0.6541 C   0  0  0  0  0  0  0  0  0  0  0  0
   -0.6509   -1.3068    0.1896 C   0  0  0  0  0  0  0  0  0  0  0  0
   -1.5758   -1.2548   -0.7802 C   0  0  0  0  0  0  0  0  0  0  0  0
   -3.0775    0.3834    0.3299 C   0  0  0  0  0  0  0  0  0  0  0  0
   -3.9250   -0.9220   -1.5181 C   0  0  0  0  0  0  0  0  0  0  0  0
   -4.3145    1.0168    0.4498 C   0  0  0  0  0  0  0  0  0  0  0  0
   -5.3569    0.6806   -0.4141 C   0  0  0  0  0  0  0  0  0  0  0  0
    5.6428    1.8157   -0.8839 C   0  0  0  0  0  0  0  0  0  0  0  0
   -5.1621   -0.2888   -1.3979 C   0  0  0  0  0  0  0  0  0  0  0  0
   -3.3768    2.2469    2.2562 C   0  0  0  0  0  0  0  0  0  0  0  0
    3.6755   -1.3583   -0.4140 H   0  0  0  0  0  0  0  0  0  0  0  0
    4.8288   -2.1803    0.6367 H   0  0  0  0  0  0  0  0  0  0  0  0
    3.0296    0.1502    1.5031 H   0  0  0  0  0  0  0  0  0  0  0  0
    4.1918   -0.6824    2.5374 H   0  0  0  0  0  0  0  0  0  0  0  0
    2.7612   -3.4838    0.4663 H   0  0  0  0  0  0  0  0  0  0  0  0
    2.9549   -2.9058    2.1287 H   0  0  0  0  0  0  0  0  0  0  0  0
    5.1170    1.4175    1.7022 H   0  0  0  0  0  0  0  0  0  0  0  0
    6.0449    0.0392    1.0622 H   0  0  0  0  0  0  0  0  0  0  0  0
    1.1672   -1.4856    1.8978 H   0  0  0  0  0  0  0  0  0  0  0  0
   -0.7961   -0.8710    1.1710 H   0  0  0  0  0  0  0  0  0  0  0  0
   -1.3930   -1.7346   -1.7389 H   0  0  0  0  0  0  0  0  0  0  0  0
   -2.2440    0.6467    0.9679 H   0  0  0  0  0  0  0  0  0  0  0  0
   -3.7915   -1.6760   -2.2901 H   0  0  0  0  0  0  0  0  0  0  0  0
   -5.9656   -0.5604   -2.0773 H   0  0  0  0  0  0  0  0  0  0  0  0
    7.3934    2.9554   -0.8522 H   0  0  0  0  0  0  0  0  0  0  0  0
    7.0978    2.0827    0.6082 H   0  0  0  0  0  0  0  0  0  0  0  0
    6.0981    2.9153   -2.6048 H   0  0  0  0  0  0  0  0  0  0  0  0
    4.6333    1.9944   -2.7028 H   0  0  0  0  0  0  0  0  0  0  0  0
   -7.1662    0.9327   -0.9864 H   0  0  0  0  0  0  0  0  0  0  0  0
   -3.6998    3.0141    2.9679 H   0  0  0  0  0  0  0  0  0  0  0  0
   -2.5418    2.6738    1.6902 H   0  0  0  0  0  0  0  0  0  0  0  0
   -3.0813    1.3733    2.8474 H   0  0  0  0  0  0  0  0  0  0  0  0
  1 12  2  0  0  0  0
  2 18  1  0  0  0  0
  2 22  1  0  0  0  0
  3 19  1  0  0  0  0
  3 41  1  0  0  0  0
  4 10  1  0  0  0  0
  4 12  1  0  0  0  0
  4 31  1  0  0  0  0
  5 11  1  0  0  0  0
  5 20  2  0  0  0  0
  6 20  1  0  0  0  0
  6 39  1  0  0  0  0
  6 40  1  0  0  0  0
  7 20  1  0  0  0  0
  7 37  1  0  0  0  0
  7 38  1  0  0  0  0
  8  9  1  0  0  0  0
  8 10  1  0  0  0  0
  8 23  1  0  0  0  0
  8 24  1  0  0  0  0
  9 11  1  0  0  0  0
  9 25  1  0  0  0  0
  9 26  1  0  0  0  0
 10 27  1  0  0  0  0
 10 28  1  0  0  0  0
 11 29  1  0  0  0  0
 11 30  1  0  0  0  0
 12 14  1  0  0  0  0
 13 15  1  0  0  0  0
 13 16  2  0  0  0  0
 13 17  1  0  0  0  0
 14 15  2  0  0  0  0
 14 32  1  0  0  0  0
 15 33  1  0  0  0  0
 16 18  1  0  0  0  0
 16 34  1  0  0  0  0
 17 21  2  0  0  0  0
 17 35  1  0  0  0  0
 18 19  2  0  0  0  0
 19 21  1  0  0  0  0
 21 36  1  0  0  0  0
 22 42  1  0  0  0  0
 22 43  1  0  0  0  0
 22 44  1  0  0  0  0
M  END
> <PUBCHEM_COMPOUND_CID>
46173376

> <PUBCHEM_CONFORMER_RMSD>
1

> <PUBCHEM_CONFORMER_DIVERSEORDER>
1
60
43
79
8
18
63
82
7
29
90
96
68
15
38
21
50
52
5
55
97
75
26
20
83
12
85
73
58
64
66
69
14
40
81
88
57
27
80
99
94
56
84
34
17
13
6
19
2
30
44
54
59
49
31
4
78
98
45
42
61
91
25
9
23
47
39
77
36
3
48
93
86
16
37
51
89
65
87
24
95
46
67
32
92
33
74
70
71
35
11
22
53
76
41
28
100
62
72
10

> <PUBCHEM_MMFF94_PARTIAL_CHARGES>
31
1 -0.57
10 0.3
11 0.25
12 0.62
13 0.03
14 -0.14
15 -0.18
16 -0.15
17 -0.15
18 0.08
19 0.08
2 -0.36
20 0.55
21 -0.15
22 0.28
3 -0.53
31 0.37
32 0.15
33 0.15
34 0.15
35 0.15
36 0.15
37 0.4
38 0.4
39 0.4
4 -0.73
40 0.4
41 0.45
5 -0.7
6 -0.85
7 -0.85

> <PUBCHEM_EFFECTIVE_ROTOR_COUNT>
9

> <PUBCHEM_PHARMACOPHORE_FEATURES>
8
1 1 acceptor
1 2 acceptor
1 3 donor
1 4 donor
1 6 donor
1 7 donor
4 5 6 7 20 cation
6 13 16 17 18 19 21 rings

> <PUBCHEM_HEAVY_ATOM_COUNT>
22

> <PUBCHEM_ATOM_DEF_STEREO_COUNT>
0

> <PUBCHEM_ATOM_UDEF_STEREO_COUNT>
0

> <PUBCHEM_BOND_DEF_STEREO_COUNT>
1

> <PUBCHEM_BOND_UDEF_STEREO_COUNT>
0

> <PUBCHEM_ISOTOPIC_ATOM_COUNT>
0

> <PUBCHEM_COMPONENT_COUNT>
1

> <PUBCHEM_CACTVS_TAUTO_COUNT>
18

> <PUBCHEM_CONFORMER_ID>
02C08CC000000001

> <PUBCHEM_MMFF94_ENERGY>
58.1472

> <PUBCHEM_FEATURE_SELFOVERLAP>
40.651

> <PUBCHEM_SHAPE_FINGERPRINT>
10670039 82 18040996267511061408
11112241 14 17346882273540511009
12390115 104 18201147742615916922
12596602 18 18271249417311202915
13885169 86 18129938954443321916
13955234 65 17631464530215333690
14251764 75 17773588314060336796
14347332 77 7997976777639347771
14528608 73 18114474408590927986
14774955 27 18271813410551143590
14840074 17 18201435870032713308
15163728 17 18187353342521345686
15183329 4 16877655773560463242
15342168 16 18343588430121988086
1768 23 18115853239280049369
20567600 234 17775288252898086127
20567600 9 18334570278979840170
21033648 29 16558758957079428271
245318 6 18272081639785520716
270888 7 18200315399734302028
312425 54 13901645055445247664
38570 142 18341884187499725566
397830 11 17346308280836041499
445580 204 18333730187861874112
474 4 18341617044037714402
543368 44 18409169887670888141
6034566 193 18058156246653780782
6443934 186 12894774906240193614
6608658 132 18040443191603310781

> <PUBCHEM_SHAPE_MULTIPOLES>
415.22
17.46
3.01
1.75
8.66
0.01
-0.1
-14.12
3.51
3.17
-0.23
0.24
-0.8
-4.31

> <PUBCHEM_SHAPE_SELFOVERLAP>
840.924

> <PUBCHEM_SHAPE_VOLUME>
239.9

> <PUBCHEM_COORDINATE_TYPE>
2
5
10

$$$$

