440983
  -OEChem-07051212512D

 18 18  0     0  0  0  0  0  0999 V2000
    4.2690    1.1550    0.0000 S   0  0  0  0  0  0  0  0  0  0  0  0
    2.5369    0.1550    0.0000 O   0  0  0  0  0  0  0  0  0  0  0  0
    4.2690    2.1550    0.0000 O   0  0  0  0  0  0  0  0  0  0  0  0
    2.5369   -1.8450    0.0000 O   0  0  0  0  0  0  0  0  0  0  0  0
    5.2690    1.1550    0.0000 O   0  0  0  0  0  0  0  0  0  0  0  0
    3.2690    1.1550    0.0000 O   0  0  0  0  0  0  0  0  0  0  0  0
    4.2690    0.1550    0.0000 C   0  0  0  0  0  0  0  0  0  0  0  0
    3.4030   -0.3450    0.0000 C   0  0  0  0  0  0  0  0  0  0  0  0
    5.1350   -0.3450    0.0000 C   0  0  0  0  0  0  0  0  0  0  0  0
    3.4030   -1.3450    0.0000 C   0  0  0  0  0  0  0  0  0  0  0  0
    5.1350   -1.3450    0.0000 C   0  0  0  0  0  0  0  0  0  0  0  0
    4.2690   -1.8450    0.0000 C   0  0  0  0  0  0  0  0  0  0  0  0
    5.6720   -0.0350    0.0000 H   0  0  0  0  0  0  0  0  0  0  0  0
    5.6720   -1.6550    0.0000 H   0  0  0  0  0  0  0  0  0  0  0  0
    4.2690   -2.4650    0.0000 H   0  0  0  0  0  0  0  0  0  0  0  0
    2.0000   -0.1550    0.0000 H   0  0  0  0  0  0  0  0  0  0  0  0
    4.8059    2.4650    0.0000 H   0  0  0  0  0  0  0  0  0  0  0  0
    2.5369   -2.4650    0.0000 H   0  0  0  0  0  0  0  0  0  0  0  0
  1  3  1  0  0  0  0
  1  5  2  0  0  0  0
  1  6  2  0  0  0  0
  1  7  1  0  0  0  0
  2  8  1  0  0  0  0
  2 16  1  0  0  0  0
  3 17  1  0  0  0  0
  4 10  1  0  0  0  0
  4 18  1  0  0  0  0
  7  8  1  0  0  0  0
  7  9  2  0  0  0  0
  8 10  2  0  0  0  0
  9 11  1  0  0  0  0
  9 13  1  0  0  0  0
 10 12  1  0  0  0  0
 11 12  2  0  0  0  0
 11 14  1  0  0  0  0
 12 15  1  0  0  0  0
M  END
> <PUBCHEM_COMPOUND_CID>
440983

> <PUBCHEM_COMPOUND_CANONICALIZED>
1

> <PUBCHEM_CACTVS_COMPLEXITY>
241

> <PUBCHEM_CACTVS_HBOND_ACCEPTOR>
5

> <PUBCHEM_CACTVS_HBOND_DONOR>
3

> <PUBCHEM_CACTVS_ROTATABLE_BOND>
1

> <PUBCHEM_CACTVS_SUBSKEYS>
AAADcYBgOABAAAAAAAAAAAAAAAAAAAAAAAAwAAAAAAAAAAABAAAAGgQACAAACASA0AAwB4AAAoKAACBCAHBCAEAgIAAIiBoGiIgJJiKCERKAcAEkwBEJmAeAQAAAAAAABAAAYAAAAAAIAADAAAAAAAAAAA==

> <PUBCHEM_IUPAC_OPENEYE_NAME>
2,3-dihydroxybenzenesulfonic acid

> <PUBCHEM_IUPAC_CAS_NAME>
2,3-dihydroxybenzenesulfonic acid

> <PUBCHEM_IUPAC_NAME>
2,3-dihydroxybenzenesulfonic acid

> <PUBCHEM_IUPAC_SYSTEMATIC_NAME>
2,3-bis(oxidanyl)benzenesulfonic acid

> <PUBCHEM_IUPAC_TRADITIONAL_NAME>
2,3-dihydroxybesylic acid

> <PUBCHEM_IUPAC_INCHI>
InChI=1S/C6H6O5S/c7-4-2-1-3-5(6(4)8)12(9,10)11/h1-3,7-8H,(H,9,10,11)

> <PUBCHEM_IUPAC_INCHIKEY>
VZYDKJOUEPFKMW-UHFFFAOYSA-N

> <PUBCHEM_XLOGP3_AA>
0.5

> <PUBCHEM_EXACT_MASS>
189.993594

> <PUBCHEM_MOLECULAR_FORMULA>
C6H6O5S

> <PUBCHEM_MOLECULAR_WEIGHT>
190.17384

> <PUBCHEM_OPENEYE_CAN_SMILES>
C1=CC(=C(C(=C1)S(=O)(=O)O)O)O

> <PUBCHEM_OPENEYE_ISO_SMILES>
C1=CC(=C(C(=C1)S(=O)(=O)O)O)O

> <PUBCHEM_CACTVS_TPSA>
103

> <PUBCHEM_MONOISOTOPIC_WEIGHT>
189.993594

> <PUBCHEM_TOTAL_CHARGE>
0

> <PUBCHEM_HEAVY_ATOM_COUNT>
12

> <PUBCHEM_ATOM_DEF_STEREO_COUNT>
0

> <PUBCHEM_ATOM_UDEF_STEREO_COUNT>
0

> <PUBCHEM_BOND_DEF_STEREO_COUNT>
0

> <PUBCHEM_BOND_UDEF_STEREO_COUNT>
0

> <PUBCHEM_ISOTOPIC_ATOM_COUNT>
0

> <PUBCHEM_COMPONENT_COUNT>
1

> <PUBCHEM_CACTVS_TAUTO_COUNT>
10

> <PUBCHEM_COORDINATE_TYPE>
1
5
255

> <PUBCHEM_BONDANNOTATIONS>
10  12  8
11  12  8
7  8  8
7  9  8
8  10  8
9  11  8

$$$$

