443600
  -OEChem-07051213023D

 62 62  0     1  0  0  0  0  0999 V2000
    4.5427    0.6962   -2.4362 O   0  0  0  0  0  0  0  0  0  0  0  0
    1.9726    0.5062   -1.3917 O   0  0  0  0  0  0  0  0  0  0  0  0
   -0.6184    0.1144    2.1730 O   0  0  0  0  0  0  0  0  0  0  0  0
   -3.6500    3.2648   -1.3471 O   0  0  0  0  0  0  0  0  0  0  0  0
   -3.6259    5.1779    0.5605 O   0  0  0  0  0  0  0  0  0  0  0  0
    3.4014   -0.0809    0.3314 N   0  0  0  0  0  0  0  0  0  0  0  0
   -0.0740   -0.2985   -0.0407 N   0  0  0  0  0  0  0  0  0  0  0  0
   -2.6843    4.1403    0.5586 N   0  0  0  0  0  0  0  0  0  0  0  0
    4.4983    0.8114   -0.0504 C   0  0  1  0  0  0  0  0  0  0  0  0
    5.3881    0.8474    1.1947 C   0  0  0  0  0  0  0  0  0  0  0  0
    3.7153   -0.8110    1.5570 C   0  0  0  0  0  0  0  0  0  0  0  0
    5.1891   -0.5325    1.8107 C   0  0  0  0  0  0  0  0  0  0  0  0
    1.1437   -1.0231    0.2336 C   0  0  2  0  0  0  0  0  0  0  0  0
    2.2008   -0.1254   -0.3586 C   0  0  0  0  0  0  0  0  0  0  0  0
    5.2433    0.2871   -1.2765 C   0  0  0  0  0  0  0  0  0  0  0  0
    1.1563   -2.4267   -0.3915 C   0  0  0  0  0  0  0  0  0  0  0  0
   -2.1135    0.9339    0.4438 C   0  0  2  0  0  0  0  0  0  0  0  0
   -0.8668    0.2186    0.9732 C   0  0  0  0  0  0  0  0  0  0  0  0
   -3.0342   -0.0553   -0.3035 C   0  0  0  0  0  0  0  0  0  0  0  0
    0.9231   -2.3642   -1.9052 C   0  0  0  0  0  0  0  0  0  0  0  0
    0.0894   -3.3241    0.2454 C   0  0  0  0  0  0  0  0  0  0  0  0
   -3.4992   -1.2576    0.5281 C   0  0  0  0  0  0  0  0  0  0  0  0
   -1.7175    2.1629   -0.3899 C   0  0  0  0  0  0  0  0  0  0  0  0
   -4.3495   -2.2124   -0.3158 C   0  0  0  0  0  0  0  0  0  0  0  0
   -4.8239   -3.4457    0.4558 C   0  0  0  0  0  0  0  0  0  0  0  0
   -2.7986    3.2277   -0.4626 C   0  0  0  0  0  0  0  0  0  0  0  0
   -5.6085   -4.4313   -0.3962 C   0  0  0  0  0  0  0  0  0  0  0  0
    4.0842    1.8044   -0.2630 H   0  0  0  0  0  0  0  0  0  0  0  0
    6.4377    1.0717    0.9843 H   0  0  0  0  0  0  0  0  0  0  0  0
    5.0148    1.6087    1.8914 H   0  0  0  0  0  0  0  0  0  0  0  0
    3.0994   -0.3992    2.3640 H   0  0  0  0  0  0  0  0  0  0  0  0
    3.5052   -1.8779    1.4487 H   0  0  0  0  0  0  0  0  0  0  0  0
    5.4470   -0.5679    2.8727 H   0  0  0  0  0  0  0  0  0  0  0  0
    5.8079   -1.2684    1.2837 H   0  0  0  0  0  0  0  0  0  0  0  0
    1.2581   -1.1073    1.3164 H   0  0  0  0  0  0  0  0  0  0  0  0
    6.2473    0.7195   -1.3354 H   0  0  0  0  0  0  0  0  0  0  0  0
    5.3254   -0.8049   -1.2761 H   0  0  0  0  0  0  0  0  0  0  0  0
    2.1372   -2.8865   -0.2200 H   0  0  0  0  0  0  0  0  0  0  0  0
   -0.3166   -0.1057   -1.0077 H   0  0  0  0  0  0  0  0  0  0  0  0
   -2.6596    1.2830    1.3312 H   0  0  0  0  0  0  0  0  0  0  0  0
   -2.5296   -0.4214   -1.2065 H   0  0  0  0  0  0  0  0  0  0  0  0
   -3.9218    0.4879   -0.6515 H   0  0  0  0  0  0  0  0  0  0  0  0
   -0.0447   -1.9246   -2.1653 H   0  0  0  0  0  0  0  0  0  0  0  0
    1.7116   -1.8070   -2.4188 H   0  0  0  0  0  0  0  0  0  0  0  0
    0.9355   -3.3770   -2.3251 H   0  0  0  0  0  0  0  0  0  0  0  0
   -0.9214   -2.9888   -0.0020 H   0  0  0  0  0  0  0  0  0  0  0  0
    0.1920   -3.3415    1.3353 H   0  0  0  0  0  0  0  0  0  0  0  0
    0.1918   -4.3535   -0.1150 H   0  0  0  0  0  0  0  0  0  0  0  0
   -4.0855   -0.9024    1.3840 H   0  0  0  0  0  0  0  0  0  0  0  0
   -2.6411   -1.8016    0.9337 H   0  0  0  0  0  0  0  0  0  0  0  0
   -0.8053    2.6197    0.0165 H   0  0  0  0  0  0  0  0  0  0  0  0
   -1.4727    1.8720   -1.4190 H   0  0  0  0  0  0  0  0  0  0  0  0
    5.0341    0.3569   -3.2035 H   0  0  0  0  0  0  0  0  0  0  0  0
   -3.7648   -2.5405   -1.1844 H   0  0  0  0  0  0  0  0  0  0  0  0
   -5.2226   -1.6751   -0.7062 H   0  0  0  0  0  0  0  0  0  0  0  0
   -5.4480   -3.1276    1.2993 H   0  0  0  0  0  0  0  0  0  0  0  0
   -3.9556   -3.9635    0.8808 H   0  0  0  0  0  0  0  0  0  0  0  0
   -4.9984   -4.8016   -1.2261 H   0  0  0  0  0  0  0  0  0  0  0  0
   -5.9223   -5.2895    0.2061 H   0  0  0  0  0  0  0  0  0  0  0  0
   -6.5045   -3.9599   -0.8120 H   0  0  0  0  0  0  0  0  0  0  0  0
   -1.9265    4.2054    1.2285 H   0  0  0  0  0  0  0  0  0  0  0  0
   -4.2838    4.8116    1.1755 H   0  0  0  0  0  0  0  0  0  0  0  0
  1 15  1  0  0  0  0
  1 53  1  0  0  0  0
  2 14  2  0  0  0  0
  3 18  2  0  0  0  0
  4 26  2  0  0  0  0
  5  8  1  0  0  0  0
  5 62  1  0  0  0  0
  6  9  1  0  0  0  0
  6 11  1  0  0  0  0
  6 14  1  0  0  0  0
  7 13  1  0  0  0  0
  7 18  1  0  0  0  0
  7 39  1  0  0  0  0
  8 26  1  0  0  0  0
  8 61  1  0  0  0  0
  9 10  1  0  0  0  0
  9 15  1  0  0  0  0
  9 28  1  0  0  0  0
 10 12  1  0  0  0  0
 10 29  1  0  0  0  0
 10 30  1  0  0  0  0
 11 12  1  0  0  0  0
 11 31  1  0  0  0  0
 11 32  1  0  0  0  0
 12 33  1  0  0  0  0
 12 34  1  0  0  0  0
 13 14  1  0  0  0  0
 13 16  1  0  0  0  0
 13 35  1  0  0  0  0
 15 36  1  0  0  0  0
 15 37  1  0  0  0  0
 16 20  1  0  0  0  0
 16 21  1  0  0  0  0
 16 38  1  0  0  0  0
 17 18  1  0  0  0  0
 17 19  1  0  0  0  0
 17 23  1  0  0  0  0
 17 40  1  0  0  0  0
 19 22  1  0  0  0  0
 19 41  1  0  0  0  0
 19 42  1  0  0  0  0
 20 43  1  0  0  0  0
 20 44  1  0  0  0  0
 20 45  1  0  0  0  0
 21 46  1  0  0  0  0
 21 47  1  0  0  0  0
 21 48  1  0  0  0  0
 22 24  1  0  0  0  0
 22 49  1  0  0  0  0
 22 50  1  0  0  0  0
 23 26  1  0  0  0  0
 23 51  1  0  0  0  0
 23 52  1  0  0  0  0
 24 25  1  0  0  0  0
 24 54  1  0  0  0  0
 24 55  1  0  0  0  0
 25 27  1  0  0  0  0
 25 56  1  0  0  0  0
 25 57  1  0  0  0  0
 27 58  1  0  0  0  0
 27 59  1  0  0  0  0
 27 60  1  0  0  0  0
M  END
> <PUBCHEM_COMPOUND_CID>
443600

> <PUBCHEM_CONFORMER_RMSD>
1.2

> <PUBCHEM_CONFORMER_DIVERSEORDER>
1
21
59
20
13
11
25
68
23
58
45
57
66
46
47
24
35
60
6
72
44
31
51
67
29
43
52
15
49
61
50
41
71
10
32
9
37
65
38
56
18
62
19
7
63
55
8
40
53
36
22
5
34
14
73
69
12
17
27
26
54
42
33
30
28
48
39
64
4
70
16
2
3

> <PUBCHEM_MMFF94_PARTIAL_CHARGES>
21
1 -0.68
11 0.3
13 0.36
14 0.57
15 0.28
17 0.06
18 0.57
2 -0.57
23 0.06
26 0.57
3 -0.57
39 0.37
4 -0.57
5 -0.44
53 0.4
6 -0.66
61 0.37
62 0.4
7 -0.73
8 -0.39
9 0.3

> <PUBCHEM_EFFECTIVE_ROTOR_COUNT>
15

> <PUBCHEM_PHARMACOPHORE_FEATURES>
12
1 1 acceptor
1 1 donor
1 2 acceptor
1 27 hydrophobe
1 3 acceptor
1 4 acceptor
1 7 donor
1 8 donor
3 16 20 21 hydrophobe
3 17 19 23 hydrophobe
3 22 24 25 hydrophobe
5 6 9 10 11 12 rings

> <PUBCHEM_HEAVY_ATOM_COUNT>
27

> <PUBCHEM_ATOM_DEF_STEREO_COUNT>
3

> <PUBCHEM_ATOM_UDEF_STEREO_COUNT>
0

> <PUBCHEM_BOND_DEF_STEREO_COUNT>
0

> <PUBCHEM_BOND_UDEF_STEREO_COUNT>
0

> <PUBCHEM_ISOTOPIC_ATOM_COUNT>
0

> <PUBCHEM_COMPONENT_COUNT>
1

> <PUBCHEM_CACTVS_TAUTO_COUNT>
6

> <PUBCHEM_CONFORMER_ID>
0006C4D000000001

> <PUBCHEM_MMFF94_ENERGY>
48.2406

> <PUBCHEM_FEATURE_SELFOVERLAP>
60.907

> <PUBCHEM_SHAPE_FINGERPRINT>
10670039 82 18340193129883470342
11056379 131 18410849971397522847
12107183 9 17767701803455933666
12403259 415 18186799214731099200
12403260 363 18272937094233587032
12633257 1 16988279897758124568
12788726 201 18271804566875975154
12930653 34 18337678627804599287
13955234 65 16968571375448595057
14178342 30 18269836574232180629
14294032 229 18337656612245514201
15163728 17 18196921374389563820
17349148 13 17846213332774364698
17980427 23 17775278391837901812
21033648 29 18115609122598980792
21796203 349 17694468513861351931
22393880 68 18263636441301651406
23402539 116 18201727215060391699
23557571 272 18188764067141786181
23558518 356 18200027473089426691
23559900 14 17902238045993636642
283562 15 18341613694316398067
439807 62 17486494790167500707
469060 322 18336532825372689995
633830 44 16805315643736297712

> <PUBCHEM_SHAPE_MULTIPOLES>
511.36
12.2
5.39
1.63
4.51
5.13
-0.25
-4.77
0.48
-12.83
-0.31
2.17
-0.08
-0.22

> <PUBCHEM_SHAPE_SELFOVERLAP>
1004.321

> <PUBCHEM_SHAPE_VOLUME>
307.3

> <PUBCHEM_COORDINATE_TYPE>
2
5
10

$$$$

