13694
  -OEChem-06241222403D

 24 26  0     0  0  0  0  0  0999 V2000
    1.7679    3.1740   -0.0008 Cl  0  0  0  0  0  0  0  0  0  0  0  0
    0.5376   -0.7083    0.0001 C   0  0  0  0  0  0  0  0  0  0  0  0
   -0.8905   -0.5246    0.0000 C   0  0  0  0  0  0  0  0  0  0  0  0
    1.3827    0.4321    0.0003 C   0  0  0  0  0  0  0  0  0  0  0  0
   -1.4188    0.7929    0.0002 C   0  0  0  0  0  0  0  0  0  0  0  0
    0.8249    1.7133    0.0006 C   0  0  0  0  0  0  0  0  0  0  0  0
   -0.5547    1.8909    0.0004 C   0  0  0  0  0  0  0  0  0  0  0  0
    1.1764   -1.9736    0.0000 C   0  0  0  0  0  0  0  0  0  0  0  0
   -1.8295   -1.5866    0.0000 C   0  0  0  0  0  0  0  0  0  0  0  0
    2.7804    0.2863    0.0001 C   0  0  0  0  0  0  0  0  0  0  0  0
   -2.8080    1.0062   -0.0001 C   0  0  0  0  0  0  0  0  0  0  0  0
    2.5678   -2.1045   -0.0001 C   0  0  0  0  0  0  0  0  0  0  0  0
   -3.2085   -1.3605   -0.0001 C   0  0  0  0  0  0  0  0  0  0  0  0
    3.3700   -0.9740   -0.0002 C   0  0  0  0  0  0  0  0  0  0  0  0
   -3.6977   -0.0636   -0.0003 C   0  0  0  0  0  0  0  0  0  0  0  0
   -0.9687    2.8989    0.0003 H   0  0  0  0  0  0  0  0  0  0  0  0
    0.5990   -2.8945   -0.0001 H   0  0  0  0  0  0  0  0  0  0  0  0
   -1.5043   -2.6239    0.0000 H   0  0  0  0  0  0  0  0  0  0  0  0
    3.4562    1.1374    0.0003 H   0  0  0  0  0  0  0  0  0  0  0  0
   -3.2129    2.0167   -0.0001 H   0  0  0  0  0  0  0  0  0  0  0  0
    3.0188   -3.0926   -0.0002 H   0  0  0  0  0  0  0  0  0  0  0  0
   -3.8953   -2.2019   -0.0001 H   0  0  0  0  0  0  0  0  0  0  0  0
    4.4514   -1.0712   -0.0003 H   0  0  0  0  0  0  0  0  0  0  0  0
   -4.7683    0.1172   -0.0005 H   0  0  0  0  0  0  0  0  0  0  0  0
  1  6  1  0  0  0  0
  2  3  1  0  0  0  0
  2  4  1  0  0  0  0
  2  8  2  0  0  0  0
  3  5  1  0  0  0  0
  3  9  2  0  0  0  0
  4  6  1  0  0  0  0
  4 10  2  0  0  0  0
  5  7  1  0  0  0  0
  5 11  2  0  0  0  0
  6  7  2  0  0  0  0
  7 16  1  0  0  0  0
  8 12  1  0  0  0  0
  8 17  1  0  0  0  0
  9 13  1  0  0  0  0
  9 18  1  0  0  0  0
 10 14  1  0  0  0  0
 10 19  1  0  0  0  0
 11 15  1  0  0  0  0
 11 20  1  0  0  0  0
 12 14  2  0  0  0  0
 12 21  1  0  0  0  0
 13 15  2  0  0  0  0
 13 22  1  0  0  0  0
 14 23  1  0  0  0  0
 15 24  1  0  0  0  0
M  END
> <PUBCHEM_COMPOUND_CID>
13694

> <PUBCHEM_CONFORMER_RMSD>
0.4

> <PUBCHEM_CONFORMER_DIVERSEORDER>
1

> <PUBCHEM_MMFF94_PARTIAL_CHARGES>
20
1 -0.18
10 -0.15
11 -0.15
12 -0.15
13 -0.15
14 -0.15
15 -0.15
16 0.15
17 0.15
18 0.15
19 0.15
20 0.15
21 0.15
22 0.15
23 0.15
24 0.15
6 0.18
7 -0.15
8 -0.15
9 -0.15

> <PUBCHEM_EFFECTIVE_ROTOR_COUNT>
0

> <PUBCHEM_PHARMACOPHORE_FEATURES>
3
6 2 3 4 5 6 7 rings
6 2 4 8 10 12 14 rings
6 3 5 9 11 13 15 rings

> <PUBCHEM_HEAVY_ATOM_COUNT>
15

> <PUBCHEM_ATOM_DEF_STEREO_COUNT>
0

> <PUBCHEM_ATOM_UDEF_STEREO_COUNT>
0

> <PUBCHEM_BOND_DEF_STEREO_COUNT>
0

> <PUBCHEM_BOND_UDEF_STEREO_COUNT>
0

> <PUBCHEM_ISOTOPIC_ATOM_COUNT>
0

> <PUBCHEM_COMPONENT_COUNT>
1

> <PUBCHEM_CACTVS_TAUTO_COUNT>
1

> <PUBCHEM_CONFORMER_ID>
0000357E00000001

> <PUBCHEM_MMFF94_ENERGY>
51.9673

> <PUBCHEM_FEATURE_SELFOVERLAP>
15.272

> <PUBCHEM_SHAPE_FINGERPRINT>
10608611 8 18412831265665471357
10967382 1 18266459802129597542
11132069 177 18338241560599081610
11471102 20 18411142428684555335
12032990 46 18337949094674667654
12382932 28 18336830912902989042
12553582 1 18338512061807620330
13140716 1 18266741277101085833
13221675 6 18410855477424328887
13380535 76 17980486654815122504
13897977 150 18339645516741460125
14144814 61 18409729594771215107
14648413 74 18341049614448928697
14790565 3 17472407124936080872
15001771 113 18336822078123723041
15196674 1 18410855490214207271
15375462 189 18201152273315511851
15442244 35 18337106868968069529
15536298 74 18261391096744508360
16945 1 18410575093363958693
17990270 104 18411703166445086482
193761 8 17978509732897825090
19591789 44 16970819295951223922
19868273 325 18340204223203707606
200 152 18041292010579976567
20201158 50 18412265047120618435
20510252 161 17829897881761889560
20559304 39 18410853235482873500
20645477 70 18269001895110539383
21267235 1 18338507629449369799
21501502 16 18337388228186287437
221490 88 18269266876859205291
22721475 48 18410852191747798287
2334 1 18050285864696205729
23366157 5 18059579019027121916
23402539 116 18118698831038392479
23463225 33 18411418440204525926
23552423 10 18339642226828010509
23559900 14 18120662593993883810
2748010 2 18052252899556472700
3071541 12 18338231544740920716
3071541 158 18343584053143956348
3091708 16 9069922545158092984
335352 9 18266459999903971325
34934 24 18339652255407971498
352729 6 17114944392590802980
43471831 8 17907302052620934104
5104073 3 18410293635567189675
7364860 26 18336546006347784872
7832392 63 18336827610226119097
81228 2 17976529834615450424
84936 182 17970344802410444105
8809292 202 18272645749200776659
9709674 26 18410853231325666879

> <PUBCHEM_SHAPE_MULTIPOLES>
310.56
5.37
2.86
0.62
2.05
1.38
0
-1.56
0
-1.71
0
0
0.01
0

> <PUBCHEM_SHAPE_SELFOVERLAP>
691.765

> <PUBCHEM_SHAPE_VOLUME>
158.3

> <PUBCHEM_COORDINATE_TYPE>
2
5
10

$$$$

