442949
  -OEChem-07051213002D

 28 30  0     1  0  0  0  0  0999 V2000
    2.0000   -0.5446    0.0000 O   0  0  0  0  0  0  0  0  0  0  0  0
    3.7608   -0.3627    0.0000 N   0  0  0  0  0  0  0  0  0  0  0  0
    8.6914    0.0584    0.0000 N   0  0  0  0  0  0  0  0  0  0  0  0
    6.4683    1.4397    0.0000 C   0  0  2  0  0  0  0  0  0  0  0  0
    6.2095    0.4737    0.0000 C   0  0  1  0  0  0  0  0  0  0  0  0
    5.7317    2.4223    0.0000 C   0  0  0  0  0  0  0  0  0  0  0  0
    3.8654    0.6318    0.0000 C   0  0  0  0  0  0  0  0  0  0  0  0
    8.3330    0.9920    0.0000 C   0  0  0  0  0  0  0  0  0  0  0  0
    7.9142   -0.5709    0.0000 C   0  0  0  0  0  0  0  0  0  0  0  0
    4.6744   -0.7694    0.0000 C   0  0  0  0  0  0  0  0  0  0  0  0
    4.7992   -1.8035    0.0000 C   0  0  0  0  0  0  0  0  0  0  0  0
    2.9088   -0.9619    0.0000 C   0  0  0  0  0  0  0  0  0  0  0  0
    3.9612   -2.4223    0.0000 C   0  0  0  0  0  0  0  0  0  0  0  0
    3.0097   -1.9986    0.0000 C   0  0  0  0  0  0  0  0  0  0  0  0
    6.6883    2.2607    0.0000 H   0  0  0  0  0  0  0  0  0  0  0  0
    5.9895   -0.3473    0.0000 H   0  0  0  0  0  0  0  0  0  0  0  0
    6.0495    2.9546    0.0000 H   0  0  0  0  0  0  0  0  0  0  0  0
    5.1186    2.5142    0.0000 H   0  0  0  0  0  0  0  0  0  0  0  0
    3.7631    1.2434    0.0000 H   0  0  0  0  0  0  0  0  0  0  0  0
    3.2456    0.6129    0.0000 H   0  0  0  0  0  0  0  0  0  0  0  0
    8.9445    1.0943    0.0000 H   0  0  0  0  0  0  0  0  0  0  0  0
    8.3546    1.6116    0.0000 H   0  0  0  0  0  0  0  0  0  0  0  0
    7.5325   -1.0595    0.0000 H   0  0  0  0  0  0  0  0  0  0  0  0
    8.3564   -1.0055    0.0000 H   0  0  0  0  0  0  0  0  0  0  0  0
    9.2902   -0.1021    0.0000 H   0  0  0  0  0  0  0  0  0  0  0  0
    5.3685   -2.0492    0.0000 H   0  0  0  0  0  0  0  0  0  0  0  0
    4.0284   -3.0386    0.0000 H   0  0  0  0  0  0  0  0  0  0  0  0
    2.5067   -2.3611    0.0000 H   0  0  0  0  0  0  0  0  0  0  0  0
  1 12  2  0  0  0  0
  2  7  1  0  0  0  0
  2 10  1  0  0  0  0
  2 12  1  0  0  0  0
  3  8  1  0  0  0  0
  3  9  1  0  0  0  0
  3 25  1  0  0  0  0
  4  6  1  0  0  0  0
  4  7  1  0  0  0  0
  4  8  1  0  0  0  0
  4 15  1  6  0  0  0
  5  6  1  0  0  0  0
  5  9  1  0  0  0  0
  5 10  1  0  0  0  0
  5 16  1  6  0  0  0
  6 17  1  0  0  0  0
  6 18  1  0  0  0  0
  7 19  1  0  0  0  0
  7 20  1  0  0  0  0
  8 21  1  0  0  0  0
  8 22  1  0  0  0  0
  9 23  1  0  0  0  0
  9 24  1  0  0  0  0
 10 11  2  0  0  0  0
 11 13  1  0  0  0  0
 11 26  1  0  0  0  0
 12 14  1  0  0  0  0
 13 14  2  0  0  0  0
 13 27  1  0  0  0  0
 14 28  1  0  0  0  0
M  END
> <PUBCHEM_COMPOUND_CID>
442949

> <PUBCHEM_COMPOUND_CANONICALIZED>
1

> <PUBCHEM_CACTVS_COMPLEXITY>
332

> <PUBCHEM_CACTVS_HBOND_ACCEPTOR>
2

> <PUBCHEM_CACTVS_HBOND_DONOR>
1

> <PUBCHEM_CACTVS_ROTATABLE_BOND>
0

> <PUBCHEM_CACTVS_SUBSKEYS>
AAADccBzIAAAAAAAAAAAAAAAAAAAAAAAAAAsWIAAAAAWAACAAAAAHgAQAAAADQjBgAQAAAPAAACIACVSUACAAAAgAgAICIAIAEgIAAIAwQAEAAAAlgCIgYIQAAAMAAAAAAAAAAAAAAAAAAAAAAAAAAAAAA==

> <PUBCHEM_IUPAC_INCHI>
InChI=1S/C11H14N2O/c14-11-3-1-2-10-9-4-8(5-12-6-9)7-13(10)11/h1-3,8-9,12H,4-7H2/t8-,9-/m0/s1

> <PUBCHEM_IUPAC_INCHIKEY>
ANJTVLIZGCUXLD-IUCAKERBSA-N

> <PUBCHEM_XLOGP3_AA>
0.2

> <PUBCHEM_EXACT_MASS>
190.110613

> <PUBCHEM_MOLECULAR_FORMULA>
C11H14N2O

> <PUBCHEM_MOLECULAR_WEIGHT>
190.24166

> <PUBCHEM_OPENEYE_CAN_SMILES>
C1C2CNCC1C3=CC=CC(=O)N3C2

> <PUBCHEM_OPENEYE_ISO_SMILES>
C1[C@H]2CNC[C@H]1C3=CC=CC(=O)N3C2

> <PUBCHEM_CACTVS_TPSA>
32.3

> <PUBCHEM_MONOISOTOPIC_WEIGHT>
190.110613

> <PUBCHEM_TOTAL_CHARGE>
0

> <PUBCHEM_HEAVY_ATOM_COUNT>
14

> <PUBCHEM_ATOM_DEF_STEREO_COUNT>
2

> <PUBCHEM_ATOM_UDEF_STEREO_COUNT>
0

> <PUBCHEM_BOND_DEF_STEREO_COUNT>
0

> <PUBCHEM_BOND_UDEF_STEREO_COUNT>
0

> <PUBCHEM_ISOTOPIC_ATOM_COUNT>
0

> <PUBCHEM_COMPONENT_COUNT>
1

> <PUBCHEM_CACTVS_TAUTO_COUNT>
3

> <PUBCHEM_COORDINATE_TYPE>
1
5
255

> <PUBCHEM_BONDANNOTATIONS>
10  11  8
11  13  8
12  14  8
13  14  8
2  10  8
2  12  8
4  15  6
5  16  6

$$$$

