443670
  -OEChem-07051213023D

 38 42  0     1  0  0  0  0  0999 V2000
   -2.3826    0.2638   -2.3793 O   0  0  0  0  0  0  0  0  0  0  0  0
   -4.8052   -1.4395    0.9332 O   0  0  0  0  0  0  0  0  0  0  0  0
    3.7828   -1.7917   -0.3908 O   0  0  0  0  0  0  0  0  0  0  0  0
    4.5973    0.2940    0.4980 O   0  0  0  0  0  0  0  0  0  0  0  0
   -1.3640    2.0080    0.4082 N   0  0  2  0  0  0  0  0  0  0  0  0
   -0.9865   -0.1828   -0.3737 C   0  0  1  0  0  0  0  0  0  0  0  0
   -1.6730    0.6078    0.7721 C   0  0  2  0  0  0  0  0  0  0  0  0
   -1.2563    0.7000   -1.6248 C   0  0  2  0  0  0  0  0  0  0  0  0
   -1.5778    2.0868   -1.0540 C   0  0  0  0  0  0  0  0  0  0  0  0
    0.5315   -0.0909   -0.1043 C   0  0  0  0  0  0  0  0  0  0  0  0
   -3.1739    0.3297    0.9009 C   0  0  0  0  0  0  0  0  0  0  0  0
    0.0570    2.2692    0.7508 C   0  0  0  0  0  0  0  0  0  0  0  0
   -1.5370   -1.5855   -0.4923 C   0  0  0  0  0  0  0  0  0  0  0  0
    1.0257    1.1490    0.4090 C   0  0  0  0  0  0  0  0  0  0  0  0
   -3.4178   -1.1675    1.1143 C   0  0  2  0  0  0  0  0  0  0  0  0
   -2.6089   -2.0260    0.1846 C   0  0  0  0  0  0  0  0  0  0  0  0
    1.4364   -1.1217   -0.4015 C   0  0  0  0  0  0  0  0  0  0  0  0
    2.3965    1.3347    0.6394 C   0  0  0  0  0  0  0  0  0  0  0  0
    2.7791   -0.8997   -0.1626 C   0  0  0  0  0  0  0  0  0  0  0  0
    3.2451    0.2907    0.3425 C   0  0  0  0  0  0  0  0  0  0  0  0
    4.9314   -1.0284    0.0305 C   0  0  0  0  0  0  0  0  0  0  0  0
   -1.2380    0.3615    1.7537 H   0  0  0  0  0  0  0  0  0  0  0  0
   -0.4008    0.7384   -2.3090 H   0  0  0  0  0  0  0  0  0  0  0  0
   -0.9585    2.8634   -1.5183 H   0  0  0  0  0  0  0  0  0  0  0  0
   -2.6181    2.3741   -1.2485 H   0  0  0  0  0  0  0  0  0  0  0  0
   -3.7501    0.6881    0.0416 H   0  0  0  0  0  0  0  0  0  0  0  0
   -3.5834    0.8861    1.7547 H   0  0  0  0  0  0  0  0  0  0  0  0
    0.1081    2.4314    1.8355 H   0  0  0  0  0  0  0  0  0  0  0  0
    0.3879    3.2044    0.2820 H   0  0  0  0  0  0  0  0  0  0  0  0
   -1.0605   -2.2744   -1.1847 H   0  0  0  0  0  0  0  0  0  0  0  0
   -3.1628   -1.4472    2.1434 H   0  0  0  0  0  0  0  0  0  0  0  0
   -2.9233   -3.0577    0.0502 H   0  0  0  0  0  0  0  0  0  0  0  0
    1.1190   -2.0711   -0.8157 H   0  0  0  0  0  0  0  0  0  0  0  0
   -3.1652    0.2374   -1.8081 H   0  0  0  0  0  0  0  0  0  0  0  0
    2.7774    2.2682    1.0395 H   0  0  0  0  0  0  0  0  0  0  0  0
   -5.2966   -0.8887    1.5665 H   0  0  0  0  0  0  0  0  0  0  0  0
    5.6221   -0.9376   -0.8156 H   0  0  0  0  0  0  0  0  0  0  0  0
    5.4352   -1.5699    0.8395 H   0  0  0  0  0  0  0  0  0  0  0  0
  1  8  1  0  0  0  0
  1 34  1  0  0  0  0
  2 15  1  0  0  0  0
  2 36  1  0  0  0  0
  3 19  1  0  0  0  0
  3 21  1  0  0  0  0
  4 20  1  0  0  0  0
  4 21  1  0  0  0  0
  5  7  1  0  0  0  0
  5  9  1  0  0  0  0
  5 12  1  0  0  0  0
  6  7  1  0  0  0  0
  6  8  1  0  0  0  0
  6 10  1  0  0  0  0
  6 13  1  0  0  0  0
  7 11  1  0  0  0  0
  7 22  1  0  0  0  0
  8  9  1  0  0  0  0
  8 23  1  0  0  0  0
  9 24  1  0  0  0  0
  9 25  1  0  0  0  0
 10 14  1  0  0  0  0
 10 17  2  0  0  0  0
 11 15  1  0  0  0  0
 11 26  1  0  0  0  0
 11 27  1  0  0  0  0
 12 14  1  0  0  0  0
 12 28  1  0  0  0  0
 12 29  1  0  0  0  0
 13 16  2  0  0  0  0
 13 30  1  0  0  0  0
 14 18  2  0  0  0  0
 15 16  1  0  0  0  0
 15 31  1  0  0  0  0
 16 32  1  0  0  0  0
 17 19  1  0  0  0  0
 17 33  1  0  0  0  0
 18 20  1  0  0  0  0
 18 35  1  0  0  0  0
 19 20  2  0  0  0  0
 21 37  1  0  0  0  0
 21 38  1  0  0  0  0
M  END
> <PUBCHEM_COMPOUND_CID>
443670

> <PUBCHEM_CONFORMER_RMSD>
0.6

> <PUBCHEM_CONFORMER_DIVERSEORDER>
1

> <PUBCHEM_MMFF94_PARTIAL_CHARGES>
26
1 -0.68
10 -0.14
12 0.41
13 -0.29
14 -0.14
15 0.42
16 -0.29
17 -0.15
18 -0.15
19 0.08
2 -0.68
20 0.08
21 0.56
3 -0.36
30 0.15
32 0.15
33 0.15
34 0.4
35 0.15
36 0.4
4 -0.36
5 -0.81
6 0.28
7 0.27
8 0.28
9 0.27

> <PUBCHEM_EFFECTIVE_ROTOR_COUNT>
1.6

> <PUBCHEM_PHARMACOPHORE_FEATURES>
11
1 1 acceptor
1 1 donor
1 2 acceptor
1 2 donor
1 3 acceptor
1 4 acceptor
1 5 cation
5 3 4 19 20 21 rings
6 10 14 17 18 19 20 rings
6 6 7 11 13 15 16 rings
8 5 6 7 8 9 10 12 14 rings

> <PUBCHEM_HEAVY_ATOM_COUNT>
21

> <PUBCHEM_ATOM_DEF_STEREO_COUNT>
4

> <PUBCHEM_ATOM_UDEF_STEREO_COUNT>
0

> <PUBCHEM_BOND_DEF_STEREO_COUNT>
0

> <PUBCHEM_BOND_UDEF_STEREO_COUNT>
0

> <PUBCHEM_ISOTOPIC_ATOM_COUNT>
0

> <PUBCHEM_COMPONENT_COUNT>
1

> <PUBCHEM_CACTVS_TAUTO_COUNT>
1

> <PUBCHEM_CONFORMER_ID>
0006C51600000001

> <PUBCHEM_MMFF94_ENERGY>
67.2561

> <PUBCHEM_FEATURE_SELFOVERLAP>
56.01

> <PUBCHEM_SHAPE_FINGERPRINT>
11578080 2 17916876720319958517
12011746 2 18408885165994261781
12251169 10 18114455669838370283
12403814 3 18060134332153865421
12553582 1 18259707787703052278
12633257 1 18041542677371417699
12714826 92 17988649592343012495
13024252 1 13686005553603188909
13140716 1 18119248368104639738
13214271 11 18187644742829509697
13224815 77 18413389835042108758
13296908 3 18411703227149550562
13544653 18 18270390599481158691
13583140 156 5906044855268497102
14223421 5 18264764527199043670
14787075 74 18199182898156621034
14790565 3 17473256574714159848
15209289 33 18343577434763046098
15309172 13 17385724711713484862
15375462 478 17676478420217544515
15653759 3 18342175587660112290
16752209 62 16271940293775308363
16945 1 18335149665224652492
17357779 13 18199766768800958327
17804303 29 18335410279391926970
17844478 74 18342175557252579588
17980427 23 17313369137994330425
1813 80 17703504394300305933
18927931 339 18187651370760853566
19141452 34 18334290925527472563
200 152 17749968703496939885
21267235 1 18335688425864364098
21330990 113 18200586008148166139
21521721 280 10375867473070889167
23419403 2 18198356073897421429
23493267 7 18057896924781078224
23557571 272 17703797981079977844
23559900 14 18191594266903203922
2748010 2 18262534636198177604
350125 39 18410286983127187792
3759504 43 18054795254224808933
5104073 3 18261960760364706578
6786 2 16766214999944612653
83771 10 18341326721417343666
8809292 202 18411696599793713770
9709674 26 18043534017789307102

> <PUBCHEM_SHAPE_MULTIPOLES>
403.71
7.62
2.21
1.27
5.35
0.37
-0.61
-4
1.75
-0.7
0.11
-1.18
0.25
0.91

> <PUBCHEM_SHAPE_SELFOVERLAP>
914.964

> <PUBCHEM_SHAPE_VOLUME>
211

> <PUBCHEM_COORDINATE_TYPE>
2
5
10

$$$$

