5280632
  -OEChem-07051212493D

 44 46  0     0  0  0  0  0  0999 V2000
    1.1533   -3.5099   -0.7798 S   0  0  0  0  0  0  0  0  0  0  0  0
   -6.1787    2.2675   -0.8130 S   0  0  0  0  0  0  0  0  0  0  0  0
    6.5702    1.2729   -0.2976 S   0  0  0  0  0  0  0  0  0  0  0  0
   -0.8613    0.7841    0.3100 O   0  0  0  0  0  0  0  0  0  0  0  0
    1.0540   -2.3649    0.3677 O   0  0  0  0  0  0  0  0  0  0  0  0
   -5.4869    1.8077    0.6060 O   0  0  0  0  0  0  0  0  0  0  0  0
   -4.1502   -2.7454    0.7719 O   0  0  0  0  0  0  0  0  0  0  0  0
   -1.5832   -3.2151    0.6090 O   0  0  0  0  0  0  0  0  0  0  0  0
    5.2401    2.2380   -0.2591 O   0  0  0  0  0  0  0  0  0  0  0  0
    4.1584    1.8108    2.2646 O   0  0  0  0  0  0  0  0  0  0  0  0
    2.5865   -4.2362   -0.4922 O   0  0  0  0  0  0  0  0  0  0  0  0
    1.2264   -2.8736   -2.0822 O   0  0  0  0  0  0  0  0  0  0  0  0
    0.1094   -4.4785   -0.5004 O   0  0  0  0  0  0  0  0  0  0  0  0
   -7.1951    3.4694   -0.3805 O   0  0  0  0  0  0  0  0  0  0  0  0
   -5.1576    2.8351   -1.6742 O   0  0  0  0  0  0  0  0  0  0  0  0
   -6.9916    1.1617   -1.2851 O   0  0  0  0  0  0  0  0  0  0  0  0
    7.8168    2.3264   -0.3281 O   0  0  0  0  0  0  0  0  0  0  0  0
    6.6480    0.5255    0.9440 O   0  0  0  0  0  0  0  0  0  0  0  0
    6.5664    0.5696   -1.5672 O   0  0  0  0  0  0  0  0  0  0  0  0
   -2.4607   -1.0272    0.5394 C   0  0  0  0  0  0  0  0  0  0  0  0
    0.1698   -0.1414    0.2740 C   0  0  0  0  0  0  0  0  0  0  0  0
   -2.1474    0.3262    0.4352 C   0  0  0  0  0  0  0  0  0  0  0  0
    0.0035   -1.4729    0.3739 C   0  0  0  0  0  0  0  0  0  0  0  0
    1.4978    0.4826    0.1377 C   0  0  0  0  0  0  0  0  0  0  0  0
   -1.3698   -2.0138    0.5155 C   0  0  0  0  0  0  0  0  0  0  0  0
   -3.7907   -1.4359    0.6663 C   0  0  0  0  0  0  0  0  0  0  0  0
   -3.1638    1.2815    0.4578 C   0  0  0  0  0  0  0  0  0  0  0  0
   -4.4930    0.8775    0.5840 C   0  0  0  0  0  0  0  0  0  0  0  0
   -4.8056   -0.4785    0.6879 C   0  0  0  0  0  0  0  0  0  0  0  0
    2.2129    0.8575    1.2755 C   0  0  0  0  0  0  0  0  0  0  0  0
    2.0408    0.6986   -1.1291 C   0  0  0  0  0  0  0  0  0  0  0  0
    3.4703    1.4478    1.1466 C   0  0  0  0  0  0  0  0  0  0  0  0
    4.0127    1.6636   -0.1202 C   0  0  0  0  0  0  0  0  0  0  0  0
    3.2979    1.2892   -1.2581 C   0  0  0  0  0  0  0  0  0  0  0  0
   -2.9215    2.3384    0.3791 H   0  0  0  0  0  0  0  0  0  0  0  0
   -5.8429   -0.7892    0.7884 H   0  0  0  0  0  0  0  0  0  0  0  0
    1.7970    0.6933    2.2672 H   0  0  0  0  0  0  0  0  0  0  0  0
    1.4954    0.4124   -2.0251 H   0  0  0  0  0  0  0  0  0  0  0  0
    3.7130    1.4557   -2.2483 H   0  0  0  0  0  0  0  0  0  0  0  0
   -3.3679   -3.3169    0.7395 H   0  0  0  0  0  0  0  0  0  0  0  0
    4.9950    2.2250    1.9911 H   0  0  0  0  0  0  0  0  0  0  0  0
    2.7607   -4.4652    0.4508 H   0  0  0  0  0  0  0  0  0  0  0  0
   -7.7600    3.2807    0.4053 H   0  0  0  0  0  0  0  0  0  0  0  0
    7.7263    3.0673   -0.9723 H   0  0  0  0  0  0  0  0  0  0  0  0
  1  5  1  0  0  0  0
  1 11  1  0  0  0  0
  1 12  2  0  0  0  0
  1 13  2  0  0  0  0
  2  6  1  0  0  0  0
  2 14  1  0  0  0  0
  2 15  2  0  0  0  0
  2 16  2  0  0  0  0
  3  9  1  0  0  0  0
  3 17  1  0  0  0  0
  3 18  2  0  0  0  0
  3 19  2  0  0  0  0
  4 21  1  0  0  0  0
  4 22  1  0  0  0  0
  5 23  1  0  0  0  0
  6 28  1  0  0  0  0
  7 26  1  0  0  0  0
  7 40  1  0  0  0  0
  8 25  2  0  0  0  0
  9 33  1  0  0  0  0
 10 32  1  0  0  0  0
 10 41  1  0  0  0  0
 11 42  1  0  0  0  0
 14 43  1  0  0  0  0
 17 44  1  0  0  0  0
 20 22  1  0  0  0  0
 20 25  1  0  0  0  0
 20 26  2  0  0  0  0
 21 23  2  0  0  0  0
 21 24  1  0  0  0  0
 22 27  2  0  0  0  0
 23 25  1  0  0  0  0
 24 30  2  0  0  0  0
 24 31  1  0  0  0  0
 26 29  1  0  0  0  0
 27 28  1  0  0  0  0
 27 35  1  0  0  0  0
 28 29  2  0  0  0  0
 29 36  1  0  0  0  0
 30 32  1  0  0  0  0
 30 37  1  0  0  0  0
 31 34  2  0  0  0  0
 31 38  1  0  0  0  0
 32 33  2  0  0  0  0
 33 34  1  0  0  0  0
 34 39  1  0  0  0  0
M  END
> <PUBCHEM_COMPOUND_CID>
5280632

> <PUBCHEM_CONFORMER_RMSD>
1

> <PUBCHEM_CONFORMER_DIVERSEORDER>
1
3
23
14
15
13
26
24
21
11
16
22
7
18
6
10
25
4
9
5
2
19
17
20
12
8

> <PUBCHEM_MMFF94_PARTIAL_CHARGES>
44
1 1.67
10 -0.53
11 -0.68
12 -0.65
13 -0.65
14 -0.68
15 -0.65
16 -0.65
17 -0.68
18 -0.65
19 -0.65
2 1.67
20 0.09
21 0.05
22 0.08
23 0.09
24 0.03
25 0.47
26 0.08
27 -0.15
28 0.08
29 -0.15
3 1.67
30 -0.15
31 -0.15
32 0.08
33 0.08
34 -0.15
35 0.15
36 0.15
37 0.15
38 0.15
39 0.15
4 -0.16
40 0.45
41 0.45
42 0.5
43 0.5
44 0.5
5 -0.26
6 -0.27
7 -0.53
8 -0.57
9 -0.27

> <PUBCHEM_EFFECTIVE_ROTOR_COUNT>
7

> <PUBCHEM_PHARMACOPHORE_FEATURES>
19
1 10 donor
1 11 acceptor
1 12 acceptor
1 13 acceptor
1 14 acceptor
1 15 acceptor
1 16 acceptor
1 17 acceptor
1 18 acceptor
1 19 acceptor
1 4 acceptor
1 7 donor
1 8 acceptor
4 1 11 12 13 anion
4 2 14 15 16 anion
4 3 17 18 19 anion
6 20 22 26 27 28 29 rings
6 24 30 31 32 33 34 rings
6 4 20 21 22 23 25 rings

> <PUBCHEM_HEAVY_ATOM_COUNT>
34

> <PUBCHEM_ATOM_DEF_STEREO_COUNT>
0

> <PUBCHEM_ATOM_UDEF_STEREO_COUNT>
0

> <PUBCHEM_BOND_DEF_STEREO_COUNT>
0

> <PUBCHEM_BOND_UDEF_STEREO_COUNT>
0

> <PUBCHEM_ISOTOPIC_ATOM_COUNT>
0

> <PUBCHEM_COMPONENT_COUNT>
1

> <PUBCHEM_CACTVS_TAUTO_COUNT>
14

> <PUBCHEM_CONFORMER_ID>
0050937800000001

> <PUBCHEM_MMFF94_ENERGY>
90.1791

> <PUBCHEM_FEATURE_SELFOVERLAP>
96.654

> <PUBCHEM_SHAPE_FINGERPRINT>
10 15 17775563148692177641
10050765 1 18412824720568361843
11135926 11 18261666060714406937
11297010 23 18335143149590362932
11578080 2 18201155559224079695
11796584 16 18263073333230550474
12106331 60 18053669075293207595
12236239 1 17775004519132665688
12422481 6 18130797779891855922
12516196 113 9799694787970531256
13540713 4 18269818948425558571
14294032 229 18410008794296175067
15042514 8 17833544600696046514
15230672 131 18410569566965304550
15439362 3 18339642364167003511
15927050 60 18261670377378858558
17980427 23 17560799888375376421
18681886 176 18268427937045591112
20554085 129 18114476620915518688
20771845 165 18200030788962285573
21033648 144 18337667620552181173
21033648 29 18261967232464261496
21279426 13 18261377967509526238
21859007 373 18411990143824224548
22121540 332 18199474448873518356
22149856 69 18126543817973315273
22182313 1 18270100401995744587
23522609 53 17059760149328296620
23559900 14 18336819879047459973
23569943 247 4820728962675643108
3298306 158 18187074032508877958
3388396 114 18114186401623692417
3411729 13 18271527597536086586
376196 1 18410582768729135947
4015057 19 16298948628385142368
5265222 85 18121205486660542404
5385378 56 18263066833805952058
6086070 43 17967823712346821240
6371380 46 18187931638888554088
9981440 41 18340476773312964883

> <PUBCHEM_SHAPE_MULTIPOLES>
617.34
17.26
4.61
1.37
3.48
5.11
0.16
-20.2
3.01
-1.69
1.29
0.61
-0.27
2.34

> <PUBCHEM_SHAPE_SELFOVERLAP>
1316.587

> <PUBCHEM_SHAPE_VOLUME>
343.3

> <PUBCHEM_COORDINATE_TYPE>
2
5
10

$$$$

