7971
  -OEChem-06261202313D

 12 12  0     0  0  0  0  0  0999 V2000
   -2.3519   -0.0466    0.0000 O   0  0  0  0  0  0  0  0  0  0  0  0
    1.1054   -1.1998    0.0000 N   0  0  0  0  0  0  0  0  0  0  0  0
   -0.9968   -0.0058    0.0000 C   0  0  0  0  0  0  0  0  0  0  0  0
   -0.3165    1.2068    0.0000 C   0  0  0  0  0  0  0  0  0  0  0  0
    1.0740    1.2176   -0.0001 C   0  0  0  0  0  0  0  0  0  0  0  0
   -0.2462   -1.1705    0.0000 C   0  0  0  0  0  0  0  0  0  0  0  0
    1.7320   -0.0018    0.0001 C   0  0  0  0  0  0  0  0  0  0  0  0
   -0.8638    2.1452    0.0000 H   0  0  0  0  0  0  0  0  0  0  0  0
    1.6252    2.1509   -0.0001 H   0  0  0  0  0  0  0  0  0  0  0  0
   -0.7194   -2.1476   -0.0001 H   0  0  0  0  0  0  0  0  0  0  0  0
    2.8160   -0.0478    0.0000 H   0  0  0  0  0  0  0  0  0  0  0  0
   -2.6381   -0.9763    0.0000 H   0  0  0  0  0  0  0  0  0  0  0  0
  1  3  1  0  0  0  0
  1 12  1  0  0  0  0
  2  6  1  0  0  0  0
  2  7  2  0  0  0  0
  3  4  1  0  0  0  0
  3  6  2  0  0  0  0
  4  5  2  0  0  0  0
  4  8  1  0  0  0  0
  5  7  1  0  0  0  0
  5  9  1  0  0  0  0
  6 10  1  0  0  0  0
  7 11  1  0  0  0  0
M  END
> <PUBCHEM_COMPOUND_CID>
7971

> <PUBCHEM_CONFORMER_RMSD>
0.4

> <PUBCHEM_CONFORMER_DIVERSEORDER>
1

> <PUBCHEM_MMFF94_PARTIAL_CHARGES>
12
1 -0.53
10 0.15
11 0.15
12 0.45
2 -0.62
3 0.08
4 -0.15
5 -0.15
6 0.16
7 0.16
8 0.15
9 0.15

> <PUBCHEM_EFFECTIVE_ROTOR_COUNT>
0

> <PUBCHEM_PHARMACOPHORE_FEATURES>
3
1 1 donor
1 2 acceptor
6 2 3 4 5 6 7 rings

> <PUBCHEM_HEAVY_ATOM_COUNT>
7

> <PUBCHEM_ATOM_DEF_STEREO_COUNT>
0

> <PUBCHEM_ATOM_UDEF_STEREO_COUNT>
0

> <PUBCHEM_BOND_DEF_STEREO_COUNT>
0

> <PUBCHEM_BOND_UDEF_STEREO_COUNT>
0

> <PUBCHEM_ISOTOPIC_ATOM_COUNT>
0

> <PUBCHEM_COMPONENT_COUNT>
1

> <PUBCHEM_CACTVS_TAUTO_COUNT>
3

> <PUBCHEM_CONFORMER_ID>
00001F2300000001

> <PUBCHEM_MMFF94_ENERGY>
15.5998

> <PUBCHEM_FEATURE_SELFOVERLAP>
15.223

> <PUBCHEM_SHAPE_FINGERPRINT>
18185500 45 18408046207982595143
20096714 4 18337953368182600616
21040471 1 18194402186643362788
23552423 10 17767672124979054110
29004967 10 18343295976870784577

> <PUBCHEM_SHAPE_MULTIPOLES>
133.21
2.16
1.42
0.59
0.68
0.01
0
-0.03
0
-0.27
0
-0.02
-0.02
0

> <PUBCHEM_SHAPE_SELFOVERLAP>
275.227

> <PUBCHEM_SHAPE_VOLUME>
75.4

> <PUBCHEM_COORDINATE_TYPE>
2
5
10

$$$$

