443746
  -OEChem-07051213032D

 45 46  0     1  0  0  0  0  0999 V2000
    3.9563    1.2710    0.0000 Si  0  0  0  0  0  0  0  0  0  0  0  0
    4.9344    1.0631    0.0000 O   0  0  0  0  0  0  0  0  0  0  0  0
    7.1407    0.1077    0.0000 O   0  0  0  0  0  0  0  0  0  0  0  0
    7.1407   -1.5017    0.0000 O   0  0  0  0  0  0  0  0  0  0  0  0
    4.9344   -2.4571    0.0000 O   0  0  0  0  0  0  0  0  0  0  0  0
    6.1945   -0.1970    0.0000 C   0  0  1  0  0  0  0  0  0  0  0  0
    5.2435    0.1120    0.0000 C   0  0  1  0  0  0  0  0  0  0  0  0
    6.1945   -1.1970    0.0000 C   0  0  1  0  0  0  0  0  0  0  0  0
    4.6557   -0.6970    0.0000 C   0  0  0  0  0  0  0  0  0  0  0  0
    2.9782    1.4789    0.0000 C   0  0  0  0  0  0  0  0  0  0  0  0
    5.2435   -1.5060    0.0000 C   0  0  0  0  0  0  0  0  0  0  0  0
    7.7244   -0.6970    0.0000 C   0  0  0  0  0  0  0  0  0  0  0  0
    4.1642    2.2492    0.0000 C   0  0  0  0  0  0  0  0  0  0  0  0
    3.7484    0.2929    0.0000 C   0  0  0  0  0  0  0  0  0  0  0  0
    2.0000    1.6868    0.0000 C   0  0  0  0  0  0  0  0  0  0  0  0
    3.1861    2.4571    0.0000 C   0  0  0  0  0  0  0  0  0  0  0  0
    2.7702    0.5008    0.0000 C   0  0  0  0  0  0  0  0  0  0  0  0
    8.5334   -1.2848    0.0000 C   0  0  0  0  0  0  0  0  0  0  0  0
    8.5334   -0.1092    0.0000 C   0  0  0  0  0  0  0  0  0  0  0  0
    6.1956    0.6530    0.0000 H   0  0  0  0  0  0  0  0  0  0  0  0
    4.6311    0.2090    0.0000 H   0  0  0  0  0  0  0  0  0  0  0  0
    6.1956   -2.0470    0.0000 H   0  0  0  0  0  0  0  0  0  0  0  0
    4.1949   -0.2821    0.0000 H   0  0  0  0  0  0  0  0  0  0  0  0
    4.1949   -1.1118    0.0000 H   0  0  0  0  0  0  0  0  0  0  0  0
    4.7707    2.1202    0.0000 H   0  0  0  0  0  0  0  0  0  0  0  0
    4.2931    2.8556    0.0000 H   0  0  0  0  0  0  0  0  0  0  0  0
    3.5578    2.3780    0.0000 H   0  0  0  0  0  0  0  0  0  0  0  0
    3.1419    0.4218    0.0000 H   0  0  0  0  0  0  0  0  0  0  0  0
    3.6195   -0.3136    0.0000 H   0  0  0  0  0  0  0  0  0  0  0  0
    4.3548    0.1639    0.0000 H   0  0  0  0  0  0  0  0  0  0  0  0
    3.7925    2.3282    0.0000 H   0  0  0  0  0  0  0  0  0  0  0  0
    3.3150    3.0635    0.0000 H   0  0  0  0  0  0  0  0  0  0  0  0
    2.1638    0.6297    0.0000 H   0  0  0  0  0  0  0  0  0  0  0  0
    2.6413   -0.1057    0.0000 H   0  0  0  0  0  0  0  0  0  0  0  0
    3.3767    0.3719    0.0000 H   0  0  0  0  0  0  0  0  0  0  0  0
    2.1289    2.2933    0.0000 H   0  0  0  0  0  0  0  0  0  0  0  0
    1.3936    1.8157    0.0000 H   0  0  0  0  0  0  0  0  0  0  0  0
    2.5796    2.5860    0.0000 H   0  0  0  0  0  0  0  0  0  0  0  0
    1.8711    1.0804    0.0000 H   0  0  0  0  0  0  0  0  0  0  0  0
    8.1689   -1.7864    0.0000 H   0  0  0  0  0  0  0  0  0  0  0  0
    8.8978   -0.6108    0.0000 H   0  0  0  0  0  0  0  0  0  0  0  0
    9.0350    0.2552    0.0000 H   0  0  0  0  0  0  0  0  0  0  0  0
    8.1689    0.3924    0.0000 H   0  0  0  0  0  0  0  0  0  0  0  0
    9.0350   -1.6492    0.0000 H   0  0  0  0  0  0  0  0  0  0  0  0
    8.8978   -0.7832    0.0000 H   0  0  0  0  0  0  0  0  0  0  0  0
  1  2  1  0  0  0  0
  1 10  1  0  0  0  0
  1 13  1  0  0  0  0
  1 14  1  0  0  0  0
  7  2  1  1  0  0  0
  3  6  1  0  0  0  0
  3 12  1  0  0  0  0
  4  8  1  0  0  0  0
  4 12  1  0  0  0  0
  5 11  2  0  0  0  0
  6  7  1  0  0  0  0
  6  8  1  0  0  0  0
  6 20  1  1  0  0  0
  7  9  1  0  0  0  0
  7 21  1  0  0  0  0
  8 11  1  0  0  0  0
  8 22  1  1  0  0  0
  9 11  1  0  0  0  0
  9 23  1  0  0  0  0
  9 24  1  0  0  0  0
 10 15  1  0  0  0  0
 10 16  1  0  0  0  0
 10 17  1  0  0  0  0
 12 18  1  0  0  0  0
 12 19  1  0  0  0  0
 13 25  1  0  0  0  0
 13 26  1  0  0  0  0
 13 27  1  0  0  0  0
 14 28  1  0  0  0  0
 14 29  1  0  0  0  0
 14 30  1  0  0  0  0
 15 36  1  0  0  0  0
 15 37  1  0  0  0  0
 15 39  1  0  0  0  0
 16 31  1  0  0  0  0
 16 32  1  0  0  0  0
 16 38  1  0  0  0  0
 17 33  1  0  0  0  0
 17 34  1  0  0  0  0
 17 35  1  0  0  0  0
 18 40  1  0  0  0  0
 18 44  1  0  0  0  0
 18 45  1  0  0  0  0
 19 41  1  0  0  0  0
 19 42  1  0  0  0  0
 19 43  1  0  0  0  0
M  END
> <PUBCHEM_COMPOUND_CID>
443746

> <PUBCHEM_COMPOUND_CANONICALIZED>
1

> <PUBCHEM_CACTVS_COMPLEXITY>
383

> <PUBCHEM_CACTVS_HBOND_ACCEPTOR>
4

> <PUBCHEM_CACTVS_HBOND_DONOR>
0

> <PUBCHEM_CACTVS_ROTATABLE_BOND>
3

> <PUBCHEM_CACTVS_SUBSKEYS>
AAADceBwOAgAAAAAAAAAAAAAAAAAAaIAAAAAAAAAAAASAAAAAAAAGhAAAEAADBSgoAJCCAAABAEIAIAQAAIAAAAAAAAAAAFAAAARABYAAAQiAAAFIAAGAADKJAgAAAAAAAAAAAAAAAAAAAAAAAQAACAAAA==

> <PUBCHEM_IUPAC_OPENEYE_NAME>
(3aS,6R,6aR)-6-[tert-butyl(dimethyl)silyl]oxy-2,2-dimethyl-3a,5,6,6a-tetrahydrocyclopenta[d][1,3]dioxol-4-one

> <PUBCHEM_IUPAC_CAS_NAME>
(3aS,6R,6aR)-6-[tert-butyl(dimethyl)silyl]oxy-2,2-dimethyl-3a,5,6,6a-tetrahydrocyclopenta[d][1,3]dioxol-4-one

> <PUBCHEM_IUPAC_NAME>
(3aS,6R,6aR)-6-[tert-butyl(dimethyl)silyl]oxy-2,2-dimethyl-3a,5,6,6a-tetrahydrocyclopenta[d][1,3]dioxol-4-one

> <PUBCHEM_IUPAC_SYSTEMATIC_NAME>
(3aS,6R,6aR)-6-[tert-butyl(dimethyl)silyl]oxy-2,2-dimethyl-3a,5,6,6a-tetrahydrocyclopenta[d][1,3]dioxol-4-one

> <PUBCHEM_IUPAC_TRADITIONAL_NAME>
(3aS,6R,6aR)-6-[tert-butyl(dimethyl)silyl]oxy-2,2-dimethyl-3a,5,6,6a-tetrahydrocyclopenta[d][1,3]dioxol-4-one

> <PUBCHEM_IUPAC_INCHI>
InChI=1S/C14H26O4Si/c1-13(2,3)19(6,7)18-10-8-9(15)11-12(10)17-14(4,5)16-11/h10-12H,8H2,1-7H3/t10-,11-,12+/m1/s1

> <PUBCHEM_IUPAC_INCHIKEY>
KXGMFTLLBZTKAO-UTUOFQBUSA-N

> <PUBCHEM_EXACT_MASS>
286.160036

> <PUBCHEM_MOLECULAR_FORMULA>
C14H26O4Si

> <PUBCHEM_MOLECULAR_WEIGHT>
286.43934

> <PUBCHEM_OPENEYE_CAN_SMILES>
CC1(OC2C(CC(=O)C2O1)O[Si](C)(C)C(C)(C)C)C

> <PUBCHEM_OPENEYE_ISO_SMILES>
CC1(O[C@H]2[C@@H](CC(=O)[C@H]2O1)O[Si](C)(C)C(C)(C)C)C

> <PUBCHEM_CACTVS_TPSA>
44.8

> <PUBCHEM_MONOISOTOPIC_WEIGHT>
286.160036

> <PUBCHEM_TOTAL_CHARGE>
0

> <PUBCHEM_HEAVY_ATOM_COUNT>
19

> <PUBCHEM_ATOM_DEF_STEREO_COUNT>
3

> <PUBCHEM_ATOM_UDEF_STEREO_COUNT>
0

> <PUBCHEM_BOND_DEF_STEREO_COUNT>
0

> <PUBCHEM_BOND_UDEF_STEREO_COUNT>
0

> <PUBCHEM_ISOTOPIC_ATOM_COUNT>
0

> <PUBCHEM_COMPONENT_COUNT>
1

> <PUBCHEM_CACTVS_TAUTO_COUNT>
3

> <PUBCHEM_COORDINATE_TYPE>
1
5
255

> <PUBCHEM_BONDANNOTATIONS>
7  2  5
6  20  5
8  22  5

$$$$

