585166
  -OEChem-06241222453D

 49 52  0     0  0  0  0  0  0999 V2000
   -0.9851    1.8135   -0.0057 Si  0  0  0  0  0  0  0  0  0  0  0  0
   -0.7371   -1.2398   -0.0129 F   0  0  0  0  0  0  0  0  0  0  0  0
   -4.0210    2.2207    0.0081 F   0  0  0  0  0  0  0  0  0  0  0  0
   -5.9733    0.3439    0.0139 F   0  0  0  0  0  0  0  0  0  0  0  0
   -2.7137   -3.0914   -0.0083 F   0  0  0  0  0  0  0  0  0  0  0  0
   -5.3351   -2.3147    0.0047 F   0  0  0  0  0  0  0  0  0  0  0  0
    0.4687    0.9767   -0.0027 O   0  0  0  0  0  0  0  0  0  0  0  0
    2.8387    0.6769   -0.0006 C   0  0  0  0  0  0  0  0  0  0  0  0
    3.9209   -1.2300    1.2710 C   0  0  0  0  0  0  0  0  0  0  0  0
    3.9087   -1.2522   -1.2490 C   0  0  0  0  0  0  0  0  0  0  0  0
    5.3579    0.3960   -0.0104 C   0  0  0  0  0  0  0  0  0  0  0  0
    2.7679   -0.2111    1.2643 C   0  0  0  0  0  0  0  0  0  0  0  0
    2.7557   -0.2333   -1.2488 C   0  0  0  0  0  0  0  0  0  0  0  0
    4.2009    1.4104   -0.0139 C   0  0  0  0  0  0  0  0  0  0  0  0
    3.8197   -2.1173    0.0192 C   0  0  0  0  0  0  0  0  0  0  0  0
    5.2616   -0.4772    1.2515 C   0  0  0  0  0  0  0  0  0  0  0  0
    5.2495   -0.4994   -1.2558 C   0  0  0  0  0  0  0  0  0  0  0  0
    1.6902    1.6892   -0.0040 C   0  0  0  0  0  0  0  0  0  0  0  0
   -1.1695    2.8744   -1.5415 C   0  0  0  0  0  0  0  0  0  0  0  0
   -1.1714    2.8834    1.5234 C   0  0  0  0  0  0  0  0  0  0  0  0
   -2.3638    0.5048   -0.0029 C   0  0  0  0  0  0  0  0  0  0  0  0
   -2.0143   -0.8288   -0.0073 C   0  0  0  0  0  0  0  0  0  0  0  0
   -3.6773    0.9238    0.0040 C   0  0  0  0  0  0  0  0  0  0  0  0
   -4.6891   -0.0364    0.0066 C   0  0  0  0  0  0  0  0  0  0  0  0
   -3.0261   -1.7890   -0.0050 C   0  0  0  0  0  0  0  0  0  0  0  0
   -4.3635   -1.3928    0.0019 C   0  0  0  0  0  0  0  0  0  0  0  0
    3.8593   -1.8519    2.1711 H   0  0  0  0  0  0  0  0  0  0  0  0
    3.8384   -1.8899   -2.1373 H   0  0  0  0  0  0  0  0  0  0  0  0
    6.3157    0.9281   -0.0198 H   0  0  0  0  0  0  0  0  0  0  0  0
    1.8141   -0.7519    1.3099 H   0  0  0  0  0  0  0  0  0  0  0  0
    2.8204    0.4104    2.1676 H   0  0  0  0  0  0  0  0  0  0  0  0
    2.7991    0.3722   -2.1634 H   0  0  0  0  0  0  0  0  0  0  0  0
    1.8020   -0.7754   -1.2759 H   0  0  0  0  0  0  0  0  0  0  0  0
    4.2858    2.0688    0.8603 H   0  0  0  0  0  0  0  0  0  0  0  0
    4.2774    2.0530   -0.9005 H   0  0  0  0  0  0  0  0  0  0  0  0
    4.6253   -2.8617    0.0218 H   0  0  0  0  0  0  0  0  0  0  0  0
    2.8734   -2.6722    0.0287 H   0  0  0  0  0  0  0  0  0  0  0  0
    5.3534    0.1483    2.1480 H   0  0  0  0  0  0  0  0  0  0  0  0
    6.0929   -1.1925    1.2762 H   0  0  0  0  0  0  0  0  0  0  0  0
    6.0805   -1.2151   -1.2758 H   0  0  0  0  0  0  0  0  0  0  0  0
    5.3324    0.1101   -2.1641 H   0  0  0  0  0  0  0  0  0  0  0  0
    1.7580    2.3257   -0.8962 H   0  0  0  0  0  0  0  0  0  0  0  0
    1.7575    2.3319    0.8839 H   0  0  0  0  0  0  0  0  0  0  0  0
   -0.3881    3.6392   -1.5780 H   0  0  0  0  0  0  0  0  0  0  0  0
   -1.0901    2.2626   -2.4451 H   0  0  0  0  0  0  0  0  0  0  0  0
   -2.1390    3.3810   -1.5546 H   0  0  0  0  0  0  0  0  0  0  0  0
   -1.0955    2.2767    2.4307 H   0  0  0  0  0  0  0  0  0  0  0  0
   -0.3885    3.6468    1.5576 H   0  0  0  0  0  0  0  0  0  0  0  0
   -2.1397    3.3924    1.5314 H   0  0  0  0  0  0  0  0  0  0  0  0
  1  7  1  0  0  0  0
  1 19  1  0  0  0  0
  1 20  1  0  0  0  0
  1 21  1  0  0  0  0
  2 22  1  0  0  0  0
  3 23  1  0  0  0  0
  4 24  1  0  0  0  0
  5 25  1  0  0  0  0
  6 26  1  0  0  0  0
  7 18  1  0  0  0  0
  8 12  1  0  0  0  0
  8 13  1  0  0  0  0
  8 14  1  0  0  0  0
  8 18  1  0  0  0  0
  9 12  1  0  0  0  0
  9 15  1  0  0  0  0
  9 16  1  0  0  0  0
  9 27  1  0  0  0  0
 10 13  1  0  0  0  0
 10 15  1  0  0  0  0
 10 17  1  0  0  0  0
 10 28  1  0  0  0  0
 11 14  1  0  0  0  0
 11 16  1  0  0  0  0
 11 17  1  0  0  0  0
 11 29  1  0  0  0  0
 12 30  1  0  0  0  0
 12 31  1  0  0  0  0
 13 32  1  0  0  0  0
 13 33  1  0  0  0  0
 14 34  1  0  0  0  0
 14 35  1  0  0  0  0
 15 36  1  0  0  0  0
 15 37  1  0  0  0  0
 16 38  1  0  0  0  0
 16 39  1  0  0  0  0
 17 40  1  0  0  0  0
 17 41  1  0  0  0  0
 18 42  1  0  0  0  0
 18 43  1  0  0  0  0
 19 44  1  0  0  0  0
 19 45  1  0  0  0  0
 19 46  1  0  0  0  0
 20 47  1  0  0  0  0
 20 48  1  0  0  0  0
 20 49  1  0  0  0  0
 21 22  2  0  0  0  0
 21 23  1  0  0  0  0
 22 25  1  0  0  0  0
 23 24  2  0  0  0  0
 24 26  1  0  0  0  0
 25 26  2  0  0  0  0
M  END
> <PUBCHEM_COMPOUND_CID>
585166

> <PUBCHEM_CONFORMER_RMSD>
0.8

> <PUBCHEM_CONFORMER_DIVERSEORDER>
1
2
3

> <PUBCHEM_MMFF94_PARTIAL_CHARGES>
16
1 0.68
18 0.28
19 -0.08
2 -0.19
20 -0.08
21 -0.22
22 0.19
23 0.19
24 0.19
25 0.19
26 0.19
3 -0.19
4 -0.19
5 -0.19
6 -0.19
7 -0.58

> <PUBCHEM_EFFECTIVE_ROTOR_COUNT>
5.2

> <PUBCHEM_PHARMACOPHORE_FEATURES>
5
6 21 22 23 24 25 26 rings
6 8 10 11 13 14 17 rings
6 8 9 10 12 13 15 rings
6 8 9 11 12 14 16 rings
6 9 10 11 15 16 17 rings

> <PUBCHEM_HEAVY_ATOM_COUNT>
26

> <PUBCHEM_ATOM_DEF_STEREO_COUNT>
0

> <PUBCHEM_ATOM_UDEF_STEREO_COUNT>
0

> <PUBCHEM_BOND_DEF_STEREO_COUNT>
0

> <PUBCHEM_BOND_UDEF_STEREO_COUNT>
0

> <PUBCHEM_ISOTOPIC_ATOM_COUNT>
0

> <PUBCHEM_COMPONENT_COUNT>
1

> <PUBCHEM_CACTVS_TAUTO_COUNT>
1

> <PUBCHEM_CONFORMER_ID>
0008EDCE00000001

> <PUBCHEM_MMFF94_ENERGY>
50.3742

> <PUBCHEM_FEATURE_SELFOVERLAP>
37.888

> <PUBCHEM_SHAPE_FINGERPRINT>
10366900 7 17458068196223620008
10369192 42 17537744104831800232
10616163 171 18409728452441861070
11796584 16 18410859888360958241
12107183 9 17837216239461250520
12236239 1 17847063285142419984
12422481 6 18190998271196626921
12516196 113 18040718047871628137
12633257 1 18188198888226971345
12788726 201 18335697273528545392
13224815 77 18260828232964596712
13402501 40 18260263062033334550
13544653 18 18409442553490644977
13583140 156 16226053326672209632
14386348 63 18040996263099750580
14617045 38 18411694404727795674
14790565 3 17688586478623907017
14910302 57 18339079427451568140
15183329 4 18412827993190275775
15196674 1 18410573993751948238
15352361 1 18409165480728461309
15537594 2 18130777984192383938
17349148 13 18261110794241122293
17492 89 18338236071969052426
17804303 29 18336547119255920081
17857418 61 18342181063374207899
1813 80 17561082488311908221
18681886 176 18409165477494037444
19141452 34 18409446973338767333
20403669 9 18409448076675928991
20511986 3 18060153019751619100
21033648 29 16878235245820465178
21267235 1 18340198609950639491
21279426 13 18191866940874552053
21703447 108 17539142653504032139
21857420 4 13104430740579814832
2215653 11 18260271862806088621
23557571 272 18334009488951792166
23559900 14 18334581191906748864
239999 70 18261387837534003604
3004659 81 18342454829301418732
314173 41 18410008806484900384
32027 91 17617106137081039778
335352 9 18411139122330098285
339767 52 18413395340852663082
3680242 22 18340484594273934659
4214541 1 18410574002384425125
463206 1 18201154347626375674
5104073 3 18334013899762127048
5309563 4 17115781125340704731
6823239 73 18114732841911939486
9709674 26 18338794503188895922

> <PUBCHEM_SHAPE_MULTIPOLES>
511.04
12.98
2.93
1.19
0.53
0.2
0
-5.12
-0.04
2.72
0.01
-1.21
0.32
-0.01

> <PUBCHEM_SHAPE_SELFOVERLAP>
1097.846

> <PUBCHEM_SHAPE_VOLUME>
287.4

> <PUBCHEM_COORDINATE_TYPE>
2
5
10

$$$$

