5281465
  -OEChem-07051212573D

 50 53  0     1  0  0  0  0  0999 V2000
   -4.1348    1.6146    0.3399 O   0  0  0  0  0  0  0  0  0  0  0  0
   -2.1573   -2.0356    0.1573 O   0  0  0  0  0  0  0  0  0  0  0  0
    1.6296   -0.3652    0.0192 O   0  0  0  0  0  0  0  0  0  0  0  0
    0.8100    3.8457   -1.8991 O   0  0  0  0  0  0  0  0  0  0  0  0
   -1.8560   -4.3183    0.0633 O   0  0  0  0  0  0  0  0  0  0  0  0
    3.2543    0.9230   -0.9820 O   0  0  0  0  0  0  0  0  0  0  0  0
   -3.2124    0.5717    0.6921 C   0  0  1  0  0  0  0  0  0  0  0  0
   -2.0702    0.3739   -0.2886 C   0  0  1  0  0  0  0  0  0  0  0  0
   -3.1194    1.9206    1.3008 C   0  0  1  0  0  0  0  0  0  0  0  0
   -1.9107    2.6163    0.7630 C   0  0  0  0  0  0  0  0  0  0  0  0
   -1.2206    1.6486   -0.1926 C   0  0  0  0  0  0  0  0  0  0  0  0
   -1.2762   -0.8988    0.0266 C   0  0  2  0  0  0  0  0  0  0  0  0
   -0.3385   -1.3037   -1.1023 C   0  0  1  0  0  0  0  0  0  0  0  0
   -3.8767   -0.5221    1.4373 C   0  0  0  0  0  0  0  0  0  0  0  0
   -0.0484    1.9060   -0.8096 C   0  0  0  0  0  0  0  0  0  0  0  0
    0.9348   -0.4679   -1.2203 C   0  0  1  0  0  0  0  0  0  0  0  0
    0.6558    0.9462   -1.7487 C   0  0  0  0  0  0  0  0  0  0  0  0
   -0.2113   -2.7581   -0.7851 C   0  0  0  0  0  0  0  0  0  0  0  0
   -1.4737   -3.1807   -0.1390 C   0  0  0  0  0  0  0  0  0  0  0  0
    0.6810    3.2183   -0.6411 C   0  0  0  0  0  0  0  0  0  0  0  0
    0.7981   -3.6104   -0.9749 C   0  0  0  0  0  0  0  0  0  0  0  0
    2.7825    0.3638   -0.0021 C   0  0  0  0  0  0  0  0  0  0  0  0
    3.3962    0.3750    1.3605 C   0  0  0  0  0  0  0  0  0  0  0  0
    3.0353    1.4920    2.2944 C   0  0  0  0  0  0  0  0  0  0  0  0
    4.2600   -0.6228    1.6238 C   0  0  0  0  0  0  0  0  0  0  0  0
    4.6683   -1.7321    0.7070 C   0  0  0  0  0  0  0  0  0  0  0  0
   -2.5167    0.3045   -1.2892 H   0  0  0  0  0  0  0  0  0  0  0  0
   -3.3892    2.1178    2.3243 H   0  0  0  0  0  0  0  0  0  0  0  0
   -1.2429    2.8684    1.5938 H   0  0  0  0  0  0  0  0  0  0  0  0
   -2.2098    3.5330    0.2440 H   0  0  0  0  0  0  0  0  0  0  0  0
   -0.7565   -0.7893    0.9897 H   0  0  0  0  0  0  0  0  0  0  0  0
   -0.8746   -1.2581   -2.0623 H   0  0  0  0  0  0  0  0  0  0  0  0
   -4.3389   -1.2454    0.7585 H   0  0  0  0  0  0  0  0  0  0  0  0
   -3.1855   -1.0289    2.1178 H   0  0  0  0  0  0  0  0  0  0  0  0
   -4.6888   -0.1357    2.0663 H   0  0  0  0  0  0  0  0  0  0  0  0
    1.5977   -0.9655   -1.9413 H   0  0  0  0  0  0  0  0  0  0  0  0
    0.0092    0.8495   -2.6345 H   0  0  0  0  0  0  0  0  0  0  0  0
    1.5457    1.4116   -2.1789 H   0  0  0  0  0  0  0  0  0  0  0  0
    1.6793    3.0464   -0.2279 H   0  0  0  0  0  0  0  0  0  0  0  0
    0.1693    3.9145    0.0278 H   0  0  0  0  0  0  0  0  0  0  0  0
    1.7234   -3.2908   -1.4412 H   0  0  0  0  0  0  0  0  0  0  0  0
    0.7309   -4.6498   -0.6712 H   0  0  0  0  0  0  0  0  0  0  0  0
    1.3100    4.6682   -1.7619 H   0  0  0  0  0  0  0  0  0  0  0  0
    3.5501    1.3977    3.2558 H   0  0  0  0  0  0  0  0  0  0  0  0
    3.3103    2.4565    1.8560 H   0  0  0  0  0  0  0  0  0  0  0  0
    1.9575    1.4919    2.4859 H   0  0  0  0  0  0  0  0  0  0  0  0
    4.7341   -0.6402    2.6035 H   0  0  0  0  0  0  0  0  0  0  0  0
    5.7518   -1.7000    0.5542 H   0  0  0  0  0  0  0  0  0  0  0  0
    4.1928   -1.6994   -0.2762 H   0  0  0  0  0  0  0  0  0  0  0  0
    4.4194   -2.6946    1.1650 H   0  0  0  0  0  0  0  0  0  0  0  0
  1  7  1  0  0  0  0
  1  9  1  0  0  0  0
  2 12  1  0  0  0  0
  2 19  1  0  0  0  0
  3 16  1  0  0  0  0
  3 22  1  0  0  0  0
  4 20  1  0  0  0  0
  4 43  1  0  0  0  0
  5 19  2  0  0  0  0
  6 22  2  0  0  0  0
  7  8  1  0  0  0  0
  7  9  1  0  0  0  0
  7 14  1  0  0  0  0
  8 11  1  0  0  0  0
  8 12  1  0  0  0  0
  8 27  1  0  0  0  0
  9 10  1  0  0  0  0
  9 28  1  0  0  0  0
 10 11  1  0  0  0  0
 10 29  1  0  0  0  0
 10 30  1  0  0  0  0
 11 15  2  0  0  0  0
 12 13  1  0  0  0  0
 12 31  1  0  0  0  0
 13 16  1  0  0  0  0
 13 18  1  0  0  0  0
 13 32  1  0  0  0  0
 14 33  1  0  0  0  0
 14 34  1  0  0  0  0
 14 35  1  0  0  0  0
 15 17  1  0  0  0  0
 15 20  1  0  0  0  0
 16 17  1  0  0  0  0
 16 36  1  0  0  0  0
 17 37  1  0  0  0  0
 17 38  1  0  0  0  0
 18 19  1  0  0  0  0
 18 21  2  0  0  0  0
 20 39  1  0  0  0  0
 20 40  1  0  0  0  0
 21 41  1  0  0  0  0
 21 42  1  0  0  0  0
 22 23  1  0  0  0  0
 23 24  1  0  0  0  0
 23 25  2  0  0  0  0
 24 44  1  0  0  0  0
 24 45  1  0  0  0  0
 24 46  1  0  0  0  0
 25 26  1  0  0  0  0
 25 47  1  0  0  0  0
 26 48  1  0  0  0  0
 26 49  1  0  0  0  0
 26 50  1  0  0  0  0
M  END
> <PUBCHEM_COMPOUND_CID>
5281465

> <PUBCHEM_CONFORMER_RMSD>
0.8

> <PUBCHEM_CONFORMER_DIVERSEORDER>
1
4
5
2
3

> <PUBCHEM_MMFF94_PARTIAL_CHARGES>
31
1 -0.3
10 0.23
11 -0.28
12 0.28
13 0.14
14 0.09
15 -0.28
16 0.28
17 0.14
18 -0.12
19 0.71
2 -0.43
20 0.42
21 -0.3
22 0.71
23 -0.12
24 0.14
25 -0.29
26 0.14
28 0.1
3 -0.43
4 -0.68
41 0.15
42 0.15
43 0.4
47 0.15
5 -0.57
6 -0.57
7 -0.04
8 0.23
9 -0.05

> <PUBCHEM_EFFECTIVE_ROTOR_COUNT>
5

> <PUBCHEM_PHARMACOPHORE_FEATURES>
10
1 1 acceptor
1 24 hydrophobe
1 26 hydrophobe
1 4 acceptor
1 4 donor
1 5 acceptor
1 6 acceptor
5 2 12 13 18 19 rings
6 1 7 8 9 10 11 rings
7 8 11 12 13 15 16 17 rings

> <PUBCHEM_HEAVY_ATOM_COUNT>
26

> <PUBCHEM_ATOM_DEF_STEREO_COUNT>
6

> <PUBCHEM_ATOM_UDEF_STEREO_COUNT>
0

> <PUBCHEM_BOND_DEF_STEREO_COUNT>
1

> <PUBCHEM_BOND_UDEF_STEREO_COUNT>
0

> <PUBCHEM_ISOTOPIC_ATOM_COUNT>
0

> <PUBCHEM_COMPONENT_COUNT>
1

> <PUBCHEM_CACTVS_TAUTO_COUNT>
1

> <PUBCHEM_CONFORMER_ID>
005096B900000001

> <PUBCHEM_MMFF94_ENERGY>
76.7485

> <PUBCHEM_FEATURE_SELFOVERLAP>
50.774

> <PUBCHEM_SHAPE_FINGERPRINT>
1100329 8 18265894649517719683
11370993 70 18188778377945994707
11552529 35 18117578236033455818
11578080 2 15577775605878943165
12633257 1 18041000648177087760
12788726 201 18051123692641376354
13004483 165 17391668512865843126
13140716 1 18047735023980056267
14081887 123 17828503378932076882
14178342 30 18192695947067478001
14223421 5 17690840485543711045
14787075 74 17604161345873210849
14943834 7 17981322292052373380
15295992 7 17603882095620754194
15420108 30 17972043810347825799
16110190 28 18411708707907758802
16728300 4 17630341950091032787
16945 1 18265590174890717525
17349148 13 18335425617194862567
1813 80 17131545150455487702
19319366 153 16759153403494571526
19591789 44 18122319514265351647
20600515 1 18334853905503486564
21033648 29 18261119607456388209
21304304 249 18412261774529852635
21330990 113 18193553596001005692
21421861 104 17693934094805257171
21731228 192 18261402207682426514
22149856 69 17977351110901713201
22182313 1 17553193716412381141
2334 1 17687163315413335991
23419403 2 17331406874501367861
23559900 14 18050553333784551636
25222932 49 16549413967574486875
2748010 2 18051677035137481117
35225 105 17685263530597154266
352729 6 18191854648799424559
392239 28 17894629275379008705
394222 165 17414393339352719964
427121 178 17968644038478945657
5265222 85 18335974347219039734
6992083 37 18341902865684442854
7097593 13 18269558239077133760
81228 2 18193863486397132742
90316 7 18200888356286621004

> <PUBCHEM_SHAPE_MULTIPOLES>
499.85
6.67
4.61
1.7
3.38
2.7
-0.17
-0.67
-4.7
-1.4
1.38
0.94
-0.95
-0.13

> <PUBCHEM_SHAPE_SELFOVERLAP>
1076.224

> <PUBCHEM_SHAPE_VOLUME>
275.5

> <PUBCHEM_COORDINATE_TYPE>
2
5
10

$$$$

