443056
  -OEChem-07051213012D

 83 86  0     1  0  0  0  0  0999 V2000
    7.7957    3.7195    0.0000 O   0  0  0  0  0  0  0  0  0  0  0  0
   11.6774    0.8590    0.0000 O   0  0  0  0  0  0  0  0  0  0  0  0
    3.7079   -0.5754    0.0000 O   0  0  0  0  0  0  0  0  0  0  0  0
   12.1332    2.8559    0.0000 O   0  0  0  0  0  0  0  0  0  0  0  0
    9.2296    4.6205    0.0000 O   0  0  0  0  0  0  0  0  0  0  0  0
    4.8942   -2.9404    0.0000 O   0  0  0  0  0  0  0  0  0  0  0  0
    2.7230   -4.4523    0.0000 O   0  0  0  0  0  0  0  0  0  0  0  0
    6.5950    0.3501    0.0000 C   0  0  1  0  0  0  0  0  0  0  0  0
    6.5252    1.3894    0.0000 C   0  0  2  0  0  0  0  0  0  0  0  0
    7.3948    1.9628    0.0000 C   0  0  1  0  0  0  0  0  0  0  0  0
    8.2957    1.5289    0.0000 C   0  0  1  0  0  0  0  0  0  0  0  0
    5.6329   -0.0327    0.0000 C   0  0  2  0  0  0  0  0  0  0  0  0
    9.1967    1.9628    0.0000 C   0  0  2  0  0  0  0  0  0  0  0  0
    7.5335   -0.1019    0.0000 C   0  0  0  0  0  0  0  0  0  0  0  0
    5.5205    1.6400    0.0000 C   0  0  0  0  0  0  0  0  0  0  0  0
    8.3896    0.4915    0.0000 C   0  0  0  0  0  0  0  0  0  0  0  0
    4.9702    0.7629    0.0000 C   0  0  0  0  0  0  0  0  0  0  0  0
    5.3867   -1.0019    0.0000 C   0  0  1  0  0  0  0  0  0  0  0  0
    9.4192    2.9377    0.0000 C   0  0  2  0  0  0  0  0  0  0  0  0
    6.6620   -0.6477    0.0000 C   0  0  0  0  0  0  0  0  0  0  0  0
    7.1722    2.9377    0.0000 C   0  0  0  0  0  0  0  0  0  0  0  0
    9.9492    1.2426    0.0000 C   0  0  0  0  0  0  0  0  0  0  0  0
    8.9742    0.9878    0.0000 C   0  0  0  0  0  0  0  0  0  0  0  0
   10.4097    3.2600    0.0000 C   0  0  0  0  0  0  0  0  0  0  0  0
   10.9469    1.5419    0.0000 C   0  0  2  0  0  0  0  0  0  0  0  0
    4.4242   -1.2733    0.0000 C   0  0  2  0  0  0  0  0  0  0  0  0
   11.1787    2.5575    0.0000 C   0  0  1  0  0  0  0  0  0  0  0  0
    8.7957    3.7195    0.0000 C   0  0  0  0  0  0  0  0  0  0  0  0
    6.1029   -1.6998    0.0000 C   0  0  0  0  0  0  0  0  0  0  0  0
    4.1779   -2.2425    0.0000 C   0  0  1  0  0  0  0  0  0  0  0  0
    3.2154   -2.5138    0.0000 C   0  0  1  0  0  0  0  0  0  0  0  0
    2.9692   -3.4831    0.0000 C   0  0  0  0  0  0  0  0  0  0  0  0
    2.4992   -1.8160    0.0000 C   0  0  0  0  0  0  0  0  0  0  0  0
    2.0000   -3.2368    0.0000 C   0  0  0  0  0  0  0  0  0  0  0  0
    3.9384   -3.7293    0.0000 C   0  0  0  0  0  0  0  0  0  0  0  0
    6.3820    2.2272    0.0000 H   0  0  0  0  0  0  0  0  0  0  0  0
    8.0593    2.4927    0.0000 H   0  0  0  0  0  0  0  0  0  0  0  0
    9.0351    1.1096    0.0000 H   0  0  0  0  0  0  0  0  0  0  0  0
    4.8039   -0.2206    0.0000 H   0  0  0  0  0  0  0  0  0  0  0  0
    7.1728   -0.6062    0.0000 H   0  0  0  0  0  0  0  0  0  0  0  0
    7.9687   -0.5435    0.0000 H   0  0  0  0  0  0  0  0  0  0  0  0
    5.7330    2.2224    0.0000 H   0  0  0  0  0  0  0  0  0  0  0  0
    4.9636    1.9125    0.0000 H   0  0  0  0  0  0  0  0  0  0  0  0
    8.6504   -0.0710    0.0000 H   0  0  0  0  0  0  0  0  0  0  0  0
    8.9884    0.6522    0.0000 H   0  0  0  0  0  0  0  0  0  0  0  0
    4.4825    1.1458    0.0000 H   0  0  0  0  0  0  0  0  0  0  0  0
    4.5381    0.3182    0.0000 H   0  0  0  0  0  0  0  0  0  0  0  0
    5.9834   -0.8337    0.0000 H   0  0  0  0  0  0  0  0  0  0  0  0
    9.6635    3.7518    0.0000 H   0  0  0  0  0  0  0  0  0  0  0  0
    6.0434   -0.6893    0.0000 H   0  0  0  0  0  0  0  0  0  0  0  0
    6.7036   -1.2663    0.0000 H   0  0  0  0  0  0  0  0  0  0  0  0
    7.2806   -0.6061    0.0000 H   0  0  0  0  0  0  0  0  0  0  0  0
    6.7857    3.4224    0.0000 H   0  0  0  0  0  0  0  0  0  0  0  0
    6.6136    2.6687    0.0000 H   0  0  0  0  0  0  0  0  0  0  0  0
    9.4502    0.8746    0.0000 H   0  0  0  0  0  0  0  0  0  0  0  0
   10.2264    0.6880    0.0000 H   0  0  0  0  0  0  0  0  0  0  0  0
    8.3697    1.1258    0.0000 H   0  0  0  0  0  0  0  0  0  0  0  0
    8.8362    0.3834    0.0000 H   0  0  0  0  0  0  0  0  0  0  0  0
    9.5786    0.8499    0.0000 H   0  0  0  0  0  0  0  0  0  0  0  0
   10.9001    3.6395    0.0000 H   0  0  0  0  0  0  0  0  0  0  0  0
   10.1198    3.8081    0.0000 H   0  0  0  0  0  0  0  0  0  0  0  0
   10.8055    0.9383    0.0000 H   0  0  0  0  0  0  0  0  0  0  0  0
    3.8274   -1.4415    0.0000 H   0  0  0  0  0  0  0  0  0  0  0  0
   11.6340    2.1366    0.0000 H   0  0  0  0  0  0  0  0  0  0  0  0
    5.6702   -2.1438    0.0000 H   0  0  0  0  0  0  0  0  0  0  0  0
    6.5470   -2.1325    0.0000 H   0  0  0  0  0  0  0  0  0  0  0  0
    6.5356   -1.2557    0.0000 H   0  0  0  0  0  0  0  0  0  0  0  0
    4.7747   -2.0742    0.0000 H   0  0  0  0  0  0  0  0  0  0  0  0
    2.6187   -2.6821    0.0000 H   0  0  0  0  0  0  0  0  0  0  0  0
   12.2705    1.0394    0.0000 H   0  0  0  0  0  0  0  0  0  0  0  0
    3.1112   -0.7437    0.0000 H   0  0  0  0  0  0  0  0  0  0  0  0
   12.2688    3.4609    0.0000 H   0  0  0  0  0  0  0  0  0  0  0  0
    4.7415   -3.5413    0.0000 H   0  0  0  0  0  0  0  0  0  0  0  0
    2.9319   -1.3719    0.0000 H   0  0  0  0  0  0  0  0  0  0  0  0
    2.0551   -1.3833    0.0000 H   0  0  0  0  0  0  0  0  0  0  0  0
    2.0665   -2.2601    0.0000 H   0  0  0  0  0  0  0  0  0  0  0  0
    2.1527   -2.6359    0.0000 H   0  0  0  0  0  0  0  0  0  0  0  0
    1.3991   -3.0842    0.0000 H   0  0  0  0  0  0  0  0  0  0  0  0
    1.8473   -3.8377    0.0000 H   0  0  0  0  0  0  0  0  0  0  0  0
    3.7858   -4.3302    0.0000 H   0  0  0  0  0  0  0  0  0  0  0  0
    4.5393   -3.8820    0.0000 H   0  0  0  0  0  0  0  0  0  0  0  0
    4.0911   -3.1284    0.0000 H   0  0  0  0  0  0  0  0  0  0  0  0
    2.1262   -4.6205    0.0000 H   0  0  0  0  0  0  0  0  0  0  0  0
  1 21  1  0  0  0  0
  1 28  1  0  0  0  0
 25  2  1  6  0  0  0
  2 70  1  0  0  0  0
 26  3  1  6  0  0  0
  3 71  1  0  0  0  0
 27  4  1  6  0  0  0
  4 72  1  0  0  0  0
  5 28  2  0  0  0  0
 30  6  1  6  0  0  0
  6 73  1  0  0  0  0
  7 32  1  0  0  0  0
  7 83  1  0  0  0  0
  8  9  1  0  0  0  0
  8 12  1  0  0  0  0
  8 14  1  0  0  0  0
  8 20  1  1  0  0  0
  9 10  1  0  0  0  0
  9 15  1  0  0  0  0
  9 36  1  6  0  0  0
 10 11  1  0  0  0  0
 10 21  1  0  0  0  0
 10 37  1  1  0  0  0
 11 13  1  0  0  0  0
 11 16  1  0  0  0  0
 11 38  1  6  0  0  0
 12 17  1  0  0  0  0
 12 18  1  0  0  0  0
 12 39  1  6  0  0  0
 13 19  1  0  0  0  0
 13 22  1  0  0  0  0
 13 23  1  1  0  0  0
 14 16  1  0  0  0  0
 14 40  1  0  0  0  0
 14 41  1  0  0  0  0
 15 17  1  0  0  0  0
 15 42  1  0  0  0  0
 15 43  1  0  0  0  0
 16 44  1  0  0  0  0
 16 45  1  0  0  0  0
 17 46  1  0  0  0  0
 17 47  1  0  0  0  0
 18 26  1  0  0  0  0
 18 29  1  6  0  0  0
 18 48  1  0  0  0  0
 19 24  1  0  0  0  0
 19 28  1  0  0  0  0
 19 49  1  6  0  0  0
 20 50  1  0  0  0  0
 20 51  1  0  0  0  0
 20 52  1  0  0  0  0
 21 53  1  0  0  0  0
 21 54  1  0  0  0  0
 22 25  1  0  0  0  0
 22 55  1  0  0  0  0
 22 56  1  0  0  0  0
 23 57  1  0  0  0  0
 23 58  1  0  0  0  0
 23 59  1  0  0  0  0
 24 27  1  0  0  0  0
 24 60  1  0  0  0  0
 24 61  1  0  0  0  0
 25 27  1  0  0  0  0
 25 62  1  0  0  0  0
 26 30  1  0  0  0  0
 26 63  1  0  0  0  0
 27 64  1  0  0  0  0
 29 65  1  0  0  0  0
 29 66  1  0  0  0  0
 29 67  1  0  0  0  0
 30 31  1  0  0  0  0
 30 68  1  0  0  0  0
 31 32  1  0  0  0  0
 31 33  1  1  0  0  0
 31 69  1  0  0  0  0
 32 34  1  0  0  0  0
 32 35  1  0  0  0  0
 33 74  1  0  0  0  0
 33 75  1  0  0  0  0
 33 76  1  0  0  0  0
 34 77  1  0  0  0  0
 34 78  1  0  0  0  0
 34 79  1  0  0  0  0
 35 80  1  0  0  0  0
 35 81  1  0  0  0  0
 35 82  1  0  0  0  0
M  END
> <PUBCHEM_COMPOUND_CID>
443056

> <PUBCHEM_COMPOUND_CANONICALIZED>
1

> <PUBCHEM_CACTVS_COMPLEXITY>
800

> <PUBCHEM_CACTVS_HBOND_ACCEPTOR>
7

> <PUBCHEM_CACTVS_HBOND_DONOR>
5

> <PUBCHEM_CACTVS_ROTATABLE_BOND>
5

> <PUBCHEM_CACTVS_SUBSKEYS>
AAADcfB4OAAAAAAAAAAAAAAAAAAAAYAAAAAwYAAABIAAAGAAAAAAGgAACAAAD1SggAICCAAABgAIAACQCAAAAAAAAAAAAAEAAAABEBIAAAACQAAFAAABAAHK7PzPgAAAAAAAAADAAAYAACCAAQAACAAAAA==

> <PUBCHEM_IUPAC_INCHI>
InChI=1S/C28H48O7/c1-14(23(31)24(32)15(2)26(3,4)34)17-7-8-18-16-13-35-25(33)20-11-21(29)22(30)12-28(20,6)19(16)9-10-27(17,18)5/h14-24,29-32,34H,7-13H2,1-6H3/t14-,15-,16-,17+,18-,19-,20+,21-,22+,23+,24+,27+,28+/m0/s1

> <PUBCHEM_IUPAC_INCHIKEY>
IGZXDKCXHICLQE-LSYAKQBXSA-N

> <PUBCHEM_XLOGP3_AA>
3.4

> <PUBCHEM_EXACT_MASS>
496.340004

> <PUBCHEM_MOLECULAR_FORMULA>
C28H48O7

> <PUBCHEM_MOLECULAR_WEIGHT>
496.67652

> <PUBCHEM_OPENEYE_CAN_SMILES>
CC(C1CCC2C1(CCC3C2COC(=O)C4C3(CC(C(C4)O)O)C)C)C(C(C(C)C(C)(C)O)O)O

> <PUBCHEM_OPENEYE_ISO_SMILES>
C[C@@H]([C@H]1CC[C@@H]2[C@@]1(CC[C@H]3[C@H]2COC(=O)[C@@H]4[C@@]3(C[C@H]([C@H](C4)O)O)C)C)[C@H]([C@@H]([C@H](C)C(C)(C)O)O)O

> <PUBCHEM_CACTVS_TPSA>
127

> <PUBCHEM_MONOISOTOPIC_WEIGHT>
496.340004

> <PUBCHEM_TOTAL_CHARGE>
0

> <PUBCHEM_HEAVY_ATOM_COUNT>
35

> <PUBCHEM_ATOM_DEF_STEREO_COUNT>
13

> <PUBCHEM_ATOM_UDEF_STEREO_COUNT>
0

> <PUBCHEM_BOND_DEF_STEREO_COUNT>
0

> <PUBCHEM_BOND_UDEF_STEREO_COUNT>
0

> <PUBCHEM_ISOTOPIC_ATOM_COUNT>
0

> <PUBCHEM_COMPONENT_COUNT>
1

> <PUBCHEM_CACTVS_TAUTO_COUNT>
2

> <PUBCHEM_COORDINATE_TYPE>
1
5
255

> <PUBCHEM_BONDANNOTATIONS>
10  37  5
11  38  6
12  39  6
13  23  5
18  29  6
19  49  6
25  2  6
26  3  6
31  33  5
27  4  6
30  6  6
8  20  5
9  36  6

$$$$

