441819
  -OEChem-07051212563D

 82 85  0     1  0  0  0  0  0999 V2000
    2.5478    0.3230    2.5585 O   0  0  0  0  0  0  0  0  0  0  0  0
    3.0229    2.7312   -0.4055 O   0  0  0  0  0  0  0  0  0  0  0  0
   -1.9427    1.5588   -2.7859 O   0  0  0  0  0  0  0  0  0  0  0  0
    4.9172    1.4054    0.9290 O   0  0  0  0  0  0  0  0  0  0  0  0
   -6.3781   -1.0229   -2.6086 O   0  0  0  0  0  0  0  0  0  0  0  0
   -7.1596   -1.8729   -0.1410 O   0  0  0  0  0  0  0  0  0  0  0  0
    7.1004    0.0828   -0.0714 O   0  0  0  0  0  0  0  0  0  0  0  0
    7.9973   -2.5699    0.2149 O   0  0  0  0  0  0  0  0  0  0  0  0
   -0.4813    0.9027    1.0612 C   0  0  2  0  0  0  0  0  0  0  0  0
    0.3952    1.3240   -0.1740 C   0  0  1  0  0  0  0  0  0  0  0  0
   -1.9017    1.5326    0.9054 C   0  0  1  0  0  0  0  0  0  0  0  0
    1.7890    0.8216    0.2731 C   0  0  2  0  0  0  0  0  0  0  0  0
   -2.6186    1.1968   -0.4624 C   0  0  1  0  0  0  0  0  0  0  0  0
    0.3806    1.4585    2.2245 C   0  0  0  0  0  0  0  0  0  0  0  0
    1.8475    1.2626    1.7597 C   0  0  1  0  0  0  0  0  0  0  0  0
   -0.1885    0.6862   -1.4317 C   0  0  0  0  0  0  0  0  0  0  0  0
   -1.6063    1.2046   -1.6520 C   0  0  0  0  0  0  0  0  0  0  0  0
   -3.3404   -0.2077   -0.4481 C   0  0  1  0  0  0  0  0  0  0  0  0
   -0.5713   -0.6356    1.3064 C   0  0  0  0  0  0  0  0  0  0  0  0
   -2.8368    1.3095    2.1069 C   0  0  0  0  0  0  0  0  0  0  0  0
    0.4733    2.8671   -0.4325 C   0  0  0  0  0  0  0  0  0  0  0  0
    2.9946    1.3102   -0.5247 C   0  0  1  0  0  0  0  0  0  0  0  0
   -3.6469    2.3395   -0.7166 C   0  0  0  0  0  0  0  0  0  0  0  0
   -4.0057   -0.5689    0.8814 C   0  0  0  0  0  0  0  0  0  0  0  0
   -3.7697    0.1483    1.9954 C   0  0  0  0  0  0  0  0  0  0  0  0
   -4.9419   -1.7864    0.8550 C   0  0  0  0  0  0  0  0  0  0  0  0
   -4.3103   -0.3750   -1.6067 C   0  0  0  0  0  0  0  0  0  0  0  0
    2.8647    0.9569   -2.0030 C   0  0  0  0  0  0  0  0  0  0  0  0
    4.3101    0.7756    0.0603 C   0  0  0  0  0  0  0  0  0  0  0  0
   -5.9801   -1.5367   -0.2516 C   0  0  0  0  0  0  0  0  0  0  0  0
   -5.5213   -0.9377   -1.5333 C   0  0  0  0  0  0  0  0  0  0  0  0
    4.8303   -0.5611   -0.4691 C   0  0  0  0  0  0  0  0  0  0  0  0
   -4.2435   -3.1356    0.5693 C   0  0  0  0  0  0  0  0  0  0  0  0
   -5.6780   -1.9418    2.2005 C   0  0  0  0  0  0  0  0  0  0  0  0
    6.1694   -0.9738    0.1633 C   0  0  1  0  0  0  0  0  0  0  0  0
    6.7231   -2.3143   -0.3852 C   0  0  0  0  0  0  0  0  0  0  0  0
    6.9383   -2.2490   -1.9031 C   0  0  0  0  0  0  0  0  0  0  0  0
    5.8209   -3.5083   -0.0584 C   0  0  0  0  0  0  0  0  0  0  0  0
   -1.7314    2.6173    0.9261 H   0  0  0  0  0  0  0  0  0  0  0  0
    1.8162   -0.2754    0.2275 H   0  0  0  0  0  0  0  0  0  0  0  0
    0.1822    0.9558    3.1775 H   0  0  0  0  0  0  0  0  0  0  0  0
    0.1795    2.5260    2.3730 H   0  0  0  0  0  0  0  0  0  0  0  0
    2.3595    2.2220    1.8947 H   0  0  0  0  0  0  0  0  0  0  0  0
   -0.2121   -0.4056   -1.3926 H   0  0  0  0  0  0  0  0  0  0  0  0
    0.3595    0.9485   -2.3359 H   0  0  0  0  0  0  0  0  0  0  0  0
   -2.5833   -0.9751   -0.6403 H   0  0  0  0  0  0  0  0  0  0  0  0
    0.3940   -1.0769    1.5753 H   0  0  0  0  0  0  0  0  0  0  0  0
   -1.2244   -0.8667    2.1531 H   0  0  0  0  0  0  0  0  0  0  0  0
   -0.9214   -1.1999    0.4462 H   0  0  0  0  0  0  0  0  0  0  0  0
   -3.4553    2.2056    2.2490 H   0  0  0  0  0  0  0  0  0  0  0  0
   -2.2535    1.2100    3.0291 H   0  0  0  0  0  0  0  0  0  0  0  0
    0.9951    3.1097   -1.3631 H   0  0  0  0  0  0  0  0  0  0  0  0
   -0.5175    3.3078   -0.5812 H   0  0  0  0  0  0  0  0  0  0  0  0
    0.9118    3.4309    0.3957 H   0  0  0  0  0  0  0  0  0  0  0  0
   -4.1235    2.2669   -1.7000 H   0  0  0  0  0  0  0  0  0  0  0  0
   -4.4446    2.3476    0.0329 H   0  0  0  0  0  0  0  0  0  0  0  0
   -3.1540    3.3187   -0.6936 H   0  0  0  0  0  0  0  0  0  0  0  0
   -4.2509   -0.0924    2.9370 H   0  0  0  0  0  0  0  0  0  0  0  0
   -3.9891   -0.0141   -2.5806 H   0  0  0  0  0  0  0  0  0  0  0  0
    3.4902    0.3711    2.3312 H   0  0  0  0  0  0  0  0  0  0  0  0
    3.8273    1.0887   -2.5134 H   0  0  0  0  0  0  0  0  0  0  0  0
    2.5479   -0.0780   -2.1658 H   0  0  0  0  0  0  0  0  0  0  0  0
    2.2106    1.6456   -2.5419 H   0  0  0  0  0  0  0  0  0  0  0  0
    3.7301    3.0669   -0.9827 H   0  0  0  0  0  0  0  0  0  0  0  0
    4.0625   -1.3165   -0.2798 H   0  0  0  0  0  0  0  0  0  0  0  0
    4.9749   -0.4456   -1.5450 H   0  0  0  0  0  0  0  0  0  0  0  0
   -3.4895   -3.3560    1.3334 H   0  0  0  0  0  0  0  0  0  0  0  0
   -4.9654   -3.9605    0.5521 H   0  0  0  0  0  0  0  0  0  0  0  0
   -3.7388   -3.1353   -0.4030 H   0  0  0  0  0  0  0  0  0  0  0  0
   -6.2708   -1.0538    2.4524 H   0  0  0  0  0  0  0  0  0  0  0  0
   -6.3892   -2.7772    2.1618 H   0  0  0  0  0  0  0  0  0  0  0  0
   -4.9915   -2.1632    3.0262 H   0  0  0  0  0  0  0  0  0  0  0  0
    6.0556   -1.0435    1.2524 H   0  0  0  0  0  0  0  0  0  0  0  0
   -7.1810   -1.4837   -2.3096 H   0  0  0  0  0  0  0  0  0  0  0  0
    7.9508   -0.1892    0.3142 H   0  0  0  0  0  0  0  0  0  0  0  0
    7.5744   -1.4008   -2.1790 H   0  0  0  0  0  0  0  0  0  0  0  0
    7.4657   -3.1454   -2.2516 H   0  0  0  0  0  0  0  0  0  0  0  0
    5.9989   -2.1803   -2.4593 H   0  0  0  0  0  0  0  0  0  0  0  0
    5.6372   -3.5703    1.0203 H   0  0  0  0  0  0  0  0  0  0  0  0
    4.8557   -3.4527   -0.5706 H   0  0  0  0  0  0  0  0  0  0  0  0
    6.3043   -4.4500   -0.3436 H   0  0  0  0  0  0  0  0  0  0  0  0
    7.8697   -2.6112    1.1781 H   0  0  0  0  0  0  0  0  0  0  0  0
  1 15  1  0  0  0  0
  1 60  1  0  0  0  0
  2 22  1  0  0  0  0
  2 64  1  0  0  0  0
  3 17  2  0  0  0  0
  4 29  2  0  0  0  0
  5 31  1  0  0  0  0
  5 74  1  0  0  0  0
  6 30  2  0  0  0  0
  7 35  1  0  0  0  0
  7 75  1  0  0  0  0
  8 36  1  0  0  0  0
  8 82  1  0  0  0  0
  9 10  1  0  0  0  0
  9 11  1  0  0  0  0
  9 14  1  0  0  0  0
  9 19  1  0  0  0  0
 10 12  1  0  0  0  0
 10 16  1  0  0  0  0
 10 21  1  0  0  0  0
 11 13  1  0  0  0  0
 11 20  1  0  0  0  0
 11 39  1  0  0  0  0
 12 15  1  0  0  0  0
 12 22  1  0  0  0  0
 12 40  1  0  0  0  0
 13 17  1  0  0  0  0
 13 18  1  0  0  0  0
 13 23  1  0  0  0  0
 14 15  1  0  0  0  0
 14 41  1  0  0  0  0
 14 42  1  0  0  0  0
 15 43  1  0  0  0  0
 16 17  1  0  0  0  0
 16 44  1  0  0  0  0
 16 45  1  0  0  0  0
 18 24  1  0  0  0  0
 18 27  1  0  0  0  0
 18 46  1  0  0  0  0
 19 47  1  0  0  0  0
 19 48  1  0  0  0  0
 19 49  1  0  0  0  0
 20 25  1  0  0  0  0
 20 50  1  0  0  0  0
 20 51  1  0  0  0  0
 21 52  1  0  0  0  0
 21 53  1  0  0  0  0
 21 54  1  0  0  0  0
 22 28  1  0  0  0  0
 22 29  1  0  0  0  0
 23 55  1  0  0  0  0
 23 56  1  0  0  0  0
 23 57  1  0  0  0  0
 24 25  2  0  0  0  0
 24 26  1  0  0  0  0
 25 58  1  0  0  0  0
 26 30  1  0  0  0  0
 26 33  1  0  0  0  0
 26 34  1  0  0  0  0
 27 31  2  0  0  0  0
 27 59  1  0  0  0  0
 28 61  1  0  0  0  0
 28 62  1  0  0  0  0
 28 63  1  0  0  0  0
 29 32  1  0  0  0  0
 30 31  1  0  0  0  0
 32 35  1  0  0  0  0
 32 65  1  0  0  0  0
 32 66  1  0  0  0  0
 33 67  1  0  0  0  0
 33 68  1  0  0  0  0
 33 69  1  0  0  0  0
 34 70  1  0  0  0  0
 34 71  1  0  0  0  0
 34 72  1  0  0  0  0
 35 36  1  0  0  0  0
 35 73  1  0  0  0  0
 36 37  1  0  0  0  0
 36 38  1  0  0  0  0
 37 76  1  0  0  0  0
 37 77  1  0  0  0  0
 37 78  1  0  0  0  0
 38 79  1  0  0  0  0
 38 80  1  0  0  0  0
 38 81  1  0  0  0  0
M  END
> <PUBCHEM_COMPOUND_CID>
441819

> <PUBCHEM_CONFORMER_RMSD>
1

> <PUBCHEM_CONFORMER_DIVERSEORDER>
2
10
18
3
7
11
8
5
13
14
15
6
12
4
16
1
9
17

> <PUBCHEM_MMFF94_PARTIAL_CHARGES>
32
1 -0.68
13 0.06
15 0.28
16 0.06
17 0.45
18 0.28
2 -0.68
20 0.14
22 0.34
24 -0.28
25 -0.29
26 0.2
27 -0.29
29 0.45
3 -0.57
30 0.49
31 0.09
32 0.06
35 0.28
36 0.28
4 -0.57
5 -0.53
58 0.15
59 0.15
6 -0.57
60 0.4
64 0.4
7 -0.68
74 0.45
75 0.4
8 -0.68
82 0.4

> <PUBCHEM_EFFECTIVE_ROTOR_COUNT>
6.2

> <PUBCHEM_PHARMACOPHORE_FEATURES>
18
1 1 acceptor
1 1 donor
1 2 acceptor
1 2 donor
1 3 acceptor
1 4 acceptor
1 5 donor
1 6 acceptor
1 7 acceptor
1 7 donor
1 8 acceptor
1 8 donor
3 26 33 34 hydrophobe
3 36 37 38 hydrophobe
5 9 10 12 14 15 rings
6 11 13 18 20 24 25 rings
6 18 24 26 27 30 31 rings
6 9 10 11 13 16 17 rings

> <PUBCHEM_HEAVY_ATOM_COUNT>
38

> <PUBCHEM_ATOM_DEF_STEREO_COUNT>
8

> <PUBCHEM_ATOM_UDEF_STEREO_COUNT>
1

> <PUBCHEM_BOND_DEF_STEREO_COUNT>
0

> <PUBCHEM_BOND_UDEF_STEREO_COUNT>
0

> <PUBCHEM_ISOTOPIC_ATOM_COUNT>
0

> <PUBCHEM_COMPONENT_COUNT>
1

> <PUBCHEM_CACTVS_TAUTO_COUNT>
20

> <PUBCHEM_CONFORMER_ID>
0006BDDB00000002

> <PUBCHEM_MMFF94_ENERGY>
156.5184

> <PUBCHEM_FEATURE_SELFOVERLAP>
91.476

> <PUBCHEM_SHAPE_FINGERPRINT>
10 15 6266900177394262038
10076449 9 13757774999023953865
11112241 14 7348893247913777089
11135609 201 9223225248000275749
11393246 34 18342455975736095798
117089 54 18411410748430399454
12035758 1 14634867548164572304
12166972 35 18407758136590544304
12633257 1 15502381106126241576
12788726 201 17130732577203692309
13383661 66 17986938679236477795
13383668 254 9511193954483672071
1361 4 18338792296061600026
13690498 29 17846215591810799725
13782708 43 18412260640795337606
13911987 19 13902189287894061889
13947930 73 18187918435590037110
15064981 194 14620507910075540215
15082195 135 15051733088865098572
15183329 4 16702020915963850138
15352257 5 18410571816794827578
15510800 12 18343862203847836106
15705408 1 15768367138225382111
17980427 23 5906038253714047672
18393751 57 9439412345836240441
19958102 18 18273212006600866682
20105231 36 16558745690737581219
2026 5 18410576227405097838
20511986 3 5472869121244181749
20567600 247 18408044030988343394
21033648 144 9943807781339029083
21033650 10 16415202325505798997
21344244 181 18060136500986211170
21682296 61 18409727382852449742
21814621 53 18260557757309948232
21987483 16 16590577548219537327
22223350 30 17824833230330561910
22393880 68 17202776895201730657
23522609 53 17678989696244512664
23559900 14 18270124492119206321
23569914 152 17483430738305532471
23569914 2 6336994958499090794
2838139 119 9871474188349859162
32027 91 18335703776314590603
3383291 50 18186523220096690134
392239 28 16732983106913215869
4258327 124 11167936949153564275
439807 62 18335419066969166331
44880168 125 18340207367843357655
44880568 143 17203612570724559364
46194498 28 17988646260108118804
474113 269 17530974592237920367
504579 68 16056882459602287274
5104073 3 15647062529725950738
513202 73 18113337526848315897
563151 74 6915988040920974948
5718773 13 18411419549060722074
6036956 94 10015571844132843054
6081469 158 18335140870001834687
6608658 132 15554173674102895798
7970288 3 18410853270212182386
999808 66 18187642522674575486

> <PUBCHEM_SHAPE_MULTIPOLES>
735.07
18.68
3.19
2.33
19.22
1.52
0.1
19.74
3.42
1.87
0.08
-2.19
-0.37
1.17

> <PUBCHEM_SHAPE_SELFOVERLAP>
1570.32

> <PUBCHEM_SHAPE_VOLUME>
404.1

> <PUBCHEM_COORDINATE_TYPE>
2
5
10

$$$$

