441098
  -OEChem-07051213023D

 61 63  0     1  0  0  0  0  0999 V2000
    2.7079   -1.1918    1.5185 P   0  0  1  0  0  0  0  0  0  0  0  0
    0.7467   -3.3194    0.9854 P   0  0  2  0  0  0  0  0  0  0  0  0
   -3.0393   -1.7207   -0.3249 O   0  0  0  0  0  0  0  0  0  0  0  0
    1.4533    1.0544   -1.0020 O   0  0  0  0  0  0  0  0  0  0  0  0
   -3.6884   -2.1628   -3.2839 O   0  0  0  0  0  0  0  0  0  0  0  0
    2.8004    0.2315    0.7651 O   0  0  0  0  0  0  0  0  0  0  0  0
   -0.7181   -3.1577    0.3182 O   0  0  0  0  0  0  0  0  0  0  0  0
    4.9876    0.0789   -0.9459 O   0  0  0  0  0  0  0  0  0  0  0  0
    1.2716   -1.7938    1.0843 O   0  0  0  0  0  0  0  0  0  0  0  0
   -4.9439    1.9430   -0.4480 O   0  0  0  0  0  0  0  0  0  0  0  0
    3.7592   -2.1385    0.7338 O   0  0  0  0  0  0  0  0  0  0  0  0
    1.6501   -3.9384   -0.2051 O   0  0  0  0  0  0  0  0  0  0  0  0
    2.9237   -1.1243    3.0027 O   0  0  0  0  0  0  0  0  0  0  0  0
    0.7930   -4.0809    2.2778 O   0  0  0  0  0  0  0  0  0  0  0  0
   -2.0885    3.3789    2.8585 O   0  0  0  0  0  0  0  0  0  0  0  0
   -3.1339    0.5769    0.1070 N   0  0  0  0  0  0  0  0  0  0  0  0
    5.1193    2.8409   -2.0153 N   0  0  0  0  0  0  0  0  0  0  0  0
   -3.5114    2.6475    1.1987 N   0  0  0  0  0  0  0  0  0  0  0  0
   -2.5152   -1.6749   -2.6367 C   0  0  2  0  0  0  0  0  0  0  0  0
   -2.2915   -2.4282   -1.3329 C   0  0  1  0  0  0  0  0  0  0  0  0
   -2.7415   -0.2535   -2.1760 C   0  0  0  0  0  0  0  0  0  0  0  0
   -3.4488   -0.4479   -0.8448 C   0  0  1  0  0  0  0  0  0  0  0  0
    4.0511    2.3225   -1.1586 C   0  0  2  0  0  0  0  0  0  0  0  0
    3.8536    0.8171   -1.3854 C   0  0  2  0  0  0  0  0  0  0  0  0
    2.7466    3.0656   -1.4648 C   0  0  0  0  0  0  0  0  0  0  0  0
    1.5753    2.4479   -0.6964 C   0  0  1  0  0  0  0  0  0  0  0  0
    2.6129    0.2967   -0.6480 C   0  0  2  0  0  0  0  0  0  0  0  0
   -0.8302   -2.4488   -0.9035 C   0  0  0  0  0  0  0  0  0  0  0  0
    0.2610    3.1188   -1.0742 C   0  0  0  0  0  0  0  0  0  0  0  0
   -2.0133    0.4121    0.9111 C   0  0  0  0  0  0  0  0  0  0  0  0
   -3.9369    1.7309    0.2308 C   0  0  0  0  0  0  0  0  0  0  0  0
   -1.6089    1.2911    1.8363 C   0  0  0  0  0  0  0  0  0  0  0  0
   -2.4047    2.5329    2.0264 C   0  0  0  0  0  0  0  0  0  0  0  0
   -0.3988    1.0941    2.6918 C   0  0  0  0  0  0  0  0  0  0  0  0
   -1.6864   -1.7632   -3.3454 H   0  0  0  0  0  0  0  0  0  0  0  0
   -2.6875   -3.4493   -1.3646 H   0  0  0  0  0  0  0  0  0  0  0  0
   -3.3424    0.3467   -2.8665 H   0  0  0  0  0  0  0  0  0  0  0  0
   -1.7767    0.2505   -2.0409 H   0  0  0  0  0  0  0  0  0  0  0  0
   -4.5338   -0.4916   -0.9968 H   0  0  0  0  0  0  0  0  0  0  0  0
    4.3425    2.4985   -0.1155 H   0  0  0  0  0  0  0  0  0  0  0  0
    3.7237    0.6378   -2.4612 H   0  0  0  0  0  0  0  0  0  0  0  0
    2.5420    3.0028   -2.5427 H   0  0  0  0  0  0  0  0  0  0  0  0
    2.8443    4.1288   -1.2133 H   0  0  0  0  0  0  0  0  0  0  0  0
    1.7270    2.5641    0.3836 H   0  0  0  0  0  0  0  0  0  0  0  0
    2.4220   -0.7196   -1.0108 H   0  0  0  0  0  0  0  0  0  0  0  0
   -0.4160   -1.4442   -0.7925 H   0  0  0  0  0  0  0  0  0  0  0  0
   -0.2481   -2.9692   -1.6705 H   0  0  0  0  0  0  0  0  0  0  0  0
    0.2768    4.1864   -0.8350 H   0  0  0  0  0  0  0  0  0  0  0  0
   -0.5760    2.6558   -0.5467 H   0  0  0  0  0  0  0  0  0  0  0  0
    0.0551    3.0019   -2.1440 H   0  0  0  0  0  0  0  0  0  0  0  0
    5.2691    3.8292   -1.8161 H   0  0  0  0  0  0  0  0  0  0  0  0
    5.9935    2.3656   -1.7949 H   0  0  0  0  0  0  0  0  0  0  0  0
   -3.5235   -3.0911   -3.5220 H   0  0  0  0  0  0  0  0  0  0  0  0
   -1.4336   -0.4879    0.7846 H   0  0  0  0  0  0  0  0  0  0  0  0
    4.8110   -0.8619   -1.1172 H   0  0  0  0  0  0  0  0  0  0  0  0
   -4.0747    3.4865    1.3058 H   0  0  0  0  0  0  0  0  0  0  0  0
   -0.6658    1.1528    3.7521 H   0  0  0  0  0  0  0  0  0  0  0  0
    0.0645    0.1179    2.5265 H   0  0  0  0  0  0  0  0  0  0  0  0
    0.3498    1.8635    2.4788 H   0  0  0  0  0  0  0  0  0  0  0  0
    3.9703   -3.0217    1.1045 H   0  0  0  0  0  0  0  0  0  0  0  0
    1.7690   -3.4338   -1.0373 H   0  0  0  0  0  0  0  0  0  0  0  0
  1  6  1  0  0  0  0
  1  9  1  0  0  0  0
  1 11  1  0  0  0  0
  1 13  2  0  0  0  0
  2  7  1  0  0  0  0
  2  9  1  0  0  0  0
  2 12  1  0  0  0  0
  2 14  2  0  0  0  0
  3 20  1  0  0  0  0
  3 22  1  0  0  0  0
  4 26  1  0  0  0  0
  4 27  1  0  0  0  0
  5 19  1  0  0  0  0
  5 53  1  0  0  0  0
  6 27  1  0  0  0  0
  7 28  1  0  0  0  0
  8 24  1  0  0  0  0
  8 55  1  0  0  0  0
 10 31  2  0  0  0  0
 11 60  1  0  0  0  0
 12 61  1  0  0  0  0
 15 33  2  0  0  0  0
 16 22  1  0  0  0  0
 16 30  1  0  0  0  0
 16 31  1  0  0  0  0
 17 23  1  0  0  0  0
 17 51  1  0  0  0  0
 17 52  1  0  0  0  0
 18 31  1  0  0  0  0
 18 33  1  0  0  0  0
 18 56  1  0  0  0  0
 19 20  1  0  0  0  0
 19 21  1  0  0  0  0
 19 35  1  0  0  0  0
 20 28  1  0  0  0  0
 20 36  1  0  0  0  0
 21 22  1  0  0  0  0
 21 37  1  0  0  0  0
 21 38  1  0  0  0  0
 22 39  1  0  0  0  0
 23 24  1  0  0  0  0
 23 25  1  0  0  0  0
 23 40  1  0  0  0  0
 24 27  1  0  0  0  0
 24 41  1  0  0  0  0
 25 26  1  0  0  0  0
 25 42  1  0  0  0  0
 25 43  1  0  0  0  0
 26 29  1  0  0  0  0
 26 44  1  0  0  0  0
 27 45  1  0  0  0  0
 28 46  1  0  0  0  0
 28 47  1  0  0  0  0
 29 48  1  0  0  0  0
 29 49  1  0  0  0  0
 29 50  1  0  0  0  0
 30 32  2  0  0  0  0
 30 54  1  0  0  0  0
 32 33  1  0  0  0  0
 32 34  1  0  0  0  0
 34 57  1  0  0  0  0
 34 58  1  0  0  0  0
 34 59  1  0  0  0  0
M  END
> <PUBCHEM_COMPOUND_CID>
441098

> <PUBCHEM_CONFORMER_RMSD>
1.6

> <PUBCHEM_CONFORMER_DIVERSEORDER>
1
10
106
114
80
61
82
45
113
120
56
115
36
92
29
88
126
68
53
111
98
63
124
51
57
85
42
110
3
18
49
17
22
100
104
108
47
70
121
102
44
87
28
58
20
105
107
84
25
30
2
72
54
122
76
23
99
31
4
116
69
75
89
119
118
7
86
125
95
65
62
34
60
77
12
48
24
33
32
37
81
71
96
94
73
19
46
14
13
50
64
41
83
52
67
38
123
93
112
5
74
15
39
90
117
8
59
103
101
21
91
43
66
97
16
26
40
35
79
109
27
78
6
9
55
11

> <PUBCHEM_MMFF94_PARTIAL_CHARGES>
39
1 1.51
10 -0.57
11 -0.77
12 -0.77
13 -0.7
14 -0.7
15 -0.57
16 -0.47
17 -0.99
18 -0.49
19 0.28
2 1.51
20 0.28
22 0.58
23 0.27
24 0.28
26 0.28
27 0.56
28 0.28
3 -0.56
30 -0.04
31 0.69
32 -0.12
33 0.62
34 0.14
4 -0.56
5 -0.68
51 0.36
52 0.36
53 0.4
54 0.15
55 0.4
56 0.37
6 -0.55
60 0.5
61 0.5
7 -0.55
8 -0.68
9 -0.54

> <PUBCHEM_EFFECTIVE_ROTOR_COUNT>
10.2

> <PUBCHEM_PHARMACOPHORE_FEATURES>
18
1 10 acceptor
1 11 acceptor
1 12 acceptor
1 13 acceptor
1 14 acceptor
1 15 acceptor
1 17 cation
1 17 donor
1 18 donor
1 3 acceptor
1 4 acceptor
1 5 acceptor
1 5 donor
1 8 acceptor
1 8 donor
5 3 19 20 21 22 rings
6 16 18 30 31 32 33 rings
6 4 23 24 25 26 27 rings

> <PUBCHEM_HEAVY_ATOM_COUNT>
34

> <PUBCHEM_ATOM_DEF_STEREO_COUNT>
7

> <PUBCHEM_ATOM_UDEF_STEREO_COUNT>
0

> <PUBCHEM_BOND_DEF_STEREO_COUNT>
0

> <PUBCHEM_BOND_UDEF_STEREO_COUNT>
0

> <PUBCHEM_ISOTOPIC_ATOM_COUNT>
0

> <PUBCHEM_COMPONENT_COUNT>
1

> <PUBCHEM_CACTVS_TAUTO_COUNT>
3

> <PUBCHEM_CONFORMER_ID>
0006BB0A00000001

> <PUBCHEM_MMFF94_ENERGY>
31.0281

> <PUBCHEM_FEATURE_SELFOVERLAP>
91.365

> <PUBCHEM_SHAPE_FINGERPRINT>
10366900 7 15936680549312900684
11513181 2 16736941546679790239
12539773 59 18188497994307727661
12788726 201 18189609450060238187
14114206 34 18189060798132339973
14289585 56 17766828804044927902
15463212 79 18409439272109620897
19311894 1 18270389500301911862
20511986 3 18409730677167024124
20764821 26 17260746768379698532
20775438 99 15877890414422186806
21315764 21 17629518308375173093
21796203 349 17841126051987621152
21860390 5 17770482442065137104
23559900 14 17168144524889260024
238 59 17559974142115537532
35225 105 17097510922773020853
445580 8 18268996556017583066
469060 322 17768848529443117698
474144 1 18339648948520452697
5895379 119 18333170557675299918

> <PUBCHEM_SHAPE_MULTIPOLES>
616.16
8.46
5.21
3.02
3.59
2.08
-0.58
-4.41
4.16
0.37
-1.17
-0.98
0.02
-5.2

> <PUBCHEM_SHAPE_SELFOVERLAP>
1249.347

> <PUBCHEM_SHAPE_VOLUME>
359.8

> <PUBCHEM_COORDINATE_TYPE>
2
5
10

$$$$

