7647
  -OEChem-07051213053D

 28 29  0     0  0  0  0  0  0999 V2000
   -0.4429   -0.0175   -0.6108 C   0  0  0  0  0  0  0  0  0  0  0  0
    0.4479   -0.0177    0.6475 C   0  0  0  0  0  0  0  0  0  0  0  0
   -1.9057   -0.0069   -0.3199 C   0  0  0  0  0  0  0  0  0  0  0  0
    1.9236   -0.0068    0.3310 C   0  0  0  0  0  0  0  0  0  0  0  0
   -2.5973   -1.2099   -0.1781 C   0  0  0  0  0  0  0  0  0  0  0  0
    2.5956   -1.2100    0.1824 C   0  0  0  0  0  0  0  0  0  0  0  0
   -2.5821    1.2061   -0.1892 C   0  0  0  0  0  0  0  0  0  0  0  0
    2.5805    1.2060    0.1942 C   0  0  0  0  0  0  0  0  0  0  0  0
   -3.9653   -1.2001    0.0942 C   0  0  0  0  0  0  0  0  0  0  0  0
    3.9594   -1.2001   -0.1102 C   0  0  0  0  0  0  0  0  0  0  0  0
   -3.9501    1.2158    0.0832 C   0  0  0  0  0  0  0  0  0  0  0  0
    3.9444    1.2158   -0.0986 C   0  0  0  0  0  0  0  0  0  0  0  0
   -4.6417    0.0127    0.2248 C   0  0  0  0  0  0  0  0  0  0  0  0
    4.6337    0.0127   -0.2507 C   0  0  0  0  0  0  0  0  0  0  0  0
   -0.2014   -0.8912   -1.2316 H   0  0  0  0  0  0  0  0  0  0  0  0
   -0.1918    0.8486   -1.2385 H   0  0  0  0  0  0  0  0  0  0  0  0
    0.2152   -0.8934    1.2684 H   0  0  0  0  0  0  0  0  0  0  0  0
    0.2055    0.8502    1.2758 H   0  0  0  0  0  0  0  0  0  0  0  0
   -2.0813   -2.1615   -0.2753 H   0  0  0  0  0  0  0  0  0  0  0  0
    2.0785   -2.1594    0.2878 H   0  0  0  0  0  0  0  0  0  0  0  0
   -2.0542    2.1502   -0.2951 H   0  0  0  0  0  0  0  0  0  0  0  0
    2.0516    2.1479    0.3087 H   0  0  0  0  0  0  0  0  0  0  0  0
   -4.5038   -2.1368    0.2051 H   0  0  0  0  0  0  0  0  0  0  0  0
    4.4961   -2.1367   -0.2292 H   0  0  0  0  0  0  0  0  0  0  0  0
   -4.4768    2.1600    0.1857 H   0  0  0  0  0  0  0  0  0  0  0  0
    4.4695    2.1601   -0.2087 H   0  0  0  0  0  0  0  0  0  0  0  0
   -5.7068    0.0204    0.4372 H   0  0  0  0  0  0  0  0  0  0  0  0
    5.6955    0.0204   -0.4789 H   0  0  0  0  0  0  0  0  0  0  0  0
  1  2  1  0  0  0  0
  1  3  1  0  0  0  0
  1 15  1  0  0  0  0
  1 16  1  0  0  0  0
  2  4  1  0  0  0  0
  2 17  1  0  0  0  0
  2 18  1  0  0  0  0
  3  5  2  0  0  0  0
  3  7  1  0  0  0  0
  4  6  2  0  0  0  0
  4  8  1  0  0  0  0
  5  9  1  0  0  0  0
  5 19  1  0  0  0  0
  6 10  1  0  0  0  0
  6 20  1  0  0  0  0
  7 11  2  0  0  0  0
  7 21  1  0  0  0  0
  8 12  2  0  0  0  0
  8 22  1  0  0  0  0
  9 13  2  0  0  0  0
  9 23  1  0  0  0  0
 10 14  2  0  0  0  0
 10 24  1  0  0  0  0
 11 13  1  0  0  0  0
 11 25  1  0  0  0  0
 12 14  1  0  0  0  0
 12 26  1  0  0  0  0
 13 27  1  0  0  0  0
 14 28  1  0  0  0  0
M  END
> <PUBCHEM_COMPOUND_CID>
7647

> <PUBCHEM_CONFORMER_RMSD>
0.6

> <PUBCHEM_CONFORMER_DIVERSEORDER>
1
4
3
5
6
7
2
9
8

> <PUBCHEM_MMFF94_PARTIAL_CHARGES>
24
1 0.14
10 -0.15
11 -0.15
12 -0.15
13 -0.15
14 -0.15
19 0.15
2 0.14
20 0.15
21 0.15
22 0.15
23 0.15
24 0.15
25 0.15
26 0.15
27 0.15
28 0.15
3 -0.14
4 -0.14
5 -0.15
6 -0.15
7 -0.15
8 -0.15
9 -0.15

> <PUBCHEM_EFFECTIVE_ROTOR_COUNT>
3

> <PUBCHEM_PHARMACOPHORE_FEATURES>
2
6 3 5 7 9 11 13 rings
6 4 6 8 10 12 14 rings

> <PUBCHEM_HEAVY_ATOM_COUNT>
14

> <PUBCHEM_ATOM_DEF_STEREO_COUNT>
0

> <PUBCHEM_ATOM_UDEF_STEREO_COUNT>
0

> <PUBCHEM_BOND_DEF_STEREO_COUNT>
0

> <PUBCHEM_BOND_UDEF_STEREO_COUNT>
0

> <PUBCHEM_ISOTOPIC_ATOM_COUNT>
0

> <PUBCHEM_COMPONENT_COUNT>
1

> <PUBCHEM_CACTVS_TAUTO_COUNT>
1

> <PUBCHEM_CONFORMER_ID>
00001DDF00000001

> <PUBCHEM_MMFF94_ENERGY>
35.6197

> <PUBCHEM_FEATURE_SELFOVERLAP>
10.149

> <PUBCHEM_SHAPE_FINGERPRINT>
10014705 185 18131357427469315229
10616163 171 18336827494151882007
10680689 15 17632577167162081125
11615757 297 17894907408317320129
12107183 9 17689998255341621051
12346177 29 15357993226123157205
124424 183 17603871113273235825
128620 24 15770058332440864898
13167823 11 18410576184180371215
13675066 3 17749115503922403954
13760787 19 18335139786641590310
13897977 58 18411133624149564341
14123238 8 18410855455838469270
14341114 176 18410566293065653049
15196674 1 18410856559639796077
15239154 128 18410854364917172325
15242433 33 18409448085250052222
17834072 33 18409450258556134735
17834074 16 18410572885645494383
18186145 218 18131358522279527074
19050596 39 18413111658136129250
19422 9 18410573989446424931
1986462 14 18412262848128725749
200 152 18186802478183460347
20645477 70 18334011739694458350
21267235 1 18410566288570284071
21652331 79 18412263930371268173
22485316 2 18410295813004753510
23402539 116 18342745112876154428
23402655 69 18409166615048259340
23559900 14 18408890637376551600
3268164 11 16845584123031845631
3545911 37 18410855460133631452
42 15 18411980273418867134
4214541 1 18410293635704280265
474 4 17488175998705061460
4990 188 18335696161485274246
5104073 3 18410857663472765858
522135 26 18407760352582289214
5281201 14 18341891913728854524
542803 24 17275101734430483500
77779 3 18410573985151451141
9709674 26 18410568479004131270

> <PUBCHEM_SHAPE_MULTIPOLES>
288.11
10.62
1.45
0.71
0.07
0.01
0
0.03
0.06
0
0
-0.01
0
0.01

> <PUBCHEM_SHAPE_SELFOVERLAP>
610.733

> <PUBCHEM_SHAPE_VOLUME>
152.6

> <PUBCHEM_COORDINATE_TYPE>
2
5
10

$$$$

