442714
  -OEChem-07051212592D

 85 88  0     1  0  0  0  0  0999 V2000
    8.9875    1.9030    0.0000 O   0  0  0  0  0  0  0  0  0  0  0  0
    5.1260   -1.5740    0.0000 O   0  0  0  0  0  0  0  0  0  0  0  0
    9.3476    0.2088    0.0000 O   0  0  0  0  0  0  0  0  0  0  0  0
    4.7659    0.1203    0.0000 O   0  0  0  0  0  0  0  0  0  0  0  0
    2.1916   -2.1977    0.0000 O   0  0  0  0  0  0  0  0  0  0  0  0
    3.5298   -3.6840    0.0000 O   0  0  0  0  0  0  0  0  0  0  0  0
    2.8096   -0.2956    0.0000 O   0  0  0  0  0  0  0  0  0  0  0  0
    5.1771   -4.2192    0.0000 O   0  0  0  0  0  0  0  0  0  0  0  0
   11.2257    4.3709    0.0000 N   0  0  3  0  0  0  0  0  0  0  0  0
   11.2257    3.3709    0.0000 C   0  0  1  0  0  0  0  0  0  0  0  0
   10.2747    3.0619    0.0000 C   0  0  2  0  0  0  0  0  0  0  0  0
   12.1720    3.0662    0.0000 C   0  0  0  0  0  0  0  0  0  0  0  0
    9.6869    3.8709    0.0000 C   0  0  0  0  0  0  0  0  0  0  0  0
   10.2747    4.6800    0.0000 C   0  0  0  0  0  0  0  0  0  0  0  0
   12.1720    4.6757    0.0000 C   0  0  0  0  0  0  0  0  0  0  0  0
   12.7556    3.8709    0.0000 C   0  0  0  0  0  0  0  0  0  0  0  0
    9.9657    2.1109    0.0000 C   0  0  0  0  0  0  0  0  0  0  0  0
    8.6785    0.9519    0.0000 C   0  0  0  0  0  0  0  0  0  0  0  0
    7.7004    0.7440    0.0000 C   0  0  0  0  0  0  0  0  0  0  0  0
    3.1697   -1.9898    0.0000 C   0  0  1  0  0  0  0  0  0  0  0  0
    3.8389   -2.7329    0.0000 C   0  0  1  0  0  0  0  0  0  0  0  0
    3.4788   -1.0387    0.0000 C   0  0  2  0  0  0  0  0  0  0  0  0
    4.8170   -2.5250    0.0000 C   0  0  1  0  0  0  0  0  0  0  0  0
    4.4569   -0.8308    0.0000 C   0  0  1  0  0  0  0  0  0  0  0  0
    7.0312    1.4871    0.0000 C   0  0  0  0  0  0  0  0  0  0  0  0
    7.3914   -0.2071    0.0000 C   0  0  0  0  0  0  0  0  0  0  0  0
    5.7441    0.3282    0.0000 C   0  0  0  0  0  0  0  0  0  0  0  0
    6.0531    1.2792    0.0000 C   0  0  0  0  0  0  0  0  0  0  0  0
    6.4132   -0.4150    0.0000 C   0  0  0  0  0  0  0  0  0  0  0  0
    5.4862   -3.2682    0.0000 C   0  0  0  0  0  0  0  0  0  0  0  0
    5.3839    2.0224    0.0000 C   0  0  0  0  0  0  0  0  0  0  0  0
    6.1042   -1.3660    0.0000 C   0  0  0  0  0  0  0  0  0  0  0  0
    5.6930    2.9734    0.0000 C   0  0  0  0  0  0  0  0  0  0  0  0
    6.7733   -2.1092    0.0000 C   0  0  0  0  0  0  0  0  0  0  0  0
    5.0238    3.7166    0.0000 C   0  0  0  0  0  0  0  0  0  0  0  0
    7.7515   -1.9013    0.0000 C   0  0  0  0  0  0  0  0  0  0  0  0
    5.3329    4.6676    0.0000 C   0  0  0  0  0  0  0  0  0  0  0  0
    4.0457    3.5086    0.0000 C   0  0  0  0  0  0  0  0  0  0  0  0
    8.4206   -2.6444    0.0000 C   0  0  0  0  0  0  0  0  0  0  0  0
    8.0605   -0.9502    0.0000 C   0  0  0  0  0  0  0  0  0  0  0  0
   11.2269    2.5209    0.0000 H   0  0  0  0  0  0  0  0  0  0  0  0
    9.6623    2.9649    0.0000 H   0  0  0  0  0  0  0  0  0  0  0  0
   11.9209    2.4993    0.0000 H   0  0  0  0  0  0  0  0  0  0  0  0
   12.7094    2.7570    0.0000 H   0  0  0  0  0  0  0  0  0  0  0  0
    9.2262    4.2858    0.0000 H   0  0  0  0  0  0  0  0  0  0  0  0
    9.2262    3.4561    0.0000 H   0  0  0  0  0  0  0  0  0  0  0  0
   10.5269    5.2464    0.0000 H   0  0  0  0  0  0  0  0  0  0  0  0
    9.7378    4.9900    0.0000 H   0  0  0  0  0  0  0  0  0  0  0  0
   12.7094    4.9849    0.0000 H   0  0  0  0  0  0  0  0  0  0  0  0
   11.9209    5.2426    0.0000 H   0  0  0  0  0  0  0  0  0  0  0  0
   13.2164    3.4562    0.0000 H   0  0  0  0  0  0  0  0  0  0  0  0
   13.2164    4.2857    0.0000 H   0  0  0  0  0  0  0  0  0  0  0  0
    9.9873    1.4912    0.0000 H   0  0  0  0  0  0  0  0  0  0  0  0
   10.5796    2.0246    0.0000 H   0  0  0  0  0  0  0  0  0  0  0  0
    2.7549   -1.5290    0.0000 H   0  0  0  0  0  0  0  0  0  0  0  0
    4.2537   -3.1937    0.0000 H   0  0  0  0  0  0  0  0  0  0  0  0
    3.6704   -0.4491    0.0000 H   0  0  0  0  0  0  0  0  0  0  0  0
    5.4235   -2.3961    0.0000 H   0  0  0  0  0  0  0  0  0  0  0  0
    4.0420   -0.3701    0.0000 H   0  0  0  0  0  0  0  0  0  0  0  0
    7.2228    2.0768    0.0000 H   0  0  0  0  0  0  0  0  0  0  0  0
    7.8062   -0.6678    0.0000 H   0  0  0  0  0  0  0  0  0  0  0  0
    6.0336   -3.5592    0.0000 H   0  0  0  0  0  0  0  0  0  0  0  0
    5.8679   -2.7796    0.0000 H   0  0  0  0  0  0  0  0  0  0  0  0
    2.0000   -2.7873    0.0000 H   0  0  0  0  0  0  0  0  0  0  0  0
    2.9234   -3.8129    0.0000 H   0  0  0  0  0  0  0  0  0  0  0  0
    2.2032   -0.4245    0.0000 H   0  0  0  0  0  0  0  0  0  0  0  0
    4.8365    2.3134    0.0000 H   0  0  0  0  0  0  0  0  0  0  0  0
    5.0022    1.5338    0.0000 H   0  0  0  0  0  0  0  0  0  0  0  0
    5.5568   -1.0750    0.0000 H   0  0  0  0  0  0  0  0  0  0  0  0
    5.7225   -1.8546    0.0000 H   0  0  0  0  0  0  0  0  0  0  0  0
    5.5920   -4.6800    0.0000 H   0  0  0  0  0  0  0  0  0  0  0  0
    6.2994    3.1023    0.0000 H   0  0  0  0  0  0  0  0  0  0  0  0
    6.5817   -2.6988    0.0000 H   0  0  0  0  0  0  0  0  0  0  0  0
    5.9225    4.4760    0.0000 H   0  0  0  0  0  0  0  0  0  0  0  0
    5.5244    5.2573    0.0000 H   0  0  0  0  0  0  0  0  0  0  0  0
    4.7432    4.8592    0.0000 H   0  0  0  0  0  0  0  0  0  0  0  0
    3.9168    4.1151    0.0000 H   0  0  0  0  0  0  0  0  0  0  0  0
    3.4392    3.3798    0.0000 H   0  0  0  0  0  0  0  0  0  0  0  0
    4.1746    2.9022    0.0000 H   0  0  0  0  0  0  0  0  0  0  0  0
    7.9598   -3.0593    0.0000 H   0  0  0  0  0  0  0  0  0  0  0  0
    8.8354   -3.1052    0.0000 H   0  0  0  0  0  0  0  0  0  0  0  0
    8.8813   -2.2296    0.0000 H   0  0  0  0  0  0  0  0  0  0  0  0
    8.6501   -1.1418    0.0000 H   0  0  0  0  0  0  0  0  0  0  0  0
    8.2521   -0.3606    0.0000 H   0  0  0  0  0  0  0  0  0  0  0  0
    7.4708   -0.7586    0.0000 H   0  0  0  0  0  0  0  0  0  0  0  0
  1 17  1  0  0  0  0
  1 18  1  0  0  0  0
  2 23  1  0  0  0  0
  2 24  1  0  0  0  0
  3 18  2  0  0  0  0
 24  4  1  6  0  0  0
  4 27  1  0  0  0  0
 20  5  1  6  0  0  0
  5 64  1  0  0  0  0
 21  6  1  1  0  0  0
  6 65  1  0  0  0  0
 22  7  1  1  0  0  0
  7 66  1  0  0  0  0
  8 30  1  0  0  0  0
  8 71  1  0  0  0  0
  9 10  1  0  0  0  0
  9 14  1  0  0  0  0
  9 15  1  0  0  0  0
 10 11  1  0  0  0  0
 10 12  1  0  0  0  0
 10 41  1  1  0  0  0
 11 13  1  0  0  0  0
 11 17  1  1  0  0  0
 11 42  1  0  0  0  0
 12 16  1  0  0  0  0
 12 43  1  0  0  0  0
 12 44  1  0  0  0  0
 13 14  1  0  0  0  0
 13 45  1  0  0  0  0
 13 46  1  0  0  0  0
 14 47  1  0  0  0  0
 14 48  1  0  0  0  0
 15 16  1  0  0  0  0
 15 49  1  0  0  0  0
 15 50  1  0  0  0  0
 16 51  1  0  0  0  0
 16 52  1  0  0  0  0
 17 53  1  0  0  0  0
 17 54  1  0  0  0  0
 18 19  1  0  0  0  0
 19 25  2  0  0  0  0
 19 26  1  0  0  0  0
 20 21  1  0  0  0  0
 20 22  1  0  0  0  0
 20 55  1  0  0  0  0
 21 23  1  0  0  0  0
 21 56  1  0  0  0  0
 22 24  1  0  0  0  0
 22 57  1  0  0  0  0
 23 30  1  6  0  0  0
 23 58  1  0  0  0  0
 24 59  1  0  0  0  0
 25 28  1  0  0  0  0
 25 60  1  0  0  0  0
 26 29  2  0  0  0  0
 26 61  1  0  0  0  0
 27 28  2  0  0  0  0
 27 29  1  0  0  0  0
 28 31  1  0  0  0  0
 29 32  1  0  0  0  0
 30 62  1  0  0  0  0
 30 63  1  0  0  0  0
 31 33  1  0  0  0  0
 31 67  1  0  0  0  0
 31 68  1  0  0  0  0
 32 34  1  0  0  0  0
 32 69  1  0  0  0  0
 32 70  1  0  0  0  0
 33 35  2  0  0  0  0
 33 72  1  0  0  0  0
 34 36  2  0  0  0  0
 34 73  1  0  0  0  0
 35 37  1  0  0  0  0
 35 38  1  0  0  0  0
 36 39  1  0  0  0  0
 36 40  1  0  0  0  0
 37 74  1  0  0  0  0
 37 75  1  0  0  0  0
 37 76  1  0  0  0  0
 38 77  1  0  0  0  0
 38 78  1  0  0  0  0
 38 79  1  0  0  0  0
 39 80  1  0  0  0  0
 39 81  1  0  0  0  0
 39 82  1  0  0  0  0
 40 83  1  0  0  0  0
 40 84  1  0  0  0  0
 40 85  1  0  0  0  0
M  END
> <PUBCHEM_COMPOUND_CID>
442714

> <PUBCHEM_COMPOUND_CANONICALIZED>
1

> <PUBCHEM_CACTVS_COMPLEXITY>
870

> <PUBCHEM_CACTVS_HBOND_ACCEPTOR>
9

> <PUBCHEM_CACTVS_HBOND_DONOR>
4

> <PUBCHEM_CACTVS_ROTATABLE_BOND>
11

> <PUBCHEM_CACTVS_SUBSKEYS>
AAADcfB6PAAAAAAAAAAAAAAAAAAAAWLAAAA0QAAAAAAWAAABAAAAHgAACAAADTzxmAcyDoMABgCIAiDSCAACCAAkIAAAiAEMCMgdNjKEtRqmeSCnwBGPqYf47OzOIAACAAAIAABAAAQAABAAAAAAAAAAAA==

> <PUBCHEM_IUPAC_OPENEYE_NAME>
[(1S,8R)-2,3,5,6,7,8-hexahydro-1H-pyrrolizin-1-yl]methyl 3,5-bis(3-methylbut-2-enyl)-4-[(2S,3R,4S,5S,6R)-3,4,5-trihydroxy-6-(hydroxymethyl)tetrahydropyran-2-yl]oxy-benzoate

> <PUBCHEM_IUPAC_CAS_NAME>
3,5-bis(3-methylbut-2-enyl)-4-[[(2S,3R,4S,5S,6R)-3,4,5-trihydroxy-6-(hydroxymethyl)-2-oxanyl]oxy]benzoic acid [(1S,8R)-2,3,5,6,7,8-hexahydro-1H-pyrrolizin-1-yl]methyl ester

> <PUBCHEM_IUPAC_NAME>
[(1S,8R)-2,3,5,6,7,8-hexahydro-1H-pyrrolizin-1-yl]methyl 3,5-bis(3-methylbut-2-enyl)-4-[(2S,3R,4S,5S,6R)-3,4,5-trihydroxy-6-(hydroxymethyl)oxan-2-yl]oxybenzoate

> <PUBCHEM_IUPAC_SYSTEMATIC_NAME>
[(1S,8R)-2,3,5,6,7,8-hexahydro-1H-pyrrolizin-1-yl]methyl 4-[(2S,3R,4S,5S,6R)-6-(hydroxymethyl)-3,4,5-tris(oxidanyl)oxan-2-yl]oxy-3,5-bis(3-methylbut-2-enyl)benzoate

> <PUBCHEM_IUPAC_TRADITIONAL_NAME>
3,5-bis(3-methylbut-2-enyl)-4-[(2S,3R,4S,5S,6R)-3,4,5-trihydroxy-6-methylol-tetrahydropyran-2-yl]oxy-benzoic acid [(1S,8R)-pyrrolizidin-1-yl]methyl ester

> <PUBCHEM_IUPAC_INCHI>
InChI=1S/C31H45NO8/c1-18(2)7-9-20-14-23(30(37)38-17-22-11-13-32-12-5-6-24(22)32)15-21(10-8-19(3)4)29(20)40-31-28(36)27(35)26(34)25(16-33)39-31/h7-8,14-15,22,24-28,31,33-36H,5-6,9-13,16-17H2,1-4H3/t22-,24-,25-,26-,27+,28-,31+/m1/s1

> <PUBCHEM_IUPAC_INCHIKEY>
FQXZITIIHQHGBC-KRYJLITLSA-N

> <PUBCHEM_XLOGP3_AA>
4.4

> <PUBCHEM_EXACT_MASS>
559.314517

> <PUBCHEM_MOLECULAR_FORMULA>
C31H45NO8

> <PUBCHEM_MOLECULAR_WEIGHT>
559.6909

> <PUBCHEM_OPENEYE_CAN_SMILES>
CC(=CCC1=CC(=CC(=C1OC2C(C(C(C(O2)CO)O)O)O)CC=C(C)C)C(=O)OCC3CCN4C3CCC4)C

> <PUBCHEM_OPENEYE_ISO_SMILES>
CC(=CCC1=CC(=CC(=C1O[C@H]2[C@@H]([C@H]([C@@H]([C@H](O2)CO)O)O)O)CC=C(C)C)C(=O)OC[C@H]3CCN4[C@@H]3CCC4)C

> <PUBCHEM_CACTVS_TPSA>
129

> <PUBCHEM_MONOISOTOPIC_WEIGHT>
559.314517

> <PUBCHEM_TOTAL_CHARGE>
0

> <PUBCHEM_HEAVY_ATOM_COUNT>
40

> <PUBCHEM_ATOM_DEF_STEREO_COUNT>
7

> <PUBCHEM_ATOM_UDEF_STEREO_COUNT>
0

> <PUBCHEM_BOND_DEF_STEREO_COUNT>
0

> <PUBCHEM_BOND_UDEF_STEREO_COUNT>
0

> <PUBCHEM_ISOTOPIC_ATOM_COUNT>
0

> <PUBCHEM_COMPONENT_COUNT>
1

> <PUBCHEM_CACTVS_TAUTO_COUNT>
1

> <PUBCHEM_COORDINATE_TYPE>
1
5
255

> <PUBCHEM_BONDANNOTATIONS>
10  41  5
11  17  5
19  25  8
19  26  8
23  30  6
25  28  8
26  29  8
27  28  8
27  29  8
24  4  6
20  5  6
21  6  5
22  7  5

$$$$

