12691
  -OEChem-06261207153D

  8  7  0     0  0  0  0  0  0999 V2000
   -1.2513    1.4099    0.0003 Cl  0  0  0  0  0  0  0  0  0  0  0  0
    2.0493    0.0405    0.0003 O   0  0  0  0  0  0  0  0  0  0  0  0
   -1.2521   -1.3285    0.0003 C   0  0  0  0  0  0  0  0  0  0  0  0
   -0.4208   -0.0960   -0.0007 C   0  0  0  0  0  0  0  0  0  0  0  0
    0.8750   -0.0258   -0.0002 C   0  0  0  0  0  0  0  0  0  0  0  0
   -1.8894   -1.3645    0.8899 H   0  0  0  0  0  0  0  0  0  0  0  0
   -1.8932   -1.3635   -0.8866 H   0  0  0  0  0  0  0  0  0  0  0  0
   -0.6295   -2.2296   -0.0016 H   0  0  0  0  0  0  0  0  0  0  0  0
  1  4  1  0  0  0  0
  2  5  2  0  0  0  0
  3  4  1  0  0  0  0
  3  6  1  0  0  0  0
  3  7  1  0  0  0  0
  3  8  1  0  0  0  0
  4  5  2  0  0  0  0
M  END
> <PUBCHEM_COMPOUND_CID>
12691

> <PUBCHEM_CONFORMER_RMSD>
0.4

> <PUBCHEM_CONFORMER_DIVERSEORDER>
1

> <PUBCHEM_MMFF94_PARTIAL_CHARGES>
5
1 -0.14
2 -0.49
3 0.14
4 0.07
5 0.42

> <PUBCHEM_EFFECTIVE_ROTOR_COUNT>
0

> <PUBCHEM_PHARMACOPHORE_FEATURES>
0

> <PUBCHEM_HEAVY_ATOM_COUNT>
5

> <PUBCHEM_ATOM_DEF_STEREO_COUNT>
0

> <PUBCHEM_ATOM_UDEF_STEREO_COUNT>
0

> <PUBCHEM_BOND_DEF_STEREO_COUNT>
0

> <PUBCHEM_BOND_UDEF_STEREO_COUNT>
0

> <PUBCHEM_ISOTOPIC_ATOM_COUNT>
0

> <PUBCHEM_COMPONENT_COUNT>
1

> <PUBCHEM_CACTVS_TAUTO_COUNT>
1

> <PUBCHEM_CONFORMER_ID>
0000319300000001

> <PUBCHEM_MMFF94_ENERGY>
1.3951

> <PUBCHEM_FEATURE_SELFOVERLAP>
0

> <PUBCHEM_SHAPE_FINGERPRINT>
139733 1 9222417111080132739
16714656 1 18410568492120401173
20096714 4 18195527223251320376
21015797 1 8646771105519599731
21040471 1 18194401319012522212
23552449 1 18336270063146546168
29004967 10 17980478962386277139
5943 1 13825567573649209075

> <PUBCHEM_SHAPE_MULTIPOLES>
98.9
2.09
1.42
0.61
1.03
0.03
0
-0.2
0
-0.94
0
-0.05
-0.01
0

> <PUBCHEM_SHAPE_SELFOVERLAP>
171.386

> <PUBCHEM_SHAPE_VOLUME>
66.1

> <PUBCHEM_COORDINATE_TYPE>
2
5
10

$$$$

