442260
  -OEChem-07051212573D

 58 61  0     1  0  0  0  0  0999 V2000
    1.6700    1.4659   -0.6819 O   0  0  0  0  0  0  0  0  0  0  0  0
    2.5126   -0.7090   -0.7448 O   0  0  0  0  0  0  0  0  0  0  0  0
    5.4055    3.0319   -0.0034 O   0  0  0  0  0  0  0  0  0  0  0  0
    3.0574    4.6306    0.5316 O   0  0  0  0  0  0  0  0  0  0  0  0
    4.8649    0.1884    0.5471 O   0  0  0  0  0  0  0  0  0  0  0  0
   -2.2795   -0.3851    0.4488 O   0  0  0  0  0  0  0  0  0  0  0  0
   -0.6613    2.9147   -0.5330 O   0  0  0  0  0  0  0  0  0  0  0  0
    3.3257   -3.1805    0.2051 O   0  0  0  0  0  0  0  0  0  0  0  0
    1.4399   -4.9723    1.1554 O   0  0  0  0  0  0  0  0  0  0  0  0
   -5.1842    3.2963    1.1051 O   0  0  0  0  0  0  0  0  0  0  0  0
    4.1407    2.4836    0.3711 C   0  0  1  0  0  0  0  0  0  0  0  0
    3.0469    3.3971   -0.1821 C   0  0  1  0  0  0  0  0  0  0  0  0
    4.0143    1.0668   -0.1892 C   0  0  2  0  0  0  0  0  0  0  0  0
    1.6703    2.7430   -0.0416 C   0  0  1  0  0  0  0  0  0  0  0  0
    2.5799    0.5503   -0.0765 C   0  0  1  0  0  0  0  0  0  0  0  0
    0.5764    3.5839   -0.6920 C   0  0  0  0  0  0  0  0  0  0  0  0
   -2.1705   -1.7971    0.2043 C   0  0  1  0  0  0  0  0  0  0  0  0
   -2.8388   -2.1937   -1.1148 C   0  0  0  0  0  0  0  0  0  0  0  0
   -0.7018   -2.1664    0.2057 C   0  0  0  0  0  0  0  0  0  0  0  0
   -4.3274   -1.8802   -1.0320 C   0  0  0  0  0  0  0  0  0  0  0  0
    1.5942   -1.6053   -0.2709 C   0  0  0  0  0  0  0  0  0  0  0  0
    0.2452   -1.2612   -0.2728 C   0  0  0  0  0  0  0  0  0  0  0  0
   -4.5435   -0.5081   -0.4611 C   0  0  0  0  0  0  0  0  0  0  0  0
   -3.5270    0.1475    0.2458 C   0  0  0  0  0  0  0  0  0  0  0  0
    2.0036   -2.8475    0.2060 C   0  0  0  0  0  0  0  0  0  0  0  0
   -0.2962   -3.4124    0.6841 C   0  0  0  0  0  0  0  0  0  0  0  0
    1.0564   -3.7529    0.6843 C   0  0  0  0  0  0  0  0  0  0  0  0
   -5.7864    0.1215   -0.6094 C   0  0  0  0  0  0  0  0  0  0  0  0
   -3.7397    1.4289    0.7605 C   0  0  0  0  0  0  0  0  0  0  0  0
   -6.0006    1.3964   -0.0841 C   0  0  0  0  0  0  0  0  0  0  0  0
   -4.9765    2.0509    0.5967 C   0  0  0  0  0  0  0  0  0  0  0  0
    3.8296   -3.8259   -0.9620 C   0  0  0  0  0  0  0  0  0  0  0  0
    4.1227    2.4772    1.4673 H   0  0  0  0  0  0  0  0  0  0  0  0
    3.2505    3.6231   -1.2367 H   0  0  0  0  0  0  0  0  0  0  0  0
    4.3527    1.0344   -1.2317 H   0  0  0  0  0  0  0  0  0  0  0  0
    1.4078    2.6046    1.0161 H   0  0  0  0  0  0  0  0  0  0  0  0
    2.3161    0.4143    0.9829 H   0  0  0  0  0  0  0  0  0  0  0  0
    0.7522    3.7105   -1.7654 H   0  0  0  0  0  0  0  0  0  0  0  0
    0.4958    4.5715   -0.2290 H   0  0  0  0  0  0  0  0  0  0  0  0
   -2.6554   -2.3082    1.0483 H   0  0  0  0  0  0  0  0  0  0  0  0
   -2.6937   -3.2570   -1.3380 H   0  0  0  0  0  0  0  0  0  0  0  0
   -2.3974   -1.6224   -1.9429 H   0  0  0  0  0  0  0  0  0  0  0  0
    5.4561    3.0396   -0.9744 H   0  0  0  0  0  0  0  0  0  0  0  0
   -4.8267   -2.6117   -0.3852 H   0  0  0  0  0  0  0  0  0  0  0  0
   -4.7693   -1.9545   -2.0322 H   0  0  0  0  0  0  0  0  0  0  0  0
    3.9482    5.0105    0.4425 H   0  0  0  0  0  0  0  0  0  0  0  0
    4.5785    0.1999    1.4763 H   0  0  0  0  0  0  0  0  0  0  0  0
   -0.0738   -0.3070   -0.6789 H   0  0  0  0  0  0  0  0  0  0  0  0
   -1.0360   -4.1179    1.0548 H   0  0  0  0  0  0  0  0  0  0  0  0
   -0.5828    2.0445   -0.9597 H   0  0  0  0  0  0  0  0  0  0  0  0
   -6.5934   -0.3768   -1.1408 H   0  0  0  0  0  0  0  0  0  0  0  0
   -2.9434    1.9406    1.2958 H   0  0  0  0  0  0  0  0  0  0  0  0
   -6.9707    1.8684   -0.2151 H   0  0  0  0  0  0  0  0  0  0  0  0
    0.6512   -5.4636    1.4430 H   0  0  0  0  0  0  0  0  0  0  0  0
    4.8930   -4.0289   -0.8088 H   0  0  0  0  0  0  0  0  0  0  0  0
    3.7204   -3.1783   -1.8376 H   0  0  0  0  0  0  0  0  0  0  0  0
    3.3131   -4.7760   -1.1310 H   0  0  0  0  0  0  0  0  0  0  0  0
   -6.0940    3.5726    0.9003 H   0  0  0  0  0  0  0  0  0  0  0  0
  1 14  1  0  0  0  0
  1 15  1  0  0  0  0
  2 15  1  0  0  0  0
  2 21  1  0  0  0  0
  3 11  1  0  0  0  0
  3 43  1  0  0  0  0
  4 12  1  0  0  0  0
  4 46  1  0  0  0  0
  5 13  1  0  0  0  0
  5 47  1  0  0  0  0
  6 17  1  0  0  0  0
  6 24  1  0  0  0  0
  7 16  1  0  0  0  0
  7 50  1  0  0  0  0
  8 25  1  0  0  0  0
  8 32  1  0  0  0  0
  9 27  1  0  0  0  0
  9 54  1  0  0  0  0
 10 31  1  0  0  0  0
 10 58  1  0  0  0  0
 11 12  1  0  0  0  0
 11 13  1  0  0  0  0
 11 33  1  0  0  0  0
 12 14  1  0  0  0  0
 12 34  1  0  0  0  0
 13 15  1  0  0  0  0
 13 35  1  0  0  0  0
 14 16  1  0  0  0  0
 14 36  1  0  0  0  0
 15 37  1  0  0  0  0
 16 38  1  0  0  0  0
 16 39  1  0  0  0  0
 17 18  1  0  0  0  0
 17 19  1  0  0  0  0
 17 40  1  0  0  0  0
 18 20  1  0  0  0  0
 18 41  1  0  0  0  0
 18 42  1  0  0  0  0
 19 22  1  0  0  0  0
 19 26  2  0  0  0  0
 20 23  1  0  0  0  0
 20 44  1  0  0  0  0
 20 45  1  0  0  0  0
 21 22  2  0  0  0  0
 21 25  1  0  0  0  0
 22 48  1  0  0  0  0
 23 24  2  0  0  0  0
 23 28  1  0  0  0  0
 24 29  1  0  0  0  0
 25 27  2  0  0  0  0
 26 27  1  0  0  0  0
 26 49  1  0  0  0  0
 28 30  2  0  0  0  0
 28 51  1  0  0  0  0
 29 31  2  0  0  0  0
 29 52  1  0  0  0  0
 30 31  1  0  0  0  0
 30 53  1  0  0  0  0
 32 55  1  0  0  0  0
 32 56  1  0  0  0  0
 32 57  1  0  0  0  0
M  END
> <PUBCHEM_COMPOUND_CID>
442260

> <PUBCHEM_CONFORMER_RMSD>
1

> <PUBCHEM_CONFORMER_DIVERSEORDER>
1
233
310
271
93
67
172
61
122
322
279
132
316
175
26
325
290
308
193
19
327
177
22
151
243
21
296
302
264
258
281
176
328
27
4
245
289
190
311
307
46
323
270
329
254
305
224
280
54
148
171
253
105
156
318
234
80
133
222
312
6
36
276
309
227
269
160
158
29
39
315
215
17
208
33
91
162
299
15
23
263
56
241
286
42
45
291
58
256
295
326
2
98
20
38
206
250
260
248
111
183
43
275
293
211
68
136
118
170
143
239
200
285
167
321
261
32
130
205
30
107
77
53
204
24
147
8
103
100
10
154
278
225
207
102
141
195
292
197
186
199
5
3
65
217
159
135
94
173
257
212
9
52
119
40
202
163
85
303
157
48
97
272
73
114
14
96
47
131
50
210
331
249
304
228
194
144
287
104
262
92
298
237
313
89
7
12
69
283
201
71
113
59
314
259
174
117
153
87
247
226
178
182
300
18
142
168
320
184
90
319
120
198
108
189
181
268
63
86
128
274
16
149
223
140
79
229
124
242
187
294
134
41
121
179
11
37
127
214
165
252
82
44
125
240
192
70
230
62
332
251
64
49
220
95
238
25
74
60
83
288
123
317
75
324
112
236
265
188
35
267
203
139
219
277
297
13
306
232
138
218
146
161
28
78
99
180
150
301
166
284
266
191
101
330
255
109
145
246
231
152
155
106
273
81
31
235
213
34
282
57
216
115
129
164
185
88
72
209
76
55
51
244
116
126
169
110
84
221
137
66
196

> <PUBCHEM_MMFF94_PARTIAL_CHARGES>
42
1 -0.56
10 -0.53
11 0.28
12 0.28
13 0.28
14 0.28
15 0.56
16 0.28
17 0.42
19 -0.14
2 -0.36
20 0.14
21 0.08
22 -0.15
23 -0.14
24 0.08
25 0.08
26 -0.15
27 0.08
28 -0.15
29 -0.15
3 -0.68
30 -0.15
31 0.08
32 0.28
4 -0.68
43 0.4
46 0.4
47 0.4
48 0.15
49 0.15
5 -0.68
50 0.4
51 0.15
52 0.15
53 0.15
54 0.45
58 0.45
6 -0.36
7 -0.68
8 -0.36
9 -0.53

> <PUBCHEM_EFFECTIVE_ROTOR_COUNT>
7

> <PUBCHEM_PHARMACOPHORE_FEATURES>
18
1 1 acceptor
1 10 donor
1 2 acceptor
1 3 acceptor
1 3 donor
1 4 acceptor
1 4 donor
1 5 acceptor
1 5 donor
1 6 acceptor
1 7 acceptor
1 7 donor
1 8 acceptor
1 9 donor
6 1 11 12 13 14 15 rings
6 19 21 22 25 26 27 rings
6 23 24 28 29 30 31 rings
6 6 17 18 20 23 24 rings

> <PUBCHEM_HEAVY_ATOM_COUNT>
32

> <PUBCHEM_ATOM_DEF_STEREO_COUNT>
6

> <PUBCHEM_ATOM_UDEF_STEREO_COUNT>
0

> <PUBCHEM_BOND_DEF_STEREO_COUNT>
0

> <PUBCHEM_BOND_UDEF_STEREO_COUNT>
0

> <PUBCHEM_ISOTOPIC_ATOM_COUNT>
0

> <PUBCHEM_COMPONENT_COUNT>
1

> <PUBCHEM_CACTVS_TAUTO_COUNT>
8

> <PUBCHEM_CONFORMER_ID>
0006BF9400000001

> <PUBCHEM_MMFF94_ENERGY>
110.2379

> <PUBCHEM_FEATURE_SELFOVERLAP>
91.434

> <PUBCHEM_SHAPE_FINGERPRINT>
10411042 1 17907299106474712490
10439779 11 18336555957850099376
10483366 6 18339065082894088078
1100329 8 18338514278116629963
11513181 2 18186517691845383807
12107183 9 17830163968230209017
12788726 201 17621871419864014930
12925494 130 18412824703577909617
13140716 1 18412825763495594160
13583140 156 18128238181954343531
13590594 115 17978220896394980010
138480 1 18195809789144228635
14117953 113 17614279292538068757
14466204 15 18338241453462548928
14790565 3 18268424634126206028
14849402 71 18341328968191979234
15082195 135 18263947487555417383
15320467 1 18410575046373149641
15400415 2 18267303132129230845
15664445 248 18118677953424763934
18681886 176 18191030195104137971
20028762 73 18334017181591679980
20511986 3 17968108516461619701
20642791 35 18265891543860836358
22122407 14 18122047970271102105
23559900 14 18409451422603723683
245318 6 17844237424379887205
24771293 8 18261971738285946570
25265897 201 17824793772945419479
4058900 60 18271799069660376556
474 4 18412549795063031219
6371009 1 18194981650825353477
6371380 46 18337107849106979148
7288768 16 18059577928015927251
79837 15 17981604870856791251
9981440 41 18196657280934614435

> <PUBCHEM_SHAPE_MULTIPOLES>
599.85
11.95
6.74
0.93
10.1
0.71
-0.03
-7.99
-0.14
-7.04
0.98
0.36
0.3
-0.99

> <PUBCHEM_SHAPE_SELFOVERLAP>
1295.858

> <PUBCHEM_SHAPE_VOLUME>
326.5

> <PUBCHEM_COORDINATE_TYPE>
2
5
10

$$$$

