121893
  -OEChem-07051212453D

 82 86  0     0  0  0  0  0  0999 V2000
    1.1618   -5.4957   -2.5392 O   0  0  0  0  0  0  0  0  0  0  0  0
   -5.7101    2.3854    3.0260 O   0  0  0  0  0  0  0  0  0  0  0  0
   -0.2322   -6.4861   -1.0474 O   0  0  0  0  0  0  0  0  0  0  0  0
   -6.9565    1.2889    1.4790 O   0  0  0  0  0  0  0  0  0  0  0  0
   -1.1549   -0.7237    1.7828 N   0  0  0  0  0  0  0  0  0  0  0  0
   -1.5544   -0.2197   -1.7855 N   0  0  0  0  0  0  0  0  0  0  0  0
    1.3857    1.6944    1.8060 N   0  0  0  0  0  0  0  0  0  0  0  0
    0.7785    2.5491   -1.5403 N   0  0  0  0  0  0  0  0  0  0  0  0
   -1.4714   -1.7544    0.9287 C   0  0  0  0  0  0  0  0  0  0  0  0
   -2.5679   -0.4472   -0.8845 C   0  0  0  0  0  0  0  0  0  0  0  0
   -2.6132   -1.6726   -0.0319 C   0  0  0  0  0  0  0  0  0  0  0  0
   -0.5653   -2.7695    1.1649 C   0  0  0  0  0  0  0  0  0  0  0  0
   -3.4263    0.6319   -0.9546 C   0  0  0  0  0  0  0  0  0  0  0  0
   -0.0230   -1.0310    2.4991 C   0  0  0  0  0  0  0  0  0  0  0  0
   -1.7076    1.0170   -2.3670 C   0  0  0  0  0  0  0  0  0  0  0  0
    0.3430   -2.3163    2.1526 C   0  0  0  0  0  0  0  0  0  0  0  0
   -2.8863    1.5513   -1.8856 C   0  0  0  0  0  0  0  0  0  0  0  0
    0.6079   -0.0489    3.4290 C   0  0  0  0  0  0  0  0  0  0  0  0
   -0.7044    1.5763   -3.3216 C   0  0  0  0  0  0  0  0  0  0  0  0
    1.6786    0.7368    2.7480 C   0  0  0  0  0  0  0  0  0  0  0  0
    0.6299    1.8100   -2.6907 C   0  0  0  0  0  0  0  0  0  0  0  0
    2.0924    2.5416   -1.1375 C   0  0  0  0  0  0  0  0  0  0  0  0
    2.5447    2.1952    1.2623 C   0  0  0  0  0  0  0  0  0  0  0  0
    2.5250    3.1795    0.1404 C   0  0  0  0  0  0  0  0  0  0  0  0
   -0.5344   -4.0853    0.4911 C   0  0  0  0  0  0  0  0  0  0  0  0
   -4.6932    0.7888   -0.2091 C   0  0  0  0  0  0  0  0  0  0  0  0
    3.0533    0.6901    2.8673 C   0  0  0  0  0  0  0  0  0  0  0  0
    2.8089    1.8510   -2.0944 C   0  0  0  0  0  0  0  0  0  0  0  0
    1.8901    1.3898   -3.0685 C   0  0  0  0  0  0  0  0  0  0  0  0
    3.5974    1.6062    1.9339 C   0  0  0  0  0  0  0  0  0  0  0  0
    1.4895   -3.0743    2.6960 C   0  0  0  0  0  0  0  0  0  0  0  0
   -3.4883    2.8403   -2.2869 C   0  0  0  0  0  0  0  0  0  0  0  0
    0.3035   -4.1206   -0.8027 C   0  0  0  0  0  0  0  0  0  0  0  0
   -4.5505    1.5017    1.1506 C   0  0  0  0  0  0  0  0  0  0  0  0
    3.8153   -0.1799    3.7897 C   0  0  0  0  0  0  0  0  0  0  0  0
    4.2695    1.6183   -2.0857 C   0  0  0  0  0  0  0  0  0  0  0  0
    2.1817    0.6169   -4.2162 C   0  0  0  0  0  0  0  0  0  0  0  0
    4.9660    1.8692    1.6970 C   0  0  0  0  0  0  0  0  0  0  0  0
    0.3506   -5.4887   -1.4488 C   0  0  0  0  0  0  0  0  0  0  0  0
   -5.8683    1.6843    1.8726 C   0  0  0  0  0  0  0  0  0  0  0  0
    2.2084   -0.7333   -4.3464 C   0  0  0  0  0  0  0  0  0  0  0  0
    6.0264    1.0331    1.8273 C   0  0  0  0  0  0  0  0  0  0  0  0
   -2.6235   -2.5484   -0.6915 H   0  0  0  0  0  0  0  0  0  0  0  0
   -3.5468   -1.7132    0.5407 H   0  0  0  0  0  0  0  0  0  0  0  0
    0.9961   -0.5681    4.3110 H   0  0  0  0  0  0  0  0  0  0  0  0
   -0.1550    0.6432    3.8098 H   0  0  0  0  0  0  0  0  0  0  0  0
   -0.6137    0.8862   -4.1693 H   0  0  0  0  0  0  0  0  0  0  0  0
   -1.0606    2.5236   -3.7432 H   0  0  0  0  0  0  0  0  0  0  0  0
   -1.6433    0.1597    1.8292 H   0  0  0  0  0  0  0  0  0  0  0  0
   -0.7746   -0.8422   -1.9480 H   0  0  0  0  0  0  0  0  0  0  0  0
    3.5053    3.6484    0.0058 H   0  0  0  0  0  0  0  0  0  0  0  0
    1.8407    3.9992    0.3964 H   0  0  0  0  0  0  0  0  0  0  0  0
   -1.5576   -4.4105    0.2618 H   0  0  0  0  0  0  0  0  0  0  0  0
   -0.1517   -4.8481    1.1811 H   0  0  0  0  0  0  0  0  0  0  0  0
   -5.4187    1.3374   -0.8241 H   0  0  0  0  0  0  0  0  0  0  0  0
   -5.1587   -0.1923   -0.0492 H   0  0  0  0  0  0  0  0  0  0  0  0
    0.4529    1.9428    1.5062 H   0  0  0  0  0  0  0  0  0  0  0  0
    0.0209    2.9819   -1.0299 H   0  0  0  0  0  0  0  0  0  0  0  0
    2.2973   -3.1221    1.9586 H   0  0  0  0  0  0  0  0  0  0  0  0
    1.8913   -2.6203    3.6060 H   0  0  0  0  0  0  0  0  0  0  0  0
    1.1978   -4.0975    2.9533 H   0  0  0  0  0  0  0  0  0  0  0  0
   -4.0566    2.7213   -3.2149 H   0  0  0  0  0  0  0  0  0  0  0  0
   -2.7200    3.6030   -2.4506 H   0  0  0  0  0  0  0  0  0  0  0  0
   -4.1645    3.2333   -1.5217 H   0  0  0  0  0  0  0  0  0  0  0  0
    1.3331   -3.8179   -0.5781 H   0  0  0  0  0  0  0  0  0  0  0  0
   -0.1130   -3.4158   -1.5316 H   0  0  0  0  0  0  0  0  0  0  0  0
   -4.1069    2.4928    0.9997 H   0  0  0  0  0  0  0  0  0  0  0  0
   -3.8889    0.9215    1.8031 H   0  0  0  0  0  0  0  0  0  0  0  0
    4.6715    0.3454    4.2242 H   0  0  0  0  0  0  0  0  0  0  0  0
    3.2035   -0.5111    4.6344 H   0  0  0  0  0  0  0  0  0  0  0  0
    4.1711   -1.0751    3.2702 H   0  0  0  0  0  0  0  0  0  0  0  0
    4.6649    1.5001   -3.0996 H   0  0  0  0  0  0  0  0  0  0  0  0
    4.8064    2.4554   -1.6287 H   0  0  0  0  0  0  0  0  0  0  0  0
    4.5052    0.7107   -1.5206 H   0  0  0  0  0  0  0  0  0  0  0  0
    2.4203    1.1858   -5.1136 H   0  0  0  0  0  0  0  0  0  0  0  0
    5.2134    2.8690    1.3429 H   0  0  0  0  0  0  0  0  0  0  0  0
    2.4536   -1.1882   -5.2998 H   0  0  0  0  0  0  0  0  0  0  0  0
    1.9855   -1.3826   -3.5064 H   0  0  0  0  0  0  0  0  0  0  0  0
    7.0245    1.3912    1.5951 H   0  0  0  0  0  0  0  0  0  0  0  0
    5.9289   -0.0020    2.1279 H   0  0  0  0  0  0  0  0  0  0  0  0
    1.2081   -6.3833   -2.9544 H   0  0  0  0  0  0  0  0  0  0  0  0
   -6.5629    2.5196    3.4918 H   0  0  0  0  0  0  0  0  0  0  0  0
  1 39  1  0  0  0  0
  1 81  1  0  0  0  0
  2 40  1  0  0  0  0
  2 82  1  0  0  0  0
  3 39  2  0  0  0  0
  4 40  2  0  0  0  0
  5  9  1  0  0  0  0
  5 14  1  0  0  0  0
  5 49  1  0  0  0  0
  6 10  1  0  0  0  0
  6 15  1  0  0  0  0
  6 50  1  0  0  0  0
  7 20  1  0  0  0  0
  7 23  1  0  0  0  0
  7 57  1  0  0  0  0
  8 21  1  0  0  0  0
  8 22  1  0  0  0  0
  8 58  1  0  0  0  0
  9 11  1  0  0  0  0
  9 12  2  0  0  0  0
 10 11  1  0  0  0  0
 10 13  2  0  0  0  0
 11 43  1  0  0  0  0
 11 44  1  0  0  0  0
 12 16  1  0  0  0  0
 12 25  1  0  0  0  0
 13 17  1  0  0  0  0
 13 26  1  0  0  0  0
 14 16  2  0  0  0  0
 14 18  1  0  0  0  0
 15 17  2  0  0  0  0
 15 19  1  0  0  0  0
 16 31  1  0  0  0  0
 17 32  1  0  0  0  0
 18 20  1  0  0  0  0
 18 45  1  0  0  0  0
 18 46  1  0  0  0  0
 19 21  1  0  0  0  0
 19 47  1  0  0  0  0
 19 48  1  0  0  0  0
 20 27  2  0  0  0  0
 21 29  2  0  0  0  0
 22 24  1  0  0  0  0
 22 28  2  0  0  0  0
 23 24  1  0  0  0  0
 23 30  2  0  0  0  0
 24 51  1  0  0  0  0
 24 52  1  0  0  0  0
 25 33  1  0  0  0  0
 25 53  1  0  0  0  0
 25 54  1  0  0  0  0
 26 34  1  0  0  0  0
 26 55  1  0  0  0  0
 26 56  1  0  0  0  0
 27 30  1  0  0  0  0
 27 35  1  0  0  0  0
 28 29  1  0  0  0  0
 28 36  1  0  0  0  0
 29 37  1  0  0  0  0
 30 38  1  0  0  0  0
 31 59  1  0  0  0  0
 31 60  1  0  0  0  0
 31 61  1  0  0  0  0
 32 62  1  0  0  0  0
 32 63  1  0  0  0  0
 32 64  1  0  0  0  0
 33 39  1  0  0  0  0
 33 65  1  0  0  0  0
 33 66  1  0  0  0  0
 34 40  1  0  0  0  0
 34 67  1  0  0  0  0
 34 68  1  0  0  0  0
 35 69  1  0  0  0  0
 35 70  1  0  0  0  0
 35 71  1  0  0  0  0
 36 72  1  0  0  0  0
 36 73  1  0  0  0  0
 36 74  1  0  0  0  0
 37 41  2  0  0  0  0
 37 75  1  0  0  0  0
 38 42  2  0  0  0  0
 38 76  1  0  0  0  0
 41 77  1  0  0  0  0
 41 78  1  0  0  0  0
 42 79  1  0  0  0  0
 42 80  1  0  0  0  0
M  END
> <PUBCHEM_COMPOUND_CID>
121893

> <PUBCHEM_CONFORMER_RMSD>
1

> <PUBCHEM_CONFORMER_DIVERSEORDER>
3
82
35
49
88
84
52
2
38
75
93
21
79
72
51
30
68
80
4
69
12
71
56
61
47
91
14
5
94
73
85
29
17
24
92
87
77
28
32
19
90
26
13
54
15
33
55
81
45
62
40
60
86
63
76
66
83
8
37
39
48
70
18
67
16
1
89
10
42
6
74
11
46
64
65
23
58
43
36
7
53
34
22
59
78
27
57
50
25
41
44
31
20
9

> <PUBCHEM_MMFF94_PARTIAL_CHARGES>
54
1 -0.65
10 -0.33
11 0.36
12 -0.18
13 -0.18
14 -0.33
15 -0.33
16 -0.18
17 -0.18
18 0.36
19 0.36
2 -0.65
20 -0.33
21 -0.33
22 -0.33
23 -0.33
24 0.36
25 0.18
26 0.18
27 -0.18
28 -0.18
29 -0.05
3 -0.57
30 -0.05
31 0.18
32 0.18
33 0.06
34 0.06
35 0.18
36 0.18
37 -0.1
38 -0.1
39 0.66
4 -0.57
40 0.66
41 -0.3
42 -0.3
49 0.27
5 0.03
50 0.27
57 0.27
58 0.27
6 0.03
7 0.03
75 0.15
76 0.15
77 0.15
78 0.15
79 0.15
8 0.03
80 0.15
81 0.5
82 0.5
9 -0.33

> <PUBCHEM_EFFECTIVE_ROTOR_COUNT>
8.8

> <PUBCHEM_PHARMACOPHORE_FEATURES>
20
1 1 acceptor
1 2 acceptor
1 3 acceptor
1 4 acceptor
1 41 hydrophobe
1 42 hydrophobe
1 5 cation
1 5 donor
1 6 cation
1 6 donor
1 7 cation
1 7 donor
1 8 cation
1 8 donor
3 1 3 39 anion
3 2 4 40 anion
5 5 9 12 14 16 rings
5 6 10 13 15 17 rings
5 7 20 23 27 30 rings
5 8 21 22 28 29 rings

> <PUBCHEM_HEAVY_ATOM_COUNT>
42

> <PUBCHEM_ATOM_DEF_STEREO_COUNT>
0

> <PUBCHEM_ATOM_UDEF_STEREO_COUNT>
0

> <PUBCHEM_BOND_DEF_STEREO_COUNT>
0

> <PUBCHEM_BOND_UDEF_STEREO_COUNT>
0

> <PUBCHEM_ISOTOPIC_ATOM_COUNT>
0

> <PUBCHEM_COMPONENT_COUNT>
1

> <PUBCHEM_CACTVS_TAUTO_COUNT>
1

> <PUBCHEM_CONFORMER_ID>
0001DC2500000003

> <PUBCHEM_MMFF94_ENERGY>
46.2011

> <PUBCHEM_FEATURE_SELFOVERLAP>
101.604

> <PUBCHEM_SHAPE_FINGERPRINT>
10816530 23 17836051538815347597
11513181 2 18050887469703704318
12741549 16 17327725705936333443
13512321 179 17183321355051290769
14114207 22 16683932935705414174
150020 26 17489321809816888393
15064986 96 17916315003333165873
20764821 26 16627747694358484896
21792938 131 17773009051614773133
25265897 201 18338804412285798078
3388396 114 16835178074630811796
469060 322 10441719130485240380
46939830 39 16967431172704324177

> <PUBCHEM_SHAPE_MULTIPOLES>
820.94
9.46
6.16
5.41
6.63
9.68
-2.14
-8.3
10.19
0.12
-6.4
-2.35
1.19
-2.08

> <PUBCHEM_SHAPE_SELFOVERLAP>
1776.751

> <PUBCHEM_SHAPE_VOLUME>
451.6

> <PUBCHEM_COORDINATE_TYPE>
2
5
10

$$$$

