12313347
  -OEChem-07051213093D

 60 63  0     1  0  0  0  0  0999 V2000
    0.5953   -2.7397   -0.5038 O   0  0  0  0  0  0  0  0  0  0  0  0
    0.3869    2.6781   -0.5268 O   0  0  0  0  0  0  0  0  0  0  0  0
    3.1469    2.8848   -0.1486 O   0  0  0  0  0  0  0  0  0  0  0  0
   -1.5665    1.4719   -1.6382 O   0  0  0  0  0  0  0  0  0  0  0  0
   -4.3139    1.6015   -1.2706 O   0  0  0  0  0  0  0  0  0  0  0  0
    1.7798   -3.4871   -2.2612 O   0  0  0  0  0  0  0  0  0  0  0  0
    1.2697   -0.7718    0.8745 C   0  0  2  0  0  0  0  0  0  0  0  0
    0.3870    0.2934    0.1160 C   0  0  1  0  0  0  0  0  0  0  0  0
   -1.1590    0.2744    0.4805 C   0  0  1  0  0  0  0  0  0  0  0  0
    2.6615   -0.8754    0.1808 C   0  0  2  0  0  0  0  0  0  0  0  0
    0.6277   -2.1658    0.8228 C   0  0  1  0  0  0  0  0  0  0  0  0
   -1.6984   -1.2023    0.5183 C   0  0  1  0  0  0  0  0  0  0  0  0
    1.1088    1.6757    0.1851 C   0  0  1  0  0  0  0  0  0  0  0  0
   -0.8171   -2.1591    1.3321 C   0  0  0  0  0  0  0  0  0  0  0  0
    3.3973    0.4930    0.1727 C   0  0  2  0  0  0  0  0  0  0  0  0
    2.5274    1.6215   -0.4126 C   0  0  2  0  0  0  0  0  0  0  0  0
    1.5155   -0.4321    2.3740 C   0  0  0  0  0  0  0  0  0  0  0  0
    2.5579   -1.4906   -1.2181 C   0  0  0  0  0  0  0  0  0  0  0  0
   -3.1944   -1.2628    0.9470 C   0  0  1  0  0  0  0  0  0  0  0  0
   -1.4499    1.0693    1.7726 C   0  0  0  0  0  0  0  0  0  0  0  0
   -2.0254    0.8920   -0.6568 C   0  0  0  0  0  0  0  0  0  0  0  0
    4.7614    0.4139   -0.5281 C   0  0  0  0  0  0  0  0  0  0  0  0
    1.6457   -2.6777   -1.3460 C   0  0  0  0  0  0  0  0  0  0  0  0
   -4.0182   -0.2381    0.2001 C   0  0  0  0  0  0  0  0  0  0  0  0
   -3.5078    0.7403   -0.5613 C   0  0  0  0  0  0  0  0  0  0  0  0
   -3.8090   -2.6496    0.7163 C   0  0  0  0  0  0  0  0  0  0  0  0
    3.2936    3.1012    1.2445 C   0  0  0  0  0  0  0  0  0  0  0  0
   -4.1024    2.9411   -0.8653 C   0  0  0  0  0  0  0  0  0  0  0  0
    0.3952    0.0169   -0.9479 H   0  0  0  0  0  0  0  0  0  0  0  0
    3.2778   -1.5718    0.7701 H   0  0  0  0  0  0  0  0  0  0  0  0
    1.1991   -2.8719    1.4398 H   0  0  0  0  0  0  0  0  0  0  0  0
   -1.6651   -1.5752   -0.5192 H   0  0  0  0  0  0  0  0  0  0  0  0
    1.0804    2.0224    1.2153 H   0  0  0  0  0  0  0  0  0  0  0  0
   -0.8711   -1.9147    2.3970 H   0  0  0  0  0  0  0  0  0  0  0  0
   -1.2021   -3.1802    1.2309 H   0  0  0  0  0  0  0  0  0  0  0  0
    3.6567    0.6927    1.2164 H   0  0  0  0  0  0  0  0  0  0  0  0
    2.4669    1.5335   -1.5036 H   0  0  0  0  0  0  0  0  0  0  0  0
    1.8757    0.5802    2.5462 H   0  0  0  0  0  0  0  0  0  0  0  0
    0.6285   -0.5567    2.9943 H   0  0  0  0  0  0  0  0  0  0  0  0
    2.2682   -1.1083    2.7990 H   0  0  0  0  0  0  0  0  0  0  0  0
    3.5543   -1.8300   -1.5269 H   0  0  0  0  0  0  0  0  0  0  0  0
    2.2231   -0.7552   -1.9571 H   0  0  0  0  0  0  0  0  0  0  0  0
   -3.2789   -1.0434    2.0189 H   0  0  0  0  0  0  0  0  0  0  0  0
   -1.0846    2.0984    1.7014 H   0  0  0  0  0  0  0  0  0  0  0  0
   -2.5188    1.1697    1.9845 H   0  0  0  0  0  0  0  0  0  0  0  0
   -1.0079    0.6110    2.6558 H   0  0  0  0  0  0  0  0  0  0  0  0
    5.3420    1.3258   -0.3529 H   0  0  0  0  0  0  0  0  0  0  0  0
    5.3480   -0.4283   -0.1462 H   0  0  0  0  0  0  0  0  0  0  0  0
    4.6549    0.2961   -1.6113 H   0  0  0  0  0  0  0  0  0  0  0  0
   -5.1001   -0.3142    0.2864 H   0  0  0  0  0  0  0  0  0  0  0  0
    0.3373    2.4046   -1.4585 H   0  0  0  0  0  0  0  0  0  0  0  0
   -4.8842   -2.6466    0.9306 H   0  0  0  0  0  0  0  0  0  0  0  0
   -3.6759   -2.9796   -0.3200 H   0  0  0  0  0  0  0  0  0  0  0  0
   -3.3613   -3.3999    1.3746 H   0  0  0  0  0  0  0  0  0  0  0  0
    4.3656    3.1228    1.4678 H   0  0  0  0  0  0  0  0  0  0  0  0
    2.8277    2.4084    1.9422 H   0  0  0  0  0  0  0  0  0  0  0  0
    2.9071    4.1016    1.4650 H   0  0  0  0  0  0  0  0  0  0  0  0
   -4.9244    3.5449   -1.2626 H   0  0  0  0  0  0  0  0  0  0  0  0
   -3.1729    3.3471   -1.2756 H   0  0  0  0  0  0  0  0  0  0  0  0
   -4.1131    3.0446    0.2262 H   0  0  0  0  0  0  0  0  0  0  0  0
  1 11  1  0  0  0  0
  1 23  1  0  0  0  0
  2 13  1  0  0  0  0
  2 51  1  0  0  0  0
  3 16  1  0  0  0  0
  3 27  1  0  0  0  0
  4 21  2  0  0  0  0
  5 25  1  0  0  0  0
  5 28  1  0  0  0  0
  6 23  2  0  0  0  0
  7  8  1  0  0  0  0
  7 10  1  0  0  0  0
  7 11  1  0  0  0  0
  7 17  1  0  0  0  0
  8  9  1  0  0  0  0
  8 13  1  0  0  0  0
  8 29  1  0  0  0  0
  9 12  1  0  0  0  0
  9 20  1  0  0  0  0
  9 21  1  0  0  0  0
 10 15  1  0  0  0  0
 10 18  1  0  0  0  0
 10 30  1  0  0  0  0
 11 14  1  0  0  0  0
 11 31  1  0  0  0  0
 12 14  1  0  0  0  0
 12 19  1  0  0  0  0
 12 32  1  0  0  0  0
 13 16  1  0  0  0  0
 13 33  1  0  0  0  0
 14 34  1  0  0  0  0
 14 35  1  0  0  0  0
 15 16  1  0  0  0  0
 15 22  1  0  0  0  0
 15 36  1  0  0  0  0
 16 37  1  0  0  0  0
 17 38  1  0  0  0  0
 17 39  1  0  0  0  0
 17 40  1  0  0  0  0
 18 23  1  0  0  0  0
 18 41  1  0  0  0  0
 18 42  1  0  0  0  0
 19 24  1  0  0  0  0
 19 26  1  0  0  0  0
 19 43  1  0  0  0  0
 20 44  1  0  0  0  0
 20 45  1  0  0  0  0
 20 46  1  0  0  0  0
 21 25  1  0  0  0  0
 22 47  1  0  0  0  0
 22 48  1  0  0  0  0
 22 49  1  0  0  0  0
 24 25  2  0  0  0  0
 24 50  1  0  0  0  0
 26 52  1  0  0  0  0
 26 53  1  0  0  0  0
 26 54  1  0  0  0  0
 27 55  1  0  0  0  0
 27 56  1  0  0  0  0
 27 57  1  0  0  0  0
 28 58  1  0  0  0  0
 28 59  1  0  0  0  0
 28 60  1  0  0  0  0
M  END
> <PUBCHEM_COMPOUND_CID>
12313347

> <PUBCHEM_CONFORMER_RMSD>
0.8

> <PUBCHEM_CONFORMER_DIVERSEORDER>
1

> <PUBCHEM_MMFF94_PARTIAL_CHARGES>
20
1 -0.43
11 0.28
13 0.28
16 0.28
18 0.06
19 0.14
2 -0.68
21 0.49
23 0.66
24 -0.29
25 0.09
27 0.28
28 0.28
3 -0.56
4 -0.57
5 -0.36
50 0.15
51 0.4
6 -0.57
9 0.06

> <PUBCHEM_EFFECTIVE_ROTOR_COUNT>
3.4

> <PUBCHEM_PHARMACOPHORE_FEATURES>
10
1 2 acceptor
1 2 donor
1 3 acceptor
1 4 acceptor
1 5 acceptor
1 6 acceptor
6 1 7 10 11 18 23 rings
6 7 8 10 13 15 16 rings
6 7 8 9 11 12 14 rings
6 9 12 19 21 24 25 rings

> <PUBCHEM_HEAVY_ATOM_COUNT>
28

> <PUBCHEM_ATOM_DEF_STEREO_COUNT>
10

> <PUBCHEM_ATOM_UDEF_STEREO_COUNT>
0

> <PUBCHEM_BOND_DEF_STEREO_COUNT>
0

> <PUBCHEM_BOND_UDEF_STEREO_COUNT>
0

> <PUBCHEM_ISOTOPIC_ATOM_COUNT>
0

> <PUBCHEM_COMPONENT_COUNT>
1

> <PUBCHEM_CACTVS_TAUTO_COUNT>
3

> <PUBCHEM_CONFORMER_ID>
00BBE30300000001

> <PUBCHEM_MMFF94_ENERGY>
127.0116

> <PUBCHEM_FEATURE_SELFOVERLAP>
50.952

> <PUBCHEM_SHAPE_FINGERPRINT>
10165383 225 17682382668514413880
10646746 165 18130791135440370168
10675989 125 17479755143943429829
10863032 1 18202291298563075139
10871710 139 16539317018867822004
10906281 52 18267575987422206128
10948715 1 18341898450405250128
1100329 8 17842853371079015379
11370993 70 18337678516088015808
11640471 11 14907029635655474726
12156800 1 15886383132349591741
12403259 415 18339358557255400224
12422481 6 17908397192225756883
12553582 1 17615952744181180691
12633257 1 17915478274625362081
13140716 1 18271822236313337289
13224815 77 18272935986094926131
13402501 40 18342736334163623972
14223421 5 18340763758911407699
14251757 17 18338509863169558139
14659021 117 17038371662871000574
14790565 3 17765712812607453989
16945 1 17834382802423898514
17492 54 17835248839539637503
17980427 23 17906780003667550786
20600515 1 17909295776566273626
20691752 17 16702306758537282861
20775438 99 18193585430678990911
20905425 154 18201726136722562864
22182313 1 18339063956594791258
22393880 68 18342742909536864909
23114952 82 18337102479390323239
23419403 2 17549766301833303858
23557571 272 18059286583346353059
23559900 14 18338521957823987042
23566358 2 18410848902240777431
238 59 18187369847763906150
25222932 49 17269194956757808419
2748010 2 18342166735410800856
3380486 77 12735463843944075353
350125 39 18341604863457481488
4280585 95 17831858319716777662
46194498 28 18335134306759336127
495365 180 18115042834780808080
5262128 65 17971746928811961935
6287921 2 18192688125562604135
7399639 24 18193557766245432289
9709674 26 18410575132393243495
9862522 239 17978244767902046568

> <PUBCHEM_SHAPE_MULTIPOLES>
541.01
7.42
3.85
1.65
2.46
0.08
0.11
-3.12
-1.17
-0.44
-1.03
-0.26
0.54
2.32

> <PUBCHEM_SHAPE_SELFOVERLAP>
1156.534

> <PUBCHEM_SHAPE_VOLUME>
293.4

> <PUBCHEM_COORDINATE_TYPE>
2
5
10

$$$$

