17396118
  -OEChem-06241222543D

 54 56  0     1  0  0  0  0  0999 V2000
   -3.9191   -0.5924    1.0207 S   0  0  0  0  0  0  0  0  0  0  0  0
   -3.4162   -0.7366    2.3751 O   0  0  0  0  0  0  0  0  0  0  0  0
   -5.3152   -0.2697    0.7867 O   0  0  0  0  0  0  0  0  0  0  0  0
    0.7763    3.2675    0.9645 O   0  0  0  0  0  0  0  0  0  0  0  0
    2.4997   -1.6927    0.9588 O   0  0  0  0  0  0  0  0  0  0  0  0
   -3.4929   -1.9589    0.1067 N   0  0  0  0  0  0  0  0  0  0  0  0
    1.3684    1.0758    0.4927 N   0  0  0  0  0  0  0  0  0  0  0  0
   -2.1398   -2.5422    0.3205 C   0  0  0  0  0  0  0  0  0  0  0  0
   -3.7750   -1.9414   -1.3586 C   0  0  0  0  0  0  0  0  0  0  0  0
   -1.8642   -3.3098   -0.9628 C   0  0  0  0  0  0  0  0  0  0  0  0
   -2.4863   -2.4152   -2.0171 C   0  0  0  0  0  0  0  0  0  0  0  0
   -2.9434    0.6468    0.2219 C   0  0  0  0  0  0  0  0  0  0  0  0
   -1.6488    0.9113    0.6687 C   0  0  0  0  0  0  0  0  0  0  0  0
   -3.4692    1.3609   -0.8549 C   0  0  0  0  0  0  0  0  0  0  0  0
   -0.8797    1.8896    0.0386 C   0  0  0  0  0  0  0  0  0  0  0  0
   -1.4055    2.6036   -1.0384 C   0  0  0  0  0  0  0  0  0  0  0  0
   -2.7004    2.3396   -1.4851 C   0  0  0  0  0  0  0  0  0  0  0  0
    2.7324    1.1660    0.9618 C   0  0  2  0  0  0  0  0  0  0  0  0
    0.4689    2.1464    0.5255 C   0  0  0  0  0  0  0  0  0  0  0  0
    3.6472    0.2579    0.1687 C   0  0  0  0  0  0  0  0  0  0  0  0
   -0.6040    3.6575   -1.7306 C   0  0  0  0  0  0  0  0  0  0  0  0
    2.8030    0.8989    2.4640 C   0  0  0  0  0  0  0  0  0  0  0  0
    3.4861   -1.1271    0.2082 C   0  0  0  0  0  0  0  0  0  0  0  0
    4.6619    0.8201   -0.6062 C   0  0  0  0  0  0  0  0  0  0  0  0
    4.3396   -1.9499   -0.5268 C   0  0  0  0  0  0  0  0  0  0  0  0
    5.5152   -0.0025   -1.3418 C   0  0  0  0  0  0  0  0  0  0  0  0
    5.3540   -1.3876   -1.3019 C   0  0  0  0  0  0  0  0  0  0  0  0
    2.4072   -3.1158    0.9410 C   0  0  0  0  0  0  0  0  0  0  0  0
   -1.3778   -1.7731    0.4581 H   0  0  0  0  0  0  0  0  0  0  0  0
   -2.1413   -3.2065    1.1890 H   0  0  0  0  0  0  0  0  0  0  0  0
   -4.5781   -2.6655   -1.5409 H   0  0  0  0  0  0  0  0  0  0  0  0
   -4.1070   -0.9875   -1.7607 H   0  0  0  0  0  0  0  0  0  0  0  0
   -2.3723   -4.2814   -0.9434 H   0  0  0  0  0  0  0  0  0  0  0  0
   -0.7967   -3.4816   -1.1267 H   0  0  0  0  0  0  0  0  0  0  0  0
   -2.6666   -2.9345   -2.9624 H   0  0  0  0  0  0  0  0  0  0  0  0
   -1.8303   -1.5592   -2.2163 H   0  0  0  0  0  0  0  0  0  0  0  0
   -1.2355    0.3665    1.5139 H   0  0  0  0  0  0  0  0  0  0  0  0
   -4.4801    1.1867   -1.2120 H   0  0  0  0  0  0  0  0  0  0  0  0
   -3.1268    2.8904   -2.3193 H   0  0  0  0  0  0  0  0  0  0  0  0
    3.0562    2.2041    0.8115 H   0  0  0  0  0  0  0  0  0  0  0  0
    1.0369    0.1783    0.1489 H   0  0  0  0  0  0  0  0  0  0  0  0
   -1.0793    3.9766   -2.6649 H   0  0  0  0  0  0  0  0  0  0  0  0
    0.3904    3.2831   -1.9959 H   0  0  0  0  0  0  0  0  0  0  0  0
   -0.5028    4.5412   -1.0927 H   0  0  0  0  0  0  0  0  0  0  0  0
    2.2591    1.6763    3.0134 H   0  0  0  0  0  0  0  0  0  0  0  0
    3.8394    0.9052    2.8189 H   0  0  0  0  0  0  0  0  0  0  0  0
    2.3509   -0.0546    2.7530 H   0  0  0  0  0  0  0  0  0  0  0  0
    4.8018    1.8968   -0.6487 H   0  0  0  0  0  0  0  0  0  0  0  0
    4.2752   -3.0323   -0.5451 H   0  0  0  0  0  0  0  0  0  0  0  0
    6.3050    0.4351   -1.9453 H   0  0  0  0  0  0  0  0  0  0  0  0
    6.0191   -2.0272   -1.8750 H   0  0  0  0  0  0  0  0  0  0  0  0
    2.1686   -3.4924   -0.0596 H   0  0  0  0  0  0  0  0  0  0  0  0
    3.3031   -3.5845    1.3622 H   0  0  0  0  0  0  0  0  0  0  0  0
    1.5695   -3.3912    1.5903 H   0  0  0  0  0  0  0  0  0  0  0  0
  1  2  2  0  0  0  0
  1  3  2  0  0  0  0
  1  6  1  0  0  0  0
  1 12  1  0  0  0  0
  4 19  2  0  0  0  0
  5 23  1  0  0  0  0
  5 28  1  0  0  0  0
  6  8  1  0  0  0  0
  6  9  1  0  0  0  0
  7 18  1  0  0  0  0
  7 19  1  0  0  0  0
  7 41  1  0  0  0  0
  8 10  1  0  0  0  0
  8 29  1  0  0  0  0
  8 30  1  0  0  0  0
  9 11  1  0  0  0  0
  9 31  1  0  0  0  0
  9 32  1  0  0  0  0
 10 11  1  0  0  0  0
 10 33  1  0  0  0  0
 10 34  1  0  0  0  0
 11 35  1  0  0  0  0
 11 36  1  0  0  0  0
 12 13  2  0  0  0  0
 12 14  1  0  0  0  0
 13 15  1  0  0  0  0
 13 37  1  0  0  0  0
 14 17  2  0  0  0  0
 14 38  1  0  0  0  0
 15 16  2  0  0  0  0
 15 19  1  0  0  0  0
 16 17  1  0  0  0  0
 16 21  1  0  0  0  0
 17 39  1  0  0  0  0
 18 20  1  0  0  0  0
 18 22  1  0  0  0  0
 18 40  1  0  0  0  0
 20 23  1  0  0  0  0
 20 24  2  0  0  0  0
 21 42  1  0  0  0  0
 21 43  1  0  0  0  0
 21 44  1  0  0  0  0
 22 45  1  0  0  0  0
 22 46  1  0  0  0  0
 22 47  1  0  0  0  0
 23 25  2  0  0  0  0
 24 26  1  0  0  0  0
 24 48  1  0  0  0  0
 25 27  1  0  0  0  0
 25 49  1  0  0  0  0
 26 27  2  0  0  0  0
 26 50  1  0  0  0  0
 27 51  1  0  0  0  0
 28 52  1  0  0  0  0
 28 53  1  0  0  0  0
 28 54  1  0  0  0  0
M  END
> <PUBCHEM_COMPOUND_CID>
17396118

> <PUBCHEM_CONFORMER_RMSD>
1

> <PUBCHEM_CONFORMER_DIVERSEORDER>
2
181
140
174
119
99
163
78
173
212
215
154
52
204
218
201
139
103
7
47
132
145
57
43
68
138
118
200
90
214
177
30
31
106
152
95
164
88
198
72
133
217
176
135
111
74
36
14
25
226
143
62
190
205
172
94
180
165
32
136
207
151
131
108
56
199
53
225
37
149
64
69
92
194
122
85
100
86
161
6
160
196
42
38
224
168
67
71
191
82
128
147
155
211
171
126
40
17
28
54
144
51
202
59
20
116
34
89
39
142
188
60
65
84
63
61
76
124
153
117
148
175
141
223
185
195
179
9
203
91
55
115
26
130
186
48
208
10
33
159
192
46
169
182
146
158
121
156
216
107
105
80
219
83
98
183
23
75
213
66
210
70
35
206
13
8
120
97
129
167
73
58
178
21
104
189
44
110
96
134
166
3
137
49
93
127
125
227
221
114
4
41
1
11
22
157
113
102
18
77
197
187
112
5
79
29
27
162
193
16
209
101
184
15
12
170
87
24
50
222
81
220
19
109
150
45
123

> <PUBCHEM_MMFF94_PARTIAL_CHARGES>
33
1 1.45
12 -0.01
13 -0.15
14 -0.15
15 0.09
16 -0.14
17 -0.15
18 0.44
19 0.54
2 -0.65
20 -0.14
21 0.14
23 0.08
24 -0.15
25 -0.15
26 -0.15
27 -0.15
28 0.28
3 -0.65
37 0.15
38 0.15
39 0.15
4 -0.57
41 0.37
48 0.15
49 0.15
5 -0.36
50 0.15
51 0.15
6 -0.85
7 -0.73
8 0.36
9 0.36

> <PUBCHEM_EFFECTIVE_ROTOR_COUNT>
8

> <PUBCHEM_PHARMACOPHORE_FEATURES>
8
1 2 acceptor
1 3 acceptor
1 4 acceptor
1 5 acceptor
1 7 donor
5 6 8 9 10 11 rings
6 12 13 14 15 16 17 rings
6 20 23 24 25 26 27 rings

> <PUBCHEM_HEAVY_ATOM_COUNT>
28

> <PUBCHEM_ATOM_DEF_STEREO_COUNT>
0

> <PUBCHEM_ATOM_UDEF_STEREO_COUNT>
1

> <PUBCHEM_BOND_DEF_STEREO_COUNT>
0

> <PUBCHEM_BOND_UDEF_STEREO_COUNT>
0

> <PUBCHEM_ISOTOPIC_ATOM_COUNT>
0

> <PUBCHEM_COMPONENT_COUNT>
1

> <PUBCHEM_CACTVS_TAUTO_COUNT>
2

> <PUBCHEM_CONFORMER_ID>
0109719600000002

> <PUBCHEM_MMFF94_ENERGY>
72.5551

> <PUBCHEM_FEATURE_SELFOVERLAP>
40.612

> <PUBCHEM_SHAPE_FINGERPRINT>
107951 10 17559394867550658169
10928967 22 18335140894965192366
11014199 57 17905889171653364391
11477941 20 17916852591874029060
11513181 2 17389379316940249382
11552529 35 17168712894853746487
11621639 254 17770466835082847588
12160290 23 17985290666057222857
12403259 327 17241036584160041737
12422481 6 18189602870919914627
12553582 1 18272097037052937353
12633257 1 17749097907251546619
13103583 49 17240745294576385209
13122387 1 17759525868776931558
13402501 40 18333725849027052814
13533116 47 17753053800492384155
14114206 34 17703804608245709133
14251757 5 18411412912866933542
14617045 38 18412537726014785147
14840074 17 18339067246903581079
14910302 57 18261121759134223832
15210252 30 17916026763861559572
15537594 2 18410002239290007370
17921350 177 18189620621608364134
1813 80 18130231437062314461
20693207 138 18260839206485049912
20764821 26 18194429841906510110
20775530 9 18045229241043694327
22393880 68 18128530660589215278
235170 7 16272211881468719930
23559900 14 18187653452976135897
26353 1 17845667936252283565
3298306 158 17835540579793893821
3737641 26 18264473135343508226
463206 1 18339355258577754210
5081480 168 16772962381108605181
5283178 26 17967809474588204823

> <PUBCHEM_SHAPE_MULTIPOLES>
546.64
10.81
4.28
1.88
7.86
0.06
0.27
-4.79
-1.73
-1.91
-1.4
-0.26
0.09
0.6

> <PUBCHEM_SHAPE_SELFOVERLAP>
1146.999

> <PUBCHEM_SHAPE_VOLUME>
309.8

> <PUBCHEM_COORDINATE_TYPE>
2
5
10

$$$$

