6023
  -OEChem-06261201032D

 42 43  0     1  0  0  0  0  0999 V2000
    4.8671    1.6576    0.0000 S   0  0  0  0  0  0  0  0  0  0  0  0
   10.4459    2.1828    0.0000 S   0  0  0  0  0  0  0  0  0  0  0  0
    4.0010    6.1576    0.0000 Na  0  3  0  0  0  0  0  0  0  0  0  0
    7.4470    3.8703    0.0000 O   0  0  0  0  0  0  0  0  0  0  0  0
    2.2690    3.1576    0.0000 O   0  0  0  0  0  0  0  0  0  0  0  0
    8.6743    2.6671    0.0000 O   0  0  0  0  0  0  0  0  0  0  0  0
    4.0010    5.1576    0.0000 O   0  5  0  0  0  0  0  0  0  0  0  0
    5.7331    5.1576    0.0000 O   0  0  0  0  0  0  0  0  0  0  0  0
    1.4030    4.6576    0.0000 O   0  0  0  0  0  0  0  0  0  0  0  0
    5.7331    3.1576    0.0000 N   0  0  0  0  0  0  0  0  0  0  0  0
    7.4470    1.4449    0.0000 N   0  0  0  0  0  0  0  0  0  0  0  0
    5.7331    2.1576    0.0000 C   0  0  1  0  0  0  0  0  0  0  0  0
    6.7414    2.1534    0.0000 C   0  0  1  0  0  0  0  0  0  0  0  0
    6.7414    3.1617    0.0000 C   0  0  0  0  0  0  0  0  0  0  0  0
    4.8671    3.6576    0.0000 C   0  0  0  0  0  0  0  0  0  0  0  0
    4.0010    3.1576    0.0000 C   0  0  0  0  0  0  0  0  0  0  0  0
    4.0010    2.1576    0.0000 C   0  0  0  0  0  0  0  0  0  0  0  0
    3.1350    3.6576    0.0000 C   0  0  0  0  0  0  0  0  0  0  0  0
    8.4135    1.7017    0.0000 C   0  0  0  0  0  0  0  0  0  0  0  0
    4.8671    4.6576    0.0000 C   0  0  0  0  0  0  0  0  0  0  0  0
    9.1191    0.9932    0.0000 C   0  0  0  0  0  0  0  0  0  0  0  0
   10.0856    1.2500    0.0000 C   0  0  0  0  0  0  0  0  0  0  0  0
   10.8614    0.6191    0.0000 C   0  0  0  0  0  0  0  0  0  0  0  0
    1.4030    3.6576    0.0000 C   0  0  0  0  0  0  0  0  0  0  0  0
   11.7012    1.1620    0.0000 C   0  0  0  0  0  0  0  0  0  0  0  0
   11.4444    2.1285    0.0000 C   0  0  0  0  0  0  0  0  0  0  0  0
    0.5369    3.1576    0.0000 C   0  0  0  0  0  0  0  0  0  0  0  0
    5.9386    1.3844    0.0000 H   0  0  0  0  0  0  0  0  0  0  0  0
    6.5023    1.5814    0.0000 H   0  0  0  0  0  0  0  0  0  0  0  0
    3.3905    2.2653    0.0000 H   0  0  0  0  0  0  0  0  0  0  0  0
    3.7890    1.5750    0.0000 H   0  0  0  0  0  0  0  0  0  0  0  0
    7.2853    0.8463    0.0000 H   0  0  0  0  0  0  0  0  0  0  0  0
    3.5335    4.1325    0.0000 H   0  0  0  0  0  0  0  0  0  0  0  0
    2.7365    4.1325    0.0000 H   0  0  0  0  0  0  0  0  0  0  0  0
    8.6105    0.6386    0.0000 H   0  0  0  0  0  0  0  0  0  0  0  0
    9.3800    0.4307    0.0000 H   0  0  0  0  0  0  0  0  0  0  0  0
   10.8277    0.0000    0.0000 H   0  0  0  0  0  0  0  0  0  0  0  0
   12.2796    0.9386    0.0000 H   0  0  0  0  0  0  0  0  0  0  0  0
   11.8356    2.6095    0.0000 H   0  0  0  0  0  0  0  0  0  0  0  0
    0.2269    3.6945    0.0000 H   0  0  0  0  0  0  0  0  0  0  0  0
    0.0000    2.8476    0.0000 H   0  0  0  0  0  0  0  0  0  0  0  0
    0.8469    2.6207    0.0000 H   0  0  0  0  0  0  0  0  0  0  0  0
  1 12  1  0  0  0  0
  1 17  1  0  0  0  0
  2 22  1  0  0  0  0
  2 26  1  0  0  0  0
  4 14  2  0  0  0  0
  5 18  1  0  0  0  0
  5 24  1  0  0  0  0
  6 19  2  0  0  0  0
  7 20  1  0  0  0  0
  8 20  2  0  0  0  0
  9 24  2  0  0  0  0
 10 12  1  0  0  0  0
 10 14  1  0  0  0  0
 10 15  1  0  0  0  0
 13 11  1  1  0  0  0
 11 19  1  0  0  0  0
 11 32  1  0  0  0  0
 12 13  1  0  0  0  0
 12 28  1  6  0  0  0
 13 14  1  0  0  0  0
 13 29  1  0  0  0  0
 15 16  2  0  0  0  0
 15 20  1  0  0  0  0
 16 17  1  0  0  0  0
 16 18  1  0  0  0  0
 17 30  1  0  0  0  0
 17 31  1  0  0  0  0
 18 33  1  0  0  0  0
 18 34  1  0  0  0  0
 19 21  1  0  0  0  0
 21 22  1  0  0  0  0
 21 35  1  0  0  0  0
 21 36  1  0  0  0  0
 22 23  2  0  0  0  0
 23 25  1  0  0  0  0
 23 37  1  0  0  0  0
 24 27  1  0  0  0  0
 25 26  2  0  0  0  0
 25 38  1  0  0  0  0
 26 39  1  0  0  0  0
 27 40  1  0  0  0  0
 27 41  1  0  0  0  0
 27 42  1  0  0  0  0
M  CHG  2   3   1   7  -1
M  END
> <PUBCHEM_COMPOUND_CID>
6023

> <PUBCHEM_COMPOUND_CANONICALIZED>
1

> <PUBCHEM_CACTVS_COMPLEXITY>
674

> <PUBCHEM_CACTVS_HBOND_ACCEPTOR>
8

> <PUBCHEM_CACTVS_HBOND_DONOR>
1

> <PUBCHEM_CACTVS_ROTATABLE_BOND>
6

> <PUBCHEM_CACTVS_SUBSKEYS>
AAADccB7OCBgAAAAAAAAAAAAAABYASAAAAAgAAAAAAAQAAABgAAAHgQQAAAADCjl0AayCYPABAiMAiXSWAADAIBgCBBIiJmIAMgKZDqgtTGWEAAglgC4qQcYCAAAAAAAAAAAAAAAAAAAAAAAAAAAAAAAAA==

> <PUBCHEM_IUPAC_OPENEYE_NAME>
sodium (6R,7R)-3-(acetoxymethyl)-8-oxo-7-[[2-(2-thienyl)acetyl]amino]-5-thia-1-azabicyclo[4.2.0]oct-2-ene-2-carboxylate

> <PUBCHEM_IUPAC_CAS_NAME>
sodium (6R,7R)-3-(acetyloxymethyl)-8-oxo-7-[(1-oxo-2-thiophen-2-ylethyl)amino]-5-thia-1-azabicyclo[4.2.0]oct-2-ene-2-carboxylate

> <PUBCHEM_IUPAC_NAME>
sodium (6R,7R)-3-(acetyloxymethyl)-8-oxo-7-[(2-thiophen-2-ylacetyl)amino]-5-thia-1-azabicyclo[4.2.0]oct-2-ene-2-carboxylate

> <PUBCHEM_IUPAC_SYSTEMATIC_NAME>
sodium (6R,7R)-3-(acetyloxymethyl)-8-oxidanylidene-7-(2-thiophen-2-ylethanoylamino)-5-thia-1-azabicyclo[4.2.0]oct-2-ene-2-carboxylate

> <PUBCHEM_IUPAC_TRADITIONAL_NAME>
sodium (6R,7R)-3-(acetoxymethyl)-8-keto-7-[[2-(2-thienyl)acetyl]amino]-5-thia-1-azabicyclo[4.2.0]oct-2-ene-2-carboxylate

> <PUBCHEM_IUPAC_INCHI>
InChI=1S/C16H16N2O6S2.Na/c1-8(19)24-6-9-7-26-15-12(14(21)18(15)13(9)16(22)23)17-11(20)5-10-3-2-4-25-10;/h2-4,12,15H,5-7H2,1H3,(H,17,20)(H,22,23);/q;+1/p-1/t12-,15-;/m1./s1

> <PUBCHEM_IUPAC_INCHIKEY>
VUFGUVLLDPOSBC-XRZFDKQNSA-M

> <PUBCHEM_EXACT_MASS>
418.026922

> <PUBCHEM_MOLECULAR_FORMULA>
C16H15N2NaO6S2

> <PUBCHEM_MOLECULAR_WEIGHT>
418.419869

> <PUBCHEM_OPENEYE_CAN_SMILES>
CC(=O)OCC1=C(N2C(C(C2=O)NC(=O)CC3=CC=CS3)SC1)C(=O)[O-].[Na+]

> <PUBCHEM_OPENEYE_ISO_SMILES>
CC(=O)OCC1=C(N2[C@@H]([C@@H](C2=O)NC(=O)CC3=CC=CS3)SC1)C(=O)[O-].[Na+]

> <PUBCHEM_CACTVS_TPSA>
169

> <PUBCHEM_MONOISOTOPIC_WEIGHT>
418.026922

> <PUBCHEM_TOTAL_CHARGE>
0

> <PUBCHEM_HEAVY_ATOM_COUNT>
27

> <PUBCHEM_ATOM_DEF_STEREO_COUNT>
2

> <PUBCHEM_ATOM_UDEF_STEREO_COUNT>
0

> <PUBCHEM_BOND_DEF_STEREO_COUNT>
0

> <PUBCHEM_BOND_UDEF_STEREO_COUNT>
0

> <PUBCHEM_ISOTOPIC_ATOM_COUNT>
0

> <PUBCHEM_COMPONENT_COUNT>
2

> <PUBCHEM_CACTVS_TAUTO_COUNT>
2

> <PUBCHEM_COORDINATE_TYPE>
1
5
255

> <PUBCHEM_BONDANNOTATIONS>
13  11  5
12  28  6
2  22  8
2  26  8
22  23  8
23  25  8
25  26  8

$$$$

