47204993
  -OEChem-06241222572D

 33 34  0     1  0  0  0  0  0999 V2000
    2.0000   -1.3512    0.0000 Br  0  0  0  0  0  0  0  0  0  0  0  0
    3.7320   -4.3512    0.0000 Cl  0  0  0  0  0  0  0  0  0  0  0  0
    3.7320   -0.3512    0.0000 O   0  0  0  0  0  0  0  0  0  0  0  0
    7.9128    3.4852    0.0000 O   0  0  0  0  0  0  0  0  0  0  0  0
    3.7320    1.6488    0.0000 O   0  0  0  0  0  0  0  0  0  0  0  0
    5.4641    1.6488    0.0000 N   0  0  0  0  0  0  0  0  0  0  0  0
    4.5981    0.1488    0.0000 C   0  0  3  0  0  0  0  0  0  0  0  0
    5.4641    2.6488    0.0000 C   0  0  0  0  0  0  0  0  0  0  0  0
    4.5981    1.1488    0.0000 C   0  0  0  0  0  0  0  0  0  0  0  0
    6.3301    3.1488    0.0000 C   0  0  0  0  0  0  0  0  0  0  0  0
    5.4641   -0.3512    0.0000 C   0  0  0  0  0  0  0  0  0  0  0  0
    3.7320   -1.3512    0.0000 C   0  0  0  0  0  0  0  0  0  0  0  0
    6.4347    4.1433    0.0000 C   0  0  0  0  0  0  0  0  0  0  0  0
    7.2437    2.7420    0.0000 C   0  0  0  0  0  0  0  0  0  0  0  0
    2.8660   -1.8512    0.0000 C   0  0  0  0  0  0  0  0  0  0  0  0
    4.5981   -1.8512    0.0000 C   0  0  0  0  0  0  0  0  0  0  0  0
    7.4128    4.3512    0.0000 C   0  0  0  0  0  0  0  0  0  0  0  0
    2.8660   -2.8512    0.0000 C   0  0  0  0  0  0  0  0  0  0  0  0
    4.5981   -2.8512    0.0000 C   0  0  0  0  0  0  0  0  0  0  0  0
    3.7320   -3.3512    0.0000 C   0  0  0  0  0  0  0  0  0  0  0  0
    4.5981   -0.4712    0.0000 H   0  0  0  0  0  0  0  0  0  0  0  0
    5.2520    3.2314    0.0000 H   0  0  0  0  0  0  0  0  0  0  0  0
    4.8535    2.5411    0.0000 H   0  0  0  0  0  0  0  0  0  0  0  0
    6.0010    1.3388    0.0000 H   0  0  0  0  0  0  0  0  0  0  0  0
    5.1541   -0.8882    0.0000 H   0  0  0  0  0  0  0  0  0  0  0  0
    6.0010   -0.6612    0.0000 H   0  0  0  0  0  0  0  0  0  0  0  0
    5.7741    0.1857    0.0000 H   0  0  0  0  0  0  0  0  0  0  0  0
    5.9739    4.5582    0.0000 H   0  0  0  0  0  0  0  0  0  0  0  0
    7.3726    2.1356    0.0000 H   0  0  0  0  0  0  0  0  0  0  0  0
    5.1350   -1.5412    0.0000 H   0  0  0  0  0  0  0  0  0  0  0  0
    7.6650    4.9176    0.0000 H   0  0  0  0  0  0  0  0  0  0  0  0
    2.3291   -3.1612    0.0000 H   0  0  0  0  0  0  0  0  0  0  0  0
    5.1350   -3.1612    0.0000 H   0  0  0  0  0  0  0  0  0  0  0  0
  1 15  1  0  0  0  0
  2 20  1  0  0  0  0
  3  7  1  0  0  0  0
  3 12  1  0  0  0  0
  4 14  1  0  0  0  0
  4 17  1  0  0  0  0
  5  9  2  0  0  0  0
  6  8  1  0  0  0  0
  6  9  1  0  0  0  0
  6 24  1  0  0  0  0
  7  9  1  0  0  0  0
  7 11  1  0  0  0  0
  7 21  1  0  0  0  0
  8 10  1  0  0  0  0
  8 22  1  0  0  0  0
  8 23  1  0  0  0  0
 10 13  1  0  0  0  0
 10 14  2  0  0  0  0
 11 25  1  0  0  0  0
 11 26  1  0  0  0  0
 11 27  1  0  0  0  0
 12 15  2  0  0  0  0
 12 16  1  0  0  0  0
 13 17  2  0  0  0  0
 13 28  1  0  0  0  0
 14 29  1  0  0  0  0
 15 18  1  0  0  0  0
 16 19  2  0  0  0  0
 16 30  1  0  0  0  0
 17 31  1  0  0  0  0
 18 20  2  0  0  0  0
 18 32  1  0  0  0  0
 19 20  1  0  0  0  0
 19 33  1  0  0  0  0
M  END
> <PUBCHEM_COMPOUND_CID>
47204993

> <PUBCHEM_COMPOUND_CANONICALIZED>
1

> <PUBCHEM_CACTVS_COMPLEXITY>
332

> <PUBCHEM_CACTVS_HBOND_ACCEPTOR>
3

> <PUBCHEM_CACTVS_HBOND_DONOR>
1

> <PUBCHEM_CACTVS_ROTATABLE_BOND>
5

> <PUBCHEM_CACTVS_SUBSKEYS>
AAADccByMAAEEAAAAAAAAAAAAAAAASAAAAAwAAAAAAAAAAABwAAAHgJQAAABrBbhmCYyBoLABECIAilSkAKCCAAkJQQIiIFODugOJjqFtx+HOSjm1hGYq5ekQAAIACAAAABABAAAQAAAAIAIAAAAAAAAAA==

> <PUBCHEM_IUPAC_OPENEYE_NAME>
2-(2-bromo-4-chloro-phenoxy)-N-(3-furylmethyl)propanamide

> <PUBCHEM_IUPAC_CAS_NAME>
2-(2-bromo-4-chlorophenoxy)-N-(3-furanylmethyl)propanamide

> <PUBCHEM_IUPAC_NAME>
2-(2-bromo-4-chlorophenoxy)-N-(furan-3-ylmethyl)propanamide

> <PUBCHEM_IUPAC_SYSTEMATIC_NAME>
2-(2-bromanyl-4-chloranyl-phenoxy)-N-(furan-3-ylmethyl)propanamide

> <PUBCHEM_IUPAC_TRADITIONAL_NAME>
2-(2-bromo-4-chloro-phenoxy)-N-(3-furfuryl)propionamide

> <PUBCHEM_IUPAC_INCHI>
InChI=1S/C14H13BrClNO3/c1-9(14(18)17-7-10-4-5-19-8-10)20-13-3-2-11(16)6-12(13)15/h2-6,8-9H,7H2,1H3,(H,17,18)

> <PUBCHEM_IUPAC_INCHIKEY>
MHXYQXNKHATUKJ-UHFFFAOYSA-N

> <PUBCHEM_XLOGP3_AA>
3.5

> <PUBCHEM_EXACT_MASS>
356.976733

> <PUBCHEM_MOLECULAR_FORMULA>
C14H13BrClNO3

> <PUBCHEM_MOLECULAR_WEIGHT>
358.61492

> <PUBCHEM_OPENEYE_CAN_SMILES>
CC(C(=O)NCC1=COC=C1)OC2=C(C=C(C=C2)Cl)Br

> <PUBCHEM_OPENEYE_ISO_SMILES>
CC(C(=O)NCC1=COC=C1)OC2=C(C=C(C=C2)Cl)Br

> <PUBCHEM_CACTVS_TPSA>
51.5

> <PUBCHEM_MONOISOTOPIC_WEIGHT>
356.976733

> <PUBCHEM_TOTAL_CHARGE>
0

> <PUBCHEM_HEAVY_ATOM_COUNT>
20

> <PUBCHEM_ATOM_DEF_STEREO_COUNT>
0

> <PUBCHEM_ATOM_UDEF_STEREO_COUNT>
1

> <PUBCHEM_BOND_DEF_STEREO_COUNT>
0

> <PUBCHEM_BOND_UDEF_STEREO_COUNT>
0

> <PUBCHEM_ISOTOPIC_ATOM_COUNT>
0

> <PUBCHEM_COMPONENT_COUNT>
1

> <PUBCHEM_CACTVS_TAUTO_COUNT>
2

> <PUBCHEM_COORDINATE_TYPE>
1
5
255

> <PUBCHEM_BONDANNOTATIONS>
10  13  8
10  14  8
12  15  8
12  16  8
13  17  8
15  18  8
16  19  8
18  20  8
19  20  8
4  14  8
4  17  8
7  11  3

$$$$

