255271
  -OEChem-07051213062D

 65 67  0     0  0  0  0  0  0999 V2000
    6.3301    0.7679    0.0000 O   0  0  0  0  0  0  0  0  0  0  0  0
    9.8602    0.7921    0.0000 O   0  0  0  0  0  0  0  0  0  0  0  0
    2.0000   -2.7320    0.0000 O   0  0  0  0  0  0  0  0  0  0  0  0
   10.7321   -0.7046    0.0000 O   0  0  0  0  0  0  0  0  0  0  0  0
    5.4641    0.2679    0.0000 C   0  0  0  0  0  0  0  0  0  0  0  0
    4.9641    1.1340    0.0000 C   0  0  0  0  0  0  0  0  0  0  0  0
    4.4641    0.2679    0.0000 C   0  0  0  0  0  0  0  0  0  0  0  0
    5.4641   -0.7321    0.0000 C   0  0  0  0  0  0  0  0  0  0  0  0
    5.4641    2.0000    0.0000 C   0  0  0  0  0  0  0  0  0  0  0  0
    3.9641    1.1340    0.0000 C   0  0  0  0  0  0  0  0  0  0  0  0
    6.3301   -1.2320    0.0000 C   0  0  0  0  0  0  0  0  0  0  0  0
    7.1962   -0.7321    0.0000 C   0  0  0  0  0  0  0  0  0  0  0  0
    7.1962    0.2679    0.0000 C   0  0  0  0  0  0  0  0  0  0  0  0
    4.5981   -1.2320    0.0000 C   0  0  0  0  0  0  0  0  0  0  0  0
    4.9641    2.8660    0.0000 C   0  0  0  0  0  0  0  0  0  0  0  0
    2.9641    1.1340    0.0000 C   0  0  0  0  0  0  0  0  0  0  0  0
    6.3301   -2.2320    0.0000 C   0  0  0  0  0  0  0  0  0  0  0  0
    8.0901    0.8026    0.0000 C   0  0  0  0  0  0  0  0  0  0  0  0
    8.0901   -1.2667    0.0000 C   0  0  0  0  0  0  0  0  0  0  0  0
    3.7320   -0.7321    0.0000 C   0  0  0  0  0  0  0  0  0  0  0  0
    4.5981   -2.2320    0.0000 C   0  0  0  0  0  0  0  0  0  0  0  0
    5.4641    3.7320    0.0000 C   0  0  0  0  0  0  0  0  0  0  0  0
    2.4641    2.0000    0.0000 C   0  0  0  0  0  0  0  0  0  0  0  0
    8.9962    0.2888    0.0000 C   0  0  0  0  0  0  0  0  0  0  0  0
    8.9962   -0.7529    0.0000 C   0  0  0  0  0  0  0  0  0  0  0  0
    2.8660   -1.2320    0.0000 C   0  0  0  0  0  0  0  0  0  0  0  0
    3.7320   -2.7320    0.0000 C   0  0  0  0  0  0  0  0  0  0  0  0
    2.8660   -2.2320    0.0000 C   0  0  0  0  0  0  0  0  0  0  0  0
   10.7282    0.2954    0.0000 C   0  0  0  0  0  0  0  0  0  0  0  0
    2.0000   -3.7320    0.0000 C   0  0  0  0  0  0  0  0  0  0  0  0
   11.5923    0.7988    0.0000 C   0  0  0  0  0  0  0  0  0  0  0  0
    3.8815    0.0559    0.0000 H   0  0  0  0  0  0  0  0  0  0  0  0
    4.5718   -0.3426    0.0000 H   0  0  0  0  0  0  0  0  0  0  0  0
    4.4892    1.5325    0.0000 H   0  0  0  0  0  0  0  0  0  0  0  0
    4.4892    0.7354    0.0000 H   0  0  0  0  0  0  0  0  0  0  0  0
    5.9390    1.6015    0.0000 H   0  0  0  0  0  0  0  0  0  0  0  0
    5.9390    2.3985    0.0000 H   0  0  0  0  0  0  0  0  0  0  0  0
    4.5467    1.3460    0.0000 H   0  0  0  0  0  0  0  0  0  0  0  0
    3.8564    1.7446    0.0000 H   0  0  0  0  0  0  0  0  0  0  0  0
    2.3815    0.9219    0.0000 H   0  0  0  0  0  0  0  0  0  0  0  0
    3.0718    0.5234    0.0000 H   0  0  0  0  0  0  0  0  0  0  0  0
    4.4892    3.2646    0.0000 H   0  0  0  0  0  0  0  0  0  0  0  0
    4.4892    2.4675    0.0000 H   0  0  0  0  0  0  0  0  0  0  0  0
    5.7101   -2.2320    0.0000 H   0  0  0  0  0  0  0  0  0  0  0  0
    6.3301   -2.8521    0.0000 H   0  0  0  0  0  0  0  0  0  0  0  0
    6.9501   -2.2320    0.0000 H   0  0  0  0  0  0  0  0  0  0  0  0
    8.0829    1.4226    0.0000 H   0  0  0  0  0  0  0  0  0  0  0  0
    8.0829   -1.8867    0.0000 H   0  0  0  0  0  0  0  0  0  0  0  0
    3.7320   -0.1121    0.0000 H   0  0  0  0  0  0  0  0  0  0  0  0
    5.1350   -2.5420    0.0000 H   0  0  0  0  0  0  0  0  0  0  0  0
    3.0010    2.3100    0.0000 H   0  0  0  0  0  0  0  0  0  0  0  0
    2.1541    2.5369    0.0000 H   0  0  0  0  0  0  0  0  0  0  0  0
    1.9272    1.6900    0.0000 H   0  0  0  0  0  0  0  0  0  0  0  0
    6.0010    3.4220    0.0000 H   0  0  0  0  0  0  0  0  0  0  0  0
    5.7741    4.2690    0.0000 H   0  0  0  0  0  0  0  0  0  0  0  0
    4.9272    4.0420    0.0000 H   0  0  0  0  0  0  0  0  0  0  0  0
    9.5319   -1.0649    0.0000 H   0  0  0  0  0  0  0  0  0  0  0  0
    2.3291   -0.9221    0.0000 H   0  0  0  0  0  0  0  0  0  0  0  0
    3.7320   -3.3520    0.0000 H   0  0  0  0  0  0  0  0  0  0  0  0
    1.3800   -3.7320    0.0000 H   0  0  0  0  0  0  0  0  0  0  0  0
    2.0000   -4.3520    0.0000 H   0  0  0  0  0  0  0  0  0  0  0  0
    2.6200   -3.7320    0.0000 H   0  0  0  0  0  0  0  0  0  0  0  0
   11.9044    0.2630    0.0000 H   0  0  0  0  0  0  0  0  0  0  0  0
   12.1280    1.1108    0.0000 H   0  0  0  0  0  0  0  0  0  0  0  0
   11.2802    1.3345    0.0000 H   0  0  0  0  0  0  0  0  0  0  0  0
  1  5  1  0  0  0  0
  1 13  1  0  0  0  0
  2 24  1  0  0  0  0
  2 29  1  0  0  0  0
  3 28  1  0  0  0  0
  3 30  1  0  0  0  0
  4 29  2  0  0  0  0
  5  6  1  0  0  0  0
  5  7  1  0  0  0  0
  5  8  1  0  0  0  0
  6  9  1  0  0  0  0
  6 34  1  0  0  0  0
  6 35  1  0  0  0  0
  7 10  1  0  0  0  0
  7 32  1  0  0  0  0
  7 33  1  0  0  0  0
  8 11  2  0  0  0  0
  8 14  1  0  0  0  0
  9 15  1  0  0  0  0
  9 36  1  0  0  0  0
  9 37  1  0  0  0  0
 10 16  1  0  0  0  0
 10 38  1  0  0  0  0
 10 39  1  0  0  0  0
 11 12  1  0  0  0  0
 11 17  1  0  0  0  0
 12 13  2  0  0  0  0
 12 19  1  0  0  0  0
 13 18  1  0  0  0  0
 14 20  2  0  0  0  0
 14 21  1  0  0  0  0
 15 22  1  0  0  0  0
 15 42  1  0  0  0  0
 15 43  1  0  0  0  0
 16 23  1  0  0  0  0
 16 40  1  0  0  0  0
 16 41  1  0  0  0  0
 17 44  1  0  0  0  0
 17 45  1  0  0  0  0
 17 46  1  0  0  0  0
 18 24  2  0  0  0  0
 18 47  1  0  0  0  0
 19 25  2  0  0  0  0
 19 48  1  0  0  0  0
 20 26  1  0  0  0  0
 20 49  1  0  0  0  0
 21 27  2  0  0  0  0
 21 50  1  0  0  0  0
 22 54  1  0  0  0  0
 22 55  1  0  0  0  0
 22 56  1  0  0  0  0
 23 51  1  0  0  0  0
 23 52  1  0  0  0  0
 23 53  1  0  0  0  0
 24 25  1  0  0  0  0
 25 57  1  0  0  0  0
 26 28  2  0  0  0  0
 26 58  1  0  0  0  0
 27 28  1  0  0  0  0
 27 59  1  0  0  0  0
 29 31  1  0  0  0  0
 30 60  1  0  0  0  0
 30 61  1  0  0  0  0
 30 62  1  0  0  0  0
 31 63  1  0  0  0  0
 31 64  1  0  0  0  0
 31 65  1  0  0  0  0
M  END
> <PUBCHEM_COMPOUND_CID>
255271

> <PUBCHEM_COMPOUND_CANONICALIZED>
1

> <PUBCHEM_CACTVS_COMPLEXITY>
609

> <PUBCHEM_CACTVS_HBOND_ACCEPTOR>
4

> <PUBCHEM_CACTVS_HBOND_DONOR>
0

> <PUBCHEM_CACTVS_ROTATABLE_BOND>
10

> <PUBCHEM_CACTVS_SUBSKEYS>
AAADcfB4OAAAAAAAAAAAAAAAAAAAAAAAAAAwYIAAAAAAAACBQAAAGgAAAAAADESAmAIyDoAABACIAiDSCAACCAAgIAAIiAAGCIgMJyKEMRqCOiClwBUIqAeA4OwOIAAACAAIAABAAAAQABAAAAAAAAAAAA==

> <PUBCHEM_IUPAC_OPENEYE_NAME>
[2,2-dibutyl-3-(4-methoxyphenyl)-4-methyl-chromen-7-yl] acetate

> <PUBCHEM_IUPAC_CAS_NAME>
acetic acid [2,2-dibutyl-3-(4-methoxyphenyl)-4-methyl-1-benzopyran-7-yl] ester

> <PUBCHEM_IUPAC_NAME>
[2,2-dibutyl-3-(4-methoxyphenyl)-4-methylchromen-7-yl] acetate

> <PUBCHEM_IUPAC_SYSTEMATIC_NAME>
[2,2-dibutyl-3-(4-methoxyphenyl)-4-methyl-chromen-7-yl] ethanoate

> <PUBCHEM_IUPAC_TRADITIONAL_NAME>
acetic acid [2,2-dibutyl-3-(4-methoxyphenyl)-4-methyl-chromen-7-yl] ester

> <PUBCHEM_IUPAC_INCHI>
InChI=1S/C27H34O4/c1-6-8-16-27(17-9-7-2)26(21-10-12-22(29-5)13-11-21)19(3)24-15-14-23(30-20(4)28)18-25(24)31-27/h10-15,18H,6-9,16-17H2,1-5H3

> <PUBCHEM_IUPAC_INCHIKEY>
CETLNFWQTHLCEA-UHFFFAOYSA-N

> <PUBCHEM_XLOGP3_AA>
6.5

> <PUBCHEM_EXACT_MASS>
422.24571

> <PUBCHEM_MOLECULAR_FORMULA>
C27H34O4

> <PUBCHEM_MOLECULAR_WEIGHT>
422.55646

> <PUBCHEM_OPENEYE_CAN_SMILES>
CCCCC1(C(=C(C2=C(O1)C=C(C=C2)OC(=O)C)C)C3=CC=C(C=C3)OC)CCCC

> <PUBCHEM_OPENEYE_ISO_SMILES>
CCCCC1(C(=C(C2=C(O1)C=C(C=C2)OC(=O)C)C)C3=CC=C(C=C3)OC)CCCC

> <PUBCHEM_CACTVS_TPSA>
44.8

> <PUBCHEM_MONOISOTOPIC_WEIGHT>
422.24571

> <PUBCHEM_TOTAL_CHARGE>
0

> <PUBCHEM_HEAVY_ATOM_COUNT>
31

> <PUBCHEM_ATOM_DEF_STEREO_COUNT>
0

> <PUBCHEM_ATOM_UDEF_STEREO_COUNT>
0

> <PUBCHEM_BOND_DEF_STEREO_COUNT>
0

> <PUBCHEM_BOND_UDEF_STEREO_COUNT>
0

> <PUBCHEM_ISOTOPIC_ATOM_COUNT>
0

> <PUBCHEM_COMPONENT_COUNT>
1

> <PUBCHEM_CACTVS_TAUTO_COUNT>
1

> <PUBCHEM_COORDINATE_TYPE>
1
5
255

> <PUBCHEM_BONDANNOTATIONS>
12  13  8
12  19  8
13  18  8
14  20  8
14  21  8
18  24  8
19  25  8
20  26  8
21  27  8
24  25  8
26  28  8
27  28  8

$$$$

