11115
  -OEChem-07051213103D

 37 37  0     0  0  0  0  0  0999 V2000
    0.1575   -0.0890   -0.1714 O   0  0  0  0  0  0  0  0  0  0  0  0
    1.2162   -2.0463   -0.7610 O   0  0  0  0  0  0  0  0  0  0  0  0
   -3.5175   -0.2677   -0.2199 N   0  0  0  0  0  0  0  0  0  0  0  0
    5.9704   -0.7623    0.8605 N   0  0  0  0  0  0  0  0  0  0  0  0
   -5.9745    0.1239   -0.0787 C   0  0  0  0  0  0  0  0  0  0  0  0
   -4.5608    0.7196    0.0366 C   0  0  0  0  0  0  0  0  0  0  0  0
   -6.1237   -1.0452    0.8986 C   0  0  0  0  0  0  0  0  0  0  0  0
   -7.0713    1.1586    0.1858 C   0  0  0  0  0  0  0  0  0  0  0  0
   -2.1962    0.3152   -0.0363 C   0  0  0  0  0  0  0  0  0  0  0  0
   -1.1119   -0.7044   -0.3467 C   0  0  0  0  0  0  0  0  0  0  0  0
    2.5008   -0.1194   -0.1935 C   0  0  0  0  0  0  0  0  0  0  0  0
    1.2422   -0.8761   -0.4126 C   0  0  0  0  0  0  0  0  0  0  0  0
    3.6247   -0.8006    0.2273 C   0  0  0  0  0  0  0  0  0  0  0  0
    2.5077    1.2421   -0.4185 C   0  0  0  0  0  0  0  0  0  0  0  0
    4.8071   -0.0893    0.4320 C   0  0  0  0  0  0  0  0  0  0  0  0
    3.6899    1.9533   -0.2137 C   0  0  0  0  0  0  0  0  0  0  0  0
    4.8396    1.2877    0.2114 C   0  0  0  0  0  0  0  0  0  0  0  0
   -6.1147   -0.2603   -1.0975 H   0  0  0  0  0  0  0  0  0  0  0  0
   -4.4692    1.5493   -0.6757 H   0  0  0  0  0  0  0  0  0  0  0  0
   -4.4348    1.1399    1.0428 H   0  0  0  0  0  0  0  0  0  0  0  0
   -3.6122   -0.6274   -1.1691 H   0  0  0  0  0  0  0  0  0  0  0  0
   -5.9351   -0.7292    1.9305 H   0  0  0  0  0  0  0  0  0  0  0  0
   -7.1386   -1.4559    0.8551 H   0  0  0  0  0  0  0  0  0  0  0  0
   -5.4372   -1.8640    0.6607 H   0  0  0  0  0  0  0  0  0  0  0  0
   -6.9967    1.5651    1.2000 H   0  0  0  0  0  0  0  0  0  0  0  0
   -8.0650    0.7136    0.0691 H   0  0  0  0  0  0  0  0  0  0  0  0
   -6.9915    1.9922   -0.5198 H   0  0  0  0  0  0  0  0  0  0  0  0
   -2.0681    0.6679    0.9947 H   0  0  0  0  0  0  0  0  0  0  0  0
   -2.0599    1.1894   -0.6855 H   0  0  0  0  0  0  0  0  0  0  0  0
   -1.2040   -1.0533   -1.3827 H   0  0  0  0  0  0  0  0  0  0  0  0
   -1.1962   -1.5645    0.3289 H   0  0  0  0  0  0  0  0  0  0  0  0
    3.5982   -1.8731    0.4019 H   0  0  0  0  0  0  0  0  0  0  0  0
    1.6305    1.7816   -0.7628 H   0  0  0  0  0  0  0  0  0  0  0  0
    3.7164    3.0250   -0.3883 H   0  0  0  0  0  0  0  0  0  0  0  0
    5.7549    1.8531    0.3663 H   0  0  0  0  0  0  0  0  0  0  0  0
    5.9471   -1.7602    1.0230 H   0  0  0  0  0  0  0  0  0  0  0  0
    6.8270   -0.2463    1.0114 H   0  0  0  0  0  0  0  0  0  0  0  0
  1 10  1  0  0  0  0
  1 12  1  0  0  0  0
  2 12  2  0  0  0  0
  3  6  1  0  0  0  0
  3  9  1  0  0  0  0
  3 21  1  0  0  0  0
  4 15  1  0  0  0  0
  4 36  1  0  0  0  0
  4 37  1  0  0  0  0
  5  6  1  0  0  0  0
  5  7  1  0  0  0  0
  5  8  1  0  0  0  0
  5 18  1  0  0  0  0
  6 19  1  0  0  0  0
  6 20  1  0  0  0  0
  7 22  1  0  0  0  0
  7 23  1  0  0  0  0
  7 24  1  0  0  0  0
  8 25  1  0  0  0  0
  8 26  1  0  0  0  0
  8 27  1  0  0  0  0
  9 10  1  0  0  0  0
  9 28  1  0  0  0  0
  9 29  1  0  0  0  0
 10 30  1  0  0  0  0
 10 31  1  0  0  0  0
 11 12  1  0  0  0  0
 11 13  2  0  0  0  0
 11 14  1  0  0  0  0
 13 15  1  0  0  0  0
 13 32  1  0  0  0  0
 14 16  2  0  0  0  0
 14 33  1  0  0  0  0
 15 17  2  0  0  0  0
 16 17  1  0  0  0  0
 16 34  1  0  0  0  0
 17 35  1  0  0  0  0
M  END
> <PUBCHEM_COMPOUND_CID>
11115

> <PUBCHEM_CONFORMER_RMSD>
0.8

> <PUBCHEM_CONFORMER_DIVERSEORDER>
1
50
124
13
131
30
116
92
171
110
99
113
172
37
64
130
109
135
120
14
44
119
168
46
100
147
89
156
25
114
47
31
140
96
150
166
107
125
33
59
27
138
66
161
65
93
122
173
159
12
2
167
21
181
112
176
134
80
121
98
15
105
137
95
128
104
58
127
52
178
91
55
77
158
48
154
152
6
162
123
101
87
34
28
117
133
170
155
139
63
62
54
151
45
4
35
78
84
177
160
94
16
75
19
97
106
40
22
142
79
115
175
38
148
42
102
57
68
149
11
136
67
76
165
141
8
126
3
85
118
132
56
7
103
174
86
164
18
169
36
74
180
24
26
39
88
111
82
43
146
10
72
41
5
71
163
153
9
144
108
129
61
17
83
145
69
53
70
73
20
90
51
49
32
60
179
157
23
29
81
143

> <PUBCHEM_MMFF94_PARTIAL_CHARGES>
21
1 -0.43
10 0.28
11 0.09
12 0.63
13 -0.15
14 -0.15
15 0.1
16 -0.15
17 -0.15
2 -0.57
21 0.36
3 -0.9
32 0.15
33 0.15
34 0.15
35 0.15
36 0.4
37 0.4
4 -0.9
6 0.27
9 0.27

> <PUBCHEM_EFFECTIVE_ROTOR_COUNT>
7

> <PUBCHEM_PHARMACOPHORE_FEATURES>
7
1 2 acceptor
1 3 cation
1 3 donor
1 4 cation
1 4 donor
3 5 7 8 hydrophobe
6 11 13 14 15 16 17 rings

> <PUBCHEM_HEAVY_ATOM_COUNT>
17

> <PUBCHEM_ATOM_DEF_STEREO_COUNT>
0

> <PUBCHEM_ATOM_UDEF_STEREO_COUNT>
0

> <PUBCHEM_BOND_DEF_STEREO_COUNT>
0

> <PUBCHEM_BOND_UDEF_STEREO_COUNT>
0

> <PUBCHEM_ISOTOPIC_ATOM_COUNT>
0

> <PUBCHEM_COMPONENT_COUNT>
1

> <PUBCHEM_CACTVS_TAUTO_COUNT>
1

> <PUBCHEM_CONFORMER_ID>
00002B6B00000001

> <PUBCHEM_MMFF94_ENERGY>
39.8277

> <PUBCHEM_FEATURE_SELFOVERLAP>
35.52

> <PUBCHEM_SHAPE_FINGERPRINT>
10354089 29 18413671309908043064
10688039 33 17846782931216374292
11287383 113 18341891875221744203
11724838 91 18339925900616973847
12236239 1 18040157301172905407
12516196 113 11239997849778298183
12596602 18 18059855039416362329
12616971 3 18334301937390551109
12714333 28 15068344505556788138
13167372 99 18335982060183737521
13533116 47 17417820594431737378
13668630 136 12895067432014633057
1420 363 18060134336891905267
14251718 22 6988319434992234675
14251732 16 18341610361711731659
14251764 18 18272092669582860984
14341114 176 18060419109971125556
15183329 4 9439414514778848663
15348495 7 17846491483820824601
15475509 35 16486433069989224224
17834076 25 17530685411752198255
18222031 100 13973967592782429126
19433438 28 17775008998535590229
19489759 90 16559034900691856869
21150785 3 4678808451136677649
21267235 1 18341332288676218850
212847 35 18260549996319588664
21315763 129 18343865524342859133
2215653 11 9367347012119473969
23402539 116 18202005413224728591
2767999 5 17675926499719196121
300161 21 17385729114730079599
351380 180 18201719548406423409
351380 3 11959731560129781025
3545911 37 18335137596271436478
42630746 31 18187080680796284622
42788 4 18412263935019228005
4325135 7 18260833675036340303
4340502 62 18131348618312257459
465052 167 18202566194256764058
5104073 3 18269848514710885922

> <PUBCHEM_SHAPE_MULTIPOLES>
328.15
17.83
1.56
0.76
23.08
0.16
-0.04
3.14
-4.32
-0.99
0.12
-0.06
-0.12
0.03

> <PUBCHEM_SHAPE_SELFOVERLAP>
658.405

> <PUBCHEM_SHAPE_VOLUME>
194.1

> <PUBCHEM_COORDINATE_TYPE>
2
5
10

$$$$

