439893
  -OEChem-07051212483D

 18 17  0     0  0  0  0  0  0999 V2000
    2.1926    0.8051   -0.6845 O   0  0  0  0  0  0  0  0  0  0  0  0
   -2.2274    0.7571   -0.5776 O   0  0  0  0  0  0  0  0  0  0  0  0
    0.0261   -1.2746   -1.4067 O   0  0  0  0  0  0  0  0  0  0  0  0
    0.0124   -2.0585    0.7118 O   0  0  0  0  0  0  0  0  0  0  0  0
   -0.6024    0.4025    1.7040 N   0  0  0  0  0  0  0  0  0  0  0  0
    0.0112    0.3710    0.3629 C   0  0  0  0  0  0  0  0  0  0  0  0
    1.4496    0.8958    0.5240 C   0  0  0  0  0  0  0  0  0  0  0  0
   -0.8793    1.2072   -0.5752 C   0  0  0  0  0  0  0  0  0  0  0  0
    0.0172   -1.1055   -0.0587 C   0  0  0  0  0  0  0  0  0  0  0  0
    1.4599    1.9412    0.8539 H   0  0  0  0  0  0  0  0  0  0  0  0
    1.9980    0.3080    1.2695 H   0  0  0  0  0  0  0  0  0  0  0  0
   -0.8799    2.2572   -0.2589 H   0  0  0  0  0  0  0  0  0  0  0  0
   -0.5121    1.1759   -1.6068 H   0  0  0  0  0  0  0  0  0  0  0  0
   -0.0787   -0.1919    2.3455 H   0  0  0  0  0  0  0  0  0  0  0  0
   -1.5495    0.0279    1.6630 H   0  0  0  0  0  0  0  0  0  0  0  0
    1.7682    1.3895   -1.3350 H   0  0  0  0  0  0  0  0  0  0  0  0
   -2.7214    1.3363   -1.1825 H   0  0  0  0  0  0  0  0  0  0  0  0
    0.0287   -2.2234   -1.6560 H   0  0  0  0  0  0  0  0  0  0  0  0
  1  7  1  0  0  0  0
  1 16  1  0  0  0  0
  2  8  1  0  0  0  0
  2 17  1  0  0  0  0
  3  9  1  0  0  0  0
  3 18  1  0  0  0  0
  4  9  2  0  0  0  0
  5  6  1  0  0  0  0
  5 14  1  0  0  0  0
  5 15  1  0  0  0  0
  6  7  1  0  0  0  0
  6  8  1  0  0  0  0
  6  9  1  0  0  0  0
  7 10  1  0  0  0  0
  7 11  1  0  0  0  0
  8 12  1  0  0  0  0
  8 13  1  0  0  0  0
M  END
> <PUBCHEM_COMPOUND_CID>
439893

> <PUBCHEM_CONFORMER_RMSD>
0.6

> <PUBCHEM_CONFORMER_DIVERSEORDER>
2
18
3
10
13
16
8
9
12
1
15
7
17
4
6
11
14
5

> <PUBCHEM_MMFF94_PARTIAL_CHARGES>
14
1 -0.68
14 0.36
15 0.36
16 0.4
17 0.4
18 0.5
2 -0.68
3 -0.65
4 -0.57
5 -0.99
6 0.33
7 0.28
8 0.28
9 0.66

> <PUBCHEM_EFFECTIVE_ROTOR_COUNT>
3

> <PUBCHEM_PHARMACOPHORE_FEATURES>
9
1 1 acceptor
1 1 donor
1 2 acceptor
1 2 donor
1 3 acceptor
1 4 acceptor
1 5 cation
1 5 donor
3 3 4 9 anion

> <PUBCHEM_HEAVY_ATOM_COUNT>
9

> <PUBCHEM_ATOM_DEF_STEREO_COUNT>
0

> <PUBCHEM_ATOM_UDEF_STEREO_COUNT>
0

> <PUBCHEM_BOND_DEF_STEREO_COUNT>
0

> <PUBCHEM_BOND_UDEF_STEREO_COUNT>
0

> <PUBCHEM_ISOTOPIC_ATOM_COUNT>
0

> <PUBCHEM_COMPONENT_COUNT>
1

> <PUBCHEM_CACTVS_TAUTO_COUNT>
1

> <PUBCHEM_CONFORMER_ID>
0006B65500000002

> <PUBCHEM_MMFF94_ENERGY>
12.7356

> <PUBCHEM_FEATURE_SELFOVERLAP>
45.735

> <PUBCHEM_SHAPE_FINGERPRINT>
12423570 1 14955932476779184041
137420 1 14961299107229854448
21040471 1 18340783558420686688
29004967 10 17402911397163434387
5084963 1 18409167740018532452
5943 1 13239324930039102753

> <PUBCHEM_SHAPE_MULTIPOLES>
156.76
1.89
1.71
1.25
0.2
0.88
-0.22
-1.05
0.47
-0.12
0.05
-0.07
0.09
0.05

> <PUBCHEM_SHAPE_SELFOVERLAP>
297.487

> <PUBCHEM_SHAPE_VOLUME>
96.7

> <PUBCHEM_COORDINATE_TYPE>
2
5
10

$$$$

