86132
  -OEChem-07051213123D

 38 40  0     1  0  0  0  0  0999 V2000
   -0.1970   -4.9499    0.0010 Cl  0  0  0  0  0  0  0  0  0  0  0  0
   -0.1472    1.5235    1.4311 O   0  0  0  0  0  0  0  0  0  0  0  0
    2.1795    1.2123   -0.3765 N   0  0  0  0  0  0  0  0  0  0  0  0
    2.7168    0.1160   -0.9005 N   0  0  0  0  0  0  0  0  0  0  0  0
    4.1112    1.1496    0.5895 N   0  0  0  0  0  0  0  0  0  0  0  0
   -2.8783    1.0710    0.4287 C   0  0  0  0  0  0  0  0  0  0  0  0
   -4.2525    1.4927    0.0637 C   0  0  0  0  0  0  0  0  0  0  0  0
   -3.7974    0.0857   -0.1913 C   0  0  0  0  0  0  0  0  0  0  0  0
   -1.7241    1.5962   -0.4088 C   0  0  2  0  0  0  0  0  0  0  0  0
   -0.3307    1.0503    0.0880 C   0  0  1  0  0  0  0  0  0  0  0  0
   -1.8081    3.1323   -0.4441 C   0  0  0  0  0  0  0  0  0  0  0  0
    0.8320    1.6296   -0.7778 C   0  0  0  0  0  0  0  0  0  0  0  0
   -0.2956   -0.4854    0.0655 C   0  0  0  0  0  0  0  0  0  0  0  0
   -0.4202   -1.1236   -1.1437 C   0  0  0  0  0  0  0  0  0  0  0  0
   -0.1421   -1.1523    1.2560 C   0  0  0  0  0  0  0  0  0  0  0  0
   -0.3893   -2.5180   -1.1639 C   0  0  0  0  0  0  0  0  0  0  0  0
   -0.1111   -2.5467    1.2358 C   0  0  0  0  0  0  0  0  0  0  0  0
    2.9906    1.8280    0.5012 C   0  0  0  0  0  0  0  0  0  0  0  0
   -0.2347   -3.2296    0.0258 C   0  0  0  0  0  0  0  0  0  0  0  0
    3.8983    0.1181   -0.2797 C   0  0  0  0  0  0  0  0  0  0  0  0
   -2.6638    0.9997    1.4871 H   0  0  0  0  0  0  0  0  0  0  0  0
   -4.4437    2.0949   -0.8151 H   0  0  0  0  0  0  0  0  0  0  0  0
   -4.9624    1.6525    0.8668 H   0  0  0  0  0  0  0  0  0  0  0  0
   -4.1989   -0.6970    0.4411 H   0  0  0  0  0  0  0  0  0  0  0  0
   -3.6456   -0.2136   -1.2209 H   0  0  0  0  0  0  0  0  0  0  0  0
   -1.8644    1.2695   -1.4484 H   0  0  0  0  0  0  0  0  0  0  0  0
   -1.7222    3.5626    0.5591 H   0  0  0  0  0  0  0  0  0  0  0  0
   -1.0312    3.5691   -1.0764 H   0  0  0  0  0  0  0  0  0  0  0  0
   -2.7575    3.4807   -0.8618 H   0  0  0  0  0  0  0  0  0  0  0  0
    0.8639    2.7226   -0.7043 H   0  0  0  0  0  0  0  0  0  0  0  0
    0.7245    1.3798   -1.8400 H   0  0  0  0  0  0  0  0  0  0  0  0
    0.0137    2.4813    1.4022 H   0  0  0  0  0  0  0  0  0  0  0  0
   -0.5437   -0.5872   -2.0784 H   0  0  0  0  0  0  0  0  0  0  0  0
   -0.0446   -0.6564    2.2153 H   0  0  0  0  0  0  0  0  0  0  0  0
   -0.4876   -3.0369   -2.1141 H   0  0  0  0  0  0  0  0  0  0  0  0
    0.0095   -3.0884    2.1705 H   0  0  0  0  0  0  0  0  0  0  0  0
    2.7428    2.7330    1.0379 H   0  0  0  0  0  0  0  0  0  0  0  0
    4.6268   -0.6567   -0.4661 H   0  0  0  0  0  0  0  0  0  0  0  0
  1 19  1  0  0  0  0
  2 10  1  0  0  0  0
  2 32  1  0  0  0  0
  3  4  1  0  0  0  0
  3 12  1  0  0  0  0
  3 18  1  0  0  0  0
  4 20  2  0  0  0  0
  5 18  2  0  0  0  0
  5 20  1  0  0  0  0
  6  7  1  0  0  0  0
  6  8  1  0  0  0  0
  6  9  1  0  0  0  0
  6 21  1  0  0  0  0
  7  8  1  0  0  0  0
  7 22  1  0  0  0  0
  7 23  1  0  0  0  0
  8 24  1  0  0  0  0
  8 25  1  0  0  0  0
  9 10  1  0  0  0  0
  9 11  1  0  0  0  0
  9 26  1  0  0  0  0
 10 12  1  0  0  0  0
 10 13  1  0  0  0  0
 11 27  1  0  0  0  0
 11 28  1  0  0  0  0
 11 29  1  0  0  0  0
 12 30  1  0  0  0  0
 12 31  1  0  0  0  0
 13 14  2  0  0  0  0
 13 15  1  0  0  0  0
 14 16  1  0  0  0  0
 14 33  1  0  0  0  0
 15 17  2  0  0  0  0
 15 34  1  0  0  0  0
 16 19  2  0  0  0  0
 16 35  1  0  0  0  0
 17 19  1  0  0  0  0
 17 36  1  0  0  0  0
 18 37  1  0  0  0  0
 20 38  1  0  0  0  0
M  END
> <PUBCHEM_COMPOUND_CID>
86132

> <PUBCHEM_CONFORMER_RMSD>
0.8

> <PUBCHEM_CONFORMER_DIVERSEORDER>
2
22
7
3
16
8
11
33
18
34
31
4
6
13
19
15
30
17
27
24
21
26
23
14
10
29
5
32
25
20
1
9
12
28

> <PUBCHEM_MMFF94_PARTIAL_CHARGES>
31
1 -0.18
10 0.42
12 0.26
13 -0.14
14 -0.15
15 -0.15
16 -0.15
17 -0.15
18 0.04
19 0.18
2 -0.68
20 0.37
21 0.1
22 0.1
23 0.1
24 0.1
25 0.1
3 0.31
32 0.4
33 0.15
34 0.15
35 0.15
36 0.15
37 0.15
38 0.15
4 -0.71
5 -0.57
6 -0.19
7 -0.2
8 -0.2
9 0.09

> <PUBCHEM_EFFECTIVE_ROTOR_COUNT>
5.6

> <PUBCHEM_PHARMACOPHORE_FEATURES>
7
1 11 hydrophobe
1 2 acceptor
1 2 donor
3 3 5 18 cation
3 4 5 20 cation
5 3 4 5 18 20 rings
6 13 14 15 16 17 19 rings

> <PUBCHEM_HEAVY_ATOM_COUNT>
20

> <PUBCHEM_ATOM_DEF_STEREO_COUNT>
0

> <PUBCHEM_ATOM_UDEF_STEREO_COUNT>
2

> <PUBCHEM_BOND_DEF_STEREO_COUNT>
0

> <PUBCHEM_BOND_UDEF_STEREO_COUNT>
0

> <PUBCHEM_ISOTOPIC_ATOM_COUNT>
0

> <PUBCHEM_COMPONENT_COUNT>
1

> <PUBCHEM_CACTVS_TAUTO_COUNT>
1

> <PUBCHEM_CONFORMER_ID>
0001507400000002

> <PUBCHEM_MMFF94_ENERGY>
52.3877

> <PUBCHEM_FEATURE_SELFOVERLAP>
38.297

> <PUBCHEM_SHAPE_FINGERPRINT>
10922049 32 18411133653871229577
11322862 65 18411698747092531134
11578080 2 16374107841593083171
116883 192 17760930641052475023
12035759 4 18118716333536402983
121448 382 18119558503429453613
12532896 13 18336270063183151238
12553582 1 17188115805114368754
12592029 89 18267864058851063585
12715332 25 18335417916007335507
12788726 201 17839170814632356418
12839892 36 18340501061452639707
13052359 8 18267590117495279887
13083527 12 17983034519883619131
14178342 30 18124610682466228824
14863182 85 18199165396286306543
14866123 147 18338241461942174922
15042514 8 18268710515353753170
15309172 13 18411132545917815145
16945 1 18059563694177692945
18186145 218 18187358878444241028
18915476 22 18055088806886432989
19591789 44 18410577258254524099
19930381 70 17905888437736176710
20028762 73 18117270360104279991
20197701 30 18411146839484157805
20567600 347 18272081751486032771
20905425 154 17763177342745125068
21421861 104 17904750421620727297
21524375 3 18410008874935111444
23402539 116 18335148569823674884
23419403 2 17394112894754802759
23558518 356 17766568945185502448
23559900 14 17618514619643519179
23598288 3 17841696431712139882
23728640 28 18339931420124949930
257057 1 17473823922734229666
2748010 2 18195778878438997427
3250762 1 17551802842281385333
43471831 8 18267584782992755037
6138700 20 18050280672819691166
69090 78 18335143072465735932
7364860 26 17978228584406979901
81228 2 17905625310384331865
81539 233 18271525424282446245
9709674 26 18189895310499212756

> <PUBCHEM_SHAPE_MULTIPOLES>
392.65
5.56
4.75
1.11
0.57
6.75
0.1
-5.11
0.06
-1.03
-0.05
-0.13
0.26
0.16

> <PUBCHEM_SHAPE_SELFOVERLAP>
827.065

> <PUBCHEM_SHAPE_VOLUME>
224.3

> <PUBCHEM_COORDINATE_TYPE>
2
5
10

$$$$

