442513
  -OEChem-07051212582D

 29 31  0     1  0  0  0  0  0999 V2000
    5.5443   -1.4131    0.0000 O   0  0  0  0  0  0  0  0  0  0  0  0
    3.7320    0.3916    0.0000 O   0  0  0  0  0  0  0  0  0  0  0  0
    5.8550    1.1469    0.0000 O   0  0  0  0  0  0  0  0  0  0  0  0
    2.0000    0.3916    0.0000 O   0  0  0  0  0  0  0  0  0  0  0  0
    4.5981   -0.1084    0.0000 C   0  0  1  0  0  0  0  0  0  0  0  0
    5.5443    0.1964    0.0000 C   0  0  1  0  0  0  0  0  0  0  0  0
    6.1279   -0.6084    0.0000 C   0  0  1  0  0  0  0  0  0  0  0  0
    4.5981   -1.1084    0.0000 C   0  0  2  0  0  0  0  0  0  0  0  0
    7.1279   -0.6084    0.0000 C   0  0  0  0  0  0  0  0  0  0  0  0
    3.7320   -1.6084    0.0000 C   0  0  0  0  0  0  0  0  0  0  0  0
    2.8660   -1.1084    0.0000 C   0  0  0  0  0  0  0  0  0  0  0  0
    2.8660   -0.1084    0.0000 C   0  0  0  0  0  0  0  0  0  0  0  0
    7.6279   -1.4744    0.0000 C   0  0  0  0  0  0  0  0  0  0  0  0
    7.6279    0.2577    0.0000 C   0  0  0  0  0  0  0  0  0  0  0  0
    8.6279   -1.4744    0.0000 C   0  0  0  0  0  0  0  0  0  0  0  0
    8.6279    0.2577    0.0000 C   0  0  0  0  0  0  0  0  0  0  0  0
    9.1279   -0.6084    0.0000 C   0  0  0  0  0  0  0  0  0  0  0  0
    4.6880    0.7369    0.0000 H   0  0  0  0  0  0  0  0  0  0  0  0
    5.1068    0.6357    0.0000 H   0  0  0  0  0  0  0  0  0  0  0  0
    6.4096   -1.1607    0.0000 H   0  0  0  0  0  0  0  0  0  0  0  0
    4.6880   -1.9536    0.0000 H   0  0  0  0  0  0  0  0  0  0  0  0
    3.7320   -2.2284    0.0000 H   0  0  0  0  0  0  0  0  0  0  0  0
    5.4409    1.6084    0.0000 H   0  0  0  0  0  0  0  0  0  0  0  0
    2.3291   -1.4184    0.0000 H   0  0  0  0  0  0  0  0  0  0  0  0
    7.3179   -2.0113    0.0000 H   0  0  0  0  0  0  0  0  0  0  0  0
    7.3179    0.7946    0.0000 H   0  0  0  0  0  0  0  0  0  0  0  0
    8.9379   -2.0113    0.0000 H   0  0  0  0  0  0  0  0  0  0  0  0
    8.9379    0.7946    0.0000 H   0  0  0  0  0  0  0  0  0  0  0  0
    9.7479   -0.6084    0.0000 H   0  0  0  0  0  0  0  0  0  0  0  0
  1  7  1  0  0  0  0
  1  8  1  0  0  0  0
  2  5  1  0  0  0  0
  2 12  1  0  0  0  0
  6  3  1  6  0  0  0
  3 23  1  0  0  0  0
  4 12  2  0  0  0  0
  5  6  1  0  0  0  0
  5  8  1  0  0  0  0
  5 18  1  6  0  0  0
  6  7  1  0  0  0  0
  6 19  1  0  0  0  0
  7  9  1  1  0  0  0
  7 20  1  0  0  0  0
  8 10  1  0  0  0  0
  8 21  1  6  0  0  0
  9 13  2  0  0  0  0
  9 14  1  0  0  0  0
 10 11  2  0  0  0  0
 10 22  1  0  0  0  0
 11 12  1  0  0  0  0
 11 24  1  0  0  0  0
 13 15  1  0  0  0  0
 13 25  1  0  0  0  0
 14 16  2  0  0  0  0
 14 26  1  0  0  0  0
 15 17  2  0  0  0  0
 15 27  1  0  0  0  0
 16 17  1  0  0  0  0
 16 28  1  0  0  0  0
 17 29  1  0  0  0  0
M  END
> <PUBCHEM_COMPOUND_CID>
442513

> <PUBCHEM_COMPOUND_CANONICALIZED>
1

> <PUBCHEM_CACTVS_COMPLEXITY>
332

> <PUBCHEM_CACTVS_HBOND_ACCEPTOR>
4

> <PUBCHEM_CACTVS_HBOND_DONOR>
1

> <PUBCHEM_CACTVS_ROTATABLE_BOND>
1

> <PUBCHEM_CACTVS_SUBSKEYS>
AAADccBwOAAAAAAAAAAAAAAAAAAAASAAAAAwQAAAAAAAAEABAAAAGgAACAAADBSgmAIwCIAABgCIAiDSCAACAAAgAAAIiAAACMgJNiKAMRiCcAAlwAELqYeAwPAOAAAAAAAAAAAAAAAAAAAAAAAAAAAAAA==

> <PUBCHEM_IUPAC_OPENEYE_NAME>
(2R,3R,3aS,7aS)-3-hydroxy-2-phenyl-2,3,3a,7a-tetrahydrofuro[3,2-b]pyran-5-one

> <PUBCHEM_IUPAC_CAS_NAME>
(2R,3R,3aS,7aS)-3-hydroxy-2-phenyl-2,3,3a,7a-tetrahydrofuro[3,2-b]pyran-5-one

> <PUBCHEM_IUPAC_NAME>
(2R,3R,3aS,7aS)-3-hydroxy-2-phenyl-2,3,3a,7a-tetrahydrofuro[3,2-b]pyran-5-one

> <PUBCHEM_IUPAC_SYSTEMATIC_NAME>
(2R,3R,3aS,7aS)-3-oxidanyl-2-phenyl-2,3,3a,7a-tetrahydrofuro[3,2-b]pyran-5-one

> <PUBCHEM_IUPAC_TRADITIONAL_NAME>
(2R,3R,3aS,7aS)-3-hydroxy-2-phenyl-2,3,3a,7a-tetrahydrofuro[3,2-b]pyran-5-one

> <PUBCHEM_IUPAC_INCHI>
InChI=1S/C13H12O4/c14-10-7-6-9-13(17-10)11(15)12(16-9)8-4-2-1-3-5-8/h1-7,9,11-13,15H/t9-,11+,12+,13+/m0/s1

> <PUBCHEM_IUPAC_INCHIKEY>
ZKIRVBNLJKGIEM-WKSBVSIWSA-N

> <PUBCHEM_XLOGP3_AA>
0.9

> <PUBCHEM_EXACT_MASS>
232.073559

> <PUBCHEM_MOLECULAR_FORMULA>
C13H12O4

> <PUBCHEM_MOLECULAR_WEIGHT>
232.23198

> <PUBCHEM_OPENEYE_CAN_SMILES>
C1=CC=C(C=C1)C2C(C3C(O2)C=CC(=O)O3)O

> <PUBCHEM_OPENEYE_ISO_SMILES>
C1=CC=C(C=C1)[C@@H]2[C@H]([C@H]3[C@@H](O2)C=CC(=O)O3)O

> <PUBCHEM_CACTVS_TPSA>
55.8

> <PUBCHEM_MONOISOTOPIC_WEIGHT>
232.073559

> <PUBCHEM_TOTAL_CHARGE>
0

> <PUBCHEM_HEAVY_ATOM_COUNT>
17

> <PUBCHEM_ATOM_DEF_STEREO_COUNT>
4

> <PUBCHEM_ATOM_UDEF_STEREO_COUNT>
0

> <PUBCHEM_BOND_DEF_STEREO_COUNT>
0

> <PUBCHEM_BOND_UDEF_STEREO_COUNT>
0

> <PUBCHEM_ISOTOPIC_ATOM_COUNT>
0

> <PUBCHEM_COMPONENT_COUNT>
1

> <PUBCHEM_CACTVS_TAUTO_COUNT>
1

> <PUBCHEM_COORDINATE_TYPE>
1
5
255

> <PUBCHEM_BONDANNOTATIONS>
13  15  8
14  16  8
15  17  8
16  17  8
6  3  6
5  18  6
7  9  5
8  21  6
9  13  8
9  14  8

$$$$

