442645
  -OEChem-07051212583D

 26 27  0     1  0  0  0  0  0999 V2000
    1.7780    1.9569   -0.5299 O   0  0  0  0  0  0  0  0  0  0  0  0
    2.8217   -0.8457    0.8513 O   0  0  0  0  0  0  0  0  0  0  0  0
   -0.3159   -0.8401    0.0767 N   0  0  2  0  0  0  0  0  0  0  0  0
   -0.1822    0.5761   -0.2703 C   0  0  2  0  0  0  0  0  0  0  0  0
    1.2480    0.8428    0.1690 C   0  0  1  0  0  0  0  0  0  0  0  0
    1.9796   -0.4474   -0.2225 C   0  0  2  0  0  0  0  0  0  0  0  0
   -1.2491    1.4002    0.4421 C   0  0  0  0  0  0  0  0  0  0  0  0
    0.8783   -1.4880   -0.4622 C   0  0  0  0  0  0  0  0  0  0  0  0
   -1.5804   -1.3945   -0.3904 C   0  0  0  0  0  0  0  0  0  0  0  0
   -2.6383    0.8774    0.0650 C   0  0  0  0  0  0  0  0  0  0  0  0
   -2.7398   -0.6378    0.2712 C   0  0  0  0  0  0  0  0  0  0  0  0
   -0.2770    0.7348   -1.3554 H   0  0  0  0  0  0  0  0  0  0  0  0
    1.3187    1.0427    1.2454 H   0  0  0  0  0  0  0  0  0  0  0  0
    2.6020   -0.3269   -1.1161 H   0  0  0  0  0  0  0  0  0  0  0  0
   -1.1605    2.4576    0.1684 H   0  0  0  0  0  0  0  0  0  0  0  0
   -1.1216    1.3383    1.5304 H   0  0  0  0  0  0  0  0  0  0  0  0
    0.7726   -1.6637   -1.5400 H   0  0  0  0  0  0  0  0  0  0  0  0
    1.0782   -2.4403    0.0386 H   0  0  0  0  0  0  0  0  0  0  0  0
   -1.6496   -2.4542   -0.1191 H   0  0  0  0  0  0  0  0  0  0  0  0
   -1.6674   -1.3270   -1.4823 H   0  0  0  0  0  0  0  0  0  0  0  0
   -2.8389    1.1111   -0.9880 H   0  0  0  0  0  0  0  0  0  0  0  0
   -3.4045    1.3881    0.6587 H   0  0  0  0  0  0  0  0  0  0  0  0
   -2.7449   -0.8519    1.3478 H   0  0  0  0  0  0  0  0  0  0  0  0
   -3.6932   -1.0004   -0.1294 H   0  0  0  0  0  0  0  0  0  0  0  0
    2.7149    2.0364   -0.2818 H   0  0  0  0  0  0  0  0  0  0  0  0
    3.4737   -0.1372    0.9879 H   0  0  0  0  0  0  0  0  0  0  0  0
  1  5  1  0  0  0  0
  1 25  1  0  0  0  0
  2  6  1  0  0  0  0
  2 26  1  0  0  0  0
  3  4  1  0  0  0  0
  3  8  1  0  0  0  0
  3  9  1  0  0  0  0
  4  5  1  0  0  0  0
  4  7  1  0  0  0  0
  4 12  1  0  0  0  0
  5  6  1  0  0  0  0
  5 13  1  0  0  0  0
  6  8  1  0  0  0  0
  6 14  1  0  0  0  0
  7 10  1  0  0  0  0
  7 15  1  0  0  0  0
  7 16  1  0  0  0  0
  8 17  1  0  0  0  0
  8 18  1  0  0  0  0
  9 11  1  0  0  0  0
  9 19  1  0  0  0  0
  9 20  1  0  0  0  0
 10 11  1  0  0  0  0
 10 21  1  0  0  0  0
 10 22  1  0  0  0  0
 11 23  1  0  0  0  0
 11 24  1  0  0  0  0
M  END
> <PUBCHEM_COMPOUND_CID>
442645

> <PUBCHEM_CONFORMER_RMSD>
0.4

> <PUBCHEM_CONFORMER_DIVERSEORDER>
1
2
3
4
5

> <PUBCHEM_MMFF94_PARTIAL_CHARGES>
10
1 -0.68
2 -0.68
25 0.4
26 0.4
3 -0.81
4 0.27
5 0.28
6 0.28
8 0.27
9 0.27

> <PUBCHEM_EFFECTIVE_ROTOR_COUNT>
1.4

> <PUBCHEM_PHARMACOPHORE_FEATURES>
7
1 1 acceptor
1 1 donor
1 2 acceptor
1 2 donor
1 3 cation
5 3 4 5 6 8 rings
6 3 4 7 9 10 11 rings

> <PUBCHEM_HEAVY_ATOM_COUNT>
11

> <PUBCHEM_ATOM_DEF_STEREO_COUNT>
3

> <PUBCHEM_ATOM_UDEF_STEREO_COUNT>
0

> <PUBCHEM_BOND_DEF_STEREO_COUNT>
0

> <PUBCHEM_BOND_UDEF_STEREO_COUNT>
0

> <PUBCHEM_ISOTOPIC_ATOM_COUNT>
0

> <PUBCHEM_COMPONENT_COUNT>
1

> <PUBCHEM_CACTVS_TAUTO_COUNT>
1

> <PUBCHEM_CONFORMER_ID>
0006C11500000001

> <PUBCHEM_MMFF94_ENERGY>
15.5121

> <PUBCHEM_FEATURE_SELFOVERLAP>
35.602

> <PUBCHEM_SHAPE_FINGERPRINT>
10857977 72 18335991946823477867
12423570 1 18260548939309247283
12696612 119 18411978074495844788
14325111 11 18410290298535855241
16945 1 18337103570417225471
193761 8 15095079818001956527
19973954 147 18409441501302466805
20201158 50 18337112366663345375
20653091 64 18272934895088804474
21040471 1 18191304875299089572
21501502 16 18410572842975064997
23552423 10 18342174414807057727
241688 4 17616521200313707034
2748010 2 18337107856773487965
369184 2 17775287170613585875
5084963 1 18187078481493148603
66348 1 17615963752387354591

> <PUBCHEM_SHAPE_MULTIPOLES>
209.66
3.8
1.8
0.74
0.38
0.24
-0.03
-0.16
-0.51
-0.13
0.18
-0.16
-0.02
-0.28

> <PUBCHEM_SHAPE_SELFOVERLAP>
428.524

> <PUBCHEM_SHAPE_VOLUME>
123.5

> <PUBCHEM_COORDINATE_TYPE>
2
5
10

$$$$

