11212
  -OEChem-06261205243D

 13 13  0     0  0  0  0  0  0999 V2000
    0.0000   -1.1229    1.6414 F   0  0  0  0  0  0  0  0  0  0  0  0
    0.0000   -2.2876   -0.1983 F   0  0  0  0  0  0  0  0  0  0  0  0
   -1.4841   -0.4580   -1.4651 F   0  0  0  0  0  0  0  0  0  0  0  0
   -2.2977   -0.5139    0.5631 F   0  0  0  0  0  0  0  0  0  0  0  0
    1.4844   -0.4579   -1.4651 F   0  0  0  0  0  0  0  0  0  0  0  0
    2.2977   -0.5138    0.5632 F   0  0  0  0  0  0  0  0  0  0  0  0
   -1.4229    2.2563    0.1752 F   0  0  0  0  0  0  0  0  0  0  0  0
    1.4226    2.2565    0.1752 F   0  0  0  0  0  0  0  0  0  0  0  0
    0.0000   -1.0362    0.2847 C   0  0  0  0  0  0  0  0  0  0  0  0
   -1.2011   -0.2191   -0.1629 C   0  0  0  0  0  0  0  0  0  0  0  0
    1.2012   -0.2189   -0.1629 C   0  0  0  0  0  0  0  0  0  0  0  0
   -0.6679    1.1576    0.0256 C   0  0  0  0  0  0  0  0  0  0  0  0
    0.6678    1.1577    0.0258 C   0  0  0  0  0  0  0  0  0  0  0  0
  1  9  1  0  0  0  0
  2  9  1  0  0  0  0
  3 10  1  0  0  0  0
  4 10  1  0  0  0  0
  5 11  1  0  0  0  0
  6 11  1  0  0  0  0
  7 12  1  0  0  0  0
  8 13  1  0  0  0  0
  9 10  1  0  0  0  0
  9 11  1  0  0  0  0
 10 12  1  0  0  0  0
 11 13  1  0  0  0  0
 12 13  2  0  0  0  0
M  END
> <PUBCHEM_COMPOUND_CID>
11212

> <PUBCHEM_CONFORMER_RMSD>
0.4

> <PUBCHEM_CONFORMER_DIVERSEORDER>
1

> <PUBCHEM_MMFF94_PARTIAL_CHARGES>
13
1 -0.34
10 0.82
11 0.82
12 0.01
13 0.01
2 -0.34
3 -0.34
4 -0.34
5 -0.34
6 -0.34
7 -0.15
8 -0.15
9 0.68

> <PUBCHEM_EFFECTIVE_ROTOR_COUNT>
0.6

> <PUBCHEM_PHARMACOPHORE_FEATURES>
1
5 9 10 11 12 13 rings

> <PUBCHEM_HEAVY_ATOM_COUNT>
13

> <PUBCHEM_ATOM_DEF_STEREO_COUNT>
0

> <PUBCHEM_ATOM_UDEF_STEREO_COUNT>
0

> <PUBCHEM_BOND_DEF_STEREO_COUNT>
0

> <PUBCHEM_BOND_UDEF_STEREO_COUNT>
0

> <PUBCHEM_ISOTOPIC_ATOM_COUNT>
0

> <PUBCHEM_COMPONENT_COUNT>
1

> <PUBCHEM_CACTVS_TAUTO_COUNT>
1

> <PUBCHEM_CONFORMER_ID>
00002BCC00000001

> <PUBCHEM_MMFF94_ENERGY>
15.072

> <PUBCHEM_FEATURE_SELFOVERLAP>
5.074

> <PUBCHEM_SHAPE_FINGERPRINT>
12423570 1 10842126235578178858
13024252 1 17553148472820170686
137420 1 15669788661598262515
16945 1 18409167709779597166
18185500 45 18052547860735754497
21040471 1 17763174039725428381
241688 4 18120363521918411520
2748010 2 18411700967522414957
5084963 1 17894914022551202850

> <PUBCHEM_SHAPE_MULTIPOLES>
209.34
2.12
2.04
1.04
0
0.67
-0.1
0.11
-0.03
0
0.2
0
-0.35
0

> <PUBCHEM_SHAPE_SELFOVERLAP>
459.422

> <PUBCHEM_SHAPE_VOLUME>
113.8

> <PUBCHEM_COORDINATE_TYPE>
2
5
10

$$$$

