441965
  -OEChem-07051212562D

 28 31  0     0  0  0  0  0  0999 V2000
    5.5022    0.3137    0.0000 O   0  0  0  0  0  0  0  0  0  0  0  0
    2.8522   -1.2347    0.0000 O   0  0  0  0  0  0  0  0  0  0  0  0
    2.9042    1.8137    0.0000 O   0  0  0  0  0  0  0  0  0  0  0  0
    2.0000    0.3169    0.0000 O   0  0  0  0  0  0  0  0  0  0  0  0
    4.6362   -0.1863    0.0000 C   0  0  0  0  0  0  0  0  0  0  0  0
    3.7702    0.3137    0.0000 C   0  0  0  0  0  0  0  0  0  0  0  0
    4.6523   -1.2278    0.0000 C   0  0  0  0  0  0  0  0  0  0  0  0
    4.6362    1.8137    0.0000 C   0  0  0  0  0  0  0  0  0  0  0  0
    5.5022    1.3137    0.0000 C   0  0  0  0  0  0  0  0  0  0  0  0
    3.7702    1.3137    0.0000 C   0  0  0  0  0  0  0  0  0  0  0  0
    3.7542   -1.7555    0.0000 C   0  0  0  0  0  0  0  0  0  0  0  0
    2.8602   -0.1931    0.0000 C   0  0  0  0  0  0  0  0  0  0  0  0
    5.6042   -1.7484    0.0000 C   0  0  0  0  0  0  0  0  0  0  0  0
    4.6202    2.8552    0.0000 C   0  0  0  0  0  0  0  0  0  0  0  0
    6.4122    1.8206    0.0000 C   0  0  0  0  0  0  0  0  0  0  0  0
    3.7459   -2.8405    0.0000 C   0  0  0  0  0  0  0  0  0  0  0  0
    5.6209   -2.8333    0.0000 C   0  0  0  0  0  0  0  0  0  0  0  0
    4.6855   -3.3830    0.0000 C   0  0  0  0  0  0  0  0  0  0  0  0
    5.5182    3.3830    0.0000 C   0  0  0  0  0  0  0  0  0  0  0  0
    6.4203    2.8622    0.0000 C   0  0  0  0  0  0  0  0  0  0  0  0
    6.1351   -1.4281    0.0000 H   0  0  0  0  0  0  0  0  0  0  0  0
    4.0797    3.1590    0.0000 H   0  0  0  0  0  0  0  0  0  0  0  0
    6.9456    1.5044    0.0000 H   0  0  0  0  0  0  0  0  0  0  0  0
    3.2077   -3.1484    0.0000 H   0  0  0  0  0  0  0  0  0  0  0  0
    6.1614   -3.1370    0.0000 H   0  0  0  0  0  0  0  0  0  0  0  0
    4.6879   -4.0030    0.0000 H   0  0  0  0  0  0  0  0  0  0  0  0
    5.5158    4.0030    0.0000 H   0  0  0  0  0  0  0  0  0  0  0  0
    6.9584    3.1701    0.0000 H   0  0  0  0  0  0  0  0  0  0  0  0
  1  5  1  0  0  0  0
  1  9  1  0  0  0  0
  2 11  1  0  0  0  0
  2 12  1  0  0  0  0
  3 10  2  0  0  0  0
  4 12  2  0  0  0  0
  5  6  2  0  0  0  0
  5  7  1  0  0  0  0
  6 10  1  0  0  0  0
  6 12  1  0  0  0  0
  7 11  1  0  0  0  0
  7 13  2  0  0  0  0
  8  9  1  0  0  0  0
  8 10  1  0  0  0  0
  8 14  2  0  0  0  0
  9 15  2  0  0  0  0
 11 16  2  0  0  0  0
 13 17  1  0  0  0  0
 13 21  1  0  0  0  0
 14 19  1  0  0  0  0
 14 22  1  0  0  0  0
 15 20  1  0  0  0  0
 15 23  1  0  0  0  0
 16 18  1  0  0  0  0
 16 24  1  0  0  0  0
 17 18  2  0  0  0  0
 17 25  1  0  0  0  0
 18 26  1  0  0  0  0
 19 20  2  0  0  0  0
 19 27  1  0  0  0  0
 20 28  1  0  0  0  0
M  END
> <PUBCHEM_COMPOUND_CID>
441965

> <PUBCHEM_COMPOUND_CANONICALIZED>
1

> <PUBCHEM_CACTVS_COMPLEXITY>
493

> <PUBCHEM_CACTVS_HBOND_ACCEPTOR>
4

> <PUBCHEM_CACTVS_HBOND_DONOR>
0

> <PUBCHEM_CACTVS_ROTATABLE_BOND>
0

> <PUBCHEM_CACTVS_SUBSKEYS>
AAADccB4OAAAAAAAAAAAAAAAAAAAAAAAAAAwYIEAAAAAAACRQAAAGgAAAAAADASAmAAwDoAABACIAqDSCAACCAAkIAAIiAEGCMgMJzaMNRqCO2Cl4BEIqYeI7KzOAAAAAAAIAAAAAAAAABAAAAAAAAAAAA==

> <PUBCHEM_IUPAC_OPENEYE_NAME>
chromeno[4,3-b]chromene-6,7-dione

> <PUBCHEM_IUPAC_CAS_NAME>
[1]benzopyrano[4,3-b][1]benzopyran-6,7-dione

> <PUBCHEM_IUPAC_NAME>
chromeno[4,3-b]chromene-6,7-dione

> <PUBCHEM_IUPAC_SYSTEMATIC_NAME>
chromeno[4,3-b]chromene-6,7-dione

> <PUBCHEM_IUPAC_TRADITIONAL_NAME>
chromeno[4,3-b]chromene-6,7-quinone

> <PUBCHEM_IUPAC_INCHI>
InChI=1S/C16H8O4/c17-14-9-5-1-3-7-11(9)19-15-10-6-2-4-8-12(10)20-16(18)13(14)15/h1-8H

> <PUBCHEM_IUPAC_INCHIKEY>
RFWULRHBGYKEEZ-UHFFFAOYSA-N

> <PUBCHEM_XLOGP3_AA>
2.9

> <PUBCHEM_EXACT_MASS>
264.042259

> <PUBCHEM_MOLECULAR_FORMULA>
C16H8O4

> <PUBCHEM_MOLECULAR_WEIGHT>
264.23232

> <PUBCHEM_OPENEYE_CAN_SMILES>
C1=CC=C2C(=C1)C3=C(C(=O)C4=CC=CC=C4O3)C(=O)O2

> <PUBCHEM_OPENEYE_ISO_SMILES>
C1=CC=C2C(=C1)C3=C(C(=O)C4=CC=CC=C4O3)C(=O)O2

> <PUBCHEM_CACTVS_TPSA>
52.6

> <PUBCHEM_MONOISOTOPIC_WEIGHT>
264.042259

> <PUBCHEM_TOTAL_CHARGE>
0

> <PUBCHEM_HEAVY_ATOM_COUNT>
20

> <PUBCHEM_ATOM_DEF_STEREO_COUNT>
0

> <PUBCHEM_ATOM_UDEF_STEREO_COUNT>
0

> <PUBCHEM_BOND_DEF_STEREO_COUNT>
0

> <PUBCHEM_BOND_UDEF_STEREO_COUNT>
0

> <PUBCHEM_ISOTOPIC_ATOM_COUNT>
0

> <PUBCHEM_COMPONENT_COUNT>
1

> <PUBCHEM_CACTVS_TAUTO_COUNT>
1

> <PUBCHEM_COORDINATE_TYPE>
1
5
255

> <PUBCHEM_BONDANNOTATIONS>
1  5  8
1  9  8
11  16  8
13  17  8
14  19  8
15  20  8
16  18  8
17  18  8
19  20  8
2  11  8
2  12  8
5  6  8
5  7  8
6  10  8
6  12  8
7  11  8
7  13  8
8  10  8
8  14  8
8  9  8
9  15  8

$$$$

