16061276
  -OEChem-07051213083D

 98 98  0     0  0  0  0  0  0999 V2000
  -11.6717    1.8591    0.4650 C   0  0  0  0  0  0  0  0  0  0  0  0
  -13.1356    2.3769    0.4262 C   0  0  0  0  0  0  0  0  0  0  0  0
  -14.1133    1.3815    1.0249 C   0  0  0  0  0  0  0  0  0  0  0  0
  -11.5793    0.3795    0.0233 C   0  0  0  0  0  0  0  0  0  0  0  0
  -14.0705    0.0758    0.2454 C   0  0  0  0  0  0  0  0  0  0  0  0
  -12.6764   -0.4096   -0.0974 C   0  0  0  0  0  0  0  0  0  0  0  0
  -11.1251    2.0040    1.9040 C   0  0  0  0  0  0  0  0  0  0  0  0
  -10.8632    2.7965   -0.4651 C   0  0  0  0  0  0  0  0  0  0  0  0
  -10.2370   -0.1188   -0.2289 C   0  0  0  0  0  0  0  0  0  0  0  0
  -12.6840   -1.8444   -0.5722 C   0  0  0  0  0  0  0  0  0  0  0  0
   -9.8199   -1.3352    0.1524 C   0  0  0  0  0  0  0  0  0  0  0  0
   -8.4786   -1.8562   -0.0680 C   0  0  0  0  0  0  0  0  0  0  0  0
   -8.4510   -3.3014   -0.4901 C   0  0  0  0  0  0  0  0  0  0  0  0
   -7.3345   -1.1539    0.0557 C   0  0  0  0  0  0  0  0  0  0  0  0
   14.7537   -1.3371    2.0744 C   0  0  0  0  0  0  0  0  0  0  0  0
   13.8046   -1.1436    0.8762 C   0  0  0  0  0  0  0  0  0  0  0  0
   14.4474   -0.5462   -0.3809 C   0  0  0  0  0  0  0  0  0  0  0  0
   13.4045   -0.3450   -1.4873 C   0  0  0  0  0  0  0  0  0  0  0  0
   -5.9765   -1.6129   -0.1488 C   0  0  0  0  0  0  0  0  0  0  0  0
   15.3759   -0.0219    2.5434 C   0  0  0  0  0  0  0  0  0  0  0  0
   15.8420   -2.3735    1.7951 C   0  0  0  0  0  0  0  0  0  0  0  0
   12.3048    0.6199   -1.0812 C   0  0  0  0  0  0  0  0  0  0  0  0
   -4.8827   -0.8470   -0.0049 C   0  0  0  0  0  0  0  0  0  0  0  0
   12.7761    2.0046   -0.7219 C   0  0  0  0  0  0  0  0  0  0  0  0
   11.0206    0.2088   -1.0929 C   0  0  0  0  0  0  0  0  0  0  0  0
   -3.5134   -1.2941   -0.2442 C   0  0  0  0  0  0  0  0  0  0  0  0
    9.8462    0.9793   -0.7345 C   0  0  0  0  0  0  0  0  0  0  0  0
   -3.4355   -2.7169   -0.7311 C   0  0  0  0  0  0  0  0  0  0  0  0
   -2.4702   -0.4562   -0.0748 C   0  0  0  0  0  0  0  0  0  0  0  0
    8.6038    0.4680   -0.7824 C   0  0  0  0  0  0  0  0  0  0  0  0
    7.3548    1.1584   -0.4397 C   0  0  0  0  0  0  0  0  0  0  0  0
   -1.0679   -0.7469   -0.2952 C   0  0  0  0  0  0  0  0  0  0  0  0
    7.4631    2.5903    0.0227 C   0  0  0  0  0  0  0  0  0  0  0  0
    6.1957    0.4735   -0.5518 C   0  0  0  0  0  0  0  0  0  0  0  0
   -0.0980    0.1612   -0.0968 C   0  0  0  0  0  0  0  0  0  0  0  0
    4.8535    0.9568   -0.2886 C   0  0  0  0  0  0  0  0  0  0  0  0
    1.3037   -0.1286   -0.3203 C   0  0  0  0  0  0  0  0  0  0  0  0
    2.3464    0.7092   -0.1512 C   0  0  0  0  0  0  0  0  0  0  0  0
    3.7106    0.2589   -0.4061 C   0  0  0  0  0  0  0  0  0  0  0  0
    2.2769    2.1271    0.3482 C   0  0  0  0  0  0  0  0  0  0  0  0
  -13.4351    2.5773   -0.6122 H   0  0  0  0  0  0  0  0  0  0  0  0
  -13.2186    3.3332    0.9582 H   0  0  0  0  0  0  0  0  0  0  0  0
  -15.1295    1.7915    0.9981 H   0  0  0  0  0  0  0  0  0  0  0  0
  -13.8789    1.1984    2.0797 H   0  0  0  0  0  0  0  0  0  0  0  0
  -14.5940   -0.6883    0.8334 H   0  0  0  0  0  0  0  0  0  0  0  0
  -14.6309    0.1968   -0.6907 H   0  0  0  0  0  0  0  0  0  0  0  0
  -11.2442    3.0299    2.2709 H   0  0  0  0  0  0  0  0  0  0  0  0
  -11.6384    1.3365    2.6046 H   0  0  0  0  0  0  0  0  0  0  0  0
  -10.0560    1.7656    1.9526 H   0  0  0  0  0  0  0  0  0  0  0  0
  -11.0714    3.8487   -0.2356 H   0  0  0  0  0  0  0  0  0  0  0  0
   -9.7819    2.6642   -0.3511 H   0  0  0  0  0  0  0  0  0  0  0  0
  -11.1184    2.6306   -1.5181 H   0  0  0  0  0  0  0  0  0  0  0  0
   -9.5623    0.5255   -0.7832 H   0  0  0  0  0  0  0  0  0  0  0  0
  -13.5886   -2.0368   -1.1620 H   0  0  0  0  0  0  0  0  0  0  0  0
  -12.6937   -2.5330    0.2783 H   0  0  0  0  0  0  0  0  0  0  0  0
  -11.8553   -2.0881   -1.2417 H   0  0  0  0  0  0  0  0  0  0  0  0
  -10.4586   -1.9981    0.7299 H   0  0  0  0  0  0  0  0  0  0  0  0
   -8.2406   -3.9460    0.3699 H   0  0  0  0  0  0  0  0  0  0  0  0
   -9.4139   -3.6144   -0.9117 H   0  0  0  0  0  0  0  0  0  0  0  0
   -7.7108   -3.4950   -1.2729 H   0  0  0  0  0  0  0  0  0  0  0  0
   -7.4106   -0.1098    0.3606 H   0  0  0  0  0  0  0  0  0  0  0  0
   14.1434   -1.7234    2.9018 H   0  0  0  0  0  0  0  0  0  0  0  0
   12.9823   -0.5036    1.2178 H   0  0  0  0  0  0  0  0  0  0  0  0
   13.3534   -2.1116    0.6224 H   0  0  0  0  0  0  0  0  0  0  0  0
   15.2215   -1.2241   -0.7581 H   0  0  0  0  0  0  0  0  0  0  0  0
   14.9443    0.4028   -0.1558 H   0  0  0  0  0  0  0  0  0  0  0  0
   13.9039    0.0486   -2.3815 H   0  0  0  0  0  0  0  0  0  0  0  0
   12.9926   -1.3209   -1.7735 H   0  0  0  0  0  0  0  0  0  0  0  0
   14.6045    0.7363    2.7142 H   0  0  0  0  0  0  0  0  0  0  0  0
   15.9128   -0.1687    3.4869 H   0  0  0  0  0  0  0  0  0  0  0  0
   16.0925    0.3739    1.8170 H   0  0  0  0  0  0  0  0  0  0  0  0
   16.5414   -2.0303    1.0260 H   0  0  0  0  0  0  0  0  0  0  0  0
   16.4207   -2.5773    2.7026 H   0  0  0  0  0  0  0  0  0  0  0  0
   15.4029   -3.3190    1.4604 H   0  0  0  0  0  0  0  0  0  0  0  0
   -5.8859   -2.6542   -0.4349 H   0  0  0  0  0  0  0  0  0  0  0  0
   -5.0041    0.1925    0.2954 H   0  0  0  0  0  0  0  0  0  0  0  0
   13.2235    2.0123    0.2767 H   0  0  0  0  0  0  0  0  0  0  0  0
   11.9762    2.7487   -0.7355 H   0  0  0  0  0  0  0  0  0  0  0  0
   13.5275    2.3477   -1.4415 H   0  0  0  0  0  0  0  0  0  0  0  0
   10.8191   -0.8199   -1.3900 H   0  0  0  0  0  0  0  0  0  0  0  0
   10.0012    2.0016   -0.4099 H   0  0  0  0  0  0  0  0  0  0  0  0
   -3.8145   -3.4160    0.0233 H   0  0  0  0  0  0  0  0  0  0  0  0
   -2.4125   -3.0373   -0.9440 H   0  0  0  0  0  0  0  0  0  0  0  0
   -3.9878   -2.8505   -1.6686 H   0  0  0  0  0  0  0  0  0  0  0  0
    8.4900   -0.5658   -1.1096 H   0  0  0  0  0  0  0  0  0  0  0  0
   -2.6768    0.5584    0.2669 H   0  0  0  0  0  0  0  0  0  0  0  0
   -0.7969   -1.7414   -0.6335 H   0  0  0  0  0  0  0  0  0  0  0  0
    6.5085    3.0511    0.2820 H   0  0  0  0  0  0  0  0  0  0  0  0
    8.0903    2.6563    0.9192 H   0  0  0  0  0  0  0  0  0  0  0  0
    7.9071    3.2126   -0.7624 H   0  0  0  0  0  0  0  0  0  0  0  0
    6.2296   -0.5630   -0.8886 H   0  0  0  0  0  0  0  0  0  0  0  0
   -0.3681    1.1562    0.2413 H   0  0  0  0  0  0  0  0  0  0  0  0
    4.7915    1.9902    0.0311 H   0  0  0  0  0  0  0  0  0  0  0  0
    1.5076   -1.1411   -0.6699 H   0  0  0  0  0  0  0  0  0  0  0  0
    3.7961   -0.7777   -0.7343 H   0  0  0  0  0  0  0  0  0  0  0  0
    2.6639    2.8274   -0.4009 H   0  0  0  0  0  0  0  0  0  0  0  0
    2.8401    2.2470    1.2809 H   0  0  0  0  0  0  0  0  0  0  0  0
    1.2572    2.4528    0.5683 H   0  0  0  0  0  0  0  0  0  0  0  0
  1  2  1  0  0  0  0
  1  4  1  0  0  0  0
  1  7  1  0  0  0  0
  1  8  1  0  0  0  0
  2  3  1  0  0  0  0
  2 41  1  0  0  0  0
  2 42  1  0  0  0  0
  3  5  1  0  0  0  0
  3 43  1  0  0  0  0
  3 44  1  0  0  0  0
  4  6  2  0  0  0  0
  4  9  1  0  0  0  0
  5  6  1  0  0  0  0
  5 45  1  0  0  0  0
  5 46  1  0  0  0  0
  6 10  1  0  0  0  0
  7 47  1  0  0  0  0
  7 48  1  0  0  0  0
  7 49  1  0  0  0  0
  8 50  1  0  0  0  0
  8 51  1  0  0  0  0
  8 52  1  0  0  0  0
  9 11  2  0  0  0  0
  9 53  1  0  0  0  0
 10 54  1  0  0  0  0
 10 55  1  0  0  0  0
 10 56  1  0  0  0  0
 11 12  1  0  0  0  0
 11 57  1  0  0  0  0
 12 13  1  0  0  0  0
 12 14  2  0  0  0  0
 13 58  1  0  0  0  0
 13 59  1  0  0  0  0
 13 60  1  0  0  0  0
 14 19  1  0  0  0  0
 14 61  1  0  0  0  0
 15 16  1  0  0  0  0
 15 20  1  0  0  0  0
 15 21  1  0  0  0  0
 15 62  1  0  0  0  0
 16 17  1  0  0  0  0
 16 63  1  0  0  0  0
 16 64  1  0  0  0  0
 17 18  1  0  0  0  0
 17 65  1  0  0  0  0
 17 66  1  0  0  0  0
 18 22  1  0  0  0  0
 18 67  1  0  0  0  0
 18 68  1  0  0  0  0
 19 23  2  0  0  0  0
 19 75  1  0  0  0  0
 20 69  1  0  0  0  0
 20 70  1  0  0  0  0
 20 71  1  0  0  0  0
 21 72  1  0  0  0  0
 21 73  1  0  0  0  0
 21 74  1  0  0  0  0
 22 24  1  0  0  0  0
 22 25  2  0  0  0  0
 23 26  1  0  0  0  0
 23 76  1  0  0  0  0
 24 77  1  0  0  0  0
 24 78  1  0  0  0  0
 24 79  1  0  0  0  0
 25 27  1  0  0  0  0
 25 80  1  0  0  0  0
 26 28  1  0  0  0  0
 26 29  2  0  0  0  0
 27 30  2  0  0  0  0
 27 81  1  0  0  0  0
 28 82  1  0  0  0  0
 28 83  1  0  0  0  0
 28 84  1  0  0  0  0
 29 32  1  0  0  0  0
 29 86  1  0  0  0  0
 30 31  1  0  0  0  0
 30 85  1  0  0  0  0
 31 33  1  0  0  0  0
 31 34  2  0  0  0  0
 32 35  2  0  0  0  0
 32 87  1  0  0  0  0
 33 88  1  0  0  0  0
 33 89  1  0  0  0  0
 33 90  1  0  0  0  0
 34 36  1  0  0  0  0
 34 91  1  0  0  0  0
 35 37  1  0  0  0  0
 35 92  1  0  0  0  0
 36 39  2  0  0  0  0
 36 93  1  0  0  0  0
 37 38  2  0  0  0  0
 37 94  1  0  0  0  0
 38 39  1  0  0  0  0
 38 40  1  0  0  0  0
 39 95  1  0  0  0  0
 40 96  1  0  0  0  0
 40 97  1  0  0  0  0
 40 98  1  0  0  0  0
M  END
> <PUBCHEM_COMPOUND_CID>
16061276

> <PUBCHEM_CONFORMER_RMSD>
1.4

> <PUBCHEM_CONFORMER_DIVERSEORDER>
12
9
28
73
30
89
99
41
62
93
38
44
10
70
17
15
58
77
88
27
74
45
40
5
1
47
54
36
101
80
26
52
53
33
29
24
71
59
67
84
91
43
95
63
35
50
68
90
14
78
49
16
19
32
69
39
72
75
22
18
13
83
64
81
79
66
61
76
56
20
55
3
21
97
87
60
48
57
92
82
31
100
65
42
6
11
8
85
37
25
86
46
94
23
96
7
4
51
2
34
98

> <PUBCHEM_MMFF94_PARTIAL_CHARGES>
46
1 0.14
10 0.14
11 -0.15
12 -0.14
13 0.14
14 -0.15
18 0.14
19 -0.15
22 -0.28
23 -0.15
24 0.14
25 -0.15
26 -0.14
27 -0.15
28 0.14
29 -0.15
30 -0.15
31 -0.14
32 -0.15
33 0.14
34 -0.15
35 -0.15
36 -0.15
37 -0.15
38 -0.14
39 -0.15
4 -0.14
40 0.14
5 0.14
53 0.15
57 0.15
6 -0.28
61 0.15
75 0.15
76 0.15
80 0.15
81 0.15
85 0.15
86 0.15
87 0.15
9 -0.15
91 0.15
92 0.15
93 0.15
94 0.15
95 0.15

> <PUBCHEM_EFFECTIVE_ROTOR_COUNT>
14.8

> <PUBCHEM_PHARMACOPHORE_FEATURES>
9
1 13 hydrophobe
1 24 hydrophobe
1 28 hydrophobe
1 33 hydrophobe
1 40 hydrophobe
3 1 7 8 hydrophobe
3 15 20 21 hydrophobe
5 15 16 17 18 22 hydrophobe
6 1 2 3 4 5 6 rings

> <PUBCHEM_HEAVY_ATOM_COUNT>
40

> <PUBCHEM_ATOM_DEF_STEREO_COUNT>
0

> <PUBCHEM_ATOM_UDEF_STEREO_COUNT>
0

> <PUBCHEM_BOND_DEF_STEREO_COUNT>
10

> <PUBCHEM_BOND_UDEF_STEREO_COUNT>
0

> <PUBCHEM_ISOTOPIC_ATOM_COUNT>
0

> <PUBCHEM_COMPONENT_COUNT>
1

> <PUBCHEM_CACTVS_TAUTO_COUNT>
1

> <PUBCHEM_CONFORMER_ID>
00F5135C0000000C

> <PUBCHEM_MMFF94_ENERGY>
89.1943

> <PUBCHEM_FEATURE_SELFOVERLAP>
45.679

> <PUBCHEM_SHAPE_FINGERPRINT>
12013929 2 18113894948862121182
12559415 90 18261110751201940685
14251920 1 18410572877493078766
15061470 23 18334854991929628916
15219723 13 17846784035945648242
15343295 29 18410576193740477383
16728433 110 17967532330189144912
3991529 128 12823296793205038934
54131252 152 17022902325675681639
9663363 56 16442780224133916582

> <PUBCHEM_SHAPE_MULTIPOLES>
823.18
100.16
2.77
1.34
129.99
0.15
-0.79
-1.85
-28.16
-5.83
-0.19
5.83
0.11
-6.65

> <PUBCHEM_SHAPE_SELFOVERLAP>
1632.288

> <PUBCHEM_SHAPE_VOLUME>
487.9

> <PUBCHEM_COORDINATE_TYPE>
2
5
10

$$$$

