17395945
  -OEChem-06241222533D

 35 36  0     0  0  0  0  0  0999 V2000
   -5.0219   -1.2019   -0.1851 O   0  0  0  0  0  0  0  0  0  0  0  0
    0.2849   -1.5116   -0.6820 O   0  0  0  0  0  0  0  0  0  0  0  0
    1.6028    0.4367   -0.6473 N   0  0  0  0  0  0  0  0  0  0  0  0
    2.8753   -1.3588    0.1807 N   0  0  0  0  0  0  0  0  0  0  0  0
   -0.6492    0.5736   -1.4525 C   0  0  0  0  0  0  0  0  0  0  0  0
   -1.8679    0.6062   -0.5939 C   0  0  0  0  0  0  0  0  0  0  0  0
    0.4533   -0.3133   -0.8827 C   0  0  0  0  0  0  0  0  0  0  0  0
   -2.8876   -0.3243   -0.7942 C   0  0  0  0  0  0  0  0  0  0  0  0
    2.8070   -0.0440   -0.1271 C   0  0  0  0  0  0  0  0  0  0  0  0
   -1.9879    1.5672    0.4099 C   0  0  0  0  0  0  0  0  0  0  0  0
    3.8540    0.8476    0.0422 C   0  0  0  0  0  0  0  0  0  0  0  0
   -4.0272   -0.2937    0.0095 C   0  0  0  0  0  0  0  0  0  0  0  0
   -3.1276    1.5979    1.2135 C   0  0  0  0  0  0  0  0  0  0  0  0
   -4.1472    0.6674    1.0133 C   0  0  0  0  0  0  0  0  0  0  0  0
    5.0479    0.3586    0.5608 C   0  0  0  0  0  0  0  0  0  0  0  0
    3.7415    2.2921   -0.3093 C   0  0  0  0  0  0  0  0  0  0  0  0
    5.1569   -0.9882    0.8894 C   0  0  0  0  0  0  0  0  0  0  0  0
    4.0516   -1.7977    0.6822 C   0  0  0  0  0  0  0  0  0  0  0  0
   -6.1587   -1.1139    0.6727 C   0  0  0  0  0  0  0  0  0  0  0  0
   -0.2994    1.5972   -1.6328 H   0  0  0  0  0  0  0  0  0  0  0  0
   -0.8951    0.1800   -2.4477 H   0  0  0  0  0  0  0  0  0  0  0  0
   -2.8001   -1.0774   -1.5736 H   0  0  0  0  0  0  0  0  0  0  0  0
   -1.1992    2.2961    0.5769 H   0  0  0  0  0  0  0  0  0  0  0  0
    1.5661    1.4264   -0.8705 H   0  0  0  0  0  0  0  0  0  0  0  0
   -3.2197    2.3464    1.9953 H   0  0  0  0  0  0  0  0  0  0  0  0
   -5.0042    0.7480    1.6732 H   0  0  0  0  0  0  0  0  0  0  0  0
    5.9020    1.0124    0.7147 H   0  0  0  0  0  0  0  0  0  0  0  0
    3.5285    2.4160   -1.3763 H   0  0  0  0  0  0  0  0  0  0  0  0
    2.9557    2.7747    0.2815 H   0  0  0  0  0  0  0  0  0  0  0  0
    4.6732    2.8310   -0.1040 H   0  0  0  0  0  0  0  0  0  0  0  0
    6.0776   -1.3915    1.2950 H   0  0  0  0  0  0  0  0  0  0  0  0
    4.0848   -2.8553    0.9223 H   0  0  0  0  0  0  0  0  0  0  0  0
   -6.8488   -1.9111    0.3774 H   0  0  0  0  0  0  0  0  0  0  0  0
   -6.6905   -0.1656    0.5401 H   0  0  0  0  0  0  0  0  0  0  0  0
   -5.8888   -1.2960    1.7184 H   0  0  0  0  0  0  0  0  0  0  0  0
  1 12  1  0  0  0  0
  1 19  1  0  0  0  0
  2  7  2  0  0  0  0
  3  7  1  0  0  0  0
  3  9  1  0  0  0  0
  3 24  1  0  0  0  0
  4  9  1  0  0  0  0
  4 18  2  0  0  0  0
  5  6  1  0  0  0  0
  5  7  1  0  0  0  0
  5 20  1  0  0  0  0
  5 21  1  0  0  0  0
  6  8  2  0  0  0  0
  6 10  1  0  0  0  0
  8 12  1  0  0  0  0
  8 22  1  0  0  0  0
  9 11  2  0  0  0  0
 10 13  2  0  0  0  0
 10 23  1  0  0  0  0
 11 15  1  0  0  0  0
 11 16  1  0  0  0  0
 12 14  2  0  0  0  0
 13 14  1  0  0  0  0
 13 25  1  0  0  0  0
 14 26  1  0  0  0  0
 15 17  2  0  0  0  0
 15 27  1  0  0  0  0
 16 28  1  0  0  0  0
 16 29  1  0  0  0  0
 16 30  1  0  0  0  0
 17 18  1  0  0  0  0
 17 31  1  0  0  0  0
 18 32  1  0  0  0  0
 19 33  1  0  0  0  0
 19 34  1  0  0  0  0
 19 35  1  0  0  0  0
M  END
> <PUBCHEM_COMPOUND_CID>
17395945

> <PUBCHEM_CONFORMER_RMSD>
0.6

> <PUBCHEM_CONFORMER_DIVERSEORDER>
4
117
102
73
54
86
35
59
36
107
30
62
103
92
7
115
85
27
24
76
110
104
18
38
111
116
19
72
53
108
31
99
26
97
20
71
1
109
63
77
66
41
93
2
14
96
84
10
114
11
88
105
118
120
3
49
79
67
95
55
94
13
39
100
9
12
48
89
87
42
74
33
83
113
119
34
61
65
106
75
37
16
43
112
68
21
58
8
69
50
15
60
40
57
64
44
101
46
91
81
29
17
51
82
25
90
47
6
98
45
80
70
78
32
22
52
28
5
56
23

> <PUBCHEM_MMFF94_PARTIAL_CHARGES>
27
1 -0.36
10 -0.15
11 -0.14
12 0.08
13 -0.15
14 -0.15
15 -0.15
16 0.14
17 -0.15
18 0.16
19 0.28
2 -0.57
22 0.15
23 0.15
24 0.37
25 0.15
26 0.15
27 0.15
3 -0.55
31 0.15
32 0.15
4 -0.62
5 0.2
6 -0.14
7 0.57
8 -0.15
9 0.43

> <PUBCHEM_EFFECTIVE_ROTOR_COUNT>
5

> <PUBCHEM_PHARMACOPHORE_FEATURES>
6
1 1 acceptor
1 2 acceptor
1 3 donor
1 4 acceptor
6 4 9 11 15 17 18 rings
6 6 8 10 12 13 14 rings

> <PUBCHEM_HEAVY_ATOM_COUNT>
19

> <PUBCHEM_ATOM_DEF_STEREO_COUNT>
0

> <PUBCHEM_ATOM_UDEF_STEREO_COUNT>
0

> <PUBCHEM_BOND_DEF_STEREO_COUNT>
0

> <PUBCHEM_BOND_UDEF_STEREO_COUNT>
0

> <PUBCHEM_ISOTOPIC_ATOM_COUNT>
0

> <PUBCHEM_COMPONENT_COUNT>
1

> <PUBCHEM_CACTVS_TAUTO_COUNT>
3

> <PUBCHEM_CONFORMER_ID>
010970E900000004

> <PUBCHEM_MMFF94_ENERGY>
59.3639

> <PUBCHEM_FEATURE_SELFOVERLAP>
30.451

> <PUBCHEM_SHAPE_FINGERPRINT>
10354089 29 18335139783111325552
10366900 7 17560793360262391448
11796584 16 13183018518716252920
12107183 9 17760646271119757112
12363563 72 16271918346086348060
12403259 118 18186523245322583729
12596602 18 18409169921940917338
128238 76 18042407932966931151
12892183 10 18260835950857160834
12916748 109 17676483943471763776
13167823 11 18410576210013283770
13533116 47 18343582927978341866
13675066 3 17458632267300389174
14251764 30 18124027091064292798
14341114 176 18335420175344833910
14341114 328 18113611275109990521
14366163 111 7132436817611872998
14787075 74 18260829246497666291
14848160 23 17632579331857370291
14849402 71 18263932047507262744
15183329 4 11095890363011320571
15188451 53 18201726145623954707
15880784 105 18202281407321931881
17492 89 18263643038176394594
17834072 8 12391515269852501395
17870717 6 14045738261804201129
17959699 21 7420946478265036130
18222031 100 16559030489116872382
18335252 114 8718560363788447267
19050596 39 18334857237938814784
19489759 90 15554456205915834567
19784866 34 5617531882831551788
200 152 17775568641532693077
20432913 95 17917711331196330242
20645477 56 15574721300131979540
21065198 48 18409726278908879880
21065199 12 18041838544614491423
21267235 1 18411136961829679294
22224240 67 15791728586687671727
22854114 59 18413109476366595972
23402539 116 18131636703338179253
23402655 69 8718822107204676018
23557571 272 14057299544712939460
23559900 14 13758065260500990588
25122255 55 17274809234842742235
26918003 58 18343021086622289951
29717793 49 12175629503360422906
314173 85 16272206409637907893
32948 21 10952052238606196487
38570 142 18195790896596717036
5104073 3 18335422412643026729
5283173 99 17274277148545474133
542803 24 6916260736815369761
960060 61 10447927274183774608

> <PUBCHEM_SHAPE_MULTIPOLES>
369.31
13.36
1.83
1.12
3.02
0.27
0.03
-3.35
-4.6
-0.94
-0.25
0.43
0.11
-0.92

> <PUBCHEM_SHAPE_SELFOVERLAP>
782.894

> <PUBCHEM_SHAPE_VOLUME>
205.5

> <PUBCHEM_COORDINATE_TYPE>
2
5
10

$$$$

