31101
  -OEChem-07051212523D

 83 89  0     1  0  0  0  0  0999 V2000
    8.9533   -1.5581    1.4974 Br  0  0  0  0  0  0  0  0  0  0  0  0
   -2.5505    0.8301   -1.1005 O   0  0  0  0  0  0  0  0  0  0  0  0
   -2.7795    1.2844    1.1951 O   0  0  0  0  0  0  0  0  0  0  0  0
   -3.5286   -2.5123   -0.5993 O   0  0  0  0  0  0  0  0  0  0  0  0
   -7.0470    0.6212    1.9930 O   0  0  0  0  0  0  0  0  0  0  0  0
    0.4141    0.4242   -1.9211 O   0  0  0  0  0  0  0  0  0  0  0  0
   -4.0469   -0.3502    0.1454 N   0  0  0  0  0  0  0  0  0  0  0  0
   -5.6652    1.8333    0.6110 N   0  0  0  0  0  0  0  0  0  0  0  0
   -1.0010   -0.8656   -0.5971 N   0  0  0  0  0  0  0  0  0  0  0  0
    3.2280   -2.3897   -0.0001 N   0  0  1  0  0  0  0  0  0  0  0  0
    8.0429    1.1052    0.7737 N   0  0  0  0  0  0  0  0  0  0  0  0
   -4.5869    1.9129   -0.3634 C   0  0  2  0  0  0  0  0  0  0  0  0
   -3.4644    0.9554   -0.0056 C   0  0  2  0  0  0  0  0  0  0  0  0
   -5.2230   -0.5831    0.9779 C   0  0  2  0  0  0  0  0  0  0  0  0
   -4.2708    3.4063   -0.4377 C   0  0  0  0  0  0  0  0  0  0  0  0
   -2.2332   -0.5582   -1.2691 C   0  0  1  0  0  0  0  0  0  0  0  0
   -6.2870    3.1320    0.8190 C   0  0  0  0  0  0  0  0  0  0  0  0
   -5.6499    4.0332   -0.2324 C   0  0  0  0  0  0  0  0  0  0  0  0
   -3.3462   -1.3051   -0.5690 C   0  0  0  0  0  0  0  0  0  0  0  0
   -6.0678    0.6749    1.2448 C   0  0  0  0  0  0  0  0  0  0  0  0
   -4.8198   -1.2198    2.3076 C   0  0  0  0  0  0  0  0  0  0  0  0
   -2.1626   -0.8852   -2.7490 C   0  0  0  0  0  0  0  0  0  0  0  0
   -4.0364   -2.5308    2.1425 C   0  0  0  0  0  0  0  0  0  0  0  0
   -3.4571   -0.4835   -3.4593 C   0  0  0  0  0  0  0  0  0  0  0  0
   -1.8791   -2.3731   -2.9663 C   0  0  0  0  0  0  0  0  0  0  0  0
    0.2223   -0.3452   -0.9830 C   0  0  0  0  0  0  0  0  0  0  0  0
    1.3400   -0.8070   -0.0980 C   0  0  1  0  0  0  0  0  0  0  0  0
    4.2358   -1.3199   -0.2466 C   0  0  1  0  0  0  0  0  0  0  0  0
    1.9591   -2.0820   -0.6758 C   0  0  0  0  0  0  0  0  0  0  0  0
   -4.8129   -3.5800    1.3458 C   0  0  0  0  0  0  0  0  0  0  0  0
   -2.6978   -2.2469    1.4570 C   0  0  0  0  0  0  0  0  0  0  0  0
    3.6461    0.1163   -0.1110 C   0  0  0  0  0  0  0  0  0  0  0  0
    2.3211    0.3211   -0.0088 C   0  0  0  0  0  0  0  0  0  0  0  0
    5.4877   -1.5612    0.6764 C   0  0  0  0  0  0  0  0  0  0  0  0
    4.5988    1.2486   -0.0744 C   0  0  0  0  0  0  0  0  0  0  0  0
    6.3978   -0.3853    0.6586 C   0  0  0  0  0  0  0  0  0  0  0  0
    5.8964    0.8837    0.3024 C   0  0  0  0  0  0  0  0  0  0  0  0
    3.7009   -3.7085   -0.4335 C   0  0  0  0  0  0  0  0  0  0  0  0
    6.9248    1.8083    0.3805 C   0  0  0  0  0  0  0  0  0  0  0  0
    7.7328   -0.2266    0.9471 C   0  0  0  0  0  0  0  0  0  0  0  0
    4.3747    2.5983   -0.3724 C   0  0  0  0  0  0  0  0  0  0  0  0
    6.7181    3.1572    0.0880 C   0  0  0  0  0  0  0  0  0  0  0  0
    5.4190    3.5306   -0.2901 C   0  0  0  0  0  0  0  0  0  0  0  0
   -5.0274    1.6111   -1.3253 H   0  0  0  0  0  0  0  0  0  0  0  0
   -5.8808   -1.2517    0.4133 H   0  0  0  0  0  0  0  0  0  0  0  0
   -3.6013    3.7111    0.3752 H   0  0  0  0  0  0  0  0  0  0  0  0
   -3.8137    3.6927   -1.3890 H   0  0  0  0  0  0  0  0  0  0  0  0
   -7.3742    3.0595    0.7225 H   0  0  0  0  0  0  0  0  0  0  0  0
   -6.0424    3.4600    1.8350 H   0  0  0  0  0  0  0  0  0  0  0  0
   -5.6012    5.0788    0.0834 H   0  0  0  0  0  0  0  0  0  0  0  0
   -6.2220    3.9826   -1.1666 H   0  0  0  0  0  0  0  0  0  0  0  0
   -5.7244   -1.4359    2.8917 H   0  0  0  0  0  0  0  0  0  0  0  0
   -4.2407   -0.5177    2.9198 H   0  0  0  0  0  0  0  0  0  0  0  0
   -1.3698   -0.3110   -3.2392 H   0  0  0  0  0  0  0  0  0  0  0  0
   -0.9637   -1.6299    0.0639 H   0  0  0  0  0  0  0  0  0  0  0  0
   -2.8508    0.5439    1.8109 H   0  0  0  0  0  0  0  0  0  0  0  0
   -3.8511   -2.9414    3.1444 H   0  0  0  0  0  0  0  0  0  0  0  0
   -4.3303   -1.0118   -3.0627 H   0  0  0  0  0  0  0  0  0  0  0  0
   -3.3916   -0.7202   -4.5274 H   0  0  0  0  0  0  0  0  0  0  0  0
   -3.6428    0.5924   -3.3800 H   0  0  0  0  0  0  0  0  0  0  0  0
   -2.7503   -3.0067   -2.7791 H   0  0  0  0  0  0  0  0  0  0  0  0
   -1.6095   -2.5381   -4.0167 H   0  0  0  0  0  0  0  0  0  0  0  0
   -1.0397   -2.7395   -2.3681 H   0  0  0  0  0  0  0  0  0  0  0  0
    0.9604   -0.9966    0.9148 H   0  0  0  0  0  0  0  0  0  0  0  0
    4.5765   -1.3926   -1.2919 H   0  0  0  0  0  0  0  0  0  0  0  0
    1.2437   -2.9018   -0.5261 H   0  0  0  0  0  0  0  0  0  0  0  0
    2.1067   -1.9950   -1.7620 H   0  0  0  0  0  0  0  0  0  0  0  0
   -5.3403   -3.2349    0.4567 H   0  0  0  0  0  0  0  0  0  0  0  0
   -5.5999   -3.9880    1.9936 H   0  0  0  0  0  0  0  0  0  0  0  0
   -4.1745   -4.4284    1.0744 H   0  0  0  0  0  0  0  0  0  0  0  0
   -2.0256   -2.5050    2.3076 H   0  0  0  0  0  0  0  0  0  0  0  0
   -2.2457   -3.0347    0.8390 H   0  0  0  0  0  0  0  0  0  0  0  0
   -2.3255   -1.2287    1.4550 H   0  0  0  0  0  0  0  0  0  0  0  0
    1.9221    1.3191    0.1554 H   0  0  0  0  0  0  0  0  0  0  0  0
    6.0382   -2.4468    0.3409 H   0  0  0  0  0  0  0  0  0  0  0  0
    5.1628   -1.7377    1.7100 H   0  0  0  0  0  0  0  0  0  0  0  0
    3.9746   -3.7204   -1.4945 H   0  0  0  0  0  0  0  0  0  0  0  0
    4.5612   -4.0402    0.1548 H   0  0  0  0  0  0  0  0  0  0  0  0
    2.9256   -4.4671   -0.2733 H   0  0  0  0  0  0  0  0  0  0  0  0
    3.3924    2.9447   -0.6827 H   0  0  0  0  0  0  0  0  0  0  0  0
    8.9585    1.5068    0.9202 H   0  0  0  0  0  0  0  0  0  0  0  0
    7.5192    3.8853    0.1473 H   0  0  0  0  0  0  0  0  0  0  0  0
    5.2182    4.5727   -0.5291 H   0  0  0  0  0  0  0  0  0  0  0  0
  1 40  1  0  0  0  0
  2 13  1  0  0  0  0
  2 16  1  0  0  0  0
  3 13  1  0  0  0  0
  3 56  1  0  0  0  0
  4 19  2  0  0  0  0
  5 20  2  0  0  0  0
  6 26  2  0  0  0  0
  7 13  1  0  0  0  0
  7 14  1  0  0  0  0
  7 19  1  0  0  0  0
  8 12  1  0  0  0  0
  8 17  1  0  0  0  0
  8 20  1  0  0  0  0
  9 16  1  0  0  0  0
  9 26  1  0  0  0  0
  9 55  1  0  0  0  0
 10 28  1  0  0  0  0
 10 29  1  0  0  0  0
 10 38  1  0  0  0  0
 11 39  1  0  0  0  0
 11 40  1  0  0  0  0
 11 81  1  0  0  0  0
 12 13  1  0  0  0  0
 12 15  1  0  0  0  0
 12 44  1  0  0  0  0
 14 20  1  0  0  0  0
 14 21  1  0  0  0  0
 14 45  1  0  0  0  0
 15 18  1  0  0  0  0
 15 46  1  0  0  0  0
 15 47  1  0  0  0  0
 16 19  1  0  0  0  0
 16 22  1  0  0  0  0
 17 18  1  0  0  0  0
 17 48  1  0  0  0  0
 17 49  1  0  0  0  0
 18 50  1  0  0  0  0
 18 51  1  0  0  0  0
 21 23  1  0  0  0  0
 21 52  1  0  0  0  0
 21 53  1  0  0  0  0
 22 24  1  0  0  0  0
 22 25  1  0  0  0  0
 22 54  1  0  0  0  0
 23 30  1  0  0  0  0
 23 31  1  0  0  0  0
 23 57  1  0  0  0  0
 24 58  1  0  0  0  0
 24 59  1  0  0  0  0
 24 60  1  0  0  0  0
 25 61  1  0  0  0  0
 25 62  1  0  0  0  0
 25 63  1  0  0  0  0
 26 27  1  0  0  0  0
 27 29  1  0  0  0  0
 27 33  1  0  0  0  0
 27 64  1  0  0  0  0
 28 32  1  0  0  0  0
 28 34  1  0  0  0  0
 28 65  1  0  0  0  0
 29 66  1  0  0  0  0
 29 67  1  0  0  0  0
 30 68  1  0  0  0  0
 30 69  1  0  0  0  0
 30 70  1  0  0  0  0
 31 71  1  0  0  0  0
 31 72  1  0  0  0  0
 31 73  1  0  0  0  0
 32 33  2  0  0  0  0
 32 35  1  0  0  0  0
 33 74  1  0  0  0  0
 34 36  1  0  0  0  0
 34 75  1  0  0  0  0
 34 76  1  0  0  0  0
 35 37  2  0  0  0  0
 35 41  1  0  0  0  0
 36 37  1  0  0  0  0
 36 40  2  0  0  0  0
 37 39  1  0  0  0  0
 38 77  1  0  0  0  0
 38 78  1  0  0  0  0
 38 79  1  0  0  0  0
 39 42  2  0  0  0  0
 41 43  2  0  0  0  0
 41 80  1  0  0  0  0
 42 43  1  0  0  0  0
 42 82  1  0  0  0  0
 43 83  1  0  0  0  0
M  END
> <PUBCHEM_COMPOUND_CID>
31101

> <PUBCHEM_CONFORMER_RMSD>
1

> <PUBCHEM_CONFORMER_DIVERSEORDER>
2
10
8
5
3
4
6
7
9
1

> <PUBCHEM_MMFF94_PARTIAL_CHARGES>
40
1 -0.06
10 -0.81
11 0.03
12 0.3
13 0.86
14 0.36
16 0.64
17 0.3
19 0.57
2 -0.56
20 0.57
26 0.57
27 0.2
28 0.41
29 0.27
3 -0.68
32 -0.17
33 -0.29
34 0.18
35 0.03
36 -0.18
38 0.27
39 -0.15
4 -0.57
40 -0.09
41 -0.15
42 -0.15
43 -0.15
5 -0.57
55 0.37
56 0.4
6 -0.57
7 -0.66
74 0.15
8 -0.66
80 0.15
81 0.27
82 0.15
83 0.15
9 -0.73

> <PUBCHEM_EFFECTIVE_ROTOR_COUNT>
8

> <PUBCHEM_PHARMACOPHORE_FEATURES>
20
1 1 hydrophobe
1 10 cation
1 11 cation
1 11 donor
1 2 acceptor
1 3 acceptor
1 3 donor
1 4 acceptor
1 5 acceptor
1 6 acceptor
1 9 donor
3 22 24 25 hydrophobe
3 23 30 31 hydrophobe
5 11 36 37 39 40 rings
5 2 7 13 16 19 rings
5 8 12 15 17 18 rings
6 10 27 28 29 32 33 rings
6 28 32 34 35 36 37 rings
6 35 37 39 41 42 43 rings
6 7 8 12 13 14 20 rings

> <PUBCHEM_HEAVY_ATOM_COUNT>
43

> <PUBCHEM_ATOM_DEF_STEREO_COUNT>
6

> <PUBCHEM_ATOM_UDEF_STEREO_COUNT>
0

> <PUBCHEM_BOND_DEF_STEREO_COUNT>
0

> <PUBCHEM_BOND_UDEF_STEREO_COUNT>
0

> <PUBCHEM_ISOTOPIC_ATOM_COUNT>
0

> <PUBCHEM_COMPONENT_COUNT>
1

> <PUBCHEM_CACTVS_TAUTO_COUNT>
2

> <PUBCHEM_CONFORMER_ID>
0000797D00000002

> <PUBCHEM_MMFF94_ENERGY>
177.0705

> <PUBCHEM_FEATURE_SELFOVERLAP>
101.956

> <PUBCHEM_SHAPE_FINGERPRINT>
10 15 18412541007306502208
10554248 39 16081642391949636884
10930396 42 18271803511358031817
11062273 23 15554179159440823007
11093857 5 18058146402605745410
11135926 11 18339655524574877534
11456790 92 18342185501294068656
12128747 34 18340761667304597411
13560911 23 18271257061861885632
13782708 43 15625957421732892080
13811026 1 18413387661509497889
13911987 19 17240482546490683825
14856354 85 18270392798504466231
15183329 4 8142093048178259340
15513586 35 17753327565596974409
1577012 14 18260553278233895460
19302320 297 18411696595831620888
21033650 10 5472865831283876303
21756936 100 18410299137884330167
22122407 14 18333736792693478212
24771293 8 18116451271745142896
3178227 256 18342741815607595066
3552219 110 16880195486955833343
397830 11 18341604928019108419
4073 2 18272366477853356386
4144715 1 18342163492684125248
4258327 124 17676209052901392981
4756326 101 17773607212423303013
504843 32 17458070361177431487
5080951 261 17417821608260738267
5104073 3 18202286905265270578
5364581 5 18341888541916081697
6009941 240 18342176708419944296
6086070 43 16733564757217736224

> <PUBCHEM_SHAPE_MULTIPOLES>
836.61
23.45
4.38
2.15
30.37
1.74
-1.36
9.4
12.34
-2.06
0.41
-3.8
-1.47
-0.1

> <PUBCHEM_SHAPE_SELFOVERLAP>
1839.145

> <PUBCHEM_SHAPE_VOLUME>
462

> <PUBCHEM_COORDINATE_TYPE>
2
5
10

$$$$

