5280703
  -OEChem-07051212493D

 51 51  0     1  0  0  0  0  0999 V2000
    1.5430   -3.1287   -1.5876 O   0  0  0  0  0  0  0  0  0  0  0  0
   -3.2389    3.0510   -2.1245 O   0  0  0  0  0  0  0  0  0  0  0  0
   -2.1672    1.0780   -1.7837 O   0  0  0  0  0  0  0  0  0  0  0  0
    0.7230   -3.4325   -0.3611 C   0  0  2  0  0  0  0  0  0  0  0  0
   -0.7139   -3.1300   -0.5327 C   0  0  0  0  0  0  0  0  0  0  0  0
    1.6931   -2.4360   -0.4687 C   0  0  0  0  0  0  0  0  0  0  0  0
   -1.3300   -2.4812    0.7156 C   0  0  0  0  0  0  0  0  0  0  0  0
   -2.8046   -2.1312    0.5128 C   0  0  0  0  0  0  0  0  0  0  0  0
    2.4540    2.7498    0.3812 C   0  0  0  0  0  0  0  0  0  0  0  0
    1.1722    2.1669    0.9820 C   0  0  0  0  0  0  0  0  0  0  0  0
    2.4162   -1.4375   -0.0076 C   0  0  0  0  0  0  0  0  0  0  0  0
    3.7241    2.3091    1.1207 C   0  0  0  0  0  0  0  0  0  0  0  0
   -3.4093   -1.5176    1.7753 C   0  0  0  0  0  0  0  0  0  0  0  0
   -0.0965    2.5970    0.2375 C   0  0  0  0  0  0  0  0  0  0  0  0
    4.0202    0.8059    1.0749 C   0  0  0  0  0  0  0  0  0  0  0  0
   -1.3763    1.9949    0.8266 C   0  0  0  0  0  0  0  0  0  0  0  0
    3.4054   -0.7435   -0.7978 C   0  0  0  0  0  0  0  0  0  0  0  0
    4.1406    0.2739   -0.3246 C   0  0  0  0  0  0  0  0  0  0  0  0
   -4.8843   -1.1989    1.5880 C   0  0  0  0  0  0  0  0  0  0  0  0
   -2.6336    2.4906    0.1181 C   0  0  0  0  0  0  0  0  0  0  0  0
   -2.6371    2.1198   -1.3443 C   0  0  0  0  0  0  0  0  0  0  0  0
    0.9503   -4.3369    0.1831 H   0  0  0  0  0  0  0  0  0  0  0  0
   -1.2472   -4.0616   -0.7578 H   0  0  0  0  0  0  0  0  0  0  0  0
   -0.8758   -2.4680   -1.3939 H   0  0  0  0  0  0  0  0  0  0  0  0
   -1.2235   -3.1653    1.5669 H   0  0  0  0  0  0  0  0  0  0  0  0
   -0.7727   -1.5724    0.9734 H   0  0  0  0  0  0  0  0  0  0  0  0
   -2.9047   -1.4280   -0.3228 H   0  0  0  0  0  0  0  0  0  0  0  0
   -3.3610   -3.0366    0.2416 H   0  0  0  0  0  0  0  0  0  0  0  0
    2.5217    2.4848   -0.6801 H   0  0  0  0  0  0  0  0  0  0  0  0
    2.3956    3.8447    0.4214 H   0  0  0  0  0  0  0  0  0  0  0  0
    1.0948    2.4743    2.0321 H   0  0  0  0  0  0  0  0  0  0  0  0
    1.2170    1.0742    0.9766 H   0  0  0  0  0  0  0  0  0  0  0  0
    2.2273   -1.1631    1.0214 H   0  0  0  0  0  0  0  0  0  0  0  0
    3.6622    2.6261    2.1692 H   0  0  0  0  0  0  0  0  0  0  0  0
    4.5749    2.8511    0.6874 H   0  0  0  0  0  0  0  0  0  0  0  0
   -0.1682    3.6915    0.2614 H   0  0  0  0  0  0  0  0  0  0  0  0
    0.0062    2.3099   -0.8152 H   0  0  0  0  0  0  0  0  0  0  0  0
   -2.8727   -0.6001    2.0408 H   0  0  0  0  0  0  0  0  0  0  0  0
   -3.2980   -2.2120    2.6163 H   0  0  0  0  0  0  0  0  0  0  0  0
    3.3020    0.2942    1.7147 H   0  0  0  0  0  0  0  0  0  0  0  0
    4.9912    0.6450    1.5623 H   0  0  0  0  0  0  0  0  0  0  0  0
   -1.4454    2.2525    1.8901 H   0  0  0  0  0  0  0  0  0  0  0  0
   -1.3192    0.9021    0.7655 H   0  0  0  0  0  0  0  0  0  0  0  0
    3.5587   -1.0681   -1.8234 H   0  0  0  0  0  0  0  0  0  0  0  0
    4.8736    0.7392   -0.9785 H   0  0  0  0  0  0  0  0  0  0  0  0
   -5.0292   -0.4818    0.7736 H   0  0  0  0  0  0  0  0  0  0  0  0
   -5.2966   -0.7618    2.5027 H   0  0  0  0  0  0  0  0  0  0  0  0
   -5.4553   -2.1035    1.3559 H   0  0  0  0  0  0  0  0  0  0  0  0
   -3.5276    2.0577    0.5788 H   0  0  0  0  0  0  0  0  0  0  0  0
   -2.6962    3.5809    0.2108 H   0  0  0  0  0  0  0  0  0  0  0  0
   -3.2422    2.7898   -3.0701 H   0  0  0  0  0  0  0  0  0  0  0  0
  1  4  1  0  0  0  0
  1  6  1  0  0  0  0
  2 21  1  0  0  0  0
  2 51  1  0  0  0  0
  3 21  2  0  0  0  0
  4  5  1  0  0  0  0
  4  6  1  0  0  0  0
  4 22  1  0  0  0  0
  5  7  1  0  0  0  0
  5 23  1  0  0  0  0
  5 24  1  0  0  0  0
  6 11  2  0  0  0  0
  7  8  1  0  0  0  0
  7 25  1  0  0  0  0
  7 26  1  0  0  0  0
  8 13  1  0  0  0  0
  8 27  1  0  0  0  0
  8 28  1  0  0  0  0
  9 10  1  0  0  0  0
  9 12  1  0  0  0  0
  9 29  1  0  0  0  0
  9 30  1  0  0  0  0
 10 14  1  0  0  0  0
 10 31  1  0  0  0  0
 10 32  1  0  0  0  0
 11 17  1  0  0  0  0
 11 33  1  0  0  0  0
 12 15  1  0  0  0  0
 12 34  1  0  0  0  0
 12 35  1  0  0  0  0
 13 19  1  0  0  0  0
 13 38  1  0  0  0  0
 13 39  1  0  0  0  0
 14 16  1  0  0  0  0
 14 36  1  0  0  0  0
 14 37  1  0  0  0  0
 15 18  1  0  0  0  0
 15 40  1  0  0  0  0
 15 41  1  0  0  0  0
 16 20  1  0  0  0  0
 16 42  1  0  0  0  0
 16 43  1  0  0  0  0
 17 18  2  0  0  0  0
 17 44  1  0  0  0  0
 18 45  1  0  0  0  0
 19 46  1  0  0  0  0
 19 47  1  0  0  0  0
 19 48  1  0  0  0  0
 20 21  1  0  0  0  0
 20 49  1  0  0  0  0
 20 50  1  0  0  0  0
M  END
> <PUBCHEM_COMPOUND_CID>
5280703

> <PUBCHEM_CONFORMER_RMSD>
1.2

> <PUBCHEM_CONFORMER_DIVERSEORDER>
2
86
22
8
127
149
95
120
85
58
111
107
119
57
104
39
32
16
27
118
114
78
152
53
54
125
81
34
126
112
5
129
25
131
138
41
50
151
87
124
128
109
30
75
91
10
64
46
142
73
12
153
134
92
154
89
77
43
40
3
110
101
96
145
143
68
102
70
36
150
6
113
51
71
63
47
20
11
100
61
97
136
90
82
146
76
122
48
123
38
141
116
7
62
103
88
14
74
52
115
9
140
59
147
98
139
84
117
4
29
93
42
60
108
49
72
15
17
35
18
13
148
37
24
133
135
144
33
121
79
132
56
23
45
137
26
65
106
44
55
130
99
31
1
19
66
21
69
83
28
80
105
67
94

> <PUBCHEM_MMFF94_PARTIAL_CHARGES>
17
1 -0.22
11 -0.15
15 0.14
17 -0.15
18 -0.29
2 -0.65
20 0.06
21 0.66
22 0.1
3 -0.57
33 0.15
4 -0.01
44 0.15
45 0.15
5 0.09
51 0.5
6 0.04

> <PUBCHEM_EFFECTIVE_ROTOR_COUNT>
13.4

> <PUBCHEM_PHARMACOPHORE_FEATURES>
6
1 1 acceptor
1 19 hydrophobe
1 2 acceptor
1 3 acceptor
3 2 3 21 anion
4 5 7 8 13 hydrophobe

> <PUBCHEM_HEAVY_ATOM_COUNT>
21

> <PUBCHEM_ATOM_DEF_STEREO_COUNT>
1

> <PUBCHEM_ATOM_UDEF_STEREO_COUNT>
0

> <PUBCHEM_BOND_DEF_STEREO_COUNT>
1

> <PUBCHEM_BOND_UDEF_STEREO_COUNT>
1

> <PUBCHEM_ISOTOPIC_ATOM_COUNT>
0

> <PUBCHEM_COMPONENT_COUNT>
1

> <PUBCHEM_CACTVS_TAUTO_COUNT>
1

> <PUBCHEM_CONFORMER_ID>
005093BF00000002

> <PUBCHEM_MMFF94_ENERGY>
25.531

> <PUBCHEM_FEATURE_SELFOVERLAP>
30.504

> <PUBCHEM_SHAPE_FINGERPRINT>
10708813 3 17326888474395388210
12293681 4 17110707420138624062
13075007 39 17625795212086428515
13122387 1 17977097191089246658
13402501 40 18410848859032622419
17859628 37 17901938652571265230
19026451 147 17401235728832180223
19930381 70 17977096083241022121
20621476 7 18265888060383643274
20764821 26 18337121059386898493
238 59 18117290356738117742
3187 122 17917427588819739767
437795 51 18124312972862026373

> <PUBCHEM_SHAPE_MULTIPOLES>
414.56
8.04
5.48
1.65
0.19
0.78
-0.41
-1.34
2.73
1.35
-1.63
1.43
-0.62
3.28

> <PUBCHEM_SHAPE_SELFOVERLAP>
791.965

> <PUBCHEM_SHAPE_VOLUME>
253.2

> <PUBCHEM_COORDINATE_TYPE>
2
5
10

$$$$

