51090937
  -OEChem-06241223003D

 41 42  0     1  0  0  0  0  0999 V2000
   -5.8337   -2.1561   -0.5818 F   0  0  0  0  0  0  0  0  0  0  0  0
   -4.7909   -1.7384    1.2863 F   0  0  0  0  0  0  0  0  0  0  0  0
   -5.8959   -0.1499    0.2686 F   0  0  0  0  0  0  0  0  0  0  0  0
    2.0170    1.8344    1.6406 O   0  0  0  0  0  0  0  0  0  0  0  0
    3.1574    0.1471   -1.7956 O   0  0  0  0  0  0  0  0  0  0  0  0
   -3.0684    0.1157   -0.0041 N   0  0  1  0  0  0  0  0  0  0  0  0
    1.1659    1.0782   -0.3810 N   0  0  0  0  0  0  0  0  0  0  0  0
   -1.1770    1.4295    0.1987 C   0  0  1  0  0  0  0  0  0  0  0  0
   -2.3810    2.3731    0.1455 C   0  0  0  0  0  0  0  0  0  0  0  0
   -1.6811    0.1548   -0.4680 C   0  0  0  0  0  0  0  0  0  0  0  0
   -3.5745    1.4783   -0.1830 C   0  0  0  0  0  0  0  0  0  0  0  0
    0.0681    1.9976   -0.4615 C   0  0  0  0  0  0  0  0  0  0  0  0
   -3.8661   -0.8726   -0.7143 C   0  0  0  0  0  0  0  0  0  0  0  0
   -5.1048   -1.2271    0.0768 C   0  0  0  0  0  0  0  0  0  0  0  0
    2.0663    1.0703    0.6802 C   0  0  0  0  0  0  0  0  0  0  0  0
    3.1645    0.0728    0.6020 C   0  0  0  0  0  0  0  0  0  0  0  0
    3.6642   -0.3467   -0.6308 C   0  0  0  0  0  0  0  0  0  0  0  0
    3.6950   -0.4465    1.7828 C   0  0  0  0  0  0  0  0  0  0  0  0
    4.6946   -1.2853   -0.6827 C   0  0  0  0  0  0  0  0  0  0  0  0
    4.7254   -1.3854    1.7310 C   0  0  0  0  0  0  0  0  0  0  0  0
    5.2253   -1.8048    0.4982 C   0  0  0  0  0  0  0  0  0  0  0  0
    3.7298   -0.3389   -3.0080 C   0  0  0  0  0  0  0  0  0  0  0  0
   -0.9584    1.2103    1.2542 H   0  0  0  0  0  0  0  0  0  0  0  0
   -2.5121    2.8703    1.1133 H   0  0  0  0  0  0  0  0  0  0  0  0
   -2.2664    3.1506   -0.6180 H   0  0  0  0  0  0  0  0  0  0  0  0
   -1.1183   -0.7242   -0.1367 H   0  0  0  0  0  0  0  0  0  0  0  0
   -1.6217    0.2242   -1.5621 H   0  0  0  0  0  0  0  0  0  0  0  0
   -4.4148    1.6972    0.4828 H   0  0  0  0  0  0  0  0  0  0  0  0
   -3.8921    1.6700   -1.2158 H   0  0  0  0  0  0  0  0  0  0  0  0
   -0.1071    2.2019   -1.5236 H   0  0  0  0  0  0  0  0  0  0  0  0
    0.3518    2.9416    0.0172 H   0  0  0  0  0  0  0  0  0  0  0  0
   -3.2875   -1.7978   -0.8302 H   0  0  0  0  0  0  0  0  0  0  0  0
   -4.1329   -0.5432   -1.7257 H   0  0  0  0  0  0  0  0  0  0  0  0
    1.2568    0.3953   -1.1268 H   0  0  0  0  0  0  0  0  0  0  0  0
    3.3158   -0.1366    2.7532 H   0  0  0  0  0  0  0  0  0  0  0  0
    5.1331   -1.6587   -1.6015 H   0  0  0  0  0  0  0  0  0  0  0  0
    5.1377   -1.7908    2.6504 H   0  0  0  0  0  0  0  0  0  0  0  0
    6.0274   -2.5361    0.4591 H   0  0  0  0  0  0  0  0  0  0  0  0
    3.2084    0.1597   -3.8318 H   0  0  0  0  0  0  0  0  0  0  0  0
    3.5616   -1.4142   -3.1317 H   0  0  0  0  0  0  0  0  0  0  0  0
    4.7878   -0.0681   -3.0928 H   0  0  0  0  0  0  0  0  0  0  0  0
  1 14  1  0  0  0  0
  2 14  1  0  0  0  0
  3 14  1  0  0  0  0
  4 15  2  0  0  0  0
  5 17  1  0  0  0  0
  5 22  1  0  0  0  0
  6 10  1  0  0  0  0
  6 11  1  0  0  0  0
  6 13  1  0  0  0  0
  7 12  1  0  0  0  0
  7 15  1  0  0  0  0
  7 34  1  0  0  0  0
  8  9  1  0  0  0  0
  8 10  1  0  0  0  0
  8 12  1  0  0  0  0
  8 23  1  0  0  0  0
  9 11  1  0  0  0  0
  9 24  1  0  0  0  0
  9 25  1  0  0  0  0
 10 26  1  0  0  0  0
 10 27  1  0  0  0  0
 11 28  1  0  0  0  0
 11 29  1  0  0  0  0
 12 30  1  0  0  0  0
 12 31  1  0  0  0  0
 13 14  1  0  0  0  0
 13 32  1  0  0  0  0
 13 33  1  0  0  0  0
 15 16  1  0  0  0  0
 16 17  1  0  0  0  0
 16 18  2  0  0  0  0
 17 19  2  0  0  0  0
 18 20  1  0  0  0  0
 18 35  1  0  0  0  0
 19 21  1  0  0  0  0
 19 36  1  0  0  0  0
 20 21  2  0  0  0  0
 20 37  1  0  0  0  0
 21 38  1  0  0  0  0
 22 39  1  0  0  0  0
 22 40  1  0  0  0  0
 22 41  1  0  0  0  0
M  END
> <PUBCHEM_COMPOUND_CID>
51090937

> <PUBCHEM_CONFORMER_RMSD>
1

> <PUBCHEM_CONFORMER_DIVERSEORDER>
6
14
9
106
12
82
122
100
59
108
24
87
21
60
32
118
68
92
10
84
112
129
127
27
61
66
23
50
72
28
119
78
75
71
77
44
128
113
70
62
57
45
85
96
94
13
107
42
26
117
80
120
76
22
109
35
101
41
125
123
90
16
47
3
104
37
73
39
31
53
99
81
15
46
115
97
25
56
20
48
38
103
4
11
43
111
30
105
63
7
114
49
98
36
29
5
88
124
58
52
79
110
19
34
8
89
40
91
17
74
95
33
64
54
65
86
67
2
121
130
18
55
83
93
1
102
116
126
69
51

> <PUBCHEM_MMFF94_PARTIAL_CHARGES>
25
1 -0.34
10 0.27
11 0.27
12 0.3
13 0.27
14 1.02
15 0.54
16 0.09
17 0.08
18 -0.15
19 -0.15
2 -0.34
20 -0.15
21 -0.15
22 0.28
3 -0.34
34 0.37
35 0.15
36 0.15
37 0.15
38 0.15
4 -0.57
5 -0.36
6 -0.81
7 -0.73

> <PUBCHEM_EFFECTIVE_ROTOR_COUNT>
8

> <PUBCHEM_PHARMACOPHORE_FEATURES>
6
1 4 acceptor
1 5 acceptor
1 6 cation
1 7 donor
5 6 8 9 10 11 rings
6 16 17 18 19 20 21 rings

> <PUBCHEM_HEAVY_ATOM_COUNT>
22

> <PUBCHEM_ATOM_DEF_STEREO_COUNT>
0

> <PUBCHEM_ATOM_UDEF_STEREO_COUNT>
1

> <PUBCHEM_BOND_DEF_STEREO_COUNT>
0

> <PUBCHEM_BOND_UDEF_STEREO_COUNT>
0

> <PUBCHEM_ISOTOPIC_ATOM_COUNT>
0

> <PUBCHEM_COMPONENT_COUNT>
1

> <PUBCHEM_CACTVS_TAUTO_COUNT>
2

> <PUBCHEM_CONFORMER_ID>
030B95F900000006

> <PUBCHEM_MMFF94_ENERGY>
57.6461

> <PUBCHEM_FEATURE_SELFOVERLAP>
30.446

> <PUBCHEM_SHAPE_MULTIPOLES>
409.23
14.03
2.22
1.78
10.18
0.21
0.92
-10.4
-0.64
1.97
-0.41
-3.22
-0.23
-0.27

> <PUBCHEM_SHAPE_SELFOVERLAP>
855.186

> <PUBCHEM_SHAPE_VOLUME>
234.3

> <PUBCHEM_COORDINATE_TYPE>
2
5
10

$$$$

