439741
  -OEChem-07051212472D

 52 54  0     1  0  0  0  0  0999 V2000
    5.0474    0.9579    0.0000 P   0  0  3  0  0  0  0  0  0  0  0  0
    5.4104    2.6514    0.0000 P   0  0  3  0  0  0  0  0  0  0  0  0
    4.4026   -2.4953    0.0000 O   0  0  0  0  0  0  0  0  0  0  0  0
    6.7485   -3.5871    0.0000 O   0  0  0  0  0  0  0  0  0  0  0  0
    6.7523   -1.4116    0.0000 O   0  0  0  0  0  0  0  0  0  0  0  0
    5.3548    0.0063    0.0000 O   0  0  0  0  0  0  0  0  0  0  0  0
    4.7400    1.9095    0.0000 O   0  0  0  0  0  0  0  0  0  0  0  0
    5.9990    1.2652    0.0000 O   0  0  0  0  0  0  0  0  0  0  0  0
    4.0958    0.6505    0.0000 O   0  0  0  0  0  0  0  0  0  0  0  0
    6.0809    3.3934    0.0000 O   0  0  0  0  0  0  0  0  0  0  0  0
    4.6685    3.3219    0.0000 O   0  0  0  0  0  0  0  0  0  0  0  0
    6.1524    1.9810    0.0000 O   0  0  0  0  0  0  0  0  0  0  0  0
    7.4217    4.8774    0.0000 O   0  0  0  0  0  0  0  0  0  0  0  0
    6.8070    6.7806    0.0000 O   0  0  0  0  0  0  0  0  0  0  0  0
    5.1588    6.2482    0.0000 O   0  0  0  0  0  0  0  0  0  0  0  0
    4.6783   -4.2558    0.0000 N   0  0  0  0  0  0  0  0  0  0  0  0
    4.6783   -5.8653    0.0000 N   0  0  0  0  0  0  0  0  0  0  0  0
    2.8660   -4.0606    0.0000 N   0  0  0  0  0  0  0  0  0  0  0  0
    2.0000   -5.5606    0.0000 N   0  0  0  0  0  0  0  0  0  0  0  0
    2.8660   -7.0606    0.0000 N   0  0  0  0  0  0  0  0  0  0  0  0
    5.9405   -2.9980    0.0000 C   0  0  2  0  0  0  0  0  0  0  0  0
    5.9422   -1.9980    0.0000 C   0  0  1  0  0  0  0  0  0  0  0  0
    4.9889   -3.3053    0.0000 C   0  0  1  0  0  0  0  0  0  0  0  0
    4.9917   -1.6873    0.0000 C   0  0  1  0  0  0  0  0  0  0  0  0
    4.6844   -0.7357    0.0000 C   0  0  0  0  0  0  0  0  0  0  0  0
    3.7320   -4.5606    0.0000 C   0  0  0  0  0  0  0  0  0  0  0  0
    5.2619   -5.0606    0.0000 C   0  0  0  0  0  0  0  0  0  0  0  0
    3.7320   -5.5606    0.0000 C   0  0  0  0  0  0  0  0  0  0  0  0
    2.8660   -6.0606    0.0000 C   0  0  0  0  0  0  0  0  0  0  0  0
    2.0000   -4.5606    0.0000 C   0  0  0  0  0  0  0  0  0  0  0  0
    5.7735    4.3450    0.0000 C   0  0  0  0  0  0  0  0  0  0  0  0
    6.4439    5.0870    0.0000 C   0  0  3  0  0  0  0  0  0  0  0  0
    6.1365    6.0386    0.0000 C   0  0  0  0  0  0  0  0  0  0  0  0
    6.4934   -2.7174    0.0000 H   0  0  0  0  0  0  0  0  0  0  0  0
    5.8463   -1.3854    0.0000 H   0  0  0  0  0  0  0  0  0  0  0  0
    5.4266   -3.7445    0.0000 H   0  0  0  0  0  0  0  0  0  0  0  0
    4.3795   -1.5892    0.0000 H   0  0  0  0  0  0  0  0  0  0  0  0
    4.3035   -0.2465    0.0000 H   0  0  0  0  0  0  0  0  0  0  0  0
    4.1364   -1.0258    0.0000 H   0  0  0  0  0  0  0  0  0  0  0  0
    7.3154   -3.3359    0.0000 H   0  0  0  0  0  0  0  0  0  0  0  0
    7.3182   -1.6647    0.0000 H   0  0  0  0  0  0  0  0  0  0  0  0
    5.8819   -5.0606    0.0000 H   0  0  0  0  0  0  0  0  0  0  0  0
    1.4631   -4.2506    0.0000 H   0  0  0  0  0  0  0  0  0  0  0  0
    2.3291   -7.3706    0.0000 H   0  0  0  0  0  0  0  0  0  0  0  0
    3.4030   -7.3706    0.0000 H   0  0  0  0  0  0  0  0  0  0  0  0
    6.4590    0.8496    0.0000 H   0  0  0  0  0  0  0  0  0  0  0  0
    5.3926    4.8342    0.0000 H   0  0  0  0  0  0  0  0  0  0  0  0
    5.2256    4.0549    0.0000 H   0  0  0  0  0  0  0  0  0  0  0  0
    7.0138    5.7177    0.0000 H   0  0  0  0  0  0  0  0  0  0  0  0
    4.0785    3.1313    0.0000 H   0  0  0  0  0  0  0  0  0  0  0  0
    7.8374    5.3374    0.0000 H   0  0  0  0  0  0  0  0  0  0  0  0
    6.6164    7.3706    0.0000 H   0  0  0  0  0  0  0  0  0  0  0  0
  1  6  1  0  0  0  0
  1  7  1  0  0  0  0
  1  8  1  0  0  0  0
  1  9  2  0  0  0  0
  2  7  1  0  0  0  0
  2 10  1  0  0  0  0
  2 11  1  0  0  0  0
  2 12  2  0  0  0  0
  3 23  1  0  0  0  0
  3 24  1  0  0  0  0
 21  4  1  1  0  0  0
  4 40  1  0  0  0  0
 22  5  1  1  0  0  0
  5 41  1  0  0  0  0
  6 25  1  0  0  0  0
  8 46  1  0  0  0  0
 10 31  1  0  0  0  0
 11 50  1  0  0  0  0
 13 32  1  0  0  0  0
 13 51  1  0  0  0  0
 14 33  1  0  0  0  0
 14 52  1  0  0  0  0
 15 33  2  0  0  0  0
 23 16  1  6  0  0  0
 16 26  1  0  0  0  0
 16 27  1  0  0  0  0
 17 27  2  0  0  0  0
 17 28  1  0  0  0  0
 18 26  1  0  0  0  0
 18 30  2  0  0  0  0
 19 29  2  0  0  0  0
 19 30  1  0  0  0  0
 20 29  1  0  0  0  0
 20 44  1  0  0  0  0
 20 45  1  0  0  0  0
 21 22  1  0  0  0  0
 21 23  1  0  0  0  0
 21 34  1  0  0  0  0
 22 24  1  0  0  0  0
 22 35  1  0  0  0  0
 23 36  1  0  0  0  0
 24 25  1  6  0  0  0
 24 37  1  0  0  0  0
 25 38  1  0  0  0  0
 25 39  1  0  0  0  0
 26 28  2  0  0  0  0
 27 42  1  0  0  0  0
 28 29  1  0  0  0  0
 30 43  1  0  0  0  0
 31 32  1  0  0  0  0
 31 47  1  0  0  0  0
 31 48  1  0  0  0  0
 32 33  1  0  0  0  0
 32 49  1  0  0  0  0
M  END
> <PUBCHEM_COMPOUND_CID>
439741

> <PUBCHEM_COMPOUND_CANONICALIZED>
1

> <PUBCHEM_CACTVS_COMPLEXITY>
809

> <PUBCHEM_CACTVS_HBOND_ACCEPTOR>
17

> <PUBCHEM_CACTVS_HBOND_DONOR>
7

> <PUBCHEM_CACTVS_ROTATABLE_BOND>
10

> <PUBCHEM_CACTVS_SUBSKEYS>
AAADceBzvAMAAAAAAAAAAAAAAAAAAWJAAAAsAAAAAAAAAFgB+AAAHgAQCCAACBzhlwYF+L9MFxCoQQbxbIKAgC0REKABUCFoVBCDWAZAyEAeRAgPIALTACDwMAIAAAAAAAAAAAAAAAAAAAAAAAAAAAAAAA==

> <PUBCHEM_IUPAC_OPENEYE_NAME>
3-[[[(2R,3S,4R,5R)-5-(6-aminopurin-9-yl)-3,4-dihydroxy-tetrahydrofuran-2-yl]methoxy-hydroxy-phosphoryl]oxy-hydroxy-phosphoryl]oxy-2-hydroxy-propanoic acid

> <PUBCHEM_IUPAC_CAS_NAME>
3-[[[(2R,3S,4R,5R)-5-(6-aminopurin-9-yl)-3,4-dihydroxy-2-oxolanyl]methoxy-hydroxyphosphoryl]oxy-hydroxyphosphoryl]oxy-2-hydroxypropanoic acid

> <PUBCHEM_IUPAC_NAME>
3-[[[(2R,3S,4R,5R)-5-(6-aminopurin-9-yl)-3,4-dihydroxyoxolan-2-yl]methoxy-hydroxyphosphoryl]oxy-hydroxyphosphoryl]oxy-2-hydroxypropanoic acid

> <PUBCHEM_IUPAC_SYSTEMATIC_NAME>
3-[[[(2R,3S,4R,5R)-5-(6-aminopurin-9-yl)-3,4-bis(oxidanyl)oxolan-2-yl]methoxy-oxidanyl-phosphoryl]oxy-oxidanyl-phosphoryl]oxy-2-oxidanyl-propanoic acid

> <PUBCHEM_IUPAC_TRADITIONAL_NAME>
3-[[[(2R,3S,4R,5R)-5-adenin-9-yl-3,4-dihydroxy-tetrahydrofuran-2-yl]methoxy-hydroxy-phosphoryl]oxy-hydroxy-phosphoryl]oxy-2-hydroxy-propionic acid

> <PUBCHEM_IUPAC_INCHI>
InChI=1S/C13H19N5O13P2/c14-10-7-11(16-3-15-10)18(4-17-7)12-9(21)8(20)6(30-12)2-29-33(26,27)31-32(24,25)28-1-5(19)13(22)23/h3-6,8-9,12,19-21H,1-2H2,(H,22,23)(H,24,25)(H,26,27)(H2,14,15,16)/t5?,6-,8-,9-,12-/m1/s1

> <PUBCHEM_IUPAC_INCHIKEY>
APVQTUURIRQYIT-NRJACJQQSA-N

> <PUBCHEM_XLOGP3>
-5.1

> <PUBCHEM_EXACT_MASS>
515.045459

> <PUBCHEM_MOLECULAR_FORMULA>
C13H19N5O13P2

> <PUBCHEM_MOLECULAR_WEIGHT>
515.263184

> <PUBCHEM_OPENEYE_CAN_SMILES>
C1=NC2=C(C(=N1)N)N=CN2C3C(C(C(O3)COP(=O)(O)OP(=O)(O)OCC(C(=O)O)O)O)O

> <PUBCHEM_OPENEYE_ISO_SMILES>
C1=NC2=C(C(=N1)N)N=CN2[C@H]3[C@@H]([C@@H]([C@H](O3)COP(=O)(O)OP(=O)(O)OCC(C(=O)O)O)O)O

> <PUBCHEM_CACTVS_TPSA>
279

> <PUBCHEM_MONOISOTOPIC_WEIGHT>
515.045459

> <PUBCHEM_TOTAL_CHARGE>
0

> <PUBCHEM_HEAVY_ATOM_COUNT>
33

> <PUBCHEM_ATOM_DEF_STEREO_COUNT>
4

> <PUBCHEM_ATOM_UDEF_STEREO_COUNT>
1

> <PUBCHEM_BOND_DEF_STEREO_COUNT>
0

> <PUBCHEM_BOND_UDEF_STEREO_COUNT>
0

> <PUBCHEM_ISOTOPIC_ATOM_COUNT>
0

> <PUBCHEM_COMPONENT_COUNT>
1

> <PUBCHEM_CACTVS_TAUTO_COUNT>
3

> <PUBCHEM_COORDINATE_TYPE>
1
5
255

> <PUBCHEM_BONDANNOTATIONS>
23  16  6
16  26  8
16  27  8
17  27  8
17  28  8
18  26  8
18  30  8
19  29  8
19  30  8
24  25  6
26  28  8
28  29  8
32  49  3
21  4  5
22  5  5

$$$$

