10753985
  -OEChem-07051213153D

 45 44  0     1  0  0  0  0  0999 V2000
    1.7131   -3.9699   -0.4292 O   0  0  0  0  0  0  0  0  0  0  0  0
   -6.1543   -1.3398    1.4470 O   0  0  0  0  0  0  0  0  0  0  0  0
    1.9975    2.0709    0.6092 C   0  0  0  0  0  0  0  0  0  0  0  0
    3.4778    1.9339    0.2436 C   0  0  0  0  0  0  0  0  0  0  0  0
    1.2400    3.0485   -0.2947 C   0  0  0  0  0  0  0  0  0  0  0  0
    4.2336    0.9457    1.1431 C   0  0  0  0  0  0  0  0  0  0  0  0
   -0.2430    3.1705    0.0596 C   0  0  0  0  0  0  0  0  0  0  0  0
    3.7617   -0.5102    1.0545 C   0  0  0  0  0  0  0  0  0  0  0  0
   -0.9550    4.1454   -0.8654 C   0  0  0  0  0  0  0  0  0  0  0  0
    3.8335   -1.0597   -0.3405 C   0  0  0  0  0  0  0  0  0  0  0  0
    3.0056   -2.0040   -0.8127 C   0  0  0  0  0  0  0  0  0  0  0  0
    1.9069   -2.6251   -0.0020 C   0  0  1  0  0  0  0  0  0  0  0  0
   -4.8561    0.3536    0.3193 C   0  0  0  0  0  0  0  0  0  0  0  0
   -3.8705    0.6900   -0.8038 C   0  0  0  0  0  0  0  0  0  0  0  0
   -5.2587   -1.1181    0.3670 C   0  0  0  0  0  0  0  0  0  0  0  0
    0.6651   -1.8673   -0.1974 C   0  0  0  0  0  0  0  0  0  0  0  0
   -2.5894   -0.0116   -0.6432 C   0  0  0  0  0  0  0  0  0  0  0  0
   -0.3619   -1.2631   -0.3460 C   0  0  0  0  0  0  0  0  0  0  0  0
   -1.5459   -0.5898   -0.5083 C   0  0  0  0  0  0  0  0  0  0  0  0
    1.9113    2.4015    1.6515 H   0  0  0  0  0  0  0  0  0  0  0  0
    1.5069    1.0945    0.5449 H   0  0  0  0  0  0  0  0  0  0  0  0
    3.5756    1.6437   -0.8087 H   0  0  0  0  0  0  0  0  0  0  0  0
    3.9558    2.9171    0.3369 H   0  0  0  0  0  0  0  0  0  0  0  0
    1.7118    4.0367   -0.2289 H   0  0  0  0  0  0  0  0  0  0  0  0
    1.3361    2.7196   -1.3370 H   0  0  0  0  0  0  0  0  0  0  0  0
    4.1603    1.2776    2.1862 H   0  0  0  0  0  0  0  0  0  0  0  0
    5.2987    0.9912    0.8808 H   0  0  0  0  0  0  0  0  0  0  0  0
   -0.3489    3.5128    1.0954 H   0  0  0  0  0  0  0  0  0  0  0  0
   -0.7228    2.1908   -0.0074 H   0  0  0  0  0  0  0  0  0  0  0  0
    2.7558   -0.5769    1.4787 H   0  0  0  0  0  0  0  0  0  0  0  0
    4.4170   -1.1147    1.6937 H   0  0  0  0  0  0  0  0  0  0  0  0
   -0.8938    3.8136   -1.9068 H   0  0  0  0  0  0  0  0  0  0  0  0
   -0.5152    5.1454   -0.7960 H   0  0  0  0  0  0  0  0  0  0  0  0
   -2.0130    4.2197   -0.5947 H   0  0  0  0  0  0  0  0  0  0  0  0
    4.6240   -0.6959   -0.9922 H   0  0  0  0  0  0  0  0  0  0  0  0
    3.1394   -2.3432   -1.8375 H   0  0  0  0  0  0  0  0  0  0  0  0
    2.1560   -2.6739    1.0627 H   0  0  0  0  0  0  0  0  0  0  0  0
   -4.4295    0.6416    1.2892 H   0  0  0  0  0  0  0  0  0  0  0  0
   -5.7597    0.9650    0.2022 H   0  0  0  0  0  0  0  0  0  0  0  0
   -4.3148    0.4346   -1.7726 H   0  0  0  0  0  0  0  0  0  0  0  0
   -3.6932    1.7718   -0.8095 H   0  0  0  0  0  0  0  0  0  0  0  0
   -5.7646   -1.4098   -0.5586 H   0  0  0  0  0  0  0  0  0  0  0  0
   -4.3953   -1.7754    0.5064 H   0  0  0  0  0  0  0  0  0  0  0  0
    2.5436   -4.4522   -0.2744 H   0  0  0  0  0  0  0  0  0  0  0  0
   -5.6913   -1.0961    2.2666 H   0  0  0  0  0  0  0  0  0  0  0  0
  1 12  1  0  0  0  0
  1 44  1  0  0  0  0
  2 15  1  0  0  0  0
  2 45  1  0  0  0  0
  3  4  1  0  0  0  0
  3  5  1  0  0  0  0
  3 20  1  0  0  0  0
  3 21  1  0  0  0  0
  4  6  1  0  0  0  0
  4 22  1  0  0  0  0
  4 23  1  0  0  0  0
  5  7  1  0  0  0  0
  5 24  1  0  0  0  0
  5 25  1  0  0  0  0
  6  8  1  0  0  0  0
  6 26  1  0  0  0  0
  6 27  1  0  0  0  0
  7  9  1  0  0  0  0
  7 28  1  0  0  0  0
  7 29  1  0  0  0  0
  8 10  1  0  0  0  0
  8 30  1  0  0  0  0
  8 31  1  0  0  0  0
  9 32  1  0  0  0  0
  9 33  1  0  0  0  0
  9 34  1  0  0  0  0
 10 11  2  0  0  0  0
 10 35  1  0  0  0  0
 11 12  1  0  0  0  0
 11 36  1  0  0  0  0
 12 16  1  0  0  0  0
 12 37  1  0  0  0  0
 13 14  1  0  0  0  0
 13 15  1  0  0  0  0
 13 38  1  0  0  0  0
 13 39  1  0  0  0  0
 14 17  1  0  0  0  0
 14 40  1  0  0  0  0
 14 41  1  0  0  0  0
 15 42  1  0  0  0  0
 15 43  1  0  0  0  0
 16 18  3  0  0  0  0
 17 19  3  0  0  0  0
 18 19  1  0  0  0  0
M  END
> <PUBCHEM_COMPOUND_CID>
10753985

> <PUBCHEM_CONFORMER_RMSD>
1

> <PUBCHEM_CONFORMER_DIVERSEORDER>
1
215
65
322
144
119
21
168
265
334
226
292
216
28
279
112
258
218
325
320
138
24
330
301
51
323
284
74
12
166
87
136
232
55
81
222
230
240
188
198
249
274
214
271
20
300
182
86
165
332
297
54
52
27
290
31
70
128
95
237
262
317
151
256
78
327
15
203
281
4
13
152
139
196
57
109
302
239
319
167
63
228
26
208
229
291
235
171
326
153
47
305
195
223
251
43
261
93
108
33
71
309
316
117
72
178
103
7
248
213
311
124
44
48
38
263
318
39
209
308
177
186
163
268
107
62
67
293
184
126
158
88
176
247
92
180
127
53
11
270
96
142
35
233
328
101
106
76
260
179
303
287
250
253
324
255
73
275
143
282
56
120
295
246
294
89
204
156
276
173
61
298
242
94
159
331
272
100
314
42
221
68
90
161
277
244
102
254
37
125
23
169
16
98
29
175
5
202
146
162
110
114
91
113
185
315
32
9
132
41
130
252
83
227
329
131
189
79
111
190
18
137
243
46
116
155
266
3
10
259
149
85
321
217
122
312
285
183
49
273
306
211
104
241
257
147
148
36
231
30
129
134
174
210
66
59
194
289
197
307
201
296
245
40
154
172
145
224
187
160
192
60
299
140
133
199
105
283
219
80
225
84
118
75
150
310
141
286
97
69
212
164
157
82
206
193
234
191
205
25
238
8
19
304
64
34
22
58
123
288
269
2
99
207
45
50
6
77
121
17
115
264
135
278
14
200
220
170
280
181
267
313
333
236

> <PUBCHEM_MMFF94_PARTIAL_CHARGES>
14
1 -0.68
10 -0.29
11 -0.29
12 0.62
14 0.2
15 0.28
16 -0.2
17 -0.2
2 -0.68
35 0.15
36 0.15
44 0.4
45 0.4
8 0.14

> <PUBCHEM_EFFECTIVE_ROTOR_COUNT>
9

> <PUBCHEM_PHARMACOPHORE_FEATURES>
5
1 1 acceptor
1 1 donor
1 2 acceptor
1 2 donor
1 9 hydrophobe

> <PUBCHEM_HEAVY_ATOM_COUNT>
19

> <PUBCHEM_ATOM_DEF_STEREO_COUNT>
1

> <PUBCHEM_ATOM_UDEF_STEREO_COUNT>
0

> <PUBCHEM_BOND_DEF_STEREO_COUNT>
1

> <PUBCHEM_BOND_UDEF_STEREO_COUNT>
0

> <PUBCHEM_ISOTOPIC_ATOM_COUNT>
0

> <PUBCHEM_COMPONENT_COUNT>
1

> <PUBCHEM_CACTVS_TAUTO_COUNT>
1

> <PUBCHEM_CONFORMER_ID>
00A417C100000001

> <PUBCHEM_MMFF94_ENERGY>
3.5412

> <PUBCHEM_FEATURE_SELFOVERLAP>
25.371

> <PUBCHEM_SHAPE_FINGERPRINT>
10688039 33 18202288025777442292
13075007 39 18058720304682488585
14114211 80 18120635969000862948
14178342 30 17183927769593199112
14251764 75 17904762180925094552
15081414 286 18334295357849319368
17844677 252 18187640375407218147
18785283 64 18198617736084357325
20621476 7 18335423507933708492
3014063 31 18265059204868468148
474 4 18335146358084062314
5283268 108 18411699911092257472

> <PUBCHEM_SHAPE_MULTIPOLES>
379.27
10.54
4.81
1.03
14.29
2.59
-0.17
-3.67
-3.89
-2.5
1.06
0.22
-0.01
1.65

> <PUBCHEM_SHAPE_SELFOVERLAP>
711.474

> <PUBCHEM_SHAPE_VOLUME>
233.5

> <PUBCHEM_COORDINATE_TYPE>
2
5
10

$$$$

