5281152
  -OEChem-07051212553D

 53 52  0     0  0  0  0  0  0999 V2000
   -4.1639    0.1056   -1.0900 O   0  0  0  0  0  0  0  0  0  0  0  0
   -3.7825    1.4433    0.7685 N   0  0  0  0  0  0  0  0  0  0  0  0
   -2.9241    3.3736   -0.5181 C   0  0  0  0  0  0  0  0  0  0  0  0
   -4.1314    2.6946    0.1382 C   0  0  0  0  0  0  0  0  0  0  0  0
    5.2429    0.8086    0.8155 C   0  0  0  0  0  0  0  0  0  0  0  0
    5.2166    1.5154   -0.5451 C   0  0  0  0  0  0  0  0  0  0  0  0
   -3.3226    4.6680   -1.2306 C   0  0  0  0  0  0  0  0  0  0  0  0
   -1.8517    3.6654    0.5321 C   0  0  0  0  0  0  0  0  0  0  0  0
    5.2644    1.7782    2.0001 C   0  0  0  0  0  0  0  0  0  0  0  0
    5.2061    0.5361   -1.7214 C   0  0  0  0  0  0  0  0  0  0  0  0
    5.3259    1.0856    3.3528 C   0  0  0  0  0  0  0  0  0  0  0  0
   -3.8319    0.2413    0.0831 C   0  0  0  0  0  0  0  0  0  0  0  0
   -3.0272   -3.3552    1.2554 C   0  0  0  0  0  0  0  0  0  0  0  0
   -3.4285   -0.9046    0.9423 C   0  0  0  0  0  0  0  0  0  0  0  0
   -1.8572   -4.1013    0.6099 C   0  0  0  0  0  0  0  0  0  0  0  0
   -3.4158   -2.1498    0.4471 C   0  0  0  0  0  0  0  0  0  0  0  0
    4.0024   -0.3064   -1.7341 C   0  0  0  0  0  0  0  0  0  0  0  0
   -0.6263   -3.2418    0.5603 C   0  0  0  0  0  0  0  0  0  0  0  0
    0.0223   -2.9376   -0.5738 C   0  0  0  0  0  0  0  0  0  0  0  0
    3.0188   -0.9956   -1.7398 C   0  0  0  0  0  0  0  0  0  0  0  0
    1.2090   -2.1126   -0.6087 C   0  0  0  0  0  0  0  0  0  0  0  0
    1.8548   -1.8107   -1.7437 C   0  0  0  0  0  0  0  0  0  0  0  0
   -2.4926    2.6935   -1.2638 H   0  0  0  0  0  0  0  0  0  0  0  0
   -4.5629    3.3362    0.9148 H   0  0  0  0  0  0  0  0  0  0  0  0
   -4.9110    2.5104   -0.6099 H   0  0  0  0  0  0  0  0  0  0  0  0
    4.3670    0.1575    0.9195 H   0  0  0  0  0  0  0  0  0  0  0  0
    6.1271    0.1610    0.8663 H   0  0  0  0  0  0  0  0  0  0  0  0
    4.3351    2.1668   -0.5979 H   0  0  0  0  0  0  0  0  0  0  0  0
    6.0979    2.1621   -0.6326 H   0  0  0  0  0  0  0  0  0  0  0  0
   -3.7469    5.3932   -0.5280 H   0  0  0  0  0  0  0  0  0  0  0  0
   -4.0712    4.4676   -2.0043 H   0  0  0  0  0  0  0  0  0  0  0  0
   -2.4555    5.1299   -1.7144 H   0  0  0  0  0  0  0  0  0  0  0  0
   -2.2404    4.3040    1.3329 H   0  0  0  0  0  0  0  0  0  0  0  0
   -0.9974    4.1796    0.0784 H   0  0  0  0  0  0  0  0  0  0  0  0
   -1.4701    2.7446    0.9851 H   0  0  0  0  0  0  0  0  0  0  0  0
    6.1296    2.4455    1.9067 H   0  0  0  0  0  0  0  0  0  0  0  0
    4.3699    2.4114    1.9663 H   0  0  0  0  0  0  0  0  0  0  0  0
   -3.4943    1.4661    1.7425 H   0  0  0  0  0  0  0  0  0  0  0  0
    5.2593    1.1049   -2.6570 H   0  0  0  0  0  0  0  0  0  0  0  0
    6.1004   -0.0966   -1.6835 H   0  0  0  0  0  0  0  0  0  0  0  0
    4.4564    0.4369    3.4984 H   0  0  0  0  0  0  0  0  0  0  0  0
    5.3387    1.8255    4.1591 H   0  0  0  0  0  0  0  0  0  0  0  0
    6.2292    0.4733    3.4368 H   0  0  0  0  0  0  0  0  0  0  0  0
   -3.8912   -4.0277    1.3131 H   0  0  0  0  0  0  0  0  0  0  0  0
   -2.7739   -3.0766    2.2861 H   0  0  0  0  0  0  0  0  0  0  0  0
   -1.6328   -4.9955    1.2035 H   0  0  0  0  0  0  0  0  0  0  0  0
   -2.1386   -4.4491   -0.3920 H   0  0  0  0  0  0  0  0  0  0  0  0
   -3.1428   -0.7101    1.9707 H   0  0  0  0  0  0  0  0  0  0  0  0
   -3.7117   -2.3361   -0.5825 H   0  0  0  0  0  0  0  0  0  0  0  0
   -0.2535   -2.8714    1.5131 H   0  0  0  0  0  0  0  0  0  0  0  0
   -0.3498   -3.3172   -1.5220 H   0  0  0  0  0  0  0  0  0  0  0  0
    1.5753   -1.7309    0.3422 H   0  0  0  0  0  0  0  0  0  0  0  0
    1.5041   -2.1821   -2.7018 H   0  0  0  0  0  0  0  0  0  0  0  0
  1 12  2  0  0  0  0
  2  4  1  0  0  0  0
  2 12  1  0  0  0  0
  2 38  1  0  0  0  0
  3  4  1  0  0  0  0
  3  7  1  0  0  0  0
  3  8  1  0  0  0  0
  3 23  1  0  0  0  0
  4 24  1  0  0  0  0
  4 25  1  0  0  0  0
  5  6  1  0  0  0  0
  5  9  1  0  0  0  0
  5 26  1  0  0  0  0
  5 27  1  0  0  0  0
  6 10  1  0  0  0  0
  6 28  1  0  0  0  0
  6 29  1  0  0  0  0
  7 30  1  0  0  0  0
  7 31  1  0  0  0  0
  7 32  1  0  0  0  0
  8 33  1  0  0  0  0
  8 34  1  0  0  0  0
  8 35  1  0  0  0  0
  9 11  1  0  0  0  0
  9 36  1  0  0  0  0
  9 37  1  0  0  0  0
 10 17  1  0  0  0  0
 10 39  1  0  0  0  0
 10 40  1  0  0  0  0
 11 41  1  0  0  0  0
 11 42  1  0  0  0  0
 11 43  1  0  0  0  0
 12 14  1  0  0  0  0
 13 15  1  0  0  0  0
 13 16  1  0  0  0  0
 13 44  1  0  0  0  0
 13 45  1  0  0  0  0
 14 16  2  0  0  0  0
 14 48  1  0  0  0  0
 15 18  1  0  0  0  0
 15 46  1  0  0  0  0
 15 47  1  0  0  0  0
 16 49  1  0  0  0  0
 17 20  3  0  0  0  0
 18 19  2  0  0  0  0
 18 50  1  0  0  0  0
 19 21  1  0  0  0  0
 19 51  1  0  0  0  0
 20 22  1  0  0  0  0
 21 22  2  0  0  0  0
 21 52  1  0  0  0  0
 22 53  1  0  0  0  0
M  END
> <PUBCHEM_COMPOUND_CID>
5281152

> <PUBCHEM_CONFORMER_RMSD>
1.2

> <PUBCHEM_CONFORMER_DIVERSEORDER>
1
29
26
84
44
79
47
11
58
85
64
17
59
30
70
16
18
68
7
51
15
38
75
13
66
81
20
86
48
53
61
37
21
74
27
6
41
22
39
72
25
57
9
82
69
3
60
52
2
50
10
28
71
23
65
77
34
33
76
4
5
73
63
78
49
36
12
8
62
35
80
42
67
83
19
56
45
54
32
46
14
24
55
43
40
31

> <PUBCHEM_MMFF94_PARTIAL_CHARGES>
22
1 -0.57
10 0.2
12 0.62
13 0.14
14 -0.14
15 0.14
16 -0.29
17 -0.2
18 -0.29
19 -0.15
2 -0.73
20 -0.06
21 -0.15
22 -0.09
38 0.37
4 0.3
48 0.15
49 0.15
50 0.15
51 0.15
52 0.15
53 0.15

> <PUBCHEM_EFFECTIVE_ROTOR_COUNT>
11

> <PUBCHEM_PHARMACOPHORE_FEATURES>
6
1 1 acceptor
1 11 hydrophobe
1 2 donor
3 3 7 8 hydrophobe
4 13 15 16 18 hydrophobe
5 5 6 9 10 17 hydrophobe

> <PUBCHEM_HEAVY_ATOM_COUNT>
22

> <PUBCHEM_ATOM_DEF_STEREO_COUNT>
0

> <PUBCHEM_ATOM_UDEF_STEREO_COUNT>
0

> <PUBCHEM_BOND_DEF_STEREO_COUNT>
3

> <PUBCHEM_BOND_UDEF_STEREO_COUNT>
0

> <PUBCHEM_ISOTOPIC_ATOM_COUNT>
0

> <PUBCHEM_COMPONENT_COUNT>
1

> <PUBCHEM_CACTVS_TAUTO_COUNT>
2

> <PUBCHEM_CONFORMER_ID>
0050958000000001

> <PUBCHEM_MMFF94_ENERGY>
8.4706

> <PUBCHEM_FEATURE_SELFOVERLAP>
30.446

> <PUBCHEM_SHAPE_FINGERPRINT>
11059845 2 18199485405830910178
133061 13 18115602452203539808
13561361 72 18336542699539686056
14223995 32 18124875913787046276
14347329 18 18340187641010354340
15322535 138 18270677709249402509
15629462 23 16449787618682290606
16067690 210 18057044593132484104
20398071 114 18267013037062401789
21388113 180 17750237994110640760
21591340 35 17688026835510155248
21859007 373 18334006186860810318
4573279 150 17909862013040615090
508706 21 18408600336189319524
574716 61 14345785012174007586
9849439 229 18197782309300536649

> <PUBCHEM_SHAPE_MULTIPOLES>
441.9
13.75
6.41
2.27
16.14
1.93
1.21
9.73
3.46
-10.15
0.03
4.92
0.53
4.06

> <PUBCHEM_SHAPE_SELFOVERLAP>
836.722

> <PUBCHEM_SHAPE_VOLUME>
270.9

> <PUBCHEM_COORDINATE_TYPE>
2
5
10

$$$$

