46173881
  -OEChem-07051213103D

 64 64  0     1  0  0  0  0  0999 V2000
    0.8848   -0.5134   -1.9643 S   0  0  0  0  0  0  0  0  0  0  0  0
   -1.9469   -2.7540    0.7799 S   0  0  1  0  0  0  0  0  0  0  0  0
   -0.9624    2.7068    1.6317 S   0  0  0  0  0  0  0  0  0  0  0  0
    2.9033    0.6373   -0.6827 O   0  0  0  0  0  0  0  0  0  0  0  0
    5.2710   -2.7163   -0.4521 O   0  0  0  0  0  0  0  0  0  0  0  0
    5.8707   -0.4450    1.1934 O   0  0  0  0  0  0  0  0  0  0  0  0
    2.4230   -3.0048   -0.8563 O   0  0  0  0  0  0  0  0  0  0  0  0
    3.4497    3.0153    0.5620 O   0  0  0  0  0  0  0  0  0  0  0  0
   -0.8927    2.3219    0.0474 O   0  0  0  0  0  0  0  0  0  0  0  0
   -1.9334   -4.2287    0.5204 O   0  0  0  0  0  0  0  0  0  0  0  0
   -2.0482    3.9227    1.6564 O   0  0  0  0  0  0  0  0  0  0  0  0
   -1.5383    1.5861    2.3507 O   0  0  0  0  0  0  0  0  0  0  0  0
    0.3211    3.2583    2.0249 O   0  0  0  0  0  0  0  0  0  0  0  0
   -0.1055    1.1889   -0.1724 N   0  0  0  0  0  0  0  0  0  0  0  0
    4.2873   -1.7830   -0.0009 C   0  0  1  0  0  0  0  0  0  0  0  0
    4.9437   -0.4063    0.1115 C   0  0  1  0  0  0  0  0  0  0  0  0
    3.1183   -1.7662   -0.9909 C   0  0  2  0  0  0  0  0  0  0  0  0
    3.8881    0.6764    0.3506 C   0  0  1  0  0  0  0  0  0  0  0  0
    2.1774   -0.5914   -0.7057 C   0  0  2  0  0  0  0  0  0  0  0  0
    4.4894    2.0785    0.3462 C   0  0  0  0  0  0  0  0  0  0  0  0
   -3.0685    1.1680   -1.6476 C   0  0  0  0  0  0  0  0  0  0  0  0
   -4.4723    0.6747   -2.0036 C   0  0  0  0  0  0  0  0  0  0  0  0
   -2.1373    1.1327   -2.8626 C   0  0  0  0  0  0  0  0  0  0  0  0
   -5.4368    0.6854   -0.8131 C   0  0  0  0  0  0  0  0  0  0  0  0
   -0.7287    1.6504   -2.5580 C   0  0  0  0  0  0  0  0  0  0  0  0
   -0.0525    0.8863   -1.4315 C   0  0  0  0  0  0  0  0  0  0  0  0
   -5.0514   -0.2167    0.3638 C   0  0  0  0  0  0  0  0  0  0  0  0
   -4.9935   -1.7162    0.0565 C   0  0  0  0  0  0  0  0  0  0  0  0
   -4.6852   -2.6301    1.2496 C   0  0  0  0  0  0  0  0  0  0  0  0
   -3.3283   -2.4208    1.9132 C   0  0  0  0  0  0  0  0  0  0  0  0
   -0.6456   -2.3969    1.9838 C   0  0  0  0  0  0  0  0  0  0  0  0
    3.9598   -2.1392    0.9833 H   0  0  0  0  0  0  0  0  0  0  0  0
    5.5128   -0.1926   -0.8013 H   0  0  0  0  0  0  0  0  0  0  0  0
    3.5141   -1.7158   -2.0132 H   0  0  0  0  0  0  0  0  0  0  0  0
    3.3853    0.5278    1.3160 H   0  0  0  0  0  0  0  0  0  0  0  0
    1.6819   -0.7393    0.2617 H   0  0  0  0  0  0  0  0  0  0  0  0
    5.2386    2.1945    1.1352 H   0  0  0  0  0  0  0  0  0  0  0  0
    4.9460    2.3040   -0.6232 H   0  0  0  0  0  0  0  0  0  0  0  0
    5.5798   -2.4297   -1.3285 H   0  0  0  0  0  0  0  0  0  0  0  0
    5.3696   -0.5937    2.0134 H   0  0  0  0  0  0  0  0  0  0  0  0
   -3.1357    2.1903   -1.2587 H   0  0  0  0  0  0  0  0  0  0  0  0
   -2.6604    0.5287   -0.8601 H   0  0  0  0  0  0  0  0  0  0  0  0
   -4.4173   -0.3337   -2.4293 H   0  0  0  0  0  0  0  0  0  0  0  0
   -4.8882    1.3186   -2.7886 H   0  0  0  0  0  0  0  0  0  0  0  0
    2.0670   -3.0541    0.0468 H   0  0  0  0  0  0  0  0  0  0  0  0
   -2.0731    0.1024   -3.2339 H   0  0  0  0  0  0  0  0  0  0  0  0
   -2.5654    1.7359   -3.6722 H   0  0  0  0  0  0  0  0  0  0  0  0
   -5.5325    1.7146   -0.4450 H   0  0  0  0  0  0  0  0  0  0  0  0
   -6.4316    0.3920   -1.1705 H   0  0  0  0  0  0  0  0  0  0  0  0
   -0.1185    1.5819   -3.4667 H   0  0  0  0  0  0  0  0  0  0  0  0
   -0.7705    2.7160   -2.3064 H   0  0  0  0  0  0  0  0  0  0  0  0
   -4.0952    0.1176    0.7790 H   0  0  0  0  0  0  0  0  0  0  0  0
   -5.7914   -0.0604    1.1593 H   0  0  0  0  0  0  0  0  0  0  0  0
   -5.9661   -2.0190   -0.3524 H   0  0  0  0  0  0  0  0  0  0  0  0
   -4.2647   -1.9011   -0.7397 H   0  0  0  0  0  0  0  0  0  0  0  0
   -4.7668   -3.6715    0.9130 H   0  0  0  0  0  0  0  0  0  0  0  0
   -5.4661   -2.4894    2.0072 H   0  0  0  0  0  0  0  0  0  0  0  0
    3.8536    3.8997    0.5523 H   0  0  0  0  0  0  0  0  0  0  0  0
   -3.2299   -1.3966    2.2850 H   0  0  0  0  0  0  0  0  0  0  0  0
   -3.2335   -3.0996    2.7675 H   0  0  0  0  0  0  0  0  0  0  0  0
    0.3224   -2.5949    1.5196 H   0  0  0  0  0  0  0  0  0  0  0  0
   -0.7615   -3.0362    2.8621 H   0  0  0  0  0  0  0  0  0  0  0  0
   -0.6966   -1.3453    2.2748 H   0  0  0  0  0  0  0  0  0  0  0  0
   -2.2393    4.2998    2.5471 H   0  0  0  0  0  0  0  0  0  0  0  0
  1 19  1  0  0  0  0
  1 26  1  0  0  0  0
  2 10  2  0  0  0  0
  2 30  1  0  0  0  0
  2 31  1  0  0  0  0
  3  9  1  0  0  0  0
  3 11  1  0  0  0  0
  3 12  2  0  0  0  0
  3 13  2  0  0  0  0
  4 18  1  0  0  0  0
  4 19  1  0  0  0  0
  5 15  1  0  0  0  0
  5 39  1  0  0  0  0
  6 16  1  0  0  0  0
  6 40  1  0  0  0  0
  7 17  1  0  0  0  0
  7 45  1  0  0  0  0
  8 20  1  0  0  0  0
  8 58  1  0  0  0  0
  9 14  1  0  0  0  0
 11 64  1  0  0  0  0
 14 26  2  0  0  0  0
 15 16  1  0  0  0  0
 15 17  1  0  0  0  0
 15 32  1  0  0  0  0
 16 18  1  0  0  0  0
 16 33  1  0  0  0  0
 17 19  1  0  0  0  0
 17 34  1  0  0  0  0
 18 20  1  0  0  0  0
 18 35  1  0  0  0  0
 19 36  1  0  0  0  0
 20 37  1  0  0  0  0
 20 38  1  0  0  0  0
 21 22  1  0  0  0  0
 21 23  1  0  0  0  0
 21 41  1  0  0  0  0
 21 42  1  0  0  0  0
 22 24  1  0  0  0  0
 22 43  1  0  0  0  0
 22 44  1  0  0  0  0
 23 25  1  0  0  0  0
 23 46  1  0  0  0  0
 23 47  1  0  0  0  0
 24 27  1  0  0  0  0
 24 48  1  0  0  0  0
 24 49  1  0  0  0  0
 25 26  1  0  0  0  0
 25 50  1  0  0  0  0
 25 51  1  0  0  0  0
 27 28  1  0  0  0  0
 27 52  1  0  0  0  0
 27 53  1  0  0  0  0
 28 29  1  0  0  0  0
 28 54  1  0  0  0  0
 28 55  1  0  0  0  0
 29 30  1  0  0  0  0
 29 56  1  0  0  0  0
 29 57  1  0  0  0  0
 30 59  1  0  0  0  0
 30 60  1  0  0  0  0
 31 61  1  0  0  0  0
 31 62  1  0  0  0  0
 31 63  1  0  0  0  0
M  END
> <PUBCHEM_COMPOUND_CID>
46173881

> <PUBCHEM_CONFORMER_RMSD>
1.2

> <PUBCHEM_CONFORMER_DIVERSEORDER>
1
101
56
4
32
69
155
6
80
98
181
134
63
36
85
53
157
94
30
45
113
37
132
42
92
33
13
34
58
11
84
164
175
130
163
9
137
143
172
169
79
72
153
65
59
78
57
118
104
171
90
141
120
99
135
50
60
106
97
167
174
91
68
21
178
76
75
177
88
138
147
131
139
31
166
148
149
116
55
61
67
19
25
115
108
179
89
109
125
26
114
27
87
151
20
111
7
121
123
119
29
102
47
93
126
136
38
62
95
154
73
168
152
100
117
129
5
110
77
127
54
124
176
83
41
150
74
128
180
165
66
142
160
159
2
16
170
144
24
145
70
44
40
140
146
161
133
162
156
81
52
173
43
82
107
71
28
3
46
122
96
51
158
10
23
48
14
103
15
8
35
18
12
22
86
112
17
39
49
105
64

> <PUBCHEM_MMFF94_PARTIAL_CHARGES>
29
1 -0.37
10 -0.5
11 -0.68
12 -0.65
13 -0.65
14 -0.51
15 0.28
16 0.28
17 0.28
18 0.28
19 0.51
2 0.11
20 0.28
25 0.06
26 0.53
3 1.67
30 0.19
31 0.19
39 0.4
4 -0.56
40 0.4
45 0.4
5 -0.68
58 0.4
6 -0.68
64 0.5
7 -0.68
8 -0.68
9 -0.12

> <PUBCHEM_EFFECTIVE_ROTOR_COUNT>
16.2

> <PUBCHEM_PHARMACOPHORE_FEATURES>
16
1 10 acceptor
1 11 acceptor
1 12 acceptor
1 13 acceptor
1 14 acceptor
1 4 acceptor
1 5 acceptor
1 5 donor
1 6 acceptor
1 6 donor
1 7 acceptor
1 7 donor
1 8 acceptor
1 8 donor
4 3 11 12 13 anion
6 4 15 16 17 18 19 rings

> <PUBCHEM_HEAVY_ATOM_COUNT>
31

> <PUBCHEM_ATOM_DEF_STEREO_COUNT>
5

> <PUBCHEM_ATOM_UDEF_STEREO_COUNT>
1

> <PUBCHEM_BOND_DEF_STEREO_COUNT>
0

> <PUBCHEM_BOND_UDEF_STEREO_COUNT>
1

> <PUBCHEM_ISOTOPIC_ATOM_COUNT>
0

> <PUBCHEM_COMPONENT_COUNT>
1

> <PUBCHEM_CACTVS_TAUTO_COUNT>
1

> <PUBCHEM_CONFORMER_ID>
02C08EB900000001

> <PUBCHEM_MMFF94_ENERGY>
43.4241

> <PUBCHEM_FEATURE_SELFOVERLAP>
81.269

> <PUBCHEM_SHAPE_FINGERPRINT>
11828532 37 16698917888277667395
13402501 40 18343585157256740423
14251757 17 18342741797583479643
14840074 17 16878217559425175865
23419403 2 18264777553929863057
3380486 145 18193828254764780939
392239 28 18334572464685605923
56638632 10 17103408363889896841

> <PUBCHEM_SHAPE_MULTIPOLES>
585.84
11.75
4.64
2.51
4.23
1.09
0.24
4.67
-0.36
-1.31
-2.44
-1.77
-1.61
2.64

> <PUBCHEM_SHAPE_SELFOVERLAP>
1104.542

> <PUBCHEM_SHAPE_VOLUME>
363

> <PUBCHEM_COORDINATE_TYPE>
2
5
10

$$$$

