24135
  -OEChem-07051213002D

 23 23  0     0  0  0  0  0  0999 V2000
    4.2690   -2.0000    0.0000 O   0  0  0  0  0  0  0  0  0  0  0  0
    2.5369    1.0000    0.0000 O   0  0  0  0  0  0  0  0  0  0  0  0
    6.0010    1.0000    0.0000 O   0  0  0  0  0  0  0  0  0  0  0  0
    3.4030    2.5000    0.0000 O   0  0  0  0  0  0  0  0  0  0  0  0
    4.2690    1.0000    0.0000 C   0  0  0  0  0  0  0  0  0  0  0  0
    3.4030    0.5000    0.0000 C   0  0  0  0  0  0  0  0  0  0  0  0
    5.1350    0.5000    0.0000 C   0  0  0  0  0  0  0  0  0  0  0  0
    4.2690   -1.0000    0.0000 C   0  0  0  0  0  0  0  0  0  0  0  0
    3.4030   -0.5000    0.0000 C   0  0  0  0  0  0  0  0  0  0  0  0
    5.1350   -0.5000    0.0000 C   0  0  0  0  0  0  0  0  0  0  0  0
    4.2690    2.0000    0.0000 C   0  0  0  0  0  0  0  0  0  0  0  0
    5.1350    2.5000    0.0000 C   0  0  0  0  0  0  0  0  0  0  0  0
    3.4030   -2.5000    0.0000 C   0  0  0  0  0  0  0  0  0  0  0  0
    2.8660   -0.8100    0.0000 H   0  0  0  0  0  0  0  0  0  0  0  0
    5.6720   -0.8100    0.0000 H   0  0  0  0  0  0  0  0  0  0  0  0
    5.4450    1.9631    0.0000 H   0  0  0  0  0  0  0  0  0  0  0  0
    5.6720    2.8100    0.0000 H   0  0  0  0  0  0  0  0  0  0  0  0
    4.8250    3.0369    0.0000 H   0  0  0  0  0  0  0  0  0  0  0  0
    2.0000    0.6900    0.0000 H   0  0  0  0  0  0  0  0  0  0  0  0
    6.5380    0.6900    0.0000 H   0  0  0  0  0  0  0  0  0  0  0  0
    3.0930   -1.9631    0.0000 H   0  0  0  0  0  0  0  0  0  0  0  0
    2.8660   -2.8100    0.0000 H   0  0  0  0  0  0  0  0  0  0  0  0
    3.7130   -3.0369    0.0000 H   0  0  0  0  0  0  0  0  0  0  0  0
  1  8  1  0  0  0  0
  1 13  1  0  0  0  0
  2  6  1  0  0  0  0
  2 19  1  0  0  0  0
  3  7  1  0  0  0  0
  3 20  1  0  0  0  0
  4 11  2  0  0  0  0
  5  6  2  0  0  0  0
  5  7  1  0  0  0  0
  5 11  1  0  0  0  0
  6  9  1  0  0  0  0
  7 10  2  0  0  0  0
  8  9  2  0  0  0  0
  8 10  1  0  0  0  0
  9 14  1  0  0  0  0
 10 15  1  0  0  0  0
 11 12  1  0  0  0  0
 12 16  1  0  0  0  0
 12 17  1  0  0  0  0
 12 18  1  0  0  0  0
 13 21  1  0  0  0  0
 13 22  1  0  0  0  0
 13 23  1  0  0  0  0
M  END
> <PUBCHEM_COMPOUND_CID>
24135

> <PUBCHEM_COMPOUND_CANONICALIZED>
1

> <PUBCHEM_CACTVS_COMPLEXITY>
180

> <PUBCHEM_CACTVS_HBOND_ACCEPTOR>
4

> <PUBCHEM_CACTVS_HBOND_DONOR>
2

> <PUBCHEM_CACTVS_ROTATABLE_BOND>
2

> <PUBCHEM_CACTVS_SUBSKEYS>
AAADccBwOAAAAAAAAAAAAAAAAAAAAAAAAAAwAAAAAAAAAAABAAAAGgAACAAADASAmAIyBoAABgCIAqBSAAACCAAkIAAAiAEGCMgMJzaGNRqAcWAl4BUIuQeI7KzOIAAACAAIAABAAAAQABAAAAAAAAAAAA==

> <PUBCHEM_IUPAC_OPENEYE_NAME>
1-(2,6-dihydroxy-4-methoxy-phenyl)ethanone

> <PUBCHEM_IUPAC_CAS_NAME>
1-(2,6-dihydroxy-4-methoxyphenyl)ethanone

> <PUBCHEM_IUPAC_NAME>
1-(2,6-dihydroxy-4-methoxyphenyl)ethanone

> <PUBCHEM_IUPAC_SYSTEMATIC_NAME>
1-[4-methoxy-2,6-bis(oxidanyl)phenyl]ethanone

> <PUBCHEM_IUPAC_TRADITIONAL_NAME>
1-(2,6-dihydroxy-4-methoxy-phenyl)ethanone

> <PUBCHEM_IUPAC_INCHI>
InChI=1S/C9H10O4/c1-5(10)9-7(11)3-6(13-2)4-8(9)12/h3-4,11-12H,1-2H3

> <PUBCHEM_IUPAC_INCHIKEY>
GKSGTWUNURZTKD-UHFFFAOYSA-N

> <PUBCHEM_XLOGP3_AA>
1.4

> <PUBCHEM_EXACT_MASS>
182.057909

> <PUBCHEM_MOLECULAR_FORMULA>
C9H10O4

> <PUBCHEM_MOLECULAR_WEIGHT>
182.1733

> <PUBCHEM_OPENEYE_CAN_SMILES>
CC(=O)C1=C(C=C(C=C1O)OC)O

> <PUBCHEM_OPENEYE_ISO_SMILES>
CC(=O)C1=C(C=C(C=C1O)OC)O

> <PUBCHEM_CACTVS_TPSA>
66.8

> <PUBCHEM_MONOISOTOPIC_WEIGHT>
182.057909

> <PUBCHEM_TOTAL_CHARGE>
0

> <PUBCHEM_HEAVY_ATOM_COUNT>
13

> <PUBCHEM_ATOM_DEF_STEREO_COUNT>
0

> <PUBCHEM_ATOM_UDEF_STEREO_COUNT>
0

> <PUBCHEM_BOND_DEF_STEREO_COUNT>
0

> <PUBCHEM_BOND_UDEF_STEREO_COUNT>
0

> <PUBCHEM_ISOTOPIC_ATOM_COUNT>
0

> <PUBCHEM_COMPONENT_COUNT>
1

> <PUBCHEM_CACTVS_TAUTO_COUNT>
12

> <PUBCHEM_COORDINATE_TYPE>
1
5
255

> <PUBCHEM_BONDANNOTATIONS>
5  6  8
5  7  8
6  9  8
7  10  8
8  10  8
8  9  8

$$$$

