47205187
  -OEChem-06241222583D

 42 42  0     1  0  0  0  0  0999 V2000
    4.8793    1.3625   -0.2392 S   0  0  0  0  0  0  0  0  0  0  0  0
   -3.7549   -1.1943   -1.1264 O   0  0  0  0  0  0  0  0  0  0  0  0
    6.3287    1.4295   -0.2545 O   0  0  0  0  0  0  0  0  0  0  0  0
    4.1122    1.7315   -1.4122 O   0  0  0  0  0  0  0  0  0  0  0  0
   -1.9739   -0.6588    0.2661 N   0  0  0  0  0  0  0  0  0  0  0  0
    4.4125   -0.1915    0.3381 N   0  0  0  0  0  0  0  0  0  0  0  0
   -1.0887   -1.7226   -0.1488 C   0  0  1  0  0  0  0  0  0  0  0  0
    0.3638   -1.3173   -0.0201 C   0  0  0  0  0  0  0  0  0  0  0  0
   -3.9489    0.7086    0.3564 C   0  0  0  0  0  0  0  0  0  0  0  0
   -5.3500    0.9198   -0.2126 C   0  0  0  0  0  0  0  0  0  0  0  0
   -1.4101   -3.0032    0.6191 C   0  0  0  0  0  0  0  0  0  0  0  0
   -3.2439   -0.4847   -0.2642 C   0  0  0  0  0  0  0  0  0  0  0  0
   -6.0498    2.1020    0.4563 C   0  0  0  0  0  0  0  0  0  0  0  0
    1.1651   -1.2246   -1.1581 C   0  0  0  0  0  0  0  0  0  0  0  0
    0.9015   -1.0372    1.2361 C   0  0  0  0  0  0  0  0  0  0  0  0
    3.0418   -0.5724    0.2164 C   0  0  0  0  0  0  0  0  0  0  0  0
    2.5041   -0.8522   -1.0399 C   0  0  0  0  0  0  0  0  0  0  0  0
    2.2405   -0.6648    1.3544 C   0  0  0  0  0  0  0  0  0  0  0  0
   -7.4595    2.2916   -0.0808 C   0  0  0  0  0  0  0  0  0  0  0  0
    4.3303    2.3782    1.1140 C   0  0  0  0  0  0  0  0  0  0  0  0
   -1.3031   -1.9251   -1.2064 H   0  0  0  0  0  0  0  0  0  0  0  0
   -4.0054    0.5452    1.4394 H   0  0  0  0  0  0  0  0  0  0  0  0
   -3.3351    1.6002    0.1809 H   0  0  0  0  0  0  0  0  0  0  0  0
   -5.2885    1.0889   -1.2949 H   0  0  0  0  0  0  0  0  0  0  0  0
   -5.9464    0.0101   -0.0691 H   0  0  0  0  0  0  0  0  0  0  0  0
   -1.6663   -0.0328    1.0054 H   0  0  0  0  0  0  0  0  0  0  0  0
   -2.4400   -3.3249    0.4278 H   0  0  0  0  0  0  0  0  0  0  0  0
   -0.7428   -3.8191    0.3204 H   0  0  0  0  0  0  0  0  0  0  0  0
   -1.3125   -2.8681    1.7022 H   0  0  0  0  0  0  0  0  0  0  0  0
   -6.0983    1.9423    1.5398 H   0  0  0  0  0  0  0  0  0  0  0  0
   -5.4731    3.0191    0.2888 H   0  0  0  0  0  0  0  0  0  0  0  0
    0.7619   -1.4420   -2.1435 H   0  0  0  0  0  0  0  0  0  0  0  0
    0.2928   -1.0994    2.1340 H   0  0  0  0  0  0  0  0  0  0  0  0
    3.1189   -0.7971   -1.9345 H   0  0  0  0  0  0  0  0  0  0  0  0
    2.6484   -0.4470    2.3381 H   0  0  0  0  0  0  0  0  0  0  0  0
   -8.0721    1.4031    0.1024 H   0  0  0  0  0  0  0  0  0  0  0  0
   -7.4459    2.4837   -1.1585 H   0  0  0  0  0  0  0  0  0  0  0  0
   -7.9408    3.1432    0.4101 H   0  0  0  0  0  0  0  0  0  0  0  0
    4.8468   -0.4755    1.2267 H   0  0  0  0  0  0  0  0  0  0  0  0
    4.6314    3.4072    0.9045 H   0  0  0  0  0  0  0  0  0  0  0  0
    3.2432    2.3232    1.1896 H   0  0  0  0  0  0  0  0  0  0  0  0
    4.8078    2.0349    2.0337 H   0  0  0  0  0  0  0  0  0  0  0  0
  1  3  2  0  0  0  0
  1  4  2  0  0  0  0
  1  6  1  0  0  0  0
  1 20  1  0  0  0  0
  2 12  2  0  0  0  0
  5  7  1  0  0  0  0
  5 12  1  0  0  0  0
  5 26  1  0  0  0  0
  6 16  1  0  0  0  0
  6 39  1  0  0  0  0
  7  8  1  0  0  0  0
  7 11  1  0  0  0  0
  7 21  1  0  0  0  0
  8 14  2  0  0  0  0
  8 15  1  0  0  0  0
  9 10  1  0  0  0  0
  9 12  1  0  0  0  0
  9 22  1  0  0  0  0
  9 23  1  0  0  0  0
 10 13  1  0  0  0  0
 10 24  1  0  0  0  0
 10 25  1  0  0  0  0
 11 27  1  0  0  0  0
 11 28  1  0  0  0  0
 11 29  1  0  0  0  0
 13 19  1  0  0  0  0
 13 30  1  0  0  0  0
 13 31  1  0  0  0  0
 14 17  1  0  0  0  0
 14 32  1  0  0  0  0
 15 18  2  0  0  0  0
 15 33  1  0  0  0  0
 16 17  2  0  0  0  0
 16 18  1  0  0  0  0
 17 34  1  0  0  0  0
 18 35  1  0  0  0  0
 19 36  1  0  0  0  0
 19 37  1  0  0  0  0
 19 38  1  0  0  0  0
 20 40  1  0  0  0  0
 20 41  1  0  0  0  0
 20 42  1  0  0  0  0
M  END
> <PUBCHEM_COMPOUND_CID>
47205187

> <PUBCHEM_CONFORMER_RMSD>
1

> <PUBCHEM_CONFORMER_DIVERSEORDER>
1
49
82
148
70
18
8
87
85
9
131
22
63
101
140
86
119
46
125
76
80
115
120
93
32
122
20
117
60
5
99
146
29
52
124
50
55
37
135
90
111
74
16
15
81
84
62
2
130
143
103
123
132
72
11
61
118
141
57
77
10
129
21
88
106
109
14
59
94
127
136
113
25
23
4
137
134
114
17
116
68
35
64
54
138
12
105
79
73
78
83
53
31
67
149
139
96
42
133
47
151
39
7
128
3
150
121
58
144
75
97
147
145
19
104
44
107
36
89
27
92
66
34
48
126
26
43
30
102
71
28
41
24
6
56
33
95
142
45
13
108
65
100
69
91
38
40
112
110
98
51

> <PUBCHEM_MMFF94_PARTIAL_CHARGES>
22
1 1.33
12 0.57
14 -0.15
15 -0.15
16 0.2
17 -0.15
18 -0.15
2 -0.57
20 0.11
26 0.37
3 -0.65
32 0.15
33 0.15
34 0.15
35 0.15
39 0.42
4 -0.65
5 -0.73
6 -0.76
7 0.44
8 -0.14
9 0.06

> <PUBCHEM_EFFECTIVE_ROTOR_COUNT>
8

> <PUBCHEM_PHARMACOPHORE_FEATURES>
7
1 19 hydrophobe
1 2 acceptor
1 3 acceptor
1 4 acceptor
1 5 donor
1 6 donor
6 8 14 15 16 17 18 rings

> <PUBCHEM_HEAVY_ATOM_COUNT>
20

> <PUBCHEM_ATOM_DEF_STEREO_COUNT>
0

> <PUBCHEM_ATOM_UDEF_STEREO_COUNT>
1

> <PUBCHEM_BOND_DEF_STEREO_COUNT>
0

> <PUBCHEM_BOND_UDEF_STEREO_COUNT>
0

> <PUBCHEM_ISOTOPIC_ATOM_COUNT>
0

> <PUBCHEM_COMPONENT_COUNT>
1

> <PUBCHEM_CACTVS_TAUTO_COUNT>
2

> <PUBCHEM_CONFORMER_ID>
02D04B4300000001

> <PUBCHEM_MMFF94_ENERGY>
36.2498

> <PUBCHEM_FEATURE_SELFOVERLAP>
35.538

> <PUBCHEM_SHAPE_FINGERPRINT>
10498660 4 18113334197884437481
10753850 27 8646481913040565749
12596602 18 17918272061052697233
12633257 1 16772127834756370200
12892183 10 15912776110421543903
13668630 136 5978093640792854165
13675066 3 16200442363993834590
13885169 86 18411130338726800145
13955234 65 17985263234465048811
1420 369 9295289447676857657
14251740 57 11383842596896814720
14251751 18 9511193940548080944
14251764 38 17977105660844668136
14576447 43 6483363214030678540
15188451 53 12031781462471943485
15209294 21 17703236105190003670
15238133 3 18337966631653716448
15778101 99 18341328920414459147
17134984 74 4895260495533324349
1768 124 11815885765583681393
17834072 32 18410012122088584353
17959699 21 18336265652457551136
18335252 114 18260832643695835700
193927 3 7853581256978919076
20526848 3 18413385440789898757
20715895 44 18335419071554375032
21637258 2 7420950846394060022
23402655 69 17676207996054886895
23557571 272 18194390109580753614
23559900 14 18260829341130222670
25122255 55 8069734226963091221
270888 7 18411138052271460885
2838139 119 18263085431415263300
2916195 48 18409729547869277827
29717793 49 6194834874311881747
316301 35 10303515196282969405
33382 64 10303815393032465092
3472631 163 18335140908192258389
351380 3 9079113354164549977
465052 167 11024103252754077704
474 4 17846218783535898926
5104073 3 17846786186790626090
633830 44 18409735101130772591
76465 3 9007061261742351378
77188 2 17259344895693123403
7808743 9 18411703175441073051
7970288 3 8934707899683544461

> <PUBCHEM_SHAPE_MULTIPOLES>
387.87
15.9
2.82
1.16
16.38
0.22
0
17.82
0.9
0.91
-0.32
-0.87
-0.07
-0.28

> <PUBCHEM_SHAPE_SELFOVERLAP>
762.806

> <PUBCHEM_SHAPE_VOLUME>
233.6

> <PUBCHEM_COORDINATE_TYPE>
2
5
10

$$$$

