5281781
  -OEChem-07051212592D

 37 39  0     0  0  0  0  0  0999 V2000
    6.3580    1.4917    0.0000 O   0  0  0  0  0  0  0  0  0  0  0  0
    2.8660   -0.5429    0.0000 O   0  0  0  0  0  0  0  0  0  0  0  0
    4.5981   -1.5429    0.0000 O   0  0  0  0  0  0  0  0  0  0  0  0
    6.3465   -1.5775    0.0000 O   0  0  0  0  0  0  0  0  0  0  0  0
    2.8660    1.4571    0.0000 O   0  0  0  0  0  0  0  0  0  0  0  0
   10.7205   -2.0771    0.0000 O   0  0  0  0  0  0  0  0  0  0  0  0
    5.4641   -0.0429    0.0000 C   0  0  0  0  0  0  0  0  0  0  0  0
    7.2641   -0.0637    0.0000 C   0  0  0  0  0  0  0  0  0  0  0  0
    5.4641    0.9571    0.0000 C   0  0  0  0  0  0  0  0  0  0  0  0
    6.3580   -0.5776    0.0000 C   0  0  0  0  0  0  0  0  0  0  0  0
    8.1282   -0.5671    0.0000 C   0  0  0  0  0  0  0  0  0  0  0  0
    4.5981   -0.5429    0.0000 C   0  0  0  0  0  0  0  0  0  0  0  0
    3.7320   -0.0429    0.0000 C   0  0  0  0  0  0  0  0  0  0  0  0
    4.5981    1.4571    0.0000 C   0  0  0  0  0  0  0  0  0  0  0  0
    7.2641    0.9779    0.0000 C   0  0  0  0  0  0  0  0  0  0  0  0
    3.7320    0.9571    0.0000 C   0  0  0  0  0  0  0  0  0  0  0  0
    8.1244   -1.5671    0.0000 C   0  0  0  0  0  0  0  0  0  0  0  0
    8.9962   -0.0704    0.0000 C   0  0  0  0  0  0  0  0  0  0  0  0
    8.9884   -2.0704    0.0000 C   0  0  0  0  0  0  0  0  0  0  0  0
    9.8602   -0.5738    0.0000 C   0  0  0  0  0  0  0  0  0  0  0  0
    9.8564   -1.5737    0.0000 C   0  0  0  0  0  0  0  0  0  0  0  0
    2.0000   -0.0429    0.0000 C   0  0  0  0  0  0  0  0  0  0  0  0
   11.5884   -1.5804    0.0000 C   0  0  0  0  0  0  0  0  0  0  0  0
    4.5981    2.0771    0.0000 H   0  0  0  0  0  0  0  0  0  0  0  0
    7.7998    1.2900    0.0000 H   0  0  0  0  0  0  0  0  0  0  0  0
    7.5862   -1.8750    0.0000 H   0  0  0  0  0  0  0  0  0  0  0  0
    8.9985    0.5496    0.0000 H   0  0  0  0  0  0  0  0  0  0  0  0
    8.9860   -2.6904    0.0000 H   0  0  0  0  0  0  0  0  0  0  0  0
   10.3984   -0.2658    0.0000 H   0  0  0  0  0  0  0  0  0  0  0  0
    4.0611   -1.8529    0.0000 H   0  0  0  0  0  0  0  0  0  0  0  0
    2.8660    2.0771    0.0000 H   0  0  0  0  0  0  0  0  0  0  0  0
    2.3100    0.4940    0.0000 H   0  0  0  0  0  0  0  0  0  0  0  0
    1.4631    0.2671    0.0000 H   0  0  0  0  0  0  0  0  0  0  0  0
    1.6900   -0.5799    0.0000 H   0  0  0  0  0  0  0  0  0  0  0  0
   11.8964   -2.1186    0.0000 H   0  0  0  0  0  0  0  0  0  0  0  0
   12.1266   -1.2725    0.0000 H   0  0  0  0  0  0  0  0  0  0  0  0
   11.2805   -1.0423    0.0000 H   0  0  0  0  0  0  0  0  0  0  0  0
  1  9  1  0  0  0  0
  1 15  1  0  0  0  0
  2 13  1  0  0  0  0
  2 22  1  0  0  0  0
  3 12  1  0  0  0  0
  3 30  1  0  0  0  0
  4 10  2  0  0  0  0
  5 16  1  0  0  0  0
  5 31  1  0  0  0  0
  6 21  1  0  0  0  0
  6 23  1  0  0  0  0
  7  9  2  0  0  0  0
  7 10  1  0  0  0  0
  7 12  1  0  0  0  0
  8 10  1  0  0  0  0
  8 11  1  0  0  0  0
  8 15  2  0  0  0  0
  9 14  1  0  0  0  0
 11 17  2  0  0  0  0
 11 18  1  0  0  0  0
 12 13  2  0  0  0  0
 13 16  1  0  0  0  0
 14 16  2  0  0  0  0
 14 24  1  0  0  0  0
 15 25  1  0  0  0  0
 17 19  1  0  0  0  0
 17 26  1  0  0  0  0
 18 20  2  0  0  0  0
 18 27  1  0  0  0  0
 19 21  2  0  0  0  0
 19 28  1  0  0  0  0
 20 21  1  0  0  0  0
 20 29  1  0  0  0  0
 22 32  1  0  0  0  0
 22 33  1  0  0  0  0
 22 34  1  0  0  0  0
 23 35  1  0  0  0  0
 23 36  1  0  0  0  0
 23 37  1  0  0  0  0
M  END
> <PUBCHEM_COMPOUND_CID>
5281781

> <PUBCHEM_COMPOUND_CANONICALIZED>
1

> <PUBCHEM_CACTVS_COMPLEXITY>
468

> <PUBCHEM_CACTVS_HBOND_ACCEPTOR>
6

> <PUBCHEM_CACTVS_HBOND_DONOR>
2

> <PUBCHEM_CACTVS_ROTATABLE_BOND>
3

> <PUBCHEM_CACTVS_SUBSKEYS>
AAADccB4OAAAAAAAAAAAAAAAAAAAAAAAAAAwYIAAAAAAAACBQAAAGgAACAAADASgmAIyBoAABgCIAqBSAAACCAAkIAAIiAEGiMgNJzaGNRqAcWMl4BULuYfK7PzOIQABCAAIQABCAAIQABCAAAAAAAAAAA==

> <PUBCHEM_IUPAC_OPENEYE_NAME>
5,7-dihydroxy-6-methoxy-3-(4-methoxyphenyl)chromen-4-one

> <PUBCHEM_IUPAC_CAS_NAME>
5,7-dihydroxy-6-methoxy-3-(4-methoxyphenyl)-1-benzopyran-4-one

> <PUBCHEM_IUPAC_NAME>
5,7-dihydroxy-6-methoxy-3-(4-methoxyphenyl)chromen-4-one

> <PUBCHEM_IUPAC_SYSTEMATIC_NAME>
6-methoxy-3-(4-methoxyphenyl)-5,7-bis(oxidanyl)chromen-4-one

> <PUBCHEM_IUPAC_TRADITIONAL_NAME>
5,7-dihydroxy-6-methoxy-3-(4-methoxyphenyl)chromone

> <PUBCHEM_IUPAC_INCHI>
InChI=1S/C17H14O6/c1-21-10-5-3-9(4-6-10)11-8-23-13-7-12(18)17(22-2)16(20)14(13)15(11)19/h3-8,18,20H,1-2H3

> <PUBCHEM_IUPAC_INCHIKEY>
VOOFPOMXNLNEOF-UHFFFAOYSA-N

> <PUBCHEM_XLOGP3_AA>
3

> <PUBCHEM_EXACT_MASS>
314.079038

> <PUBCHEM_MOLECULAR_FORMULA>
C17H14O6

> <PUBCHEM_MOLECULAR_WEIGHT>
314.28946

> <PUBCHEM_OPENEYE_CAN_SMILES>
COC1=CC=C(C=C1)C2=COC3=CC(=C(C(=C3C2=O)O)OC)O

> <PUBCHEM_OPENEYE_ISO_SMILES>
COC1=CC=C(C=C1)C2=COC3=CC(=C(C(=C3C2=O)O)OC)O

> <PUBCHEM_CACTVS_TPSA>
85.2

> <PUBCHEM_MONOISOTOPIC_WEIGHT>
314.079038

> <PUBCHEM_TOTAL_CHARGE>
0

> <PUBCHEM_HEAVY_ATOM_COUNT>
23

> <PUBCHEM_ATOM_DEF_STEREO_COUNT>
0

> <PUBCHEM_ATOM_UDEF_STEREO_COUNT>
0

> <PUBCHEM_BOND_DEF_STEREO_COUNT>
0

> <PUBCHEM_BOND_UDEF_STEREO_COUNT>
0

> <PUBCHEM_ISOTOPIC_ATOM_COUNT>
0

> <PUBCHEM_COMPONENT_COUNT>
1

> <PUBCHEM_CACTVS_TAUTO_COUNT>
12

> <PUBCHEM_COORDINATE_TYPE>
1
5
255

> <PUBCHEM_BONDANNOTATIONS>
1  15  8
1  9  8
11  17  8
11  18  8
12  13  8
13  16  8
14  16  8
17  19  8
18  20  8
19  21  8
20  21  8
7  10  8
7  12  8
7  9  8
8  10  8
8  15  8
9  14  8

$$$$

