15402
  -OEChem-07051213012D

 19 19  0     0  0  0  0  0  0999 V2000
    4.0823    1.6307    0.0000 S   0  0  0  0  0  0  0  0  0  0  0  0
    4.8913    1.0429    0.0000 S   0  0  0  0  0  0  0  0  0  0  0  0
    2.9945   -0.7172    0.0000 N   0  0  0  0  0  0  0  0  0  0  0  0
    3.5823    0.0919    0.0000 C   0  0  0  0  0  0  0  0  0  0  0  0
    4.5823    0.0919    0.0000 C   0  0  0  0  0  0  0  0  0  0  0  0
    3.2733    1.0429    0.0000 C   0  0  0  0  0  0  0  0  0  0  0  0
    2.0000   -0.6126    0.0000 C   0  0  0  0  0  0  0  0  0  0  0  0
    3.4013   -1.6307    0.0000 C   0  0  0  0  0  0  0  0  0  0  0  0
    2.9699    0.1888    0.0000 H   0  0  0  0  0  0  0  0  0  0  0  0
    2.9633    1.5798    0.0000 H   0  0  0  0  0  0  0  0  0  0  0  0
    2.7069    0.7907    0.0000 H   0  0  0  0  0  0  0  0  0  0  0  0
    4.5175   -0.5247    0.0000 H   0  0  0  0  0  0  0  0  0  0  0  0
    5.1888   -0.0370    0.0000 H   0  0  0  0  0  0  0  0  0  0  0  0
    2.8349   -1.8829    0.0000 H   0  0  0  0  0  0  0  0  0  0  0  0
    3.6534   -2.1971    0.0000 H   0  0  0  0  0  0  0  0  0  0  0  0
    3.9677   -1.3785    0.0000 H   0  0  0  0  0  0  0  0  0  0  0  0
    2.0648    0.0040    0.0000 H   0  0  0  0  0  0  0  0  0  0  0  0
    1.3834   -0.5478    0.0000 H   0  0  0  0  0  0  0  0  0  0  0  0
    1.9352   -1.2292    0.0000 H   0  0  0  0  0  0  0  0  0  0  0  0
  1  2  1  0  0  0  0
  1  6  1  0  0  0  0
  2  5  1  0  0  0  0
  3  4  1  0  0  0  0
  3  7  1  0  0  0  0
  3  8  1  0  0  0  0
  4  5  1  0  0  0  0
  4  6  1  0  0  0  0
  4  9  1  0  0  0  0
  5 12  1  0  0  0  0
  5 13  1  0  0  0  0
  6 10  1  0  0  0  0
  6 11  1  0  0  0  0
  7 17  1  0  0  0  0
  7 18  1  0  0  0  0
  7 19  1  0  0  0  0
  8 14  1  0  0  0  0
  8 15  1  0  0  0  0
  8 16  1  0  0  0  0
M  END
> <PUBCHEM_COMPOUND_CID>
15402

> <PUBCHEM_COMPOUND_CANONICALIZED>
1

> <PUBCHEM_CACTVS_COMPLEXITY>
68.8

> <PUBCHEM_CACTVS_HBOND_ACCEPTOR>
3

> <PUBCHEM_CACTVS_HBOND_DONOR>
0

> <PUBCHEM_CACTVS_ROTATABLE_BOND>
1

> <PUBCHEM_CACTVS_SUBSKEYS>
AAADccBiAABgAAAAAAAAAAAAAAAAASAAAAAAAAAAAAAAAAAAAAAAHAQAAAAACCjFQASCAAMAAAAAAAAAAAAAAAAAAAAAAAAIAAAAAAAAAAAAAAAAAAAAAAAAAAAAAAAAAAAAAAAAAAAAAAAAAAAAAAAAAA==

> <PUBCHEM_IUPAC_OPENEYE_NAME>
N,N-dimethyldithiolan-4-amine

> <PUBCHEM_IUPAC_CAS_NAME>
N,N-dimethyl-4-dithiolanamine

> <PUBCHEM_IUPAC_NAME>
N,N-dimethyldithiolan-4-amine

> <PUBCHEM_IUPAC_SYSTEMATIC_NAME>
N,N-dimethyl-1,2-dithiolan-4-amine

> <PUBCHEM_IUPAC_TRADITIONAL_NAME>
dithiolan-4-yl(dimethyl)amine

> <PUBCHEM_IUPAC_INCHI>
InChI=1S/C5H11NS2/c1-6(2)5-3-7-8-4-5/h5H,3-4H2,1-2H3

> <PUBCHEM_IUPAC_INCHIKEY>
DSOOGBGKEWZRIH-UHFFFAOYSA-N

> <PUBCHEM_XLOGP3_AA>
0.8

> <PUBCHEM_EXACT_MASS>
149.033291

> <PUBCHEM_MOLECULAR_FORMULA>
C5H11NS2

> <PUBCHEM_MOLECULAR_WEIGHT>
149.27754

> <PUBCHEM_OPENEYE_CAN_SMILES>
CN(C)C1CSSC1

> <PUBCHEM_OPENEYE_ISO_SMILES>
CN(C)C1CSSC1

> <PUBCHEM_CACTVS_TPSA>
53.8

> <PUBCHEM_MONOISOTOPIC_WEIGHT>
149.033291

> <PUBCHEM_TOTAL_CHARGE>
0

> <PUBCHEM_HEAVY_ATOM_COUNT>
8

> <PUBCHEM_ATOM_DEF_STEREO_COUNT>
0

> <PUBCHEM_ATOM_UDEF_STEREO_COUNT>
0

> <PUBCHEM_BOND_DEF_STEREO_COUNT>
0

> <PUBCHEM_BOND_UDEF_STEREO_COUNT>
0

> <PUBCHEM_ISOTOPIC_ATOM_COUNT>
0

> <PUBCHEM_COMPONENT_COUNT>
1

> <PUBCHEM_CACTVS_TAUTO_COUNT>
1

> <PUBCHEM_COORDINATE_TYPE>
1
5
255

$$$$

