21082
  -OEChem-07051213083D

 26 28  0     0  0  0  0  0  0999 V2000
    0.0001   -2.7650   -0.0002 O   0  0  0  0  0  0  0  0  0  0  0  0
   -0.0002    2.7649    0.0001 O   0  0  0  0  0  0  0  0  0  0  0  0
   -1.2251   -0.7060    0.0001 C   0  0  0  0  0  0  0  0  0  0  0  0
   -1.2251    0.7060    0.0000 C   0  0  0  0  0  0  0  0  0  0  0  0
    1.2251   -0.7061   -0.0001 C   0  0  0  0  0  0  0  0  0  0  0  0
    1.2251    0.7061   -0.0001 C   0  0  0  0  0  0  0  0  0  0  0  0
    0.0001   -1.3937    0.0000 C   0  0  0  0  0  0  0  0  0  0  0  0
    0.0000    1.3937   -0.0001 C   0  0  0  0  0  0  0  0  0  0  0  0
   -2.4504   -1.3930    0.0002 C   0  0  0  0  0  0  0  0  0  0  0  0
   -2.4505    1.3929   -0.0001 C   0  0  0  0  0  0  0  0  0  0  0  0
    2.4506   -1.3929    0.0001 C   0  0  0  0  0  0  0  0  0  0  0  0
    2.4505    1.3930   -0.0001 C   0  0  0  0  0  0  0  0  0  0  0  0
   -3.6587   -0.6957    0.0001 C   0  0  0  0  0  0  0  0  0  0  0  0
   -3.6587    0.6955   -0.0001 C   0  0  0  0  0  0  0  0  0  0  0  0
    3.6587   -0.6956    0.0001 C   0  0  0  0  0  0  0  0  0  0  0  0
    3.6587    0.6956    0.0001 C   0  0  0  0  0  0  0  0  0  0  0  0
   -2.4886   -2.4801    0.0003 H   0  0  0  0  0  0  0  0  0  0  0  0
   -2.4886    2.4800   -0.0001 H   0  0  0  0  0  0  0  0  0  0  0  0
    2.5102   -2.4776   -0.0176 H   0  0  0  0  0  0  0  0  0  0  0  0
    2.5101    2.4778   -0.0180 H   0  0  0  0  0  0  0  0  0  0  0  0
   -4.5991   -1.2391    0.0001 H   0  0  0  0  0  0  0  0  0  0  0  0
   -4.5990    1.2390   -0.0001 H   0  0  0  0  0  0  0  0  0  0  0  0
    4.5993   -1.2387   -0.0049 H   0  0  0  0  0  0  0  0  0  0  0  0
    4.5993    1.2387   -0.0049 H   0  0  0  0  0  0  0  0  0  0  0  0
    0.7269   -3.0905    0.5548 H   0  0  0  0  0  0  0  0  0  0  0  0
    0.7270    3.0905    0.5548 H   0  0  0  0  0  0  0  0  0  0  0  0
  1  7  1  0  0  0  0
  1 25  1  0  0  0  0
  2  8  1  0  0  0  0
  2 26  1  0  0  0  0
  3  4  1  0  0  0  0
  3  7  2  0  0  0  0
  3  9  1  0  0  0  0
  4  8  2  0  0  0  0
  4 10  1  0  0  0  0
  5  6  1  0  0  0  0
  5  7  1  0  0  0  0
  5 11  2  0  0  0  0
  6  8  1  0  0  0  0
  6 12  2  0  0  0  0
  9 13  2  0  0  0  0
  9 17  1  0  0  0  0
 10 14  2  0  0  0  0
 10 18  1  0  0  0  0
 11 15  1  0  0  0  0
 11 19  1  0  0  0  0
 12 16  1  0  0  0  0
 12 20  1  0  0  0  0
 13 14  1  0  0  0  0
 13 21  1  0  0  0  0
 14 22  1  0  0  0  0
 15 16  2  0  0  0  0
 15 23  1  0  0  0  0
 16 24  1  0  0  0  0
M  END
> <PUBCHEM_COMPOUND_CID>
21082

> <PUBCHEM_CONFORMER_RMSD>
0.4

> <PUBCHEM_CONFORMER_DIVERSEORDER>
1

> <PUBCHEM_MMFF94_PARTIAL_CHARGES>
22
1 -0.53
10 -0.15
11 -0.15
12 -0.15
13 -0.15
14 -0.15
15 -0.15
16 -0.15
17 0.15
18 0.15
19 0.15
2 -0.53
20 0.15
21 0.15
22 0.15
23 0.15
24 0.15
25 0.45
26 0.45
7 0.08
8 0.08
9 -0.15

> <PUBCHEM_EFFECTIVE_ROTOR_COUNT>
0

> <PUBCHEM_PHARMACOPHORE_FEATURES>
5
1 1 donor
1 2 donor
6 3 4 5 6 7 8 rings
6 3 4 9 10 13 14 rings
6 5 6 11 12 15 16 rings

> <PUBCHEM_HEAVY_ATOM_COUNT>
16

> <PUBCHEM_ATOM_DEF_STEREO_COUNT>
0

> <PUBCHEM_ATOM_UDEF_STEREO_COUNT>
0

> <PUBCHEM_BOND_DEF_STEREO_COUNT>
0

> <PUBCHEM_BOND_UDEF_STEREO_COUNT>
0

> <PUBCHEM_ISOTOPIC_ATOM_COUNT>
0

> <PUBCHEM_COMPONENT_COUNT>
1

> <PUBCHEM_CACTVS_TAUTO_COUNT>
7

> <PUBCHEM_CONFORMER_ID>
0000525A00000001

> <PUBCHEM_MMFF94_ENERGY>
58.7651

> <PUBCHEM_FEATURE_SELFOVERLAP>
25.423

> <PUBCHEM_SHAPE_FINGERPRINT>
10062212 137 18339653316396957419
10411042 1 15744443397687296367
10608611 8 18410859858175049664
108231 29 18261393312647063513
10967382 1 18410855481634770214
11132069 177 18409454695273188712
11471102 20 18410860979266684365
11806522 49 18337957779610100335
12032990 46 18410849966865139619
12382932 28 18409166636069480265
13140716 1 18410856606884430273
13221675 6 18410856559639835042
13380535 76 18410856563935159619
13897977 150 18410577318120036349
14144814 61 18410575076073144474
14325111 11 18410575084673732352
14614273 12 18201162177705164725
15196674 1 18410856563934756868
15309172 13 18409440384611106515
15442244 35 18194683902396821970
15536298 74 18334012796218924418
16945 1 18410575084663078918
18186145 218 18409164445731052876
193761 8 17690280829713907725
19591789 44 18410854360617209602
200 152 18113909238935538647
20510252 161 18261110794183243080
20645476 183 17844228662830901030
21267235 1 18410846668330483654
21501502 16 18410573993741392224
2334 1 18410855430063390727
23402539 116 18334023778323920934
23402655 69 18263939877020997053
23419403 2 15951407244893332923
23463225 33 18412826901814921388
23559900 14 18334294301803881166
238 59 15613310069579949901
2748010 2 18410573985151451263
335352 9 18050567648852312535
34934 24 18410583885051074914
43471831 8 18341897453931204802
5104073 3 18410855460128162784
528886 8 18410016545641096778
537710 114 18411975845334257564
53812653 166 18334580109558711216
54173680 148 18124312696939536499
69090 78 18334299738409765967
7364860 26 18191586573609390086
84936 31 15937813145268560342
8809292 202 18272646827348181867
9709674 26 18409162186689538118

> <PUBCHEM_SHAPE_MULTIPOLES>
317.53
6.02
2.32
0.6
0
0
0
0
0
0
0
0
0
0

> <PUBCHEM_SHAPE_SELFOVERLAP>
723.571

> <PUBCHEM_SHAPE_VOLUME>
166.3

> <PUBCHEM_COORDINATE_TYPE>
2
5
10

$$$$

