9543075
  -OEChem-07051213083D

 26 26  0     0  0  0  0  0  0999 V2000
    3.3100    1.1751    0.1625 S   0  0  0  0  0  0  0  0  0  0  0  0
   -0.7836   -3.0378   -0.3825 O   0  0  0  0  0  0  0  0  0  0  0  0
    2.8659    2.3463   -0.8881 O   0  0  0  0  0  0  0  0  0  0  0  0
    3.2054    1.7419    1.4992 O   0  0  0  0  0  0  0  0  0  0  0  0
    4.5626    0.6014   -0.3039 O   0  0  0  0  0  0  0  0  0  0  0  0
   -1.5935    0.4974   -0.8802 O   0  0  0  0  0  0  0  0  0  0  0  0
   -3.7712    1.7205   -1.4755 O   0  0  0  0  0  0  0  0  0  0  0  0
   -4.7191    1.0818    0.5041 O   0  0  0  0  0  0  0  0  0  0  0  0
    2.0922   -0.0666    0.0065 C   0  0  0  0  0  0  0  0  0  0  0  0
   -0.0172   -1.0272    0.6879 C   0  0  0  0  0  0  0  0  0  0  0  0
    0.9541   -0.0338    0.8121 C   0  0  0  0  0  0  0  0  0  0  0  0
    0.1496   -2.0533   -0.2421 C   0  0  0  0  0  0  0  0  0  0  0  0
    2.2590   -1.0927   -0.9235 C   0  0  0  0  0  0  0  0  0  0  0  0
    1.2877   -2.0861   -1.0479 C   0  0  0  0  0  0  0  0  0  0  0  0
   -1.1964   -0.9726    1.5416 C   0  0  0  0  0  0  0  0  0  0  0  0
   -2.3408   -0.3195    1.2465 C   0  0  0  0  0  0  0  0  0  0  0  0
   -2.4700    0.4200   -0.0336 C   0  0  0  0  0  0  0  0  0  0  0  0
   -3.7948    1.1051   -0.2832 C   0  0  0  0  0  0  0  0  0  0  0  0
    0.8157    0.7675    1.5346 H   0  0  0  0  0  0  0  0  0  0  0  0
    3.1330   -1.1352   -1.5671 H   0  0  0  0  0  0  0  0  0  0  0  0
    1.4231   -2.8817   -1.7754 H   0  0  0  0  0  0  0  0  0  0  0  0
   -1.1228   -1.5099    2.4832 H   0  0  0  0  0  0  0  0  0  0  0  0
   -3.1723   -0.3326    1.9409 H   0  0  0  0  0  0  0  0  0  0  0  0
   -1.5095   -2.9197    0.2505 H   0  0  0  0  0  0  0  0  0  0  0  0
    1.9913    2.7652   -0.7091 H   0  0  0  0  0  0  0  0  0  0  0  0
   -4.6156    2.1790   -1.6732 H   0  0  0  0  0  0  0  0  0  0  0  0
  1  3  1  0  0  0  0
  1  4  2  0  0  0  0
  1  5  2  0  0  0  0
  1  9  1  0  0  0  0
  2 12  1  0  0  0  0
  2 24  1  0  0  0  0
  3 25  1  0  0  0  0
  6 17  2  0  0  0  0
  7 18  1  0  0  0  0
  7 26  1  0  0  0  0
  8 18  2  0  0  0  0
  9 11  2  0  0  0  0
  9 13  1  0  0  0  0
 10 11  1  0  0  0  0
 10 12  2  0  0  0  0
 10 15  1  0  0  0  0
 11 19  1  0  0  0  0
 12 14  1  0  0  0  0
 13 14  2  0  0  0  0
 13 20  1  0  0  0  0
 14 21  1  0  0  0  0
 15 16  2  0  0  0  0
 15 22  1  0  0  0  0
 16 17  1  0  0  0  0
 16 23  1  0  0  0  0
 17 18  1  0  0  0  0
M  END
> <PUBCHEM_COMPOUND_CID>
9543075

> <PUBCHEM_CONFORMER_RMSD>
0.6

> <PUBCHEM_CONFORMER_DIVERSEORDER>
1
10
13
12
2
11
5
9
3
4
8
7
6

> <PUBCHEM_MMFF94_PARTIAL_CHARGES>
26
1 1.49
10 0.03
11 -0.15
12 0.08
13 -0.15
14 -0.15
15 -0.18
16 -0.14
17 0.56
18 0.72
19 0.15
2 -0.53
20 0.15
21 0.15
22 0.15
23 0.15
24 0.45
25 0.5
26 0.5
3 -0.68
4 -0.65
5 -0.65
6 -0.57
7 -0.65
8 -0.57
9 -0.01

> <PUBCHEM_EFFECTIVE_ROTOR_COUNT>
4

> <PUBCHEM_PHARMACOPHORE_FEATURES>
10
1 2 donor
1 3 acceptor
1 4 acceptor
1 5 acceptor
1 6 acceptor
1 7 acceptor
1 8 acceptor
3 7 8 18 anion
4 1 3 4 5 anion
6 9 10 11 12 13 14 rings

> <PUBCHEM_HEAVY_ATOM_COUNT>
18

> <PUBCHEM_ATOM_DEF_STEREO_COUNT>
0

> <PUBCHEM_ATOM_UDEF_STEREO_COUNT>
0

> <PUBCHEM_BOND_DEF_STEREO_COUNT>
1

> <PUBCHEM_BOND_UDEF_STEREO_COUNT>
0

> <PUBCHEM_ISOTOPIC_ATOM_COUNT>
0

> <PUBCHEM_COMPONENT_COUNT>
1

> <PUBCHEM_CACTVS_TAUTO_COUNT>
5

> <PUBCHEM_CONFORMER_ID>
00919DA300000001

> <PUBCHEM_MMFF94_ENERGY>
41.161

> <PUBCHEM_FEATURE_SELFOVERLAP>
50.869

> <PUBCHEM_SHAPE_FINGERPRINT>
10618630 7 8502658107792662344
10871710 139 17117743762133017532
11086676 242 13110963145413689670
11543360 7 17968390017344764621
11715629 250 18200315549741607381
11725454 13 18272660055673217747
12077114 3 18343018852938570242
12119455 92 18412267250491445906
122479 349 18201999889353421432
12251169 10 13398625048035922792
12403259 415 18115863014941943872
12596602 18 14764051342534108949
12730499 353 18337942498301084179
13103583 49 11311777344989895461
13134695 92 17552940815299137587
14614273 12 17971745580287423122
14957384 54 18059298660715567036
15375462 478 13614521883123057311
16945 1 18042949042995912034
17834072 32 18340199675066008468
1813 80 16810372447625553326
18186145 218 18334848459009662159
18219364 16 18262220137027771114
19786989 88 18337676429197932195
20820808 20 18187930628848559331
21524375 3 18342179946793500395
21639500 275 18113894991811813874
21947302 44 18339639048388843714
231179 274 18343580763504624648
23382010 3 17676781880794460643
23557571 272 18201140071566605443
23598291 2 16807554326287357283
25 1 18259702319671666418
2748010 2 18265874947838146707
3060560 45 18263083386594183934
43658 37 18334582330141088705
474 4 18412258458757025777
81228 2 17396423814930461138
83771 10 8862941671440782426
84936 182 17968660539516710336

> <PUBCHEM_SHAPE_MULTIPOLES>
333.2
7.31
2.49
1.31
2.52
0.9
0.17
-6.02
-0.76
-0.71
-0.63
0.27
-0.11
1.05

> <PUBCHEM_SHAPE_SELFOVERLAP>
692.727

> <PUBCHEM_SHAPE_VOLUME>
188.2

> <PUBCHEM_COORDINATE_TYPE>
2
5
10

$$$$

