11864
  -OEChem-06261206132D

 17 16  0     1  0  0  0  0  0999 V2000
    2.5369    0.0000    0.0000 O   0  0  0  0  0  0  0  0  0  0  0  0
    6.0010    0.0000    0.0000 O   0  5  0  0  0  0  0  0  0  0  0  0
    5.1350    1.5000    0.0000 O   0  0  0  0  0  0  0  0  0  0  0  0
    5.1350    0.5000    0.0000 N   0  3  0  0  0  0  0  0  0  0  0  0
    4.2690    0.0000    0.0000 C   0  0  3  0  0  0  0  0  0  0  0  0
    4.2690   -1.0000    0.0000 C   0  0  0  0  0  0  0  0  0  0  0  0
    3.4030    0.5000    0.0000 C   0  0  0  0  0  0  0  0  0  0  0  0
    3.4030   -1.5000    0.0000 C   0  0  0  0  0  0  0  0  0  0  0  0
    4.2690    0.6200    0.0000 H   0  0  0  0  0  0  0  0  0  0  0  0
    4.4810   -1.5826    0.0000 H   0  0  0  0  0  0  0  0  0  0  0  0
    4.8796   -0.8923    0.0000 H   0  0  0  0  0  0  0  0  0  0  0  0
    3.8015    0.9749    0.0000 H   0  0  0  0  0  0  0  0  0  0  0  0
    3.0044    0.9749    0.0000 H   0  0  0  0  0  0  0  0  0  0  0  0
    3.0930   -0.9631    0.0000 H   0  0  0  0  0  0  0  0  0  0  0  0
    2.8660   -1.8100    0.0000 H   0  0  0  0  0  0  0  0  0  0  0  0
    3.7130   -2.0369    0.0000 H   0  0  0  0  0  0  0  0  0  0  0  0
    2.0000    0.3100    0.0000 H   0  0  0  0  0  0  0  0  0  0  0  0
  1  7  1  0  0  0  0
  1 17  1  0  0  0  0
  2  4  1  0  0  0  0
  3  4  2  0  0  0  0
  4  5  1  0  0  0  0
  5  6  1  0  0  0  0
  5  7  1  0  0  0  0
  5  9  1  0  0  0  0
  6  8  1  0  0  0  0
  6 10  1  0  0  0  0
  6 11  1  0  0  0  0
  7 12  1  0  0  0  0
  7 13  1  0  0  0  0
  8 14  1  0  0  0  0
  8 15  1  0  0  0  0
  8 16  1  0  0  0  0
M  CHG  2   2  -1   4   1
M  END
> <PUBCHEM_COMPOUND_CID>
11864

> <PUBCHEM_COMPOUND_CANONICALIZED>
1

> <PUBCHEM_CACTVS_COMPLEXITY>
77.8

> <PUBCHEM_CACTVS_HBOND_ACCEPTOR>
3

> <PUBCHEM_CACTVS_HBOND_DONOR>
1

> <PUBCHEM_CACTVS_ROTATABLE_BOND>
2

> <PUBCHEM_CACTVS_SUBSKEYS>
AAADccBiMAAAAAAAAAAAAAAAAAAAAAAAAAAAAAAAAAAAAAAAAAAAHgAECAAACCjhgAYCAAAQQgABAAAAAwAAAAAAAAAgAAAAAAACEAAAAAAAQAAEAAAAAAAAAAAAAAAAAAAAAAAAAAAAAAAAAAAAAAAAAA==

> <PUBCHEM_IUPAC_OPENEYE_NAME>
2-nitrobutan-1-ol

> <PUBCHEM_IUPAC_CAS_NAME>
2-nitro-1-butanol

> <PUBCHEM_IUPAC_NAME>
2-nitrobutan-1-ol

> <PUBCHEM_IUPAC_SYSTEMATIC_NAME>
2-nitrobutan-1-ol

> <PUBCHEM_IUPAC_TRADITIONAL_NAME>
2-nitrobutan-1-ol

> <PUBCHEM_IUPAC_INCHI>
InChI=1S/C4H9NO3/c1-2-4(3-6)5(7)8/h4,6H,2-3H2,1H3

> <PUBCHEM_IUPAC_INCHIKEY>
MHIHRIPETCJEMQ-UHFFFAOYSA-N

> <PUBCHEM_XLOGP3_AA>
0.3

> <PUBCHEM_EXACT_MASS>
119.058243

> <PUBCHEM_MOLECULAR_FORMULA>
C4H9NO3

> <PUBCHEM_MOLECULAR_WEIGHT>
119.11916

> <PUBCHEM_OPENEYE_CAN_SMILES>
CCC(CO)[N+](=O)[O-]

> <PUBCHEM_OPENEYE_ISO_SMILES>
CCC(CO)[N+](=O)[O-]

> <PUBCHEM_CACTVS_TPSA>
66

> <PUBCHEM_MONOISOTOPIC_WEIGHT>
119.058243

> <PUBCHEM_TOTAL_CHARGE>
0

> <PUBCHEM_HEAVY_ATOM_COUNT>
8

> <PUBCHEM_ATOM_DEF_STEREO_COUNT>
0

> <PUBCHEM_ATOM_UDEF_STEREO_COUNT>
1

> <PUBCHEM_BOND_DEF_STEREO_COUNT>
0

> <PUBCHEM_BOND_UDEF_STEREO_COUNT>
0

> <PUBCHEM_ISOTOPIC_ATOM_COUNT>
0

> <PUBCHEM_COMPONENT_COUNT>
1

> <PUBCHEM_CACTVS_TAUTO_COUNT>
2

> <PUBCHEM_COORDINATE_TYPE>
1
5
255

> <PUBCHEM_BONDANNOTATIONS>
5  7  3

$$$$

