6619
  -OEChem-07051213053D

 33 34  0     0  0  0  0  0  0999 V2000
    4.5842   -0.3194    2.0483 Cl  0  0  0  0  0  0  0  0  0  0  0  0
   -4.5680   -0.2219   -2.0598 Cl  0  0  0  0  0  0  0  0  0  0  0  0
    2.7677    2.0354   -2.5048 Cl  0  0  0  0  0  0  0  0  0  0  0  0
   -2.7422    1.9494    2.5799 Cl  0  0  0  0  0  0  0  0  0  0  0  0
    4.6968    1.5407   -0.2824 O   0  0  0  0  0  0  0  0  0  0  0  0
   -4.6733    1.5481    0.3403 O   0  0  0  0  0  0  0  0  0  0  0  0
    0.0054   -1.5915   -0.0310 C   0  0  0  0  0  0  0  0  0  0  0  0
    1.2438   -0.7632   -0.0968 C   0  0  0  0  0  0  0  0  0  0  0  0
   -1.2907   -0.7202    0.0713 C   0  0  0  0  0  0  0  0  0  0  0  0
   -0.0863   -2.5837    1.1891 C   0  0  0  0  0  0  0  0  0  0  0  0
   -0.0267   -2.5402   -1.2805 C   0  0  0  0  0  0  0  0  0  0  0  0
    1.4202    0.1464   -1.1393 C   0  0  0  0  0  0  0  0  0  0  0  0
   -1.4025    0.1086    1.1431 C   0  0  0  0  0  0  0  0  0  0  0  0
    2.2267   -0.8996    0.8835 C   0  0  0  0  0  0  0  0  0  0  0  0
   -2.2131   -0.8560   -0.9182 C   0  0  0  0  0  0  0  0  0  0  0  0
    3.3862   -0.1267    0.8211 C   0  0  0  0  0  0  0  0  0  0  0  0
   -3.3695   -0.0812   -0.8262 C   0  0  0  0  0  0  0  0  0  0  0  0
    2.5796    0.9196   -1.2018 C   0  0  0  0  0  0  0  0  0  0  0  0
   -2.5587    0.8835    1.2352 C   0  0  0  0  0  0  0  0  0  0  0  0
    3.5626    0.7831   -0.2215 C   0  0  0  0  0  0  0  0  0  0  0  0
   -3.5422    0.7888    0.2505 C   0  0  0  0  0  0  0  0  0  0  0  0
    0.7235   -3.3232    1.1622 H   0  0  0  0  0  0  0  0  0  0  0  0
   -0.0371   -2.0727    2.1576 H   0  0  0  0  0  0  0  0  0  0  0  0
   -1.0314   -3.1417    1.1719 H   0  0  0  0  0  0  0  0  0  0  0  0
    0.8823   -3.1562   -1.3079 H   0  0  0  0  0  0  0  0  0  0  0  0
   -0.8730   -3.2377   -1.2542 H   0  0  0  0  0  0  0  0  0  0  0  0
   -0.0526   -1.9960   -2.2319 H   0  0  0  0  0  0  0  0  0  0  0  0
    0.6574    0.2617   -1.9058 H   0  0  0  0  0  0  0  0  0  0  0  0
   -0.6336    0.1849    1.9048 H   0  0  0  0  0  0  0  0  0  0  0  0
    2.1251   -1.5973    1.7083 H   0  0  0  0  0  0  0  0  0  0  0  0
   -2.1200   -1.5133   -1.7716 H   0  0  0  0  0  0  0  0  0  0  0  0
    5.2609    1.3120    0.4766 H   0  0  0  0  0  0  0  0  0  0  0  0
   -5.2381    1.3509   -0.4268 H   0  0  0  0  0  0  0  0  0  0  0  0
  1 16  1  0  0  0  0
  2 17  1  0  0  0  0
  3 18  1  0  0  0  0
  4 19  1  0  0  0  0
  5 20  1  0  0  0  0
  5 32  1  0  0  0  0
  6 21  1  0  0  0  0
  6 33  1  0  0  0  0
  7  8  1  0  0  0  0
  7  9  1  0  0  0  0
  7 10  1  0  0  0  0
  7 11  1  0  0  0  0
  8 12  2  0  0  0  0
  8 14  1  0  0  0  0
  9 13  2  0  0  0  0
  9 15  1  0  0  0  0
 10 22  1  0  0  0  0
 10 23  1  0  0  0  0
 10 24  1  0  0  0  0
 11 25  1  0  0  0  0
 11 26  1  0  0  0  0
 11 27  1  0  0  0  0
 12 18  1  0  0  0  0
 12 28  1  0  0  0  0
 13 19  1  0  0  0  0
 13 29  1  0  0  0  0
 14 16  2  0  0  0  0
 14 30  1  0  0  0  0
 15 17  2  0  0  0  0
 15 31  1  0  0  0  0
 16 20  1  0  0  0  0
 17 21  1  0  0  0  0
 18 20  2  0  0  0  0
 19 21  2  0  0  0  0
M  END
> <PUBCHEM_COMPOUND_CID>
6619

> <PUBCHEM_CONFORMER_RMSD>
0.6

> <PUBCHEM_CONFORMER_DIVERSEORDER>
1
3
5
4
2

> <PUBCHEM_MMFF94_PARTIAL_CHARGES>
25
1 -0.18
12 -0.15
13 -0.15
14 -0.15
15 -0.15
16 0.18
17 0.18
18 0.18
19 0.18
2 -0.18
20 0.08
21 0.08
28 0.15
29 0.15
3 -0.18
30 0.15
31 0.15
32 0.45
33 0.45
4 -0.18
5 -0.53
6 -0.53
7 0.29
8 -0.14
9 -0.14

> <PUBCHEM_EFFECTIVE_ROTOR_COUNT>
2

> <PUBCHEM_PHARMACOPHORE_FEATURES>
5
1 5 donor
1 6 donor
3 7 10 11 hydrophobe
6 8 12 14 16 18 20 rings
6 9 13 15 17 19 21 rings

> <PUBCHEM_HEAVY_ATOM_COUNT>
21

> <PUBCHEM_ATOM_DEF_STEREO_COUNT>
0

> <PUBCHEM_ATOM_UDEF_STEREO_COUNT>
0

> <PUBCHEM_BOND_DEF_STEREO_COUNT>
0

> <PUBCHEM_BOND_UDEF_STEREO_COUNT>
0

> <PUBCHEM_ISOTOPIC_ATOM_COUNT>
0

> <PUBCHEM_COMPONENT_COUNT>
1

> <PUBCHEM_CACTVS_TAUTO_COUNT>
3

> <PUBCHEM_CONFORMER_ID>
000019DB00000001

> <PUBCHEM_MMFF94_ENERGY>
69.6414

> <PUBCHEM_FEATURE_SELFOVERLAP>
25.371

> <PUBCHEM_SHAPE_FINGERPRINT>
10498660 4 17458350779523406545
10646746 165 17530685437453463048
11045977 3 15769782376512785000
11370993 144 15698009539044101740
11582403 64 15624573153631590223
11640471 11 18410570686621849070
121448 382 17676498219901371023
12156800 1 6118537790617926540
12166972 35 18342188747097256156
12403259 327 15123521310453280168
12507557 5 17846786204080880957
12507560 40 15985103011361069503
12633257 1 16415472757499430385
12670546 177 15646774483074957529
12788726 201 17979640035215542978
12892183 10 15769780173178757352
13583140 156 16773508880677944409
13965767 371 17902224847194970720
14251757 17 15647323199517387544
14739800 52 17897464800367799592
15295992 7 16630530652329364821
15342168 16 18271507767951623125
15653759 3 15339116840266844108
16945 1 17988640856221666654
16988056 13 15086040424005792353
17349148 13 18410294709208798902
17804303 29 13973682875195022251
1813 80 17762609999193945894
18186145 218 18272928349295232639
192875 21 18410584980320846749
19433438 38 15502367933371588372
19765921 60 18409728504250416315
19784866 135 12534806992327944592
20291156 8 9439402406464122841
20715895 44 17840880882327927877
21033650 10 17459726234125756392
21065199 12 15769485448270441880
21475661 188 16558208097558886637
21524375 3 18410289215951005987
21713013 43 14634869743009067389
21864079 5 18339061753187118500
22149856 69 18115286991941471907
22393880 68 16226317205584718332
22907989 373 17900238832958254999
23114952 82 14924217261629136336
23175994 123 16772966933431176362
23184049 59 17775574143248798694
23402539 116 17458925780664365370
23419403 2 15380589143651924442
235170 7 15430038751002679032
23526113 38 14201680922272174927
23557571 272 16588313752424420235
23559900 14 16515683394359044390
2838139 119 17605842413538253400
3323516 105 13984670217450133791
3472631 163 17749393676117230769
351380 180 17060070250034687757
4340502 62 18201426035427582483
469060 322 18042388172186237163
474 4 18340762745109338803
633830 44 18338788022225924511
9981440 41 18114468859962946698

> <PUBCHEM_SHAPE_MULTIPOLES>
427.91
8.89
2.31
2.22
0.23
0.03
-0.6
0.06
4.4
0.06
1.02
-0.09
-0.04
2.45

> <PUBCHEM_SHAPE_SELFOVERLAP>
889.202

> <PUBCHEM_SHAPE_VOLUME>
250.6

> <PUBCHEM_COORDINATE_TYPE>
2
5
10

$$$$

