4450
  -OEChem-06261200073D

 38 40  0     1  0  0  0  0  0999 V2000
    0.0917    1.6001   -0.8118 O   0  0  0  0  0  0  0  0  0  0  0  0
    2.9477    1.2319    0.1749 N   0  0  1  0  0  0  0  0  0  0  0  0
   -0.4791    0.2982   -0.9408 C   0  0  1  0  0  0  0  0  0  0  0  0
    0.3696   -0.8495   -0.3942 C   0  0  0  0  0  0  0  0  0  0  0  0
    1.9502    0.6059    1.0611 C   0  0  0  0  0  0  0  0  0  0  0  0
    1.4483   -0.7150    0.5074 C   0  0  0  0  0  0  0  0  0  0  0  0
    2.3809    2.2928   -0.6789 C   0  0  0  0  0  0  0  0  0  0  0  0
    1.2632    1.8047   -1.5967 C   0  0  0  0  0  0  0  0  0  0  0  0
   -1.8592    0.3501   -0.3053 C   0  0  0  0  0  0  0  0  0  0  0  0
    0.0270   -2.1441   -0.8470 C   0  0  0  0  0  0  0  0  0  0  0  0
    2.1505   -1.8743    0.9044 C   0  0  0  0  0  0  0  0  0  0  0  0
    4.0630    1.7768    0.9544 C   0  0  0  0  0  0  0  0  0  0  0  0
    0.7270   -3.2754   -0.4321 C   0  0  0  0  0  0  0  0  0  0  0  0
    1.7925   -3.1399    0.4443 C   0  0  0  0  0  0  0  0  0  0  0  0
   -2.8727   -0.4778   -0.7813 C   0  0  0  0  0  0  0  0  0  0  0  0
   -2.1037    1.2257    0.7496 C   0  0  0  0  0  0  0  0  0  0  0  0
   -4.1392   -0.4298   -0.1986 C   0  0  0  0  0  0  0  0  0  0  0  0
   -3.3700    1.2737    1.3324 C   0  0  0  0  0  0  0  0  0  0  0  0
   -4.3878    0.4459    0.8582 C   0  0  0  0  0  0  0  0  0  0  0  0
   -0.6221    0.1372   -2.0197 H   0  0  0  0  0  0  0  0  0  0  0  0
    1.1240    1.2777    1.3212 H   0  0  0  0  0  0  0  0  0  0  0  0
    2.3991    0.3854    2.0411 H   0  0  0  0  0  0  0  0  0  0  0  0
    3.1792    2.6887   -1.3188 H   0  0  0  0  0  0  0  0  0  0  0  0
    2.0117    3.1188   -0.0568 H   0  0  0  0  0  0  0  0  0  0  0  0
    1.0276    2.5884   -2.3247 H   0  0  0  0  0  0  0  0  0  0  0  0
    1.5675    0.9153   -2.1617 H   0  0  0  0  0  0  0  0  0  0  0  0
   -0.7793   -2.2865   -1.5615 H   0  0  0  0  0  0  0  0  0  0  0  0
    2.9958   -1.7935    1.5854 H   0  0  0  0  0  0  0  0  0  0  0  0
    4.5583    0.9829    1.5248 H   0  0  0  0  0  0  0  0  0  0  0  0
    3.7351    2.5549    1.6531 H   0  0  0  0  0  0  0  0  0  0  0  0
    4.8264    2.2033    0.2938 H   0  0  0  0  0  0  0  0  0  0  0  0
    0.4453   -4.2565   -0.8026 H   0  0  0  0  0  0  0  0  0  0  0  0
    2.3489   -4.0143    0.7678 H   0  0  0  0  0  0  0  0  0  0  0  0
   -2.7099   -1.1488   -1.6189 H   0  0  0  0  0  0  0  0  0  0  0  0
   -1.3290    1.8733    1.1494 H   0  0  0  0  0  0  0  0  0  0  0  0
   -4.9334   -1.0701   -0.5713 H   0  0  0  0  0  0  0  0  0  0  0  0
   -3.5633    1.9534    2.1572 H   0  0  0  0  0  0  0  0  0  0  0  0
   -5.3740    0.4839    1.3115 H   0  0  0  0  0  0  0  0  0  0  0  0
  1  3  1  0  0  0  0
  1  8  1  0  0  0  0
  2  5  1  0  0  0  0
  2  7  1  0  0  0  0
  2 12  1  0  0  0  0
  3  4  1  0  0  0  0
  3  9  1  0  0  0  0
  3 20  1  0  0  0  0
  4  6  1  0  0  0  0
  4 10  2  0  0  0  0
  5  6  1  0  0  0  0
  5 21  1  0  0  0  0
  5 22  1  0  0  0  0
  6 11  2  0  0  0  0
  7  8  1  0  0  0  0
  7 23  1  0  0  0  0
  7 24  1  0  0  0  0
  8 25  1  0  0  0  0
  8 26  1  0  0  0  0
  9 15  2  0  0  0  0
  9 16  1  0  0  0  0
 10 13  1  0  0  0  0
 10 27  1  0  0  0  0
 11 14  1  0  0  0  0
 11 28  1  0  0  0  0
 12 29  1  0  0  0  0
 12 30  1  0  0  0  0
 12 31  1  0  0  0  0
 13 14  2  0  0  0  0
 13 32  1  0  0  0  0
 14 33  1  0  0  0  0
 15 17  1  0  0  0  0
 15 34  1  0  0  0  0
 16 18  2  0  0  0  0
 16 35  1  0  0  0  0
 17 19  2  0  0  0  0
 17 36  1  0  0  0  0
 18 19  1  0  0  0  0
 18 37  1  0  0  0  0
 19 38  1  0  0  0  0
M  END
> <PUBCHEM_COMPOUND_CID>
4450

> <PUBCHEM_CONFORMER_RMSD>
0.6

> <PUBCHEM_CONFORMER_DIVERSEORDER>
5
9
10
4
8
1
12
14
2
13
6
11
7
3

> <PUBCHEM_MMFF94_PARTIAL_CHARGES>
28
1 -0.56
10 -0.15
11 -0.15
12 0.27
13 -0.15
14 -0.15
15 -0.15
16 -0.15
17 -0.15
18 -0.15
19 -0.15
2 -0.81
27 0.15
28 0.15
3 0.57
32 0.15
33 0.15
34 0.15
35 0.15
36 0.15
37 0.15
38 0.15
4 -0.14
5 0.41
6 -0.14
7 0.27
8 0.28
9 -0.14

> <PUBCHEM_EFFECTIVE_ROTOR_COUNT>
2.2

> <PUBCHEM_PHARMACOPHORE_FEATURES>
4
1 1 acceptor
1 2 cation
6 4 6 10 11 13 14 rings
6 9 15 16 17 18 19 rings

> <PUBCHEM_HEAVY_ATOM_COUNT>
19

> <PUBCHEM_ATOM_DEF_STEREO_COUNT>
0

> <PUBCHEM_ATOM_UDEF_STEREO_COUNT>
1

> <PUBCHEM_BOND_DEF_STEREO_COUNT>
0

> <PUBCHEM_BOND_UDEF_STEREO_COUNT>
0

> <PUBCHEM_ISOTOPIC_ATOM_COUNT>
0

> <PUBCHEM_COMPONENT_COUNT>
1

> <PUBCHEM_CACTVS_TAUTO_COUNT>
1

> <PUBCHEM_CONFORMER_ID>
0000116200000005

> <PUBCHEM_MMFF94_ENERGY>
65.7482

> <PUBCHEM_FEATURE_SELFOVERLAP>
20.297

> <PUBCHEM_SHAPE_FINGERPRINT>
10382601 240 18341896324607519906
10493431 412 18266466403985318880
1100329 8 17687754839663117815
11578080 2 17272850063439541756
11640471 11 18186794777708200569
12251169 10 18044099183745425251
12553582 1 17980197809680274303
12788726 201 17402885623202055622
12839892 36 18270120080950312947
13140716 1 18055919784005143024
14022349 108 18340775917927042298
14178342 30 18341603781642466715
14223421 5 18340204202029570953
14787075 74 17681566835461035285
15309172 13 18341336582625585293
16945 1 17917709084770393340
17138139 8 17539723225645362519
1813 80 17903062670961068990
201361 129 18259980508945778193
204376 136 18268993089894923428
20510252 161 17760082913112858387
20559304 39 18115865368393955371
20600515 1 17186990437524696852
20645477 70 18272384100251708967
20739085 24 18343020034123323716
21524375 3 18261111812053341292
22182313 1 18056220161512517532
2255824 54 18339350959125671358
23419403 2 17771924975640679118
23558518 356 17615695029158425140
23559900 14 18118406378747693835
2748010 2 17983321475270280716
276578 36 18335136466774171760
283562 15 16110912082850208980
31174 14 18196936784331347091
427121 178 18187358783964893152
458136 41 18410847763721009682
474 4 18340482283750275497
5104073 3 18265878324800618329
7097593 13 17900819663208831819
7364860 26 18335977678942185367
81228 2 17188114705238465004
8272917 22 18341610443142095381

> <PUBCHEM_SHAPE_MULTIPOLES>
380.16
6.5
3.25
1.29
5.14
2.36
-0.04
-2.88
2.36
-3.28
-0.26
-0.03
-0.42
-0.78

> <PUBCHEM_SHAPE_SELFOVERLAP>
814.059

> <PUBCHEM_SHAPE_VOLUME>
209.5

> <PUBCHEM_COORDINATE_TYPE>
2
5
10

$$$$

