96695
  -OEChem-07051213122D

 19 20  0     0  0  0  0  0  0999 V2000
    2.5369   -0.0173    0.0000 O   0  0  0  0  0  0  0  0  0  0  0  0
    3.4030   -1.5173    0.0000 O   0  0  0  0  0  0  0  0  0  0  0  0
    5.1350   -0.5173    0.0000 N   0  0  0  0  0  0  0  0  0  0  0  0
    5.1350    1.4827    0.0000 N   0  0  0  0  0  0  0  0  0  0  0  0
    6.0010   -0.0173    0.0000 C   0  0  0  0  0  0  0  0  0  0  0  0
    6.0010    0.9827    0.0000 C   0  0  0  0  0  0  0  0  0  0  0  0
    6.8950   -0.5520    0.0000 C   0  0  0  0  0  0  0  0  0  0  0  0
    6.8950    1.5173    0.0000 C   0  0  0  0  0  0  0  0  0  0  0  0
    4.2690   -0.0173    0.0000 C   0  0  0  0  0  0  0  0  0  0  0  0
    7.8010   -0.0381    0.0000 C   0  0  0  0  0  0  0  0  0  0  0  0
    7.8010    1.0035    0.0000 C   0  0  0  0  0  0  0  0  0  0  0  0
    4.2690    0.9827    0.0000 C   0  0  0  0  0  0  0  0  0  0  0  0
    3.4030   -0.5173    0.0000 C   0  0  0  0  0  0  0  0  0  0  0  0
    6.8878   -1.1720    0.0000 H   0  0  0  0  0  0  0  0  0  0  0  0
    6.8878    2.1373    0.0000 H   0  0  0  0  0  0  0  0  0  0  0  0
    8.3368   -0.3502    0.0000 H   0  0  0  0  0  0  0  0  0  0  0  0
    3.7320    1.2927    0.0000 H   0  0  0  0  0  0  0  0  0  0  0  0
    8.3368    1.3156    0.0000 H   0  0  0  0  0  0  0  0  0  0  0  0
    2.0000   -0.3273    0.0000 H   0  0  0  0  0  0  0  0  0  0  0  0
  1 13  1  0  0  0  0
  1 19  1  0  0  0  0
  2 13  2  0  0  0  0
  3  5  1  0  0  0  0
  3  9  2  0  0  0  0
  4  6  1  0  0  0  0
  4 12  2  0  0  0  0
  5  6  1  0  0  0  0
  5  7  2  0  0  0  0
  6  8  2  0  0  0  0
  7 10  1  0  0  0  0
  7 14  1  0  0  0  0
  8 11  1  0  0  0  0
  8 15  1  0  0  0  0
  9 12  1  0  0  0  0
  9 13  1  0  0  0  0
 10 11  2  0  0  0  0
 10 16  1  0  0  0  0
 11 18  1  0  0  0  0
 12 17  1  0  0  0  0
M  END
> <PUBCHEM_COMPOUND_CID>
96695

> <PUBCHEM_COMPOUND_CANONICALIZED>
1

> <PUBCHEM_CACTVS_COMPLEXITY>
208

> <PUBCHEM_CACTVS_HBOND_ACCEPTOR>
4

> <PUBCHEM_CACTVS_HBOND_DONOR>
1

> <PUBCHEM_CACTVS_ROTATABLE_BOND>
1

> <PUBCHEM_CACTVS_SUBSKEYS>
AAADcYBzMAAAAAAAAAAAAAAAAAAAAAAAAAA8QAAAAAAAAACx8AAAHgAACAAACAjBlgQ8yLIIEgCoATT3TASCgCQ3EiAI2CG4fNgKZOrAkbGUYIhigADY2McQAAAAAAAAAAAAACAAAAAAAAAAQAAAAAAAAA==

> <PUBCHEM_IUPAC_OPENEYE_NAME>
quinoxaline-2-carboxylic acid

> <PUBCHEM_IUPAC_CAS_NAME>
2-quinoxalinecarboxylic acid

> <PUBCHEM_IUPAC_NAME>
quinoxaline-2-carboxylic acid

> <PUBCHEM_IUPAC_SYSTEMATIC_NAME>
quinoxaline-2-carboxylic acid

> <PUBCHEM_IUPAC_TRADITIONAL_NAME>
quinoxaline-2-carboxylic acid

> <PUBCHEM_IUPAC_INCHI>
InChI=1S/C9H6N2O2/c12-9(13)8-5-10-6-3-1-2-4-7(6)11-8/h1-5H,(H,12,13)

> <PUBCHEM_IUPAC_INCHIKEY>
UPUZGXILYFKSGE-UHFFFAOYSA-N

> <PUBCHEM_XLOGP3>
1.6

> <PUBCHEM_EXACT_MASS>
174.042927

> <PUBCHEM_MOLECULAR_FORMULA>
C9H6N2O2

> <PUBCHEM_MOLECULAR_WEIGHT>
174.15614

> <PUBCHEM_OPENEYE_CAN_SMILES>
C1=CC=C2C(=C1)N=CC(=N2)C(=O)O

> <PUBCHEM_OPENEYE_ISO_SMILES>
C1=CC=C2C(=C1)N=CC(=N2)C(=O)O

> <PUBCHEM_CACTVS_TPSA>
63.1

> <PUBCHEM_MONOISOTOPIC_WEIGHT>
174.042927

> <PUBCHEM_TOTAL_CHARGE>
0

> <PUBCHEM_HEAVY_ATOM_COUNT>
13

> <PUBCHEM_ATOM_DEF_STEREO_COUNT>
0

> <PUBCHEM_ATOM_UDEF_STEREO_COUNT>
0

> <PUBCHEM_BOND_DEF_STEREO_COUNT>
0

> <PUBCHEM_BOND_UDEF_STEREO_COUNT>
0

> <PUBCHEM_ISOTOPIC_ATOM_COUNT>
0

> <PUBCHEM_COMPONENT_COUNT>
1

> <PUBCHEM_CACTVS_TAUTO_COUNT>
1

> <PUBCHEM_COORDINATE_TYPE>
1
5
255

> <PUBCHEM_BONDANNOTATIONS>
10  11  8
3  5  8
3  9  8
4  12  8
4  6  8
5  6  8
5  7  8
6  8  8
7  10  8
8  11  8
9  12  8

$$$$

