441685
  -OEChem-07051212553D

 96102  0     1  0  0  0  0  0999 V2000
   -5.9358    1.5892    1.4548 O   0  0  0  0  0  0  0  0  0  0  0  0
    2.3445    2.1469    0.4097 O   0  0  0  0  0  0  0  0  0  0  0  0
   -0.0947   -1.9883    0.6620 O   0  0  0  0  0  0  0  0  0  0  0  0
   -2.6227   -2.0243   -0.3607 O   0  0  0  0  0  0  0  0  0  0  0  0
   -4.0711   -0.3459    1.4356 O   0  0  0  0  0  0  0  0  0  0  0  0
    0.1001    3.5737   -0.6147 O   0  0  0  0  0  0  0  0  0  0  0  0
    6.2022   -1.2491    0.3475 O   0  0  0  0  0  0  0  0  0  0  0  0
   -2.3528    4.3795   -0.7033 O   0  0  0  0  0  0  0  0  0  0  0  0
    4.8705    1.7646    1.5392 O   0  0  0  0  0  0  0  0  0  0  0  0
    6.8341   -0.0907    2.2202 O   0  0  0  0  0  0  0  0  0  0  0  0
    2.4002    4.0252   -0.9343 O   0  0  0  0  0  0  0  0  0  0  0  0
    0.0938   -4.2390    0.1767 O   0  0  0  0  0  0  0  0  0  0  0  0
   -3.1379   -2.9447   -2.4160 O   0  0  0  0  0  0  0  0  0  0  0  0
   -5.3234   -2.2669    1.1559 O   0  0  0  0  0  0  0  0  0  0  0  0
    0.8165   -0.7503   -1.2302 C   0  0  1  0  0  0  0  0  0  0  0  0
    0.6580    0.5952   -0.4543 C   0  0  2  0  0  0  0  0  0  0  0  0
   -0.7043    1.2878   -0.7380 C   0  0  1  0  0  0  0  0  0  0  0  0
    2.2692   -1.1125   -0.8028 C   0  0  2  0  0  0  0  0  0  0  0  0
   -1.8735    0.3276   -0.2861 C   0  0  1  0  0  0  0  0  0  0  0  0
    3.0239    0.2333   -0.9595 C   0  0  1  0  0  0  0  0  0  0  0  0
   -3.3225    0.9783   -0.5039 C   0  0  2  0  0  0  0  0  0  0  0  0
    1.9850    1.3454   -0.6974 C   0  0  2  0  0  0  0  0  0  0  0  0
   -0.2886   -1.6996   -0.7260 C   0  0  2  0  0  0  0  0  0  0  0  0
   -1.6961   -1.0938   -0.9175 C   0  0  1  0  0  0  0  0  0  0  0  0
    4.4414    0.2401   -0.3304 C   0  0  1  0  0  0  0  0  0  0  0  0
   -3.3602    2.3771    0.1972 C   0  0  2  0  0  0  0  0  0  0  0  0
   -0.8201    2.6531   -0.0479 C   0  0  2  0  0  0  0  0  0  0  0  0
    3.0757   -2.2119   -1.5395 C   0  0  1  0  0  0  0  0  0  0  0  0
   -4.4599    0.1047    0.1364 C   0  0  2  0  0  0  0  0  0  0  0  0
    0.7059   -0.6037   -2.7686 C   0  0  0  0  0  0  0  0  0  0  0  0
   -5.7847    0.8058    0.2521 C   0  0  2  0  0  0  0  0  0  0  0  0
   -5.8943    2.3011    0.2195 C   0  0  2  0  0  0  0  0  0  0  0  0
   -4.6850    3.1385    0.0020 C   0  0  0  0  0  0  0  0  0  0  0  0
   -2.1962    3.2436   -0.2554 C   0  0  0  0  0  0  0  0  0  0  0  0
   -3.6238    1.1241   -2.0191 C   0  0  0  0  0  0  0  0  0  0  0  0
    4.6803    0.4067    1.1766 C   0  0  1  0  0  0  0  0  0  0  0  0
    5.0635   -1.1301   -0.4391 C   0  0  0  0  0  0  0  0  0  0  0  0
    4.4992   -2.2103   -1.0053 C   0  0  0  0  0  0  0  0  0  0  0  0
    5.2930    1.2587   -1.1392 C   0  0  0  0  0  0  0  0  0  0  0  0
    2.4602   -3.5995   -1.3621 C   0  0  0  0  0  0  0  0  0  0  0  0
    6.0191   -0.3071    1.3337 C   0  0  0  0  0  0  0  0  0  0  0  0
    3.6898   -0.2392    2.1464 C   0  0  0  0  0  0  0  0  0  0  0  0
    2.5242    3.4823    0.1552 C   0  0  0  0  0  0  0  0  0  0  0  0
    0.0846   -3.3052    0.9672 C   0  0  0  0  0  0  0  0  0  0  0  0
   -3.0359   -3.0199   -1.1989 C   0  0  0  0  0  0  0  0  0  0  0  0
   -4.5802   -1.5533    1.8158 C   0  0  0  0  0  0  0  0  0  0  0  0
    2.8994    4.2032    1.4143 C   0  0  0  0  0  0  0  0  0  0  0  0
    0.2747   -3.4555    2.4461 C   0  0  0  0  0  0  0  0  0  0  0  0
   -3.3554   -4.2497   -0.4043 C   0  0  0  0  0  0  0  0  0  0  0  0
   -4.0902   -1.8955    3.1903 C   0  0  0  0  0  0  0  0  0  0  0  0
    0.6456    0.3814    0.6269 H   0  0  0  0  0  0  0  0  0  0  0  0
   -0.7752    1.4614   -1.8177 H   0  0  0  0  0  0  0  0  0  0  0  0
    2.2449   -1.3790    0.2594 H   0  0  0  0  0  0  0  0  0  0  0  0
   -1.7623    0.2000    0.8011 H   0  0  0  0  0  0  0  0  0  0  0  0
    3.2125    0.3107   -2.0432 H   0  0  0  0  0  0  0  0  0  0  0  0
    1.8878    1.9297   -1.6210 H   0  0  0  0  0  0  0  0  0  0  0  0
   -0.2645   -2.6149   -1.3241 H   0  0  0  0  0  0  0  0  0  0  0  0
   -1.8829   -0.9942   -1.9902 H   0  0  0  0  0  0  0  0  0  0  0  0
   -3.2191    2.2318    1.2781 H   0  0  0  0  0  0  0  0  0  0  0  0
   -0.6250    2.5784    1.0274 H   0  0  0  0  0  0  0  0  0  0  0  0
    3.1287   -2.0018   -2.6148 H   0  0  0  0  0  0  0  0  0  0  0  0
   -4.6271   -0.7502   -0.5285 H   0  0  0  0  0  0  0  0  0  0  0  0
    1.4453    0.0832   -3.1879 H   0  0  0  0  0  0  0  0  0  0  0  0
   -0.2664   -0.2289   -3.0963 H   0  0  0  0  0  0  0  0  0  0  0  0
    0.8485   -1.5734   -3.2582 H   0  0  0  0  0  0  0  0  0  0  0  0
   -6.6294    0.2038   -0.0530 H   0  0  0  0  0  0  0  0  0  0  0  0
   -6.8090    2.7603   -0.1277 H   0  0  0  0  0  0  0  0  0  0  0  0
   -4.7169    3.9977    0.6840 H   0  0  0  0  0  0  0  0  0  0  0  0
   -4.7396    3.5596   -1.0097 H   0  0  0  0  0  0  0  0  0  0  0  0
   -3.6301    0.1531   -2.5236 H   0  0  0  0  0  0  0  0  0  0  0  0
   -4.6081    1.5643   -2.2062 H   0  0  0  0  0  0  0  0  0  0  0  0
   -2.8892    1.7570   -2.5252 H   0  0  0  0  0  0  0  0  0  0  0  0
    5.0371   -3.1549   -0.9858 H   0  0  0  0  0  0  0  0  0  0  0  0
    5.3436    0.9825   -2.1996 H   0  0  0  0  0  0  0  0  0  0  0  0
    6.3284    1.3188   -0.7840 H   0  0  0  0  0  0  0  0  0  0  0  0
    4.8689    2.2661   -1.0794 H   0  0  0  0  0  0  0  0  0  0  0  0
    3.0788   -4.3525   -1.8665 H   0  0  0  0  0  0  0  0  0  0  0  0
    1.4759   -3.6656   -1.8242 H   0  0  0  0  0  0  0  0  0  0  0  0
    2.4256   -3.8832   -0.3078 H   0  0  0  0  0  0  0  0  0  0  0  0
    0.0174    4.4095   -0.1235 H   0  0  0  0  0  0  0  0  0  0  0  0
    2.6933    0.2007    2.0588 H   0  0  0  0  0  0  0  0  0  0  0  0
    3.6144   -1.3231    2.0144 H   0  0  0  0  0  0  0  0  0  0  0  0
    4.0031   -0.0692    3.1841 H   0  0  0  0  0  0  0  0  0  0  0  0
    5.0702    1.8044    2.4900 H   0  0  0  0  0  0  0  0  0  0  0  0
    2.3719    5.1603    1.4478 H   0  0  0  0  0  0  0  0  0  0  0  0
    3.9785    4.3689    1.4348 H   0  0  0  0  0  0  0  0  0  0  0  0
    2.5978    3.6280    2.2944 H   0  0  0  0  0  0  0  0  0  0  0  0
    1.1557   -2.8924    2.7645 H   0  0  0  0  0  0  0  0  0  0  0  0
    0.4306   -4.5111    2.6861 H   0  0  0  0  0  0  0  0  0  0  0  0
   -0.6173   -3.1060    2.9716 H   0  0  0  0  0  0  0  0  0  0  0  0
   -3.0256   -4.1459    0.6335 H   0  0  0  0  0  0  0  0  0  0  0  0
   -4.4337   -4.4223   -0.4197 H   0  0  0  0  0  0  0  0  0  0  0  0
   -2.8280   -5.1026   -0.8396 H   0  0  0  0  0  0  0  0  0  0  0  0
   -4.4573   -1.1581    3.9083 H   0  0  0  0  0  0  0  0  0  0  0  0
   -4.4680   -2.8816    3.4748 H   0  0  0  0  0  0  0  0  0  0  0  0
   -2.9977   -1.9284    3.1954 H   0  0  0  0  0  0  0  0  0  0  0  0
  1 31  1  0  0  0  0
  1 32  1  0  0  0  0
  2 22  1  0  0  0  0
  2 43  1  0  0  0  0
  3 23  1  0  0  0  0
  3 44  1  0  0  0  0
  4 24  1  0  0  0  0
  4 45  1  0  0  0  0
  5 29  1  0  0  0  0
  5 46  1  0  0  0  0
  6 27  1  0  0  0  0
  6 80  1  0  0  0  0
  7 37  1  0  0  0  0
  7 41  1  0  0  0  0
  8 34  2  0  0  0  0
  9 36  1  0  0  0  0
  9 84  1  0  0  0  0
 10 41  2  0  0  0  0
 11 43  2  0  0  0  0
 12 44  2  0  0  0  0
 13 45  2  0  0  0  0
 14 46  2  0  0  0  0
 15 16  1  0  0  0  0
 15 18  1  0  0  0  0
 15 23  1  0  0  0  0
 15 30  1  0  0  0  0
 16 17  1  0  0  0  0
 16 22  1  0  0  0  0
 16 51  1  0  0  0  0
 17 19  1  0  0  0  0
 17 27  1  0  0  0  0
 17 52  1  0  0  0  0
 18 20  1  0  0  0  0
 18 28  1  0  0  0  0
 18 53  1  0  0  0  0
 19 21  1  0  0  0  0
 19 24  1  0  0  0  0
 19 54  1  0  0  0  0
 20 22  1  0  0  0  0
 20 25  1  0  0  0  0
 20 55  1  0  0  0  0
 21 26  1  0  0  0  0
 21 29  1  0  0  0  0
 21 35  1  0  0  0  0
 22 56  1  0  0  0  0
 23 24  1  0  0  0  0
 23 57  1  0  0  0  0
 24 58  1  0  0  0  0
 25 36  1  0  0  0  0
 25 37  1  0  0  0  0
 25 39  1  0  0  0  0
 26 33  1  0  0  0  0
 26 34  1  0  0  0  0
 26 59  1  0  0  0  0
 27 34  1  0  0  0  0
 27 60  1  0  0  0  0
 28 38  1  0  0  0  0
 28 40  1  0  0  0  0
 28 61  1  0  0  0  0
 29 31  1  0  0  0  0
 29 62  1  0  0  0  0
 30 63  1  0  0  0  0
 30 64  1  0  0  0  0
 30 65  1  0  0  0  0
 31 32  1  0  0  0  0
 31 66  1  0  0  0  0
 32 33  1  0  0  0  0
 32 67  1  0  0  0  0
 33 68  1  0  0  0  0
 33 69  1  0  0  0  0
 35 70  1  0  0  0  0
 35 71  1  0  0  0  0
 35 72  1  0  0  0  0
 36 41  1  0  0  0  0
 36 42  1  0  0  0  0
 37 38  2  0  0  0  0
 38 73  1  0  0  0  0
 39 74  1  0  0  0  0
 39 75  1  0  0  0  0
 39 76  1  0  0  0  0
 40 77  1  0  0  0  0
 40 78  1  0  0  0  0
 40 79  1  0  0  0  0
 42 81  1  0  0  0  0
 42 82  1  0  0  0  0
 42 83  1  0  0  0  0
 43 47  1  0  0  0  0
 44 48  1  0  0  0  0
 45 49  1  0  0  0  0
 46 50  1  0  0  0  0
 47 85  1  0  0  0  0
 47 86  1  0  0  0  0
 47 87  1  0  0  0  0
 48 88  1  0  0  0  0
 48 89  1  0  0  0  0
 48 90  1  0  0  0  0
 49 91  1  0  0  0  0
 49 92  1  0  0  0  0
 49 93  1  0  0  0  0
 50 94  1  0  0  0  0
 50 95  1  0  0  0  0
 50 96  1  0  0  0  0
M  END
> <PUBCHEM_COMPOUND_CID>
441685

> <PUBCHEM_CONFORMER_RMSD>
1.2

> <PUBCHEM_CONFORMER_DIVERSEORDER>
1

> <PUBCHEM_MMFF94_PARTIAL_CHARGES>
43
1 -0.3
10 -0.57
11 -0.57
12 -0.57
13 -0.57
14 -0.57
2 -0.43
22 0.28
23 0.28
24 0.28
25 0.14
26 0.06
27 0.34
28 0.14
29 0.38
3 -0.43
31 -0.05
32 -0.05
33 0.09
34 0.45
36 0.34
37 -0.06
38 -0.29
4 -0.43
41 0.66
43 0.66
44 0.66
45 0.66
46 0.66
47 0.06
48 0.06
49 0.06
5 -0.43
50 0.06
6 -0.68
66 0.1
67 0.1
7 -0.23
73 0.15
8 -0.57
80 0.4
84 0.4
9 -0.68

> <PUBCHEM_EFFECTIVE_ROTOR_COUNT>
10

> <PUBCHEM_PHARMACOPHORE_FEATURES>
17
1 1 acceptor
1 10 acceptor
1 11 acceptor
1 12 acceptor
1 13 acceptor
1 14 acceptor
1 6 acceptor
1 6 donor
1 8 acceptor
1 9 acceptor
1 9 donor
5 15 16 18 20 22 rings
5 7 25 36 37 41 rings
6 15 16 17 19 23 24 rings
6 17 19 21 26 27 34 rings
6 18 20 25 28 37 38 rings
7 1 21 26 29 31 32 33 rings

> <PUBCHEM_HEAVY_ATOM_COUNT>
50

> <PUBCHEM_ATOM_DEF_STEREO_COUNT>
18

> <PUBCHEM_ATOM_UDEF_STEREO_COUNT>
0

> <PUBCHEM_BOND_DEF_STEREO_COUNT>
0

> <PUBCHEM_BOND_UDEF_STEREO_COUNT>
0

> <PUBCHEM_ISOTOPIC_ATOM_COUNT>
0

> <PUBCHEM_COMPONENT_COUNT>
1

> <PUBCHEM_CACTVS_TAUTO_COUNT>
5

> <PUBCHEM_CONFORMER_ID>
0006BD5500000001

> <PUBCHEM_MMFF94_ENERGY>
185.9059

> <PUBCHEM_FEATURE_SELFOVERLAP>
86.578

> <PUBCHEM_SHAPE_FINGERPRINT>
10290309 65 18121784090846760838
10581848 31 18337941359823884740
10864689 126 18193551405198530398
1100329 8 18410293601249674621
11578080 2 16589176873052273466
12422481 6 18259982652155667980
12788726 201 18270402664265949526
13140716 1 18335987454377694861
13811026 1 18261397788039584342
14020679 6 18342741801973392530
14068700 675 17534927190442900119
15200665 1 18411135874733539665
15361156 5 18341605989081668060
16112460 7 18334009480631598048
19301679 30 18122342368435387475
19311894 1 18410580544026123943
19319366 153 18059001925446026471
20764821 26 18338233735163393917
21033648 29 18262237836714669529
22122407 14 15502665866636415802
23559900 14 18333452041126017828
3178227 256 18340190999369311769
3383291 50 18411698786618051603
392239 28 18341883079112975929
5776283 40 18337656548227323356
9896288 288 18266738171839945121

> <PUBCHEM_SHAPE_MULTIPOLES>
946.81
13.44
5.69
2.15
2.78
0.61
0.77
1.99
5.26
-2.37
0.03
0.05
-1.38
1.4

> <PUBCHEM_SHAPE_SELFOVERLAP>
2064.163

> <PUBCHEM_SHAPE_VOLUME>
506.6

> <PUBCHEM_COORDINATE_TYPE>
2
5
10

$$$$

