17396188
  -OEChem-06241222553D

 40 41  0     1  0  0  0  0  0999 V2000
    1.9375    0.4142   -1.0582 O   0  0  0  0  0  0  0  0  0  0  0  0
    0.0256   -1.4609   -1.2087 O   0  0  0  0  0  0  0  0  0  0  0  0
   -5.7586    0.0558    1.6187 O   0  0  0  0  0  0  0  0  0  0  0  0
    1.7514    1.1314    1.1113 O   0  0  0  0  0  0  0  0  0  0  0  0
   -2.1464    1.2709   -0.2490 N   0  0  0  0  0  0  0  0  0  0  0  0
    4.3863   -0.4117   -0.6657 N   0  0  0  0  0  0  0  0  0  0  0  0
    5.6838   -0.1746    1.8095 N   0  0  0  0  0  0  0  0  0  0  0  0
   -1.6968   -0.0021   -0.4841 C   0  0  0  0  0  0  0  0  0  0  0  0
   -2.7068   -0.8756   -0.1465 C   0  0  0  0  0  0  0  0  0  0  0  0
   -3.8025   -0.1003    0.3073 C   0  0  0  0  0  0  0  0  0  0  0  0
   -3.4286    1.2233    0.2330 C   0  0  0  0  0  0  0  0  0  0  0  0
   -0.3523   -0.3033   -1.0082 C   0  0  0  0  0  0  0  0  0  0  0  0
    0.6067    0.8502   -1.3121 C   0  0  2  0  0  0  0  0  0  0  0  0
   -2.6581   -2.3500   -0.2394 C   0  0  0  0  0  0  0  0  0  0  0  0
   -4.1579    2.4610    0.5712 C   0  0  0  0  0  0  0  0  0  0  0  0
   -5.0816   -0.5623    0.7676 C   0  0  0  0  0  0  0  0  0  0  0  0
    0.5341    1.2523   -2.7766 C   0  0  0  0  0  0  0  0  0  0  0  0
   -5.6854   -1.8581    0.2271 C   0  0  0  0  0  0  0  0  0  0  0  0
    2.4092    0.6120    0.2156 C   0  0  0  0  0  0  0  0  0  0  0  0
    3.7833    0.1399    0.4061 C   0  0  0  0  0  0  0  0  0  0  0  0
    4.4206    0.2563    1.6218 C   0  0  0  0  0  0  0  0  0  0  0  0
    5.6496   -0.8424   -0.4782 C   0  0  0  0  0  0  0  0  0  0  0  0
    6.2868   -0.7261    0.7376 C   0  0  0  0  0  0  0  0  0  0  0  0
   -1.6301    2.1234   -0.4135 H   0  0  0  0  0  0  0  0  0  0  0  0
    0.3809    1.7289   -0.7014 H   0  0  0  0  0  0  0  0  0  0  0  0
   -3.1981   -2.8209    0.5861 H   0  0  0  0  0  0  0  0  0  0  0  0
   -1.6414   -2.7431   -0.1662 H   0  0  0  0  0  0  0  0  0  0  0  0
   -3.0852   -2.6932   -1.1866 H   0  0  0  0  0  0  0  0  0  0  0  0
   -5.1535    2.4614    0.1157 H   0  0  0  0  0  0  0  0  0  0  0  0
   -3.6324    3.3534    0.2149 H   0  0  0  0  0  0  0  0  0  0  0  0
   -4.2751    2.5519    1.6558 H   0  0  0  0  0  0  0  0  0  0  0  0
    1.2540    2.0485   -2.9939 H   0  0  0  0  0  0  0  0  0  0  0  0
   -0.4683    1.6002   -3.0445 H   0  0  0  0  0  0  0  0  0  0  0  0
    0.7862    0.4082   -3.4285 H   0  0  0  0  0  0  0  0  0  0  0  0
   -5.3863   -2.7004    0.8539 H   0  0  0  0  0  0  0  0  0  0  0  0
   -5.3941   -2.0195   -0.8134 H   0  0  0  0  0  0  0  0  0  0  0  0
   -6.7768   -1.7743    0.2504 H   0  0  0  0  0  0  0  0  0  0  0  0
    3.9495    0.6969    2.4925 H   0  0  0  0  0  0  0  0  0  0  0  0
    6.1348   -1.2857   -1.3390 H   0  0  0  0  0  0  0  0  0  0  0  0
    7.3018   -1.0725    0.8875 H   0  0  0  0  0  0  0  0  0  0  0  0
  1 13  1  0  0  0  0
  1 19  1  0  0  0  0
  2 12  2  0  0  0  0
  3 16  2  0  0  0  0
  4 19  2  0  0  0  0
  5  8  1  0  0  0  0
  5 11  1  0  0  0  0
  5 24  1  0  0  0  0
  6 20  2  0  0  0  0
  6 22  1  0  0  0  0
  7 21  2  0  0  0  0
  7 23  1  0  0  0  0
  8  9  2  0  0  0  0
  8 12  1  0  0  0  0
  9 10  1  0  0  0  0
  9 14  1  0  0  0  0
 10 11  2  0  0  0  0
 10 16  1  0  0  0  0
 11 15  1  0  0  0  0
 12 13  1  0  0  0  0
 13 17  1  0  0  0  0
 13 25  1  0  0  0  0
 14 26  1  0  0  0  0
 14 27  1  0  0  0  0
 14 28  1  0  0  0  0
 15 29  1  0  0  0  0
 15 30  1  0  0  0  0
 15 31  1  0  0  0  0
 16 18  1  0  0  0  0
 17 32  1  0  0  0  0
 17 33  1  0  0  0  0
 17 34  1  0  0  0  0
 18 35  1  0  0  0  0
 18 36  1  0  0  0  0
 18 37  1  0  0  0  0
 19 20  1  0  0  0  0
 20 21  1  0  0  0  0
 21 38  1  0  0  0  0
 22 23  2  0  0  0  0
 22 39  1  0  0  0  0
 23 40  1  0  0  0  0
M  END
> <PUBCHEM_COMPOUND_CID>
17396188

> <PUBCHEM_CONFORMER_RMSD>
1.2

> <PUBCHEM_CONFORMER_DIVERSEORDER>
1
57
23
21
6
25
41
65
61
62
49
43
30
38
48
31
8
80
10
2
32
36
55
12
79
20
63
72
13
17
29
46
11
71
18
22
33
51
50
52
76
47
64
19
5
40
81
54
83
28
39
75
53
45
84
78
73
27
44
3
24
68
82
59
15
9
34
37
7
4
14
66
70
56
77
16
60
58
67
42
69
74
35
26

> <PUBCHEM_MMFF94_PARTIAL_CHARGES>
26
1 -0.43
10 -0.09
11 -0.33
12 0.59
13 0.34
14 0.18
15 0.18
16 0.6
18 0.06
19 0.63
2 -0.57
20 0.4
21 0.16
22 0.16
23 0.16
24 0.27
3 -0.57
38 0.15
39 0.15
4 -0.57
40 0.15
5 0.03
6 -0.62
7 -0.62
8 -0.24
9 -0.18

> <PUBCHEM_EFFECTIVE_ROTOR_COUNT>
6

> <PUBCHEM_PHARMACOPHORE_FEATURES>
9
1 2 acceptor
1 3 acceptor
1 4 acceptor
1 5 cation
1 5 donor
1 6 acceptor
1 7 acceptor
5 5 8 9 10 11 rings
6 6 7 20 21 22 23 rings

> <PUBCHEM_HEAVY_ATOM_COUNT>
23

> <PUBCHEM_ATOM_DEF_STEREO_COUNT>
0

> <PUBCHEM_ATOM_UDEF_STEREO_COUNT>
1

> <PUBCHEM_BOND_DEF_STEREO_COUNT>
0

> <PUBCHEM_BOND_UDEF_STEREO_COUNT>
0

> <PUBCHEM_ISOTOPIC_ATOM_COUNT>
0

> <PUBCHEM_COMPONENT_COUNT>
1

> <PUBCHEM_CACTVS_TAUTO_COUNT>
52

> <PUBCHEM_CONFORMER_ID>
010971DC00000001

> <PUBCHEM_MMFF94_ENERGY>
50.673

> <PUBCHEM_FEATURE_SELFOVERLAP>
45.673

> <PUBCHEM_SHAPE_FINGERPRINT>
10 15 18040722437491481928
10319926 262 18186513302520337295
11089746 13 5617242742282547578
11545043 162 18410578392062639049
11991303 11 15552224317275291519
12166972 35 17988644035146078869
12236239 1 17989483009161344693
12507557 5 16588025688709408467
12516196 113 16845574201583629444
12553582 1 17131846339089188186
12596602 18 18342460335381271728
12633257 1 18114462266786752713
12892183 10 18261114122893277188
13103583 49 17560792273282594849
13533116 47 17702940323260570405
13544653 18 15554447426802331892
13583140 156 17240776046879886278
13675066 3 17821734923012019444
13685833 64 15626216910360655417
13914758 101 17918001590214611271
14251764 18 18336827507436917878
14251764 30 17917430969075514090
14341114 176 18333730195871436544
14420673 8 18336824316408845918
15042514 8 18265329505021061719
15188451 53 18341335500926855235
15348495 7 17894918382423212594
15537594 2 17560808718918294970
16988056 13 8130085234247348467
17349148 13 18201149963171635279
1813 80 17346593106203630798
18222031 100 17346323665413988140
19784866 240 16988840562646227083
200 152 15626230147697742476
20871999 31 10952055558726523775
21033648 29 17313682519655023704
21150785 3 6122500173933163057
21637258 2 17417820530101997336
22950370 63 17203890781968865364
23402539 116 18408888413253288527
23522609 53 17559085857465319324
23559900 14 11743832526468167279
23622692 88 18273777142629013343
2767999 5 5112006132011047018
2838139 119 14706932851906037306
2871803 45 13110969729740927072
3004659 81 14548746114408274544
314194 84 16128370493494917696
351380 3 17418096520548071298
3737641 26 17488191580930775242
4259306 186 15698008452575469114
465052 167 17274815840032931322
474 4 14056995018588501486
5104073 3 18262798437014979955
559249 180 17775009003220570479
5924683 9 17749964236752655431
7970288 3 17060623282518635683

> <PUBCHEM_SHAPE_MULTIPOLES>
434.91
14.87
1.81
1.67
8.65
0.15
-0.24
-5.76
6.78
-2.39
-0.35
0.82
0.49
-1.07

> <PUBCHEM_SHAPE_SELFOVERLAP>
925.197

> <PUBCHEM_SHAPE_VOLUME>
242.3

> <PUBCHEM_COORDINATE_TYPE>
2
5
10

$$$$

