440141
  -OEChem-07051212483D

 42 44  0     1  0  0  0  0  0999 V2000
   -0.5927   -3.7409   -0.8646 P   0  0  0  0  0  0  0  0  0  0  0  0
    4.6836    1.9392   -0.3301 P   0  0  0  0  0  0  0  0  0  0  0  0
    1.1133    0.2659    1.4252 O   0  0  0  0  0  0  0  0  0  0  0  0
   -0.8434   -2.3830   -0.0152 O   0  0  0  0  0  0  0  0  0  0  0  0
    1.1516   -2.7611    1.7909 O   0  0  0  0  0  0  0  0  0  0  0  0
    3.6614    1.0984    0.6025 O   0  0  0  0  0  0  0  0  0  0  0  0
   -0.4951   -3.2231   -2.3935 O   0  0  0  0  0  0  0  0  0  0  0  0
   -2.0325   -4.4753   -0.8119 O   0  0  0  0  0  0  0  0  0  0  0  0
    0.5623   -4.5760   -0.3949 O   0  0  0  0  0  0  0  0  0  0  0  0
    3.8437    2.1924   -1.6887 O   0  0  0  0  0  0  0  0  0  0  0  0
    5.7722    0.8264   -0.7679 O   0  0  0  0  0  0  0  0  0  0  0  0
    5.2571    3.1703    0.3084 O   0  0  0  0  0  0  0  0  0  0  0  0
   -0.9675    0.7688    0.4016 N   0  0  0  0  0  0  0  0  0  0  0  0
   -1.4858    2.6266   -0.7201 N   0  0  0  0  0  0  0  0  0  0  0  0
   -3.1942    0.0328    1.0356 N   0  0  0  0  0  0  0  0  0  0  0  0
   -4.9048    1.5649    0.2096 N   0  0  0  0  0  0  0  0  0  0  0  0
   -4.3715    3.5226   -1.0594 N   0  0  0  0  0  0  0  0  0  0  0  0
    0.1894   -1.4205    0.0428 C   0  0  2  0  0  0  0  0  0  0  0  0
    1.4684   -1.9581    0.6539 C   0  0  1  0  0  0  0  0  0  0  0  0
   -0.1471   -0.2840    0.9961 C   0  0  1  0  0  0  0  0  0  0  0  0
    2.1620   -0.6851    1.1286 C   0  0  1  0  0  0  0  0  0  0  0  0
    3.0759   -0.0782    0.0732 C   0  0  0  0  0  0  0  0  0  0  0  0
   -2.3300    0.8708    0.4437 C   0  0  0  0  0  0  0  0  0  0  0  0
   -0.5074    1.8477   -0.3083 C   0  0  0  0  0  0  0  0  0  0  0  0
   -2.6305    2.0278   -0.2572 C   0  0  0  0  0  0  0  0  0  0  0  0
   -3.9756    2.3665   -0.3647 C   0  0  0  0  0  0  0  0  0  0  0  0
   -4.4628    0.4641    0.8645 C   0  0  0  0  0  0  0  0  0  0  0  0
    0.3820   -1.0359   -0.9663 H   0  0  0  0  0  0  0  0  0  0  0  0
    2.0743   -2.5556   -0.0323 H   0  0  0  0  0  0  0  0  0  0  0  0
   -0.6799   -0.6374    1.8876 H   0  0  0  0  0  0  0  0  0  0  0  0
    2.7192   -0.8372    2.0600 H   0  0  0  0  0  0  0  0  0  0  0  0
    2.5086    0.1884   -0.8239 H   0  0  0  0  0  0  0  0  0  0  0  0
    3.8623   -0.7892   -0.1984 H   0  0  0  0  0  0  0  0  0  0  0  0
    1.9924   -3.0495    2.1853 H   0  0  0  0  0  0  0  0  0  0  0  0
    0.5440    2.0148   -0.4997 H   0  0  0  0  0  0  0  0  0  0  0  0
   -5.2336   -0.1546    1.3115 H   0  0  0  0  0  0  0  0  0  0  0  0
   -0.2673   -3.8659   -3.0985 H   0  0  0  0  0  0  0  0  0  0  0  0
   -2.1182   -5.3788   -1.1841 H   0  0  0  0  0  0  0  0  0  0  0  0
   -3.6802    4.1220   -1.4895 H   0  0  0  0  0  0  0  0  0  0  0  0
   -5.3551    3.7468   -1.1244 H   0  0  0  0  0  0  0  0  0  0  0  0
    4.2369    2.7510   -2.3926 H   0  0  0  0  0  0  0  0  0  0  0  0
    6.5635    1.1098   -1.2736 H   0  0  0  0  0  0  0  0  0  0  0  0
  1  4  1  0  0  0  0
  1  7  1  0  0  0  0
  1  8  1  0  0  0  0
  1  9  2  0  0  0  0
  2  6  1  0  0  0  0
  2 10  1  0  0  0  0
  2 11  1  0  0  0  0
  2 12  2  0  0  0  0
  3 20  1  0  0  0  0
  3 21  1  0  0  0  0
  4 18  1  0  0  0  0
  5 19  1  0  0  0  0
  5 34  1  0  0  0  0
  6 22  1  0  0  0  0
  7 37  1  0  0  0  0
  8 38  1  0  0  0  0
 10 41  1  0  0  0  0
 11 42  1  0  0  0  0
 13 20  1  0  0  0  0
 13 23  1  0  0  0  0
 13 24  1  0  0  0  0
 14 24  2  0  0  0  0
 14 25  1  0  0  0  0
 15 23  2  0  0  0  0
 15 27  1  0  0  0  0
 16 26  1  0  0  0  0
 16 27  2  0  0  0  0
 17 26  1  0  0  0  0
 17 39  1  0  0  0  0
 17 40  1  0  0  0  0
 18 19  1  0  0  0  0
 18 20  1  0  0  0  0
 18 28  1  0  0  0  0
 19 21  1  0  0  0  0
 19 29  1  0  0  0  0
 20 30  1  0  0  0  0
 21 22  1  0  0  0  0
 21 31  1  0  0  0  0
 22 32  1  0  0  0  0
 22 33  1  0  0  0  0
 23 25  1  0  0  0  0
 24 35  1  0  0  0  0
 25 26  2  0  0  0  0
 27 36  1  0  0  0  0
M  END
> <PUBCHEM_COMPOUND_CID>
440141

> <PUBCHEM_CONFORMER_RMSD>
0.8

> <PUBCHEM_CONFORMER_DIVERSEORDER>
1
38
50
6
62
24
55
54
31
28
25
30
61
53
35
13
17
46
44
56
21
39
33
37
59
57
3
60
51
34
23
58
12
14
4
45
41
52
48
10
27
15
49
9
47
43
16
5
7
8
26
29
20
19
22
40
11
36
18
2
42
32

> <PUBCHEM_MMFF94_PARTIAL_CHARGES>
36
1 1.51
10 -0.77
11 -0.77
12 -0.7
13 0.05
14 -0.57
15 -0.57
16 -0.62
17 -0.9
18 0.28
19 0.28
2 1.51
20 0.54
21 0.28
22 0.28
23 0.11
24 0.04
25 0.23
26 0.41
27 0.47
3 -0.56
34 0.4
35 0.15
36 0.15
37 0.5
38 0.5
39 0.4
4 -0.55
40 0.4
41 0.5
42 0.5
5 -0.68
6 -0.55
7 -0.77
8 -0.77
9 -0.7

> <PUBCHEM_EFFECTIVE_ROTOR_COUNT>
7

> <PUBCHEM_PHARMACOPHORE_FEATURES>
19
1 10 acceptor
1 11 acceptor
1 12 acceptor
1 17 cation
1 17 donor
1 3 acceptor
1 5 acceptor
1 5 donor
1 7 acceptor
1 8 acceptor
1 9 acceptor
3 13 14 24 cation
3 13 15 23 cation
3 15 16 27 cation
4 1 7 8 9 anion
4 2 10 11 12 anion
5 13 14 23 24 25 rings
5 3 18 19 20 21 rings
6 15 16 23 25 26 27 rings

> <PUBCHEM_HEAVY_ATOM_COUNT>
27

> <PUBCHEM_ATOM_DEF_STEREO_COUNT>
4

> <PUBCHEM_ATOM_UDEF_STEREO_COUNT>
0

> <PUBCHEM_BOND_DEF_STEREO_COUNT>
0

> <PUBCHEM_BOND_UDEF_STEREO_COUNT>
0

> <PUBCHEM_ISOTOPIC_ATOM_COUNT>
0

> <PUBCHEM_COMPONENT_COUNT>
1

> <PUBCHEM_CACTVS_TAUTO_COUNT>
3

> <PUBCHEM_CONFORMER_ID>
0006B74D00000001

> <PUBCHEM_MMFF94_ENERGY>
-6.2562

> <PUBCHEM_FEATURE_SELFOVERLAP>
97.094

> <PUBCHEM_SHAPE_FINGERPRINT>
10871710 139 18125157139096536146
11488393 25 18050551134967453202
12156800 1 17975383872985285055
12788726 201 17981056223566608234
13149001 5 17531816736108122256
13583140 156 16914842450506963618
13590594 115 17691401915469717123
1454969 45 18339641145160935699
14790565 3 18409725170929052777
15131766 46 15049745025797537244
17539 30 17973450897178653878
17980427 26 17417826096422409378
18681886 176 18194694876370547210
20645477 70 17905621243625114075
21033648 29 17540578942064854920
21524375 3 18341607136069921360
21756936 100 17988640728195308216
22620623 9 17824818945537698462
23227448 37 18265330604142117508
23558518 356 17765435348998101316
23559900 14 17908145730585361729
3060560 45 18120378915345314750
3388396 114 16972785227628441508
3729539 64 17972857414788093942
38695281 34 18410571812030323069
394222 165 18271530917492851642
458136 41 18188765188407533131
5104073 3 17773592913675210737
6669772 16 18261105327286162790
7808743 9 18340209562360435400
81228 2 17901980476604442123
9709674 26 17762906859190838369

> <PUBCHEM_SHAPE_MULTIPOLES>
479.75
9.3
5.57
1.36
4.48
6.16
0.26
-12.48
0.87
-0.63
2.61
0.24
0.7
-0.46

> <PUBCHEM_SHAPE_SELFOVERLAP>
997.299

> <PUBCHEM_SHAPE_VOLUME>
275.8

> <PUBCHEM_COORDINATE_TYPE>
2
5
10

$$$$

