440962
  -OEChem-07051212512D

 45 45  0     1  0  0  0  0  0999 V2000
    3.4030   -0.6160    0.0000 P   0  0  0  0  0  0  0  0  0  0  0  0
    7.7331    0.8840    0.0000 O   0  0  0  0  0  0  0  0  0  0  0  0
   10.3312   -0.6160    0.0000 O   0  0  0  0  0  0  0  0  0  0  0  0
    6.8671   -1.6160    0.0000 O   0  0  0  0  0  0  0  0  0  0  0  0
    8.0991    2.2500    0.0000 O   0  0  0  0  0  0  0  0  0  0  0  0
    6.0010    0.8840    0.0000 O   0  0  0  0  0  0  0  0  0  0  0  0
    4.2690   -0.1160    0.0000 O   0  0  0  0  0  0  0  0  0  0  0  0
   10.0991    2.2500    0.0000 O   0  0  0  0  0  0  0  0  0  0  0  0
    8.5991    3.1160    0.0000 O   0  0  0  0  0  0  0  0  0  0  0  0
   10.3312   -1.6160    0.0000 O   0  0  0  0  0  0  0  0  0  0  0  0
    2.5369   -1.1160    0.0000 O   0  0  0  0  0  0  0  0  0  0  0  0
    2.9030    0.2500    0.0000 O   0  0  0  0  0  0  0  0  0  0  0  0
    3.9030   -1.4820    0.0000 O   0  0  0  0  0  0  0  0  0  0  0  0
    8.5991   -1.6160    0.0000 N   0  0  0  0  0  0  0  0  0  0  0  0
    8.5991   -0.6160    0.0000 C   0  0  1  0  0  0  0  0  0  0  0  0
    7.7331   -0.1160    0.0000 C   0  0  2  0  0  0  0  0  0  0  0  0
    9.4651   -0.1160    0.0000 C   0  0  2  0  0  0  0  0  0  0  0  0
    9.4651    0.8840    0.0000 C   0  0  0  0  0  0  0  0  0  0  0  0
    6.8671   -0.6160    0.0000 C   0  0  1  0  0  0  0  0  0  0  0  0
    8.5991    1.3840    0.0000 C   0  0  3  0  0  0  0  0  0  0  0  0
    6.0010   -0.1160    0.0000 C   0  0  1  0  0  0  0  0  0  0  0  0
    9.0991    2.2500    0.0000 C   0  0  0  0  0  0  0  0  0  0  0  0
    5.1350   -0.6160    0.0000 C   0  0  0  0  0  0  0  0  0  0  0  0
    9.4651   -2.1160    0.0000 C   0  0  0  0  0  0  0  0  0  0  0  0
    9.4651   -3.1160    0.0000 C   0  0  0  0  0  0  0  0  0  0  0  0
    8.0622   -0.9260    0.0000 H   0  0  0  0  0  0  0  0  0  0  0  0
    6.9970    0.3090    0.0000 H   0  0  0  0  0  0  0  0  0  0  0  0
   10.0021    0.1940    0.0000 H   0  0  0  0  0  0  0  0  0  0  0  0
   10.0757    0.7763    0.0000 H   0  0  0  0  0  0  0  0  0  0  0  0
    9.6772    1.4666    0.0000 H   0  0  0  0  0  0  0  0  0  0  0  0
    6.3301   -0.9260    0.0000 H   0  0  0  0  0  0  0  0  0  0  0  0
    6.5380    0.1940    0.0000 H   0  0  0  0  0  0  0  0  0  0  0  0
    8.0622   -1.9260    0.0000 H   0  0  0  0  0  0  0  0  0  0  0  0
   10.8681   -0.3060    0.0000 H   0  0  0  0  0  0  0  0  0  0  0  0
    4.7365   -1.0910    0.0000 H   0  0  0  0  0  0  0  0  0  0  0  0
    5.5335   -1.0910    0.0000 H   0  0  0  0  0  0  0  0  0  0  0  0
    6.3301   -1.9260    0.0000 H   0  0  0  0  0  0  0  0  0  0  0  0
    7.4791    2.2500    0.0000 H   0  0  0  0  0  0  0  0  0  0  0  0
    5.4641    1.1940    0.0000 H   0  0  0  0  0  0  0  0  0  0  0  0
    8.8451   -3.1160    0.0000 H   0  0  0  0  0  0  0  0  0  0  0  0
    9.4651   -3.7360    0.0000 H   0  0  0  0  0  0  0  0  0  0  0  0
   10.0851   -3.1160    0.0000 H   0  0  0  0  0  0  0  0  0  0  0  0
   10.4091    2.7869    0.0000 H   0  0  0  0  0  0  0  0  0  0  0  0
    2.0000   -0.8060    0.0000 H   0  0  0  0  0  0  0  0  0  0  0  0
    3.2130    0.7869    0.0000 H   0  0  0  0  0  0  0  0  0  0  0  0
  1  7  1  0  0  0  0
  1 11  1  0  0  0  0
  1 12  1  0  0  0  0
  1 13  2  0  0  0  0
  2 16  1  0  0  0  0
  2 20  1  0  0  0  0
 17  3  1  6  0  0  0
  3 34  1  0  0  0  0
 19  4  1  6  0  0  0
  4 37  1  0  0  0  0
  5 20  1  0  0  0  0
  5 38  1  0  0  0  0
 21  6  1  1  0  0  0
  6 39  1  0  0  0  0
  7 23  1  0  0  0  0
  8 22  1  0  0  0  0
  8 43  1  0  0  0  0
  9 22  2  0  0  0  0
 10 24  2  0  0  0  0
 11 44  1  0  0  0  0
 12 45  1  0  0  0  0
 15 14  1  1  0  0  0
 14 24  1  0  0  0  0
 14 33  1  0  0  0  0
 15 16  1  0  0  0  0
 15 17  1  0  0  0  0
 15 26  1  0  0  0  0
 16 19  1  0  0  0  0
 16 27  1  1  0  0  0
 17 18  1  0  0  0  0
 17 28  1  0  0  0  0
 18 20  1  0  0  0  0
 18 29  1  0  0  0  0
 18 30  1  0  0  0  0
 19 21  1  0  0  0  0
 19 31  1  0  0  0  0
 20 22  1  0  0  0  0
 21 23  1  0  0  0  0
 21 32  1  0  0  0  0
 23 35  1  0  0  0  0
 23 36  1  0  0  0  0
 24 25  1  0  0  0  0
 25 40  1  0  0  0  0
 25 41  1  0  0  0  0
 25 42  1  0  0  0  0
M  END
> <PUBCHEM_COMPOUND_CID>
440962

> <PUBCHEM_COMPOUND_CANONICALIZED>
1

> <PUBCHEM_CACTVS_COMPLEXITY>
551

> <PUBCHEM_CACTVS_HBOND_ACCEPTOR>
12

> <PUBCHEM_CACTVS_HBOND_DONOR>
8

> <PUBCHEM_CACTVS_ROTATABLE_BOND>
7

> <PUBCHEM_CACTVS_SUBSKEYS>
AAADceByPAIAAAAAAAAAAAAAAAAAAAAAAAAkAAAAAAAAAAAAAAAAHgAQCCAACDzhgAYCCALABxAIQAGQGIIAAAAAAAAAAIFIAAATEBIAgAQHQAAHFgCXAAH6+aeQAAAAAAAAAAAAAAAAAAAAAAAAAAAAAA==

> <PUBCHEM_IUPAC_OPENEYE_NAME>
(4S,5R,6R)-5-acetamido-6-[(1R,2R)-1,2-dihydroxy-3-phosphonooxy-propyl]-2,4-dihydroxy-tetrahydropyran-2-carboxylic acid

> <PUBCHEM_IUPAC_CAS_NAME>
(4S,5R,6R)-5-acetamido-6-[(1R,2R)-1,2-dihydroxy-3-phosphonooxypropyl]-2,4-dihydroxy-2-oxanecarboxylic acid

> <PUBCHEM_IUPAC_NAME>
(4S,5R,6R)-5-acetamido-6-[(1R,2R)-1,2-dihydroxy-3-phosphonooxypropyl]-2,4-dihydroxyoxane-2-carboxylic acid

> <PUBCHEM_IUPAC_SYSTEMATIC_NAME>
(4S,5R,6R)-5-acetamido-6-[(1R,2R)-1,2-bis(oxidanyl)-3-phosphonooxy-propyl]-2,4-bis(oxidanyl)oxane-2-carboxylic acid

> <PUBCHEM_IUPAC_TRADITIONAL_NAME>
(4S,5R,6R)-5-acetamido-6-[(1R,2R)-1,2-dihydroxy-3-phosphonooxy-propyl]-2,4-dihydroxy-tetrahydropyran-2-carboxylic acid

> <PUBCHEM_IUPAC_INCHI>
InChI=1S/C11H20NO12P/c1-4(13)12-7-5(14)2-11(19,10(17)18)24-9(7)8(16)6(15)3-23-25(20,21)22/h5-9,14-16,19H,2-3H2,1H3,(H,12,13)(H,17,18)(H2,20,21,22)/t5-,6+,7+,8+,9+,11?/m0/s1

> <PUBCHEM_IUPAC_INCHIKEY>
SQMNIXJSBCSNCI-LUWBGTNYSA-N

> <PUBCHEM_XLOGP3_AA>
-4.6

> <PUBCHEM_EXACT_MASS>
389.072312

> <PUBCHEM_MOLECULAR_FORMULA>
C11H20NO12P

> <PUBCHEM_MOLECULAR_WEIGHT>
389.249762

> <PUBCHEM_OPENEYE_CAN_SMILES>
CC(=O)NC1C(CC(OC1C(C(COP(=O)(O)O)O)O)(C(=O)O)O)O

> <PUBCHEM_OPENEYE_ISO_SMILES>
CC(=O)N[C@@H]1[C@H](CC(O[C@H]1[C@@H]([C@@H](COP(=O)(O)O)O)O)(C(=O)O)O)O

> <PUBCHEM_CACTVS_TPSA>
223

> <PUBCHEM_MONOISOTOPIC_WEIGHT>
389.072312

> <PUBCHEM_TOTAL_CHARGE>
0

> <PUBCHEM_HEAVY_ATOM_COUNT>
25

> <PUBCHEM_ATOM_DEF_STEREO_COUNT>
5

> <PUBCHEM_ATOM_UDEF_STEREO_COUNT>
1

> <PUBCHEM_BOND_DEF_STEREO_COUNT>
0

> <PUBCHEM_BOND_UDEF_STEREO_COUNT>
0

> <PUBCHEM_ISOTOPIC_ATOM_COUNT>
0

> <PUBCHEM_COMPONENT_COUNT>
1

> <PUBCHEM_CACTVS_TAUTO_COUNT>
2

> <PUBCHEM_COORDINATE_TYPE>
1
5
255

> <PUBCHEM_BONDANNOTATIONS>
15  14  5
16  27  5
20  22  3
17  3  6
19  4  6
21  6  5

$$$$

