6698
  -OEChem-06261201273D

 41 44  0     0  0  0  0  0  0999 V2000
   -0.4153    1.4800    0.2014 O   0  0  0  0  0  0  0  0  0  0  0  0
   -3.9979   -2.4519   -0.3079 O   0  0  0  0  0  0  0  0  0  0  0  0
    4.3497    2.7899   -1.1193 O   0  0  0  0  0  0  0  0  0  0  0  0
    2.6957    1.5529   -2.0686 O   0  0  0  0  0  0  0  0  0  0  0  0
    1.5825   -0.1107   -0.1401 N   0  0  0  0  0  0  0  0  0  0  0  0
   -2.2306    3.2710    0.5739 N   0  0  0  0  0  0  0  0  0  0  0  0
   -0.7952   -0.8083   -0.1633 C   0  0  0  0  0  0  0  0  0  0  0  0
   -1.7314   -1.8357   -0.2976 C   0  0  0  0  0  0  0  0  0  0  0  0
   -2.6816    0.8647    0.1902 C   0  0  0  0  0  0  0  0  0  0  0  0
   -3.6179   -0.1627    0.0562 C   0  0  0  0  0  0  0  0  0  0  0  0
    0.5720   -1.0921   -0.2643 C   0  0  0  0  0  0  0  0  0  0  0  0
   -1.2360    0.5794    0.0853 C   0  0  0  0  0  0  0  0  0  0  0  0
   -3.1770   -1.5504   -0.1924 C   0  0  0  0  0  0  0  0  0  0  0  0
   -3.1125    2.1758    0.4261 C   0  0  0  0  0  0  0  0  0  0  0  0
   -1.3005   -3.1467   -0.5336 C   0  0  0  0  0  0  0  0  0  0  0  0
    0.9972   -2.4000   -0.4993 C   0  0  0  0  0  0  0  0  0  0  0  0
   -4.9850    0.1209    0.1580 C   0  0  0  0  0  0  0  0  0  0  0  0
    0.0629   -3.4251   -0.6338 C   0  0  0  0  0  0  0  0  0  0  0  0
    2.9081   -0.1653    0.3252 C   0  0  0  0  0  0  0  0  0  0  0  0
   -4.4759    2.4540    0.5270 C   0  0  0  0  0  0  0  0  0  0  0  0
   -5.4101    1.4287    0.3931 C   0  0  0  0  0  0  0  0  0  0  0  0
    3.8877    0.6958   -0.1796 C   0  0  0  0  0  0  0  0  0  0  0  0
    3.2512   -1.0970    1.3098 C   0  0  0  0  0  0  0  0  0  0  0  0
    5.1972    0.6257    0.2960 C   0  0  0  0  0  0  0  0  0  0  0  0
    4.5606   -1.1669    1.7853 C   0  0  0  0  0  0  0  0  0  0  0  0
    5.5336   -0.3057    1.2784 C   0  0  0  0  0  0  0  0  0  0  0  0
    3.5685    1.6799   -1.2061 C   0  0  0  0  0  0  0  0  0  0  0  0
   -2.0090   -3.9632   -0.6437 H   0  0  0  0  0  0  0  0  0  0  0  0
    2.0470   -2.6541   -0.6175 H   0  0  0  0  0  0  0  0  0  0  0  0
    1.2960    0.8078   -0.4631 H   0  0  0  0  0  0  0  0  0  0  0  0
   -5.7334   -0.6607    0.0575 H   0  0  0  0  0  0  0  0  0  0  0  0
    0.3957   -4.4413   -0.8246 H   0  0  0  0  0  0  0  0  0  0  0  0
   -4.8279    3.4665    0.7100 H   0  0  0  0  0  0  0  0  0  0  0  0
   -6.4711    1.6478    0.4720 H   0  0  0  0  0  0  0  0  0  0  0  0
    2.5120   -1.7629    1.7470 H   0  0  0  0  0  0  0  0  0  0  0  0
   -1.2308    3.1433    0.5116 H   0  0  0  0  0  0  0  0  0  0  0  0
   -2.6009    4.1972    0.7424 H   0  0  0  0  0  0  0  0  0  0  0  0
    5.9817    1.2731   -0.0873 H   0  0  0  0  0  0  0  0  0  0  0  0
    4.8217   -1.8878    2.5545 H   0  0  0  0  0  0  0  0  0  0  0  0
    6.5534   -0.3616    1.6477 H   0  0  0  0  0  0  0  0  0  0  0  0
    4.1285    3.4473   -1.8131 H   0  0  0  0  0  0  0  0  0  0  0  0
  1 12  2  0  0  0  0
  2 13  2  0  0  0  0
  3 27  1  0  0  0  0
  3 41  1  0  0  0  0
  4 27  2  0  0  0  0
  5 11  1  0  0  0  0
  5 19  1  0  0  0  0
  5 30  1  0  0  0  0
  6 14  1  0  0  0  0
  6 36  1  0  0  0  0
  6 37  1  0  0  0  0
  7  8  2  0  0  0  0
  7 11  1  0  0  0  0
  7 12  1  0  0  0  0
  8 13  1  0  0  0  0
  8 15  1  0  0  0  0
  9 10  2  0  0  0  0
  9 12  1  0  0  0  0
  9 14  1  0  0  0  0
 10 13  1  0  0  0  0
 10 17  1  0  0  0  0
 11 16  2  0  0  0  0
 14 20  2  0  0  0  0
 15 18  2  0  0  0  0
 15 28  1  0  0  0  0
 16 18  1  0  0  0  0
 16 29  1  0  0  0  0
 17 21  2  0  0  0  0
 17 31  1  0  0  0  0
 18 32  1  0  0  0  0
 19 22  1  0  0  0  0
 19 23  2  0  0  0  0
 20 21  1  0  0  0  0
 20 33  1  0  0  0  0
 21 34  1  0  0  0  0
 22 24  2  0  0  0  0
 22 27  1  0  0  0  0
 23 25  1  0  0  0  0
 23 35  1  0  0  0  0
 24 26  1  0  0  0  0
 24 38  1  0  0  0  0
 25 26  2  0  0  0  0
 25 39  1  0  0  0  0
 26 40  1  0  0  0  0
M  END
> <PUBCHEM_COMPOUND_CID>
6698

> <PUBCHEM_CONFORMER_RMSD>
0.6

> <PUBCHEM_CONFORMER_DIVERSEORDER>
1
9
10
12
13
3
4
14
8
7
11
2
5
6

> <PUBCHEM_MMFF94_PARTIAL_CHARGES>
41
1 -0.57
10 0.09
11 0.1
12 0.4
13 0.4
14 0.1
15 -0.15
16 -0.15
17 -0.15
18 -0.15
19 0.1
2 -0.57
20 -0.15
21 -0.15
22 0.09
23 -0.15
24 -0.15
25 -0.15
26 -0.15
27 0.63
28 0.15
29 0.15
3 -0.65
30 0.4
31 0.15
32 0.15
33 0.15
34 0.15
35 0.15
36 0.4
37 0.4
38 0.15
39 0.15
4 -0.57
40 0.15
41 0.5
5 -0.6
6 -0.9
7 0.09
8 0.09
9 0.09

> <PUBCHEM_EFFECTIVE_ROTOR_COUNT>
3

> <PUBCHEM_PHARMACOPHORE_FEATURES>
13
1 1 acceptor
1 2 acceptor
1 3 acceptor
1 4 acceptor
1 5 cation
1 5 donor
1 6 cation
1 6 donor
3 3 4 27 anion
6 19 22 23 24 25 26 rings
6 7 8 11 15 16 18 rings
6 7 8 9 10 12 13 rings
6 9 10 14 17 20 21 rings

> <PUBCHEM_HEAVY_ATOM_COUNT>
27

> <PUBCHEM_ATOM_DEF_STEREO_COUNT>
0

> <PUBCHEM_ATOM_UDEF_STEREO_COUNT>
0

> <PUBCHEM_BOND_DEF_STEREO_COUNT>
0

> <PUBCHEM_BOND_UDEF_STEREO_COUNT>
0

> <PUBCHEM_ISOTOPIC_ATOM_COUNT>
0

> <PUBCHEM_COMPONENT_COUNT>
1

> <PUBCHEM_CACTVS_TAUTO_COUNT>
19

> <PUBCHEM_CONFORMER_ID>
00001A2A00000001

> <PUBCHEM_MMFF94_ENERGY>
119.1983

> <PUBCHEM_FEATURE_SELFOVERLAP>
66.066

> <PUBCHEM_SHAPE_FINGERPRINT>
10411042 1 17686909315174788599
10670039 82 18337942433533527804
10906281 52 18336814369611961929
12107183 9 18196662997879113178
12236239 1 18272092669614568082
12390115 104 18113889485827270851
12403259 118 18342182175765430619
12422481 6 17916870247793394749
12596602 18 17632295657778140475
12788726 201 18123467168229429942
12978246 48 18411698811375018417
13140716 1 18263083228429018897
13583140 156 17059787739839112847
13726171 33 17972574629424741344
14068700 675 17897460393752231407
14117953 113 18268712890470973773
14739800 52 18119539730687150104
14767858 380 18261690203289625863
14790565 3 18408877421926114721
15403338 16 17130999826398977089
16752209 62 18261958440365246318
17818456 19 18410015446683317842
20511986 3 18200607924870957604
20715895 44 18125166176098552469
21033648 144 17845940628178635420
21033648 29 17604734204495545698
21133410 38 17040372769776054653
21756936 100 18114479893854917650
21859007 373 17127618923260931757
22149856 69 18116973659879208689
23366157 5 18125995216318803319
23559900 14 18115576188372984486
23569917 315 18409168831242056135
23598288 3 18195243321919281222
25147074 1 18201158754937833612
338550 245 18410572929033010854
350125 39 18191864741677417710
3680242 22 18339637953114057320
38570 142 17630582580603627844
469060 322 18262780879911672419
474 4 18130785676563349866
5104073 3 18272373027456703232
5265222 85 18115306662760162294
6371009 1 18337685199310621733
6700243 42 17464226371709079822
7064713 232 18409172138160106048
7808743 9 18335702693972145954
9981440 41 18410854386962020459

> <PUBCHEM_SHAPE_MULTIPOLES>
522.21
11.78
3.6
1.16
3.57
0.82
0.06
-5.77
-2.94
-2
0.82
1.72
-0.24
-2.22

> <PUBCHEM_SHAPE_SELFOVERLAP>
1182.166

> <PUBCHEM_SHAPE_VOLUME>
269.7

> <PUBCHEM_COORDINATE_TYPE>
2
5
10

$$$$

