64142
  -OEChem-07051212542D

 94 96  0     1  0  0  0  0  0999 V2000
    3.1350    6.4030    0.0000 S   0  0  0  0  0  0  0  0  0  0  0  0
    5.3710   14.5688    0.0000 S   0  0  0  0  0  0  0  0  0  0  0  0
    4.8671    3.4030    0.0000 O   0  0  0  0  0  0  0  0  0  0  0  0
    6.5991    6.4030    0.0000 O   0  0  0  0  0  0  0  0  0  0  0  0
    3.1350    7.4030    0.0000 O   0  0  0  0  0  0  0  0  0  0  0  0
    5.7331   10.9030    0.0000 O   0  0  0  0  0  0  0  0  0  0  0  0
    6.2370   15.0688    0.0000 O   0  0  0  0  0  0  0  0  0  0  0  0
    4.8710   15.4348    0.0000 O   0  0  0  0  0  0  0  0  0  0  0  0
    5.8710   13.7027    0.0000 O   0  0  0  0  0  0  0  0  0  0  0  0
    6.5991    4.4030    0.0000 N   0  0  3  0  0  0  0  0  0  0  0  0
    5.7331    1.9030    0.0000 N   0  0  0  0  0  0  0  0  0  0  0  0
    4.8671    7.4030    0.0000 N   0  0  0  0  0  0  0  0  0  0  0  0
    8.3312    3.4030    0.0000 C   0  0  2  0  0  0  0  0  0  0  0  0
    8.3312    4.4030    0.0000 C   0  0  1  0  0  0  0  0  0  0  0  0
    7.4651    2.9030    0.0000 C   0  0  0  0  0  0  0  0  0  0  0  0
    7.4651    4.9030    0.0000 C   0  0  0  0  0  0  0  0  0  0  0  0
    9.2251    2.8683    0.0000 C   0  0  0  0  0  0  0  0  0  0  0  0
    9.2251    4.9376    0.0000 C   0  0  0  0  0  0  0  0  0  0  0  0
    6.5991    3.4030    0.0000 C   0  0  1  0  0  0  0  0  0  0  0  0
   10.1312    3.3822    0.0000 C   0  0  0  0  0  0  0  0  0  0  0  0
   10.1312    4.4238    0.0000 C   0  0  0  0  0  0  0  0  0  0  0  0
    5.7331    4.9030    0.0000 C   0  0  0  0  0  0  0  0  0  0  0  0
    5.7331    2.9030    0.0000 C   0  0  0  0  0  0  0  0  0  0  0  0
    5.7331    5.9030    0.0000 C   0  0  2  0  0  0  0  0  0  0  0  0
    4.8671    6.4030    0.0000 C   0  0  2  0  0  0  0  0  0  0  0  0
    4.8671    1.4030    0.0000 C   0  0  0  0  0  0  0  0  0  0  0  0
    4.0010    5.9030    0.0000 C   0  0  0  0  0  0  0  0  0  0  0  0
    4.0010    0.9030    0.0000 C   0  0  0  0  0  0  0  0  0  0  0  0
    5.3671    0.5369    0.0000 C   0  0  0  0  0  0  0  0  0  0  0  0
    4.3671    2.2690    0.0000 C   0  0  0  0  0  0  0  0  0  0  0  0
    4.0010    7.9030    0.0000 C   0  0  0  0  0  0  0  0  0  0  0  0
    4.0010    8.9030    0.0000 C   0  0  0  0  0  0  0  0  0  0  0  0
    2.2690    5.9030    0.0000 C   0  0  0  0  0  0  0  0  0  0  0  0
    4.8671    9.4030    0.0000 C   0  0  0  0  0  0  0  0  0  0  0  0
    3.1350    9.4030    0.0000 C   0  0  0  0  0  0  0  0  0  0  0  0
    1.4030    6.4030    0.0000 C   0  0  0  0  0  0  0  0  0  0  0  0
    2.2690    4.9030    0.0000 C   0  0  0  0  0  0  0  0  0  0  0  0
    4.8671   10.4030    0.0000 C   0  0  0  0  0  0  0  0  0  0  0  0
    5.7331    8.9030    0.0000 C   0  0  0  0  0  0  0  0  0  0  0  0
    3.1350   10.4030    0.0000 C   0  0  0  0  0  0  0  0  0  0  0  0
    0.5369    5.9030    0.0000 C   0  0  0  0  0  0  0  0  0  0  0  0
    1.4030    4.4030    0.0000 C   0  0  0  0  0  0  0  0  0  0  0  0
    4.0010   10.9030    0.0000 C   0  0  0  0  0  0  0  0  0  0  0  0
    0.5369    4.9030    0.0000 C   0  0  0  0  0  0  0  0  0  0  0  0
    4.5050   14.0688    0.0000 C   0  0  0  0  0  0  0  0  0  0  0  0
    8.3246    2.5530    0.0000 H   0  0  0  0  0  0  0  0  0  0  0  0
    8.3246    5.2529    0.0000 H   0  0  0  0  0  0  0  0  0  0  0  0
    7.0666    2.4280    0.0000 H   0  0  0  0  0  0  0  0  0  0  0  0
    7.8637    2.4280    0.0000 H   0  0  0  0  0  0  0  0  0  0  0  0
    7.8637    5.3779    0.0000 H   0  0  0  0  0  0  0  0  0  0  0  0
    7.0666    5.3779    0.0000 H   0  0  0  0  0  0  0  0  0  0  0  0
    8.8205    2.3985    0.0000 H   0  0  0  0  0  0  0  0  0  0  0  0
    9.6187    2.3893    0.0000 H   0  0  0  0  0  0  0  0  0  0  0  0
    9.6187    5.4166    0.0000 H   0  0  0  0  0  0  0  0  0  0  0  0
    8.8205    5.4074    0.0000 H   0  0  0  0  0  0  0  0  0  0  0  0
    6.0622    3.7130    0.0000 H   0  0  0  0  0  0  0  0  0  0  0  0
   10.3402    2.7984    0.0000 H   0  0  0  0  0  0  0  0  0  0  0  0
   10.7420    3.4882    0.0000 H   0  0  0  0  0  0  0  0  0  0  0  0
   10.7420    4.3177    0.0000 H   0  0  0  0  0  0  0  0  0  0  0  0
   10.3402    5.0075    0.0000 H   0  0  0  0  0  0  0  0  0  0  0  0
    5.1225    5.0106    0.0000 H   0  0  0  0  0  0  0  0  0  0  0  0
    5.5210    4.3204    0.0000 H   0  0  0  0  0  0  0  0  0  0  0  0
    6.2700    5.5930    0.0000 H   0  0  0  0  0  0  0  0  0  0  0  0
    6.2700    1.5930    0.0000 H   0  0  0  0  0  0  0  0  0  0  0  0
    5.4040    6.7130    0.0000 H   0  0  0  0  0  0  0  0  0  0  0  0
    6.5991    7.0230    0.0000 H   0  0  0  0  0  0  0  0  0  0  0  0
    3.6025    5.4280    0.0000 H   0  0  0  0  0  0  0  0  0  0  0  0
    4.3996    5.4280    0.0000 H   0  0  0  0  0  0  0  0  0  0  0  0
    5.4040    7.7130    0.0000 H   0  0  0  0  0  0  0  0  0  0  0  0
    3.6910    1.4399    0.0000 H   0  0  0  0  0  0  0  0  0  0  0  0
    3.4641    0.5930    0.0000 H   0  0  0  0  0  0  0  0  0  0  0  0
    4.3110    0.3660    0.0000 H   0  0  0  0  0  0  0  0  0  0  0  0
    4.8301    0.2269    0.0000 H   0  0  0  0  0  0  0  0  0  0  0  0
    5.6771    0.0000    0.0000 H   0  0  0  0  0  0  0  0  0  0  0  0
    5.9040    0.8469    0.0000 H   0  0  0  0  0  0  0  0  0  0  0  0
    4.9040    2.5790    0.0000 H   0  0  0  0  0  0  0  0  0  0  0  0
    4.0571    2.8059    0.0000 H   0  0  0  0  0  0  0  0  0  0  0  0
    3.8301    1.9590    0.0000 H   0  0  0  0  0  0  0  0  0  0  0  0
    2.5981    9.0930    0.0000 H   0  0  0  0  0  0  0  0  0  0  0  0
    1.4030    7.0230    0.0000 H   0  0  0  0  0  0  0  0  0  0  0  0
    2.8059    4.5930    0.0000 H   0  0  0  0  0  0  0  0  0  0  0  0
    5.4231    8.3660    0.0000 H   0  0  0  0  0  0  0  0  0  0  0  0
    6.2700    8.5930    0.0000 H   0  0  0  0  0  0  0  0  0  0  0  0
    6.0431    9.4399    0.0000 H   0  0  0  0  0  0  0  0  0  0  0  0
    2.5981   10.7130    0.0000 H   0  0  0  0  0  0  0  0  0  0  0  0
    0.0000    6.2130    0.0000 H   0  0  0  0  0  0  0  0  0  0  0  0
    1.4030    3.7830    0.0000 H   0  0  0  0  0  0  0  0  0  0  0  0
    4.0010   11.5230    0.0000 H   0  0  0  0  0  0  0  0  0  0  0  0
    0.0000    4.5930    0.0000 H   0  0  0  0  0  0  0  0  0  0  0  0
    5.7331   11.5230    0.0000 H   0  0  0  0  0  0  0  0  0  0  0  0
    4.1950   14.6057    0.0000 H   0  0  0  0  0  0  0  0  0  0  0  0
    3.9680   13.7588    0.0000 H   0  0  0  0  0  0  0  0  0  0  0  0
    4.8150   13.5318    0.0000 H   0  0  0  0  0  0  0  0  0  0  0  0
    6.7740   14.7588    0.0000 H   0  0  0  0  0  0  0  0  0  0  0  0
  1 27  1  0  0  0  0
  1 33  1  0  0  0  0
  2  7  1  0  0  0  0
  2  8  2  0  0  0  0
  2  9  2  0  0  0  0
  2 45  1  0  0  0  0
  3 23  2  0  0  0  0
 24  4  1  6  0  0  0
  4 66  1  0  0  0  0
  5 31  2  0  0  0  0
  6 38  1  0  0  0  0
  6 90  1  0  0  0  0
  7 94  1  0  0  0  0
 10 16  1  0  0  0  0
 10 19  1  0  0  0  0
 10 22  1  0  0  0  0
 11 23  1  0  0  0  0
 11 26  1  0  0  0  0
 11 64  1  0  0  0  0
 25 12  1  6  0  0  0
 12 31  1  0  0  0  0
 12 69  1  0  0  0  0
 13 14  1  0  0  0  0
 13 15  1  0  0  0  0
 13 17  1  0  0  0  0
 13 46  1  6  0  0  0
 14 16  1  0  0  0  0
 14 18  1  0  0  0  0
 14 47  1  6  0  0  0
 15 19  1  0  0  0  0
 15 48  1  0  0  0  0
 15 49  1  0  0  0  0
 16 50  1  0  0  0  0
 16 51  1  0  0  0  0
 17 20  1  0  0  0  0
 17 52  1  0  0  0  0
 17 53  1  0  0  0  0
 18 21  1  0  0  0  0
 18 54  1  0  0  0  0
 18 55  1  0  0  0  0
 19 23  1  1  0  0  0
 19 56  1  0  0  0  0
 20 21  1  0  0  0  0
 20 57  1  0  0  0  0
 20 58  1  0  0  0  0
 21 59  1  0  0  0  0
 21 60  1  0  0  0  0
 22 24  1  0  0  0  0
 22 61  1  0  0  0  0
 22 62  1  0  0  0  0
 24 25  1  0  0  0  0
 24 63  1  0  0  0  0
 25 27  1  0  0  0  0
 25 65  1  0  0  0  0
 26 28  1  0  0  0  0
 26 29  1  0  0  0  0
 26 30  1  0  0  0  0
 27 67  1  0  0  0  0
 27 68  1  0  0  0  0
 28 70  1  0  0  0  0
 28 71  1  0  0  0  0
 28 72  1  0  0  0  0
 29 73  1  0  0  0  0
 29 74  1  0  0  0  0
 29 75  1  0  0  0  0
 30 76  1  0  0  0  0
 30 77  1  0  0  0  0
 30 78  1  0  0  0  0
 31 32  1  0  0  0  0
 32 34  2  0  0  0  0
 32 35  1  0  0  0  0
 33 36  2  0  0  0  0
 33 37  1  0  0  0  0
 34 38  1  0  0  0  0
 34 39  1  0  0  0  0
 35 40  2  0  0  0  0
 35 79  1  0  0  0  0
 36 41  1  0  0  0  0
 36 80  1  0  0  0  0
 37 42  2  0  0  0  0
 37 81  1  0  0  0  0
 38 43  2  0  0  0  0
 39 82  1  0  0  0  0
 39 83  1  0  0  0  0
 39 84  1  0  0  0  0
 40 43  1  0  0  0  0
 40 85  1  0  0  0  0
 41 44  2  0  0  0  0
 41 86  1  0  0  0  0
 42 44  1  0  0  0  0
 42 87  1  0  0  0  0
 43 88  1  0  0  0  0
 44 89  1  0  0  0  0
 45 91  1  0  0  0  0
 45 92  1  0  0  0  0
 45 93  1  0  0  0  0
M  END
> <PUBCHEM_COMPOUND_CID>
64142

> <PUBCHEM_COMPOUND_CANONICALIZED>
1

> <PUBCHEM_CACTVS_COMPLEXITY>
922

> <PUBCHEM_CACTVS_HBOND_ACCEPTOR>
9

> <PUBCHEM_CACTVS_HBOND_DONOR>
5

> <PUBCHEM_CACTVS_ROTATABLE_BOND>
10

> <PUBCHEM_CACTVS_SUBSKEYS>
AAADcfB/OABgAAAAAAAAAAAAAAAAAAAAAAA8YMEAAAAAAACxQAAAHgQQCAAADbzl2AayB4PAAoqIAiFSEHCCAAAkKBAIiJmODMgKdjKi1TOUcQhk1hG4mYe6yLCOgAABAAAYAAAAAAIAADAAAAAAAAAAAA==

> <PUBCHEM_IUPAC_OPENEYE_NAME>
(3S,4aS,8aS)-N-tert-butyl-2-[(2R,3R)-2-hydroxy-3-[(3-hydroxy-2-methyl-benzoyl)amino]-4-phenylsulfanyl-butyl]-3,4,4a,5,6,7,8,8a-octahydro-1H-isoquinoline-3-carboxamide; methanesulfonic acid

> <PUBCHEM_IUPAC_CAS_NAME>
(3S,4aS,8aS)-N-tert-butyl-2-[(2R,3R)-2-hydroxy-3-[[(3-hydroxy-2-methylphenyl)-oxomethyl]amino]-4-(phenylthio)butyl]-3,4,4a,5,6,7,8,8a-octahydro-1H-isoquinoline-3-carboxamide; methanesulfonic acid

> <PUBCHEM_IUPAC_NAME>
(3S,4aS,8aS)-N-tert-butyl-2-[(2R,3R)-2-hydroxy-3-[(3-hydroxy-2-methylbenzoyl)amino]-4-phenylsulfanylbutyl]-3,4,4a,5,6,7,8,8a-octahydro-1H-isoquinoline-3-carboxamide; methanesulfonic acid

> <PUBCHEM_IUPAC_SYSTEMATIC_NAME>
(3S,4aS,8aS)-N-tert-butyl-2-[(2R,3R)-3-[(2-methyl-3-oxidanyl-phenyl)carbonylamino]-2-oxidanyl-4-phenylsulfanyl-butyl]-3,4,4a,5,6,7,8,8a-octahydro-1H-isoquinoline-3-carboxamide; methanesulfonic acid

> <PUBCHEM_IUPAC_TRADITIONAL_NAME>
(3S,4aS,8aS)-N-tert-butyl-2-[(2R,3R)-2-hydroxy-3-[(3-hydroxy-2-methyl-benzoyl)amino]-4-(phenylthio)butyl]-3,4,4a,5,6,7,8,8a-octahydro-1H-isoquinoline-3-carboxamide; mesylic acid

> <PUBCHEM_IUPAC_INCHI>
InChI=1S/C32H45N3O4S.CH4O3S/c1-21-25(15-10-16-28(21)36)30(38)33-26(20-40-24-13-6-5-7-14-24)29(37)19-35-18-23-12-9-8-11-22(23)17-27(35)31(39)34-32(2,3)4;1-5(2,3)4/h5-7,10,13-16,22-23,26-27,29,36-37H,8-9,11-12,17-20H2,1-4H3,(H,33,38)(H,34,39);1H3,(H,2,3,4)/t22-,23+,26-,27-,29+;/m0./s1

> <PUBCHEM_IUPAC_INCHIKEY>
NQHXCOAXSHGTIA-SKXNDZRYSA-N

> <PUBCHEM_EXACT_MASS>
663.301193

> <PUBCHEM_MOLECULAR_FORMULA>
C33H49N3O7S2

> <PUBCHEM_MOLECULAR_WEIGHT>
663.88806

> <PUBCHEM_OPENEYE_CAN_SMILES>
CC1=C(C=CC=C1O)C(=O)NC(CSC2=CC=CC=C2)C(CN3CC4CCCCC4CC3C(=O)NC(C)(C)C)O.CS(=O)(=O)O

> <PUBCHEM_OPENEYE_ISO_SMILES>
CC1=C(C=CC=C1O)C(=O)N[C@@H](CSC2=CC=CC=C2)[C@@H](CN3C[C@H]4CCCC[C@H]4C[C@H]3C(=O)NC(C)(C)C)O.CS(=O)(=O)O

> <PUBCHEM_CACTVS_TPSA>
190

> <PUBCHEM_MONOISOTOPIC_WEIGHT>
663.301193

> <PUBCHEM_TOTAL_CHARGE>
0

> <PUBCHEM_HEAVY_ATOM_COUNT>
45

> <PUBCHEM_ATOM_DEF_STEREO_COUNT>
5

> <PUBCHEM_ATOM_UDEF_STEREO_COUNT>
0

> <PUBCHEM_BOND_DEF_STEREO_COUNT>
0

> <PUBCHEM_BOND_UDEF_STEREO_COUNT>
0

> <PUBCHEM_ISOTOPIC_ATOM_COUNT>
0

> <PUBCHEM_COMPONENT_COUNT>
2

> <PUBCHEM_CACTVS_TAUTO_COUNT>
12

> <PUBCHEM_COORDINATE_TYPE>
1
5
255

> <PUBCHEM_BONDANNOTATIONS>
25  12  6
13  46  6
14  47  6
19  23  5
32  34  8
32  35  8
33  36  8
33  37  8
34  38  8
35  40  8
36  41  8
37  42  8
38  43  8
24  4  6
40  43  8
41  44  8
42  44  8

$$$$

