23724737
  -OEChem-07051213082D

 81 85  0     1  0  0  0  0  0999 V2000
    6.0010    0.2500    0.0000 O   0  0  0  0  0  0  0  0  0  0  0  0
    8.5991   -0.2500    0.0000 O   0  0  0  0  0  0  0  0  0  0  0  0
    5.1350   -1.2500    0.0000 O   0  0  0  0  0  0  0  0  0  0  0  0
    6.0010   -1.7500    0.0000 O   0  0  0  0  0  0  0  0  0  0  0  0
    7.7331    1.2500    0.0000 O   0  0  0  0  0  0  0  0  0  0  0  0
    7.7331   -2.7500    0.0000 O   0  0  0  0  0  0  0  0  0  0  0  0
    4.2690    1.2500    0.0000 O   0  0  0  0  0  0  0  0  0  0  0  0
    2.5369    0.2500    0.0000 O   0  0  0  0  0  0  0  0  0  0  0  0
    2.5369   -1.7500    0.0000 O   0  0  0  0  0  0  0  0  0  0  0  0
    9.4651   -2.7500    0.0000 O   0  0  0  0  0  0  0  0  0  0  0  0
    3.4030   -3.2500    0.0000 O   0  0  0  0  0  0  0  0  0  0  0  0
    5.1350   -3.2500    0.0000 O   0  0  0  0  0  0  0  0  0  0  0  0
    9.4651    3.2500    0.0000 O   0  3  0  0  0  0  0  0  0  0  0  0
   11.1972   -2.7500    0.0000 O   0  0  0  0  0  0  0  0  0  0  0  0
   11.2135    0.2154    0.0000 O   0  0  0  0  0  0  0  0  0  0  0  0
   12.9953    3.2742    0.0000 O   0  0  0  0  0  0  0  0  0  0  0  0
   11.1972   -5.7500    0.0000 O   0  0  0  0  0  0  0  0  0  0  0  0
    6.8671    5.7500    0.0000 O   0  0  0  0  0  0  0  0  0  0  0  0
   12.0632   -4.2500    0.0000 O   0  0  0  0  0  0  0  0  0  0  0  0
    5.1350    4.7500    0.0000 O   0  0  0  0  0  0  0  0  0  0  0  0
    6.8671   -0.2500    0.0000 C   0  0  2  0  0  0  0  0  0  0  0  0
    6.8671   -1.2500    0.0000 C   0  0  2  0  0  0  0  0  0  0  0  0
    7.7331   -1.7500    0.0000 C   0  0  1  0  0  0  0  0  0  0  0  0
    8.5991   -1.2500    0.0000 C   0  0  1  0  0  0  0  0  0  0  0  0
    7.7331    0.2500    0.0000 C   0  0  1  0  0  0  0  0  0  0  0  0
    5.1350   -0.2500    0.0000 C   0  0  2  0  0  0  0  0  0  0  0  0
    4.2690    0.2500    0.0000 C   0  0  1  0  0  0  0  0  0  0  0  0
    3.4030   -0.2500    0.0000 C   0  0  2  0  0  0  0  0  0  0  0  0
    3.4030   -1.2500    0.0000 C   0  0  1  0  0  0  0  0  0  0  0  0
    4.2690   -1.7500    0.0000 C   0  0  1  0  0  0  0  0  0  0  0  0
    9.4651   -1.7500    0.0000 C   0  0  0  0  0  0  0  0  0  0  0  0
    4.2690   -2.7500    0.0000 C   0  0  0  0  0  0  0  0  0  0  0  0
    8.5991    1.7500    0.0000 C   0  0  0  0  0  0  0  0  0  0  0  0
    8.5991    2.7500    0.0000 C   0  0  0  0  0  0  0  0  0  0  0  0
    9.4651    1.2500    0.0000 C   0  0  0  0  0  0  0  0  0  0  0  0
   10.3312   -3.2500    0.0000 C   0  0  0  0  0  0  0  0  0  0  0  0
   10.3312    1.7500    0.0000 C   0  0  0  0  0  0  0  0  0  0  0  0
    7.7331    3.2500    0.0000 C   0  0  0  0  0  0  0  0  0  0  0  0
   10.3312    2.7500    0.0000 C   0  0  0  0  0  0  0  0  0  0  0  0
   10.3312   -4.2500    0.0000 C   0  0  0  0  0  0  0  0  0  0  0  0
   11.2251    1.2153    0.0000 C   0  0  0  0  0  0  0  0  0  0  0  0
   11.2251    3.2847    0.0000 C   0  0  0  0  0  0  0  0  0  0  0  0
    7.7331    4.2500    0.0000 C   0  0  0  0  0  0  0  0  0  0  0  0
    6.8671    2.7500    0.0000 C   0  0  0  0  0  0  0  0  0  0  0  0
   12.1312    1.7292    0.0000 C   0  0  0  0  0  0  0  0  0  0  0  0
   12.1312    2.7708    0.0000 C   0  0  0  0  0  0  0  0  0  0  0  0
   11.1972   -4.7500    0.0000 C   0  0  0  0  0  0  0  0  0  0  0  0
    6.8671    4.7500    0.0000 C   0  0  0  0  0  0  0  0  0  0  0  0
    6.0010    3.2500    0.0000 C   0  0  0  0  0  0  0  0  0  0  0  0
    6.0010    4.2500    0.0000 C   0  0  0  0  0  0  0  0  0  0  0  0
    6.3301   -0.5600    0.0000 H   0  0  0  0  0  0  0  0  0  0  0  0
    6.3301   -0.9400    0.0000 H   0  0  0  0  0  0  0  0  0  0  0  0
    8.2700   -2.0600    0.0000 H   0  0  0  0  0  0  0  0  0  0  0  0
    9.1360   -0.9400    0.0000 H   0  0  0  0  0  0  0  0  0  0  0  0
    7.1962    0.5600    0.0000 H   0  0  0  0  0  0  0  0  0  0  0  0
    5.1350    0.3700    0.0000 H   0  0  0  0  0  0  0  0  0  0  0  0
    4.8059    0.5600    0.0000 H   0  0  0  0  0  0  0  0  0  0  0  0
    3.4030    0.3700    0.0000 H   0  0  0  0  0  0  0  0  0  0  0  0
    3.4030   -1.8700    0.0000 H   0  0  0  0  0  0  0  0  0  0  0  0
    4.8059   -2.0600    0.0000 H   0  0  0  0  0  0  0  0  0  0  0  0
   10.0757   -1.8577    0.0000 H   0  0  0  0  0  0  0  0  0  0  0  0
    9.6772   -1.1674    0.0000 H   0  0  0  0  0  0  0  0  0  0  0  0
    6.0010   -2.3700    0.0000 H   0  0  0  0  0  0  0  0  0  0  0  0
    7.1962   -3.0600    0.0000 H   0  0  0  0  0  0  0  0  0  0  0  0
    3.7320    1.5600    0.0000 H   0  0  0  0  0  0  0  0  0  0  0  0
    2.5369    0.8700    0.0000 H   0  0  0  0  0  0  0  0  0  0  0  0
    2.0000   -1.4400    0.0000 H   0  0  0  0  0  0  0  0  0  0  0  0
    9.4651    0.6300    0.0000 H   0  0  0  0  0  0  0  0  0  0  0  0
    3.4030   -3.8700    0.0000 H   0  0  0  0  0  0  0  0  0  0  0  0
    9.7206   -4.1423    0.0000 H   0  0  0  0  0  0  0  0  0  0  0  0
   10.1191   -4.8326    0.0000 H   0  0  0  0  0  0  0  0  0  0  0  0
   11.2179    3.9046    0.0000 H   0  0  0  0  0  0  0  0  0  0  0  0
    8.2700    4.5600    0.0000 H   0  0  0  0  0  0  0  0  0  0  0  0
    6.8671    2.1300    0.0000 H   0  0  0  0  0  0  0  0  0  0  0  0
   12.6669    1.4171    0.0000 H   0  0  0  0  0  0  0  0  0  0  0  0
    5.4641    2.9400    0.0000 H   0  0  0  0  0  0  0  0  0  0  0  0
   11.7469   -0.1008    0.0000 H   0  0  0  0  0  0  0  0  0  0  0  0
   13.5334    2.9662    0.0000 H   0  0  0  0  0  0  0  0  0  0  0  0
   11.7341   -6.0600    0.0000 H   0  0  0  0  0  0  0  0  0  0  0  0
    7.4040    6.0600    0.0000 H   0  0  0  0  0  0  0  0  0  0  0  0
    4.5981    4.4400    0.0000 H   0  0  0  0  0  0  0  0  0  0  0  0
 21  1  1  1  0  0  0
 26  1  1  6  0  0  0
  2 24  1  0  0  0  0
  2 25  1  0  0  0  0
  3 26  1  0  0  0  0
  3 30  1  0  0  0  0
 22  4  1  6  0  0  0
  4 63  1  0  0  0  0
 25  5  1  6  0  0  0
  5 33  1  0  0  0  0
 23  6  1  1  0  0  0
  6 64  1  0  0  0  0
 27  7  1  1  0  0  0
  7 65  1  0  0  0  0
 28  8  1  6  0  0  0
  8 66  1  0  0  0  0
 29  9  1  1  0  0  0
  9 67  1  0  0  0  0
 10 31  1  0  0  0  0
 10 36  1  0  0  0  0
 11 32  1  0  0  0  0
 11 69  1  0  0  0  0
 12 32  2  0  0  0  0
 13 34  2  0  0  0  0
 13 39  1  0  0  0  0
 14 36  2  0  0  0  0
 15 41  1  0  0  0  0
 15 77  1  0  0  0  0
 16 46  1  0  0  0  0
 16 78  1  0  0  0  0
 17 47  1  0  0  0  0
 17 79  1  0  0  0  0
 18 48  1  0  0  0  0
 18 80  1  0  0  0  0
 19 47  2  0  0  0  0
 20 50  1  0  0  0  0
 20 81  1  0  0  0  0
 21 22  1  0  0  0  0
 21 25  1  0  0  0  0
 21 51  1  0  0  0  0
 22 23  1  0  0  0  0
 22 52  1  0  0  0  0
 23 24  1  0  0  0  0
 23 53  1  0  0  0  0
 24 31  1  6  0  0  0
 24 54  1  0  0  0  0
 25 55  1  0  0  0  0
 26 27  1  0  0  0  0
 26 56  1  0  0  0  0
 27 28  1  0  0  0  0
 27 57  1  0  0  0  0
 28 29  1  0  0  0  0
 28 58  1  0  0  0  0
 29 30  1  0  0  0  0
 29 59  1  0  0  0  0
 30 32  1  6  0  0  0
 30 60  1  0  0  0  0
 31 61  1  0  0  0  0
 31 62  1  0  0  0  0
 33 34  1  0  0  0  0
 33 35  2  0  0  0  0
 34 38  1  0  0  0  0
 35 37  1  0  0  0  0
 35 68  1  0  0  0  0
 36 40  1  0  0  0  0
 37 39  1  0  0  0  0
 37 41  2  0  0  0  0
 38 43  2  0  0  0  0
 38 44  1  0  0  0  0
 39 42  2  0  0  0  0
 40 47  1  0  0  0  0
 40 70  1  0  0  0  0
 40 71  1  0  0  0  0
 41 45  1  0  0  0  0
 42 46  1  0  0  0  0
 42 72  1  0  0  0  0
 43 48  1  0  0  0  0
 43 73  1  0  0  0  0
 44 49  2  0  0  0  0
 44 74  1  0  0  0  0
 45 46  2  0  0  0  0
 45 75  1  0  0  0  0
 48 50  2  0  0  0  0
 49 50  1  0  0  0  0
 49 76  1  0  0  0  0
M  CHG  1  13   1
M  END
> <PUBCHEM_COMPOUND_CID>
23724737

> <PUBCHEM_COMPOUND_CANONICALIZED>
1

> <PUBCHEM_CACTVS_COMPLEXITY>
1190

> <PUBCHEM_CACTVS_HBOND_ACCEPTOR>
19

> <PUBCHEM_CACTVS_HBOND_DONOR>
11

> <PUBCHEM_CACTVS_ROTATABLE_BOND>
11

> <PUBCHEM_CACTVS_SUBSKEYS>
AAADceB4PgAAAAAAAAAAAAAAAAAAAAAAAAA0aJECAAAAAACR9AAAGgAACAAADBSwmAMwDsAABkCIAqDSCAICCAAkIAAIiAFGiMgdNzaONR6ieWOl4BUPuYfK7PzOIAABCAAIQABAAAIQABCAAAAAAAAAAA==

> <PUBCHEM_IUPAC_OPENEYE_NAME>
(2S,3S,4S,5R,6R)-6-[(2S,3R,4S,5S,6R)-6-[(2-carboxyacetyl)oxymethyl]-2-[2-(3,4-dihydroxyphenyl)-5,7-dihydroxy-chromenylium-3-yl]oxy-4,5-dihydroxy-tetrahydropyran-3-yl]oxy-3,4,5-trihydroxy-tetrahydropyran-2-carboxylic acid

> <PUBCHEM_IUPAC_CAS_NAME>
(2S,3S,4S,5R,6R)-6-[[(2S,3R,4S,5S,6R)-6-[(2-carboxy-1-oxoethoxy)methyl]-2-[[2-(3,4-dihydroxyphenyl)-5,7-dihydroxy-1-benzopyrylium-3-yl]oxy]-4,5-dihydroxy-3-oxanyl]oxy]-3,4,5-trihydroxy-2-oxanecarboxylic acid

> <PUBCHEM_IUPAC_NAME>
(2S,3S,4S,5R,6R)-6-[(2S,3R,4S,5S,6R)-6-[(2-carboxyacetyl)oxymethyl]-2-[2-(3,4-dihydroxyphenyl)-5,7-dihydroxychromenylium-3-yl]oxy-4,5-dihydroxyoxan-3-yl]oxy-3,4,5-trihydroxyoxane-2-carboxylic acid

> <PUBCHEM_IUPAC_SYSTEMATIC_NAME>
(2S,3S,4S,5R,6R)-6-[(2S,3R,4S,5S,6R)-2-[2-[3,4-bis(oxidanyl)phenyl]-5,7-bis(oxidanyl)chromenylium-3-yl]oxy-4,5-bis(oxidanyl)-6-[(3-oxidanyl-3-oxidanylidene-propanoyl)oxymethyl]oxan-3-yl]oxy-3,4,5-tris(oxidanyl)oxane-2-carboxylic acid

> <PUBCHEM_IUPAC_TRADITIONAL_NAME>
(2S,3S,4S,5R,6R)-6-[(2S,3R,4S,5S,6R)-6-[(2-carboxyacetyl)oxymethyl]-2-[[2-(3,4-dihydroxyphenyl)-5,7-dihydroxy-1-benzopyrylium-3-yl]oxy]-4,5-dihydroxy-tetrahydropyran-3-yl]oxy-3,4,5-trihydroxy-tetrahydropyran-2-carboxylic acid

> <PUBCHEM_IUPAC_INCHI>
InChI=1S/C30H30O20/c31-10-4-13(33)11-6-16(25(46-15(11)5-10)9-1-2-12(32)14(34)3-9)47-30-27(50-29-24(42)21(39)23(41)26(49-29)28(43)44)22(40)20(38)17(48-30)8-45-19(37)7-18(35)36/h1-6,17,20-24,26-27,29-30,38-42H,7-8H2,(H5-,31,32,33,34,35,36,43,44)/p+1/t17-,20-,21+,22+,23+,24-,26+,27-,29+,30-/m1/s1

> <PUBCHEM_IUPAC_INCHIKEY>
QOHDMYMGZLODBT-HMYIHKNWSA-O

> <PUBCHEM_EXACT_MASS>
711.140868

> <PUBCHEM_MOLECULAR_FORMULA>
C30H31O20+

> <PUBCHEM_MOLECULAR_WEIGHT>
711.55514

> <PUBCHEM_OPENEYE_CAN_SMILES>
C1=CC(=C(C=C1C2=C(C=C3C(=CC(=CC3=[O+]2)O)O)OC4C(C(C(C(O4)COC(=O)CC(=O)O)O)O)OC5C(C(C(C(O5)C(=O)O)O)O)O)O)O

> <PUBCHEM_OPENEYE_ISO_SMILES>
C1=CC(=C(C=C1C2=C(C=C3C(=CC(=CC3=[O+]2)O)O)O[C@H]4[C@@H]([C@H]([C@@H]([C@H](O4)COC(=O)CC(=O)O)O)O)O[C@H]5[C@@H]([C@H]([C@@H]([C@H](O5)C(=O)O)O)O)O)O)O

> <PUBCHEM_CACTVS_TPSA>
321

> <PUBCHEM_MONOISOTOPIC_WEIGHT>
711.140868

> <PUBCHEM_TOTAL_CHARGE>
1

> <PUBCHEM_HEAVY_ATOM_COUNT>
50

> <PUBCHEM_ATOM_DEF_STEREO_COUNT>
10

> <PUBCHEM_ATOM_UDEF_STEREO_COUNT>
0

> <PUBCHEM_BOND_DEF_STEREO_COUNT>
0

> <PUBCHEM_BOND_UDEF_STEREO_COUNT>
0

> <PUBCHEM_ISOTOPIC_ATOM_COUNT>
0

> <PUBCHEM_COMPONENT_COUNT>
1

> <PUBCHEM_CACTVS_TAUTO_COUNT>
171

> <PUBCHEM_COORDINATE_TYPE>
1
5
255

> <PUBCHEM_BONDANNOTATIONS>
21  1  5
26  1  6
13  34  8
13  39  8
24  31  6
30  32  6
33  34  8
33  35  8
35  37  8
37  39  8
37  41  8
38  43  8
38  44  8
39  42  8
22  4  6
41  45  8
42  46  8
43  48  8
44  49  8
45  46  8
48  50  8
49  50  8
25  5  6
23  6  5
27  7  5
28  8  6
29  9  5

$$$$

