13925
  -OEChem-06241222413D

 29 30  0     0  0  0  0  0  0999 V2000
    1.8474   -3.7047    0.4644 Cl  0  0  0  0  0  0  0  0  0  0  0  0
   -0.2777    2.0717    0.8674 O   0  0  0  0  0  0  0  0  0  0  0  0
    2.0420    2.1436   -0.4573 N   0  0  0  0  0  0  0  0  0  0  0  0
    0.8258    0.1259    0.1840 C   0  0  0  0  0  0  0  0  0  0  0  0
    1.9790    0.7501   -0.2336 C   0  0  0  0  0  0  0  0  0  0  0  0
   -0.4153    0.9257    0.4139 C   0  0  0  0  0  0  0  0  0  0  0  0
   -1.7424    0.4057    0.1256 C   0  0  0  0  0  0  0  0  0  0  0  0
    0.7542   -1.2317    0.4064 C   0  0  0  0  0  0  0  0  0  0  0  0
    3.1216   -0.0227   -0.4402 C   0  0  0  0  0  0  0  0  0  0  0  0
    1.8968   -2.0046    0.1996 C   0  0  0  0  0  0  0  0  0  0  0  0
    3.0805   -1.4002   -0.2237 C   0  0  0  0  0  0  0  0  0  0  0  0
   -1.8906   -0.8840   -0.3847 C   0  0  0  0  0  0  0  0  0  0  0  0
   -2.8670    1.1968    0.3592 C   0  0  0  0  0  0  0  0  0  0  0  0
   -3.1637   -1.3825   -0.6615 C   0  0  0  0  0  0  0  0  0  0  0  0
   -4.1401    0.6984    0.0825 C   0  0  0  0  0  0  0  0  0  0  0  0
    3.2378    2.9039   -0.2741 C   0  0  0  0  0  0  0  0  0  0  0  0
   -4.2883   -0.5914   -0.4279 C   0  0  0  0  0  0  0  0  0  0  0  0
   -0.0775   -1.7143    0.9109 H   0  0  0  0  0  0  0  0  0  0  0  0
    4.0569    0.4138   -0.7784 H   0  0  0  0  0  0  0  0  0  0  0  0
    1.1642    2.6505   -0.4699 H   0  0  0  0  0  0  0  0  0  0  0  0
    3.9777   -1.9905   -0.3909 H   0  0  0  0  0  0  0  0  0  0  0  0
   -1.1056   -1.5105   -0.7814 H   0  0  0  0  0  0  0  0  0  0  0  0
   -2.7790    2.2050    0.7555 H   0  0  0  0  0  0  0  0  0  0  0  0
   -3.2795   -2.3706   -1.0978 H   0  0  0  0  0  0  0  0  0  0  0  0
   -5.0160    1.3151    0.2621 H   0  0  0  0  0  0  0  0  0  0  0  0
    3.6896    2.7142    0.7053 H   0  0  0  0  0  0  0  0  0  0  0  0
    3.0060    3.9727   -0.3278 H   0  0  0  0  0  0  0  0  0  0  0  0
    3.9723    2.6945   -1.0581 H   0  0  0  0  0  0  0  0  0  0  0  0
   -5.2790   -0.9757   -0.6527 H   0  0  0  0  0  0  0  0  0  0  0  0
  1 10  1  0  0  0  0
  2  6  2  0  0  0  0
  3  5  1  0  0  0  0
  3 16  1  0  0  0  0
  3 20  1  0  0  0  0
  4  5  2  0  0  0  0
  4  6  1  0  0  0  0
  4  8  1  0  0  0  0
  5  9  1  0  0  0  0
  6  7  1  0  0  0  0
  7 12  2  0  0  0  0
  7 13  1  0  0  0  0
  8 10  2  0  0  0  0
  8 18  1  0  0  0  0
  9 11  2  0  0  0  0
  9 19  1  0  0  0  0
 10 11  1  0  0  0  0
 11 21  1  0  0  0  0
 12 14  1  0  0  0  0
 12 22  1  0  0  0  0
 13 15  2  0  0  0  0
 13 23  1  0  0  0  0
 14 17  2  0  0  0  0
 14 24  1  0  0  0  0
 15 17  1  0  0  0  0
 15 25  1  0  0  0  0
 16 26  1  0  0  0  0
 16 27  1  0  0  0  0
 16 28  1  0  0  0  0
 17 29  1  0  0  0  0
M  END
> <PUBCHEM_COMPOUND_CID>
13925

> <PUBCHEM_CONFORMER_RMSD>
0.6

> <PUBCHEM_CONFORMER_DIVERSEORDER>
2
1

> <PUBCHEM_MMFF94_PARTIAL_CHARGES>
26
1 -0.18
10 0.18
11 -0.15
12 -0.15
13 -0.15
14 -0.15
15 -0.15
16 0.37
17 -0.15
18 0.15
19 0.15
2 -0.57
20 0.4
21 0.15
22 0.15
23 0.15
24 0.15
25 0.15
29 0.15
3 -0.87
4 0.09
5 0.1
6 0.4
7 0.09
8 -0.15
9 -0.15

> <PUBCHEM_EFFECTIVE_ROTOR_COUNT>
3

> <PUBCHEM_PHARMACOPHORE_FEATURES>
5
1 2 acceptor
1 3 cation
1 3 donor
6 4 5 8 9 10 11 rings
6 7 12 13 14 15 17 rings

> <PUBCHEM_HEAVY_ATOM_COUNT>
17

> <PUBCHEM_ATOM_DEF_STEREO_COUNT>
0

> <PUBCHEM_ATOM_UDEF_STEREO_COUNT>
0

> <PUBCHEM_BOND_DEF_STEREO_COUNT>
0

> <PUBCHEM_BOND_UDEF_STEREO_COUNT>
0

> <PUBCHEM_ISOTOPIC_ATOM_COUNT>
0

> <PUBCHEM_COMPONENT_COUNT>
1

> <PUBCHEM_CACTVS_TAUTO_COUNT>
3

> <PUBCHEM_CONFORMER_ID>
0000366500000002

> <PUBCHEM_MMFF94_ENERGY>
78.949

> <PUBCHEM_FEATURE_SELFOVERLAP>
25.371

> <PUBCHEM_SHAPE_FINGERPRINT>
10616163 171 18334575720466618863
10967382 1 18410573963697733186
11471102 20 18413109480529713934
11578080 2 17899443014200035488
11806522 49 18408885174536801534
12400797 292 18408880758962313618
12553582 1 18122625217147427122
13140716 1 18339078194616696994
14178342 30 18192724559975768528
15375462 189 18334852840361698563
15442244 35 18193275432201396283
15536298 74 18333449824590420996
16945 1 18340483460581571856
18186145 218 17775850116356409865
19422 9 18260825995165225213
19784866 34 18266177236268545721
20281475 54 18334580131597828971
20291156 8 18121500412483553786
20559304 39 18338237184180485122
20645477 70 18334576837088979023
21267235 1 18335974346279932039
21501502 16 18334858316487146629
21524375 3 17985553247614761912
21634736 98 18408320016516749918
221490 88 18341040839799354210
22182313 1 17981299233037358730
2255824 54 18412824685849303446
22854114 111 18412542106728394141
2334 1 18193833743616524682
23463225 33 18262801890532805615
23559900 14 18335991955640142282
23598291 2 18189599683088608724
257057 1 17908993441223679322
2748010 2 16389584417142216680
3091708 16 8856828382833029770
394222 165 17986965050630710144
474 4 18200310996528050148
5104073 3 18409728444136491089
603831 33 18042696013597587621
6992083 37 17614833445743963392
7364860 26 18409168818229364592
7832392 63 18193836174431097952
84936 182 18261392191940525008
90525 40 17967813868761878479
9709674 26 18411132554555410751
9981440 41 18124600782187018248

> <PUBCHEM_SHAPE_MULTIPOLES>
340.87
7.01
3.26
0.77
5.48
0.94
0.01
-0.24
-1.09
-3.79
0.29
0.07
0.01
-0.89

> <PUBCHEM_SHAPE_SELFOVERLAP>
729.281

> <PUBCHEM_SHAPE_VOLUME>
189.9

> <PUBCHEM_COORDINATE_TYPE>
2
5
10

$$$$

