41632
  -OEChem-07051213123D

 39 40  0     0  0  0  0  0  0999 V2000
    4.2367   -0.4482    0.6280 O   0  0  0  0  0  0  0  0  0  0  0  0
   -1.7965    2.1158   -0.3017 O   0  0  0  0  0  0  0  0  0  0  0  0
   -0.4996    0.2264    0.2021 N   0  0  0  0  0  0  0  0  0  0  0  0
    4.4002   -1.5717   -0.2364 C   0  0  0  0  0  0  0  0  0  0  0  0
    3.1839    0.3772    0.3785 C   0  0  0  0  0  0  0  0  0  0  0  0
    0.8227    0.7326    0.1610 C   0  0  0  0  0  0  0  0  0  0  0  0
   -2.9167    0.1209    0.1188 C   0  0  0  0  0  0  0  0  0  0  0  0
    1.8817   -0.1215    0.4171 C   0  0  0  0  0  0  0  0  0  0  0  0
   -3.4666   -0.5564   -0.9697 C   0  0  0  0  0  0  0  0  0  0  0  0
    5.7404   -1.4649   -0.9480 C   0  0  0  0  0  0  0  0  0  0  0  0
    4.2919   -2.8511    0.5792 C   0  0  0  0  0  0  0  0  0  0  0  0
   -1.7011    0.9111   -0.0216 C   0  0  0  0  0  0  0  0  0  0  0  0
    3.4070    1.7224    0.0841 C   0  0  0  0  0  0  0  0  0  0  0  0
    1.0261    2.0701   -0.1325 C   0  0  0  0  0  0  0  0  0  0  0  0
   -3.5322    0.0486    1.3685 C   0  0  0  0  0  0  0  0  0  0  0  0
    2.3281    2.5687   -0.1712 C   0  0  0  0  0  0  0  0  0  0  0  0
   -4.6319   -1.3059   -0.8082 C   0  0  0  0  0  0  0  0  0  0  0  0
   -2.8288   -0.4953   -2.3194 C   0  0  0  0  0  0  0  0  0  0  0  0
   -4.6975   -0.7008    1.5298 C   0  0  0  0  0  0  0  0  0  0  0  0
   -5.2475   -1.3780    0.4415 C   0  0  0  0  0  0  0  0  0  0  0  0
    3.6221   -1.5929   -1.0117 H   0  0  0  0  0  0  0  0  0  0  0  0
    1.6992   -1.1656    0.6554 H   0  0  0  0  0  0  0  0  0  0  0  0
   -0.5733   -0.7638    0.4274 H   0  0  0  0  0  0  0  0  0  0  0  0
    5.9035   -2.3117   -1.6216 H   0  0  0  0  0  0  0  0  0  0  0  0
    5.7904   -0.5394   -1.5318 H   0  0  0  0  0  0  0  0  0  0  0  0
    6.5640   -1.4264   -0.2266 H   0  0  0  0  0  0  0  0  0  0  0  0
    4.4163   -3.7365   -0.0517 H   0  0  0  0  0  0  0  0  0  0  0  0
    3.3202   -2.9151    1.0791 H   0  0  0  0  0  0  0  0  0  0  0  0
    5.0516   -2.8751    1.3684 H   0  0  0  0  0  0  0  0  0  0  0  0
    4.4191    2.1163    0.0520 H   0  0  0  0  0  0  0  0  0  0  0  0
    0.2467    2.7872   -0.3414 H   0  0  0  0  0  0  0  0  0  0  0  0
   -3.1136    0.5720    2.2244 H   0  0  0  0  0  0  0  0  0  0  0  0
    2.5034    3.6159   -0.4003 H   0  0  0  0  0  0  0  0  0  0  0  0
   -5.0739   -1.8399   -1.6452 H   0  0  0  0  0  0  0  0  0  0  0  0
   -1.8298   -0.9425   -2.2918 H   0  0  0  0  0  0  0  0  0  0  0  0
   -3.4106   -1.0418   -3.0698 H   0  0  0  0  0  0  0  0  0  0  0  0
   -2.7526    0.5417   -2.6630 H   0  0  0  0  0  0  0  0  0  0  0  0
   -5.1767   -0.7570    2.5028 H   0  0  0  0  0  0  0  0  0  0  0  0
   -6.1548   -1.9616    0.5674 H   0  0  0  0  0  0  0  0  0  0  0  0
  1  4  1  0  0  0  0
  1  5  1  0  0  0  0
  2 12  2  0  0  0  0
  3  6  1  0  0  0  0
  3 12  1  0  0  0  0
  3 23  1  0  0  0  0
  4 10  1  0  0  0  0
  4 11  1  0  0  0  0
  4 21  1  0  0  0  0
  5  8  1  0  0  0  0
  5 13  2  0  0  0  0
  6  8  2  0  0  0  0
  6 14  1  0  0  0  0
  7  9  1  0  0  0  0
  7 12  1  0  0  0  0
  7 15  2  0  0  0  0
  8 22  1  0  0  0  0
  9 17  2  0  0  0  0
  9 18  1  0  0  0  0
 10 24  1  0  0  0  0
 10 25  1  0  0  0  0
 10 26  1  0  0  0  0
 11 27  1  0  0  0  0
 11 28  1  0  0  0  0
 11 29  1  0  0  0  0
 13 16  1  0  0  0  0
 13 30  1  0  0  0  0
 14 16  2  0  0  0  0
 14 31  1  0  0  0  0
 15 19  1  0  0  0  0
 15 32  1  0  0  0  0
 16 33  1  0  0  0  0
 17 20  1  0  0  0  0
 17 34  1  0  0  0  0
 18 35  1  0  0  0  0
 18 36  1  0  0  0  0
 18 37  1  0  0  0  0
 19 20  2  0  0  0  0
 19 38  1  0  0  0  0
 20 39  1  0  0  0  0
M  END
> <PUBCHEM_COMPOUND_CID>
41632

> <PUBCHEM_CONFORMER_RMSD>
0.8

> <PUBCHEM_CONFORMER_DIVERSEORDER>
3
25
15
24
10
23
9
6
12
20
21
13
8
18
16
7
19
14
22
1
11
17
4
5
2

> <PUBCHEM_MMFF94_PARTIAL_CHARGES>
27
1 -0.36
12 0.54
13 -0.15
14 -0.15
15 -0.15
16 -0.15
17 -0.15
18 0.14
19 -0.15
2 -0.57
20 -0.15
22 0.15
23 0.37
3 -0.55
30 0.15
31 0.15
32 0.15
33 0.15
34 0.15
38 0.15
39 0.15
4 0.28
5 0.08
6 0.12
7 0.09
8 -0.15
9 -0.14

> <PUBCHEM_EFFECTIVE_ROTOR_COUNT>
5

> <PUBCHEM_PHARMACOPHORE_FEATURES>
6
1 1 acceptor
1 2 acceptor
1 3 donor
3 4 10 11 hydrophobe
6 5 6 8 13 14 16 rings
6 7 9 15 17 19 20 rings

> <PUBCHEM_HEAVY_ATOM_COUNT>
20

> <PUBCHEM_ATOM_DEF_STEREO_COUNT>
0

> <PUBCHEM_ATOM_UDEF_STEREO_COUNT>
0

> <PUBCHEM_BOND_DEF_STEREO_COUNT>
0

> <PUBCHEM_BOND_UDEF_STEREO_COUNT>
0

> <PUBCHEM_ISOTOPIC_ATOM_COUNT>
0

> <PUBCHEM_COMPONENT_COUNT>
1

> <PUBCHEM_CACTVS_TAUTO_COUNT>
2

> <PUBCHEM_CONFORMER_ID>
0000A2A000000003

> <PUBCHEM_MMFF94_ENERGY>
70.6045

> <PUBCHEM_FEATURE_SELFOVERLAP>
30.446

> <PUBCHEM_SHAPE_FINGERPRINT>
10319926 262 14996272626415377668
10622 236 17679607565944637687
10912923 1 17604142615372938521
11089746 13 11383837056620428754
12107183 9 18190164879747951857
12236239 1 18040995095364537739
12403259 118 5256395128499368059
12422481 6 17313661676015543662
12553582 1 18338241561079402178
12596602 18 17022623065852322130
12633257 1 16298387929237176483
12916754 54 18409448081219056465
13009979 54 18040986389070768432
13167823 11 18186520994701288890
13533116 47 18261955137719635595
13551218 46 18113897173950969727
13955234 65 18263927640311284040
1420 369 18335140894848589122
14251732 14 14836112222759562731
14251764 30 18189323749337453526
14350574 20 18130783447406660434
14528608 73 11455888048824319474
14576447 43 18412824720683821426
14767858 380 18272070709863535126
15188451 53 16443359641466822015
15537594 2 18188205399423291804
15961568 22 15194724472498391404
17780758 139 17240484757628643250
17844677 252 18411696590934844597
17870717 6 17060339622094498147
17959699 21 10231763283588821639
1813 80 18335127731127248756
18186145 218 17418381280932391049
18222031 100 18409173237993311898
193927 3 18413385449490135498
200 152 18339648841462976145
20028762 73 18186804660080620998
20281475 54 18115029602144304749
20645477 70 18272376334671178328
20693207 138 17632013065930538627
20871999 31 16200148815568214093
21065198 48 18040989614506564649
212916 134 15357967972016078031
221490 88 18342458153569448768
22950370 63 18338227293234610866
23175994 123 17988926622698796853
23503953 91 16660362575785675921
235170 7 16486970747748738198
23557571 272 16916519055647802709
23559900 14 17917147199926747848
23596394 208 17418103134597331594
23598288 3 18113899394612721645
239999 70 17703231707096046184
312423 11 18411971460151815528
314194 84 18410852175042994770
34797466 226 16343411822061179903
351380 3 18260265274326633174
4259306 186 18272933855680650194
46194498 28 17346594128405743382
5104073 3 18262242221982001992
5281201 14 17703795790451348364
573450 72 17095242497483648615
5924683 9 14707505659067911477
7064713 232 16660365891384806702
7970288 3 18339082700186064178
9709674 26 18272088262371422145

> <PUBCHEM_SHAPE_MULTIPOLES>
394.87
12.77
2.49
1.3
1.39
0.21
-0.42
-9
0.41
3.34
-0.02
-1.62
-0.4
-0.09

> <PUBCHEM_SHAPE_SELFOVERLAP>
835.191

> <PUBCHEM_SHAPE_VOLUME>
222.9

> <PUBCHEM_COORDINATE_TYPE>
2
5
10

$$$$

