25137938
  -OEChem-07051213113D

 38 40  0     1  0  0  0  0  0999 V2000
    1.4562    2.7887   -0.4081 O   0  0  0  0  0  0  0  0  0  0  0  0
    0.8132   -0.7073    0.0916 C   0  0  2  0  0  0  0  0  0  0  0  0
   -1.3752   -1.5359    0.0950 C   0  0  1  0  0  0  0  0  0  0  0  0
   -0.1057   -1.5656    0.9596 C   0  0  0  0  0  0  0  0  0  0  0  0
   -2.0640   -0.1160    0.1950 C   0  0  0  0  0  0  0  0  0  0  0  0
    0.6596   -1.3718   -1.2865 C   0  0  0  0  0  0  0  0  0  0  0  0
    2.2327   -0.5058    0.6413 C   0  0  2  0  0  0  0  0  0  0  0  0
   -0.7955   -1.8703   -1.3011 C   0  0  0  0  0  0  0  0  0  0  0  0
    0.2797    0.7140   -0.0002 C   0  0  0  0  0  0  0  0  0  0  0  0
   -1.0290    1.0293    0.0531 C   0  0  0  0  0  0  0  0  0  0  0  0
    2.7383    0.7855   -0.0158 C   0  0  0  0  0  0  0  0  0  0  0  0
    1.4765    1.5959   -0.1525 C   0  0  0  0  0  0  0  0  0  0  0  0
   -3.1700    0.0045   -0.8763 C   0  0  0  0  0  0  0  0  0  0  0  0
   -2.7521   -0.0156    1.5805 C   0  0  0  0  0  0  0  0  0  0  0  0
    3.1981   -1.6655    0.4400 C   0  0  0  0  0  0  0  0  0  0  0  0
   -1.5628    2.4359   -0.0154 C   0  0  0  0  0  0  0  0  0  0  0  0
   -2.0832   -2.3151    0.4008 H   0  0  0  0  0  0  0  0  0  0  0  0
   -0.2482   -1.1671    1.9680 H   0  0  0  0  0  0  0  0  0  0  0  0
    0.2762   -2.5895    1.0579 H   0  0  0  0  0  0  0  0  0  0  0  0
    1.3243   -2.2339   -1.4051 H   0  0  0  0  0  0  0  0  0  0  0  0
    0.8549   -0.6903   -2.1222 H   0  0  0  0  0  0  0  0  0  0  0  0
    2.1598   -0.3246    1.7246 H   0  0  0  0  0  0  0  0  0  0  0  0
   -1.3578   -1.4483   -2.1361 H   0  0  0  0  0  0  0  0  0  0  0  0
   -0.7950   -2.9583   -1.4437 H   0  0  0  0  0  0  0  0  0  0  0  0
    3.1605    0.6125   -1.0106 H   0  0  0  0  0  0  0  0  0  0  0  0
    3.4608    1.2993    0.6237 H   0  0  0  0  0  0  0  0  0  0  0  0
   -2.7587    0.1556   -1.8797 H   0  0  0  0  0  0  0  0  0  0  0  0
   -3.7970   -0.8941   -0.8960 H   0  0  0  0  0  0  0  0  0  0  0  0
   -3.8327    0.8552   -0.6781 H   0  0  0  0  0  0  0  0  0  0  0  0
   -3.3987    0.8661    1.6527 H   0  0  0  0  0  0  0  0  0  0  0  0
   -3.3877   -0.8893    1.7666 H   0  0  0  0  0  0  0  0  0  0  0  0
   -2.0281    0.0518    2.3990 H   0  0  0  0  0  0  0  0  0  0  0  0
    3.4202   -1.8351   -0.6183 H   0  0  0  0  0  0  0  0  0  0  0  0
    2.7936   -2.5913    0.8607 H   0  0  0  0  0  0  0  0  0  0  0  0
    4.1493   -1.4577    0.9419 H   0  0  0  0  0  0  0  0  0  0  0  0
   -2.0446    2.6131   -0.9819 H   0  0  0  0  0  0  0  0  0  0  0  0
   -0.7936    3.1985    0.1158 H   0  0  0  0  0  0  0  0  0  0  0  0
   -2.2976    2.6164    0.7743 H   0  0  0  0  0  0  0  0  0  0  0  0
  1 12  2  0  0  0  0
  2  4  1  0  0  0  0
  2  6  1  0  0  0  0
  2  7  1  0  0  0  0
  2  9  1  0  0  0  0
  3  4  1  0  0  0  0
  3  5  1  0  0  0  0
  3  8  1  0  0  0  0
  3 17  1  0  0  0  0
  4 18  1  0  0  0  0
  4 19  1  0  0  0  0
  5 10  1  0  0  0  0
  5 13  1  0  0  0  0
  5 14  1  0  0  0  0
  6  8  1  0  0  0  0
  6 20  1  0  0  0  0
  6 21  1  0  0  0  0
  7 11  1  0  0  0  0
  7 15  1  0  0  0  0
  7 22  1  0  0  0  0
  8 23  1  0  0  0  0
  8 24  1  0  0  0  0
  9 10  2  0  0  0  0
  9 12  1  0  0  0  0
 10 16  1  0  0  0  0
 11 12  1  0  0  0  0
 11 25  1  0  0  0  0
 11 26  1  0  0  0  0
 13 27  1  0  0  0  0
 13 28  1  0  0  0  0
 13 29  1  0  0  0  0
 14 30  1  0  0  0  0
 14 31  1  0  0  0  0
 14 32  1  0  0  0  0
 15 33  1  0  0  0  0
 15 34  1  0  0  0  0
 15 35  1  0  0  0  0
 16 36  1  0  0  0  0
 16 37  1  0  0  0  0
 16 38  1  0  0  0  0
M  END
> <PUBCHEM_COMPOUND_CID>
25137938

> <PUBCHEM_CONFORMER_RMSD>
0.6

> <PUBCHEM_CONFORMER_DIVERSEORDER>
1

> <PUBCHEM_MMFF94_PARTIAL_CHARGES>
8
1 -0.57
10 -0.28
11 0.06
12 0.49
16 0.14
2 0.14
5 0.14
9 -0.12

> <PUBCHEM_EFFECTIVE_ROTOR_COUNT>
1.2

> <PUBCHEM_PHARMACOPHORE_FEATURES>
4
1 1 acceptor
3 5 13 14 hydrophobe
5 2 7 9 11 12 rings
8 2 3 4 5 6 8 9 10 rings

> <PUBCHEM_HEAVY_ATOM_COUNT>
16

> <PUBCHEM_ATOM_DEF_STEREO_COUNT>
3

> <PUBCHEM_ATOM_UDEF_STEREO_COUNT>
0

> <PUBCHEM_BOND_DEF_STEREO_COUNT>
0

> <PUBCHEM_BOND_UDEF_STEREO_COUNT>
0

> <PUBCHEM_ISOTOPIC_ATOM_COUNT>
0

> <PUBCHEM_COMPONENT_COUNT>
1

> <PUBCHEM_CACTVS_TAUTO_COUNT>
5

> <PUBCHEM_CONFORMER_ID>
017F931200000001

> <PUBCHEM_MMFF94_ENERGY>
55.8797

> <PUBCHEM_FEATURE_SELFOVERLAP>
20.364

> <PUBCHEM_SHAPE_FINGERPRINT>
10863032 1 18270124479023041583
10967382 1 18339927008818918656
12423570 1 12813489467196831883
12491281 212 18114731629955519795
12524768 44 18336252449501171319
12696612 119 18339067285099149472
13024252 1 17489035863652004643
13140716 1 18050845512089094552
13172582 1 18335413607996947171
13221675 6 18340199700914329228
144361 1 18335437771667525219
14614273 12 17766855926273057989
14817 1 16037976017380254110
14993402 34 18335426780835821310
15076042 46 18410293635619806440
15775835 57 18335134233227706097
16945 1 18411697681808759698
20511035 2 18262524684463215896
21501502 16 18265892462735735827
2334 1 17618502086697087704
23402539 116 18191044475811511055
23419403 2 15402241018472719771
23559900 14 18047753982620393766
2748010 2 18048029967457151660
5084963 1 18187937200053472643
53812654 25 18188226320145751546
6992083 37 18261118503691697994
7364860 26 18335703780862830256

> <PUBCHEM_SHAPE_MULTIPOLES>
323.4
4.15
2.51
1.14
0.35
1.2
0.03
-0.16
0.61
0.47
-0.43
-0.48
-0.45
-0.29

> <PUBCHEM_SHAPE_SELFOVERLAP>
698.385

> <PUBCHEM_SHAPE_VOLUME>
182.7

> <PUBCHEM_COORDINATE_TYPE>
2
5
10

$$$$

