5281367
  -OEChem-07051212563D

 91 97  0     1  0  0  0  0  0999 V2000
    1.3285    2.3093   -1.8514 O   0  0  0  0  0  0  0  0  0  0  0  0
    2.6110    0.6952    0.5911 O   0  0  0  0  0  0  0  0  0  0  0  0
    3.2237   -0.3297   -1.4587 O   0  0  0  0  0  0  0  0  0  0  0  0
    3.3759   -1.5467    0.4467 O   0  0  0  0  0  0  0  0  0  0  0  0
   -0.0513   -2.6972    0.0114 O   0  0  0  0  0  0  0  0  0  0  0  0
   -1.6746    0.6911    0.1646 O   0  0  0  0  0  0  0  0  0  0  0  0
   -2.3166    2.7679   -1.5340 O   0  0  0  0  0  0  0  0  0  0  0  0
   -1.0087    1.8081   -4.3045 O   0  0  0  0  0  0  0  0  0  0  0  0
   -2.7746    3.0967    1.3778 O   0  0  0  0  0  0  0  0  0  0  0  0
   -1.1920   -3.1422    1.9710 O   0  0  0  0  0  0  0  0  0  0  0  0
    0.9115   -0.0395   -1.0423 C   0  0  1  0  0  0  0  0  0  0  0  0
    1.1907    0.3933    0.4418 C   0  0  2  0  0  0  0  0  0  0  0  0
    0.8343    1.0048   -2.1301 C   0  0  1  0  0  0  0  0  0  0  0  0
   -0.0850    2.2112   -2.1386 C   0  0  1  0  0  0  0  0  0  0  0  0
    1.9983   -1.0747   -1.4177 C   0  0  2  0  0  0  0  0  0  0  0  0
    0.4758    1.7299    0.8180 C   0  0  1  0  0  0  0  0  0  0  0  0
    0.8026   -0.8432    1.3784 C   0  0  1  0  0  0  0  0  0  0  0  0
    2.2715   -2.1008   -0.2972 C   0  0  2  0  0  0  0  0  0  0  0  0
   -0.9559    1.9099    0.2722 C   0  0  1  0  0  0  0  0  0  0  0  0
   -0.9760    2.7065   -1.0346 C   0  0  2  0  0  0  0  0  0  0  0  0
    1.1099   -2.2209    0.6944 C   0  0  2  0  0  0  0  0  0  0  0  0
    3.5138   -0.2191   -0.0623 C   0  0  2  0  0  0  0  0  0  0  0  0
   -0.3878    2.7949   -3.4863 C   0  0  0  0  0  0  0  0  0  0  0  0
    0.3561    2.1067    2.2690 C   0  0  0  0  0  0  0  0  0  0  0  0
    1.4636   -0.8363    2.7703 C   0  0  0  0  0  0  0  0  0  0  0  0
   -1.6490    2.6209    1.4182 C   0  0  0  0  0  0  0  0  0  0  0  0
    2.7077   -3.4275   -0.8364 C   0  0  0  0  0  0  0  0  0  0  0  0
   -0.8180    2.6267    2.6338 C   0  0  0  0  0  0  0  0  0  0  0  0
    4.9164    0.3072    0.1447 C   0  0  0  0  0  0  0  0  0  0  0  0
    4.0607   -3.9062   -0.4005 C   0  0  0  0  0  0  0  0  0  0  0  0
    1.9329   -4.1469   -1.6617 C   0  0  0  0  0  0  0  0  0  0  0  0
   -1.2563    3.1669    3.9375 C   0  0  0  0  0  0  0  0  0  0  0  0
    5.6474   -0.0616    1.2785 C   0  0  0  0  0  0  0  0  0  0  0  0
    5.4921    1.1672   -0.7959 C   0  0  0  0  0  0  0  0  0  0  0  0
   -1.1607   -2.8591    0.7837 C   0  0  0  0  0  0  0  0  0  0  0  0
    6.9410    0.4242    1.4693 C   0  0  0  0  0  0  0  0  0  0  0  0
    6.7856    1.6530   -0.6051 C   0  0  0  0  0  0  0  0  0  0  0  0
   -2.3437   -2.6285   -0.0745 C   0  0  0  0  0  0  0  0  0  0  0  0
    7.5100    1.2816    0.5274 C   0  0  0  0  0  0  0  0  0  0  0  0
   -3.5739   -2.7266    0.4472 C   0  0  0  0  0  0  0  0  0  0  0  0
   -4.7724   -2.5139   -0.3339 C   0  0  0  0  0  0  0  0  0  0  0  0
   -6.0086   -2.6097    0.1786 C   0  0  0  0  0  0  0  0  0  0  0  0
   -7.2604   -2.4015   -0.6260 C   0  0  0  0  0  0  0  0  0  0  0  0
   -8.1046   -1.2174   -0.1408 C   0  0  0  0  0  0  0  0  0  0  0  0
   -7.3685    0.1247   -0.2154 C   0  0  0  0  0  0  0  0  0  0  0  0
   -8.2190    1.3061    0.2584 C   0  0  0  0  0  0  0  0  0  0  0  0
   -7.5037    2.6451    0.1638 C   0  0  0  0  0  0  0  0  0  0  0  0
   -0.0571   -0.5454   -1.0958 H   0  0  0  0  0  0  0  0  0  0  0  0
    1.0606    0.5784   -3.1030 H   0  0  0  0  0  0  0  0  0  0  0  0
    1.8057   -1.5066   -2.4050 H   0  0  0  0  0  0  0  0  0  0  0  0
    1.1067    2.5504    0.4452 H   0  0  0  0  0  0  0  0  0  0  0  0
   -0.2714   -0.7650    1.5654 H   0  0  0  0  0  0  0  0  0  0  0  0
   -0.6814    3.7412   -0.8092 H   0  0  0  0  0  0  0  0  0  0  0  0
    1.3710   -2.9689    1.4561 H   0  0  0  0  0  0  0  0  0  0  0  0
   -1.0302    3.6796   -3.4449 H   0  0  0  0  0  0  0  0  0  0  0  0
    0.5341    3.1031   -3.9944 H   0  0  0  0  0  0  0  0  0  0  0  0
    1.2022    2.0601    2.9428 H   0  0  0  0  0  0  0  0  0  0  0  0
    1.0624   -0.0537    3.4137 H   0  0  0  0  0  0  0  0  0  0  0  0
    1.2585   -1.7745    3.2990 H   0  0  0  0  0  0  0  0  0  0  0  0
    2.5486   -0.7161    2.7250 H   0  0  0  0  0  0  0  0  0  0  0  0
   -2.5397    0.8859   -0.2349 H   0  0  0  0  0  0  0  0  0  0  0  0
   -2.4727    3.6700   -1.8612 H   0  0  0  0  0  0  0  0  0  0  0  0
    4.1129   -3.9912    0.6902 H   0  0  0  0  0  0  0  0  0  0  0  0
    4.8480   -3.2290   -0.7481 H   0  0  0  0  0  0  0  0  0  0  0  0
    4.2885   -4.8972   -0.8091 H   0  0  0  0  0  0  0  0  0  0  0  0
   -1.1694    2.2171   -5.1720 H   0  0  0  0  0  0  0  0  0  0  0  0
    0.9618   -3.8031   -1.9984 H   0  0  0  0  0  0  0  0  0  0  0  0
    2.2649   -5.1078   -2.0417 H   0  0  0  0  0  0  0  0  0  0  0  0
   -0.4594    3.1024    4.6854 H   0  0  0  0  0  0  0  0  0  0  0  0
   -2.1175    2.6061    4.3138 H   0  0  0  0  0  0  0  0  0  0  0  0
   -1.5436    4.2186    3.8412 H   0  0  0  0  0  0  0  0  0  0  0  0
    5.2203   -0.7215    2.0288 H   0  0  0  0  0  0  0  0  0  0  0  0
    4.9441    1.4808   -1.6804 H   0  0  0  0  0  0  0  0  0  0  0  0
    7.5045    0.1369    2.3521 H   0  0  0  0  0  0  0  0  0  0  0  0
    7.2279    2.3229   -1.3367 H   0  0  0  0  0  0  0  0  0  0  0  0
   -2.1817   -2.3808   -1.1188 H   0  0  0  0  0  0  0  0  0  0  0  0
    8.5167    1.6608    0.6767 H   0  0  0  0  0  0  0  0  0  0  0  0
   -3.7098   -2.9744    1.4969 H   0  0  0  0  0  0  0  0  0  0  0  0
   -4.6457   -2.2661   -1.3848 H   0  0  0  0  0  0  0  0  0  0  0  0
   -6.1442   -2.8593    1.2286 H   0  0  0  0  0  0  0  0  0  0  0  0
   -7.0207   -2.2603   -1.6872 H   0  0  0  0  0  0  0  0  0  0  0  0
   -7.8636   -3.3152   -0.5634 H   0  0  0  0  0  0  0  0  0  0  0  0
   -9.0158   -1.1644   -0.7491 H   0  0  0  0  0  0  0  0  0  0  0  0
   -8.4257   -1.3973    0.8929 H   0  0  0  0  0  0  0  0  0  0  0  0
   -7.0495    0.3026   -1.2499 H   0  0  0  0  0  0  0  0  0  0  0  0
   -6.4590    0.0884    0.3957 H   0  0  0  0  0  0  0  0  0  0  0  0
   -9.1376    1.3542   -0.3383 H   0  0  0  0  0  0  0  0  0  0  0  0
   -8.5238    1.1397    1.2984 H   0  0  0  0  0  0  0  0  0  0  0  0
   -6.5974    2.6473    0.7776 H   0  0  0  0  0  0  0  0  0  0  0  0
   -7.2184    2.8626   -0.8703 H   0  0  0  0  0  0  0  0  0  0  0  0
   -8.1559    3.4508    0.5148 H   0  0  0  0  0  0  0  0  0  0  0  0
  1 13  1  0  0  0  0
  1 14  1  0  0  0  0
  2 12  1  0  0  0  0
  2 22  1  0  0  0  0
  3 15  1  0  0  0  0
  3 22  1  0  0  0  0
  4 18  1  0  0  0  0
  4 22  1  0  0  0  0
  5 21  1  0  0  0  0
  5 35  1  0  0  0  0
  6 19  1  0  0  0  0
  6 61  1  0  0  0  0
  7 20  1  0  0  0  0
  7 62  1  0  0  0  0
  8 23  1  0  0  0  0
  8 66  1  0  0  0  0
  9 26  2  0  0  0  0
 10 35  2  0  0  0  0
 11 12  1  0  0  0  0
 11 13  1  0  0  0  0
 11 15  1  0  0  0  0
 11 48  1  0  0  0  0
 12 16  1  0  0  0  0
 12 17  1  0  0  0  0
 13 14  1  0  0  0  0
 13 49  1  0  0  0  0
 14 20  1  0  0  0  0
 14 23  1  0  0  0  0
 15 18  1  0  0  0  0
 15 50  1  0  0  0  0
 16 19  1  0  0  0  0
 16 24  1  0  0  0  0
 16 51  1  0  0  0  0
 17 21  1  0  0  0  0
 17 25  1  0  0  0  0
 17 52  1  0  0  0  0
 18 21  1  0  0  0  0
 18 27  1  0  0  0  0
 19 20  1  0  0  0  0
 19 26  1  0  0  0  0
 20 53  1  0  0  0  0
 21 54  1  0  0  0  0
 22 29  1  0  0  0  0
 23 55  1  0  0  0  0
 23 56  1  0  0  0  0
 24 28  2  0  0  0  0
 24 57  1  0  0  0  0
 25 58  1  0  0  0  0
 25 59  1  0  0  0  0
 25 60  1  0  0  0  0
 26 28  1  0  0  0  0
 27 30  1  0  0  0  0
 27 31  2  0  0  0  0
 28 32  1  0  0  0  0
 29 33  2  0  0  0  0
 29 34  1  0  0  0  0
 30 63  1  0  0  0  0
 30 64  1  0  0  0  0
 30 65  1  0  0  0  0
 31 67  1  0  0  0  0
 31 68  1  0  0  0  0
 32 69  1  0  0  0  0
 32 70  1  0  0  0  0
 32 71  1  0  0  0  0
 33 36  1  0  0  0  0
 33 72  1  0  0  0  0
 34 37  2  0  0  0  0
 34 73  1  0  0  0  0
 35 38  1  0  0  0  0
 36 39  2  0  0  0  0
 36 74  1  0  0  0  0
 37 39  1  0  0  0  0
 37 75  1  0  0  0  0
 38 40  2  0  0  0  0
 38 76  1  0  0  0  0
 39 77  1  0  0  0  0
 40 41  1  0  0  0  0
 40 78  1  0  0  0  0
 41 42  2  0  0  0  0
 41 79  1  0  0  0  0
 42 43  1  0  0  0  0
 42 80  1  0  0  0  0
 43 44  1  0  0  0  0
 43 81  1  0  0  0  0
 43 82  1  0  0  0  0
 44 45  1  0  0  0  0
 44 83  1  0  0  0  0
 44 84  1  0  0  0  0
 45 46  1  0  0  0  0
 45 85  1  0  0  0  0
 45 86  1  0  0  0  0
 46 47  1  0  0  0  0
 46 87  1  0  0  0  0
 46 88  1  0  0  0  0
 47 89  1  0  0  0  0
 47 90  1  0  0  0  0
 47 91  1  0  0  0  0
M  END
> <PUBCHEM_COMPOUND_CID>
5281367

> <PUBCHEM_CONFORMER_RMSD>
1.2

> <PUBCHEM_CONFORMER_DIVERSEORDER>
1
9
7
8
10
5
6
3
2
4

> <PUBCHEM_MMFF94_PARTIAL_CHARGES>
57
1 -0.3
10 -0.57
11 0.09
12 0.28
13 -0.05
14 -0.04
15 0.28
16 0.14
18 0.42
19 0.34
2 -0.56
20 0.38
21 0.28
22 0.98
23 0.38
24 -0.29
26 0.49
27 -0.28
28 -0.12
29 -0.14
3 -0.56
30 0.14
31 -0.3
32 0.14
33 -0.15
34 -0.15
35 0.71
36 -0.15
37 -0.15
38 -0.14
39 -0.15
4 -0.56
40 -0.15
41 -0.15
42 -0.29
43 0.14
49 0.1
5 -0.43
57 0.15
6 -0.68
61 0.4
62 0.4
66 0.4
67 0.15
68 0.15
7 -0.68
72 0.15
73 0.15
74 0.15
75 0.15
76 0.15
77 0.15
78 0.15
79 0.15
8 -0.68
80 0.15
9 -0.57

> <PUBCHEM_EFFECTIVE_ROTOR_COUNT>
12.4

> <PUBCHEM_PHARMACOPHORE_FEATURES>
18
1 1 acceptor
1 10 acceptor
1 2 acceptor
1 3 acceptor
1 4 acceptor
1 47 hydrophobe
1 6 acceptor
1 6 donor
1 7 acceptor
1 7 donor
1 8 acceptor
1 8 donor
1 9 acceptor
10 2 3 4 11 12 15 17 18 21 22 rings
5 16 19 24 26 28 rings
5 42 43 44 45 46 hydrophobe
6 29 33 34 36 37 39 rings
7 11 12 13 14 16 19 20 rings

> <PUBCHEM_HEAVY_ATOM_COUNT>
47

> <PUBCHEM_ATOM_DEF_STEREO_COUNT>
11

> <PUBCHEM_ATOM_UDEF_STEREO_COUNT>
1

> <PUBCHEM_BOND_DEF_STEREO_COUNT>
2

> <PUBCHEM_BOND_UDEF_STEREO_COUNT>
0

> <PUBCHEM_ISOTOPIC_ATOM_COUNT>
0

> <PUBCHEM_COMPONENT_COUNT>
1

> <PUBCHEM_CACTVS_TAUTO_COUNT>
3

> <PUBCHEM_CONFORMER_ID>
0050965700000001

> <PUBCHEM_MMFF94_ENERGY>
146.6022

> <PUBCHEM_FEATURE_SELFOVERLAP>
91.518

> <PUBCHEM_SHAPE_FINGERPRINT>
10258939 38 17703244978323321516
10930396 42 17827099324844143154
11578080 2 18043787953651896290
11582403 64 16053256381965470780
12664476 115 18342743963160171703
12788726 201 18119513351150245112
13811026 1 18334575754414705467
140371 6 18199450096319823826
14068700 675 18266740186169076772
15131766 46 15360247096902396552
15274700 256 18261676978853693472
15324884 4 17484493970534235284
15351339 4 18336553802552288915
15439362 3 17393612380519229697
15444296 9 18272376373415945030
22121540 332 17095531707264086570
24771293 8 18413671297075960511
24893992 56 17916308235029645315
27425 322 17246369472799827224
469060 322 18060134328275792068

> <PUBCHEM_SHAPE_MULTIPOLES>
908.54
16.68
5.2
2.85
21.08
2.38
-0.81
0.51
0.84
2.87
0.22
-0.25
-3.15
0.05

> <PUBCHEM_SHAPE_SELFOVERLAP>
1978.505

> <PUBCHEM_SHAPE_VOLUME>
485.3

> <PUBCHEM_COORDINATE_TYPE>
2
5
10

$$$$

