3356
  -OEChem-07051212522D

 48 49  0     1  0  0  0  0  0999 V2000
    2.0000    0.4330    0.0000 F   0  0  0  0  0  0  0  0  0  0  0  0
    2.3660   -0.9330    0.0000 F   0  0  0  0  0  0  0  0  0  0  0  0
    3.3660    0.7990    0.0000 F   0  0  0  0  0  0  0  0  0  0  0  0
    9.7942   -4.0670    0.0000 F   0  0  0  0  0  0  0  0  0  0  0  0
    8.4282   -4.4330    0.0000 F   0  0  0  0  0  0  0  0  0  0  0  0
    9.4282   -2.7010    0.0000 F   0  0  0  0  0  0  0  0  0  0  0  0
    5.4641    1.4330    0.0000 O   0  0  0  0  0  0  0  0  0  0  0  0
    4.5981   -0.0670    0.0000 O   0  0  0  0  0  0  0  0  0  0  0  0
    8.0622   -2.0670    0.0000 O   0  0  0  0  0  0  0  0  0  0  0  0
    8.0622    3.9330    0.0000 N   0  0  0  0  0  0  0  0  0  0  0  0
    7.1962    1.4330    0.0000 N   0  0  0  0  0  0  0  0  0  0  0  0
    8.0622    2.9330    0.0000 C   0  0  3  0  0  0  0  0  0  0  0  0
    8.9282    2.4330    0.0000 C   0  0  0  0  0  0  0  0  0  0  0  0
    9.7942    2.9330    0.0000 C   0  0  0  0  0  0  0  0  0  0  0  0
    9.7942    3.9330    0.0000 C   0  0  0  0  0  0  0  0  0  0  0  0
    8.9282    4.4330    0.0000 C   0  0  0  0  0  0  0  0  0  0  0  0
    7.1962    2.4330    0.0000 C   0  0  0  0  0  0  0  0  0  0  0  0
    6.3301    0.9330    0.0000 C   0  0  0  0  0  0  0  0  0  0  0  0
    6.3301   -0.0670    0.0000 C   0  0  0  0  0  0  0  0  0  0  0  0
    5.4641   -0.5670    0.0000 C   0  0  0  0  0  0  0  0  0  0  0  0
    7.1962   -0.5670    0.0000 C   0  0  0  0  0  0  0  0  0  0  0  0
    7.1962   -1.5670    0.0000 C   0  0  0  0  0  0  0  0  0  0  0  0
    5.4641   -1.5670    0.0000 C   0  0  0  0  0  0  0  0  0  0  0  0
    6.3301   -2.0670    0.0000 C   0  0  0  0  0  0  0  0  0  0  0  0
    3.7320   -0.5670    0.0000 C   0  0  0  0  0  0  0  0  0  0  0  0
    8.0622   -3.0670    0.0000 C   0  0  0  0  0  0  0  0  0  0  0  0
    2.8660   -0.0670    0.0000 C   0  0  0  0  0  0  0  0  0  0  0  0
    8.9282   -3.5670    0.0000 C   0  0  0  0  0  0  0  0  0  0  0  0
    7.5252    3.2430    0.0000 H   0  0  0  0  0  0  0  0  0  0  0  0
    8.5297    1.9581    0.0000 H   0  0  0  0  0  0  0  0  0  0  0  0
    9.3267    1.9581    0.0000 H   0  0  0  0  0  0  0  0  0  0  0  0
   10.0063    2.3504    0.0000 H   0  0  0  0  0  0  0  0  0  0  0  0
   10.4048    3.0407    0.0000 H   0  0  0  0  0  0  0  0  0  0  0  0
   10.4048    3.8254    0.0000 H   0  0  0  0  0  0  0  0  0  0  0  0
   10.0063    4.5156    0.0000 H   0  0  0  0  0  0  0  0  0  0  0  0
    9.3267    4.9080    0.0000 H   0  0  0  0  0  0  0  0  0  0  0  0
    8.5297    4.9080    0.0000 H   0  0  0  0  0  0  0  0  0  0  0  0
    7.5252    4.2430    0.0000 H   0  0  0  0  0  0  0  0  0  0  0  0
    6.9841    3.0156    0.0000 H   0  0  0  0  0  0  0  0  0  0  0  0
    6.5856    2.3253    0.0000 H   0  0  0  0  0  0  0  0  0  0  0  0
    7.7331    1.1230    0.0000 H   0  0  0  0  0  0  0  0  0  0  0  0
    7.7331   -0.2570    0.0000 H   0  0  0  0  0  0  0  0  0  0  0  0
    4.9272   -1.8770    0.0000 H   0  0  0  0  0  0  0  0  0  0  0  0
    6.3301   -2.6870    0.0000 H   0  0  0  0  0  0  0  0  0  0  0  0
    3.3335   -1.0419    0.0000 H   0  0  0  0  0  0  0  0  0  0  0  0
    4.1306   -1.0419    0.0000 H   0  0  0  0  0  0  0  0  0  0  0  0
    7.4516   -2.9593    0.0000 H   0  0  0  0  0  0  0  0  0  0  0  0
    7.8501   -3.6496    0.0000 H   0  0  0  0  0  0  0  0  0  0  0  0
  1 27  1  0  0  0  0
  2 27  1  0  0  0  0
  3 27  1  0  0  0  0
  4 28  1  0  0  0  0
  5 28  1  0  0  0  0
  6 28  1  0  0  0  0
  7 18  2  0  0  0  0
  8 20  1  0  0  0  0
  8 25  1  0  0  0  0
  9 22  1  0  0  0  0
  9 26  1  0  0  0  0
 10 12  1  0  0  0  0
 10 16  1  0  0  0  0
 10 38  1  0  0  0  0
 11 17  1  0  0  0  0
 11 18  1  0  0  0  0
 11 41  1  0  0  0  0
 12 13  1  0  0  0  0
 12 17  1  0  0  0  0
 12 29  1  0  0  0  0
 13 14  1  0  0  0  0
 13 30  1  0  0  0  0
 13 31  1  0  0  0  0
 14 15  1  0  0  0  0
 14 32  1  0  0  0  0
 14 33  1  0  0  0  0
 15 16  1  0  0  0  0
 15 34  1  0  0  0  0
 15 35  1  0  0  0  0
 16 36  1  0  0  0  0
 16 37  1  0  0  0  0
 17 39  1  0  0  0  0
 17 40  1  0  0  0  0
 18 19  1  0  0  0  0
 19 20  2  0  0  0  0
 19 21  1  0  0  0  0
 20 23  1  0  0  0  0
 21 22  2  0  0  0  0
 21 42  1  0  0  0  0
 22 24  1  0  0  0  0
 23 24  2  0  0  0  0
 23 43  1  0  0  0  0
 24 44  1  0  0  0  0
 25 27  1  0  0  0  0
 25 45  1  0  0  0  0
 25 46  1  0  0  0  0
 26 28  1  0  0  0  0
 26 47  1  0  0  0  0
 26 48  1  0  0  0  0
M  END
> <PUBCHEM_COMPOUND_CID>
3356

> <PUBCHEM_COMPOUND_CANONICALIZED>
1

> <PUBCHEM_CACTVS_COMPLEXITY>
500

> <PUBCHEM_CACTVS_HBOND_ACCEPTOR>
10

> <PUBCHEM_CACTVS_HBOND_DONOR>
2

> <PUBCHEM_CACTVS_ROTATABLE_BOND>
7

> <PUBCHEM_CACTVS_SUBSKEYS>
AAADceB7McAAAAAAAAAAAAAAAAAAAAAAAAA8QAAAAAAAAAABAAAAHwAQAAAADCzhmBYwBoLABACIAiFSEACCCAAkIAAIiIEODMgMZjaEtRuWOWjm9hGIqYf6yDCOAQABAAAIAAACAAIAABAAAAAAAAAAAA==

> <PUBCHEM_IUPAC_OPENEYE_NAME>
N-(2-piperidylmethyl)-2,5-bis(2,2,2-trifluoroethoxy)benzamide

> <PUBCHEM_IUPAC_CAS_NAME>
N-(2-piperidinylmethyl)-2,5-bis(2,2,2-trifluoroethoxy)benzamide

> <PUBCHEM_IUPAC_NAME>
N-(piperidin-2-ylmethyl)-2,5-bis(2,2,2-trifluoroethoxy)benzamide

> <PUBCHEM_IUPAC_SYSTEMATIC_NAME>
N-(piperidin-2-ylmethyl)-2,5-bis[2,2,2-tris(fluoranyl)ethoxy]benzamide

> <PUBCHEM_IUPAC_TRADITIONAL_NAME>
N-(2-piperidylmethyl)-2,5-bis(2,2,2-trifluoroethoxy)benzamide

> <PUBCHEM_IUPAC_INCHI>
InChI=1S/C17H20F6N2O3/c18-16(19,20)9-27-12-4-5-14(28-10-17(21,22)23)13(7-12)15(26)25-8-11-3-1-2-6-24-11/h4-5,7,11,24H,1-3,6,8-10H2,(H,25,26)

> <PUBCHEM_IUPAC_INCHIKEY>
DJBNUMBKLMJRSA-UHFFFAOYSA-N

> <PUBCHEM_XLOGP3>
3.8

> <PUBCHEM_EXACT_MASS>
414.137812

> <PUBCHEM_MOLECULAR_FORMULA>
C17H20F6N2O3

> <PUBCHEM_MOLECULAR_WEIGHT>
414.342719

> <PUBCHEM_OPENEYE_CAN_SMILES>
C1CCNC(C1)CNC(=O)C2=C(C=CC(=C2)OCC(F)(F)F)OCC(F)(F)F

> <PUBCHEM_OPENEYE_ISO_SMILES>
C1CCNC(C1)CNC(=O)C2=C(C=CC(=C2)OCC(F)(F)F)OCC(F)(F)F

> <PUBCHEM_CACTVS_TPSA>
59.6

> <PUBCHEM_MONOISOTOPIC_WEIGHT>
414.137812

> <PUBCHEM_TOTAL_CHARGE>
0

> <PUBCHEM_HEAVY_ATOM_COUNT>
28

> <PUBCHEM_ATOM_DEF_STEREO_COUNT>
0

> <PUBCHEM_ATOM_UDEF_STEREO_COUNT>
1

> <PUBCHEM_BOND_DEF_STEREO_COUNT>
0

> <PUBCHEM_BOND_UDEF_STEREO_COUNT>
0

> <PUBCHEM_ISOTOPIC_ATOM_COUNT>
0

> <PUBCHEM_COMPONENT_COUNT>
1

> <PUBCHEM_CACTVS_TAUTO_COUNT>
2

> <PUBCHEM_COORDINATE_TYPE>
1
5
255

> <PUBCHEM_BONDANNOTATIONS>
12  17  3
19  20  8
19  21  8
20  23  8
21  22  8
22  24  8
23  24  8

$$$$

