47205677
  -OEChem-06241222593D

 35 35  0     0  0  0  0  0  0999 V2000
    3.6526   -1.1895   -1.4647 F   0  0  0  0  0  0  0  0  0  0  0  0
   -2.5783    0.6637   -1.1818 O   0  0  0  0  0  0  0  0  0  0  0  0
   -0.5705   -0.7028    1.4875 O   0  0  0  0  0  0  0  0  0  0  0  0
    0.9783   -1.8109    0.1550 N   0  0  0  0  0  0  0  0  0  0  0  0
   -2.6362   -1.3870   -0.0956 N   0  0  0  0  0  0  0  0  0  0  0  0
   -4.5458    0.0621    0.0944 C   0  0  0  0  0  0  0  0  0  0  0  0
   -5.1351    1.4099   -0.3109 C   0  0  0  0  0  0  0  0  0  0  0  0
    2.1603   -1.4864    0.9209 C   0  0  0  0  0  0  0  0  0  0  0  0
   -1.3268   -1.8316   -0.5103 C   0  0  0  0  0  0  0  0  0  0  0  0
    2.7664   -0.1811    0.4930 C   0  0  0  0  0  0  0  0  0  0  0  0
   -3.1555   -0.1576   -0.4744 C   0  0  0  0  0  0  0  0  0  0  0  0
   -0.2959   -1.3885    0.5059 C   0  0  0  0  0  0  0  0  0  0  0  0
   -6.5123    1.6217    0.2963 C   0  0  0  0  0  0  0  0  0  0  0  0
    3.4904   -0.1030   -0.6968 C   0  0  0  0  0  0  0  0  0  0  0  0
    2.6034    0.9548    1.2860 C   0  0  0  0  0  0  0  0  0  0  0  0
    4.0517    1.1108   -1.0934 C   0  0  0  0  0  0  0  0  0  0  0  0
    3.1644    2.1688    0.8892 C   0  0  0  0  0  0  0  0  0  0  0  0
    3.8888    2.2468   -0.3003 C   0  0  0  0  0  0  0  0  0  0  0  0
   -4.4814   -0.0050    1.1872 H   0  0  0  0  0  0  0  0  0  0  0  0
   -5.1931   -0.7507   -0.2560 H   0  0  0  0  0  0  0  0  0  0  0  0
   -5.2063    1.4731   -1.4033 H   0  0  0  0  0  0  0  0  0  0  0  0
   -4.4709    2.2210    0.0107 H   0  0  0  0  0  0  0  0  0  0  0  0
    2.8814   -2.2999    0.7824 H   0  0  0  0  0  0  0  0  0  0  0  0
    1.9005   -1.4662    1.9858 H   0  0  0  0  0  0  0  0  0  0  0  0
   -1.3431   -2.9241   -0.5654 H   0  0  0  0  0  0  0  0  0  0  0  0
   -1.0799   -1.4146   -1.4916 H   0  0  0  0  0  0  0  0  0  0  0  0
    1.1015   -2.3563   -0.6934 H   0  0  0  0  0  0  0  0  0  0  0  0
   -3.1804   -1.9965    0.5082 H   0  0  0  0  0  0  0  0  0  0  0  0
   -6.4664    1.6010    1.3898 H   0  0  0  0  0  0  0  0  0  0  0  0
   -6.9157    2.5925   -0.0083 H   0  0  0  0  0  0  0  0  0  0  0  0
   -7.2099    0.8453   -0.0336 H   0  0  0  0  0  0  0  0  0  0  0  0
    2.0404    0.9093    2.2144 H   0  0  0  0  0  0  0  0  0  0  0  0
    4.6154    1.1712   -2.0196 H   0  0  0  0  0  0  0  0  0  0  0  0
    3.0371    3.0534    1.5063 H   0  0  0  0  0  0  0  0  0  0  0  0
    4.3256    3.1919   -0.6092 H   0  0  0  0  0  0  0  0  0  0  0  0
  1 14  1  0  0  0  0
  2 11  2  0  0  0  0
  3 12  2  0  0  0  0
  4  8  1  0  0  0  0
  4 12  1  0  0  0  0
  4 27  1  0  0  0  0
  5  9  1  0  0  0  0
  5 11  1  0  0  0  0
  5 28  1  0  0  0  0
  6  7  1  0  0  0  0
  6 11  1  0  0  0  0
  6 19  1  0  0  0  0
  6 20  1  0  0  0  0
  7 13  1  0  0  0  0
  7 21  1  0  0  0  0
  7 22  1  0  0  0  0
  8 10  1  0  0  0  0
  8 23  1  0  0  0  0
  8 24  1  0  0  0  0
  9 12  1  0  0  0  0
  9 25  1  0  0  0  0
  9 26  1  0  0  0  0
 10 14  1  0  0  0  0
 10 15  2  0  0  0  0
 13 29  1  0  0  0  0
 13 30  1  0  0  0  0
 13 31  1  0  0  0  0
 14 16  2  0  0  0  0
 15 17  1  0  0  0  0
 15 32  1  0  0  0  0
 16 18  1  0  0  0  0
 16 33  1  0  0  0  0
 17 18  2  0  0  0  0
 17 34  1  0  0  0  0
 18 35  1  0  0  0  0
M  END
> <PUBCHEM_COMPOUND_CID>
47205677

> <PUBCHEM_CONFORMER_RMSD>
1

> <PUBCHEM_CONFORMER_DIVERSEORDER>
1
34
145
93
49
138
140
141
94
4
18
33
46
64
19
118
75
54
144
81
130
89
97
65
22
31
103
42
151
147
21
3
154
53
117
91
52
153
92
29
16
39
28
113
101
36
11
133
8
2
27
85
114
126
5
96
83
68
50
72
24
121
13
120
107
124
88
109
87
143
102
17
80
35
48
61
129
128
90
41
9
66
149
23
62
67
26
51
148
122
139
32
84
7
127
58
137
134
105
86
76
59
112
136
38
99
142
71
12
63
146
14
125
150
37
104
82
15
25
131
44
111
115
119
6
70
98
116
40
47
73
45
135
108
79
132
56
106
95
152
60
78
30
100
123
77
55
110
20
43
10
57
74
69

> <PUBCHEM_MMFF94_PARTIAL_CHARGES>
22
1 -0.19
10 -0.14
11 0.57
12 0.57
14 0.19
15 -0.15
16 -0.15
17 -0.15
18 -0.15
2 -0.57
27 0.37
28 0.37
3 -0.57
32 0.15
33 0.15
34 0.15
35 0.15
4 -0.73
5 -0.73
6 0.06
8 0.44
9 0.36

> <PUBCHEM_EFFECTIVE_ROTOR_COUNT>
8

> <PUBCHEM_PHARMACOPHORE_FEATURES>
6
1 13 hydrophobe
1 2 acceptor
1 3 acceptor
1 4 donor
1 5 donor
6 10 14 15 16 17 18 rings

> <PUBCHEM_HEAVY_ATOM_COUNT>
18

> <PUBCHEM_ATOM_DEF_STEREO_COUNT>
0

> <PUBCHEM_ATOM_UDEF_STEREO_COUNT>
0

> <PUBCHEM_BOND_DEF_STEREO_COUNT>
0

> <PUBCHEM_BOND_UDEF_STEREO_COUNT>
0

> <PUBCHEM_ISOTOPIC_ATOM_COUNT>
0

> <PUBCHEM_COMPONENT_COUNT>
1

> <PUBCHEM_CACTVS_TAUTO_COUNT>
4

> <PUBCHEM_CONFORMER_ID>
02D04D2D00000001

> <PUBCHEM_MMFF94_ENERGY>
25.3489

> <PUBCHEM_FEATURE_SELFOVERLAP>
30.446

> <PUBCHEM_SHAPE_FINGERPRINT>
10378564 45 17895471530786322156
10447042 23 9151166533002198985
10498660 4 18340208496559276865
11720765 8 18041835238280880164
11796584 16 6266888053445286805
12346177 29 7636864165096704739
12363563 72 7781524753662328122
12596602 18 14117508870464952597
12670545 2 4895267084065481261
12892183 10 12823026308664731558
13878862 14 17914361171286230893
1420 369 9655578526200181225
14251764 30 12749863796279144768
14251764 75 18340197480200875333
14341114 328 16056875819292814197
14429115 67 10159698010497378561
14528608 73 18335990813669361063
14848178 5 8574713486139369849
15210252 30 18343016653953238228
15342168 16 18411422826009564127
15422964 175 9439141844094847786
16752209 62 14418117539526049623
17834072 32 18410576180423116847
17857418 61 10303803281852528705
17868525 174 17412485884188358507
1798214 55 18342181024872619476
18186145 218 18410301306304887406
193927 3 7781517061882257933
19752476 56 18261679190408318696
20403669 9 8430317948268131501
20621476 91 16128361655185400313
212847 35 18412829109438693690
22224240 67 10447344499041526166
22289505 5 18186798080633035612
23402655 69 18188206507809742260
23503958 8 10303277731846528382
23557571 272 18194957452868987347
251288 83 10231761080692221606
270888 7 18270962332563981756
3009799 131 18187917362744108436
316301 35 9078580091421237324
3472631 163 18408604747468866629
4463277 69 7565342046126978467
474 4 17917712374905018639
5104073 3 18131637772616432955
633830 44 18409455773473809367
6442390 28 17775277240565406339
76465 3 8646775495255738195
7808743 9 17914893137213962924
8988823 20 12391502067081050151
960060 61 13984664724329380585

> <PUBCHEM_SHAPE_MULTIPOLES>
341.46
12.26
2.37
1.21
16.98
0.33
-0.02
8.83
1.49
-0.76
-0.14
-0.96
0.02
0.08

> <PUBCHEM_SHAPE_SELFOVERLAP>
689.667

> <PUBCHEM_SHAPE_VOLUME>
198.9

> <PUBCHEM_COORDINATE_TYPE>
2
5
10

$$$$

