9658
  -OEChem-06261203553D

 15 14  0     0  0  0  0  0  0999 V2000
    1.2200   -1.2313   -1.0955 F   0  0  0  0  0  0  0  0  0  0  0  0
    1.2204   -1.2317    1.0953 F   0  0  0  0  0  0  0  0  0  0  0  0
   -1.2198   -1.2308    1.0955 F   0  0  0  0  0  0  0  0  0  0  0  0
   -1.2202   -1.2318   -1.0948 F   0  0  0  0  0  0  0  0  0  0  0  0
    2.4077    1.2618    1.0902 F   0  0  0  0  0  0  0  0  0  0  0  0
    3.5363   -0.2561    0.0023 F   0  0  0  0  0  0  0  0  0  0  0  0
    2.4099    1.2584   -1.0927 F   0  0  0  0  0  0  0  0  0  0  0  0
   -2.4077    1.2613   -1.0904 F   0  0  0  0  0  0  0  0  0  0  0  0
   -2.4104    1.2586    1.0923 F   0  0  0  0  0  0  0  0  0  0  0  0
   -3.5363   -0.2564   -0.0022 F   0  0  0  0  0  0  0  0  0  0  0  0
    0.0000    0.3371   -0.0001 O   0  0  0  0  0  0  0  0  0  0  0  0
    1.1932   -0.4355    0.0001 C   0  0  0  0  0  0  0  0  0  0  0  0
   -1.1931   -0.4354    0.0000 C   0  0  0  0  0  0  0  0  0  0  0  0
    2.3955    0.4659    0.0000 C   0  0  0  0  0  0  0  0  0  0  0  0
   -2.3956    0.4658   -0.0001 C   0  0  0  0  0  0  0  0  0  0  0  0
  1 12  1  0  0  0  0
  2 12  1  0  0  0  0
  3 13  1  0  0  0  0
  4 13  1  0  0  0  0
  5 14  1  0  0  0  0
  6 14  1  0  0  0  0
  7 14  1  0  0  0  0
  8 15  1  0  0  0  0
  9 15  1  0  0  0  0
 10 15  1  0  0  0  0
 11 12  1  0  0  0  0
 11 13  1  0  0  0  0
 12 14  1  0  0  0  0
 13 15  1  0  0  0  0
M  END
> <PUBCHEM_COMPOUND_CID>
9658

> <PUBCHEM_CONFORMER_RMSD>
0.6

> <PUBCHEM_CONFORMER_DIVERSEORDER>
1
2
3

> <PUBCHEM_MMFF94_PARTIAL_CHARGES>
15
1 -0.34
10 -0.34
11 -0.56
12 0.96
13 0.96
14 1.02
15 1.02
2 -0.34
3 -0.34
4 -0.34
5 -0.34
6 -0.34
7 -0.34
8 -0.34
9 -0.34

> <PUBCHEM_EFFECTIVE_ROTOR_COUNT>
4

> <PUBCHEM_PHARMACOPHORE_FEATURES>
1
1 11 acceptor

> <PUBCHEM_HEAVY_ATOM_COUNT>
15

> <PUBCHEM_ATOM_DEF_STEREO_COUNT>
0

> <PUBCHEM_ATOM_UDEF_STEREO_COUNT>
0

> <PUBCHEM_BOND_DEF_STEREO_COUNT>
0

> <PUBCHEM_BOND_UDEF_STEREO_COUNT>
0

> <PUBCHEM_ISOTOPIC_ATOM_COUNT>
0

> <PUBCHEM_COMPONENT_COUNT>
1

> <PUBCHEM_CACTVS_TAUTO_COUNT>
1

> <PUBCHEM_CONFORMER_ID>
000025BA00000001

> <PUBCHEM_MMFF94_ENERGY>
1.0338

> <PUBCHEM_FEATURE_SELFOVERLAP>
5.074

> <PUBCHEM_SHAPE_FINGERPRINT>
10219947 1 15554447405427780322
10857977 72 14908169855151521921
11031198 65 18113888373198508950
12897270 3 17749109967435161853
12932764 1 18410863161004581990
14128692 85 9223224161294363458
14390081 3 18259705588136640305
15775835 57 18410856563934997217
16945 1 17749383763105312274
20645464 45 18272082824985172555
20653085 51 17096072684497000321
21028194 46 18410576184180039925
230 275 18272374191271507380
23402539 116 17822303391645111805
305870 269 17631179756228212323
3248919 1 18410569591399939815
369184 2 17704076179059431683
5084963 1 18342176665322486944
8030462 33 17023475260309213485

> <PUBCHEM_SHAPE_MULTIPOLES>
230.09
4.93
1.32
1.07
0
0.03
0
1.25
0
0
0
0
0
0

> <PUBCHEM_SHAPE_SELFOVERLAP>
477.54

> <PUBCHEM_SHAPE_VOLUME>
131.1

> <PUBCHEM_COORDINATE_TYPE>
2
5
10

$$$$

