440063
  -OEChem-07051212483D

 51 53  0     1  0  0  0  0  0999 V2000
    3.7683   -0.7153    0.8223 P   0  0  2  0  0  0  0  0  0  0  0  0
    1.4274   -2.4334    1.2896 P   0  0  2  0  0  0  0  0  0  0  0  0
   -0.4360   -2.4721   -0.9978 P   0  0  2  0  0  0  0  0  0  0  0  0
    0.1068   -0.5680   -3.1727 P   0  0  0  0  0  0  0  0  0  0  0  0
    0.9554    1.4389   -0.4547 O   0  0  0  0  0  0  0  0  0  0  0  0
   -0.7439    4.3872    0.7030 O   0  0  0  0  0  0  0  0  0  0  0  0
    1.1925    4.3852   -1.2036 O   0  0  0  0  0  0  0  0  0  0  0  0
    3.8234    0.7882    0.2267 O   0  0  0  0  0  0  0  0  0  0  0  0
    2.2067   -1.1274    0.7430 O   0  0  0  0  0  0  0  0  0  0  0  0
    4.0231   -0.5302    2.4091 O   0  0  0  0  0  0  0  0  0  0  0  0
    4.6943   -1.6907    0.1555 O   0  0  0  0  0  0  0  0  0  0  0  0
   -4.4648   -1.4042    2.2135 O   0  0  0  0  0  0  0  0  0  0  0  0
   -0.0064   -2.3507    0.5537 O   0  0  0  0  0  0  0  0  0  0  0  0
    1.0938   -2.0418    2.8222 O   0  0  0  0  0  0  0  0  0  0  0  0
    2.1698   -3.7250    1.1127 O   0  0  0  0  0  0  0  0  0  0  0  0
    0.2251   -1.1660   -1.6781 O   0  0  0  0  0  0  0  0  0  0  0  0
   -2.0164   -2.1309   -0.9758 O   0  0  0  0  0  0  0  0  0  0  0  0
   -0.0817   -3.7798   -1.6420 O   0  0  0  0  0  0  0  0  0  0  0  0
    0.8234   -1.6954   -4.0840 O   0  0  0  0  0  0  0  0  0  0  0  0
    1.1744    0.6454   -3.1762 O   0  0  0  0  0  0  0  0  0  0  0  0
   -1.2819   -0.2000   -3.6044 O   0  0  0  0  0  0  0  0  0  0  0  0
   -1.1093    1.2266    0.6951 N   0  0  0  0  0  0  0  0  0  0  0  0
   -1.8003   -0.1411    2.3363 N   0  0  0  0  0  0  0  0  0  0  0  0
   -3.1030    1.0890   -0.6949 N   0  0  0  0  0  0  0  0  0  0  0  0
   -4.8355   -0.3319    0.1897 N   0  0  0  0  0  0  0  0  0  0  0  0
    0.2145    3.3494    0.7327 C   0  0  2  0  0  0  0  0  0  0  0  0
    1.5006    3.7082    0.0148 C   0  0  1  0  0  0  0  0  0  0  0  0
   -0.2429    2.1320   -0.0562 C   0  0  1  0  0  0  0  0  0  0  0  0
    2.0809    2.3371   -0.3175 C   0  0  1  0  0  0  0  0  0  0  0  0
    2.9944    1.7986    0.7747 C   0  0  0  0  0  0  0  0  0  0  0  0
   -2.3529    0.8020    0.3734 C   0  0  0  0  0  0  0  0  0  0  0  0
   -0.8155    0.6258    1.8991 C   0  0  0  0  0  0  0  0  0  0  0  0
   -2.7663   -0.0294    1.3764 C   0  0  0  0  0  0  0  0  0  0  0  0
   -4.0769   -0.6561    1.3244 C   0  0  0  0  0  0  0  0  0  0  0  0
   -4.3411    0.4761   -0.7101 C   0  0  0  0  0  0  0  0  0  0  0  0
    0.4307    3.1015    1.7780 H   0  0  0  0  0  0  0  0  0  0  0  0
    2.1572    4.3585    0.5997 H   0  0  0  0  0  0  0  0  0  0  0  0
   -0.7786    2.4253   -0.9659 H   0  0  0  0  0  0  0  0  0  0  0  0
    2.6042    2.3414   -1.2804 H   0  0  0  0  0  0  0  0  0  0  0  0
    3.6635    2.5839    1.1397 H   0  0  0  0  0  0  0  0  0  0  0  0
    2.4235    1.4117    1.6246 H   0  0  0  0  0  0  0  0  0  0  0  0
   -0.3387    5.1696    1.1140 H   0  0  0  0  0  0  0  0  0  0  0  0
    2.0340    4.5608   -1.6585 H   0  0  0  0  0  0  0  0  0  0  0  0
    0.1272    0.7774    2.4065 H   0  0  0  0  0  0  0  0  0  0  0  0
   -2.8126    1.7018   -1.4493 H   0  0  0  0  0  0  0  0  0  0  0  0
   -4.9297    0.7349   -1.6045 H   0  0  0  0  0  0  0  0  0  0  0  0
    4.1598   -1.3278    2.9634 H   0  0  0  0  0  0  0  0  0  0  0  0
    1.8083   -2.0950    3.4920 H   0  0  0  0  0  0  0  0  0  0  0  0
   -2.6476   -2.8211   -0.6804 H   0  0  0  0  0  0  0  0  0  0  0  0
    0.8053   -1.5988   -5.0599 H   0  0  0  0  0  0  0  0  0  0  0  0
    1.2290    1.2286   -3.9630 H   0  0  0  0  0  0  0  0  0  0  0  0
  1  8  1  0  0  0  0
  1  9  1  0  0  0  0
  1 10  1  0  0  0  0
  1 11  2  0  0  0  0
  2  9  1  0  0  0  0
  2 13  1  0  0  0  0
  2 14  1  0  0  0  0
  2 15  2  0  0  0  0
  3 13  1  0  0  0  0
  3 16  1  0  0  0  0
  3 17  1  0  0  0  0
  3 18  2  0  0  0  0
  4 16  1  0  0  0  0
  4 19  1  0  0  0  0
  4 20  1  0  0  0  0
  4 21  2  0  0  0  0
  5 28  1  0  0  0  0
  5 29  1  0  0  0  0
  6 26  1  0  0  0  0
  6 42  1  0  0  0  0
  7 27  1  0  0  0  0
  7 43  1  0  0  0  0
  8 30  1  0  0  0  0
 10 47  1  0  0  0  0
 12 34  2  0  0  0  0
 14 48  1  0  0  0  0
 17 49  1  0  0  0  0
 19 50  1  0  0  0  0
 20 51  1  0  0  0  0
 22 28  1  0  0  0  0
 22 31  1  0  0  0  0
 22 32  1  0  0  0  0
 23 32  2  0  0  0  0
 23 33  1  0  0  0  0
 24 31  1  0  0  0  0
 24 35  1  0  0  0  0
 24 45  1  0  0  0  0
 25 34  1  0  0  0  0
 25 35  2  0  0  0  0
 26 27  1  0  0  0  0
 26 28  1  0  0  0  0
 26 36  1  0  0  0  0
 27 29  1  0  0  0  0
 27 37  1  0  0  0  0
 28 38  1  0  0  0  0
 29 30  1  0  0  0  0
 29 39  1  0  0  0  0
 30 40  1  0  0  0  0
 30 41  1  0  0  0  0
 31 33  2  0  0  0  0
 32 44  1  0  0  0  0
 33 34  1  0  0  0  0
 35 46  1  0  0  0  0
M  END
> <PUBCHEM_COMPOUND_CID>
440063

> <PUBCHEM_CONFORMER_RMSD>
1.4

> <PUBCHEM_CONFORMER_DIVERSEORDER>
1
110
102
112
20
76
125
160
127
10
158
122
4
129
27
144
42
82
165
95
187
40
132
21
169
191
138
103
78
166
81
168
167
150
7
174
28
152
130
71
170
37
63
157
51
121
87
84
66
77
8
35
163
30
148
113
179
56
177
155
94
59
65
55
133
126
19
105
139
26
96
99
156
16
115
109
183
97
41
178
136
106
119
175
128
47
83
88
68
98
114
123
33
13
171
100
39
186
189
146
117
89
135
64
61
62
50
181
120
159
69
137
161
188
43
60
124
38
93
172
142
176
184
107
49
153
52
85
6
90
70
72
162
17
91
92
131
173
108
54
74
79
12
80
29
182
116
149
73
14
145
134
5
15
75
140
143
46
31
101
18
3
44
185
45
151
118
164
141
34
58
86
57
48
36
190
24
2
147
154
67
23
22
104
180
11
25
9
53
111
32

> <PUBCHEM_MMFF94_PARTIAL_CHARGES>
45
1 1.51
10 -0.77
11 -0.7
12 -0.57
13 -0.54
14 -0.77
15 -0.7
16 -0.54
17 -0.77
18 -0.7
19 -0.77
2 1.51
20 -0.77
21 -0.7
22 0.05
23 -0.57
24 -0.53
25 -0.66
26 0.28
27 0.28
28 0.54
29 0.28
3 1.51
30 0.28
31 -0.07
32 0.04
33 0.14
34 0.87
35 0.44
4 1.51
42 0.4
43 0.4
44 0.15
45 0.4
46 0.06
47 0.5
48 0.5
49 0.5
5 -0.56
50 0.5
51 0.5
6 -0.68
7 -0.68
8 -0.55
9 -0.54

> <PUBCHEM_EFFECTIVE_ROTOR_COUNT>
11

> <PUBCHEM_PHARMACOPHORE_FEATURES>
22
1 10 acceptor
1 11 acceptor
1 12 acceptor
1 14 acceptor
1 15 acceptor
1 17 acceptor
1 18 acceptor
1 19 acceptor
1 20 acceptor
1 21 acceptor
1 24 donor
1 25 donor
1 5 acceptor
1 6 acceptor
1 6 donor
1 7 acceptor
1 7 donor
3 22 23 32 cation
4 4 19 20 21 anion
5 22 23 31 32 33 rings
5 5 26 27 28 29 rings
6 24 25 31 33 34 35 rings

> <PUBCHEM_HEAVY_ATOM_COUNT>
35

> <PUBCHEM_ATOM_DEF_STEREO_COUNT>
4

> <PUBCHEM_ATOM_UDEF_STEREO_COUNT>
0

> <PUBCHEM_BOND_DEF_STEREO_COUNT>
0

> <PUBCHEM_BOND_UDEF_STEREO_COUNT>
0

> <PUBCHEM_ISOTOPIC_ATOM_COUNT>
0

> <PUBCHEM_COMPONENT_COUNT>
1

> <PUBCHEM_CACTVS_TAUTO_COUNT>
3

> <PUBCHEM_CONFORMER_ID>
0006B6FF00000001

> <PUBCHEM_MMFF94_ENERGY>
-19.8002

> <PUBCHEM_FEATURE_SELFOVERLAP>
111.877

> <PUBCHEM_SHAPE_FINGERPRINT>
11578080 2 16770141304374519310
12156800 1 17760618740907020886
131258 38 17700692853138391402
13583140 156 18056193566879841689
14747281 78 18129922547721291101
20764821 26 15599780974210236536
20905425 154 18051128395951754128
22121540 332 16625780878567983581
229495 10 17558577882470702838
23419403 2 17628943371247175623
23559900 14 17060048195641451091
35225 105 17407647663632751526
469060 322 17830500293611290014
6287921 2 16662029521529249015
6669772 16 18050830148996182412

> <PUBCHEM_SHAPE_MULTIPOLES>
615.98
6.59
4.74
3.22
2.64
2.53
3.09
-1.29
-3.52
-2.79
0.25
0.07
-2.03
-0.67

> <PUBCHEM_SHAPE_SELFOVERLAP>
1244.153

> <PUBCHEM_SHAPE_VOLUME>
362.6

> <PUBCHEM_COORDINATE_TYPE>
2
5
10

$$$$

