192802
  -OEChem-07051213152D

 14 13  0     0  0  0  0  0  0999 V2000
    5.1350   -1.0600    0.0000 O   0  0  0  0  0  0  0  0  0  0  0  0
    2.5369    0.4400    0.0000 N   0  0  0  0  0  0  0  0  0  0  0  0
    6.0010    0.4400    0.0000 N   0  0  0  0  0  0  0  0  0  0  0  0
    4.2690    0.4400    0.0000 C   0  0  0  0  0  0  0  0  0  0  0  0
    3.4030   -0.0600    0.0000 C   0  0  0  0  0  0  0  0  0  0  0  0
    5.1350   -0.0600    0.0000 C   0  0  0  0  0  0  0  0  0  0  0  0
    4.6675    0.9149    0.0000 H   0  0  0  0  0  0  0  0  0  0  0  0
    3.8705    0.9149    0.0000 H   0  0  0  0  0  0  0  0  0  0  0  0
    3.0044   -0.5349    0.0000 H   0  0  0  0  0  0  0  0  0  0  0  0
    3.8015   -0.5349    0.0000 H   0  0  0  0  0  0  0  0  0  0  0  0
    2.0000    0.1300    0.0000 H   0  0  0  0  0  0  0  0  0  0  0  0
    2.5369    1.0600    0.0000 H   0  0  0  0  0  0  0  0  0  0  0  0
    6.5380    0.1300    0.0000 H   0  0  0  0  0  0  0  0  0  0  0  0
    6.0010    1.0600    0.0000 H   0  0  0  0  0  0  0  0  0  0  0  0
  1  6  2  0  0  0  0
  2  5  1  0  0  0  0
  2 11  1  0  0  0  0
  2 12  1  0  0  0  0
  3  6  1  0  0  0  0
  3 13  1  0  0  0  0
  3 14  1  0  0  0  0
  4  5  1  0  0  0  0
  4  6  1  0  0  0  0
  4  7  1  0  0  0  0
  4  8  1  0  0  0  0
  5  9  1  0  0  0  0
  5 10  1  0  0  0  0
M  END
> <PUBCHEM_COMPOUND_CID>
192802

> <PUBCHEM_COMPOUND_CANONICALIZED>
1

> <PUBCHEM_CACTVS_COMPLEXITY>
52.8

> <PUBCHEM_CACTVS_HBOND_ACCEPTOR>
2

> <PUBCHEM_CACTVS_HBOND_DONOR>
2

> <PUBCHEM_CACTVS_ROTATABLE_BOND>
2

> <PUBCHEM_CACTVS_SUBSKEYS>
AAADccBDIAAAAAAAAAAAAAAAAAAAAAAAAAAAAAAAAAAAAAAAAAAAHgAQAAAACADBgAQAAABAAAAIAAEQEAAAAAAAAAAAAIEAAAAAAAgAQAAAAAAAEAAAAAAAAAAAAAAAAAAAAAAAAAAAAAAAAAAAAAAAAA==

> <PUBCHEM_IUPAC_OPENEYE_NAME>
3-aminopropanamide

> <PUBCHEM_IUPAC_CAS_NAME>
3-aminopropanamide

> <PUBCHEM_IUPAC_NAME>
3-aminopropanamide

> <PUBCHEM_IUPAC_SYSTEMATIC_NAME>
3-azanylpropanamide

> <PUBCHEM_IUPAC_TRADITIONAL_NAME>
3-aminopropionamide

> <PUBCHEM_IUPAC_INCHI>
InChI=1S/C3H8N2O/c4-2-1-3(5)6/h1-2,4H2,(H2,5,6)

> <PUBCHEM_IUPAC_INCHIKEY>
RSDOASZYYCOXIB-UHFFFAOYSA-N

> <PUBCHEM_XLOGP3_AA>
-1.9

> <PUBCHEM_EXACT_MASS>
88.063663

> <PUBCHEM_MOLECULAR_FORMULA>
C3H8N2O

> <PUBCHEM_MOLECULAR_WEIGHT>
88.10842

> <PUBCHEM_OPENEYE_CAN_SMILES>
C(CN)C(=O)N

> <PUBCHEM_OPENEYE_ISO_SMILES>
C(CN)C(=O)N

> <PUBCHEM_CACTVS_TPSA>
69.1

> <PUBCHEM_MONOISOTOPIC_WEIGHT>
88.063663

> <PUBCHEM_TOTAL_CHARGE>
0

> <PUBCHEM_HEAVY_ATOM_COUNT>
6

> <PUBCHEM_ATOM_DEF_STEREO_COUNT>
0

> <PUBCHEM_ATOM_UDEF_STEREO_COUNT>
0

> <PUBCHEM_BOND_DEF_STEREO_COUNT>
0

> <PUBCHEM_BOND_UDEF_STEREO_COUNT>
0

> <PUBCHEM_ISOTOPIC_ATOM_COUNT>
0

> <PUBCHEM_COMPONENT_COUNT>
1

> <PUBCHEM_CACTVS_TAUTO_COUNT>
3

> <PUBCHEM_COORDINATE_TYPE>
1
5
255

$$$$

