5282092
  -OEChem-07051213023D

 65 66  0     1  0  0  0  0  0999 V2000
    2.4452   -0.6515    2.0737 O   0  0  0  0  0  0  0  0  0  0  0  0
    0.0871   -5.8348   -0.1086 O   0  0  0  0  0  0  0  0  0  0  0  0
    3.5993    3.9656   -0.1991 O   0  0  0  0  0  0  0  0  0  0  0  0
    3.4936    2.1531    1.7845 O   0  0  0  0  0  0  0  0  0  0  0  0
   -1.2157   -2.0311   -1.3694 O   0  0  0  0  0  0  0  0  0  0  0  0
   -6.0250    1.1548    1.9327 O   0  0  0  0  0  0  0  0  0  0  0  0
   -2.7072   -1.9659    0.4416 N   0  0  0  0  0  0  0  0  0  0  0  0
    2.9582   -2.1166    0.2050 C   0  0  2  0  0  0  0  0  0  0  0  0
    2.7152   -0.6552    0.6697 C   0  0  2  0  0  0  0  0  0  0  0  0
    3.9226    0.2502    0.3908 C   0  0  0  0  0  0  0  0  0  0  0  0
    1.6612   -2.9064    0.2221 C   0  0  0  0  0  0  0  0  0  0  0  0
    1.2391   -3.8102   -0.6875 C   0  0  0  0  0  0  0  0  0  0  0  0
    4.0022   -2.8486    1.0543 C   0  0  0  0  0  0  0  0  0  0  0  0
   -0.1156   -4.5103   -0.6070 C   0  0  2  0  0  0  0  0  0  0  0  0
    3.6002    1.7171    0.6365 C   0  0  0  0  0  0  0  0  0  0  0  0
   -1.2322   -3.8472    0.2130 C   0  0  0  0  0  0  0  0  0  0  0  0
    3.3976    2.6144   -0.5798 C   0  0  1  0  0  0  0  0  0  0  0  0
    2.0649   -4.2431   -1.8738 C   0  0  0  0  0  0  0  0  0  0  0  0
   -1.6980   -2.5105   -0.3482 C   0  0  0  0  0  0  0  0  0  0  0  0
    2.0205    2.3611   -1.1188 C   0  0  0  0  0  0  0  0  0  0  0  0
   -2.8573    2.6342   -1.5267 C   0  0  0  0  0  0  0  0  0  0  0  0
   -3.4347    1.5685   -0.6211 C   0  0  0  0  0  0  0  0  0  0  0  0
   -3.2964   -0.6855    0.3095 C   0  0  0  0  0  0  0  0  0  0  0  0
   -1.5791    3.2313   -0.9612 C   0  0  0  0  0  0  0  0  0  0  0  0
   -2.8428    0.2929   -0.5804 C   0  0  0  0  0  0  0  0  0  0  0  0
    0.9201    3.0755   -0.8299 C   0  0  0  0  0  0  0  0  0  0  0  0
   -0.3888    2.7151   -1.3291 C   0  0  0  0  0  0  0  0  0  0  0  0
   -4.5110    1.8493    0.2259 C   0  0  0  0  0  0  0  0  0  0  0  0
   -4.3709   -0.3804    1.1543 C   0  0  0  0  0  0  0  0  0  0  0  0
   -4.9793    0.8756    1.1063 C   0  0  0  0  0  0  0  0  0  0  0  0
   -1.7840    4.3607    0.0129 C   0  0  0  0  0  0  0  0  0  0  0  0
    4.9111    4.1778    0.3078 C   0  0  0  0  0  0  0  0  0  0  0  0
    3.3285   -2.0592   -0.8249 H   0  0  0  0  0  0  0  0  0  0  0  0
    1.8256   -0.2578    0.1665 H   0  0  0  0  0  0  0  0  0  0  0  0
    4.2670    0.1344   -0.6424 H   0  0  0  0  0  0  0  0  0  0  0  0
    4.7654    0.0046    1.0472 H   0  0  0  0  0  0  0  0  0  0  0  0
    1.0217   -2.6958    1.0759 H   0  0  0  0  0  0  0  0  0  0  0  0
    3.6890   -2.9396    2.1002 H   0  0  0  0  0  0  0  0  0  0  0  0
    4.1733   -3.8619    0.6730 H   0  0  0  0  0  0  0  0  0  0  0  0
    4.9650   -2.3290    1.0325 H   0  0  0  0  0  0  0  0  0  0  0  0
   -0.4889   -4.6159   -1.6349 H   0  0  0  0  0  0  0  0  0  0  0  0
   -0.9343   -3.7252    1.2612 H   0  0  0  0  0  0  0  0  0  0  0  0
   -2.1030   -4.5169    0.2317 H   0  0  0  0  0  0  0  0  0  0  0  0
    4.1331    2.3616   -1.3526 H   0  0  0  0  0  0  0  0  0  0  0  0
    2.1001   -5.3364   -1.9321 H   0  0  0  0  0  0  0  0  0  0  0  0
    3.1021   -3.9032   -1.8332 H   0  0  0  0  0  0  0  0  0  0  0  0
    1.6192   -3.8637   -2.7991 H   0  0  0  0  0  0  0  0  0  0  0  0
    2.2086    0.2567    2.3272 H   0  0  0  0  0  0  0  0  0  0  0  0
    1.9309    1.4927   -1.7702 H   0  0  0  0  0  0  0  0  0  0  0  0
   -0.7556   -6.3131   -0.1905 H   0  0  0  0  0  0  0  0  0  0  0  0
   -3.0786   -2.5445    1.1920 H   0  0  0  0  0  0  0  0  0  0  0  0
   -2.6772    2.1926   -2.5163 H   0  0  0  0  0  0  0  0  0  0  0  0
   -3.5949    3.4271   -1.7052 H   0  0  0  0  0  0  0  0  0  0  0  0
   -2.0005    0.1101   -1.2377 H   0  0  0  0  0  0  0  0  0  0  0  0
    1.0029    3.9220   -0.1579 H   0  0  0  0  0  0  0  0  0  0  0  0
   -0.3930    1.8912   -2.0425 H   0  0  0  0  0  0  0  0  0  0  0  0
   -4.9765    2.8317    0.2117 H   0  0  0  0  0  0  0  0  0  0  0  0
   -4.7369   -1.1266    1.8571 H   0  0  0  0  0  0  0  0  0  0  0  0
   -0.8540    4.8214    0.3521 H   0  0  0  0  0  0  0  0  0  0  0  0
   -2.3170    4.0059    0.9008 H   0  0  0  0  0  0  0  0  0  0  0  0
   -2.3799    5.1530   -0.4526 H   0  0  0  0  0  0  0  0  0  0  0  0
    5.1147    5.2515    0.2477 H   0  0  0  0  0  0  0  0  0  0  0  0
    5.6695    3.6621   -0.2906 H   0  0  0  0  0  0  0  0  0  0  0  0
    4.9973    3.9000    1.3604 H   0  0  0  0  0  0  0  0  0  0  0  0
   -6.2165    0.3713    2.4761 H   0  0  0  0  0  0  0  0  0  0  0  0
  1  9  1  0  0  0  0
  1 48  1  0  0  0  0
  2 14  1  0  0  0  0
  2 50  1  0  0  0  0
  3 17  1  0  0  0  0
  3 32  1  0  0  0  0
  4 15  2  0  0  0  0
  5 19  2  0  0  0  0
  6 30  1  0  0  0  0
  6 65  1  0  0  0  0
  7 19  1  0  0  0  0
  7 23  1  0  0  0  0
  7 51  1  0  0  0  0
  8  9  1  0  0  0  0
  8 11  1  0  0  0  0
  8 13  1  0  0  0  0
  8 33  1  0  0  0  0
  9 10  1  0  0  0  0
  9 34  1  0  0  0  0
 10 15  1  0  0  0  0
 10 35  1  0  0  0  0
 10 36  1  0  0  0  0
 11 12  2  0  0  0  0
 11 37  1  0  0  0  0
 12 14  1  0  0  0  0
 12 18  1  0  0  0  0
 13 38  1  0  0  0  0
 13 39  1  0  0  0  0
 13 40  1  0  0  0  0
 14 16  1  0  0  0  0
 14 41  1  0  0  0  0
 15 17  1  0  0  0  0
 16 19  1  0  0  0  0
 16 42  1  0  0  0  0
 16 43  1  0  0  0  0
 17 20  1  0  0  0  0
 17 44  1  0  0  0  0
 18 45  1  0  0  0  0
 18 46  1  0  0  0  0
 18 47  1  0  0  0  0
 20 26  2  0  0  0  0
 20 49  1  0  0  0  0
 21 22  1  0  0  0  0
 21 24  1  0  0  0  0
 21 52  1  0  0  0  0
 21 53  1  0  0  0  0
 22 25  2  0  0  0  0
 22 28  1  0  0  0  0
 23 25  1  0  0  0  0
 23 29  2  0  0  0  0
 24 27  2  0  0  0  0
 24 31  1  0  0  0  0
 25 54  1  0  0  0  0
 26 27  1  0  0  0  0
 26 55  1  0  0  0  0
 27 56  1  0  0  0  0
 28 30  2  0  0  0  0
 28 57  1  0  0  0  0
 29 30  1  0  0  0  0
 29 58  1  0  0  0  0
 31 59  1  0  0  0  0
 31 60  1  0  0  0  0
 31 61  1  0  0  0  0
 32 62  1  0  0  0  0
 32 63  1  0  0  0  0
 32 64  1  0  0  0  0
M  END
> <PUBCHEM_COMPOUND_CID>
5282092

> <PUBCHEM_CONFORMER_RMSD>
0.8

> <PUBCHEM_CONFORMER_DIVERSEORDER>
1

> <PUBCHEM_MMFF94_PARTIAL_CHARGES>
42
1 -0.68
10 0.06
11 -0.29
12 -0.28
14 0.42
15 0.45
16 0.06
17 0.48
18 0.14
19 0.57
2 -0.68
20 -0.29
21 0.28
22 -0.14
23 0.12
24 -0.28
25 -0.15
26 -0.15
27 -0.15
28 -0.15
29 -0.15
3 -0.56
30 0.08
31 0.14
32 0.28
37 0.15
4 -0.57
48 0.4
49 0.15
5 -0.57
50 0.4
51 0.37
54 0.15
55 0.15
56 0.15
57 0.15
58 0.15
6 -0.53
65 0.45
7 -0.55
8 0.14
9 0.28

> <PUBCHEM_EFFECTIVE_ROTOR_COUNT>
2.6

> <PUBCHEM_PHARMACOPHORE_FEATURES>
10
1 1 acceptor
1 1 donor
1 2 acceptor
1 2 donor
1 3 acceptor
1 4 acceptor
1 5 acceptor
1 6 donor
1 7 donor
6 22 23 25 28 29 30 rings

> <PUBCHEM_HEAVY_ATOM_COUNT>
32

> <PUBCHEM_ATOM_DEF_STEREO_COUNT>
4

> <PUBCHEM_ATOM_UDEF_STEREO_COUNT>
0

> <PUBCHEM_BOND_DEF_STEREO_COUNT>
3

> <PUBCHEM_BOND_UDEF_STEREO_COUNT>
0

> <PUBCHEM_ISOTOPIC_ATOM_COUNT>
0

> <PUBCHEM_COMPONENT_COUNT>
1

> <PUBCHEM_CACTVS_TAUTO_COUNT>
130

> <PUBCHEM_CONFORMER_ID>
0050992C00000001

> <PUBCHEM_MMFF94_ENERGY>
74.5723

> <PUBCHEM_FEATURE_SELFOVERLAP>
50.752

> <PUBCHEM_SHAPE_FINGERPRINT>
10290309 65 18412544292888711181
10653451 467 17973466548894360954
11014199 57 17185874991626196436
11513181 2 18116708513735512094
12100795 323 18411991251349974871
12156800 1 13465282798909962838
12422481 6 18124909895737130344
12788726 201 16971377852316651724
12925494 130 17689718984301181881
12978246 48 18124881161577575289
13122387 1 16609992075553740510
13402501 40 17834686271690482318
1361 2 18411137992395113491
14026016 164 17405431005563241984
14363568 33 18193824049696152054
14395042 24 17764033467768350675
14725015 67 17914897767304499257
14747282 125 18264188267548460302
150020 26 18121507013837394256
151778 21 18408884053012254443
15264996 163 17404872444923836423
15264996 44 18189884503976712807
15297060 5 18042672932380341000
15320467 1 17979356361109139868
15351339 4 16467849862183340066
16120349 306 18264482893514317025
19311894 1 18050566245057467708
20764821 26 18339939180661245150
21133410 38 18260545594347355999
23536364 44 17035553601546880854
238918 7 17831892361579871994
3493558 16 16597302560956768137
463206 1 15745842302093579725
5047190 48 18339923701699615948
5081480 168 17099172349420464550
5776283 40 18266152034223055230
581034 39 18120955922826916656
6287921 2 18336827610278762697
653340 110 17688315582003687096

> <PUBCHEM_SHAPE_MULTIPOLES>
618.35
9.87
8.39
1.5
6.99
3.1
0.14
-5.1
4.48
-7.5
-2.26
0.19
0
1.39

> <PUBCHEM_SHAPE_SELFOVERLAP>
1269.37

> <PUBCHEM_SHAPE_VOLUME>
353.5

> <PUBCHEM_COORDINATE_TYPE>
2
5
10

$$$$

