5318
  -OEChem-07051212543D

 39 41  0     1  0  0  0  0  0999 V2000
   -1.4231   -0.1715    2.5837 Cl  0  0  0  0  0  0  0  0  0  0  0  0
   -2.2210   -4.8512    0.0472 Cl  0  0  0  0  0  0  0  0  0  0  0  0
    7.6111    0.3473   -0.3506 Cl  0  0  0  0  0  0  0  0  0  0  0  0
    0.7799    1.2333   -0.8367 S   0  0  0  0  0  0  0  0  0  0  0  0
   -3.2515    1.7970   -0.5677 N   0  0  0  0  0  0  0  0  0  0  0  0
   -5.0215    2.4180    0.5823 N   0  0  0  0  0  0  0  0  0  0  0  0
   -0.9021    1.0010   -0.2189 C   0  0  1  0  0  0  0  0  0  0  0  0
   -1.8834    1.8074   -1.0903 C   0  0  0  0  0  0  0  0  0  0  0  0
   -1.2377   -0.4746   -0.1187 C   0  0  0  0  0  0  0  0  0  0  0  0
    1.6670    0.3509    0.4833 C   0  0  0  0  0  0  0  0  0  0  0  0
   -1.4827   -1.0653    1.1083 C   0  0  0  0  0  0  0  0  0  0  0  0
   -1.2887   -1.2009   -1.2962 C   0  0  0  0  0  0  0  0  0  0  0  0
    3.1442    0.3496    0.2769 C   0  0  0  0  0  0  0  0  0  0  0  0
   -4.2052    0.8877   -0.8771 C   0  0  0  0  0  0  0  0  0  0  0  0
   -3.7671    2.6961    0.3039 C   0  0  0  0  0  0  0  0  0  0  0  0
   -1.7883   -2.4254    1.1603 C   0  0  0  0  0  0  0  0  0  0  0  0
   -1.5943   -2.5608   -1.2441 C   0  0  0  0  0  0  0  0  0  0  0  0
   -1.8440   -3.1732   -0.0159 C   0  0  0  0  0  0  0  0  0  0  0  0
   -5.3005    1.2915   -0.1503 C   0  0  0  0  0  0  0  0  0  0  0  0
    3.9235    1.3771    0.8081 C   0  0  0  0  0  0  0  0  0  0  0  0
    3.7461   -0.6788   -0.4483 C   0  0  0  0  0  0  0  0  0  0  0  0
    5.3049    1.3764    0.6142 C   0  0  0  0  0  0  0  0  0  0  0  0
    5.1275   -0.6797   -0.6423 C   0  0  0  0  0  0  0  0  0  0  0  0
    5.9070    0.3480   -0.1109 C   0  0  0  0  0  0  0  0  0  0  0  0
   -0.9114    1.4900    0.7581 H   0  0  0  0  0  0  0  0  0  0  0  0
   -1.9396    1.4391   -2.1222 H   0  0  0  0  0  0  0  0  0  0  0  0
   -1.5870    2.8635   -1.1416 H   0  0  0  0  0  0  0  0  0  0  0  0
    1.4308    0.8174    1.4465 H   0  0  0  0  0  0  0  0  0  0  0  0
    1.3309   -0.6889    0.5418 H   0  0  0  0  0  0  0  0  0  0  0  0
   -1.0984   -0.7487   -2.2649 H   0  0  0  0  0  0  0  0  0  0  0  0
   -4.0516    0.0660   -1.5621 H   0  0  0  0  0  0  0  0  0  0  0  0
   -3.2017    3.5254    0.7068 H   0  0  0  0  0  0  0  0  0  0  0  0
   -1.9836   -2.9045    2.1174 H   0  0  0  0  0  0  0  0  0  0  0  0
   -1.6343   -3.1312   -2.1686 H   0  0  0  0  0  0  0  0  0  0  0  0
   -6.2765    0.8295   -0.1195 H   0  0  0  0  0  0  0  0  0  0  0  0
    3.4671    2.1850    1.3740 H   0  0  0  0  0  0  0  0  0  0  0  0
    3.1504   -1.4847   -0.8688 H   0  0  0  0  0  0  0  0  0  0  0  0
    5.8996    2.1838    1.0335 H   0  0  0  0  0  0  0  0  0  0  0  0
    5.5828   -1.4872   -1.2098 H   0  0  0  0  0  0  0  0  0  0  0  0
  1 11  1  0  0  0  0
  2 18  1  0  0  0  0
  3 24  1  0  0  0  0
  4  7  1  0  0  0  0
  4 10  1  0  0  0  0
  5  8  1  0  0  0  0
  5 14  1  0  0  0  0
  5 15  1  0  0  0  0
  6 15  2  0  0  0  0
  6 19  1  0  0  0  0
  7  8  1  0  0  0  0
  7  9  1  0  0  0  0
  7 25  1  0  0  0  0
  8 26  1  0  0  0  0
  8 27  1  0  0  0  0
  9 11  2  0  0  0  0
  9 12  1  0  0  0  0
 10 13  1  0  0  0  0
 10 28  1  0  0  0  0
 10 29  1  0  0  0  0
 11 16  1  0  0  0  0
 12 17  2  0  0  0  0
 12 30  1  0  0  0  0
 13 20  2  0  0  0  0
 13 21  1  0  0  0  0
 14 19  2  0  0  0  0
 14 31  1  0  0  0  0
 15 32  1  0  0  0  0
 16 18  2  0  0  0  0
 16 33  1  0  0  0  0
 17 18  1  0  0  0  0
 17 34  1  0  0  0  0
 19 35  1  0  0  0  0
 20 22  1  0  0  0  0
 20 36  1  0  0  0  0
 21 23  2  0  0  0  0
 21 37  1  0  0  0  0
 22 24  2  0  0  0  0
 22 38  1  0  0  0  0
 23 24  1  0  0  0  0
 23 39  1  0  0  0  0
M  END
> <PUBCHEM_COMPOUND_CID>
5318

> <PUBCHEM_CONFORMER_RMSD>
0.8

> <PUBCHEM_CONFORMER_DIVERSEORDER>
1
16
14
35
25
46
51
18
29
33
44
8
37
20
9
56
45
59
38
21
49
36
39
57
3
23
50
34
2
5
13
11
54
17
4
43
40
30
32
24
7
6
27
42
12
28
15
41
26
55
60
47
19
53
31
52
48
10
22
58

> <PUBCHEM_MMFF94_PARTIAL_CHARGES>
34
1 -0.18
10 0.37
11 0.18
12 -0.15
13 -0.14
14 -0.3
15 0.04
16 -0.15
17 -0.15
18 0.18
19 0.08
2 -0.18
20 -0.15
21 -0.15
22 -0.15
23 -0.15
24 0.18
3 -0.18
30 0.15
31 0.15
32 0.15
33 0.15
34 0.15
35 0.15
36 0.15
37 0.15
38 0.15
39 0.15
4 -0.46
5 0.05
6 -0.57
7 0.37
8 0.26
9 -0.14

> <PUBCHEM_EFFECTIVE_ROTOR_COUNT>
6

> <PUBCHEM_PHARMACOPHORE_FEATURES>
4
3 5 6 15 cation
5 5 6 14 15 19 rings
6 13 20 21 22 23 24 rings
6 9 11 12 16 17 18 rings

> <PUBCHEM_HEAVY_ATOM_COUNT>
24

> <PUBCHEM_ATOM_DEF_STEREO_COUNT>
0

> <PUBCHEM_ATOM_UDEF_STEREO_COUNT>
1

> <PUBCHEM_BOND_DEF_STEREO_COUNT>
0

> <PUBCHEM_BOND_UDEF_STEREO_COUNT>
0

> <PUBCHEM_ISOTOPIC_ATOM_COUNT>
0

> <PUBCHEM_COMPONENT_COUNT>
1

> <PUBCHEM_CACTVS_TAUTO_COUNT>
1

> <PUBCHEM_CONFORMER_ID>
000014C600000001

> <PUBCHEM_MMFF94_ENERGY>
52.8206

> <PUBCHEM_FEATURE_SELFOVERLAP>
20.297

> <PUBCHEM_SHAPE_FINGERPRINT>
107951 10 18410575101922829790
11405975 8 18410864239859323952
11578080 2 17752211591174930313
12549972 3 17677911053619162920
12643181 29 18409728500467359662
12788726 201 18196951988927447699
13583140 156 17604998018424335560
14713325 29 18336830797503757727
14790565 3 18194122043270018225
14866123 147 18411984624680381971
15042514 8 18268427932966524599
15064986 266 18263362503928968710
15849732 13 17775283884884821525
15927050 60 18337113457533116351
17980427 23 17417807285098122828
19141452 34 18413671309871373460
20197701 30 18339646749792752053
20681677 155 18412267246507708504
21424621 283 18188485912417707089
22224240 67 18410290355119769825
23198884 109 18260550052006652312
23559900 14 18261399927719703472
23598288 3 18058432223761174599
23728640 28 18341892965864057275
3383291 50 18411702054449834363
4015057 19 17968394346208276784
4073 2 18410296870658452200
5104073 3 18339376167269926968
6669772 16 18264770033331676783

> <PUBCHEM_SHAPE_MULTIPOLES>
493.41
13.5
3.9
1.4
24.82
4.82
-0.64
-6.84
0.84
-7.13
0.13
-0.78
0.19
0.57

> <PUBCHEM_SHAPE_SELFOVERLAP>
1018.762

> <PUBCHEM_SHAPE_VOLUME>
287.3

> <PUBCHEM_COORDINATE_TYPE>
2
5
10

$$$$

