5284519
  -OEChem-07051212522D

 55 58  0     1  0  0  0  0  0999 V2000
    9.2365   -0.6686    0.0000 S   0  0  0  0  0  0  0  0  0  0  0  0
    6.5715   -2.6903    0.0000 O   0  0  0  0  0  0  0  0  0  0  0  0
    8.8764   -3.9808    0.0000 O   0  0  0  0  0  0  0  0  0  0  0  0
   10.5236   -3.4456    0.0000 O   0  0  0  0  0  0  0  0  0  0  0  0
    5.3442   -1.4872    0.0000 O   0  0  0  0  0  0  0  0  0  0  0  0
    3.4881    1.6039    0.0000 O   0  0  0  0  0  0  0  0  0  0  0  0
    6.4872    2.6362    0.0000 O   0  0  0  0  0  0  0  0  0  0  0  0
    8.2854   -1.9776    0.0000 N   0  0  0  0  0  0  0  0  0  0  0  0
    6.5715   -0.2649    0.0000 N   0  0  0  0  0  0  0  0  0  0  0  0
    5.1602    1.1522    0.0000 N   0  0  0  0  0  0  0  0  0  0  0  0
    4.7153    2.8261    0.0000 N   0  0  0  0  0  0  0  0  0  0  0  0
    5.5994    4.1813    0.0000 N   0  0  0  0  0  0  0  0  0  0  0  0
    8.2854   -0.9776    0.0000 C   0  0  1  0  0  0  0  0  0  0  0  0
    9.8242   -1.4776    0.0000 C   0  0  0  0  0  0  0  0  0  0  0  0
    9.2365   -2.2866    0.0000 C   0  0  2  0  0  0  0  0  0  0  0  0
    7.2771   -0.9735    0.0000 C   0  0  1  0  0  0  0  0  0  0  0  0
    7.2771   -1.9818    0.0000 C   0  0  0  0  0  0  0  0  0  0  0  0
   10.6333   -0.8898    0.0000 C   0  0  0  0  0  0  0  0  0  0  0  0
   10.6333   -2.0654    0.0000 C   0  0  0  0  0  0  0  0  0  0  0  0
    9.5455   -3.2377    0.0000 C   0  0  0  0  0  0  0  0  0  0  0  0
    5.6050   -0.5218    0.0000 C   0  0  0  0  0  0  0  0  0  0  0  0
    4.8994    0.1868    0.0000 C   0  0  2  0  0  0  0  0  0  0  0  0
    3.9329   -0.0700    0.0000 C   0  0  0  0  0  0  0  0  0  0  0  0
    4.4545    1.8607    0.0000 C   0  0  0  0  0  0  0  0  0  0  0  0
    3.2273    0.6385    0.0000 C   0  0  0  0  0  0  0  0  0  0  0  0
    3.6721   -1.0354    0.0000 C   0  0  0  0  0  0  0  0  0  0  0  0
    4.0876    3.6046    0.0000 C   0  0  0  0  0  0  0  0  0  0  0  0
    4.6340    4.4421    0.0000 C   0  0  0  0  0  0  0  0  0  0  0  0
    5.6496    3.1826    0.0000 C   0  0  0  0  0  0  0  0  0  0  0  0
    2.2608    0.3817    0.0000 C   0  0  0  0  0  0  0  0  0  0  0  0
    2.7056   -1.2923    0.0000 C   0  0  0  0  0  0  0  0  0  0  0  0
    2.0000   -0.5837    0.0000 C   0  0  0  0  0  0  0  0  0  0  0  0
    8.1542   -0.1378    0.0000 H   0  0  0  0  0  0  0  0  0  0  0  0
    8.7981   -2.7251    0.0000 H   0  0  0  0  0  0  0  0  0  0  0  0
    6.7041   -1.2102    0.0000 H   0  0  0  0  0  0  0  0  0  0  0  0
   10.9977   -1.3914    0.0000 H   0  0  0  0  0  0  0  0  0  0  0  0
   11.1349   -0.5254    0.0000 H   0  0  0  0  0  0  0  0  0  0  0  0
   10.2688   -0.3883    0.0000 H   0  0  0  0  0  0  0  0  0  0  0  0
   10.2688   -2.5670    0.0000 H   0  0  0  0  0  0  0  0  0  0  0  0
   11.1349   -2.4298    0.0000 H   0  0  0  0  0  0  0  0  0  0  0  0
   10.9977   -1.5638    0.0000 H   0  0  0  0  0  0  0  0  0  0  0  0
    6.7332    0.3336    0.0000 H   0  0  0  0  0  0  0  0  0  0  0  0
    4.4619    0.6261    0.0000 H   0  0  0  0  0  0  0  0  0  0  0  0
    9.0679   -4.5705    0.0000 H   0  0  0  0  0  0  0  0  0  0  0  0
    5.7594    1.3114    0.0000 H   0  0  0  0  0  0  0  0  0  0  0  0
    3.3890    1.2371    0.0000 H   0  0  0  0  0  0  0  0  0  0  0  0
    4.1096   -1.4747    0.0000 H   0  0  0  0  0  0  0  0  0  0  0  0
    3.6066    3.9957    0.0000 H   0  0  0  0  0  0  0  0  0  0  0  0
    3.6483    3.1671    0.0000 H   0  0  0  0  0  0  0  0  0  0  0  0
    4.8573    5.0205    0.0000 H   0  0  0  0  0  0  0  0  0  0  0  0
    4.0821    4.7247    0.0000 H   0  0  0  0  0  0  0  0  0  0  0  0
    6.0820    4.5705    0.0000 H   0  0  0  0  0  0  0  0  0  0  0  0
    1.8233    0.8210    0.0000 H   0  0  0  0  0  0  0  0  0  0  0  0
    2.5440   -1.8908    0.0000 H   0  0  0  0  0  0  0  0  0  0  0  0
    1.4008   -0.7429    0.0000 H   0  0  0  0  0  0  0  0  0  0  0  0
  1 13  1  0  0  0  0
  1 14  1  0  0  0  0
  2 17  2  0  0  0  0
  3 20  1  0  0  0  0
  3 44  1  0  0  0  0
  4 20  2  0  0  0  0
  5 21  2  0  0  0  0
  6 24  2  0  0  0  0
  7 29  2  0  0  0  0
  8 13  1  0  0  0  0
  8 15  1  0  0  0  0
  8 17  1  0  0  0  0
 16  9  1  1  0  0  0
  9 21  1  0  0  0  0
  9 42  1  0  0  0  0
 22 10  1  6  0  0  0
 10 24  1  0  0  0  0
 10 45  1  0  0  0  0
 11 24  1  0  0  0  0
 11 27  1  0  0  0  0
 11 29  1  0  0  0  0
 12 28  1  0  0  0  0
 12 29  1  0  0  0  0
 12 52  1  0  0  0  0
 13 16  1  0  0  0  0
 13 33  1  6  0  0  0
 14 15  1  0  0  0  0
 14 18  1  0  0  0  0
 14 19  1  0  0  0  0
 15 20  1  6  0  0  0
 15 34  1  0  0  0  0
 16 17  1  0  0  0  0
 16 35  1  0  0  0  0
 18 36  1  0  0  0  0
 18 37  1  0  0  0  0
 18 38  1  0  0  0  0
 19 39  1  0  0  0  0
 19 40  1  0  0  0  0
 19 41  1  0  0  0  0
 21 22  1  0  0  0  0
 22 23  1  0  0  0  0
 22 43  1  0  0  0  0
 23 25  2  0  0  0  0
 23 26  1  0  0  0  0
 25 30  1  0  0  0  0
 25 46  1  0  0  0  0
 26 31  2  0  0  0  0
 26 47  1  0  0  0  0
 27 28  1  0  0  0  0
 27 48  1  0  0  0  0
 27 49  1  0  0  0  0
 28 50  1  0  0  0  0
 28 51  1  0  0  0  0
 30 32  2  0  0  0  0
 30 53  1  0  0  0  0
 31 32  1  0  0  0  0
 31 54  1  0  0  0  0
 32 55  1  0  0  0  0
M  END
> <PUBCHEM_COMPOUND_CID>
5284519

> <PUBCHEM_COMPOUND_CANONICALIZED>
1

> <PUBCHEM_CACTVS_COMPLEXITY>
844

> <PUBCHEM_CACTVS_HBOND_ACCEPTOR>
7

> <PUBCHEM_CACTVS_HBOND_DONOR>
4

> <PUBCHEM_CACTVS_ROTATABLE_BOND>
5

> <PUBCHEM_CACTVS_SUBSKEYS>
AAADceB7uABAAAAAAAAAAAAAAABYAWLAAAAwAAAABYAAAAABAAAAHgQQCAAADCjF2ASzCIPAAgiIAiHSGACCAABgABAIiIGIBIiKYDqglTGUYAhslyK4iAcYiICOAAAAAAAAAAAAAAAAAAAAAAAAAAAAAA==

> <PUBCHEM_IUPAC_OPENEYE_NAME>
(2S,5R,6R)-3,3-dimethyl-7-oxo-6-[[(2S)-2-[(2-oxoimidazolidine-1-carbonyl)amino]-2-phenyl-acetyl]amino]-4-thia-1-azabicyclo[3.2.0]heptane-2-carboxylic acid

> <PUBCHEM_IUPAC_CAS_NAME>
(2S,5R,6R)-3,3-dimethyl-7-oxo-6-[[(2S)-1-oxo-2-[[oxo-(2-oxo-1-imidazolidinyl)methyl]amino]-2-phenylethyl]amino]-4-thia-1-azabicyclo[3.2.0]heptane-2-carboxylic acid

> <PUBCHEM_IUPAC_NAME>
(2S,5R,6R)-3,3-dimethyl-7-oxo-6-[[(2S)-2-[(2-oxoimidazolidine-1-carbonyl)amino]-2-phenylacetyl]amino]-4-thia-1-azabicyclo[3.2.0]heptane-2-carboxylic acid

> <PUBCHEM_IUPAC_SYSTEMATIC_NAME>
(2S,5R,6R)-3,3-dimethyl-7-oxidanylidene-6-[[(2S)-2-[(2-oxidanylideneimidazolidin-1-yl)carbonylamino]-2-phenyl-ethanoyl]amino]-4-thia-1-azabicyclo[3.2.0]heptane-2-carboxylic acid

> <PUBCHEM_IUPAC_TRADITIONAL_NAME>
(2S,5R,6R)-7-keto-6-[[(2S)-2-[(2-ketoimidazolidine-1-carbonyl)amino]-2-phenyl-acetyl]amino]-3,3-dimethyl-4-thia-1-azabicyclo[3.2.0]heptane-2-carboxylic acid

> <PUBCHEM_IUPAC_INCHI>
InChI=1S/C20H23N5O6S/c1-20(2)13(17(28)29)25-15(27)12(16(25)32-20)22-14(26)11(10-6-4-3-5-7-10)23-19(31)24-9-8-21-18(24)30/h3-7,11-13,16H,8-9H2,1-2H3,(H,21,30)(H,22,26)(H,23,31)(H,28,29)/t11-,12+,13-,16+/m0/s1

> <PUBCHEM_IUPAC_INCHIKEY>
JTWOMNBEOCYFNV-RSUWNVLCSA-N

> <PUBCHEM_XLOGP3>
0.1

> <PUBCHEM_EXACT_MASS>
461.136904

> <PUBCHEM_MOLECULAR_FORMULA>
C20H23N5O6S

> <PUBCHEM_MOLECULAR_WEIGHT>
461.49152

> <PUBCHEM_OPENEYE_CAN_SMILES>
CC1(C(N2C(S1)C(C2=O)NC(=O)C(C3=CC=CC=C3)NC(=O)N4CCNC4=O)C(=O)O)C

> <PUBCHEM_OPENEYE_ISO_SMILES>
CC1([C@@H](N2[C@H](S1)[C@@H](C2=O)NC(=O)[C@H](C3=CC=CC=C3)NC(=O)N4CCNC4=O)C(=O)O)C

> <PUBCHEM_CACTVS_TPSA>
173

> <PUBCHEM_MONOISOTOPIC_WEIGHT>
461.136904

> <PUBCHEM_TOTAL_CHARGE>
0

> <PUBCHEM_HEAVY_ATOM_COUNT>
32

> <PUBCHEM_ATOM_DEF_STEREO_COUNT>
4

> <PUBCHEM_ATOM_UDEF_STEREO_COUNT>
0

> <PUBCHEM_BOND_DEF_STEREO_COUNT>
0

> <PUBCHEM_BOND_UDEF_STEREO_COUNT>
0

> <PUBCHEM_ISOTOPIC_ATOM_COUNT>
0

> <PUBCHEM_COMPONENT_COUNT>
1

> <PUBCHEM_CACTVS_TAUTO_COUNT>
16

> <PUBCHEM_COORDINATE_TYPE>
1
5
255

> <PUBCHEM_BONDANNOTATIONS>
22  10  6
13  33  6
15  20  6
23  25  8
23  26  8
25  30  8
26  31  8
30  32  8
31  32  8
16  9  5

$$$$

