133323
  -OEChem-07051212573D

 45 48  0     1  0  0  0  0  0999 V2000
    0.2297    2.8134   -0.3686 O   0  0  0  0  0  0  0  0  0  0  0  0
   -2.3317    3.6122   -0.4090 O   0  0  0  0  0  0  0  0  0  0  0  0
    4.4228    1.1183    0.6561 O   0  0  0  0  0  0  0  0  0  0  0  0
    4.8799   -1.5509    0.0464 O   0  0  0  0  0  0  0  0  0  0  0  0
   -2.3332   -2.8042   -0.1457 N   0  0  2  0  0  0  0  0  0  0  0  0
   -1.1861   -1.9304    0.2139 C   0  0  2  0  0  0  0  0  0  0  0  0
   -1.4853   -0.4403    0.0179 C   0  0  0  0  0  0  0  0  0  0  0  0
    0.0786   -2.2942   -0.5968 C   0  0  0  0  0  0  0  0  0  0  0  0
   -2.8185    0.0109   -0.0372 C   0  0  0  0  0  0  0  0  0  0  0  0
   -3.5526   -2.3325    0.5299 C   0  0  0  0  0  0  0  0  0  0  0  0
   -0.4108    0.4837   -0.0420 C   0  0  0  0  0  0  0  0  0  0  0  0
   -3.9604   -0.9667   -0.0151 C   0  0  0  0  0  0  0  0  0  0  0  0
    1.2331   -1.3771   -0.2600 C   0  0  0  0  0  0  0  0  0  0  0  0
    0.9828   -0.0146    0.0112 C   0  0  0  0  0  0  0  0  0  0  0  0
   -3.0872    1.3753   -0.1816 C   0  0  0  0  0  0  0  0  0  0  0  0
   -0.7207    1.8482   -0.1848 C   0  0  0  0  0  0  0  0  0  0  0  0
   -2.0983   -4.2061    0.2169 C   0  0  0  0  0  0  0  0  0  0  0  0
   -2.0429    2.2889   -0.2517 C   0  0  0  0  0  0  0  0  0  0  0  0
    2.5438   -1.8787   -0.2604 C   0  0  0  0  0  0  0  0  0  0  0  0
    2.0839    0.8028    0.3235 C   0  0  0  0  0  0  0  0  0  0  0  0
    3.3855    0.2932    0.3383 C   0  0  0  0  0  0  0  0  0  0  0  0
    3.6159   -1.0449    0.0408 C   0  0  0  0  0  0  0  0  0  0  0  0
   -2.4837    4.3868    0.7782 C   0  0  0  0  0  0  0  0  0  0  0  0
    5.0552    1.8070   -0.4203 C   0  0  0  0  0  0  0  0  0  0  0  0
   -0.9671   -2.0547    1.2859 H   0  0  0  0  0  0  0  0  0  0  0  0
   -0.1140   -2.2237   -1.6756 H   0  0  0  0  0  0  0  0  0  0  0  0
    0.3830   -3.3239   -0.3802 H   0  0  0  0  0  0  0  0  0  0  0  0
   -3.4017   -2.2818    1.6170 H   0  0  0  0  0  0  0  0  0  0  0  0
   -4.3859   -3.0240    0.3522 H   0  0  0  0  0  0  0  0  0  0  0  0
   -4.7779   -0.5720    0.6002 H   0  0  0  0  0  0  0  0  0  0  0  0
   -4.3372   -1.0767   -1.0400 H   0  0  0  0  0  0  0  0  0  0  0  0
   -4.1155    1.7232   -0.2475 H   0  0  0  0  0  0  0  0  0  0  0  0
   -1.8533   -4.3233    1.2785 H   0  0  0  0  0  0  0  0  0  0  0  0
   -1.2949   -4.6454   -0.3813 H   0  0  0  0  0  0  0  0  0  0  0  0
   -2.9858   -4.8134    0.0030 H   0  0  0  0  0  0  0  0  0  0  0  0
    2.7264   -2.9257   -0.4914 H   0  0  0  0  0  0  0  0  0  0  0  0
    1.9703    1.8396    0.6208 H   0  0  0  0  0  0  0  0  0  0  0  0
   -0.2014    3.6701   -0.5281 H   0  0  0  0  0  0  0  0  0  0  0  0
    5.4939   -0.8477    0.3194 H   0  0  0  0  0  0  0  0  0  0  0  0
   -3.3404    4.0301    1.3587 H   0  0  0  0  0  0  0  0  0  0  0  0
   -2.6657    5.4254    0.4888 H   0  0  0  0  0  0  0  0  0  0  0  0
   -1.5756    4.3476    1.3883 H   0  0  0  0  0  0  0  0  0  0  0  0
    4.3492    2.4905   -0.9025 H   0  0  0  0  0  0  0  0  0  0  0  0
    5.4535    1.1002   -1.1551 H   0  0  0  0  0  0  0  0  0  0  0  0
    5.8844    2.3917   -0.0128 H   0  0  0  0  0  0  0  0  0  0  0  0
  1 16  1  0  0  0  0
  1 38  1  0  0  0  0
  2 18  1  0  0  0  0
  2 23  1  0  0  0  0
  3 21  1  0  0  0  0
  3 24  1  0  0  0  0
  4 22  1  0  0  0  0
  4 39  1  0  0  0  0
  5  6  1  0  0  0  0
  5 10  1  0  0  0  0
  5 17  1  0  0  0  0
  6  7  1  0  0  0  0
  6  8  1  0  0  0  0
  6 25  1  0  0  0  0
  7  9  1  0  0  0  0
  7 11  2  0  0  0  0
  8 13  1  0  0  0  0
  8 26  1  0  0  0  0
  8 27  1  0  0  0  0
  9 12  1  0  0  0  0
  9 15  2  0  0  0  0
 10 12  1  0  0  0  0
 10 28  1  0  0  0  0
 10 29  1  0  0  0  0
 11 14  1  0  0  0  0
 11 16  1  0  0  0  0
 12 30  1  0  0  0  0
 12 31  1  0  0  0  0
 13 14  1  0  0  0  0
 13 19  2  0  0  0  0
 14 20  2  0  0  0  0
 15 18  1  0  0  0  0
 15 32  1  0  0  0  0
 16 18  2  0  0  0  0
 17 33  1  0  0  0  0
 17 34  1  0  0  0  0
 17 35  1  0  0  0  0
 19 22  1  0  0  0  0
 19 36  1  0  0  0  0
 20 21  1  0  0  0  0
 20 37  1  0  0  0  0
 21 22  2  0  0  0  0
 23 40  1  0  0  0  0
 23 41  1  0  0  0  0
 23 42  1  0  0  0  0
 24 43  1  0  0  0  0
 24 44  1  0  0  0  0
 24 45  1  0  0  0  0
M  END
> <PUBCHEM_COMPOUND_CID>
133323

> <PUBCHEM_CONFORMER_RMSD>
0.6

> <PUBCHEM_CONFORMER_DIVERSEORDER>
1
3
2

> <PUBCHEM_MMFF94_PARTIAL_CHARGES>
27
1 -0.53
10 0.27
12 0.14
13 -0.14
15 -0.15
16 0.08
17 0.27
18 0.08
19 -0.15
2 -0.36
20 -0.15
21 0.08
22 0.08
23 0.28
24 0.28
3 -0.36
32 0.15
36 0.15
37 0.15
38 0.45
39 0.45
4 -0.53
5 -0.81
6 0.41
7 -0.14
8 0.14
9 -0.14

> <PUBCHEM_EFFECTIVE_ROTOR_COUNT>
2.8

> <PUBCHEM_PHARMACOPHORE_FEATURES>
9
1 1 donor
1 2 acceptor
1 3 acceptor
1 4 donor
1 5 cation
6 13 14 19 20 21 22 rings
6 5 6 7 9 10 12 rings
6 6 7 8 11 13 14 rings
6 7 9 11 15 16 18 rings

> <PUBCHEM_HEAVY_ATOM_COUNT>
24

> <PUBCHEM_ATOM_DEF_STEREO_COUNT>
1

> <PUBCHEM_ATOM_UDEF_STEREO_COUNT>
0

> <PUBCHEM_BOND_DEF_STEREO_COUNT>
0

> <PUBCHEM_BOND_UDEF_STEREO_COUNT>
0

> <PUBCHEM_ISOTOPIC_ATOM_COUNT>
0

> <PUBCHEM_COMPONENT_COUNT>
1

> <PUBCHEM_CACTVS_TAUTO_COUNT>
26

> <PUBCHEM_CONFORMER_ID>
000208CB00000001

> <PUBCHEM_MMFF94_ENERGY>
95.2588

> <PUBCHEM_FEATURE_SELFOVERLAP>
45.757

> <PUBCHEM_SHAPE_FINGERPRINT>
10319926 262 18265354931443420962
10411042 1 17906734704590009142
10608611 8 18336550511926467576
10616163 171 18338515240494941086
10670039 82 18270106926146169092
10906281 52 18336815430162935559
10967382 1 17546445579259317063
1100329 8 18195806263624964211
11578080 2 13987425637029409939
12107183 9 17910122639976876138
12173636 292 18339083816660491069
12390115 104 18045486758492302792
12403259 226 18334300833525920466
12403260 363 18266192805577598398
12553582 1 18195514909838753623
12633257 1 17981051022450642952
12788726 201 18271531896645090002
13140716 1 18122060905936916281
138480 1 16321186685128124331
14081887 123 18336840701212519672
14178342 30 18341345448107789560
14223421 5 18408888416952241002
14363568 33 17332508086962501689
14787075 74 17771346370800625082
14790565 3 18121493815915304409
15042514 8 18412542085739107795
15196674 1 18410575080574054318
16087824 20 18410856530825433767
16728300 4 16118538935397518738
16945 1 18411412878559500783
17492 89 18413672413821003930
19591789 44 18050564342207542107
20510252 161 18335422395758601705
20775438 99 16964686302567171303
21029758 11 18337680711422679751
21065198 57 18338800130187111746
21267235 1 18411692180151390938
2334 1 17762336912318966959
23402539 116 18335430058344572967
23557571 272 18334848390812373204
23558518 356 18271800250633938784
23559900 14 18046068435194185630
238 59 16545272583750228069
23845131 108 17764296642068390881
2748010 2 18194955464747197591
283562 15 18337398244424639641
3091708 16 9203090991209500571
335352 9 17761212515603504350
3380486 145 18268135466984030451
34934 24 18340494361246141923
350125 39 18338229500209510560
5104073 3 18409732876442630714
7097593 13 17626966509623730530
81228 2 18272926124723459457
9709674 26 18335138756213663678

> <PUBCHEM_SHAPE_MULTIPOLES>
465.45
7.99
4.9
0.71
9.03
1.95
0.02
0.01
0.49
-5.01
0.31
-0.01
0.09
0.14

> <PUBCHEM_SHAPE_SELFOVERLAP>
1027.395

> <PUBCHEM_SHAPE_VOLUME>
250.7

> <PUBCHEM_COORDINATE_TYPE>
2
5
10

$$$$

