443605
  -OEChem-07051213022D

 91 93  0     1  0  0  0  0  0999 V2000
    4.2255    0.5540    0.0000 S   0  0  0  0  0  0  0  0  0  0  0  0
    3.7749   -2.0532    0.0000 O   0  0  0  0  0  0  0  0  0  0  0  0
    7.1211   -4.5956    0.0000 O   0  0  0  0  0  0  0  0  0  0  0  0
    2.0000   -5.1589    0.0000 O   0  0  0  0  0  0  0  0  0  0  0  0
    5.2582   -1.1588    0.0000 O   0  0  0  0  0  0  0  0  0  0  0  0
    2.1599    3.9794    0.0000 O   0  0  0  0  0  0  0  0  0  0  0  0
    3.6761    3.1421    0.0000 N   0  0  0  0  0  0  0  0  0  0  0  0
    3.1268    5.7302    0.0000 N   0  0  0  0  0  0  0  0  0  0  0  0
    4.5816   -5.1980    0.0000 C   0  0  1  0  0  0  0  0  0  0  0  0
    3.7155   -4.6980    0.0000 C   0  0  2  0  0  0  0  0  0  0  0  0
    3.7155   -3.6980    0.0000 C   0  0  1  0  0  0  0  0  0  0  0  0
    5.5523   -5.0936    0.0000 C   0  0  2  0  0  0  0  0  0  0  0  0
    4.5816   -3.1980    0.0000 C   0  0  3  0  0  0  0  0  0  0  0  0
    5.4476   -4.6980    0.0000 C   0  0  0  0  0  0  0  0  0  0  0  0
    4.3723   -6.1698    0.0000 C   0  0  0  0  0  0  0  0  0  0  0  0
    4.2913   -2.9095    0.0000 C   0  0  1  0  0  0  0  0  0  0  0  0
    5.4476   -3.6980    0.0000 C   0  0  0  0  0  0  0  0  0  0  0  0
    2.9785   -5.3651    0.0000 C   0  0  0  0  0  0  0  0  0  0  0  0
    6.1577   -4.3276    0.0000 C   0  0  1  0  0  0  0  0  0  0  0  0
    3.3836   -6.2729    0.0000 C   0  0  0  0  0  0  0  0  0  0  0  0
    6.0348   -3.3590    0.0000 C   0  0  2  0  0  0  0  0  0  0  0  0
    5.2574   -2.7683    0.0000 C   0  0  0  0  0  0  0  0  0  0  0  0
    2.7648   -3.3879    0.0000 C   0  0  0  0  0  0  0  0  0  0  0  0
    6.0358   -5.9690    0.0000 C   0  0  0  0  0  0  0  0  0  0  0  0
    4.5816   -2.1980    0.0000 C   0  0  0  0  0  0  0  0  0  0  0  0
    7.0263   -3.2284    0.0000 C   0  0  0  0  0  0  0  0  0  0  0  0
    6.6436   -2.5656    0.0000 C   0  0  0  0  0  0  0  0  0  0  0  0
    4.2584   -1.1778    0.0000 C   0  0  0  0  0  0  0  0  0  0  0  0
    6.2609   -1.6417    0.0000 C   0  0  0  0  0  0  0  0  0  0  0  0
    3.7420   -0.3214    0.0000 C   0  0  0  0  0  0  0  0  0  0  0  0
    3.7091    1.4103    0.0000 C   0  0  0  0  0  0  0  0  0  0  0  0
    3.1927    2.2667    0.0000 C   0  0  0  0  0  0  0  0  0  0  0  0
    4.5654    1.9267    0.0000 C   0  0  0  0  0  0  0  0  0  0  0  0
    2.8527    0.8939    0.0000 C   0  0  0  0  0  0  0  0  0  0  0  0
    3.1598    3.9984    0.0000 C   0  0  0  0  0  0  0  0  0  0  0  0
    3.6432    4.8738    0.0000 C   0  0  3  0  0  0  0  0  0  0  0  0
    4.6430    4.8928    0.0000 C   0  0  0  0  0  0  0  0  0  0  0  0
    5.1265    5.7682    0.0000 C   0  0  0  0  0  0  0  0  0  0  0  0
    5.1594    4.0365    0.0000 C   0  0  0  0  0  0  0  0  0  0  0  0
    2.9794   -4.2730    0.0000 H   0  0  0  0  0  0  0  0  0  0  0  0
    5.2663   -5.6437    0.0000 H   0  0  0  0  0  0  0  0  0  0  0  0
    5.3177   -2.7730    0.0000 H   0  0  0  0  0  0  0  0  0  0  0  0
    5.6596   -5.2806    0.0000 H   0  0  0  0  0  0  0  0  0  0  0  0
    6.0582   -4.5904    0.0000 H   0  0  0  0  0  0  0  0  0  0  0  0
    4.3714   -6.7898    0.0000 H   0  0  0  0  0  0  0  0  0  0  0  0
    4.9888   -6.2359    0.0000 H   0  0  0  0  0  0  0  0  0  0  0  0
    3.6719   -2.8822    0.0000 H   0  0  0  0  0  0  0  0  0  0  0  0
    6.0582   -3.8057    0.0000 H   0  0  0  0  0  0  0  0  0  0  0  0
    5.6596   -3.1154    0.0000 H   0  0  0  0  0  0  0  0  0  0  0  0
    6.3500   -4.9170    0.0000 H   0  0  0  0  0  0  0  0  0  0  0  0
    2.7940   -6.4647    0.0000 H   0  0  0  0  0  0  0  0  0  0  0  0
    3.5124   -6.8794    0.0000 H   0  0  0  0  0  0  0  0  0  0  0  0
    5.7463   -2.3870    0.0000 H   0  0  0  0  0  0  0  0  0  0  0  0
    5.0138   -2.1981    0.0000 H   0  0  0  0  0  0  0  0  0  0  0  0
    2.9571   -2.7984    0.0000 H   0  0  0  0  0  0  0  0  0  0  0  0
    2.1754   -3.1956    0.0000 H   0  0  0  0  0  0  0  0  0  0  0  0
    2.5725   -3.9773    0.0000 H   0  0  0  0  0  0  0  0  0  0  0  0
    5.4930   -6.2687    0.0000 H   0  0  0  0  0  0  0  0  0  0  0  0
    6.3355   -6.5117    0.0000 H   0  0  0  0  0  0  0  0  0  0  0  0
    6.5785   -5.6693    0.0000 H   0  0  0  0  0  0  0  0  0  0  0  0
    5.2016   -2.1980    0.0000 H   0  0  0  0  0  0  0  0  0  0  0  0
    4.5816   -1.5780    0.0000 H   0  0  0  0  0  0  0  0  0  0  0  0
    3.9616   -2.1980    0.0000 H   0  0  0  0  0  0  0  0  0  0  0  0
    7.1072   -3.8431    0.0000 H   0  0  0  0  0  0  0  0  0  0  0  0
    7.6410   -3.1475    0.0000 H   0  0  0  0  0  0  0  0  0  0  0  0
    6.9454   -2.6137    0.0000 H   0  0  0  0  0  0  0  0  0  0  0  0
    7.2583   -2.6465    0.0000 H   0  0  0  0  0  0  0  0  0  0  0  0
    7.2759   -5.1959    0.0000 H   0  0  0  0  0  0  0  0  0  0  0  0
    6.6384   -1.1498    0.0000 H   0  0  0  0  0  0  0  0  0  0  0  0
    5.6462   -1.5608    0.0000 H   0  0  0  0  0  0  0  0  0  0  0  0
    3.2596    0.0680    0.0000 H   0  0  0  0  0  0  0  0  0  0  0  0
    3.2747   -0.7289    0.0000 H   0  0  0  0  0  0  0  0  0  0  0  0
    2.7102    2.6561    0.0000 H   0  0  0  0  0  0  0  0  0  0  0  0
    2.7254    1.8592    0.0000 H   0  0  0  0  0  0  0  0  0  0  0  0
    4.8856    1.3958    0.0000 H   0  0  0  0  0  0  0  0  0  0  0  0
    5.0964    2.2469    0.0000 H   0  0  0  0  0  0  0  0  0  0  0  0
    4.2453    2.4576    0.0000 H   0  0  0  0  0  0  0  0  0  0  0  0
    2.5326    1.4249    0.0000 H   0  0  0  0  0  0  0  0  0  0  0  0
    2.3218    0.5738    0.0000 H   0  0  0  0  0  0  0  0  0  0  0  0
    3.1729    0.3630    0.0000 H   0  0  0  0  0  0  0  0  0  0  0  0
    4.2960    3.1538    0.0000 H   0  0  0  0  0  0  0  0  0  0  0  0
    4.0541    5.6179    0.0000 H   0  0  0  0  0  0  0  0  0  0  0  0
    4.3229    5.4238    0.0000 H   0  0  0  0  0  0  0  0  0  0  0  0
    3.4266    6.2729    0.0000 H   0  0  0  0  0  0  0  0  0  0  0  0
    2.5069    5.7184    0.0000 H   0  0  0  0  0  0  0  0  0  0  0  0
    4.6284    3.7163    0.0000 H   0  0  0  0  0  0  0  0  0  0  0  0
    5.4796    3.5055    0.0000 H   0  0  0  0  0  0  0  0  0  0  0  0
    5.6692    5.4685    0.0000 H   0  0  0  0  0  0  0  0  0  0  0  0
    5.4262    6.3109    0.0000 H   0  0  0  0  0  0  0  0  0  0  0  0
    4.5837    6.0679    0.0000 H   0  0  0  0  0  0  0  0  0  0  0  0
    5.6903    4.3566    0.0000 H   0  0  0  0  0  0  0  0  0  0  0  0
  1 30  1  0  0  0  0
  1 31  1  0  0  0  0
 16  2  1  6  0  0  0
  2 28  1  0  0  0  0
 19  3  1  1  0  0  0
  3 68  1  0  0  0  0
  4 18  2  0  0  0  0
  5 28  2  0  0  0  0
  6 35  2  0  0  0  0
  7 32  1  0  0  0  0
  7 35  1  0  0  0  0
  7 81  1  0  0  0  0
  8 36  1  0  0  0  0
  8 84  1  0  0  0  0
  8 85  1  0  0  0  0
  9 10  1  0  0  0  0
  9 12  1  0  0  0  0
  9 14  1  0  0  0  0
  9 15  1  1  0  0  0
 10 11  1  0  0  0  0
 10 18  1  0  0  0  0
 10 40  1  6  0  0  0
 11 13  1  0  0  0  0
 11 16  1  0  0  0  0
 11 23  1  1  0  0  0
 12 19  1  0  0  0  0
 12 24  1  6  0  0  0
 12 41  1  0  0  0  0
 13 17  1  0  0  0  0
 13 25  1  0  0  0  0
 13 42  1  0  0  0  0
 14 17  1  0  0  0  0
 14 43  1  0  0  0  0
 14 44  1  0  0  0  0
 15 20  1  0  0  0  0
 15 45  1  0  0  0  0
 15 46  1  0  0  0  0
 16 22  1  0  0  0  0
 16 47  1  0  0  0  0
 17 48  1  0  0  0  0
 17 49  1  0  0  0  0
 18 20  1  0  0  0  0
 19 21  1  0  0  0  0
 19 50  1  0  0  0  0
 20 51  1  0  0  0  0
 20 52  1  0  0  0  0
 21 22  1  0  0  0  0
 21 26  1  6  0  0  0
 21 27  1  0  0  0  0
 22 53  1  0  0  0  0
 22 54  1  0  0  0  0
 23 55  1  0  0  0  0
 23 56  1  0  0  0  0
 23 57  1  0  0  0  0
 24 58  1  0  0  0  0
 24 59  1  0  0  0  0
 24 60  1  0  0  0  0
 25 61  1  0  0  0  0
 25 62  1  0  0  0  0
 25 63  1  0  0  0  0
 26 64  1  0  0  0  0
 26 65  1  0  0  0  0
 26 66  1  0  0  0  0
 27 29  2  0  0  0  0
 27 67  1  0  0  0  0
 28 30  1  0  0  0  0
 29 69  1  0  0  0  0
 29 70  1  0  0  0  0
 30 71  1  0  0  0  0
 30 72  1  0  0  0  0
 31 32  1  0  0  0  0
 31 33  1  0  0  0  0
 31 34  1  0  0  0  0
 32 73  1  0  0  0  0
 32 74  1  0  0  0  0
 33 75  1  0  0  0  0
 33 76  1  0  0  0  0
 33 77  1  0  0  0  0
 34 78  1  0  0  0  0
 34 79  1  0  0  0  0
 34 80  1  0  0  0  0
 35 36  1  0  0  0  0
 36 37  1  0  0  0  0
 36 82  1  0  0  0  0
 37 38  1  0  0  0  0
 37 39  1  0  0  0  0
 37 83  1  0  0  0  0
 38 88  1  0  0  0  0
 38 89  1  0  0  0  0
 38 90  1  0  0  0  0
 39 86  1  0  0  0  0
 39 87  1  0  0  0  0
 39 91  1  0  0  0  0
M  END
> <PUBCHEM_COMPOUND_CID>
443605

> <PUBCHEM_COMPOUND_CANONICALIZED>
1

> <PUBCHEM_CACTVS_COMPLEXITY>
969

> <PUBCHEM_CACTVS_HBOND_ACCEPTOR>
7

> <PUBCHEM_CACTVS_HBOND_DONOR>
3

> <PUBCHEM_CACTVS_ROTATABLE_BOND>
10

> <PUBCHEM_CACTVS_SUBSKEYS>
AAADcfB7OABAAAAAAAAAAAAAAAAAAYAAAAAwAAAAAAAYAGDAAAAAHgQQCAAADzzlwAaCCALABgiIAKHSGAAAAAAgABAIAIGIAAgAUBIAgAAWQAAE1gCgAAHKzPDPgAAAAAAAAACAAAQAACAAAAAACAAAAA==

> <PUBCHEM_IUPAC_INCHI>
InChI=1S/C31H52N2O5S/c1-10-29(8)15-22(38-23(35)16-39-28(6,7)17-33-27(37)24(32)18(2)3)30(9)19(4)11-13-31(20(5)26(29)36)14-12-21(34)25(30)31/h10,18-20,22,24-26,36H,1,11-17,32H2,2-9H3,(H,33,37)/t19?,20-,22+,24?,25-,26-,29+,30-,31-/m0/s1

> <PUBCHEM_IUPAC_INCHIKEY>
LLYYNOVSVPBRGV-NFQTWZMKSA-N

> <PUBCHEM_XLOGP3_AA>
5.3

> <PUBCHEM_EXACT_MASS>
564.359694

> <PUBCHEM_MOLECULAR_FORMULA>
C31H52N2O5S

> <PUBCHEM_MOLECULAR_WEIGHT>
564.81998

> <PUBCHEM_OPENEYE_CAN_SMILES>
CC1CCC23CCC(=O)C2C1(C(CC(C(C3C)O)(C)C=C)OC(=O)CSC(C)(C)CNC(=O)C(C(C)C)N)C

> <PUBCHEM_OPENEYE_ISO_SMILES>
C[C@H]1[C@@H]([C@](C[C@H]([C@]2([C@H]3[C@@]1(CCC2C)CCC3=O)C)OC(=O)CSC(C)(C)CNC(=O)C(C(C)C)N)(C)C=C)O

> <PUBCHEM_CACTVS_TPSA>
144

> <PUBCHEM_MONOISOTOPIC_WEIGHT>
564.359694

> <PUBCHEM_TOTAL_CHARGE>
0

> <PUBCHEM_HEAVY_ATOM_COUNT>
39

> <PUBCHEM_ATOM_DEF_STEREO_COUNT>
7

> <PUBCHEM_ATOM_UDEF_STEREO_COUNT>
2

> <PUBCHEM_BOND_DEF_STEREO_COUNT>
0

> <PUBCHEM_BOND_UDEF_STEREO_COUNT>
0

> <PUBCHEM_ISOTOPIC_ATOM_COUNT>
0

> <PUBCHEM_COMPONENT_COUNT>
1

> <PUBCHEM_CACTVS_TAUTO_COUNT>
4

> <PUBCHEM_COORDINATE_TYPE>
1
5
255

> <PUBCHEM_BONDANNOTATIONS>
10  40  6
11  23  5
12  24  6
13  42  3
16  2  6
21  26  6
19  3  5
36  82  3
9  15  5

$$$$

