65188
  -OEChem-07051212572D

 29 31  0     0  0  0  0  0  0999 V2000
    7.2901    0.8576    0.0000 O   0  0  0  0  0  0  0  0  0  0  0  0
    3.7702    0.8576    0.0000 O   0  0  0  0  0  0  0  0  0  0  0  0
    2.0000    0.8471    0.0000 O   0  0  0  0  0  0  0  0  0  0  0  0
    8.1962    0.3438    0.0000 C   0  0  0  0  0  0  0  0  0  0  0  0
    6.3961    0.3230    0.0000 C   0  0  0  0  0  0  0  0  0  0  0  0
    6.3961   -0.6770    0.0000 C   0  0  0  0  0  0  0  0  0  0  0  0
    8.1962   -0.6979    0.0000 C   0  0  0  0  0  0  0  0  0  0  0  0
    9.1962    0.3476    0.0000 C   0  0  0  0  0  0  0  0  0  0  0  0
    8.6928    1.2117    0.0000 C   0  0  0  0  0  0  0  0  0  0  0  0
    7.2901   -1.2117    0.0000 C   0  0  0  0  0  0  0  0  0  0  0  0
    5.5301   -1.1770    0.0000 C   0  0  0  0  0  0  0  0  0  0  0  0
    5.5301    0.8230    0.0000 C   0  0  0  0  0  0  0  0  0  0  0  0
    4.6641   -0.6770    0.0000 C   0  0  0  0  0  0  0  0  0  0  0  0
    4.6641    0.3230    0.0000 C   0  0  0  0  0  0  0  0  0  0  0  0
    3.7702   -1.2117    0.0000 C   0  0  0  0  0  0  0  0  0  0  0  0
    2.8641   -0.6979    0.0000 C   0  0  0  0  0  0  0  0  0  0  0  0
    2.8641    0.3438    0.0000 C   0  0  0  0  0  0  0  0  0  0  0  0
    8.7319   -1.0099    0.0000 H   0  0  0  0  0  0  0  0  0  0  0  0
    9.1985   -0.2724    0.0000 H   0  0  0  0  0  0  0  0  0  0  0  0
    9.8162    0.3500    0.0000 H   0  0  0  0  0  0  0  0  0  0  0  0
    9.1938    0.9676    0.0000 H   0  0  0  0  0  0  0  0  0  0  0  0
    9.2310    0.9038    0.0000 H   0  0  0  0  0  0  0  0  0  0  0  0
    9.0008    1.7498    0.0000 H   0  0  0  0  0  0  0  0  0  0  0  0
    8.1547    1.5196    0.0000 H   0  0  0  0  0  0  0  0  0  0  0  0
    7.2829   -1.8317    0.0000 H   0  0  0  0  0  0  0  0  0  0  0  0
    5.5301   -1.7970    0.0000 H   0  0  0  0  0  0  0  0  0  0  0  0
    5.5301    1.4430    0.0000 H   0  0  0  0  0  0  0  0  0  0  0  0
    3.7773   -1.8317    0.0000 H   0  0  0  0  0  0  0  0  0  0  0  0
    2.3284   -1.0099    0.0000 H   0  0  0  0  0  0  0  0  0  0  0  0
  1  4  1  0  0  0  0
  1  5  1  0  0  0  0
  2 14  1  0  0  0  0
  2 17  1  0  0  0  0
  3 17  2  0  0  0  0
  4  7  1  0  0  0  0
  4  8  1  0  0  0  0
  4  9  1  0  0  0  0
  5  6  2  0  0  0  0
  5 12  1  0  0  0  0
  6 10  1  0  0  0  0
  6 11  1  0  0  0  0
  7 10  2  0  0  0  0
  7 18  1  0  0  0  0
  8 19  1  0  0  0  0
  8 20  1  0  0  0  0
  8 21  1  0  0  0  0
  9 22  1  0  0  0  0
  9 23  1  0  0  0  0
  9 24  1  0  0  0  0
 10 25  1  0  0  0  0
 11 13  2  0  0  0  0
 11 26  1  0  0  0  0
 12 14  2  0  0  0  0
 12 27  1  0  0  0  0
 13 14  1  0  0  0  0
 13 15  1  0  0  0  0
 15 16  2  0  0  0  0
 15 28  1  0  0  0  0
 16 17  1  0  0  0  0
 16 29  1  0  0  0  0
M  END
> <PUBCHEM_COMPOUND_CID>
65188

> <PUBCHEM_COMPOUND_CANONICALIZED>
1

> <PUBCHEM_CACTVS_COMPLEXITY>
394

> <PUBCHEM_CACTVS_HBOND_ACCEPTOR>
3

> <PUBCHEM_CACTVS_HBOND_DONOR>
0

> <PUBCHEM_CACTVS_ROTATABLE_BOND>
0

> <PUBCHEM_CACTVS_SUBSKEYS>
AAADccBwMAAAAAAAAAAAAAAAAAAAAAAAAAAwQIAAAAAAAACBAAAAGgAAAAAADESAmAAyDoAABACIAiDSCAACCAAgIAAIiAAGCMgMJyKEMRqCOiClwBUIqYeA4GwOIAACCAAIAABAAAQQABAAAAAAAAAAAA==

> <PUBCHEM_IUPAC_OPENEYE_NAME>
2,2-dimethylpyrano[3,2-g]chromen-8-one

> <PUBCHEM_IUPAC_CAS_NAME>
2,2-dimethyl-8-pyrano[3,2-g][1]benzopyranone

> <PUBCHEM_IUPAC_NAME>
2,2-dimethylpyrano[3,2-g]chromen-8-one

> <PUBCHEM_IUPAC_SYSTEMATIC_NAME>
2,2-dimethylpyrano[3,2-g]chromen-8-one

> <PUBCHEM_IUPAC_TRADITIONAL_NAME>
2,2-dimethylpyrano[3,2-g]chromen-8-one

> <PUBCHEM_IUPAC_INCHI>
InChI=1S/C14H12O3/c1-14(2)6-5-10-7-9-3-4-13(15)16-11(9)8-12(10)17-14/h3-8H,1-2H3

> <PUBCHEM_IUPAC_INCHIKEY>
QOTBQNVNUBKJMS-UHFFFAOYSA-N

> <PUBCHEM_XLOGP3_AA>
2.8

> <PUBCHEM_EXACT_MASS>
228.078644

> <PUBCHEM_MOLECULAR_FORMULA>
C14H12O3

> <PUBCHEM_MOLECULAR_WEIGHT>
228.24328

> <PUBCHEM_OPENEYE_CAN_SMILES>
CC1(C=CC2=C(O1)C=C3C(=C2)C=CC(=O)O3)C

> <PUBCHEM_OPENEYE_ISO_SMILES>
CC1(C=CC2=C(O1)C=C3C(=C2)C=CC(=O)O3)C

> <PUBCHEM_CACTVS_TPSA>
35.5

> <PUBCHEM_MONOISOTOPIC_WEIGHT>
228.078644

> <PUBCHEM_TOTAL_CHARGE>
0

> <PUBCHEM_HEAVY_ATOM_COUNT>
17

> <PUBCHEM_ATOM_DEF_STEREO_COUNT>
0

> <PUBCHEM_ATOM_UDEF_STEREO_COUNT>
0

> <PUBCHEM_BOND_DEF_STEREO_COUNT>
0

> <PUBCHEM_BOND_UDEF_STEREO_COUNT>
0

> <PUBCHEM_ISOTOPIC_ATOM_COUNT>
0

> <PUBCHEM_COMPONENT_COUNT>
1

> <PUBCHEM_CACTVS_TAUTO_COUNT>
1

> <PUBCHEM_COORDINATE_TYPE>
1
5
255

> <PUBCHEM_BONDANNOTATIONS>
11  13  8
12  14  8
13  14  8
13  15  8
15  16  8
16  17  8
2  14  8
2  17  8
5  12  8
5  6  8
6  11  8

$$$$

