5483
  -OEChem-06261200423D

 19 18  0     1  0  0  0  0  0999 V2000
   -2.2092    1.8631    0.0564 S   0  0  0  0  0  0  0  0  0  0  0  0
   -0.7560   -1.0461    1.1325 O   0  0  0  0  0  0  0  0  0  0  0  0
    1.7837    1.3223    0.2937 O   0  0  0  0  0  0  0  0  0  0  0  0
    3.5634   -0.0848    0.2972 O   0  0  0  0  0  0  0  0  0  0  0  0
    0.1587   -0.3500   -0.8835 N   0  0  0  0  0  0  0  0  0  0  0  0
   -2.1766    0.1109   -0.4461 C   0  0  1  0  0  0  0  0  0  0  0  0
   -0.8661   -0.4894    0.0418 C   0  0  0  0  0  0  0  0  0  0  0  0
   -3.3813   -0.6134    0.1399 C   0  0  0  0  0  0  0  0  0  0  0  0
    1.4911   -0.8575   -0.6531 C   0  0  0  0  0  0  0  0  0  0  0  0
    2.3923    0.1448    0.0211 C   0  0  0  0  0  0  0  0  0  0  0  0
   -2.2261    0.0614   -1.5392 H   0  0  0  0  0  0  0  0  0  0  0  0
   -0.0149    0.1496   -1.7507 H   0  0  0  0  0  0  0  0  0  0  0  0
    1.9154   -1.1067   -1.6296 H   0  0  0  0  0  0  0  0  0  0  0  0
    1.4343   -1.7523   -0.0263 H   0  0  0  0  0  0  0  0  0  0  0  0
   -3.3570   -1.6737   -0.1365 H   0  0  0  0  0  0  0  0  0  0  0  0
   -3.4003   -0.5679    1.2350 H   0  0  0  0  0  0  0  0  0  0  0  0
   -4.3206   -0.1950   -0.2382 H   0  0  0  0  0  0  0  0  0  0  0  0
   -1.1422    2.2490   -0.6589 H   0  0  0  0  0  0  0  0  0  0  0  0
    2.3900    1.9564    0.7325 H   0  0  0  0  0  0  0  0  0  0  0  0
  1  6  1  0  0  0  0
  1 18  1  0  0  0  0
  2  7  2  0  0  0  0
  3 10  1  0  0  0  0
  3 19  1  0  0  0  0
  4 10  2  0  0  0  0
  5  7  1  0  0  0  0
  5  9  1  0  0  0  0
  5 12  1  0  0  0  0
  6  7  1  0  0  0  0
  6  8  1  0  0  0  0
  6 11  1  0  0  0  0
  8 15  1  0  0  0  0
  8 16  1  0  0  0  0
  8 17  1  0  0  0  0
  9 10  1  0  0  0  0
  9 13  1  0  0  0  0
  9 14  1  0  0  0  0
M  END
> <PUBCHEM_COMPOUND_CID>
5483

> <PUBCHEM_CONFORMER_RMSD>
0.6

> <PUBCHEM_CONFORMER_DIVERSEORDER>
7
34
14
31
36
29
3
26
27
35
21
32
18
16
38
28
17
5
10
8
9
19
37
23
13
25
11
24
15
6
33
4
12
2
22
1
20
30

> <PUBCHEM_MMFF94_PARTIAL_CHARGES>
12
1 -0.41
10 0.66
12 0.37
18 0.18
19 0.5
2 -0.57
3 -0.65
4 -0.57
5 -0.73
6 0.29
7 0.57
9 0.36

> <PUBCHEM_EFFECTIVE_ROTOR_COUNT>
4

> <PUBCHEM_PHARMACOPHORE_FEATURES>
5
1 2 acceptor
1 3 acceptor
1 4 acceptor
1 5 donor
3 3 4 10 anion

> <PUBCHEM_HEAVY_ATOM_COUNT>
10

> <PUBCHEM_ATOM_DEF_STEREO_COUNT>
0

> <PUBCHEM_ATOM_UDEF_STEREO_COUNT>
1

> <PUBCHEM_BOND_DEF_STEREO_COUNT>
0

> <PUBCHEM_BOND_UDEF_STEREO_COUNT>
0

> <PUBCHEM_ISOTOPIC_ATOM_COUNT>
0

> <PUBCHEM_COMPONENT_COUNT>
1

> <PUBCHEM_CACTVS_TAUTO_COUNT>
2

> <PUBCHEM_CONFORMER_ID>
0000156B00000007

> <PUBCHEM_MMFF94_ENERGY>
13.0467

> <PUBCHEM_FEATURE_SELFOVERLAP>
25.43

> <PUBCHEM_SHAPE_FINGERPRINT>
11062470 55 6194843682836183322
12162725 195 18411419509614569836
12897270 3 18113903762356415965
12932764 1 17603312560939207174
14325111 11 18410856594004802796
14390081 3 18335421309057938101
15310529 11 17895196644642955847
15775835 57 18058167404731240201
17834069 15 18057611064695330332
18342897 137 12319734769756077809
19973954 147 18334852861467490493
20201158 50 18407759239684606115
20653085 51 18115576196777951281
21028194 46 18407760330669745748
23402539 116 18337965519141154903
305870 269 18057326304084482131
3248919 1 17774992505544584350
369184 2 18342177752223519455
5084963 1 17775284975832537295

> <PUBCHEM_SHAPE_MULTIPOLES>
187.06
5.23
1.42
0.84
1.4
0.7
0.03
0.41
0.35
-0.74
0.1
-0.05
-0.15
0.27

> <PUBCHEM_SHAPE_SELFOVERLAP>
344.369

> <PUBCHEM_SHAPE_VOLUME>
119.5

> <PUBCHEM_COORDINATE_TYPE>
2
5
10

$$$$

