56927716
  -OEChem-07051213152D

 59 61  0     1  0  0  0  0  0999 V2000
    6.8671   -0.6783    0.0000 P   0  0  3  0  0  0  0  0  0  0  0  0
    6.0010   -2.1783    0.0000 P   0  0  3  0  0  0  0  0  0  0  0  0
    8.7036    2.3162    0.0000 O   0  0  0  0  0  0  0  0  0  0  0  0
    9.7206   -0.0632    0.0000 O   0  0  0  0  0  0  0  0  0  0  0  0
    7.7331   -0.1783    0.0000 O   0  0  0  0  0  0  0  0  0  0  0  0
    4.2690   -3.1783    0.0000 O   0  0  0  0  0  0  0  0  0  0  0  0
    6.0010   -3.1783    0.0000 O   0  0  0  0  0  0  0  0  0  0  0  0
    6.0010   -1.1783    0.0000 O   0  0  0  0  0  0  0  0  0  0  0  0
    2.5369   -5.1783    0.0000 O   0  0  0  0  0  0  0  0  0  0  0  0
    6.0010   -5.1783    0.0000 O   0  0  0  0  0  0  0  0  0  0  0  0
    8.5062    4.1422    0.0000 O   0  0  0  0  0  0  0  0  0  0  0  0
    4.2690   -6.1783    0.0000 O   0  0  0  0  0  0  0  0  0  0  0  0
    6.3671    0.1877    0.0000 O   0  0  0  0  0  0  0  0  0  0  0  0
    7.3671   -1.5443    0.0000 O   0  0  0  0  0  0  0  0  0  0  0  0
    7.0010   -2.1783    0.0000 O   0  0  0  0  0  0  0  0  0  0  0  0
   11.3087    6.1783    0.0000 O   0  0  0  0  0  0  0  0  0  0  0  0
    5.0010   -2.1783    0.0000 O   0  0  0  0  0  0  0  0  0  0  0  0
   10.0885    3.4377    0.0000 N   0  0  0  0  0  0  0  0  0  0  0  0
    9.9075    5.1602    0.0000 N   0  0  0  0  0  0  0  0  0  0  0  0
    9.5127    0.9150    0.0000 C   0  0  2  0  0  0  0  0  0  0  0  0
    8.5991    1.3217    0.0000 C   0  0  1  0  0  0  0  0  0  0  0  0
   10.1818    1.6581    0.0000 C   0  0  0  0  0  0  0  0  0  0  0  0
    9.6818    2.5241    0.0000 C   0  0  1  0  0  0  0  0  0  0  0  0
    7.7331    0.8217    0.0000 C   0  0  0  0  0  0  0  0  0  0  0  0
    3.4030   -3.6783    0.0000 C   0  0  1  0  0  0  0  0  0  0  0  0
    3.4030   -4.6783    0.0000 C   0  0  1  0  0  0  0  0  0  0  0  0
   11.0830    3.5422    0.0000 C   0  0  0  0  0  0  0  0  0  0  0  0
    5.1350   -3.6783    0.0000 C   0  0  2  0  0  0  0  0  0  0  0  0
    5.1350   -4.6783    0.0000 C   0  0  1  0  0  0  0  0  0  0  0  0
    9.5007    4.2467    0.0000 C   0  0  0  0  0  0  0  0  0  0  0  0
    4.2690   -5.1783    0.0000 C   0  0  0  0  0  0  0  0  0  0  0  0
   11.4898    4.4558    0.0000 C   0  0  0  0  0  0  0  0  0  0  0  0
    2.5369   -3.1783    0.0000 C   0  0  0  0  0  0  0  0  0  0  0  0
   10.9020    5.2648    0.0000 C   0  0  0  0  0  0  0  0  0  0  0  0
   12.4843    4.5603    0.0000 C   0  0  0  0  0  0  0  0  0  0  0  0
   10.1115    0.7545    0.0000 H   0  0  0  0  0  0  0  0  0  0  0  0
    8.0791    1.6594    0.0000 H   0  0  0  0  0  0  0  0  0  0  0  0
   10.5967    1.1974    0.0000 H   0  0  0  0  0  0  0  0  0  0  0  0
   10.6834    2.0225    0.0000 H   0  0  0  0  0  0  0  0  0  0  0  0
    9.2916    3.0060    0.0000 H   0  0  0  0  0  0  0  0  0  0  0  0
    7.5210    1.4043    0.0000 H   0  0  0  0  0  0  0  0  0  0  0  0
    7.1225    0.7140    0.0000 H   0  0  0  0  0  0  0  0  0  0  0  0
   10.3102   -0.2548    0.0000 H   0  0  0  0  0  0  0  0  0  0  0  0
    3.4030   -3.0583    0.0000 H   0  0  0  0  0  0  0  0  0  0  0  0
    3.4030   -5.2983    0.0000 H   0  0  0  0  0  0  0  0  0  0  0  0
    5.1350   -3.0583    0.0000 H   0  0  0  0  0  0  0  0  0  0  0  0
    5.1350   -5.2983    0.0000 H   0  0  0  0  0  0  0  0  0  0  0  0
   11.4475    3.0406    0.0000 H   0  0  0  0  0  0  0  0  0  0  0  0
    2.8469   -2.6414    0.0000 H   0  0  0  0  0  0  0  0  0  0  0  0
    2.0000   -2.8683    0.0000 H   0  0  0  0  0  0  0  0  0  0  0  0
    2.2269   -3.7152    0.0000 H   0  0  0  0  0  0  0  0  0  0  0  0
    9.5430    5.6618    0.0000 H   0  0  0  0  0  0  0  0  0  0  0  0
   12.5491    3.9437    0.0000 H   0  0  0  0  0  0  0  0  0  0  0  0
   13.1009    4.6251    0.0000 H   0  0  0  0  0  0  0  0  0  0  0  0
   12.4195    5.1769    0.0000 H   0  0  0  0  0  0  0  0  0  0  0  0
    2.0000   -4.8683    0.0000 H   0  0  0  0  0  0  0  0  0  0  0  0
    6.0010   -5.7983    0.0000 H   0  0  0  0  0  0  0  0  0  0  0  0
    5.7471    0.1877    0.0000 H   0  0  0  0  0  0  0  0  0  0  0  0
    7.3110   -2.7152    0.0000 H   0  0  0  0  0  0  0  0  0  0  0  0
  1  5  1  0  0  0  0
  1  8  1  0  0  0  0
  1 13  1  0  0  0  0
  1 14  2  0  0  0  0
  2  7  1  0  0  0  0
  2  8  1  0  0  0  0
  2 15  1  0  0  0  0
  2 17  2  0  0  0  0
  3 21  1  0  0  0  0
  3 23  1  0  0  0  0
 20  4  1  6  0  0  0
  4 43  1  0  0  0  0
  5 24  1  0  0  0  0
  6 25  1  0  0  0  0
  6 28  1  0  0  0  0
 28  7  1  6  0  0  0
 26  9  1  1  0  0  0
  9 56  1  0  0  0  0
 29 10  1  6  0  0  0
 10 57  1  0  0  0  0
 11 30  2  0  0  0  0
 12 31  2  0  0  0  0
 13 58  1  0  0  0  0
 15 59  1  0  0  0  0
 16 34  2  0  0  0  0
 23 18  1  1  0  0  0
 18 27  1  0  0  0  0
 18 30  1  0  0  0  0
 19 30  1  0  0  0  0
 19 34  1  0  0  0  0
 19 52  1  0  0  0  0
 20 21  1  0  0  0  0
 20 22  1  0  0  0  0
 20 36  1  0  0  0  0
 21 24  1  1  0  0  0
 21 37  1  0  0  0  0
 22 23  1  0  0  0  0
 22 38  1  0  0  0  0
 22 39  1  0  0  0  0
 23 40  1  0  0  0  0
 24 41  1  0  0  0  0
 24 42  1  0  0  0  0
 25 26  1  0  0  0  0
 25 33  1  1  0  0  0
 25 44  1  0  0  0  0
 26 31  1  0  0  0  0
 26 45  1  0  0  0  0
 27 32  2  0  0  0  0
 27 48  1  0  0  0  0
 28 29  1  0  0  0  0
 28 46  1  0  0  0  0
 29 31  1  0  0  0  0
 29 47  1  0  0  0  0
 32 34  1  0  0  0  0
 32 35  1  0  0  0  0
 33 49  1  0  0  0  0
 33 50  1  0  0  0  0
 33 51  1  0  0  0  0
 35 53  1  0  0  0  0
 35 54  1  0  0  0  0
 35 55  1  0  0  0  0
M  END
> <PUBCHEM_COMPOUND_CID>
56927716

> <PUBCHEM_COMPOUND_CANONICALIZED>
1

> <PUBCHEM_CACTVS_COMPLEXITY>
1000

> <PUBCHEM_CACTVS_HBOND_ACCEPTOR>
15

> <PUBCHEM_CACTVS_HBOND_DONOR>
6

> <PUBCHEM_CACTVS_ROTATABLE_BOND>
8

> <PUBCHEM_CACTVS_SUBSKEYS>
AAADceB7PAMAAAAAAAAAAAAAAAAAASAAAAAkQAAAAAAAAAAAAAAAHgAQCCAADBTxgAcDCAPABxCIQoFWUIKAAAAAAAAAAAFIAECREBYAgQAOQAAPJyIHAMHwcAYAAAAAAAAAAAAAAAAAAAAAAAAAAAAAAA==

> <PUBCHEM_IUPAC_OPENEYE_NAME>
[(2R,3S,5S,6R)-3,5-dihydroxy-6-methyl-4-oxo-tetrahydropyran-2-yl] [hydroxy-[[(2R,3S,5R)-3-hydroxy-5-(5-methyl-2,4-dioxo-pyrimidin-1-yl)tetrahydrofuran-2-yl]methoxy]phosphoryl] hydrogen phosphate

> <PUBCHEM_IUPAC_CAS_NAME>
[(2R,3S,5S,6R)-3,5-dihydroxy-6-methyl-4-oxo-2-oxanyl] [hydroxy-[[(2R,3S,5R)-3-hydroxy-5-(5-methyl-2,4-dioxo-1-pyrimidinyl)-2-oxolanyl]methoxy]phosphoryl] hydrogen phosphate

> <PUBCHEM_IUPAC_NAME>
[(2R,3S,5S,6R)-3,5-dihydroxy-6-methyl-4-oxooxan-2-yl] [hydroxy-[[(2R,3S,5R)-3-hydroxy-5-(5-methyl-2,4-dioxopyrimidin-1-yl)oxolan-2-yl]methoxy]phosphoryl] hydrogen phosphate

> <PUBCHEM_IUPAC_SYSTEMATIC_NAME>
[[(2R,3S,5R)-5-[5-methyl-2,4-bis(oxidanylidene)pyrimidin-1-yl]-3-oxidanyl-oxolan-2-yl]methoxy-oxidanyl-phosphoryl] [(2R,3S,5S,6R)-6-methyl-3,5-bis(oxidanyl)-4-oxidanylidene-oxan-2-yl] hydrogen phosphate

> <PUBCHEM_IUPAC_TRADITIONAL_NAME>
[(2R,3S,5S,6R)-3,5-dihydroxy-4-keto-6-methyl-tetrahydropyran-2-yl] [[(2R,3S,5R)-5-(2,4-diketo-5-methyl-pyrimidin-1-yl)-3-hydroxy-tetrahydrofuran-2-yl]methoxy-hydroxy-phosphoryl] hydrogen phosphate

> <PUBCHEM_IUPAC_INCHI>
InChI=1S/C16H24N2O15P2/c1-6-4-18(16(24)17-14(6)23)10-3-8(19)9(31-10)5-29-34(25,26)33-35(27,28)32-15-13(22)12(21)11(20)7(2)30-15/h4,7-11,13,15,19-20,22H,3,5H2,1-2H3,(H,25,26)(H,27,28)(H,17,23,24)/t7-,8+,9-,10-,11+,13-,15-/m1/s1

> <PUBCHEM_IUPAC_INCHIKEY>
GTUIYEAZCHHLMA-FFPQXXRNSA-N

> <PUBCHEM_XLOGP3_AA>
-4.4

> <PUBCHEM_EXACT_MASS>
546.065191

> <PUBCHEM_MOLECULAR_FORMULA>
C16H24N2O15P2

> <PUBCHEM_MOLECULAR_WEIGHT>
546.313684

> <PUBCHEM_OPENEYE_CAN_SMILES>
CC1C(C(=O)C(C(O1)OP(=O)(O)OP(=O)(O)OCC2C(CC(O2)N3C=C(C(=O)NC3=O)C)O)O)O

> <PUBCHEM_OPENEYE_ISO_SMILES>
C[C@@H]1[C@@H](C(=O)[C@H]([C@H](O1)OP(=O)(O)OP(=O)(O)OC[C@@H]2[C@H](C[C@@H](O2)N3C=C(C(=O)NC3=O)C)O)O)O

> <PUBCHEM_CACTVS_TPSA>
248

> <PUBCHEM_MONOISOTOPIC_WEIGHT>
546.065191

> <PUBCHEM_TOTAL_CHARGE>
0

> <PUBCHEM_HEAVY_ATOM_COUNT>
35

> <PUBCHEM_ATOM_DEF_STEREO_COUNT>
7

> <PUBCHEM_ATOM_UDEF_STEREO_COUNT>
0

> <PUBCHEM_BOND_DEF_STEREO_COUNT>
0

> <PUBCHEM_BOND_UDEF_STEREO_COUNT>
0

> <PUBCHEM_ISOTOPIC_ATOM_COUNT>
0

> <PUBCHEM_COMPONENT_COUNT>
1

> <PUBCHEM_CACTVS_TAUTO_COUNT>
21

> <PUBCHEM_COORDINATE_TYPE>
1
5
255

> <PUBCHEM_BONDANNOTATIONS>
29  10  6
23  18  5
18  27  8
18  30  8
19  30  8
19  34  8
21  24  5
25  33  5
27  32  8
32  34  8
20  4  6
28  7  6
26  9  5

$$$$

