5280716
  -OEChem-07051212493D

 26 25  0     1  0  0  0  0  0999 V2000
   -1.4140   -1.2809    2.4484 O   0  0  0  0  0  0  0  0  0  0  0  0
   -3.6692   -0.7436   -0.9053 O   0  0  0  0  0  0  0  0  0  0  0  0
   -1.9808    0.1158   -2.1425 O   0  0  0  0  0  0  0  0  0  0  0  0
   -1.4826    2.0617   -0.0814 O   0  0  0  0  0  0  0  0  0  0  0  0
    0.5477    2.2375    0.9048 O   0  0  0  0  0  0  0  0  0  0  0  0
    3.5381   -1.6915   -0.5232 O   0  0  0  0  0  0  0  0  0  0  0  0
    2.1811    0.1493   -0.0641 N   0  0  0  0  0  0  0  0  0  0  0  0
   -1.4837   -0.7823    0.0877 C   0  0  1  0  0  0  0  0  0  0  0  0
   -0.2299    0.0831    0.1308 C   0  0  0  0  0  0  0  0  0  0  0  0
   -2.2527   -0.7666    1.4164 C   0  0  0  0  0  0  0  0  0  0  0  0
   -2.3684   -0.3986   -1.1015 C   0  0  0  0  0  0  0  0  0  0  0  0
    0.9740   -0.4825   -0.0779 C   0  0  0  0  0  0  0  0  0  0  0  0
   -0.3151    1.5545    0.3745 C   0  0  0  0  0  0  0  0  0  0  0  0
    3.3890   -0.4946   -0.2877 C   0  0  0  0  0  0  0  0  0  0  0  0
    4.5663    0.4388   -0.1791 C   0  0  0  0  0  0  0  0  0  0  0  0
   -1.1911   -1.8253   -0.1005 H   0  0  0  0  0  0  0  0  0  0  0  0
   -3.1405   -1.4058    1.3732 H   0  0  0  0  0  0  0  0  0  0  0  0
   -2.5734    0.2434    1.6927 H   0  0  0  0  0  0  0  0  0  0  0  0
    1.0291   -1.5504   -0.2710 H   0  0  0  0  0  0  0  0  0  0  0  0
    2.1907    1.1482    0.1228 H   0  0  0  0  0  0  0  0  0  0  0  0
   -1.9296   -1.2563    3.2725 H   0  0  0  0  0  0  0  0  0  0  0  0
   -4.2278   -0.5162   -1.6789 H   0  0  0  0  0  0  0  0  0  0  0  0
    5.4543   -0.0382   -0.6029 H   0  0  0  0  0  0  0  0  0  0  0  0
    4.7488    0.6722    0.8732 H   0  0  0  0  0  0  0  0  0  0  0  0
    4.3716    1.3640   -0.7291 H   0  0  0  0  0  0  0  0  0  0  0  0
   -1.5478    3.0287    0.0700 H   0  0  0  0  0  0  0  0  0  0  0  0
  1 10  1  0  0  0  0
  1 21  1  0  0  0  0
  2 11  1  0  0  0  0
  2 22  1  0  0  0  0
  3 11  2  0  0  0  0
  4 13  1  0  0  0  0
  4 26  1  0  0  0  0
  5 13  2  0  0  0  0
  6 14  2  0  0  0  0
  7 12  1  0  0  0  0
  7 14  1  0  0  0  0
  7 20  1  0  0  0  0
  8  9  1  0  0  0  0
  8 10  1  0  0  0  0
  8 11  1  0  0  0  0
  8 16  1  0  0  0  0
  9 12  2  0  0  0  0
  9 13  1  0  0  0  0
 10 17  1  0  0  0  0
 10 18  1  0  0  0  0
 12 19  1  0  0  0  0
 14 15  1  0  0  0  0
 15 23  1  0  0  0  0
 15 24  1  0  0  0  0
 15 25  1  0  0  0  0
M  END
> <PUBCHEM_COMPOUND_CID>
5280716

> <PUBCHEM_CONFORMER_RMSD>
0.6

> <PUBCHEM_CONFORMER_DIVERSEORDER>
1
28
37
27
41
23
39
22
42
30
40
25
11
36
14
21
18
29
3
34
2
9
43
7
38
8
10
20
12
15
19
6
32
13
17
35
24
26
31
5
16
33
4

> <PUBCHEM_MMFF94_PARTIAL_CHARGES>
20
1 -0.68
10 0.28
11 0.66
12 -0.04
13 0.71
14 0.57
15 0.06
19 0.15
2 -0.65
20 0.37
21 0.4
22 0.5
26 0.5
3 -0.57
4 -0.65
5 -0.57
6 -0.57
7 -0.54
8 0.2
9 -0.12

> <PUBCHEM_EFFECTIVE_ROTOR_COUNT>
6

> <PUBCHEM_PHARMACOPHORE_FEATURES>
10
1 1 acceptor
1 1 donor
1 2 acceptor
1 3 acceptor
1 4 acceptor
1 5 acceptor
1 6 acceptor
1 7 donor
3 2 3 11 anion
3 4 5 13 anion

> <PUBCHEM_HEAVY_ATOM_COUNT>
15

> <PUBCHEM_ATOM_DEF_STEREO_COUNT>
0

> <PUBCHEM_ATOM_UDEF_STEREO_COUNT>
1

> <PUBCHEM_BOND_DEF_STEREO_COUNT>
1

> <PUBCHEM_BOND_UDEF_STEREO_COUNT>
0

> <PUBCHEM_ISOTOPIC_ATOM_COUNT>
0

> <PUBCHEM_COMPONENT_COUNT>
1

> <PUBCHEM_CACTVS_TAUTO_COUNT>
4

> <PUBCHEM_CONFORMER_ID>
005093CC00000001

> <PUBCHEM_MMFF94_ENERGY>
28.4266

> <PUBCHEM_FEATURE_SELFOVERLAP>
50.867

> <PUBCHEM_SHAPE_FINGERPRINT>
12932764 1 17749386005695458238
13024252 1 18059285556664468529
14817 1 12578972626395815033
16945 1 18267611094252391797
18186145 218 17704066331052960246
18534176 82 17418374675262029699
187816 3 18131075934969700871
200 152 18408328795888650614
20279233 1 17917710197694618922
20645477 56 16558752321201669638
20645477 70 18339364162583561926
21061003 4 18268129998968065874
21524375 3 17401758018156714832
23526113 38 18201449059813689802
23557571 272 16772105817889081580
23559900 14 17775570823792739474
3248919 1 18130781291992486790
81228 2 18340205314315961192

> <PUBCHEM_SHAPE_MULTIPOLES>
268.5
6.28
1.7
1.52
6.84
0.94
0.3
-1.89
-1.56
0.04
0.43
-1.68
-0.44
0.5

> <PUBCHEM_SHAPE_SELFOVERLAP>
532.137

> <PUBCHEM_SHAPE_VOLUME>
156.9

> <PUBCHEM_COORDINATE_TYPE>
2
5
10

$$$$

