258956
  -OEChem-07051212553D

 42 46  0     1  0  0  0  0  0999 V2000
    1.4625    1.7136   -0.5561 O   0  0  0  0  0  0  0  0  0  0  0  0
   -3.9664    1.6698    0.6283 O   0  0  0  0  0  0  0  0  0  0  0  0
   -4.8406   -0.2757   -0.4911 O   0  0  0  0  0  0  0  0  0  0  0  0
    2.2781    3.7504    0.1672 O   0  0  0  0  0  0  0  0  0  0  0  0
    0.8678   -2.4828    0.0027 N   0  0  2  0  0  0  0  0  0  0  0  0
    1.4194   -1.1376   -0.1357 C   0  0  1  0  0  0  0  0  0  0  0  0
    0.6618   -0.1774    0.7793 C   0  0  1  0  0  0  0  0  0  0  0  0
    2.8442   -1.3081    0.2453 C   0  0  0  0  0  0  0  0  0  0  0  0
    1.4236    1.1686    0.7640 C   0  0  1  0  0  0  0  0  0  0  0  0
    1.9122   -3.3497   -0.5536 C   0  0  0  0  0  0  0  0  0  0  0  0
    3.2283   -2.7307   -0.0319 C   0  0  0  0  0  0  0  0  0  0  0  0
   -0.8102   -0.2063    0.3882 C   0  0  0  0  0  0  0  0  0  0  0  0
   -0.4366   -2.5430   -0.6524 C   0  0  0  0  0  0  0  0  0  0  0  0
    2.8902    0.9798    1.2377 C   0  0  0  0  0  0  0  0  0  0  0  0
   -1.3392   -1.3760   -0.2536 C   0  0  0  0  0  0  0  0  0  0  0  0
    3.5269   -0.3454    0.8764 C   0  0  0  0  0  0  0  0  0  0  0  0
   -1.6705    0.8501    0.7232 C   0  0  0  0  0  0  0  0  0  0  0  0
   -2.7018   -1.4442   -0.5848 C   0  0  0  0  0  0  0  0  0  0  0  0
   -3.0043    0.7375    0.3847 C   0  0  0  0  0  0  0  0  0  0  0  0
   -3.5043   -0.3739   -0.2513 C   0  0  0  0  0  0  0  0  0  0  0  0
    2.1482    2.8861   -0.6891 C   0  0  0  0  0  0  0  0  0  0  0  0
   -5.1263    1.0226    0.0674 C   0  0  0  0  0  0  0  0  0  0  0  0
    2.7370    2.9722   -2.0646 C   0  0  0  0  0  0  0  0  0  0  0  0
    1.3823   -0.8106   -1.1875 H   0  0  0  0  0  0  0  0  0  0  0  0
    0.6916   -0.5510    1.8156 H   0  0  0  0  0  0  0  0  0  0  0  0
    0.9258    1.8925    1.4204 H   0  0  0  0  0  0  0  0  0  0  0  0
    1.9097   -3.3342   -1.6515 H   0  0  0  0  0  0  0  0  0  0  0  0
    1.7997   -4.3867   -0.2222 H   0  0  0  0  0  0  0  0  0  0  0  0
    4.0182   -2.8026   -0.7851 H   0  0  0  0  0  0  0  0  0  0  0  0
    3.5463   -3.2256    0.8919 H   0  0  0  0  0  0  0  0  0  0  0  0
   -0.9257   -3.4840   -0.3750 H   0  0  0  0  0  0  0  0  0  0  0  0
   -0.3308   -2.5207   -1.7450 H   0  0  0  0  0  0  0  0  0  0  0  0
    2.8863    1.0213    2.3352 H   0  0  0  0  0  0  0  0  0  0  0  0
    3.5702    1.7683    0.9053 H   0  0  0  0  0  0  0  0  0  0  0  0
    4.5464   -0.5256    1.2031 H   0  0  0  0  0  0  0  0  0  0  0  0
   -1.3150    1.7347    1.2389 H   0  0  0  0  0  0  0  0  0  0  0  0
   -3.1137   -2.3123   -1.0886 H   0  0  0  0  0  0  0  0  0  0  0  0
   -5.5376    1.6617   -0.7223 H   0  0  0  0  0  0  0  0  0  0  0  0
   -5.8796    0.9077    0.8552 H   0  0  0  0  0  0  0  0  0  0  0  0
    1.9388    2.9571   -2.8109 H   0  0  0  0  0  0  0  0  0  0  0  0
    3.4289    2.1412   -2.2234 H   0  0  0  0  0  0  0  0  0  0  0  0
    3.2905    3.9102   -2.1642 H   0  0  0  0  0  0  0  0  0  0  0  0
  1  9  1  0  0  0  0
  1 21  1  0  0  0  0
  2 19  1  0  0  0  0
  2 22  1  0  0  0  0
  3 20  1  0  0  0  0
  3 22  1  0  0  0  0
  4 21  2  0  0  0  0
  5  6  1  0  0  0  0
  5 10  1  0  0  0  0
  5 13  1  0  0  0  0
  6  7  1  0  0  0  0
  6  8  1  0  0  0  0
  6 24  1  0  0  0  0
  7  9  1  0  0  0  0
  7 12  1  0  0  0  0
  7 25  1  0  0  0  0
  8 11  1  0  0  0  0
  8 16  2  0  0  0  0
  9 14  1  0  0  0  0
  9 26  1  0  0  0  0
 10 11  1  0  0  0  0
 10 27  1  0  0  0  0
 10 28  1  0  0  0  0
 11 29  1  0  0  0  0
 11 30  1  0  0  0  0
 12 15  1  0  0  0  0
 12 17  2  0  0  0  0
 13 15  1  0  0  0  0
 13 31  1  0  0  0  0
 13 32  1  0  0  0  0
 14 16  1  0  0  0  0
 14 33  1  0  0  0  0
 14 34  1  0  0  0  0
 15 18  2  0  0  0  0
 16 35  1  0  0  0  0
 17 19  1  0  0  0  0
 17 36  1  0  0  0  0
 18 20  1  0  0  0  0
 18 37  1  0  0  0  0
 19 20  2  0  0  0  0
 21 23  1  0  0  0  0
 22 38  1  0  0  0  0
 22 39  1  0  0  0  0
 23 40  1  0  0  0  0
 23 41  1  0  0  0  0
 23 42  1  0  0  0  0
M  END
> <PUBCHEM_COMPOUND_CID>
258956

> <PUBCHEM_CONFORMER_RMSD>
0.6

> <PUBCHEM_CONFORMER_DIVERSEORDER>
1
3
2

> <PUBCHEM_MMFF94_PARTIAL_CHARGES>
26
1 -0.43
10 0.27
11 0.14
12 -0.14
13 0.41
14 0.14
15 -0.14
16 -0.29
17 -0.15
18 -0.15
19 0.08
2 -0.36
20 0.08
21 0.66
22 0.56
23 0.06
3 -0.36
35 0.15
36 0.15
37 0.15
4 -0.57
5 -0.81
6 0.41
7 0.14
8 -0.28
9 0.28

> <PUBCHEM_EFFECTIVE_ROTOR_COUNT>
3.6

> <PUBCHEM_PHARMACOPHORE_FEATURES>
9
1 2 acceptor
1 3 acceptor
1 4 acceptor
1 5 cation
5 2 3 19 20 22 rings
5 5 6 8 10 11 rings
6 12 15 17 18 19 20 rings
6 5 6 7 12 13 15 rings
6 6 7 8 9 14 16 rings

> <PUBCHEM_HEAVY_ATOM_COUNT>
23

> <PUBCHEM_ATOM_DEF_STEREO_COUNT>
3

> <PUBCHEM_ATOM_UDEF_STEREO_COUNT>
0

> <PUBCHEM_BOND_DEF_STEREO_COUNT>
0

> <PUBCHEM_BOND_UDEF_STEREO_COUNT>
0

> <PUBCHEM_ISOTOPIC_ATOM_COUNT>
0

> <PUBCHEM_COMPONENT_COUNT>
1

> <PUBCHEM_CACTVS_TAUTO_COUNT>
1

> <PUBCHEM_CONFORMER_ID>
0003F38C00000001

> <PUBCHEM_MMFF94_ENERGY>
62.1393

> <PUBCHEM_FEATURE_SELFOVERLAP>
46.042

> <PUBCHEM_SHAPE_FINGERPRINT>
10763959 59 18127133189885033133
10967382 1 18334019422942486442
11640471 11 17411628995516756836
12173636 292 17833553396751307541
12403259 226 17759528068111475402
12422481 6 18122658130219685008
13134695 92 18200312259348369526
13140716 1 18340212864699019506
13583140 156 17489042521368427899
13836976 161 18410859828146864165
138480 1 18337672035098170256
13965767 371 18125747637276662656
14178342 30 18191890962531972402
14790565 3 18338796702956632080
15196674 1 18187933940563905907
15210252 30 18199730605318536590
15536298 74 18041286568292312731
1601671 61 18411420635481277904
16945 1 18409443661602912770
17134986 127 18196646303093150980
17492 89 18334581239557928191
17980427 23 18044683952264267336
1813 80 18129383868405714130
18681886 176 18262526901072529474
18785283 64 18271514334624016709
19591789 44 16825866267489375211
20642791 178 18341889641817625196
20671657 1 18409444769566967805
20739085 24 17974831067596838763
21267235 1 18115303530816750543
21304253 335 18187650236124407960
21524375 3 17913213061734631088
21641784 216 17765689693130387454
22149856 69 18260823749752515435
22182313 1 18052557726528938596
2255824 54 18411697694741322698
23366157 5 18343023293703158891
23419403 2 16886146387012917826
23558518 356 18196102053142967618
23559900 14 18408890650351358115
2748010 2 18050583033752213974
335352 9 18044378463798766431
350125 39 18266455395562048562
352729 6 18192437363665275994
4409770 3 16900183958937963166
46194498 28 18202286931124959781
474 4 18342461413259423675
5104073 3 18188776166650306611
6287921 2 18341891870710642357
6443956 14 18265052607798480416
7364860 26 18407762538340802424
81228 2 17694208277201851304
84936 182 18189617146383663888
9709674 26 18409730660324446923
9971528 1 18337114574181408232
9981440 41 17978518537517427264

> <PUBCHEM_SHAPE_MULTIPOLES>
444.87
7.7
3.98
1.11
9.5
0.96
0.27
1.81
-0.12
-4.57
1.49
-0.78
0.68
-1.06

> <PUBCHEM_SHAPE_SELFOVERLAP>
993.803

> <PUBCHEM_SHAPE_VOLUME>
236.3

> <PUBCHEM_COORDINATE_TYPE>
2
5
10

$$$$

