442405
  -OEChem-07051212582D

 38 39  0     1  0  0  0  0  0999 V2000
    8.1282    1.5241    0.0000 O   0  0  0  0  0  0  0  0  0  0  0  0
    5.4641    0.0000    0.0000 C   0  0  2  0  0  0  0  0  0  0  0  0
    6.3580   -0.5347    0.0000 C   0  0  1  0  0  0  0  0  0  0  0  0
    4.5981   -0.5000    0.0000 C   0  0  0  0  0  0  0  0  0  0  0  0
    5.4641    1.0000    0.0000 C   0  0  0  0  0  0  0  0  0  0  0  0
    4.5981    1.5000    0.0000 C   0  0  0  0  0  0  0  0  0  0  0  0
    7.2641   -0.0208    0.0000 C   0  0  0  0  0  0  0  0  0  0  0  0
    3.7320    0.0000    0.0000 C   0  0  0  0  0  0  0  0  0  0  0  0
    5.4641   -1.0000    0.0000 C   0  0  0  0  0  0  0  0  0  0  0  0
    3.7320    1.0000    0.0000 C   0  0  0  0  0  0  0  0  0  0  0  0
    6.3465   -1.5346    0.0000 C   0  0  0  0  0  0  0  0  0  0  0  0
    6.3580    1.5346    0.0000 C   0  0  0  0  0  0  0  0  0  0  0  0
    7.2641    1.0208    0.0000 C   0  0  0  0  0  0  0  0  0  0  0  0
    2.8660   -0.5000    0.0000 C   0  0  0  0  0  0  0  0  0  0  0  0
    2.0000    0.0000    0.0000 C   0  0  0  0  0  0  0  0  0  0  0  0
    2.8660   -1.5000    0.0000 C   0  0  0  0  0  0  0  0  0  0  0  0
    6.8920   -0.8499    0.0000 H   0  0  0  0  0  0  0  0  0  0  0  0
    4.1996   -0.9750    0.0000 H   0  0  0  0  0  0  0  0  0  0  0  0
    4.9966   -0.9750    0.0000 H   0  0  0  0  0  0  0  0  0  0  0  0
    4.9966    1.9749    0.0000 H   0  0  0  0  0  0  0  0  0  0  0  0
    4.1996    1.9749    0.0000 H   0  0  0  0  0  0  0  0  0  0  0  0
    7.4732   -0.6045    0.0000 H   0  0  0  0  0  0  0  0  0  0  0  0
    7.8750    0.0852    0.0000 H   0  0  0  0  0  0  0  0  0  0  0  0
    4.8441   -1.0000    0.0000 H   0  0  0  0  0  0  0  0  0  0  0  0
    5.4641   -1.6200    0.0000 H   0  0  0  0  0  0  0  0  0  0  0  0
    6.0841   -1.0000    0.0000 H   0  0  0  0  0  0  0  0  0  0  0  0
    3.5200    1.5826    0.0000 H   0  0  0  0  0  0  0  0  0  0  0  0
    3.1215    0.8923    0.0000 H   0  0  0  0  0  0  0  0  0  0  0  0
    5.7265   -1.5275    0.0000 H   0  0  0  0  0  0  0  0  0  0  0  0
    6.3393   -2.1546    0.0000 H   0  0  0  0  0  0  0  0  0  0  0  0
    6.9664   -1.5418    0.0000 H   0  0  0  0  0  0  0  0  0  0  0  0
    6.3509    2.1546    0.0000 H   0  0  0  0  0  0  0  0  0  0  0  0
    2.3100    0.5369    0.0000 H   0  0  0  0  0  0  0  0  0  0  0  0
    1.4631    0.3100    0.0000 H   0  0  0  0  0  0  0  0  0  0  0  0
    1.6900   -0.5370    0.0000 H   0  0  0  0  0  0  0  0  0  0  0  0
    2.2460   -1.5000    0.0000 H   0  0  0  0  0  0  0  0  0  0  0  0
    2.8660   -2.1200    0.0000 H   0  0  0  0  0  0  0  0  0  0  0  0
    3.4860   -1.5000    0.0000 H   0  0  0  0  0  0  0  0  0  0  0  0
  1 13  2  0  0  0  0
  2  3  1  0  0  0  0
  2  4  1  0  0  0  0
  2  5  1  0  0  0  0
  2  9  1  1  0  0  0
  3  7  1  0  0  0  0
  3 11  1  1  0  0  0
  3 17  1  0  0  0  0
  4  8  1  0  0  0  0
  4 18  1  0  0  0  0
  4 19  1  0  0  0  0
  5  6  1  0  0  0  0
  5 12  2  0  0  0  0
  6 10  1  0  0  0  0
  6 20  1  0  0  0  0
  6 21  1  0  0  0  0
  7 13  1  0  0  0  0
  7 22  1  0  0  0  0
  7 23  1  0  0  0  0
  8 10  1  0  0  0  0
  8 14  2  0  0  0  0
  9 24  1  0  0  0  0
  9 25  1  0  0  0  0
  9 26  1  0  0  0  0
 10 27  1  0  0  0  0
 10 28  1  0  0  0  0
 11 29  1  0  0  0  0
 11 30  1  0  0  0  0
 11 31  1  0  0  0  0
 12 13  1  0  0  0  0
 12 32  1  0  0  0  0
 14 15  1  0  0  0  0
 14 16  1  0  0  0  0
 15 33  1  0  0  0  0
 15 34  1  0  0  0  0
 15 35  1  0  0  0  0
 16 36  1  0  0  0  0
 16 37  1  0  0  0  0
 16 38  1  0  0  0  0
M  END
> <PUBCHEM_COMPOUND_CID>
442405

> <PUBCHEM_COMPOUND_CANONICALIZED>
1

> <PUBCHEM_CACTVS_COMPLEXITY>
382

> <PUBCHEM_CACTVS_HBOND_ACCEPTOR>
1

> <PUBCHEM_CACTVS_HBOND_DONOR>
0

> <PUBCHEM_CACTVS_ROTATABLE_BOND>
0

> <PUBCHEM_CACTVS_SUBSKEYS>
AAADceBwIAAAAAAAAAAAAAAAAAAAAAAAAAAwQAAAAAAAAACAAAAAGgAAAAAADwSAgAACAAAAAACIAqBSAAAAAAAgAAAACAEAAEgAABIAAQAAAAAAgAAIAQMIiMCPgAAAAAAAAAAAAAAAAAAAAAAAAAAAAA==

> <PUBCHEM_IUPAC_OPENEYE_NAME>
(4R,4aS)-6-isopropylidene-4,4a-dimethyl-4,5,7,8-tetrahydro-3H-naphthalen-2-one

> <PUBCHEM_IUPAC_CAS_NAME>
(4R,4aS)-4,4a-dimethyl-6-propan-2-ylidene-4,5,7,8-tetrahydro-3H-naphthalen-2-one

> <PUBCHEM_IUPAC_NAME>
(4R,4aS)-4,4a-dimethyl-6-propan-2-ylidene-4,5,7,8-tetrahydro-3H-naphthalen-2-one

> <PUBCHEM_IUPAC_SYSTEMATIC_NAME>
(4R,4aS)-4,4a-dimethyl-6-propan-2-ylidene-4,5,7,8-tetrahydro-3H-naphthalen-2-one

> <PUBCHEM_IUPAC_TRADITIONAL_NAME>
(4R,4aS)-6-isopropylidene-4,4a-dimethyl-4,5,7,8-tetrahydro-3H-naphthalen-2-one

> <PUBCHEM_IUPAC_INCHI>
InChI=1S/C15H22O/c1-10(2)12-5-6-13-8-14(16)7-11(3)15(13,4)9-12/h8,11H,5-7,9H2,1-4H3/t11-,15+/m1/s1

> <PUBCHEM_IUPAC_INCHIKEY>
NIIPDXITZPFFTE-ABAIWWIYSA-N

> <PUBCHEM_XLOGP3_AA>
3.1

> <PUBCHEM_EXACT_MASS>
218.167065

> <PUBCHEM_MOLECULAR_FORMULA>
C15H22O

> <PUBCHEM_MOLECULAR_WEIGHT>
218.33458

> <PUBCHEM_OPENEYE_CAN_SMILES>
CC1CC(=O)C=C2C1(CC(=C(C)C)CC2)C

> <PUBCHEM_OPENEYE_ISO_SMILES>
C[C@@H]1CC(=O)C=C2[C@]1(CC(=C(C)C)CC2)C

> <PUBCHEM_CACTVS_TPSA>
17.1

> <PUBCHEM_MONOISOTOPIC_WEIGHT>
218.167065

> <PUBCHEM_TOTAL_CHARGE>
0

> <PUBCHEM_HEAVY_ATOM_COUNT>
16

> <PUBCHEM_ATOM_DEF_STEREO_COUNT>
2

> <PUBCHEM_ATOM_UDEF_STEREO_COUNT>
0

> <PUBCHEM_BOND_DEF_STEREO_COUNT>
0

> <PUBCHEM_BOND_UDEF_STEREO_COUNT>
0

> <PUBCHEM_ISOTOPIC_ATOM_COUNT>
0

> <PUBCHEM_COMPONENT_COUNT>
1

> <PUBCHEM_CACTVS_TAUTO_COUNT>
5

> <PUBCHEM_COORDINATE_TYPE>
1
5
255

> <PUBCHEM_BONDANNOTATIONS>
2  9  5
3  11  5

$$$$

