14075
  -OEChem-06241222413D

 11 11  0     0  0  0  0  0  0999 V2000
   -0.7938    0.0000    0.0000 S   0  0  0  0  0  0  0  0  0  0  0  0
    0.2909    1.1095    0.5160 O   0  0  0  0  0  0  0  0  0  0  0  0
    0.2910   -1.1093   -0.5166 O   0  0  0  0  0  0  0  0  0  0  0  0
   -1.4971   -0.5335    1.1489 O   0  0  0  0  0  0  0  0  0  0  0  0
   -1.4983    0.5332   -1.1482 O   0  0  0  0  0  0  0  0  0  0  0  0
    1.6038    0.7624    0.0522 C   0  0  0  0  0  0  0  0  0  0  0  0
    1.6035   -0.7623   -0.0523 C   0  0  0  0  0  0  0  0  0  0  0  0
    2.3642    1.1339    0.7434 H   0  0  0  0  0  0  0  0  0  0  0  0
    1.7434    1.2243   -0.9305 H   0  0  0  0  0  0  0  0  0  0  0  0
    2.3642   -1.1341   -0.7431 H   0  0  0  0  0  0  0  0  0  0  0  0
    1.7427   -1.2243    0.9305 H   0  0  0  0  0  0  0  0  0  0  0  0
  1  2  1  0  0  0  0
  1  3  1  0  0  0  0
  1  4  2  0  0  0  0
  1  5  2  0  0  0  0
  2  6  1  0  0  0  0
  3  7  1  0  0  0  0
  6  7  1  0  0  0  0
  6  8  1  0  0  0  0
  6  9  1  0  0  0  0
  7 10  1  0  0  0  0
  7 11  1  0  0  0  0
M  END
> <PUBCHEM_COMPOUND_CID>
14075

> <PUBCHEM_CONFORMER_RMSD>
0.4

> <PUBCHEM_CONFORMER_DIVERSEORDER>
1

> <PUBCHEM_MMFF94_PARTIAL_CHARGES>
7
1 1.67
2 -0.46
3 -0.46
4 -0.65
5 -0.65
6 0.28
7 0.28

> <PUBCHEM_EFFECTIVE_ROTOR_COUNT>
0.8

> <PUBCHEM_PHARMACOPHORE_FEATURES>
3
1 4 acceptor
1 5 acceptor
5 1 2 3 6 7 rings

> <PUBCHEM_HEAVY_ATOM_COUNT>
7

> <PUBCHEM_ATOM_DEF_STEREO_COUNT>
0

> <PUBCHEM_ATOM_UDEF_STEREO_COUNT>
0

> <PUBCHEM_BOND_DEF_STEREO_COUNT>
0

> <PUBCHEM_BOND_UDEF_STEREO_COUNT>
0

> <PUBCHEM_ISOTOPIC_ATOM_COUNT>
0

> <PUBCHEM_COMPONENT_COUNT>
1

> <PUBCHEM_CACTVS_TAUTO_COUNT>
1

> <PUBCHEM_CONFORMER_ID>
000036FB00000001

> <PUBCHEM_MMFF94_ENERGY>
7.2514

> <PUBCHEM_FEATURE_SELFOVERLAP>
15.239

> <PUBCHEM_SHAPE_FINGERPRINT>
20096714 4 17896309238593259872
21040471 1 18261682458677736716
24536 1 18340204188859897464
29004967 10 18409721876688389666
5943 1 8322063632284066179

> <PUBCHEM_SHAPE_MULTIPOLES>
124.43
2.09
1.12
0.95
0.15
0
0
0
0
0.28
0
-0.46
0
0.26

> <PUBCHEM_SHAPE_SELFOVERLAP>
232.799

> <PUBCHEM_SHAPE_VOLUME>
77.7

> <PUBCHEM_COORDINATE_TYPE>
2
5
10

$$$$

