46173828
  -OEChem-07051213092D

 57 58  0     1  0  0  0  0  0999 V2000
    5.9641   -0.5210    0.0000 O   0  0  0  0  0  0  0  0  0  0  0  0
    4.5981   -1.1550    0.0000 O   0  0  0  0  0  0  0  0  0  0  0  0
    2.8660   -1.1550    0.0000 O   0  0  0  0  0  0  0  0  0  0  0  0
    5.4641   -1.6550    0.0000 O   0  0  0  0  0  0  0  0  0  0  0  0
    4.5981    5.8450    0.0000 O   0  0  0  0  0  0  0  0  0  0  0  0
    5.4641    4.3450    0.0000 O   0  0  0  0  0  0  0  0  0  0  0  0
    4.5981   -3.1550    0.0000 N   0  0  0  0  0  0  0  0  0  0  0  0
    5.4641    0.3450    0.0000 C   0  0  3  0  0  0  0  0  0  0  0  0
    6.4641    0.3450    0.0000 C   0  0  0  0  0  0  0  0  0  0  0  0
    4.5981   -0.1550    0.0000 C   0  0  3  0  0  0  0  0  0  0  0  0
    5.4641    1.3450    0.0000 C   0  0  0  0  0  0  0  0  0  0  0  0
    3.7320    0.3450    0.0000 C   0  0  0  0  0  0  0  0  0  0  0  0
    3.7320   -2.6550    0.0000 C   0  0  3  0  0  0  0  0  0  0  0  0
    2.8660   -3.1550    0.0000 C   0  0  3  0  0  0  0  0  0  0  0  0
    3.7320   -1.6550    0.0000 C   0  0  0  0  0  0  0  0  0  0  0  0
    3.7320    1.3450    0.0000 C   0  0  0  0  0  0  0  0  0  0  0  0
    2.8660   -4.1550    0.0000 C   0  0  0  0  0  0  0  0  0  0  0  0
    2.0000   -2.6550    0.0000 C   0  0  0  0  0  0  0  0  0  0  0  0
    2.0000   -4.6550    0.0000 C   0  0  0  0  0  0  0  0  0  0  0  0
    3.7320   -4.6550    0.0000 C   0  0  0  0  0  0  0  0  0  0  0  0
    2.8660    1.8450    0.0000 C   0  0  0  0  0  0  0  0  0  0  0  0
    5.4641   -2.6550    0.0000 C   0  0  0  0  0  0  0  0  0  0  0  0
    2.0000   -5.6550    0.0000 C   0  0  0  0  0  0  0  0  0  0  0  0
    3.7320   -5.6550    0.0000 C   0  0  0  0  0  0  0  0  0  0  0  0
    2.8660   -6.1550    0.0000 C   0  0  0  0  0  0  0  0  0  0  0  0
    6.3301   -3.1550    0.0000 C   0  0  0  0  0  0  0  0  0  0  0  0
    2.8660    2.8450    0.0000 C   0  0  0  0  0  0  0  0  0  0  0  0
    3.7320    3.3450    0.0000 C   0  0  0  0  0  0  0  0  0  0  0  0
    3.7320    4.3450    0.0000 C   0  0  0  0  0  0  0  0  0  0  0  0
    4.5981    4.8450    0.0000 C   0  0  0  0  0  0  0  0  0  0  0  0
    7.0467    0.1329    0.0000 H   0  0  0  0  0  0  0  0  0  0  0  0
    6.5718    0.9556    0.0000 H   0  0  0  0  0  0  0  0  0  0  0  0
    5.1350   -0.4650    0.0000 H   0  0  0  0  0  0  0  0  0  0  0  0
    6.0841    1.3450    0.0000 H   0  0  0  0  0  0  0  0  0  0  0  0
    5.4641    1.9650    0.0000 H   0  0  0  0  0  0  0  0  0  0  0  0
    4.8441    1.3450    0.0000 H   0  0  0  0  0  0  0  0  0  0  0  0
    3.1951    0.0350    0.0000 H   0  0  0  0  0  0  0  0  0  0  0  0
    3.7320   -3.2750    0.0000 H   0  0  0  0  0  0  0  0  0  0  0  0
    2.8660   -2.5350    0.0000 H   0  0  0  0  0  0  0  0  0  0  0  0
    4.2690    1.6550    0.0000 H   0  0  0  0  0  0  0  0  0  0  0  0
    2.3100   -2.1181    0.0000 H   0  0  0  0  0  0  0  0  0  0  0  0
    1.4631   -2.3450    0.0000 H   0  0  0  0  0  0  0  0  0  0  0  0
    1.6900   -3.1919    0.0000 H   0  0  0  0  0  0  0  0  0  0  0  0
    4.5981   -3.7750    0.0000 H   0  0  0  0  0  0  0  0  0  0  0  0
    1.4631   -4.3450    0.0000 H   0  0  0  0  0  0  0  0  0  0  0  0
    4.2690   -4.3450    0.0000 H   0  0  0  0  0  0  0  0  0  0  0  0
    2.3291    1.5350    0.0000 H   0  0  0  0  0  0  0  0  0  0  0  0
    1.4631   -5.9650    0.0000 H   0  0  0  0  0  0  0  0  0  0  0  0
    4.2690   -5.9650    0.0000 H   0  0  0  0  0  0  0  0  0  0  0  0
    2.8660   -6.7750    0.0000 H   0  0  0  0  0  0  0  0  0  0  0  0
    6.0201   -3.6919    0.0000 H   0  0  0  0  0  0  0  0  0  0  0  0
    6.8671   -3.4650    0.0000 H   0  0  0  0  0  0  0  0  0  0  0  0
    6.6401   -2.6181    0.0000 H   0  0  0  0  0  0  0  0  0  0  0  0
    2.3291    3.1550    0.0000 H   0  0  0  0  0  0  0  0  0  0  0  0
    4.2690    3.0350    0.0000 H   0  0  0  0  0  0  0  0  0  0  0  0
    3.1951    4.6550    0.0000 H   0  0  0  0  0  0  0  0  0  0  0  0
    5.1350    6.1550    0.0000 H   0  0  0  0  0  0  0  0  0  0  0  0
  1  8  1  0  0  0  0
  1  9  1  0  0  0  0
  2 10  1  0  0  0  0
  2 15  1  0  0  0  0
  3 15  2  0  0  0  0
  4 22  2  0  0  0  0
  5 30  1  0  0  0  0
  5 57  1  0  0  0  0
  6 30  2  0  0  0  0
  7 13  1  0  0  0  0
  7 22  1  0  0  0  0
  7 44  1  0  0  0  0
  8  9  1  0  0  0  0
  8 10  1  0  0  0  0
  8 11  1  0  0  0  0
  9 31  1  0  0  0  0
  9 32  1  0  0  0  0
 10 12  1  0  0  0  0
 10 33  1  0  0  0  0
 11 34  1  0  0  0  0
 11 35  1  0  0  0  0
 11 36  1  0  0  0  0
 12 16  2  0  0  0  0
 12 37  1  0  0  0  0
 13 14  1  0  0  0  0
 13 15  1  0  0  0  0
 13 38  1  0  0  0  0
 14 17  1  0  0  0  0
 14 18  1  0  0  0  0
 14 39  1  0  0  0  0
 16 21  1  0  0  0  0
 16 40  1  0  0  0  0
 17 19  2  0  0  0  0
 17 20  1  0  0  0  0
 18 41  1  0  0  0  0
 18 42  1  0  0  0  0
 18 43  1  0  0  0  0
 19 23  1  0  0  0  0
 19 45  1  0  0  0  0
 20 24  2  0  0  0  0
 20 46  1  0  0  0  0
 21 27  2  0  0  0  0
 21 47  1  0  0  0  0
 22 26  1  0  0  0  0
 23 25  2  0  0  0  0
 23 48  1  0  0  0  0
 24 25  1  0  0  0  0
 24 49  1  0  0  0  0
 25 50  1  0  0  0  0
 26 51  1  0  0  0  0
 26 52  1  0  0  0  0
 26 53  1  0  0  0  0
 27 28  1  0  0  0  0
 27 54  1  0  0  0  0
 28 29  2  0  0  0  0
 28 55  1  0  0  0  0
 29 30  1  0  0  0  0
 29 56  1  0  0  0  0
M  END
> <PUBCHEM_COMPOUND_CID>
46173828

> <PUBCHEM_COMPOUND_CANONICALIZED>
1

> <PUBCHEM_CACTVS_COMPLEXITY>
707

> <PUBCHEM_CACTVS_HBOND_ACCEPTOR>
6

> <PUBCHEM_CACTVS_HBOND_DONOR>
2

> <PUBCHEM_CACTVS_ROTATABLE_BOND>
11

> <PUBCHEM_CACTVS_SUBSKEYS>
AAADceB6OAAAAAAAAAAAAAAAEgAAAAAAAAAwAAAAAAAAAAABAAAAHgAQCAAADXzhmAYyCILABgCIAiHSGAACAAAgAAAIiIGIAMgLJDKAsTGHMAAl1gCauYeYyOCOgAAAAAAAAAAAAAAAAAAAAAAAAAAAAA==

> <PUBCHEM_IUPAC_OPENEYE_NAME>
(2E,4Z,6E)-8-(2-acetamido-3-phenyl-butanoyl)oxy-8-(2-methyloxiran-2-yl)octa-2,4,6-trienoic acid

> <PUBCHEM_IUPAC_CAS_NAME>
(2E,4Z,6E)-8-(2-acetamido-1-oxo-3-phenylbutoxy)-8-(2-methyl-2-oxiranyl)octa-2,4,6-trienoic acid

> <PUBCHEM_IUPAC_NAME>
(2E,4Z,6E)-8-(2-acetamido-3-phenylbutanoyl)oxy-8-(2-methyloxiran-2-yl)octa-2,4,6-trienoic acid

> <PUBCHEM_IUPAC_SYSTEMATIC_NAME>
(2E,4Z,6E)-8-(2-acetamido-3-phenyl-butanoyl)oxy-8-(2-methyloxiran-2-yl)octa-2,4,6-trienoic acid

> <PUBCHEM_IUPAC_TRADITIONAL_NAME>
(2E,4Z,6E)-8-(2-acetamido-3-phenyl-butanoyl)oxy-8-(2-methyloxiran-2-yl)octa-2,4,6-trienoic acid

> <PUBCHEM_IUPAC_INCHI>
InChI=1S/C23H27NO6/c1-16(18-11-7-6-8-12-18)21(24-17(2)25)22(28)30-19(23(3)15-29-23)13-9-4-5-10-14-20(26)27/h4-14,16,19,21H,15H2,1-3H3,(H,24,25)(H,26,27)/b5-4-,13-9+,14-10+

> <PUBCHEM_IUPAC_INCHIKEY>
HGSOUJPIFSDBKJ-OUYMFVGOSA-N

> <PUBCHEM_XLOGP3_AA>
2.8

> <PUBCHEM_EXACT_MASS>
413.183838

> <PUBCHEM_MOLECULAR_FORMULA>
C23H27NO6

> <PUBCHEM_MOLECULAR_WEIGHT>
413.46358

> <PUBCHEM_OPENEYE_CAN_SMILES>
CC(C1=CC=CC=C1)C(C(=O)OC(C=CC=CC=CC(=O)O)C2(CO2)C)NC(=O)C

> <PUBCHEM_OPENEYE_ISO_SMILES>
CC(C1=CC=CC=C1)C(C(=O)OC(/C=C/C=C\C=C\C(=O)O)C2(CO2)C)NC(=O)C

> <PUBCHEM_CACTVS_TPSA>
105

> <PUBCHEM_MONOISOTOPIC_WEIGHT>
413.183838

> <PUBCHEM_TOTAL_CHARGE>
0

> <PUBCHEM_HEAVY_ATOM_COUNT>
30

> <PUBCHEM_ATOM_DEF_STEREO_COUNT>
0

> <PUBCHEM_ATOM_UDEF_STEREO_COUNT>
4

> <PUBCHEM_BOND_DEF_STEREO_COUNT>
3

> <PUBCHEM_BOND_UDEF_STEREO_COUNT>
0

> <PUBCHEM_ISOTOPIC_ATOM_COUNT>
0

> <PUBCHEM_COMPONENT_COUNT>
1

> <PUBCHEM_CACTVS_TAUTO_COUNT>
2

> <PUBCHEM_COORDINATE_TYPE>
1
5
255

> <PUBCHEM_BONDANNOTATIONS>
10  12  3
13  15  3
14  18  3
17  19  8
17  20  8
19  23  8
20  24  8
23  25  8
24  25  8
8  11  3

$$$$

