1183
  -OEChem-07051212453D

 19 19  0     0  0  0  0  0  0999 V2000
    2.2627   -0.9870    0.0000 O   0  0  0  0  0  0  0  0  0  0  0  0
    2.3372    1.7917    0.0004 O   0  0  0  0  0  0  0  0  0  0  0  0
   -3.6702   -0.3030    0.0004 O   0  0  0  0  0  0  0  0  0  0  0  0
    1.1085   -0.2634   -0.0001 C   0  0  0  0  0  0  0  0  0  0  0  0
   -1.3066   -0.1985   -0.0002 C   0  0  0  0  0  0  0  0  0  0  0  0
   -0.1177   -0.9281   -0.0001 C   0  0  0  0  0  0  0  0  0  0  0  0
    1.1460    1.1309   -0.0002 C   0  0  0  0  0  0  0  0  0  0  0  0
   -1.2690    1.1959   -0.0002 C   0  0  0  0  0  0  0  0  0  0  0  0
   -0.0428    1.8606   -0.0001 C   0  0  0  0  0  0  0  0  0  0  0  0
   -2.5853   -0.8912   -0.0001 C   0  0  0  0  0  0  0  0  0  0  0  0
    2.1371   -2.4077    0.0001 C   0  0  0  0  0  0  0  0  0  0  0  0
   -0.2062   -2.0095    0.0000 H   0  0  0  0  0  0  0  0  0  0  0  0
   -2.1826    1.7848   -0.0002 H   0  0  0  0  0  0  0  0  0  0  0  0
   -0.0279    2.9473    0.0000 H   0  0  0  0  0  0  0  0  0  0  0  0
   -2.5530   -1.9940   -0.0004 H   0  0  0  0  0  0  0  0  0  0  0  0
    1.6477   -2.7702   -0.9105 H   0  0  0  0  0  0  0  0  0  0  0  0
    1.6479   -2.7701    0.9106 H   0  0  0  0  0  0  0  0  0  0  0  0
    3.1516   -2.8203    0.0000 H   0  0  0  0  0  0  0  0  0  0  0  0
    2.1681    2.7496    0.0005 H   0  0  0  0  0  0  0  0  0  0  0  0
  1  4  1  0  0  0  0
  1 11  1  0  0  0  0
  2  7  1  0  0  0  0
  2 19  1  0  0  0  0
  3 10  2  0  0  0  0
  4  6  1  0  0  0  0
  4  7  2  0  0  0  0
  5  6  2  0  0  0  0
  5  8  1  0  0  0  0
  5 10  1  0  0  0  0
  6 12  1  0  0  0  0
  7  9  1  0  0  0  0
  8  9  2  0  0  0  0
  8 13  1  0  0  0  0
  9 14  1  0  0  0  0
 10 15  1  0  0  0  0
 11 16  1  0  0  0  0
 11 17  1  0  0  0  0
 11 18  1  0  0  0  0
M  END
> <PUBCHEM_COMPOUND_CID>
1183

> <PUBCHEM_CONFORMER_RMSD>
0.4

> <PUBCHEM_CONFORMER_DIVERSEORDER>
6
1
4
5
2
3

> <PUBCHEM_MMFF94_PARTIAL_CHARGES>
16
1 -0.36
10 0.42
11 0.28
12 0.15
13 0.15
14 0.15
15 0.06
19 0.45
2 -0.53
3 -0.57
4 0.08
5 0.09
6 -0.15
7 0.08
8 -0.15
9 -0.15

> <PUBCHEM_EFFECTIVE_ROTOR_COUNT>
2

> <PUBCHEM_PHARMACOPHORE_FEATURES>
4
1 1 acceptor
1 2 donor
1 3 acceptor
6 4 5 6 7 8 9 rings

> <PUBCHEM_HEAVY_ATOM_COUNT>
11

> <PUBCHEM_ATOM_DEF_STEREO_COUNT>
0

> <PUBCHEM_ATOM_UDEF_STEREO_COUNT>
0

> <PUBCHEM_BOND_DEF_STEREO_COUNT>
0

> <PUBCHEM_BOND_UDEF_STEREO_COUNT>
0

> <PUBCHEM_ISOTOPIC_ATOM_COUNT>
0

> <PUBCHEM_COMPONENT_COUNT>
1

> <PUBCHEM_CACTVS_TAUTO_COUNT>
5

> <PUBCHEM_CONFORMER_ID>
0000049F00000006

> <PUBCHEM_MMFF94_ENERGY>
35.4415

> <PUBCHEM_FEATURE_SELFOVERLAP>
20.297

> <PUBCHEM_SHAPE_FINGERPRINT>
13380535 76 18197784293032076018
14128692 85 18338508763504878174
161256 15 18411982472558323156
16945 1 18338798884119068645
193761 8 18266741457579811364
20201158 50 18342178847303205395
20645476 183 17412453633759253764
20645477 70 18410862040809934991
20871998 184 17827367883831359694
20871998 22 18263076785408830110
21040471 1 17545883728617245284
21501502 16 18337947999510761169
23235685 24 18196660583500668289
23402655 69 18336278851641073381
23552423 10 18342452668521314628
241688 4 18268710700058446080
2748010 2 18339650039178577093
29004967 10 18270678649973587225
528862 383 18340775840395961386
528886 8 18193843634710111465
7364860 26 18334295362059338498

> <PUBCHEM_SHAPE_MULTIPOLES>
208.77
3.98
2.24
0.59
2.19
0.05
0
-1.59
0
-1.51
0
0.01
-0.01
0

> <PUBCHEM_SHAPE_SELFOVERLAP>
436.088

> <PUBCHEM_SHAPE_VOLUME>
118.8

> <PUBCHEM_COORDINATE_TYPE>
2
5
10

$$$$

