4784
  -OEChem-07051212523D

 18 18  0     0  0  0  0  0  0999 V2000
    2.0678    0.0087   -0.2021 S   0  0  0  0  0  0  0  0  0  0  0  0
    3.5102   -0.1731    0.4383 F   0  0  0  0  0  0  0  0  0  0  0  0
    1.8440   -1.1896   -0.9885 O   0  0  0  0  0  0  0  0  0  0  0  0
    2.0818    1.3257   -0.8102 O   0  0  0  0  0  0  0  0  0  0  0  0
    0.9361    0.0197    1.1505 C   0  0  0  0  0  0  0  0  0  0  0  0
   -0.4469    0.0103    0.5916 C   0  0  0  0  0  0  0  0  0  0  0  0
   -1.0903   -1.2020    0.3429 C   0  0  0  0  0  0  0  0  0  0  0  0
   -1.0965    1.2137    0.3174 C   0  0  0  0  0  0  0  0  0  0  0  0
   -2.3834   -1.2109   -0.1802 C   0  0  0  0  0  0  0  0  0  0  0  0
   -2.3897    1.2049   -0.2055 C   0  0  0  0  0  0  0  0  0  0  0  0
   -3.0331   -0.0075   -0.4543 C   0  0  0  0  0  0  0  0  0  0  0  0
    1.1292   -0.8683    1.7601 H   0  0  0  0  0  0  0  0  0  0  0  0
    1.1307    0.9072    1.7598 H   0  0  0  0  0  0  0  0  0  0  0  0
   -0.5962   -2.1470    0.5529 H   0  0  0  0  0  0  0  0  0  0  0  0
   -0.6063    2.1650    0.5066 H   0  0  0  0  0  0  0  0  0  0  0  0
   -2.8845   -2.1549   -0.3738 H   0  0  0  0  0  0  0  0  0  0  0  0
   -2.8955    2.1420   -0.4191 H   0  0  0  0  0  0  0  0  0  0  0  0
   -4.0399   -0.0144   -0.8615 H   0  0  0  0  0  0  0  0  0  0  0  0
  1  2  1  0  0  0  0
  1  3  2  0  0  0  0
  1  4  2  0  0  0  0
  1  5  1  0  0  0  0
  5  6  1  0  0  0  0
  5 12  1  0  0  0  0
  5 13  1  0  0  0  0
  6  7  2  0  0  0  0
  6  8  1  0  0  0  0
  7  9  1  0  0  0  0
  7 14  1  0  0  0  0
  8 10  2  0  0  0  0
  8 15  1  0  0  0  0
  9 11  2  0  0  0  0
  9 16  1  0  0  0  0
 10 11  1  0  0  0  0
 10 17  1  0  0  0  0
 11 18  1  0  0  0  0
M  END
> <PUBCHEM_COMPOUND_CID>
4784

> <PUBCHEM_CONFORMER_RMSD>
0.4

> <PUBCHEM_CONFORMER_DIVERSEORDER>
1
10
5
6
3
9
2
4
7
8
11

> <PUBCHEM_MMFF94_PARTIAL_CHARGES>
16
1 1.39
10 -0.15
11 -0.15
14 0.15
15 0.15
16 0.15
17 0.15
18 0.15
2 -0.2
3 -0.65
4 -0.65
5 0.25
6 -0.14
7 -0.15
8 -0.15
9 -0.15

> <PUBCHEM_EFFECTIVE_ROTOR_COUNT>
2

> <PUBCHEM_PHARMACOPHORE_FEATURES>
1
6 6 7 8 9 10 11 rings

> <PUBCHEM_HEAVY_ATOM_COUNT>
11

> <PUBCHEM_ATOM_DEF_STEREO_COUNT>
0

> <PUBCHEM_ATOM_UDEF_STEREO_COUNT>
0

> <PUBCHEM_BOND_DEF_STEREO_COUNT>
0

> <PUBCHEM_BOND_UDEF_STEREO_COUNT>
0

> <PUBCHEM_ISOTOPIC_ATOM_COUNT>
0

> <PUBCHEM_COMPONENT_COUNT>
1

> <PUBCHEM_CACTVS_TAUTO_COUNT>
1

> <PUBCHEM_CONFORMER_ID>
000012B000000001

> <PUBCHEM_MMFF94_ENERGY>
19.1224

> <PUBCHEM_FEATURE_SELFOVERLAP>
5.074

> <PUBCHEM_SHAPE_FINGERPRINT>
12716758 59 18335985362844308835
12897270 3 18335977571594279284
12932764 1 17132120147243261905
13024252 1 17632856421735593387
15310529 11 17748829639336084157
15775835 57 17417815075235179069
16945 1 18342170107155287427
20201158 50 18040437702223298950
20645476 183 17989218053072193339
20653085 51 18130213956466122937
20711985 344 16010969117110292448
21028194 46 16630806608040835467
21061003 4 17022900112458787458
23402539 116 18339095842347178725
23552423 10 18341332279284703939
23559900 14 18187937222351118746
2748010 2 17978246958699019939
29004967 10 16443066092703961195
3248919 1 18334292080366779241
369184 2 16917348112989295969
5084963 1 18336265733935257625

> <PUBCHEM_SHAPE_MULTIPOLES>
211.21
4.72
1.39
0.94
1.45
0.05
0.05
-0.02
-0.79
-0.45
-0.17
0.3
-0.02
-0.01

> <PUBCHEM_SHAPE_SELFOVERLAP>
424.536

> <PUBCHEM_SHAPE_VOLUME>
125.3

> <PUBCHEM_COORDINATE_TYPE>
2
5
10

$$$$

