23724749
  -OEChem-07051213082D

 55 57  0     1  0  0  0  0  0999 V2000
    6.7795    3.9964    0.0000 P   0  0  3  0  0  0  0  0  0  0  0  0
    7.1425    5.6900    0.0000 P   0  0  0  0  0  0  0  0  0  0  0  0
    6.1346    0.5433    0.0000 O   0  0  0  0  0  0  0  0  0  0  0  0
    8.4806   -0.5486    0.0000 O   0  0  0  0  0  0  0  0  0  0  0  0
    8.4843    1.6270    0.0000 O   0  0  0  0  0  0  0  0  0  0  0  0
    7.0868    3.0449    0.0000 O   0  0  0  0  0  0  0  0  0  0  0  0
    6.4721    4.9480    0.0000 O   0  0  0  0  0  0  0  0  0  0  0  0
    7.7310    4.3038    0.0000 O   0  0  0  0  0  0  0  0  0  0  0  0
    5.8279    3.6891    0.0000 O   0  0  0  0  0  0  0  0  0  0  0  0
    7.8129    6.4320    0.0000 O   0  0  0  0  0  0  0  0  0  0  0  0
    6.4005    6.3604    0.0000 O   0  0  0  0  0  0  0  0  0  0  0  0
    7.8845    5.0196    0.0000 O   0  0  0  0  0  0  0  0  0  0  0  0
    6.4103   -1.2173    0.0000 N   0  0  0  0  0  0  0  0  0  0  0  0
    6.4103   -2.8267    0.0000 N   0  0  0  0  0  0  0  0  0  0  0  0
    4.5981   -1.0220    0.0000 N   0  0  0  0  0  0  0  0  0  0  0  0
    4.5981   -4.0220    0.0000 N   0  0  0  0  0  0  0  0  0  0  0  0
    3.7320   -2.5220    0.0000 N   0  0  0  0  0  0  0  0  0  0  0  0
    7.6726    0.0406    0.0000 C   0  0  2  0  0  0  0  0  0  0  0  0
    7.6743    1.0406    0.0000 C   0  0  1  0  0  0  0  0  0  0  0  0
    6.7210   -0.2667    0.0000 C   0  0  1  0  0  0  0  0  0  0  0  0
    6.7238    1.3513    0.0000 C   0  0  1  0  0  0  0  0  0  0  0  0
    6.4164    2.3029    0.0000 C   0  0  0  0  0  0  0  0  0  0  0  0
    5.4641   -1.5220    0.0000 C   0  0  0  0  0  0  0  0  0  0  0  0
    6.9939   -2.0220    0.0000 C   0  0  0  0  0  0  0  0  0  0  0  0
    5.4641   -2.5220    0.0000 C   0  0  0  0  0  0  0  0  0  0  0  0
    4.5981   -3.0220    0.0000 C   0  0  0  0  0  0  0  0  0  0  0  0
    3.7320   -1.5220    0.0000 C   0  0  0  0  0  0  0  0  0  0  0  0
    3.7320   -4.5220    0.0000 C   0  0  0  0  0  0  0  0  0  0  0  0
    3.7320   -5.5220    0.0000 C   0  0  0  0  0  0  0  0  0  0  0  0
    2.8660   -6.0220    0.0000 C   0  0  0  0  0  0  0  0  0  0  0  0
    2.8660   -7.0220    0.0000 C   0  0  0  0  0  0  0  0  0  0  0  0
    2.0000   -5.5220    0.0000 C   0  0  0  0  0  0  0  0  0  0  0  0
    8.2255    0.3211    0.0000 H   0  0  0  0  0  0  0  0  0  0  0  0
    7.5784    1.6532    0.0000 H   0  0  0  0  0  0  0  0  0  0  0  0
    6.1085   -0.3627    0.0000 H   0  0  0  0  0  0  0  0  0  0  0  0
    6.1116    1.4493    0.0000 H   0  0  0  0  0  0  0  0  0  0  0  0
    6.0356    2.7921    0.0000 H   0  0  0  0  0  0  0  0  0  0  0  0
    5.8685    2.0128    0.0000 H   0  0  0  0  0  0  0  0  0  0  0  0
    9.0474   -0.2974    0.0000 H   0  0  0  0  0  0  0  0  0  0  0  0
    9.0503    1.3738    0.0000 H   0  0  0  0  0  0  0  0  0  0  0  0
    7.6139   -2.0220    0.0000 H   0  0  0  0  0  0  0  0  0  0  0  0
    3.1951   -1.2120    0.0000 H   0  0  0  0  0  0  0  0  0  0  0  0
    5.1350   -4.3320    0.0000 H   0  0  0  0  0  0  0  0  0  0  0  0
    3.5200   -3.9394    0.0000 H   0  0  0  0  0  0  0  0  0  0  0  0
    3.1215   -4.6297    0.0000 H   0  0  0  0  0  0  0  0  0  0  0  0
    8.1911    3.8882    0.0000 H   0  0  0  0  0  0  0  0  0  0  0  0
    4.2690   -5.8320    0.0000 H   0  0  0  0  0  0  0  0  0  0  0  0
    2.3100   -4.9851    0.0000 H   0  0  0  0  0  0  0  0  0  0  0  0
    2.2460   -7.0220    0.0000 H   0  0  0  0  0  0  0  0  0  0  0  0
    2.8660   -7.6420    0.0000 H   0  0  0  0  0  0  0  0  0  0  0  0
    3.4860   -7.0220    0.0000 H   0  0  0  0  0  0  0  0  0  0  0  0
    1.4631   -5.2120    0.0000 H   0  0  0  0  0  0  0  0  0  0  0  0
    1.6900   -6.0589    0.0000 H   0  0  0  0  0  0  0  0  0  0  0  0
    7.6224    7.0220    0.0000 H   0  0  0  0  0  0  0  0  0  0  0  0
    5.8105    6.1699    0.0000 H   0  0  0  0  0  0  0  0  0  0  0  0
  1  6  1  0  0  0  0
  1  7  1  0  0  0  0
  1  8  1  0  0  0  0
  1  9  2  0  0  0  0
  2  7  1  0  0  0  0
  2 10  1  0  0  0  0
  2 11  1  0  0  0  0
  2 12  2  0  0  0  0
  3 20  1  0  0  0  0
  3 21  1  0  0  0  0
 18  4  1  1  0  0  0
  4 39  1  0  0  0  0
 19  5  1  1  0  0  0
  5 40  1  0  0  0  0
  6 22  1  0  0  0  0
  8 46  1  0  0  0  0
 10 54  1  0  0  0  0
 11 55  1  0  0  0  0
 20 13  1  6  0  0  0
 13 23  1  0  0  0  0
 13 24  1  0  0  0  0
 14 24  2  0  0  0  0
 14 25  1  0  0  0  0
 15 23  2  0  0  0  0
 15 27  1  0  0  0  0
 16 26  1  0  0  0  0
 16 28  1  0  0  0  0
 16 43  1  0  0  0  0
 17 26  1  0  0  0  0
 17 27  2  0  0  0  0
 18 19  1  0  0  0  0
 18 20  1  0  0  0  0
 18 33  1  0  0  0  0
 19 21  1  0  0  0  0
 19 34  1  0  0  0  0
 20 35  1  0  0  0  0
 21 22  1  6  0  0  0
 21 36  1  0  0  0  0
 22 37  1  0  0  0  0
 22 38  1  0  0  0  0
 23 25  1  0  0  0  0
 24 41  1  0  0  0  0
 25 26  2  0  0  0  0
 27 42  1  0  0  0  0
 28 29  1  0  0  0  0
 28 44  1  0  0  0  0
 28 45  1  0  0  0  0
 29 30  2  0  0  0  0
 29 47  1  0  0  0  0
 30 31  1  0  0  0  0
 30 32  1  0  0  0  0
 31 49  1  0  0  0  0
 31 50  1  0  0  0  0
 31 51  1  0  0  0  0
 32 48  1  0  0  0  0
 32 52  1  0  0  0  0
 32 53  1  0  0  0  0
M  END
> <PUBCHEM_COMPOUND_CID>
23724749

> <PUBCHEM_COMPOUND_CANONICALIZED>
1

> <PUBCHEM_CACTVS_COMPLEXITY>
780

> <PUBCHEM_CACTVS_HBOND_ACCEPTOR>
14

> <PUBCHEM_CACTVS_HBOND_DONOR>
6

> <PUBCHEM_CACTVS_ROTATABLE_BOND>
9

> <PUBCHEM_CACTVS_SUBSKEYS>
AAADceBzvAMAAAAAAAAAAAAAAAAAAWJAAAAsAAAAAAAAAFgB+AAAHgAQCCAADBzhlwYH8L/MFxCgQyZjZICAgC0REKABWKAoVBCDWAJAyUAeRAgPEALTACDwMAIAAAAAAAAAAAAAAAAAAAAAAAAAAAAAAA==

> <PUBCHEM_IUPAC_OPENEYE_NAME>
[(2R,3S,4R,5R)-3,4-dihydroxy-5-[6-(3-methylbut-2-enylamino)purin-9-yl]tetrahydrofuran-2-yl]methyl phosphono hydrogen phosphate

> <PUBCHEM_IUPAC_CAS_NAME>
[(2R,3S,4R,5R)-3,4-dihydroxy-5-[6-(3-methylbut-2-enylamino)-9-purinyl]-2-oxolanyl]methyl phosphono hydrogen phosphate

> <PUBCHEM_IUPAC_NAME>
[(2R,3S,4R,5R)-3,4-dihydroxy-5-[6-(3-methylbut-2-enylamino)purin-9-yl]oxolan-2-yl]methyl phosphono hydrogen phosphate

> <PUBCHEM_IUPAC_SYSTEMATIC_NAME>
[(2R,3S,4R,5R)-5-[6-(3-methylbut-2-enylamino)purin-9-yl]-3,4-bis(oxidanyl)oxolan-2-yl]methyl phosphono hydrogen phosphate

> <PUBCHEM_IUPAC_TRADITIONAL_NAME>
[(2R,3S,4R,5R)-3,4-dihydroxy-5-[6-(3-methylbut-2-enylamino)purin-9-yl]tetrahydrofuran-2-yl]methyl phosphono hydrogen phosphate

> <PUBCHEM_IUPAC_INCHI>
InChI=1S/C15H23N5O10P2/c1-8(2)3-4-16-13-10-14(18-6-17-13)20(7-19-10)15-12(22)11(21)9(29-15)5-28-32(26,27)30-31(23,24)25/h3,6-7,9,11-12,15,21-22H,4-5H2,1-2H3,(H,26,27)(H,16,17,18)(H2,23,24,25)/t9-,11-,12-,15-/m1/s1

> <PUBCHEM_IUPAC_INCHIKEY>
VXMXKDAHJURHEN-SDBHATRESA-N

> <PUBCHEM_XLOGP3>
-2.5

> <PUBCHEM_EXACT_MASS>
495.092015

> <PUBCHEM_MOLECULAR_FORMULA>
C15H23N5O10P2

> <PUBCHEM_MOLECULAR_WEIGHT>
495.318144

> <PUBCHEM_OPENEYE_CAN_SMILES>
CC(=CCNC1=NC=NC2=C1N=CN2C3C(C(C(O3)COP(=O)(O)OP(=O)(O)O)O)O)C

> <PUBCHEM_OPENEYE_ISO_SMILES>
CC(=CCNC1=NC=NC2=C1N=CN2[C@H]3[C@@H]([C@@H]([C@H](O3)COP(=O)(O)OP(=O)(O)O)O)O)C

> <PUBCHEM_CACTVS_TPSA>
219

> <PUBCHEM_MONOISOTOPIC_WEIGHT>
495.092015

> <PUBCHEM_TOTAL_CHARGE>
0

> <PUBCHEM_HEAVY_ATOM_COUNT>
32

> <PUBCHEM_ATOM_DEF_STEREO_COUNT>
4

> <PUBCHEM_ATOM_UDEF_STEREO_COUNT>
0

> <PUBCHEM_BOND_DEF_STEREO_COUNT>
0

> <PUBCHEM_BOND_UDEF_STEREO_COUNT>
0

> <PUBCHEM_ISOTOPIC_ATOM_COUNT>
0

> <PUBCHEM_COMPONENT_COUNT>
1

> <PUBCHEM_CACTVS_TAUTO_COUNT>
3

> <PUBCHEM_COORDINATE_TYPE>
1
5
255

> <PUBCHEM_BONDANNOTATIONS>
20  13  6
13  23  8
13  24  8
14  24  8
14  25  8
15  23  8
15  27  8
17  26  8
17  27  8
21  22  6
23  25  8
25  26  8
18  4  5
19  5  5

$$$$

