9944000
  -OEChem-07051213093D

 36 38  0     1  0  0  0  0  0999 V2000
   -4.1737    3.4564    0.3978 F   0  0  0  0  0  0  0  0  0  0  0  0
   -0.2732   -0.8493   -1.7896 O   0  0  0  0  0  0  0  0  0  0  0  0
   -2.0259   -4.3123    1.2231 O   0  0  0  0  0  0  0  0  0  0  0  0
    6.1891    1.0257    0.5879 N   0  0  0  0  0  0  0  0  0  0  0  0
   -0.3832   -0.6261   -0.3480 C   0  0  2  0  0  0  0  0  0  0  0  0
    1.0027   -0.2200    0.0610 C   0  0  0  0  0  0  0  0  0  0  0  0
   -0.8391   -1.9242    0.3082 C   0  0  0  0  0  0  0  0  0  0  0  0
    1.8560   -0.3069   -1.0304 C   0  0  0  0  0  0  0  0  0  0  0  0
   -1.3892    0.4585   -0.1500 C   0  0  0  0  0  0  0  0  0  0  0  0
    1.1079   -0.7827   -2.2161 C   0  0  0  0  0  0  0  0  0  0  0  0
   -2.1373   -2.4298   -0.3061 C   0  0  0  0  0  0  0  0  0  0  0  0
    1.4734    0.1840    1.3018 C   0  0  0  0  0  0  0  0  0  0  0  0
    3.1997    0.0073   -0.9218 C   0  0  0  0  0  0  0  0  0  0  0  0
   -1.6461    1.3660   -1.1767 C   0  0  0  0  0  0  0  0  0  0  0  0
   -2.0713    0.5622    1.0615 C   0  0  0  0  0  0  0  0  0  0  0  0
    2.8259    0.5080    1.4264 C   0  0  0  0  0  0  0  0  0  0  0  0
    3.6842    0.4206    0.3204 C   0  0  0  0  0  0  0  0  0  0  0  0
   -2.5974   -3.7302    0.3075 C   0  0  0  0  0  0  0  0  0  0  0  0
   -2.5868    2.3792   -0.9915 C   0  0  0  0  0  0  0  0  0  0  0  0
   -3.0121    1.5753    1.2467 C   0  0  0  0  0  0  0  0  0  0  0  0
   -3.2698    2.4839    0.2202 C   0  0  0  0  0  0  0  0  0  0  0  0
    5.0661    0.7544    0.4680 C   0  0  0  0  0  0  0  0  0  0  0  0
   -0.9084   -1.8637    1.4003 H   0  0  0  0  0  0  0  0  0  0  0  0
   -0.0761   -2.6962    0.1255 H   0  0  0  0  0  0  0  0  0  0  0  0
    1.1763   -0.0872   -3.0568 H   0  0  0  0  0  0  0  0  0  0  0  0
    1.4239   -1.7844   -2.5207 H   0  0  0  0  0  0  0  0  0  0  0  0
   -2.9646   -1.7260   -0.1788 H   0  0  0  0  0  0  0  0  0  0  0  0
   -2.0177   -2.6192   -1.3785 H   0  0  0  0  0  0  0  0  0  0  0  0
    0.8163    0.2472    2.1622 H   0  0  0  0  0  0  0  0  0  0  0  0
    3.8524   -0.0708   -1.7863 H   0  0  0  0  0  0  0  0  0  0  0  0
   -1.1251    1.3305   -2.1289 H   0  0  0  0  0  0  0  0  0  0  0  0
   -1.8852   -0.1013    1.8990 H   0  0  0  0  0  0  0  0  0  0  0  0
    3.2036    0.8269    2.3955 H   0  0  0  0  0  0  0  0  0  0  0  0
   -3.5217   -4.1481   -0.1278 H   0  0  0  0  0  0  0  0  0  0  0  0
   -2.7855    3.0891   -1.7889 H   0  0  0  0  0  0  0  0  0  0  0  0
   -3.5399    1.6613    2.1919 H   0  0  0  0  0  0  0  0  0  0  0  0
  1 21  1  0  0  0  0
  2  5  1  0  0  0  0
  2 10  1  0  0  0  0
  3 18  2  0  0  0  0
  4 22  3  0  0  0  0
  5  6  1  0  0  0  0
  5  7  1  0  0  0  0
  5  9  1  0  0  0  0
  6  8  2  0  0  0  0
  6 12  1  0  0  0  0
  7 11  1  0  0  0  0
  7 23  1  0  0  0  0
  7 24  1  0  0  0  0
  8 10  1  0  0  0  0
  8 13  1  0  0  0  0
  9 14  2  0  0  0  0
  9 15  1  0  0  0  0
 10 25  1  0  0  0  0
 10 26  1  0  0  0  0
 11 18  1  0  0  0  0
 11 27  1  0  0  0  0
 11 28  1  0  0  0  0
 12 16  2  0  0  0  0
 12 29  1  0  0  0  0
 13 17  2  0  0  0  0
 13 30  1  0  0  0  0
 14 19  1  0  0  0  0
 14 31  1  0  0  0  0
 15 20  2  0  0  0  0
 15 32  1  0  0  0  0
 16 17  1  0  0  0  0
 16 33  1  0  0  0  0
 17 22  1  0  0  0  0
 18 34  1  0  0  0  0
 19 21  2  0  0  0  0
 19 35  1  0  0  0  0
 20 21  1  0  0  0  0
 20 36  1  0  0  0  0
M  END
> <PUBCHEM_COMPOUND_CID>
9944000

> <PUBCHEM_CONFORMER_RMSD>
0.8

> <PUBCHEM_CONFORMER_DIVERSEORDER>
1
10
4
12
7
3
16
5
15
13
8
6
14
2
9
11

> <PUBCHEM_MMFF94_PARTIAL_CHARGES>
29
1 -0.19
10 0.42
11 0.06
12 -0.15
13 -0.15
14 -0.15
15 -0.15
16 -0.15
17 0.07
18 0.45
19 -0.15
2 -0.56
20 -0.15
21 0.19
22 0.48
29 0.15
3 -0.57
30 0.15
31 0.15
32 0.15
33 0.15
34 0.06
35 0.15
36 0.15
4 -0.56
5 0.57
6 -0.14
8 -0.14
9 -0.14

> <PUBCHEM_EFFECTIVE_ROTOR_COUNT>
4.6

> <PUBCHEM_PHARMACOPHORE_FEATURES>
6
1 2 acceptor
1 3 acceptor
1 4 acceptor
5 2 5 6 8 10 rings
6 6 8 12 13 16 17 rings
6 9 14 15 19 20 21 rings

> <PUBCHEM_HEAVY_ATOM_COUNT>
22

> <PUBCHEM_ATOM_DEF_STEREO_COUNT>
0

> <PUBCHEM_ATOM_UDEF_STEREO_COUNT>
1

> <PUBCHEM_BOND_DEF_STEREO_COUNT>
0

> <PUBCHEM_BOND_UDEF_STEREO_COUNT>
0

> <PUBCHEM_ISOTOPIC_ATOM_COUNT>
0

> <PUBCHEM_COMPONENT_COUNT>
1

> <PUBCHEM_CACTVS_TAUTO_COUNT>
2

> <PUBCHEM_CONFORMER_ID>
0097BBC000000001

> <PUBCHEM_MMFF94_ENERGY>
60.0504

> <PUBCHEM_FEATURE_SELFOVERLAP>
30.527

> <PUBCHEM_SHAPE_FINGERPRINT>
10165383 225 17760604391226157461
11578080 2 17609170737701952580
11646440 116 18264481799057539219
121448 382 18339092565909539959
12532896 13 18336825415693048783
12788726 201 18056181484720398707
12892183 10 16700896187961210800
12930653 34 18409449159556833342
13004483 165 18051974718946765971
13134695 92 16611401649882575277
13140716 1 18123746448930922555
13583140 156 18116453487372806818
13681431 1 17472982801108987839
13955234 65 17547560935644012145
14178342 30 18342734092444299166
14787075 74 17967820448994770993
15842332 3 17559941148514380262
16945 1 18412538786824137111
17980427 26 17904212773044833597
19765921 60 17970923382139777433
200 152 16486145989473607722
20600515 1 17831280719381801187
21033648 29 18267854167663434068
21120745 212 17982714295263648989
21304303 172 18192427473109895795
21524375 3 17971202653544908229
22112679 90 17845355670628257367
22149856 69 17767092649010226785
22182313 1 17458888376416527836
22956985 138 16611956258751648906
23419403 2 17026238285437320750
23493267 7 18333457547247392810
23557571 272 18261670394283563268
25 1 17531529913659769968
283562 15 18197508337210179890
3729539 64 17545858878359081710
3759504 43 18335987540339980304
394222 165 17610908168317051217
427121 178 18194671786378391449
474 4 17822858700651753496
495365 180 17836645597802111365
56616090 46 18263639735773220972
633830 44 17753327866234122181
6442390 28 18265601256027536969
7226269 152 18340215077203769375
7288768 16 17969205893258281937
7364860 26 17404574967247256959
77188 2 17763182432566317555
7808743 9 18411981360568547008
81228 2 18338222770571147399
9981440 41 17170712984146333434

> <PUBCHEM_SHAPE_MULTIPOLES>
428.76
8.09
3.71
1.56
11.54
3.01
0.45
-4.99
-2.33
-7.3
-0.93
0.22
0.12
0.78

> <PUBCHEM_SHAPE_SELFOVERLAP>
940.911

> <PUBCHEM_SHAPE_VOLUME>
233.8

> <PUBCHEM_COORDINATE_TYPE>
2
5
10

$$$$

