582760
  -OEChem-06241222443D

 31 32  0     0  0  0  0  0  0999 V2000
   -5.4876    0.0886   -0.1954 O   0  0  0  0  0  0  0  0  0  0  0  0
   -3.9885   -0.8413    1.2906 O   0  0  0  0  0  0  0  0  0  0  0  0
    1.3742   -0.5171   -1.0454 N   0  0  0  0  0  0  0  0  0  0  0  0
   -0.7418    0.7716   -1.1450 C   0  0  0  0  0  0  0  0  0  0  0  0
    0.6648    0.5610   -0.6426 C   0  0  0  0  0  0  0  0  0  0  0  0
   -1.7710    0.1029   -0.2251 C   0  0  0  0  0  0  0  0  0  0  0  0
    2.6161   -0.4824   -0.4521 C   0  0  0  0  0  0  0  0  0  0  0  0
    2.6598    0.6648    0.3431 C   0  0  0  0  0  0  0  0  0  0  0  0
    1.4021    1.3161    0.2060 C   0  0  0  0  0  0  0  0  0  0  0  0
   -3.2089    0.3692   -0.6702 C   0  0  0  0  0  0  0  0  0  0  0  0
    3.6931   -1.3699   -0.5576 C   0  0  0  0  0  0  0  0  0  0  0  0
    3.8349    0.9420    1.0695 C   0  0  0  0  0  0  0  0  0  0  0  0
    4.8480   -1.0743    0.1721 C   0  0  0  0  0  0  0  0  0  0  0  0
    4.9201    0.0632    0.9738 C   0  0  0  0  0  0  0  0  0  0  0  0
   -4.2398   -0.2175    0.2686 C   0  0  0  0  0  0  0  0  0  0  0  0
   -6.5757   -0.3768    0.6095 C   0  0  0  0  0  0  0  0  0  0  0  0
   -0.9404    1.8491   -1.2027 H   0  0  0  0  0  0  0  0  0  0  0  0
   -0.8382    0.3766   -2.1639 H   0  0  0  0  0  0  0  0  0  0  0  0
   -1.5924   -0.9797   -0.1902 H   0  0  0  0  0  0  0  0  0  0  0  0
   -1.6365    0.4659    0.8025 H   0  0  0  0  0  0  0  0  0  0  0  0
    1.0545   -1.2386   -1.6777 H   0  0  0  0  0  0  0  0  0  0  0  0
    1.0927    2.2347    0.6856 H   0  0  0  0  0  0  0  0  0  0  0  0
   -3.3794    1.4508   -0.7211 H   0  0  0  0  0  0  0  0  0  0  0  0
   -3.3687   -0.0617   -1.6650 H   0  0  0  0  0  0  0  0  0  0  0  0
    3.6379   -2.2556   -1.1813 H   0  0  0  0  0  0  0  0  0  0  0  0
    3.9046    1.8250    1.6982 H   0  0  0  0  0  0  0  0  0  0  0  0
    5.7028   -1.7432    0.1124 H   0  0  0  0  0  0  0  0  0  0  0  0
    5.8289    0.2719    1.5320 H   0  0  0  0  0  0  0  0  0  0  0  0
   -6.5277    0.0709    1.6066 H   0  0  0  0  0  0  0  0  0  0  0  0
   -6.5587   -1.4689    0.6744 H   0  0  0  0  0  0  0  0  0  0  0  0
   -7.5089   -0.0682    0.1309 H   0  0  0  0  0  0  0  0  0  0  0  0
  1 15  1  0  0  0  0
  1 16  1  0  0  0  0
  2 15  2  0  0  0  0
  3  5  1  0  0  0  0
  3  7  1  0  0  0  0
  3 21  1  0  0  0  0
  4  5  1  0  0  0  0
  4  6  1  0  0  0  0
  4 17  1  0  0  0  0
  4 18  1  0  0  0  0
  5  9  2  0  0  0  0
  6 10  1  0  0  0  0
  6 19  1  0  0  0  0
  6 20  1  0  0  0  0
  7  8  1  0  0  0  0
  7 11  2  0  0  0  0
  8  9  1  0  0  0  0
  8 12  2  0  0  0  0
  9 22  1  0  0  0  0
 10 15  1  0  0  0  0
 10 23  1  0  0  0  0
 10 24  1  0  0  0  0
 11 13  1  0  0  0  0
 11 25  1  0  0  0  0
 12 14  1  0  0  0  0
 12 26  1  0  0  0  0
 13 14  2  0  0  0  0
 13 27  1  0  0  0  0
 14 28  1  0  0  0  0
 16 29  1  0  0  0  0
 16 30  1  0  0  0  0
 16 31  1  0  0  0  0
M  END
> <PUBCHEM_COMPOUND_CID>
582760

> <PUBCHEM_CONFORMER_RMSD>
0.6

> <PUBCHEM_CONFORMER_DIVERSEORDER>
1
33
17
110
83
106
99
102
68
111
38
18
52
65
20
26
108
39
70
81
97
109
64
92
32
73
40
104
85
31
82
37
112
105
101
36
42
22
61
74
30
75
28
80
50
35
93
77
103
45
49
56
48
86
72
67
87
43
53
44
107
41
91
76
9
63
90
51
19
27
57
88
79
5
71
46
69
95
89
21
8
78
58
23
66
62
60
96
34
15
29
25
14
7
54
94
13
12
3
100
47
16
55
24
11
4
59
2
98
10
84
6

> <PUBCHEM_MMFF94_PARTIAL_CHARGES>
20
1 -0.43
10 0.06
11 -0.15
12 -0.15
13 -0.15
14 -0.15
15 0.66
16 0.28
2 -0.57
21 0.27
22 0.15
25 0.15
26 0.15
27 0.15
28 0.15
3 0.03
4 0.18
5 -0.33
7 -0.15
9 -0.15

> <PUBCHEM_EFFECTIVE_ROTOR_COUNT>
5

> <PUBCHEM_PHARMACOPHORE_FEATURES>
5
1 2 acceptor
1 3 cation
1 3 donor
5 3 5 7 8 9 rings
6 7 8 11 12 13 14 rings

> <PUBCHEM_HEAVY_ATOM_COUNT>
16

> <PUBCHEM_ATOM_DEF_STEREO_COUNT>
0

> <PUBCHEM_ATOM_UDEF_STEREO_COUNT>
0

> <PUBCHEM_BOND_DEF_STEREO_COUNT>
0

> <PUBCHEM_BOND_UDEF_STEREO_COUNT>
0

> <PUBCHEM_ISOTOPIC_ATOM_COUNT>
0

> <PUBCHEM_COMPONENT_COUNT>
1

> <PUBCHEM_CACTVS_TAUTO_COUNT>
1

> <PUBCHEM_CONFORMER_ID>
0008E46800000001

> <PUBCHEM_MMFF94_ENERGY>
21.9053

> <PUBCHEM_FEATURE_SELFOVERLAP>
25.466

> <PUBCHEM_SHAPE_FINGERPRINT>
10354089 29 17168145628747965992
10498660 4 6627206800933187459
10670039 82 13912866632336621424
10688039 33 18260548947973594233
10693767 8 13110422216306754864
11128504 68 13398627242943630311
12236239 1 16226053279474938229
12251169 10 18040720250989254636
12507560 40 18187367670131324845
12596602 18 17240486883885608267
12714333 28 7997970172047568671
13167372 99 16805596019169732297
13533116 47 17676203615104057006
13675066 3 18409172120727003509
13836976 161 13326854448450818824
14251752 14 14836136468055826247
14252887 29 18261392286729952934
14341114 176 18186800283481682120
14386348 63 18201719565549369227
14576447 43 14692575429170861992
15188451 53 18339362938781515939
15475509 35 17915759733224350010
15885798 251 18272088305553684277
17844677 252 17489587878766754317
19141452 34 18410576150400972719
20374829 77 17275386495574055635
20432913 95 18408039619671633075
21267235 1 18041277768832465254
212847 35 4823215000702650382
221357 26 11167946848795101671
22224240 67 18261121733913111290
231179 274 7637398527947633724
23402539 116 17748835116110587077
23402655 69 11240001161076575485
23559900 14 16988557948991844261
239999 70 18060418010970940850
26918003 58 18407759227269144361
2767999 5 14417853661626092609
2916195 48 6483343422288894655
29717793 49 14764352668907398042
3004659 81 16128654149956181951
3060560 45 11167941372943550680
351380 3 16200434663206572273
3545911 37 7420946482580875181
4047638 21 7132713903332356796
42 15 18335138700220410869
4325135 7 17060334098924577508
465052 167 16702295750472897451
5104073 3 18116724095871327144
5374978 207 17603304860094461520
542803 24 15647054863167161229
5924683 9 17969509212966485647

> <PUBCHEM_SHAPE_MULTIPOLES>
312.55
13.87
1.15
1.09
17.87
0.02
0.04
2.4
5.25
-1.42
0.02
0.31
-0.02
0.67

> <PUBCHEM_SHAPE_SELFOVERLAP>
659.338

> <PUBCHEM_SHAPE_VOLUME>
177.9

> <PUBCHEM_COORDINATE_TYPE>
2
5
10

$$$$

