54746
  -OEChem-07051212542D

 70 73  0     1  0  0  0  0  0999 V2000
    2.8834   -0.1364    0.0000 O   0  0  0  0  0  0  0  0  0  0  0  0
    2.0116    1.3602    0.0000 O   0  0  0  0  0  0  0  0  0  0  0  0
    6.4155   -0.1367    0.0000 N   0  0  3  0  0  0  0  0  0  0  0  0
    7.4035   -4.3268    0.0000 N   0  0  0  0  0  0  0  0  0  0  0  0
    3.7436    1.3669    0.0000 N   0  0  0  0  0  0  0  0  0  0  0  0
    2.8718    2.8636    0.0000 N   0  0  0  0  0  0  0  0  0  0  0  0
    5.4641    4.3736    0.0000 N   0  0  0  0  0  0  0  0  0  0  0  0
    5.5334   -1.6782    0.0000 C   0  0  2  0  0  0  0  0  0  0  0  0
    6.3995   -1.1782    0.0000 C   0  0  1  0  0  0  0  0  0  0  0  0
    4.6234   -1.1713    0.0000 C   0  0  0  0  0  0  0  0  0  0  0  0
    4.6154   -0.1297    0.0000 C   0  0  2  0  0  0  0  0  0  0  0  0
    7.2655   -1.6782    0.0000 C   0  0  0  0  0  0  0  0  0  0  0  0
    5.5175    0.3911    0.0000 C   0  0  0  0  0  0  0  0  0  0  0  0
    5.5334   -2.6782    0.0000 C   0  0  0  0  0  0  0  0  0  0  0  0
    6.3995   -3.1782    0.0000 C   0  0  0  0  0  0  0  0  0  0  0  0
    7.2655   -2.6782    0.0000 C   0  0  0  0  0  0  0  0  0  0  0  0
    7.2873    0.3533    0.0000 C   0  0  0  0  0  0  0  0  0  0  0  0
    3.7475    0.3669    0.0000 C   0  0  0  0  0  0  0  0  0  0  0  0
    6.4155   -4.2197    0.0000 C   0  0  0  0  0  0  0  0  0  0  0  0
    4.6234   -3.1850    0.0000 C   0  0  0  0  0  0  0  0  0  0  0  0
    7.8834   -3.4565    0.0000 C   0  0  0  0  0  0  0  0  0  0  0  0
    5.5175   -4.7474    0.0000 C   0  0  0  0  0  0  0  0  0  0  0  0
    4.6154   -4.2266    0.0000 C   0  0  0  0  0  0  0  0  0  0  0  0
    7.2988    1.3532    0.0000 C   0  0  0  0  0  0  0  0  0  0  0  0
    4.6077    1.8703    0.0000 C   0  0  0  0  0  0  0  0  0  0  0  0
    2.8757    1.8636    0.0000 C   0  0  0  0  0  0  0  0  0  0  0  0
    4.6038    2.8702    0.0000 C   0  0  0  0  0  0  0  0  0  0  0  0
    8.1706    1.8432    0.0000 C   0  0  0  0  0  0  0  0  0  0  0  0
    5.4679    3.3736    0.0000 C   0  0  0  0  0  0  0  0  0  0  0  0
    2.0038    3.3602    0.0000 C   0  0  0  0  0  0  0  0  0  0  0  0
    6.3282    4.8769    0.0000 C   0  0  0  0  0  0  0  0  0  0  0  0
    4.5961    4.8702    0.0000 C   0  0  0  0  0  0  0  0  0  0  0  0
    2.0000    4.3602    0.0000 C   0  0  0  0  0  0  0  0  0  0  0  0
    4.8006   -2.1088    0.0000 H   0  0  0  0  0  0  0  0  0  0  0  0
    7.1388   -0.7589    0.0000 H   0  0  0  0  0  0  0  0  0  0  0  0
    4.0118   -1.0699    0.0000 H   0  0  0  0  0  0  0  0  0  0  0  0
    4.4189   -1.7566    0.0000 H   0  0  0  0  0  0  0  0  0  0  0  0
    4.0803   -0.4428    0.0000 H   0  0  0  0  0  0  0  0  0  0  0  0
    7.8761   -1.7858    0.0000 H   0  0  0  0  0  0  0  0  0  0  0  0
    7.4775   -1.0956    0.0000 H   0  0  0  0  0  0  0  0  0  0  0  0
    5.9184    0.8640    0.0000 H   0  0  0  0  0  0  0  0  0  0  0  0
    5.1202    0.8671    0.0000 H   0  0  0  0  0  0  0  0  0  0  0  0
    7.4926   -0.2317    0.0000 H   0  0  0  0  0  0  0  0  0  0  0  0
    7.8990    0.4539    0.0000 H   0  0  0  0  0  0  0  0  0  0  0  0
    4.0901   -2.8688    0.0000 H   0  0  0  0  0  0  0  0  0  0  0  0
    8.5012   -3.4048    0.0000 H   0  0  0  0  0  0  0  0  0  0  0  0
    7.6895   -4.8769    0.0000 H   0  0  0  0  0  0  0  0  0  0  0  0
    5.5199   -5.3674    0.0000 H   0  0  0  0  0  0  0  0  0  0  0  0
    4.0773   -4.5345    0.0000 H   0  0  0  0  0  0  0  0  0  0  0  0
    6.7655    1.6694    0.0000 H   0  0  0  0  0  0  0  0  0  0  0  0
    4.8220    1.2885    0.0000 H   0  0  0  0  0  0  0  0  0  0  0  0
    5.2178    1.9803    0.0000 H   0  0  0  0  0  0  0  0  0  0  0  0
    4.3895    3.4520    0.0000 H   0  0  0  0  0  0  0  0  0  0  0  0
    3.9937    2.7602    0.0000 H   0  0  0  0  0  0  0  0  0  0  0  0
    8.7039    1.5270    0.0000 H   0  0  0  0  0  0  0  0  0  0  0  0
    8.1778    2.4631    0.0000 H   0  0  0  0  0  0  0  0  0  0  0  0
    5.6822    2.7918    0.0000 H   0  0  0  0  0  0  0  0  0  0  0  0
    6.0781    3.4836    0.0000 H   0  0  0  0  0  0  0  0  0  0  0  0
    3.4075    3.1756    0.0000 H   0  0  0  0  0  0  0  0  0  0  0  0
    1.3929    3.4655    0.0000 H   0  0  0  0  0  0  0  0  0  0  0  0
    1.7940    2.7768    0.0000 H   0  0  0  0  0  0  0  0  0  0  0  0
    6.6402    4.3412    0.0000 H   0  0  0  0  0  0  0  0  0  0  0  0
    6.8639    5.1890    0.0000 H   0  0  0  0  0  0  0  0  0  0  0  0
    6.0161    5.4126    0.0000 H   0  0  0  0  0  0  0  0  0  0  0  0
    4.9041    5.4084    0.0000 H   0  0  0  0  0  0  0  0  0  0  0  0
    4.0580    5.1782    0.0000 H   0  0  0  0  0  0  0  0  0  0  0  0
    4.2882    4.3321    0.0000 H   0  0  0  0  0  0  0  0  0  0  0  0
    2.6200    4.3626    0.0000 H   0  0  0  0  0  0  0  0  0  0  0  0
    1.9976    4.9802    0.0000 H   0  0  0  0  0  0  0  0  0  0  0  0
    1.3800    4.3578    0.0000 H   0  0  0  0  0  0  0  0  0  0  0  0
  1 18  2  0  0  0  0
  2 26  2  0  0  0  0
  3  9  1  0  0  0  0
  3 13  1  0  0  0  0
  3 17  1  0  0  0  0
  4 19  1  0  0  0  0
  4 21  1  0  0  0  0
  4 47  1  0  0  0  0
  5 18  1  0  0  0  0
  5 25  1  0  0  0  0
  5 26  1  0  0  0  0
  6 26  1  0  0  0  0
  6 30  1  0  0  0  0
  6 59  1  0  0  0  0
  7 29  1  0  0  0  0
  7 31  1  0  0  0  0
  7 32  1  0  0  0  0
  8  9  1  0  0  0  0
  8 10  1  0  0  0  0
  8 14  1  0  0  0  0
  8 34  1  6  0  0  0
  9 12  1  0  0  0  0
  9 35  1  1  0  0  0
 10 11  1  0  0  0  0
 10 36  1  0  0  0  0
 10 37  1  0  0  0  0
 11 13  1  0  0  0  0
 11 18  1  1  0  0  0
 11 38  1  0  0  0  0
 12 16  1  0  0  0  0
 12 39  1  0  0  0  0
 12 40  1  0  0  0  0
 13 41  1  0  0  0  0
 13 42  1  0  0  0  0
 14 15  2  0  0  0  0
 14 20  1  0  0  0  0
 15 16  1  0  0  0  0
 15 19  1  0  0  0  0
 16 21  2  0  0  0  0
 17 24  1  0  0  0  0
 17 43  1  0  0  0  0
 17 44  1  0  0  0  0
 19 22  2  0  0  0  0
 20 23  2  0  0  0  0
 20 45  1  0  0  0  0
 21 46  1  0  0  0  0
 22 23  1  0  0  0  0
 22 48  1  0  0  0  0
 23 49  1  0  0  0  0
 24 28  2  0  0  0  0
 24 50  1  0  0  0  0
 25 27  1  0  0  0  0
 25 51  1  0  0  0  0
 25 52  1  0  0  0  0
 27 29  1  0  0  0  0
 27 53  1  0  0  0  0
 27 54  1  0  0  0  0
 28 55  1  0  0  0  0
 28 56  1  0  0  0  0
 29 57  1  0  0  0  0
 29 58  1  0  0  0  0
 30 33  1  0  0  0  0
 30 60  1  0  0  0  0
 30 61  1  0  0  0  0
 31 62  1  0  0  0  0
 31 63  1  0  0  0  0
 31 64  1  0  0  0  0
 32 65  1  0  0  0  0
 32 66  1  0  0  0  0
 32 67  1  0  0  0  0
 33 68  1  0  0  0  0
 33 69  1  0  0  0  0
 33 70  1  0  0  0  0
M  END
> <PUBCHEM_COMPOUND_CID>
54746

> <PUBCHEM_COMPOUND_CANONICALIZED>
1

> <PUBCHEM_CACTVS_COMPLEXITY>
713

> <PUBCHEM_CACTVS_HBOND_ACCEPTOR>
4

> <PUBCHEM_CACTVS_HBOND_DONOR>
2

> <PUBCHEM_CACTVS_ROTATABLE_BOND>
8

> <PUBCHEM_CACTVS_SUBSKEYS>
AAADcfB7sAAAAAAAAAAAAAAAAAAAAWAAAAA8YIAAAAAAAFjx8AAAHgAQAAAADSjBngQ/wPPJkACoAzV3VACCgCAxAiAI2aE4ZJiIIPrA0ZGEIAholyLIyAcYicCegAAAQAASAACQAASAACQAAAAAAAAAAA==

> <PUBCHEM_IUPAC_OPENEYE_NAME>
(6aR,9R,10aR)-7-allyl-N-[3-(dimethylamino)propyl]-N-(ethylcarbamoyl)-6,6a,8,9,10,10a-hexahydro-4H-indolo[4,3-fg]quinoline-9-carboxamide

> <PUBCHEM_IUPAC_CAS_NAME>
(6aR,9R,10aR)-N-[3-(dimethylamino)propyl]-N-(ethylcarbamoyl)-7-prop-2-enyl-6,6a,8,9,10,10a-hexahydro-4H-indolo[4,3-fg]quinoline-9-carboxamide

> <PUBCHEM_IUPAC_NAME>
(6aR,9R,10aR)-N-[3-(dimethylamino)propyl]-N-(ethylcarbamoyl)-7-prop-2-enyl-6,6a,8,9,10,10a-hexahydro-4H-indolo[4,3-fg]quinoline-9-carboxamide

> <PUBCHEM_IUPAC_SYSTEMATIC_NAME>
(6aR,9R,10aR)-N-[3-(dimethylamino)propyl]-N-(ethylcarbamoyl)-7-prop-2-enyl-6,6a,8,9,10,10a-hexahydro-4H-indolo[4,3-fg]quinoline-9-carboxamide

> <PUBCHEM_IUPAC_TRADITIONAL_NAME>
(6aR,9R,10aR)-7-allyl-N-[3-(dimethylamino)propyl]-N-(ethylcarbamoyl)-6,6a,8,9,10,10a-hexahydro-4H-indolo[4,3-fg]quinoline-9-carboxamide

> <PUBCHEM_IUPAC_INCHI>
InChI=1S/C26H37N5O2/c1-5-11-30-17-19(25(32)31(26(33)27-6-2)13-8-12-29(3)4)14-21-20-9-7-10-22-24(20)18(16-28-22)15-23(21)30/h5,7,9-10,16,19,21,23,28H,1,6,8,11-15,17H2,2-4H3,(H,27,33)/t19-,21-,23-/m1/s1

> <PUBCHEM_IUPAC_INCHIKEY>
KORNTPPJEAJQIU-KJXAQDMKSA-N

> <PUBCHEM_XLOGP3_AA>
3.4

> <PUBCHEM_EXACT_MASS>
451.294725

> <PUBCHEM_MOLECULAR_FORMULA>
C26H37N5O2

> <PUBCHEM_MOLECULAR_WEIGHT>
451.60428

> <PUBCHEM_OPENEYE_CAN_SMILES>
CCNC(=O)N(CCCN(C)C)C(=O)C1CC2C(CC3=CNC4=CC=CC2=C34)N(C1)CC=C

> <PUBCHEM_OPENEYE_ISO_SMILES>
CCNC(=O)N(CCCN(C)C)C(=O)[C@@H]1C[C@H]2[C@@H](CC3=CNC4=CC=CC2=C34)N(C1)CC=C

> <PUBCHEM_CACTVS_TPSA>
71.7

> <PUBCHEM_MONOISOTOPIC_WEIGHT>
451.294725

> <PUBCHEM_TOTAL_CHARGE>
0

> <PUBCHEM_HEAVY_ATOM_COUNT>
33

> <PUBCHEM_ATOM_DEF_STEREO_COUNT>
3

> <PUBCHEM_ATOM_UDEF_STEREO_COUNT>
0

> <PUBCHEM_BOND_DEF_STEREO_COUNT>
0

> <PUBCHEM_BOND_UDEF_STEREO_COUNT>
0

> <PUBCHEM_ISOTOPIC_ATOM_COUNT>
0

> <PUBCHEM_COMPONENT_COUNT>
1

> <PUBCHEM_CACTVS_TAUTO_COUNT>
2

> <PUBCHEM_COORDINATE_TYPE>
1
5
255

> <PUBCHEM_BONDANNOTATIONS>
11  18  5
14  15  8
14  20  8
15  16  8
15  19  8
16  21  8
19  22  8
20  23  8
22  23  8
4  19  8
4  21  8
8  34  6
9  35  5

$$$$

