8743
  -OEChem-06261203033D

 18 18  0     0  0  0  0  0  0999 V2000
   -0.0002   -3.2482    0.0010 O   0  0  0  0  0  0  0  0  0  0  0  0
   -2.1530    2.1804    0.0000 O   0  0  0  0  0  0  0  0  0  0  0  0
    2.1531    2.1803    0.0006 O   0  0  0  0  0  0  0  0  0  0  0  0
   -3.5539    0.3727    0.0003 O   0  0  0  0  0  0  0  0  0  0  0  0
    3.5539    0.3726    0.0002 O   0  0  0  0  0  0  0  0  0  0  0  0
    0.0001    0.7636   -0.0002 N   0  0  0  0  0  0  0  0  0  0  0  0
   -1.1938    0.0892   -0.0003 C   0  0  0  0  0  0  0  0  0  0  0  0
    1.1939    0.0891   -0.0004 C   0  0  0  0  0  0  0  0  0  0  0  0
   -1.2807   -1.2494   -0.0005 C   0  0  0  0  0  0  0  0  0  0  0  0
    1.2807   -1.2495   -0.0006 C   0  0  0  0  0  0  0  0  0  0  0  0
    0.0000   -2.0220   -0.0003 C   0  0  0  0  0  0  0  0  0  0  0  0
   -2.4372    0.8607    0.0002 C   0  0  0  0  0  0  0  0  0  0  0  0
    2.4372    0.8605    0.0000 C   0  0  0  0  0  0  0  0  0  0  0  0
    0.0002    1.7758    0.0003 H   0  0  0  0  0  0  0  0  0  0  0  0
   -2.2094   -1.8066   -0.0004 H   0  0  0  0  0  0  0  0  0  0  0  0
    2.2093   -1.8068   -0.0006 H   0  0  0  0  0  0  0  0  0  0  0  0
   -2.9641    2.7323    0.0001 H   0  0  0  0  0  0  0  0  0  0  0  0
    2.9642    2.7321    0.0011 H   0  0  0  0  0  0  0  0  0  0  0  0
  1 11  2  0  0  0  0
  2 12  1  0  0  0  0
  2 17  1  0  0  0  0
  3 13  1  0  0  0  0
  3 18  1  0  0  0  0
  4 12  2  0  0  0  0
  5 13  2  0  0  0  0
  6  7  1  0  0  0  0
  6  8  1  0  0  0  0
  6 14  1  0  0  0  0
  7  9  2  0  0  0  0
  7 12  1  0  0  0  0
  8 10  2  0  0  0  0
  8 13  1  0  0  0  0
  9 11  1  0  0  0  0
  9 15  1  0  0  0  0
 10 11  1  0  0  0  0
 10 16  1  0  0  0  0
M  END
> <PUBCHEM_COMPOUND_CID>
8743

> <PUBCHEM_CONFORMER_RMSD>
0.6

> <PUBCHEM_CONFORMER_DIVERSEORDER>
1
3
2

> <PUBCHEM_MMFF94_PARTIAL_CHARGES>
18
1 -0.57
10 -0.14
11 0.54
12 0.71
13 0.71
14 0.4
15 0.15
16 0.15
17 0.5
18 0.5
2 -0.65
3 -0.65
4 -0.57
5 -0.57
6 -0.6
7 0.11
8 0.11
9 -0.14

> <PUBCHEM_EFFECTIVE_ROTOR_COUNT>
2

> <PUBCHEM_PHARMACOPHORE_FEATURES>
10
1 1 acceptor
1 2 acceptor
1 3 acceptor
1 4 acceptor
1 5 acceptor
1 6 cation
1 6 donor
3 2 4 12 anion
3 3 5 13 anion
6 6 7 8 9 10 11 rings

> <PUBCHEM_HEAVY_ATOM_COUNT>
13

> <PUBCHEM_ATOM_DEF_STEREO_COUNT>
0

> <PUBCHEM_ATOM_UDEF_STEREO_COUNT>
0

> <PUBCHEM_BOND_DEF_STEREO_COUNT>
0

> <PUBCHEM_BOND_UDEF_STEREO_COUNT>
0

> <PUBCHEM_ISOTOPIC_ATOM_COUNT>
0

> <PUBCHEM_COMPONENT_COUNT>
1

> <PUBCHEM_CACTVS_TAUTO_COUNT>
3

> <PUBCHEM_CONFORMER_ID>
0000222700000001

> <PUBCHEM_MMFF94_ENERGY>
31.2417

> <PUBCHEM_FEATURE_SELFOVERLAP>
50.852

> <PUBCHEM_SHAPE_FINGERPRINT>
1 1 18338799030031879894
13380535 76 18410857663446728931
14325111 11 18410575101853705477
14648413 74 17908139129231339745
16945 1 18410856563934873799
17990270 104 17979075217077188467
19021347 11 18338800133970272107
193761 8 18410855468734667687
20510252 161 18190457151770777640
20645477 70 18191310592670700743
20871998 184 17901938656328357406
21028194 46 18343862225332897117
21040471 1 18410856529807269990
21524375 3 18412265038335401074
23402539 116 18117851996837511327
23526114 1 18121780800780304022
23552423 10 18120937462925232191
23559900 14 18261664901933106076
241688 4 16897082240809655291
2748010 2 18411691080438965407
305870 269 18268996547279942416
3071541 12 18048874392550878726
528862 383 18270970170609901307
6333449 129 18266460914536670229
7364860 26 18120373417454729951
81228 2 17833559998216456523

> <PUBCHEM_SHAPE_MULTIPOLES>
233.21
4.34
2.66
0.57
0
1.45
0
-2.65
0
0
0
0
0.02
0

> <PUBCHEM_SHAPE_SELFOVERLAP>
495.707

> <PUBCHEM_SHAPE_VOLUME>
128.1

> <PUBCHEM_COORDINATE_TYPE>
2
5
10

$$$$

