441886
  -OEChem-07051212563D

 76 81  0     1  0  0  0  0  0999 V2000
    3.5479    1.1873   -0.0010 O   0  0  0  0  0  0  0  0  0  0  0  0
    1.2151    2.0115   -1.2357 O   0  0  0  0  0  0  0  0  0  0  0  0
    4.8804   -0.3842    1.1908 O   0  0  0  0  0  0  0  0  0  0  0  0
   -6.9254   -2.0826    0.9144 O   0  0  0  0  0  0  0  0  0  0  0  0
   -8.0152    0.4909    0.1913 O   0  0  0  0  0  0  0  0  0  0  0  0
    0.6281   -0.7586   -0.2653 C   0  0  1  0  0  0  0  0  0  0  0  0
   -0.0010    0.5503    0.2960 C   0  0  2  0  0  0  0  0  0  0  0  0
    2.0656   -0.6760    0.3315 C   0  0  2  0  0  0  0  0  0  0  0  0
   -1.4177    0.7884   -0.2364 C   0  0  1  0  0  0  0  0  0  0  0  0
   -2.3204   -0.3996    0.2385 C   0  0  1  0  0  0  0  0  0  0  0  0
    2.3137    0.8230    0.6072 C   0  0  2  0  0  0  0  0  0  0  0  0
    1.0931    1.6026    0.1123 C   0  0  1  0  0  0  0  0  0  0  0  0
   -3.8137   -0.2212   -0.2252 C   0  0  2  0  0  0  0  0  0  0  0  0
   -0.2170   -1.9182    0.2973 C   0  0  0  0  0  0  0  0  0  0  0  0
   -1.7041   -1.7871   -0.0904 C   0  0  0  0  0  0  0  0  0  0  0  0
    3.2842   -1.0737   -0.5098 C   0  0  1  0  0  0  0  0  0  0  0  0
   -4.3094    1.1570    0.3202 C   0  0  1  0  0  0  0  0  0  0  0  0
   -1.9833    2.1337    0.2401 C   0  0  0  0  0  0  0  0  0  0  0  0
    4.3359   -0.0254   -0.0902 C   0  0  1  0  0  0  0  0  0  0  0  0
   -3.4435    2.3255   -0.1643 C   0  0  0  0  0  0  0  0  0  0  0  0
    0.6333   -0.8726   -1.8098 C   0  0  0  0  0  0  0  0  0  0  0  0
   -4.7166   -1.3207    0.3971 C   0  0  0  0  0  0  0  0  0  0  0  0
   -5.7952    1.4087    0.0379 C   0  0  0  0  0  0  0  0  0  0  0  0
   -3.9264   -0.3115   -1.7685 C   0  0  0  0  0  0  0  0  0  0  0  0
   -6.2144   -1.0931    0.1676 C   0  0  2  0  0  0  0  0  0  0  0  0
    3.6747   -2.5310   -0.3091 C   0  0  0  0  0  0  0  0  0  0  0  0
    5.4394    0.1966   -1.1422 C   0  0  0  0  0  0  0  0  0  0  0  0
   -6.6673    0.2955    0.6172 C   0  0  2  0  0  0  0  0  0  0  0  0
    6.7242   -0.5435   -0.7918 C   0  0  0  0  0  0  0  0  0  0  0  0
    6.0737    0.3267    1.5015 C   0  0  0  0  0  0  0  0  0  0  0  0
    7.2202   -0.1674    0.6131 C   0  0  2  0  0  0  0  0  0  0  0  0
    8.3411    0.8687    0.5655 C   0  0  0  0  0  0  0  0  0  0  0  0
   -0.1019    0.4328    1.3893 H   0  0  0  0  0  0  0  0  0  0  0  0
    2.0886   -1.2006    1.2970 H   0  0  0  0  0  0  0  0  0  0  0  0
   -1.3915    0.8226   -1.3293 H   0  0  0  0  0  0  0  0  0  0  0  0
   -2.3343   -0.3515    1.3395 H   0  0  0  0  0  0  0  0  0  0  0  0
    2.4142    0.9665    1.6918 H   0  0  0  0  0  0  0  0  0  0  0  0
    0.9287    2.4948    0.7248 H   0  0  0  0  0  0  0  0  0  0  0  0
   -0.1458   -1.9405    1.3927 H   0  0  0  0  0  0  0  0  0  0  0  0
    0.1701   -2.8822   -0.0545 H   0  0  0  0  0  0  0  0  0  0  0  0
   -1.8164   -2.0143   -1.1544 H   0  0  0  0  0  0  0  0  0  0  0  0
   -2.2533   -2.5699    0.4453 H   0  0  0  0  0  0  0  0  0  0  0  0
    3.0805   -0.9224   -1.5730 H   0  0  0  0  0  0  0  0  0  0  0  0
   -4.2088    1.1308    1.4167 H   0  0  0  0  0  0  0  0  0  0  0  0
   -1.3949    2.9623   -0.1693 H   0  0  0  0  0  0  0  0  0  0  0  0
   -1.9032    2.2027    1.3327 H   0  0  0  0  0  0  0  0  0  0  0  0
   -3.8077    3.2634    0.2726 H   0  0  0  0  0  0  0  0  0  0  0  0
   -3.5187    2.4414   -1.2515 H   0  0  0  0  0  0  0  0  0  0  0  0
    1.0399   -1.8428   -2.1194 H   0  0  0  0  0  0  0  0  0  0  0  0
   -0.3641   -0.8060   -2.2512 H   0  0  0  0  0  0  0  0  0  0  0  0
    1.2332   -0.0998   -2.2953 H   0  0  0  0  0  0  0  0  0  0  0  0
   -4.5258   -1.3849    1.4777 H   0  0  0  0  0  0  0  0  0  0  0  0
   -4.4571   -2.3106    0.0010 H   0  0  0  0  0  0  0  0  0  0  0  0
   -6.1069    2.3641    0.4801 H   0  0  0  0  0  0  0  0  0  0  0  0
   -5.9842    1.5208   -1.0365 H   0  0  0  0  0  0  0  0  0  0  0  0
   -3.6655   -1.3123   -2.1277 H   0  0  0  0  0  0  0  0  0  0  0  0
   -4.9413   -0.1130   -2.1243 H   0  0  0  0  0  0  0  0  0  0  0  0
   -3.2741    0.3988   -2.2823 H   0  0  0  0  0  0  0  0  0  0  0  0
   -6.4762   -1.2584   -0.8828 H   0  0  0  0  0  0  0  0  0  0  0  0
    3.9281   -2.7485    0.7333 H   0  0  0  0  0  0  0  0  0  0  0  0
    2.8485   -3.1908   -0.5943 H   0  0  0  0  0  0  0  0  0  0  0  0
    4.5355   -2.7935   -0.9303 H   0  0  0  0  0  0  0  0  0  0  0  0
    5.6650    1.2693   -1.2144 H   0  0  0  0  0  0  0  0  0  0  0  0
    5.0956   -0.0899   -2.1428 H   0  0  0  0  0  0  0  0  0  0  0  0
   -6.6667    0.3610    1.7122 H   0  0  0  0  0  0  0  0  0  0  0  0
    0.3924    2.4627   -1.4876 H   0  0  0  0  0  0  0  0  0  0  0  0
    6.5329   -1.6225   -0.8223 H   0  0  0  0  0  0  0  0  0  0  0  0
    7.4921   -0.3494   -1.5494 H   0  0  0  0  0  0  0  0  0  0  0  0
    6.3142    0.1424    2.5541 H   0  0  0  0  0  0  0  0  0  0  0  0
    5.8974    1.4045    1.3969 H   0  0  0  0  0  0  0  0  0  0  0  0
    7.6349   -1.0804    1.0610 H   0  0  0  0  0  0  0  0  0  0  0  0
   -6.7280   -1.9484    1.8571 H   0  0  0  0  0  0  0  0  0  0  0  0
   -8.5478   -0.2290    0.5706 H   0  0  0  0  0  0  0  0  0  0  0  0
    8.0041    1.7981    0.0940 H   0  0  0  0  0  0  0  0  0  0  0  0
    8.6927    1.1071    1.5749 H   0  0  0  0  0  0  0  0  0  0  0  0
    9.1957    0.4905   -0.0055 H   0  0  0  0  0  0  0  0  0  0  0  0
  1 11  1  0  0  0  0
  1 19  1  0  0  0  0
  2 12  1  0  0  0  0
  2 66  1  0  0  0  0
  3 19  1  0  0  0  0
  3 30  1  0  0  0  0
  4 25  1  0  0  0  0
  4 72  1  0  0  0  0
  5 28  1  0  0  0  0
  5 73  1  0  0  0  0
  6  7  1  0  0  0  0
  6  8  1  0  0  0  0
  6 14  1  0  0  0  0
  6 21  1  0  0  0  0
  7  9  1  0  0  0  0
  7 12  1  0  0  0  0
  7 33  1  0  0  0  0
  8 11  1  0  0  0  0
  8 16  1  0  0  0  0
  8 34  1  0  0  0  0
  9 10  1  0  0  0  0
  9 18  1  0  0  0  0
  9 35  1  0  0  0  0
 10 13  1  0  0  0  0
 10 15  1  0  0  0  0
 10 36  1  0  0  0  0
 11 12  1  0  0  0  0
 11 37  1  0  0  0  0
 12 38  1  0  0  0  0
 13 17  1  0  0  0  0
 13 22  1  0  0  0  0
 13 24  1  0  0  0  0
 14 15  1  0  0  0  0
 14 39  1  0  0  0  0
 14 40  1  0  0  0  0
 15 41  1  0  0  0  0
 15 42  1  0  0  0  0
 16 19  1  0  0  0  0
 16 26  1  0  0  0  0
 16 43  1  0  0  0  0
 17 20  1  0  0  0  0
 17 23  1  0  0  0  0
 17 44  1  0  0  0  0
 18 20  1  0  0  0  0
 18 45  1  0  0  0  0
 18 46  1  0  0  0  0
 19 27  1  0  0  0  0
 20 47  1  0  0  0  0
 20 48  1  0  0  0  0
 21 49  1  0  0  0  0
 21 50  1  0  0  0  0
 21 51  1  0  0  0  0
 22 25  1  0  0  0  0
 22 52  1  0  0  0  0
 22 53  1  0  0  0  0
 23 28  1  0  0  0  0
 23 54  1  0  0  0  0
 23 55  1  0  0  0  0
 24 56  1  0  0  0  0
 24 57  1  0  0  0  0
 24 58  1  0  0  0  0
 25 28  1  0  0  0  0
 25 59  1  0  0  0  0
 26 60  1  0  0  0  0
 26 61  1  0  0  0  0
 26 62  1  0  0  0  0
 27 29  1  0  0  0  0
 27 63  1  0  0  0  0
 27 64  1  0  0  0  0
 28 65  1  0  0  0  0
 29 31  1  0  0  0  0
 29 67  1  0  0  0  0
 29 68  1  0  0  0  0
 30 31  1  0  0  0  0
 30 69  1  0  0  0  0
 30 70  1  0  0  0  0
 31 32  1  0  0  0  0
 31 71  1  0  0  0  0
 32 74  1  0  0  0  0
 32 75  1  0  0  0  0
 32 76  1  0  0  0  0
M  END
> <PUBCHEM_COMPOUND_CID>
441886

> <PUBCHEM_CONFORMER_RMSD>
0.8

> <PUBCHEM_CONFORMER_DIVERSEORDER>
1

> <PUBCHEM_MMFF94_PARTIAL_CHARGES>
14
1 -0.56
11 0.28
12 0.28
19 0.56
2 -0.68
25 0.28
28 0.28
3 -0.56
30 0.28
4 -0.68
5 -0.68
66 0.4
72 0.4
73 0.4

> <PUBCHEM_EFFECTIVE_ROTOR_COUNT>
3.2

> <PUBCHEM_PHARMACOPHORE_FEATURES>
14
1 1 acceptor
1 2 acceptor
1 2 donor
1 3 acceptor
1 4 acceptor
1 4 donor
1 5 acceptor
1 5 donor
5 1 8 11 16 19 rings
5 6 7 8 11 12 rings
6 13 17 22 23 25 28 rings
6 3 19 27 29 30 31 rings
6 6 7 9 10 14 15 rings
6 9 10 13 17 18 20 rings

> <PUBCHEM_HEAVY_ATOM_COUNT>
32

> <PUBCHEM_ATOM_DEF_STEREO_COUNT>
14

> <PUBCHEM_ATOM_UDEF_STEREO_COUNT>
0

> <PUBCHEM_BOND_DEF_STEREO_COUNT>
0

> <PUBCHEM_BOND_UDEF_STEREO_COUNT>
0

> <PUBCHEM_ISOTOPIC_ATOM_COUNT>
0

> <PUBCHEM_COMPONENT_COUNT>
1

> <PUBCHEM_CACTVS_TAUTO_COUNT>
1

> <PUBCHEM_CONFORMER_ID>
0006BE1E00000001

> <PUBCHEM_MMFF94_ENERGY>
132.0119

> <PUBCHEM_FEATURE_SELFOVERLAP>
71.447

> <PUBCHEM_SHAPE_FINGERPRINT>
10 15 18335707122479119296
10050765 1 18121779697147782178
10299344 5 17775284962889658570
11315181 36 18060137631253205577
11524674 6 16950281798030543727
11578080 2 16662352593390913082
11646440 116 17967527965262357752
11719270 70 18409168835794881794
11963148 33 18412831265402695258
12107698 1 16487254374408853013
12166972 35 17489304157500905989
12236239 1 17561363984726206549
12516196 113 18259703406741731296
12838862 33 18338533996237483385
13073987 5 18337953501458754562
13811026 1 18335141960411714385
14028597 1 17631743767518870648
14251764 18 18131633374448439306
14341114 176 18410569626355855119
14394314 77 18261669393699433857
14849402 71 18268989800277652508
14856354 85 18201149980204071055
15131766 46 14347799274816025936
15183329 4 18342735230119521896
15419008 47 17822015315299068912
15461852 350 11023816276304426609
15849732 13 18114180826201325196
16087824 20 18339360899031207661
18335252 98 18410287013107725443
18608769 82 18409729534689165259
18681886 176 18412267203231228585
19841028 212 17346046674921680066
20105231 36 18186790379303467950
21033648 29 17459208325842378882
21130935 74 18334293218597111586
21150785 3 16702301239324771102
21267235 1 18410849953995925584
22149856 69 18261658372300720329
22224240 67 17530687601769054471
23522609 53 17773006804899504581
23559900 14 18261120629969697728
23569917 315 18272928354340150650
23569943 247 17978220888306692786
24771750 20 17984127176865605788
3004659 81 18272367560174565140
3178227 256 18113616768599924682
335352 9 18410575063235819485
3383291 50 18340769247616647939
34797466 226 17603301553729487124
350125 39 18411417311002881309
3545911 37 18334013912878785920
4073 2 18201432532806116683
4093350 32 17022898003798935966
4325135 7 18412260648952593389
4340502 62 18343585157552093778
5104073 3 18189898788847833411

> <PUBCHEM_SHAPE_MULTIPOLES>
629.2
20.52
2.09
1.12
5.14
0.07
0.27
-0.22
-4.35
-1.36
0.02
0.56
0.09
0.73

> <PUBCHEM_SHAPE_SELFOVERLAP>
1351.313

> <PUBCHEM_SHAPE_VOLUME>
345.4

> <PUBCHEM_COORDINATE_TYPE>
2
5
10

$$$$

