8763
  -OEChem-06261203042D

 38 37  0     0  0  0  0  0  0999 V2000
    7.1962    1.7500    0.0000 O   0  0  0  0  0  0  0  0  0  0  0  0
    4.5981    1.2500    0.0000 O   0  0  0  0  0  0  0  0  0  0  0  0
    5.4641   -0.2500    0.0000 O   0  0  0  0  0  0  0  0  0  0  0  0
    8.0622    0.2500    0.0000 O   0  0  0  0  0  0  0  0  0  0  0  0
    3.7320    2.7500    0.0000 O   0  0  0  0  0  0  0  0  0  0  0  0
    6.3301   -1.7500    0.0000 O   0  0  0  0  0  0  0  0  0  0  0  0
    6.3301    1.2500    0.0000 C   0  0  0  0  0  0  0  0  0  0  0  0
    5.4641    1.7500    0.0000 C   0  0  0  0  0  0  0  0  0  0  0  0
    6.3301    0.2500    0.0000 C   0  0  0  0  0  0  0  0  0  0  0  0
    8.0622    1.2500    0.0000 C   0  0  0  0  0  0  0  0  0  0  0  0
    8.9282    1.7500    0.0000 C   0  0  0  0  0  0  0  0  0  0  0  0
    5.4641   -1.2500    0.0000 C   0  0  0  0  0  0  0  0  0  0  0  0
    3.7320    1.7500    0.0000 C   0  0  0  0  0  0  0  0  0  0  0  0
    2.8660    1.2500    0.0000 C   0  0  0  0  0  0  0  0  0  0  0  0
    4.5981   -1.7500    0.0000 C   0  0  0  0  0  0  0  0  0  0  0  0
    9.7942    1.2500    0.0000 C   0  0  0  0  0  0  0  0  0  0  0  0
    4.5981   -2.7500    0.0000 C   0  0  0  0  0  0  0  0  0  0  0  0
    2.0000    1.7500    0.0000 C   0  0  0  0  0  0  0  0  0  0  0  0
    6.8671    0.9400    0.0000 H   0  0  0  0  0  0  0  0  0  0  0  0
    6.5422   -0.3326    0.0000 H   0  0  0  0  0  0  0  0  0  0  0  0
    6.9407    0.3577    0.0000 H   0  0  0  0  0  0  0  0  0  0  0  0
    5.8626    2.2250    0.0000 H   0  0  0  0  0  0  0  0  0  0  0  0
    5.0656    2.2250    0.0000 H   0  0  0  0  0  0  0  0  0  0  0  0
    9.3267    2.2250    0.0000 H   0  0  0  0  0  0  0  0  0  0  0  0
    8.5297    2.2250    0.0000 H   0  0  0  0  0  0  0  0  0  0  0  0
    2.4675    0.7751    0.0000 H   0  0  0  0  0  0  0  0  0  0  0  0
    3.2646    0.7751    0.0000 H   0  0  0  0  0  0  0  0  0  0  0  0
    4.3860   -1.1674    0.0000 H   0  0  0  0  0  0  0  0  0  0  0  0
    3.9875   -1.8577    0.0000 H   0  0  0  0  0  0  0  0  0  0  0  0
    9.4842    0.7131    0.0000 H   0  0  0  0  0  0  0  0  0  0  0  0
   10.3312    0.9400    0.0000 H   0  0  0  0  0  0  0  0  0  0  0  0
   10.1042    1.7869    0.0000 H   0  0  0  0  0  0  0  0  0  0  0  0
    3.9781   -2.7500    0.0000 H   0  0  0  0  0  0  0  0  0  0  0  0
    4.5981   -3.3700    0.0000 H   0  0  0  0  0  0  0  0  0  0  0  0
    5.2181   -2.7500    0.0000 H   0  0  0  0  0  0  0  0  0  0  0  0
    2.3100    2.2869    0.0000 H   0  0  0  0  0  0  0  0  0  0  0  0
    1.4631    2.0600    0.0000 H   0  0  0  0  0  0  0  0  0  0  0  0
    1.6900    1.2131    0.0000 H   0  0  0  0  0  0  0  0  0  0  0  0
  1  7  1  0  0  0  0
  1 10  1  0  0  0  0
  2  8  1  0  0  0  0
  2 13  1  0  0  0  0
  3  9  1  0  0  0  0
  3 12  1  0  0  0  0
  4 10  2  0  0  0  0
  5 13  2  0  0  0  0
  6 12  2  0  0  0  0
  7  8  1  0  0  0  0
  7  9  1  0  0  0  0
  7 19  1  0  0  0  0
  8 22  1  0  0  0  0
  8 23  1  0  0  0  0
  9 20  1  0  0  0  0
  9 21  1  0  0  0  0
 10 11  1  0  0  0  0
 11 16  1  0  0  0  0
 11 24  1  0  0  0  0
 11 25  1  0  0  0  0
 12 15  1  0  0  0  0
 13 14  1  0  0  0  0
 14 18  1  0  0  0  0
 14 26  1  0  0  0  0
 14 27  1  0  0  0  0
 15 17  1  0  0  0  0
 15 28  1  0  0  0  0
 15 29  1  0  0  0  0
 16 30  1  0  0  0  0
 16 31  1  0  0  0  0
 16 32  1  0  0  0  0
 17 33  1  0  0  0  0
 17 34  1  0  0  0  0
 17 35  1  0  0  0  0
 18 36  1  0  0  0  0
 18 37  1  0  0  0  0
 18 38  1  0  0  0  0
M  END
> <PUBCHEM_COMPOUND_CID>
8763

> <PUBCHEM_COMPOUND_CANONICALIZED>
1

> <PUBCHEM_CACTVS_COMPLEXITY>
266

> <PUBCHEM_CACTVS_HBOND_ACCEPTOR>
6

> <PUBCHEM_CACTVS_HBOND_DONOR>
0

> <PUBCHEM_CACTVS_ROTATABLE_BOND>
11

> <PUBCHEM_CACTVS_SUBSKEYS>
AAADceBwOAAAAAAAAAAAAAAAAAAAAAAAAAAAAAAAAAAAAAAAAAAAGgAAAAAACBSggAICCAAABAAIAACQCAAAAAAAAAAAAAEAAAABAAAAAAACAAABAAACAAAAAAAAAAAAAAAAAAAAAAAAAAAAAAAAAAAAAA==

> <PUBCHEM_IUPAC_OPENEYE_NAME>
2,3-di(propanoyloxy)propyl propanoate

> <PUBCHEM_IUPAC_CAS_NAME>
propanoic acid 2,3-bis(1-oxopropoxy)propyl ester

> <PUBCHEM_IUPAC_NAME>
2,3-di(propanoyloxy)propyl propanoate

> <PUBCHEM_IUPAC_SYSTEMATIC_NAME>
2,3-di(propanoyloxy)propyl propanoate

> <PUBCHEM_IUPAC_TRADITIONAL_NAME>
propionic acid 2,3-dipropionyloxypropyl ester

> <PUBCHEM_IUPAC_INCHI>
InChI=1S/C12H20O6/c1-4-10(13)16-7-9(18-12(15)6-3)8-17-11(14)5-2/h9H,4-8H2,1-3H3

> <PUBCHEM_IUPAC_INCHIKEY>
YZWRNSARCRTXDS-UHFFFAOYSA-N

> <PUBCHEM_XLOGP3>
1.7

> <PUBCHEM_EXACT_MASS>
260.125988

> <PUBCHEM_MOLECULAR_FORMULA>
C12H20O6

> <PUBCHEM_MOLECULAR_WEIGHT>
260.2836

> <PUBCHEM_OPENEYE_CAN_SMILES>
CCC(=O)OCC(COC(=O)CC)OC(=O)CC

> <PUBCHEM_OPENEYE_ISO_SMILES>
CCC(=O)OCC(COC(=O)CC)OC(=O)CC

> <PUBCHEM_CACTVS_TPSA>
78.9

> <PUBCHEM_MONOISOTOPIC_WEIGHT>
260.125988

> <PUBCHEM_TOTAL_CHARGE>
0

> <PUBCHEM_HEAVY_ATOM_COUNT>
18

> <PUBCHEM_ATOM_DEF_STEREO_COUNT>
0

> <PUBCHEM_ATOM_UDEF_STEREO_COUNT>
0

> <PUBCHEM_BOND_DEF_STEREO_COUNT>
0

> <PUBCHEM_BOND_UDEF_STEREO_COUNT>
0

> <PUBCHEM_ISOTOPIC_ATOM_COUNT>
0

> <PUBCHEM_COMPONENT_COUNT>
1

> <PUBCHEM_CACTVS_TAUTO_COUNT>
1

> <PUBCHEM_COORDINATE_TYPE>
1
5
255

$$$$

