441832
  -OEChem-07051212563D

 77 81  0     1  0  0  0  0  0999 V2000
    7.7365   -0.7170   -0.5122 O   0  0  0  0  0  0  0  0  0  0  0  0
    2.0660   -0.3358    0.2025 C   0  0  1  0  0  0  0  0  0  0  0  0
    3.5555   -0.4471   -0.2047 C   0  0  2  0  0  0  0  0  0  0  0  0
    3.1484   -0.6409    1.2303 C   0  0  0  0  0  0  0  0  0  0  0  0
    1.4343    1.0759    0.3499 C   0  0  2  0  0  0  0  0  0  0  0  0
   -0.0917    1.0704    0.0763 C   0  0  1  0  0  0  0  0  0  0  0  0
    4.2950    0.8114   -0.6466 C   0  0  1  0  0  0  0  0  0  0  0  0
    1.1479   -1.4961   -0.2021 C   0  0  0  0  0  0  0  0  0  0  0  0
   -0.7492   -0.1131    0.8602 C   0  0  2  0  0  0  0  0  0  0  0  0
    4.1150   -1.6805   -0.8995 C   0  0  0  0  0  0  0  0  0  0  0  0
    2.2021    2.1494   -0.4392 C   0  0  0  0  0  0  0  0  0  0  0  0
   -0.3360   -1.4290    0.2012 C   0  0  0  0  0  0  0  0  0  0  0  0
    3.6907    2.1071   -0.1090 C   0  0  0  0  0  0  0  0  0  0  0  0
   -2.2583    0.2337    0.7430 C   0  0  2  0  0  0  0  0  0  0  0  0
   -0.8581    2.2766    0.6586 C   0  0  0  0  0  0  0  0  0  0  0  0
    5.7819    0.6880   -0.2935 C   0  0  0  0  0  0  0  0  0  0  0  0
   -2.2950    1.7712    0.8923 C   0  0  0  0  0  0  0  0  0  0  0  0
    5.6087   -1.8226   -0.5974 C   0  0  0  0  0  0  0  0  0  0  0  0
   -0.3681    1.0560   -1.4592 C   0  0  0  0  0  0  0  0  0  0  0  0
    6.3915   -0.5562   -0.9492 C   0  0  2  0  0  0  0  0  0  0  0  0
   -0.3544   -0.1899    2.3659 C   0  0  0  0  0  0  0  0  0  0  0  0
   -3.2132   -0.4701    1.7008 C   0  0  1  0  0  0  0  0  0  0  0  0
   -4.6854   -0.0714    1.4728 C   0  0  0  0  0  0  0  0  0  0  0  0
   -3.0712   -1.9899    1.5578 C   0  0  0  0  0  0  0  0  0  0  0  0
   -5.2390   -0.3152    0.0625 C   0  0  0  0  0  0  0  0  0  0  0  0
   -6.6814    0.1678   -0.1197 C   0  0  0  0  0  0  0  0  0  0  0  0
   -7.2603   -0.1418   -1.5141 C   0  0  0  0  0  0  0  0  0  0  0  0
   -7.2218   -1.6340   -1.8478 C   0  0  0  0  0  0  0  0  0  0  0  0
   -6.4904    0.6430   -2.5798 C   0  0  0  0  0  0  0  0  0  0  0  0
    3.1860   -1.6389    1.6551 H   0  0  0  0  0  0  0  0  0  0  0  0
    3.4271    0.1159    1.9547 H   0  0  0  0  0  0  0  0  0  0  0  0
    1.5609    1.3623    1.4039 H   0  0  0  0  0  0  0  0  0  0  0  0
    4.2172    0.8592   -1.7430 H   0  0  0  0  0  0  0  0  0  0  0  0
    1.5440   -2.4415    0.1897 H   0  0  0  0  0  0  0  0  0  0  0  0
    1.2023   -1.5970   -1.2936 H   0  0  0  0  0  0  0  0  0  0  0  0
    3.9573   -1.5888   -1.9809 H   0  0  0  0  0  0  0  0  0  0  0  0
    3.6116   -2.5990   -0.5814 H   0  0  0  0  0  0  0  0  0  0  0  0
    1.8066    3.1420   -0.1946 H   0  0  0  0  0  0  0  0  0  0  0  0
    2.0856    2.0102   -1.5196 H   0  0  0  0  0  0  0  0  0  0  0  0
   -0.9392   -1.6207   -0.6957 H   0  0  0  0  0  0  0  0  0  0  0  0
   -0.5249   -2.2837    0.8575 H   0  0  0  0  0  0  0  0  0  0  0  0
    4.1892    2.9644   -0.5772 H   0  0  0  0  0  0  0  0  0  0  0  0
    3.8447    2.2045    0.9720 H   0  0  0  0  0  0  0  0  0  0  0  0
   -2.5705   -0.0162   -0.2762 H   0  0  0  0  0  0  0  0  0  0  0  0
   -0.8486    3.1518   -0.0002 H   0  0  0  0  0  0  0  0  0  0  0  0
   -0.4249    2.6008    1.6122 H   0  0  0  0  0  0  0  0  0  0  0  0
    6.3339    1.5770   -0.6231 H   0  0  0  0  0  0  0  0  0  0  0  0
    5.9162    0.6374    0.7951 H   0  0  0  0  0  0  0  0  0  0  0  0
   -2.6331    2.0879    1.8854 H   0  0  0  0  0  0  0  0  0  0  0  0
   -2.9817    2.2070    0.1577 H   0  0  0  0  0  0  0  0  0  0  0  0
    5.7491   -2.0563    0.4664 H   0  0  0  0  0  0  0  0  0  0  0  0
    6.0229   -2.6772   -1.1458 H   0  0  0  0  0  0  0  0  0  0  0  0
   -0.0919    2.0142   -1.9143 H   0  0  0  0  0  0  0  0  0  0  0  0
    0.1985    0.2822   -1.9822 H   0  0  0  0  0  0  0  0  0  0  0  0
   -1.4215    0.9085   -1.7095 H   0  0  0  0  0  0  0  0  0  0  0  0
    6.4116   -0.4267   -2.0374 H   0  0  0  0  0  0  0  0  0  0  0  0
   -0.8386   -1.0171    2.8896 H   0  0  0  0  0  0  0  0  0  0  0  0
    0.7149   -0.3559    2.5138 H   0  0  0  0  0  0  0  0  0  0  0  0
   -0.6133    0.7247    2.9085 H   0  0  0  0  0  0  0  0  0  0  0  0
   -2.9833   -0.2029    2.7397 H   0  0  0  0  0  0  0  0  0  0  0  0
   -5.3156   -0.6072    2.1949 H   0  0  0  0  0  0  0  0  0  0  0  0
   -4.8069    0.9921    1.7141 H   0  0  0  0  0  0  0  0  0  0  0  0
   -3.0327   -2.3078    0.5110 H   0  0  0  0  0  0  0  0  0  0  0  0
   -3.9311   -2.4965    2.0130 H   0  0  0  0  0  0  0  0  0  0  0  0
   -2.2029   -2.3854    2.0849 H   0  0  0  0  0  0  0  0  0  0  0  0
    7.7290   -0.8161    0.4551 H   0  0  0  0  0  0  0  0  0  0  0  0
   -4.6109    0.2027   -0.6659 H   0  0  0  0  0  0  0  0  0  0  0  0
   -5.1730   -1.3861   -0.1505 H   0  0  0  0  0  0  0  0  0  0  0  0
   -6.7337    1.2472    0.0696 H   0  0  0  0  0  0  0  0  0  0  0  0
   -7.3149   -0.3122    0.6370 H   0  0  0  0  0  0  0  0  0  0  0  0
   -8.3055    0.1914   -1.5243 H   0  0  0  0  0  0  0  0  0  0  0  0
   -6.2034   -2.0010   -2.0095 H   0  0  0  0  0  0  0  0  0  0  0  0
   -7.7843   -1.8288   -2.7677 H   0  0  0  0  0  0  0  0  0  0  0  0
   -7.6802   -2.2243   -1.0476 H   0  0  0  0  0  0  0  0  0  0  0  0
   -5.4670    0.2779   -2.7113 H   0  0  0  0  0  0  0  0  0  0  0  0
   -6.9925    0.5516   -3.5495 H   0  0  0  0  0  0  0  0  0  0  0  0
   -6.4480    1.7085   -2.3307 H   0  0  0  0  0  0  0  0  0  0  0  0
  1 20  1  0  0  0  0
  1 66  1  0  0  0  0
  2  3  1  0  0  0  0
  2  4  1  0  0  0  0
  2  5  1  0  0  0  0
  2  8  1  0  0  0  0
  3  4  1  0  0  0  0
  3  7  1  0  0  0  0
  3 10  1  0  0  0  0
  4 30  1  0  0  0  0
  4 31  1  0  0  0  0
  5  6  1  0  0  0  0
  5 11  1  0  0  0  0
  5 32  1  0  0  0  0
  6  9  1  0  0  0  0
  6 15  1  0  0  0  0
  6 19  1  0  0  0  0
  7 13  1  0  0  0  0
  7 16  1  0  0  0  0
  7 33  1  0  0  0  0
  8 12  1  0  0  0  0
  8 34  1  0  0  0  0
  8 35  1  0  0  0  0
  9 12  1  0  0  0  0
  9 14  1  0  0  0  0
  9 21  1  0  0  0  0
 10 18  1  0  0  0  0
 10 36  1  0  0  0  0
 10 37  1  0  0  0  0
 11 13  1  0  0  0  0
 11 38  1  0  0  0  0
 11 39  1  0  0  0  0
 12 40  1  0  0  0  0
 12 41  1  0  0  0  0
 13 42  1  0  0  0  0
 13 43  1  0  0  0  0
 14 17  1  0  0  0  0
 14 22  1  0  0  0  0
 14 44  1  0  0  0  0
 15 17  1  0  0  0  0
 15 45  1  0  0  0  0
 15 46  1  0  0  0  0
 16 20  1  0  0  0  0
 16 47  1  0  0  0  0
 16 48  1  0  0  0  0
 17 49  1  0  0  0  0
 17 50  1  0  0  0  0
 18 20  1  0  0  0  0
 18 51  1  0  0  0  0
 18 52  1  0  0  0  0
 19 53  1  0  0  0  0
 19 54  1  0  0  0  0
 19 55  1  0  0  0  0
 20 56  1  0  0  0  0
 21 57  1  0  0  0  0
 21 58  1  0  0  0  0
 21 59  1  0  0  0  0
 22 23  1  0  0  0  0
 22 24  1  0  0  0  0
 22 60  1  0  0  0  0
 23 25  1  0  0  0  0
 23 61  1  0  0  0  0
 23 62  1  0  0  0  0
 24 63  1  0  0  0  0
 24 64  1  0  0  0  0
 24 65  1  0  0  0  0
 25 26  1  0  0  0  0
 25 67  1  0  0  0  0
 25 68  1  0  0  0  0
 26 27  1  0  0  0  0
 26 69  1  0  0  0  0
 26 70  1  0  0  0  0
 27 28  1  0  0  0  0
 27 29  1  0  0  0  0
 27 71  1  0  0  0  0
 28 72  1  0  0  0  0
 28 73  1  0  0  0  0
 28 74  1  0  0  0  0
 29 75  1  0  0  0  0
 29 76  1  0  0  0  0
 29 77  1  0  0  0  0
M  END
> <PUBCHEM_COMPOUND_CID>
441832

> <PUBCHEM_CONFORMER_RMSD>
0.8

> <PUBCHEM_CONFORMER_DIVERSEORDER>
1
6
7
5
2
9
3
4
8

> <PUBCHEM_MMFF94_PARTIAL_CHARGES>
12
1 -0.68
10 0.09
2 -0.19
20 0.28
3 -0.19
30 0.1
31 0.1
4 -0.2
5 0.09
66 0.4
7 0.09
8 0.09

> <PUBCHEM_EFFECTIVE_ROTOR_COUNT>
7.4

> <PUBCHEM_PHARMACOPHORE_FEATURES>
9
1 1 acceptor
1 1 donor
1 24 hydrophobe
3 27 28 29 hydrophobe
5 22 23 25 26 27 hydrophobe
5 6 9 14 15 17 rings
6 2 5 6 8 9 12 rings
6 3 7 10 16 18 20 rings
7 2 3 4 5 7 11 13 rings

> <PUBCHEM_HEAVY_ATOM_COUNT>
29

> <PUBCHEM_ATOM_DEF_STEREO_COUNT>
9

> <PUBCHEM_ATOM_UDEF_STEREO_COUNT>
0

> <PUBCHEM_BOND_DEF_STEREO_COUNT>
0

> <PUBCHEM_BOND_UDEF_STEREO_COUNT>
0

> <PUBCHEM_ISOTOPIC_ATOM_COUNT>
0

> <PUBCHEM_COMPONENT_COUNT>
1

> <PUBCHEM_CACTVS_TAUTO_COUNT>
1

> <PUBCHEM_CONFORMER_ID>
0006BDE800000001

> <PUBCHEM_MMFF94_ENERGY>
104.2346

> <PUBCHEM_FEATURE_SELFOVERLAP>
45.781

> <PUBCHEM_SHAPE_FINGERPRINT>
10 15 18409448060841225976
106641 1 14923950046386933978
10693767 8 18335988665669709734
11135926 11 18409443705206862907
11578080 2 16414644915395778207
11963148 33 15574718019008951909
12011746 2 18131062740814219896
12166972 35 17385444306352572825
12236239 1 17458057179331740912
12838862 33 18412832361651998744
13383668 254 14332539234401942236
13540713 4 17985541144692113841
13690498 29 17630878314877601115
13782708 43 17385719239978131062
13914758 101 15913610592459927802
14068700 675 16008754576823533195
14931854 50 17917422172956079114
15131766 46 16483855638666224308
15142383 8 17346883343161525022
15183329 4 18131357427622087809
15188451 53 15936413338644610061
15238133 3 14620798167368951125
16994733 274 14548442588879497854
17349148 13 16877934998248604361
18222031 100 18335422378304250618
18608769 82 6338950070577005396
18769570 83 15051735296330524525
20028762 73 17967249823170245550
21033648 29 16988564546035126324
21267235 1 18339060676199470178
21279426 13 18202278070222059139
21424621 283 13901911120158259261
21521239 73 18334863792649791343
21792961 116 17704066313762406363
21859007 373 17632028480363059804
2215653 11 18343298167182740648
22393880 68 17988361468894474555
22956985 138 16300890563440831335
23522609 53 17460282565281790096
23559900 14 18270956856269488192
23569914 152 17407984522698528583
23569943 247 16012372141894050494
23576562 1 17631169689684908983
2747138 104 5617259229638915802
3009799 131 18059857268319473209
335352 9 18340758286795966402
350125 39 18339629080518881304
3633792 109 18409729577849880305
4015057 19 18336541613139736129
4058900 60 15841555219036494657
439807 62 17823426990563087295
474113 269 17845385495773152874
484989 97 18339638924162118979
5104073 3 18265043804001403456
5283173 99 17918279774956826901
5969126 39 18261393386252662697
7226269 152 14189578542261828511

> <PUBCHEM_SHAPE_MULTIPOLES>
590.94
18.21
2.05
1.83
10.21
0.36
0.12
-5.28
11.43
-0.98
0.06
3.27
-0.24
0.33

> <PUBCHEM_SHAPE_SELFOVERLAP>
1238.69

> <PUBCHEM_SHAPE_VOLUME>
335.9

> <PUBCHEM_COORDINATE_TYPE>
2
5
10

$$$$

