5637
  -OEChem-06261200473D

 42 43  0     0  0  0  0  0  0999 V2000
   -3.0449   -0.9610   -1.1559 S   0  0  0  0  0  0  0  0  0  0  0  0
    3.0471   -0.8885    1.2486 S   0  0  0  0  0  0  0  0  0  0  0  0
   -4.5894    1.5326   -2.1568 N   0  0  0  0  0  0  0  0  0  0  0  0
    4.4662    1.7176    2.1428 N   0  0  0  0  0  0  0  0  0  0  0  0
   -0.6546    0.3573   -1.0940 N   0  0  0  0  0  0  0  0  0  0  0  0
    0.6516    0.3803    1.0243 N   0  0  0  0  0  0  0  0  0  0  0  0
   -1.9613   -4.0633    0.3204 N   0  0  0  0  0  0  0  0  0  0  0  0
    1.9915   -4.1057   -0.2494 N   0  0  0  0  0  0  0  0  0  0  0  0
   -3.6467    0.4138   -0.1891 C   0  0  0  0  0  0  0  0  0  0  0  0
    3.6424    0.4445    0.2160 C   0  0  0  0  0  0  0  0  0  0  0  0
   -4.3340    1.4844   -0.7671 C   0  0  0  0  0  0  0  0  0  0  0  0
    4.2690    1.5714    0.7504 C   0  0  0  0  0  0  0  0  0  0  0  0
   -3.4147    0.4042    1.1885 C   0  0  0  0  0  0  0  0  0  0  0  0
    3.4658    0.3363   -1.1641 C   0  0  0  0  0  0  0  0  0  0  0  0
   -4.7861    2.5380    0.0273 C   0  0  0  0  0  0  0  0  0  0  0  0
    4.7176    2.5876   -0.0933 C   0  0  0  0  0  0  0  0  0  0  0  0
   -1.3021   -0.8233   -0.8003 C   0  0  0  0  0  0  0  0  0  0  0  0
    1.3297   -0.7948    0.7852 C   0  0  0  0  0  0  0  0  0  0  0  0
   -0.6710   -1.8721   -0.2010 C   0  0  0  0  0  0  0  0  0  0  0  0
    0.7388   -1.8807    0.2149 C   0  0  0  0  0  0  0  0  0  0  0  0
   -3.8668    1.4578    1.9830 C   0  0  0  0  0  0  0  0  0  0  0  0
    3.9144    1.3525   -2.0079 C   0  0  0  0  0  0  0  0  0  0  0  0
   -4.5524    2.5248    1.4024 C   0  0  0  0  0  0  0  0  0  0  0  0
    4.5403    2.4782   -1.4724 C   0  0  0  0  0  0  0  0  0  0  0  0
   -1.3857   -3.0831    0.0862 C   0  0  0  0  0  0  0  0  0  0  0  0
    1.4352   -3.1090   -0.0386 C   0  0  0  0  0  0  0  0  0  0  0  0
   -2.8921   -0.4180    1.6715 H   0  0  0  0  0  0  0  0  0  0  0  0
    2.9927   -0.5336   -1.6129 H   0  0  0  0  0  0  0  0  0  0  0  0
   -5.3219    3.3762   -0.4112 H   0  0  0  0  0  0  0  0  0  0  0  0
    5.2071    3.4707    0.3096 H   0  0  0  0  0  0  0  0  0  0  0  0
   -3.6867    1.4467    3.0540 H   0  0  0  0  0  0  0  0  0  0  0  0
    3.7786    1.2663   -3.0820 H   0  0  0  0  0  0  0  0  0  0  0  0
   -4.9047    3.3449    2.0212 H   0  0  0  0  0  0  0  0  0  0  0  0
    4.8899    3.2692   -2.1296 H   0  0  0  0  0  0  0  0  0  0  0  0
   -5.0873    2.3170   -2.5560 H   0  0  0  0  0  0  0  0  0  0  0  0
   -4.2675    0.7806   -2.7515 H   0  0  0  0  0  0  0  0  0  0  0  0
    4.9216    2.5430    2.5085 H   0  0  0  0  0  0  0  0  0  0  0  0
    4.1458    0.9941    2.7726 H   0  0  0  0  0  0  0  0  0  0  0  0
    0.3534    0.4234   -1.0812 H   0  0  0  0  0  0  0  0  0  0  0  0
   -1.1873    1.0901   -1.5465 H   0  0  0  0  0  0  0  0  0  0  0  0
    1.1579    1.1307    1.4789 H   0  0  0  0  0  0  0  0  0  0  0  0
   -0.3570    0.4249    1.0033 H   0  0  0  0  0  0  0  0  0  0  0  0
  1  9  1  0  0  0  0
  1 17  1  0  0  0  0
  2 10  1  0  0  0  0
  2 18  1  0  0  0  0
  3 11  1  0  0  0  0
  3 35  1  0  0  0  0
  3 36  1  0  0  0  0
  4 12  1  0  0  0  0
  4 37  1  0  0  0  0
  4 38  1  0  0  0  0
  5 17  1  0  0  0  0
  5 39  1  0  0  0  0
  5 40  1  0  0  0  0
  6 18  1  0  0  0  0
  6 41  1  0  0  0  0
  6 42  1  0  0  0  0
  7 25  3  0  0  0  0
  8 26  3  0  0  0  0
  9 11  1  0  0  0  0
  9 13  2  0  0  0  0
 10 12  1  0  0  0  0
 10 14  2  0  0  0  0
 11 15  2  0  0  0  0
 12 16  2  0  0  0  0
 13 21  1  0  0  0  0
 13 27  1  0  0  0  0
 14 22  1  0  0  0  0
 14 28  1  0  0  0  0
 15 23  1  0  0  0  0
 15 29  1  0  0  0  0
 16 24  1  0  0  0  0
 16 30  1  0  0  0  0
 17 19  2  0  0  0  0
 18 20  2  0  0  0  0
 19 20  1  0  0  0  0
 19 25  1  0  0  0  0
 20 26  1  0  0  0  0
 21 23  2  0  0  0  0
 21 31  1  0  0  0  0
 22 24  2  0  0  0  0
 22 32  1  0  0  0  0
 23 33  1  0  0  0  0
 24 34  1  0  0  0  0
M  END
> <PUBCHEM_COMPOUND_CID>
5637

> <PUBCHEM_CONFORMER_RMSD>
0.8

> <PUBCHEM_CONFORMER_DIVERSEORDER>
2
6
127
133
64
98
81
29
33
136
119
115
42
101
59
12
27
17
85
138
84
19
118
40
87
93
103
108
28
129
134
66
41
100
99
125
7
54
79
88
122
78
107
15
26
92
69
65
13
95
117
141
124
44
51
47
73
31
132
90
120
82
114
97
21
116
144
143
10
11
128
57
34
74
83
142
113
3
36
139
60
43
112
123
96
77
61
49
25
102
137
39
140
86
9
72
23
146
135
80
46
131
24
35
1
89
126
63
38
75
62
106
76
71
32
45
94
121
53
30
67
50
8
56
52
5
104
105
68
48
145
110
109
111
130
18
91
16
20
55
58
70
37
14
4
22

> <PUBCHEM_MMFF94_PARTIAL_CHARGES>
42
1 -0.2
10 0.1
11 0.1
12 0.1
13 -0.15
14 -0.15
15 -0.15
16 -0.15
17 0.2
18 0.2
19 0.06
2 -0.2
20 0.06
21 -0.15
22 -0.15
23 -0.15
24 -0.15
25 0.49
26 0.49
27 0.15
28 0.15
29 0.15
3 -0.9
30 0.15
31 0.15
32 0.15
33 0.15
34 0.15
35 0.4
36 0.4
37 0.4
38 0.4
39 0.4
4 -0.9
40 0.4
41 0.4
42 0.4
5 -0.9
6 -0.9
7 -0.56
8 -0.56
9 0.1

> <PUBCHEM_EFFECTIVE_ROTOR_COUNT>
5

> <PUBCHEM_PHARMACOPHORE_FEATURES>
12
1 3 cation
1 3 donor
1 4 cation
1 4 donor
1 5 cation
1 5 donor
1 6 cation
1 6 donor
1 7 acceptor
1 8 acceptor
6 10 12 14 16 22 24 rings
6 9 11 13 15 21 23 rings

> <PUBCHEM_HEAVY_ATOM_COUNT>
26

> <PUBCHEM_ATOM_DEF_STEREO_COUNT>
0

> <PUBCHEM_ATOM_UDEF_STEREO_COUNT>
0

> <PUBCHEM_BOND_DEF_STEREO_COUNT>
0

> <PUBCHEM_BOND_UDEF_STEREO_COUNT>
2

> <PUBCHEM_ISOTOPIC_ATOM_COUNT>
0

> <PUBCHEM_COMPONENT_COUNT>
1

> <PUBCHEM_CACTVS_TAUTO_COUNT>
3

> <PUBCHEM_CONFORMER_ID>
0000160500000002

> <PUBCHEM_MMFF94_ENERGY>
114.6918

> <PUBCHEM_FEATURE_SELFOVERLAP>
60.933

> <PUBCHEM_SHAPE_FINGERPRINT>
102385 1 18411134731825008530
10937287 8 18410011022440131302
11370993 144 15410346540936390721
12173636 292 18265056834146741022
12390115 104 18338786832340382014
12422481 6 17774737436549211276
12788726 201 17622715428329421046
13590594 115 17689994957049739594
13828863 39 17058626505199773732
13878862 14 18053397770941114949
13965767 371 18130516300931329900
14251757 17 16588023489575727600
14713325 29 18196360425416525739
14790565 3 18410852161594012580
14848178 5 8646490669909618220
14848178 96 18408885165424770468
14950920 106 16128661846601438912
15163728 17 18339909434176688822
15342168 16 18340769329589368791
20567600 9 18263073474089122348
21033650 10 17968931977639996808
235170 7 15864356791930063916
23559900 14 18055911245583856379
283562 15 18123471579340243003
312425 83 16515401854842305676
3459 110 16845001321818982281
38570 142 17970043708223136505
469060 322 18196921189964407435
474 4 18264776639397130803
6034566 193 18200304425296600845
633830 44 18042962263052364215
7808743 9 18340481154348099404
9849439 229 18336550503511041937

> <PUBCHEM_SHAPE_MULTIPOLES>
512.88
11.53
4.38
1.8
0.44
4.06
-0.02
-12.89
-0.21
-0.11
0.09
-0.04
-1.21
-1.05

> <PUBCHEM_SHAPE_SELFOVERLAP>
1068.201

> <PUBCHEM_SHAPE_VOLUME>
289.4

> <PUBCHEM_COORDINATE_TYPE>
2
5
10

$$$$

