17396327
  -OEChem-06241222563D

 43 45  0     1  0  0  0  0  0999 V2000
    1.4623   -2.4170    0.2438 S   0  0  0  0  0  0  0  0  0  0  0  0
   -1.5756   -2.7737    0.4508 S   0  0  0  0  0  0  0  0  0  0  0  0
   -5.2800    3.1474    0.6913 F   0  0  0  0  0  0  0  0  0  0  0  0
    4.1929   -2.4274    0.1427 O   0  0  0  0  0  0  0  0  0  0  0  0
    4.7449   -0.2367   -0.3990 N   0  0  0  0  0  0  0  0  0  0  0  0
   -0.4550   -0.5384   -0.1095 N   0  0  0  0  0  0  0  0  0  0  0  0
   -3.8680   -1.4238    0.2346 N   0  0  0  0  0  0  0  0  0  0  0  0
   -1.8155   -0.2854   -0.1115 N   0  0  0  0  0  0  0  0  0  0  0  0
    5.0507    2.1392    0.2114 C   0  0  2  0  0  0  0  0  0  0  0  0
    6.5706    1.9135    0.2328 C   0  0  0  0  0  0  0  0  0  0  0  0
    4.3705    1.1427   -0.7382 C   0  0  0  0  0  0  0  0  0  0  0  0
    6.9049    0.4569    0.5537 C   0  0  0  0  0  0  0  0  0  0  0  0
    6.1855   -0.4963   -0.3954 C   0  0  0  0  0  0  0  0  0  0  0  0
    4.7224    3.5763   -0.1849 C   0  0  0  0  0  0  0  0  0  0  0  0
    3.8525   -1.2705   -0.1180 C   0  0  0  0  0  0  0  0  0  0  0  0
    2.3856   -0.9216   -0.1380 C   0  0  0  0  0  0  0  0  0  0  0  0
   -0.1934   -1.7976    0.1694 C   0  0  0  0  0  0  0  0  0  0  0  0
   -2.5134   -1.3661    0.1656 C   0  0  0  0  0  0  0  0  0  0  0  0
   -4.8378   -0.4045    0.0403 C   0  0  0  0  0  0  0  0  0  0  0  0
   -4.5774    0.8968    0.4697 C   0  0  0  0  0  0  0  0  0  0  0  0
   -6.0507   -0.7050   -0.5795 C   0  0  0  0  0  0  0  0  0  0  0  0
   -5.5300    1.8978    0.2790 C   0  0  0  0  0  0  0  0  0  0  0  0
   -7.0033    0.2960   -0.7702 C   0  0  0  0  0  0  0  0  0  0  0  0
   -6.7428    1.5974   -0.3409 C   0  0  0  0  0  0  0  0  0  0  0  0
    4.6662    1.9670    1.2259 H   0  0  0  0  0  0  0  0  0  0  0  0
    7.0024    2.1775   -0.7412 H   0  0  0  0  0  0  0  0  0  0  0  0
    7.0381    2.5679    0.9779 H   0  0  0  0  0  0  0  0  0  0  0  0
    4.6887    1.3145   -1.7741 H   0  0  0  0  0  0  0  0  0  0  0  0
    3.2888    1.2874   -0.7090 H   0  0  0  0  0  0  0  0  0  0  0  0
    6.6053    0.2389    1.5864 H   0  0  0  0  0  0  0  0  0  0  0  0
    7.9873    0.3005    0.4898 H   0  0  0  0  0  0  0  0  0  0  0  0
    6.3955   -1.5314   -0.1084 H   0  0  0  0  0  0  0  0  0  0  0  0
    6.5456   -0.3610   -1.4221 H   0  0  0  0  0  0  0  0  0  0  0  0
    5.1861    4.2857    0.5085 H   0  0  0  0  0  0  0  0  0  0  0  0
    3.6409    3.7467   -0.1654 H   0  0  0  0  0  0  0  0  0  0  0  0
    5.0829    3.8037   -1.1938 H   0  0  0  0  0  0  0  0  0  0  0  0
    2.1844   -0.1573    0.6185 H   0  0  0  0  0  0  0  0  0  0  0  0
    2.1110   -0.5635   -1.1347 H   0  0  0  0  0  0  0  0  0  0  0  0
   -4.2878   -2.3475    0.3121 H   0  0  0  0  0  0  0  0  0  0  0  0
   -3.6519    1.1568    0.9749 H   0  0  0  0  0  0  0  0  0  0  0  0
   -6.2650   -1.7150   -0.9194 H   0  0  0  0  0  0  0  0  0  0  0  0
   -7.9476    0.0623   -1.2531 H   0  0  0  0  0  0  0  0  0  0  0  0
   -7.4842    2.3770   -0.4892 H   0  0  0  0  0  0  0  0  0  0  0  0
  1 16  1  0  0  0  0
  1 17  1  0  0  0  0
  2 17  1  0  0  0  0
  2 18  1  0  0  0  0
  3 22  1  0  0  0  0
  4 15  2  0  0  0  0
  5 11  1  0  0  0  0
  5 13  1  0  0  0  0
  5 15  1  0  0  0  0
  6  8  1  0  0  0  0
  6 17  2  0  0  0  0
  7 18  1  0  0  0  0
  7 19  1  0  0  0  0
  7 39  1  0  0  0  0
  8 18  2  0  0  0  0
  9 10  1  0  0  0  0
  9 11  1  0  0  0  0
  9 14  1  0  0  0  0
  9 25  1  0  0  0  0
 10 12  1  0  0  0  0
 10 26  1  0  0  0  0
 10 27  1  0  0  0  0
 11 28  1  0  0  0  0
 11 29  1  0  0  0  0
 12 13  1  0  0  0  0
 12 30  1  0  0  0  0
 12 31  1  0  0  0  0
 13 32  1  0  0  0  0
 13 33  1  0  0  0  0
 14 34  1  0  0  0  0
 14 35  1  0  0  0  0
 14 36  1  0  0  0  0
 15 16  1  0  0  0  0
 16 37  1  0  0  0  0
 16 38  1  0  0  0  0
 19 20  2  0  0  0  0
 19 21  1  0  0  0  0
 20 22  1  0  0  0  0
 20 40  1  0  0  0  0
 21 23  2  0  0  0  0
 21 41  1  0  0  0  0
 22 24  2  0  0  0  0
 23 24  1  0  0  0  0
 23 42  1  0  0  0  0
 24 43  1  0  0  0  0
M  END
> <PUBCHEM_COMPOUND_CID>
17396327

> <PUBCHEM_CONFORMER_RMSD>
1.4

> <PUBCHEM_CONFORMER_DIVERSEORDER>
1
43
39
18
25
78
76
31
30
48
57
82
67
66
20
58
54
62
5
50
49
11
75
41
45
65
19
53
36
10
81
38
16
69
61
47
42
9
55
12
52
13
46
71
74
72
6
17
83
80
21
32
51
40
56
44
29
15
2
24
14
68
22
77
35
79
3
33
73
26
28
63
4
64
60
34
23
37
27
59
8
7
70

> <PUBCHEM_MMFF94_PARTIAL_CHARGES>
25
1 -0.29
11 0.3
13 0.3
15 0.57
16 0.29
17 0.43
18 0.46
19 0.1
2 -0.08
20 -0.15
21 -0.15
22 0.19
23 -0.15
24 -0.15
3 -0.19
39 0.4
4 -0.57
40 0.15
41 0.15
42 0.15
43 0.15
5 -0.66
6 -0.34
7 -0.58
8 -0.34

> <PUBCHEM_EFFECTIVE_ROTOR_COUNT>
7.2

> <PUBCHEM_PHARMACOPHORE_FEATURES>
7
1 4 acceptor
1 6 acceptor
1 7 donor
3 7 8 18 cation
5 2 6 8 17 18 rings
6 19 20 21 22 23 24 rings
6 5 9 10 11 12 13 rings

> <PUBCHEM_HEAVY_ATOM_COUNT>
24

> <PUBCHEM_ATOM_DEF_STEREO_COUNT>
0

> <PUBCHEM_ATOM_UDEF_STEREO_COUNT>
1

> <PUBCHEM_BOND_DEF_STEREO_COUNT>
0

> <PUBCHEM_BOND_UDEF_STEREO_COUNT>
0

> <PUBCHEM_ISOTOPIC_ATOM_COUNT>
0

> <PUBCHEM_COMPONENT_COUNT>
1

> <PUBCHEM_CACTVS_TAUTO_COUNT>
2

> <PUBCHEM_CONFORMER_ID>
0109726700000001

> <PUBCHEM_MMFF94_ENERGY>
50.7077

> <PUBCHEM_FEATURE_SELFOVERLAP>
35.52

> <PUBCHEM_SHAPE_FINGERPRINT>
10050765 1 18411700976118520794
10411042 1 17979075217901030578
10595046 47 18335987540910225231
10835480 77 18412265029772074086
11101153 10 18410013226533853221
12925494 130 18339926991876426664
13167372 99 18410856568857478226
13533116 47 17131280168021565714
13690498 29 17460043881560199383
14123256 34 8935002585451539326
14202776 33 17895486864711074157
14251764 30 10087639290866951999
14556957 393 16588010308352660977
14790565 3 18338795723408111323
14931854 50 18040985212629511112
15183329 4 18408322189685909833
15419008 145 18200606907686499360
18335252 114 18409451418883340902
18608769 82 18338794499828294243
20058555 10 18411980243655335101
20157964 124 18335136510056621958
20281389 69 18273215335084047567
20715895 44 18410291389984822458
21150785 3 17385727980632061431
21298829 104 18411416194380099108
21304253 335 18272363165969367262
21315763 28 18409449184777757655
21315764 268 18271529813543831037
21585482 111 18271526519220311725
21774942 28 18113615733629227576
22122407 14 18410566280006587312
2748736 6 18412549786145795612
2838139 119 18409167696984522079
328310 630 18334286574846628801
3472631 163 18335419054321778126
34797466 226 17968086543371822071
4073 2 18059288765184958898
465052 167 10880000159965685874
5104073 3 17989205945095455338
543368 44 18410294727311619823
6328613 192 18408886248120402649
636775 72 18336549326648025712
636775 8 10375605832532876248

> <PUBCHEM_SHAPE_MULTIPOLES>
468.54
22.4
3.52
0.75
3.69
1.44
0.02
15.29
1.3
-1.49
-0.48
0.15
0.07
-0.2

> <PUBCHEM_SHAPE_SELFOVERLAP>
956.712

> <PUBCHEM_SHAPE_VOLUME>
273

> <PUBCHEM_COORDINATE_TYPE>
2
5
10

$$$$

