182181
  -OEChem-07051212563D

 31 32  0     0  0  0  0  0  0999 V2000
   -1.9545    1.0543   -0.0826 O   0  0  0  0  0  0  0  0  0  0  0  0
    2.8159    1.7099   -0.2585 O   0  0  0  0  0  0  0  0  0  0  0  0
    4.1253   -0.5641   -0.7081 O   0  0  0  0  0  0  0  0  0  0  0  0
   -0.5564   -0.7195   -0.0273 C   0  0  0  0  0  0  0  0  0  0  0  0
   -0.6481    0.6666   -0.1002 C   0  0  0  0  0  0  0  0  0  0  0  0
    1.8448   -0.4773   -0.1120 C   0  0  0  0  0  0  0  0  0  0  0  0
    0.7196   -1.3095   -0.0334 C   0  0  0  0  0  0  0  0  0  0  0  0
   -1.8938   -1.1918    0.0383 C   0  0  0  0  0  0  0  0  0  0  0  0
   -2.7007   -0.0780    0.0015 C   0  0  0  0  0  0  0  0  0  0  0  0
    1.7102    0.9117   -0.1835 C   0  0  0  0  0  0  0  0  0  0  0  0
    0.4513    1.5194   -0.1793 C   0  0  0  0  0  0  0  0  0  0  0  0
   -4.1138   -0.0446    0.0411 C   0  0  0  0  0  0  0  0  0  0  0  0
    3.1649   -1.0939   -0.1174 C   0  0  0  0  0  0  0  0  0  0  0  0
   -4.9949   -1.2859    0.1460 C   0  0  0  0  0  0  0  0  0  0  0  0
    3.3968   -2.4136    0.6075 C   0  0  0  0  0  0  0  0  0  0  0  0
   -4.7408    1.1610   -0.0061 C   0  0  0  0  0  0  0  0  0  0  0  0
    3.3742    2.1554    0.9742 C   0  0  0  0  0  0  0  0  0  0  0  0
    0.8047   -2.3908    0.0088 H   0  0  0  0  0  0  0  0  0  0  0  0
   -2.2129   -2.2232    0.1040 H   0  0  0  0  0  0  0  0  0  0  0  0
    0.3322    2.5954   -0.2349 H   0  0  0  0  0  0  0  0  0  0  0  0
   -4.8213   -1.9428   -0.7130 H   0  0  0  0  0  0  0  0  0  0  0  0
   -4.7590   -1.8374    1.0623 H   0  0  0  0  0  0  0  0  0  0  0  0
   -6.0624   -1.0426    0.1689 H   0  0  0  0  0  0  0  0  0  0  0  0
    3.1889   -3.2460   -0.0693 H   0  0  0  0  0  0  0  0  0  0  0  0
    2.7711   -2.4820    1.5015 H   0  0  0  0  0  0  0  0  0  0  0  0
    4.4400   -2.4616    0.9342 H   0  0  0  0  0  0  0  0  0  0  0  0
   -5.8239    1.2314    0.0256 H   0  0  0  0  0  0  0  0  0  0  0  0
   -4.2035    2.1015   -0.0771 H   0  0  0  0  0  0  0  0  0  0  0  0
    3.6440    1.3081    1.6123 H   0  0  0  0  0  0  0  0  0  0  0  0
    2.6684    2.8077    1.4981 H   0  0  0  0  0  0  0  0  0  0  0  0
    4.2796    2.7273    0.7533 H   0  0  0  0  0  0  0  0  0  0  0  0
  1  5  1  0  0  0  0
  1  9  1  0  0  0  0
  2 10  1  0  0  0  0
  2 17  1  0  0  0  0
  3 13  2  0  0  0  0
  4  5  1  0  0  0  0
  4  7  2  0  0  0  0
  4  8  1  0  0  0  0
  5 11  2  0  0  0  0
  6  7  1  0  0  0  0
  6 10  2  0  0  0  0
  6 13  1  0  0  0  0
  7 18  1  0  0  0  0
  8  9  2  0  0  0  0
  8 19  1  0  0  0  0
  9 12  1  0  0  0  0
 10 11  1  0  0  0  0
 11 20  1  0  0  0  0
 12 14  1  0  0  0  0
 12 16  2  0  0  0  0
 13 15  1  0  0  0  0
 14 21  1  0  0  0  0
 14 22  1  0  0  0  0
 14 23  1  0  0  0  0
 15 24  1  0  0  0  0
 15 25  1  0  0  0  0
 15 26  1  0  0  0  0
 16 27  1  0  0  0  0
 16 28  1  0  0  0  0
 17 29  1  0  0  0  0
 17 30  1  0  0  0  0
 17 31  1  0  0  0  0
M  END
> <PUBCHEM_COMPOUND_CID>
182181

> <PUBCHEM_CONFORMER_RMSD>
0.6

> <PUBCHEM_CONFORMER_DIVERSEORDER>
1
5
2
6
3
4

> <PUBCHEM_MMFF94_PARTIAL_CHARGES>
21
1 -0.28
10 0.08
11 -0.15
12 -0.09
13 0.42
14 0.14
15 0.06
16 -0.3
17 0.28
18 0.15
19 0.15
2 -0.36
20 0.15
27 0.15
28 0.15
3 -0.57
5 0.14
6 0.09
7 -0.15
8 -0.15
9 0.09

> <PUBCHEM_EFFECTIVE_ROTOR_COUNT>
3

> <PUBCHEM_PHARMACOPHORE_FEATURES>
5
1 1 acceptor
1 2 acceptor
1 3 acceptor
5 1 4 5 8 9 rings
6 4 5 6 7 10 11 rings

> <PUBCHEM_HEAVY_ATOM_COUNT>
17

> <PUBCHEM_ATOM_DEF_STEREO_COUNT>
0

> <PUBCHEM_ATOM_UDEF_STEREO_COUNT>
0

> <PUBCHEM_BOND_DEF_STEREO_COUNT>
0

> <PUBCHEM_BOND_UDEF_STEREO_COUNT>
0

> <PUBCHEM_ISOTOPIC_ATOM_COUNT>
0

> <PUBCHEM_COMPONENT_COUNT>
1

> <PUBCHEM_CACTVS_TAUTO_COUNT>
2

> <PUBCHEM_CONFORMER_ID>
0002C7A500000001

> <PUBCHEM_MMFF94_ENERGY>
49.7881

> <PUBCHEM_FEATURE_SELFOVERLAP>
25.482

> <PUBCHEM_SHAPE_FINGERPRINT>
10062212 137 18333737940040388463
10608611 8 18411703183978630333
10967382 1 18411418384565038934
11405975 8 18410291449971998481
11471102 20 18411138030332141092
11680986 33 18269829839665678690
12032990 46 18413103983240652279
12403259 415 18343304777776083077
12507560 40 18410572856092094961
13140716 1 18410862035876560266
13167823 11 18334296440244251839
13675066 3 18342738494774747265
14178342 30 18050018692219027874
15042514 8 17475239471362943282
15196674 1 18410573977141843229
15219456 202 18412265012887285725
15442244 35 18338233876934315425
15536298 74 18335421244427700224
16945 1 18336833112179367574
18186145 218 17989211460249524895
200 152 18186806898422180575
20559304 39 18339643446999883018
20645477 70 18334573538163848406
21267235 1 18410282623297629935
21452121 103 18334305240568860088
21501925 9 18410300232784538098
221490 88 18271235003063178075
22182313 1 18129682883681131196
2255824 54 18343016675595976966
23402539 116 18335708286072533895
23402655 69 18408041823221977773
23463225 33 18411417340682342222
23559900 14 18411703196815760650
2748010 2 18340201886957880438
29717793 49 17894353298208421509
3286 77 18341614862357364542
335352 9 18267585887231685301
33824 294 18411983520852044802
34934 24 18261679155716134316
4214541 1 18411135866359739693
42630746 31 18335425621363274352
495365 180 17895203181530335360
4990 188 18187353342183268047
5104073 3 18409727361862715787
633830 44 17132111347277408525
69090 78 18335704914512676351
7364860 26 18334296457571404608
77779 3 18411134732351074079
9709674 26 18270396084238876067

> <PUBCHEM_SHAPE_MULTIPOLES>
332.24
9.05
2.16
0.71
6.87
0.06
-0.06
-0.9
-0.54
-2.01
-0.38
-0.35
0.05
0.24

> <PUBCHEM_SHAPE_SELFOVERLAP>
717.404

> <PUBCHEM_SHAPE_VOLUME>
185.9

> <PUBCHEM_COORDINATE_TYPE>
2
5
10

$$$$

