5281911
  -OEChem-07051213012D

 93 92  0     1  0  0  0  0  0999 V2000
    6.0883    0.6200    0.0000 S   0  0  0  0  0  0  0  0  0  0  0  0
    7.0877    5.9300    0.0000 O   0  0  0  0  0  0  0  0  0  0  0  0
    8.1755   11.2779    0.0000 O   0  0  0  0  0  0  0  0  0  0  0  0
    0.5897    6.2496    0.0000 O   0  0  0  0  0  0  0  0  0  0  0  0
    1.1249    7.8969    0.0000 O   0  0  0  0  0  0  0  0  0  0  0  0
    5.2222    1.1200    0.0000 O   0  0  0  0  0  0  0  0  0  0  0  0
    0.8921    2.6200    0.0000 O   0  0  0  0  0  0  0  0  0  0  0  0
    7.8203    3.6200    0.0000 O   0  0  0  0  0  0  0  0  0  0  0  0
    1.7581    1.1200    0.0000 O   0  0  0  0  0  0  0  0  0  0  0  0
   11.2844    2.6200    0.0000 O   0  0  0  0  0  0  0  0  0  0  0  0
   10.4184    1.1200    0.0000 O   0  0  0  0  0  0  0  0  0  0  0  0
    6.0883    2.6200    0.0000 N   0  0  0  0  0  0  0  0  0  0  0  0
    2.6242    3.6200    0.0000 N   0  0  0  0  0  0  0  0  0  0  0  0
    8.6863    2.1200    0.0000 N   0  0  0  0  0  0  0  0  0  0  0  0
    7.3665    7.6901    0.0000 C   0  0  1  0  0  0  0  0  0  0  0  0
    8.1755    8.2779    0.0000 C   0  0  2  0  0  0  0  0  0  0  0  0
    6.4154    7.9991    0.0000 C   0  0  0  0  0  0  0  0  0  0  0  0
    5.6723    7.3300    0.0000 C   0  0  0  0  0  0  0  0  0  0  0  0
    7.6755    6.7390    0.0000 C   0  0  0  0  0  0  0  0  0  0  0  0
    8.9845    7.6901    0.0000 C   0  0  0  0  0  0  0  0  0  0  0  0
    4.7212    7.6390    0.0000 C   0  0  0  0  0  0  0  0  0  0  0  0
    8.1755    9.2779    0.0000 C   0  0  0  0  0  0  0  0  0  0  0  0
    8.6755    6.7390    0.0000 C   0  0  0  0  0  0  0  0  0  0  0  0
    3.9781    6.9698    0.0000 C   0  0  0  0  0  0  0  0  0  0  0  0
    9.0415    9.7779    0.0000 C   0  0  0  0  0  0  0  0  0  0  0  0
    3.0270    7.2789    0.0000 C   0  0  0  0  0  0  0  0  0  0  0  0
    9.0415   10.7779    0.0000 C   0  0  2  0  0  0  0  0  0  0  0  0
    9.9075   11.2779    0.0000 C   0  0  0  0  0  0  0  0  0  0  0  0
    9.9075   12.2779    0.0000 C   0  0  0  0  0  0  0  0  0  0  0  0
    2.2839    6.6097    0.0000 C   0  0  0  0  0  0  0  0  0  0  0  0
   10.7736   12.7779    0.0000 C   0  0  0  0  0  0  0  0  0  0  0  0
   10.7736   13.7779    0.0000 C   0  0  0  0  0  0  0  0  0  0  0  0
    1.3328    6.9188    0.0000 C   0  0  0  0  0  0  0  0  0  0  0  0
   11.6396   14.2779    0.0000 C   0  0  0  0  0  0  0  0  0  0  0  0
    3.4902    2.1200    0.0000 C   0  0  0  0  0  0  0  0  0  0  0  0
    4.3562    2.6200    0.0000 C   0  0  0  0  0  0  0  0  0  0  0  0
    2.6242    2.6200    0.0000 C   0  0  1  0  0  0  0  0  0  0  0  0
    6.9543    2.1200    0.0000 C   0  0  1  0  0  0  0  0  0  0  0  0
    5.2222    2.1200    0.0000 C   0  0  0  0  0  0  0  0  0  0  0  0
    6.9543    1.1200    0.0000 C   0  0  0  0  0  0  0  0  0  0  0  0
    7.8203    2.6200    0.0000 C   0  0  0  0  0  0  0  0  0  0  0  0
    1.7581    2.1200    0.0000 C   0  0  0  0  0  0  0  0  0  0  0  0
    9.5524    2.6200    0.0000 C   0  0  0  0  0  0  0  0  0  0  0  0
   10.4184    2.1200    0.0000 C   0  0  0  0  0  0  0  0  0  0  0  0
    6.9280    7.2517    0.0000 H   0  0  0  0  0  0  0  0  0  0  0  0
    7.6230    8.5593    0.0000 H   0  0  0  0  0  0  0  0  0  0  0  0
    6.7065    8.5465    0.0000 H   0  0  0  0  0  0  0  0  0  0  0  0
    5.9268    8.3808    0.0000 H   0  0  0  0  0  0  0  0  0  0  0  0
    5.3812    6.7825    0.0000 H   0  0  0  0  0  0  0  0  0  0  0  0
    6.1608    6.9482    0.0000 H   0  0  0  0  0  0  0  0  0  0  0  0
    9.5742    7.8817    0.0000 H   0  0  0  0  0  0  0  0  0  0  0  0
    5.0123    8.1864    0.0000 H   0  0  0  0  0  0  0  0  0  0  0  0
    4.2326    8.0207    0.0000 H   0  0  0  0  0  0  0  0  0  0  0  0
    7.6385    9.5879    0.0000 H   0  0  0  0  0  0  0  0  0  0  0  0
    9.0399    6.2374    0.0000 H   0  0  0  0  0  0  0  0  0  0  0  0
    3.6870    6.4224    0.0000 H   0  0  0  0  0  0  0  0  0  0  0  0
    4.4666    6.5881    0.0000 H   0  0  0  0  0  0  0  0  0  0  0  0
    9.5784    9.4679    0.0000 H   0  0  0  0  0  0  0  0  0  0  0  0
    3.3181    7.8263    0.0000 H   0  0  0  0  0  0  0  0  0  0  0  0
    2.5384    7.6606    0.0000 H   0  0  0  0  0  0  0  0  0  0  0  0
    9.0415   11.3979    0.0000 H   0  0  0  0  0  0  0  0  0  0  0  0
   10.1196   10.6952    0.0000 H   0  0  0  0  0  0  0  0  0  0  0  0
   10.5181   11.3855    0.0000 H   0  0  0  0  0  0  0  0  0  0  0  0
    9.6955   12.8605    0.0000 H   0  0  0  0  0  0  0  0  0  0  0  0
    9.2970   12.1702    0.0000 H   0  0  0  0  0  0  0  0  0  0  0  0
    1.9928    6.0623    0.0000 H   0  0  0  0  0  0  0  0  0  0  0  0
    2.7724    6.2280    0.0000 H   0  0  0  0  0  0  0  0  0  0  0  0
   10.9856   12.1952    0.0000 H   0  0  0  0  0  0  0  0  0  0  0  0
   11.3841   12.8855    0.0000 H   0  0  0  0  0  0  0  0  0  0  0  0
    8.1755   11.8979    0.0000 H   0  0  0  0  0  0  0  0  0  0  0  0
   10.5615   14.3605    0.0000 H   0  0  0  0  0  0  0  0  0  0  0  0
   10.1630   13.6702    0.0000 H   0  0  0  0  0  0  0  0  0  0  0  0
   11.9496   13.7409    0.0000 H   0  0  0  0  0  0  0  0  0  0  0  0
   12.1765   14.5879    0.0000 H   0  0  0  0  0  0  0  0  0  0  0  0
   11.3296   14.8148    0.0000 H   0  0  0  0  0  0  0  0  0  0  0  0
    0.0000    6.4412    0.0000 H   0  0  0  0  0  0  0  0  0  0  0  0
    3.0916    1.6450    0.0000 H   0  0  0  0  0  0  0  0  0  0  0  0
    3.8887    1.6450    0.0000 H   0  0  0  0  0  0  0  0  0  0  0  0
    4.7547    3.0950    0.0000 H   0  0  0  0  0  0  0  0  0  0  0  0
    3.9577    3.0950    0.0000 H   0  0  0  0  0  0  0  0  0  0  0  0
    3.1611    2.9300    0.0000 H   0  0  0  0  0  0  0  0  0  0  0  0
    6.9543    2.7400    0.0000 H   0  0  0  0  0  0  0  0  0  0  0  0
    6.0883    3.2400    0.0000 H   0  0  0  0  0  0  0  0  0  0  0  0
    7.1663    0.5374    0.0000 H   0  0  0  0  0  0  0  0  0  0  0  0
    7.5649    1.2277    0.0000 H   0  0  0  0  0  0  0  0  0  0  0  0
    2.0872    3.9300    0.0000 H   0  0  0  0  0  0  0  0  0  0  0  0
    3.1611    3.9300    0.0000 H   0  0  0  0  0  0  0  0  0  0  0  0
    8.6863    1.5000    0.0000 H   0  0  0  0  0  0  0  0  0  0  0  0
    9.9509    3.0950    0.0000 H   0  0  0  0  0  0  0  0  0  0  0  0
    9.1538    3.0950    0.0000 H   0  0  0  0  0  0  0  0  0  0  0  0
    6.0883    0.0000    0.0000 H   0  0  0  0  0  0  0  0  0  0  0  0
    0.3552    2.3100    0.0000 H   0  0  0  0  0  0  0  0  0  0  0  0
   11.8213    2.3100    0.0000 H   0  0  0  0  0  0  0  0  0  0  0  0
  1 40  1  0  0  0  0
  1 91  1  0  0  0  0
  2 19  2  0  0  0  0
 27  3  1  1  0  0  0
  3 70  1  0  0  0  0
  4 33  1  0  0  0  0
  4 76  1  0  0  0  0
  5 33  2  0  0  0  0
  6 39  2  0  0  0  0
  7 42  1  0  0  0  0
  7 92  1  0  0  0  0
  8 41  2  0  0  0  0
  9 42  2  0  0  0  0
 10 44  1  0  0  0  0
 10 93  1  0  0  0  0
 11 44  2  0  0  0  0
 38 12  1  6  0  0  0
 12 39  1  0  0  0  0
 12 83  1  0  0  0  0
 37 13  1  1  0  0  0
 13 86  1  0  0  0  0
 13 87  1  0  0  0  0
 14 41  1  0  0  0  0
 14 43  1  0  0  0  0
 14 88  1  0  0  0  0
 15 16  1  0  0  0  0
 15 17  1  6  0  0  0
 15 19  1  0  0  0  0
 15 45  1  0  0  0  0
 16 20  1  0  0  0  0
 16 22  1  1  0  0  0
 16 46  1  0  0  0  0
 17 18  1  0  0  0  0
 17 47  1  0  0  0  0
 17 48  1  0  0  0  0
 18 21  1  0  0  0  0
 18 49  1  0  0  0  0
 18 50  1  0  0  0  0
 19 23  1  0  0  0  0
 20 23  2  0  0  0  0
 20 51  1  0  0  0  0
 21 24  1  0  0  0  0
 21 52  1  0  0  0  0
 21 53  1  0  0  0  0
 22 25  2  0  0  0  0
 22 54  1  0  0  0  0
 23 55  1  0  0  0  0
 24 26  1  0  0  0  0
 24 56  1  0  0  0  0
 24 57  1  0  0  0  0
 25 27  1  0  0  0  0
 25 58  1  0  0  0  0
 26 30  1  0  0  0  0
 26 59  1  0  0  0  0
 26 60  1  0  0  0  0
 27 28  1  0  0  0  0
 27 61  1  0  0  0  0
 28 29  1  0  0  0  0
 28 62  1  0  0  0  0
 28 63  1  0  0  0  0
 29 31  1  0  0  0  0
 29 64  1  0  0  0  0
 29 65  1  0  0  0  0
 30 33  1  0  0  0  0
 30 66  1  0  0  0  0
 30 67  1  0  0  0  0
 31 32  1  0  0  0  0
 31 68  1  0  0  0  0
 31 69  1  0  0  0  0
 32 34  1  0  0  0  0
 32 71  1  0  0  0  0
 32 72  1  0  0  0  0
 34 73  1  0  0  0  0
 34 74  1  0  0  0  0
 34 75  1  0  0  0  0
 35 36  1  0  0  0  0
 35 37  1  0  0  0  0
 35 77  1  0  0  0  0
 35 78  1  0  0  0  0
 36 39  1  0  0  0  0
 36 79  1  0  0  0  0
 36 80  1  0  0  0  0
 37 42  1  0  0  0  0
 37 81  1  0  0  0  0
 38 40  1  0  0  0  0
 38 41  1  0  0  0  0
 38 82  1  0  0  0  0
 40 84  1  0  0  0  0
 40 85  1  0  0  0  0
 43 44  1  0  0  0  0
 43 89  1  0  0  0  0
 43 90  1  0  0  0  0
M  END
> <PUBCHEM_COMPOUND_CID>
5281911

> <PUBCHEM_COMPOUND_CANONICALIZED>
1

> <PUBCHEM_CACTVS_COMPLEXITY>
828

> <PUBCHEM_CACTVS_HBOND_ACCEPTOR>
12

> <PUBCHEM_CACTVS_HBOND_DONOR>
8

> <PUBCHEM_CACTVS_ROTATABLE_BOND>
22

> <PUBCHEM_CACTVS_SUBSKEYS>
AAADcfB7PABAAAAAAAAAAAAAAAAAAQAAAAAAAAAAAAAAAAAAAAAAHgQQCAAADTzlwAaCCALAAgSIAKHSGAAAAAAgAAAICIGIAEgCVBIAgSAUUAAElgCYEYOc3+KOgAAAAAAAAAAAAAAAAAAAAAAAAAAAAA==

> <PUBCHEM_IUPAC_OPENEYE_NAME>
(2S)-2-amino-5-[[(1R)-2-(carboxymethylamino)-2-oxo-1-(sulfanylmethyl)ethyl]amino]-5-oxo-pentanoic acid; 7-[(1R,2S)-2-[(E,3S)-3-hydroxyoct-1-enyl]-5-oxo-cyclopent-3-en-1-yl]heptanoic acid

> <PUBCHEM_IUPAC_CAS_NAME>
(2S)-2-amino-5-[[(2R)-1-(carboxymethylamino)-3-mercapto-1-oxopropan-2-yl]amino]-5-oxopentanoic acid; 7-[(1R,2S)-2-[(E,3S)-3-hydroxyoct-1-enyl]-5-oxo-1-cyclopent-3-enyl]heptanoic acid

> <PUBCHEM_IUPAC_NAME>
(2S)-2-amino-5-[[(2R)-1-(carboxymethylamino)-1-oxo-3-sulfanylpropan-2-yl]amino]-5-oxopentanoic acid; 7-[(1R,2S)-2-[(E,3S)-3-hydroxyoct-1-enyl]-5-oxocyclopent-3-en-1-yl]heptanoic acid

> <PUBCHEM_IUPAC_SYSTEMATIC_NAME>
(2S)-2-azanyl-5-[[(2R)-1-(2-hydroxy-2-oxoethylamino)-1-oxidanylidene-3-sulfanyl-propan-2-yl]amino]-5-oxidanylidene-pentanoic acid; 7-[(1R,5S)-2-oxidanylidene-5-[(E,3S)-3-oxidanyloct-1-enyl]cyclopent-3-en-1-yl]heptanoic acid

> <PUBCHEM_IUPAC_TRADITIONAL_NAME>
(2S)-2-amino-5-[[(1R)-2-(carboxymethylamino)-2-keto-1-(mercaptomethyl)ethyl]amino]-5-keto-valeric acid; 7-[(1R,2S)-2-[(E,3S)-3-hydroxyoct-1-enyl]-5-keto-cyclopent-3-en-1-yl]enanthic acid

> <PUBCHEM_IUPAC_INCHI>
InChI=1S/C20H32O4.C10H17N3O6S/c1-2-3-6-9-17(21)14-12-16-13-15-19(22)18(16)10-7-4-5-8-11-20(23)24;11-5(10(18)19)1-2-7(14)13-6(4-20)9(17)12-3-8(15)16/h12-18,21H,2-11H2,1H3,(H,23,24);5-6,20H,1-4,11H2,(H,12,17)(H,13,14)(H,15,16)(H,18,19)/b14-12+;/t16-,17-,18+;5-,6-/m00/s1

> <PUBCHEM_IUPAC_INCHIKEY>
MZFPLZIEMXJRPW-YOSZFRDTSA-N

> <PUBCHEM_EXACT_MASS>
643.313866

> <PUBCHEM_MOLECULAR_FORMULA>
C30H49N3O10S

> <PUBCHEM_MOLECULAR_WEIGHT>
643.78916

> <PUBCHEM_OPENEYE_CAN_SMILES>
CCCCCC(C=CC1C=CC(=O)C1CCCCCCC(=O)O)O.C(CC(=O)NC(CS)C(=O)NCC(=O)O)C(C(=O)O)N

> <PUBCHEM_OPENEYE_ISO_SMILES>
CCCCC[C@@H](/C=C/[C@H]1C=CC(=O)[C@@H]1CCCCCCC(=O)O)O.C(CC(=O)N[C@@H](CS)C(=O)NCC(=O)O)[C@@H](C(=O)O)N

> <PUBCHEM_CACTVS_TPSA>
234

> <PUBCHEM_MONOISOTOPIC_WEIGHT>
643.313866

> <PUBCHEM_TOTAL_CHARGE>
0

> <PUBCHEM_HEAVY_ATOM_COUNT>
44

> <PUBCHEM_ATOM_DEF_STEREO_COUNT>
5

> <PUBCHEM_ATOM_UDEF_STEREO_COUNT>
0

> <PUBCHEM_BOND_DEF_STEREO_COUNT>
1

> <PUBCHEM_BOND_UDEF_STEREO_COUNT>
0

> <PUBCHEM_ISOTOPIC_ATOM_COUNT>
0

> <PUBCHEM_COMPONENT_COUNT>
2

> <PUBCHEM_CACTVS_TAUTO_COUNT>
100

> <PUBCHEM_COORDINATE_TYPE>
1
5
255

> <PUBCHEM_BONDANNOTATIONS>
38  12  6
37  13  5
15  17  6
16  22  5
27  3  5

$$$$

