47205008
  -OEChem-06241222573D

 36 37  0     0  0  0  0  0  0999 V2000
   -0.9440    2.2166   -1.2787 O   0  0  0  0  0  0  0  0  0  0  0  0
    1.0614   -2.4100   -1.5226 O   0  0  0  0  0  0  0  0  0  0  0  0
    0.4814   -2.3847    0.7254 N   0  0  0  0  0  0  0  0  0  0  0  0
   -2.2067   -0.8262    1.3247 N   0  0  0  0  0  0  0  0  0  0  0  0
   -3.0378    0.1519    0.9260 N   0  0  0  0  0  0  0  0  0  0  0  0
    3.1154   -0.4095   -0.4835 C   0  0  0  0  0  0  0  0  0  0  0  0
    2.7212   -1.7587    0.1148 C   0  0  0  0  0  0  0  0  0  0  0  0
    2.1534    0.6793   -0.0843 C   0  0  0  0  0  0  0  0  0  0  0  0
    1.3485   -2.2167   -0.3444 C   0  0  0  0  0  0  0  0  0  0  0  0
   -0.8858   -2.8162    0.5534 C   0  0  0  0  0  0  0  0  0  0  0  0
    1.0360    0.9469   -0.8752 C   0  0  0  0  0  0  0  0  0  0  0  0
    2.3806    1.4202    1.0756 C   0  0  0  0  0  0  0  0  0  0  0  0
   -1.8147   -1.6602    0.3192 C   0  0  0  0  0  0  0  0  0  0  0  0
    0.1455    1.9553   -0.5062 C   0  0  0  0  0  0  0  0  0  0  0  0
    1.4904    2.4287    1.4446 C   0  0  0  0  0  0  0  0  0  0  0  0
    0.3726    2.6961    0.6538 C   0  0  0  0  0  0  0  0  0  0  0  0
   -2.4326   -1.1957   -0.8162 C   0  0  0  0  0  0  0  0  0  0  0  0
   -3.1720   -0.0789   -0.3827 C   0  0  0  0  0  0  0  0  0  0  0  0
   -1.8126    3.2618   -0.8437 C   0  0  0  0  0  0  0  0  0  0  0  0
    4.1307   -0.1456   -0.1625 H   0  0  0  0  0  0  0  0  0  0  0  0
    3.1541   -0.4774   -1.5783 H   0  0  0  0  0  0  0  0  0  0  0  0
    3.4396   -2.5245   -0.2009 H   0  0  0  0  0  0  0  0  0  0  0  0
    2.7744   -1.7119    1.2088 H   0  0  0  0  0  0  0  0  0  0  0  0
   -1.1772   -3.3563    1.4607 H   0  0  0  0  0  0  0  0  0  0  0  0
   -0.9403   -3.5163   -0.2877 H   0  0  0  0  0  0  0  0  0  0  0  0
    0.7934   -2.1782    1.6695 H   0  0  0  0  0  0  0  0  0  0  0  0
    0.8541    0.3817   -1.7856 H   0  0  0  0  0  0  0  0  0  0  0  0
    3.2466    1.2197    1.7008 H   0  0  0  0  0  0  0  0  0  0  0  0
    1.6679    3.0047    2.3481 H   0  0  0  0  0  0  0  0  0  0  0  0
   -0.2774    3.4930    0.9984 H   0  0  0  0  0  0  0  0  0  0  0  0
   -2.3577   -1.6036   -1.8136 H   0  0  0  0  0  0  0  0  0  0  0  0
   -1.9456   -0.8635    2.3022 H   0  0  0  0  0  0  0  0  0  0  0  0
   -3.8026    0.5763   -0.9661 H   0  0  0  0  0  0  0  0  0  0  0  0
   -2.6308    3.3248   -1.5686 H   0  0  0  0  0  0  0  0  0  0  0  0
   -1.3048    4.2322   -0.8486 H   0  0  0  0  0  0  0  0  0  0  0  0
   -2.2635    3.0372    0.1286 H   0  0  0  0  0  0  0  0  0  0  0  0
  1 14  1  0  0  0  0
  1 19  1  0  0  0  0
  2  9  2  0  0  0  0
  3  9  1  0  0  0  0
  3 10  1  0  0  0  0
  3 26  1  0  0  0  0
  4  5  1  0  0  0  0
  4 13  1  0  0  0  0
  4 32  1  0  0  0  0
  5 18  2  0  0  0  0
  6  7  1  0  0  0  0
  6  8  1  0  0  0  0
  6 20  1  0  0  0  0
  6 21  1  0  0  0  0
  7  9  1  0  0  0  0
  7 22  1  0  0  0  0
  7 23  1  0  0  0  0
  8 11  2  0  0  0  0
  8 12  1  0  0  0  0
 10 13  1  0  0  0  0
 10 24  1  0  0  0  0
 10 25  1  0  0  0  0
 11 14  1  0  0  0  0
 11 27  1  0  0  0  0
 12 15  2  0  0  0  0
 12 28  1  0  0  0  0
 13 17  2  0  0  0  0
 14 16  2  0  0  0  0
 15 16  1  0  0  0  0
 15 29  1  0  0  0  0
 16 30  1  0  0  0  0
 17 18  1  0  0  0  0
 17 31  1  0  0  0  0
 18 33  1  0  0  0  0
 19 34  1  0  0  0  0
 19 35  1  0  0  0  0
 19 36  1  0  0  0  0
M  END
> <PUBCHEM_COMPOUND_CID>
47205008

> <PUBCHEM_CONFORMER_RMSD>
0.8

> <PUBCHEM_CONFORMER_DIVERSEORDER>
1
143
291
313
286
264
190
146
295
42
2
339
218
277
340
121
64
274
265
323
238
6
66
191
214
168
349
208
91
76
322
21
50
212
141
114
355
341
116
356
181
95
334
326
240
13
153
232
234
88
31
15
249
204
336
17
157
65
276
213
327
25
139
303
221
77
136
348
81
243
108
328
94
207
122
304
152
16
20
364
306
113
154
354
210
43
8
269
275
40
93
82
239
209
315
256
11
227
352
102
55
201
184
361
3
261
345
44
62
170
53
80
186
4
203
176
267
10
273
250
61
235
347
132
5
254
32
86
317
346
37
48
268
133
272
229
129
302
26
60
145
130
175
111
56
281
362
196
12
7
337
131
34
178
124
177
287
142
365
258
84
241
343
236
169
46
331
9
363
188
247
128
100
189
14
150
30
262
205
147
96
215
225
289
51
87
246
284
192
75
83
271
309
242
39
63
279
161
358
38
342
134
228
359
197
101
253
49
353
85
36
27
321
222
119
155
110
57
109
92
220
79
72
135
125
164
288
171
230
332
293
71
174
33
162
149
329
350
244
24
211
308
260
216
144
182
335
70
68
158
35
173
333
160
312
259
307
47
69
257
325
90
299
19
292
23
223
180
22
301
224
58
195
137
115
107
324
252
285
73
338
351
148
278
165
199
104
89
266
183
138
318
59
118
206
167
127
231
294
233
18
311
360
172
106
163
248
99
28
226
300
151
185
117
255
140
159
357
290
194
74
78
54
296
103
41
126
98
245
112
52
314
237
316
320
187
298
200
67
282
29
198
219
166
297
251
283
263
120
319
202
193
330
280
310
105
45
179
270
344
156
123
217
305
97

> <PUBCHEM_MMFF94_PARTIAL_CHARGES>
27
1 -0.36
10 0.48
11 -0.15
12 -0.15
13 -0.33
14 0.08
15 -0.15
16 -0.15
17 -0.15
18 0.14
19 0.28
2 -0.57
26 0.37
27 0.15
28 0.15
29 0.15
3 -0.73
30 0.15
31 0.15
32 0.27
33 0.15
4 0.3
5 -0.71
6 0.14
7 0.06
8 -0.14
9 0.57

> <PUBCHEM_EFFECTIVE_ROTOR_COUNT>
7

> <PUBCHEM_PHARMACOPHORE_FEATURES>
7
1 1 acceptor
1 2 acceptor
1 3 donor
1 4 donor
1 5 acceptor
5 4 5 13 17 18 rings
6 8 11 12 14 15 16 rings

> <PUBCHEM_HEAVY_ATOM_COUNT>
19

> <PUBCHEM_ATOM_DEF_STEREO_COUNT>
0

> <PUBCHEM_ATOM_UDEF_STEREO_COUNT>
0

> <PUBCHEM_BOND_DEF_STEREO_COUNT>
0

> <PUBCHEM_BOND_UDEF_STEREO_COUNT>
0

> <PUBCHEM_ISOTOPIC_ATOM_COUNT>
0

> <PUBCHEM_COMPONENT_COUNT>
1

> <PUBCHEM_CACTVS_TAUTO_COUNT>
4

> <PUBCHEM_CONFORMER_ID>
02D04A9000000001

> <PUBCHEM_MMFF94_ENERGY>
37.5796

> <PUBCHEM_FEATURE_SELFOVERLAP>
35.52

> <PUBCHEM_SHAPE_FINGERPRINT>
104564 63 18267009738585417110
11370993 70 17683823015814627081
12716301 132 18196680538456594840
128993 33 17327985825765410051
13140716 1 18267303123311196058
14178342 30 17977663104797046865
1420 336 17040920334865093367
14251745 187 18412269466546884216
16945 1 18272651204019829708
17093844 170 18271537488803791909
18219364 16 18270955748410583699
192875 21 17329734027731498519
19930374 2 17906766637824465656
20905425 154 18339647835839294207
21330990 113 18050852109617965648
22721475 48 18340762740629605692
2334 1 17906731406038580558
23419403 2 15831492556932688083
238 59 18120970366464154149
2748010 2 18122620552933905774
35225 105 15580904103022789280
3524813 1 18269555116525003509
484985 159 6188085766929298510
5939293 188 18408886213454780610

> <PUBCHEM_SHAPE_MULTIPOLES>
364.33
4.47
4.18
1.28
1.47
0.71
-0.06
-0.32
-0.71
-0.36
0.59
-0.01
0.26
0.95

> <PUBCHEM_SHAPE_SELFOVERLAP>
763.511

> <PUBCHEM_SHAPE_VOLUME>
205.7

> <PUBCHEM_COORDINATE_TYPE>
2
5
10

$$$$

