5281993
  -OEChem-07051213022D

 92 94  0     1  0  0  0  0  0999 V2000
    8.1962    0.9887    0.0000 O   0  0  0  0  0  0  0  0  0  0  0  0
    4.6660    0.9646    0.0000 N   0  0  0  0  0  0  0  0  0  0  0  0
    4.6660   -1.0354    0.0000 N   0  0  0  0  0  0  0  0  0  0  0  0
   10.7961    0.4987    0.0000 C   0  0  3  0  0  0  0  0  0  0  0  0
   11.6602    1.0021    0.0000 C   0  0  0  0  0  0  0  0  0  0  0  0
    9.9282    0.9954    0.0000 C   0  0  0  0  0  0  0  0  0  0  0  0
   12.5282    0.5054    0.0000 C   0  0  0  0  0  0  0  0  0  0  0  0
   10.8000   -0.5013    0.0000 C   0  0  0  0  0  0  0  0  0  0  0  0
    9.0641    0.4921    0.0000 C   0  0  0  0  0  0  0  0  0  0  0  0
   13.3923    1.0087    0.0000 C   0  0  0  0  0  0  0  0  0  0  0  0
   14.2602    0.5121    0.0000 C   0  0  0  0  0  0  0  0  0  0  0  0
   15.1243    1.0154    0.0000 C   0  0  0  0  0  0  0  0  0  0  0  0
   15.9923    0.5188    0.0000 C   0  0  0  0  0  0  0  0  0  0  0  0
   14.2641   -0.4879    0.0000 C   0  0  0  0  0  0  0  0  0  0  0  0
    7.3321    0.4854    0.0000 C   0  0  0  0  0  0  0  0  0  0  0  0
   16.8563    1.0221    0.0000 C   0  0  0  0  0  0  0  0  0  0  0  0
   17.7243    0.5254    0.0000 C   0  0  0  0  0  0  0  0  0  0  0  0
   18.5884    1.0288    0.0000 C   0  0  0  0  0  0  0  0  0  0  0  0
    5.5321    0.4646    0.0000 C   0  0  0  0  0  0  0  0  0  0  0  0
    6.4260    0.9992    0.0000 C   0  0  0  0  0  0  0  0  0  0  0  0
    5.5321   -0.5354    0.0000 C   0  0  0  0  0  0  0  0  0  0  0  0
   19.4563    0.5321    0.0000 C   0  0  0  0  0  0  0  0  0  0  0  0
    7.3321   -0.5563    0.0000 C   0  0  0  0  0  0  0  0  0  0  0  0
    6.4260   -1.0701    0.0000 C   0  0  0  0  0  0  0  0  0  0  0  0
    3.8000    0.4646    0.0000 C   0  0  0  0  0  0  0  0  0  0  0  0
    3.8000   -0.5354    0.0000 C   0  0  0  0  0  0  0  0  0  0  0  0
   20.3204    1.0354    0.0000 C   0  0  0  0  0  0  0  0  0  0  0  0
   17.7282   -0.4746    0.0000 C   0  0  0  0  0  0  0  0  0  0  0  0
   21.1884    0.5388    0.0000 C   0  0  0  0  0  0  0  0  0  0  0  0
   22.0525    1.0421    0.0000 C   0  0  0  0  0  0  0  0  0  0  0  0
   22.9204    0.5455    0.0000 C   0  0  0  0  0  0  0  0  0  0  0  0
    2.9061    0.9992    0.0000 C   0  0  0  0  0  0  0  0  0  0  0  0
    2.9061   -1.0701    0.0000 C   0  0  0  0  0  0  0  0  0  0  0  0
   21.1922   -0.4612    0.0000 C   0  0  0  0  0  0  0  0  0  0  0  0
    2.0000    0.4854    0.0000 C   0  0  0  0  0  0  0  0  0  0  0  0
    2.0000   -0.5563    0.0000 C   0  0  0  0  0  0  0  0  0  0  0  0
   23.7845    1.0488    0.0000 C   0  0  0  0  0  0  0  0  0  0  0  0
   24.6524    0.5521    0.0000 C   0  0  0  0  0  0  0  0  0  0  0  0
   25.5165    1.0555    0.0000 C   0  0  0  0  0  0  0  0  0  0  0  0
   24.6563   -0.4479    0.0000 C   0  0  0  0  0  0  0  0  0  0  0  0
   10.2604    0.1867    0.0000 H   0  0  0  0  0  0  0  0  0  0  0  0
   12.0569    1.4785    0.0000 H   0  0  0  0  0  0  0  0  0  0  0  0
   11.2599    1.4755    0.0000 H   0  0  0  0  0  0  0  0  0  0  0  0
   10.3249    1.4719    0.0000 H   0  0  0  0  0  0  0  0  0  0  0  0
    9.5278    1.4688    0.0000 H   0  0  0  0  0  0  0  0  0  0  0  0
   12.1315    0.0289    0.0000 H   0  0  0  0  0  0  0  0  0  0  0  0
   12.9285    0.0320    0.0000 H   0  0  0  0  0  0  0  0  0  0  0  0
   10.1800   -0.5037    0.0000 H   0  0  0  0  0  0  0  0  0  0  0  0
   10.8024   -1.1213    0.0000 H   0  0  0  0  0  0  0  0  0  0  0  0
   11.4200   -0.4989    0.0000 H   0  0  0  0  0  0  0  0  0  0  0  0
    8.6674    0.0156    0.0000 H   0  0  0  0  0  0  0  0  0  0  0  0
    9.4645    0.0186    0.0000 H   0  0  0  0  0  0  0  0  0  0  0  0
   13.3899    1.6287    0.0000 H   0  0  0  0  0  0  0  0  0  0  0  0
   15.5210    1.4919    0.0000 H   0  0  0  0  0  0  0  0  0  0  0  0
   14.7240    1.4888    0.0000 H   0  0  0  0  0  0  0  0  0  0  0  0
   15.5956    0.0423    0.0000 H   0  0  0  0  0  0  0  0  0  0  0  0
   16.3926    0.0453    0.0000 H   0  0  0  0  0  0  0  0  0  0  0  0
   13.6441   -0.4903    0.0000 H   0  0  0  0  0  0  0  0  0  0  0  0
   14.2665   -1.1079    0.0000 H   0  0  0  0  0  0  0  0  0  0  0  0
   14.8841   -0.4855    0.0000 H   0  0  0  0  0  0  0  0  0  0  0  0
   16.8540    1.6421    0.0000 H   0  0  0  0  0  0  0  0  0  0  0  0
   18.9851    1.5052    0.0000 H   0  0  0  0  0  0  0  0  0  0  0  0
   18.1880    1.5022    0.0000 H   0  0  0  0  0  0  0  0  0  0  0  0
    6.4188    1.6192    0.0000 H   0  0  0  0  0  0  0  0  0  0  0  0
   19.0596    0.0556    0.0000 H   0  0  0  0  0  0  0  0  0  0  0  0
   19.8567    0.0587    0.0000 H   0  0  0  0  0  0  0  0  0  0  0  0
    7.8678   -0.8683    0.0000 H   0  0  0  0  0  0  0  0  0  0  0  0
    6.4188   -1.6901    0.0000 H   0  0  0  0  0  0  0  0  0  0  0  0
    4.6660    1.5846    0.0000 H   0  0  0  0  0  0  0  0  0  0  0  0
    4.6660   -1.6554    0.0000 H   0  0  0  0  0  0  0  0  0  0  0  0
   20.3180    1.6554    0.0000 H   0  0  0  0  0  0  0  0  0  0  0  0
   17.1082   -0.4769    0.0000 H   0  0  0  0  0  0  0  0  0  0  0  0
   17.7305   -1.0946    0.0000 H   0  0  0  0  0  0  0  0  0  0  0  0
   18.3481   -0.4722    0.0000 H   0  0  0  0  0  0  0  0  0  0  0  0
   22.4492    1.5186    0.0000 H   0  0  0  0  0  0  0  0  0  0  0  0
   21.6521    1.5155    0.0000 H   0  0  0  0  0  0  0  0  0  0  0  0
   22.5237    0.0690    0.0000 H   0  0  0  0  0  0  0  0  0  0  0  0
   23.3208    0.0721    0.0000 H   0  0  0  0  0  0  0  0  0  0  0  0
    2.9132    1.6192    0.0000 H   0  0  0  0  0  0  0  0  0  0  0  0
    2.9132   -1.6901    0.0000 H   0  0  0  0  0  0  0  0  0  0  0  0
   20.5722   -0.4636    0.0000 H   0  0  0  0  0  0  0  0  0  0  0  0
   21.1946   -1.0812    0.0000 H   0  0  0  0  0  0  0  0  0  0  0  0
   21.8122   -0.4588    0.0000 H   0  0  0  0  0  0  0  0  0  0  0  0
    1.4643    0.7974    0.0000 H   0  0  0  0  0  0  0  0  0  0  0  0
    1.4643   -0.8683    0.0000 H   0  0  0  0  0  0  0  0  0  0  0  0
   23.7821    1.6688    0.0000 H   0  0  0  0  0  0  0  0  0  0  0  0
   25.8286    0.5197    0.0000 H   0  0  0  0  0  0  0  0  0  0  0  0
   26.0523    1.3675    0.0000 H   0  0  0  0  0  0  0  0  0  0  0  0
   25.2045    1.5912    0.0000 H   0  0  0  0  0  0  0  0  0  0  0  0
   24.0363   -0.4502    0.0000 H   0  0  0  0  0  0  0  0  0  0  0  0
   24.6587   -1.0678    0.0000 H   0  0  0  0  0  0  0  0  0  0  0  0
   25.2763   -0.4455    0.0000 H   0  0  0  0  0  0  0  0  0  0  0  0
  1  9  1  0  0  0  0
  1 15  1  0  0  0  0
  2 19  1  0  0  0  0
  2 25  1  0  0  0  0
  2 69  1  0  0  0  0
  3 21  1  0  0  0  0
  3 26  1  0  0  0  0
  3 70  1  0  0  0  0
  4  5  1  0  0  0  0
  4  6  1  0  0  0  0
  4  8  1  0  0  0  0
  4 41  1  0  0  0  0
  5  7  1  0  0  0  0
  5 42  1  0  0  0  0
  5 43  1  0  0  0  0
  6  9  1  0  0  0  0
  6 44  1  0  0  0  0
  6 45  1  0  0  0  0
  7 10  1  0  0  0  0
  7 46  1  0  0  0  0
  7 47  1  0  0  0  0
  8 48  1  0  0  0  0
  8 49  1  0  0  0  0
  8 50  1  0  0  0  0
  9 51  1  0  0  0  0
  9 52  1  0  0  0  0
 10 11  2  0  0  0  0
 10 53  1  0  0  0  0
 11 12  1  0  0  0  0
 11 14  1  0  0  0  0
 12 13  1  0  0  0  0
 12 54  1  0  0  0  0
 12 55  1  0  0  0  0
 13 16  1  0  0  0  0
 13 56  1  0  0  0  0
 13 57  1  0  0  0  0
 14 58  1  0  0  0  0
 14 59  1  0  0  0  0
 14 60  1  0  0  0  0
 15 20  2  0  0  0  0
 15 23  1  0  0  0  0
 16 17  2  0  0  0  0
 16 61  1  0  0  0  0
 17 18  1  0  0  0  0
 17 28  1  0  0  0  0
 18 22  1  0  0  0  0
 18 62  1  0  0  0  0
 18 63  1  0  0  0  0
 19 20  1  0  0  0  0
 19 21  2  0  0  0  0
 20 64  1  0  0  0  0
 21 24  1  0  0  0  0
 22 27  1  0  0  0  0
 22 65  1  0  0  0  0
 22 66  1  0  0  0  0
 23 24  2  0  0  0  0
 23 67  1  0  0  0  0
 24 68  1  0  0  0  0
 25 26  1  0  0  0  0
 25 32  2  0  0  0  0
 26 33  2  0  0  0  0
 27 29  2  0  0  0  0
 27 71  1  0  0  0  0
 28 72  1  0  0  0  0
 28 73  1  0  0  0  0
 28 74  1  0  0  0  0
 29 30  1  0  0  0  0
 29 34  1  0  0  0  0
 30 31  1  0  0  0  0
 30 75  1  0  0  0  0
 30 76  1  0  0  0  0
 31 37  1  0  0  0  0
 31 77  1  0  0  0  0
 31 78  1  0  0  0  0
 32 35  1  0  0  0  0
 32 79  1  0  0  0  0
 33 36  1  0  0  0  0
 33 80  1  0  0  0  0
 34 81  1  0  0  0  0
 34 82  1  0  0  0  0
 34 83  1  0  0  0  0
 35 36  2  0  0  0  0
 35 84  1  0  0  0  0
 36 85  1  0  0  0  0
 37 38  2  0  0  0  0
 37 86  1  0  0  0  0
 38 39  1  0  0  0  0
 38 40  1  0  0  0  0
 39 87  1  0  0  0  0
 39 88  1  0  0  0  0
 39 89  1  0  0  0  0
 40 90  1  0  0  0  0
 40 91  1  0  0  0  0
 40 92  1  0  0  0  0
M  END
> <PUBCHEM_COMPOUND_CID>
5281993

> <PUBCHEM_COMPOUND_CANONICALIZED>
1

> <PUBCHEM_CACTVS_COMPLEXITY>
848

> <PUBCHEM_CACTVS_HBOND_ACCEPTOR>
3

> <PUBCHEM_CACTVS_HBOND_DONOR>
2

> <PUBCHEM_CACTVS_ROTATABLE_BOND>
16

> <PUBCHEM_CACTVS_SUBSKEYS>
AAADcfB/IAAAAAAAAAAAAAAAAAAAAAAAAAA8YIAAAAAAAACxQAAAHgAQAAAADQyhkAIyxoLABACAAiRCQACCCAAhIgAIiAAGfIgMZmLEsZuWOCjm0BnI6AewUAMOAEAAAgAAACAAgAAEAAAAQAAAAAAAAA==

> <PUBCHEM_IUPAC_OPENEYE_NAME>
2-[(6E,10E,14E)-3,7,11,15,19-pentamethylicosa-6,10,14,18-tetraenoxy]-5,10-dihydrophenazine

> <PUBCHEM_IUPAC_CAS_NAME>
2-[(6E,10E,14E)-3,7,11,15,19-pentamethyleicosa-6,10,14,18-tetraenoxy]-5,10-dihydrophenazine

> <PUBCHEM_IUPAC_NAME>
2-[(6E,10E,14E)-3,7,11,15,19-pentamethylicosa-6,10,14,18-tetraenoxy]-5,10-dihydrophenazine

> <PUBCHEM_IUPAC_SYSTEMATIC_NAME>
2-[(6E,10E,14E)-3,7,11,15,19-pentamethylicosa-6,10,14,18-tetraenoxy]-5,10-dihydrophenazine

> <PUBCHEM_IUPAC_TRADITIONAL_NAME>
2-[(6E,10E,14E)-3,7,11,15,19-pentamethyleicosa-6,10,14,18-tetraenoxy]-5,10-dihydrophenazine

> <PUBCHEM_IUPAC_INCHI>
InChI=1S/C37H52N2O/c1-28(2)13-9-14-29(3)15-10-16-30(4)17-11-18-31(5)19-12-20-32(6)25-26-40-33-23-24-36-37(27-33)39-35-22-8-7-21-34(35)38-36/h7-8,13,15,17,19,21-24,27,32,38-39H,9-12,14,16,18,20,25-26H2,1-6H3/b29-15+,30-17+,31-19+

> <PUBCHEM_IUPAC_INCHIKEY>
LNCNNIYZOUNGMU-QAAQOENVSA-N

> <PUBCHEM_XLOGP3_AA>
12.2

> <PUBCHEM_EXACT_MASS>
540.407964

> <PUBCHEM_MOLECULAR_FORMULA>
C37H52N2O

> <PUBCHEM_MOLECULAR_WEIGHT>
540.82158

> <PUBCHEM_OPENEYE_CAN_SMILES>
CC(CCC=C(C)CCC=C(C)CCC=C(C)CCC=C(C)C)CCOC1=CC2=C(C=C1)NC3=CC=CC=C3N2

> <PUBCHEM_OPENEYE_ISO_SMILES>
CC(CC/C=C(\C)/CC/C=C(\C)/CC/C=C(\C)/CCC=C(C)C)CCOC1=CC2=C(C=C1)NC3=CC=CC=C3N2

> <PUBCHEM_CACTVS_TPSA>
33.3

> <PUBCHEM_MONOISOTOPIC_WEIGHT>
540.407964

> <PUBCHEM_TOTAL_CHARGE>
0

> <PUBCHEM_HEAVY_ATOM_COUNT>
40

> <PUBCHEM_ATOM_DEF_STEREO_COUNT>
0

> <PUBCHEM_ATOM_UDEF_STEREO_COUNT>
1

> <PUBCHEM_BOND_DEF_STEREO_COUNT>
3

> <PUBCHEM_BOND_UDEF_STEREO_COUNT>
0

> <PUBCHEM_ISOTOPIC_ATOM_COUNT>
0

> <PUBCHEM_COMPONENT_COUNT>
1

> <PUBCHEM_CACTVS_TAUTO_COUNT>
1

> <PUBCHEM_COORDINATE_TYPE>
1
5
255

> <PUBCHEM_BONDANNOTATIONS>
15  20  8
15  23  8
19  20  8
19  21  8
21  24  8
23  24  8
25  26  8
25  32  8
26  33  8
32  35  8
33  36  8
35  36  8
4  8  3

$$$$

