5281680
  -OEChem-07051212583D

 33 35  0     0  0  0  0  0  0999 V2000
   -0.0832   -0.8374    0.1319 O   0  0  0  0  0  0  0  0  0  0  0  0
    1.0247    2.6766    0.0228 O   0  0  0  0  0  0  0  0  0  0  0  0
   -4.1228    1.8162   -0.1506 O   0  0  0  0  0  0  0  0  0  0  0  0
   -1.7470    2.8753   -0.0954 O   0  0  0  0  0  0  0  0  0  0  0  0
   -5.5887   -0.4833   -0.1243 O   0  0  0  0  0  0  0  0  0  0  0  0
   -4.3306   -2.9401    0.0282 O   0  0  0  0  0  0  0  0  0  0  0  0
    4.9446   -0.6422   -2.0488 O   0  0  0  0  0  0  0  0  0  0  0  0
    6.2080   -0.7986    0.4212 O   0  0  0  0  0  0  0  0  0  0  0  0
   -2.0756    0.5415   -0.0098 C   0  0  0  0  0  0  0  0  0  0  0  0
   -1.4455   -0.6985    0.0671 C   0  0  0  0  0  0  0  0  0  0  0  0
    0.6990    0.3067    0.1324 C   0  0  0  0  0  0  0  0  0  0  0  0
   -1.2505    1.7592   -0.0233 C   0  0  0  0  0  0  0  0  0  0  0  0
    2.1420    0.0164    0.2047 C   0  0  0  0  0  0  0  0  0  0  0  0
    0.2170    1.5604    0.0532 C   0  0  0  0  0  0  0  0  0  0  0  0
   -3.4690    0.6222   -0.0748 C   0  0  0  0  0  0  0  0  0  0  0  0
   -2.2059   -1.8681    0.0791 C   0  0  0  0  0  0  0  0  0  0  0  0
   -4.2273   -0.5490   -0.0620 C   0  0  0  0  0  0  0  0  0  0  0  0
   -3.5973   -1.7919    0.0147 C   0  0  0  0  0  0  0  0  0  0  0  0
    2.8743   -0.1783   -0.9667 C   0  0  0  0  0  0  0  0  0  0  0  0
    2.7766   -0.0636    1.4445 C   0  0  0  0  0  0  0  0  0  0  0  0
    4.2403   -0.4526   -0.8984 C   0  0  0  0  0  0  0  0  0  0  0  0
    4.1425   -0.3382    1.5129 C   0  0  0  0  0  0  0  0  0  0  0  0
    4.8743   -0.5326    0.3414 C   0  0  0  0  0  0  0  0  0  0  0  0
   -1.7168   -2.8372    0.1387 H   0  0  0  0  0  0  0  0  0  0  0  0
    2.3875   -0.1184   -1.9378 H   0  0  0  0  0  0  0  0  0  0  0  0
    2.2193    0.0855    2.3663 H   0  0  0  0  0  0  0  0  0  0  0  0
    4.6306   -0.3990    2.4818 H   0  0  0  0  0  0  0  0  0  0  0  0
    1.9567    2.4107    0.0759 H   0  0  0  0  0  0  0  0  0  0  0  0
   -3.4941    2.5536   -0.1453 H   0  0  0  0  0  0  0  0  0  0  0  0
   -5.8486    0.4531   -0.1726 H   0  0  0  0  0  0  0  0  0  0  0  0
   -5.2727   -2.7020   -0.0226 H   0  0  0  0  0  0  0  0  0  0  0  0
    5.7490   -1.1516   -1.8599 H   0  0  0  0  0  0  0  0  0  0  0  0
    6.6387   -0.5657   -0.4171 H   0  0  0  0  0  0  0  0  0  0  0  0
  1 10  1  0  0  0  0
  1 11  1  0  0  0  0
  2 14  1  0  0  0  0
  2 28  1  0  0  0  0
  3 15  1  0  0  0  0
  3 29  1  0  0  0  0
  4 12  2  0  0  0  0
  5 17  1  0  0  0  0
  5 30  1  0  0  0  0
  6 18  1  0  0  0  0
  6 31  1  0  0  0  0
  7 21  1  0  0  0  0
  7 32  1  0  0  0  0
  8 23  1  0  0  0  0
  8 33  1  0  0  0  0
  9 10  2  0  0  0  0
  9 12  1  0  0  0  0
  9 15  1  0  0  0  0
 10 16  1  0  0  0  0
 11 13  1  0  0  0  0
 11 14  2  0  0  0  0
 12 14  1  0  0  0  0
 13 19  2  0  0  0  0
 13 20  1  0  0  0  0
 15 17  2  0  0  0  0
 16 18  2  0  0  0  0
 16 24  1  0  0  0  0
 17 18  1  0  0  0  0
 19 21  1  0  0  0  0
 19 25  1  0  0  0  0
 20 22  2  0  0  0  0
 20 26  1  0  0  0  0
 21 23  2  0  0  0  0
 22 23  1  0  0  0  0
 22 27  1  0  0  0  0
M  END
> <PUBCHEM_COMPOUND_CID>
5281680

> <PUBCHEM_CONFORMER_RMSD>
0.6

> <PUBCHEM_CONFORMER_DIVERSEORDER>
1
4
2
3

> <PUBCHEM_MMFF94_PARTIAL_CHARGES>
33
1 -0.16
10 0.08
11 0.05
12 0.47
13 0.03
14 0.09
15 0.08
16 -0.15
17 0.08
18 0.08
19 -0.15
2 -0.53
20 -0.15
21 0.08
22 -0.15
23 0.08
24 0.15
25 0.15
26 0.15
27 0.15
28 0.45
29 0.45
3 -0.53
30 0.45
31 0.45
32 0.45
33 0.45
4 -0.57
5 -0.53
6 -0.53
7 -0.53
8 -0.53
9 0.09

> <PUBCHEM_EFFECTIVE_ROTOR_COUNT>
1

> <PUBCHEM_PHARMACOPHORE_FEATURES>
11
1 1 acceptor
1 2 donor
1 3 donor
1 4 acceptor
1 5 donor
1 6 donor
1 7 donor
1 8 donor
6 1 9 10 11 12 14 rings
6 13 19 20 21 22 23 rings
6 9 10 15 16 17 18 rings

> <PUBCHEM_HEAVY_ATOM_COUNT>
23

> <PUBCHEM_ATOM_DEF_STEREO_COUNT>
0

> <PUBCHEM_ATOM_UDEF_STEREO_COUNT>
0

> <PUBCHEM_BOND_DEF_STEREO_COUNT>
0

> <PUBCHEM_BOND_UDEF_STEREO_COUNT>
0

> <PUBCHEM_ISOTOPIC_ATOM_COUNT>
0

> <PUBCHEM_COMPONENT_COUNT>
1

> <PUBCHEM_CACTVS_TAUTO_COUNT>
998

> <PUBCHEM_CONFORMER_ID>
0050979000000001

> <PUBCHEM_MMFF94_ENERGY>
70.3766

> <PUBCHEM_FEATURE_SELFOVERLAP>
55.861

> <PUBCHEM_SHAPE_FINGERPRINT>
10 15 17895773829014737026
10319926 262 18191893269440548762
10411042 1 18267305323084018259
11046707 91 18412263926202440185
11370993 144 16877933975281542515
11552529 35 14419285130822619924
12107183 9 17479749655232766194
12236239 1 17703509982537989602
12403814 3 5112009426388028811
12553582 1 18413671301133596275
12616971 3 17203325645887587878
12788726 201 18200880685448449385
13140716 1 18337955589229624545
13288520 33 18410857659425808403
13544653 18 17530962475475749050
13675066 3 17894635820365900123
13862211 1 18411142424585097955
14386348 63 17894912949342174294
14790565 3 17760359294681291265
15196674 1 18339362967959699921
15961568 22 18268716022336094836
16752209 62 18343306993340553538
17138139 8 17559965307262984578
17492 89 17977668602593315695
17804303 29 18409169904777151225
17844677 252 18408038507354452392
18222031 100 18261394407974292247
19141452 34 17749111050168230783
200 152 16630529561491911376
20028762 73 18043532716483632847
20374829 77 18410856538402602799
21033648 29 17168158856888607146
21033650 10 18055892524306411116
21065201 7 18335423521256278426
21267235 1 18413103940570664779
2297311 6 18335977631908366230
23175994 123 17313101943203272737
23366157 5 17914898630113566236
23402539 116 18411425028689548470
23557571 272 18187929525427060016
23559900 14 18335990791530438424
3004659 81 18202566150752982350
314173 85 18260823791451331145
335352 9 18411704271248512525
3411729 13 18193002509090992368
4325135 7 18341332207082636676
474 4 16987703603468052140
5104073 3 18335981969767606073
559249 180 18201164359232156715
602551 16 18408606967951218474
7970288 3 18339928099746887138
8863177 126 17700681866981118395
9709674 26 18124878950123209003

> <PUBCHEM_SHAPE_MULTIPOLES>
426.37
11.75
2.29
1.04
5.59
0.72
-0.11
-5.21
-0.69
-3.02
-0.04
1.81
-0.18
0.22

> <PUBCHEM_SHAPE_SELFOVERLAP>
958.595

> <PUBCHEM_SHAPE_VOLUME>
223.6

> <PUBCHEM_COORDINATE_TYPE>
2
5
10

$$$$

