443835
  -OEChem-07051213033D

 36 38  0     1  0  0  0  0  0999 V2000
   -2.4834   -0.6719   -0.6020 O   0  0  0  0  0  0  0  0  0  0  0  0
    0.9170    2.8983    0.0642 O   0  0  0  0  0  0  0  0  0  0  0  0
    1.3782   -2.4040   -0.3856 O   0  0  0  0  0  0  0  0  0  0  0  0
    3.9157   -2.2939   -0.1345 O   0  0  0  0  0  0  0  0  0  0  0  0
   -6.1537    0.3746   -0.7183 O   0  0  0  0  0  0  0  0  0  0  0  0
   -5.1454   -0.7680    0.9723 O   0  0  0  0  0  0  0  0  0  0  0  0
   -2.6492    0.4906    0.2127 C   0  0  1  0  0  0  0  0  0  0  0  0
   -1.5189    1.4777   -0.0841 C   0  0  0  0  0  0  0  0  0  0  0  0
   -1.2920   -1.4209   -0.3023 C   0  0  1  0  0  0  0  0  0  0  0  0
   -0.1750    0.8006   -0.0823 C   0  0  0  0  0  0  0  0  0  0  0  0
   -0.0692   -0.5344   -0.1758 C   0  0  0  0  0  0  0  0  0  0  0  0
   -4.0085    1.0992   -0.1056 C   0  0  0  0  0  0  0  0  0  0  0  0
    1.0211    1.6781    0.0140 C   0  0  0  0  0  0  0  0  0  0  0  0
    1.2656   -1.1946   -0.2195 C   0  0  0  0  0  0  0  0  0  0  0  0
    2.4636   -0.3497   -0.0631 C   0  0  0  0  0  0  0  0  0  0  0  0
    2.3460    1.0347    0.0487 C   0  0  0  0  0  0  0  0  0  0  0  0
   -1.5311   -2.2877    0.9356 C   0  0  0  0  0  0  0  0  0  0  0  0
    3.7303   -0.9467   -0.0332 C   0  0  0  0  0  0  0  0  0  0  0  0
    3.4937    1.8247    0.1906 C   0  0  0  0  0  0  0  0  0  0  0  0
   -5.1298    0.1242    0.1377 C   0  0  0  0  0  0  0  0  0  0  0  0
    4.8716   -0.1572    0.1095 C   0  0  0  0  0  0  0  0  0  0  0  0
    4.7536    1.2263    0.2212 C   0  0  0  0  0  0  0  0  0  0  0  0
   -2.6314    0.2012    1.2707 H   0  0  0  0  0  0  0  0  0  0  0  0
   -1.5507    2.2852    0.6569 H   0  0  0  0  0  0  0  0  0  0  0  0
   -1.6603    1.9307   -1.0739 H   0  0  0  0  0  0  0  0  0  0  0  0
   -1.1552   -2.0878   -1.1619 H   0  0  0  0  0  0  0  0  0  0  0  0
   -4.1924    1.9940    0.4982 H   0  0  0  0  0  0  0  0  0  0  0  0
   -4.0343    1.3811   -1.1660 H   0  0  0  0  0  0  0  0  0  0  0  0
   -1.5851   -1.6871    1.8498 H   0  0  0  0  0  0  0  0  0  0  0  0
   -2.4841   -2.8210    0.8488 H   0  0  0  0  0  0  0  0  0  0  0  0
   -0.7354   -3.0265    1.0712 H   0  0  0  0  0  0  0  0  0  0  0  0
    3.4279    2.9058    0.2794 H   0  0  0  0  0  0  0  0  0  0  0  0
    5.8574   -0.6142    0.1347 H   0  0  0  0  0  0  0  0  0  0  0  0
    5.6429    1.8399    0.3319 H   0  0  0  0  0  0  0  0  0  0  0  0
    3.0661   -2.7592   -0.1319 H   0  0  0  0  0  0  0  0  0  0  0  0
   -6.9020   -0.2455   -0.5848 H   0  0  0  0  0  0  0  0  0  0  0  0
  1  7  1  0  0  0  0
  1  9  1  0  0  0  0
  2 13  2  0  0  0  0
  3 14  2  0  0  0  0
  4 18  1  0  0  0  0
  4 35  1  0  0  0  0
  5 20  1  0  0  0  0
  5 36  1  0  0  0  0
  6 20  2  0  0  0  0
  7  8  1  0  0  0  0
  7 12  1  0  0  0  0
  7 23  1  0  0  0  0
  8 10  1  0  0  0  0
  8 24  1  0  0  0  0
  8 25  1  0  0  0  0
  9 11  1  0  0  0  0
  9 17  1  0  0  0  0
  9 26  1  0  0  0  0
 10 11  2  0  0  0  0
 10 13  1  0  0  0  0
 11 14  1  0  0  0  0
 12 20  1  0  0  0  0
 12 27  1  0  0  0  0
 12 28  1  0  0  0  0
 13 16  1  0  0  0  0
 14 15  1  0  0  0  0
 15 16  2  0  0  0  0
 15 18  1  0  0  0  0
 16 19  1  0  0  0  0
 17 29  1  0  0  0  0
 17 30  1  0  0  0  0
 17 31  1  0  0  0  0
 18 21  2  0  0  0  0
 19 22  2  0  0  0  0
 19 32  1  0  0  0  0
 21 22  1  0  0  0  0
 21 33  1  0  0  0  0
 22 34  1  0  0  0  0
M  END
> <PUBCHEM_COMPOUND_CID>
443835

> <PUBCHEM_CONFORMER_RMSD>
0.6

> <PUBCHEM_CONFORMER_DIVERSEORDER>
1
4
2
5
6
3

> <PUBCHEM_MMFF94_PARTIAL_CHARGES>
26
1 -0.56
10 -0.12
11 -0.12
12 0.06
13 0.47
14 0.47
15 0.09
16 0.09
18 0.08
19 -0.15
2 -0.57
20 0.66
21 -0.15
22 -0.15
3 -0.57
32 0.15
33 0.15
34 0.15
35 0.45
36 0.5
4 -0.53
5 -0.65
6 -0.57
7 0.28
8 0.14
9 0.42

> <PUBCHEM_EFFECTIVE_ROTOR_COUNT>
2.8

> <PUBCHEM_PHARMACOPHORE_FEATURES>
10
1 1 acceptor
1 2 acceptor
1 3 acceptor
1 4 donor
1 5 acceptor
1 6 acceptor
3 5 6 20 anion
6 1 7 8 9 10 11 rings
6 10 11 13 14 15 16 rings
6 15 16 18 19 21 22 rings

> <PUBCHEM_HEAVY_ATOM_COUNT>
22

> <PUBCHEM_ATOM_DEF_STEREO_COUNT>
2

> <PUBCHEM_ATOM_UDEF_STEREO_COUNT>
0

> <PUBCHEM_BOND_DEF_STEREO_COUNT>
0

> <PUBCHEM_BOND_UDEF_STEREO_COUNT>
0

> <PUBCHEM_ISOTOPIC_ATOM_COUNT>
0

> <PUBCHEM_COMPONENT_COUNT>
1

> <PUBCHEM_CACTVS_TAUTO_COUNT>
14

> <PUBCHEM_CONFORMER_ID>
0006C5BB00000001

> <PUBCHEM_MMFF94_ENERGY>
51.6709

> <PUBCHEM_FEATURE_SELFOVERLAP>
50.84

> <PUBCHEM_SHAPE_FINGERPRINT>
10 15 18272095938048283632
10411042 1 17976821214267650910
10688039 33 18131350847136793421
10906281 52 18337091419770245732
10967382 1 18409730677519445148
11471102 20 18409450284436825157
11578080 2 13972526081894719500
12011746 2 18411134749019370516
12236239 1 17749111106366431869
12403259 415 18202004373642313109
12788726 201 17749657562955061800
12838862 33 18337128790998431192
13140716 1 18194402186617229640
13402501 40 18412825793560358729
13533116 47 18113900485238366314
13862211 1 18409453608694052431
14115302 16 17988914557381067598
14341114 176 18411410709701074249
14787075 74 18407762534430930945
14790565 3 18410287034229309197
15196674 1 18337672017865715925
15536298 74 18333450958588264276
1601671 61 18410573951145446004
16945 1 18193276523613686828
17349148 13 18040149630509040065
1813 80 17203326715065770644
18785283 64 18056753239409700005
19591789 44 18339643472136378727
200 152 18041001752289663177
20028762 73 18114751520034418959
20645477 70 18334295409256668734
21033648 29 18130525071286918021
21267235 1 18336820983397542958
21279426 13 18267586995053971629
21421861 104 18059587939932496962
21682296 61 18189608526479252751
2334 1 18337391539874974638
23402539 116 18410018706579417431
23559900 14 18409731725386158800
2748010 2 18408886214050645716
3004659 81 18201718492350727790
335352 9 18409730652002862350
33824 294 18410857676927398578
34934 24 18409736123522275594
350125 39 18338233872681818948
3545911 37 18410572873219229604
3680242 22 18270684293518520618
42630746 31 18333732424948608260
4340502 62 16773794822779170617
495365 180 17531259314009485304
5104073 3 18337953501453461073
69090 78 18408888434084682823
9709674 26 18410007715289024142
9981440 41 17398406225526066241

> <PUBCHEM_SHAPE_MULTIPOLES>
417.53
10.72
2.45
0.72
8.44
0.25
0.05
-0.81
0.31
-1.4
0.12
0.34
0.13
0.56

> <PUBCHEM_SHAPE_SELFOVERLAP>
918.191

> <PUBCHEM_SHAPE_VOLUME>
222.7

> <PUBCHEM_COORDINATE_TYPE>
2
5
10

$$$$

