5280881
  -OEChem-07051212513D

 54 54  0     1  0  0  0  0  0999 V2000
   -1.5121   -4.5075   -0.6811 O   0  0  0  0  0  0  0  0  0  0  0  0
    4.6181    0.2946    1.0691 O   0  0  0  0  0  0  0  0  0  0  0  0
   -0.7652    2.3950    2.3294 O   0  0  0  0  0  0  0  0  0  0  0  0
   -1.8919    3.4115    0.6398 O   0  0  0  0  0  0  0  0  0  0  0  0
    1.6948   -1.5755    1.8265 C   0  0  0  0  0  0  0  0  0  0  0  0
    1.7079   -1.3301    0.3463 C   0  0  0  0  0  0  0  0  0  0  0  0
    2.7590   -0.6299   -0.0993 C   0  0  0  0  0  0  0  0  0  0  0  0
    2.9587   -0.9032    2.3446 C   0  0  0  0  0  0  0  0  0  0  0  0
   -2.8789   -2.5414   -0.2913 C   0  0  0  0  0  0  0  0  0  0  0  0
   -2.9523   -1.0132   -0.3869 C   0  0  0  0  0  0  0  0  0  0  0  0
    3.5715   -0.3362    1.0988 C   0  0  0  0  0  0  0  0  0  0  0  0
   -1.5259   -3.0838   -0.7707 C   0  0  1  0  0  0  0  0  0  0  0  0
    3.1578   -0.1737   -1.4521 C   0  0  0  0  0  0  0  0  0  0  0  0
   -4.3194   -0.4938    0.0629 C   0  0  0  0  0  0  0  0  0  0  0  0
    0.6304   -1.8466   -0.4484 C   0  0  0  0  0  0  0  0  0  0  0  0
   -0.3961   -2.5423    0.0609 C   0  0  0  0  0  0  0  0  0  0  0  0
   -4.3837    1.0319   -0.0041 C   0  0  0  0  0  0  0  0  0  0  0  0
    3.2445    1.3178   -1.6489 C   0  0  0  0  0  0  0  0  0  0  0  0
    2.2552    2.1527   -2.0047 C   0  0  0  0  0  0  0  0  0  0  0  0
   -5.7290    1.5542    0.4740 C   0  0  0  0  0  0  0  0  0  0  0  0
    0.8462    1.7048   -2.2733 C   0  0  0  0  0  0  0  0  0  0  0  0
   -0.1767    2.3669   -1.3454 C   0  0  0  0  0  0  0  0  0  0  0  0
    0.0605    2.0480    0.1321 C   0  0  0  0  0  0  0  0  0  0  0  0
   -0.9735    2.6998    1.0217 C   0  0  0  0  0  0  0  0  0  0  0  0
    1.7191   -2.6451    2.0647 H   0  0  0  0  0  0  0  0  0  0  0  0
    0.8150   -1.1307    2.3061 H   0  0  0  0  0  0  0  0  0  0  0  0
    2.7268   -0.0986    3.0481 H   0  0  0  0  0  0  0  0  0  0  0  0
    3.6401   -1.6254    2.8030 H   0  0  0  0  0  0  0  0  0  0  0  0
   -3.6783   -2.9917   -0.8935 H   0  0  0  0  0  0  0  0  0  0  0  0
   -3.0682   -2.8661    0.7405 H   0  0  0  0  0  0  0  0  0  0  0  0
   -2.7607   -0.6983   -1.4199 H   0  0  0  0  0  0  0  0  0  0  0  0
   -2.1811   -0.5539    0.2416 H   0  0  0  0  0  0  0  0  0  0  0  0
   -1.3848   -2.8275   -1.8277 H   0  0  0  0  0  0  0  0  0  0  0  0
    4.1512   -0.5884   -1.6724 H   0  0  0  0  0  0  0  0  0  0  0  0
    2.5188   -0.6120   -2.2260 H   0  0  0  0  0  0  0  0  0  0  0  0
   -5.1038   -0.9235   -0.5719 H   0  0  0  0  0  0  0  0  0  0  0  0
   -4.5171   -0.8246    1.0898 H   0  0  0  0  0  0  0  0  0  0  0  0
    0.6553   -1.6637   -1.5179 H   0  0  0  0  0  0  0  0  0  0  0  0
   -0.4623   -2.7606    1.1235 H   0  0  0  0  0  0  0  0  0  0  0  0
   -3.5989    1.4547    0.6293 H   0  0  0  0  0  0  0  0  0  0  0  0
   -4.2011    1.3730   -1.0294 H   0  0  0  0  0  0  0  0  0  0  0  0
    4.2240    1.7585   -1.4698 H   0  0  0  0  0  0  0  0  0  0  0  0
    2.4737    3.2121   -2.1084 H   0  0  0  0  0  0  0  0  0  0  0  0
   -5.9201    1.2570    1.5102 H   0  0  0  0  0  0  0  0  0  0  0  0
   -6.5425    1.1701   -0.1496 H   0  0  0  0  0  0  0  0  0  0  0  0
   -5.7498    2.6474    0.4251 H   0  0  0  0  0  0  0  0  0  0  0  0
    0.6015    1.9766   -3.3077 H   0  0  0  0  0  0  0  0  0  0  0  0
    0.7257    0.6214   -2.2133 H   0  0  0  0  0  0  0  0  0  0  0  0
   -2.2491   -4.8418   -1.2203 H   0  0  0  0  0  0  0  0  0  0  0  0
   -0.1578    3.4545   -1.4937 H   0  0  0  0  0  0  0  0  0  0  0  0
   -1.1821    2.0352   -1.6350 H   0  0  0  0  0  0  0  0  0  0  0  0
    1.0447    2.4025    0.4543 H   0  0  0  0  0  0  0  0  0  0  0  0
   -0.0083    0.9692    0.2894 H   0  0  0  0  0  0  0  0  0  0  0  0
   -1.4349    2.8120    2.9126 H   0  0  0  0  0  0  0  0  0  0  0  0
  1 12  1  0  0  0  0
  1 49  1  0  0  0  0
  2 11  2  0  0  0  0
  3 24  1  0  0  0  0
  3 54  1  0  0  0  0
  4 24  2  0  0  0  0
  5  6  1  0  0  0  0
  5  8  1  0  0  0  0
  5 25  1  0  0  0  0
  5 26  1  0  0  0  0
  6  7  2  0  0  0  0
  6 15  1  0  0  0  0
  7 11  1  0  0  0  0
  7 13  1  0  0  0  0
  8 11  1  0  0  0  0
  8 27  1  0  0  0  0
  8 28  1  0  0  0  0
  9 10  1  0  0  0  0
  9 12  1  0  0  0  0
  9 29  1  0  0  0  0
  9 30  1  0  0  0  0
 10 14  1  0  0  0  0
 10 31  1  0  0  0  0
 10 32  1  0  0  0  0
 12 16  1  0  0  0  0
 12 33  1  0  0  0  0
 13 18  1  0  0  0  0
 13 34  1  0  0  0  0
 13 35  1  0  0  0  0
 14 17  1  0  0  0  0
 14 36  1  0  0  0  0
 14 37  1  0  0  0  0
 15 16  2  0  0  0  0
 15 38  1  0  0  0  0
 16 39  1  0  0  0  0
 17 20  1  0  0  0  0
 17 40  1  0  0  0  0
 17 41  1  0  0  0  0
 18 19  2  0  0  0  0
 18 42  1  0  0  0  0
 19 21  1  0  0  0  0
 19 43  1  0  0  0  0
 20 44  1  0  0  0  0
 20 45  1  0  0  0  0
 20 46  1  0  0  0  0
 21 22  1  0  0  0  0
 21 47  1  0  0  0  0
 21 48  1  0  0  0  0
 22 23  1  0  0  0  0
 22 50  1  0  0  0  0
 22 51  1  0  0  0  0
 23 24  1  0  0  0  0
 23 52  1  0  0  0  0
 23 53  1  0  0  0  0
M  END
> <PUBCHEM_COMPOUND_CID>
5280881

> <PUBCHEM_CONFORMER_RMSD>
1

> <PUBCHEM_CONFORMER_DIVERSEORDER>
1
97
41
208
146
275
235
221
138
189
118
95
286
253
270
280
59
246
69
102
82
229
99
40
290
163
261
187
79
120
195
3
197
25
283
55
239
148
232
37
158
214
130
172
257
10
137
236
198
201
51
278
233
67
183
220
60
212
224
209
188
241
211
178
254
292
191
123
147
271
151
83
94
111
80
109
247
204
248
200
132
196
289
249
263
186
140
226
276
122
124
228
291
144
127
66
156
53
210
166
126
70
219
223
227
68
84
174
113
269
92
203
23
288
238
262
230
231
129
176
155
185
141
193
34
180
251
164
274
284
293
49
32
86
88
62
260
222
272
162
205
250
42
17
215
101
277
268
46
121
57
96
170
38
282
142
237
14
21
116
9
112
125
168
169
20
192
252
100
30
139
72
77
11
218
87
48
194
2
58
54
206
266
202
27
64
110
13
267
44
114
264
50
216
173
273
117
7
52
182
76
35
150
244
160
242
134
47
285
75
152
287
107
240
93
90
115
175
31
89
255
265
167
136
61
104
91
85
161
56
106
259
256
281
179
145
165
28
279
234
225
19
207
26
65
128
154
36
43
108
105
119
71
24
190
135
153
8
12
157
217
98
63
184
245
243
181
177
39
171
29
103
258
133
22
131
4
73
5
45
159
15
33
16
74
213
81
18
199
6
78
149
294
143

> <PUBCHEM_MMFF94_PARTIAL_CHARGES>
24
1 -0.68
11 0.49
12 0.42
13 0.28
15 -0.15
16 -0.29
18 -0.29
19 -0.29
2 -0.57
21 0.14
23 0.06
24 0.66
3 -0.65
38 0.15
39 0.15
4 -0.57
42 0.15
43 0.15
49 0.4
5 0.14
54 0.5
6 -0.14
7 -0.12
8 0.06

> <PUBCHEM_EFFECTIVE_ROTOR_COUNT>
12.4

> <PUBCHEM_PHARMACOPHORE_FEATURES>
10
1 1 acceptor
1 1 donor
1 2 acceptor
1 20 hydrophobe
1 3 acceptor
1 4 acceptor
3 3 4 24 anion
4 19 21 22 23 hydrophobe
4 9 10 14 17 hydrophobe
5 5 6 7 8 11 rings

> <PUBCHEM_HEAVY_ATOM_COUNT>
24

> <PUBCHEM_ATOM_DEF_STEREO_COUNT>
1

> <PUBCHEM_ATOM_UDEF_STEREO_COUNT>
0

> <PUBCHEM_BOND_DEF_STEREO_COUNT>
2

> <PUBCHEM_BOND_UDEF_STEREO_COUNT>
0

> <PUBCHEM_ISOTOPIC_ATOM_COUNT>
0

> <PUBCHEM_COMPONENT_COUNT>
1

> <PUBCHEM_CACTVS_TAUTO_COUNT>
7

> <PUBCHEM_CONFORMER_ID>
0050947100000001

> <PUBCHEM_MMFF94_ENERGY>
14.217

> <PUBCHEM_FEATURE_SELFOVERLAP>
50.802

> <PUBCHEM_SHAPE_FINGERPRINT>
114674 6 15678892682395976476
11513181 2 17969225706016544351
12035759 4 18271791407444073596
13947920 75 18337933650684233468
14117953 113 18054794154744271437
15297060 5 18114731733061329795
17093844 170 18261389009285037678
20600515 1 18335712593808433562
20715895 44 17912092952002996461
20905425 154 17686337564626590495
21315764 371 18042682982414227633
23419403 2 17257986573645719500
23557571 272 18115025195735050110
3052486 1 18334855004640139291
350125 39 18047473610469050922
35225 105 17823427160963416940
38570 142 17559650890356118182
445580 8 18341330076140307495
484985 159 14110523896057516954
5895379 119 18263923246190221550
6287921 2 17759510463203409825
7064713 232 18336831991193046193

> <PUBCHEM_SHAPE_MULTIPOLES>
470.43
8.15
4.53
2.06
7.07
1.44
0.4
-1.49
1.37
2.97
-0.76
-1.97
-0.93
-2.62

> <PUBCHEM_SHAPE_SELFOVERLAP>
930.524

> <PUBCHEM_SHAPE_VOLUME>
280.6

> <PUBCHEM_COORDINATE_TYPE>
2
5
10

$$$$

