441151
  -OEChem-07051212522D

 23 25  0     0  0  0  0  0  0999 V2000
    4.5274    1.8683    0.0000 S   0  0  0  0  0  0  0  0  0  0  0  0
    5.3923   -1.4027    0.0000 O   0  0  0  0  0  0  0  0  0  0  0  0
    7.3991   -0.9923    0.0000 O   0  0  0  0  0  0  0  0  0  0  0  0
    5.0274    0.3294    0.0000 C   0  0  0  0  0  0  0  0  0  0  0  0
    4.0274    0.3294    0.0000 C   0  0  0  0  0  0  0  0  0  0  0  0
    5.3364    1.2805    0.0000 C   0  0  0  0  0  0  0  0  0  0  0  0
    3.7183    1.2805    0.0000 C   0  0  0  0  0  0  0  0  0  0  0  0
    5.7123   -0.4553    0.0000 C   0  0  0  0  0  0  0  0  0  0  0  0
    3.3424   -0.4553    0.0000 C   0  0  0  0  0  0  0  0  0  0  0  0
    6.3518    1.5127    0.0000 C   0  0  0  0  0  0  0  0  0  0  0  0
    2.7029    1.5127    0.0000 C   0  0  0  0  0  0  0  0  0  0  0  0
    6.7328   -0.2466    0.0000 C   0  0  0  0  0  0  0  0  0  0  0  0
    7.0547    0.7440    0.0000 C   0  0  0  0  0  0  0  0  0  0  0  0
    2.3219   -0.2466    0.0000 C   0  0  0  0  0  0  0  0  0  0  0  0
    2.0000    0.7440    0.0000 C   0  0  0  0  0  0  0  0  0  0  0  0
    3.5408   -1.0427    0.0000 H   0  0  0  0  0  0  0  0  0  0  0  0
    6.5365    2.1046    0.0000 H   0  0  0  0  0  0  0  0  0  0  0  0
    2.5182    2.1046    0.0000 H   0  0  0  0  0  0  0  0  0  0  0  0
    7.6607    0.8753    0.0000 H   0  0  0  0  0  0  0  0  0  0  0  0
    1.9088   -0.7090    0.0000 H   0  0  0  0  0  0  0  0  0  0  0  0
    1.3940    0.8753    0.0000 H   0  0  0  0  0  0  0  0  0  0  0  0
    5.8018   -1.8683    0.0000 H   0  0  0  0  0  0  0  0  0  0  0  0
    8.0060   -0.8658    0.0000 H   0  0  0  0  0  0  0  0  0  0  0  0
  1  6  1  0  0  0  0
  1  7  1  0  0  0  0
  2  8  1  0  0  0  0
  2 22  1  0  0  0  0
  3 12  1  0  0  0  0
  3 23  1  0  0  0  0
  4  5  1  0  0  0  0
  4  6  2  0  0  0  0
  4  8  1  0  0  0  0
  5  7  1  0  0  0  0
  5  9  2  0  0  0  0
  6 10  1  0  0  0  0
  7 11  2  0  0  0  0
  8 12  2  0  0  0  0
  9 14  1  0  0  0  0
  9 16  1  0  0  0  0
 10 13  2  0  0  0  0
 10 17  1  0  0  0  0
 11 15  1  0  0  0  0
 11 18  1  0  0  0  0
 12 13  1  0  0  0  0
 13 19  1  0  0  0  0
 14 15  2  0  0  0  0
 14 20  1  0  0  0  0
 15 21  1  0  0  0  0
M  END
> <PUBCHEM_COMPOUND_CID>
441151

> <PUBCHEM_COMPOUND_CANONICALIZED>
1

> <PUBCHEM_CACTVS_COMPLEXITY>
246

> <PUBCHEM_CACTVS_HBOND_ACCEPTOR>
3

> <PUBCHEM_CACTVS_HBOND_DONOR>
2

> <PUBCHEM_CACTVS_ROTATABLE_BOND>
0

> <PUBCHEM_CACTVS_SUBSKEYS>
AAADccBwMABAAAAAAAAAAAAAAAAAASAAAAAwYAAAAAAAAEgB/AAAGgQACAAADASA2AAwB8AAAgiEAiBCAAADAIAgKBBIiBgGiIgJJiKiERKAcAEkwBEpmAeAwPAOgIABBAAMQAABAAIIABiAAAAAAAAAAA==

> <PUBCHEM_IUPAC_OPENEYE_NAME>
dibenzothiophene-1,2-diol

> <PUBCHEM_IUPAC_CAS_NAME>
dibenzothiophene-1,2-diol

> <PUBCHEM_IUPAC_NAME>
dibenzothiophene-1,2-diol

> <PUBCHEM_IUPAC_SYSTEMATIC_NAME>
dibenzothiophene-1,2-diol

> <PUBCHEM_IUPAC_TRADITIONAL_NAME>
dibenzothiophene-1,2-diol

> <PUBCHEM_IUPAC_INCHI>
InChI=1S/C12H8O2S/c13-8-5-6-10-11(12(8)14)7-3-1-2-4-9(7)15-10/h1-6,13-14H

> <PUBCHEM_IUPAC_INCHIKEY>
VKHFOUIAKVUCEF-UHFFFAOYSA-N

> <PUBCHEM_XLOGP3_AA>
3.6

> <PUBCHEM_EXACT_MASS>
216.0245

> <PUBCHEM_MOLECULAR_FORMULA>
C12H8O2S

> <PUBCHEM_MOLECULAR_WEIGHT>
216.25572

> <PUBCHEM_OPENEYE_CAN_SMILES>
C1=CC=C2C(=C1)C3=C(S2)C=CC(=C3O)O

> <PUBCHEM_OPENEYE_ISO_SMILES>
C1=CC=C2C(=C1)C3=C(S2)C=CC(=C3O)O

> <PUBCHEM_CACTVS_TPSA>
68.7

> <PUBCHEM_MONOISOTOPIC_WEIGHT>
216.0245

> <PUBCHEM_TOTAL_CHARGE>
0

> <PUBCHEM_HEAVY_ATOM_COUNT>
15

> <PUBCHEM_ATOM_DEF_STEREO_COUNT>
0

> <PUBCHEM_ATOM_UDEF_STEREO_COUNT>
0

> <PUBCHEM_BOND_DEF_STEREO_COUNT>
0

> <PUBCHEM_BOND_UDEF_STEREO_COUNT>
0

> <PUBCHEM_ISOTOPIC_ATOM_COUNT>
0

> <PUBCHEM_COMPONENT_COUNT>
1

> <PUBCHEM_CACTVS_TAUTO_COUNT>
8

> <PUBCHEM_COORDINATE_TYPE>
1
5
255

> <PUBCHEM_BONDANNOTATIONS>
1  6  8
1  7  8
10  13  8
11  15  8
12  13  8
14  15  8
4  5  8
4  6  8
4  8  8
5  7  8
5  9  8
6  10  8
7  11  8
8  12  8
9  14  8

$$$$

