13600
  -OEChem-06241222392D

 15 15  0     0  0  0  0  0  0999 V2000
    4.2690   -1.2094    0.0000 O   0  0  0  0  0  0  0  0  0  0  0  0
    3.4030    0.2906    0.0000 N   0  0  0  0  0  0  0  0  0  0  0  0
    4.2120    0.8784    0.0000 N   0  0  0  0  0  0  0  0  0  0  0  0
    2.5369   -1.2094    0.0000 N   0  0  0  0  0  0  0  0  0  0  0  0
    2.5939    0.8784    0.0000 C   0  0  0  0  0  0  0  0  0  0  0  0
    2.9030    1.8294    0.0000 C   0  0  0  0  0  0  0  0  0  0  0  0
    3.9030    1.8294    0.0000 C   0  0  0  0  0  0  0  0  0  0  0  0
    3.4030   -0.7094    0.0000 C   0  0  0  0  0  0  0  0  0  0  0  0
    2.0276    1.1305    0.0000 H   0  0  0  0  0  0  0  0  0  0  0  0
    2.2839    0.3414    0.0000 H   0  0  0  0  0  0  0  0  0  0  0  0
    2.9678    2.4460    0.0000 H   0  0  0  0  0  0  0  0  0  0  0  0
    2.2965    1.9583    0.0000 H   0  0  0  0  0  0  0  0  0  0  0  0
    4.2674    2.3310    0.0000 H   0  0  0  0  0  0  0  0  0  0  0  0
    2.5369   -1.8294    0.0000 H   0  0  0  0  0  0  0  0  0  0  0  0
    2.0000   -0.8994    0.0000 H   0  0  0  0  0  0  0  0  0  0  0  0
  1  8  2  0  0  0  0
  2  3  1  0  0  0  0
  2  5  1  0  0  0  0
  2  8  1  0  0  0  0
  3  7  2  0  0  0  0
  4  8  1  0  0  0  0
  4 14  1  0  0  0  0
  4 15  1  0  0  0  0
  5  6  1  0  0  0  0
  5  9  1  0  0  0  0
  5 10  1  0  0  0  0
  6  7  1  0  0  0  0
  6 11  1  0  0  0  0
  6 12  1  0  0  0  0
  7 13  1  0  0  0  0
M  END
> <PUBCHEM_COMPOUND_CID>
13600

> <PUBCHEM_COMPOUND_CANONICALIZED>
1

> <PUBCHEM_CACTVS_COMPLEXITY>
131

> <PUBCHEM_CACTVS_HBOND_ACCEPTOR>
2

> <PUBCHEM_CACTVS_HBOND_DONOR>
1

> <PUBCHEM_CACTVS_ROTATABLE_BOND>
0

> <PUBCHEM_CACTVS_SUBSKEYS>
AAADcYBjIAAAAAAAAAAAAAAAAAAAAQAAAAAAAAAAAAAAAAAAAAAAHgAYAAAACADBAAQBAAJAAAAoABAhEAAQAAAAAAAWAAA4AACAAAAAAAAEAAAQDgIAAAAAAAAAAAAAAAAAAAAAAAAAAAAAAAAAAAAAAA==

> <PUBCHEM_IUPAC_OPENEYE_NAME>
3,4-dihydropyrazole-2-carboxamide

> <PUBCHEM_IUPAC_CAS_NAME>
3,4-dihydropyrazole-2-carboxamide

> <PUBCHEM_IUPAC_NAME>
3,4-dihydropyrazole-2-carboxamide

> <PUBCHEM_IUPAC_SYSTEMATIC_NAME>
3,4-dihydropyrazole-2-carboxamide

> <PUBCHEM_IUPAC_TRADITIONAL_NAME>
2-pyrazoline-1-carboxamide

> <PUBCHEM_IUPAC_INCHI>
InChI=1S/C4H7N3O/c5-4(8)7-3-1-2-6-7/h2H,1,3H2,(H2,5,8)

> <PUBCHEM_IUPAC_INCHIKEY>
FGCBXTLVUQGHQP-UHFFFAOYSA-N

> <PUBCHEM_XLOGP3_AA>
-1.4

> <PUBCHEM_EXACT_MASS>
113.058912

> <PUBCHEM_MOLECULAR_FORMULA>
C4H7N3O

> <PUBCHEM_MOLECULAR_WEIGHT>
113.11788

> <PUBCHEM_OPENEYE_CAN_SMILES>
C1CN(N=C1)C(=O)N

> <PUBCHEM_OPENEYE_ISO_SMILES>
C1CN(N=C1)C(=O)N

> <PUBCHEM_CACTVS_TPSA>
58.7

> <PUBCHEM_MONOISOTOPIC_WEIGHT>
113.058912

> <PUBCHEM_TOTAL_CHARGE>
0

> <PUBCHEM_HEAVY_ATOM_COUNT>
8

> <PUBCHEM_ATOM_DEF_STEREO_COUNT>
0

> <PUBCHEM_ATOM_UDEF_STEREO_COUNT>
0

> <PUBCHEM_BOND_DEF_STEREO_COUNT>
0

> <PUBCHEM_BOND_UDEF_STEREO_COUNT>
0

> <PUBCHEM_ISOTOPIC_ATOM_COUNT>
0

> <PUBCHEM_COMPONENT_COUNT>
1

> <PUBCHEM_CACTVS_TAUTO_COUNT>
2

> <PUBCHEM_COORDINATE_TYPE>
1
5
255

$$$$

