441684
  -OEChem-07051212552D

 84 88  0     1  0  0  0  0  0999 V2000
    8.8285    2.1737    0.0000 O   0  0  0  0  0  0  0  0  0  0  0  0
    2.5357   -3.8287    0.0000 O   0  0  0  0  0  0  0  0  0  0  0  0
   11.4534    1.8419    0.0000 O   0  0  0  0  0  0  0  0  0  0  0  0
   10.4284    4.2810    0.0000 O   0  0  0  0  0  0  0  0  0  0  0  0
    7.9288   -0.7763    0.0000 C   0  0  2  0  0  0  0  0  0  0  0  0
    7.9288   -1.7763    0.0000 C   0  0  1  0  0  0  0  0  0  0  0  0
    6.1968   -1.7763    0.0000 C   0  0  2  0  0  0  0  0  0  0  0  0
    5.2868   -2.2832    0.0000 C   0  0  2  0  0  0  0  0  0  0  0  0
    8.8750   -0.4716    0.0000 C   0  0  1  0  0  0  0  0  0  0  0  0
    7.0628   -2.2763    0.0000 C   0  0  0  0  0  0  0  0  0  0  0  0
    7.0628   -0.2763    0.0000 C   0  0  0  0  0  0  0  0  0  0  0  0
    5.2787   -3.3248    0.0000 C   0  0  2  0  0  0  0  0  0  0  0  0
    8.8750   -2.0811    0.0000 C   0  0  0  0  0  0  0  0  0  0  0  0
    6.1968   -0.7763    0.0000 C   0  0  0  0  0  0  0  0  0  0  0  0
    9.4586   -1.2763    0.0000 C   0  0  0  0  0  0  0  0  0  0  0  0
    4.3433   -3.8745    0.0000 C   0  0  0  0  0  0  0  0  0  0  0  0
    9.1857    0.4789    0.0000 C   0  0  2  0  0  0  0  0  0  0  0  0
    4.3599   -1.7191    0.0000 C   0  0  0  0  0  0  0  0  0  0  0  0
    6.1808   -3.8456    0.0000 C   0  0  0  0  0  0  0  0  0  0  0  0
    7.9288    0.2237    0.0000 C   0  0  0  0  0  0  0  0  0  0  0  0
    7.9288   -2.7763    0.0000 C   0  0  0  0  0  0  0  0  0  0  0  0
    7.0789   -3.3178    0.0000 C   0  0  0  0  0  0  0  0  0  0  0  0
    3.4037   -3.3320    0.0000 C   0  0  1  0  0  0  0  0  0  0  0  0
    5.2945   -1.2832    0.0000 C   0  0  0  0  0  0  0  0  0  0  0  0
    3.4120   -2.2471    0.0000 C   0  0  0  0  0  0  0  0  0  0  0  0
   10.1642    0.6851    0.0000 C   0  0  0  0  0  0  0  0  0  0  0  0
    8.5179    1.2232    0.0000 C   0  0  0  0  0  0  0  0  0  0  0  0
    3.8467   -4.7425    0.0000 C   0  0  0  0  0  0  0  0  0  0  0  0
    4.8466   -4.7386    0.0000 C   0  0  0  0  0  0  0  0  0  0  0  0
   10.4749    1.6356    0.0000 C   0  0  2  0  0  0  0  0  0  0  0  0
    9.8070    2.3800    0.0000 C   0  0  2  0  0  0  0  0  0  0  0  0
   10.1177    3.3305    0.0000 C   0  0  0  0  0  0  0  0  0  0  0  0
    9.1672    3.6411    0.0000 C   0  0  0  0  0  0  0  0  0  0  0  0
   11.0682    3.0198    0.0000 C   0  0  0  0  0  0  0  0  0  0  0  0
    6.9329   -1.3513    0.0000 H   0  0  0  0  0  0  0  0  0  0  0  0
    9.7148   -0.3397    0.0000 H   0  0  0  0  0  0  0  0  0  0  0  0
    7.4613    0.1986    0.0000 H   0  0  0  0  0  0  0  0  0  0  0  0
    6.6643    0.1986    0.0000 H   0  0  0  0  0  0  0  0  0  0  0  0
    5.2820   -4.1748    0.0000 H   0  0  0  0  0  0  0  0  0  0  0  0
    8.6240   -2.6480    0.0000 H   0  0  0  0  0  0  0  0  0  0  0  0
    9.4124   -2.3903    0.0000 H   0  0  0  0  0  0  0  0  0  0  0  0
    5.9847   -0.1937    0.0000 H   0  0  0  0  0  0  0  0  0  0  0  0
    5.5862   -0.8840    0.0000 H   0  0  0  0  0  0  0  0  0  0  0  0
    9.9195   -1.6911    0.0000 H   0  0  0  0  0  0  0  0  0  0  0  0
    9.9195   -0.8616    0.0000 H   0  0  0  0  0  0  0  0  0  0  0  0
    9.7534   -0.1537    0.0000 H   0  0  0  0  0  0  0  0  0  0  0  0
    4.7681   -1.2524    0.0000 H   0  0  0  0  0  0  0  0  0  0  0  0
    3.9700   -1.2371    0.0000 H   0  0  0  0  0  0  0  0  0  0  0  0
    5.7835   -4.3216    0.0000 H   0  0  0  0  0  0  0  0  0  0  0  0
    6.5818   -4.3185    0.0000 H   0  0  0  0  0  0  0  0  0  0  0  0
    8.5488    0.2237    0.0000 H   0  0  0  0  0  0  0  0  0  0  0  0
    7.9288    0.8437    0.0000 H   0  0  0  0  0  0  0  0  0  0  0  0
    7.3088    0.2237    0.0000 H   0  0  0  0  0  0  0  0  0  0  0  0
    7.3088   -2.7763    0.0000 H   0  0  0  0  0  0  0  0  0  0  0  0
    7.9288   -3.3963    0.0000 H   0  0  0  0  0  0  0  0  0  0  0  0
    8.5488   -2.7763    0.0000 H   0  0  0  0  0  0  0  0  0  0  0  0
    7.6193   -3.6216    0.0000 H   0  0  0  0  0  0  0  0  0  0  0  0
    3.4025   -3.9520    0.0000 H   0  0  0  0  0  0  0  0  0  0  0  0
    5.9145   -1.2880    0.0000 H   0  0  0  0  0  0  0  0  0  0  0  0
    5.2993   -0.6632    0.0000 H   0  0  0  0  0  0  0  0  0  0  0  0
    4.6745   -1.2784    0.0000 H   0  0  0  0  0  0  0  0  0  0  0  0
    3.2075   -1.6618    0.0000 H   0  0  0  0  0  0  0  0  0  0  0  0
    2.8004   -2.3484    0.0000 H   0  0  0  0  0  0  0  0  0  0  0  0
   10.1848    0.0655    0.0000 H   0  0  0  0  0  0  0  0  0  0  0  0
   10.7780    0.5978    0.0000 H   0  0  0  0  0  0  0  0  0  0  0  0
    7.9709    1.5152    0.0000 H   0  0  0  0  0  0  0  0  0  0  0  0
    8.1353    0.7353    0.0000 H   0  0  0  0  0  0  0  0  0  0  0  0
    3.3085   -4.4345    0.0000 H   0  0  0  0  0  0  0  0  0  0  0  0
    3.5387   -5.2806    0.0000 H   0  0  0  0  0  0  0  0  0  0  0  0
    4.3848   -5.0504    0.0000 H   0  0  0  0  0  0  0  0  0  0  0  0
    4.3109   -5.0507    0.0000 H   0  0  0  0  0  0  0  0  0  0  0  0
    5.1587   -5.2743    0.0000 H   0  0  0  0  0  0  0  0  0  0  0  0
    5.3824   -4.4265    0.0000 H   0  0  0  0  0  0  0  0  0  0  0  0
   10.6675    2.2250    0.0000 H   0  0  0  0  0  0  0  0  0  0  0  0
    9.2394    3.0126    0.0000 H   0  0  0  0  0  0  0  0  0  0  0  0
    2.0000   -3.5166    0.0000 H   0  0  0  0  0  0  0  0  0  0  0  0
   11.8674    1.3804    0.0000 H   0  0  0  0  0  0  0  0  0  0  0  0
    9.3598    4.2305    0.0000 H   0  0  0  0  0  0  0  0  0  0  0  0
    8.5778    3.8337    0.0000 H   0  0  0  0  0  0  0  0  0  0  0  0
    8.9746    3.0518    0.0000 H   0  0  0  0  0  0  0  0  0  0  0  0
   10.8756    2.4305    0.0000 H   0  0  0  0  0  0  0  0  0  0  0  0
   11.6575    2.8272    0.0000 H   0  0  0  0  0  0  0  0  0  0  0  0
   11.2608    3.6091    0.0000 H   0  0  0  0  0  0  0  0  0  0  0  0
   10.0143    4.7425    0.0000 H   0  0  0  0  0  0  0  0  0  0  0  0
  1 27  1  0  0  0  0
  1 31  1  0  0  0  0
 23  2  1  6  0  0  0
  2 76  1  0  0  0  0
 30  3  1  6  0  0  0
  3 77  1  0  0  0  0
  4 32  1  0  0  0  0
  4 84  1  0  0  0  0
  5  6  1  0  0  0  0
  5  9  1  0  0  0  0
  5 11  1  0  0  0  0
  5 20  1  6  0  0  0
  6 10  1  0  0  0  0
  6 13  1  0  0  0  0
  6 21  1  1  0  0  0
  7  8  1  0  0  0  0
  7 10  1  0  0  0  0
  7 14  1  0  0  0  0
  7 35  1  6  0  0  0
  8 12  1  0  0  0  0
  8 18  1  0  0  0  0
  8 24  1  1  0  0  0
  9 15  1  0  0  0  0
  9 17  1  0  0  0  0
  9 36  1  1  0  0  0
 10 22  2  0  0  0  0
 11 14  1  0  0  0  0
 11 37  1  0  0  0  0
 11 38  1  0  0  0  0
 12 16  1  0  0  0  0
 12 19  1  0  0  0  0
 12 39  1  6  0  0  0
 13 15  1  0  0  0  0
 13 40  1  0  0  0  0
 13 41  1  0  0  0  0
 14 42  1  0  0  0  0
 14 43  1  0  0  0  0
 15 44  1  0  0  0  0
 15 45  1  0  0  0  0
 16 23  1  0  0  0  0
 16 28  1  0  0  0  0
 16 29  1  0  0  0  0
 17 26  1  0  0  0  0
 17 27  1  0  0  0  0
 17 46  1  6  0  0  0
 18 25  1  0  0  0  0
 18 47  1  0  0  0  0
 18 48  1  0  0  0  0
 19 22  1  0  0  0  0
 19 49  1  0  0  0  0
 19 50  1  0  0  0  0
 20 51  1  0  0  0  0
 20 52  1  0  0  0  0
 20 53  1  0  0  0  0
 21 54  1  0  0  0  0
 21 55  1  0  0  0  0
 21 56  1  0  0  0  0
 22 57  1  0  0  0  0
 23 25  1  0  0  0  0
 23 58  1  0  0  0  0
 24 59  1  0  0  0  0
 24 60  1  0  0  0  0
 24 61  1  0  0  0  0
 25 62  1  0  0  0  0
 25 63  1  0  0  0  0
 26 30  1  0  0  0  0
 26 64  1  0  0  0  0
 26 65  1  0  0  0  0
 27 66  1  0  0  0  0
 27 67  1  0  0  0  0
 28 68  1  0  0  0  0
 28 69  1  0  0  0  0
 28 70  1  0  0  0  0
 29 71  1  0  0  0  0
 29 72  1  0  0  0  0
 29 73  1  0  0  0  0
 30 31  1  0  0  0  0
 30 74  1  0  0  0  0
 31 32  1  0  0  0  0
 31 75  1  6  0  0  0
 32 33  1  0  0  0  0
 32 34  1  0  0  0  0
 33 78  1  0  0  0  0
 33 79  1  0  0  0  0
 33 80  1  0  0  0  0
 34 81  1  0  0  0  0
 34 82  1  0  0  0  0
 34 83  1  0  0  0  0
M  END
> <PUBCHEM_COMPOUND_CID>
441684

> <PUBCHEM_COMPOUND_CANONICALIZED>
1

> <PUBCHEM_CACTVS_COMPLEXITY>
847

> <PUBCHEM_CACTVS_HBOND_ACCEPTOR>
4

> <PUBCHEM_CACTVS_HBOND_DONOR>
3

> <PUBCHEM_CACTVS_ROTATABLE_BOND>
2

> <PUBCHEM_CACTVS_SUBSKEYS>
AAADcfB4OAAAAAAAAAAAAAAAAAAAAYAAAAA0YIEAAAAAAGCAAAAAGgAACAAAD1SggAICAAAABgCAAiBCAAAAAAAgAAAACAAAAAgBEAIAAQACQAAFgAALAAPAwPAPgAAAAAAAAADAAAYAADAAAQAACAAAAA==

> <PUBCHEM_IUPAC_OPENEYE_NAME>
(2R,3R,5S)-2-(1-hydroxy-1-methyl-ethyl)-5-[(3R,5R,9R,10R,13S,14S,17S)-3-hydroxy-4,4,10,13,14-pentamethyl-2,3,5,6,9,11,12,15,16,17-decahydro-1H-cyclopenta[a]phenanthren-17-yl]tetrahydropyran-3-ol

> <PUBCHEM_IUPAC_CAS_NAME>
(2R,3R,5S)-5-[(3R,5R,9R,10R,13S,14S,17S)-3-hydroxy-4,4,10,13,14-pentamethyl-2,3,5,6,9,11,12,15,16,17-decahydro-1H-cyclopenta[a]phenanthren-17-yl]-2-(2-hydroxypropan-2-yl)-3-oxanol

> <PUBCHEM_IUPAC_NAME>
(2R,3R,5S)-5-[(3R,5R,9R,10R,13S,14S,17S)-3-hydroxy-4,4,10,13,14-pentamethyl-2,3,5,6,9,11,12,15,16,17-decahydro-1H-cyclopenta[a]phenanthren-17-yl]-2-(2-hydroxypropan-2-yl)oxan-3-ol

> <PUBCHEM_IUPAC_SYSTEMATIC_NAME>
(2R,3R,5S)-2-(2-oxidanylpropan-2-yl)-5-[(3R,5R,9R,10R,13S,14S,17S)-4,4,10,13,14-pentamethyl-3-oxidanyl-2,3,5,6,9,11,12,15,16,17-decahydro-1H-cyclopenta[a]phenanthren-17-yl]oxan-3-ol

> <PUBCHEM_IUPAC_TRADITIONAL_NAME>
(2R,3R,5S)-2-(1-hydroxy-1-methyl-ethyl)-5-[(3R,5R,9R,10R,13S,14S,17S)-3-hydroxy-4,4,10,13,14-pentamethyl-2,3,5,6,9,11,12,15,16,17-decahydro-1H-cyclopenta[a]phenanthren-17-yl]tetrahydropyran-3-ol

> <PUBCHEM_IUPAC_INCHI>
InChI=1S/C30H50O4/c1-26(2)23-9-8-21-20(28(23,5)13-12-24(26)32)11-15-29(6)19(10-14-30(21,29)7)18-16-22(31)25(34-17-18)27(3,4)33/h8,18-20,22-25,31-33H,9-17H2,1-7H3/t18-,19+,20+,22-,23+,24-,25-,28-,29+,30-/m1/s1

> <PUBCHEM_IUPAC_INCHIKEY>
YHJGJKRPDMVIKU-YXSNRNNOSA-N

> <PUBCHEM_XLOGP3_AA>
6.1

> <PUBCHEM_EXACT_MASS>
474.37091

> <PUBCHEM_MOLECULAR_FORMULA>
C30H50O4

> <PUBCHEM_MOLECULAR_WEIGHT>
474.7156

> <PUBCHEM_OPENEYE_CAN_SMILES>
CC1(C(CCC2(C1CC=C3C2CCC4(C3(CCC4C5CC(C(OC5)C(C)(C)O)O)C)C)C)O)C

> <PUBCHEM_OPENEYE_ISO_SMILES>
C[C@@]12CC[C@H]3C(=CC[C@@H]4[C@@]3(CC[C@H](C4(C)C)O)C)[C@]1(CC[C@H]2[C@@H]5C[C@H]([C@@H](OC5)C(C)(C)O)O)C

> <PUBCHEM_CACTVS_TPSA>
69.9

> <PUBCHEM_MONOISOTOPIC_WEIGHT>
474.37091

> <PUBCHEM_TOTAL_CHARGE>
0

> <PUBCHEM_HEAVY_ATOM_COUNT>
34

> <PUBCHEM_ATOM_DEF_STEREO_COUNT>
10

> <PUBCHEM_ATOM_UDEF_STEREO_COUNT>
0

> <PUBCHEM_BOND_DEF_STEREO_COUNT>
0

> <PUBCHEM_BOND_UDEF_STEREO_COUNT>
0

> <PUBCHEM_ISOTOPIC_ATOM_COUNT>
0

> <PUBCHEM_COMPONENT_COUNT>
1

> <PUBCHEM_CACTVS_TAUTO_COUNT>
1

> <PUBCHEM_COORDINATE_TYPE>
1
5
255

> <PUBCHEM_BONDANNOTATIONS>
12  39  6
17  46  6
23  2  6
30  3  6
31  75  6
5  20  6
6  21  5
7  35  6
8  24  5
9  36  5

$$$$

