240767
  -OEChem-07051213053D

 61 64  0     1  0  0  0  0  0999 V2000
   -1.2192   -0.0560    1.2245 F   0  0  0  0  0  0  0  0  0  0  0  0
    3.1447    0.2143    1.2783 O   0  0  0  0  0  0  0  0  0  0  0  0
   -0.4947   -2.5419   -1.2691 O   0  0  0  0  0  0  0  0  0  0  0  0
    5.2024   -0.3345   -1.1893 O   0  0  0  0  0  0  0  0  0  0  0  0
   -5.9745    0.0756    2.1495 O   0  0  0  0  0  0  0  0  0  0  0  0
    5.2294    1.2018    1.1526 O   0  0  0  0  0  0  0  0  0  0  0  0
    1.7385   -0.4666   -0.6209 C   0  0  1  0  0  0  0  0  0  0  0  0
    0.8722    0.8044   -0.4768 C   0  0  2  0  0  0  0  0  0  0  0  0
   -0.5794    0.6096   -0.9416 C   0  0  1  0  0  0  0  0  0  0  0  0
   -1.2448   -0.5163   -0.0828 C   0  0  1  0  0  0  0  0  0  0  0  0
    3.1029    0.1001   -0.1412 C   0  0  1  0  0  0  0  0  0  0  0  0
    1.1075   -1.5576    0.2657 C   0  0  0  0  0  0  0  0  0  0  0  0
   -0.3829   -1.8152   -0.0552 C   0  0  2  0  0  0  0  0  0  0  0  0
    1.7211    1.8868   -1.1392 C   0  0  0  0  0  0  0  0  0  0  0  0
   -2.7725   -0.7040   -0.4359 C   0  0  1  0  0  0  0  0  0  0  0  0
    3.1712    1.5097   -0.7716 C   0  0  0  0  0  0  0  0  0  0  0  0
   -1.3594    1.9318   -0.8292 C   0  0  0  0  0  0  0  0  0  0  0  0
   -2.8436    1.7707   -1.1868 C   0  0  1  0  0  0  0  0  0  0  0  0
    1.8670   -0.9599   -2.0890 C   0  0  0  0  0  0  0  0  0  0  0  0
   -3.4520    0.6761   -0.3136 C   0  0  0  0  0  0  0  0  0  0  0  0
    4.2884   -0.7526   -0.4801 C   0  0  0  0  0  0  0  0  0  0  0  0
   -3.0289   -1.2459   -1.8621 C   0  0  0  0  0  0  0  0  0  0  0  0
   -3.3967   -1.7216    0.5091 C   0  0  0  0  0  0  0  0  0  0  0  0
   -3.5268    3.1444   -1.1319 C   0  0  0  0  0  0  0  0  0  0  0  0
   -4.4787    0.9025    0.5249 C   0  0  0  0  0  0  0  0  0  0  0  0
    4.3067   -2.1443    0.0919 C   0  0  0  0  0  0  0  0  0  0  0  0
   -4.4152   -1.4874    1.3403 C   0  0  0  0  0  0  0  0  0  0  0  0
   -5.0324   -0.1534    1.3982 C   0  0  0  0  0  0  0  0  0  0  0  0
    4.2729    0.7875    1.7933 C   0  0  0  0  0  0  0  0  0  0  0  0
    4.1770    0.8416    3.2880 C   0  0  0  0  0  0  0  0  0  0  0  0
    0.8219    1.0744    0.5909 H   0  0  0  0  0  0  0  0  0  0  0  0
   -0.5907    0.3260   -1.9978 H   0  0  0  0  0  0  0  0  0  0  0  0
    1.1747   -1.2708    1.3224 H   0  0  0  0  0  0  0  0  0  0  0  0
    1.6492   -2.5018    0.1559 H   0  0  0  0  0  0  0  0  0  0  0  0
   -0.7506   -2.4745    0.7385 H   0  0  0  0  0  0  0  0  0  0  0  0
    1.4668    2.8875   -0.7750 H   0  0  0  0  0  0  0  0  0  0  0  0
    1.5906    1.8858   -2.2275 H   0  0  0  0  0  0  0  0  0  0  0  0
    3.7758    1.5477   -1.6845 H   0  0  0  0  0  0  0  0  0  0  0  0
    3.5498    2.2884   -0.1034 H   0  0  0  0  0  0  0  0  0  0  0  0
   -0.9104    2.6747   -1.5004 H   0  0  0  0  0  0  0  0  0  0  0  0
   -1.2651    2.3332    0.1892 H   0  0  0  0  0  0  0  0  0  0  0  0
   -2.9161    1.4463   -2.2326 H   0  0  0  0  0  0  0  0  0  0  0  0
    2.2300   -1.9922   -2.1291 H   0  0  0  0  0  0  0  0  0  0  0  0
    0.9380   -0.9185   -2.6556 H   0  0  0  0  0  0  0  0  0  0  0  0
    2.5777   -0.3569   -2.6652 H   0  0  0  0  0  0  0  0  0  0  0  0
   -2.8246   -2.3188   -1.9475 H   0  0  0  0  0  0  0  0  0  0  0  0
   -4.0828   -1.1192   -2.1443 H   0  0  0  0  0  0  0  0  0  0  0  0
   -2.4343   -0.7362   -2.6255 H   0  0  0  0  0  0  0  0  0  0  0  0
   -2.9974   -2.7336    0.4920 H   0  0  0  0  0  0  0  0  0  0  0  0
   -0.5871   -1.9224   -2.0074 H   0  0  0  0  0  0  0  0  0  0  0  0
   -3.4709    3.5868   -0.1311 H   0  0  0  0  0  0  0  0  0  0  0  0
   -3.0438    3.8404   -1.8271 H   0  0  0  0  0  0  0  0  0  0  0  0
   -4.5802    3.0738   -1.4237 H   0  0  0  0  0  0  0  0  0  0  0  0
   -4.9509    1.8734    0.6199 H   0  0  0  0  0  0  0  0  0  0  0  0
    3.8772   -2.1781    1.0951 H   0  0  0  0  0  0  0  0  0  0  0  0
    3.7807   -2.8316   -0.5726 H   0  0  0  0  0  0  0  0  0  0  0  0
    5.3474   -2.4734    0.1750 H   0  0  0  0  0  0  0  0  0  0  0  0
   -4.8153   -2.2669    1.9780 H   0  0  0  0  0  0  0  0  0  0  0  0
    4.0902   -0.1710    3.6898 H   0  0  0  0  0  0  0  0  0  0  0  0
    3.3166    1.4481    3.5818 H   0  0  0  0  0  0  0  0  0  0  0  0
    5.0828    1.3014    3.6933 H   0  0  0  0  0  0  0  0  0  0  0  0
  1 10  1  0  0  0  0
  2 11  1  0  0  0  0
  2 29  1  0  0  0  0
  3 13  1  0  0  0  0
  3 50  1  0  0  0  0
  4 21  2  0  0  0  0
  5 28  2  0  0  0  0
  6 29  2  0  0  0  0
  7  8  1  0  0  0  0
  7 11  1  0  0  0  0
  7 12  1  0  0  0  0
  7 19  1  0  0  0  0
  8  9  1  0  0  0  0
  8 14  1  0  0  0  0
  8 31  1  0  0  0  0
  9 10  1  0  0  0  0
  9 17  1  0  0  0  0
  9 32  1  0  0  0  0
 10 13  1  0  0  0  0
 10 15  1  0  0  0  0
 11 16  1  0  0  0  0
 11 21  1  0  0  0  0
 12 13  1  0  0  0  0
 12 33  1  0  0  0  0
 12 34  1  0  0  0  0
 13 35  1  0  0  0  0
 14 16  1  0  0  0  0
 14 36  1  0  0  0  0
 14 37  1  0  0  0  0
 15 20  1  0  0  0  0
 15 22  1  0  0  0  0
 15 23  1  0  0  0  0
 16 38  1  0  0  0  0
 16 39  1  0  0  0  0
 17 18  1  0  0  0  0
 17 40  1  0  0  0  0
 17 41  1  0  0  0  0
 18 20  1  0  0  0  0
 18 24  1  0  0  0  0
 18 42  1  0  0  0  0
 19 43  1  0  0  0  0
 19 44  1  0  0  0  0
 19 45  1  0  0  0  0
 20 25  2  0  0  0  0
 21 26  1  0  0  0  0
 22 46  1  0  0  0  0
 22 47  1  0  0  0  0
 22 48  1  0  0  0  0
 23 27  2  0  0  0  0
 23 49  1  0  0  0  0
 24 51  1  0  0  0  0
 24 52  1  0  0  0  0
 24 53  1  0  0  0  0
 25 28  1  0  0  0  0
 25 54  1  0  0  0  0
 26 55  1  0  0  0  0
 26 56  1  0  0  0  0
 26 57  1  0  0  0  0
 27 28  1  0  0  0  0
 27 58  1  0  0  0  0
 29 30  1  0  0  0  0
 30 59  1  0  0  0  0
 30 60  1  0  0  0  0
 30 61  1  0  0  0  0
M  END
> <PUBCHEM_COMPOUND_CID>
240767

> <PUBCHEM_CONFORMER_RMSD>
0.8

> <PUBCHEM_CONFORMER_DIVERSEORDER>
1
2

> <PUBCHEM_MMFF94_PARTIAL_CHARGES>
24
1 -0.34
10 0.34
11 0.34
13 0.28
15 0.28
18 0.14
2 -0.43
20 -0.28
21 0.45
23 -0.29
25 -0.14
26 0.06
27 -0.14
28 0.54
29 0.66
3 -0.68
30 0.06
4 -0.57
49 0.15
5 -0.57
50 0.4
54 0.15
58 0.15
6 -0.57

> <PUBCHEM_EFFECTIVE_ROTOR_COUNT>
4.4

> <PUBCHEM_PHARMACOPHORE_FEATURES>
9
1 3 acceptor
1 3 donor
1 4 acceptor
1 5 acceptor
1 6 acceptor
5 7 8 11 14 16 rings
6 15 20 23 25 27 28 rings
6 7 8 9 10 12 13 rings
6 9 10 15 17 18 20 rings

> <PUBCHEM_HEAVY_ATOM_COUNT>
30

> <PUBCHEM_ATOM_DEF_STEREO_COUNT>
8

> <PUBCHEM_ATOM_UDEF_STEREO_COUNT>
0

> <PUBCHEM_BOND_DEF_STEREO_COUNT>
0

> <PUBCHEM_BOND_UDEF_STEREO_COUNT>
0

> <PUBCHEM_ISOTOPIC_ATOM_COUNT>
0

> <PUBCHEM_COMPONENT_COUNT>
1

> <PUBCHEM_CACTVS_TAUTO_COUNT>
6

> <PUBCHEM_CONFORMER_ID>
0003AC7F00000001

> <PUBCHEM_MMFF94_ENERGY>
109.7059

> <PUBCHEM_FEATURE_SELFOVERLAP>
45.771

> <PUBCHEM_SHAPE_FINGERPRINT>
10319926 262 18200041771209154378
10675989 125 16903304343148050261
11370993 144 17676202472468338475
11578080 2 17895778234654520537
11595378 159 17846790619497405544
12403259 415 18334012817625442548
12403814 3 18410291394306183039
12422481 6 18341601664339764161
12553582 1 18202285783788085380
12596602 18 17060340717079218936
12633257 1 18338241444529683857
12788726 201 17774996886479973569
12892183 10 17774735220150641568
13140716 1 17984701112764503707
13224815 77 18409736144443113933
13533116 47 15985106292763777825
13583140 156 18189068606403755342
13675066 3 18408605867975159062
13726171 33 18057579101623515804
14178342 30 18059015115332446261
14341114 176 18201145624595153103
15788980 27 18273214205328268319
16945 1 18201720665314107575
17349148 13 16917344840066064875
1813 80 16630519622721441199
18186145 218 17967537878236559566
20261772 1 18411131424952131647
21033648 144 17241343399290966896
21033648 29 18261126187467403240
21267235 1 18130491007346853143
21792934 111 18201431520248668217
22122407 14 16515947247354264635
22182313 1 18338509876022838159
23557571 272 18341321292816123405
23559900 14 18269278035843266286
23569914 2 16592006036956772617
268830 7 17022628571683455528
27425 322 15502643902648397411
350125 39 18272075111261053461
376196 1 17404603541844643157
392239 28 17774994649334379523
4340502 62 17385709306330685615
460360 51 16844468178643189714
469060 322 18338807693730145199
474 4 16081372916921536232
495365 180 17604164683236678030
5104073 3 18270965764311053136
5265222 85 18338783552072565358
9862522 239 18339656615263897085

> <PUBCHEM_SHAPE_MULTIPOLES>
580.77
11.44
2.43
2.08
0.45
0.79
1.28
-0.16
5.88
-1.48
-0.74
1.26
-0.15
1.25

> <PUBCHEM_SHAPE_SELFOVERLAP>
1261.458

> <PUBCHEM_SHAPE_VOLUME>
317.8

> <PUBCHEM_COORDINATE_TYPE>
2
5
10

$$$$

