323
  -OEChem-07051212503D

 17 18  0     0  0  0  0  0  0999 V2000
   -1.0575    1.1268    0.0004 O   0  0  0  0  0  0  0  0  0  0  0  0
   -3.3191    0.7644   -0.0007 O   0  0  0  0  0  0  0  0  0  0  0  0
    0.4475   -0.7862   -0.0001 C   0  0  0  0  0  0  0  0  0  0  0  0
    0.2469    0.5916    0.0002 C   0  0  0  0  0  0  0  0  0  0  0  0
    1.7547   -1.2780   -0.0004 C   0  0  0  0  0  0  0  0  0  0  0  0
   -0.7110   -1.6630    0.0002 C   0  0  0  0  0  0  0  0  0  0  0  0
    1.3138    1.4878    0.0001 C   0  0  0  0  0  0  0  0  0  0  0  0
    2.8349   -0.3906   -0.0002 C   0  0  0  0  0  0  0  0  0  0  0  0
    2.6145    0.9888    0.0000 C   0  0  0  0  0  0  0  0  0  0  0  0
   -1.9433   -1.1484    0.0004 C   0  0  0  0  0  0  0  0  0  0  0  0
   -2.1815    0.3070   -0.0001 C   0  0  0  0  0  0  0  0  0  0  0  0
    1.9479   -2.3478   -0.0005 H   0  0  0  0  0  0  0  0  0  0  0  0
   -0.5589   -2.7366    0.0004 H   0  0  0  0  0  0  0  0  0  0  0  0
    1.1412    2.5596    0.0003 H   0  0  0  0  0  0  0  0  0  0  0  0
    3.8507   -0.7758   -0.0003 H   0  0  0  0  0  0  0  0  0  0  0  0
    3.4587    1.6723    0.0000 H   0  0  0  0  0  0  0  0  0  0  0  0
   -2.8129   -1.7966    0.0006 H   0  0  0  0  0  0  0  0  0  0  0  0
  1  4  1  0  0  0  0
  1 11  1  0  0  0  0
  2 11  2  0  0  0  0
  3  4  1  0  0  0  0
  3  5  2  0  0  0  0
  3  6  1  0  0  0  0
  4  7  2  0  0  0  0
  5  8  1  0  0  0  0
  5 12  1  0  0  0  0
  6 10  2  0  0  0  0
  6 13  1  0  0  0  0
  7  9  1  0  0  0  0
  7 14  1  0  0  0  0
  8  9  2  0  0  0  0
  8 15  1  0  0  0  0
  9 16  1  0  0  0  0
 10 11  1  0  0  0  0
 10 17  1  0  0  0  0
M  END
> <PUBCHEM_COMPOUND_CID>
323

> <PUBCHEM_CONFORMER_RMSD>
0.4

> <PUBCHEM_CONFORMER_DIVERSEORDER>
1

> <PUBCHEM_MMFF94_PARTIAL_CHARGES>
17
1 -0.23
10 -0.14
11 0.71
12 0.15
13 0.15
14 0.15
15 0.15
16 0.15
17 0.15
2 -0.57
3 0.03
4 0.08
5 -0.15
6 -0.18
7 -0.15
8 -0.15
9 -0.15

> <PUBCHEM_EFFECTIVE_ROTOR_COUNT>
0

> <PUBCHEM_PHARMACOPHORE_FEATURES>
3
1 2 acceptor
6 1 3 4 6 10 11 rings
6 3 4 5 7 8 9 rings

> <PUBCHEM_HEAVY_ATOM_COUNT>
11

> <PUBCHEM_ATOM_DEF_STEREO_COUNT>
0

> <PUBCHEM_ATOM_UDEF_STEREO_COUNT>
0

> <PUBCHEM_BOND_DEF_STEREO_COUNT>
0

> <PUBCHEM_BOND_UDEF_STEREO_COUNT>
0

> <PUBCHEM_ISOTOPIC_ATOM_COUNT>
0

> <PUBCHEM_COMPONENT_COUNT>
1

> <PUBCHEM_CACTVS_TAUTO_COUNT>
1

> <PUBCHEM_CONFORMER_ID>
0000014300000001

> <PUBCHEM_MMFF94_ENERGY>
34.5205

> <PUBCHEM_FEATURE_SELFOVERLAP>
15.25

> <PUBCHEM_SHAPE_FINGERPRINT>
12524768 44 18337104661201976534
12897270 3 18410011009570670444
13380535 21 18339908338538008686
13380535 76 18410296899642249798
14325111 11 18410855438764270497
15775835 57 18413101753857239580
16945 1 18410575114865071494
17844478 74 17988633099900762985
19973954 147 18339640014745753698
20201158 50 18408323315083197238
21040471 1 18338797801876733986
21501502 16 18339082579567406678
23235685 24 18409454695231068489
23402655 69 18335432291806454469
23463225 33 18341898532299922018
23552423 10 18199750254308761358
23559900 14 18334848412994143532
241688 4 17255111771313849986
2748010 2 18338797788807254886
369184 2 18410013199888031251
5084963 1 18260550021630209690
528886 8 18410298003522366706
53812653 166 18334582308829873704

> <PUBCHEM_SHAPE_MULTIPOLES>
214.64
4.2
1.69
0.6
0.76
0.17
0
-0.7
0
-0.05
0
-0.04
0.02
0

> <PUBCHEM_SHAPE_SELFOVERLAP>
468.748

> <PUBCHEM_SHAPE_VOLUME>
116.3

> <PUBCHEM_COORDINATE_TYPE>
2
5
10

$$$$

