5281742
  -OEChem-07051212593D

 51 53  0     1  0  0  0  0  0999 V2000
   -1.0039    0.6329   -0.1705 O   0  0  0  0  0  0  0  0  0  0  0  0
    0.7971   -1.6012   -0.8093 O   0  0  0  0  0  0  0  0  0  0  0  0
    3.7106   -0.8478    1.1097 O   0  0  0  0  0  0  0  0  0  0  0  0
   -0.7967    2.5948   -1.3807 O   0  0  0  0  0  0  0  0  0  0  0  0
    1.8564   -2.7621    0.8784 O   0  0  0  0  0  0  0  0  0  0  0  0
   -3.3988   -1.1212    0.4097 N   0  0  1  0  0  0  0  0  0  0  0  0
   -2.4443   -1.2987   -0.7074 C   0  0  2  0  0  0  0  0  0  0  0  0
   -1.4944   -2.3602   -0.1645 C   0  0  2  0  0  0  0  0  0  0  0  0
   -2.0016    0.1212   -1.0694 C   0  0  1  0  0  0  0  0  0  0  0  0
   -1.3618   -2.0255    1.3143 C   0  0  0  0  0  0  0  0  0  0  0  0
   -2.6308   -1.2454    1.6581 C   0  0  0  0  0  0  0  0  0  0  0  0
   -4.0301    0.1934    0.2473 C   0  0  0  0  0  0  0  0  0  0  0  0
   -3.3184    0.8805   -0.9156 C   0  0  0  0  0  0  0  0  0  0  0  0
   -0.2084   -2.6157   -0.9479 C   0  0  0  0  0  0  0  0  0  0  0  0
    2.9336   -0.8054   -0.0856 C   0  0  2  0  0  0  0  0  0  0  0  0
   -0.4841    1.8593   -0.4559 C   0  0  0  0  0  0  0  0  0  0  0  0
    2.4043    0.6400   -0.2903 C   0  0  1  0  0  0  0  0  0  0  0  0
    1.8091   -1.8324    0.0806 C   0  0  0  0  0  0  0  0  0  0  0  0
    1.5622    1.1209    0.9225 C   0  0  0  0  0  0  0  0  0  0  0  0
    0.5682    2.1841    0.5377 C   0  0  0  0  0  0  0  0  0  0  0  0
    3.8139   -1.2849   -1.2460 C   0  0  0  0  0  0  0  0  0  0  0  0
    3.5350    1.6517   -0.5495 C   0  0  0  0  0  0  0  0  0  0  0  0
    0.5776    3.4339    1.0194 C   0  0  0  0  0  0  0  0  0  0  0  0
   -0.3947    4.4878    0.6149 C   0  0  0  0  0  0  0  0  0  0  0  0
   -2.9933   -1.7139   -1.5640 H   0  0  0  0  0  0  0  0  0  0  0  0
   -2.0523   -3.3098   -0.2150 H   0  0  0  0  0  0  0  0  0  0  0  0
   -1.6145    0.1626   -2.0939 H   0  0  0  0  0  0  0  0  0  0  0  0
   -0.4880   -1.4055    1.5236 H   0  0  0  0  0  0  0  0  0  0  0  0
   -1.2735   -2.9362    1.9164 H   0  0  0  0  0  0  0  0  0  0  0  0
   -3.2269   -1.7769    2.4072 H   0  0  0  0  0  0  0  0  0  0  0  0
   -2.3446   -0.2786    2.0901 H   0  0  0  0  0  0  0  0  0  0  0  0
   -3.9763    0.8087    1.1529 H   0  0  0  0  0  0  0  0  0  0  0  0
   -5.0932    0.0686    0.0138 H   0  0  0  0  0  0  0  0  0  0  0  0
   -3.9169    0.7618   -1.8274 H   0  0  0  0  0  0  0  0  0  0  0  0
   -3.1986    1.9490   -0.7186 H   0  0  0  0  0  0  0  0  0  0  0  0
    0.2039   -3.5940   -0.6711 H   0  0  0  0  0  0  0  0  0  0  0  0
   -0.4421   -2.6810   -2.0167 H   0  0  0  0  0  0  0  0  0  0  0  0
    1.7782    0.6406   -1.1922 H   0  0  0  0  0  0  0  0  0  0  0  0
    2.2306    1.4875    1.7129 H   0  0  0  0  0  0  0  0  0  0  0  0
    1.0108    0.2923    1.3765 H   0  0  0  0  0  0  0  0  0  0  0  0
    3.3114   -1.1595   -2.2109 H   0  0  0  0  0  0  0  0  0  0  0  0
    4.7725   -0.7562   -1.2699 H   0  0  0  0  0  0  0  0  0  0  0  0
    4.0597   -2.3484   -1.1369 H   0  0  0  0  0  0  0  0  0  0  0  0
    4.0716    1.4191   -1.4743 H   0  0  0  0  0  0  0  0  0  0  0  0
    3.1384    2.6661   -0.6632 H   0  0  0  0  0  0  0  0  0  0  0  0
    4.2587    1.6639    0.2721 H   0  0  0  0  0  0  0  0  0  0  0  0
    1.3463    3.7250    1.7307 H   0  0  0  0  0  0  0  0  0  0  0  0
    4.1257   -1.7250    1.1721 H   0  0  0  0  0  0  0  0  0  0  0  0
   -0.4306    5.2549    1.3969 H   0  0  0  0  0  0  0  0  0  0  0  0
   -1.4190    4.1172    0.5123 H   0  0  0  0  0  0  0  0  0  0  0  0
   -0.0756    4.9812   -0.3081 H   0  0  0  0  0  0  0  0  0  0  0  0
  1  9  1  0  0  0  0
  1 16  1  0  0  0  0
  2 14  1  0  0  0  0
  2 18  1  0  0  0  0
  3 15  1  0  0  0  0
  3 48  1  0  0  0  0
  4 16  2  0  0  0  0
  5 18  2  0  0  0  0
  6  7  1  0  0  0  0
  6 11  1  0  0  0  0
  6 12  1  0  0  0  0
  7  8  1  0  0  0  0
  7  9  1  0  0  0  0
  7 25  1  0  0  0  0
  8 10  1  0  0  0  0
  8 14  1  0  0  0  0
  8 26  1  0  0  0  0
  9 13  1  0  0  0  0
  9 27  1  0  0  0  0
 10 11  1  0  0  0  0
 10 28  1  0  0  0  0
 10 29  1  0  0  0  0
 11 30  1  0  0  0  0
 11 31  1  0  0  0  0
 12 13  1  0  0  0  0
 12 32  1  0  0  0  0
 12 33  1  0  0  0  0
 13 34  1  0  0  0  0
 13 35  1  0  0  0  0
 14 36  1  0  0  0  0
 14 37  1  0  0  0  0
 15 17  1  0  0  0  0
 15 18  1  0  0  0  0
 15 21  1  0  0  0  0
 16 20  1  0  0  0  0
 17 19  1  0  0  0  0
 17 22  1  0  0  0  0
 17 38  1  0  0  0  0
 19 20  1  0  0  0  0
 19 39  1  0  0  0  0
 19 40  1  0  0  0  0
 20 23  2  0  0  0  0
 21 41  1  0  0  0  0
 21 42  1  0  0  0  0
 21 43  1  0  0  0  0
 22 44  1  0  0  0  0
 22 45  1  0  0  0  0
 22 46  1  0  0  0  0
 23 24  1  0  0  0  0
 23 47  1  0  0  0  0
 24 49  1  0  0  0  0
 24 50  1  0  0  0  0
 24 51  1  0  0  0  0
M  END
> <PUBCHEM_COMPOUND_CID>
5281742

> <PUBCHEM_CONFORMER_RMSD>
0.6

> <PUBCHEM_CONFORMER_DIVERSEORDER>
3
1
20
12
19
14
16
11
7
17
4
15
8
5
18
10
2
13
9
6

> <PUBCHEM_MMFF94_PARTIAL_CHARGES>
20
1 -0.43
11 0.27
12 0.27
14 0.28
15 0.34
16 0.71
18 0.66
19 0.14
2 -0.43
20 -0.12
23 -0.29
24 0.14
3 -0.68
4 -0.57
47 0.15
48 0.4
5 -0.57
6 -0.81
7 0.27
9 0.28

> <PUBCHEM_EFFECTIVE_ROTOR_COUNT>
2

> <PUBCHEM_PHARMACOPHORE_FEATURES>
8
1 24 hydrophobe
1 3 acceptor
1 3 donor
1 4 acceptor
1 5 acceptor
1 6 cation
5 6 7 8 10 11 rings
5 6 7 9 12 13 rings

> <PUBCHEM_HEAVY_ATOM_COUNT>
24

> <PUBCHEM_ATOM_DEF_STEREO_COUNT>
5

> <PUBCHEM_ATOM_UDEF_STEREO_COUNT>
0

> <PUBCHEM_BOND_DEF_STEREO_COUNT>
1

> <PUBCHEM_BOND_UDEF_STEREO_COUNT>
0

> <PUBCHEM_ISOTOPIC_ATOM_COUNT>
0

> <PUBCHEM_COMPONENT_COUNT>
1

> <PUBCHEM_CACTVS_TAUTO_COUNT>
1

> <PUBCHEM_CONFORMER_ID>
005097CE00000003

> <PUBCHEM_MMFF94_ENERGY>
66.9134

> <PUBCHEM_FEATURE_SELFOVERLAP>
40.981

> <PUBCHEM_SHAPE_FINGERPRINT>
10366900 7 18059288764921370427
104564 63 18191859244055533486
10675989 125 17907879635492094869
10759866 29 17917424363442141014
10967382 1 18409452457563604956
11112241 14 16735808714780361712
11578080 2 16158255331127586369
12011746 2 18340202999396757791
12054548 360 18339642231286618580
12156800 1 14439350079831477548
12506688 2 18410572864402766480
12553582 1 18335706018082011412
12596599 1 17530958064502502358
12633257 1 18343014493483942627
12788726 201 18192710278845752464
128993 33 17833540198496180625
13027679 85 18409163312081518493
13140716 1 18411423882292197466
14178342 30 17829625962802660337
1420 336 17762623193137670234
14251745 187 18268714913400095480
14790565 3 18050840023068778932
14955137 171 18118932894282903875
16945 1 18192162503153900733
19930381 70 17831868949902363339
20905425 154 18194971969884698407
21197605 99 17541923726723345489
22721475 48 18411982425186913341
2334 1 18267306426357454198
23558518 356 17834674181378428485
23559900 14 18341620377602066866
238 59 17903101965579313311
2748010 2 18267593420119051558
35225 105 17468442238476090545
3524813 1 18272936037370932767
5939293 188 18263365802352984442
598444 67 18202566172644731879
6287921 2 17546994239682393387
6438718 38 17534344736520305433
7226269 152 18338515223932464624
81228 2 18193554695249363808

> <PUBCHEM_SHAPE_MULTIPOLES>
459.58
5.94
4.38
1.31
0.4
3.8
0.13
-1.85
-0.3
0.94
0.67
-0.23
-0.15
0.61

> <PUBCHEM_SHAPE_SELFOVERLAP>
964.553

> <PUBCHEM_SHAPE_VOLUME>
257.5

> <PUBCHEM_COORDINATE_TYPE>
2
5
10

$$$$

