9087
  -OEChem-06261203232D

 21 20  0     1  0  0  0  0  0999 V2000
    5.4641    1.7500    0.0000 O   0  0  0  0  0  0  0  0  0  0  0  0
    4.5981    3.2500    0.0000 O   0  0  0  0  0  0  0  0  0  0  0  0
    3.7321   -1.2500    0.0000 O   0  5  0  0  0  0  0  0  0  0  0  0
    2.8660    2.2500    0.0000 N   0  0  0  0  0  0  0  0  0  0  0  0
    2.0000   -2.2500    0.0000 N   0  3  0  0  0  0  0  0  0  0  0  0
    2.0000   -3.2500    0.0000 N   0  0  0  0  0  0  0  0  0  0  0  0
    3.7321    0.7500    0.0000 C   0  0  0  0  0  0  0  0  0  0  0  0
    3.7321    1.7500    0.0000 C   0  0  1  0  0  0  0  0  0  0  0  0
    2.8660    0.2500    0.0000 C   0  0  0  0  0  0  0  0  0  0  0  0
    4.5981    2.2500    0.0000 C   0  0  0  0  0  0  0  0  0  0  0  0
    2.8660   -0.7500    0.0000 C   0  0  0  0  0  0  0  0  0  0  0  0
    2.0000   -1.2500    0.0000 C   0  0  0  0  0  0  0  0  0  0  0  0
    3.9441    0.1674    0.0000 H   0  0  0  0  0  0  0  0  0  0  0  0
    4.3426    0.8577    0.0000 H   0  0  0  0  0  0  0  0  0  0  0  0
    3.7321    2.3700    0.0000 H   0  0  0  0  0  0  0  0  0  0  0  0
    2.6540    0.8326    0.0000 H   0  0  0  0  0  0  0  0  0  0  0  0
    2.2554    0.1423    0.0000 H   0  0  0  0  0  0  0  0  0  0  0  0
    2.3291    1.9400    0.0000 H   0  0  0  0  0  0  0  0  0  0  0  0
    2.8660    2.8700    0.0000 H   0  0  0  0  0  0  0  0  0  0  0  0
    1.4631   -0.9400    0.0000 H   0  0  0  0  0  0  0  0  0  0  0  0
    6.0010    2.0600    0.0000 H   0  0  0  0  0  0  0  0  0  0  0  0
  1 10  1  0  0  0  0
  1 21  1  0  0  0  0
  2 10  2  0  0  0  0
  3 11  1  0  0  0  0
  8  4  1  6  0  0  0
  4 18  1  0  0  0  0
  4 19  1  0  0  0  0
  5  6  3  0  0  0  0
  5 12  1  0  0  0  0
  7  8  1  0  0  0  0
  7  9  1  0  0  0  0
  7 13  1  0  0  0  0
  7 14  1  0  0  0  0
  8 10  1  0  0  0  0
  8 15  1  0  0  0  0
  9 11  1  0  0  0  0
  9 16  1  0  0  0  0
  9 17  1  0  0  0  0
 11 12  2  3  0  0  0
 12 20  1  0  0  0  0
M  CHG  2   3  -1   5   1
M  END
> <PUBCHEM_COMPOUND_CID>
9087

> <PUBCHEM_COMPOUND_CANONICALIZED>
1

> <PUBCHEM_CACTVS_COMPLEXITY>
240

> <PUBCHEM_CACTVS_HBOND_ACCEPTOR>
5

> <PUBCHEM_CACTVS_HBOND_DONOR>
2

> <PUBCHEM_CACTVS_ROTATABLE_BOND>
4

> <PUBCHEM_CACTVS_SUBSKEYS>
AAADccBjMAAAAAAAAAAAAAAAAAAAAAAAAAAAAAAAAAAAAAAAAAAAHgAYCAAACCzBgAQACABAAgCIAADWSAAAAAAgAAAAAIGAAAgCABIAgQAAQAAEkAAAAACoJAAAAAAAAAAAAAAAAAAAAAAAAAAAAAAAAA==

> <PUBCHEM_IUPAC_OPENEYE_NAME>
(5S)-5-amino-1-diazonio-6-hydroxy-6-oxo-hex-1-en-2-olate

> <PUBCHEM_IUPAC_CAS_NAME>
(5S)-5-amino-1-diazonio-6-hydroxy-6-oxo-1-hexen-2-olate

> <PUBCHEM_IUPAC_NAME>
(5S)-5-amino-1-diazonio-6-hydroxy-6-oxohex-1-en-2-olate

> <PUBCHEM_IUPAC_SYSTEMATIC_NAME>
(5S)-5-azanyl-1-diazonio-6-oxidanyl-6-oxidanylidene-hex-1-en-2-olate

> <PUBCHEM_IUPAC_TRADITIONAL_NAME>
(5S)-5-amino-1-diazonio-6-hydroxy-6-keto-hex-1-en-2-olate

> <PUBCHEM_IUPAC_INCHI>
InChI=1S/C6H9N3O3/c7-5(6(11)12)2-1-4(10)3-9-8/h3,5H,1-2,7H2,(H-,10,11,12)/t5-/m0/s1

> <PUBCHEM_IUPAC_INCHIKEY>
MKZFABOMIIHLIT-YFKPBYRVSA-N

> <PUBCHEM_XLOGP3_AA>
-1.5

> <PUBCHEM_EXACT_MASS>
171.064391

> <PUBCHEM_MOLECULAR_FORMULA>
C6H9N3O3

> <PUBCHEM_MOLECULAR_WEIGHT>
171.15396

> <PUBCHEM_OPENEYE_CAN_SMILES>
C(CC(=C[N+]#N)[O-])C(C(=O)O)N

> <PUBCHEM_OPENEYE_ISO_SMILES>
C(CC(=C[N+]#N)[O-])[C@@H](C(=O)O)N

> <PUBCHEM_CACTVS_TPSA>
115

> <PUBCHEM_MONOISOTOPIC_WEIGHT>
171.064391

> <PUBCHEM_TOTAL_CHARGE>
0

> <PUBCHEM_HEAVY_ATOM_COUNT>
12

> <PUBCHEM_ATOM_DEF_STEREO_COUNT>
1

> <PUBCHEM_ATOM_UDEF_STEREO_COUNT>
0

> <PUBCHEM_BOND_DEF_STEREO_COUNT>
0

> <PUBCHEM_BOND_UDEF_STEREO_COUNT>
1

> <PUBCHEM_ISOTOPIC_ATOM_COUNT>
0

> <PUBCHEM_COMPONENT_COUNT>
1

> <PUBCHEM_CACTVS_TAUTO_COUNT>
1

> <PUBCHEM_COORDINATE_TYPE>
1
5
255

> <PUBCHEM_BONDANNOTATIONS>
11  12  1
8  4  6

$$$$

