226968
  -OEChem-07051213062D

 40 41  0     0  0  0  0  0  0999 V2000
    8.0622    2.8450    0.0000 O   0  0  0  0  0  0  0  0  0  0  0  0
    4.5981   -3.1550    0.0000 O   0  0  0  0  0  0  0  0  0  0  0  0
    3.7320    1.3450    0.0000 C   0  0  0  0  0  0  0  0  0  0  0  0
    4.5981    0.8450    0.0000 C   0  0  0  0  0  0  0  0  0  0  0  0
    3.7320    2.3450    0.0000 C   0  0  0  0  0  0  0  0  0  0  0  0
    2.8660    0.8450    0.0000 C   0  0  0  0  0  0  0  0  0  0  0  0
    4.5981   -0.1550    0.0000 C   0  0  0  0  0  0  0  0  0  0  0  0
    5.4641    1.3450    0.0000 C   0  0  0  0  0  0  0  0  0  0  0  0
    2.0000    1.3450    0.0000 C   0  0  0  0  0  0  0  0  0  0  0  0
    2.8660    2.8450    0.0000 C   0  0  0  0  0  0  0  0  0  0  0  0
    3.7320   -0.6550    0.0000 C   0  0  0  0  0  0  0  0  0  0  0  0
    6.3301    0.8450    0.0000 C   0  0  0  0  0  0  0  0  0  0  0  0
    5.4641   -0.6550    0.0000 C   0  0  0  0  0  0  0  0  0  0  0  0
    5.4641    2.3450    0.0000 C   0  0  0  0  0  0  0  0  0  0  0  0
    3.7320   -1.6550    0.0000 C   0  0  0  0  0  0  0  0  0  0  0  0
    7.1962    1.3450    0.0000 C   0  0  0  0  0  0  0  0  0  0  0  0
    5.4641   -1.6550    0.0000 C   0  0  0  0  0  0  0  0  0  0  0  0
    6.3301    2.8450    0.0000 C   0  0  0  0  0  0  0  0  0  0  0  0
    4.5981   -2.1550    0.0000 C   0  0  0  0  0  0  0  0  0  0  0  0
    7.1962    2.3450    0.0000 C   0  0  0  0  0  0  0  0  0  0  0  0
    4.3426    2.2373    0.0000 H   0  0  0  0  0  0  0  0  0  0  0  0
    3.9441    2.9276    0.0000 H   0  0  0  0  0  0  0  0  0  0  0  0
    2.4675    0.3701    0.0000 H   0  0  0  0  0  0  0  0  0  0  0  0
    3.2646    0.3701    0.0000 H   0  0  0  0  0  0  0  0  0  0  0  0
    2.3100    1.8819    0.0000 H   0  0  0  0  0  0  0  0  0  0  0  0
    1.4631    1.6550    0.0000 H   0  0  0  0  0  0  0  0  0  0  0  0
    3.1760    3.3819    0.0000 H   0  0  0  0  0  0  0  0  0  0  0  0
    2.3291    3.1550    0.0000 H   0  0  0  0  0  0  0  0  0  0  0  0
    2.5560    2.3081    0.0000 H   0  0  0  0  0  0  0  0  0  0  0  0
    1.6900    0.8081    0.0000 H   0  0  0  0  0  0  0  0  0  0  0  0
    6.3301    0.2250    0.0000 H   0  0  0  0  0  0  0  0  0  0  0  0
    3.1951   -0.3450    0.0000 H   0  0  0  0  0  0  0  0  0  0  0  0
    4.9272    2.6550    0.0000 H   0  0  0  0  0  0  0  0  0  0  0  0
    6.0010   -0.3450    0.0000 H   0  0  0  0  0  0  0  0  0  0  0  0
    3.1951   -1.9650    0.0000 H   0  0  0  0  0  0  0  0  0  0  0  0
    7.7331    1.0350    0.0000 H   0  0  0  0  0  0  0  0  0  0  0  0
    6.0010   -1.9650    0.0000 H   0  0  0  0  0  0  0  0  0  0  0  0
    6.3301    3.4650    0.0000 H   0  0  0  0  0  0  0  0  0  0  0  0
    8.0622    3.4650    0.0000 H   0  0  0  0  0  0  0  0  0  0  0  0
    4.0611   -3.4650    0.0000 H   0  0  0  0  0  0  0  0  0  0  0  0
  1 20  1  0  0  0  0
  1 39  1  0  0  0  0
  2 19  1  0  0  0  0
  2 40  1  0  0  0  0
  3  4  2  0  0  0  0
  3  5  1  0  0  0  0
  3  6  1  0  0  0  0
  4  7  1  0  0  0  0
  4  8  1  0  0  0  0
  5 10  1  0  0  0  0
  5 21  1  0  0  0  0
  5 22  1  0  0  0  0
  6  9  1  0  0  0  0
  6 23  1  0  0  0  0
  6 24  1  0  0  0  0
  7 11  2  0  0  0  0
  7 13  1  0  0  0  0
  8 12  2  0  0  0  0
  8 14  1  0  0  0  0
  9 25  1  0  0  0  0
  9 26  1  0  0  0  0
  9 30  1  0  0  0  0
 10 27  1  0  0  0  0
 10 28  1  0  0  0  0
 10 29  1  0  0  0  0
 11 15  1  0  0  0  0
 11 32  1  0  0  0  0
 12 16  1  0  0  0  0
 12 31  1  0  0  0  0
 13 17  2  0  0  0  0
 13 34  1  0  0  0  0
 14 18  2  0  0  0  0
 14 33  1  0  0  0  0
 15 19  2  0  0  0  0
 15 35  1  0  0  0  0
 16 20  2  0  0  0  0
 16 36  1  0  0  0  0
 17 19  1  0  0  0  0
 17 37  1  0  0  0  0
 18 20  1  0  0  0  0
 18 38  1  0  0  0  0
M  END
> <PUBCHEM_COMPOUND_CID>
226968

> <PUBCHEM_COMPOUND_CANONICALIZED>
1

> <PUBCHEM_CACTVS_COMPLEXITY>
288

> <PUBCHEM_CACTVS_HBOND_ACCEPTOR>
2

> <PUBCHEM_CACTVS_HBOND_DONOR>
2

> <PUBCHEM_CACTVS_ROTATABLE_BOND>
4

> <PUBCHEM_CACTVS_SUBSKEYS>
AAADceB4MAAAAAAAAAAAAAAAAAAAAAAAAAAwYAAAAAAAAAABQAAAGgAACAAADASAmAAyBoAAAgCAAiBCAAACAAAgIAAIiAAGCIgIJiKCERKAcAAkwBEImAeAwOAOIAAAAAAAAABAAAAAAAAAAAAAAAAAAA==

> <PUBCHEM_IUPAC_OPENEYE_NAME>
4-[2-ethyl-1-(4-hydroxyphenyl)but-1-enyl]phenol

> <PUBCHEM_IUPAC_CAS_NAME>
4-[2-ethyl-1-(4-hydroxyphenyl)but-1-enyl]phenol

> <PUBCHEM_IUPAC_NAME>
4-[2-ethyl-1-(4-hydroxyphenyl)but-1-enyl]phenol

> <PUBCHEM_IUPAC_SYSTEMATIC_NAME>
4-[2-ethyl-1-(4-hydroxyphenyl)but-1-enyl]phenol

> <PUBCHEM_IUPAC_TRADITIONAL_NAME>
4-[2-ethyl-1-(4-hydroxyphenyl)but-1-enyl]phenol

> <PUBCHEM_IUPAC_INCHI>
InChI=1S/C18H20O2/c1-3-13(4-2)18(14-5-9-16(19)10-6-14)15-7-11-17(20)12-8-15/h5-12,19-20H,3-4H2,1-2H3

> <PUBCHEM_IUPAC_INCHIKEY>
AWIVCGHUJHEQNV-UHFFFAOYSA-N

> <PUBCHEM_XLOGP3>
5.1

> <PUBCHEM_EXACT_MASS>
268.14633

> <PUBCHEM_MOLECULAR_FORMULA>
C18H20O2

> <PUBCHEM_MOLECULAR_WEIGHT>
268.3502

> <PUBCHEM_OPENEYE_CAN_SMILES>
CCC(=C(C1=CC=C(C=C1)O)C2=CC=C(C=C2)O)CC

> <PUBCHEM_OPENEYE_ISO_SMILES>
CCC(=C(C1=CC=C(C=C1)O)C2=CC=C(C=C2)O)CC

> <PUBCHEM_CACTVS_TPSA>
40.5

> <PUBCHEM_MONOISOTOPIC_WEIGHT>
268.14633

> <PUBCHEM_TOTAL_CHARGE>
0

> <PUBCHEM_HEAVY_ATOM_COUNT>
20

> <PUBCHEM_ATOM_DEF_STEREO_COUNT>
0

> <PUBCHEM_ATOM_UDEF_STEREO_COUNT>
0

> <PUBCHEM_BOND_DEF_STEREO_COUNT>
0

> <PUBCHEM_BOND_UDEF_STEREO_COUNT>
0

> <PUBCHEM_ISOTOPIC_ATOM_COUNT>
0

> <PUBCHEM_COMPONENT_COUNT>
1

> <PUBCHEM_CACTVS_TAUTO_COUNT>
8

> <PUBCHEM_COORDINATE_TYPE>
1
5
255

> <PUBCHEM_BONDANNOTATIONS>
11  15  8
12  16  8
13  17  8
14  18  8
15  19  8
16  20  8
17  19  8
18  20  8
7  11  8
7  13  8
8  12  8
8  14  8

$$$$

