3202
  -OEChem-07051212522D

 28 28  0     0  0  0  0  0  0999 V2000
    2.0000   -1.9400    0.0000 O   0  0  0  0  0  0  0  0  0  0  0  0
    3.7320    1.0600    0.0000 N   0  3  0  0  0  0  0  0  0  0  0  0
    3.7320    2.0600    0.0000 C   0  0  0  0  0  0  0  0  0  0  0  0
    3.7320    0.0600    0.0000 C   0  0  0  0  0  0  0  0  0  0  0  0
    4.7320    1.0600    0.0000 C   0  0  0  0  0  0  0  0  0  0  0  0
    2.7320    1.0600    0.0000 C   0  0  0  0  0  0  0  0  0  0  0  0
    4.5981    2.5600    0.0000 C   0  0  0  0  0  0  0  0  0  0  0  0
    2.8660   -0.4400    0.0000 C   0  0  0  0  0  0  0  0  0  0  0  0
    4.5981   -0.4400    0.0000 C   0  0  0  0  0  0  0  0  0  0  0  0
    2.8660   -1.4400    0.0000 C   0  0  0  0  0  0  0  0  0  0  0  0
    4.5981   -1.4400    0.0000 C   0  0  0  0  0  0  0  0  0  0  0  0
    3.7320   -1.9400    0.0000 C   0  0  0  0  0  0  0  0  0  0  0  0
    3.5200    2.6426    0.0000 H   0  0  0  0  0  0  0  0  0  0  0  0
    3.1215    1.9523    0.0000 H   0  0  0  0  0  0  0  0  0  0  0  0
    4.7320    0.4400    0.0000 H   0  0  0  0  0  0  0  0  0  0  0  0
    5.3520    1.0600    0.0000 H   0  0  0  0  0  0  0  0  0  0  0  0
    4.7320    1.6800    0.0000 H   0  0  0  0  0  0  0  0  0  0  0  0
    2.7320    1.6800    0.0000 H   0  0  0  0  0  0  0  0  0  0  0  0
    2.1120    1.0600    0.0000 H   0  0  0  0  0  0  0  0  0  0  0  0
    2.7320    0.4400    0.0000 H   0  0  0  0  0  0  0  0  0  0  0  0
    4.9081    2.0231    0.0000 H   0  0  0  0  0  0  0  0  0  0  0  0
    5.1350    2.8700    0.0000 H   0  0  0  0  0  0  0  0  0  0  0  0
    4.2881    3.0969    0.0000 H   0  0  0  0  0  0  0  0  0  0  0  0
    2.3291   -0.1300    0.0000 H   0  0  0  0  0  0  0  0  0  0  0  0
    5.1350   -0.1300    0.0000 H   0  0  0  0  0  0  0  0  0  0  0  0
    5.1350   -1.7500    0.0000 H   0  0  0  0  0  0  0  0  0  0  0  0
    3.7320   -2.5600    0.0000 H   0  0  0  0  0  0  0  0  0  0  0  0
    2.0000   -2.5600    0.0000 H   0  0  0  0  0  0  0  0  0  0  0  0
  1 10  1  0  0  0  0
  1 28  1  0  0  0  0
  2  3  1  0  0  0  0
  2  4  1  0  0  0  0
  2  5  1  0  0  0  0
  2  6  1  0  0  0  0
  3  7  1  0  0  0  0
  3 13  1  0  0  0  0
  3 14  1  0  0  0  0
  4  8  2  0  0  0  0
  4  9  1  0  0  0  0
  5 15  1  0  0  0  0
  5 16  1  0  0  0  0
  5 17  1  0  0  0  0
  6 18  1  0  0  0  0
  6 19  1  0  0  0  0
  6 20  1  0  0  0  0
  7 21  1  0  0  0  0
  7 22  1  0  0  0  0
  7 23  1  0  0  0  0
  8 10  1  0  0  0  0
  8 24  1  0  0  0  0
  9 11  2  0  0  0  0
  9 25  1  0  0  0  0
 10 12  2  0  0  0  0
 11 12  1  0  0  0  0
 11 26  1  0  0  0  0
 12 27  1  0  0  0  0
M  CHG  1   2   1
M  END
> <PUBCHEM_COMPOUND_CID>
3202

> <PUBCHEM_COMPOUND_CANONICALIZED>
1

> <PUBCHEM_CACTVS_COMPLEXITY>
145

> <PUBCHEM_CACTVS_HBOND_ACCEPTOR>
1

> <PUBCHEM_CACTVS_HBOND_DONOR>
1

> <PUBCHEM_CACTVS_ROTATABLE_BOND>
2

> <PUBCHEM_CACTVS_SUBSKEYS>
AAADceByIAAAAAAAAAAAAAAAAAAAAAAAAAAwAAAAAAAAAAABAAAAHgAACAAACAzBkAQyxoMAAgCAACRCQACCAAAhIgAIiAAObIgIJiLCkZOEcAhmwBnI2AeQUAMAAAAAAgAAAAAAAAAEAAAAAAAAAAAAAA==

> <PUBCHEM_IUPAC_OPENEYE_NAME>
ethyl-(3-hydroxyphenyl)-dimethyl-ammonium

> <PUBCHEM_IUPAC_CAS_NAME>
ethyl-(3-hydroxyphenyl)-dimethylammonium

> <PUBCHEM_IUPAC_NAME>
ethyl-(3-hydroxyphenyl)-dimethylazanium

> <PUBCHEM_IUPAC_SYSTEMATIC_NAME>
ethyl-(3-hydroxyphenyl)-dimethyl-azanium

> <PUBCHEM_IUPAC_TRADITIONAL_NAME>
ethyl-(3-hydroxyphenyl)-dimethyl-ammonium

> <PUBCHEM_IUPAC_INCHI>
InChI=1S/C10H15NO/c1-4-11(2,3)9-6-5-7-10(12)8-9/h5-8H,4H2,1-3H3/p+1

> <PUBCHEM_IUPAC_INCHIKEY>
VWLHWLSRQJQWRG-UHFFFAOYSA-O

> <PUBCHEM_XLOGP3_AA>
1.8

> <PUBCHEM_EXACT_MASS>
166.123189

> <PUBCHEM_MOLECULAR_FORMULA>
C10H16NO+

> <PUBCHEM_MOLECULAR_WEIGHT>
166.24014

> <PUBCHEM_OPENEYE_CAN_SMILES>
CC[N+](C)(C)C1=CC(=CC=C1)O

> <PUBCHEM_OPENEYE_ISO_SMILES>
CC[N+](C)(C)C1=CC(=CC=C1)O

> <PUBCHEM_CACTVS_TPSA>
20.2

> <PUBCHEM_MONOISOTOPIC_WEIGHT>
166.123189

> <PUBCHEM_TOTAL_CHARGE>
1

> <PUBCHEM_HEAVY_ATOM_COUNT>
12

> <PUBCHEM_ATOM_DEF_STEREO_COUNT>
0

> <PUBCHEM_ATOM_UDEF_STEREO_COUNT>
0

> <PUBCHEM_BOND_DEF_STEREO_COUNT>
0

> <PUBCHEM_BOND_UDEF_STEREO_COUNT>
0

> <PUBCHEM_ISOTOPIC_ATOM_COUNT>
0

> <PUBCHEM_COMPONENT_COUNT>
1

> <PUBCHEM_CACTVS_TAUTO_COUNT>
3

> <PUBCHEM_COORDINATE_TYPE>
1
5
255

> <PUBCHEM_BONDANNOTATIONS>
10  12  8
11  12  8
4  8  8
4  9  8
8  10  8
9  11  8

$$$$

