441733
  -OEChem-07051212553D

 91 97  0     1  0  0  0  0  0999 V2000
   -1.4670    1.6828    1.8944 O   0  0  0  0  0  0  0  0  0  0  0  0
   -2.3828   -1.3162   -2.6307 O   0  0  0  0  0  0  0  0  0  0  0  0
   -1.5781    2.5110   -0.5820 O   0  0  0  0  0  0  0  0  0  0  0  0
   -2.8216    1.4369   -2.6198 O   0  0  0  0  0  0  0  0  0  0  0  0
   -2.2636   -1.6281    2.9031 O   0  0  0  0  0  0  0  0  0  0  0  0
   -4.5131    3.1419   -0.7641 O   0  0  0  0  0  0  0  0  0  0  0  0
   -6.6097    0.9427   -0.3877 O   0  0  0  0  0  0  0  0  0  0  0  0
    2.7898   -0.5024   -0.2145 O   0  0  0  0  0  0  0  0  0  0  0  0
    4.4904   -0.7975   -1.7380 O   0  0  0  0  0  0  0  0  0  0  0  0
    9.0603    0.6920   -0.1265 O   0  0  0  0  0  0  0  0  0  0  0  0
   -1.5460   -2.7828   -0.2219 N   0  0  2  0  0  0  0  0  0  0  0  0
    6.8679   -0.0244   -0.6119 N   0  0  0  0  0  0  0  0  0  0  0  0
   -1.4120   -0.5370    0.8249 C   0  0  2  0  0  0  0  0  0  0  0  0
   -2.2358    0.8133    1.0404 C   0  0  2  0  0  0  0  0  0  0  0  0
   -0.1006   -0.3583   -0.0372 C   0  0  2  0  0  0  0  0  0  0  0  0
   -2.1810   -1.4470   -0.1774 C   0  0  1  0  0  0  0  0  0  0  0  0
   -2.0754   -0.5621   -1.4654 C   0  0  2  0  0  0  0  0  0  0  0  0
   -2.6353    1.6230   -0.2261 C   0  0  2  0  0  0  0  0  0  0  0  0
   -3.0225    0.6824   -1.4029 C   0  0  1  0  0  0  0  0  0  0  0  0
   -0.5995   -0.1121   -1.4860 C   0  0  0  0  0  0  0  0  0  0  0  0
    0.7243   -1.6872   -0.0222 C   0  0  2  0  0  0  0  0  0  0  0  0
   -1.0933   -1.1545    2.2406 C   0  0  2  0  0  0  0  0  0  0  0  0
   -3.6029    0.6292    1.7658 C   0  0  0  0  0  0  0  0  0  0  0  0
   -4.6521    1.3887    0.9343 C   0  0  1  0  0  0  0  0  0  0  0  0
   -3.8162    2.4699    0.2662 C   0  0  2  0  0  0  0  0  0  0  0  0
   -4.5293    0.2938   -1.4130 C   0  0  0  0  0  0  0  0  0  0  0  0
   -0.1434   -2.8176   -0.6599 C   0  0  0  0  0  0  0  0  0  0  0  0
   -5.2999    0.4434   -0.0924 C   0  0  2  0  0  0  0  0  0  0  0  0
    1.1190   -2.0316    1.4281 C   0  0  0  0  0  0  0  0  0  0  0  0
   -0.0750   -2.2849    2.3160 C   0  0  0  0  0  0  0  0  0  0  0  0
    2.0475   -1.5442   -0.8071 C   0  0  0  0  0  0  0  0  0  0  0  0
   -2.3514   -3.8033   -0.8786 C   0  0  0  0  0  0  0  0  0  0  0  0
   -1.8018   -5.1938   -0.6092 C   0  0  0  0  0  0  0  0  0  0  0  0
   -1.9943   -1.9558    4.2577 C   0  0  0  0  0  0  0  0  0  0  0  0
   -5.6880    3.7811   -0.2771 C   0  0  0  0  0  0  0  0  0  0  0  0
   -7.3136    0.0564   -1.2406 C   0  0  0  0  0  0  0  0  0  0  0  0
    4.0044   -0.2231   -0.7761 C   0  0  0  0  0  0  0  0  0  0  0  0
    4.6835    0.8875   -0.0622 C   0  0  0  0  0  0  0  0  0  0  0  0
    6.0623    0.9447   -0.0070 C   0  0  0  0  0  0  0  0  0  0  0  0
    3.8875    1.8468    0.5349 C   0  0  0  0  0  0  0  0  0  0  0  0
    6.6696    2.0018    0.6710 C   0  0  0  0  0  0  0  0  0  0  0  0
    4.4949    2.9037    1.2130 C   0  0  0  0  0  0  0  0  0  0  0  0
    5.8859    2.9811    1.2812 C   0  0  0  0  0  0  0  0  0  0  0  0
    8.2657   -0.0910   -0.6368 C   0  0  0  0  0  0  0  0  0  0  0  0
    8.7524   -1.2990   -1.3973 C   0  0  0  0  0  0  0  0  0  0  0  0
    0.4956    0.4851    0.3272 H   0  0  0  0  0  0  0  0  0  0  0  0
   -3.2207   -1.5828    0.1304 H   0  0  0  0  0  0  0  0  0  0  0  0
   -0.0434   -0.6560   -2.2534 H   0  0  0  0  0  0  0  0  0  0  0  0
   -0.4594    0.9314   -1.7732 H   0  0  0  0  0  0  0  0  0  0  0  0
   -0.6560   -0.3508    2.8448 H   0  0  0  0  0  0  0  0  0  0  0  0
   -3.5815    1.0531    2.7776 H   0  0  0  0  0  0  0  0  0  0  0  0
   -3.9135   -0.4110    1.8706 H   0  0  0  0  0  0  0  0  0  0  0  0
   -5.4174    1.8000    1.6016 H   0  0  0  0  0  0  0  0  0  0  0  0
   -3.4764    3.2198    0.9940 H   0  0  0  0  0  0  0  0  0  0  0  0
   -5.0136    0.9163   -2.1785 H   0  0  0  0  0  0  0  0  0  0  0  0
   -4.6843   -0.7253   -1.7802 H   0  0  0  0  0  0  0  0  0  0  0  0
    0.3231   -3.7701   -0.3817 H   0  0  0  0  0  0  0  0  0  0  0  0
   -0.0923   -2.7688   -1.7548 H   0  0  0  0  0  0  0  0  0  0  0  0
   -5.4322   -0.5434    0.3692 H   0  0  0  0  0  0  0  0  0  0  0  0
    1.7044   -1.2143    1.8695 H   0  0  0  0  0  0  0  0  0  0  0  0
    1.7651   -2.9188    1.4486 H   0  0  0  0  0  0  0  0  0  0  0  0
   -0.5333   -3.2546    2.0885 H   0  0  0  0  0  0  0  0  0  0  0  0
    0.3096   -2.3939    3.3382 H   0  0  0  0  0  0  0  0  0  0  0  0
    2.6197   -2.4795   -0.7507 H   0  0  0  0  0  0  0  0  0  0  0  0
    1.8819   -1.3237   -1.8661 H   0  0  0  0  0  0  0  0  0  0  0  0
   -1.5707    1.4069    2.8193 H   0  0  0  0  0  0  0  0  0  0  0  0
   -3.2203   -1.7852   -2.4926 H   0  0  0  0  0  0  0  0  0  0  0  0
   -1.3217    3.0116    0.2111 H   0  0  0  0  0  0  0  0  0  0  0  0
   -3.3005    2.2790   -2.5323 H   0  0  0  0  0  0  0  0  0  0  0  0
   -3.3765   -3.7707   -0.4905 H   0  0  0  0  0  0  0  0  0  0  0  0
   -2.4071   -3.6634   -1.9618 H   0  0  0  0  0  0  0  0  0  0  0  0
   -0.8811   -5.3944   -1.1658 H   0  0  0  0  0  0  0  0  0  0  0  0
   -1.6142   -5.3550    0.4579 H   0  0  0  0  0  0  0  0  0  0  0  0
   -2.5326   -5.9451   -0.9293 H   0  0  0  0  0  0  0  0  0  0  0  0
   -2.9542   -1.9896    4.7825 H   0  0  0  0  0  0  0  0  0  0  0  0
   -1.3740   -1.2026    4.7542 H   0  0  0  0  0  0  0  0  0  0  0  0
   -1.5531   -2.9528    4.3460 H   0  0  0  0  0  0  0  0  0  0  0  0
   -5.4066    4.5856    0.4107 H   0  0  0  0  0  0  0  0  0  0  0  0
   -6.4043    3.1297    0.2178 H   0  0  0  0  0  0  0  0  0  0  0  0
   -6.1928    4.2394   -1.1329 H   0  0  0  0  0  0  0  0  0  0  0  0
   -6.9886    0.1387   -2.2809 H   0  0  0  0  0  0  0  0  0  0  0  0
   -7.2438   -0.9810   -0.8972 H   0  0  0  0  0  0  0  0  0  0  0  0
   -8.3695    0.3432   -1.2146 H   0  0  0  0  0  0  0  0  0  0  0  0
    2.8031    1.8220    0.4858 H   0  0  0  0  0  0  0  0  0  0  0  0
    7.7367    2.1371    0.7707 H   0  0  0  0  0  0  0  0  0  0  0  0
    3.8850    3.6685    1.6850 H   0  0  0  0  0  0  0  0  0  0  0  0
    6.3773   -0.7754   -1.0903 H   0  0  0  0  0  0  0  0  0  0  0  0
    6.3573    3.8052    1.8088 H   0  0  0  0  0  0  0  0  0  0  0  0
    8.4051   -2.2109   -0.9033 H   0  0  0  0  0  0  0  0  0  0  0  0
    9.8455   -1.3037   -1.4253 H   0  0  0  0  0  0  0  0  0  0  0  0
    8.3721   -1.2708   -2.4223 H   0  0  0  0  0  0  0  0  0  0  0  0
  1 14  1  0  0  0  0
  1 66  1  0  0  0  0
  2 17  1  0  0  0  0
  2 67  1  0  0  0  0
  3 18  1  0  0  0  0
  3 68  1  0  0  0  0
  4 19  1  0  0  0  0
  4 69  1  0  0  0  0
  5 22  1  0  0  0  0
  5 34  1  0  0  0  0
  6 25  1  0  0  0  0
  6 35  1  0  0  0  0
  7 28  1  0  0  0  0
  7 36  1  0  0  0  0
  8 31  1  0  0  0  0
  8 37  1  0  0  0  0
  9 37  2  0  0  0  0
 10 44  2  0  0  0  0
 11 16  1  0  0  0  0
 11 27  1  0  0  0  0
 11 32  1  0  0  0  0
 12 39  1  0  0  0  0
 12 44  1  0  0  0  0
 12 87  1  0  0  0  0
 13 14  1  0  0  0  0
 13 15  1  0  0  0  0
 13 16  1  0  0  0  0
 13 22  1  0  0  0  0
 14 18  1  0  0  0  0
 14 23  1  0  0  0  0
 15 20  1  0  0  0  0
 15 21  1  0  0  0  0
 15 46  1  0  0  0  0
 16 17  1  0  0  0  0
 16 47  1  0  0  0  0
 17 19  1  0  0  0  0
 17 20  1  0  0  0  0
 18 19  1  0  0  0  0
 18 25  1  0  0  0  0
 19 26  1  0  0  0  0
 20 48  1  0  0  0  0
 20 49  1  0  0  0  0
 21 27  1  0  0  0  0
 21 29  1  0  0  0  0
 21 31  1  0  0  0  0
 22 30  1  0  0  0  0
 22 50  1  0  0  0  0
 23 24  1  0  0  0  0
 23 51  1  0  0  0  0
 23 52  1  0  0  0  0
 24 25  1  0  0  0  0
 24 28  1  0  0  0  0
 24 53  1  0  0  0  0
 25 54  1  0  0  0  0
 26 28  1  0  0  0  0
 26 55  1  0  0  0  0
 26 56  1  0  0  0  0
 27 57  1  0  0  0  0
 27 58  1  0  0  0  0
 28 59  1  0  0  0  0
 29 30  1  0  0  0  0
 29 60  1  0  0  0  0
 29 61  1  0  0  0  0
 30 62  1  0  0  0  0
 30 63  1  0  0  0  0
 31 64  1  0  0  0  0
 31 65  1  0  0  0  0
 32 33  1  0  0  0  0
 32 70  1  0  0  0  0
 32 71  1  0  0  0  0
 33 72  1  0  0  0  0
 33 73  1  0  0  0  0
 33 74  1  0  0  0  0
 34 75  1  0  0  0  0
 34 76  1  0  0  0  0
 34 77  1  0  0  0  0
 35 78  1  0  0  0  0
 35 79  1  0  0  0  0
 35 80  1  0  0  0  0
 36 81  1  0  0  0  0
 36 82  1  0  0  0  0
 36 83  1  0  0  0  0
 37 38  1  0  0  0  0
 38 39  1  0  0  0  0
 38 40  2  0  0  0  0
 39 41  2  0  0  0  0
 40 42  1  0  0  0  0
 40 84  1  0  0  0  0
 41 43  1  0  0  0  0
 41 85  1  0  0  0  0
 42 43  2  0  0  0  0
 42 86  1  0  0  0  0
 43 88  1  0  0  0  0
 44 45  1  0  0  0  0
 45 89  1  0  0  0  0
 45 90  1  0  0  0  0
 45 91  1  0  0  0  0
M  END
> <PUBCHEM_COMPOUND_CID>
441733

> <PUBCHEM_CONFORMER_RMSD>
1.2

> <PUBCHEM_CONFORMER_DIVERSEORDER>
1
18
9
16
19
24
12
20
17
27
2
4
3
26
14
10
6
22
25
7
11
23
5
21
15
8
13

> <PUBCHEM_MMFF94_PARTIAL_CHARGES>
44
1 -0.68
10 -0.57
11 -0.81
12 -0.55
14 0.28
16 0.27
17 0.28
18 0.28
19 0.28
2 -0.68
22 0.28
25 0.28
27 0.27
28 0.28
3 -0.68
31 0.28
32 0.27
34 0.28
35 0.28
36 0.28
37 0.63
38 0.09
39 0.12
4 -0.68
40 -0.15
41 -0.15
42 -0.15
43 -0.15
44 0.57
45 0.06
5 -0.56
6 -0.56
66 0.4
67 0.4
68 0.4
69 0.4
7 -0.56
8 -0.43
84 0.15
85 0.15
86 0.15
87 0.37
88 0.15
9 -0.57

> <PUBCHEM_EFFECTIVE_ROTOR_COUNT>
12

> <PUBCHEM_PHARMACOPHORE_FEATURES>
20
1 1 acceptor
1 1 donor
1 10 acceptor
1 11 cation
1 12 donor
1 2 acceptor
1 2 donor
1 3 acceptor
1 3 donor
1 4 acceptor
1 4 donor
1 5 acceptor
1 6 acceptor
1 7 acceptor
1 9 acceptor
6 13 15 21 22 29 30 rings
6 38 39 40 41 42 43 rings
8 11 13 15 16 17 20 21 27 rings
8 13 14 15 16 17 18 19 20 rings
8 14 18 19 23 24 25 26 28 rings

> <PUBCHEM_HEAVY_ATOM_COUNT>
45

> <PUBCHEM_ATOM_DEF_STEREO_COUNT>
11

> <PUBCHEM_ATOM_UDEF_STEREO_COUNT>
1

> <PUBCHEM_BOND_DEF_STEREO_COUNT>
0

> <PUBCHEM_BOND_UDEF_STEREO_COUNT>
0

> <PUBCHEM_ISOTOPIC_ATOM_COUNT>
0

> <PUBCHEM_COMPONENT_COUNT>
1

> <PUBCHEM_CACTVS_TAUTO_COUNT>
3

> <PUBCHEM_CONFORMER_ID>
0006BD8500000001

> <PUBCHEM_MMFF94_ENERGY>
244.3703

> <PUBCHEM_FEATURE_SELFOVERLAP>
103.031

> <PUBCHEM_SHAPE_FINGERPRINT>
10074138 170 16988277556399438979
10076449 9 15140681367259190039
11007060 377 18259987055092985505
12128747 34 18059009605622784402
12422481 6 14476967830330060497
12788726 201 14418405641890408211
13150687 139 18409731776525028327
13811026 1 18188213109300985804
14856354 85 16773783776361057970
15064986 266 18188772721690655622
15183329 4 18334295379972385212
15324884 4 17980722165263425611
15361156 5 18200306603594196996
21033648 29 17130986632259235854
21223535 225 18041840748381847868
21756936 100 18202278126077882194
21927370 108 17631444567275685459
2838139 119 18333733528998212140
3383291 50 18409730634158315499
376196 1 18127690650521427851
4073 2 18336549301452468070
4098825 35 18040156219083922110
4144715 1 18265612079777951222
469060 322 18051688850271187770
508706 21 18263370209427540080
6086070 43 18260832571393424730
7288768 16 18059858389221613377

> <PUBCHEM_SHAPE_MULTIPOLES>
857.42
18.57
4.25
2.44
40.87
2.01
-2.05
-11.82
5.92
-3.07
-0.2
-2.09
1.29
2.22

> <PUBCHEM_SHAPE_SELFOVERLAP>
1887.705

> <PUBCHEM_SHAPE_VOLUME>
454

> <PUBCHEM_COORDINATE_TYPE>
2
5
10

$$$$

