5281392
  -OEChem-07051212562D

 55 58  0     0  0  0  0  0  0999 V2000
    5.5141    2.0243    0.0000 O   0  0  0  0  0  0  0  0  0  0  0  0
    3.7702   -1.0519    0.0000 O   0  0  0  0  0  0  0  0  0  0  0  0
    7.2622   -1.0172    0.0000 O   0  0  0  0  0  0  0  0  0  0  0  0
    4.6641   -2.5172    0.0000 O   0  0  0  0  0  0  0  0  0  0  0  0
    2.0000   -1.0414    0.0000 O   0  0  0  0  0  0  0  0  0  0  0  0
    6.4121    2.5520    0.0000 C   0  0  0  0  0  0  0  0  0  0  0  0
    5.5301    0.9828    0.0000 C   0  0  0  0  0  0  0  0  0  0  0  0
    6.3961    0.4828    0.0000 C   0  0  0  0  0  0  0  0  0  0  0  0
    4.6641    0.4828    0.0000 C   0  0  0  0  0  0  0  0  0  0  0  0
    7.3142    2.0312    0.0000 C   0  0  0  0  0  0  0  0  0  0  0  0
    4.6641   -0.5172    0.0000 C   0  0  0  0  0  0  0  0  0  0  0  0
    6.3961   -0.5172    0.0000 C   0  0  0  0  0  0  0  0  0  0  0  0
    5.5301   -1.0172    0.0000 C   0  0  0  0  0  0  0  0  0  0  0  0
    7.3062    0.9896    0.0000 C   0  0  0  0  0  0  0  0  0  0  0  0
    6.9088    3.4200    0.0000 C   0  0  0  0  0  0  0  0  0  0  0  0
    5.9088    3.4161    0.0000 C   0  0  0  0  0  0  0  0  0  0  0  0
    3.7702    1.0174    0.0000 C   0  0  0  0  0  0  0  0  0  0  0  0
    3.7817    2.0174    0.0000 C   0  0  0  0  0  0  0  0  0  0  0  0
    2.8641    0.5036    0.0000 C   0  0  0  0  0  0  0  0  0  0  0  0
    5.5301   -2.0172    0.0000 C   0  0  0  0  0  0  0  0  0  0  0  0
    2.8641   -0.5380    0.0000 C   0  0  0  0  0  0  0  0  0  0  0  0
    6.3961   -2.5172    0.0000 C   0  0  0  0  0  0  0  0  0  0  0  0
    4.6535    2.5073    0.0000 C   0  0  0  0  0  0  0  0  0  0  0  0
    2.9215    2.5273    0.0000 C   0  0  0  0  0  0  0  0  0  0  0  0
    8.1282   -0.5172    0.0000 C   0  0  0  0  0  0  0  0  0  0  0  0
    7.2622   -2.0172    0.0000 C   0  0  0  0  0  0  0  0  0  0  0  0
    4.6650    3.5072    0.0000 C   0  0  0  0  0  0  0  0  0  0  0  0
    2.9331    3.5273    0.0000 C   0  0  0  0  0  0  0  0  0  0  0  0
    6.3961   -3.5172    0.0000 C   0  0  0  0  0  0  0  0  0  0  0  0
    3.8048    4.0172    0.0000 C   0  0  0  0  0  0  0  0  0  0  0  0
    7.2622   -4.0172    0.0000 C   0  0  0  0  0  0  0  0  0  0  0  0
    7.8523    2.3391    0.0000 H   0  0  0  0  0  0  0  0  0  0  0  0
    7.8395    0.6734    0.0000 H   0  0  0  0  0  0  0  0  0  0  0  0
    6.4445    3.7282    0.0000 H   0  0  0  0  0  0  0  0  0  0  0  0
    5.5967    3.9519    0.0000 H   0  0  0  0  0  0  0  0  0  0  0  0
    5.3730    3.1040    0.0000 H   0  0  0  0  0  0  0  0  0  0  0  0
    7.4469    3.1120    0.0000 H   0  0  0  0  0  0  0  0  0  0  0  0
    7.2167    3.9581    0.0000 H   0  0  0  0  0  0  0  0  0  0  0  0
    6.3706    3.7279    0.0000 H   0  0  0  0  0  0  0  0  0  0  0  0
    2.3284    0.8157    0.0000 H   0  0  0  0  0  0  0  0  0  0  0  0
    5.1868    2.1911    0.0000 H   0  0  0  0  0  0  0  0  0  0  0  0
    2.3810    2.2236    0.0000 H   0  0  0  0  0  0  0  0  0  0  0  0
    8.4382   -1.0542    0.0000 H   0  0  0  0  0  0  0  0  0  0  0  0
    8.6651   -0.2072    0.0000 H   0  0  0  0  0  0  0  0  0  0  0  0
    7.8182    0.0197    0.0000 H   0  0  0  0  0  0  0  0  0  0  0  0
    7.5722   -2.5542    0.0000 H   0  0  0  0  0  0  0  0  0  0  0  0
    7.7991   -1.7072    0.0000 H   0  0  0  0  0  0  0  0  0  0  0  0
    6.9522   -1.4803    0.0000 H   0  0  0  0  0  0  0  0  0  0  0  0
    5.2055    3.8110    0.0000 H   0  0  0  0  0  0  0  0  0  0  0  0
    2.3998    3.8435    0.0000 H   0  0  0  0  0  0  0  0  0  0  0  0
    5.8592   -3.8272    0.0000 H   0  0  0  0  0  0  0  0  0  0  0  0
    3.8120    4.6372    0.0000 H   0  0  0  0  0  0  0  0  0  0  0  0
    6.9522   -4.5542    0.0000 H   0  0  0  0  0  0  0  0  0  0  0  0
    7.7991   -4.3272    0.0000 H   0  0  0  0  0  0  0  0  0  0  0  0
    7.5722   -3.4803    0.0000 H   0  0  0  0  0  0  0  0  0  0  0  0
  1  6  1  0  0  0  0
  1  7  1  0  0  0  0
  2 11  1  0  0  0  0
  2 21  1  0  0  0  0
  3 12  1  0  0  0  0
  3 25  1  0  0  0  0
  4 20  2  0  0  0  0
  5 21  2  0  0  0  0
  6 10  1  0  0  0  0
  6 15  1  0  0  0  0
  6 16  1  0  0  0  0
  7  8  2  0  0  0  0
  7  9  1  0  0  0  0
  8 12  1  0  0  0  0
  8 14  1  0  0  0  0
  9 11  2  0  0  0  0
  9 17  1  0  0  0  0
 10 14  2  0  0  0  0
 10 32  1  0  0  0  0
 11 13  1  0  0  0  0
 12 13  2  0  0  0  0
 13 20  1  0  0  0  0
 14 33  1  0  0  0  0
 15 37  1  0  0  0  0
 15 38  1  0  0  0  0
 15 39  1  0  0  0  0
 16 34  1  0  0  0  0
 16 35  1  0  0  0  0
 16 36  1  0  0  0  0
 17 18  1  0  0  0  0
 17 19  2  0  0  0  0
 18 23  2  0  0  0  0
 18 24  1  0  0  0  0
 19 21  1  0  0  0  0
 19 40  1  0  0  0  0
 20 22  1  0  0  0  0
 22 26  1  0  0  0  0
 22 29  2  0  0  0  0
 23 27  1  0  0  0  0
 23 41  1  0  0  0  0
 24 28  2  0  0  0  0
 24 42  1  0  0  0  0
 25 43  1  0  0  0  0
 25 44  1  0  0  0  0
 25 45  1  0  0  0  0
 26 46  1  0  0  0  0
 26 47  1  0  0  0  0
 26 48  1  0  0  0  0
 27 30  2  0  0  0  0
 27 49  1  0  0  0  0
 28 30  1  0  0  0  0
 28 50  1  0  0  0  0
 29 31  1  0  0  0  0
 29 51  1  0  0  0  0
 30 52  1  0  0  0  0
 31 53  1  0  0  0  0
 31 54  1  0  0  0  0
 31 55  1  0  0  0  0
M  END
> <PUBCHEM_COMPOUND_CID>
5281392

> <PUBCHEM_COMPOUND_CANONICALIZED>
1

> <PUBCHEM_CACTVS_COMPLEXITY>
814

> <PUBCHEM_CACTVS_HBOND_ACCEPTOR>
5

> <PUBCHEM_CACTVS_HBOND_DONOR>
0

> <PUBCHEM_CACTVS_ROTATABLE_BOND>
4

> <PUBCHEM_CACTVS_SUBSKEYS>
AAADceB4OAAAAAAAAAAAAAAAAAAAAAAAAAAwYIEAAAAAAACBQAAAGgAAAAAADESAmAIyDoAABACIAqDSCAACCAAkIAAIiAEECMgMJzaENRqCO2Cl4BUIqYeI7OzOIAACCAAIAABAAAQQABAAAAAAAAAAAA==

> <PUBCHEM_IUPAC_OPENEYE_NAME>
5-methoxy-2,2-dimethyl-6-[(E)-2-methylbut-2-enoyl]-10-phenyl-pyrano[2,3-f]chromen-8-one

> <PUBCHEM_IUPAC_CAS_NAME>
5-methoxy-2,2-dimethyl-6-[(E)-2-methyl-1-oxobut-2-enyl]-10-phenyl-8-pyrano[2,3-f][1]benzopyranone

> <PUBCHEM_IUPAC_NAME>
5-methoxy-2,2-dimethyl-6-[(E)-2-methylbut-2-enoyl]-10-phenylpyrano[2,3-f]chromen-8-one

> <PUBCHEM_IUPAC_SYSTEMATIC_NAME>
5-methoxy-2,2-dimethyl-6-[(E)-2-methylbut-2-enoyl]-10-phenyl-pyrano[2,3-f]chromen-8-one

> <PUBCHEM_IUPAC_TRADITIONAL_NAME>
5-methoxy-2,2-dimethyl-6-[(E)-2-methylbut-2-enoyl]-10-phenyl-pyrano[2,3-f]chromen-8-one

> <PUBCHEM_IUPAC_INCHI>
InChI=1S/C26H24O5/c1-6-15(2)22(28)21-23(29-5)17-12-13-26(3,4)31-24(17)20-18(14-19(27)30-25(20)21)16-10-8-7-9-11-16/h6-14H,1-5H3/b15-6+

> <PUBCHEM_IUPAC_INCHIKEY>
PMBLOLOJQZPEND-GIDUJCDVSA-N

> <PUBCHEM_XLOGP3_AA>
4.9

> <PUBCHEM_EXACT_MASS>
416.162374

> <PUBCHEM_MOLECULAR_FORMULA>
C26H24O5

> <PUBCHEM_MOLECULAR_WEIGHT>
416.46576

> <PUBCHEM_OPENEYE_CAN_SMILES>
CC=C(C)C(=O)C1=C(C2=C(C3=C1OC(=O)C=C3C4=CC=CC=C4)OC(C=C2)(C)C)OC

> <PUBCHEM_OPENEYE_ISO_SMILES>
C/C=C(\C)/C(=O)C1=C(C2=C(C3=C1OC(=O)C=C3C4=CC=CC=C4)OC(C=C2)(C)C)OC

> <PUBCHEM_CACTVS_TPSA>
61.8

> <PUBCHEM_MONOISOTOPIC_WEIGHT>
416.162374

> <PUBCHEM_TOTAL_CHARGE>
0

> <PUBCHEM_HEAVY_ATOM_COUNT>
31

> <PUBCHEM_ATOM_DEF_STEREO_COUNT>
0

> <PUBCHEM_ATOM_UDEF_STEREO_COUNT>
0

> <PUBCHEM_BOND_DEF_STEREO_COUNT>
1

> <PUBCHEM_BOND_UDEF_STEREO_COUNT>
0

> <PUBCHEM_ISOTOPIC_ATOM_COUNT>
0

> <PUBCHEM_COMPONENT_COUNT>
1

> <PUBCHEM_CACTVS_TAUTO_COUNT>
3

> <PUBCHEM_COORDINATE_TYPE>
1
5
255

> <PUBCHEM_BONDANNOTATIONS>
11  13  8
12  13  8
17  19  8
18  23  8
18  24  8
19  21  8
2  11  8
2  21  8
23  27  8
24  28  8
27  30  8
28  30  8
7  8  8
7  9  8
8  12  8
9  11  8
9  17  8

$$$$

