10052730
  -OEChem-07051213102D

 80 81  0     0  0  0  0  0  0999 V2000
    7.7331   -3.2500    0.0000 O   0  0  0  0  0  0  0  0  0  0  0  0
   10.3312    3.2500    0.0000 O   0  0  0  0  0  0  0  0  0  0  0  0
    4.2690   -7.2500    0.0000 O   0  0  0  0  0  0  0  0  0  0  0  0
    6.8671    7.2500    0.0000 O   0  0  0  0  0  0  0  0  0  0  0  0
    2.5369   -6.2500    0.0000 O   0  0  0  0  0  0  0  0  0  0  0  0
    5.1350    6.2500    0.0000 O   0  0  0  0  0  0  0  0  0  0  0  0
    6.8671   -1.7500    0.0000 N   0  0  0  0  0  0  0  0  0  0  0  0
    9.4651    1.7500    0.0000 N   0  0  0  0  0  0  0  0  0  0  0  0
    3.4030   -1.7500    0.0000 N   0  0  0  0  0  0  0  0  0  0  0  0
   11.1972   -1.2500    0.0000 N   0  0  0  0  0  0  0  0  0  0  0  0
    7.7331   -0.2500    0.0000 C   0  0  0  0  0  0  0  0  0  0  0  0
    8.5991    0.2500    0.0000 C   0  0  0  0  0  0  0  0  0  0  0  0
    7.7331   -1.2500    0.0000 C   0  0  0  0  0  0  0  0  0  0  0  0
    8.5991    1.2500    0.0000 C   0  0  0  0  0  0  0  0  0  0  0  0
   10.3312    1.2500    0.0000 C   0  0  0  0  0  0  0  0  0  0  0  0
    6.0010   -1.2500    0.0000 C   0  0  0  0  0  0  0  0  0  0  0  0
    5.1350   -1.7500    0.0000 C   0  0  0  0  0  0  0  0  0  0  0  0
   10.3312    0.2500    0.0000 C   0  0  0  0  0  0  0  0  0  0  0  0
    6.8671   -2.7500    0.0000 C   0  0  0  0  0  0  0  0  0  0  0  0
    9.4651    2.7500    0.0000 C   0  0  0  0  0  0  0  0  0  0  0  0
    8.5991    3.2500    0.0000 C   0  0  0  0  0  0  0  0  0  0  0  0
    6.0010   -3.2500    0.0000 C   0  0  0  0  0  0  0  0  0  0  0  0
    6.0010   -4.2500    0.0000 C   0  0  0  0  0  0  0  0  0  0  0  0
    8.5991    4.2500    0.0000 C   0  0  0  0  0  0  0  0  0  0  0  0
    4.2690   -1.2500    0.0000 C   0  0  0  0  0  0  0  0  0  0  0  0
   11.1972   -0.2500    0.0000 C   0  0  0  0  0  0  0  0  0  0  0  0
    7.7331    4.7500    0.0000 C   0  0  0  0  0  0  0  0  0  0  0  0
    5.1350   -4.7500    0.0000 C   0  0  0  0  0  0  0  0  0  0  0  0
    5.1350   -5.7500    0.0000 C   0  0  0  0  0  0  0  0  0  0  0  0
    7.7331    5.7500    0.0000 C   0  0  0  0  0  0  0  0  0  0  0  0
    4.2690   -4.2500    0.0000 C   0  0  0  0  0  0  0  0  0  0  0  0
    6.8671    4.2500    0.0000 C   0  0  0  0  0  0  0  0  0  0  0  0
    4.2690   -6.2500    0.0000 C   0  0  0  0  0  0  0  0  0  0  0  0
    6.8671    6.2500    0.0000 C   0  0  0  0  0  0  0  0  0  0  0  0
    3.4030   -4.7500    0.0000 C   0  0  0  0  0  0  0  0  0  0  0  0
    6.0010    4.7500    0.0000 C   0  0  0  0  0  0  0  0  0  0  0  0
    3.4030   -5.7500    0.0000 C   0  0  0  0  0  0  0  0  0  0  0  0
    6.0010    5.7500    0.0000 C   0  0  0  0  0  0  0  0  0  0  0  0
    7.5210    0.3326    0.0000 H   0  0  0  0  0  0  0  0  0  0  0  0
    7.1225   -0.3577    0.0000 H   0  0  0  0  0  0  0  0  0  0  0  0
    8.8112   -0.3326    0.0000 H   0  0  0  0  0  0  0  0  0  0  0  0
    9.2097    0.3577    0.0000 H   0  0  0  0  0  0  0  0  0  0  0  0
    7.9451   -1.8326    0.0000 H   0  0  0  0  0  0  0  0  0  0  0  0
    8.3437   -1.1423    0.0000 H   0  0  0  0  0  0  0  0  0  0  0  0
    8.3871    1.8326    0.0000 H   0  0  0  0  0  0  0  0  0  0  0  0
    7.9885    1.1423    0.0000 H   0  0  0  0  0  0  0  0  0  0  0  0
    6.3996   -0.7751    0.0000 H   0  0  0  0  0  0  0  0  0  0  0  0
    5.6025   -0.7751    0.0000 H   0  0  0  0  0  0  0  0  0  0  0  0
   10.9417    1.1423    0.0000 H   0  0  0  0  0  0  0  0  0  0  0  0
   10.5432    1.8326    0.0000 H   0  0  0  0  0  0  0  0  0  0  0  0
    9.7206    0.3577    0.0000 H   0  0  0  0  0  0  0  0  0  0  0  0
   10.1191   -0.3326    0.0000 H   0  0  0  0  0  0  0  0  0  0  0  0
    4.7365   -2.2250    0.0000 H   0  0  0  0  0  0  0  0  0  0  0  0
    5.5335   -2.2250    0.0000 H   0  0  0  0  0  0  0  0  0  0  0  0
    5.7890   -2.6674    0.0000 H   0  0  0  0  0  0  0  0  0  0  0  0
    5.3905   -3.3577    0.0000 H   0  0  0  0  0  0  0  0  0  0  0  0
    7.9885    3.3577    0.0000 H   0  0  0  0  0  0  0  0  0  0  0  0
    8.3871    2.6674    0.0000 H   0  0  0  0  0  0  0  0  0  0  0  0
    9.2097    4.1423    0.0000 H   0  0  0  0  0  0  0  0  0  0  0  0
    8.8112    4.8326    0.0000 H   0  0  0  0  0  0  0  0  0  0  0  0
    6.2131   -4.8326    0.0000 H   0  0  0  0  0  0  0  0  0  0  0  0
    6.6116   -4.1423    0.0000 H   0  0  0  0  0  0  0  0  0  0  0  0
   11.8078   -0.3577    0.0000 H   0  0  0  0  0  0  0  0  0  0  0  0
   11.4092    0.3326    0.0000 H   0  0  0  0  0  0  0  0  0  0  0  0
    4.6675   -0.7751    0.0000 H   0  0  0  0  0  0  0  0  0  0  0  0
    3.8705   -0.7751    0.0000 H   0  0  0  0  0  0  0  0  0  0  0  0
    2.8660   -1.4400    0.0000 H   0  0  0  0  0  0  0  0  0  0  0  0
    3.4030   -2.3700    0.0000 H   0  0  0  0  0  0  0  0  0  0  0  0
   11.7341   -1.5600    0.0000 H   0  0  0  0  0  0  0  0  0  0  0  0
   10.6603   -1.5600    0.0000 H   0  0  0  0  0  0  0  0  0  0  0  0
    5.6720   -6.0600    0.0000 H   0  0  0  0  0  0  0  0  0  0  0  0
    8.2700    6.0600    0.0000 H   0  0  0  0  0  0  0  0  0  0  0  0
    4.2690   -3.6300    0.0000 H   0  0  0  0  0  0  0  0  0  0  0  0
    6.8671    3.6300    0.0000 H   0  0  0  0  0  0  0  0  0  0  0  0
    2.8660   -4.4400    0.0000 H   0  0  0  0  0  0  0  0  0  0  0  0
    5.4641    4.4400    0.0000 H   0  0  0  0  0  0  0  0  0  0  0  0
    4.8059   -7.5600    0.0000 H   0  0  0  0  0  0  0  0  0  0  0  0
    7.4040    7.5600    0.0000 H   0  0  0  0  0  0  0  0  0  0  0  0
    2.0000   -5.9400    0.0000 H   0  0  0  0  0  0  0  0  0  0  0  0
    4.5981    5.9400    0.0000 H   0  0  0  0  0  0  0  0  0  0  0  0
  1 19  2  0  0  0  0
  2 20  2  0  0  0  0
  3 33  1  0  0  0  0
  3 77  1  0  0  0  0
  4 34  1  0  0  0  0
  4 78  1  0  0  0  0
  5 37  1  0  0  0  0
  5 79  1  0  0  0  0
  6 38  1  0  0  0  0
  6 80  1  0  0  0  0
  7 13  1  0  0  0  0
  7 16  1  0  0  0  0
  7 19  1  0  0  0  0
  8 14  1  0  0  0  0
  8 15  1  0  0  0  0
  8 20  1  0  0  0  0
  9 25  1  0  0  0  0
  9 67  1  0  0  0  0
  9 68  1  0  0  0  0
 10 26  1  0  0  0  0
 10 69  1  0  0  0  0
 10 70  1  0  0  0  0
 11 12  1  0  0  0  0
 11 13  1  0  0  0  0
 11 39  1  0  0  0  0
 11 40  1  0  0  0  0
 12 14  1  0  0  0  0
 12 41  1  0  0  0  0
 12 42  1  0  0  0  0
 13 43  1  0  0  0  0
 13 44  1  0  0  0  0
 14 45  1  0  0  0  0
 14 46  1  0  0  0  0
 15 18  1  0  0  0  0
 15 49  1  0  0  0  0
 15 50  1  0  0  0  0
 16 17  1  0  0  0  0
 16 47  1  0  0  0  0
 16 48  1  0  0  0  0
 17 25  1  0  0  0  0
 17 53  1  0  0  0  0
 17 54  1  0  0  0  0
 18 26  1  0  0  0  0
 18 51  1  0  0  0  0
 18 52  1  0  0  0  0
 19 22  1  0  0  0  0
 20 21  1  0  0  0  0
 21 24  1  0  0  0  0
 21 57  1  0  0  0  0
 21 58  1  0  0  0  0
 22 23  1  0  0  0  0
 22 55  1  0  0  0  0
 22 56  1  0  0  0  0
 23 28  1  0  0  0  0
 23 61  1  0  0  0  0
 23 62  1  0  0  0  0
 24 27  1  0  0  0  0
 24 59  1  0  0  0  0
 24 60  1  0  0  0  0
 25 65  1  0  0  0  0
 25 66  1  0  0  0  0
 26 63  1  0  0  0  0
 26 64  1  0  0  0  0
 27 30  2  0  0  0  0
 27 32  1  0  0  0  0
 28 29  2  0  0  0  0
 28 31  1  0  0  0  0
 29 33  1  0  0  0  0
 29 71  1  0  0  0  0
 30 34  1  0  0  0  0
 30 72  1  0  0  0  0
 31 35  2  0  0  0  0
 31 73  1  0  0  0  0
 32 36  2  0  0  0  0
 32 74  1  0  0  0  0
 33 37  2  0  0  0  0
 34 38  2  0  0  0  0
 35 37  1  0  0  0  0
 35 75  1  0  0  0  0
 36 38  1  0  0  0  0
 36 76  1  0  0  0  0
M  END
> <PUBCHEM_COMPOUND_CID>
10052730

> <PUBCHEM_COMPOUND_CANONICALIZED>
1

> <PUBCHEM_CACTVS_COMPLEXITY>
628

> <PUBCHEM_CACTVS_HBOND_ACCEPTOR>
8

> <PUBCHEM_CACTVS_HBOND_DONOR>
6

> <PUBCHEM_CACTVS_ROTATABLE_BOND>
17

> <PUBCHEM_CACTVS_SUBSKEYS>
AAADcfB7uAAAAAAAAAAAAAAAAAAAAAAAAAAwYAAAAAAAAAABQAAAHgAQCAAADATBmAQwBoNAAgCIAiFSEAACAAAgIAAIiIEOiIgJJjKC0RKEcAEk1hGJmAeYyLCOIAABAAAAQABAAAIAAACAAAAAAAAAAA==

> <PUBCHEM_IUPAC_OPENEYE_NAME>
N-(3-aminopropyl)-N-[4-[3-aminopropyl-[3-(3,4-dihydroxyphenyl)propanoyl]amino]butyl]-3-(3,4-dihydroxyphenyl)propanamide

> <PUBCHEM_IUPAC_CAS_NAME>
N-(3-aminopropyl)-N-[4-[3-aminopropyl-[3-(3,4-dihydroxyphenyl)-1-oxopropyl]amino]butyl]-3-(3,4-dihydroxyphenyl)propanamide

> <PUBCHEM_IUPAC_NAME>
N-(3-aminopropyl)-N-[4-[3-aminopropyl-[3-(3,4-dihydroxyphenyl)propanoyl]amino]butyl]-3-(3,4-dihydroxyphenyl)propanamide

> <PUBCHEM_IUPAC_SYSTEMATIC_NAME>
N-(3-azanylpropyl)-N-[4-[3-azanylpropyl-[3-[3,4-bis(oxidanyl)phenyl]propanoyl]amino]butyl]-3-[3,4-bis(oxidanyl)phenyl]propanamide

> <PUBCHEM_IUPAC_TRADITIONAL_NAME>
N-(3-aminopropyl)-N-[4-[3-aminopropyl-[3-(3,4-dihydroxyphenyl)propanoyl]amino]butyl]-3-(3,4-dihydroxyphenyl)propionamide

> <PUBCHEM_IUPAC_INCHI>
InChI=1S/C28H42N4O6/c29-13-3-17-31(27(37)11-7-21-5-9-23(33)25(35)19-21)15-1-2-16-32(18-4-14-30)28(38)12-8-22-6-10-24(34)26(36)20-22/h5-6,9-10,19-20,33-36H,1-4,7-8,11-18,29-30H2

> <PUBCHEM_IUPAC_INCHIKEY>
MRBLTJLKQIHRTP-UHFFFAOYSA-N

> <PUBCHEM_XLOGP3_AA>
1.1

> <PUBCHEM_EXACT_MASS>
530.310435

> <PUBCHEM_MOLECULAR_FORMULA>
C28H42N4O6

> <PUBCHEM_MOLECULAR_WEIGHT>
530.65628

> <PUBCHEM_OPENEYE_CAN_SMILES>
C1=CC(=C(C=C1CCC(=O)N(CCCCN(CCCN)C(=O)CCC2=CC(=C(C=C2)O)O)CCCN)O)O

> <PUBCHEM_OPENEYE_ISO_SMILES>
C1=CC(=C(C=C1CCC(=O)N(CCCCN(CCCN)C(=O)CCC2=CC(=C(C=C2)O)O)CCCN)O)O

> <PUBCHEM_CACTVS_TPSA>
174

> <PUBCHEM_MONOISOTOPIC_WEIGHT>
530.310435

> <PUBCHEM_TOTAL_CHARGE>
0

> <PUBCHEM_HEAVY_ATOM_COUNT>
38

> <PUBCHEM_ATOM_DEF_STEREO_COUNT>
0

> <PUBCHEM_ATOM_UDEF_STEREO_COUNT>
0

> <PUBCHEM_BOND_DEF_STEREO_COUNT>
0

> <PUBCHEM_BOND_UDEF_STEREO_COUNT>
0

> <PUBCHEM_ISOTOPIC_ATOM_COUNT>
0

> <PUBCHEM_COMPONENT_COUNT>
1

> <PUBCHEM_CACTVS_TAUTO_COUNT>
999

> <PUBCHEM_COORDINATE_TYPE>
1
5
255

> <PUBCHEM_BONDANNOTATIONS>
27  30  8
27  32  8
28  29  8
28  31  8
29  33  8
30  34  8
31  35  8
32  36  8
33  37  8
34  38  8
35  37  8
36  38  8

$$$$

