252399
  -OEChem-07051213053D

 53 56  0     1  0  0  0  0  0999 V2000
    4.8469   -1.0558   -0.9967 O   0  0  0  0  0  0  0  0  0  0  0  0
   -6.0465    0.0796   -0.1283 O   0  0  0  0  0  0  0  0  0  0  0  0
    2.4750   -0.5192   -0.5004 C   0  0  1  0  0  0  0  0  0  0  0  0
    1.8546    0.7463    0.1323 C   0  0  2  0  0  0  0  0  0  0  0  0
    0.3565    0.8750   -0.1574 C   0  0  1  0  0  0  0  0  0  0  0  0
    3.9798   -0.3081   -0.1469 C   0  0  2  0  0  0  0  0  0  0  0  0
    2.7854    1.8648   -0.3236 C   0  0  0  0  0  0  0  0  0  0  0  0
    1.7756   -1.7425    0.1147 C   0  0  0  0  0  0  0  0  0  0  0  0
   -0.3824   -0.3596    0.4412 C   0  0  2  0  0  0  0  0  0  0  0  0
    4.1819    1.2165   -0.3606 C   0  0  0  0  0  0  0  0  0  0  0  0
    0.2454   -1.6866   -0.0608 C   0  0  0  0  0  0  0  0  0  0  0  0
   -0.2477    2.1497    0.4367 C   0  0  0  0  0  0  0  0  0  0  0  0
    2.3031   -0.5853   -2.0469 C   0  0  0  0  0  0  0  0  0  0  0  0
    4.3766   -0.7024    1.2814 C   0  0  0  0  0  0  0  0  0  0  0  0
   -1.8927   -0.2458    0.2523 C   0  0  0  0  0  0  0  0  0  0  0  0
   -1.6994    2.2931   -0.0103 C   0  0  0  0  0  0  0  0  0  0  0  0
   -2.5007    1.0176    0.0838 C   0  0  0  0  0  0  0  0  0  0  0  0
    5.8202   -0.3455    1.5656 C   0  0  0  0  0  0  0  0  0  0  0  0
   -2.7237   -1.3777    0.3295 C   0  0  0  0  0  0  0  0  0  0  0  0
   -3.8969    1.1106   -0.0540 C   0  0  0  0  0  0  0  0  0  0  0  0
   -4.1101   -1.2702    0.1997 C   0  0  0  0  0  0  0  0  0  0  0  0
   -4.6968   -0.0269    0.0032 C   0  0  0  0  0  0  0  0  0  0  0  0
   -6.8042   -1.1276   -0.0548 C   0  0  0  0  0  0  0  0  0  0  0  0
    1.9518    0.6891    1.2268 H   0  0  0  0  0  0  0  0  0  0  0  0
    0.1937    0.9122   -1.2420 H   0  0  0  0  0  0  0  0  0  0  0  0
    2.7628    2.7161    0.3648 H   0  0  0  0  0  0  0  0  0  0  0  0
    2.5109    2.2375   -1.3168 H   0  0  0  0  0  0  0  0  0  0  0  0
    1.9760   -1.8011    1.1910 H   0  0  0  0  0  0  0  0  0  0  0  0
    2.1637   -2.6693   -0.3242 H   0  0  0  0  0  0  0  0  0  0  0  0
   -0.2309   -0.3403    1.5318 H   0  0  0  0  0  0  0  0  0  0  0  0
    4.6509    1.4217   -1.3309 H   0  0  0  0  0  0  0  0  0  0  0  0
    4.8103    1.7063    0.3842 H   0  0  0  0  0  0  0  0  0  0  0  0
   -0.0234   -1.8551   -1.1102 H   0  0  0  0  0  0  0  0  0  0  0  0
   -0.1693   -2.5347    0.4966 H   0  0  0  0  0  0  0  0  0  0  0  0
    0.3082    3.0390    0.1197 H   0  0  0  0  0  0  0  0  0  0  0  0
   -0.1959    2.1152    1.5326 H   0  0  0  0  0  0  0  0  0  0  0  0
    2.7996    0.2463   -2.5569 H   0  0  0  0  0  0  0  0  0  0  0  0
    2.7412   -1.5103   -2.4404 H   0  0  0  0  0  0  0  0  0  0  0  0
    1.2586   -0.5737   -2.3669 H   0  0  0  0  0  0  0  0  0  0  0  0
    4.2784   -1.7882    1.4038 H   0  0  0  0  0  0  0  0  0  0  0  0
    3.7413   -0.2285    2.0359 H   0  0  0  0  0  0  0  0  0  0  0  0
   -1.7194    2.6255   -1.0562 H   0  0  0  0  0  0  0  0  0  0  0  0
   -2.1754    3.0761    0.5924 H   0  0  0  0  0  0  0  0  0  0  0  0
    5.6754   -0.5616   -1.1126 H   0  0  0  0  0  0  0  0  0  0  0  0
    6.5185   -0.7558    0.8310 H   0  0  0  0  0  0  0  0  0  0  0  0
    5.9979    0.7277    1.6589 H   0  0  0  0  0  0  0  0  0  0  0  0
    6.1045   -0.7769    2.5332 H   0  0  0  0  0  0  0  0  0  0  0  0
   -2.3101   -2.3672    0.5001 H   0  0  0  0  0  0  0  0  0  0  0  0
   -4.3617    2.0827   -0.2059 H   0  0  0  0  0  0  0  0  0  0  0  0
   -4.6687   -2.1977    0.2665 H   0  0  0  0  0  0  0  0  0  0  0  0
   -6.7113   -1.6012    0.9285 H   0  0  0  0  0  0  0  0  0  0  0  0
   -6.5497   -1.8125   -0.8708 H   0  0  0  0  0  0  0  0  0  0  0  0
   -7.8574   -0.8565   -0.1812 H   0  0  0  0  0  0  0  0  0  0  0  0
  1  6  1  0  0  0  0
  1 44  1  0  0  0  0
  2 22  1  0  0  0  0
  2 23  1  0  0  0  0
  3  4  1  0  0  0  0
  3  6  1  0  0  0  0
  3  8  1  0  0  0  0
  3 13  1  0  0  0  0
  4  5  1  0  0  0  0
  4  7  1  0  0  0  0
  4 24  1  0  0  0  0
  5  9  1  0  0  0  0
  5 12  1  0  0  0  0
  5 25  1  0  0  0  0
  6 10  1  0  0  0  0
  6 14  1  0  0  0  0
  7 10  1  0  0  0  0
  7 26  1  0  0  0  0
  7 27  1  0  0  0  0
  8 11  1  0  0  0  0
  8 28  1  0  0  0  0
  8 29  1  0  0  0  0
  9 11  1  0  0  0  0
  9 15  1  0  0  0  0
  9 30  1  0  0  0  0
 10 31  1  0  0  0  0
 10 32  1  0  0  0  0
 11 33  1  0  0  0  0
 11 34  1  0  0  0  0
 12 16  1  0  0  0  0
 12 35  1  0  0  0  0
 12 36  1  0  0  0  0
 13 37  1  0  0  0  0
 13 38  1  0  0  0  0
 13 39  1  0  0  0  0
 14 18  1  0  0  0  0
 14 40  1  0  0  0  0
 14 41  1  0  0  0  0
 15 17  2  0  0  0  0
 15 19  1  0  0  0  0
 16 17  1  0  0  0  0
 16 42  1  0  0  0  0
 16 43  1  0  0  0  0
 17 20  1  0  0  0  0
 18 45  1  0  0  0  0
 18 46  1  0  0  0  0
 18 47  1  0  0  0  0
 19 21  2  0  0  0  0
 19 48  1  0  0  0  0
 20 22  2  0  0  0  0
 20 49  1  0  0  0  0
 21 22  1  0  0  0  0
 21 50  1  0  0  0  0
 23 51  1  0  0  0  0
 23 52  1  0  0  0  0
 23 53  1  0  0  0  0
M  END
> <PUBCHEM_COMPOUND_CID>
252399

> <PUBCHEM_CONFORMER_RMSD>
0.6

> <PUBCHEM_CONFORMER_DIVERSEORDER>
1
2

> <PUBCHEM_MMFF94_PARTIAL_CHARGES>
16
1 -0.68
15 -0.14
16 0.14
17 -0.14
19 -0.15
2 -0.36
20 -0.15
21 -0.15
22 0.08
23 0.28
44 0.4
48 0.15
49 0.15
50 0.15
6 0.28
9 0.14

> <PUBCHEM_EFFECTIVE_ROTOR_COUNT>
3.4

> <PUBCHEM_PHARMACOPHORE_FEATURES>
8
1 1 acceptor
1 1 donor
1 18 hydrophobe
1 2 acceptor
5 3 4 6 7 10 rings
6 15 17 19 20 21 22 rings
6 3 4 5 8 9 11 rings
6 5 9 12 15 16 17 rings

> <PUBCHEM_HEAVY_ATOM_COUNT>
23

> <PUBCHEM_ATOM_DEF_STEREO_COUNT>
5

> <PUBCHEM_ATOM_UDEF_STEREO_COUNT>
0

> <PUBCHEM_BOND_DEF_STEREO_COUNT>
0

> <PUBCHEM_BOND_UDEF_STEREO_COUNT>
0

> <PUBCHEM_ISOTOPIC_ATOM_COUNT>
0

> <PUBCHEM_COMPONENT_COUNT>
1

> <PUBCHEM_CACTVS_TAUTO_COUNT>
1

> <PUBCHEM_CONFORMER_ID>
0003D9EF00000001

> <PUBCHEM_MMFF94_ENERGY>
95.1091

> <PUBCHEM_FEATURE_SELFOVERLAP>
40.689

> <PUBCHEM_SHAPE_FINGERPRINT>
10 15 18261406516573699288
10447042 23 18342183253902526623
10906281 52 18338496600553069867
11646440 116 18187076239915898547
11796584 16 16917067758798921698
12166972 35 17632576041548509621
12236239 1 17561365088880967811
12403259 226 18340491178986566588
12403260 363 18272370901432423988
12516196 113 17967251984023493961
12788726 201 18336253600547807792
12839892 36 18339375170304893962
128620 24 17530965803985687237
13140716 1 18266184928966306378
13224815 77 18410287021217261177
13533116 47 17560807666529663458
13685833 64 18339918230834089731
13862211 1 18412548699977934267
14178342 30 18192712478254110480
14251752 14 17775013414273439533
14251764 18 18131635573756388658
14790565 3 17616245223766547761
15183329 4 18411701015642495133
15196674 1 18411134723413233205
15788980 27 17131833170492579361
15927050 60 17469041060038786709
16728300 4 17700159843428279666
17349148 13 18060134357907734416
17492 89 18194684993039518419
18681886 176 18410009932235531520
19141452 34 17822291250163073255
192875 21 17131825477984866492
200 152 18040997345579286569
20028762 73 18334860510762586102
20374829 77 18412265021804196529
20645477 70 18261105288013875679
21033648 29 17241628254512149352
21267235 1 18410283718899100387
21285901 2 18261383486146785101
21792934 111 18409456890856487401
22079108 93 15502665879505687334
22149856 69 18042105640763700379
22224240 67 17167874036607333678
23402539 116 18336273370265972583
23536379 177 16200154309158426715
23557571 272 18114733940632302092
23559900 14 18410853231478329352
239999 70 18259696809587484446
2871803 45 18412542119702869365
3004659 81 18272366473368244468
335352 9 18412262826622357847
34797466 226 16153702072803911641
350125 39 18412546492475910000
351380 180 18411982459715521786
3680242 22 18341610477000589915
3886686 26 17115249498994691386
4072396 5 18412270544805429554
4214541 1 18411698820418490565
4340502 62 15357696379263295686
439807 62 17346030066547000603
465052 167 18272931613702356234
5104073 3 18340482279502807857
5283173 99 18201446930095889341
5374978 207 18410295800541929480
542803 24 13758355574757870063
7495541 125 17846490388582830931
9709674 26 18337381742474668151

> <PUBCHEM_SHAPE_MULTIPOLES>
461.59
12.92
2.01
1.06
9.21
0.67
0.18
-3.44
-1.49
0.25
-0.03
-1.55
-0.22
-0.1

> <PUBCHEM_SHAPE_SELFOVERLAP>
993.676

> <PUBCHEM_SHAPE_VOLUME>
254.9

> <PUBCHEM_COORDINATE_TYPE>
2
5
10

$$$$

