3034435
  -OEChem-07051213123D

 27 26  0     0  0  0  0  0  0999 V2000
    2.4566    0.9059   -2.0559 S   0  0  0  0  0  0  0  0  0  0  0  0
    2.1643    0.2172   -0.2568 P   0  0  0  0  0  0  0  0  0  0  0  0
    0.8163   -0.6453   -0.0224 O   0  0  0  0  0  0  0  0  0  0  0  0
    2.0449    1.3145    0.9381 O   0  0  0  0  0  0  0  0  0  0  0  0
    3.3012   -0.7850    0.3355 O   0  0  0  0  0  0  0  0  0  0  0  0
   -2.8167    1.1461   -0.2235 O   0  0  0  0  0  0  0  0  0  0  0  0
   -3.9500   -0.8052    0.2212 O   0  0  0  0  0  0  0  0  0  0  0  0
   -1.5645   -0.8278    0.1200 C   0  0  0  0  0  0  0  0  0  0  0  0
   -0.4457   -0.1143   -0.0742 C   0  0  0  0  0  0  0  0  0  0  0  0
   -1.5647   -2.2992    0.4184 C   0  0  0  0  0  0  0  0  0  0  0  0
   -2.9096   -0.1828    0.0491 C   0  0  0  0  0  0  0  0  0  0  0  0
    3.0559    2.2955    1.0967 C   0  0  0  0  0  0  0  0  0  0  0  0
    3.4713   -2.0714   -0.2355 C   0  0  0  0  0  0  0  0  0  0  0  0
   -4.0594    1.8519   -0.3106 C   0  0  0  0  0  0  0  0  0  0  0  0
   -0.4205    0.9447   -0.2881 H   0  0  0  0  0  0  0  0  0  0  0  0
   -2.1171   -2.8443   -0.3543 H   0  0  0  0  0  0  0  0  0  0  0  0
   -2.0393   -2.4914    1.3864 H   0  0  0  0  0  0  0  0  0  0  0  0
   -0.5549   -2.7200    0.4585 H   0  0  0  0  0  0  0  0  0  0  0  0
    2.9286    3.0830    0.3499 H   0  0  0  0  0  0  0  0  0  0  0  0
    4.0467    1.8435    1.0006 H   0  0  0  0  0  0  0  0  0  0  0  0
    2.9621    2.7347    2.0929 H   0  0  0  0  0  0  0  0  0  0  0  0
    3.7658   -1.9836   -1.2840 H   0  0  0  0  0  0  0  0  0  0  0  0
    2.5456   -2.6467   -0.1543 H   0  0  0  0  0  0  0  0  0  0  0  0
    4.2608   -2.5933    0.3109 H   0  0  0  0  0  0  0  0  0  0  0  0
   -4.5927    1.7984    0.6434 H   0  0  0  0  0  0  0  0  0  0  0  0
   -4.6713    1.4423   -1.1199 H   0  0  0  0  0  0  0  0  0  0  0  0
   -3.8400    2.8997   -0.5320 H   0  0  0  0  0  0  0  0  0  0  0  0
  1  2  2  0  0  0  0
  2  3  1  0  0  0  0
  2  4  1  0  0  0  0
  2  5  1  0  0  0  0
  3  9  1  0  0  0  0
  4 12  1  0  0  0  0
  5 13  1  0  0  0  0
  6 11  1  0  0  0  0
  6 14  1  0  0  0  0
  7 11  2  0  0  0  0
  8  9  2  0  0  0  0
  8 10  1  0  0  0  0
  8 11  1  0  0  0  0
  9 15  1  0  0  0  0
 10 16  1  0  0  0  0
 10 17  1  0  0  0  0
 10 18  1  0  0  0  0
 12 19  1  0  0  0  0
 12 20  1  0  0  0  0
 12 21  1  0  0  0  0
 13 22  1  0  0  0  0
 13 23  1  0  0  0  0
 13 24  1  0  0  0  0
 14 25  1  0  0  0  0
 14 26  1  0  0  0  0
 14 27  1  0  0  0  0
M  END
> <PUBCHEM_COMPOUND_CID>
3034435

> <PUBCHEM_CONFORMER_RMSD>
0.6

> <PUBCHEM_CONFORMER_DIVERSEORDER>
1
64
50
57
40
114
68
72
101
52
116
25
84
28
13
95
51
91
78
42
12
46
37
112
21
56
22
119
99
122
60
103
76
74
58
105
73
7
39
10
97
94
26
27
111
113
67
118
110
16
90
29
38
32
109
87
86
115
70
19
4
49
83
20
33
121
120
41
107
9
53
88
54
75
24
85
104
106
117
96
108
15
55
69
93
30
89
17
100
61
3
47
79
98
48
8
62
2
44
92
45
102
5
63
23
34
71
82
14
18
6
66
77
31
81
36
43
11
65
59
80
35

> <PUBCHEM_MMFF94_PARTIAL_CHARGES>
15
1 -0.68
10 0.14
11 0.71
12 0.28
13 0.28
14 0.28
15 0.15
2 1.49
3 -0.35
4 -0.55
5 -0.55
6 -0.43
7 -0.57
8 -0.12
9 -0.07

> <PUBCHEM_EFFECTIVE_ROTOR_COUNT>
6

> <PUBCHEM_PHARMACOPHORE_FEATURES>
2
1 10 hydrophobe
1 7 acceptor

> <PUBCHEM_HEAVY_ATOM_COUNT>
14

> <PUBCHEM_ATOM_DEF_STEREO_COUNT>
0

> <PUBCHEM_ATOM_UDEF_STEREO_COUNT>
0

> <PUBCHEM_BOND_DEF_STEREO_COUNT>
1

> <PUBCHEM_BOND_UDEF_STEREO_COUNT>
0

> <PUBCHEM_ISOTOPIC_ATOM_COUNT>
0

> <PUBCHEM_COMPONENT_COUNT>
1

> <PUBCHEM_CACTVS_TAUTO_COUNT>
1

> <PUBCHEM_CONFORMER_ID>
002E4D4300000001

> <PUBCHEM_MMFF94_ENERGY>
19.5354

> <PUBCHEM_FEATURE_SELFOVERLAP>
10.148

> <PUBCHEM_SHAPE_FINGERPRINT>
10608611 8 18408890607211573185
11715629 250 18335704875551963429
12500047 106 18411983542137068094
12932764 1 18189603969397287894
13922767 16 18335145331723684386
14178342 30 18127699218817977746
14325111 11 18412544318921342639
15852999 172 15574723507913955950
18186145 218 18040144124292342937
18511873 20 18201435938767779942
18522853 266 18341326712970191158
20233049 118 18338797930984332668
20645477 56 18412827958619677313
20645477 70 17458615684331439252
20671657 1 18201710730854298356
212847 35 18340200898941621293
21524375 3 18268710683485030215
23380061 81 17704061911046290300
23557571 272 17972591087432658541
3248919 1 17631174086882021738
6049 1 18044072593196375978
7364860 26 18334012766386469882

> <PUBCHEM_SHAPE_MULTIPOLES>
266.47
7.72
2.4
1.16
3.64
0.14
-0.48
-1.52
-0.07
-0.57
0.44
-1.35
-0.66
0.78

> <PUBCHEM_SHAPE_SELFOVERLAP>
481.068

> <PUBCHEM_SHAPE_VOLUME>
173.8

> <PUBCHEM_COORDINATE_TYPE>
2
5
10

$$$$

