7069
  -OEChem-07051213143D

 34 35  0     0  0  0  0  0  0999 V2000
   -3.5335   -1.8962   -0.1754 O   0  0  0  0  0  0  0  0  0  0  0  0
    3.5335   -1.8962    0.1755 O   0  0  0  0  0  0  0  0  0  0  0  0
   -6.0406    1.0079   -1.3342 O   0  0  0  0  0  0  0  0  0  0  0  0
    6.0407    1.0079    1.3342 O   0  0  0  0  0  0  0  0  0  0  0  0
   -4.8727    0.4329    0.6287 N   0  0  0  0  0  0  0  0  0  0  0  0
    4.8727    0.4330   -0.6286 N   0  0  0  0  0  0  0  0  0  0  0  0
   -0.7176    0.4168    0.0922 C   0  0  0  0  0  0  0  0  0  0  0  0
    0.7175    0.4168   -0.0923 C   0  0  0  0  0  0  0  0  0  0  0  0
   -1.4498   -0.7493   -0.1303 C   0  0  0  0  0  0  0  0  0  0  0  0
    1.4497   -0.7493    0.1303 C   0  0  0  0  0  0  0  0  0  0  0  0
   -1.3690    1.5840    0.4913 C   0  0  0  0  0  0  0  0  0  0  0  0
    1.3689    1.5840   -0.4913 C   0  0  0  0  0  0  0  0  0  0  0  0
   -2.8334   -0.7485    0.0464 C   0  0  0  0  0  0  0  0  0  0  0  0
    2.8333   -0.7485   -0.0464 C   0  0  0  0  0  0  0  0  0  0  0  0
   -3.4847    0.4186    0.4455 C   0  0  0  0  0  0  0  0  0  0  0  0
    3.4847    0.4186   -0.4456 C   0  0  0  0  0  0  0  0  0  0  0  0
   -2.7525    1.5849    0.6680 C   0  0  0  0  0  0  0  0  0  0  0  0
    2.7526    1.5848   -0.6679 C   0  0  0  0  0  0  0  0  0  0  0  0
   -3.7113   -2.7717    0.9362 C   0  0  0  0  0  0  0  0  0  0  0  0
    3.7114   -2.7717   -0.9362 C   0  0  0  0  0  0  0  0  0  0  0  0
   -5.4567    0.7207   -0.3538 C   0  0  0  0  0  0  0  0  0  0  0  0
    5.4568    0.7207    0.3538 C   0  0  0  0  0  0  0  0  0  0  0  0
   -0.9830   -1.6696   -0.4725 H   0  0  0  0  0  0  0  0  0  0  0  0
    0.9829   -1.6695    0.4725 H   0  0  0  0  0  0  0  0  0  0  0  0
   -0.8375    2.5069    0.7064 H   0  0  0  0  0  0  0  0  0  0  0  0
    0.8374    2.5069   -0.7063 H   0  0  0  0  0  0  0  0  0  0  0  0
   -3.2482    2.4978    0.9883 H   0  0  0  0  0  0  0  0  0  0  0  0
    3.2482    2.4978   -0.9882 H   0  0  0  0  0  0  0  0  0  0  0  0
   -4.2527   -2.2682    1.7433 H   0  0  0  0  0  0  0  0  0  0  0  0
   -2.7430   -3.1299    1.2999 H   0  0  0  0  0  0  0  0  0  0  0  0
   -4.2997   -3.6314    0.6043 H   0  0  0  0  0  0  0  0  0  0  0  0
    2.7431   -3.1299   -1.3000 H   0  0  0  0  0  0  0  0  0  0  0  0
    4.2998   -3.6314   -0.6042 H   0  0  0  0  0  0  0  0  0  0  0  0
    4.2528   -2.2682   -1.7432 H   0  0  0  0  0  0  0  0  0  0  0  0
  1 13  1  0  0  0  0
  1 19  1  0  0  0  0
  2 14  1  0  0  0  0
  2 20  1  0  0  0  0
  3 21  2  0  0  0  0
  4 22  2  0  0  0  0
  5 15  1  0  0  0  0
  5 21  2  0  0  0  0
  6 16  1  0  0  0  0
  6 22  2  0  0  0  0
  7  8  1  0  0  0  0
  7  9  2  0  0  0  0
  7 11  1  0  0  0  0
  8 10  2  0  0  0  0
  8 12  1  0  0  0  0
  9 13  1  0  0  0  0
  9 23  1  0  0  0  0
 10 14  1  0  0  0  0
 10 24  1  0  0  0  0
 11 17  2  0  0  0  0
 11 25  1  0  0  0  0
 12 18  2  0  0  0  0
 12 26  1  0  0  0  0
 13 15  2  0  0  0  0
 14 16  2  0  0  0  0
 15 17  1  0  0  0  0
 16 18  1  0  0  0  0
 17 27  1  0  0  0  0
 18 28  1  0  0  0  0
 19 29  1  0  0  0  0
 19 30  1  0  0  0  0
 19 31  1  0  0  0  0
 20 32  1  0  0  0  0
 20 33  1  0  0  0  0
 20 34  1  0  0  0  0
M  END
> <PUBCHEM_COMPOUND_CID>
7069

> <PUBCHEM_CONFORMER_RMSD>
0.8

> <PUBCHEM_CONFORMER_DIVERSEORDER>
1
17
7
19
16
5
21
6
14
20
3
8
18
13
15
10
11
12
4
9
2

> <PUBCHEM_MMFF94_PARTIAL_CHARGES>
26
1 -0.36
10 -0.15
11 -0.15
12 -0.15
13 0.08
14 0.08
15 0.18
16 0.18
17 -0.15
18 -0.15
19 0.28
2 -0.36
20 0.28
21 0.79
22 0.79
23 0.15
24 0.15
25 0.15
26 0.15
27 0.15
28 0.15
3 -0.49
4 -0.49
5 -0.48
6 -0.48
9 -0.15

> <PUBCHEM_EFFECTIVE_ROTOR_COUNT>
5

> <PUBCHEM_PHARMACOPHORE_FEATURES>
6
1 1 acceptor
1 2 acceptor
1 5 acceptor
1 6 acceptor
6 7 9 11 13 15 17 rings
6 8 10 12 14 16 18 rings

> <PUBCHEM_HEAVY_ATOM_COUNT>
22

> <PUBCHEM_ATOM_DEF_STEREO_COUNT>
0

> <PUBCHEM_ATOM_UDEF_STEREO_COUNT>
0

> <PUBCHEM_BOND_DEF_STEREO_COUNT>
0

> <PUBCHEM_BOND_UDEF_STEREO_COUNT>
0

> <PUBCHEM_ISOTOPIC_ATOM_COUNT>
0

> <PUBCHEM_COMPONENT_COUNT>
1

> <PUBCHEM_CACTVS_TAUTO_COUNT>
1

> <PUBCHEM_CONFORMER_ID>
00001B9D00000001

> <PUBCHEM_MMFF94_ENERGY>
88.772

> <PUBCHEM_FEATURE_SELFOVERLAP>
30.454

> <PUBCHEM_SHAPE_FINGERPRINT>
10366900 7 17458064880455957667
10616163 171 18336256847564149839
12107183 9 17613989016592652408
12236239 1 18040434416615599997
12555020 224 18339082696291348071
12616971 3 17060336297246199814
12670546 56 18114740537849872192
13533116 47 18041845128657113135
13583140 156 17895197662328496409
14341114 176 18337662096348720491
15196674 1 18410570686617139463
15238133 3 14764347184450413709
15536298 74 18335977670964102462
15788980 27 16343990191200115208
17492 89 18410284805025523863
1813 80 17274812589016813532
200 152 18186522124815900869
20511986 3 18338533983299762498
20645477 70 18338233885640463670
21150785 3 17168154407772116413
21267235 1 18338783576734085537
21859007 373 17702120259437897253
22224240 67 18261683597677624208
23402539 116 17917715664649708668
23559900 14 18335987475794587073
26918003 58 18412826863118212705
300161 21 18410862061529909955
3004659 81 18342736377371993414
339767 52 18410297999153643840
34797466 226 17167858652082075640
34934 24 18410579482715033670
3545911 37 18410570690938110276
3633792 109 18267311001014745157
4072396 5 18272379672367202048
4073 2 18272363149306560010
4214541 1 18342173341555811605
5104073 3 18263073465361843546
542803 24 13973962103835265301
559249 180 18272938197998023235
633830 44 16415193438965352869
9709674 26 18341037545728366658

> <PUBCHEM_SHAPE_MULTIPOLES>
419.31
13.24
2.37
0.93
0
1.8
0
-1.08
0
0
0
0
-0.05
1.03

> <PUBCHEM_SHAPE_SELFOVERLAP>
911.569

> <PUBCHEM_SHAPE_VOLUME>
227.7

> <PUBCHEM_COORDINATE_TYPE>
2
5
10

$$$$

