11953979
  -OEChem-07051213022D

109114  0     1  0  0  0  0  0999 V2000
    4.7095    4.4439    0.0000 O   0  0  0  0  0  0  0  0  0  0  0  0
    8.6663   -1.0000    0.0000 O   0  0  0  0  0  0  0  0  0  0  0  0
    8.6663   -2.0000    0.0000 O   0  0  0  0  0  0  0  0  0  0  0  0
    6.0682    0.5000    0.0000 O   0  0  0  0  0  0  0  0  0  0  0  0
    4.8602    3.9397    0.0000 O   0  0  0  0  0  0  0  0  0  0  0  0
    2.5381    3.5242    0.0000 O   0  0  0  0  0  0  0  0  0  0  0  0
    7.0682    1.5000    0.0000 O   0  0  0  0  0  0  0  0  0  0  0  0
   11.2644    3.5000    0.0000 O   0  0  0  0  0  0  0  0  0  0  0  0
   12.9965    3.5000    0.0000 O   0  0  0  0  0  0  0  0  0  0  0  0
   12.9965    0.5000    0.0000 O   0  0  0  0  0  0  0  0  0  0  0  0
   14.7285    1.5000    0.0000 O   0  0  0  0  0  0  0  0  0  0  0  0
    5.2022    3.0000    0.0000 C   0  0  1  0  0  0  0  0  0  0  0  0
    4.3083    3.5347    0.0000 C   0  0  1  0  0  0  0  0  0  0  0  0
    5.2022    2.0000    0.0000 C   0  0  1  0  0  0  0  0  0  0  0  0
    7.8003   -1.5000    0.0000 C   0  0  2  0  0  0  0  0  0  0  0  0
    3.4022    3.0208    0.0000 C   0  0  1  0  0  0  0  0  0  0  0  0
    6.9343    0.0000    0.0000 C   0  0  2  0  0  0  0  0  0  0  0  0
    6.0682    3.5000    0.0000 C   0  0  0  0  0  0  0  0  0  0  0  0
    6.9343   -1.0000    0.0000 C   0  0  0  0  0  0  0  0  0  0  0  0
    7.8003    0.5000    0.0000 C   0  0  0  0  0  0  0  0  0  0  0  0
    8.6663    0.0000    0.0000 C   0  0  1  0  0  0  0  0  0  0  0  0
    4.3083    1.4653    0.0000 C   0  0  0  0  0  0  0  0  0  0  0  0
    5.7031    4.4243    0.0000 C   0  0  0  0  0  0  0  0  0  0  0  0
    3.4022    1.9792    0.0000 C   0  0  0  0  0  0  0  0  0  0  0  0
    8.6663   -3.0000    0.0000 C   0  0  1  0  0  0  0  0  0  0  0  0
    6.0682    1.5000    0.0000 C   0  0  0  0  0  0  0  0  0  0  0  0
    7.8003   -3.5000    0.0000 C   0  0  2  0  0  0  0  0  0  0  0  0
    6.9343   -2.0000    0.0000 C   0  0  0  0  0  0  0  0  0  0  0  0
    9.5323   -3.5000    0.0000 C   0  0  0  0  0  0  0  0  0  0  0  0
    9.5323    0.5000    0.0000 C   0  0  0  0  0  0  0  0  0  0  0  0
    6.9343   -3.0000    0.0000 C   0  0  0  0  0  0  0  0  0  0  0  0
    6.9343    3.0000    0.0000 C   0  0  0  0  0  0  0  0  0  0  0  0
    2.5381    1.4759    0.0000 C   0  0  0  0  0  0  0  0  0  0  0  0
    7.8003   -4.5000    0.0000 C   0  0  0  0  0  0  0  0  0  0  0  0
    9.5323    1.5000    0.0000 C   0  0  0  0  0  0  0  0  0  0  0  0
   10.3984    3.0000    0.0000 C   0  0  1  0  0  0  0  0  0  0  0  0
    9.5323   -4.5000    0.0000 C   0  0  0  0  0  0  0  0  0  0  0  0
   10.3984   -3.0000    0.0000 C   0  0  0  0  0  0  0  0  0  0  0  0
    9.5323    3.5000    0.0000 C   0  0  2  0  0  0  0  0  0  0  0  0
   10.3984    2.0000    0.0000 C   0  0  0  0  0  0  0  0  0  0  0  0
    7.8003    3.5000    0.0000 C   0  0  0  0  0  0  0  0  0  0  0  0
    8.6663    3.0000    0.0000 C   0  0  0  0  0  0  0  0  0  0  0  0
   12.1304    3.0000    0.0000 C   0  0  2  0  0  0  0  0  0  0  0  0
   12.1304    2.0000    0.0000 C   0  0  0  0  0  0  0  0  0  0  0  0
   12.9965    1.5000    0.0000 C   0  0  1  0  0  0  0  0  0  0  0  0
   13.8625    2.0000    0.0000 C   0  0  2  0  0  0  0  0  0  0  0  0
   13.8625    3.0000    0.0000 C   0  0  2  0  0  0  0  0  0  0  0  0
    9.5323    4.5000    0.0000 C   0  0  0  0  0  0  0  0  0  0  0  0
   11.2644    1.5000    0.0000 C   0  0  0  0  0  0  0  0  0  0  0  0
   14.7285    3.5000    0.0000 C   0  0  0  0  0  0  0  0  0  0  0  0
   13.8625    0.0000    0.0000 C   0  0  0  0  0  0  0  0  0  0  0  0
    3.6779    4.1048    0.0000 H   0  0  0  0  0  0  0  0  0  0  0  0
    5.2022    1.1500    0.0000 H   0  0  0  0  0  0  0  0  0  0  0  0
    2.8647    2.7118    0.0000 H   0  0  0  0  0  0  0  0  0  0  0  0
    6.1982   -0.4250    0.0000 H   0  0  0  0  0  0  0  0  0  0  0  0
    6.3237   -0.8923    0.0000 H   0  0  0  0  0  0  0  0  0  0  0  0
    6.7222   -1.5826    0.0000 H   0  0  0  0  0  0  0  0  0  0  0  0
    8.1988    0.9749    0.0000 H   0  0  0  0  0  0  0  0  0  0  0  0
    7.4018    0.9749    0.0000 H   0  0  0  0  0  0  0  0  0  0  0  0
    9.4024   -0.4250    0.0000 H   0  0  0  0  0  0  0  0  0  0  0  0
    4.3154    0.8454    0.0000 H   0  0  0  0  0  0  0  0  0  0  0  0
    6.3047    4.5742    0.0000 H   0  0  0  0  0  0  0  0  0  0  0  0
    5.6337    5.0404    0.0000 H   0  0  0  0  0  0  0  0  0  0  0  0
    9.2033   -2.6900    0.0000 H   0  0  0  0  0  0  0  0  0  0  0  0
    8.3372   -3.8100    0.0000 H   0  0  0  0  0  0  0  0  0  0  0  0
    6.3973   -1.6900    0.0000 H   0  0  0  0  0  0  0  0  0  0  0  0
   10.0693   -3.8100    0.0000 H   0  0  0  0  0  0  0  0  0  0  0  0
    9.7444   -0.0826    0.0000 H   0  0  0  0  0  0  0  0  0  0  0  0
   10.1429    0.6077    0.0000 H   0  0  0  0  0  0  0  0  0  0  0  0
    4.2776    4.1518    0.0000 H   0  0  0  0  0  0  0  0  0  0  0  0
    6.3973   -3.3100    0.0000 H   0  0  0  0  0  0  0  0  0  0  0  0
    7.2444    2.4631    0.0000 H   0  0  0  0  0  0  0  0  0  0  0  0
    2.2261    2.0116    0.0000 H   0  0  0  0  0  0  0  0  0  0  0  0
    2.0024    1.1638    0.0000 H   0  0  0  0  0  0  0  0  0  0  0  0
    2.8502    0.9401    0.0000 H   0  0  0  0  0  0  0  0  0  0  0  0
    2.0000    3.2162    0.0000 H   0  0  0  0  0  0  0  0  0  0  0  0
    7.1803   -4.5000    0.0000 H   0  0  0  0  0  0  0  0  0  0  0  0
    7.8003   -5.1200    0.0000 H   0  0  0  0  0  0  0  0  0  0  0  0
    8.4203   -4.5000    0.0000 H   0  0  0  0  0  0  0  0  0  0  0  0
    8.9954    1.8100    0.0000 H   0  0  0  0  0  0  0  0  0  0  0  0
   10.3984    3.6200    0.0000 H   0  0  0  0  0  0  0  0  0  0  0  0
    8.9124   -4.5000    0.0000 H   0  0  0  0  0  0  0  0  0  0  0  0
    9.5323   -5.1200    0.0000 H   0  0  0  0  0  0  0  0  0  0  0  0
   10.1524   -4.5000    0.0000 H   0  0  0  0  0  0  0  0  0  0  0  0
   10.7084   -3.5369    0.0000 H   0  0  0  0  0  0  0  0  0  0  0  0
   10.9353   -2.6900    0.0000 H   0  0  0  0  0  0  0  0  0  0  0  0
   10.0884   -2.4631    0.0000 H   0  0  0  0  0  0  0  0  0  0  0  0
   10.0693    3.8100    0.0000 H   0  0  0  0  0  0  0  0  0  0  0  0
    7.8003    4.1200    0.0000 H   0  0  0  0  0  0  0  0  0  0  0  0
    8.6663    2.3800    0.0000 H   0  0  0  0  0  0  0  0  0  0  0  0
   11.5935    2.6900    0.0000 H   0  0  0  0  0  0  0  0  0  0  0  0
   11.5198    2.1077    0.0000 H   0  0  0  0  0  0  0  0  0  0  0  0
   11.9184    1.4174    0.0000 H   0  0  0  0  0  0  0  0  0  0  0  0
   13.5334    1.1900    0.0000 H   0  0  0  0  0  0  0  0  0  0  0  0
   13.8625    1.3800    0.0000 H   0  0  0  0  0  0  0  0  0  0  0  0
   13.8625    3.6200    0.0000 H   0  0  0  0  0  0  0  0  0  0  0  0
   10.1524    4.5000    0.0000 H   0  0  0  0  0  0  0  0  0  0  0  0
    9.5323    5.1200    0.0000 H   0  0  0  0  0  0  0  0  0  0  0  0
    8.9124    4.5000    0.0000 H   0  0  0  0  0  0  0  0  0  0  0  0
   10.9544    0.9631    0.0000 H   0  0  0  0  0  0  0  0  0  0  0  0
   11.8013    1.1900    0.0000 H   0  0  0  0  0  0  0  0  0  0  0  0
   11.5744    2.0369    0.0000 H   0  0  0  0  0  0  0  0  0  0  0  0
   15.0385    2.9631    0.0000 H   0  0  0  0  0  0  0  0  0  0  0  0
   15.2654    3.8100    0.0000 H   0  0  0  0  0  0  0  0  0  0  0  0
   14.4185    4.0369    0.0000 H   0  0  0  0  0  0  0  0  0  0  0  0
   15.2654    1.8100    0.0000 H   0  0  0  0  0  0  0  0  0  0  0  0
   13.5525   -0.5369    0.0000 H   0  0  0  0  0  0  0  0  0  0  0  0
   14.3994   -0.3100    0.0000 H   0  0  0  0  0  0  0  0  0  0  0  0
   14.1725    0.5369    0.0000 H   0  0  0  0  0  0  0  0  0  0  0  0
  1 13  1  0  0  0  0
  1 23  1  0  0  0  0
  2 15  1  0  0  0  0
  2 21  1  0  0  0  0
 15  3  1  6  0  0  0
  3 25  1  0  0  0  0
  4 17  1  0  0  0  0
  4 26  1  0  0  0  0
 12  5  1  6  0  0  0
  5 70  1  0  0  0  0
 16  6  1  1  0  0  0
  6 76  1  0  0  0  0
  7 26  2  0  0  0  0
 36  8  1  6  0  0  0
 43  8  1  6  0  0  0
  9 43  1  0  0  0  0
  9 47  1  0  0  0  0
 45 10  1  1  0  0  0
 10 51  1  0  0  0  0
 46 11  1  6  0  0  0
 11106  1  0  0  0  0
 12 13  1  0  0  0  0
 12 14  1  0  0  0  0
 12 18  1  0  0  0  0
 13 16  1  0  0  0  0
 13 52  1  6  0  0  0
 14 22  1  0  0  0  0
 14 26  1  0  0  0  0
 14 53  1  1  0  0  0
 15 19  1  0  0  0  0
 15 28  1  0  0  0  0
 16 24  1  0  0  0  0
 16 54  1  0  0  0  0
 17 19  1  0  0  0  0
 17 20  1  0  0  0  0
 17 55  1  6  0  0  0
 18 23  1  0  0  0  0
 18 32  2  0  0  0  0
 19 56  1  0  0  0  0
 19 57  1  0  0  0  0
 20 21  1  0  0  0  0
 20 58  1  0  0  0  0
 20 59  1  0  0  0  0
 21 30  1  0  0  0  0
 21 60  1  6  0  0  0
 22 24  2  0  0  0  0
 22 61  1  0  0  0  0
 23 62  1  0  0  0  0
 23 63  1  0  0  0  0
 24 33  1  0  0  0  0
 25 27  1  0  0  0  0
 25 29  1  6  0  0  0
 25 64  1  0  0  0  0
 27 31  1  0  0  0  0
 27 34  1  1  0  0  0
 27 65  1  0  0  0  0
 28 31  2  0  0  0  0
 28 66  1  0  0  0  0
 29 37  1  0  0  0  0
 29 38  1  0  0  0  0
 29 67  1  0  0  0  0
 30 35  1  0  0  0  0
 30 68  1  0  0  0  0
 30 69  1  0  0  0  0
 31 71  1  0  0  0  0
 32 41  1  0  0  0  0
 32 72  1  0  0  0  0
 33 73  1  0  0  0  0
 33 74  1  0  0  0  0
 33 75  1  0  0  0  0
 34 77  1  0  0  0  0
 34 78  1  0  0  0  0
 34 79  1  0  0  0  0
 35 40  2  0  0  0  0
 35 80  1  0  0  0  0
 36 39  1  0  0  0  0
 36 40  1  0  0  0  0
 36 81  1  0  0  0  0
 37 82  1  0  0  0  0
 37 83  1  0  0  0  0
 37 84  1  0  0  0  0
 38 85  1  0  0  0  0
 38 86  1  0  0  0  0
 38 87  1  0  0  0  0
 39 42  1  0  0  0  0
 39 48  1  6  0  0  0
 39 88  1  0  0  0  0
 40 49  1  0  0  0  0
 41 42  2  0  0  0  0
 41 89  1  0  0  0  0
 42 90  1  0  0  0  0
 43 44  1  0  0  0  0
 43 91  1  0  0  0  0
 44 45  1  0  0  0  0
 44 92  1  0  0  0  0
 44 93  1  0  0  0  0
 45 46  1  0  0  0  0
 45 94  1  0  0  0  0
 46 47  1  0  0  0  0
 46 95  1  0  0  0  0
 47 50  1  1  0  0  0
 47 96  1  0  0  0  0
 48 97  1  0  0  0  0
 48 98  1  0  0  0  0
 48 99  1  0  0  0  0
 49100  1  0  0  0  0
 49101  1  0  0  0  0
 49102  1  0  0  0  0
 50103  1  0  0  0  0
 50104  1  0  0  0  0
 50105  1  0  0  0  0
 51107  1  0  0  0  0
 51108  1  0  0  0  0
 51109  1  0  0  0  0
M  END
> <PUBCHEM_COMPOUND_CID>
11953979

> <PUBCHEM_COMPOUND_CANONICALIZED>
1

> <PUBCHEM_CACTVS_COMPLEXITY>
1430

> <PUBCHEM_CACTVS_HBOND_ACCEPTOR>
11

> <PUBCHEM_CACTVS_HBOND_DONOR>
3

> <PUBCHEM_CACTVS_ROTATABLE_BOND>
4

> <PUBCHEM_CACTVS_SUBSKEYS>
AAADcfB8PAAAAAAAAAAAAAAAAAAAASAAAAAkSIEAAAAAAEAAAAAAGgAACAAADVSwgAMCCAAABgCIAiDSCAAAAAAgAAAICAEAAAgZFBYAIQAiUAAF4AAPsAPK7OzOgAAAAAAAAAAAAAAAAAAAAAAAAAAAAA==

> <PUBCHEM_IUPAC_INCHI>
InChI=1S/C40H58O11/c1-21(2)35-24(5)14-15-39(51-35)19-29-17-28(50-39)13-12-23(4)36(49-32-18-31(45-8)34(42)26(7)47-32)22(3)10-9-11-27-20-46-37-33(41)25(6)16-30(38(43)48-29)40(27,37)44/h9-12,14-16,21-22,24,26,28-37,41-42,44H,13,17-20H2,1-8H3/b10-9+,23-12+,27-11+/t22-,24-,26-,28+,29-,30-,31-,32-,33+,34-,35+,36-,37+,39+,40+/m0/s1

> <PUBCHEM_IUPAC_INCHIKEY>
NJTGMYOUKBELLQ-SVNGNTECSA-N

> <PUBCHEM_XLOGP3_AA>
3.1

> <PUBCHEM_EXACT_MASS>
714.397913

> <PUBCHEM_MOLECULAR_FORMULA>
C40H58O11

> <PUBCHEM_MOLECULAR_WEIGHT>
714.88192

> <PUBCHEM_OPENEYE_CAN_SMILES>
CC1C=CC=C2COC3C2(C(C=C(C3O)C)C(=O)OC4CC(CC=C(C1OC5CC(C(C(O5)C)O)OC)C)OC6(C4)C=CC(C(O6)C(C)C)C)O

> <PUBCHEM_OPENEYE_ISO_SMILES>
C[C@H]1/C=C/C=C/2\CO[C@H]3[C@@]2([C@@H](C=C([C@H]3O)C)C(=O)O[C@H]4C[C@@H](C/C=C(/[C@H]1O[C@H]5C[C@@H]([C@H]([C@@H](O5)C)O)OC)\C)O[C@]6(C4)C=C[C@@H]([C@H](O6)C(C)C)C)O

> <PUBCHEM_CACTVS_TPSA>
142

> <PUBCHEM_MONOISOTOPIC_WEIGHT>
714.397913

> <PUBCHEM_TOTAL_CHARGE>
0

> <PUBCHEM_HEAVY_ATOM_COUNT>
51

> <PUBCHEM_ATOM_DEF_STEREO_COUNT>
15

> <PUBCHEM_ATOM_UDEF_STEREO_COUNT>
0

> <PUBCHEM_BOND_DEF_STEREO_COUNT>
3

> <PUBCHEM_BOND_UDEF_STEREO_COUNT>
0

> <PUBCHEM_ISOTOPIC_ATOM_COUNT>
0

> <PUBCHEM_COMPONENT_COUNT>
1

> <PUBCHEM_CACTVS_TAUTO_COUNT>
1

> <PUBCHEM_COORDINATE_TYPE>
1
5
255

> <PUBCHEM_BONDANNOTATIONS>
45  10  5
46  11  6
13  52  6
14  53  5
17  55  6
21  60  6
25  29  6
27  34  5
15  3  6
39  48  6
47  50  5
12  5  6
16  6  5
36  8  6
43  8  6

$$$$

