17395731
  -OEChem-06241222523D

 40 42  0     0  0  0  0  0  0999 V2000
    0.2890   -1.8504    1.5010 O   0  0  0  0  0  0  0  0  0  0  0  0
    1.7094    1.3276    0.1821 N   0  0  0  0  0  0  0  0  0  0  0  0
    3.7305    0.4098   -0.5491 N   0  0  0  0  0  0  0  0  0  0  0  0
   -0.4891   -0.6064   -0.3300 N   0  0  0  0  0  0  0  0  0  0  0  0
    0.6755    3.0392    1.4198 C   0  0  0  0  0  0  0  0  0  0  0  0
    0.3217    3.2122   -0.0470 C   0  0  0  0  0  0  0  0  0  0  0  0
    1.1287    1.5831    1.4981 C   0  0  0  0  0  0  0  0  0  0  0  0
    1.3975    2.3980   -0.7619 C   0  0  0  0  0  0  0  0  0  0  0  0
    2.4601    0.2146   -0.1299 C   0  0  0  0  0  0  0  0  0  0  0  0
    1.8704   -1.0321    0.0041 C   0  0  0  0  0  0  0  0  0  0  0  0
    2.6336   -2.1505   -0.3124 C   0  0  0  0  0  0  0  0  0  0  0  0
    0.4984   -1.2106    0.4590 C   0  0  0  0  0  0  0  0  0  0  0  0
    4.4416   -0.7006   -0.8476 C   0  0  0  0  0  0  0  0  0  0  0  0
    3.9447   -1.9902   -0.7471 C   0  0  0  0  0  0  0  0  0  0  0  0
   -1.8907   -0.5895   -0.1258 C   0  0  0  0  0  0  0  0  0  0  0  0
   -2.7203    0.0722   -1.0311 C   0  0  0  0  0  0  0  0  0  0  0  0
   -4.1004    0.0885   -0.8290 C   0  0  0  0  0  0  0  0  0  0  0  0
   -2.4412   -1.2350    0.9814 C   0  0  0  0  0  0  0  0  0  0  0  0
   -4.6508   -0.5571    0.2782 C   0  0  0  0  0  0  0  0  0  0  0  0
   -3.8213   -1.2189    1.1834 C   0  0  0  0  0  0  0  0  0  0  0  0
   -4.9873    0.7961   -1.7964 C   0  0  0  0  0  0  0  0  0  0  0  0
    1.5057    3.7052    1.6846 H   0  0  0  0  0  0  0  0  0  0  0  0
   -0.1622    3.2544    2.0889 H   0  0  0  0  0  0  0  0  0  0  0  0
   -0.6678    2.7828   -0.2452 H   0  0  0  0  0  0  0  0  0  0  0  0
    0.3101    4.2589   -0.3629 H   0  0  0  0  0  0  0  0  0  0  0  0
    1.8628    1.4481    2.2996 H   0  0  0  0  0  0  0  0  0  0  0  0
    0.2615    0.9543    1.7098 H   0  0  0  0  0  0  0  0  0  0  0  0
    1.0297    2.0115   -1.7180 H   0  0  0  0  0  0  0  0  0  0  0  0
    2.2900    3.0073   -0.9426 H   0  0  0  0  0  0  0  0  0  0  0  0
    2.2192   -3.1515   -0.2267 H   0  0  0  0  0  0  0  0  0  0  0  0
    5.4580   -0.5217   -1.1820 H   0  0  0  0  0  0  0  0  0  0  0  0
    4.5580   -2.8474   -0.9999 H   0  0  0  0  0  0  0  0  0  0  0  0
   -0.1749   -0.1126   -1.1628 H   0  0  0  0  0  0  0  0  0  0  0  0
   -2.2917    0.5783   -1.8932 H   0  0  0  0  0  0  0  0  0  0  0  0
   -1.8659   -1.7667    1.7256 H   0  0  0  0  0  0  0  0  0  0  0  0
   -5.7242   -0.5500    0.4480 H   0  0  0  0  0  0  0  0  0  0  0  0
   -4.2512   -1.7206    2.0456 H   0  0  0  0  0  0  0  0  0  0  0  0
   -5.0835    1.8498   -1.5164 H   0  0  0  0  0  0  0  0  0  0  0  0
   -4.5860    0.7375   -2.8139 H   0  0  0  0  0  0  0  0  0  0  0  0
   -5.9865    0.3479   -1.8203 H   0  0  0  0  0  0  0  0  0  0  0  0
  1 12  2  0  0  0  0
  2  7  1  0  0  0  0
  2  8  1  0  0  0  0
  2  9  1  0  0  0  0
  3  9  1  0  0  0  0
  3 13  2  0  0  0  0
  4 12  1  0  0  0  0
  4 15  1  0  0  0  0
  4 33  1  0  0  0  0
  5  6  1  0  0  0  0
  5  7  1  0  0  0  0
  5 22  1  0  0  0  0
  5 23  1  0  0  0  0
  6  8  1  0  0  0  0
  6 24  1  0  0  0  0
  6 25  1  0  0  0  0
  7 26  1  0  0  0  0
  7 27  1  0  0  0  0
  8 28  1  0  0  0  0
  8 29  1  0  0  0  0
  9 10  2  0  0  0  0
 10 11  1  0  0  0  0
 10 12  1  0  0  0  0
 11 14  2  0  0  0  0
 11 30  1  0  0  0  0
 13 14  1  0  0  0  0
 13 31  1  0  0  0  0
 14 32  1  0  0  0  0
 15 16  1  0  0  0  0
 15 18  2  0  0  0  0
 16 17  2  0  0  0  0
 16 34  1  0  0  0  0
 17 19  1  0  0  0  0
 17 21  1  0  0  0  0
 18 20  1  0  0  0  0
 18 35  1  0  0  0  0
 19 20  2  0  0  0  0
 19 36  1  0  0  0  0
 20 37  1  0  0  0  0
 21 38  1  0  0  0  0
 21 39  1  0  0  0  0
 21 40  1  0  0  0  0
M  END
> <PUBCHEM_COMPOUND_CID>
17395731

> <PUBCHEM_CONFORMER_RMSD>
0.8

> <PUBCHEM_CONFORMER_DIVERSEORDER>
1
9
6
8
3
2
10
5
4
7

> <PUBCHEM_MMFF94_PARTIAL_CHARGES>
27
1 -0.57
10 0.09
11 -0.15
12 0.54
13 0.16
14 -0.15
15 0.12
16 -0.15
17 -0.14
18 -0.15
19 -0.15
2 -0.84
20 -0.15
21 0.14
3 -0.62
30 0.15
31 0.15
32 0.15
33 0.37
34 0.15
35 0.15
36 0.15
37 0.15
4 -0.55
7 0.37
8 0.37
9 0.41

> <PUBCHEM_EFFECTIVE_ROTOR_COUNT>
5

> <PUBCHEM_PHARMACOPHORE_FEATURES>
7
1 1 acceptor
1 2 cation
1 3 acceptor
1 4 donor
5 2 5 6 7 8 rings
6 15 16 17 18 19 20 rings
6 3 9 10 11 13 14 rings

> <PUBCHEM_HEAVY_ATOM_COUNT>
21

> <PUBCHEM_ATOM_DEF_STEREO_COUNT>
0

> <PUBCHEM_ATOM_UDEF_STEREO_COUNT>
0

> <PUBCHEM_BOND_DEF_STEREO_COUNT>
0

> <PUBCHEM_BOND_UDEF_STEREO_COUNT>
0

> <PUBCHEM_ISOTOPIC_ATOM_COUNT>
0

> <PUBCHEM_COMPONENT_COUNT>
1

> <PUBCHEM_CACTVS_TAUTO_COUNT>
2

> <PUBCHEM_CONFORMER_ID>
0109701300000001

> <PUBCHEM_MMFF94_ENERGY>
83.0813

> <PUBCHEM_FEATURE_SELFOVERLAP>
35.52

> <PUBCHEM_SHAPE_FINGERPRINT>
10165383 225 17185844239560650329
10366900 7 17917996053706672859
104564 63 18189892204758114928
10498660 4 17274830176955259439
11421498 54 13901916634553389565
11578080 2 13037460729331511092
116883 192 18044930427357434150
12236239 1 17095237025753602155
12553582 1 18187642531127366590
12623949 98 17760894404699092843
12654215 9 18411987923051215216
13134695 92 18113900446483764992
14251757 17 18202282528218842180
14347329 18 17058388113530652565
14508225 48 18337942515607534548
14866123 147 17258212394041362034
15081414 286 18335693906580380152
15210252 30 17846500378292380852
15238133 3 17844267313236322633
15806764 133 18272927203182237253
15848700 24 18261114097302808492
17041 50 18411984658844246379
17138139 8 17251781295102536341
17349148 13 16732703827139781519
17357779 13 18335704987210641708
1813 80 17677315221238010294
18186145 218 18413392016912089947
18785283 64 17982440504215760320
21033648 29 18202009811397879069
21041028 32 18261942033579568017
21641784 216 18196910336614037084
221357 26 18411704309549946181
22289505 5 18339651130200270029
22620623 9 17463669228962229476
23175994 123 18410000057451635807
23402539 116 18114455781544631490
23419403 2 17170425006789356648
23559900 14 17988645147690151991
238 59 18122642551845898095
3060560 45 18114188531510233190
350125 39 17616526264386162554
3524813 1 18131355198069785895
427121 178 11311765211575135796
46194498 28 17916576519396119381
5281201 14 18341047428779995423
5895379 119 14635962657424347611
6049 1 18200872873287779899
6438718 38 17533776272034870953
7164475 11 18048313642111557398
7471813 234 17676212372526367553
7495541 125 18340476764801982171
81228 2 18049152569214135504
9971528 1 18040723566793528386
9981440 41 17105675548154909616

> <PUBCHEM_SHAPE_MULTIPOLES>
411.36
8.78
3
1.39
6.16
2.59
-0.12
-3.48
3.48
-2.23
-0.68
0.93
0.25
1.34

> <PUBCHEM_SHAPE_SELFOVERLAP>
886.061

> <PUBCHEM_SHAPE_VOLUME>
227.2

> <PUBCHEM_COORDINATE_TYPE>
2
5
10

$$$$

