12928
  -OEChem-06261207333D

 26 26  0     1  0  0  0  0  0999 V2000
    1.1064   -0.0375   -0.1114 O   0  0  0  0  0  0  0  0  0  0  0  0
    2.3663    0.5795   -0.1274 N   0  0  0  0  0  0  0  0  0  0  0  0
    4.6360    0.0347   -0.1701 N   0  0  0  0  0  0  0  0  0  0  0  0
    3.1345   -1.6886   -0.1583 N   0  0  0  0  0  0  0  0  0  0  0  0
    0.1174    0.9804   -0.0866 C   0  0  1  0  0  0  0  0  0  0  0  0
   -1.2520    0.3438   -0.0689 C   0  0  0  0  0  0  0  0  0  0  0  0
    0.3461    1.8810    1.1221 C   0  0  0  0  0  0  0  0  0  0  0  0
   -1.4231   -0.8818    0.5545 C   0  0  0  0  0  0  0  0  0  0  0  0
   -2.3122    0.9971   -0.6768 C   0  0  0  0  0  0  0  0  0  0  0  0
   -2.6879   -1.4697    0.5707 C   0  0  0  0  0  0  0  0  0  0  0  0
   -3.5770    0.4093   -0.6606 C   0  0  0  0  0  0  0  0  0  0  0  0
   -3.7650   -0.8241   -0.0368 C   0  0  0  0  0  0  0  0  0  0  0  0
    3.3104   -0.3240   -0.1505 C   0  0  0  0  0  0  0  0  0  0  0  0
    0.2188    1.5680   -1.0090 H   0  0  0  0  0  0  0  0  0  0  0  0
    0.4038    1.2944    2.0466 H   0  0  0  0  0  0  0  0  0  0  0  0
   -0.4646    2.6094    1.2333 H   0  0  0  0  0  0  0  0  0  0  0  0
    1.2809    2.4460    1.0441 H   0  0  0  0  0  0  0  0  0  0  0  0
   -0.6033   -1.3977    1.0458 H   0  0  0  0  0  0  0  0  0  0  0  0
   -2.1764    1.9587   -1.1631 H   0  0  0  0  0  0  0  0  0  0  0  0
   -2.8351   -2.4287    1.0590 H   0  0  0  0  0  0  0  0  0  0  0  0
   -4.4157    0.9122   -1.1330 H   0  0  0  0  0  0  0  0  0  0  0  0
   -4.7500   -1.2813   -0.0233 H   0  0  0  0  0  0  0  0  0  0  0  0
    4.9153    1.0097   -0.1666 H   0  0  0  0  0  0  0  0  0  0  0  0
    5.3732   -0.6614   -0.1871 H   0  0  0  0  0  0  0  0  0  0  0  0
    3.9243   -2.3244   -0.1761 H   0  0  0  0  0  0  0  0  0  0  0  0
    2.2062   -2.0970   -0.1449 H   0  0  0  0  0  0  0  0  0  0  0  0
  1  2  1  0  0  0  0
  1  5  1  0  0  0  0
  2 13  2  0  0  0  0
  3 13  1  0  0  0  0
  3 23  1  0  0  0  0
  3 24  1  0  0  0  0
  4 13  1  0  0  0  0
  4 25  1  0  0  0  0
  4 26  1  0  0  0  0
  5  6  1  0  0  0  0
  5  7  1  0  0  0  0
  5 14  1  0  0  0  0
  6  8  2  0  0  0  0
  6  9  1  0  0  0  0
  7 15  1  0  0  0  0
  7 16  1  0  0  0  0
  7 17  1  0  0  0  0
  8 10  1  0  0  0  0
  8 18  1  0  0  0  0
  9 11  2  0  0  0  0
  9 19  1  0  0  0  0
 10 12  2  0  0  0  0
 10 20  1  0  0  0  0
 11 12  1  0  0  0  0
 11 21  1  0  0  0  0
 12 22  1  0  0  0  0
M  END
> <PUBCHEM_COMPOUND_CID>
12928

> <PUBCHEM_CONFORMER_RMSD>
0.6

> <PUBCHEM_CONFORMER_DIVERSEORDER>
2
13
5
3
7
15
9
11
10
1
8
6
12
4
14

> <PUBCHEM_MMFF94_PARTIAL_CHARGES>
21
1 -0.22
10 -0.15
11 -0.15
12 -0.15
13 0.55
18 0.15
19 0.15
2 -0.51
20 0.15
21 0.15
22 0.15
23 0.4
24 0.4
25 0.4
26 0.4
3 -0.85
4 -0.85
5 0.42
6 -0.14
8 -0.15
9 -0.15

> <PUBCHEM_EFFECTIVE_ROTOR_COUNT>
3

> <PUBCHEM_PHARMACOPHORE_FEATURES>
4
1 3 donor
1 4 donor
4 2 3 4 13 cation
6 6 8 9 10 11 12 rings

> <PUBCHEM_HEAVY_ATOM_COUNT>
13

> <PUBCHEM_ATOM_DEF_STEREO_COUNT>
0

> <PUBCHEM_ATOM_UDEF_STEREO_COUNT>
1

> <PUBCHEM_BOND_DEF_STEREO_COUNT>
0

> <PUBCHEM_BOND_UDEF_STEREO_COUNT>
0

> <PUBCHEM_ISOTOPIC_ATOM_COUNT>
0

> <PUBCHEM_COMPONENT_COUNT>
1

> <PUBCHEM_CACTVS_TAUTO_COUNT>
2

> <PUBCHEM_CONFORMER_ID>
0000328000000002

> <PUBCHEM_MMFF94_ENERGY>
36.2404

> <PUBCHEM_FEATURE_SELFOVERLAP>
20.352

> <PUBCHEM_SHAPE_FINGERPRINT>
10465860 250 18408611365781419296
11543360 7 17417802912146201284
12032990 46 18408601457033222487
12186901 62 17418382406735639975
12251169 10 6411294645802708891
124424 183 18334016094738191493
13296908 3 18334860506530077488
14252887 29 17530955887402170622
14350558 41 18341887498428562590
15219456 202 18265620887780104809
15375358 24 18410578383562121530
18186145 218 13902184872556684668
200 152 18113902666891887470
20201158 50 18410572898614688390
20279233 1 18411698790232179334
20281407 28 18410571764663915224
20281475 54 18338228272086234219
20645476 183 16271934783496051507
20645477 70 18259706687664047182
20671657 53 18409161121711540028
20711985 327 16298385738514095160
20871999 31 17846787299592882429
21061003 4 17967247581312802393
21119208 17 17203892963369179166
21524375 3 10303809873894169888
22485316 2 18408044004759376294
23402539 116 18059866072865306453
23403322 49 18410292549030341542
23559900 14 18340212972679830608
3312278 4 18411416237060240074
7364860 26 18126562310567440972
81228 2 17825088548913969552
93112 12 18131069316103312004
9709674 26 18342733022786484698

> <PUBCHEM_SHAPE_MULTIPOLES>
246.72
7.47
1.58
0.83
5.29
0.02
0.11
-2.33
-1.22
-0.08
0.34
-0.27
0.19
0.6

> <PUBCHEM_SHAPE_SELFOVERLAP>
503.276

> <PUBCHEM_SHAPE_VOLUME>
143.4

> <PUBCHEM_COORDINATE_TYPE>
2
5
10

$$$$

