441995
  -OEChem-07051212562D

 47 49  0     1  0  0  0  0  0999 V2000
    4.3211    1.0597    0.0000 O   0  0  0  0  0  0  0  0  0  0  0  0
    6.7094   -0.1488    0.0000 N   0  0  0  0  0  0  0  0  0  0  0  0
    4.6783   -2.2446    0.0000 N   0  0  0  0  0  0  0  0  0  0  0  0
    6.3758    1.4344    0.0000 C   0  0  1  0  0  0  0  0  0  0  0  0
    5.9674    0.5216    0.0000 C   0  0  2  0  0  0  0  0  0  0  0  0
    7.3701    1.3282    0.0000 C   0  0  0  0  0  0  0  0  0  0  0  0
    7.5763    0.3497    0.0000 C   0  0  1  0  0  0  0  0  0  0  0  0
    5.4629    1.8428    0.0000 C   0  0  0  0  0  0  0  0  0  0  0  0
    6.4820    2.4288    0.0000 C   0  0  0  0  0  0  0  0  0  0  0  0
    4.9889    0.3154    0.0000 C   0  0  0  0  0  0  0  0  0  0  0  0
    8.4892   -0.0586    0.0000 C   0  0  0  0  0  0  0  0  0  0  0  0
    4.6783   -0.6351    0.0000 C   0  0  0  0  0  0  0  0  0  0  0  0
    9.2992    0.5277    0.0000 C   0  0  0  0  0  0  0  0  0  0  0  0
    7.3962    2.8339    0.0000 C   0  0  0  0  0  0  0  0  0  0  0  0
    3.7320   -0.9399    0.0000 C   0  0  0  0  0  0  0  0  0  0  0  0
    5.2619   -1.4399    0.0000 C   0  0  0  0  0  0  0  0  0  0  0  0
    3.7320   -1.9399    0.0000 C   0  0  0  0  0  0  0  0  0  0  0  0
   10.2120    0.1194    0.0000 C   0  0  0  0  0  0  0  0  0  0  0  0
    9.1964    1.5224    0.0000 C   0  0  0  0  0  0  0  0  0  0  0  0
    2.8660   -0.4399    0.0000 C   0  0  0  0  0  0  0  0  0  0  0  0
    2.8660   -2.4399    0.0000 C   0  0  0  0  0  0  0  0  0  0  0  0
    2.0000   -0.9399    0.0000 C   0  0  0  0  0  0  0  0  0  0  0  0
    2.0000   -1.9399    0.0000 C   0  0  0  0  0  0  0  0  0  0  0  0
    5.8059   -0.0770    0.0000 H   0  0  0  0  0  0  0  0  0  0  0  0
    7.9868    1.3919    0.0000 H   0  0  0  0  0  0  0  0  0  0  0  0
    7.3712    1.9482    0.0000 H   0  0  0  0  0  0  0  0  0  0  0  0
    7.6077   -0.2695    0.0000 H   0  0  0  0  0  0  0  0  0  0  0  0
    6.6436   -0.7653    0.0000 H   0  0  0  0  0  0  0  0  0  0  0  0
    5.7161    2.4087    0.0000 H   0  0  0  0  0  0  0  0  0  0  0  0
    4.8970    2.0959    0.0000 H   0  0  0  0  0  0  0  0  0  0  0  0
    5.2098    1.2768    0.0000 H   0  0  0  0  0  0  0  0  0  0  0  0
    5.9810    2.7941    0.0000 H   0  0  0  0  0  0  0  0  0  0  0  0
    8.5529   -0.6754    0.0000 H   0  0  0  0  0  0  0  0  0  0  0  0
    7.8972    2.4686    0.0000 H   0  0  0  0  0  0  0  0  0  0  0  0
    7.4621    3.4504    0.0000 H   0  0  0  0  0  0  0  0  0  0  0  0
    5.8819   -1.4399    0.0000 H   0  0  0  0  0  0  0  0  0  0  0  0
    4.8709   -2.8339    0.0000 H   0  0  0  0  0  0  0  0  0  0  0  0
    9.9589   -0.4465    0.0000 H   0  0  0  0  0  0  0  0  0  0  0  0
   10.7780   -0.1337    0.0000 H   0  0  0  0  0  0  0  0  0  0  0  0
   10.4652    0.6854    0.0000 H   0  0  0  0  0  0  0  0  0  0  0  0
    9.8131    1.5862    0.0000 H   0  0  0  0  0  0  0  0  0  0  0  0
    9.1326    2.1392    0.0000 H   0  0  0  0  0  0  0  0  0  0  0  0
    8.5797    1.4587    0.0000 H   0  0  0  0  0  0  0  0  0  0  0  0
    2.8660    0.1801    0.0000 H   0  0  0  0  0  0  0  0  0  0  0  0
    2.8660   -3.0599    0.0000 H   0  0  0  0  0  0  0  0  0  0  0  0
    1.4631   -0.6299    0.0000 H   0  0  0  0  0  0  0  0  0  0  0  0
    1.4631   -2.2499    0.0000 H   0  0  0  0  0  0  0  0  0  0  0  0
  1 10  2  0  0  0  0
  2  5  1  0  0  0  0
  2  7  1  0  0  0  0
  2 28  1  0  0  0  0
  3 16  1  0  0  0  0
  3 17  1  0  0  0  0
  3 37  1  0  0  0  0
  4  5  1  0  0  0  0
  4  6  1  0  0  0  0
  4  8  1  6  0  0  0
  4  9  1  0  0  0  0
  5 10  1  1  0  0  0
  5 24  1  0  0  0  0
  6  7  1  0  0  0  0
  6 25  1  0  0  0  0
  6 26  1  0  0  0  0
  7 11  1  1  0  0  0
  7 27  1  0  0  0  0
  8 29  1  0  0  0  0
  8 30  1  0  0  0  0
  8 31  1  0  0  0  0
  9 14  2  0  0  0  0
  9 32  1  0  0  0  0
 10 12  1  0  0  0  0
 11 13  2  0  0  0  0
 11 33  1  0  0  0  0
 12 15  1  0  0  0  0
 12 16  2  0  0  0  0
 13 18  1  0  0  0  0
 13 19  1  0  0  0  0
 14 34  1  0  0  0  0
 14 35  1  0  0  0  0
 15 17  1  0  0  0  0
 15 20  2  0  0  0  0
 16 36  1  0  0  0  0
 17 21  2  0  0  0  0
 18 38  1  0  0  0  0
 18 39  1  0  0  0  0
 18 40  1  0  0  0  0
 19 41  1  0  0  0  0
 19 42  1  0  0  0  0
 19 43  1  0  0  0  0
 20 22  1  0  0  0  0
 20 44  1  0  0  0  0
 21 23  1  0  0  0  0
 21 45  1  0  0  0  0
 22 23  2  0  0  0  0
 22 46  1  0  0  0  0
 23 47  1  0  0  0  0
M  END
> <PUBCHEM_COMPOUND_CID>
441995

> <PUBCHEM_COMPOUND_CANONICALIZED>
1

> <PUBCHEM_CACTVS_COMPLEXITY>
508

> <PUBCHEM_CACTVS_HBOND_ACCEPTOR>
2

> <PUBCHEM_CACTVS_HBOND_DONOR>
2

> <PUBCHEM_CACTVS_ROTATABLE_BOND>
4

> <PUBCHEM_CACTVS_SUBSKEYS>
AAADceB7IAAAAAAAAAAAAAAAAAAAAWLAAAAwAAAAAAAAAFgB8AAAHgAQAAAADizBngQ+wPLJkACoA7R3RACCgCA1AiAI2aG4ZNgIIPrAlbGEIYhgkADIycccicCfgAAAAAACAAAAAAAAAAQAAAAAAAAAAA==

> <PUBCHEM_IUPAC_OPENEYE_NAME>
1H-indol-3-yl-[(2R,3R,5S)-3-methyl-5-(2-methylprop-1-enyl)-3-vinyl-pyrrolidin-2-yl]methanone

> <PUBCHEM_IUPAC_CAS_NAME>
[(2R,3R,5S)-3-ethenyl-3-methyl-5-(2-methylprop-1-enyl)-2-pyrrolidinyl]-(1H-indol-3-yl)methanone

> <PUBCHEM_IUPAC_NAME>
[(2R,3R,5S)-3-ethenyl-3-methyl-5-(2-methylprop-1-enyl)pyrrolidin-2-yl]-(1H-indol-3-yl)methanone

> <PUBCHEM_IUPAC_SYSTEMATIC_NAME>
[(2R,3R,5S)-3-ethenyl-3-methyl-5-(2-methylprop-1-enyl)pyrrolidin-2-yl]-(1H-indol-3-yl)methanone

> <PUBCHEM_IUPAC_TRADITIONAL_NAME>
1H-indol-3-yl-[(2R,3R,5S)-3-methyl-5-(2-methylprop-1-enyl)-3-vinyl-pyrrolidin-2-yl]methanone

> <PUBCHEM_IUPAC_INCHI>
InChI=1S/C20H24N2O/c1-5-20(4)11-14(10-13(2)3)22-19(20)18(23)16-12-21-17-9-7-6-8-15(16)17/h5-10,12,14,19,21-22H,1,11H2,2-4H3/t14-,19+,20+/m1/s1

> <PUBCHEM_IUPAC_INCHIKEY>
ZSWYXBSEVUNDFU-UAOJZALGSA-N

> <PUBCHEM_XLOGP3_AA>
4.5

> <PUBCHEM_EXACT_MASS>
308.188863

> <PUBCHEM_MOLECULAR_FORMULA>
C20H24N2O

> <PUBCHEM_MOLECULAR_WEIGHT>
308.41736

> <PUBCHEM_OPENEYE_CAN_SMILES>
CC(=CC1CC(C(N1)C(=O)C2=CNC3=CC=CC=C32)(C)C=C)C

> <PUBCHEM_OPENEYE_ISO_SMILES>
CC(=C[C@@H]1C[C@]([C@@H](N1)C(=O)C2=CNC3=CC=CC=C32)(C)C=C)C

> <PUBCHEM_CACTVS_TPSA>
44.9

> <PUBCHEM_MONOISOTOPIC_WEIGHT>
308.188863

> <PUBCHEM_TOTAL_CHARGE>
0

> <PUBCHEM_HEAVY_ATOM_COUNT>
23

> <PUBCHEM_ATOM_DEF_STEREO_COUNT>
3

> <PUBCHEM_ATOM_UDEF_STEREO_COUNT>
0

> <PUBCHEM_BOND_DEF_STEREO_COUNT>
0

> <PUBCHEM_BOND_UDEF_STEREO_COUNT>
0

> <PUBCHEM_ISOTOPIC_ATOM_COUNT>
0

> <PUBCHEM_COMPONENT_COUNT>
1

> <PUBCHEM_CACTVS_TAUTO_COUNT>
5

> <PUBCHEM_COORDINATE_TYPE>
1
5
255

> <PUBCHEM_BONDANNOTATIONS>
12  15  8
12  16  8
15  17  8
15  20  8
17  21  8
20  22  8
21  23  8
22  23  8
3  16  8
3  17  8
4  8  6
5  10  5
7  11  5

$$$$

