442057
  -OEChem-07051212562D

 73 78  0     1  0  0  0  0  0999 V2000
    8.2214   -2.0147    0.0000 O   0  0  0  0  0  0  0  0  0  0  0  0
    8.5816   -0.8093    0.0000 O   0  0  0  0  0  0  0  0  0  0  0  0
    4.4402   -0.1938    0.0000 O   0  0  0  0  0  0  0  0  0  0  0  0
    9.3012    0.1435    0.0000 O   0  0  0  0  0  0  0  0  0  0  0  0
    2.2253   -3.9328    0.0000 O   0  0  0  0  0  0  0  0  0  0  0  0
    2.0000   -1.6244    0.0000 O   0  0  0  0  0  0  0  0  0  0  0  0
    9.6359    1.8429    0.0000 O   0  0  0  0  0  0  0  0  0  0  0  0
   11.2635   -0.2430    0.0000 O   0  0  0  0  0  0  0  0  0  0  0  0
   12.5794    1.2632    0.0000 O   0  0  0  0  0  0  0  0  0  0  0  0
   11.9330    3.1558    0.0000 O   0  0  0  0  0  0  0  0  0  0  0  0
   10.6286    4.2954    0.0000 O   0  0  0  0  0  0  0  0  0  0  0  0
    6.5386   -1.8251    0.0000 C   0  0  1  0  0  0  0  0  0  0  0  0
    5.6376   -1.3912    0.0000 C   0  0  2  0  0  0  0  0  0  0  0  0
    7.0386    0.3655    0.0000 C   0  0  2  0  0  0  0  0  0  0  0  0
    4.7681   -1.9646    0.0000 C   0  0  1  0  0  0  0  0  0  0  0  0
    6.4318   -0.6483    0.0000 C   0  0  0  0  0  0  0  0  0  0  0  0
    7.4396   -1.3912    0.0000 C   0  0  2  0  0  0  0  0  0  0  0  0
    7.6621   -0.4163    0.0000 C   0  0  1  0  0  0  0  0  0  0  0  0
    6.6325   -2.8625    0.0000 C   0  0  0  0  0  0  0  0  0  0  0  0
    5.4151   -0.4163    0.0000 C   0  0  2  0  0  0  0  0  0  0  0  0
    4.8379   -3.0039    0.0000 C   0  0  2  0  0  0  0  0  0  0  0  0
    6.0386    0.3655    0.0000 C   0  0  0  0  0  0  0  0  0  0  0  0
    5.7764   -3.4559    0.0000 C   0  0  0  0  0  0  0  0  0  0  0  0
    3.8017   -1.4714    0.0000 C   0  0  0  0  0  0  0  0  0  0  0  0
    4.3638   -1.0500    0.0000 C   0  0  0  0  0  0  0  0  0  0  0  0
    8.3200    0.3368    0.0000 C   0  0  0  0  0  0  0  0  0  0  0  0
    3.9462   -3.6220    0.0000 C   0  0  0  0  0  0  0  0  0  0  0  0
    2.8959   -2.0687    0.0000 C   0  0  0  0  0  0  0  0  0  0  0  0
    2.9686   -3.1513    0.0000 C   0  0  0  0  0  0  0  0  0  0  0  0
    3.7986   -4.6904    0.0000 C   0  0  0  0  0  0  0  0  0  0  0  0
    2.7372   -4.8821    0.0000 C   0  0  0  0  0  0  0  0  0  0  0  0
    9.9591    0.8966    0.0000 C   0  0  2  0  0  0  0  0  0  0  0  0
   10.9403    0.7033    0.0000 C   0  0  1  0  0  0  0  0  0  0  0  0
   11.5982    1.4564    0.0000 C   0  0  2  0  0  0  0  0  0  0  0  0
   10.2939    2.5960    0.0000 C   0  0  1  0  0  0  0  0  0  0  0  0
   11.2750    2.4028    0.0000 C   0  0  1  0  0  0  0  0  0  0  0  0
    9.9707    3.5423    0.0000 C   0  0  0  0  0  0  0  0  0  0  0  0
    4.8718   -1.0224    0.0000 H   0  0  0  0  0  0  0  0  0  0  0  0
    7.2278    1.1942    0.0000 H   0  0  0  0  0  0  0  0  0  0  0  0
    6.0240   -0.1813    0.0000 H   0  0  0  0  0  0  0  0  0  0  0  0
    5.8617   -0.8922    0.0000 H   0  0  0  0  0  0  0  0  0  0  0  0
    7.3702   -2.0073    0.0000 H   0  0  0  0  0  0  0  0  0  0  0  0
    6.8933   -3.4250    0.0000 H   0  0  0  0  0  0  0  0  0  0  0  0
    7.2313   -2.7018    0.0000 H   0  0  0  0  0  0  0  0  0  0  0  0
    5.2104    0.1689    0.0000 H   0  0  0  0  0  0  0  0  0  0  0  0
    4.9047   -3.8513    0.0000 H   0  0  0  0  0  0  0  0  0  0  0  0
    6.1766    0.9700    0.0000 H   0  0  0  0  0  0  0  0  0  0  0  0
    5.4800    0.6346    0.0000 H   0  0  0  0  0  0  0  0  0  0  0  0
    5.4158   -3.9602    0.0000 H   0  0  0  0  0  0  0  0  0  0  0  0
    6.2116   -3.8975    0.0000 H   0  0  0  0  0  0  0  0  0  0  0  0
    4.1739   -0.9755    0.0000 H   0  0  0  0  0  0  0  0  0  0  0  0
    3.3768   -1.0198    0.0000 H   0  0  0  0  0  0  0  0  0  0  0  0
    4.9309   -0.7994    0.0000 H   0  0  0  0  0  0  0  0  0  0  0  0
    4.1132   -0.4829    0.0000 H   0  0  0  0  0  0  0  0  0  0  0  0
    3.7967   -1.3006    0.0000 H   0  0  0  0  0  0  0  0  0  0  0  0
    8.5437    0.9151    0.0000 H   0  0  0  0  0  0  0  0  0  0  0  0
    7.7894    0.6574    0.0000 H   0  0  0  0  0  0  0  0  0  0  0  0
    8.1290   -2.6278    0.0000 H   0  0  0  0  0  0  0  0  0  0  0  0
    8.6557   -1.4249    0.0000 H   0  0  0  0  0  0  0  0  0  0  0  0
    4.2575    0.3987    0.0000 H   0  0  0  0  0  0  0  0  0  0  0  0
    4.2460   -5.1197    0.0000 H   0  0  0  0  0  0  0  0  0  0  0  0
    2.4682   -5.4407    0.0000 H   0  0  0  0  0  0  0  0  0  0  0  0
   10.1595    0.3099    0.0000 H   0  0  0  0  0  0  0  0  0  0  0  0
   10.5324    0.2364    0.0000 H   0  0  0  0  0  0  0  0  0  0  0  0
   12.0061    1.9233    0.0000 H   0  0  0  0  0  0  0  0  0  0  0  0
    9.6855    2.7158    0.0000 H   0  0  0  0  0  0  0  0  0  0  0  0
   11.8833    2.2829    0.0000 H   0  0  0  0  0  0  0  0  0  0  0  0
   11.8718   -0.3628    0.0000 H   0  0  0  0  0  0  0  0  0  0  0  0
    9.5817    4.0251    0.0000 H   0  0  0  0  0  0  0  0  0  0  0  0
    9.4276    3.2431    0.0000 H   0  0  0  0  0  0  0  0  0  0  0  0
   12.9873    1.7301    0.0000 H   0  0  0  0  0  0  0  0  0  0  0  0
   12.5413    3.0360    0.0000 H   0  0  0  0  0  0  0  0  0  0  0  0
   10.4282    4.8821    0.0000 H   0  0  0  0  0  0  0  0  0  0  0  0
 17  1  1  6  0  0  0
  1 58  1  0  0  0  0
 18  2  1  6  0  0  0
  2 59  1  0  0  0  0
 20  3  1  1  0  0  0
  3 60  1  0  0  0  0
  4 26  1  0  0  0  0
 32  4  1  6  0  0  0
  5 29  1  0  0  0  0
  5 31  1  0  0  0  0
  6 28  2  0  0  0  0
  7 32  1  0  0  0  0
  7 35  1  0  0  0  0
 33  8  1  1  0  0  0
  8 68  1  0  0  0  0
 34  9  1  6  0  0  0
  9 71  1  0  0  0  0
 36 10  1  1  0  0  0
 10 72  1  0  0  0  0
 11 37  1  0  0  0  0
 11 73  1  0  0  0  0
 12 13  1  0  0  0  0
 12 16  1  0  0  0  0
 12 17  1  0  0  0  0
 12 19  1  6  0  0  0
 13 15  1  0  0  0  0
 13 20  1  0  0  0  0
 13 38  1  1  0  0  0
 14 16  1  0  0  0  0
 14 18  1  0  0  0  0
 14 22  1  0  0  0  0
 14 39  1  6  0  0  0
 15 21  1  0  0  0  0
 15 24  1  0  0  0  0
 15 25  1  6  0  0  0
 16 40  1  0  0  0  0
 16 41  1  0  0  0  0
 17 18  1  0  0  0  0
 17 42  1  0  0  0  0
 18 26  1  0  0  0  0
 19 23  1  0  0  0  0
 19 43  1  0  0  0  0
 19 44  1  0  0  0  0
 20 22  1  0  0  0  0
 20 45  1  0  0  0  0
 21 23  1  0  0  0  0
 21 27  1  0  0  0  0
 21 46  1  1  0  0  0
 22 47  1  0  0  0  0
 22 48  1  0  0  0  0
 23 49  1  0  0  0  0
 23 50  1  0  0  0  0
 24 28  1  0  0  0  0
 24 51  1  0  0  0  0
 24 52  1  0  0  0  0
 25 53  1  0  0  0  0
 25 54  1  0  0  0  0
 25 55  1  0  0  0  0
 26 56  1  0  0  0  0
 26 57  1  0  0  0  0
 27 29  2  0  0  0  0
 27 30  1  0  0  0  0
 28 29  1  0  0  0  0
 30 31  2  0  0  0  0
 30 61  1  0  0  0  0
 31 62  1  0  0  0  0
 32 33  1  0  0  0  0
 32 63  1  0  0  0  0
 33 34  1  0  0  0  0
 33 64  1  0  0  0  0
 34 36  1  0  0  0  0
 34 65  1  0  0  0  0
 35 36  1  0  0  0  0
 35 37  1  6  0  0  0
 35 66  1  0  0  0  0
 36 67  1  0  0  0  0
 37 69  1  0  0  0  0
 37 70  1  0  0  0  0
M  END
> <PUBCHEM_COMPOUND_CID>
442057

> <PUBCHEM_COMPOUND_CANONICALIZED>
1

> <PUBCHEM_CACTVS_COMPLEXITY>
917

> <PUBCHEM_CACTVS_HBOND_ACCEPTOR>
11

> <PUBCHEM_CACTVS_HBOND_DONOR>
7

> <PUBCHEM_CACTVS_ROTATABLE_BOND>
4

> <PUBCHEM_CACTVS_SUBSKEYS>
AAADcfB4PAAAAAAAAAAAAAAAAAAAAaIAAAA0YMEABgAAAEjBgAAAGgAACAAAD1SwmAMyDIAABkCIAqhSgAICCAAkIAAIiAFGCMgdNjKENR6iWSClwBEPqYfI7vzvgAAAAAAAAADAAAYAADAAAYAADCAAAA==

> <PUBCHEM_IUPAC_INCHI>
InChI=1S/C26H36O11/c1-24-8-15(29)20-12(3-5-35-20)13(24)2-4-25-7-11(6-14(28)21(24)25)26(34,23(25)33)10-36-22-19(32)18(31)17(30)16(9-27)37-22/h3,5,11,13-14,16-19,21-23,27-28,30-34H,2,4,6-10H2,1H3/t11-,13-,14+,16-,17-,18+,19-,21+,22-,23-,24-,25-,26+/m1/s1

> <PUBCHEM_IUPAC_INCHIKEY>
SJBDVPKAXKLGPV-UKNYEQEFSA-N

> <PUBCHEM_XLOGP3_AA>
-1.2

> <PUBCHEM_EXACT_MASS>
524.225762

> <PUBCHEM_MOLECULAR_FORMULA>
C26H36O11

> <PUBCHEM_MOLECULAR_WEIGHT>
524.55744

> <PUBCHEM_OPENEYE_CAN_SMILES>
CC12CC(=O)C3=C(C1CCC45C2C(CC(C4)C(C5O)(COC6C(C(C(C(O6)CO)O)O)O)O)O)C=CO3

> <PUBCHEM_OPENEYE_ISO_SMILES>
C[C@@]12CC(=O)C3=C([C@H]1CC[C@]45[C@H]2[C@H](C[C@H](C4)[C@]([C@@H]5O)(CO[C@H]6[C@@H]([C@H]([C@@H]([C@H](O6)CO)O)O)O)O)O)C=CO3

> <PUBCHEM_CACTVS_TPSA>
190

> <PUBCHEM_MONOISOTOPIC_WEIGHT>
524.225762

> <PUBCHEM_TOTAL_CHARGE>
0

> <PUBCHEM_HEAVY_ATOM_COUNT>
37

> <PUBCHEM_ATOM_DEF_STEREO_COUNT>
13

> <PUBCHEM_ATOM_UDEF_STEREO_COUNT>
0

> <PUBCHEM_BOND_DEF_STEREO_COUNT>
0

> <PUBCHEM_BOND_UDEF_STEREO_COUNT>
0

> <PUBCHEM_ISOTOPIC_ATOM_COUNT>
0

> <PUBCHEM_COMPONENT_COUNT>
1

> <PUBCHEM_CACTVS_TAUTO_COUNT>
2

> <PUBCHEM_COORDINATE_TYPE>
1
5
255

> <PUBCHEM_BONDANNOTATIONS>
17  1  6
36  10  5
12  19  6
13  38  5
14  39  6
15  25  6
18  2  6
21  46  5
27  29  8
27  30  8
20  3  5
30  31  8
35  37  6
32  4  6
5  29  8
5  31  8
33  8  5
34  9  6

$$$$

