17395379
  -OEChem-06241222493D

 42 44  0     1  0  0  0  0  0999 V2000
    1.2026   -2.6425    0.1883 S   0  0  0  0  0  0  0  0  0  0  0  0
    3.1048    2.3292   -0.3739 S   0  0  0  0  0  0  0  0  0  0  0  0
   -1.0470   -1.0695    1.6831 O   0  0  0  0  0  0  0  0  0  0  0  0
   -3.5737    2.3531   -0.8551 O   0  0  0  0  0  0  0  0  0  0  0  0
   -1.8182   -0.6756   -0.4990 N   0  0  0  0  0  0  0  0  0  0  0  0
    1.2091   -1.2454   -2.0842 N   0  0  0  0  0  0  0  0  0  0  0  0
    2.0472    1.0036   -2.4287 N   0  0  0  0  0  0  0  0  0  0  0  0
   -3.0648    1.1778   -1.3945 N   0  0  0  0  0  0  0  0  0  0  0  0
   -0.6129   -2.7127   -0.0232 C   0  0  1  0  0  0  0  0  0  0  0  0
    2.1536   -0.0671   -0.2404 C   0  0  0  0  0  0  0  0  0  0  0  0
   -1.1656   -3.9284    0.7297 C   0  0  0  0  0  0  0  0  0  0  0  0
    2.6170    0.2635    1.0720 C   0  0  0  0  0  0  0  0  0  0  0  0
    1.5504   -1.2085   -0.7784 C   0  0  0  0  0  0  0  0  0  0  0  0
    3.1537    1.5310    1.1382 C   0  0  0  0  0  0  0  0  0  0  0  0
    2.3669    0.9863   -1.1200 C   0  0  0  0  0  0  0  0  0  0  0  0
   -1.1703   -1.3904    0.5040 C   0  0  0  0  0  0  0  0  0  0  0  0
   -2.6834   -4.0229    0.6200 C   0  0  0  0  0  0  0  0  0  0  0  0
    2.5511   -0.6214    2.2639 C   0  0  0  0  0  0  0  0  0  0  0  0
    3.7338    2.2368    2.3033 C   0  0  0  0  0  0  0  0  0  0  0  0
   -2.4654    0.5598   -0.3728 C   0  0  0  0  0  0  0  0  0  0  0  0
    1.4758   -0.1491   -2.8210 C   0  0  0  0  0  0  0  0  0  0  0  0
   -2.5627    1.2904    0.8241 C   0  0  0  0  0  0  0  0  0  0  0  0
   -3.2683    2.4087    0.4665 C   0  0  0  0  0  0  0  0  0  0  0  0
   -3.7337    3.5935    1.1979 C   0  0  0  0  0  0  0  0  0  0  0  0
   -0.8285   -2.8363   -1.0902 H   0  0  0  0  0  0  0  0  0  0  0  0
   -0.9036   -3.8808    1.7943 H   0  0  0  0  0  0  0  0  0  0  0  0
   -0.7279   -4.8502    0.3267 H   0  0  0  0  0  0  0  0  0  0  0  0
   -2.9992   -4.0575   -0.4275 H   0  0  0  0  0  0  0  0  0  0  0  0
   -3.1763   -3.1733    1.1024 H   0  0  0  0  0  0  0  0  0  0  0  0
   -3.0382   -4.9350    1.1107 H   0  0  0  0  0  0  0  0  0  0  0  0
    1.5158   -0.8662    2.5161 H   0  0  0  0  0  0  0  0  0  0  0  0
    2.9806   -0.1553    3.1565 H   0  0  0  0  0  0  0  0  0  0  0  0
    3.1193   -1.5421    2.0983 H   0  0  0  0  0  0  0  0  0  0  0  0
    2.9907    2.3316    3.1024 H   0  0  0  0  0  0  0  0  0  0  0  0
    4.0801    3.2467    2.0589 H   0  0  0  0  0  0  0  0  0  0  0  0
    4.5930    1.6835    2.6971 H   0  0  0  0  0  0  0  0  0  0  0  0
   -1.8480   -1.0583   -1.4402 H   0  0  0  0  0  0  0  0  0  0  0  0
    1.1912   -0.2037   -3.8659 H   0  0  0  0  0  0  0  0  0  0  0  0
   -2.1898    1.0704    1.8125 H   0  0  0  0  0  0  0  0  0  0  0  0
   -3.4418    3.5472    2.2517 H   0  0  0  0  0  0  0  0  0  0  0  0
   -4.8243    3.6707    1.1515 H   0  0  0  0  0  0  0  0  0  0  0  0
   -3.3055    4.5041    0.7677 H   0  0  0  0  0  0  0  0  0  0  0  0
  1  9  1  0  0  0  0
  1 13  1  0  0  0  0
  2 14  1  0  0  0  0
  2 15  1  0  0  0  0
  3 16  2  0  0  0  0
  4  8  1  0  0  0  0
  4 23  1  0  0  0  0
  5 16  1  0  0  0  0
  5 20  1  0  0  0  0
  5 37  1  0  0  0  0
  6 13  2  0  0  0  0
  6 21  1  0  0  0  0
  7 15  1  0  0  0  0
  7 21  2  0  0  0  0
  8 20  2  0  0  0  0
  9 11  1  0  0  0  0
  9 16  1  0  0  0  0
  9 25  1  0  0  0  0
 10 12  1  0  0  0  0
 10 13  1  0  0  0  0
 10 15  2  0  0  0  0
 11 17  1  0  0  0  0
 11 26  1  0  0  0  0
 11 27  1  0  0  0  0
 12 14  2  0  0  0  0
 12 18  1  0  0  0  0
 14 19  1  0  0  0  0
 17 28  1  0  0  0  0
 17 29  1  0  0  0  0
 17 30  1  0  0  0  0
 18 31  1  0  0  0  0
 18 32  1  0  0  0  0
 18 33  1  0  0  0  0
 19 34  1  0  0  0  0
 19 35  1  0  0  0  0
 19 36  1  0  0  0  0
 20 22  1  0  0  0  0
 21 38  1  0  0  0  0
 22 23  2  0  0  0  0
 22 39  1  0  0  0  0
 23 24  1  0  0  0  0
 24 40  1  0  0  0  0
 24 41  1  0  0  0  0
 24 42  1  0  0  0  0
M  END
> <PUBCHEM_COMPOUND_CID>
17395379

> <PUBCHEM_CONFORMER_RMSD>
0.8

> <PUBCHEM_CONFORMER_DIVERSEORDER>
1
39
40
16
55
61
58
56
22
79
68
82
51
50
9
15
31
11
83
91
29
88
24
2
43
33
80
18
71
4
46
95
74
66
89
49
81
30
23
44
94
54
59
3
65
6
5
52
75
70
69
87
72
85
77
13
78
38
41
27
42
36
26
34
84
35
7
32
20
10
19
86
67
57
45
90
28
62
17
76
37
63
93
21
25
92
53
64
47
73
14
12
60
48
8

> <PUBCHEM_MMFF94_PARTIAL_CHARGES>
24
1 -0.33
12 -0.18
13 0.41
14 -0.14
15 0.3
16 0.57
18 0.18
19 0.18
2 -0.08
20 0.35
21 0.47
22 -0.15
23 -0.04
24 0.18
3 -0.57
37 0.37
38 0.15
39 0.15
4 -0.02
5 -0.49
6 -0.62
7 -0.57
8 -0.41
9 0.29

> <PUBCHEM_EFFECTIVE_ROTOR_COUNT>
6

> <PUBCHEM_PHARMACOPHORE_FEATURES>
8
1 17 hydrophobe
1 3 acceptor
1 5 donor
1 6 acceptor
3 6 7 21 cation
5 2 10 12 14 15 rings
5 4 8 20 22 23 rings
6 6 7 10 13 15 21 rings

> <PUBCHEM_HEAVY_ATOM_COUNT>
24

> <PUBCHEM_ATOM_DEF_STEREO_COUNT>
0

> <PUBCHEM_ATOM_UDEF_STEREO_COUNT>
1

> <PUBCHEM_BOND_DEF_STEREO_COUNT>
0

> <PUBCHEM_BOND_UDEF_STEREO_COUNT>
0

> <PUBCHEM_ISOTOPIC_ATOM_COUNT>
0

> <PUBCHEM_COMPONENT_COUNT>
1

> <PUBCHEM_CACTVS_TAUTO_COUNT>
3

> <PUBCHEM_CONFORMER_ID>
01096EB300000001

> <PUBCHEM_MMFF94_ENERGY>
41.9788

> <PUBCHEM_FEATURE_SELFOVERLAP>
40.675

> <PUBCHEM_SHAPE_FINGERPRINT>
10165383 225 17617322538216288947
11221954 11 18113058216255664608
11582403 64 17098378326078587882
11640471 11 17774441577357546796
11725454 13 17314531239800338696
12160290 23 18129930184040793523
12633257 1 18126028158854393208
12788726 201 17984138154416554147
128993 33 17984950839411508149
13009979 54 17269487439756043642
13134695 92 17759244389547224406
13294875 104 18193549193459431262
13583140 156 17752498560115815080
13965767 371 17986407782465320648
14468879 13 17676777487206654797
14955137 171 17763170741570892675
15664445 248 17472955330060533519
17876694 64 17557155999197751102
17974551 9 18190770607686151418
17980427 23 17172963834529315130
18981168 100 18265872770336758857
20600515 1 17397252841991581754
20715895 44 17772781336828914831
21041028 32 16539043897660296691
21860390 5 17679318613292141788
22149856 69 18269825589041110041
23557571 272 18122896534536908943
238 59 16660079997234881492
350125 39 18269817831143282467
474 4 18194410115548714841
7808743 9 18196350572972525772
81228 2 18053355744496069571
90316 7 17761213211156435354
9981440 41 17823157669193219778

> <PUBCHEM_SHAPE_MULTIPOLES>
469.95
6.58
4.74
2.29
0.71
1.5
-0.76
-5.9
1.83
5.69
1.73
-2.09
-0.4
0.78

> <PUBCHEM_SHAPE_SELFOVERLAP>
977.293

> <PUBCHEM_SHAPE_VOLUME>
271.3

> <PUBCHEM_COORDINATE_TYPE>
2
5
10

$$$$

