17396016
  -OEChem-06241222533D

 37 39  0     0  0  0  0  0  0999 V2000
    6.2926    2.0881   -0.3930 Br  0  0  0  0  0  0  0  0  0  0  0  0
    1.1480   -1.7923   -0.0055 S   0  0  0  0  0  0  0  0  0  0  0  0
   -3.4180   -2.2284    0.5525 S   0  0  0  0  0  0  0  0  0  0  0  0
    0.9393   -2.0920    1.3987 O   0  0  0  0  0  0  0  0  0  0  0  0
    1.3498   -2.8736   -0.9507 O   0  0  0  0  0  0  0  0  0  0  0  0
   -0.1156   -0.7507   -0.5698 N   0  0  0  0  0  0  0  0  0  0  0  0
   -4.8463    0.0415    0.3748 N   0  0  0  0  0  0  0  0  0  0  0  0
   -1.8003   -2.2447    0.1717 N   0  0  0  0  0  0  0  0  0  0  0  0
   -2.4598   -0.0044   -0.1818 C   0  0  0  0  0  0  0  0  0  0  0  0
   -1.4471   -1.0132   -0.1927 C   0  0  0  0  0  0  0  0  0  0  0  0
   -2.4794    1.3678   -0.4899 C   0  0  0  0  0  0  0  0  0  0  0  0
    2.5561   -0.7241   -0.0980 C   0  0  0  0  0  0  0  0  0  0  0  0
   -3.6576   -0.5739    0.2325 C   0  0  0  0  0  0  0  0  0  0  0  0
   -3.6841    2.0554   -0.3604 C   0  0  0  0  0  0  0  0  0  0  0  0
    2.9078    0.0636    0.9982 C   0  0  0  0  0  0  0  0  0  0  0  0
   -4.8041    1.3569    0.0648 C   0  0  0  0  0  0  0  0  0  0  0  0
    4.0178    0.9054    0.9247 C   0  0  0  0  0  0  0  0  0  0  0  0
    3.3144   -0.6701   -1.2676 C   0  0  0  0  0  0  0  0  0  0  0  0
   -1.2764    2.1283   -0.9488 C   0  0  0  0  0  0  0  0  0  0  0  0
    4.7760    0.9592   -0.2450 C   0  0  0  0  0  0  0  0  0  0  0  0
    4.4242    0.1715   -1.3411 C   0  0  0  0  0  0  0  0  0  0  0  0
   -6.0947    2.0988    0.2028 C   0  0  0  0  0  0  0  0  0  0  0  0
    4.3572    1.7308    2.1237 C   0  0  0  0  0  0  0  0  0  0  0  0
    0.1502    0.1988   -0.8412 H   0  0  0  0  0  0  0  0  0  0  0  0
   -3.7503    3.1157   -0.5862 H   0  0  0  0  0  0  0  0  0  0  0  0
    2.3142    0.0296    1.9079 H   0  0  0  0  0  0  0  0  0  0  0  0
    3.0535   -1.2703   -2.1347 H   0  0  0  0  0  0  0  0  0  0  0  0
   -1.5098    3.1827   -1.1347 H   0  0  0  0  0  0  0  0  0  0  0  0
   -0.8979    1.7167   -1.8895 H   0  0  0  0  0  0  0  0  0  0  0  0
   -0.4940    2.1068   -0.1837 H   0  0  0  0  0  0  0  0  0  0  0  0
    5.0020    0.2014   -2.2614 H   0  0  0  0  0  0  0  0  0  0  0  0
   -5.9927    2.9074    0.9337 H   0  0  0  0  0  0  0  0  0  0  0  0
   -6.8962    1.4352    0.5440 H   0  0  0  0  0  0  0  0  0  0  0  0
   -6.3953    2.5222   -0.7609 H   0  0  0  0  0  0  0  0  0  0  0  0
    3.6561    1.5601    2.9483 H   0  0  0  0  0  0  0  0  0  0  0  0
    4.3125    2.7982    1.8836 H   0  0  0  0  0  0  0  0  0  0  0  0
    5.3552    1.4786    2.4971 H   0  0  0  0  0  0  0  0  0  0  0  0
  1 20  1  0  0  0  0
  2  4  2  0  0  0  0
  2  5  2  0  0  0  0
  2  6  1  0  0  0  0
  2 12  1  0  0  0  0
  3  8  1  0  0  0  0
  3 13  1  0  0  0  0
  6 10  1  0  0  0  0
  6 24  1  0  0  0  0
  7 13  1  0  0  0  0
  7 16  2  0  0  0  0
  8 10  2  0  0  0  0
  9 10  1  0  0  0  0
  9 11  1  0  0  0  0
  9 13  2  0  0  0  0
 11 14  2  0  0  0  0
 11 19  1  0  0  0  0
 12 15  2  0  0  0  0
 12 18  1  0  0  0  0
 14 16  1  0  0  0  0
 14 25  1  0  0  0  0
 15 17  1  0  0  0  0
 15 26  1  0  0  0  0
 16 22  1  0  0  0  0
 17 20  2  0  0  0  0
 17 23  1  0  0  0  0
 18 21  2  0  0  0  0
 18 27  1  0  0  0  0
 19 28  1  0  0  0  0
 19 29  1  0  0  0  0
 19 30  1  0  0  0  0
 20 21  1  0  0  0  0
 21 31  1  0  0  0  0
 22 32  1  0  0  0  0
 22 33  1  0  0  0  0
 22 34  1  0  0  0  0
 23 35  1  0  0  0  0
 23 36  1  0  0  0  0
 23 37  1  0  0  0  0
M  END
> <PUBCHEM_COMPOUND_CID>
17396016

> <PUBCHEM_CONFORMER_RMSD>
0.6

> <PUBCHEM_CONFORMER_DIVERSEORDER>
5
3
36
21
29
18
24
41
4
38
34
44
13
40
32
11
20
10
27
35
14
25
23
28
12
19
39
46
7
1
33
37
9
22
43
8
30
2
45
42
6
26
31
15
17
16

> <PUBCHEM_MMFF94_PARTIAL_CHARGES>
27
1 -0.11
10 0.43
11 -0.14
12 -0.01
13 0.3
14 -0.15
15 -0.15
16 0.17
17 -0.14
18 -0.15
19 0.14
2 1.45
20 0.11
21 -0.15
22 0.14
23 0.14
24 0.42
25 0.15
26 0.15
27 0.15
3 0.18
31 0.15
4 -0.65
5 -0.65
6 -0.7
7 -0.57
8 -0.51

> <PUBCHEM_EFFECTIVE_ROTOR_COUNT>
3

> <PUBCHEM_PHARMACOPHORE_FEATURES>
9
1 1 hydrophobe
1 4 acceptor
1 5 acceptor
1 6 donor
1 7 acceptor
1 8 acceptor
5 3 8 9 10 13 rings
6 12 15 17 18 20 21 rings
6 7 9 11 13 14 16 rings

> <PUBCHEM_HEAVY_ATOM_COUNT>
23

> <PUBCHEM_ATOM_DEF_STEREO_COUNT>
0

> <PUBCHEM_ATOM_UDEF_STEREO_COUNT>
0

> <PUBCHEM_BOND_DEF_STEREO_COUNT>
0

> <PUBCHEM_BOND_UDEF_STEREO_COUNT>
0

> <PUBCHEM_ISOTOPIC_ATOM_COUNT>
0

> <PUBCHEM_COMPONENT_COUNT>
1

> <PUBCHEM_CACTVS_TAUTO_COUNT>
2

> <PUBCHEM_CONFORMER_ID>
0109713000000005

> <PUBCHEM_MMFF94_ENERGY>
40.9291

> <PUBCHEM_FEATURE_SELFOVERLAP>
45.762

> <PUBCHEM_SHAPE_FINGERPRINT>
10319926 262 18339935852800380882
10411042 1 17619906158909877571
10498660 4 18409166627622087272
10670039 82 18273208686796342980
11112241 14 16879937160887452033
11595378 159 17203613730339289748
11720765 8 17460310186949218694
12236239 1 17417815002895883644
12390115 104 18335972112896522547
12403259 415 18041841697637373624
12596602 18 16845013399404039016
12633257 1 17060058120809627574
12730499 353 18260540151769392398
12788726 201 16912539798529030994
12892183 10 14692585329175955022
13402501 40 18334859394434741480
14251757 17 18113053827062585736
14341114 328 17703795794967660192
14528608 73 18113344128307696805
14739800 52 18339657701674300000
17980427 23 17917146096204328646
19784866 170 18413385436615977871
20642791 178 17987783112941069165
21033648 29 18187652345517813896
21223535 225 16588288519602704000
21756936 100 18339368440375711030
221357 26 17531242907113484744
23227448 37 18410012100676986693
23557571 272 18337380548426300118
23559900 14 18340196518006557478
2838139 119 18188497857206637724
2916195 48 18263363599525378576
341906 21 18271531918341426456
34797466 226 17312822697800086501
34934 24 18342176691720155287
350125 39 18198904889113484238
3680242 22 18131068268374287656
469060 322 18058149658116018235
474 4 17632566158781268942
5104073 3 18273210932574050683
6442390 28 18410009914707931766
7064713 232 18342740714835314484
7808743 9 18340768127120020484
960060 61 4678813961046728304
9981440 41 18131346388807694794

> <PUBCHEM_SHAPE_MULTIPOLES>
460.29
13.81
2.95
1.25
2.73
0.6
-0.34
-10.46
-0.81
-1.51
0.02
1.72
-0.16
1.05

> <PUBCHEM_SHAPE_SELFOVERLAP>
957.601

> <PUBCHEM_SHAPE_VOLUME>
269.2

> <PUBCHEM_COORDINATE_TYPE>
2
5
10

$$$$

