73053
  -OEChem-07051212572D

 87 92  0     0  0  0  0  0  0999 V2000
    9.8678   -0.5708    0.0000 O   0  0  0  0  0  0  0  0  0  0  0  0
    4.6901    3.4836    0.0000 O   0  0  0  0  0  0  0  0  0  0  0  0
    4.6901    5.4836    0.0000 O   0  0  0  0  0  0  0  0  0  0  0  0
    2.8774   -3.4844    0.0000 O   0  0  0  0  0  0  0  0  0  0  0  0
    2.8311   -5.4839    0.0000 O   0  0  0  0  0  0  0  0  0  0  0  0
   11.6113    0.4091    0.0000 O   0  0  0  0  0  0  0  0  0  0  0  0
    9.0882    3.9628    0.0000 N   0  3  0  0  0  0  0  0  0  0  0  0
    7.2632   -4.0652    0.0000 N   0  3  0  0  0  0  0  0  0  0  0  0
    8.1821    3.4490    0.0000 C   0  0  0  0  0  0  0  0  0  0  0  0
    6.3692   -3.5305    0.0000 C   0  0  0  0  0  0  0  0  0  0  0  0
    7.2882    3.9836    0.0000 C   0  0  0  0  0  0  0  0  0  0  0  0
    8.1706    2.4490    0.0000 C   0  0  0  0  0  0  0  0  0  0  0  0
    5.4632   -4.0444    0.0000 C   0  0  0  0  0  0  0  0  0  0  0  0
    6.3808   -2.5306    0.0000 C   0  0  0  0  0  0  0  0  0  0  0  0
    7.2882    4.9836    0.0000 C   0  0  0  0  0  0  0  0  0  0  0  0
    5.4400   -5.0441    0.0000 C   0  0  0  0  0  0  0  0  0  0  0  0
    9.0307    1.9391    0.0000 C   0  0  0  0  0  0  0  0  0  0  0  0
    7.2526   -2.0406    0.0000 C   0  0  0  0  0  0  0  0  0  0  0  0
    6.4222    3.4836    0.0000 C   0  0  0  0  0  0  0  0  0  0  0  0
    9.0882    5.0044    0.0000 C   0  0  0  0  0  0  0  0  0  0  0  0
    8.1821    5.5183    0.0000 C   0  0  0  0  0  0  0  0  0  0  0  0
    4.6089   -3.5245    0.0000 C   0  0  0  0  0  0  0  0  0  0  0  0
    7.2391   -5.1066    0.0000 C   0  0  0  0  0  0  0  0  0  0  0  0
    6.3214   -5.5993    0.0000 C   0  0  0  0  0  0  0  0  0  0  0  0
    6.4222    5.4836    0.0000 C   0  0  0  0  0  0  0  0  0  0  0  0
    4.5627   -5.5240    0.0000 C   0  0  0  0  0  0  0  0  0  0  0  0
    5.5561    3.9836    0.0000 C   0  0  0  0  0  0  0  0  0  0  0  0
    9.9523    3.4595    0.0000 C   0  0  0  0  0  0  0  0  0  0  0  0
    9.0192    0.9391    0.0000 C   0  0  0  0  0  0  0  0  0  0  0  0
    5.5561    4.9836    0.0000 C   0  0  0  0  0  0  0  0  0  0  0  0
    3.7316   -4.0043    0.0000 C   0  0  0  0  0  0  0  0  0  0  0  0
    8.1387   -3.5820    0.0000 C   0  0  0  0  0  0  0  0  0  0  0  0
    9.9025    2.4290    0.0000 C   0  0  0  0  0  0  0  0  0  0  0  0
    3.7085   -5.0041    0.0000 C   0  0  0  0  0  0  0  0  0  0  0  0
    9.8794    0.4291    0.0000 C   0  0  0  0  0  0  0  0  0  0  0  0
    7.2641   -1.0407    0.0000 C   0  0  0  0  0  0  0  0  0  0  0  0
    8.1127   -2.5506    0.0000 C   0  0  0  0  0  0  0  0  0  0  0  0
    8.9960   -1.0607    0.0000 C   0  0  0  0  0  0  0  0  0  0  0  0
   10.7511    0.9191    0.0000 C   0  0  0  0  0  0  0  0  0  0  0  0
   10.7627    1.9190    0.0000 C   0  0  0  0  0  0  0  0  0  0  0  0
    8.1359   -0.5508    0.0000 C   0  0  0  0  0  0  0  0  0  0  0  0
    8.9845   -2.0607    0.0000 C   0  0  0  0  0  0  0  0  0  0  0  0
    4.6901    2.4836    0.0000 C   0  0  0  0  0  0  0  0  0  0  0  0
    4.6901    6.4836    0.0000 C   0  0  0  0  0  0  0  0  0  0  0  0
    2.0000   -3.9643    0.0000 C   0  0  0  0  0  0  0  0  0  0  0  0
    2.8080   -6.4836    0.0000 C   0  0  0  0  0  0  0  0  0  0  0  0
   12.4830    0.8991    0.0000 C   0  0  0  0  0  0  0  0  0  0  0  0
    7.5613    2.5638    0.0000 H   0  0  0  0  0  0  0  0  0  0  0  0
    7.9518    1.8689    0.0000 H   0  0  0  0  0  0  0  0  0  0  0  0
    6.1755   -1.9456    0.0000 H   0  0  0  0  0  0  0  0  0  0  0  0
    5.7690   -2.6312    0.0000 H   0  0  0  0  0  0  0  0  0  0  0  0
    6.4222    2.8636    0.0000 H   0  0  0  0  0  0  0  0  0  0  0  0
    9.6239    5.3165    0.0000 H   0  0  0  0  0  0  0  0  0  0  0  0
    8.1750    6.1382    0.0000 H   0  0  0  0  0  0  0  0  0  0  0  0
    4.6233   -2.9046    0.0000 H   0  0  0  0  0  0  0  0  0  0  0  0
    7.7675   -5.4309    0.0000 H   0  0  0  0  0  0  0  0  0  0  0  0
    6.2999   -6.2189    0.0000 H   0  0  0  0  0  0  0  0  0  0  0  0
    6.4222    6.1036    0.0000 H   0  0  0  0  0  0  0  0  0  0  0  0
    4.5484   -6.1438    0.0000 H   0  0  0  0  0  0  0  0  0  0  0  0
    9.6402    2.9237    0.0000 H   0  0  0  0  0  0  0  0  0  0  0  0
   10.4880    3.1474    0.0000 H   0  0  0  0  0  0  0  0  0  0  0  0
   10.2643    3.9952    0.0000 H   0  0  0  0  0  0  0  0  0  0  0  0
    8.4787    0.6354    0.0000 H   0  0  0  0  0  0  0  0  0  0  0  0
    8.4383   -4.1248    0.0000 H   0  0  0  0  0  0  0  0  0  0  0  0
    8.6815   -3.2824    0.0000 H   0  0  0  0  0  0  0  0  0  0  0  0
    7.8391   -3.0392    0.0000 H   0  0  0  0  0  0  0  0  0  0  0  0
    9.9097    3.0490    0.0000 H   0  0  0  0  0  0  0  0  0  0  0  0
    6.7308   -0.7245    0.0000 H   0  0  0  0  0  0  0  0  0  0  0  0
    8.1056   -3.1706    0.0000 H   0  0  0  0  0  0  0  0  0  0  0  0
   11.3032    2.2228    0.0000 H   0  0  0  0  0  0  0  0  0  0  0  0
    8.1430    0.0692    0.0000 H   0  0  0  0  0  0  0  0  0  0  0  0
    9.5178   -2.3769    0.0000 H   0  0  0  0  0  0  0  0  0  0  0  0
    4.0701    2.4836    0.0000 H   0  0  0  0  0  0  0  0  0  0  0  0
    4.6901    1.8636    0.0000 H   0  0  0  0  0  0  0  0  0  0  0  0
    5.3101    2.4836    0.0000 H   0  0  0  0  0  0  0  0  0  0  0  0
    5.3101    6.4836    0.0000 H   0  0  0  0  0  0  0  0  0  0  0  0
    4.6901    7.1036    0.0000 H   0  0  0  0  0  0  0  0  0  0  0  0
    4.0701    6.4836    0.0000 H   0  0  0  0  0  0  0  0  0  0  0  0
    1.7025   -3.4203    0.0000 H   0  0  0  0  0  0  0  0  0  0  0  0
    1.4560   -4.2618    0.0000 H   0  0  0  0  0  0  0  0  0  0  0  0
    2.2975   -4.5082    0.0000 H   0  0  0  0  0  0  0  0  0  0  0  0
    2.1881   -6.4693    0.0000 H   0  0  0  0  0  0  0  0  0  0  0  0
    2.7936   -7.1035    0.0000 H   0  0  0  0  0  0  0  0  0  0  0  0
    3.4278   -6.4980    0.0000 H   0  0  0  0  0  0  0  0  0  0  0  0
   12.7868    0.3586    0.0000 H   0  0  0  0  0  0  0  0  0  0  0  0
   13.0235    1.2028    0.0000 H   0  0  0  0  0  0  0  0  0  0  0  0
   12.1793    1.4396    0.0000 H   0  0  0  0  0  0  0  0  0  0  0  0
  1 35  1  0  0  0  0
  1 38  1  0  0  0  0
  2 27  1  0  0  0  0
  2 43  1  0  0  0  0
  3 30  1  0  0  0  0
  3 44  1  0  0  0  0
  4 31  1  0  0  0  0
  4 45  1  0  0  0  0
  5 34  1  0  0  0  0
  5 46  1  0  0  0  0
  6 39  1  0  0  0  0
  6 47  1  0  0  0  0
  7  9  2  0  0  0  0
  7 20  1  0  0  0  0
  7 28  1  0  0  0  0
  8 10  2  0  0  0  0
  8 23  1  0  0  0  0
  8 32  1  0  0  0  0
  9 11  1  0  0  0  0
  9 12  1  0  0  0  0
 10 13  1  0  0  0  0
 10 14  1  0  0  0  0
 11 15  1  0  0  0  0
 11 19  2  0  0  0  0
 12 17  1  0  0  0  0
 12 48  1  0  0  0  0
 12 49  1  0  0  0  0
 13 16  1  0  0  0  0
 13 22  2  0  0  0  0
 14 18  1  0  0  0  0
 14 50  1  0  0  0  0
 14 51  1  0  0  0  0
 15 21  1  0  0  0  0
 15 25  2  0  0  0  0
 16 24  1  0  0  0  0
 16 26  2  0  0  0  0
 17 29  2  0  0  0  0
 17 33  1  0  0  0  0
 18 36  2  0  0  0  0
 18 37  1  0  0  0  0
 19 27  1  0  0  0  0
 19 52  1  0  0  0  0
 20 21  2  0  0  0  0
 20 53  1  0  0  0  0
 21 54  1  0  0  0  0
 22 31  1  0  0  0  0
 22 55  1  0  0  0  0
 23 24  2  0  0  0  0
 23 56  1  0  0  0  0
 24 57  1  0  0  0  0
 25 30  1  0  0  0  0
 25 58  1  0  0  0  0
 26 34  1  0  0  0  0
 26 59  1  0  0  0  0
 27 30  2  0  0  0  0
 28 60  1  0  0  0  0
 28 61  1  0  0  0  0
 28 62  1  0  0  0  0
 29 35  1  0  0  0  0
 29 63  1  0  0  0  0
 31 34  2  0  0  0  0
 32 64  1  0  0  0  0
 32 65  1  0  0  0  0
 32 66  1  0  0  0  0
 33 40  2  0  0  0  0
 33 67  1  0  0  0  0
 35 39  2  0  0  0  0
 36 41  1  0  0  0  0
 36 68  1  0  0  0  0
 37 42  2  0  0  0  0
 37 69  1  0  0  0  0
 38 41  2  0  0  0  0
 38 42  1  0  0  0  0
 39 40  1  0  0  0  0
 40 70  1  0  0  0  0
 41 71  1  0  0  0  0
 42 72  1  0  0  0  0
 43 73  1  0  0  0  0
 43 74  1  0  0  0  0
 43 75  1  0  0  0  0
 44 76  1  0  0  0  0
 44 77  1  0  0  0  0
 44 78  1  0  0  0  0
 45 79  1  0  0  0  0
 45 80  1  0  0  0  0
 45 81  1  0  0  0  0
 46 82  1  0  0  0  0
 46 83  1  0  0  0  0
 46 84  1  0  0  0  0
 47 85  1  0  0  0  0
 47 86  1  0  0  0  0
 47 87  1  0  0  0  0
M  CHG  2   7   1   8   1
M  END
> <PUBCHEM_COMPOUND_CID>
73053

> <PUBCHEM_COMPOUND_CANONICALIZED>
1

> <PUBCHEM_CACTVS_COMPLEXITY>
948

> <PUBCHEM_CACTVS_HBOND_ACCEPTOR>
6

> <PUBCHEM_CACTVS_HBOND_DONOR>
0

> <PUBCHEM_CACTVS_ROTATABLE_BOND>
11

> <PUBCHEM_CACTVS_SUBSKEYS>
AAADcfB/OAAAAAAAAAAAAAAAAAAAAAAAAAA8eMGCAAAAAACx/gAAHgAAAAAADAzBngY+htMMFACgAzRnRACCiCAxIiAI2CA+7JgNJuLEsZuGOCrkwBHK6Aew0PMOoAABAAAQQABAAAIAACCAAAAAAAAAAA==

> <PUBCHEM_IUPAC_OPENEYE_NAME>
1-[[4-[5-[(6,7-dimethoxy-2-methyl-isoquinolin-2-ium-1-yl)methyl]-2-methoxy-phenoxy]phenyl]methyl]-6,7-dimethoxy-2-methyl-isoquinolin-2-ium

> <PUBCHEM_IUPAC_CAS_NAME>
1-[[4-[5-[(6,7-dimethoxy-2-methyl-1-isoquinolin-2-iumyl)methyl]-2-methoxyphenoxy]phenyl]methyl]-6,7-dimethoxy-2-methylisoquinolin-2-ium

> <PUBCHEM_IUPAC_NAME>
1-[[4-[5-[(6,7-dimethoxy-2-methylisoquinolin-2-ium-1-yl)methyl]-2-methoxyphenoxy]phenyl]methyl]-6,7-dimethoxy-2-methylisoquinolin-2-ium

> <PUBCHEM_IUPAC_SYSTEMATIC_NAME>
1-[[4-[5-[(6,7-dimethoxy-2-methyl-isoquinolin-2-ium-1-yl)methyl]-2-methoxy-phenoxy]phenyl]methyl]-6,7-dimethoxy-2-methyl-isoquinolin-2-ium

> <PUBCHEM_IUPAC_TRADITIONAL_NAME>
1-[4-[5-[(6,7-dimethoxy-2-methyl-isoquinolin-2-ium-1-yl)methyl]-2-methoxy-phenoxy]benzyl]-6,7-dimethoxy-2-methyl-isoquinolin-2-ium

> <PUBCHEM_IUPAC_INCHI>
InChI=1S/C39H40N2O6/c1-40-16-14-27-21-35(43-4)37(45-6)23-30(27)32(40)18-25-8-11-29(12-9-25)47-39-20-26(10-13-34(39)42-3)19-33-31-24-38(46-7)36(44-5)22-28(31)15-17-41(33)2/h8-17,20-24H,18-19H2,1-7H3/q+2

> <PUBCHEM_IUPAC_INCHIKEY>
IWKHGZDMTOKGQP-UHFFFAOYSA-N

> <PUBCHEM_XLOGP3_AA>
7.8

> <PUBCHEM_EXACT_MASS>
632.288637

> <PUBCHEM_MOLECULAR_FORMULA>
C39H40N2O6+2

> <PUBCHEM_MOLECULAR_WEIGHT>
632.7447

> <PUBCHEM_OPENEYE_CAN_SMILES>
C[N+]1=C(C2=CC(=C(C=C2C=C1)OC)OC)CC3=CC=C(C=C3)OC4=C(C=CC(=C4)CC5=[N+](C=CC6=CC(=C(C=C65)OC)OC)C)OC

> <PUBCHEM_OPENEYE_ISO_SMILES>
C[N+]1=C(C2=CC(=C(C=C2C=C1)OC)OC)CC3=CC=C(C=C3)OC4=C(C=CC(=C4)CC5=[N+](C=CC6=CC(=C(C=C65)OC)OC)C)OC

> <PUBCHEM_CACTVS_TPSA>
63.1

> <PUBCHEM_MONOISOTOPIC_WEIGHT>
632.288637

> <PUBCHEM_TOTAL_CHARGE>
2

> <PUBCHEM_HEAVY_ATOM_COUNT>
47

> <PUBCHEM_ATOM_DEF_STEREO_COUNT>
0

> <PUBCHEM_ATOM_UDEF_STEREO_COUNT>
0

> <PUBCHEM_BOND_DEF_STEREO_COUNT>
0

> <PUBCHEM_BOND_UDEF_STEREO_COUNT>
0

> <PUBCHEM_ISOTOPIC_ATOM_COUNT>
0

> <PUBCHEM_COMPONENT_COUNT>
1

> <PUBCHEM_CACTVS_TAUTO_COUNT>
1

> <PUBCHEM_COORDINATE_TYPE>
1
5
255

> <PUBCHEM_BONDANNOTATIONS>
10  13  8
11  15  8
11  19  8
13  16  8
13  22  8
15  21  8
15  25  8
16  24  8
16  26  8
17  29  8
17  33  8
18  36  8
18  37  8
19  27  8
20  21  8
22  31  8
23  24  8
25  30  8
26  34  8
27  30  8
29  35  8
31  34  8
33  40  8
35  39  8
36  41  8
37  42  8
38  41  8
38  42  8
39  40  8
7  20  8
7  9  8
8  10  8
8  23  8
9  11  8

$$$$

