683563
  -OEChem-07051213083D

 16 16  0     0  0  0  0  0  0999 V2000
    2.7457   -1.1899   -0.4290 S   0  0  0  0  0  0  0  0  0  0  0  0
    2.2868    1.2782    0.4388 N   0  0  0  0  0  0  0  0  0  0  0  0
    0.2682    0.0248    0.0084 C   0  0  0  0  0  0  0  0  0  0  0  0
   -0.4713    1.1841   -0.2255 C   0  0  0  0  0  0  0  0  0  0  0  0
   -0.3861   -1.1873    0.2284 C   0  0  0  0  0  0  0  0  0  0  0  0
   -1.8652    1.1314   -0.2394 C   0  0  0  0  0  0  0  0  0  0  0  0
   -1.7799   -1.2401    0.2144 C   0  0  0  0  0  0  0  0  0  0  0  0
   -2.5194   -0.0807   -0.0195 C   0  0  0  0  0  0  0  0  0  0  0  0
    1.7213    0.0795    0.0233 C   0  0  0  0  0  0  0  0  0  0  0  0
    0.0014    2.1410   -0.4276 H   0  0  0  0  0  0  0  0  0  0  0  0
    0.1495   -2.1093    0.4348 H   0  0  0  0  0  0  0  0  0  0  0  0
   -2.4414    2.0327   -0.4274 H   0  0  0  0  0  0  0  0  0  0  0  0
   -2.2901   -2.1828    0.3900 H   0  0  0  0  0  0  0  0  0  0  0  0
   -3.6047   -0.1218   -0.0307 H   0  0  0  0  0  0  0  0  0  0  0  0
    1.7484    2.0731    0.7660 H   0  0  0  0  0  0  0  0  0  0  0  0
    3.2957    1.3857    0.4635 H   0  0  0  0  0  0  0  0  0  0  0  0
  1  9  2  0  0  0  0
  2  9  1  0  0  0  0
  2 15  1  0  0  0  0
  2 16  1  0  0  0  0
  3  4  2  0  0  0  0
  3  5  1  0  0  0  0
  3  9  1  0  0  0  0
  4  6  1  0  0  0  0
  4 10  1  0  0  0  0
  5  7  2  0  0  0  0
  5 11  1  0  0  0  0
  6  8  2  0  0  0  0
  6 12  1  0  0  0  0
  7  8  1  0  0  0  0
  7 13  1  0  0  0  0
  8 14  1  0  0  0  0
M  END
> <PUBCHEM_COMPOUND_CID>
683563

> <PUBCHEM_CONFORMER_RMSD>
0.4

> <PUBCHEM_CONFORMER_DIVERSEORDER>
1
2
3

> <PUBCHEM_MMFF94_PARTIAL_CHARGES>
16
1 -0.38
10 0.15
11 0.15
12 0.15
13 0.15
14 0.15
15 0.37
16 0.37
2 -0.8
3 0.09
4 -0.15
5 -0.15
6 -0.15
7 -0.15
8 -0.15
9 0.35

> <PUBCHEM_EFFECTIVE_ROTOR_COUNT>
1

> <PUBCHEM_PHARMACOPHORE_FEATURES>
2
1 1 acceptor
6 3 4 5 6 7 8 rings

> <PUBCHEM_HEAVY_ATOM_COUNT>
9

> <PUBCHEM_ATOM_DEF_STEREO_COUNT>
0

> <PUBCHEM_ATOM_UDEF_STEREO_COUNT>
0

> <PUBCHEM_BOND_DEF_STEREO_COUNT>
0

> <PUBCHEM_BOND_UDEF_STEREO_COUNT>
0

> <PUBCHEM_ISOTOPIC_ATOM_COUNT>
0

> <PUBCHEM_COMPONENT_COUNT>
1

> <PUBCHEM_CACTVS_TAUTO_COUNT>
2

> <PUBCHEM_CONFORMER_ID>
000A6E2B00000001

> <PUBCHEM_MMFF94_ENERGY>
27.6799

> <PUBCHEM_FEATURE_SELFOVERLAP>
10.148

> <PUBCHEM_SHAPE_FINGERPRINT>
10857977 72 18197787608804708001
12524768 44 18339645546631956486
12716758 59 18342459274270803635
12897270 3 18412545426711675302
12932764 1 17775006825012859400
14325111 11 18410856581151711741
16945 1 18267026231075191379
19973954 147 18409446981617673360
20201158 50 18261672683432703366
20645464 45 18335994107445111864
21040471 1 18271247243424286573
23552423 10 18201997711900045286
2748010 2 18412546491889860495
29004967 10 18265892467019854946
369184 2 18186803569242231923
5084963 1 18059569234616471820

> <PUBCHEM_SHAPE_MULTIPOLES>
184.08
3.9
1.56
0.68
1.33
0.02
-0.02
-0.41
-0.24
0.05
0.05
0.09
-0.01
0.4

> <PUBCHEM_SHAPE_SELFOVERLAP>
370.851

> <PUBCHEM_SHAPE_VOLUME>
109.1

> <PUBCHEM_COORDINATE_TYPE>
2
5
10

$$$$

