5280534
  -OEChem-07051212472D

 53 53  0     1  0  0  0  0  0999 V2000
    9.9651    3.6830    0.0000 O   0  0  0  0  0  0  0  0  0  0  0  0
   13.9292    2.8170    0.0000 O   0  0  0  0  0  0  0  0  0  0  0  0
   13.0632    1.3170    0.0000 O   0  0  0  0  0  0  0  0  0  0  0  0
   10.4651    2.8170    0.0000 C   0  0  1  0  0  0  0  0  0  0  0  0
    9.4651    2.8170    0.0000 C   0  0  1  0  0  0  0  0  0  0  0  0
   11.3312    2.3170    0.0000 C   0  0  0  0  0  0  0  0  0  0  0  0
    8.5991    2.3170    0.0000 C   0  0  0  0  0  0  0  0  0  0  0  0
   12.1972    2.8170    0.0000 C   0  0  0  0  0  0  0  0  0  0  0  0
    7.7331    2.8170    0.0000 C   0  0  0  0  0  0  0  0  0  0  0  0
   13.0632    2.3170    0.0000 C   0  0  0  0  0  0  0  0  0  0  0  0
    6.8671    2.3170    0.0000 C   0  0  0  0  0  0  0  0  0  0  0  0
    6.0010    2.8170    0.0000 C   0  0  0  0  0  0  0  0  0  0  0  0
    3.4030   -1.6830    0.0000 C   0  0  0  0  0  0  0  0  0  0  0  0
    4.2690   -2.1830    0.0000 C   0  0  0  0  0  0  0  0  0  0  0  0
    3.4030   -0.6830    0.0000 C   0  0  0  0  0  0  0  0  0  0  0  0
    4.2690   -3.1830    0.0000 C   0  0  0  0  0  0  0  0  0  0  0  0
    5.1350    2.3170    0.0000 C   0  0  0  0  0  0  0  0  0  0  0  0
    2.5369   -0.1830    0.0000 C   0  0  0  0  0  0  0  0  0  0  0  0
    5.1350   -3.6830    0.0000 C   0  0  0  0  0  0  0  0  0  0  0  0
    2.5369    0.8170    0.0000 C   0  0  0  0  0  0  0  0  0  0  0  0
    3.4030    1.3170    0.0000 C   0  0  0  0  0  0  0  0  0  0  0  0
    4.2690    2.8170    0.0000 C   0  0  0  0  0  0  0  0  0  0  0  0
    3.4030    2.3170    0.0000 C   0  0  0  0  0  0  0  0  0  0  0  0
   10.9035    3.2554    0.0000 H   0  0  0  0  0  0  0  0  0  0  0  0
    9.0267    3.2554    0.0000 H   0  0  0  0  0  0  0  0  0  0  0  0
   10.9326    1.8420    0.0000 H   0  0  0  0  0  0  0  0  0  0  0  0
   11.7297    1.8420    0.0000 H   0  0  0  0  0  0  0  0  0  0  0  0
    8.2006    1.8420    0.0000 H   0  0  0  0  0  0  0  0  0  0  0  0
    8.9976    1.8420    0.0000 H   0  0  0  0  0  0  0  0  0  0  0  0
   12.5957    3.2919    0.0000 H   0  0  0  0  0  0  0  0  0  0  0  0
   11.7987    3.2919    0.0000 H   0  0  0  0  0  0  0  0  0  0  0  0
    7.7331    3.4370    0.0000 H   0  0  0  0  0  0  0  0  0  0  0  0
    6.8671    1.6970    0.0000 H   0  0  0  0  0  0  0  0  0  0  0  0
    6.0010    3.4370    0.0000 H   0  0  0  0  0  0  0  0  0  0  0  0
    2.7924   -1.5754    0.0000 H   0  0  0  0  0  0  0  0  0  0  0  0
    3.1909   -2.2656    0.0000 H   0  0  0  0  0  0  0  0  0  0  0  0
    4.8796   -2.2907    0.0000 H   0  0  0  0  0  0  0  0  0  0  0  0
    4.4810   -1.6004    0.0000 H   0  0  0  0  0  0  0  0  0  0  0  0
   14.4662    2.5070    0.0000 H   0  0  0  0  0  0  0  0  0  0  0  0
    4.0135   -0.7907    0.0000 H   0  0  0  0  0  0  0  0  0  0  0  0
    3.6150   -0.1004    0.0000 H   0  0  0  0  0  0  0  0  0  0  0  0
    3.6584   -3.0753    0.0000 H   0  0  0  0  0  0  0  0  0  0  0  0
    4.0569   -3.7656    0.0000 H   0  0  0  0  0  0  0  0  0  0  0  0
    5.1350    1.6970    0.0000 H   0  0  0  0  0  0  0  0  0  0  0  0
    2.0000   -0.4930    0.0000 H   0  0  0  0  0  0  0  0  0  0  0  0
    4.8250   -4.2200    0.0000 H   0  0  0  0  0  0  0  0  0  0  0  0
    5.6720   -3.9930    0.0000 H   0  0  0  0  0  0  0  0  0  0  0  0
    5.4450   -3.1461    0.0000 H   0  0  0  0  0  0  0  0  0  0  0  0
    2.0000    1.1270    0.0000 H   0  0  0  0  0  0  0  0  0  0  0  0
    3.6150    0.7344    0.0000 H   0  0  0  0  0  0  0  0  0  0  0  0
    4.0135    1.4246    0.0000 H   0  0  0  0  0  0  0  0  0  0  0  0
    4.2690    3.4370    0.0000 H   0  0  0  0  0  0  0  0  0  0  0  0
    2.8660    2.6270    0.0000 H   0  0  0  0  0  0  0  0  0  0  0  0
  1  4  1  0  0  0  0
  1  5  1  0  0  0  0
  2 10  1  0  0  0  0
  2 39  1  0  0  0  0
  3 10  2  0  0  0  0
  4  5  1  0  0  0  0
  4  6  1  6  0  0  0
  4 24  1  0  0  0  0
  5  7  1  1  0  0  0
  5 25  1  0  0  0  0
  6  8  1  0  0  0  0
  6 26  1  0  0  0  0
  6 27  1  0  0  0  0
  7  9  1  0  0  0  0
  7 28  1  0  0  0  0
  7 29  1  0  0  0  0
  8 10  1  0  0  0  0
  8 30  1  0  0  0  0
  8 31  1  0  0  0  0
  9 11  2  0  0  0  0
  9 32  1  0  0  0  0
 11 12  1  0  0  0  0
 11 33  1  0  0  0  0
 12 17  2  0  0  0  0
 12 34  1  0  0  0  0
 13 14  1  0  0  0  0
 13 15  1  0  0  0  0
 13 35  1  0  0  0  0
 13 36  1  0  0  0  0
 14 16  1  0  0  0  0
 14 37  1  0  0  0  0
 14 38  1  0  0  0  0
 15 18  1  0  0  0  0
 15 40  1  0  0  0  0
 15 41  1  0  0  0  0
 16 19  1  0  0  0  0
 16 42  1  0  0  0  0
 16 43  1  0  0  0  0
 17 22  1  0  0  0  0
 17 44  1  0  0  0  0
 18 20  2  0  0  0  0
 18 45  1  0  0  0  0
 19 46  1  0  0  0  0
 19 47  1  0  0  0  0
 19 48  1  0  0  0  0
 20 21  1  0  0  0  0
 20 49  1  0  0  0  0
 21 23  1  0  0  0  0
 21 50  1  0  0  0  0
 21 51  1  0  0  0  0
 22 23  2  0  0  0  0
 22 52  1  0  0  0  0
 23 53  1  0  0  0  0
M  END
> <PUBCHEM_COMPOUND_CID>
5280534

> <PUBCHEM_COMPOUND_CANONICALIZED>
1

> <PUBCHEM_CACTVS_COMPLEXITY>
432

> <PUBCHEM_CACTVS_HBOND_ACCEPTOR>
3

> <PUBCHEM_CACTVS_HBOND_DONOR>
1

> <PUBCHEM_CACTVS_ROTATABLE_BOND>
13

> <PUBCHEM_CACTVS_SUBSKEYS>
AAADceB4MAAAAAAAAAAAAAAAEgAAAAAAAAAAAAAAAAAAAAAAAAAAGgAACAAACBSggAICCAAABgCIACDSCAAAAAAgAAAICAEAAAgIABIAAQACQAAEwAAIgAPK7CTAAAAAAAAAAAAAAAAAAAAAAAAAAAAAAA==

> <PUBCHEM_IUPAC_OPENEYE_NAME>
3-[(2R,3R)-3-[(2E,4E,6Z,9Z)-pentadeca-2,4,6,9-tetraenyl]oxiran-2-yl]propanoic acid

> <PUBCHEM_IUPAC_CAS_NAME>
3-[(2R,3R)-3-[(2E,4E,6Z,9Z)-pentadeca-2,4,6,9-tetraenyl]-2-oxiranyl]propanoic acid

> <PUBCHEM_IUPAC_NAME>
3-[(2R,3R)-3-[(2E,4E,6Z,9Z)-pentadeca-2,4,6,9-tetraenyl]oxiran-2-yl]propanoic acid

> <PUBCHEM_IUPAC_SYSTEMATIC_NAME>
3-[(2R,3R)-3-[(2E,4E,6Z,9Z)-pentadeca-2,4,6,9-tetraenyl]oxiran-2-yl]propanoic acid

> <PUBCHEM_IUPAC_TRADITIONAL_NAME>
3-[(2R,3R)-3-[(2E,4E,6Z,9Z)-pentadeca-2,4,6,9-tetraenyl]oxiran-2-yl]propionic acid

> <PUBCHEM_IUPAC_INCHI>
InChI=1S/C20H30O3/c1-2-3-4-5-6-7-8-9-10-11-12-13-14-15-18-19(23-18)16-17-20(21)22/h6-7,9-14,18-19H,2-5,8,15-17H2,1H3,(H,21,22)/b7-6-,10-9-,12-11+,14-13+/t18-,19-/m1/s1

> <PUBCHEM_IUPAC_INCHIKEY>
ANXVUHHMAOYZPG-BOCYDZBOSA-N

> <PUBCHEM_XLOGP3_AA>
5.5

> <PUBCHEM_EXACT_MASS>
318.219495

> <PUBCHEM_MOLECULAR_FORMULA>
C20H30O3

> <PUBCHEM_MOLECULAR_WEIGHT>
318.4504

> <PUBCHEM_OPENEYE_CAN_SMILES>
CCCCCC=CCC=CC=CC=CCC1C(O1)CCC(=O)O

> <PUBCHEM_OPENEYE_ISO_SMILES>
CCCCC/C=C\C/C=C\C=C\C=C\C[C@@H]1[C@H](O1)CCC(=O)O

> <PUBCHEM_CACTVS_TPSA>
49.8

> <PUBCHEM_MONOISOTOPIC_WEIGHT>
318.219495

> <PUBCHEM_TOTAL_CHARGE>
0

> <PUBCHEM_HEAVY_ATOM_COUNT>
23

> <PUBCHEM_ATOM_DEF_STEREO_COUNT>
2

> <PUBCHEM_ATOM_UDEF_STEREO_COUNT>
0

> <PUBCHEM_BOND_DEF_STEREO_COUNT>
4

> <PUBCHEM_BOND_UDEF_STEREO_COUNT>
0

> <PUBCHEM_ISOTOPIC_ATOM_COUNT>
0

> <PUBCHEM_COMPONENT_COUNT>
1

> <PUBCHEM_CACTVS_TAUTO_COUNT>
1

> <PUBCHEM_COORDINATE_TYPE>
1
5
255

> <PUBCHEM_BONDANNOTATIONS>
4  6  6
5  7  5

$$$$

