101810
  -OEChem-07051212562D

 81 85  0     1  0  0  0  0  0999 V2000
    6.4144   -2.8842    0.0000 O   0  0  0  0  0  0  0  0  0  0  0  0
   11.1246    3.0930    0.0000 O   0  0  0  0  0  0  0  0  0  0  0  0
    3.9891   -3.0931    0.0000 O   0  0  0  0  0  0  0  0  0  0  0  0
    5.1937   -3.5420    0.0000 O   0  0  0  0  0  0  0  0  0  0  0  0
   11.7572    0.6329    0.0000 O   0  0  0  0  0  0  0  0  0  0  0  0
    7.5167   -0.0513    0.0000 C   0  0  2  0  0  0  0  0  0  0  0  0
    7.5167    0.9487    0.0000 C   0  0  1  0  0  0  0  0  0  0  0  0
    8.4106    1.4833    0.0000 C   0  0  2  0  0  0  0  0  0  0  0  0
    6.6507   -0.5513    0.0000 C   0  0  1  0  0  0  0  0  0  0  0  0
    9.3167    0.9695    0.0000 C   0  0  1  0  0  0  0  0  0  0  0  0
    8.4106   -0.5860    0.0000 C   0  0  0  0  0  0  0  0  0  0  0  0
    5.7847   -0.0513    0.0000 C   0  0  0  0  0  0  0  0  0  0  0  0
    9.3167   -0.0722    0.0000 C   0  0  0  0  0  0  0  0  0  0  0  0
    4.8746   -0.5582    0.0000 C   0  0  1  0  0  0  0  0  0  0  0  0
    6.6667   -1.5928    0.0000 C   0  0  0  0  0  0  0  0  0  0  0  0
    6.6507    1.4487    0.0000 C   0  0  0  0  0  0  0  0  0  0  0  0
    4.8666   -1.5998    0.0000 C   0  0  1  0  0  0  0  0  0  0  0  0
   10.2605    1.5047    0.0000 C   0  0  2  0  0  0  0  0  0  0  0  0
    8.3856    2.5680    0.0000 C   0  0  0  0  0  0  0  0  0  0  0  0
    5.7687   -2.1206    0.0000 C   0  0  2  0  0  0  0  0  0  0  0  0
    7.8588   -0.9910    0.0000 C   0  0  0  0  0  0  0  0  0  0  0  0
    5.7847    0.9487    0.0000 C   0  0  0  0  0  0  0  0  0  0  0  0
    7.5408    1.9766    0.0000 C   0  0  0  0  0  0  0  0  0  0  0  0
    7.2935   -1.3174    0.0000 C   0  0  0  0  0  0  0  0  0  0  0  0
   10.2605    2.5897    0.0000 C   0  0  2  0  0  0  0  0  0  0  0  0
    9.3167    3.1250    0.0000 C   0  0  0  0  0  0  0  0  0  0  0  0
    3.9478    0.0059    0.0000 C   0  0  0  0  0  0  0  0  0  0  0  0
    3.9312   -2.1495    0.0000 C   0  0  0  0  0  0  0  0  0  0  0  0
    2.9999   -0.5220    0.0000 C   0  0  0  0  0  0  0  0  0  0  0  0
    2.9916   -1.6070    0.0000 C   0  0  0  0  0  0  0  0  0  0  0  0
   10.7572    0.6368    0.0000 C   0  0  0  0  0  0  0  0  0  0  0  0
    4.8589   -2.5997    0.0000 C   0  0  0  0  0  0  0  0  0  0  0  0
   11.2605    1.5009    0.0000 C   0  0  0  0  0  0  0  0  0  0  0  0
    2.0000   -0.5105    0.0000 C   0  0  0  0  0  0  0  0  0  0  0  0
    2.5100    0.3497    0.0000 C   0  0  0  0  0  0  0  0  0  0  0  0
    7.5102    1.7986    0.0000 H   0  0  0  0  0  0  0  0  0  0  0  0
   10.0512    0.5416    0.0000 H   0  0  0  0  0  0  0  0  0  0  0  0
    8.0060   -1.0558    0.0000 H   0  0  0  0  0  0  0  0  0  0  0  0
    8.8043   -1.0650    0.0000 H   0  0  0  0  0  0  0  0  0  0  0  0
    9.5258   -0.6558    0.0000 H   0  0  0  0  0  0  0  0  0  0  0  0
    9.9276    0.0339    0.0000 H   0  0  0  0  0  0  0  0  0  0  0  0
    4.8910    0.2917    0.0000 H   0  0  0  0  0  0  0  0  0  0  0  0
    6.8848   -2.1732    0.0000 H   0  0  0  0  0  0  0  0  0  0  0  0
    7.2759   -1.4773    0.0000 H   0  0  0  0  0  0  0  0  0  0  0  0
    7.0492    1.9236    0.0000 H   0  0  0  0  0  0  0  0  0  0  0  0
    6.2522    1.9236    0.0000 H   0  0  0  0  0  0  0  0  0  0  0  0
    8.1631    3.1467    0.0000 H   0  0  0  0  0  0  0  0  0  0  0  0
    7.7773    2.4478    0.0000 H   0  0  0  0  0  0  0  0  0  0  0  0
    5.3711   -2.5963    0.0000 H   0  0  0  0  0  0  0  0  0  0  0  0
    7.2762   -1.2031    0.0000 H   0  0  0  0  0  0  0  0  0  0  0  0
    8.0709   -1.5736    0.0000 H   0  0  0  0  0  0  0  0  0  0  0  0
    8.4414   -0.7789    0.0000 H   0  0  0  0  0  0  0  0  0  0  0  0
    5.2477    1.2587    0.0000 H   0  0  0  0  0  0  0  0  0  0  0  0
    7.8466    2.5159    0.0000 H   0  0  0  0  0  0  0  0  0  0  0  0
    7.0015    2.2825    0.0000 H   0  0  0  0  0  0  0  0  0  0  0  0
    7.2349    1.4373    0.0000 H   0  0  0  0  0  0  0  0  0  0  0  0
    6.8185   -1.7159    0.0000 H   0  0  0  0  0  0  0  0  0  0  0  0
    7.6920   -1.7923    0.0000 H   0  0  0  0  0  0  0  0  0  0  0  0
    7.7684   -0.9189    0.0000 H   0  0  0  0  0  0  0  0  0  0  0  0
   10.2569    3.2097    0.0000 H   0  0  0  0  0  0  0  0  0  0  0  0
    9.7103    3.6040    0.0000 H   0  0  0  0  0  0  0  0  0  0  0  0
    8.9121    3.5947    0.0000 H   0  0  0  0  0  0  0  0  0  0  0  0
    4.3560    0.4726    0.0000 H   0  0  0  0  0  0  0  0  0  0  0  0
    3.5579    0.4879    0.0000 H   0  0  0  0  0  0  0  0  0  0  0  0
    3.5339   -2.6255    0.0000 H   0  0  0  0  0  0  0  0  0  0  0  0
    4.3322   -2.6224    0.0000 H   0  0  0  0  0  0  0  0  0  0  0  0
    2.3816   -1.4962    0.0000 H   0  0  0  0  0  0  0  0  0  0  0  0
    2.7780   -2.1891    0.0000 H   0  0  0  0  0  0  0  0  0  0  0  0
   10.2190    0.3288    0.0000 H   0  0  0  0  0  0  0  0  0  0  0  0
   11.0651    0.0986    0.0000 H   0  0  0  0  0  0  0  0  0  0  0  0
   11.2953    0.9447    0.0000 H   0  0  0  0  0  0  0  0  0  0  0  0
   11.5726    2.0366    0.0000 H   0  0  0  0  0  0  0  0  0  0  0  0
    7.0246   -2.7741    0.0000 H   0  0  0  0  0  0  0  0  0  0  0  0
    2.0072    0.1095    0.0000 H   0  0  0  0  0  0  0  0  0  0  0  0
    1.3800   -0.5033    0.0000 H   0  0  0  0  0  0  0  0  0  0  0  0
    1.9928   -1.1304    0.0000 H   0  0  0  0  0  0  0  0  0  0  0  0
    3.0505    0.6535    0.0000 H   0  0  0  0  0  0  0  0  0  0  0  0
    2.2062    0.8902    0.0000 H   0  0  0  0  0  0  0  0  0  0  0  0
    1.9695    0.0459    0.0000 H   0  0  0  0  0  0  0  0  0  0  0  0
   11.1222    3.7130    0.0000 H   0  0  0  0  0  0  0  0  0  0  0  0
    3.9843   -3.7130    0.0000 H   0  0  0  0  0  0  0  0  0  0  0  0
 20  1  1  1  0  0  0
  1 73  1  0  0  0  0
 25  2  1  6  0  0  0
  2 80  1  0  0  0  0
  3 32  1  0  0  0  0
  3 81  1  0  0  0  0
  4 32  2  0  0  0  0
  5 33  2  0  0  0  0
  6  7  1  0  0  0  0
  6  9  1  0  0  0  0
  6 11  1  0  0  0  0
  6 21  1  6  0  0  0
  7  8  1  0  0  0  0
  7 16  1  0  0  0  0
  7 36  1  1  0  0  0
  8 10  1  0  0  0  0
  8 19  1  0  0  0  0
  8 23  1  6  0  0  0
  9 12  1  0  0  0  0
  9 15  1  0  0  0  0
  9 24  1  1  0  0  0
 10 13  1  0  0  0  0
 10 18  1  0  0  0  0
 10 37  1  1  0  0  0
 11 13  1  0  0  0  0
 11 38  1  0  0  0  0
 11 39  1  0  0  0  0
 12 14  1  0  0  0  0
 12 22  2  0  0  0  0
 13 40  1  0  0  0  0
 13 41  1  0  0  0  0
 14 17  1  0  0  0  0
 14 27  1  0  0  0  0
 14 42  1  6  0  0  0
 15 20  1  0  0  0  0
 15 43  1  0  0  0  0
 15 44  1  0  0  0  0
 16 22  1  0  0  0  0
 16 45  1  0  0  0  0
 16 46  1  0  0  0  0
 17 20  1  0  0  0  0
 17 28  1  0  0  0  0
 17 32  1  6  0  0  0
 18 25  1  0  0  0  0
 18 31  1  6  0  0  0
 18 33  1  0  0  0  0
 19 26  1  0  0  0  0
 19 47  1  0  0  0  0
 19 48  1  0  0  0  0
 20 49  1  0  0  0  0
 21 50  1  0  0  0  0
 21 51  1  0  0  0  0
 21 52  1  0  0  0  0
 22 53  1  0  0  0  0
 23 54  1  0  0  0  0
 23 55  1  0  0  0  0
 23 56  1  0  0  0  0
 24 57  1  0  0  0  0
 24 58  1  0  0  0  0
 24 59  1  0  0  0  0
 25 26  1  0  0  0  0
 25 60  1  0  0  0  0
 26 61  1  0  0  0  0
 26 62  1  0  0  0  0
 27 29  1  0  0  0  0
 27 63  1  0  0  0  0
 27 64  1  0  0  0  0
 28 30  1  0  0  0  0
 28 65  1  0  0  0  0
 28 66  1  0  0  0  0
 29 30  1  0  0  0  0
 29 34  1  0  0  0  0
 29 35  1  0  0  0  0
 30 67  1  0  0  0  0
 30 68  1  0  0  0  0
 31 69  1  0  0  0  0
 31 70  1  0  0  0  0
 31 71  1  0  0  0  0
 33 72  1  0  0  0  0
 34 74  1  0  0  0  0
 34 75  1  0  0  0  0
 34 76  1  0  0  0  0
 35 77  1  0  0  0  0
 35 78  1  0  0  0  0
 35 79  1  0  0  0  0
M  END
> <PUBCHEM_COMPOUND_CID>
101810

> <PUBCHEM_COMPOUND_CANONICALIZED>
1

> <PUBCHEM_CACTVS_COMPLEXITY>
970

> <PUBCHEM_CACTVS_HBOND_ACCEPTOR>
5

> <PUBCHEM_CACTVS_HBOND_DONOR>
3

> <PUBCHEM_CACTVS_ROTATABLE_BOND>
2

> <PUBCHEM_CACTVS_SUBSKEYS>
AAADcfB4OAAAAAAAAAAAAAAAAAAAAAAAAAAwYMGCAAAAAADAAAAAGgAACAAADxSggAICCAAAAgCIAijSiAAAAAAgAAAACAEAAAgAEBYAAQAAQAAFoAAIAAOIyPCPgAAAAAAAAADAAAYAADAAAAAAAAAAAA==

> <PUBCHEM_IUPAC_OPENEYE_NAME>
(4aR,5R,6aR,6aS,6bR,8aR,9S,10S,12aR,14bS)-9-formyl-5,10-dihydroxy-2,2,6a,6b,9,12a-hexamethyl-1,3,4,5,6,6a,7,8,8a,10,11,12,13,14b-tetradecahydropicene-4a-carboxylic acid

> <PUBCHEM_IUPAC_CAS_NAME>
(4aR,5R,6aR,6aS,6bR,8aR,9S,10S,12aR,14bS)-9-formyl-5,10-dihydroxy-2,2,6a,6b,9,12a-hexamethyl-1,3,4,5,6,6a,7,8,8a,10,11,12,13,14b-tetradecahydropicene-4a-carboxylic acid

> <PUBCHEM_IUPAC_NAME>
(4aR,5R,6aR,6aS,6bR,8aR,9S,10S,12aR,14bS)-9-formyl-5,10-dihydroxy-2,2,6a,6b,9,12a-hexamethyl-1,3,4,5,6,6a,7,8,8a,10,11,12,13,14b-tetradecahydropicene-4a-carboxylic acid

> <PUBCHEM_IUPAC_SYSTEMATIC_NAME>
(4aR,5R,6aR,6aS,6bR,8aR,9S,10S,12aR,14bS)-9-methanoyl-2,2,6a,6b,9,12a-hexamethyl-5,10-bis(oxidanyl)-1,3,4,5,6,6a,7,8,8a,10,11,12,13,14b-tetradecahydropicene-4a-carboxylic acid

> <PUBCHEM_IUPAC_TRADITIONAL_NAME>
(4aR,5R,6aR,6aS,6bR,8aR,9S,10S,12aR,14bS)-9-formyl-5,10-dihydroxy-2,2,6a,6b,9,12a-hexamethyl-1,3,4,5,6,6a,7,8,8a,10,11,12,13,14b-tetradecahydropicene-4a-carboxylic acid

> <PUBCHEM_IUPAC_INCHI>
InChI=1S/C30H46O5/c1-25(2)13-14-30(24(34)35)19(15-25)18-7-8-21-26(3)11-10-22(32)27(4,17-31)20(26)9-12-28(21,5)29(18,6)16-23(30)33/h7,17,19-23,32-33H,8-16H2,1-6H3,(H,34,35)/t19-,20+,21+,22-,23+,26-,27-,28+,29+,30+/m0/s1

> <PUBCHEM_IUPAC_INCHIKEY>
MQUFAARYGOUYEV-UAWZMHPWSA-N

> <PUBCHEM_XLOGP3_AA>
6.1

> <PUBCHEM_EXACT_MASS>
486.334525

> <PUBCHEM_MOLECULAR_FORMULA>
C30H46O5

> <PUBCHEM_MOLECULAR_WEIGHT>
486.68324

> <PUBCHEM_OPENEYE_CAN_SMILES>
CC1(CCC2(C(C1)C3=CCC4C5(CCC(C(C5CCC4(C3(CC2O)C)C)(C)C=O)O)C)C(=O)O)C

> <PUBCHEM_OPENEYE_ISO_SMILES>
C[C@]12CC[C@@H]([C@@]([C@@H]1CC[C@@]3([C@@H]2CC=C4[C@]3(C[C@H]([C@@]5([C@H]4CC(CC5)(C)C)C(=O)O)O)C)C)(C)C=O)O

> <PUBCHEM_CACTVS_TPSA>
94.8

> <PUBCHEM_MONOISOTOPIC_WEIGHT>
486.334525

> <PUBCHEM_TOTAL_CHARGE>
0

> <PUBCHEM_HEAVY_ATOM_COUNT>
35

> <PUBCHEM_ATOM_DEF_STEREO_COUNT>
10

> <PUBCHEM_ATOM_UDEF_STEREO_COUNT>
0

> <PUBCHEM_BOND_DEF_STEREO_COUNT>
0

> <PUBCHEM_BOND_UDEF_STEREO_COUNT>
0

> <PUBCHEM_ISOTOPIC_ATOM_COUNT>
0

> <PUBCHEM_COMPONENT_COUNT>
1

> <PUBCHEM_CACTVS_TAUTO_COUNT>
1

> <PUBCHEM_COORDINATE_TYPE>
1
5
255

> <PUBCHEM_BONDANNOTATIONS>
20  1  5
10  37  5
14  42  6
17  32  6
18  31  6
25  2  6
6  21  6
7  36  5
8  23  6
9  24  5

$$$$

