443848
  -OEChem-07051213033D

 35 37  0     1  0  0  0  0  0999 V2000
    1.2558    2.0245   -0.5179 N   0  0  0  0  0  0  0  0  0  0  0  0
   -4.5763   -0.8658    1.1065 N   0  0  0  0  0  0  0  0  0  0  0  0
    4.5649   -0.8726    1.1006 N   0  0  0  0  0  0  0  0  0  0  0  0
   -1.2697    0.8424    0.3918 C   0  0  1  0  0  0  0  0  0  0  0  0
    0.0045    0.0010    0.2023 C   0  0  0  0  0  0  0  0  0  0  0  0
    1.2699    0.8623    0.3858 C   0  0  1  0  0  0  0  0  0  0  0  0
   -1.2199    2.0760   -0.5229 C   0  0  0  0  0  0  0  0  0  0  0  0
    0.0732    2.8614   -0.3116 C   0  0  0  0  0  0  0  0  0  0  0  0
   -2.5316    0.0257    0.1891 C   0  0  0  0  0  0  0  0  0  0  0  0
    2.5226    0.0253    0.1861 C   0  0  0  0  0  0  0  0  0  0  0  0
   -2.8064   -0.5638   -1.0359 C   0  0  0  0  0  0  0  0  0  0  0  0
   -3.4349   -0.1501    1.2202 C   0  0  0  0  0  0  0  0  0  0  0  0
    2.7797   -0.5865   -1.0313 C   0  0  0  0  0  0  0  0  0  0  0  0
    3.4323   -0.1430    1.2124 C   0  0  0  0  0  0  0  0  0  0  0  0
   -3.9708   -1.3078   -1.1920 C   0  0  0  0  0  0  0  0  0  0  0  0
    3.9346   -1.3454   -1.1850 C   0  0  0  0  0  0  0  0  0  0  0  0
   -4.8150   -1.4275   -0.0998 C   0  0  0  0  0  0  0  0  0  0  0  0
    4.7872   -1.4562   -0.0984 C   0  0  0  0  0  0  0  0  0  0  0  0
   -1.2659    1.2070    1.4293 H   0  0  0  0  0  0  0  0  0  0  0  0
    0.0002   -0.4648   -0.7916 H   0  0  0  0  0  0  0  0  0  0  0  0
    0.0106   -0.8267    0.9246 H   0  0  0  0  0  0  0  0  0  0  0  0
    1.2786    1.2415    1.4171 H   0  0  0  0  0  0  0  0  0  0  0  0
   -2.0790    2.7278   -0.3213 H   0  0  0  0  0  0  0  0  0  0  0  0
   -1.2916    1.7836   -1.5785 H   0  0  0  0  0  0  0  0  0  0  0  0
    0.1079    3.7017   -1.0138 H   0  0  0  0  0  0  0  0  0  0  0  0
    0.0960    3.2952    0.6954 H   0  0  0  0  0  0  0  0  0  0  0  0
    1.2518    1.6979   -1.4847 H   0  0  0  0  0  0  0  0  0  0  0  0
   -2.1322   -0.4582   -1.8807 H   0  0  0  0  0  0  0  0  0  0  0  0
   -3.2734    0.2867    2.2006 H   0  0  0  0  0  0  0  0  0  0  0  0
    2.1018   -0.4851   -1.8737 H   0  0  0  0  0  0  0  0  0  0  0  0
    3.2839    0.3117    2.1866 H   0  0  0  0  0  0  0  0  0  0  0  0
   -4.2099   -1.7790   -2.1384 H   0  0  0  0  0  0  0  0  0  0  0  0
    4.1611   -1.8338   -2.1258 H   0  0  0  0  0  0  0  0  0  0  0  0
   -5.7358   -1.9971   -0.1696 H   0  0  0  0  0  0  0  0  0  0  0  0
    5.7014   -2.0365   -0.1669 H   0  0  0  0  0  0  0  0  0  0  0  0
  1  6  1  0  0  0  0
  1  8  1  0  0  0  0
  1 27  1  0  0  0  0
  2 12  1  0  0  0  0
  2 17  2  0  0  0  0
  3 14  1  0  0  0  0
  3 18  2  0  0  0  0
  4  5  1  0  0  0  0
  4  7  1  0  0  0  0
  4  9  1  0  0  0  0
  4 19  1  0  0  0  0
  5  6  1  0  0  0  0
  5 20  1  0  0  0  0
  5 21  1  0  0  0  0
  6 10  1  0  0  0  0
  6 22  1  0  0  0  0
  7  8  1  0  0  0  0
  7 23  1  0  0  0  0
  7 24  1  0  0  0  0
  8 25  1  0  0  0  0
  8 26  1  0  0  0  0
  9 11  1  0  0  0  0
  9 12  2  0  0  0  0
 10 13  1  0  0  0  0
 10 14  2  0  0  0  0
 11 15  2  0  0  0  0
 11 28  1  0  0  0  0
 12 29  1  0  0  0  0
 13 16  2  0  0  0  0
 13 30  1  0  0  0  0
 14 31  1  0  0  0  0
 15 17  1  0  0  0  0
 15 32  1  0  0  0  0
 16 18  1  0  0  0  0
 16 33  1  0  0  0  0
 17 34  1  0  0  0  0
 18 35  1  0  0  0  0
M  END
> <PUBCHEM_COMPOUND_CID>
443848

> <PUBCHEM_CONFORMER_RMSD>
0.6

> <PUBCHEM_CONFORMER_DIVERSEORDER>
1
70
113
50
94
65
73
9
49
17
109
72
64
97
51
61
71
10
48
27
82
102
62
105
81
15
108
88
54
89
58
18
63
12
68
104
106
76
2
85
95
84
78
52
66
59
115
11
86
53
19
25
60
83
69
77
90
16
3
67
100
79
20
96
91
75
35
8
93
98
14
114
4
74
32
5
112
13
7
80
33
6
29
103
101
57
21
43
55
92
36
99
56
44
111
107
45
34
26
41
87
47
37
110
40
42
39
31
30
46
38
23
24
22
28

> <PUBCHEM_MMFF94_PARTIAL_CHARGES>
25
1 -0.9
10 -0.14
11 -0.15
12 0.16
13 -0.15
14 0.16
15 -0.15
16 -0.15
17 0.16
18 0.16
2 -0.62
27 0.36
28 0.15
29 0.15
3 -0.62
30 0.15
31 0.15
32 0.15
33 0.15
34 0.15
35 0.15
4 0.14
6 0.41
8 0.27
9 -0.14

> <PUBCHEM_EFFECTIVE_ROTOR_COUNT>
3.2

> <PUBCHEM_PHARMACOPHORE_FEATURES>
7
1 1 cation
1 1 donor
1 2 acceptor
1 3 acceptor
6 1 4 5 6 7 8 rings
6 2 9 11 12 15 17 rings
6 3 10 13 14 16 18 rings

> <PUBCHEM_HEAVY_ATOM_COUNT>
18

> <PUBCHEM_ATOM_DEF_STEREO_COUNT>
0

> <PUBCHEM_ATOM_UDEF_STEREO_COUNT>
2

> <PUBCHEM_BOND_DEF_STEREO_COUNT>
0

> <PUBCHEM_BOND_UDEF_STEREO_COUNT>
0

> <PUBCHEM_ISOTOPIC_ATOM_COUNT>
0

> <PUBCHEM_COMPONENT_COUNT>
1

> <PUBCHEM_CACTVS_TAUTO_COUNT>
1

> <PUBCHEM_CONFORMER_ID>
0006C5C800000001

> <PUBCHEM_MMFF94_ENERGY>
42.5683

> <PUBCHEM_FEATURE_SELFOVERLAP>
35.52

> <PUBCHEM_SHAPE_FINGERPRINT>
10042902 136 17895187762576871822
11046707 91 18409167739854917721
11370993 144 16806159007287339210
11543360 7 14908175335239732435
11578080 2 17968961703325834025
12363563 72 18342453742284276576
12403259 118 4823206221615612803
12403259 327 15936408901468912371
12553582 1 18413385445005575859
12596602 18 15140682462133368106
12633257 1 15285643153391970463
12670546 177 15051733088147985587
12707595 3 18202282476673836337
12714826 92 18202003269661657549
12892183 10 16370723742355485370
13533116 47 18117276944383583339
13544653 18 18260270741408284456
13583140 156 15864080900479195689
13675066 3 17748821921543590875
14123255 52 9079118855869657863
14178342 30 17970055845573783824
1420 369 18334858311680827247
14251764 30 16844709960233329633
14252887 29 18335143068392009680
14341114 328 15430321291247213442
14848178 96 10015579502222204294
15188451 53 17458355100419054439
15342816 4 18343020021407168478
15848700 24 18411702080050319632
15885798 251 18410290315668193273
16752209 62 17917722343297357080
17539 30 18199196259399751589
17834072 32 8358242757638448098
1798214 55 8790887384443321762
1813 80 18410004433896859565
18186145 218 17131837530169494225
18222031 100 18408323267827864647
19141452 34 18113336440347865791
193927 3 18410847746636209491
19784866 240 18334298622388201751
200 152 17703791444097139378
20281475 54 18187363211944390756
20374829 77 18413393150503718575
20388580 30 18201434748972200988
20645477 70 18270687437655827973
20671657 53 18131072614823110293
20693207 138 17345749660599862467
20871998 22 18409449176314481996
21065199 12 16660642985684590778
21713013 43 16845286095325152299
21728266 224 17915474985181443594
22646028 28 18408603647540532911
23175994 123 18202563960826069941
23402539 116 18200876278927820146
23402655 69 13470688161449983458
23500284 214 9079110076877474637
23557571 272 18263930006553199676
23559900 14 17275104972878204392
312423 11 18271513260940695868
314173 85 18408322202618056849
351380 3 18411697694678259626
38570 142 14636012024680599450
42 15 17458059365591491667
465052 167 18340194203351500267
5352402 22 17458622350173670382
7064713 232 17240194435277856583
76465 3 18340775935275729562
7808743 9 7925328763348260466
7970288 3 18412545413827760843
83771 10 18334855026046410188
8863177 126 17629745796257149067

> <PUBCHEM_SHAPE_MULTIPOLES>
355.49
10.26
2.14
1.22
0.28
1.55
0.06
-7.99
1.05
-0.05
-0.64
-0.02
-0.26
0.04

> <PUBCHEM_SHAPE_SELFOVERLAP>
761.879

> <PUBCHEM_SHAPE_VOLUME>
190.8

> <PUBCHEM_COORDINATE_TYPE>
2
5
10

$$$$

