441116
  -OEChem-07051212522D

 19 19  0     0  0  0  0  0  0999 V2000
    3.7320   -2.9050    0.0000 Cl  0  0  0  0  0  0  0  0  0  0  0  0
    2.8660    2.5950    0.0000 Cl  0  0  0  0  0  0  0  0  0  0  0  0
    2.0000    1.0950    0.0000 Cl  0  0  0  0  0  0  0  0  0  0  0  0
    4.5981    2.5950    0.0000 O   0  0  0  0  0  0  0  0  0  0  0  0
    5.4641    1.0950    0.0000 O   0  0  0  0  0  0  0  0  0  0  0  0
    3.7320    0.0950    0.0000 C   0  0  0  0  0  0  0  0  0  0  0  0
    2.8660   -0.4050    0.0000 C   0  0  0  0  0  0  0  0  0  0  0  0
    4.5981   -0.4050    0.0000 C   0  0  0  0  0  0  0  0  0  0  0  0
    3.7320    1.0950    0.0000 C   0  0  0  0  0  0  0  0  0  0  0  0
    2.8660   -1.4050    0.0000 C   0  0  0  0  0  0  0  0  0  0  0  0
    4.5981   -1.4050    0.0000 C   0  0  0  0  0  0  0  0  0  0  0  0
    3.7320   -1.9050    0.0000 C   0  0  0  0  0  0  0  0  0  0  0  0
    4.5981    1.5950    0.0000 C   0  0  0  0  0  0  0  0  0  0  0  0
    2.8660    1.5950    0.0000 C   0  0  0  0  0  0  0  0  0  0  0  0
    2.3291   -0.0950    0.0000 H   0  0  0  0  0  0  0  0  0  0  0  0
    5.1350   -0.0950    0.0000 H   0  0  0  0  0  0  0  0  0  0  0  0
    2.3291   -1.7150    0.0000 H   0  0  0  0  0  0  0  0  0  0  0  0
    5.1350   -1.7150    0.0000 H   0  0  0  0  0  0  0  0  0  0  0  0
    5.1350    2.9050    0.0000 H   0  0  0  0  0  0  0  0  0  0  0  0
  1 12  1  0  0  0  0
  2 14  1  0  0  0  0
  3 14  1  0  0  0  0
  4 13  1  0  0  0  0
  4 19  1  0  0  0  0
  5 13  2  0  0  0  0
  6  7  2  0  0  0  0
  6  8  1  0  0  0  0
  6  9  1  0  0  0  0
  7 10  1  0  0  0  0
  7 15  1  0  0  0  0
  8 11  2  0  0  0  0
  8 16  1  0  0  0  0
  9 13  1  0  0  0  0
  9 14  2  0  0  0  0
 10 12  2  0  0  0  0
 10 17  1  0  0  0  0
 11 12  1  0  0  0  0
 11 18  1  0  0  0  0
M  END
> <PUBCHEM_COMPOUND_CID>
441116

> <PUBCHEM_COMPOUND_CANONICALIZED>
1

> <PUBCHEM_CACTVS_COMPLEXITY>
251

> <PUBCHEM_CACTVS_HBOND_ACCEPTOR>
2

> <PUBCHEM_CACTVS_HBOND_DONOR>
1

> <PUBCHEM_CACTVS_ROTATABLE_BOND>
2

> <PUBCHEM_CACTVS_SUBSKEYS>
AAADcYBwMAAGAAAAAAAAAAAAAAAAAAAAAAAwAAAAAAAAAAABAAAAGgIACAAADAKAmKAwCIAAAgCIAiDSCAACAAAgBQAIiAEAAsgIJDKBFxCAYAAkwAEImAeIyKCOBAAAAAAAAAAIAAAAAAAAAAAAAAAAAA==

> <PUBCHEM_IUPAC_OPENEYE_NAME>
3,3-dichloro-2-(4-chlorophenyl)prop-2-enoic acid

> <PUBCHEM_IUPAC_CAS_NAME>
3,3-dichloro-2-(4-chlorophenyl)-2-propenoic acid

> <PUBCHEM_IUPAC_NAME>
3,3-dichloro-2-(4-chlorophenyl)prop-2-enoic acid

> <PUBCHEM_IUPAC_SYSTEMATIC_NAME>
3,3-bis(chloranyl)-2-(4-chlorophenyl)prop-2-enoic acid

> <PUBCHEM_IUPAC_TRADITIONAL_NAME>
3,3-dichloro-2-(4-chlorophenyl)acrylic acid

> <PUBCHEM_IUPAC_INCHI>
InChI=1S/C9H5Cl3O2/c10-6-3-1-5(2-4-6)7(8(11)12)9(13)14/h1-4H,(H,13,14)

> <PUBCHEM_IUPAC_INCHIKEY>
VENGXMIQYSHOTO-UHFFFAOYSA-N

> <PUBCHEM_XLOGP3_AA>
3.8

> <PUBCHEM_EXACT_MASS>
249.935512

> <PUBCHEM_MOLECULAR_FORMULA>
C9H5Cl3O2

> <PUBCHEM_MOLECULAR_WEIGHT>
251.4938

> <PUBCHEM_OPENEYE_CAN_SMILES>
C1=CC(=CC=C1C(=C(Cl)Cl)C(=O)O)Cl

> <PUBCHEM_OPENEYE_ISO_SMILES>
C1=CC(=CC=C1C(=C(Cl)Cl)C(=O)O)Cl

> <PUBCHEM_CACTVS_TPSA>
37.3

> <PUBCHEM_MONOISOTOPIC_WEIGHT>
249.935512

> <PUBCHEM_TOTAL_CHARGE>
0

> <PUBCHEM_HEAVY_ATOM_COUNT>
14

> <PUBCHEM_ATOM_DEF_STEREO_COUNT>
0

> <PUBCHEM_ATOM_UDEF_STEREO_COUNT>
0

> <PUBCHEM_BOND_DEF_STEREO_COUNT>
0

> <PUBCHEM_BOND_UDEF_STEREO_COUNT>
0

> <PUBCHEM_ISOTOPIC_ATOM_COUNT>
0

> <PUBCHEM_COMPONENT_COUNT>
1

> <PUBCHEM_CACTVS_TAUTO_COUNT>
1

> <PUBCHEM_COORDINATE_TYPE>
1
5
255

> <PUBCHEM_BONDANNOTATIONS>
10  12  8
11  12  8
6  7  8
6  8  8
7  10  8
8  11  8

$$$$

