14226
  -OEChem-06241222422D

 58 54  0     0  0  0  0  0  0999 V2000
    7.1962    1.9815    0.0000 Al  0  1  0  0  0  0  0  0  0  0  0  0
    8.0622    2.4815    0.0000 C   0  5  0  0  0  0  0  0  0  0  0  0
    6.3301    2.4815    0.0000 C   0  5  0  0  0  0  0  0  0  0  0  0
    7.1962    0.9815    0.0000 C   0  5  0  0  0  0  0  0  0  0  0  0
    8.9282    2.9815    0.0000 C   0  0  0  0  0  0  0  0  0  0  0  0
    5.4641    2.9815    0.0000 C   0  0  0  0  0  0  0  0  0  0  0  0
    7.1962   -0.0185    0.0000 C   0  0  0  0  0  0  0  0  0  0  0  0
    9.7942    2.4815    0.0000 C   0  0  0  0  0  0  0  0  0  0  0  0
    4.5981    2.4815    0.0000 C   0  0  0  0  0  0  0  0  0  0  0  0
    6.3301   -0.5185    0.0000 C   0  0  0  0  0  0  0  0  0  0  0  0
   10.6603    2.9815    0.0000 C   0  0  0  0  0  0  0  0  0  0  0  0
    3.7320    2.9815    0.0000 C   0  0  0  0  0  0  0  0  0  0  0  0
    6.3301   -1.5185    0.0000 C   0  0  0  0  0  0  0  0  0  0  0  0
   11.5263    2.4815    0.0000 C   0  0  0  0  0  0  0  0  0  0  0  0
    2.8660    2.4815    0.0000 C   0  0  0  0  0  0  0  0  0  0  0  0
    5.4641   -2.0185    0.0000 C   0  0  0  0  0  0  0  0  0  0  0  0
   12.3923    2.9815    0.0000 C   0  0  0  0  0  0  0  0  0  0  0  0
    2.0000    2.9815    0.0000 C   0  0  0  0  0  0  0  0  0  0  0  0
    5.4641   -3.0185    0.0000 C   0  0  0  0  0  0  0  0  0  0  0  0
    6.5762    0.9815    0.0000 H   0  0  0  0  0  0  0  0  0  0  0  0
    7.8162    0.9815    0.0000 H   0  0  0  0  0  0  0  0  0  0  0  0
    6.0201    1.9446    0.0000 H   0  0  0  0  0  0  0  0  0  0  0  0
    6.6401    3.0185    0.0000 H   0  0  0  0  0  0  0  0  0  0  0  0
    8.3722    1.9446    0.0000 H   0  0  0  0  0  0  0  0  0  0  0  0
    7.7522    3.0185    0.0000 H   0  0  0  0  0  0  0  0  0  0  0  0
    7.4082   -0.6011    0.0000 H   0  0  0  0  0  0  0  0  0  0  0  0
    7.8067    0.0892    0.0000 H   0  0  0  0  0  0  0  0  0  0  0  0
    5.8626    3.4565    0.0000 H   0  0  0  0  0  0  0  0  0  0  0  0
    5.0656    3.4565    0.0000 H   0  0  0  0  0  0  0  0  0  0  0  0
    9.3267    3.4565    0.0000 H   0  0  0  0  0  0  0  0  0  0  0  0
    8.5297    3.4565    0.0000 H   0  0  0  0  0  0  0  0  0  0  0  0
    9.3957    2.0066    0.0000 H   0  0  0  0  0  0  0  0  0  0  0  0
   10.1928    2.0066    0.0000 H   0  0  0  0  0  0  0  0  0  0  0  0
    4.1996    2.0066    0.0000 H   0  0  0  0  0  0  0  0  0  0  0  0
    4.9966    2.0066    0.0000 H   0  0  0  0  0  0  0  0  0  0  0  0
    6.1181    0.0641    0.0000 H   0  0  0  0  0  0  0  0  0  0  0  0
    5.7196   -0.6261    0.0000 H   0  0  0  0  0  0  0  0  0  0  0  0
   11.0588    3.4565    0.0000 H   0  0  0  0  0  0  0  0  0  0  0  0
   10.2617    3.4565    0.0000 H   0  0  0  0  0  0  0  0  0  0  0  0
    4.1306    3.4565    0.0000 H   0  0  0  0  0  0  0  0  0  0  0  0
    3.3335    3.4565    0.0000 H   0  0  0  0  0  0  0  0  0  0  0  0
    6.5422   -2.1011    0.0000 H   0  0  0  0  0  0  0  0  0  0  0  0
    6.9407   -1.4108    0.0000 H   0  0  0  0  0  0  0  0  0  0  0  0
   11.1278    2.0066    0.0000 H   0  0  0  0  0  0  0  0  0  0  0  0
   11.9248    2.0066    0.0000 H   0  0  0  0  0  0  0  0  0  0  0  0
    2.4675    2.0066    0.0000 H   0  0  0  0  0  0  0  0  0  0  0  0
    3.2646    2.0066    0.0000 H   0  0  0  0  0  0  0  0  0  0  0  0
    5.2520   -1.4359    0.0000 H   0  0  0  0  0  0  0  0  0  0  0  0
    4.8535   -2.1261    0.0000 H   0  0  0  0  0  0  0  0  0  0  0  0
   12.7023    2.4446    0.0000 H   0  0  0  0  0  0  0  0  0  0  0  0
   12.9292    3.2915    0.0000 H   0  0  0  0  0  0  0  0  0  0  0  0
   12.0823    3.5185    0.0000 H   0  0  0  0  0  0  0  0  0  0  0  0
    2.3100    3.5185    0.0000 H   0  0  0  0  0  0  0  0  0  0  0  0
    1.4631    3.2915    0.0000 H   0  0  0  0  0  0  0  0  0  0  0  0
    1.6900    2.4446    0.0000 H   0  0  0  0  0  0  0  0  0  0  0  0
    4.8441   -3.0185    0.0000 H   0  0  0  0  0  0  0  0  0  0  0  0
    5.4641   -3.6385    0.0000 H   0  0  0  0  0  0  0  0  0  0  0  0
    6.0841   -3.0185    0.0000 H   0  0  0  0  0  0  0  0  0  0  0  0
  2  5  1  0  0  0  0
  2 24  1  0  0  0  0
  2 25  1  0  0  0  0
  3  6  1  0  0  0  0
  3 22  1  0  0  0  0
  3 23  1  0  0  0  0
  4  7  1  0  0  0  0
  4 20  1  0  0  0  0
  4 21  1  0  0  0  0
  5  8  1  0  0  0  0
  5 30  1  0  0  0  0
  5 31  1  0  0  0  0
  6  9  1  0  0  0  0
  6 28  1  0  0  0  0
  6 29  1  0  0  0  0
  7 10  1  0  0  0  0
  7 26  1  0  0  0  0
  7 27  1  0  0  0  0
  8 11  1  0  0  0  0
  8 32  1  0  0  0  0
  8 33  1  0  0  0  0
  9 12  1  0  0  0  0
  9 34  1  0  0  0  0
  9 35  1  0  0  0  0
 10 13  1  0  0  0  0
 10 36  1  0  0  0  0
 10 37  1  0  0  0  0
 11 14  1  0  0  0  0
 11 38  1  0  0  0  0
 11 39  1  0  0  0  0
 12 15  1  0  0  0  0
 12 40  1  0  0  0  0
 12 41  1  0  0  0  0
 13 16  1  0  0  0  0
 13 42  1  0  0  0  0
 13 43  1  0  0  0  0
 14 17  1  0  0  0  0
 14 44  1  0  0  0  0
 14 45  1  0  0  0  0
 15 18  1  0  0  0  0
 15 46  1  0  0  0  0
 15 47  1  0  0  0  0
 16 19  1  0  0  0  0
 16 48  1  0  0  0  0
 16 49  1  0  0  0  0
 17 50  1  0  0  0  0
 17 51  1  0  0  0  0
 17 52  1  0  0  0  0
 18 53  1  0  0  0  0
 18 54  1  0  0  0  0
 18 55  1  0  0  0  0
 19 56  1  0  0  0  0
 19 57  1  0  0  0  0
 19 58  1  0  0  0  0
M  CHG  4   1   3   2  -1   3  -1   4  -1
M  END
> <PUBCHEM_COMPOUND_CID>
14226

> <PUBCHEM_COMPOUND_CANONICALIZED>
1

> <PUBCHEM_CACTVS_COMPLEXITY>
72.7

> <PUBCHEM_CACTVS_HBOND_ACCEPTOR>
3

> <PUBCHEM_CACTVS_HBOND_DONOR>
0

> <PUBCHEM_CACTVS_ROTATABLE_BOND>
9

> <PUBCHEM_CACTVS_SUBSKEYS>
AAADcfB4AAAAABAAAAAAAAAAAAAAAAAAAAAAAAAAAAAAAAAAAAAAGAAAAAAACACAAAACAAAAAAAAAAAAAAAAAAAAAAAAAAAAAAAAAAIAAAAAAAAAAAAAAAEAAAAAAAAAAAAAAAAAAAAAAAAAAAAAAAAAAA==

> <PUBCHEM_IUPAC_OPENEYE_NAME>
aluminum hexane

> <PUBCHEM_IUPAC_CAS_NAME>
aluminum hexane

> <PUBCHEM_IUPAC_NAME>
aluminum hexane

> <PUBCHEM_IUPAC_SYSTEMATIC_NAME>
aluminum hexane

> <PUBCHEM_IUPAC_TRADITIONAL_NAME>
aluminum hexane

> <PUBCHEM_IUPAC_INCHI>
InChI=1S/3C6H13.Al/c3*1-3-5-6-4-2;/h3*1,3-6H2,2H3;/q3*-1;+3

> <PUBCHEM_IUPAC_INCHIKEY>
XYDLECCFGAIQHL-UHFFFAOYSA-N

> <PUBCHEM_EXACT_MASS>
282.286715

> <PUBCHEM_MOLECULAR_FORMULA>
C18H39Al

> <PUBCHEM_MOLECULAR_WEIGHT>
282.483799

> <PUBCHEM_OPENEYE_CAN_SMILES>
CCCCC[CH2-].CCCCC[CH2-].CCCCC[CH2-].[Al+3]

> <PUBCHEM_OPENEYE_ISO_SMILES>
CCCCC[CH2-].CCCCC[CH2-].CCCCC[CH2-].[Al+3]

> <PUBCHEM_CACTVS_TPSA>
0

> <PUBCHEM_MONOISOTOPIC_WEIGHT>
282.286715

> <PUBCHEM_TOTAL_CHARGE>
0

> <PUBCHEM_HEAVY_ATOM_COUNT>
19

> <PUBCHEM_ATOM_DEF_STEREO_COUNT>
0

> <PUBCHEM_ATOM_UDEF_STEREO_COUNT>
0

> <PUBCHEM_BOND_DEF_STEREO_COUNT>
0

> <PUBCHEM_BOND_UDEF_STEREO_COUNT>
0

> <PUBCHEM_ISOTOPIC_ATOM_COUNT>
0

> <PUBCHEM_COMPONENT_COUNT>
4

> <PUBCHEM_CACTVS_TAUTO_COUNT>
1

> <PUBCHEM_NONSTANDARDBOND>
1  2  6
1  3  6
1  4  6

> <PUBCHEM_COORDINATE_TYPE>
1
5
255

$$$$

