582837
  -OEChem-06241222443D

 19 19  0     0  0  0  0  0  0999 V2000
   -0.1716   -2.1509    0.6752 S   0  0  0  0  0  0  0  0  0  0  0  0
    1.5139    2.2684    0.4116 F   0  0  0  0  0  0  0  0  0  0  0  0
    1.0448    1.2908   -1.4718 F   0  0  0  0  0  0  0  0  0  0  0  0
   -0.9814    2.4926   -0.2859 F   0  0  0  0  0  0  0  0  0  0  0  0
   -0.7597    1.3390    1.5450 F   0  0  0  0  0  0  0  0  0  0  0  0
    2.9529    0.1407   -0.0758 F   0  0  0  0  0  0  0  0  0  0  0  0
    1.7088   -0.0796    1.6910 F   0  0  0  0  0  0  0  0  0  0  0  0
   -1.1694    0.0374   -1.7072 F   0  0  0  0  0  0  0  0  0  0  0  0
   -2.7501    0.7581   -0.4081 F   0  0  0  0  0  0  0  0  0  0  0  0
    0.9694   -1.3129   -1.5414 F   0  0  0  0  0  0  0  0  0  0  0  0
    2.2656   -2.2398   -0.0727 F   0  0  0  0  0  0  0  0  0  0  0  0
   -2.2191   -0.8500    1.5110 F   0  0  0  0  0  0  0  0  0  0  0  0
   -2.5023   -1.8506   -0.3910 F   0  0  0  0  0  0  0  0  0  0  0  0
    0.8953    1.1739   -0.1218 C   0  0  0  0  0  0  0  0  0  0  0  0
   -0.5758    1.2803    0.2041 C   0  0  0  0  0  0  0  0  0  0  0  0
    1.6602   -0.0443    0.3355 C   0  0  0  0  0  0  0  0  0  0  0  0
   -1.4839    0.2303   -0.4027 C   0  0  0  0  0  0  0  0  0  0  0  0
    1.2061   -1.3846   -0.2089 C   0  0  0  0  0  0  0  0  0  0  0  0
   -1.6037   -1.0988    0.3138 C   0  0  0  0  0  0  0  0  0  0  0  0
  1 18  1  0  0  0  0
  1 19  1  0  0  0  0
  2 14  1  0  0  0  0
  3 14  1  0  0  0  0
  4 15  1  0  0  0  0
  5 15  1  0  0  0  0
  6 16  1  0  0  0  0
  7 16  1  0  0  0  0
  8 17  1  0  0  0  0
  9 17  1  0  0  0  0
 10 18  1  0  0  0  0
 11 18  1  0  0  0  0
 12 19  1  0  0  0  0
 13 19  1  0  0  0  0
 14 15  1  0  0  0  0
 14 16  1  0  0  0  0
 15 17  1  0  0  0  0
 16 18  1  0  0  0  0
 17 19  1  0  0  0  0
M  END
> <PUBCHEM_COMPOUND_CID>
582837

> <PUBCHEM_CONFORMER_RMSD>
0.6

> <PUBCHEM_CONFORMER_DIVERSEORDER>
1
2
7
8
5
6
3
4

> <PUBCHEM_MMFF94_PARTIAL_CHARGES>
19
1 -0.46
10 -0.34
11 -0.34
12 -0.34
13 -0.34
14 0.68
15 0.68
16 0.68
17 0.68
18 0.91
19 0.91
2 -0.34
3 -0.34
4 -0.34
5 -0.34
6 -0.34
7 -0.34
8 -0.34
9 -0.34

> <PUBCHEM_EFFECTIVE_ROTOR_COUNT>
1.4

> <PUBCHEM_PHARMACOPHORE_FEATURES>
1
7 1 14 15 16 17 18 19 rings

> <PUBCHEM_HEAVY_ATOM_COUNT>
19

> <PUBCHEM_ATOM_DEF_STEREO_COUNT>
0

> <PUBCHEM_ATOM_UDEF_STEREO_COUNT>
0

> <PUBCHEM_BOND_DEF_STEREO_COUNT>
0

> <PUBCHEM_BOND_UDEF_STEREO_COUNT>
0

> <PUBCHEM_ISOTOPIC_ATOM_COUNT>
0

> <PUBCHEM_COMPONENT_COUNT>
1

> <PUBCHEM_CACTVS_TAUTO_COUNT>
1

> <PUBCHEM_CONFORMER_ID>
0008E4B500000001

> <PUBCHEM_MMFF94_ENERGY>
19.8254

> <PUBCHEM_FEATURE_SELFOVERLAP>
5.074

> <PUBCHEM_SHAPE_FINGERPRINT>
10863032 1 18341333369995186086
10948715 1 18060143162543465412
12423570 1 17970094281262398589
13024252 1 11596572825051265742
13027679 85 18266739280299995434
141345 1 8841089672455111377
144361 1 17971484136874170091
14817 1 13075317768456562182
15001771 113 18335412495668963201
15775835 57 17832143818686648575
15881359 60 17833590857493148526
16945 1 18266483025033747213
17990270 104 18340773658431281683
20511035 2 18269004089221525668
21922407 69 16009044877087767627
22802520 49 17973988837569295510
2334 1 18195811756286924313
23419403 2 15959300862170636472
23559900 14 18409165533423324110
241688 4 17905050600710039008
2748010 2 18195533588403396108
5084963 1 18115871797738776106

> <PUBCHEM_SHAPE_MULTIPOLES>
307.58
3.07
2.46
1.28
0.16
0.01
0
-0.57
-0.05
-0.14
-0.08
0.06
0.01
0.19

> <PUBCHEM_SHAPE_SELFOVERLAP>
660.204

> <PUBCHEM_SHAPE_VOLUME>
170.5

> <PUBCHEM_COORDINATE_TYPE>
2
5
10

$$$$

