582792
  -OEChem-06241222442D

 29 30  0     0  0  0  0  0  0999 V2000
    6.2781    1.1769    0.0000 Se  0  0  0  0  0  0  0  0  0  0  0  0
    8.5458    2.5398    0.0000 O   0  0  0  0  0  0  0  0  0  0  0  0
    6.8994    3.0779    0.0000 O   0  0  0  0  0  0  0  0  0  0  0  0
    4.6783   -2.5398    0.0000 N   0  0  0  0  0  0  0  0  0  0  0  0
    4.6783   -0.9304    0.0000 C   0  0  0  0  0  0  0  0  0  0  0  0
    3.7320   -1.2351    0.0000 C   0  0  0  0  0  0  0  0  0  0  0  0
    4.9889    0.0201    0.0000 C   0  0  0  0  0  0  0  0  0  0  0  0
    3.7320   -2.2351    0.0000 C   0  0  0  0  0  0  0  0  0  0  0  0
    5.2619   -1.7351    0.0000 C   0  0  0  0  0  0  0  0  0  0  0  0
    5.9674    0.2264    0.0000 C   0  0  0  0  0  0  0  0  0  0  0  0
    2.8660   -0.7351    0.0000 C   0  0  0  0  0  0  0  0  0  0  0  0
    2.8660   -2.7351    0.0000 C   0  0  0  0  0  0  0  0  0  0  0  0
    2.0000   -1.2351    0.0000 C   0  0  0  0  0  0  0  0  0  0  0  0
    2.0000   -2.2351    0.0000 C   0  0  0  0  0  0  0  0  0  0  0  0
    7.2566    1.3831    0.0000 C   0  0  0  0  0  0  0  0  0  0  0  0
    7.5673    2.3336    0.0000 C   0  0  0  0  0  0  0  0  0  0  0  0
    4.9684    0.6398    0.0000 H   0  0  0  0  0  0  0  0  0  0  0  0
    4.3751    0.1075    0.0000 H   0  0  0  0  0  0  0  0  0  0  0  0
    5.8819   -1.7351    0.0000 H   0  0  0  0  0  0  0  0  0  0  0  0
    5.9880   -0.3933    0.0000 H   0  0  0  0  0  0  0  0  0  0  0  0
    6.5812    0.1390    0.0000 H   0  0  0  0  0  0  0  0  0  0  0  0
    4.8709   -3.1292    0.0000 H   0  0  0  0  0  0  0  0  0  0  0  0
    2.8660   -0.1151    0.0000 H   0  0  0  0  0  0  0  0  0  0  0  0
    2.8660   -3.3551    0.0000 H   0  0  0  0  0  0  0  0  0  0  0  0
    1.4631   -0.9251    0.0000 H   0  0  0  0  0  0  0  0  0  0  0  0
    1.4631   -2.5451    0.0000 H   0  0  0  0  0  0  0  0  0  0  0  0
    7.2772    0.7634    0.0000 H   0  0  0  0  0  0  0  0  0  0  0  0
    7.8704    1.2958    0.0000 H   0  0  0  0  0  0  0  0  0  0  0  0
    8.7384    3.1292    0.0000 H   0  0  0  0  0  0  0  0  0  0  0  0
  1 10  1  0  0  0  0
  1 15  1  0  0  0  0
  2 16  1  0  0  0  0
  2 29  1  0  0  0  0
  3 16  2  0  0  0  0
  4  8  1  0  0  0  0
  4  9  1  0  0  0  0
  4 22  1  0  0  0  0
  5  6  1  0  0  0  0
  5  7  1  0  0  0  0
  5  9  2  0  0  0  0
  6  8  1  0  0  0  0
  6 11  2  0  0  0  0
  7 10  1  0  0  0  0
  7 17  1  0  0  0  0
  7 18  1  0  0  0  0
  8 12  2  0  0  0  0
  9 19  1  0  0  0  0
 10 20  1  0  0  0  0
 10 21  1  0  0  0  0
 11 13  1  0  0  0  0
 11 23  1  0  0  0  0
 12 14  1  0  0  0  0
 12 24  1  0  0  0  0
 13 14  2  0  0  0  0
 13 25  1  0  0  0  0
 14 26  1  0  0  0  0
 15 16  1  0  0  0  0
 15 27  1  0  0  0  0
 15 28  1  0  0  0  0
M  END
> <PUBCHEM_COMPOUND_CID>
582792

> <PUBCHEM_COMPOUND_CANONICALIZED>
1

> <PUBCHEM_CACTVS_COMPLEXITY>
247

> <PUBCHEM_CACTVS_HBOND_ACCEPTOR>
2

> <PUBCHEM_CACTVS_HBOND_DONOR>
2

> <PUBCHEM_CACTVS_ROTATABLE_BOND>
5

> <PUBCHEM_CACTVS_SUBSKEYS>
AAADccByMAAAAAAAIAAAAAAAAAAAAWAAAAAwAAAAAAAAAFgB8AAAHgCQCAAADAjBngQ8yPLJkgCoAzT3TACCgCAxAiAI2aA4ZJgIIOLAkZGEIAhgkADIyAcQgMAOgAAAAAACAAAAAAAAAAQAAAAAAAAAAA==

> <PUBCHEM_IUPAC_OPENEYE_NAME>
2-[2-(1H-indol-3-yl)ethylselanyl]acetic acid

> <PUBCHEM_IUPAC_CAS_NAME>
2-[2-(1H-indol-3-yl)ethylseleno]acetic acid

> <PUBCHEM_IUPAC_NAME>
2-[2-(1H-indol-3-yl)ethylselanyl]acetic acid

> <PUBCHEM_IUPAC_SYSTEMATIC_NAME>
2-[2-(1H-indol-3-yl)ethylselanyl]ethanoic acid

> <PUBCHEM_IUPAC_TRADITIONAL_NAME>
2-[2-(1H-indol-3-yl)ethylseleno]acetic acid

> <PUBCHEM_IUPAC_INCHI>
InChI=1S/C12H13NO2Se/c14-12(15)8-16-6-5-9-7-13-11-4-2-1-3-10(9)11/h1-4,7,13H,5-6,8H2,(H,14,15)

> <PUBCHEM_IUPAC_INCHIKEY>
SQFBDNJZABBCRH-UHFFFAOYSA-N

> <PUBCHEM_EXACT_MASS>
283.01115

> <PUBCHEM_MOLECULAR_FORMULA>
C12H13NO2Se

> <PUBCHEM_MOLECULAR_WEIGHT>
282.19712

> <PUBCHEM_OPENEYE_CAN_SMILES>
C1=CC=C2C(=C1)C(=CN2)CC[Se]CC(=O)O

> <PUBCHEM_OPENEYE_ISO_SMILES>
C1=CC=C2C(=C1)C(=CN2)CC[Se]CC(=O)O

> <PUBCHEM_CACTVS_TPSA>
53.1

> <PUBCHEM_MONOISOTOPIC_WEIGHT>
283.01115

> <PUBCHEM_TOTAL_CHARGE>
0

> <PUBCHEM_HEAVY_ATOM_COUNT>
16

> <PUBCHEM_ATOM_DEF_STEREO_COUNT>
0

> <PUBCHEM_ATOM_UDEF_STEREO_COUNT>
0

> <PUBCHEM_BOND_DEF_STEREO_COUNT>
0

> <PUBCHEM_BOND_UDEF_STEREO_COUNT>
0

> <PUBCHEM_ISOTOPIC_ATOM_COUNT>
0

> <PUBCHEM_COMPONENT_COUNT>
1

> <PUBCHEM_CACTVS_TAUTO_COUNT>
1

> <PUBCHEM_COORDINATE_TYPE>
1
5
255

> <PUBCHEM_BONDANNOTATIONS>
11  13  8
12  14  8
13  14  8
4  8  8
4  9  8
5  6  8
5  9  8
6  11  8
6  8  8
8  12  8

$$$$

