12778
  -OEChem-06261207213D

 16 16  0     0  0  0  0  0  0999 V2000
    3.5556   -0.3632    0.0001 O   0  0  0  0  0  0  0  0  0  0  0  0
   -3.9320   -0.1205    0.0000 O   0  0  0  0  0  0  0  0  0  0  0  0
    2.1872   -0.1424   -0.0001 N   0  0  0  0  0  0  0  0  0  0  0  0
   -2.7511   -0.4857    0.0000 N   0  0  0  0  0  0  0  0  0  0  0  0
   -0.5558    0.3003    0.0000 C   0  0  0  0  0  0  0  0  0  0  0  0
    0.3825    1.4321   -0.0001 C   0  0  0  0  0  0  0  0  0  0  0  0
   -0.0212   -1.0692   -0.0001 C   0  0  0  0  0  0  0  0  0  0  0  0
    1.6995    1.1548    0.0001 C   0  0  0  0  0  0  0  0  0  0  0  0
    1.3162   -1.2203    0.0001 C   0  0  0  0  0  0  0  0  0  0  0  0
   -1.8809    0.5141    0.0000 C   0  0  0  0  0  0  0  0  0  0  0  0
    0.0181    2.4527    0.0000 H   0  0  0  0  0  0  0  0  0  0  0  0
   -0.6606   -1.9438   -0.0001 H   0  0  0  0  0  0  0  0  0  0  0  0
    2.4593    1.9271    0.0002 H   0  0  0  0  0  0  0  0  0  0  0  0
    1.7950   -2.1922    0.0001 H   0  0  0  0  0  0  0  0  0  0  0  0
   -2.2602    1.5347    0.0000 H   0  0  0  0  0  0  0  0  0  0  0  0
    3.7548   -0.3955    0.9517 H   0  0  0  0  0  0  0  0  0  0  0  0
  1  3  1  0  0  0  0
  1 16  1  0  0  0  0
  2  4  2  0  0  0  0
  3  8  1  0  0  0  0
  3  9  1  0  0  0  0
  4 10  1  0  0  0  0
  5  6  1  0  0  0  0
  5  7  1  0  0  0  0
  5 10  2  0  0  0  0
  6  8  2  0  0  0  0
  6 11  1  0  0  0  0
  7  9  2  0  0  0  0
  7 12  1  0  0  0  0
  8 13  1  0  0  0  0
  9 14  1  0  0  0  0
 10 15  1  0  0  0  0
M  END
> <PUBCHEM_COMPOUND_CID>
12778

> <PUBCHEM_CONFORMER_RMSD>
0.4

> <PUBCHEM_CONFORMER_DIVERSEORDER>
1
2

> <PUBCHEM_MMFF94_PARTIAL_CHARGES>
15
1 -0.38
10 0.14
11 0.15
12 0.15
13 0.15
14 0.15
15 0.15
16 0.4
2 -0.16
3 -0.22
4 -0.13
6 -0.15
7 -0.15
8 -0.05
9 -0.05

> <PUBCHEM_EFFECTIVE_ROTOR_COUNT>
1.2

> <PUBCHEM_PHARMACOPHORE_FEATURES>
2
1 1 anion
6 3 5 6 7 8 9 rings

> <PUBCHEM_HEAVY_ATOM_COUNT>
10

> <PUBCHEM_ATOM_DEF_STEREO_COUNT>
0

> <PUBCHEM_ATOM_UDEF_STEREO_COUNT>
0

> <PUBCHEM_BOND_DEF_STEREO_COUNT>
0

> <PUBCHEM_BOND_UDEF_STEREO_COUNT>
0

> <PUBCHEM_ISOTOPIC_ATOM_COUNT>
0

> <PUBCHEM_COMPONENT_COUNT>
1

> <PUBCHEM_CACTVS_TAUTO_COUNT>
2

> <PUBCHEM_CONFORMER_ID>
000031EA00000001

> <PUBCHEM_MMFF94_ENERGY>
25.21

> <PUBCHEM_FEATURE_SELFOVERLAP>
10.148

> <PUBCHEM_SHAPE_FINGERPRINT>
10219947 1 18409165506461315776
10857977 72 18410304622019477728
11062470 55 14333407852397113055
12032990 46 18409724097323897894
12932764 1 16845305903714067867
14325111 11 18338516335595595873
16945 1 18410573989557201218
193761 8 17689997838946070436
20201158 50 18342455958735568147
20871998 22 18117271673804687502
21040471 1 18122626054797496388
21293036 1 18341323440473773228
23235685 24 18410579465724958144
23402655 69 18193857035915755149
23552423 10 18055909046523463014
2748010 2 18123183498634375862
29004967 10 18412542136745569089
5084963 1 18409449184766987312

> <PUBCHEM_SHAPE_MULTIPOLES>
184.09
4.83
1.32
0.58
2.41
0.13
0
-0.64
0
-0.47
0
-0.01
0.01
0

> <PUBCHEM_SHAPE_SELFOVERLAP>
379.189

> <PUBCHEM_SHAPE_VOLUME>
104.9

> <PUBCHEM_COORDINATE_TYPE>
2
5
10

$$$$

