558
  -OEChem-07051212483D

 23 22  0     0  0  0  0  0  0999 V2000
   -2.5834   -1.4539   -0.5373 O   0  0  0  0  0  0  0  0  0  0  0  0
   -4.3601    0.3136   -0.2333 O   0  0  0  0  0  0  0  0  0  0  0  0
   -2.8008    1.7843    0.5854 O   0  0  0  0  0  0  0  0  0  0  0  0
    2.1887    0.0236   -0.3647 N   0  0  0  0  0  0  0  0  0  0  0  0
    4.0125    1.3769   -0.8289 N   0  0  0  0  0  0  0  0  0  0  0  0
    4.2816   -0.2026    0.7922 N   0  0  0  0  0  0  0  0  0  0  0  0
    0.1888   -1.3291    0.0233 C   0  0  0  0  0  0  0  0  0  0  0  0
   -0.7052   -0.1090    0.2477 C   0  0  0  0  0  0  0  0  0  0  0  0
    1.6358   -1.0746    0.4292 C   0  0  0  0  0  0  0  0  0  0  0  0
   -2.1465   -0.3993   -0.1016 C   0  0  0  0  0  0  0  0  0  0  0  0
    3.4193    0.3550   -0.1254 C   0  0  0  0  0  0  0  0  0  0  0  0
   -3.1306    0.7152    0.1133 C   0  0  0  0  0  0  0  0  0  0  0  0
    0.1498   -1.6176   -1.0350 H   0  0  0  0  0  0  0  0  0  0  0  0
   -0.1972   -2.1817    0.5957 H   0  0  0  0  0  0  0  0  0  0  0  0
   -0.3723    0.7291   -0.3739 H   0  0  0  0  0  0  0  0  0  0  0  0
   -0.6624    0.1905    1.3008 H   0  0  0  0  0  0  0  0  0  0  0  0
    2.2104   -1.9932    0.2602 H   0  0  0  0  0  0  0  0  0  0  0  0
    1.6714   -0.8329    1.4986 H   0  0  0  0  0  0  0  0  0  0  0  0
    3.5026    1.8863   -1.5424 H   0  0  0  0  0  0  0  0  0  0  0  0
    4.9737    1.6509   -0.6572 H   0  0  0  0  0  0  0  0  0  0  0  0
    5.2308    0.1406    0.8929 H   0  0  0  0  0  0  0  0  0  0  0  0
    4.0074   -0.9696    1.3957 H   0  0  0  0  0  0  0  0  0  0  0  0
   -5.0348    1.0097   -0.0833 H   0  0  0  0  0  0  0  0  0  0  0  0
  1 10  2  0  0  0  0
  2 12  1  0  0  0  0
  2 23  1  0  0  0  0
  3 12  2  0  0  0  0
  4  9  1  0  0  0  0
  4 11  2  0  0  0  0
  5 11  1  0  0  0  0
  5 19  1  0  0  0  0
  5 20  1  0  0  0  0
  6 11  1  0  0  0  0
  6 21  1  0  0  0  0
  6 22  1  0  0  0  0
  7  8  1  0  0  0  0
  7  9  1  0  0  0  0
  7 13  1  0  0  0  0
  7 14  1  0  0  0  0
  8 10  1  0  0  0  0
  8 15  1  0  0  0  0
  8 16  1  0  0  0  0
  9 17  1  0  0  0  0
  9 18  1  0  0  0  0
 10 12  1  0  0  0  0
M  END
> <PUBCHEM_COMPOUND_CID>
558

> <PUBCHEM_CONFORMER_RMSD>
0.6

> <PUBCHEM_CONFORMER_DIVERSEORDER>
1
78
80
70
84
71
3
77
41
23
15
60
14
92
13
37
25
2
39
64
17
51
97
100
12
98
20
52
10
76
19
95
73
89
46
101
7
6
82
55
65
31
75
62
58
43
72
4
67
5
90
86
22
45
63
8
79
49
36
88
32
81
27
59
28
87
74
57
99
94
35
26
91
24
53
85
47
38
30
68
54
18
93
9
29
56
34
33
66
16
61
83
42
96
21
40
50
48
44
11
69

> <PUBCHEM_MMFF94_PARTIAL_CHARGES>
16
1 -0.57
10 0.51
11 0.55
12 0.72
19 0.4
2 -0.65
20 0.4
21 0.4
22 0.4
23 0.5
3 -0.57
4 -0.7
5 -0.85
6 -0.85
8 0.06
9 0.25

> <PUBCHEM_EFFECTIVE_ROTOR_COUNT>
5

> <PUBCHEM_PHARMACOPHORE_FEATURES>
7
1 1 acceptor
1 2 acceptor
1 3 acceptor
1 5 donor
1 6 donor
3 2 3 12 anion
4 4 5 6 11 cation

> <PUBCHEM_HEAVY_ATOM_COUNT>
12

> <PUBCHEM_ATOM_DEF_STEREO_COUNT>
0

> <PUBCHEM_ATOM_UDEF_STEREO_COUNT>
0

> <PUBCHEM_BOND_DEF_STEREO_COUNT>
0

> <PUBCHEM_BOND_UDEF_STEREO_COUNT>
0

> <PUBCHEM_ISOTOPIC_ATOM_COUNT>
0

> <PUBCHEM_COMPONENT_COUNT>
1

> <PUBCHEM_CACTVS_TAUTO_COUNT>
4

> <PUBCHEM_CONFORMER_ID>
0000022E00000001

> <PUBCHEM_MMFF94_ENERGY>
22.0939

> <PUBCHEM_FEATURE_SELFOVERLAP>
35.646

> <PUBCHEM_SHAPE_FINGERPRINT>
10149128 111 18342452651462849132
114248 4 15864077558899628466
12162725 195 18341894078228730566
12346645 44 18412544327173797090
12932764 1 17168154433220302879
14123260 362 18339347613425242916
14325111 11 18411418401792588718
14897335 6 18410295843159409739
15775835 57 18412823590347663468
170605 34 18342736351222349082
18186145 218 17988926669589885662
19107657 47 17131844169998743924
20281407 28 9079118847506758478
20645477 70 15068612816949367132
20711983 171 18409446964711864190
21293036 1 16370730330856422787
21524375 3 18411984671634534066
22485316 2 8502375516414644002
23402539 116 18114473292495192278

> <PUBCHEM_SHAPE_MULTIPOLES>
214.4
8.54
1.44
0.75
2.54
0.12
0.01
3.04
-0.26
-0.33
-0.03
0.27
0.05
-0.84

> <PUBCHEM_SHAPE_SELFOVERLAP>
412.79

> <PUBCHEM_SHAPE_VOLUME>
128

> <PUBCHEM_COORDINATE_TYPE>
2
5
10

$$$$

