9723
  -OEChem-06261203593D

 42 43  0     0  0  0  0  0  0999 V2000
   -1.2774    3.2620   -0.6475 O   0  0  0  0  0  0  0  0  0  0  0  0
    1.2704    3.2650    0.6463 O   0  0  0  0  0  0  0  0  0  0  0  0
   -2.6774    1.1358    0.5183 N   0  0  0  0  0  0  0  0  0  0  0  0
    2.6748    1.1367   -0.5186 N   0  0  0  0  0  0  0  0  0  0  0  0
   -1.3315    1.2437    0.5424 N   0  0  0  0  0  0  0  0  0  0  0  0
    1.3275    1.2449   -0.5404 N   0  0  0  0  0  0  0  0  0  0  0  0
   -3.9755   -2.6218   -0.5197 C   0  0  0  0  0  0  0  0  0  0  0  0
    3.9823   -2.6176    0.5197 C   0  0  0  0  0  0  0  0  0  0  0  0
   -4.8686   -1.3835   -0.6170 C   0  0  0  0  0  0  0  0  0  0  0  0
   -2.4930   -2.2438   -0.5294 C   0  0  0  0  0  0  0  0  0  0  0  0
    4.8731   -1.3775    0.6145 C   0  0  0  0  0  0  0  0  0  0  0  0
    2.4990   -2.2427    0.5316 C   0  0  0  0  0  0  0  0  0  0  0  0
   -4.5736   -0.3860    0.4971 C   0  0  0  0  0  0  0  0  0  0  0  0
   -2.1521   -1.2617    0.5857 C   0  0  0  0  0  0  0  0  0  0  0  0
    4.5740   -0.3814   -0.4998 C   0  0  0  0  0  0  0  0  0  0  0  0
    2.1541   -1.2620   -0.5835 C   0  0  0  0  0  0  0  0  0  0  0  0
   -3.0964   -0.0867    0.5218 C   0  0  0  0  0  0  0  0  0  0  0  0
    3.0962   -0.0849   -0.5221 C   0  0  0  0  0  0  0  0  0  0  0  0
   -0.7490    2.3302   -0.0621 C   0  0  0  0  0  0  0  0  0  0  0  0
    0.7433    2.3313    0.0627 C   0  0  0  0  0  0  0  0  0  0  0  0
   -4.2090   -3.1725    0.3998 H   0  0  0  0  0  0  0  0  0  0  0  0
   -4.1877   -3.2932   -1.3594 H   0  0  0  0  0  0  0  0  0  0  0  0
    4.2153   -3.1686   -0.3997 H   0  0  0  0  0  0  0  0  0  0  0  0
    4.1972   -3.2879    1.3595 H   0  0  0  0  0  0  0  0  0  0  0  0
   -5.9216   -1.6833   -0.5743 H   0  0  0  0  0  0  0  0  0  0  0  0
   -4.7091   -0.9025   -1.5902 H   0  0  0  0  0  0  0  0  0  0  0  0
   -2.2411   -1.7984   -1.5000 H   0  0  0  0  0  0  0  0  0  0  0  0
   -1.8849   -3.1494   -0.4224 H   0  0  0  0  0  0  0  0  0  0  0  0
    5.9266   -1.6752    0.5701 H   0  0  0  0  0  0  0  0  0  0  0  0
    4.7144   -0.8961    1.5876 H   0  0  0  0  0  0  0  0  0  0  0  0
    2.2478   -1.7971    1.5025 H   0  0  0  0  0  0  0  0  0  0  0  0
    1.8926   -3.1495    0.4263 H   0  0  0  0  0  0  0  0  0  0  0  0
   -4.8528   -0.8033    1.4708 H   0  0  0  0  0  0  0  0  0  0  0  0
   -5.1434    0.5363    0.3455 H   0  0  0  0  0  0  0  0  0  0  0  0
   -1.0900   -1.0530    0.4858 H   0  0  0  0  0  0  0  0  0  0  0  0
   -2.2949   -1.7417    1.5614 H   0  0  0  0  0  0  0  0  0  0  0  0
    4.8522   -0.7989   -1.4737 H   0  0  0  0  0  0  0  0  0  0  0  0
    5.1423    0.5423   -0.3500 H   0  0  0  0  0  0  0  0  0  0  0  0
    1.0919   -1.0544   -0.4817 H   0  0  0  0  0  0  0  0  0  0  0  0
    2.2959   -1.7422   -1.5591 H   0  0  0  0  0  0  0  0  0  0  0  0
   -0.7862    0.6013    1.1036 H   0  0  0  0  0  0  0  0  0  0  0  0
    0.7821    0.5999   -1.0986 H   0  0  0  0  0  0  0  0  0  0  0  0
  1 19  2  0  0  0  0
  2 20  2  0  0  0  0
  3  5  1  0  0  0  0
  3 17  2  0  0  0  0
  4  6  1  0  0  0  0
  4 18  2  0  0  0  0
  5 19  1  0  0  0  0
  5 41  1  0  0  0  0
  6 20  1  0  0  0  0
  6 42  1  0  0  0  0
  7  9  1  0  0  0  0
  7 10  1  0  0  0  0
  7 21  1  0  0  0  0
  7 22  1  0  0  0  0
  8 11  1  0  0  0  0
  8 12  1  0  0  0  0
  8 23  1  0  0  0  0
  8 24  1  0  0  0  0
  9 13  1  0  0  0  0
  9 25  1  0  0  0  0
  9 26  1  0  0  0  0
 10 14  1  0  0  0  0
 10 27  1  0  0  0  0
 10 28  1  0  0  0  0
 11 15  1  0  0  0  0
 11 29  1  0  0  0  0
 11 30  1  0  0  0  0
 12 16  1  0  0  0  0
 12 31  1  0  0  0  0
 12 32  1  0  0  0  0
 13 17  1  0  0  0  0
 13 33  1  0  0  0  0
 13 34  1  0  0  0  0
 14 17  1  0  0  0  0
 14 35  1  0  0  0  0
 14 36  1  0  0  0  0
 15 18  1  0  0  0  0
 15 37  1  0  0  0  0
 15 38  1  0  0  0  0
 16 18  1  0  0  0  0
 16 39  1  0  0  0  0
 16 40  1  0  0  0  0
 19 20  1  0  0  0  0
M  END
> <PUBCHEM_COMPOUND_CID>
9723

> <PUBCHEM_CONFORMER_RMSD>
0.8

> <PUBCHEM_CONFORMER_DIVERSEORDER>
1
13
6
7
2
14
4
12
9
10
3
5
8
11

> <PUBCHEM_MMFF94_PARTIAL_CHARGES>
16
1 -0.57
13 0.06
14 0.06
15 0.06
16 0.06
17 0.33
18 0.33
19 0.63
2 -0.57
20 0.63
3 -0.51
4 -0.51
41 0.37
42 0.37
5 -0.37
6 -0.37

> <PUBCHEM_EFFECTIVE_ROTOR_COUNT>
7

> <PUBCHEM_PHARMACOPHORE_FEATURES>
8
1 1 acceptor
1 2 acceptor
1 3 acceptor
1 4 acceptor
1 5 donor
1 6 donor
6 7 9 10 13 14 17 rings
6 8 11 12 15 16 18 rings

> <PUBCHEM_HEAVY_ATOM_COUNT>
20

> <PUBCHEM_ATOM_DEF_STEREO_COUNT>
0

> <PUBCHEM_ATOM_UDEF_STEREO_COUNT>
0

> <PUBCHEM_BOND_DEF_STEREO_COUNT>
0

> <PUBCHEM_BOND_UDEF_STEREO_COUNT>
0

> <PUBCHEM_ISOTOPIC_ATOM_COUNT>
0

> <PUBCHEM_COMPONENT_COUNT>
1

> <PUBCHEM_CACTVS_TAUTO_COUNT>
3

> <PUBCHEM_CONFORMER_ID>
000025FB00000001

> <PUBCHEM_MMFF94_ENERGY>
40.3646

> <PUBCHEM_FEATURE_SELFOVERLAP>
40.608

> <PUBCHEM_SHAPE_FINGERPRINT>
12553582 1 18410844465012013959
12596599 1 17968917747870292586
12633257 1 18188475952445887297
13533116 47 18043811971129958203
13631057 29 18410008871399695492
13828863 39 16301232280219555610
138480 1 14880033786061766592
14081887 123 18192161592989969714
14117953 113 18188489189730721439
14787075 74 18337944598730236156
15352361 1 18410575084668678479
15537594 2 18268127847136884531
19141452 34 18264481952932472465
20291156 8 18410572889934953059
20403669 9 18408599275284989775
20621476 51 18265340688435282050
20621476 91 18267044854786688682
20645477 70 18126571111408695225
21250096 35 18410293609713021403
21673915 165 18411419548875969450
22113638 7 18335705975079948607
23559900 14 18263370192105415057
339767 52 18410022038925880427
3421961 26 18337111146697630009
4283 87 18336551491089821159
46194498 28 17273421556673569957
463206 1 18341325613353172427
556388 4 18192995920178129935
7064713 232 17749381611585471923

> <PUBCHEM_SHAPE_MULTIPOLES>
379.93
10.28
3.89
0.86
0.03
2.12
0
-8.23
0
-0.01
0
0
-0.1
-1.03

> <PUBCHEM_SHAPE_SELFOVERLAP>
771.844

> <PUBCHEM_SHAPE_VOLUME>
217.4

> <PUBCHEM_COORDINATE_TYPE>
2
5
10

$$$$

