24892784
  -OEChem-07051213082D

 53 52  0     1  0  0  0  0  0999 V2000
    4.5981    3.5485    0.0000 P   0  0  0  0  0  0  0  0  0  0  0  0
    5.4641    4.0485    0.0000 O   0  0  0  0  0  0  0  0  0  0  0  0
    8.0622    4.5485    0.0000 O   0  0  0  0  0  0  0  0  0  0  0  0
    3.7320    3.0485    0.0000 O   0  0  0  0  0  0  0  0  0  0  0  0
    4.0981    4.4146    0.0000 O   0  0  0  0  0  0  0  0  0  0  0  0
    5.0981    2.6825    0.0000 O   0  0  0  0  0  0  0  0  0  0  0  0
    2.0000   -3.9515    0.0000 O   0  0  0  0  0  0  0  0  0  0  0  0
    3.7320   -3.9515    0.0000 O   0  0  0  0  0  0  0  0  0  0  0  0
    6.3301    3.5485    0.0000 C   0  0  2  0  0  0  0  0  0  0  0  0
    7.1962    4.0485    0.0000 C   0  0  0  0  0  0  0  0  0  0  0  0
    6.3301    2.5485    0.0000 C   0  0  0  0  0  0  0  0  0  0  0  0
    5.4641    2.0485    0.0000 C   0  0  0  0  0  0  0  0  0  0  0  0
    7.6962    3.1825    0.0000 C   0  0  0  0  0  0  0  0  0  0  0  0
    6.6962    4.9146    0.0000 C   0  0  0  0  0  0  0  0  0  0  0  0
    5.4641    1.0485    0.0000 C   0  0  0  0  0  0  0  0  0  0  0  0
    4.5981    0.5485    0.0000 C   0  0  0  0  0  0  0  0  0  0  0  0
    6.3301    0.5485    0.0000 C   0  0  0  0  0  0  0  0  0  0  0  0
    4.5981   -0.4515    0.0000 C   0  0  0  0  0  0  0  0  0  0  0  0
    3.7320   -0.9515    0.0000 C   0  0  0  0  0  0  0  0  0  0  0  0
    3.7320   -1.9515    0.0000 C   0  0  0  0  0  0  0  0  0  0  0  0
    4.5981   -2.4515    0.0000 C   0  0  0  0  0  0  0  0  0  0  0  0
    2.8660   -2.4515    0.0000 C   0  0  0  0  0  0  0  0  0  0  0  0
    2.8660   -3.4515    0.0000 C   0  0  0  0  0  0  0  0  0  0  0  0
    2.0000   -4.9515    0.0000 C   0  0  0  0  0  0  0  0  0  0  0  0
    5.7932    3.2385    0.0000 H   0  0  0  0  0  0  0  0  0  0  0  0
    6.5422    1.9659    0.0000 H   0  0  0  0  0  0  0  0  0  0  0  0
    6.9407    2.6562    0.0000 H   0  0  0  0  0  0  0  0  0  0  0  0
    5.2520    2.6311    0.0000 H   0  0  0  0  0  0  0  0  0  0  0  0
    4.8535    1.9409    0.0000 H   0  0  0  0  0  0  0  0  0  0  0  0
    7.2331    5.2246    0.0000 H   0  0  0  0  0  0  0  0  0  0  0  0
    6.3862    5.4515    0.0000 H   0  0  0  0  0  0  0  0  0  0  0  0
    6.1592    4.6046    0.0000 H   0  0  0  0  0  0  0  0  0  0  0  0
    7.1592    2.8725    0.0000 H   0  0  0  0  0  0  0  0  0  0  0  0
    8.0062    2.6456    0.0000 H   0  0  0  0  0  0  0  0  0  0  0  0
    8.2331    3.4925    0.0000 H   0  0  0  0  0  0  0  0  0  0  0  0
    8.5991    4.2385    0.0000 H   0  0  0  0  0  0  0  0  0  0  0  0
    4.0611    0.8585    0.0000 H   0  0  0  0  0  0  0  0  0  0  0  0
    6.0201    0.0116    0.0000 H   0  0  0  0  0  0  0  0  0  0  0  0
    6.8671    0.2385    0.0000 H   0  0  0  0  0  0  0  0  0  0  0  0
    6.6401    1.0855    0.0000 H   0  0  0  0  0  0  0  0  0  0  0  0
    4.8101   -1.0341    0.0000 H   0  0  0  0  0  0  0  0  0  0  0  0
    5.2087   -0.3438    0.0000 H   0  0  0  0  0  0  0  0  0  0  0  0
    3.5200   -0.3689    0.0000 H   0  0  0  0  0  0  0  0  0  0  0  0
    3.1215   -1.0591    0.0000 H   0  0  0  0  0  0  0  0  0  0  0  0
    4.4081    4.9515    0.0000 H   0  0  0  0  0  0  0  0  0  0  0  0
    3.1951    3.3585    0.0000 H   0  0  0  0  0  0  0  0  0  0  0  0
    4.2881   -2.9884    0.0000 H   0  0  0  0  0  0  0  0  0  0  0  0
    5.1350   -2.7615    0.0000 H   0  0  0  0  0  0  0  0  0  0  0  0
    4.9081   -1.9145    0.0000 H   0  0  0  0  0  0  0  0  0  0  0  0
    2.3291   -2.1415    0.0000 H   0  0  0  0  0  0  0  0  0  0  0  0
    1.3800   -4.9515    0.0000 H   0  0  0  0  0  0  0  0  0  0  0  0
    2.0000   -5.5715    0.0000 H   0  0  0  0  0  0  0  0  0  0  0  0
    2.6200   -4.9515    0.0000 H   0  0  0  0  0  0  0  0  0  0  0  0
  1  2  1  0  0  0  0
  1  4  1  0  0  0  0
  1  5  1  0  0  0  0
  1  6  2  0  0  0  0
  9  2  1  6  0  0  0
  3 10  1  0  0  0  0
  3 36  1  0  0  0  0
  4 46  1  0  0  0  0
  5 45  1  0  0  0  0
  7 23  1  0  0  0  0
  7 24  1  0  0  0  0
  8 23  2  0  0  0  0
  9 10  1  0  0  0  0
  9 11  1  0  0  0  0
  9 25  1  0  0  0  0
 10 13  1  0  0  0  0
 10 14  1  0  0  0  0
 11 12  1  0  0  0  0
 11 26  1  0  0  0  0
 11 27  1  0  0  0  0
 12 15  1  0  0  0  0
 12 28  1  0  0  0  0
 12 29  1  0  0  0  0
 13 33  1  0  0  0  0
 13 34  1  0  0  0  0
 13 35  1  0  0  0  0
 14 30  1  0  0  0  0
 14 31  1  0  0  0  0
 14 32  1  0  0  0  0
 15 16  2  0  0  0  0
 15 17  1  0  0  0  0
 16 18  1  0  0  0  0
 16 37  1  0  0  0  0
 17 38  1  0  0  0  0
 17 39  1  0  0  0  0
 17 40  1  0  0  0  0
 18 19  1  0  0  0  0
 18 41  1  0  0  0  0
 18 42  1  0  0  0  0
 19 20  1  0  0  0  0
 19 43  1  0  0  0  0
 19 44  1  0  0  0  0
 20 21  1  0  0  0  0
 20 22  2  0  0  0  0
 21 47  1  0  0  0  0
 21 48  1  0  0  0  0
 21 49  1  0  0  0  0
 22 23  1  0  0  0  0
 22 50  1  0  0  0  0
 24 51  1  0  0  0  0
 24 52  1  0  0  0  0
 24 53  1  0  0  0  0
M  END
> <PUBCHEM_COMPOUND_CID>
24892784

> <PUBCHEM_COMPOUND_CANONICALIZED>
1

> <PUBCHEM_CACTVS_COMPLEXITY>
517

> <PUBCHEM_CACTVS_HBOND_ACCEPTOR>
7

> <PUBCHEM_CACTVS_HBOND_DONOR>
3

> <PUBCHEM_CACTVS_ROTATABLE_BOND>
11

> <PUBCHEM_CACTVS_SUBSKEYS>
AAADceB4OAIAAAAAAAAAAAAAAAAAAAAAAAAAAAAAAAAAAAAAAAAAGgAACCAADFSggAICCAAABxCIQiDSCIAAAAAgAAAACAAAAEgBBAIAIQAAUAAEgAAJIQOAwEAMAAAAAAAAAAAAAAAAAAAAAAAAAAAAAA==

> <PUBCHEM_IUPAC_OPENEYE_NAME>
methyl (2E,6E,10S)-11-hydroxy-3,7,11-trimethyl-10-phosphonooxy-dodeca-2,6-dienoate

> <PUBCHEM_IUPAC_CAS_NAME>
(2E,6E,10S)-11-hydroxy-3,7,11-trimethyl-10-phosphonooxydodeca-2,6-dienoic acid methyl ester

> <PUBCHEM_IUPAC_NAME>
methyl (2E,6E,10S)-11-hydroxy-3,7,11-trimethyl-10-phosphonooxydodeca-2,6-dienoate

> <PUBCHEM_IUPAC_SYSTEMATIC_NAME>
methyl (2E,6E,10S)-3,7,11-trimethyl-11-oxidanyl-10-phosphonooxy-dodeca-2,6-dienoate

> <PUBCHEM_IUPAC_TRADITIONAL_NAME>
(2E,6E,10S)-11-hydroxy-3,7,11-trimethyl-10-phosphonooxy-dodeca-2,6-dienoic acid methyl ester

> <PUBCHEM_IUPAC_INCHI>
InChI=1S/C16H29O7P/c1-12(7-6-8-13(2)11-15(17)22-5)9-10-14(16(3,4)18)23-24(19,20)21/h7,11,14,18H,6,8-10H2,1-5H3,(H2,19,20,21)/b12-7+,13-11+/t14-/m0/s1

> <PUBCHEM_IUPAC_INCHIKEY>
JDMJTZPURCXYDX-RATZTOCSSA-N

> <PUBCHEM_XLOGP3_AA>
1.9

> <PUBCHEM_EXACT_MASS>
364.16509

> <PUBCHEM_MOLECULAR_FORMULA>
C16H29O7P

> <PUBCHEM_MOLECULAR_WEIGHT>
364.371022

> <PUBCHEM_OPENEYE_CAN_SMILES>
CC(=CCCC(=CC(=O)OC)C)CCC(C(C)(C)O)OP(=O)(O)O

> <PUBCHEM_OPENEYE_ISO_SMILES>
C/C(=C\CC/C(=C/C(=O)OC)/C)/CC[C@@H](C(C)(C)O)OP(=O)(O)O

> <PUBCHEM_CACTVS_TPSA>
113

> <PUBCHEM_MONOISOTOPIC_WEIGHT>
364.16509

> <PUBCHEM_TOTAL_CHARGE>
0

> <PUBCHEM_HEAVY_ATOM_COUNT>
24

> <PUBCHEM_ATOM_DEF_STEREO_COUNT>
1

> <PUBCHEM_ATOM_UDEF_STEREO_COUNT>
0

> <PUBCHEM_BOND_DEF_STEREO_COUNT>
2

> <PUBCHEM_BOND_UDEF_STEREO_COUNT>
0

> <PUBCHEM_ISOTOPIC_ATOM_COUNT>
0

> <PUBCHEM_COMPONENT_COUNT>
1

> <PUBCHEM_CACTVS_TAUTO_COUNT>
1

> <PUBCHEM_COORDINATE_TYPE>
1
5
255

> <PUBCHEM_BONDANNOTATIONS>
9  2  6

$$$$

