242347
  -OEChem-07051213073D

 71 74  0     1  0  0  0  0  0999 V2000
   -6.6202    2.2178    0.9034 O   0  0  0  0  0  0  0  0  0  0  0  0
    0.5227   -1.0103    0.5223 C   0  0  1  0  0  0  0  0  0  0  0  0
   -0.1575   -0.7313   -0.8385 C   0  0  2  0  0  0  0  0  0  0  0  0
   -1.6850   -0.8283   -0.7713 C   0  0  1  0  0  0  0  0  0  0  0  0
   -2.1873    0.2251    0.2744 C   0  0  1  0  0  0  0  0  0  0  0  0
   -3.7372    0.2236    0.3479 C   0  0  2  0  0  0  0  0  0  0  0  0
    2.0028   -0.8838    0.0849 C   0  0  2  0  0  0  0  0  0  0  0  0
    0.0510    0.0585    1.5226 C   0  0  0  0  0  0  0  0  0  0  0  0
   -4.2536    0.5501   -1.0753 C   0  0  1  0  0  0  0  0  0  0  0  0
   -1.4845    0.0858    1.6436 C   0  0  0  0  0  0  0  0  0  0  0  0
    0.6024   -1.6261   -1.8117 C   0  0  0  0  0  0  0  0  0  0  0  0
   -2.3409   -0.6283   -2.1556 C   0  0  0  0  0  0  0  0  0  0  0  0
    2.0467   -1.6188   -1.2761 C   0  0  0  0  0  0  0  0  0  0  0  0
   -3.8720   -0.5108   -2.0947 C   0  0  0  0  0  0  0  0  0  0  0  0
   -4.3557    1.3853    1.1513 C   0  0  0  0  0  0  0  0  0  0  0  0
    0.2317   -2.4201    1.0966 C   0  0  0  0  0  0  0  0  0  0  0  0
    3.0495   -1.3919    1.0659 C   0  0  1  0  0  0  0  0  0  0  0  0
   -5.7327    0.8660   -0.8987 C   0  0  0  0  0  0  0  0  0  0  0  0
   -4.2881   -1.1099    0.9178 C   0  0  0  0  0  0  0  0  0  0  0  0
   -5.6887    1.5700    0.4431 C   0  0  0  0  0  0  0  0  0  0  0  0
    4.4921   -1.2029    0.5514 C   0  0  0  0  0  0  0  0  0  0  0  0
    2.8971   -0.6765    2.4143 C   0  0  0  0  0  0  0  0  0  0  0  0
    4.8985    0.2347    0.2004 C   0  0  0  0  0  0  0  0  0  0  0  0
    6.3142    0.3465   -0.3742 C   0  0  0  0  0  0  0  0  0  0  0  0
    6.7473    1.7978   -0.6596 C   0  0  0  0  0  0  0  0  0  0  0  0
    6.6759    2.6870    0.5827 C   0  0  0  0  0  0  0  0  0  0  0  0
    5.8717    2.3909   -1.7668 C   0  0  0  0  0  0  0  0  0  0  0  0
    0.0759    0.3048   -1.1366 H   0  0  0  0  0  0  0  0  0  0  0  0
   -1.9589   -1.8346   -0.4389 H   0  0  0  0  0  0  0  0  0  0  0  0
   -1.8852    1.2136   -0.1070 H   0  0  0  0  0  0  0  0  0  0  0  0
    2.1841    0.1817   -0.1120 H   0  0  0  0  0  0  0  0  0  0  0  0
    0.3953    1.0515    1.2065 H   0  0  0  0  0  0  0  0  0  0  0  0
    0.4329   -0.1017    2.5309 H   0  0  0  0  0  0  0  0  0  0  0  0
   -3.7799    1.4890   -1.4087 H   0  0  0  0  0  0  0  0  0  0  0  0
   -1.8178   -0.8210    2.1576 H   0  0  0  0  0  0  0  0  0  0  0  0
   -1.7686    0.9259    2.2887 H   0  0  0  0  0  0  0  0  0  0  0  0
    0.5571   -1.2468   -2.8377 H   0  0  0  0  0  0  0  0  0  0  0  0
    0.2016   -2.6458   -1.8172 H   0  0  0  0  0  0  0  0  0  0  0  0
   -2.0753   -1.4598   -2.8188 H   0  0  0  0  0  0  0  0  0  0  0  0
   -1.9381    0.2820   -2.6189 H   0  0  0  0  0  0  0  0  0  0  0  0
    2.4067   -2.6495   -1.1800 H   0  0  0  0  0  0  0  0  0  0  0  0
    2.7164   -1.1006   -1.9713 H   0  0  0  0  0  0  0  0  0  0  0  0
   -4.2535   -0.2354   -3.0847 H   0  0  0  0  0  0  0  0  0  0  0  0
   -4.3157   -1.4808   -1.8462 H   0  0  0  0  0  0  0  0  0  0  0  0
   -3.7793    2.3104    1.0507 H   0  0  0  0  0  0  0  0  0  0  0  0
   -4.5067    1.1438    2.2065 H   0  0  0  0  0  0  0  0  0  0  0  0
    0.6163   -3.2195    0.4553 H   0  0  0  0  0  0  0  0  0  0  0  0
    0.6828   -2.5554    2.0841 H   0  0  0  0  0  0  0  0  0  0  0  0
   -0.8376   -2.6094    1.2233 H   0  0  0  0  0  0  0  0  0  0  0  0
    2.9223   -2.4679    1.2383 H   0  0  0  0  0  0  0  0  0  0  0  0
   -6.3577   -0.0278   -0.8340 H   0  0  0  0  0  0  0  0  0  0  0  0
   -6.0994    1.5386   -1.6777 H   0  0  0  0  0  0  0  0  0  0  0  0
   -3.9513   -1.9841    0.3557 H   0  0  0  0  0  0  0  0  0  0  0  0
   -3.9784   -1.2500    1.9587 H   0  0  0  0  0  0  0  0  0  0  0  0
   -5.3827   -1.1401    0.9188 H   0  0  0  0  0  0  0  0  0  0  0  0
    5.1928   -1.5939    1.3010 H   0  0  0  0  0  0  0  0  0  0  0  0
    4.6354   -1.8311   -0.3370 H   0  0  0  0  0  0  0  0  0  0  0  0
    2.7209    0.3980    2.3029 H   0  0  0  0  0  0  0  0  0  0  0  0
    3.8103   -0.7887    3.0117 H   0  0  0  0  0  0  0  0  0  0  0  0
    2.1100   -1.1245    3.0235 H   0  0  0  0  0  0  0  0  0  0  0  0
    4.1971    0.6375   -0.5340 H   0  0  0  0  0  0  0  0  0  0  0  0
    4.8117    0.8446    1.1044 H   0  0  0  0  0  0  0  0  0  0  0  0
    6.3848   -0.2468   -1.2944 H   0  0  0  0  0  0  0  0  0  0  0  0
    7.0223   -0.0968    0.3373 H   0  0  0  0  0  0  0  0  0  0  0  0
    7.7857    1.7741   -1.0129 H   0  0  0  0  0  0  0  0  0  0  0  0
    7.2144    2.2311    1.4199 H   0  0  0  0  0  0  0  0  0  0  0  0
    7.1412    3.6577    0.3782 H   0  0  0  0  0  0  0  0  0  0  0  0
    5.6467    2.8836    0.8986 H   0  0  0  0  0  0  0  0  0  0  0  0
    5.8545    1.7397   -2.6471 H   0  0  0  0  0  0  0  0  0  0  0  0
    6.2717    3.3608   -2.0831 H   0  0  0  0  0  0  0  0  0  0  0  0
    4.8404    2.5585   -1.4409 H   0  0  0  0  0  0  0  0  0  0  0  0
  1 20  2  0  0  0  0
  2  3  1  0  0  0  0
  2  7  1  0  0  0  0
  2  8  1  0  0  0  0
  2 16  1  0  0  0  0
  3  4  1  0  0  0  0
  3 11  1  0  0  0  0
  3 28  1  0  0  0  0
  4  5  1  0  0  0  0
  4 12  1  0  0  0  0
  4 29  1  0  0  0  0
  5  6  1  0  0  0  0
  5 10  1  0  0  0  0
  5 30  1  0  0  0  0
  6  9  1  0  0  0  0
  6 15  1  0  0  0  0
  6 19  1  0  0  0  0
  7 13  1  0  0  0  0
  7 17  1  0  0  0  0
  7 31  1  0  0  0  0
  8 10  1  0  0  0  0
  8 32  1  0  0  0  0
  8 33  1  0  0  0  0
  9 14  1  0  0  0  0
  9 18  1  0  0  0  0
  9 34  1  0  0  0  0
 10 35  1  0  0  0  0
 10 36  1  0  0  0  0
 11 13  1  0  0  0  0
 11 37  1  0  0  0  0
 11 38  1  0  0  0  0
 12 14  1  0  0  0  0
 12 39  1  0  0  0  0
 12 40  1  0  0  0  0
 13 41  1  0  0  0  0
 13 42  1  0  0  0  0
 14 43  1  0  0  0  0
 14 44  1  0  0  0  0
 15 20  1  0  0  0  0
 15 45  1  0  0  0  0
 15 46  1  0  0  0  0
 16 47  1  0  0  0  0
 16 48  1  0  0  0  0
 16 49  1  0  0  0  0
 17 21  1  0  0  0  0
 17 22  1  0  0  0  0
 17 50  1  0  0  0  0
 18 20  1  0  0  0  0
 18 51  1  0  0  0  0
 18 52  1  0  0  0  0
 19 53  1  0  0  0  0
 19 54  1  0  0  0  0
 19 55  1  0  0  0  0
 21 23  1  0  0  0  0
 21 56  1  0  0  0  0
 21 57  1  0  0  0  0
 22 58  1  0  0  0  0
 22 59  1  0  0  0  0
 22 60  1  0  0  0  0
 23 24  1  0  0  0  0
 23 61  1  0  0  0  0
 23 62  1  0  0  0  0
 24 25  1  0  0  0  0
 24 63  1  0  0  0  0
 24 64  1  0  0  0  0
 25 26  1  0  0  0  0
 25 27  1  0  0  0  0
 25 65  1  0  0  0  0
 26 66  1  0  0  0  0
 26 67  1  0  0  0  0
 26 68  1  0  0  0  0
 27 69  1  0  0  0  0
 27 70  1  0  0  0  0
 27 71  1  0  0  0  0
M  END
> <PUBCHEM_COMPOUND_CID>
242347

> <PUBCHEM_CONFORMER_RMSD>
0.8

> <PUBCHEM_CONFORMER_DIVERSEORDER>
1
2
5
6
4
3

> <PUBCHEM_MMFF94_PARTIAL_CHARGES>
4
1 -0.57
15 0.06
18 0.06
20 0.45

> <PUBCHEM_EFFECTIVE_ROTOR_COUNT>
6.8

> <PUBCHEM_PHARMACOPHORE_FEATURES>
8
1 1 acceptor
1 22 hydrophobe
3 25 26 27 hydrophobe
5 17 21 23 24 25 hydrophobe
5 2 3 7 11 13 rings
5 6 9 15 18 20 rings
6 2 3 4 5 8 10 rings
6 4 5 6 9 12 14 rings

> <PUBCHEM_HEAVY_ATOM_COUNT>
27

> <PUBCHEM_ATOM_DEF_STEREO_COUNT>
8

> <PUBCHEM_ATOM_UDEF_STEREO_COUNT>
0

> <PUBCHEM_BOND_DEF_STEREO_COUNT>
0

> <PUBCHEM_BOND_UDEF_STEREO_COUNT>
0

> <PUBCHEM_ISOTOPIC_ATOM_COUNT>
0

> <PUBCHEM_COMPONENT_COUNT>
1

> <PUBCHEM_CACTVS_TAUTO_COUNT>
3

> <PUBCHEM_CONFORMER_ID>
0003B2AB00000001

> <PUBCHEM_MMFF94_ENERGY>
89.0139

> <PUBCHEM_FEATURE_SELFOVERLAP>
40.742

> <PUBCHEM_SHAPE_FINGERPRINT>
10 15 15554444089992544540
10319926 262 14404639756774571034
10554248 39 17897460598971366439
10670039 82 17240474849555888032
10693767 8 5472860307982262860
10906281 52 18041550442851292555
11578080 2 17846202324799364472
11961588 58 18113901520863580842
12011746 2 15430327961779505035
12035758 1 16200426970477280100
12236239 1 18261117408485509079
12403259 415 17131837620063211590
12422481 6 15338846348265561350
12596602 18 18130786767453407858
12892183 10 15841001073581386858
12954195 1 14779535816364427706
13140716 1 14619639282318815363
13690498 29 16517105999049060615
13955234 65 17631180856463086018
14251764 30 7781514798197141844
14840074 17 18408324388688267781
14931854 50 15285925835808295249
15052358 14 15864070979141677716
15183329 4 16153422861955097118
15196674 1 14404606780163631927
15475509 8 14707197833892008715
15575132 122 18260830431540095908
15840311 113 18271802471021417277
16728300 4 11671517676494672608
16994733 274 18410295821616268289
17980427 23 17489581230162635055
19784866 240 8214147365203535344
1979834 28 15841550812558148322
19958102 18 15285628911675952332
2026 5 7493015041792578084
20567600 234 16702013141819817620
20567600 247 7565345314813771356
21033648 29 16630536167046215325
21130935 74 16701741678601655273
21267235 1 16298397825337906791
21298829 104 18336828585891317596
21304303 64 18343864407108218661
21307412 95 14418126293154819732
21315764 119 17312813893027413892
21344244 181 4895264928002650132
21637258 2 8646769980470224902
21641784 216 17313657256721199160
21682296 61 6915990265787867304
21756936 100 18338801109318231970
21792934 111 14764082202095209031
22061861 79 5328741881368832348
22122407 14 18271514339220450824
2215653 11 14418134019832256180
22224240 67 17489867150767730563
22393880 68 16154005585384301831
23559900 14 18263359351434250250
23569914 152 5253340483113163785
2838139 119 18411986849763299340
3004659 81 17385720349119060310
34797466 226 18343301508741513623
3882209 13 15406640967638447977
392239 28 17132116814533497340
397830 11 17631999875938267216
4058900 60 17968368047933502375
4340502 62 16702302369323150618
474113 269 11600010916739771777
5104073 3 15338290089280434408
5364581 5 16557893520868642988
543368 44 18337113371575013852
5718773 13 10303803268603987337
6608658 132 17821998848373337360

> <PUBCHEM_SHAPE_MULTIPOLES>
549.78
16.76
2.31
2.04
11.23
0.84
-0.34
15.49
-0.24
2.45
0.13
-0.56
-0.28
-1.63

> <PUBCHEM_SHAPE_SELFOVERLAP>
1143.06

> <PUBCHEM_SHAPE_VOLUME>
315.8

> <PUBCHEM_COORDINATE_TYPE>
2
5
10

$$$$

