5282075
  -OEChem-07051213022D

 34 36  0     0  0  0  0  0  0999 V2000
    6.3301    1.9279    0.0000 O   0  0  0  0  0  0  0  0  0  0  0  0
    6.3301   -1.0721    0.0000 O   0  0  0  0  0  0  0  0  0  0  0  0
    8.0785   -1.1067    0.0000 O   0  0  0  0  0  0  0  0  0  0  0  0
    3.7320    1.4279    0.0000 O   0  0  0  0  0  0  0  0  0  0  0  0
    2.0000   -1.5721    0.0000 O   0  0  0  0  0  0  0  0  0  0  0  0
    9.8602    1.9521    0.0000 O   0  0  0  0  0  0  0  0  0  0  0  0
    5.4641    0.4279    0.0000 C   0  0  0  0  0  0  0  0  0  0  0  0
    7.1962    0.4279    0.0000 C   0  0  0  0  0  0  0  0  0  0  0  0
    4.5981   -0.0721    0.0000 C   0  0  0  0  0  0  0  0  0  0  0  0
    6.3301   -0.0721    0.0000 C   0  0  0  0  0  0  0  0  0  0  0  0
    7.1962    1.4279    0.0000 C   0  0  0  0  0  0  0  0  0  0  0  0
    8.0901   -0.1067    0.0000 C   0  0  0  0  0  0  0  0  0  0  0  0
    5.4641    1.4279    0.0000 C   0  0  0  0  0  0  0  0  0  0  0  0
    3.7320    0.4279    0.0000 C   0  0  0  0  0  0  0  0  0  0  0  0
    8.0901    1.9626    0.0000 C   0  0  0  0  0  0  0  0  0  0  0  0
    4.5981   -1.0721    0.0000 C   0  0  0  0  0  0  0  0  0  0  0  0
    8.9962    0.4071    0.0000 C   0  0  0  0  0  0  0  0  0  0  0  0
    8.9962    1.4487    0.0000 C   0  0  0  0  0  0  0  0  0  0  0  0
    2.8660   -0.0721    0.0000 C   0  0  0  0  0  0  0  0  0  0  0  0
    3.7320   -1.5721    0.0000 C   0  0  0  0  0  0  0  0  0  0  0  0
    2.8660   -1.0721    0.0000 C   0  0  0  0  0  0  0  0  0  0  0  0
    2.0000   -2.5721    0.0000 C   0  0  0  0  0  0  0  0  0  0  0  0
    4.9272    1.7379    0.0000 H   0  0  0  0  0  0  0  0  0  0  0  0
    8.0829    2.5826    0.0000 H   0  0  0  0  0  0  0  0  0  0  0  0
    5.1350   -1.3821    0.0000 H   0  0  0  0  0  0  0  0  0  0  0  0
    9.5319    0.0950    0.0000 H   0  0  0  0  0  0  0  0  0  0  0  0
    2.3291    0.2379    0.0000 H   0  0  0  0  0  0  0  0  0  0  0  0
    3.7320   -2.1921    0.0000 H   0  0  0  0  0  0  0  0  0  0  0  0
    8.6118   -1.4229    0.0000 H   0  0  0  0  0  0  0  0  0  0  0  0
    3.1951    1.7379    0.0000 H   0  0  0  0  0  0  0  0  0  0  0  0
    9.8579    2.5721    0.0000 H   0  0  0  0  0  0  0  0  0  0  0  0
    1.3800   -2.5721    0.0000 H   0  0  0  0  0  0  0  0  0  0  0  0
    2.0000   -3.1921    0.0000 H   0  0  0  0  0  0  0  0  0  0  0  0
    2.6200   -2.5721    0.0000 H   0  0  0  0  0  0  0  0  0  0  0  0
  1 11  1  0  0  0  0
  1 13  1  0  0  0  0
  2 10  2  0  0  0  0
  3 12  1  0  0  0  0
  3 29  1  0  0  0  0
  4 14  1  0  0  0  0
  4 30  1  0  0  0  0
  5 21  1  0  0  0  0
  5 22  1  0  0  0  0
  6 18  1  0  0  0  0
  6 31  1  0  0  0  0
  7  9  1  0  0  0  0
  7 10  1  0  0  0  0
  7 13  2  0  0  0  0
  8 10  1  0  0  0  0
  8 11  1  0  0  0  0
  8 12  2  0  0  0  0
  9 14  2  0  0  0  0
  9 16  1  0  0  0  0
 11 15  2  0  0  0  0
 12 17  1  0  0  0  0
 13 23  1  0  0  0  0
 14 19  1  0  0  0  0
 15 18  1  0  0  0  0
 15 24  1  0  0  0  0
 16 20  2  0  0  0  0
 16 25  1  0  0  0  0
 17 18  2  0  0  0  0
 17 26  1  0  0  0  0
 19 21  2  0  0  0  0
 19 27  1  0  0  0  0
 20 21  1  0  0  0  0
 20 28  1  0  0  0  0
 22 32  1  0  0  0  0
 22 33  1  0  0  0  0
 22 34  1  0  0  0  0
M  END
> <PUBCHEM_COMPOUND_CID>
5282075

> <PUBCHEM_COMPOUND_CANONICALIZED>
1

> <PUBCHEM_CACTVS_COMPLEXITY>
462

> <PUBCHEM_CACTVS_HBOND_ACCEPTOR>
6

> <PUBCHEM_CACTVS_HBOND_DONOR>
3

> <PUBCHEM_CACTVS_ROTATABLE_BOND>
2

> <PUBCHEM_CACTVS_SUBSKEYS>
AAADccB4OAAAAAAAAAAAAAAAAAAAAAAAAAAwYIAAAAAAAACBQAAAGgAACAAADASgmAIyBoAABgCIAqBSAAACCAAkIAAIiAEGCMgMJzaGNRqAcWAl4BUIuYeK7PzOIAAACAAIAABAAAAQABAAAAAAAAAAAA==

> <PUBCHEM_IUPAC_OPENEYE_NAME>
5,7-dihydroxy-3-(2-hydroxy-4-methoxy-phenyl)chromen-4-one

> <PUBCHEM_IUPAC_CAS_NAME>
5,7-dihydroxy-3-(2-hydroxy-4-methoxyphenyl)-1-benzopyran-4-one

> <PUBCHEM_IUPAC_NAME>
5,7-dihydroxy-3-(2-hydroxy-4-methoxyphenyl)chromen-4-one

> <PUBCHEM_IUPAC_SYSTEMATIC_NAME>
3-(4-methoxy-2-oxidanyl-phenyl)-5,7-bis(oxidanyl)chromen-4-one

> <PUBCHEM_IUPAC_TRADITIONAL_NAME>
5,7-dihydroxy-3-(2-hydroxy-4-methoxy-phenyl)chromone

> <PUBCHEM_IUPAC_INCHI>
InChI=1S/C16H12O6/c1-21-9-2-3-10(12(18)6-9)11-7-22-14-5-8(17)4-13(19)15(14)16(11)20/h2-7,17-19H,1H3

> <PUBCHEM_IUPAC_INCHIKEY>
OZEVXMDBOINMTC-UHFFFAOYSA-N

> <PUBCHEM_XLOGP3_AA>
2.6

> <PUBCHEM_EXACT_MASS>
300.063388

> <PUBCHEM_MOLECULAR_FORMULA>
C16H12O6

> <PUBCHEM_MOLECULAR_WEIGHT>
300.26288

> <PUBCHEM_OPENEYE_CAN_SMILES>
COC1=CC(=C(C=C1)C2=COC3=CC(=CC(=C3C2=O)O)O)O

> <PUBCHEM_OPENEYE_ISO_SMILES>
COC1=CC(=C(C=C1)C2=COC3=CC(=CC(=C3C2=O)O)O)O

> <PUBCHEM_CACTVS_TPSA>
96.2

> <PUBCHEM_MONOISOTOPIC_WEIGHT>
300.063388

> <PUBCHEM_TOTAL_CHARGE>
0

> <PUBCHEM_HEAVY_ATOM_COUNT>
22

> <PUBCHEM_ATOM_DEF_STEREO_COUNT>
0

> <PUBCHEM_ATOM_UDEF_STEREO_COUNT>
0

> <PUBCHEM_BOND_DEF_STEREO_COUNT>
0

> <PUBCHEM_BOND_UDEF_STEREO_COUNT>
0

> <PUBCHEM_ISOTOPIC_ATOM_COUNT>
0

> <PUBCHEM_COMPONENT_COUNT>
1

> <PUBCHEM_CACTVS_TAUTO_COUNT>
36

> <PUBCHEM_COORDINATE_TYPE>
1
5
255

> <PUBCHEM_BONDANNOTATIONS>
1  11  8
1  13  8
11  15  8
12  17  8
14  19  8
15  18  8
16  20  8
17  18  8
19  21  8
20  21  8
7  10  8
7  13  8
8  10  8
8  11  8
8  12  8
9  14  8
9  16  8

$$$$

