4990
  -OEChem-07051213033D

 33 33  0     0  0  0  0  0  0999 V2000
    2.8184    0.2684    0.1272 O   0  0  0  0  0  0  0  0  0  0  0  0
   -2.8207    0.2734    0.1291 O   0  0  0  0  0  0  0  0  0  0  0  0
    4.6658    0.6329   -1.1875 O   0  0  0  0  0  0  0  0  0  0  0  0
   -4.6654    0.6395   -1.1892 O   0  0  0  0  0  0  0  0  0  0  0  0
   -0.0016   -0.8474   -0.6876 N   0  0  0  0  0  0  0  0  0  0  0  0
    4.2445    1.9169    0.6982 N   0  0  0  0  0  0  0  0  0  0  0  0
   -4.2390    1.9169    0.6999 N   0  0  0  0  0  0  0  0  0  0  0  0
    1.1466   -1.3871   -0.2207 C   0  0  0  0  0  0  0  0  0  0  0  0
   -1.1442   -1.3912   -0.2220 C   0  0  0  0  0  0  0  0  0  0  0  0
    2.4182   -0.7942   -0.7290 C   0  0  0  0  0  0  0  0  0  0  0  0
   -2.4215   -0.7953   -0.7365 C   0  0  0  0  0  0  0  0  0  0  0  0
    1.1992   -2.4366    0.6826 C   0  0  0  0  0  0  0  0  0  0  0  0
   -1.2060   -2.4375    0.6783 C   0  0  0  0  0  0  0  0  0  0  0  0
   -0.0039   -2.9661    1.1358 C   0  0  0  0  0  0  0  0  0  0  0  0
    3.9779    0.9160   -0.2123 C   0  0  0  0  0  0  0  0  0  0  0  0
   -3.9760    0.9178   -0.2137 C   0  0  0  0  0  0  0  0  0  0  0  0
    5.3968    2.7849    0.6212 C   0  0  0  0  0  0  0  0  0  0  0  0
   -5.3889    2.7885    0.6263 C   0  0  0  0  0  0  0  0  0  0  0  0
    3.2056   -1.5564   -0.7775 H   0  0  0  0  0  0  0  0  0  0  0  0
    2.2590   -0.4052   -1.7424 H   0  0  0  0  0  0  0  0  0  0  0  0
   -3.2107   -1.5555   -0.7832 H   0  0  0  0  0  0  0  0  0  0  0  0
   -2.2598   -0.4019   -1.7476 H   0  0  0  0  0  0  0  0  0  0  0  0
    2.1420   -2.8409    1.0353 H   0  0  0  0  0  0  0  0  0  0  0  0
   -2.1502   -2.8412    1.0270 H   0  0  0  0  0  0  0  0  0  0  0  0
   -0.0049   -3.7883    1.8450 H   0  0  0  0  0  0  0  0  0  0  0  0
    3.5945    2.0514    1.4664 H   0  0  0  0  0  0  0  0  0  0  0  0
   -3.5878    2.0475    1.4679 H   0  0  0  0  0  0  0  0  0  0  0  0
    5.0428    3.8163    0.5521 H   0  0  0  0  0  0  0  0  0  0  0  0
    5.9775    2.6628    1.5388 H   0  0  0  0  0  0  0  0  0  0  0  0
    6.0176    2.5466   -0.2455 H   0  0  0  0  0  0  0  0  0  0  0  0
   -5.9687    2.6660    1.5443 H   0  0  0  0  0  0  0  0  0  0  0  0
   -5.0320    3.8190    0.5590 H   0  0  0  0  0  0  0  0  0  0  0  0
   -6.0115    2.5538   -0.2402 H   0  0  0  0  0  0  0  0  0  0  0  0
  1 10  1  0  0  0  0
  1 15  1  0  0  0  0
  2 11  1  0  0  0  0
  2 16  1  0  0  0  0
  3 15  2  0  0  0  0
  4 16  2  0  0  0  0
  5  8  2  0  0  0  0
  5  9  1  0  0  0  0
  6 15  1  0  0  0  0
  6 17  1  0  0  0  0
  6 26  1  0  0  0  0
  7 16  1  0  0  0  0
  7 18  1  0  0  0  0
  7 27  1  0  0  0  0
  8 10  1  0  0  0  0
  8 12  1  0  0  0  0
  9 11  1  0  0  0  0
  9 13  2  0  0  0  0
 10 19  1  0  0  0  0
 10 20  1  0  0  0  0
 11 21  1  0  0  0  0
 11 22  1  0  0  0  0
 12 14  2  0  0  0  0
 12 23  1  0  0  0  0
 13 14  1  0  0  0  0
 13 24  1  0  0  0  0
 14 25  1  0  0  0  0
 17 28  1  0  0  0  0
 17 29  1  0  0  0  0
 17 30  1  0  0  0  0
 18 31  1  0  0  0  0
 18 32  1  0  0  0  0
 18 33  1  0  0  0  0
M  END
> <PUBCHEM_COMPOUND_CID>
4990

> <PUBCHEM_CONFORMER_RMSD>
0.8

> <PUBCHEM_CONFORMER_DIVERSEORDER>
1
120
33
186
14
156
62
170
3
34
133
165
208
154
5
191
36
100
4
148
182
184
45
134
2
153
80
119
118
161
195
112
64
38
49
39
180
122
87
35
168
91
151
117
124
149
65
183
102
69
169
193
179
50
16
88
113
93
174
111
70
201
19
109
74
138
177
32
135
75
205
131
157
27
126
204
210
185
81
129
188
47
140
155
160
60
83
203
46
147
132
164
6
175
121
194
142
29
72
172
166
139
207
181
106
105
30
41
197
22
128
130
23
84
152
43
189
196
94
77
150
68
31
163
52
141
114
167
59
202
192
143
21
159
85
99
66
209
171
108
20
144
51
146
198
26
103
173
190
25
136
158
115
137
89
178
96
55
28
56
11
92
110
200
123
67
40
7
90
145
97
125
37
9
116
127
10
57
53
78
24
107
58
13
44
79
176
73
42
63
8
76
48
101
95
61
162
18
54
82
98
15
17
12
199
206
71
104
187
86

> <PUBCHEM_MMFF94_PARTIAL_CHARGES>
23
1 -0.43
10 0.42
11 0.42
12 -0.15
13 -0.15
14 -0.15
15 0.78
16 0.78
17 0.3
18 0.3
2 -0.43
23 0.15
24 0.15
25 0.15
26 0.37
27 0.37
3 -0.57
4 -0.57
5 -0.62
6 -0.73
7 -0.73
8 0.17
9 0.17

> <PUBCHEM_EFFECTIVE_ROTOR_COUNT>
8

> <PUBCHEM_PHARMACOPHORE_FEATURES>
6
1 3 acceptor
1 4 acceptor
1 5 acceptor
1 6 donor
1 7 donor
6 5 8 9 12 13 14 rings

> <PUBCHEM_HEAVY_ATOM_COUNT>
18

> <PUBCHEM_ATOM_DEF_STEREO_COUNT>
0

> <PUBCHEM_ATOM_UDEF_STEREO_COUNT>
0

> <PUBCHEM_BOND_DEF_STEREO_COUNT>
0

> <PUBCHEM_BOND_UDEF_STEREO_COUNT>
0

> <PUBCHEM_ISOTOPIC_ATOM_COUNT>
0

> <PUBCHEM_COMPONENT_COUNT>
1

> <PUBCHEM_CACTVS_TAUTO_COUNT>
3

> <PUBCHEM_CONFORMER_ID>
0000137E00000001

> <PUBCHEM_MMFF94_ENERGY>
25.6331

> <PUBCHEM_FEATURE_SELFOVERLAP>
30.446

> <PUBCHEM_SHAPE_FINGERPRINT>
10382601 240 17917151718322014018
10968037 57 9655586226881221317
12107183 9 18271826609607714930
122479 349 18338798901694492454
12390115 104 18270103648078254142
12633257 1 17774168890306131852
13590594 115 17543619181636005554
13878862 14 17698741512320212781
13955234 65 17984137334447280475
14123255 52 18412827988288653515
1420 369 9871745793212109613
14251740 57 10663805386949731952
14251764 38 18119530938329925520
14251764 75 18408595963944943161
14576447 43 9006471945085030906
14848178 5 10303808753087027841
14848178 96 18410295834522034856
15142526 21 18341327877217259769
15342816 4 7204780267841144396
1741750 31 18341895156192195090
17834072 32 18412261701399227568
17980427 26 18338531823485705486
1813 80 8142079862222654378
19752476 56 18261110824316195720
19784866 34 18410857680900573569
20238998 120 17545318580269004587
204376 136 18131068242651852631
20621476 91 16916486092290452401
20871998 22 8430309138921254038
21304253 13 18051706722300331450
21401589 2 18338793421010144721
22182937 141 18340764823746779507
23500284 214 18343579620732418790
23845131 108 18201435909283466107
270888 7 18408887342989449049
283562 15 18126290740207671811
2838139 119 18259989275174593180
3014063 24 11599716243355116033
312425 83 17531240699072728661
3472631 163 18042404798010089653
474 4 18344143704847051517
5104073 3 18202003239322736275
56616090 13 18334013903956574487
633830 44 18263927799108853935
7062679 13 9439136342294872028
76465 3 9079112250199407055
9981440 41 18338804394884272778

> <PUBCHEM_SHAPE_MULTIPOLES>
332.01
11.54
3.66
1.04
0.06
0.22
-0.04
16.08
0.21
-0.01
1.69
-0.01
-0.11
0

> <PUBCHEM_SHAPE_SELFOVERLAP>
671.625

> <PUBCHEM_SHAPE_VOLUME>
193.1

> <PUBCHEM_COORDINATE_TYPE>
2
5
10

$$$$

