441048
  -OEChem-07051212512D

 45 47  0     0  0  0  0  0  0999 V2000
    7.4179    1.6545    0.0000 Cl  0  0  0  0  0  0  0  0  0  0  0  0
    3.9538    1.6545    0.0000 Cl  0  0  0  0  0  0  0  0  0  0  0  0
    5.6859    0.6545    0.0000 O   0  0  0  0  0  0  0  0  0  0  0  0
    3.8968   -4.4333    0.0000 O   0  0  0  0  0  0  0  0  0  0  0  0
    4.8768    5.2423    0.0000 O   0  0  0  0  0  0  0  0  0  0  0  0
    6.4949    5.2423    0.0000 N   0  0  0  0  0  0  0  0  0  0  0  0
    3.5878   -5.3843    0.0000 N   0  0  0  0  0  0  0  0  0  0  0  0
    3.9538   -1.3455    0.0000 C   0  0  0  0  0  0  0  0  0  0  0  0
    3.9538   -2.3455    0.0000 C   0  0  0  0  0  0  0  0  0  0  0  0
    4.8198   -0.8455    0.0000 C   0  0  0  0  0  0  0  0  0  0  0  0
    3.0878   -2.8455    0.0000 C   0  0  0  0  0  0  0  0  0  0  0  0
    4.8198    0.1545    0.0000 C   0  0  0  0  0  0  0  0  0  0  0  0
    3.0878   -3.8455    0.0000 C   0  0  0  0  0  0  0  0  0  0  0  0
    5.6859    1.6545    0.0000 C   0  0  0  0  0  0  0  0  0  0  0  0
    2.2788   -4.4333    0.0000 C   0  0  0  0  0  0  0  0  0  0  0  0
    5.6859    3.6545    0.0000 C   0  0  0  0  0  0  0  0  0  0  0  0
    5.6859    4.6545    0.0000 C   0  0  0  0  0  0  0  0  0  0  0  0
    2.5878   -5.3843    0.0000 C   0  0  0  0  0  0  0  0  0  0  0  0
    6.5519    2.1545    0.0000 C   0  0  0  0  0  0  0  0  0  0  0  0
    4.8198    2.1545    0.0000 C   0  0  0  0  0  0  0  0  0  0  0  0
    6.5519    3.1545    0.0000 C   0  0  0  0  0  0  0  0  0  0  0  0
    4.8198    3.1545    0.0000 C   0  0  0  0  0  0  0  0  0  0  0  0
    5.1859    6.1934    0.0000 C   0  0  0  0  0  0  0  0  0  0  0  0
    6.1859    6.1934    0.0000 C   0  0  0  0  0  0  0  0  0  0  0  0
    2.0000   -6.1934    0.0000 C   0  0  0  0  0  0  0  0  0  0  0  0
    3.7418   -0.7629    0.0000 H   0  0  0  0  0  0  0  0  0  0  0  0
    3.3432   -1.4532    0.0000 H   0  0  0  0  0  0  0  0  0  0  0  0
    4.1659   -2.9281    0.0000 H   0  0  0  0  0  0  0  0  0  0  0  0
    4.5644   -2.2378    0.0000 H   0  0  0  0  0  0  0  0  0  0  0  0
    5.0319   -1.4281    0.0000 H   0  0  0  0  0  0  0  0  0  0  0  0
    5.4304   -0.7378    0.0000 H   0  0  0  0  0  0  0  0  0  0  0  0
    2.8757   -2.2629    0.0000 H   0  0  0  0  0  0  0  0  0  0  0  0
    2.4772   -2.9532    0.0000 H   0  0  0  0  0  0  0  0  0  0  0  0
    4.6078    0.7371    0.0000 H   0  0  0  0  0  0  0  0  0  0  0  0
    4.2093    0.0468    0.0000 H   0  0  0  0  0  0  0  0  0  0  0  0
    1.6891   -4.2417    0.0000 H   0  0  0  0  0  0  0  0  0  0  0  0
    5.2507    6.8100    0.0000 H   0  0  0  0  0  0  0  0  0  0  0  0
    4.5794    6.3223    0.0000 H   0  0  0  0  0  0  0  0  0  0  0  0
    6.7923    6.3223    0.0000 H   0  0  0  0  0  0  0  0  0  0  0  0
    6.1210    6.8100    0.0000 H   0  0  0  0  0  0  0  0  0  0  0  0
    7.0888    3.4645    0.0000 H   0  0  0  0  0  0  0  0  0  0  0  0
    4.2829    3.4645    0.0000 H   0  0  0  0  0  0  0  0  0  0  0  0
    1.4984   -5.8289    0.0000 H   0  0  0  0  0  0  0  0  0  0  0  0
    1.6356   -6.6949    0.0000 H   0  0  0  0  0  0  0  0  0  0  0  0
    2.5016   -6.5578    0.0000 H   0  0  0  0  0  0  0  0  0  0  0  0
  1 19  1  0  0  0  0
  2 20  1  0  0  0  0
  3 12  1  0  0  0  0
  3 14  1  0  0  0  0
  4  7  1  0  0  0  0
  4 13  1  0  0  0  0
  5 17  1  0  0  0  0
  5 23  1  0  0  0  0
  6 17  2  0  0  0  0
  6 24  1  0  0  0  0
  7 18  2  0  0  0  0
  8  9  1  0  0  0  0
  8 10  1  0  0  0  0
  8 26  1  0  0  0  0
  8 27  1  0  0  0  0
  9 11  1  0  0  0  0
  9 28  1  0  0  0  0
  9 29  1  0  0  0  0
 10 12  1  0  0  0  0
 10 30  1  0  0  0  0
 10 31  1  0  0  0  0
 11 13  1  0  0  0  0
 11 32  1  0  0  0  0
 11 33  1  0  0  0  0
 12 34  1  0  0  0  0
 12 35  1  0  0  0  0
 13 15  2  0  0  0  0
 14 19  2  0  0  0  0
 14 20  1  0  0  0  0
 15 18  1  0  0  0  0
 15 36  1  0  0  0  0
 16 17  1  0  0  0  0
 16 21  2  0  0  0  0
 16 22  1  0  0  0  0
 18 25  1  0  0  0  0
 19 21  1  0  0  0  0
 20 22  2  0  0  0  0
 21 41  1  0  0  0  0
 22 42  1  0  0  0  0
 23 24  1  0  0  0  0
 23 37  1  0  0  0  0
 23 38  1  0  0  0  0
 24 39  1  0  0  0  0
 24 40  1  0  0  0  0
 25 43  1  0  0  0  0
 25 44  1  0  0  0  0
 25 45  1  0  0  0  0
M  END
> <PUBCHEM_COMPOUND_CID>
441048

> <PUBCHEM_COMPOUND_CANONICALIZED>
1

> <PUBCHEM_CACTVS_COMPLEXITY>
440

> <PUBCHEM_CACTVS_HBOND_ACCEPTOR>
5

> <PUBCHEM_CACTVS_HBOND_DONOR>
0

> <PUBCHEM_CACTVS_ROTATABLE_BOND>
8

> <PUBCHEM_CACTVS_SUBSKEYS>
AAADceB7MAAGAAAAAAAAAAAAAAAAAWIAAAAwAAAAAAAAAAABwAAAHgIEAAAADA7hniYyhpIQBACpA6RyRgCCCAAkJ0AgmCE2b9oOJruFs5qDOaDmwBkI6UeY6KwOIAAAIACACABAAABAAQAQAAAAAAAAAA==

> <PUBCHEM_IUPAC_OPENEYE_NAME>
5-[5-[2,6-dichloro-4-(4,5-dihydrooxazol-2-yl)phenoxy]pentyl]-3-methyl-isoxazole

> <PUBCHEM_IUPAC_CAS_NAME>
5-[5-[2,6-dichloro-4-(4,5-dihydrooxazol-2-yl)phenoxy]pentyl]-3-methylisoxazole

> <PUBCHEM_IUPAC_NAME>
5-[5-[2,6-dichloro-4-(4,5-dihydro-1,3-oxazol-2-yl)phenoxy]pentyl]-3-methyl-1,2-oxazole

> <PUBCHEM_IUPAC_SYSTEMATIC_NAME>
5-[5-[2,6-bis(chloranyl)-4-(4,5-dihydro-1,3-oxazol-2-yl)phenoxy]pentyl]-3-methyl-1,2-oxazole

> <PUBCHEM_IUPAC_TRADITIONAL_NAME>
5-[5-[2,6-dichloro-4-(2-oxazolin-2-yl)phenoxy]pentyl]-3-methyl-isoxazole

> <PUBCHEM_IUPAC_INCHI>
InChI=1S/C18H20Cl2N2O3/c1-12-9-14(25-22-12)5-3-2-4-7-23-17-15(19)10-13(11-16(17)20)18-21-6-8-24-18/h9-11H,2-8H2,1H3

> <PUBCHEM_IUPAC_INCHIKEY>
JJDHAOLOHQTGMG-UHFFFAOYSA-N

> <PUBCHEM_XLOGP3_AA>
4.6

> <PUBCHEM_EXACT_MASS>
382.085098

> <PUBCHEM_MOLECULAR_FORMULA>
C18H20Cl2N2O3

> <PUBCHEM_MOLECULAR_WEIGHT>
383.269

> <PUBCHEM_OPENEYE_CAN_SMILES>
CC1=NOC(=C1)CCCCCOC2=C(C=C(C=C2Cl)C3=NCCO3)Cl

> <PUBCHEM_OPENEYE_ISO_SMILES>
CC1=NOC(=C1)CCCCCOC2=C(C=C(C=C2Cl)C3=NCCO3)Cl

> <PUBCHEM_CACTVS_TPSA>
56.8

> <PUBCHEM_MONOISOTOPIC_WEIGHT>
382.085098

> <PUBCHEM_TOTAL_CHARGE>
0

> <PUBCHEM_HEAVY_ATOM_COUNT>
25

> <PUBCHEM_ATOM_DEF_STEREO_COUNT>
0

> <PUBCHEM_ATOM_UDEF_STEREO_COUNT>
0

> <PUBCHEM_BOND_DEF_STEREO_COUNT>
0

> <PUBCHEM_BOND_UDEF_STEREO_COUNT>
0

> <PUBCHEM_ISOTOPIC_ATOM_COUNT>
0

> <PUBCHEM_COMPONENT_COUNT>
1

> <PUBCHEM_CACTVS_TAUTO_COUNT>
1

> <PUBCHEM_COORDINATE_TYPE>
1
5
255

> <PUBCHEM_BONDANNOTATIONS>
13  15  8
14  19  8
14  20  8
15  18  8
16  21  8
16  22  8
19  21  8
20  22  8
4  13  8
4  7  8
7  18  8

$$$$

