9816183
  -OEChem-07051213092D

 28 29  0     1  0  0  0  0  0999 V2000
    5.5443    0.0403    0.0000 S   0  0  0  0  0  0  0  0  0  0  0  0
    4.5981   -1.6550    0.0000 O   0  0  0  0  0  0  0  0  0  0  0  0
    3.7320    2.8450    0.0000 O   0  0  0  0  0  0  0  0  0  0  0  0
    7.1279    0.8450    0.0000 O   0  0  0  0  0  0  0  0  0  0  0  0
    5.5443    1.6497    0.0000 N   0  0  0  0  0  0  0  0  0  0  0  0
    2.8660   -2.6550    0.0000 N   0  0  0  0  0  0  0  0  0  0  0  0
    3.7320   -1.1550    0.0000 C   0  0  3  0  0  0  0  0  0  0  0  0
    3.7320   -0.1550    0.0000 C   0  0  0  0  0  0  0  0  0  0  0  0
    4.5981    0.3450    0.0000 C   0  0  0  0  0  0  0  0  0  0  0  0
    2.8660   -1.6550    0.0000 C   0  0  0  0  0  0  0  0  0  0  0  0
    4.5981    1.3450    0.0000 C   0  0  0  0  0  0  0  0  0  0  0  0
    2.8660    0.3450    0.0000 C   0  0  0  0  0  0  0  0  0  0  0  0
    3.7320    1.8450    0.0000 C   0  0  0  0  0  0  0  0  0  0  0  0
    2.8660    1.3450    0.0000 C   0  0  0  0  0  0  0  0  0  0  0  0
    6.1279    0.8450    0.0000 C   0  0  0  0  0  0  0  0  0  0  0  0
    2.0000   -3.1550    0.0000 C   0  0  0  0  0  0  0  0  0  0  0  0
    3.7320   -2.0050    0.0000 H   0  0  0  0  0  0  0  0  0  0  0  0
    2.6540   -1.0724    0.0000 H   0  0  0  0  0  0  0  0  0  0  0  0
    2.2554   -1.7627    0.0000 H   0  0  0  0  0  0  0  0  0  0  0  0
    2.3291    0.0350    0.0000 H   0  0  0  0  0  0  0  0  0  0  0  0
    2.3291    1.6550    0.0000 H   0  0  0  0  0  0  0  0  0  0  0  0
    5.7369    2.2391    0.0000 H   0  0  0  0  0  0  0  0  0  0  0  0
    3.4030   -2.9650    0.0000 H   0  0  0  0  0  0  0  0  0  0  0  0
    4.5981   -2.2750    0.0000 H   0  0  0  0  0  0  0  0  0  0  0  0
    1.6900   -2.6181    0.0000 H   0  0  0  0  0  0  0  0  0  0  0  0
    1.4631   -3.4650    0.0000 H   0  0  0  0  0  0  0  0  0  0  0  0
    2.3100   -3.6919    0.0000 H   0  0  0  0  0  0  0  0  0  0  0  0
    3.1951    3.1550    0.0000 H   0  0  0  0  0  0  0  0  0  0  0  0
  1  9  1  0  0  0  0
  1 15  1  0  0  0  0
  2  7  1  0  0  0  0
  2 24  1  0  0  0  0
  3 13  1  0  0  0  0
  3 28  1  0  0  0  0
  4 15  2  0  0  0  0
  5 11  1  0  0  0  0
  5 15  1  0  0  0  0
  5 22  1  0  0  0  0
  6 10  1  0  0  0  0
  6 16  1  0  0  0  0
  6 23  1  0  0  0  0
  7  8  1  0  0  0  0
  7 10  1  0  0  0  0
  7 17  1  0  0  0  0
  8  9  2  0  0  0  0
  8 12  1  0  0  0  0
  9 11  1  0  0  0  0
 10 18  1  0  0  0  0
 10 19  1  0  0  0  0
 11 13  2  0  0  0  0
 12 14  2  0  0  0  0
 12 20  1  0  0  0  0
 13 14  1  0  0  0  0
 14 21  1  0  0  0  0
 16 25  1  0  0  0  0
 16 26  1  0  0  0  0
 16 27  1  0  0  0  0
M  END
> <PUBCHEM_COMPOUND_CID>
9816183

> <PUBCHEM_COMPOUND_CANONICALIZED>
1

> <PUBCHEM_CACTVS_COMPLEXITY>
277

> <PUBCHEM_CACTVS_HBOND_ACCEPTOR>
5

> <PUBCHEM_CACTVS_HBOND_DONOR>
4

> <PUBCHEM_CACTVS_ROTATABLE_BOND>
3

> <PUBCHEM_CACTVS_SUBSKEYS>
AAADccBzMABAAAAAAAAAAAAAAAAAAWAAAAAwAAAAAAAAAFgBAAAAHgQQCAAADBzh2AYyx4LAAgiIAiRCUACCAABhKBAIiJQPTIgKNiLykZOEcAhk1BFY2Aew4KQOIAAARAAEEQBAAACIAAgiAAAAAAAAAA==

> <PUBCHEM_IUPAC_OPENEYE_NAME>
4-hydroxy-7-[1-hydroxy-2-(methylamino)ethyl]-3H-1,3-benzothiazol-2-one

> <PUBCHEM_IUPAC_CAS_NAME>
4-hydroxy-7-[1-hydroxy-2-(methylamino)ethyl]-3H-1,3-benzothiazol-2-one

> <PUBCHEM_IUPAC_NAME>
4-hydroxy-7-[1-hydroxy-2-(methylamino)ethyl]-3H-1,3-benzothiazol-2-one

> <PUBCHEM_IUPAC_SYSTEMATIC_NAME>
7-[2-(methylamino)-1-oxidanyl-ethyl]-4-oxidanyl-3H-1,3-benzothiazol-2-one

> <PUBCHEM_IUPAC_TRADITIONAL_NAME>
4-hydroxy-7-[1-hydroxy-2-(methylamino)ethyl]-3H-1,3-benzothiazol-2-one

> <PUBCHEM_IUPAC_INCHI>
InChI=1S/C10H12N2O3S/c1-11-4-7(14)5-2-3-6(13)8-9(5)16-10(15)12-8/h2-3,7,11,13-14H,4H2,1H3,(H,12,15)

> <PUBCHEM_IUPAC_INCHIKEY>
AWWPNKWNJLNEKN-UHFFFAOYSA-N

> <PUBCHEM_XLOGP3_AA>
0

> <PUBCHEM_EXACT_MASS>
240.056863

> <PUBCHEM_MOLECULAR_FORMULA>
C10H12N2O3S

> <PUBCHEM_MOLECULAR_WEIGHT>
240.27888

> <PUBCHEM_OPENEYE_CAN_SMILES>
CNCC(C1=C2C(=C(C=C1)O)NC(=O)S2)O

> <PUBCHEM_OPENEYE_ISO_SMILES>
CNCC(C1=C2C(=C(C=C1)O)NC(=O)S2)O

> <PUBCHEM_CACTVS_TPSA>
107

> <PUBCHEM_MONOISOTOPIC_WEIGHT>
240.056863

> <PUBCHEM_TOTAL_CHARGE>
0

> <PUBCHEM_HEAVY_ATOM_COUNT>
16

> <PUBCHEM_ATOM_DEF_STEREO_COUNT>
0

> <PUBCHEM_ATOM_UDEF_STEREO_COUNT>
1

> <PUBCHEM_BOND_DEF_STEREO_COUNT>
0

> <PUBCHEM_BOND_UDEF_STEREO_COUNT>
0

> <PUBCHEM_ISOTOPIC_ATOM_COUNT>
0

> <PUBCHEM_COMPONENT_COUNT>
1

> <PUBCHEM_CACTVS_TAUTO_COUNT>
6

> <PUBCHEM_COORDINATE_TYPE>
1
5
255

> <PUBCHEM_BONDANNOTATIONS>
1  15  8
1  9  8
11  13  8
12  14  8
13  14  8
5  11  8
5  15  8
7  17  3
8  12  8
8  9  8
9  11  8

$$$$

