10929
  -OEChem-06261205083D

 13 12  0     0  0  0  0  0  0999 V2000
    0.2753   -0.5518   -0.1672 O   0  0  0  0  0  0  0  0  0  0  0  0
    2.5209   -0.2131   -0.1640 O   0  0  0  0  0  0  0  0  0  0  0  0
    1.3531    0.2610    0.2796 N   0  0  0  0  0  0  0  0  0  0  0  0
   -0.9425   -0.0060    0.3306 C   0  0  0  0  0  0  0  0  0  0  0  0
   -1.1072    1.4120   -0.1944 C   0  0  0  0  0  0  0  0  0  0  0  0
   -2.0995   -0.9020   -0.0846 C   0  0  0  0  0  0  0  0  0  0  0  0
   -0.9092    0.0092    1.4285 H   0  0  0  0  0  0  0  0  0  0  0  0
   -2.1008    1.8033    0.0498 H   0  0  0  0  0  0  0  0  0  0  0  0
   -0.3781    2.1060    0.2369 H   0  0  0  0  0  0  0  0  0  0  0  0
   -0.9823    1.4473   -1.2827 H   0  0  0  0  0  0  0  0  0  0  0  0
   -3.0534   -0.5267    0.2982 H   0  0  0  0  0  0  0  0  0  0  0  0
   -1.9477   -1.9195    0.2915 H   0  0  0  0  0  0  0  0  0  0  0  0
   -2.1635   -0.9767   -1.1758 H   0  0  0  0  0  0  0  0  0  0  0  0
  1  3  1  0  0  0  0
  1  4  1  0  0  0  0
  2  3  2  0  0  0  0
  4  5  1  0  0  0  0
  4  6  1  0  0  0  0
  4  7  1  0  0  0  0
  5  8  1  0  0  0  0
  5  9  1  0  0  0  0
  5 10  1  0  0  0  0
  6 11  1  0  0  0  0
  6 12  1  0  0  0  0
  6 13  1  0  0  0  0
M  END
> <PUBCHEM_COMPOUND_CID>
10929

> <PUBCHEM_CONFORMER_RMSD>
0.4

> <PUBCHEM_CONFORMER_DIVERSEORDER>
1
8
5
9
3
2
7
4
6

> <PUBCHEM_MMFF94_PARTIAL_CHARGES>
4
1 -0.09
2 -0.3
3 0.12
4 0.28

> <PUBCHEM_EFFECTIVE_ROTOR_COUNT>
2

> <PUBCHEM_PHARMACOPHORE_FEATURES>
1
3 4 5 6 hydrophobe

> <PUBCHEM_HEAVY_ATOM_COUNT>
6

> <PUBCHEM_ATOM_DEF_STEREO_COUNT>
0

> <PUBCHEM_ATOM_UDEF_STEREO_COUNT>
0

> <PUBCHEM_BOND_DEF_STEREO_COUNT>
0

> <PUBCHEM_BOND_UDEF_STEREO_COUNT>
0

> <PUBCHEM_ISOTOPIC_ATOM_COUNT>
0

> <PUBCHEM_COMPONENT_COUNT>
1

> <PUBCHEM_CACTVS_TAUTO_COUNT>
1

> <PUBCHEM_CONFORMER_ID>
00002AB100000001

> <PUBCHEM_MMFF94_ENERGY>
6.5918

> <PUBCHEM_FEATURE_SELFOVERLAP>
5.074

> <PUBCHEM_SHAPE_FINGERPRINT>
139733 1 9222966867120646739
16714656 1 18409165493761147207
20096714 4 18124878120777873729
21040471 1 18051418666663063273
23552449 1 18410860983504031965
29004967 10 18268708312272790307
5460574 1 9871755689001161458
5943 1 14937179735148283817

> <PUBCHEM_SHAPE_MULTIPOLES>
106.76
2.93
1.17
0.62
1.65
0.39
0.01
-0.65
-0.16
-0.64
-0.09
-0.07
0.02
0.05

> <PUBCHEM_SHAPE_SELFOVERLAP>
182.867

> <PUBCHEM_SHAPE_VOLUME>
72.8

> <PUBCHEM_COORDINATE_TYPE>
2
5
10

$$$$

