49661771
  -OEChem-06241223003D

 61 64  0     0  0  0  0  0  0999 V2000
   -2.7347    0.4291   -1.7329 S   0  0  0  0  0  0  0  0  0  0  0  0
    5.6942   -2.2445    0.0877 F   0  0  0  0  0  0  0  0  0  0  0  0
   -1.3948   -0.0433   -2.0053 O   0  0  0  0  0  0  0  0  0  0  0  0
   -3.5792    0.9326   -2.7941 O   0  0  0  0  0  0  0  0  0  0  0  0
    2.1090    1.2431    1.4397 O   0  0  0  0  0  0  0  0  0  0  0  0
   -1.7373   -1.3328    0.5072 N   0  0  0  0  0  0  0  0  0  0  0  0
   -2.6713    1.5919   -0.4752 N   0  0  0  0  0  0  0  0  0  0  0  0
    3.3363   -0.7279    1.6072 N   0  0  0  0  0  0  0  0  0  0  0  0
   -3.6957   -2.6129    0.7580 N   0  0  0  0  0  0  0  0  0  0  0  0
    0.9519   -0.8431    1.4353 C   0  0  0  0  0  0  0  0  0  0  0  0
    0.6660   -1.2139   -0.0180 C   0  0  0  0  0  0  0  0  0  0  0  0
   -0.2431   -0.1027    2.0312 C   0  0  0  0  0  0  0  0  0  0  0  0
   -1.5245   -0.9238    1.9028 C   0  0  0  0  0  0  0  0  0  0  0  0
   -0.6216   -2.0267   -0.1462 C   0  0  0  0  0  0  0  0  0  0  0  0
   -3.9969    2.0538    0.0327 C   0  0  0  0  0  0  0  0  0  0  0  0
   -1.7308    2.7282   -0.7048 C   0  0  0  0  0  0  0  0  0  0  0  0
   -3.8090    2.7992    1.3500 C   0  0  0  0  0  0  0  0  0  0  0  0
   -1.5105    3.4821    0.6025 C   0  0  0  0  0  0  0  0  0  0  0  0
   -2.8323    3.9616    1.1961 C   0  0  0  0  0  0  0  0  0  0  0  0
   -3.0502   -1.6163    0.1117 C   0  0  0  0  0  0  0  0  0  0  0  0
   -3.6083   -0.8654   -0.9104 C   0  0  0  0  0  0  0  0  0  0  0  0
    2.1752    0.0182    1.4994 C   0  0  0  0  0  0  0  0  0  0  0  0
   -4.9129   -1.1559   -1.2938 C   0  0  0  0  0  0  0  0  0  0  0  0
   -5.6096   -2.1741   -0.6525 C   0  0  0  0  0  0  0  0  0  0  0  0
   -4.9620   -2.8666    0.3580 C   0  0  0  0  0  0  0  0  0  0  0  0
    4.6536   -0.1365    1.6643 C   0  0  0  0  0  0  0  0  0  0  0  0
    5.2343    0.0750    0.2960 C   0  0  0  0  0  0  0  0  0  0  0  0
    5.7309   -1.0082   -0.4288 C   0  0  0  0  0  0  0  0  0  0  0  0
    5.2765    1.3578   -0.2503 C   0  0  0  0  0  0  0  0  0  0  0  0
    6.2696   -0.8089   -1.6999 C   0  0  0  0  0  0  0  0  0  0  0  0
    5.8153    1.5572   -1.5214 C   0  0  0  0  0  0  0  0  0  0  0  0
    6.3119    0.4739   -2.2462 C   0  0  0  0  0  0  0  0  0  0  0  0
    1.1189   -1.7579    2.0194 H   0  0  0  0  0  0  0  0  0  0  0  0
    1.4994   -1.7965   -0.4300 H   0  0  0  0  0  0  0  0  0  0  0  0
    0.6099   -0.3004   -0.6207 H   0  0  0  0  0  0  0  0  0  0  0  0
   -0.3852    0.8457    1.5077 H   0  0  0  0  0  0  0  0  0  0  0  0
   -0.0602    0.1392    3.0848 H   0  0  0  0  0  0  0  0  0  0  0  0
   -0.8286   -2.2408   -1.2004 H   0  0  0  0  0  0  0  0  0  0  0  0
   -0.4851   -3.0026    0.3380 H   0  0  0  0  0  0  0  0  0  0  0  0
   -1.4703   -1.8131    2.5428 H   0  0  0  0  0  0  0  0  0  0  0  0
   -2.3656   -0.3145    2.2560 H   0  0  0  0  0  0  0  0  0  0  0  0
   -4.6688    1.2149    0.2234 H   0  0  0  0  0  0  0  0  0  0  0  0
   -4.4685    2.7074   -0.7104 H   0  0  0  0  0  0  0  0  0  0  0  0
   -2.1383    3.3955   -1.4729 H   0  0  0  0  0  0  0  0  0  0  0  0
   -0.7654    2.3476   -1.0541 H   0  0  0  0  0  0  0  0  0  0  0  0
   -1.0027    2.8473    1.3332 H   0  0  0  0  0  0  0  0  0  0  0  0
   -0.8562    4.3426    0.4229 H   0  0  0  0  0  0  0  0  0  0  0  0
   -4.7753    3.1731    1.7063 H   0  0  0  0  0  0  0  0  0  0  0  0
   -3.4288    2.1073    2.1119 H   0  0  0  0  0  0  0  0  0  0  0  0
   -3.2716    4.7267    0.5444 H   0  0  0  0  0  0  0  0  0  0  0  0
   -2.6550    4.4312    2.1699 H   0  0  0  0  0  0  0  0  0  0  0  0
   -5.4131   -0.6063   -2.0852 H   0  0  0  0  0  0  0  0  0  0  0  0
    3.2781   -1.7421    1.6190 H   0  0  0  0  0  0  0  0  0  0  0  0
   -6.6277   -2.4178   -0.9340 H   0  0  0  0  0  0  0  0  0  0  0  0
   -5.4617   -3.6696    0.8896 H   0  0  0  0  0  0  0  0  0  0  0  0
    4.5958    0.8098    2.2148 H   0  0  0  0  0  0  0  0  0  0  0  0
    5.2957   -0.8072    2.2464 H   0  0  0  0  0  0  0  0  0  0  0  0
    4.8918    2.2109    0.3022 H   0  0  0  0  0  0  0  0  0  0  0  0
    6.6560   -1.6526   -2.2640 H   0  0  0  0  0  0  0  0  0  0  0  0
    5.8477    2.5559   -1.9470 H   0  0  0  0  0  0  0  0  0  0  0  0
    6.7312    0.6290   -3.2360 H   0  0  0  0  0  0  0  0  0  0  0  0
  1  3  2  0  0  0  0
  1  4  2  0  0  0  0
  1  7  1  0  0  0  0
  1 21  1  0  0  0  0
  2 28  1  0  0  0  0
  5 22  2  0  0  0  0
  6 13  1  0  0  0  0
  6 14  1  0  0  0  0
  6 20  1  0  0  0  0
  7 15  1  0  0  0  0
  7 16  1  0  0  0  0
  8 22  1  0  0  0  0
  8 26  1  0  0  0  0
  8 53  1  0  0  0  0
  9 20  1  0  0  0  0
  9 25  2  0  0  0  0
 10 11  1  0  0  0  0
 10 12  1  0  0  0  0
 10 22  1  0  0  0  0
 10 33  1  0  0  0  0
 11 14  1  0  0  0  0
 11 34  1  0  0  0  0
 11 35  1  0  0  0  0
 12 13  1  0  0  0  0
 12 36  1  0  0  0  0
 12 37  1  0  0  0  0
 13 40  1  0  0  0  0
 13 41  1  0  0  0  0
 14 38  1  0  0  0  0
 14 39  1  0  0  0  0
 15 17  1  0  0  0  0
 15 42  1  0  0  0  0
 15 43  1  0  0  0  0
 16 18  1  0  0  0  0
 16 44  1  0  0  0  0
 16 45  1  0  0  0  0
 17 19  1  0  0  0  0
 17 48  1  0  0  0  0
 17 49  1  0  0  0  0
 18 19  1  0  0  0  0
 18 46  1  0  0  0  0
 18 47  1  0  0  0  0
 19 50  1  0  0  0  0
 19 51  1  0  0  0  0
 20 21  2  0  0  0  0
 21 23  1  0  0  0  0
 23 24  2  0  0  0  0
 23 52  1  0  0  0  0
 24 25  1  0  0  0  0
 24 54  1  0  0  0  0
 25 55  1  0  0  0  0
 26 27  1  0  0  0  0
 26 56  1  0  0  0  0
 26 57  1  0  0  0  0
 27 28  1  0  0  0  0
 27 29  2  0  0  0  0
 28 30  2  0  0  0  0
 29 31  1  0  0  0  0
 29 58  1  0  0  0  0
 30 32  1  0  0  0  0
 30 59  1  0  0  0  0
 31 32  2  0  0  0  0
 31 60  1  0  0  0  0
 32 61  1  0  0  0  0
M  END
> <PUBCHEM_COMPOUND_CID>
49661771

> <PUBCHEM_CONFORMER_RMSD>
1.4

> <PUBCHEM_CONFORMER_DIVERSEORDER>
1
27
36
64
34
5
47
35
58
41
63
38
18
24
49
57
20
69
8
65
54
66
52
46
48
56
45
12
40
13
3
43
44
23
55
37
16
33
42
11
14
51
19
61
9
22
31
29
67
26
68
32
50
59
6
39
30
28
2
53
21
60
25
62
15
17
7
10
4

> <PUBCHEM_MMFF94_PARTIAL_CHARGES>
35
1 1.45
10 0.06
13 0.37
14 0.37
15 0.36
16 0.36
2 -0.19
20 0.41
21 -0.01
22 0.57
23 -0.15
24 -0.15
25 0.16
26 0.44
27 -0.14
28 0.19
29 -0.15
3 -0.65
30 -0.15
31 -0.15
32 -0.15
4 -0.65
5 -0.57
52 0.15
53 0.37
54 0.15
55 0.15
58 0.15
59 0.15
6 -0.84
60 0.15
61 0.15
7 -0.85
8 -0.73
9 -0.62

> <PUBCHEM_EFFECTIVE_ROTOR_COUNT>
9.4

> <PUBCHEM_PHARMACOPHORE_FEATURES>
10
1 3 acceptor
1 4 acceptor
1 5 acceptor
1 6 cation
1 8 donor
1 9 acceptor
6 27 28 29 30 31 32 rings
6 6 10 11 12 13 14 rings
6 7 15 16 17 18 19 rings
6 9 20 21 23 24 25 rings

> <PUBCHEM_HEAVY_ATOM_COUNT>
32

> <PUBCHEM_ATOM_DEF_STEREO_COUNT>
0

> <PUBCHEM_ATOM_UDEF_STEREO_COUNT>
0

> <PUBCHEM_BOND_DEF_STEREO_COUNT>
0

> <PUBCHEM_BOND_UDEF_STEREO_COUNT>
0

> <PUBCHEM_ISOTOPIC_ATOM_COUNT>
0

> <PUBCHEM_COMPONENT_COUNT>
1

> <PUBCHEM_CACTVS_TAUTO_COUNT>
2

> <PUBCHEM_CONFORMER_ID>
02F5C74B00000001

> <PUBCHEM_MMFF94_ENERGY>
75.6849

> <PUBCHEM_FEATURE_SELFOVERLAP>
50.761

> <PUBCHEM_SHAPE_FINGERPRINT>
10670039 82 18412824694782071036
11112241 14 12535359999294814993
11578080 2 17824802654784695303
12082328 90 18335139813461017910
12156800 1 17025398199236885393
12422481 6 6122236354628145532
12788726 201 18342465819759012323
13782708 43 17385731253017502031
14347332 77 18333734610987033890
14400156 266 18114186325078360077
14713325 29 18335702780030001003
14840074 17 15430308114614473854
14856354 85 18335697213826511111
14955137 171 18120937205633941659
15001296 14 18343024363482831644
15183329 4 18201718466691836846
15324884 4 17755898262880350099
16994733 274 14476422447347248823
19311894 1 18263359355797919384
19958102 18 18113341907519934894
21641784 216 18342459227089869560
249057 25 17846228773687813266
255183 451 17832147126593045863
27425 322 14689788309245077541
3552219 110 18060408098497723233
3610482 184 18269254902896598556
4058900 60 17466216853286899793
4098825 35 18410847781776533262
4258327 124 17846218912506679581
46194498 28 18188773821724554784
497634 4 18273497874975186863
50677037 204 18130499765556271380
7237137 82 18272374152474292568

> <PUBCHEM_SHAPE_MULTIPOLES>
617.59
15.53
3.67
2.22
23.5
2.98
-0.5
-4.01
-6.81
-5.97
0.85
0.78
0.29
-0.94

> <PUBCHEM_SHAPE_SELFOVERLAP>
1298.348

> <PUBCHEM_SHAPE_VOLUME>
348.1

> <PUBCHEM_COORDINATE_TYPE>
2
5
10

$$$$

