115152
  -OEChem-07051213002D

 24 25  0     0  0  0  0  0  0999 V2000
    2.5369    1.1690    0.0000 O   0  0  0  0  0  0  0  0  0  0  0  0
    9.1648   -0.6970    0.0000 O   0  0  0  0  0  0  0  0  0  0  0  0
    7.6648   -1.5630    0.0000 O   0  0  0  0  0  0  0  0  0  0  0  0
    6.0812    0.9737    0.0000 N   0  0  0  0  0  0  0  0  0  0  0  0
    6.0812   -0.6357    0.0000 N   0  0  0  0  0  0  0  0  0  0  0  0
    7.6648    0.1690    0.0000 N   0  0  0  0  0  0  0  0  0  0  0  0
    5.1350    0.6690    0.0000 C   0  0  0  0  0  0  0  0  0  0  0  0
    5.1350   -0.3310    0.0000 C   0  0  0  0  0  0  0  0  0  0  0  0
    6.6648    0.1690    0.0000 C   0  0  0  0  0  0  0  0  0  0  0  0
    4.2690    1.1690    0.0000 C   0  0  0  0  0  0  0  0  0  0  0  0
    4.2690   -0.8310    0.0000 C   0  0  0  0  0  0  0  0  0  0  0  0
    3.4030    0.6690    0.0000 C   0  0  0  0  0  0  0  0  0  0  0  0
    3.4030   -0.3310    0.0000 C   0  0  0  0  0  0  0  0  0  0  0  0
    8.1648   -0.6970    0.0000 C   0  0  0  0  0  0  0  0  0  0  0  0
    9.6648   -1.5630    0.0000 C   0  0  0  0  0  0  0  0  0  0  0  0
    6.2738    1.5630    0.0000 H   0  0  0  0  0  0  0  0  0  0  0  0
    4.2690    1.7890    0.0000 H   0  0  0  0  0  0  0  0  0  0  0  0
    4.2690   -1.4510    0.0000 H   0  0  0  0  0  0  0  0  0  0  0  0
    2.8660   -0.6410    0.0000 H   0  0  0  0  0  0  0  0  0  0  0  0
    7.9748    0.7059    0.0000 H   0  0  0  0  0  0  0  0  0  0  0  0
    2.0000    0.8590    0.0000 H   0  0  0  0  0  0  0  0  0  0  0  0
    9.1279   -1.8730    0.0000 H   0  0  0  0  0  0  0  0  0  0  0  0
    9.9748   -2.1000    0.0000 H   0  0  0  0  0  0  0  0  0  0  0  0
   10.2018   -1.2530    0.0000 H   0  0  0  0  0  0  0  0  0  0  0  0
  1 12  1  0  0  0  0
  1 21  1  0  0  0  0
  2 14  1  0  0  0  0
  2 15  1  0  0  0  0
  3 14  2  0  0  0  0
  4  7  1  0  0  0  0
  4  9  1  0  0  0  0
  4 16  1  0  0  0  0
  5  8  1  0  0  0  0
  5  9  2  0  0  0  0
  6  9  1  0  0  0  0
  6 14  1  0  0  0  0
  6 20  1  0  0  0  0
  7  8  2  0  0  0  0
  7 10  1  0  0  0  0
  8 11  1  0  0  0  0
 10 12  2  0  0  0  0
 10 17  1  0  0  0  0
 11 13  2  0  0  0  0
 11 18  1  0  0  0  0
 12 13  1  0  0  0  0
 13 19  1  0  0  0  0
 15 22  1  0  0  0  0
 15 23  1  0  0  0  0
 15 24  1  0  0  0  0
M  END
> <PUBCHEM_COMPOUND_CID>
115152

> <PUBCHEM_COMPOUND_CANONICALIZED>
1

> <PUBCHEM_CACTVS_COMPLEXITY>
249

> <PUBCHEM_CACTVS_HBOND_ACCEPTOR>
4

> <PUBCHEM_CACTVS_HBOND_DONOR>
3

> <PUBCHEM_CACTVS_ROTATABLE_BOND>
2

> <PUBCHEM_CACTVS_SUBSKEYS>
AAADccBzMAAAAAAAAAAAAAAAAAAAAWAAAAAwAAAAAAAAAFgB8AAAHgAQCAAACAyBlgIz3rbJlgCoASRifACCgC2hMqAJmSA2fJmIbqLCmZOUcAhu0RtI2CewUAMAAEAAAgAAACAAgAAEAAAAQAAAAAAAAA==

> <PUBCHEM_IUPAC_OPENEYE_NAME>
methyl N-(6-hydroxy-1H-benzimidazol-2-yl)carbamate

> <PUBCHEM_IUPAC_CAS_NAME>
N-(6-hydroxy-1H-benzimidazol-2-yl)carbamic acid methyl ester

> <PUBCHEM_IUPAC_NAME>
methyl N-(6-hydroxy-1H-benzimidazol-2-yl)carbamate

> <PUBCHEM_IUPAC_SYSTEMATIC_NAME>
methyl N-(6-oxidanyl-1H-benzimidazol-2-yl)carbamate

> <PUBCHEM_IUPAC_TRADITIONAL_NAME>
N-(6-hydroxy-1H-benzimidazol-2-yl)carbamic acid methyl ester

> <PUBCHEM_IUPAC_INCHI>
InChI=1S/C9H9N3O3/c1-15-9(14)12-8-10-6-3-2-5(13)4-7(6)11-8/h2-4,13H,1H3,(H2,10,11,12,14)

> <PUBCHEM_IUPAC_INCHIKEY>
UINGPWWYGSJYAY-UHFFFAOYSA-N

> <PUBCHEM_XLOGP3>
1.1

> <PUBCHEM_EXACT_MASS>
207.064391

> <PUBCHEM_MOLECULAR_FORMULA>
C9H9N3O3

> <PUBCHEM_MOLECULAR_WEIGHT>
207.18606

> <PUBCHEM_OPENEYE_CAN_SMILES>
COC(=O)NC1=NC2=C(N1)C=C(C=C2)O

> <PUBCHEM_OPENEYE_ISO_SMILES>
COC(=O)NC1=NC2=C(N1)C=C(C=C2)O

> <PUBCHEM_CACTVS_TPSA>
87.2

> <PUBCHEM_MONOISOTOPIC_WEIGHT>
207.064391

> <PUBCHEM_TOTAL_CHARGE>
0

> <PUBCHEM_HEAVY_ATOM_COUNT>
15

> <PUBCHEM_ATOM_DEF_STEREO_COUNT>
0

> <PUBCHEM_ATOM_UDEF_STEREO_COUNT>
0

> <PUBCHEM_BOND_DEF_STEREO_COUNT>
0

> <PUBCHEM_BOND_UDEF_STEREO_COUNT>
0

> <PUBCHEM_ISOTOPIC_ATOM_COUNT>
0

> <PUBCHEM_COMPONENT_COUNT>
1

> <PUBCHEM_CACTVS_TAUTO_COUNT>
24

> <PUBCHEM_COORDINATE_TYPE>
1
5
255

> <PUBCHEM_BONDANNOTATIONS>
10  12  8
11  13  8
12  13  8
4  7  8
4  9  8
5  8  8
5  9  8
7  10  8
7  8  8
8  11  8

$$$$

