8115
  -OEChem-06261202363D

 15 14  0     0  0  0  0  0  0999 V2000
    2.7683    0.9606    0.7259 Cl  0  0  0  0  0  0  0  0  0  0  0  0
   -2.7683    0.9606   -0.7258 Cl  0  0  0  0  0  0  0  0  0  0  0  0
    0.0000   -0.1014    0.0000 O   0  0  0  0  0  0  0  0  0  0  0  0
    1.1149   -0.9007   -0.3708 C   0  0  0  0  0  0  0  0  0  0  0  0
   -1.1149   -0.9008    0.3708 C   0  0  0  0  0  0  0  0  0  0  0  0
    2.2996   -0.0091   -0.6940 C   0  0  0  0  0  0  0  0  0  0  0  0
   -2.2996   -0.0092    0.6940 C   0  0  0  0  0  0  0  0  0  0  0  0
    0.8570   -1.4938   -1.2557 H   0  0  0  0  0  0  0  0  0  0  0  0
    1.3704   -1.5873    0.4453 H   0  0  0  0  0  0  0  0  0  0  0  0
   -0.8570   -1.4940    1.2556 H   0  0  0  0  0  0  0  0  0  0  0  0
   -1.3703   -1.5873   -0.4455 H   0  0  0  0  0  0  0  0  0  0  0  0
    3.1660   -0.6013   -1.0009 H   0  0  0  0  0  0  0  0  0  0  0  0
    2.0479    0.6984   -1.4893 H   0  0  0  0  0  0  0  0  0  0  0  0
   -3.1660   -0.6014    1.0009 H   0  0  0  0  0  0  0  0  0  0  0  0
   -2.0479    0.6984    1.4894 H   0  0  0  0  0  0  0  0  0  0  0  0
  1  6  1  0  0  0  0
  2  7  1  0  0  0  0
  3  4  1  0  0  0  0
  3  5  1  0  0  0  0
  4  6  1  0  0  0  0
  4  8  1  0  0  0  0
  4  9  1  0  0  0  0
  5  7  1  0  0  0  0
  5 10  1  0  0  0  0
  5 11  1  0  0  0  0
  6 12  1  0  0  0  0
  6 13  1  0  0  0  0
  7 14  1  0  0  0  0
  7 15  1  0  0  0  0
M  END
> <PUBCHEM_COMPOUND_CID>
8115

> <PUBCHEM_CONFORMER_RMSD>
0.6

> <PUBCHEM_CONFORMER_DIVERSEORDER>
2
18
14
9
10
16
3
5
17
7
6
13
15
4
19
11
1
12
8

> <PUBCHEM_MMFF94_PARTIAL_CHARGES>
7
1 -0.29
2 -0.29
3 -0.56
4 0.28
5 0.28
6 0.29
7 0.29

> <PUBCHEM_EFFECTIVE_ROTOR_COUNT>
4

> <PUBCHEM_PHARMACOPHORE_FEATURES>
1
1 3 acceptor

> <PUBCHEM_HEAVY_ATOM_COUNT>
7

> <PUBCHEM_ATOM_DEF_STEREO_COUNT>
0

> <PUBCHEM_ATOM_UDEF_STEREO_COUNT>
0

> <PUBCHEM_BOND_DEF_STEREO_COUNT>
0

> <PUBCHEM_BOND_UDEF_STEREO_COUNT>
0

> <PUBCHEM_ISOTOPIC_ATOM_COUNT>
0

> <PUBCHEM_COMPONENT_COUNT>
1

> <PUBCHEM_CACTVS_TAUTO_COUNT>
1

> <PUBCHEM_CONFORMER_ID>
00001FB300000002

> <PUBCHEM_MMFF94_ENERGY>
4.9776

> <PUBCHEM_FEATURE_SELFOVERLAP>
5.074

> <PUBCHEM_SHAPE_FINGERPRINT>
10857977 72 17916853639265169355
12932741 1 18261380144435439902
12932764 1 18410846668330451174
14390081 3 18409448102603962217
20765181 27 18410857659151618720
5460574 1 9583238297238450091

> <PUBCHEM_SHAPE_MULTIPOLES>
141.93
4.93
1.14
0.96
0
0.06
0
1.89
0
0
0
0
0.11
0.7

> <PUBCHEM_SHAPE_SELFOVERLAP>
231.4

> <PUBCHEM_SHAPE_VOLUME>
100.2

> <PUBCHEM_COORDINATE_TYPE>
2
5
10

$$$$

