146261
  -OEChem-07051213013D

 10 10  0     1  0  0  0  0  0999 V2000
    0.7737   -0.7560   -0.1104 O   0  0  0  0  0  0  0  0  0  0  0  0
   -0.2119    0.0634    0.5031 C   0  0  1  0  0  0  0  0  0  0  0  0
    0.9727    0.6626   -0.1637 C   0  0  0  0  0  0  0  0  0  0  0  0
   -1.5345    0.0301   -0.2289 C   0  0  0  0  0  0  0  0  0  0  0  0
   -0.2912    0.0715    1.5793 H   0  0  0  0  0  0  0  0  0  0  0  0
    0.8485    1.1508   -1.1216 H   0  0  0  0  0  0  0  0  0  0  0  0
    1.7540    1.0797    0.4585 H   0  0  0  0  0  0  0  0  0  0  0  0
   -2.1073    0.9327    0.0039 H   0  0  0  0  0  0  0  0  0  0  0  0
   -1.4020   -0.0261   -1.3143 H   0  0  0  0  0  0  0  0  0  0  0  0
   -2.1138   -0.8402    0.0940 H   0  0  0  0  0  0  0  0  0  0  0  0
  1  2  1  0  0  0  0
  1  3  1  0  0  0  0
  2  3  1  0  0  0  0
  2  4  1  0  0  0  0
  2  5  1  0  0  0  0
  3  6  1  0  0  0  0
  3  7  1  0  0  0  0
  4  8  1  0  0  0  0
  4  9  1  0  0  0  0
  4 10  1  0  0  0  0
M  END
> <PUBCHEM_COMPOUND_CID>
146261

> <PUBCHEM_CONFORMER_RMSD>
0.4

> <PUBCHEM_CONFORMER_DIVERSEORDER>
1

> <PUBCHEM_MMFF94_PARTIAL_CHARGES>
7
1 -0.3
2 -0.05
3 -0.05
4 0.09
5 0.1
6 0.1
7 0.1

> <PUBCHEM_EFFECTIVE_ROTOR_COUNT>
0.6

> <PUBCHEM_PHARMACOPHORE_FEATURES>
1
1 1 acceptor

> <PUBCHEM_HEAVY_ATOM_COUNT>
4

> <PUBCHEM_ATOM_DEF_STEREO_COUNT>
1

> <PUBCHEM_ATOM_UDEF_STEREO_COUNT>
0

> <PUBCHEM_BOND_DEF_STEREO_COUNT>
0

> <PUBCHEM_BOND_UDEF_STEREO_COUNT>
0

> <PUBCHEM_ISOTOPIC_ATOM_COUNT>
0

> <PUBCHEM_COMPONENT_COUNT>
1

> <PUBCHEM_CACTVS_TAUTO_COUNT>
1

> <PUBCHEM_CONFORMER_ID>
00023B5500000001

> <PUBCHEM_MMFF94_ENERGY>
4.7779

> <PUBCHEM_FEATURE_SELFOVERLAP>
5.074

> <PUBCHEM_SHAPE_FINGERPRINT>
139733 1 10591456417850476487
20096714 4 18200311005054486237
21015797 1 10303518473216064904
5943 1 15026060239005546768

> <PUBCHEM_SHAPE_MULTIPOLES>
76.45
1.61
0.82
0.68
0.5
0.01
0.04
-0.13
-0.19
-0.18
-0.03
0.04
-0.02
0.01

> <PUBCHEM_SHAPE_SELFOVERLAP>
135.678

> <PUBCHEM_SHAPE_VOLUME>
51.7

> <PUBCHEM_COORDINATE_TYPE>
2
5
10

$$$$

