64960
  -OEChem-07051212533D

 23 23  0     1  0  0  0  0  0999 V2000
   -0.7824    1.2868    0.3138 O   0  0  0  0  0  0  0  0  0  0  0  0
   -0.4395   -2.2852   -0.4389 O   0  0  0  0  0  0  0  0  0  0  0  0
    2.2519   -1.4928    0.4287 O   0  0  0  0  0  0  0  0  0  0  0  0
    2.8139    1.2538   -0.3199 O   0  0  0  0  0  0  0  0  0  0  0  0
   -3.4249    0.6963   -0.1248 O   0  0  0  0  0  0  0  0  0  0  0  0
   -0.1140   -1.0520    0.1968 C   0  0  1  0  0  0  0  0  0  0  0  0
    1.3033   -0.6301   -0.2000 C   0  0  1  0  0  0  0  0  0  0  0  0
   -1.1390    0.0093   -0.2213 C   0  0  1  0  0  0  0  0  0  0  0  0
    1.5925    0.8001    0.2529 C   0  0  2  0  0  0  0  0  0  0  0  0
    0.4758    1.7408   -0.1746 C   0  0  0  0  0  0  0  0  0  0  0  0
   -2.5376   -0.3271    0.2872 C   0  0  0  0  0  0  0  0  0  0  0  0
   -0.1523   -1.2207    1.2798 H   0  0  0  0  0  0  0  0  0  0  0  0
    1.4530   -0.7376   -1.2813 H   0  0  0  0  0  0  0  0  0  0  0  0
   -1.1890    0.0955   -1.3155 H   0  0  0  0  0  0  0  0  0  0  0  0
    1.7080    0.8182    1.3437 H   0  0  0  0  0  0  0  0  0  0  0  0
    0.6548    2.7433    0.2295 H   0  0  0  0  0  0  0  0  0  0  0  0
    0.4366    1.8528   -1.2655 H   0  0  0  0  0  0  0  0  0  0  0  0
   -2.5560   -0.3633    1.3816 H   0  0  0  0  0  0  0  0  0  0  0  0
   -2.8917   -1.2821   -0.1125 H   0  0  0  0  0  0  0  0  0  0  0  0
   -0.4093   -2.1447   -1.4006 H   0  0  0  0  0  0  0  0  0  0  0  0
    3.1387   -1.1877    0.1709 H   0  0  0  0  0  0  0  0  0  0  0  0
    2.9718    2.1577    0.0023 H   0  0  0  0  0  0  0  0  0  0  0  0
   -4.3070    0.4644    0.2124 H   0  0  0  0  0  0  0  0  0  0  0  0
  1  8  1  0  0  0  0
  1 10  1  0  0  0  0
  2  6  1  0  0  0  0
  2 20  1  0  0  0  0
  3  7  1  0  0  0  0
  3 21  1  0  0  0  0
  4  9  1  0  0  0  0
  4 22  1  0  0  0  0
  5 11  1  0  0  0  0
  5 23  1  0  0  0  0
  6  7  1  0  0  0  0
  6  8  1  0  0  0  0
  6 12  1  0  0  0  0
  7  9  1  0  0  0  0
  7 13  1  0  0  0  0
  8 11  1  0  0  0  0
  8 14  1  0  0  0  0
  9 10  1  0  0  0  0
  9 15  1  0  0  0  0
 10 16  1  0  0  0  0
 10 17  1  0  0  0  0
 11 18  1  0  0  0  0
 11 19  1  0  0  0  0
M  END
> <PUBCHEM_COMPOUND_CID>
64960

> <PUBCHEM_CONFORMER_RMSD>
0.6

> <PUBCHEM_CONFORMER_DIVERSEORDER>
1
2
3
4

> <PUBCHEM_MMFF94_PARTIAL_CHARGES>
15
1 -0.56
10 0.28
11 0.28
2 -0.68
20 0.4
21 0.4
22 0.4
23 0.4
3 -0.68
4 -0.68
5 -0.68
6 0.28
7 0.28
8 0.28
9 0.28

> <PUBCHEM_EFFECTIVE_ROTOR_COUNT>
2.2

> <PUBCHEM_PHARMACOPHORE_FEATURES>
10
1 1 acceptor
1 2 acceptor
1 2 donor
1 3 acceptor
1 3 donor
1 4 acceptor
1 4 donor
1 5 acceptor
1 5 donor
6 1 6 7 8 9 10 rings

> <PUBCHEM_HEAVY_ATOM_COUNT>
11

> <PUBCHEM_ATOM_DEF_STEREO_COUNT>
4

> <PUBCHEM_ATOM_UDEF_STEREO_COUNT>
0

> <PUBCHEM_BOND_DEF_STEREO_COUNT>
0

> <PUBCHEM_BOND_UDEF_STEREO_COUNT>
0

> <PUBCHEM_ISOTOPIC_ATOM_COUNT>
0

> <PUBCHEM_COMPONENT_COUNT>
1

> <PUBCHEM_CACTVS_TAUTO_COUNT>
1

> <PUBCHEM_CONFORMER_ID>
0000FDC000000001

> <PUBCHEM_MMFF94_ENERGY>
26.4342

> <PUBCHEM_FEATURE_SELFOVERLAP>
50.757

> <PUBCHEM_SHAPE_FINGERPRINT>
10219947 1 18410572920416286689
14325111 11 18411136918299640585
16945 1 18266465295382278112
18185500 45 18266463105159940718
193761 8 17545039299455345617
21040471 1 18337111137954441641
23235685 24 18338239267028698484
23402655 69 18336559295773216717
23552423 10 18271805756512934842
241688 4 17257084303626806274
2748010 2 18339645666986298260
29004967 10 18273209777101045553
5084963 1 17968942031667982418
528862 383 18343588438373844794
528886 8 18409733936946098177
53812653 166 18262521377391503112
66348 1 18410851096451951608

> <PUBCHEM_SHAPE_MULTIPOLES>
197.03
3.75
1.95
0.65
1.54
0.46
0
-0.79
0.04
-0.52
-0.12
-0.02
0.03
-0.16

> <PUBCHEM_SHAPE_SELFOVERLAP>
389.68

> <PUBCHEM_SHAPE_VOLUME>
116.3

> <PUBCHEM_COORDINATE_TYPE>
2
5
10

$$$$

