442752
  -OEChem-07051212593D

 29 31  0     1  0  0  0  0  0999 V2000
   -2.0379    0.7732    0.0049 O   0  0  0  0  0  0  0  0  0  0  0  0
   -4.6609    0.6084    1.2061 O   0  0  0  0  0  0  0  0  0  0  0  0
    0.5845   -3.0001   -0.0140 O   0  0  0  0  0  0  0  0  0  0  0  0
    0.2665    2.4111    0.0101 O   0  0  0  0  0  0  0  0  0  0  0  0
    2.8571    2.6087    0.0112 O   0  0  0  0  0  0  0  0  0  0  0  0
   -0.7301   -1.0618   -0.0053 C   0  0  0  0  0  0  0  0  0  0  0  0
   -0.7634    0.3114    0.0017 C   0  0  0  0  0  0  0  0  0  0  0  0
   -2.8355   -0.3316   -0.0003 C   0  0  0  0  0  0  0  0  0  0  0  0
    1.6824    0.4869    0.0010 C   0  0  0  0  0  0  0  0  0  0  0  0
    1.7549   -0.9258   -0.0063 C   0  0  0  0  0  0  0  0  0  0  0  0
   -2.0785   -1.4843   -0.0067 C   0  0  0  0  0  0  0  0  0  0  0  0
    0.5223   -1.7782   -0.0095 C   0  0  0  0  0  0  0  0  0  0  0  0
    0.3630    1.1921    0.0053 C   0  0  0  0  0  0  0  0  0  0  0  0
   -4.2845   -0.0841    0.0018 C   0  0  2  0  0  0  0  0  0  0  0  0
    2.8574    1.2457    0.0041 C   0  0  0  0  0  0  0  0  0  0  0  0
    3.0048   -1.5542   -0.0104 C   0  0  0  0  0  0  0  0  0  0  0  0
   -4.7703    0.7637   -1.1861 C   0  0  0  0  0  0  0  0  0  0  0  0
    4.0974    0.6060    0.0000 C   0  0  0  0  0  0  0  0  0  0  0  0
    4.1707   -0.7869   -0.0074 C   0  0  0  0  0  0  0  0  0  0  0  0
   -2.4557   -2.4972   -0.0117 H   0  0  0  0  0  0  0  0  0  0  0  0
   -4.8214   -1.0398    0.0001 H   0  0  0  0  0  0  0  0  0  0  0  0
    3.0929   -2.6373   -0.0161 H   0  0  0  0  0  0  0  0  0  0  0  0
   -4.5085    0.2944   -2.1397 H   0  0  0  0  0  0  0  0  0  0  0  0
   -4.3307    1.7673   -1.1605 H   0  0  0  0  0  0  0  0  0  0  0  0
   -5.8571    0.8932   -1.1441 H   0  0  0  0  0  0  0  0  0  0  0  0
    5.0208    1.1798    0.0024 H   0  0  0  0  0  0  0  0  0  0  0  0
    5.1402   -1.2773   -0.0106 H   0  0  0  0  0  0  0  0  0  0  0  0
   -5.6284    0.7074    1.1943 H   0  0  0  0  0  0  0  0  0  0  0  0
    3.7732    2.9348    0.0122 H   0  0  0  0  0  0  0  0  0  0  0  0
  1  7  1  0  0  0  0
  1  8  1  0  0  0  0
  2 14  1  0  0  0  0
  2 28  1  0  0  0  0
  3 12  2  0  0  0  0
  4 13  2  0  0  0  0
  5 15  1  0  0  0  0
  5 29  1  0  0  0  0
  6  7  2  0  0  0  0
  6 11  1  0  0  0  0
  6 12  1  0  0  0  0
  7 13  1  0  0  0  0
  8 11  2  0  0  0  0
  8 14  1  0  0  0  0
  9 10  2  0  0  0  0
  9 13  1  0  0  0  0
  9 15  1  0  0  0  0
 10 12  1  0  0  0  0
 10 16  1  0  0  0  0
 11 20  1  0  0  0  0
 14 17  1  0  0  0  0
 14 21  1  0  0  0  0
 15 18  2  0  0  0  0
 16 19  2  0  0  0  0
 16 22  1  0  0  0  0
 17 23  1  0  0  0  0
 17 24  1  0  0  0  0
 17 25  1  0  0  0  0
 18 19  1  0  0  0  0
 18 26  1  0  0  0  0
 19 27  1  0  0  0  0
M  END
> <PUBCHEM_COMPOUND_CID>
442752

> <PUBCHEM_CONFORMER_RMSD>
0.6

> <PUBCHEM_CONFORMER_DIVERSEORDER>
1
2

> <PUBCHEM_MMFF94_PARTIAL_CHARGES>
24
1 -0.28
10 0.09
11 -0.15
12 0.57
13 0.57
14 0.46
15 0.08
16 -0.15
18 -0.15
19 -0.15
2 -0.68
20 0.15
22 0.15
26 0.15
27 0.15
28 0.4
29 0.45
3 -0.57
4 -0.57
5 -0.53
6 -0.09
7 0.05
8 -0.04
9 0.09

> <PUBCHEM_EFFECTIVE_ROTOR_COUNT>
1

> <PUBCHEM_PHARMACOPHORE_FEATURES>
9
1 1 acceptor
1 2 acceptor
1 2 donor
1 3 acceptor
1 4 acceptor
1 5 donor
5 1 6 7 8 11 rings
6 6 7 9 10 12 13 rings
6 9 10 15 16 18 19 rings

> <PUBCHEM_HEAVY_ATOM_COUNT>
19

> <PUBCHEM_ATOM_DEF_STEREO_COUNT>
1

> <PUBCHEM_ATOM_UDEF_STEREO_COUNT>
0

> <PUBCHEM_BOND_DEF_STEREO_COUNT>
0

> <PUBCHEM_BOND_UDEF_STEREO_COUNT>
0

> <PUBCHEM_ISOTOPIC_ATOM_COUNT>
0

> <PUBCHEM_COMPONENT_COUNT>
1

> <PUBCHEM_CACTVS_TAUTO_COUNT>
5

> <PUBCHEM_CONFORMER_ID>
0006C18000000001

> <PUBCHEM_MMFF94_ENERGY>
38.5656

> <PUBCHEM_FEATURE_SELFOVERLAP>
45.793

> <PUBCHEM_SHAPE_FINGERPRINT>
10062212 137 18334303028402395383
10411042 1 16176788931724005559
10608611 8 18341335500298990933
10693767 8 18042415792383011223
10967382 1 18410575106554861158
10980938 120 18411139155888002475
11132069 177 18410864239131096162
11471102 20 18410859879686491262
12011746 2 18410006655106893822
12236239 1 17748828540457329013
12644460 14 18272087244369565562
13140716 1 18411139095816664890
13583140 156 16557928739726556837
13675066 3 18060415794483024897
13862211 1 18338523048698499534
14178342 30 17761789372898250976
14251717 144 18408889546307158743
14790565 3 18338784663614824532
15099037 51 18410293618371443510
15196674 1 18338517443554817902
15375358 24 18343866632196137747
15536298 74 18333731299704112746
15848702 151 17822284755481568222
16945 1 18266458883196786094
18186145 218 18408601448427424796
193761 8 17834113430738432550
200 152 18041006150325475549
20645477 70 18410015463568171391
20739085 24 18270378581851804753
21267235 1 18409720789956506286
21421861 104 17841713211959598483
21452121 103 18335433339615028800
231179 274 17988651817173027711
23184049 59 18411697686066706218
2334 1 18266459811004628582
23402539 116 18261120655670741174
23402655 69 18334016085773548302
23463225 33 18411982459926492294
23559900 14 18261110743344806814
25 1 18341618122243057167
2748010 2 18339356366779595286
2871803 45 18339926029655935686
3060560 45 18334297595421753582
335352 9 18410856564578504414
34934 24 18337962186378200290
350125 39 18411698820587471012
4072396 5 18270419293999498746
474 4 18410011022466232347
495365 180 17604160216180572640
5104073 3 18339643339061075723
537710 114 18410569587389971588
633830 44 18114732785560373773
69090 78 18334862701153124183
7364860 26 18335982090148353174
7832392 63 18263928743954010478
8272917 22 18334852870263101519
9709674 26 18410288077784951991

> <PUBCHEM_SHAPE_MULTIPOLES>
361.66
8.38
2.35
0.73
5.63
0.13
-0.01
-1.72
-0.27
-1.53
-0.02
0.64
-0.08
0.12

> <PUBCHEM_SHAPE_SELFOVERLAP>
812.679

> <PUBCHEM_SHAPE_VOLUME>
191.6

> <PUBCHEM_COORDINATE_TYPE>
2
5
10

$$$$

