439990
  -OEChem-07051212503D

 27 27  0     1  0  0  0  0  0999 V2000
   -2.3377    0.8537   -0.3851 O   0  0  0  0  0  0  0  0  0  0  0  0
   -1.7701   -1.8458    0.3802 O   0  0  0  0  0  0  0  0  0  0  0  0
   -0.3049    2.6935    0.3789 O   0  0  0  0  0  0  0  0  0  0  0  0
    0.8463   -2.7088   -0.3869 O   0  0  0  0  0  0  0  0  0  0  0  0
    2.3253    1.8579   -0.3823 O   0  0  0  0  0  0  0  0  0  0  0  0
    2.9216   -0.8302    0.3898 O   0  0  0  0  0  0  0  0  0  0  0  0
   -1.1057    0.4451    0.2167 C   0  0  0  0  0  0  0  0  0  0  0  0
   -0.7970   -0.9857   -0.2198 C   0  0  1  0  0  0  0  0  0  0  0  0
   -0.0208    1.4260   -0.2209 C   0  0  2  0  0  0  0  0  0  0  0  0
    0.5955   -1.4374    0.2184 C   0  0  2  0  0  0  0  0  0  0  0  0
    1.3715    0.9765    0.2178 C   0  0  1  0  0  0  0  0  0  0  0  0
    1.6824   -0.4548   -0.2177 C   0  0  0  0  0  0  0  0  0  0  0  0
   -3.4062    0.0101    0.0109 C   0  0  0  0  0  0  0  0  0  0  0  0
   -1.2334    0.5068    1.3065 H   0  0  0  0  0  0  0  0  0  0  0  0
   -0.9171   -1.0980   -1.3042 H   0  0  0  0  0  0  0  0  0  0  0  0
   -0.0608    1.5807   -1.3066 H   0  0  0  0  0  0  0  0  0  0  0  0
    0.6306   -1.5997    1.3027 H   0  0  0  0  0  0  0  0  0  0  0  0
    1.4938    1.0804    1.3035 H   0  0  0  0  0  0  0  0  0  0  0  0
    1.8397   -0.5116   -1.3018 H   0  0  0  0  0  0  0  0  0  0  0  0
   -1.6304   -1.8337    1.3427 H   0  0  0  0  0  0  0  0  0  0  0  0
    0.2945    3.3479   -0.0172 H   0  0  0  0  0  0  0  0  0  0  0  0
    1.7413   -2.9836   -0.1236 H   0  0  0  0  0  0  0  0  0  0  0  0
    2.2186    2.7323    0.0284 H   0  0  0  0  0  0  0  0  0  0  0  0
    3.5939   -0.1901    0.0995 H   0  0  0  0  0  0  0  0  0  0  0  0
   -3.3839   -0.2481    1.0747 H   0  0  0  0  0  0  0  0  0  0  0  0
   -3.5066   -0.8518   -0.6546 H   0  0  0  0  0  0  0  0  0  0  0  0
   -4.3260    0.5880   -0.1362 H   0  0  0  0  0  0  0  0  0  0  0  0
  1  7  1  0  0  0  0
  1 13  1  0  0  0  0
  2  8  1  0  0  0  0
  2 20  1  0  0  0  0
  3  9  1  0  0  0  0
  3 21  1  0  0  0  0
  4 10  1  0  0  0  0
  4 22  1  0  0  0  0
  5 11  1  0  0  0  0
  5 23  1  0  0  0  0
  6 12  1  0  0  0  0
  6 24  1  0  0  0  0
  7  8  1  0  0  0  0
  7  9  1  0  0  0  0
  7 14  1  0  0  0  0
  8 10  1  0  0  0  0
  8 15  1  0  0  0  0
  9 11  1  0  0  0  0
  9 16  1  0  0  0  0
 10 12  1  0  0  0  0
 10 17  1  0  0  0  0
 11 12  1  0  0  0  0
 11 18  1  0  0  0  0
 12 19  1  0  0  0  0
 13 25  1  0  0  0  0
 13 26  1  0  0  0  0
 13 27  1  0  0  0  0
M  END
> <PUBCHEM_COMPOUND_CID>
439990

> <PUBCHEM_CONFORMER_RMSD>
0.6

> <PUBCHEM_CONFORMER_DIVERSEORDER>
1
2

> <PUBCHEM_MMFF94_PARTIAL_CHARGES>
18
1 -0.56
10 0.28
11 0.28
12 0.28
13 0.28
2 -0.68
20 0.4
21 0.4
22 0.4
23 0.4
24 0.4
3 -0.68
4 -0.68
5 -0.68
6 -0.68
7 0.28
8 0.28
9 0.28

> <PUBCHEM_EFFECTIVE_ROTOR_COUNT>
2.2

> <PUBCHEM_PHARMACOPHORE_FEATURES>
12
1 1 acceptor
1 2 acceptor
1 2 donor
1 3 acceptor
1 3 donor
1 4 acceptor
1 4 donor
1 5 acceptor
1 5 donor
1 6 acceptor
1 6 donor
6 7 8 9 10 11 12 rings

> <PUBCHEM_HEAVY_ATOM_COUNT>
13

> <PUBCHEM_ATOM_DEF_STEREO_COUNT>
4

> <PUBCHEM_ATOM_UDEF_STEREO_COUNT>
0

> <PUBCHEM_BOND_DEF_STEREO_COUNT>
0

> <PUBCHEM_BOND_UDEF_STEREO_COUNT>
0

> <PUBCHEM_ISOTOPIC_ATOM_COUNT>
0

> <PUBCHEM_COMPONENT_COUNT>
1

> <PUBCHEM_CACTVS_TAUTO_COUNT>
1

> <PUBCHEM_CONFORMER_ID>
0006B6B600000001

> <PUBCHEM_MMFF94_ENERGY>
44.3046

> <PUBCHEM_FEATURE_SELFOVERLAP>
60.919

> <PUBCHEM_SHAPE_FINGERPRINT>
10967382 1 18410855442948312103
12423570 1 17031325485547613542
12524768 44 18410852200459149639
13380535 76 18341055116513076731
14251717 144 18409456864775102687
16945 1 18338509867116287810
193761 8 17833550480484278920
20201158 50 18340490070626125455
20588541 1 18339641238869682711
21040471 1 18194122906537339212
21501502 16 18339925888075151431
2334 1 18266740173352538598
23463225 33 18413674599520669506
23552423 10 18200876167042412078
23559900 14 18046049473278142724
241688 4 17474105878752493946
2748010 2 18338515222998515310
5084963 1 18042409199570345776
5255222 1 17833550089631751017
528886 8 18410016498428105000
53812653 166 18118405042469818816
66348 1 18410291414973910792

> <PUBCHEM_SHAPE_MULTIPOLES>
232.32
3.69
2.59
0.65
1.39
0.01
0
-0.01
0.02
-0.63
-0.01
-0.01
0
0

> <PUBCHEM_SHAPE_SELFOVERLAP>
466.664

> <PUBCHEM_SHAPE_VOLUME>
135.7

> <PUBCHEM_COORDINATE_TYPE>
2
5
10

$$$$

