6780
  -OEChem-07051213083D

 24 26  0     0  0  0  0  0  0999 V2000
    0.0000   -2.6723    0.0006 O   0  0  0  0  0  0  0  0  0  0  0  0
    0.0000    2.6723   -0.0006 O   0  0  0  0  0  0  0  0  0  0  0  0
   -1.2730   -0.6983   -0.0004 C   0  0  0  0  0  0  0  0  0  0  0  0
    1.2730   -0.6982   -0.0006 C   0  0  0  0  0  0  0  0  0  0  0  0
   -1.2730    0.6982   -0.0003 C   0  0  0  0  0  0  0  0  0  0  0  0
    1.2730    0.6983   -0.0002 C   0  0  0  0  0  0  0  0  0  0  0  0
    0.0000   -1.4475   -0.0004 C   0  0  0  0  0  0  0  0  0  0  0  0
    0.0000    1.4475   -0.0003 C   0  0  0  0  0  0  0  0  0  0  0  0
   -2.4865   -1.3964   -0.0001 C   0  0  0  0  0  0  0  0  0  0  0  0
    2.4866   -1.3964   -0.0005 C   0  0  0  0  0  0  0  0  0  0  0  0
   -2.4866    1.3964    0.0001 C   0  0  0  0  0  0  0  0  0  0  0  0
    2.4865    1.3965    0.0006 C   0  0  0  0  0  0  0  0  0  0  0  0
   -3.6935   -0.6968    0.0005 C   0  0  0  0  0  0  0  0  0  0  0  0
    3.6935   -0.6968    0.0002 C   0  0  0  0  0  0  0  0  0  0  0  0
   -3.6936    0.6967    0.0006 C   0  0  0  0  0  0  0  0  0  0  0  0
    3.6936    0.6967    0.0008 C   0  0  0  0  0  0  0  0  0  0  0  0
   -2.5134   -2.4828   -0.0001 H   0  0  0  0  0  0  0  0  0  0  0  0
    2.5135   -2.4828   -0.0009 H   0  0  0  0  0  0  0  0  0  0  0  0
   -2.5135    2.4828    0.0003 H   0  0  0  0  0  0  0  0  0  0  0  0
    2.5135    2.4829    0.0011 H   0  0  0  0  0  0  0  0  0  0  0  0
   -4.6346   -1.2391    0.0009 H   0  0  0  0  0  0  0  0  0  0  0  0
    4.6346   -1.2391    0.0004 H   0  0  0  0  0  0  0  0  0  0  0  0
   -4.6347    1.2391    0.0011 H   0  0  0  0  0  0  0  0  0  0  0  0
    4.6347    1.2389    0.0015 H   0  0  0  0  0  0  0  0  0  0  0  0
  1  7  2  0  0  0  0
  2  8  2  0  0  0  0
  3  5  1  0  0  0  0
  3  7  1  0  0  0  0
  3  9  2  0  0  0  0
  4  6  1  0  0  0  0
  4  7  1  0  0  0  0
  4 10  2  0  0  0  0
  5  8  1  0  0  0  0
  5 11  2  0  0  0  0
  6  8  1  0  0  0  0
  6 12  2  0  0  0  0
  9 13  1  0  0  0  0
  9 17  1  0  0  0  0
 10 14  1  0  0  0  0
 10 18  1  0  0  0  0
 11 15  1  0  0  0  0
 11 19  1  0  0  0  0
 12 16  1  0  0  0  0
 12 20  1  0  0  0  0
 13 15  2  0  0  0  0
 13 21  1  0  0  0  0
 14 16  2  0  0  0  0
 14 22  1  0  0  0  0
 15 23  1  0  0  0  0
 16 24  1  0  0  0  0
M  END
> <PUBCHEM_COMPOUND_CID>
6780

> <PUBCHEM_CONFORMER_RMSD>
0.4

> <PUBCHEM_CONFORMER_DIVERSEORDER>
1

> <PUBCHEM_MMFF94_PARTIAL_CHARGES>
24
1 -0.57
10 -0.15
11 -0.15
12 -0.15
13 -0.15
14 -0.15
15 -0.15
16 -0.15
17 0.15
18 0.15
19 0.15
2 -0.57
20 0.15
21 0.15
22 0.15
23 0.15
24 0.15
3 0.09
4 0.09
5 0.09
6 0.09
7 0.4
8 0.4
9 -0.15

> <PUBCHEM_EFFECTIVE_ROTOR_COUNT>
0

> <PUBCHEM_PHARMACOPHORE_FEATURES>
5
1 1 acceptor
1 2 acceptor
6 3 4 5 6 7 8 rings
6 3 5 9 11 13 15 rings
6 4 6 10 12 14 16 rings

> <PUBCHEM_HEAVY_ATOM_COUNT>
16

> <PUBCHEM_ATOM_DEF_STEREO_COUNT>
0

> <PUBCHEM_ATOM_UDEF_STEREO_COUNT>
0

> <PUBCHEM_BOND_DEF_STEREO_COUNT>
0

> <PUBCHEM_BOND_UDEF_STEREO_COUNT>
0

> <PUBCHEM_ISOTOPIC_ATOM_COUNT>
0

> <PUBCHEM_COMPONENT_COUNT>
1

> <PUBCHEM_CACTVS_TAUTO_COUNT>
1

> <PUBCHEM_CONFORMER_ID>
00001A7C00000001

> <PUBCHEM_MMFF94_ENERGY>
47.7721

> <PUBCHEM_FEATURE_SELFOVERLAP>
25.414

> <PUBCHEM_SHAPE_FINGERPRINT>
10062212 137 18411147956223432955
10608611 8 18410578387493286820
108231 29 18261393312668175512
10967382 1 18410855485935012262
11132069 177 18409454695262632712
11471102 20 18411142449885111197
11806522 49 18337677404155553975
12032990 46 18410849966865139619
12382932 28 18408885165398279897
13140716 1 18410856606884430257
13221675 6 18410856559639841538
13380535 76 18410575088958448963
13897977 150 18410577318130598837
14144814 61 18410575076073144450
14325111 11 18410856559650436512
14614273 12 18200880707023421373
15196674 1 18410855464423129089
15309172 13 18409440384611119507
15442244 35 18194683898122973170
15536298 74 18334013891409211140
15775835 57 18410852161593284962
16945 1 18410575097547980803
18186145 218 18409163346229974588
193761 8 17762338423751835669
19591789 44 18410854360617196614
200 152 18113909238940793909
20510252 161 18260829314895753872
20645476 183 17844227563266506246
21249577 43 18411136935131246221
21267235 1 18410565189058812194
21501502 16 18410573993741392224
2334 1 18410855430063390727
23402539 116 18334022678828123902
23419403 2 15951407244893326435
23463225 33 18412826901799090636
23559900 14 18334294301788050374
238 59 15613311169091571181
2748010 2 18410573985151451263
335352 9 18050567648852312527
34934 24 18410583885051074914
43471831 8 18341897453925923554
5104073 3 18410573980856484840
528886 8 18410016545646371539
537710 114 18411694370357533900
53812653 166 18334580109548155208
54173680 148 18124312696950079507
69090 78 18333736788414133671
84936 31 15937813145252749078
8809292 202 18272083894363607131
9709674 26 18409162190968661662

> <PUBCHEM_SHAPE_MULTIPOLES>
317.53
6.16
2.3
0.6
0
0
0
0
0
0
0
0
0
0

> <PUBCHEM_SHAPE_SELFOVERLAP>
720.904

> <PUBCHEM_SHAPE_VOLUME>
164.2

> <PUBCHEM_COORDINATE_TYPE>
2
5
10

$$$$

