443329
  -OEChem-07051213023D

 72 74  0     1  0  0  0  0  0999 V2000
   -0.9104   -0.0822    0.6749 O   0  0  0  0  0  0  0  0  0  0  0  0
   -1.8767   -1.2392   -1.1414 O   0  0  0  0  0  0  0  0  0  0  0  0
    1.1073   -1.1761    0.2551 O   0  0  0  0  0  0  0  0  0  0  0  0
    0.3207    2.3855    0.0401 O   0  0  0  0  0  0  0  0  0  0  0  0
    3.2211    2.3322    0.5552 O   0  0  0  0  0  0  0  0  0  0  0  0
    4.4305    0.0283   -0.7036 O   0  0  0  0  0  0  0  0  0  0  0  0
   -5.1089    2.0256   -0.4857 O   0  0  0  0  0  0  0  0  0  0  0  0
   -5.0198    1.0915   -2.6020 O   0  0  0  0  0  0  0  0  0  0  0  0
    2.1768   -3.5522   -0.6204 O   0  0  0  0  0  0  0  0  0  0  0  0
   -0.9125    2.3098    1.9921 O   0  0  0  0  0  0  0  0  0  0  0  0
    2.5126    3.9005   -0.9860 O   0  0  0  0  0  0  0  0  0  0  0  0
    5.5471    0.9300    1.1067 O   0  0  0  0  0  0  0  0  0  0  0  0
    3.7030   -5.1495    0.0555 O   0  0  0  0  0  0  0  0  0  0  0  0
   -2.9568   -1.2731    1.0912 C   0  0  1  0  0  0  0  0  0  0  0  0
   -3.9554   -0.1725    0.6610 C   0  0  2  0  0  0  0  0  0  0  0  0
   -3.7638   -2.5733    0.9475 C   0  0  2  0  0  0  0  0  0  0  0  0
   -5.3476   -0.7550    0.9867 C   0  0  0  0  0  0  0  0  0  0  0  0
   -5.1173   -2.1661    1.5215 C   0  0  0  0  0  0  0  0  0  0  0  0
   -1.6590   -1.2335    0.2759 C   0  0  2  0  0  0  0  0  0  0  0  0
   -3.7974    0.1689   -0.7931 C   0  0  0  0  0  0  0  0  0  0  0  0
   -3.1579   -3.7585    1.6846 C   0  0  0  0  0  0  0  0  0  0  0  0
    0.3345   -0.0098   -0.0193 C   0  0  2  0  0  0  0  0  0  0  0  0
   -2.8494   -0.3719   -1.5670 C   0  0  0  0  0  0  0  0  0  0  0  0
    1.0678    1.2435    0.4587 C   0  0  1  0  0  0  0  0  0  0  0  0
    2.4789    1.3186   -0.1245 C   0  0  2  0  0  0  0  0  0  0  0  0
    3.2206   -0.0070    0.0486 C   0  0  1  0  0  0  0  0  0  0  0  0
    2.3598   -1.1777   -0.4320 C   0  0  1  0  0  0  0  0  0  0  0  0
   -4.7057    1.1303   -1.4226 C   0  0  0  0  0  0  0  0  0  0  0  0
    3.0311   -2.5205   -0.1615 C   0  0  0  0  0  0  0  0  0  0  0  0
   -0.6417    2.8115    0.9095 C   0  0  0  0  0  0  0  0  0  0  0  0
    3.1461    3.5814    0.0110 C   0  0  0  0  0  0  0  0  0  0  0  0
    5.5213    0.5232   -0.0470 C   0  0  0  0  0  0  0  0  0  0  0  0
   -6.0082    3.0373   -0.9509 C   0  0  0  0  0  0  0  0  0  0  0  0
   -1.3396    4.0103    0.3420 C   0  0  0  0  0  0  0  0  0  0  0  0
    3.9679    4.5351    0.8241 C   0  0  0  0  0  0  0  0  0  0  0  0
    2.6352   -4.8321   -0.4508 C   0  0  0  0  0  0  0  0  0  0  0  0
    6.7133    0.4993   -0.9551 C   0  0  0  0  0  0  0  0  0  0  0  0
    1.6325   -5.8127   -0.9789 C   0  0  0  0  0  0  0  0  0  0  0  0
   -2.7143   -1.1139    2.1523 H   0  0  0  0  0  0  0  0  0  0  0  0
   -3.7690    0.7275    1.2608 H   0  0  0  0  0  0  0  0  0  0  0  0
   -3.8852   -2.8401   -0.1102 H   0  0  0  0  0  0  0  0  0  0  0  0
   -5.8646   -0.1434    1.7345 H   0  0  0  0  0  0  0  0  0  0  0  0
   -5.9967   -0.7976    0.1042 H   0  0  0  0  0  0  0  0  0  0  0  0
   -5.0878   -2.1448    2.6181 H   0  0  0  0  0  0  0  0  0  0  0  0
   -5.9175   -2.8509    1.2235 H   0  0  0  0  0  0  0  0  0  0  0  0
   -1.0767   -2.1292    0.5170 H   0  0  0  0  0  0  0  0  0  0  0  0
   -2.2008   -4.0498    1.2416 H   0  0  0  0  0  0  0  0  0  0  0  0
   -3.8262   -4.6246    1.6339 H   0  0  0  0  0  0  0  0  0  0  0  0
   -2.9850   -3.5283    2.7413 H   0  0  0  0  0  0  0  0  0  0  0  0
    0.1435    0.0711   -1.0973 H   0  0  0  0  0  0  0  0  0  0  0  0
   -2.7422   -0.1975   -2.6293 H   0  0  0  0  0  0  0  0  0  0  0  0
    1.1596    1.2339    1.5540 H   0  0  0  0  0  0  0  0  0  0  0  0
    2.4357    1.5494   -1.1982 H   0  0  0  0  0  0  0  0  0  0  0  0
    3.4346   -0.1573    1.1167 H   0  0  0  0  0  0  0  0  0  0  0  0
    2.1673   -1.1059   -1.5112 H   0  0  0  0  0  0  0  0  0  0  0  0
    3.9943   -2.5824   -0.6805 H   0  0  0  0  0  0  0  0  0  0  0  0
    3.1892   -2.6499    0.9162 H   0  0  0  0  0  0  0  0  0  0  0  0
   -5.5307    3.6386   -1.7304 H   0  0  0  0  0  0  0  0  0  0  0  0
   -6.9302    2.5814   -1.3241 H   0  0  0  0  0  0  0  0  0  0  0  0
   -6.2542    3.6874   -0.1071 H   0  0  0  0  0  0  0  0  0  0  0  0
   -1.8379    3.7394   -0.5923 H   0  0  0  0  0  0  0  0  0  0  0  0
   -2.0951    4.3597    1.0515 H   0  0  0  0  0  0  0  0  0  0  0  0
   -0.6190    4.8150    0.1762 H   0  0  0  0  0  0  0  0  0  0  0  0
    5.0132    4.2160    0.8243 H   0  0  0  0  0  0  0  0  0  0  0  0
    3.9082    5.5336    0.3818 H   0  0  0  0  0  0  0  0  0  0  0  0
    3.5790    4.5819    1.8443 H   0  0  0  0  0  0  0  0  0  0  0  0
    6.9267   -0.5285   -1.2592 H   0  0  0  0  0  0  0  0  0  0  0  0
    7.5834    0.8929   -0.4220 H   0  0  0  0  0  0  0  0  0  0  0  0
    6.5256    1.1289   -1.8285 H   0  0  0  0  0  0  0  0  0  0  0  0
    1.4837   -5.6494   -2.0491 H   0  0  0  0  0  0  0  0  0  0  0  0
    2.0056   -6.8298   -0.8291 H   0  0  0  0  0  0  0  0  0  0  0  0
    0.6890   -5.7046   -0.4379 H   0  0  0  0  0  0  0  0  0  0  0  0
  1 19  1  0  0  0  0
  1 22  1  0  0  0  0
  2 19  1  0  0  0  0
  2 23  1  0  0  0  0
  3 22  1  0  0  0  0
  3 27  1  0  0  0  0
  4 24  1  0  0  0  0
  4 30  1  0  0  0  0
  5 25  1  0  0  0  0
  5 31  1  0  0  0  0
  6 26  1  0  0  0  0
  6 32  1  0  0  0  0
  7 28  1  0  0  0  0
  7 33  1  0  0  0  0
  8 28  2  0  0  0  0
  9 29  1  0  0  0  0
  9 36  1  0  0  0  0
 10 30  2  0  0  0  0
 11 31  2  0  0  0  0
 12 32  2  0  0  0  0
 13 36  2  0  0  0  0
 14 15  1  0  0  0  0
 14 16  1  0  0  0  0
 14 19  1  0  0  0  0
 14 39  1  0  0  0  0
 15 17  1  0  0  0  0
 15 20  1  0  0  0  0
 15 40  1  0  0  0  0
 16 18  1  0  0  0  0
 16 21  1  0  0  0  0
 16 41  1  0  0  0  0
 17 18  1  0  0  0  0
 17 42  1  0  0  0  0
 17 43  1  0  0  0  0
 18 44  1  0  0  0  0
 18 45  1  0  0  0  0
 19 46  1  0  0  0  0
 20 23  2  0  0  0  0
 20 28  1  0  0  0  0
 21 47  1  0  0  0  0
 21 48  1  0  0  0  0
 21 49  1  0  0  0  0
 22 24  1  0  0  0  0
 22 50  1  0  0  0  0
 23 51  1  0  0  0  0
 24 25  1  0  0  0  0
 24 52  1  0  0  0  0
 25 26  1  0  0  0  0
 25 53  1  0  0  0  0
 26 27  1  0  0  0  0
 26 54  1  0  0  0  0
 27 29  1  0  0  0  0
 27 55  1  0  0  0  0
 29 56  1  0  0  0  0
 29 57  1  0  0  0  0
 30 34  1  0  0  0  0
 31 35  1  0  0  0  0
 32 37  1  0  0  0  0
 33 58  1  0  0  0  0
 33 59  1  0  0  0  0
 33 60  1  0  0  0  0
 34 61  1  0  0  0  0
 34 62  1  0  0  0  0
 34 63  1  0  0  0  0
 35 64  1  0  0  0  0
 35 65  1  0  0  0  0
 35 66  1  0  0  0  0
 36 38  1  0  0  0  0
 37 67  1  0  0  0  0
 37 68  1  0  0  0  0
 37 69  1  0  0  0  0
 38 70  1  0  0  0  0
 38 71  1  0  0  0  0
 38 72  1  0  0  0  0
M  END
> <PUBCHEM_COMPOUND_CID>
443329

> <PUBCHEM_CONFORMER_RMSD>
1.4

> <PUBCHEM_CONFORMER_DIVERSEORDER>
1
11
2
21
20
15
16
8
6
7
10
14
18
9
4
17
5
19
3
13
12

> <PUBCHEM_MMFF94_PARTIAL_CHARGES>
34
1 -0.56
10 -0.57
11 -0.57
12 -0.57
13 -0.57
15 0.14
19 0.56
2 -0.36
20 -0.12
22 0.56
23 -0.07
24 0.28
25 0.28
26 0.28
27 0.28
28 0.71
29 0.28
3 -0.56
30 0.66
31 0.66
32 0.66
33 0.28
34 0.06
35 0.06
36 0.66
37 0.06
38 0.06
4 -0.43
5 -0.43
51 0.15
6 -0.43
7 -0.43
8 -0.57
9 -0.43

> <PUBCHEM_EFFECTIVE_ROTOR_COUNT>
15.2

> <PUBCHEM_PHARMACOPHORE_FEATURES>
11
1 1 acceptor
1 10 acceptor
1 11 acceptor
1 12 acceptor
1 13 acceptor
1 2 acceptor
1 3 acceptor
1 8 acceptor
5 14 15 16 17 18 rings
6 2 14 15 19 20 23 rings
6 3 22 24 25 26 27 rings

> <PUBCHEM_HEAVY_ATOM_COUNT>
38

> <PUBCHEM_ATOM_DEF_STEREO_COUNT>
9

> <PUBCHEM_ATOM_UDEF_STEREO_COUNT>
0

> <PUBCHEM_BOND_DEF_STEREO_COUNT>
0

> <PUBCHEM_BOND_UDEF_STEREO_COUNT>
0

> <PUBCHEM_ISOTOPIC_ATOM_COUNT>
0

> <PUBCHEM_COMPONENT_COUNT>
1

> <PUBCHEM_CACTVS_TAUTO_COUNT>
1

> <PUBCHEM_CONFORMER_ID>
0006C3C100000001

> <PUBCHEM_MMFF94_ENERGY>
86.9946

> <PUBCHEM_FEATURE_SELFOVERLAP>
56.084

> <PUBCHEM_SHAPE_FINGERPRINT>
10290309 65 18338513019696246570
10675989 125 17909835671362342823
1100329 8 18119242866800016634
11135926 11 18409725196977976510
12788726 201 17333657575025594747
13140716 1 18192708943659380658
13583140 156 18409728435483726727
13911987 19 18268136570711095054
140371 6 18340477950138674088
14790565 3 18193554472264134796
15351339 4 17193480829390156787
15815584 197 18334287648061121070
16112460 7 18045775960532287649
22223350 30 17467363223223698336
23559900 14 18411140268289716226
3178227 256 18338222770776713754
5265222 85 18198329655769361492
613672 6 18050290563533865802
7399639 24 18125434212075088563

> <PUBCHEM_SHAPE_MULTIPOLES>
705.72
13.26
7.08
1.47
0.2
5.9
-0.23
-3.49
-1.59
-5.62
-0.09
1.96
-0.08
3.49

> <PUBCHEM_SHAPE_SELFOVERLAP>
1468.776

> <PUBCHEM_SHAPE_VOLUME>
394.4

> <PUBCHEM_COORDINATE_TYPE>
2
5
10

$$$$

