7846962
  -OEChem-06241222483D

 43 45  0     1  0  0  0  0  0999 V2000
    1.0384   -2.0393    1.8336 S   0  0  0  0  0  0  0  0  0  0  0  0
   -2.5555    0.1061    0.4034 O   0  0  0  0  0  0  0  0  0  0  0  0
    1.6426    1.6598    0.7901 O   0  0  0  0  0  0  0  0  0  0  0  0
   -3.4611   -1.8164   -0.4943 O   0  0  0  0  0  0  0  0  0  0  0  0
   -2.1344    3.1034   -1.0699 O   0  0  0  0  0  0  0  0  0  0  0  0
   -0.5396    1.4176   -1.0980 N   0  0  0  0  0  0  0  0  0  0  0  0
   -0.0987   -2.5911   -0.4146 N   0  0  0  0  0  0  0  0  0  0  0  0
   -1.5523   -3.0030    1.5713 C   0  0  0  0  0  0  0  0  0  0  0  0
   -2.5150   -1.8275    1.7463 C   0  0  0  0  0  0  0  0  0  0  0  0
   -2.8623    0.8172   -0.7843 C   0  0  2  0  0  0  0  0  0  0  0  0
   -0.2791   -2.5785    0.8854 C   0  0  0  0  0  0  0  0  0  0  0  0
   -2.9111   -1.2188    0.4204 C   0  0  0  0  0  0  0  0  0  0  0  0
    1.9580   -1.7901    0.3966 C   0  0  0  0  0  0  0  0  0  0  0  0
    1.1799   -2.1415   -0.7107 C   0  0  0  0  0  0  0  0  0  0  0  0
   -1.8290    1.9154   -0.9912 C   0  0  0  0  0  0  0  0  0  0  0  0
    0.6050    2.2697   -1.3186 C   0  0  0  0  0  0  0  0  0  0  0  0
   -4.2601    1.3985   -0.6429 C   0  0  0  0  0  0  0  0  0  0  0  0
    1.1939    2.6698   -0.0004 C   0  0  0  0  0  0  0  0  0  0  0  0
    3.2731   -1.3179    0.2589 C   0  0  0  0  0  0  0  0  0  0  0  0
    1.7404   -2.0145   -2.0002 C   0  0  0  0  0  0  0  0  0  0  0  0
    3.8037   -1.2017   -1.0282 C   0  0  0  0  0  0  0  0  0  0  0  0
    3.0491   -1.5450   -2.1446 C   0  0  0  0  0  0  0  0  0  0  0  0
    1.3888    3.8858    0.6124 C   0  0  0  0  0  0  0  0  0  0  0  0
    1.9961    3.6048    1.8596 C   0  0  0  0  0  0  0  0  0  0  0  0
    2.1293    2.2372    1.9199 C   0  0  0  0  0  0  0  0  0  0  0  0
   -2.0271   -3.7838    0.9642 H   0  0  0  0  0  0  0  0  0  0  0  0
   -1.3363   -3.4520    2.5478 H   0  0  0  0  0  0  0  0  0  0  0  0
   -2.0629   -1.0592    2.3853 H   0  0  0  0  0  0  0  0  0  0  0  0
   -3.4326   -2.1549    2.2474 H   0  0  0  0  0  0  0  0  0  0  0  0
   -2.8137    0.1696   -1.6695 H   0  0  0  0  0  0  0  0  0  0  0  0
    1.3378    1.7018   -1.9003 H   0  0  0  0  0  0  0  0  0  0  0  0
    0.3075    3.1528   -1.8931 H   0  0  0  0  0  0  0  0  0  0  0  0
   -4.5408    1.9843   -1.5241 H   0  0  0  0  0  0  0  0  0  0  0  0
   -5.0022    0.6046   -0.5075 H   0  0  0  0  0  0  0  0  0  0  0  0
   -4.3297    2.0479    0.2375 H   0  0  0  0  0  0  0  0  0  0  0  0
   -0.3836    0.4183   -1.0023 H   0  0  0  0  0  0  0  0  0  0  0  0
    3.8676   -1.0465    1.1259 H   0  0  0  0  0  0  0  0  0  0  0  0
    1.1592   -2.2788   -2.8792 H   0  0  0  0  0  0  0  0  0  0  0  0
    4.8194   -0.8370   -1.1568 H   0  0  0  0  0  0  0  0  0  0  0  0
    3.4781   -1.4471   -3.1381 H   0  0  0  0  0  0  0  0  0  0  0  0
    1.1261    4.8547    0.2124 H   0  0  0  0  0  0  0  0  0  0  0  0
    2.2988    4.3107    2.6193 H   0  0  0  0  0  0  0  0  0  0  0  0
    2.5280    1.5561    2.6576 H   0  0  0  0  0  0  0  0  0  0  0  0
  1 11  1  0  0  0  0
  1 13  1  0  0  0  0
  2 10  1  0  0  0  0
  2 12  1  0  0  0  0
  3 18  1  0  0  0  0
  3 25  1  0  0  0  0
  4 12  2  0  0  0  0
  5 15  2  0  0  0  0
  6 15  1  0  0  0  0
  6 16  1  0  0  0  0
  6 36  1  0  0  0  0
  7 11  2  0  0  0  0
  7 14  1  0  0  0  0
  8  9  1  0  0  0  0
  8 11  1  0  0  0  0
  8 26  1  0  0  0  0
  8 27  1  0  0  0  0
  9 12  1  0  0  0  0
  9 28  1  0  0  0  0
  9 29  1  0  0  0  0
 10 15  1  0  0  0  0
 10 17  1  0  0  0  0
 10 30  1  0  0  0  0
 13 14  1  0  0  0  0
 13 19  2  0  0  0  0
 14 20  2  0  0  0  0
 16 18  1  0  0  0  0
 16 31  1  0  0  0  0
 16 32  1  0  0  0  0
 17 33  1  0  0  0  0
 17 34  1  0  0  0  0
 17 35  1  0  0  0  0
 18 23  2  0  0  0  0
 19 21  1  0  0  0  0
 19 37  1  0  0  0  0
 20 22  1  0  0  0  0
 20 38  1  0  0  0  0
 21 22  2  0  0  0  0
 21 39  1  0  0  0  0
 22 40  1  0  0  0  0
 23 24  1  0  0  0  0
 23 41  1  0  0  0  0
 24 25  2  0  0  0  0
 24 42  1  0  0  0  0
 25 43  1  0  0  0  0
M  END
> <PUBCHEM_COMPOUND_CID>
7846962

> <PUBCHEM_CONFORMER_RMSD>
1

> <PUBCHEM_CONFORMER_DIVERSEORDER>
1
52
108
14
74
144
7
384
99
224
11
246
237
128
332
121
243
98
272
112
106
261
41
254
278
220
289
152
329
245
66
222
171
228
345
151
189
187
331
84
353
177
266
340
76
251
146
19
42
314
364
64
215
89
240
227
162
276
381
141
134
320
167
229
318
291
82
104
103
50
305
26
62
8
297
312
17
39
122
21
259
326
194
2
392
349
154
29
126
195
133
322
378
310
265
389
223
287
197
325
292
70
125
191
149
300
182
158
260
304
211
351
113
236
24
202
147
107
334
230
374
201
357
282
346
85
150
28
83
166
115
46
175
179
118
347
359
301
92
268
77
256
156
117
244
233
368
100
324
73
37
3
164
58
210
303
323
295
376
30
277
136
366
328
255
290
49
225
242
264
203
248
382
48
275
63
302
12
10
131
319
352
284
88
253
348
339
56
60
120
327
130
155
71
172
183
262
218
132
78
321
386
61
93
208
273
362
178
387
145
270
234
363
97
101
72
313
199
267
371
221
127
388
67
279
288
247
375
258
263
142
5
190
68
65
356
285
31
309
114
129
174
380
271
212
355
109
337
90
116
307
311
86
185
4
369
22
123
143
250
180
95
138
161
298
214
336
299
370
306
163
124
110
377
360
343
198
235
45
119
241
372
209
94
16
213
153
159
283
36
135
205
181
38
165
358
32
226
188
40
274
33
232
25
338
54
293
186
35
294
257
192
231
139
330
105
81
157
269
75
308
91
15
69
207
373
87
140
80
296
238
350
55
193
367
239
379
335
168
96
102
148
206
9
286
315
365
51
317
160
79
173
391
59
316
390
219
354
27
176
20
344
383
196
217
361
57
13
44
342
280
43
216
204
53
6
111
200
281
249
170
341
18
137
385
333
34
169
23
184
47
252

> <PUBCHEM_MMFF94_PARTIAL_CHARGES>
32
1 -0.08
10 0.34
11 0.2
12 0.66
13 0.04
14 0.23
15 0.57
16 0.48
18 -0.04
19 -0.15
2 -0.43
20 -0.15
21 -0.15
22 -0.15
23 -0.15
24 -0.15
25 -0.01
3 -0.28
36 0.37
37 0.15
38 0.15
39 0.15
4 -0.57
40 0.15
41 0.15
42 0.15
43 0.15
5 -0.57
6 -0.73
7 -0.57
8 0.18
9 0.06

> <PUBCHEM_EFFECTIVE_ROTOR_COUNT>
9

> <PUBCHEM_PHARMACOPHORE_FEATURES>
8
1 3 acceptor
1 4 acceptor
1 5 acceptor
1 6 donor
1 7 acceptor
5 1 7 11 13 14 rings
5 3 18 23 24 25 rings
6 13 14 19 20 21 22 rings

> <PUBCHEM_HEAVY_ATOM_COUNT>
25

> <PUBCHEM_ATOM_DEF_STEREO_COUNT>
1

> <PUBCHEM_ATOM_UDEF_STEREO_COUNT>
0

> <PUBCHEM_BOND_DEF_STEREO_COUNT>
0

> <PUBCHEM_BOND_UDEF_STEREO_COUNT>
0

> <PUBCHEM_ISOTOPIC_ATOM_COUNT>
0

> <PUBCHEM_COMPONENT_COUNT>
1

> <PUBCHEM_CACTVS_TAUTO_COUNT>
4

> <PUBCHEM_CONFORMER_ID>
0077BC3200000001

> <PUBCHEM_MMFF94_ENERGY>
27.7663

> <PUBCHEM_FEATURE_SELFOVERLAP>
40.666

> <PUBCHEM_SHAPE_FINGERPRINT>
10675989 125 17188990440861000060
11221954 11 18194694673889911906
12788726 201 17396985029511411680
13402501 40 18411140233861444768
14251745 187 18343013372391599380
14787075 74 18338518654967613740
15003188 3 18264494056092121129
20600515 1 18125162894637445836
20691752 17 17846509118919514463
20715895 44 16261811893392902069
20775438 99 18120397375432024839
20905425 154 18197211443147408274
21141583 151 18193553595716448550
238 59 18118152227809595181
238918 7 17976263439559280656
469060 322 16480440747816317072
6287921 2 17969497117684361127
9862522 239 17757292391831412064

> <PUBCHEM_SHAPE_MULTIPOLES>
484.9
5.77
5.36
2.07
2.78
3.95
-0.19
-1.17
1.81
-0.98
-2.03
-1.03
-0.13
2.77

> <PUBCHEM_SHAPE_SELFOVERLAP>
1021.639

> <PUBCHEM_SHAPE_VOLUME>
274.1

> <PUBCHEM_COORDINATE_TYPE>
2
5
10

$$$$

