16362
  -OEChem-07051212532D

 63 67  0     0  0  0  0  0  0999 V2000
    9.4312    5.5830    0.0000 F   0  0  0  0  0  0  0  0  0  0  0  0
   10.8600   -1.1963    0.0000 F   0  0  0  0  0  0  0  0  0  0  0  0
    6.2619   -4.1889    0.0000 O   0  0  0  0  0  0  0  0  0  0  0  0
    5.6103   -0.5326    0.0000 N   0  0  0  0  0  0  0  0  0  0  0  0
    4.6783   -3.3842    0.0000 N   0  0  0  0  0  0  0  0  0  0  0  0
    4.6783   -4.9936    0.0000 N   0  0  0  0  0  0  0  0  0  0  0  0
    4.9889   -2.4336    0.0000 C   0  0  0  0  0  0  0  0  0  0  0  0
    4.3211   -1.6893    0.0000 C   0  0  0  0  0  0  0  0  0  0  0  0
    5.9674   -2.2274    0.0000 C   0  0  0  0  0  0  0  0  0  0  0  0
    4.6318   -0.7388    0.0000 C   0  0  0  0  0  0  0  0  0  0  0  0
    6.2781   -1.2769    0.0000 C   0  0  0  0  0  0  0  0  0  0  0  0
    5.9209    0.4179    0.0000 C   0  0  0  0  0  0  0  0  0  0  0  0
    6.8994    0.6241    0.0000 C   0  0  0  0  0  0  0  0  0  0  0  0
    3.7320   -3.6889    0.0000 C   0  0  0  0  0  0  0  0  0  0  0  0
    7.2101    1.5747    0.0000 C   0  0  0  0  0  0  0  0  0  0  0  0
    5.2619   -4.1889    0.0000 C   0  0  0  0  0  0  0  0  0  0  0  0
    8.1886    1.7809    0.0000 C   0  0  0  0  0  0  0  0  0  0  0  0
    3.7320   -4.6889    0.0000 C   0  0  0  0  0  0  0  0  0  0  0  0
    2.8660   -3.1889    0.0000 C   0  0  0  0  0  0  0  0  0  0  0  0
    8.4993    2.7314    0.0000 C   0  0  0  0  0  0  0  0  0  0  0  0
    8.8564    1.0366    0.0000 C   0  0  0  0  0  0  0  0  0  0  0  0
    2.8660   -5.1889    0.0000 C   0  0  0  0  0  0  0  0  0  0  0  0
    2.0000   -3.6889    0.0000 C   0  0  0  0  0  0  0  0  0  0  0  0
    2.0000   -4.6889    0.0000 C   0  0  0  0  0  0  0  0  0  0  0  0
    8.5458    0.0861    0.0000 C   0  0  0  0  0  0  0  0  0  0  0  0
    9.4778    2.9376    0.0000 C   0  0  0  0  0  0  0  0  0  0  0  0
    9.8349    1.2428    0.0000 C   0  0  0  0  0  0  0  0  0  0  0  0
    7.8314    3.4757    0.0000 C   0  0  0  0  0  0  0  0  0  0  0  0
    9.2136   -0.6583    0.0000 C   0  0  0  0  0  0  0  0  0  0  0  0
    9.7884    3.8881    0.0000 C   0  0  0  0  0  0  0  0  0  0  0  0
    8.1421    4.4262    0.0000 C   0  0  0  0  0  0  0  0  0  0  0  0
   10.5028    0.4985    0.0000 C   0  0  0  0  0  0  0  0  0  0  0  0
   10.1921   -0.4520    0.0000 C   0  0  0  0  0  0  0  0  0  0  0  0
    9.1206    4.6324    0.0000 C   0  0  0  0  0  0  0  0  0  0  0  0
    5.4030   -2.8951    0.0000 H   0  0  0  0  0  0  0  0  0  0  0  0
    3.7742   -1.3973    0.0000 H   0  0  0  0  0  0  0  0  0  0  0  0
    3.9385   -2.1772    0.0000 H   0  0  0  0  0  0  0  0  0  0  0  0
    5.9880   -2.8471    0.0000 H   0  0  0  0  0  0  0  0  0  0  0  0
    6.5812   -2.3148    0.0000 H   0  0  0  0  0  0  0  0  0  0  0  0
    6.8250   -1.5689    0.0000 H   0  0  0  0  0  0  0  0  0  0  0  0
    6.6607   -0.7890    0.0000 H   0  0  0  0  0  0  0  0  0  0  0  0
    4.6112   -0.1192    0.0000 H   0  0  0  0  0  0  0  0  0  0  0  0
    4.0179   -0.6515    0.0000 H   0  0  0  0  0  0  0  0  0  0  0  0
    5.9004    1.0376    0.0000 H   0  0  0  0  0  0  0  0  0  0  0  0
    5.3071    0.5053    0.0000 H   0  0  0  0  0  0  0  0  0  0  0  0
    6.9200    0.0045    0.0000 H   0  0  0  0  0  0  0  0  0  0  0  0
    7.5132    0.5368    0.0000 H   0  0  0  0  0  0  0  0  0  0  0  0
    7.1895    2.1943    0.0000 H   0  0  0  0  0  0  0  0  0  0  0  0
    6.5963    1.6620    0.0000 H   0  0  0  0  0  0  0  0  0  0  0  0
    7.9960    1.1916    0.0000 H   0  0  0  0  0  0  0  0  0  0  0  0
    4.8709   -5.5830    0.0000 H   0  0  0  0  0  0  0  0  0  0  0  0
    2.8660   -2.5689    0.0000 H   0  0  0  0  0  0  0  0  0  0  0  0
    2.8660   -5.8089    0.0000 H   0  0  0  0  0  0  0  0  0  0  0  0
    1.4631   -3.3789    0.0000 H   0  0  0  0  0  0  0  0  0  0  0  0
    1.4631   -4.9989    0.0000 H   0  0  0  0  0  0  0  0  0  0  0  0
    7.9391   -0.0418    0.0000 H   0  0  0  0  0  0  0  0  0  0  0  0
    9.8918    2.4761    0.0000 H   0  0  0  0  0  0  0  0  0  0  0  0
   10.0276    1.8321    0.0000 H   0  0  0  0  0  0  0  0  0  0  0  0
    7.2247    3.3478    0.0000 H   0  0  0  0  0  0  0  0  0  0  0  0
    9.0210   -1.2476    0.0000 H   0  0  0  0  0  0  0  0  0  0  0  0
   10.3951    4.0160    0.0000 H   0  0  0  0  0  0  0  0  0  0  0  0
    7.7280    4.8877    0.0000 H   0  0  0  0  0  0  0  0  0  0  0  0
   11.1095    0.6263    0.0000 H   0  0  0  0  0  0  0  0  0  0  0  0
  1 34  1  0  0  0  0
  2 33  1  0  0  0  0
  3 16  2  0  0  0  0
  4 10  1  0  0  0  0
  4 11  1  0  0  0  0
  4 12  1  0  0  0  0
  5  7  1  0  0  0  0
  5 14  1  0  0  0  0
  5 16  1  0  0  0  0
  6 16  1  0  0  0  0
  6 18  1  0  0  0  0
  6 51  1  0  0  0  0
  7  8  1  0  0  0  0
  7  9  1  0  0  0  0
  7 35  1  0  0  0  0
  8 10  1  0  0  0  0
  8 36  1  0  0  0  0
  8 37  1  0  0  0  0
  9 11  1  0  0  0  0
  9 38  1  0  0  0  0
  9 39  1  0  0  0  0
 10 42  1  0  0  0  0
 10 43  1  0  0  0  0
 11 40  1  0  0  0  0
 11 41  1  0  0  0  0
 12 13  1  0  0  0  0
 12 44  1  0  0  0  0
 12 45  1  0  0  0  0
 13 15  1  0  0  0  0
 13 46  1  0  0  0  0
 13 47  1  0  0  0  0
 14 18  1  0  0  0  0
 14 19  2  0  0  0  0
 15 17  1  0  0  0  0
 15 48  1  0  0  0  0
 15 49  1  0  0  0  0
 17 20  1  0  0  0  0
 17 21  1  0  0  0  0
 17 50  1  0  0  0  0
 18 22  2  0  0  0  0
 19 23  1  0  0  0  0
 19 52  1  0  0  0  0
 20 26  2  0  0  0  0
 20 28  1  0  0  0  0
 21 25  2  0  0  0  0
 21 27  1  0  0  0  0
 22 24  1  0  0  0  0
 22 53  1  0  0  0  0
 23 24  2  0  0  0  0
 23 54  1  0  0  0  0
 24 55  1  0  0  0  0
 25 29  1  0  0  0  0
 25 56  1  0  0  0  0
 26 30  1  0  0  0  0
 26 57  1  0  0  0  0
 27 32  2  0  0  0  0
 27 58  1  0  0  0  0
 28 31  2  0  0  0  0
 28 59  1  0  0  0  0
 29 33  2  0  0  0  0
 29 60  1  0  0  0  0
 30 34  2  0  0  0  0
 30 61  1  0  0  0  0
 31 34  1  0  0  0  0
 31 62  1  0  0  0  0
 32 33  1  0  0  0  0
 32 63  1  0  0  0  0
M  END
> <PUBCHEM_COMPOUND_CID>
16362

> <PUBCHEM_COMPOUND_CANONICALIZED>
1

> <PUBCHEM_CACTVS_COMPLEXITY>
632

> <PUBCHEM_CACTVS_HBOND_ACCEPTOR>
4

> <PUBCHEM_CACTVS_HBOND_DONOR>
1

> <PUBCHEM_CACTVS_ROTATABLE_BOND>
7

> <PUBCHEM_CACTVS_SUBSKEYS>
AAADceB7IYAAAAAAAAAAAAAAAAAAAWAAAAA8YMEAAAAAAFgBUAAAHwAQAAAADSjBGAwxwIPAAACIAiRCUACCAAAhAgAIiAAIdIiIYCLA0ZGUIAholgLIyCcQgMAOgAAAAAAAACAAAAAAAAAAQAAAAAAAAA==

> <PUBCHEM_IUPAC_OPENEYE_NAME>
3-[1-[4,4-bis(4-fluorophenyl)butyl]-4-piperidyl]-1H-benzimidazol-2-one

> <PUBCHEM_IUPAC_CAS_NAME>
3-[1-[4,4-bis(4-fluorophenyl)butyl]-4-piperidinyl]-1H-benzimidazol-2-one

> <PUBCHEM_IUPAC_NAME>
3-[1-[4,4-bis(4-fluorophenyl)butyl]piperidin-4-yl]-1H-benzimidazol-2-one

> <PUBCHEM_IUPAC_SYSTEMATIC_NAME>
3-[1-[4,4-bis(4-fluorophenyl)butyl]piperidin-4-yl]-1H-benzimidazol-2-one

> <PUBCHEM_IUPAC_TRADITIONAL_NAME>
3-[1-[4,4-bis(4-fluorophenyl)butyl]-4-piperidyl]-1H-benzimidazol-2-one

> <PUBCHEM_IUPAC_INCHI>
InChI=1S/C28H29F2N3O/c29-22-11-7-20(8-12-22)25(21-9-13-23(30)14-10-21)4-3-17-32-18-15-24(16-19-32)33-27-6-2-1-5-26(27)31-28(33)34/h1-2,5-14,24-25H,3-4,15-19H2,(H,31,34)

> <PUBCHEM_IUPAC_INCHIKEY>
YVUQSNJEYSNKRX-UHFFFAOYSA-N

> <PUBCHEM_XLOGP3>
6.3

> <PUBCHEM_EXACT_MASS>
461.227869

> <PUBCHEM_MOLECULAR_FORMULA>
C28H29F2N3O

> <PUBCHEM_MOLECULAR_WEIGHT>
461.546166

> <PUBCHEM_OPENEYE_CAN_SMILES>
C1CN(CCC1N2C3=CC=CC=C3NC2=O)CCCC(C4=CC=C(C=C4)F)C5=CC=C(C=C5)F

> <PUBCHEM_OPENEYE_ISO_SMILES>
C1CN(CCC1N2C3=CC=CC=C3NC2=O)CCCC(C4=CC=C(C=C4)F)C5=CC=C(C=C5)F

> <PUBCHEM_CACTVS_TPSA>
35.6

> <PUBCHEM_MONOISOTOPIC_WEIGHT>
461.227869

> <PUBCHEM_TOTAL_CHARGE>
0

> <PUBCHEM_HEAVY_ATOM_COUNT>
34

> <PUBCHEM_ATOM_DEF_STEREO_COUNT>
0

> <PUBCHEM_ATOM_UDEF_STEREO_COUNT>
0

> <PUBCHEM_BOND_DEF_STEREO_COUNT>
0

> <PUBCHEM_BOND_UDEF_STEREO_COUNT>
0

> <PUBCHEM_ISOTOPIC_ATOM_COUNT>
0

> <PUBCHEM_COMPONENT_COUNT>
1

> <PUBCHEM_CACTVS_TAUTO_COUNT>
2

> <PUBCHEM_COORDINATE_TYPE>
1
5
255

> <PUBCHEM_BONDANNOTATIONS>
14  18  8
14  19  8
18  22  8
19  23  8
20  26  8
20  28  8
21  25  8
21  27  8
22  24  8
23  24  8
25  29  8
26  30  8
27  32  8
28  31  8
29  33  8
30  34  8
31  34  8
32  33  8
5  14  8
5  16  8
6  16  8
6  18  8

$$$$

