9549
  -OEChem-06261203482D

 37 36  0     0  0  0  0  0  0999 V2000
    2.5369    0.3450    0.0000 S   0  0  0  0  0  0  0  0  0  0  0  0
   13.7953   -0.1550    0.0000 F   0  0  0  0  0  0  0  0  0  0  0  0
    8.5991   -0.1550    0.0000 C   0  0  0  0  0  0  0  0  0  0  0  0
    7.7331   -0.6550    0.0000 C   0  0  0  0  0  0  0  0  0  0  0  0
    9.4651   -0.6550    0.0000 C   0  0  0  0  0  0  0  0  0  0  0  0
    6.8671   -0.1550    0.0000 C   0  0  0  0  0  0  0  0  0  0  0  0
   10.3312   -0.1550    0.0000 C   0  0  0  0  0  0  0  0  0  0  0  0
    6.0010   -0.6550    0.0000 C   0  0  0  0  0  0  0  0  0  0  0  0
   11.1972   -0.6550    0.0000 C   0  0  0  0  0  0  0  0  0  0  0  0
    5.1350   -0.1550    0.0000 C   0  0  0  0  0  0  0  0  0  0  0  0
   12.0632   -0.1550    0.0000 C   0  0  0  0  0  0  0  0  0  0  0  0
    4.2690   -0.6550    0.0000 C   0  0  0  0  0  0  0  0  0  0  0  0
   12.9292   -0.6550    0.0000 C   0  0  0  0  0  0  0  0  0  0  0  0
    3.4030   -0.1550    0.0000 C   0  0  0  0  0  0  0  0  0  0  0  0
    8.9976    0.3199    0.0000 H   0  0  0  0  0  0  0  0  0  0  0  0
    8.2006    0.3199    0.0000 H   0  0  0  0  0  0  0  0  0  0  0  0
    7.3346   -1.1299    0.0000 H   0  0  0  0  0  0  0  0  0  0  0  0
    8.1316   -1.1299    0.0000 H   0  0  0  0  0  0  0  0  0  0  0  0
    9.0666   -1.1299    0.0000 H   0  0  0  0  0  0  0  0  0  0  0  0
    9.8637   -1.1299    0.0000 H   0  0  0  0  0  0  0  0  0  0  0  0
    7.2656    0.3199    0.0000 H   0  0  0  0  0  0  0  0  0  0  0  0
    6.4685    0.3199    0.0000 H   0  0  0  0  0  0  0  0  0  0  0  0
   10.7297    0.3199    0.0000 H   0  0  0  0  0  0  0  0  0  0  0  0
    9.9326    0.3199    0.0000 H   0  0  0  0  0  0  0  0  0  0  0  0
    5.6025   -1.1299    0.0000 H   0  0  0  0  0  0  0  0  0  0  0  0
    6.3996   -1.1299    0.0000 H   0  0  0  0  0  0  0  0  0  0  0  0
   10.7987   -1.1299    0.0000 H   0  0  0  0  0  0  0  0  0  0  0  0
   11.5957   -1.1299    0.0000 H   0  0  0  0  0  0  0  0  0  0  0  0
    5.5335    0.3199    0.0000 H   0  0  0  0  0  0  0  0  0  0  0  0
    4.7365    0.3199    0.0000 H   0  0  0  0  0  0  0  0  0  0  0  0
   12.4617    0.3199    0.0000 H   0  0  0  0  0  0  0  0  0  0  0  0
   11.6647    0.3199    0.0000 H   0  0  0  0  0  0  0  0  0  0  0  0
    3.8705   -1.1299    0.0000 H   0  0  0  0  0  0  0  0  0  0  0  0
    4.6675   -1.1299    0.0000 H   0  0  0  0  0  0  0  0  0  0  0  0
   12.5307   -1.1299    0.0000 H   0  0  0  0  0  0  0  0  0  0  0  0
   13.3278   -1.1299    0.0000 H   0  0  0  0  0  0  0  0  0  0  0  0
    2.0000    0.6550    0.0000 H   0  0  0  0  0  0  0  0  0  0  0  0
  1 14  3  0  0  0  0
  1 37  1  0  0  0  0
  2 13  1  0  0  0  0
  3  4  1  0  0  0  0
  3  5  1  0  0  0  0
  3 15  1  0  0  0  0
  3 16  1  0  0  0  0
  4  6  1  0  0  0  0
  4 17  1  0  0  0  0
  4 18  1  0  0  0  0
  5  7  1  0  0  0  0
  5 19  1  0  0  0  0
  5 20  1  0  0  0  0
  6  8  1  0  0  0  0
  6 21  1  0  0  0  0
  6 22  1  0  0  0  0
  7  9  1  0  0  0  0
  7 23  1  0  0  0  0
  7 24  1  0  0  0  0
  8 10  1  0  0  0  0
  8 25  1  0  0  0  0
  8 26  1  0  0  0  0
  9 11  1  0  0  0  0
  9 27  1  0  0  0  0
  9 28  1  0  0  0  0
 10 12  1  0  0  0  0
 10 29  1  0  0  0  0
 10 30  1  0  0  0  0
 11 13  1  0  0  0  0
 11 31  1  0  0  0  0
 11 32  1  0  0  0  0
 12 14  1  0  0  0  0
 12 33  1  0  0  0  0
 12 34  1  0  0  0  0
 13 35  1  0  0  0  0
 13 36  1  0  0  0  0
M  END
> <PUBCHEM_COMPOUND_CID>
9549

> <PUBCHEM_COMPOUND_CANONICALIZED>
1

> <PUBCHEM_CACTVS_COMPLEXITY>
148

> <PUBCHEM_CACTVS_HBOND_ACCEPTOR>
2

> <PUBCHEM_CACTVS_HBOND_DONOR>
1

> <PUBCHEM_CACTVS_ROTATABLE_BOND>
10

> <PUBCHEM_CACTVS_SUBSKEYS>
AAADceBwAQBAAAAAAAAAAAAAAAAAAAAAAAAAAAAAAAAAAAAAAAAAGQQAAAAACACAQAAAAAAAAAQAAAAAAAAAAAAAAAAAAAAAAAAAAAIAAAAAAAAAAAAAAAEAgIAAAAAAAAAAAAAAAAAAAAAAAAAAAAAAAA==

> <PUBCHEM_IUPAC_OPENEYE_NAME>
12-fluorododecylidyne-$l^{4}-sulfane

> <PUBCHEM_IUPAC_CAS_NAME>
12-fluorododecylidyne-$l^{4}-sulfane

> <PUBCHEM_IUPAC_NAME>
12-fluorododecylidyne-$l^{4}-sulfane

> <PUBCHEM_IUPAC_SYSTEMATIC_NAME>
12-fluoranyldodecylidyne-$l^{4}-sulfane

> <PUBCHEM_IUPAC_TRADITIONAL_NAME>
12-fluorododecylidynesulfurane

> <PUBCHEM_IUPAC_INCHI>
InChI=1S/C12H23FS/c13-11-9-7-5-3-1-2-4-6-8-10-12-14/h14H,1-11H2

> <PUBCHEM_IUPAC_INCHIKEY>
WCXRTYDGWMICIF-UHFFFAOYSA-N

> <PUBCHEM_XLOGP3_AA>
5.7

> <PUBCHEM_EXACT_MASS>
218.15045

> <PUBCHEM_MOLECULAR_FORMULA>
C12H23FS

> <PUBCHEM_MOLECULAR_WEIGHT>
218.374423

> <PUBCHEM_OPENEYE_CAN_SMILES>
C(CCCCCC#S)CCCCCF

> <PUBCHEM_OPENEYE_ISO_SMILES>
C(CCCCCC#S)CCCCCF

> <PUBCHEM_CACTVS_TPSA>
1

> <PUBCHEM_MONOISOTOPIC_WEIGHT>
218.15045

> <PUBCHEM_TOTAL_CHARGE>
0

> <PUBCHEM_HEAVY_ATOM_COUNT>
14

> <PUBCHEM_ATOM_DEF_STEREO_COUNT>
0

> <PUBCHEM_ATOM_UDEF_STEREO_COUNT>
0

> <PUBCHEM_BOND_DEF_STEREO_COUNT>
0

> <PUBCHEM_BOND_UDEF_STEREO_COUNT>
0

> <PUBCHEM_ISOTOPIC_ATOM_COUNT>
0

> <PUBCHEM_COMPONENT_COUNT>
1

> <PUBCHEM_CACTVS_TAUTO_COUNT>
1

> <PUBCHEM_COORDINATE_TYPE>
1
5
255

$$$$

