35702
  -OEChem-07051213142D

 29 32  0     0  0  0  0  0  0999 V2000
    4.5405   -0.9279    0.0000 C   0  0  0  0  0  0  0  0  0  0  0  0
    3.7315   -0.3401    0.0000 C   0  0  0  0  0  0  0  0  0  0  0  0
    5.3496   -0.3401    0.0000 C   0  0  0  0  0  0  0  0  0  0  0  0
    4.0405    0.6110    0.0000 C   0  0  0  0  0  0  0  0  0  0  0  0
    5.0405    0.6110    0.0000 C   0  0  0  0  0  0  0  0  0  0  0  0
    4.6334   -1.9653    0.0000 C   0  0  0  0  0  0  0  0  0  0  0  0
    2.8752   -0.8710    0.0000 C   0  0  0  0  0  0  0  0  0  0  0  0
    2.8744   -1.8786    0.0000 C   0  0  0  0  0  0  0  0  0  0  0  0
    3.7298   -2.4110    0.0000 C   0  0  0  0  0  0  0  0  0  0  0  0
    6.3076   -0.7490    0.0000 C   0  0  0  0  0  0  0  0  0  0  0  0
    5.5817   -2.3963    0.0000 C   0  0  0  0  0  0  0  0  0  0  0  0
    3.5059    1.5049    0.0000 C   0  0  0  0  0  0  0  0  0  0  0  0
    5.5752    1.5049    0.0000 C   0  0  0  0  0  0  0  0  0  0  0  0
    6.4244   -1.7841    0.0000 C   0  0  0  0  0  0  0  0  0  0  0  0
    4.0197    2.4110    0.0000 C   0  0  0  0  0  0  0  0  0  0  0  0
    5.0614    2.4110    0.0000 C   0  0  0  0  0  0  0  0  0  0  0  0
    2.0000   -2.3638    0.0000 C   0  0  0  0  0  0  0  0  0  0  0  0
    2.3336   -0.5693    0.0000 H   0  0  0  0  0  0  0  0  0  0  0  0
    3.6993   -3.0302    0.0000 H   0  0  0  0  0  0  0  0  0  0  0  0
    6.8049   -0.3788    0.0000 H   0  0  0  0  0  0  0  0  0  0  0  0
    5.6441   -3.0132    0.0000 H   0  0  0  0  0  0  0  0  0  0  0  0
    2.8859    1.4978    0.0000 H   0  0  0  0  0  0  0  0  0  0  0  0
    6.1952    1.4978    0.0000 H   0  0  0  0  0  0  0  0  0  0  0  0
    6.9918   -2.0341    0.0000 H   0  0  0  0  0  0  0  0  0  0  0  0
    3.7076    2.9467    0.0000 H   0  0  0  0  0  0  0  0  0  0  0  0
    5.3734    2.9467    0.0000 H   0  0  0  0  0  0  0  0  0  0  0  0
    1.6992   -1.8217    0.0000 H   0  0  0  0  0  0  0  0  0  0  0  0
    1.4579   -2.6647    0.0000 H   0  0  0  0  0  0  0  0  0  0  0  0
    2.3008   -2.9059    0.0000 H   0  0  0  0  0  0  0  0  0  0  0  0
  1  2  1  0  0  0  0
  1  3  1  0  0  0  0
  1  6  2  0  0  0  0
  2  4  1  0  0  0  0
  2  7  2  0  0  0  0
  3  5  1  0  0  0  0
  3 10  2  0  0  0  0
  4  5  1  0  0  0  0
  4 12  2  0  0  0  0
  5 13  2  0  0  0  0
  6  9  1  0  0  0  0
  6 11  1  0  0  0  0
  7  8  1  0  0  0  0
  7 18  1  0  0  0  0
  8  9  2  0  0  0  0
  8 17  1  0  0  0  0
  9 19  1  0  0  0  0
 10 14  1  0  0  0  0
 10 20  1  0  0  0  0
 11 14  2  0  0  0  0
 11 21  1  0  0  0  0
 12 15  1  0  0  0  0
 12 22  1  0  0  0  0
 13 16  1  0  0  0  0
 13 23  1  0  0  0  0
 14 24  1  0  0  0  0
 15 16  2  0  0  0  0
 15 25  1  0  0  0  0
 16 26  1  0  0  0  0
 17 27  1  0  0  0  0
 17 28  1  0  0  0  0
 17 29  1  0  0  0  0
M  END
> <PUBCHEM_COMPOUND_CID>
35702

> <PUBCHEM_COMPOUND_CANONICALIZED>
1

> <PUBCHEM_CACTVS_COMPLEXITY>
294

> <PUBCHEM_CACTVS_HBOND_ACCEPTOR>
0

> <PUBCHEM_CACTVS_HBOND_DONOR>
0

> <PUBCHEM_CACTVS_ROTATABLE_BOND>
0

> <PUBCHEM_CACTVS_SUBSKEYS>
AAADccB4AAAAAAAAAAAAAAAAAAAAAYAAAAAwYMAAAAAAAGDBVAAAGAAAAAAADACAGAAyAMAAAACAAiBCAAACAAAgAAAIiAAAAIgIICKAERCAIAAggAAIiAcAgMAOwAACAAAQAACAAAQAACAAAQAACAAAAA==

> <PUBCHEM_IUPAC_OPENEYE_NAME>
2-methylfluoranthene

> <PUBCHEM_IUPAC_CAS_NAME>
2-methylfluoranthene

> <PUBCHEM_IUPAC_NAME>
2-methylfluoranthene

> <PUBCHEM_IUPAC_SYSTEMATIC_NAME>
2-methylfluoranthene

> <PUBCHEM_IUPAC_TRADITIONAL_NAME>
2-methylfluoranthene

> <PUBCHEM_IUPAC_INCHI>
InChI=1S/C17H12/c1-11-9-12-5-4-8-15-13-6-2-3-7-14(13)16(10-11)17(12)15/h2-10H,1H3

> <PUBCHEM_IUPAC_INCHIKEY>
VVRCMNWZFPMXQZ-UHFFFAOYSA-N

> <PUBCHEM_XLOGP3>
5.5

> <PUBCHEM_EXACT_MASS>
216.0939

> <PUBCHEM_MOLECULAR_FORMULA>
C17H12

> <PUBCHEM_MOLECULAR_WEIGHT>
216.27718

> <PUBCHEM_OPENEYE_CAN_SMILES>
CC1=CC2=C3C(=C1)C=CC=C3C4=CC=CC=C42

> <PUBCHEM_OPENEYE_ISO_SMILES>
CC1=CC2=C3C(=C1)C=CC=C3C4=CC=CC=C42

> <PUBCHEM_CACTVS_TPSA>
0

> <PUBCHEM_MONOISOTOPIC_WEIGHT>
216.0939

> <PUBCHEM_TOTAL_CHARGE>
0

> <PUBCHEM_HEAVY_ATOM_COUNT>
17

> <PUBCHEM_ATOM_DEF_STEREO_COUNT>
0

> <PUBCHEM_ATOM_UDEF_STEREO_COUNT>
0

> <PUBCHEM_BOND_DEF_STEREO_COUNT>
0

> <PUBCHEM_BOND_UDEF_STEREO_COUNT>
0

> <PUBCHEM_ISOTOPIC_ATOM_COUNT>
0

> <PUBCHEM_COMPONENT_COUNT>
1

> <PUBCHEM_CACTVS_TAUTO_COUNT>
1

> <PUBCHEM_COORDINATE_TYPE>
1
5
255

> <PUBCHEM_BONDANNOTATIONS>
1  2  8
1  3  8
1  6  8
10  14  8
11  14  8
12  15  8
13  16  8
15  16  8
2  7  8
3  10  8
4  12  8
4  5  8
5  13  8
6  11  8
6  9  8
7  8  8
8  9  8

$$$$

