5282340
  -OEChem-07051213042D

 61 64  0     1  0  0  0  0  0999 V2000
    3.4159   -2.1033    0.0000 Cl  0  0  0  0  0  0  0  0  0  0  0  0
    5.6480    0.4356    0.0000 S   0  0  0  0  0  0  0  0  0  0  0  0
    4.1048    5.6033    0.0000 F   0  0  0  0  0  0  0  0  0  0  0  0
    5.1480   -5.1033    0.0000 O   0  0  0  0  0  0  0  0  0  0  0  0
    4.0602    1.2446    0.0000 N   0  0  0  0  0  0  0  0  0  0  0  0
    4.3389   -0.5155    0.0000 N   0  0  0  0  0  0  0  0  0  0  0  0
    5.8682    3.1762    0.0000 C   0  0  0  0  0  0  0  0  0  0  0  0
    6.6772    3.7640    0.0000 C   0  0  0  0  0  0  0  0  0  0  0  0
    5.7636    4.1707    0.0000 C   0  0  0  0  0  0  0  0  0  0  0  0
    5.4614    2.2627    0.0000 C   0  0  0  0  0  0  0  0  0  0  0  0
    4.4669    2.1581    0.0000 C   0  0  1  0  0  0  0  0  0  0  0  0
    3.8791    2.9672    0.0000 C   0  0  0  0  0  0  0  0  0  0  0  0
    3.0657    1.1401    0.0000 C   0  0  0  0  0  0  0  0  0  0  0  0
    4.6480    0.4356    0.0000 C   0  0  0  0  0  0  0  0  0  0  0  0
    4.2859    3.8807    0.0000 C   0  0  0  0  0  0  0  0  0  0  0  0
    2.8846    2.8626    0.0000 C   0  0  0  0  0  0  0  0  0  0  0  0
    3.6981    4.6897    0.0000 C   0  0  0  0  0  0  0  0  0  0  0  0
    2.2968    3.6716    0.0000 C   0  0  0  0  0  0  0  0  0  0  0  0
    2.7036    4.5852    0.0000 C   0  0  0  0  0  0  0  0  0  0  0  0
    2.6589    0.2265    0.0000 C   0  0  0  0  0  0  0  0  0  0  0  0
    5.1480   -1.1033    0.0000 C   0  0  0  0  0  0  0  0  0  0  0  0
    5.9570   -0.5155    0.0000 C   0  0  0  0  0  0  0  0  0  0  0  0
    2.1158    5.3942    0.0000 C   0  0  0  0  0  0  0  0  0  0  0  0
    5.1480   -2.1033    0.0000 C   0  0  0  0  0  0  0  0  0  0  0  0
    6.9080   -0.8245    0.0000 C   0  0  0  0  0  0  0  0  0  0  0  0
    2.2522   -0.6870    0.0000 C   0  0  0  0  0  0  0  0  0  0  0  0
    6.0140   -2.6033    0.0000 C   0  0  0  0  0  0  0  0  0  0  0  0
    4.2819   -2.6033    0.0000 C   0  0  0  0  0  0  0  0  0  0  0  0
    6.0140   -3.6033    0.0000 C   0  0  0  0  0  0  0  0  0  0  0  0
    4.2819   -3.6033    0.0000 C   0  0  0  0  0  0  0  0  0  0  0  0
    5.1480   -4.1033    0.0000 C   0  0  0  0  0  0  0  0  0  0  0  0
    6.8800   -4.1033    0.0000 C   0  0  0  0  0  0  0  0  0  0  0  0
    4.2819   -5.6033    0.0000 C   0  0  0  0  0  0  0  0  0  0  0  0
    5.2558    3.2732    0.0000 H   0  0  0  0  0  0  0  0  0  0  0  0
    5.9136    4.7723    0.0000 H   0  0  0  0  0  0  0  0  0  0  0  0
    5.1452    4.2140    0.0000 H   0  0  0  0  0  0  0  0  0  0  0  0
    7.1232    3.3333    0.0000 H   0  0  0  0  0  0  0  0  0  0  0  0
    7.0239    4.2780    0.0000 H   0  0  0  0  0  0  0  0  0  0  0  0
    5.4182    1.6442    0.0000 H   0  0  0  0  0  0  0  0  0  0  0  0
    6.0630    2.1127    0.0000 H   0  0  0  0  0  0  0  0  0  0  0  0
    3.8503    2.0933    0.0000 H   0  0  0  0  0  0  0  0  0  0  0  0
    3.1089    1.7586    0.0000 H   0  0  0  0  0  0  0  0  0  0  0  0
    2.4641    1.2901    0.0000 H   0  0  0  0  0  0  0  0  0  0  0  0
    4.9025    3.9455    0.0000 H   0  0  0  0  0  0  0  0  0  0  0  0
    2.6324    2.2962    0.0000 H   0  0  0  0  0  0  0  0  0  0  0  0
    1.6802    3.6068    0.0000 H   0  0  0  0  0  0  0  0  0  0  0  0
    2.6174    5.7586    0.0000 H   0  0  0  0  0  0  0  0  0  0  0  0
    1.7513    5.8958    0.0000 H   0  0  0  0  0  0  0  0  0  0  0  0
    1.6142    5.0298    0.0000 H   0  0  0  0  0  0  0  0  0  0  0  0
    6.7164   -1.4142    0.0000 H   0  0  0  0  0  0  0  0  0  0  0  0
    7.4977   -1.0161    0.0000 H   0  0  0  0  0  0  0  0  0  0  0  0
    7.0996   -0.2348    0.0000 H   0  0  0  0  0  0  0  0  0  0  0  0
    2.0000   -1.2534    0.0000 H   0  0  0  0  0  0  0  0  0  0  0  0
    6.5509   -2.2933    0.0000 H   0  0  0  0  0  0  0  0  0  0  0  0
    3.7450   -3.9133    0.0000 H   0  0  0  0  0  0  0  0  0  0  0  0
    6.5700   -4.6402    0.0000 H   0  0  0  0  0  0  0  0  0  0  0  0
    7.4169   -4.4133    0.0000 H   0  0  0  0  0  0  0  0  0  0  0  0
    7.1900   -3.5663    0.0000 H   0  0  0  0  0  0  0  0  0  0  0  0
    3.9719   -5.0663    0.0000 H   0  0  0  0  0  0  0  0  0  0  0  0
    3.7450   -5.9133    0.0000 H   0  0  0  0  0  0  0  0  0  0  0  0
    4.5919   -6.1402    0.0000 H   0  0  0  0  0  0  0  0  0  0  0  0
  1 28  1  0  0  0  0
  2 14  1  0  0  0  0
  2 22  1  0  0  0  0
  3 17  1  0  0  0  0
  4 31  1  0  0  0  0
  4 33  1  0  0  0  0
 11  5  1  6  0  0  0
  5 13  1  0  0  0  0
  5 14  1  0  0  0  0
  6 14  2  0  0  0  0
  6 21  1  0  0  0  0
  7  8  1  0  0  0  0
  7  9  1  0  0  0  0
  7 10  1  0  0  0  0
  7 34  1  0  0  0  0
  8  9  1  0  0  0  0
  8 37  1  0  0  0  0
  8 38  1  0  0  0  0
  9 35  1  0  0  0  0
  9 36  1  0  0  0  0
 10 11  1  0  0  0  0
 10 39  1  0  0  0  0
 10 40  1  0  0  0  0
 11 12  1  0  0  0  0
 11 41  1  0  0  0  0
 12 15  2  0  0  0  0
 12 16  1  0  0  0  0
 13 20  1  0  0  0  0
 13 42  1  0  0  0  0
 13 43  1  0  0  0  0
 15 17  1  0  0  0  0
 15 44  1  0  0  0  0
 16 18  2  0  0  0  0
 16 45  1  0  0  0  0
 17 19  2  0  0  0  0
 18 19  1  0  0  0  0
 18 46  1  0  0  0  0
 19 23  1  0  0  0  0
 20 26  3  0  0  0  0
 21 22  2  0  0  0  0
 21 24  1  0  0  0  0
 22 25  1  0  0  0  0
 23 47  1  0  0  0  0
 23 48  1  0  0  0  0
 23 49  1  0  0  0  0
 24 27  1  0  0  0  0
 24 28  2  0  0  0  0
 25 50  1  0  0  0  0
 25 51  1  0  0  0  0
 25 52  1  0  0  0  0
 26 53  1  0  0  0  0
 27 29  2  0  0  0  0
 27 54  1  0  0  0  0
 28 30  1  0  0  0  0
 29 31  1  0  0  0  0
 29 32  1  0  0  0  0
 30 31  2  0  0  0  0
 30 55  1  0  0  0  0
 32 56  1  0  0  0  0
 32 57  1  0  0  0  0
 32 58  1  0  0  0  0
 33 59  1  0  0  0  0
 33 60  1  0  0  0  0
 33 61  1  0  0  0  0
M  END
> <PUBCHEM_COMPOUND_CID>
5282340

> <PUBCHEM_COMPOUND_CANONICALIZED>
1

> <PUBCHEM_CACTVS_COMPLEXITY>
699

> <PUBCHEM_CACTVS_HBOND_ACCEPTOR>
5

> <PUBCHEM_CACTVS_HBOND_DONOR>
0

> <PUBCHEM_CACTVS_ROTATABLE_BOND>
8

> <PUBCHEM_CACTVS_SUBSKEYS>
AAADceB7IQBEAAAAAAAAAAAAGAAAAWAAAAAwYAAAAAAAAAAB0AAAHwYAAAAADS7B3i4zl5MIFAjkGyRiZACC+KlhLTgJmDQuTpiMJqLluxuEMChswBPIqCeQ0OMOZAACAQAJAADIAAQCABIAAAAAAAAAAA==

> <PUBCHEM_IUPAC_OPENEYE_NAME>
4-(2-chloro-4-methoxy-5-methyl-phenyl)-N-[(1S)-2-cyclopropyl-1-(3-fluoro-4-methyl-phenyl)ethyl]-5-methyl-N-prop-2-ynyl-thiazol-2-amine

> <PUBCHEM_IUPAC_CAS_NAME>
4-(2-chloro-4-methoxy-5-methylphenyl)-N-[(1S)-2-cyclopropyl-1-(3-fluoro-4-methylphenyl)ethyl]-5-methyl-N-prop-2-ynyl-2-thiazolamine

> <PUBCHEM_IUPAC_NAME>
4-(2-chloro-4-methoxy-5-methylphenyl)-N-[(1S)-2-cyclopropyl-1-(3-fluoro-4-methylphenyl)ethyl]-5-methyl-N-prop-2-ynyl-1,3-thiazol-2-amine

> <PUBCHEM_IUPAC_SYSTEMATIC_NAME>
4-(2-chloranyl-4-methoxy-5-methyl-phenyl)-N-[(1S)-2-cyclopropyl-1-(3-fluoranyl-4-methyl-phenyl)ethyl]-5-methyl-N-prop-2-ynyl-1,3-thiazol-2-amine

> <PUBCHEM_IUPAC_TRADITIONAL_NAME>
[4-(2-chloro-4-methoxy-5-methyl-phenyl)-5-methyl-thiazol-2-yl]-[(1S)-2-cyclopropyl-1-(3-fluoro-4-methyl-phenyl)ethyl]-propargyl-amine

> <PUBCHEM_IUPAC_INCHI>
InChI=1S/C27H28ClFN2OS/c1-6-11-31(24(13-19-8-9-19)20-10-7-16(2)23(29)14-20)27-30-26(18(4)33-27)21-12-17(3)25(32-5)15-22(21)28/h1,7,10,12,14-15,19,24H,8-9,11,13H2,2-5H3/t24-/m0/s1

> <PUBCHEM_IUPAC_INCHIKEY>
IEAKXXNRGSLYTQ-DEOSSOPVSA-N

> <PUBCHEM_XLOGP3_AA>
8

> <PUBCHEM_EXACT_MASS>
482.15949

> <PUBCHEM_MOLECULAR_FORMULA>
C27H28ClFN2OS

> <PUBCHEM_MOLECULAR_WEIGHT>
483.040423

> <PUBCHEM_OPENEYE_CAN_SMILES>
CC1=C(C=C(C=C1)C(CC2CC2)N(CC#C)C3=NC(=C(S3)C)C4=CC(=C(C=C4Cl)OC)C)F

> <PUBCHEM_OPENEYE_ISO_SMILES>
CC1=C(C=C(C=C1)[C@H](CC2CC2)N(CC#C)C3=NC(=C(S3)C)C4=CC(=C(C=C4Cl)OC)C)F

> <PUBCHEM_CACTVS_TPSA>
53.6

> <PUBCHEM_MONOISOTOPIC_WEIGHT>
482.15949

> <PUBCHEM_TOTAL_CHARGE>
0

> <PUBCHEM_HEAVY_ATOM_COUNT>
33

> <PUBCHEM_ATOM_DEF_STEREO_COUNT>
1

> <PUBCHEM_ATOM_UDEF_STEREO_COUNT>
0

> <PUBCHEM_BOND_DEF_STEREO_COUNT>
0

> <PUBCHEM_BOND_UDEF_STEREO_COUNT>
0

> <PUBCHEM_ISOTOPIC_ATOM_COUNT>
0

> <PUBCHEM_COMPONENT_COUNT>
1

> <PUBCHEM_CACTVS_TAUTO_COUNT>
1

> <PUBCHEM_COORDINATE_TYPE>
1
5
255

> <PUBCHEM_BONDANNOTATIONS>
12  15  8
12  16  8
15  17  8
16  18  8
17  19  8
18  19  8
2  14  8
2  22  8
21  22  8
24  27  8
24  28  8
27  29  8
28  30  8
29  31  8
30  31  8
11  5  6
6  14  8
6  21  8

$$$$

