441341
  -OEChem-07051212543D

 26 26  0     1  0  0  0  0  0999 V2000
   -1.4771   -0.4409   -2.0285 O   0  0  0  0  0  0  0  0  0  0  0  0
    1.3556    1.9966    0.2076 O   0  0  0  0  0  0  0  0  0  0  0  0
   -0.4371   -0.0077    0.0386 N   0  0  0  0  0  0  0  0  0  0  0  0
    3.0873    0.7099   -0.5796 N   0  0  0  0  0  0  0  0  0  0  0  0
   -0.8591    0.3495    1.3722 C   0  0  0  0  0  0  0  0  0  0  0  0
    0.9372   -0.3522   -0.2549 C   0  0  2  0  0  0  0  0  0  0  0  0
   -2.2279    0.9601    1.1479 C   0  0  0  0  0  0  0  0  0  0  0  0
   -2.7564    0.2320   -0.0822 C   0  0  0  0  0  0  0  0  0  0  0  0
   -1.5020   -0.1049   -0.8539 C   0  0  0  0  0  0  0  0  0  0  0  0
    1.4508   -1.4810    0.6444 C   0  0  0  0  0  0  0  0  0  0  0  0
    1.7873    0.9083   -0.1655 C   0  0  0  0  0  0  0  0  0  0  0  0
    0.6414   -2.7697    0.5539 C   0  0  0  0  0  0  0  0  0  0  0  0
    0.9820   -0.6879   -1.2992 H   0  0  0  0  0  0  0  0  0  0  0  0
   -0.1756    1.0472    1.8602 H   0  0  0  0  0  0  0  0  0  0  0  0
   -0.9364   -0.5612    1.9746 H   0  0  0  0  0  0  0  0  0  0  0  0
   -2.1238    2.0287    0.9209 H   0  0  0  0  0  0  0  0  0  0  0  0
   -2.8855    0.8633    2.0162 H   0  0  0  0  0  0  0  0  0  0  0  0
   -3.4237    0.8632   -0.6737 H   0  0  0  0  0  0  0  0  0  0  0  0
   -3.2618   -0.6997    0.1907 H   0  0  0  0  0  0  0  0  0  0  0  0
    1.4783   -1.1513    1.6906 H   0  0  0  0  0  0  0  0  0  0  0  0
    2.4886   -1.7208    0.3839 H   0  0  0  0  0  0  0  0  0  0  0  0
   -0.3872   -2.6319    0.8984 H   0  0  0  0  0  0  0  0  0  0  0  0
    0.6120   -3.1373   -0.4768 H   0  0  0  0  0  0  0  0  0  0  0  0
    1.0997   -3.5450    1.1765 H   0  0  0  0  0  0  0  0  0  0  0  0
    3.4229   -0.1833   -0.9247 H   0  0  0  0  0  0  0  0  0  0  0  0
    3.7560    1.4731   -0.5740 H   0  0  0  0  0  0  0  0  0  0  0  0
  1  9  2  0  0  0  0
  2 11  2  0  0  0  0
  3  5  1  0  0  0  0
  3  6  1  0  0  0  0
  3  9  1  0  0  0  0
  4 11  1  0  0  0  0
  4 25  1  0  0  0  0
  4 26  1  0  0  0  0
  5  7  1  0  0  0  0
  5 14  1  0  0  0  0
  5 15  1  0  0  0  0
  6 10  1  0  0  0  0
  6 11  1  0  0  0  0
  6 13  1  0  0  0  0
  7  8  1  0  0  0  0
  7 16  1  0  0  0  0
  7 17  1  0  0  0  0
  8  9  1  0  0  0  0
  8 18  1  0  0  0  0
  8 19  1  0  0  0  0
 10 12  1  0  0  0  0
 10 20  1  0  0  0  0
 10 21  1  0  0  0  0
 12 22  1  0  0  0  0
 12 23  1  0  0  0  0
 12 24  1  0  0  0  0
M  END
> <PUBCHEM_COMPOUND_CID>
441341

> <PUBCHEM_CONFORMER_RMSD>
0.6

> <PUBCHEM_CONFORMER_DIVERSEORDER>
1
18
5
26
13
23
19
25
20
16
11
27
15
12
21
17
28
8
2
7
14
4
29
22
24
9
10
6
3

> <PUBCHEM_MMFF94_PARTIAL_CHARGES>
11
1 -0.57
11 0.57
2 -0.57
25 0.37
26 0.37
3 -0.66
4 -0.8
5 0.3
6 0.36
8 0.06
9 0.57

> <PUBCHEM_EFFECTIVE_ROTOR_COUNT>
3.8

> <PUBCHEM_PHARMACOPHORE_FEATURES>
5
1 1 acceptor
1 12 hydrophobe
1 2 acceptor
1 4 donor
5 3 5 7 8 9 rings

> <PUBCHEM_HEAVY_ATOM_COUNT>
12

> <PUBCHEM_ATOM_DEF_STEREO_COUNT>
1

> <PUBCHEM_ATOM_UDEF_STEREO_COUNT>
0

> <PUBCHEM_BOND_DEF_STEREO_COUNT>
0

> <PUBCHEM_BOND_UDEF_STEREO_COUNT>
0

> <PUBCHEM_ISOTOPIC_ATOM_COUNT>
0

> <PUBCHEM_COMPONENT_COUNT>
1

> <PUBCHEM_CACTVS_TAUTO_COUNT>
4

> <PUBCHEM_CONFORMER_ID>
0006BBFD00000001

> <PUBCHEM_MMFF94_ENERGY>
20.4677

> <PUBCHEM_FEATURE_SELFOVERLAP>
25.371

> <PUBCHEM_SHAPE_FINGERPRINT>
11031198 65 18201148931714813301
12326174 3 18267577082243162854
12423570 1 14096019825953412834
12716758 59 16515400776572834124
13538477 17 17967824846671705111
13898156 1 17749685076567657123
14817 1 13663880278422255699
15310529 11 18410294752633128145
15775835 57 18188197775693245913
16945 1 18337103557569370385
18185500 45 18115600364374283611
19837323 101 16154802748583810569
20379382 53 18057027228205139751
20653085 51 17604967270342032800
20711978 78 18128813230007308147
21061003 4 17698157692551046002
23211744 25 17755041704050031657
23552423 10 18335424629194388315
430814 3 18041263457051823539
5084963 1 18262515879775283188
528862 383 18341046423272474963
81228 2 17337305269411810082

> <PUBCHEM_SHAPE_MULTIPOLES>
225.25
3.55
1.97
1.31
0.25
1.08
-0.32
-1.01
-0.17
-1.5
0.43
0.78
0.08
-0.6

> <PUBCHEM_SHAPE_SELFOVERLAP>
448.863

> <PUBCHEM_SHAPE_VOLUME>
134.5

> <PUBCHEM_COORDINATE_TYPE>
2
5
10

$$$$

