133322
  -OEChem-07051212573D

 45 48  0     1  0  0  0  0  0999 V2000
   -0.3695    2.9283   -0.3915 O   0  0  0  0  0  0  0  0  0  0  0  0
   -3.0362    3.2054   -0.5052 O   0  0  0  0  0  0  0  0  0  0  0  0
    5.0364   -0.4259    0.2149 O   0  0  0  0  0  0  0  0  0  0  0  0
    4.0472    2.1097    0.7604 O   0  0  0  0  0  0  0  0  0  0  0  0
   -1.7814   -3.0804   -0.1130 N   0  0  2  0  0  0  0  0  0  0  0  0
   -0.8384   -1.9920    0.2545 C   0  0  2  0  0  0  0  0  0  0  0  0
   -1.4199   -0.5934    0.0220 C   0  0  0  0  0  0  0  0  0  0  0  0
    0.4937   -2.1116   -0.5202 C   0  0  0  0  0  0  0  0  0  0  0  0
   -2.8140   -0.4150   -0.0720 C   0  0  0  0  0  0  0  0  0  0  0  0
   -3.0868   -2.8482    0.5256 C   0  0  0  0  0  0  0  0  0  0  0  0
   -0.5471    0.5234   -0.0325 C   0  0  0  0  0  0  0  0  0  0  0  0
   -3.7412   -1.5982   -0.0557 C   0  0  0  0  0  0  0  0  0  0  0  0
    1.4359   -0.9797   -0.1762 C   0  0  0  0  0  0  0  0  0  0  0  0
    0.9154    0.3107    0.0618 C   0  0  0  0  0  0  0  0  0  0  0  0
   -3.3421    0.8672   -0.2498 C   0  0  0  0  0  0  0  0  0  0  0  0
   -1.1158    1.7976   -0.2096 C   0  0  0  0  0  0  0  0  0  0  0  0
   -1.2846   -4.4026    0.2829 C   0  0  0  0  0  0  0  0  0  0  0  0
   -2.4967    1.9677   -0.3149 C   0  0  0  0  0  0  0  0  0  0  0  0
    2.8193   -1.2128   -0.1373 C   0  0  0  0  0  0  0  0  0  0  0  0
    1.8256    1.3339    0.3821 C   0  0  0  0  0  0  0  0  0  0  0  0
    3.6981   -0.1794    0.1710 C   0  0  0  0  0  0  0  0  0  0  0  0
    3.2012    1.0914    0.4363 C   0  0  0  0  0  0  0  0  0  0  0  0
   -3.3683    3.9529    0.6625 C   0  0  0  0  0  0  0  0  0  0  0  0
    5.7689   -0.2491   -0.9964 C   0  0  0  0  0  0  0  0  0  0  0  0
   -0.6271   -2.0542    1.3334 H   0  0  0  0  0  0  0  0  0  0  0  0
    0.3189   -2.0970   -1.6043 H   0  0  0  0  0  0  0  0  0  0  0  0
    0.9892   -3.0575   -0.2762 H   0  0  0  0  0  0  0  0  0  0  0  0
   -2.9771   -2.7520    1.6145 H   0  0  0  0  0  0  0  0  0  0  0  0
   -3.7628   -3.6930    0.3433 H   0  0  0  0  0  0  0  0  0  0  0  0
   -4.6361   -1.3631    0.5331 H   0  0  0  0  0  0  0  0  0  0  0  0
   -4.0624   -1.7960   -1.0864 H   0  0  0  0  0  0  0  0  0  0  0  0
   -4.4168    1.0044   -0.3456 H   0  0  0  0  0  0  0  0  0  0  0  0
   -1.0489   -4.4529    1.3520 H   0  0  0  0  0  0  0  0  0  0  0  0
   -0.3952   -4.6840   -0.2883 H   0  0  0  0  0  0  0  0  0  0  0  0
   -2.0294   -5.1762    0.0615 H   0  0  0  0  0  0  0  0  0  0  0  0
    3.2096   -2.2070   -0.3424 H   0  0  0  0  0  0  0  0  0  0  0  0
    1.4942    2.3293    0.6562 H   0  0  0  0  0  0  0  0  0  0  0  0
   -0.9565    3.6807   -0.5778 H   0  0  0  0  0  0  0  0  0  0  0  0
    3.5308    2.9203    0.9077 H   0  0  0  0  0  0  0  0  0  0  0  0
   -4.1527    3.4432    1.2308 H   0  0  0  0  0  0  0  0  0  0  0  0
   -3.7435    4.9307    0.3483 H   0  0  0  0  0  0  0  0  0  0  0  0
   -2.4864    4.1030    1.2934 H   0  0  0  0  0  0  0  0  0  0  0  0
    6.8198   -0.4767   -0.7975 H   0  0  0  0  0  0  0  0  0  0  0  0
    5.6946    0.7861   -1.3443 H   0  0  0  0  0  0  0  0  0  0  0  0
    5.4025   -0.9327   -1.7688 H   0  0  0  0  0  0  0  0  0  0  0  0
  1 16  1  0  0  0  0
  1 38  1  0  0  0  0
  2 18  1  0  0  0  0
  2 23  1  0  0  0  0
  3 21  1  0  0  0  0
  3 24  1  0  0  0  0
  4 22  1  0  0  0  0
  4 39  1  0  0  0  0
  5  6  1  0  0  0  0
  5 10  1  0  0  0  0
  5 17  1  0  0  0  0
  6  7  1  0  0  0  0
  6  8  1  0  0  0  0
  6 25  1  0  0  0  0
  7  9  1  0  0  0  0
  7 11  2  0  0  0  0
  8 13  1  0  0  0  0
  8 26  1  0  0  0  0
  8 27  1  0  0  0  0
  9 12  1  0  0  0  0
  9 15  2  0  0  0  0
 10 12  1  0  0  0  0
 10 28  1  0  0  0  0
 10 29  1  0  0  0  0
 11 14  1  0  0  0  0
 11 16  1  0  0  0  0
 12 30  1  0  0  0  0
 12 31  1  0  0  0  0
 13 14  1  0  0  0  0
 13 19  2  0  0  0  0
 14 20  2  0  0  0  0
 15 18  1  0  0  0  0
 15 32  1  0  0  0  0
 16 18  2  0  0  0  0
 17 33  1  0  0  0  0
 17 34  1  0  0  0  0
 17 35  1  0  0  0  0
 19 21  1  0  0  0  0
 19 36  1  0  0  0  0
 20 22  1  0  0  0  0
 20 37  1  0  0  0  0
 21 22  2  0  0  0  0
 23 40  1  0  0  0  0
 23 41  1  0  0  0  0
 23 42  1  0  0  0  0
 24 43  1  0  0  0  0
 24 44  1  0  0  0  0
 24 45  1  0  0  0  0
M  END
> <PUBCHEM_COMPOUND_CID>
133322

> <PUBCHEM_CONFORMER_RMSD>
0.6

> <PUBCHEM_CONFORMER_DIVERSEORDER>
1
2

> <PUBCHEM_MMFF94_PARTIAL_CHARGES>
27
1 -0.53
10 0.27
12 0.14
13 -0.14
15 -0.15
16 0.08
17 0.27
18 0.08
19 -0.15
2 -0.36
20 -0.15
21 0.08
22 0.08
23 0.28
24 0.28
3 -0.36
32 0.15
36 0.15
37 0.15
38 0.45
39 0.45
4 -0.53
5 -0.81
6 0.41
7 -0.14
8 0.14
9 -0.14

> <PUBCHEM_EFFECTIVE_ROTOR_COUNT>
2.8

> <PUBCHEM_PHARMACOPHORE_FEATURES>
9
1 1 donor
1 2 acceptor
1 3 acceptor
1 4 donor
1 5 cation
6 13 14 19 20 21 22 rings
6 5 6 7 9 10 12 rings
6 6 7 8 11 13 14 rings
6 7 9 11 15 16 18 rings

> <PUBCHEM_HEAVY_ATOM_COUNT>
24

> <PUBCHEM_ATOM_DEF_STEREO_COUNT>
1

> <PUBCHEM_ATOM_UDEF_STEREO_COUNT>
0

> <PUBCHEM_BOND_DEF_STEREO_COUNT>
0

> <PUBCHEM_BOND_UDEF_STEREO_COUNT>
0

> <PUBCHEM_ISOTOPIC_ATOM_COUNT>
0

> <PUBCHEM_COMPONENT_COUNT>
1

> <PUBCHEM_CACTVS_TAUTO_COUNT>
15

> <PUBCHEM_CONFORMER_ID>
000208CA00000001

> <PUBCHEM_MMFF94_ENERGY>
95.6291

> <PUBCHEM_FEATURE_SELFOVERLAP>
45.757

> <PUBCHEM_SHAPE_FINGERPRINT>
10165383 225 18195520630550932861
10319926 262 18264512658354714218
10411042 1 18051129185889080951
10493431 412 18193268814031937233
10616163 171 18411418406098215990
10967382 1 17474109181856728879
1100329 8 18268146466584737393
12107183 9 17983024641759889482
12173636 292 18411425041843553829
12390115 104 18190446349970661129
12403259 226 18189901907041393712
12403259 415 18186805777346377120
12553582 1 17980188700149305727
12788726 201 18272091548116836698
13140716 1 17978510828277905737
138480 1 16753534414013999347
14178342 30 18269573688412088536
14223421 5 18264775359169692480
14363568 33 16973060117886490609
14790565 3 17977375367727142784
15042514 8 18268707221599328715
15196674 1 18337674105325160946
15230672 131 18125150787864084566
15927050 60 18120090847762726775
16087824 20 18410856552437602263
16945 1 18267861679834995559
17804303 29 18336825299644438086
19591789 44 18339361997439502827
20510252 161 18335423456731548905
20775438 99 16603269086569963023
21267235 1 18339634530067878602
21279426 13 18118679057758197622
22182313 1 18040984177262746918
2334 1 18411420639607420711
23402539 116 18335427816192393823
23557571 272 18333723628919052116
23558518 356 18272087158797221336
23559900 14 18336834087390424216
238 59 16833224749137212949
23845131 108 17981034530267005985
2748010 2 18339354270988509759
283562 15 18410015455563610683
3091708 16 9127661190703705827
335352 9 18410575088984498359
350125 39 18410287042982403937
5104073 3 18408608033187283808
7097593 13 17770524206697006178
7364860 26 17402334166633872111
81228 2 18201155451754685025
9709674 26 18334857221154727694

> <PUBCHEM_SHAPE_MULTIPOLES>
465.45
8.41
4.68
0.75
10.9
0.49
0.01
-1.87
0.38
-6.03
-0.51
0.21
-0.09
0.6

> <PUBCHEM_SHAPE_SELFOVERLAP>
1027.362

> <PUBCHEM_SHAPE_VOLUME>
250.8

> <PUBCHEM_COORDINATE_TYPE>
2
5
10

$$$$

