5281449
  -OEChem-07051212572D

 57 58  0     1  0  0  0  0  0999 V2000
    3.5836   -2.4087    0.0000 O   0  0  0  0  0  0  0  0  0  0  0  0
    4.5587   -0.0571    0.0000 O   0  0  0  0  0  0  0  0  0  0  0  0
    7.2016   -0.7620    0.0000 O   0  0  0  0  0  0  0  0  0  0  0  0
    3.9299    0.5208    0.0000 O   0  0  0  0  0  0  0  0  0  0  0  0
    2.0000   -1.6040    0.0000 O   0  0  0  0  0  0  0  0  0  0  0  0
    5.5059    1.3930    0.0000 O   0  0  0  0  0  0  0  0  0  0  0  0
    7.7940   -2.3896    0.0000 O   0  0  0  0  0  0  0  0  0  0  0  0
    4.5298   -1.1040    0.0000 C   0  0  1  0  0  0  0  0  0  0  0  0
    4.5298   -2.1040    0.0000 C   0  0  1  0  0  0  0  0  0  0  0  0
    5.3958   -0.6040    0.0000 C   0  0  1  0  0  0  0  0  0  0  0  0
    3.5836   -0.7993    0.0000 C   0  0  0  0  0  0  0  0  0  0  0  0
    5.3958   -2.6040    0.0000 C   0  0  0  0  0  0  0  0  0  0  0  0
    6.2619   -1.1040    0.0000 C   0  0  1  0  0  0  0  0  0  0  0  0
    5.3958   -0.6040    0.0000 C   0  0  0  0  0  0  0  0  0  0  0  0
    4.8958    0.2620    0.0000 C   0  0  1  0  0  0  0  0  0  0  0  0
    6.2619   -2.1040    0.0000 C   0  0  0  0  0  0  0  0  0  0  0  0
    6.2619   -0.1040    0.0000 C   0  0  0  0  0  0  0  0  0  0  0  0
    5.7619    0.7620    0.0000 C   0  0  0  0  0  0  0  0  0  0  0  0
    3.0000   -1.6040    0.0000 C   0  0  0  0  0  0  0  0  0  0  0  0
    7.1279   -2.6040    0.0000 C   0  0  0  0  0  0  0  0  0  0  0  0
    6.0207    1.7280    0.0000 C   0  0  0  0  0  0  0  0  0  0  0  0
    3.2729    0.1513    0.0000 C   0  0  0  0  0  0  0  0  0  0  0  0
    4.6137    0.9414    0.0000 C   0  0  0  0  0  0  0  0  0  0  0  0
    7.9676   -1.4048    0.0000 C   0  0  0  0  0  0  0  0  0  0  0  0
    4.1621    1.8336    0.0000 C   0  0  0  0  0  0  0  0  0  0  0  0
    8.9073   -1.0628    0.0000 C   0  0  0  0  0  0  0  0  0  0  0  0
    3.1637    1.8887    0.0000 C   0  0  0  0  0  0  0  0  0  0  0  0
    4.7090    2.6708    0.0000 C   0  0  0  0  0  0  0  0  0  0  0  0
    5.7075    2.6158    0.0000 C   0  0  0  0  0  0  0  0  0  0  0  0
    4.4399   -0.2588    0.0000 H   0  0  0  0  0  0  0  0  0  0  0  0
    4.4399   -2.9492    0.0000 H   0  0  0  0  0  0  0  0  0  0  0  0
    5.4129    0.0158    0.0000 H   0  0  0  0  0  0  0  0  0  0  0  0
    5.3958   -3.2240    0.0000 H   0  0  0  0  0  0  0  0  0  0  0  0
    6.3159   -0.4864    0.0000 H   0  0  0  0  0  0  0  0  0  0  0  0
    4.7853   -0.7117    0.0000 H   0  0  0  0  0  0  0  0  0  0  0  0
    5.8343   -0.1656    0.0000 H   0  0  0  0  0  0  0  0  0  0  0  0
    4.5184   -0.2299    0.0000 H   0  0  0  0  0  0  0  0  0  0  0  0
    6.8795   -0.1580    0.0000 H   0  0  0  0  0  0  0  0  0  0  0  0
    6.8179   -3.1409    0.0000 H   0  0  0  0  0  0  0  0  0  0  0  0
    7.6648   -2.9140    0.0000 H   0  0  0  0  0  0  0  0  0  0  0  0
    7.4379   -2.0671    0.0000 H   0  0  0  0  0  0  0  0  0  0  0  0
    6.6196    1.5675    0.0000 H   0  0  0  0  0  0  0  0  0  0  0  0
    6.1812    2.3268    0.0000 H   0  0  0  0  0  0  0  0  0  0  0  0
    5.4218    1.8884    0.0000 H   0  0  0  0  0  0  0  0  0  0  0  0
    3.6870    0.6127    0.0000 H   0  0  0  0  0  0  0  0  0  0  0  0
    2.6663    0.2791    0.0000 H   0  0  0  0  0  0  0  0  0  0  0  0
    3.4915    0.9592    0.0000 H   0  0  0  0  0  0  0  0  0  0  0  0
    9.1194   -1.6454    0.0000 H   0  0  0  0  0  0  0  0  0  0  0  0
    9.4899   -0.8507    0.0000 H   0  0  0  0  0  0  0  0  0  0  0  0
    8.6953   -0.4801    0.0000 H   0  0  0  0  0  0  0  0  0  0  0  0
    3.1979    2.5078    0.0000 H   0  0  0  0  0  0  0  0  0  0  0  0
    2.5446    1.9229    0.0000 H   0  0  0  0  0  0  0  0  0  0  0  0
    3.1295    1.2697    0.0000 H   0  0  0  0  0  0  0  0  0  0  0  0
    4.4290    3.2240    0.0000 H   0  0  0  0  0  0  0  0  0  0  0  0
    5.6734    1.9967    0.0000 H   0  0  0  0  0  0  0  0  0  0  0  0
    6.3266    2.5816    0.0000 H   0  0  0  0  0  0  0  0  0  0  0  0
    5.7416    3.2348    0.0000 H   0  0  0  0  0  0  0  0  0  0  0  0
  1  9  1  0  0  0  0
  1 19  1  0  0  0  0
 10  2  1  6  0  0  0
  2 23  1  0  0  0  0
 13  3  1  6  0  0  0
  3 24  1  0  0  0  0
 15  4  1  6  0  0  0
  4 47  1  0  0  0  0
  5 19  2  0  0  0  0
  6 23  2  0  0  0  0
  7 24  2  0  0  0  0
  8  9  1  0  0  0  0
  8 10  1  0  0  0  0
  8 11  1  0  0  0  0
  8 30  1  1  0  0  0
  9 12  1  0  0  0  0
  9 31  1  6  0  0  0
 10 17  1  0  0  0  0
 10 32  1  0  0  0  0
 11 19  1  0  0  0  0
 11 22  2  0  0  0  0
 12 16  2  0  0  0  0
 12 33  1  0  0  0  0
 13 14  1  0  0  0  0
 13 16  1  0  0  0  0
 13 34  1  0  0  0  0
 14 15  1  0  0  0  0
 14 35  1  0  0  0  0
 14 36  1  0  0  0  0
 15 18  1  0  0  0  0
 15 37  1  0  0  0  0
 16 20  1  0  0  0  0
 17 18  2  0  0  0  0
 17 38  1  0  0  0  0
 18 21  1  0  0  0  0
 20 39  1  0  0  0  0
 20 40  1  0  0  0  0
 20 41  1  0  0  0  0
 21 42  1  0  0  0  0
 21 43  1  0  0  0  0
 21 44  1  0  0  0  0
 22 45  1  0  0  0  0
 22 46  1  0  0  0  0
 23 25  1  0  0  0  0
 24 26  1  0  0  0  0
 25 27  1  0  0  0  0
 25 28  2  0  0  0  0
 26 48  1  0  0  0  0
 26 49  1  0  0  0  0
 26 50  1  0  0  0  0
 27 51  1  0  0  0  0
 27 52  1  0  0  0  0
 27 53  1  0  0  0  0
 28 29  1  0  0  0  0
 28 54  1  0  0  0  0
 29 55  1  0  0  0  0
 29 56  1  0  0  0  0
 29 57  1  0  0  0  0
M  END
> <PUBCHEM_COMPOUND_CID>
5281449

> <PUBCHEM_COMPOUND_CANONICALIZED>
1

> <PUBCHEM_CACTVS_COMPLEXITY>
802

> <PUBCHEM_CACTVS_HBOND_ACCEPTOR>
7

> <PUBCHEM_CACTVS_HBOND_DONOR>
1

> <PUBCHEM_CACTVS_ROTATABLE_BOND>
5

> <PUBCHEM_CACTVS_SUBSKEYS>
AAADceB4OAAAAAAAAAAAAAAAAAAAASAAAAAAAAAAAAAAAACAAAAAGgAACAAADRSggAICCAAABgCIAiDSCAAAAAAgAAAACAEAAEgAFBIAIQACUAAFwAAIMYPKgAAKAAAAAAAAAAAAAAAAAAAAAAAAAAAAAA==

> <PUBCHEM_IUPAC_OPENEYE_NAME>
[(3aS,4R,5Z,7S,9S,10Z,11aR)-9-acetoxy-7-hydroxy-6,10-dimethyl-3-methylene-2-oxo-3a,4,7,8,9,11a-hexahydrocyclodeca[b]furan-4-yl] (Z)-2-methylbut-2-enoate

> <PUBCHEM_IUPAC_CAS_NAME>
(Z)-2-methyl-2-butenoic acid [(3aS,4R,5Z,7S,9S,10Z,11aR)-9-acetyloxy-7-hydroxy-6,10-dimethyl-3-methylene-2-oxo-3a,4,7,8,9,11a-hexahydrocyclodeca[b]furan-4-yl] ester

> <PUBCHEM_IUPAC_NAME>
[(3aS,4R,5Z,7S,9S,10Z,11aR)-9-acetyloxy-7-hydroxy-6,10-dimethyl-3-methylidene-2-oxo-3a,4,7,8,9,11a-hexahydrocyclodeca[b]furan-4-yl] (Z)-2-methylbut-2-enoate

> <PUBCHEM_IUPAC_SYSTEMATIC_NAME>
[(3aS,4R,5Z,7S,9S,10Z,11aR)-9-acetyloxy-6,10-dimethyl-3-methylidene-7-oxidanyl-2-oxidanylidene-3a,4,7,8,9,11a-hexahydrocyclodeca[b]furan-4-yl] (Z)-2-methylbut-2-enoate

> <PUBCHEM_IUPAC_TRADITIONAL_NAME>
(Z)-2-methylbut-2-enoic acid [(3aS,4R,5Z,7S,9S,10Z,11aR)-9-acetoxy-7-hydroxy-2-keto-6,10-dimethyl-3-methylene-3a,4,7,8,9,11a-hexahydrocyclodeca[b]furan-4-yl] ester

> <PUBCHEM_IUPAC_INCHI>
InChI=1S/C22H28O7/c1-7-11(2)21(25)28-18-8-12(3)16(24)10-17(27-15(6)23)13(4)9-19-20(18)14(5)22(26)29-19/h7-9,16-20,24H,5,10H2,1-4,6H3/b11-7-,12-8-,13-9-/t16-,17-,18+,19+,20+/m0/s1

> <PUBCHEM_IUPAC_INCHIKEY>
LVPCBECJXWCROK-IYZBVFDJSA-N

> <PUBCHEM_XLOGP3>
1.2

> <PUBCHEM_EXACT_MASS>
404.183503

> <PUBCHEM_MOLECULAR_FORMULA>
C22H28O7

> <PUBCHEM_MOLECULAR_WEIGHT>
404.45352

> <PUBCHEM_OPENEYE_CAN_SMILES>
CC=C(C)C(=O)OC1C=C(C(CC(C(=CC2C1C(=C)C(=O)O2)C)OC(=O)C)O)C

> <PUBCHEM_OPENEYE_ISO_SMILES>
C/C=C(/C)\C(=O)O[C@@H]1/C=C(\[C@H](C[C@@H](/C(=C\[C@@H]2[C@@H]1C(=C)C(=O)O2)/C)OC(=O)C)O)/C

> <PUBCHEM_CACTVS_TPSA>
99.1

> <PUBCHEM_MONOISOTOPIC_WEIGHT>
404.183503

> <PUBCHEM_TOTAL_CHARGE>
0

> <PUBCHEM_HEAVY_ATOM_COUNT>
29

> <PUBCHEM_ATOM_DEF_STEREO_COUNT>
5

> <PUBCHEM_ATOM_UDEF_STEREO_COUNT>
0

> <PUBCHEM_BOND_DEF_STEREO_COUNT>
3

> <PUBCHEM_BOND_UDEF_STEREO_COUNT>
0

> <PUBCHEM_ISOTOPIC_ATOM_COUNT>
0

> <PUBCHEM_COMPONENT_COUNT>
1

> <PUBCHEM_CACTVS_TAUTO_COUNT>
1

> <PUBCHEM_COORDINATE_TYPE>
1
5
255

> <PUBCHEM_BONDANNOTATIONS>
10  2  6
13  3  6
15  4  6
8  30  5
9  31  6

$$$$

