17396380
  -OEChem-06241222562D

 38 41  0     1  0  0  0  0  0999 V2000
    3.4782   -1.9945    0.0000 S   0  0  0  0  0  0  0  0  0  0  0  0
    6.1808    0.5000    0.0000 O   0  0  0  0  0  0  0  0  0  0  0  0
    5.3147   -1.0000    0.0000 N   0  0  0  0  0  0  0  0  0  0  0  0
    9.7250   -0.6953    0.0000 N   0  0  0  0  0  0  0  0  0  0  0  0
    9.7250   -2.3047    0.0000 N   0  0  0  0  0  0  0  0  0  0  0  0
   10.3087   -1.5000    0.0000 N   0  0  0  0  0  0  0  0  0  0  0  0
    4.4487   -0.5000    0.0000 C   0  0  3  0  0  0  0  0  0  0  0  0
    4.4487    0.5000    0.0000 C   0  0  0  0  0  0  0  0  0  0  0  0
    3.5827   -1.0000    0.0000 C   0  0  0  0  0  0  0  0  0  0  0  0
    6.1808   -0.5000    0.0000 C   0  0  0  0  0  0  0  0  0  0  0  0
    7.0468   -1.0000    0.0000 C   0  0  0  0  0  0  0  0  0  0  0  0
    5.3147    1.0000    0.0000 C   0  0  0  0  0  0  0  0  0  0  0  0
    3.5827    1.0000    0.0000 C   0  0  0  0  0  0  0  0  0  0  0  0
    2.6691   -0.5933    0.0000 C   0  0  0  0  0  0  0  0  0  0  0  0
    7.9128   -0.5000    0.0000 C   0  0  0  0  0  0  0  0  0  0  0  0
    8.7788   -1.0000    0.0000 C   0  0  0  0  0  0  0  0  0  0  0  0
    7.0468   -2.0000    0.0000 C   0  0  0  0  0  0  0  0  0  0  0  0
    8.7788   -2.0000    0.0000 C   0  0  0  0  0  0  0  0  0  0  0  0
    5.3147    2.0000    0.0000 C   0  0  0  0  0  0  0  0  0  0  0  0
    3.5827    2.0000    0.0000 C   0  0  0  0  0  0  0  0  0  0  0  0
    2.0000   -1.3364    0.0000 C   0  0  0  0  0  0  0  0  0  0  0  0
    7.9128   -2.5000    0.0000 C   0  0  0  0  0  0  0  0  0  0  0  0
    2.5000   -2.2024    0.0000 C   0  0  0  0  0  0  0  0  0  0  0  0
    4.4487    2.5000    0.0000 C   0  0  0  0  0  0  0  0  0  0  0  0
    4.9856   -0.1900    0.0000 H   0  0  0  0  0  0  0  0  0  0  0  0
    5.3147   -1.6200    0.0000 H   0  0  0  0  0  0  0  0  0  0  0  0
    5.8517    0.6900    0.0000 H   0  0  0  0  0  0  0  0  0  0  0  0
    3.0457    0.6900    0.0000 H   0  0  0  0  0  0  0  0  0  0  0  0
    2.5402    0.0132    0.0000 H   0  0  0  0  0  0  0  0  0  0  0  0
    7.9128    0.1200    0.0000 H   0  0  0  0  0  0  0  0  0  0  0  0
    6.5098   -2.3100    0.0000 H   0  0  0  0  0  0  0  0  0  0  0  0
    5.8517    2.3100    0.0000 H   0  0  0  0  0  0  0  0  0  0  0  0
    3.0457    2.3100    0.0000 H   0  0  0  0  0  0  0  0  0  0  0  0
    1.3834   -1.2716    0.0000 H   0  0  0  0  0  0  0  0  0  0  0  0
    7.9128   -3.1200    0.0000 H   0  0  0  0  0  0  0  0  0  0  0  0
    2.2478   -2.7688    0.0000 H   0  0  0  0  0  0  0  0  0  0  0  0
    4.4487    3.1200    0.0000 H   0  0  0  0  0  0  0  0  0  0  0  0
   10.9287   -1.5000    0.0000 H   0  0  0  0  0  0  0  0  0  0  0  0
  1  9  1  0  0  0  0
  1 23  1  0  0  0  0
  2 10  2  0  0  0  0
  3  7  1  0  0  0  0
  3 10  1  0  0  0  0
  3 26  1  0  0  0  0
  4  6  1  0  0  0  0
  4 16  2  0  0  0  0
  5  6  1  0  0  0  0
  5 18  2  0  0  0  0
  6 38  1  0  0  0  0
  7  8  1  0  0  0  0
  7  9  1  0  0  0  0
  7 25  1  0  0  0  0
  8 12  2  0  0  0  0
  8 13  1  0  0  0  0
  9 14  2  0  0  0  0
 10 11  1  0  0  0  0
 11 15  2  0  0  0  0
 11 17  1  0  0  0  0
 12 19  1  0  0  0  0
 12 27  1  0  0  0  0
 13 20  2  0  0  0  0
 13 28  1  0  0  0  0
 14 21  1  0  0  0  0
 14 29  1  0  0  0  0
 15 16  1  0  0  0  0
 15 30  1  0  0  0  0
 16 18  1  0  0  0  0
 17 22  2  0  0  0  0
 17 31  1  0  0  0  0
 18 22  1  0  0  0  0
 19 24  2  0  0  0  0
 19 32  1  0  0  0  0
 20 24  1  0  0  0  0
 20 33  1  0  0  0  0
 21 23  2  0  0  0  0
 21 34  1  0  0  0  0
 22 35  1  0  0  0  0
 23 36  1  0  0  0  0
 24 37  1  0  0  0  0
M  END
> <PUBCHEM_COMPOUND_CID>
17396380

> <PUBCHEM_COMPOUND_CANONICALIZED>
1

> <PUBCHEM_CACTVS_COMPLEXITY>
443

> <PUBCHEM_CACTVS_HBOND_ACCEPTOR>
4

> <PUBCHEM_CACTVS_HBOND_DONOR>
2

> <PUBCHEM_CACTVS_ROTATABLE_BOND>
4

> <PUBCHEM_CACTVS_SUBSKEYS>
AAADccB7oABAAAAAAAAAAAAAAAAAAWJAAAAwYAAAAAAAAFgB/AAAHgQYAAAADCjF3gSwwbLCAAiuAyVyUACDBIQkGhBYuLk4dNgIYLKglZGEIQhghgCoyYccicCeCAAAQAAAACAQAACAAAAAQAAAAAAAAA==

> <PUBCHEM_IUPAC_OPENEYE_NAME>
N-[phenyl(2-thienyl)methyl]-2H-benzotriazole-5-carboxamide

> <PUBCHEM_IUPAC_CAS_NAME>
N-[phenyl(thiophen-2-yl)methyl]-2H-benzotriazole-5-carboxamide

> <PUBCHEM_IUPAC_NAME>
N-[phenyl(thiophen-2-yl)methyl]-2H-benzotriazole-5-carboxamide

> <PUBCHEM_IUPAC_SYSTEMATIC_NAME>
N-[phenyl(thiophen-2-yl)methyl]-2H-benzotriazole-5-carboxamide

> <PUBCHEM_IUPAC_TRADITIONAL_NAME>
N-[phenyl(2-thienyl)methyl]-2H-benzotriazole-5-carboxamide

> <PUBCHEM_IUPAC_INCHI>
InChI=1S/C18H14N4OS/c23-18(13-8-9-14-15(11-13)21-22-20-14)19-17(16-7-4-10-24-16)12-5-2-1-3-6-12/h1-11,17H,(H,19,23)(H,20,21,22)

> <PUBCHEM_IUPAC_INCHIKEY>
GOBYUYGSAGKBCI-UHFFFAOYSA-N

> <PUBCHEM_XLOGP3_AA>
3.2

> <PUBCHEM_EXACT_MASS>
334.088832

> <PUBCHEM_MOLECULAR_FORMULA>
C18H14N4OS

> <PUBCHEM_MOLECULAR_WEIGHT>
334.39496

> <PUBCHEM_OPENEYE_CAN_SMILES>
C1=CC=C(C=C1)C(C2=CC=CS2)NC(=O)C3=CC4=NNN=C4C=C3

> <PUBCHEM_OPENEYE_ISO_SMILES>
C1=CC=C(C=C1)C(C2=CC=CS2)NC(=O)C3=CC4=NNN=C4C=C3

> <PUBCHEM_CACTVS_TPSA>
98.9

> <PUBCHEM_MONOISOTOPIC_WEIGHT>
334.088832

> <PUBCHEM_TOTAL_CHARGE>
0

> <PUBCHEM_HEAVY_ATOM_COUNT>
24

> <PUBCHEM_ATOM_DEF_STEREO_COUNT>
0

> <PUBCHEM_ATOM_UDEF_STEREO_COUNT>
1

> <PUBCHEM_BOND_DEF_STEREO_COUNT>
0

> <PUBCHEM_BOND_UDEF_STEREO_COUNT>
0

> <PUBCHEM_ISOTOPIC_ATOM_COUNT>
0

> <PUBCHEM_COMPONENT_COUNT>
1

> <PUBCHEM_CACTVS_TAUTO_COUNT>
9

> <PUBCHEM_COORDINATE_TYPE>
1
5
255

> <PUBCHEM_BONDANNOTATIONS>
1  23  8
1  9  8
11  15  8
11  17  8
12  19  8
13  20  8
14  21  8
15  16  8
16  18  8
17  22  8
18  22  8
19  24  8
20  24  8
21  23  8
7  3  3
4  16  8
4  6  8
5  18  8
5  6  8
8  12  8
8  13  8
9  14  8

$$$$

