440493
  -OEChem-07051212492D

 81 84  0     1  0  0  0  0  0999 V2000
    2.5357   -2.5247    0.0000 O   0  0  0  0  0  0  0  0  0  0  0  0
    4.3500   -4.3026    0.0000 O   0  0  0  0  0  0  0  0  0  0  0  0
    7.9288    0.5277    0.0000 C   0  0  1  0  0  0  0  0  0  0  0  0
    5.2868   -0.9792    0.0000 C   0  0  2  0  0  0  0  0  0  0  0  0
    6.1968   -0.4723    0.0000 C   0  0  3  0  0  0  0  0  0  0  0  0
    7.9288   -0.4723    0.0000 C   0  0  2  0  0  0  0  0  0  0  0  0
    5.2787   -2.0208    0.0000 C   0  0  2  0  0  0  0  0  0  0  0  0
    8.8750    0.8324    0.0000 C   0  0  2  0  0  0  0  0  0  0  0  0
    7.0628   -0.9723    0.0000 C   0  0  0  0  0  0  0  0  0  0  0  0
    7.0628    1.0276    0.0000 C   0  0  0  0  0  0  0  0  0  0  0  0
    6.1968    0.5277    0.0000 C   0  0  0  0  0  0  0  0  0  0  0  0
    4.3433   -2.5705    0.0000 C   0  0  2  0  0  0  0  0  0  0  0  0
    8.8750   -0.7771    0.0000 C   0  0  0  0  0  0  0  0  0  0  0  0
    9.4586    0.0277    0.0000 C   0  0  0  0  0  0  0  0  0  0  0  0
    4.3599   -0.4151    0.0000 C   0  0  0  0  0  0  0  0  0  0  0  0
    6.1808   -2.5416    0.0000 C   0  0  0  0  0  0  0  0  0  0  0  0
    3.4037   -2.0280    0.0000 C   0  0  2  0  0  0  0  0  0  0  0  0
    7.0789   -2.0139    0.0000 C   0  0  0  0  0  0  0  0  0  0  0  0
    9.1857    1.7829    0.0000 C   0  0  1  0  0  0  0  0  0  0  0  0
    3.4120   -0.9431    0.0000 C   0  0  0  0  0  0  0  0  0  0  0  0
    7.9288    1.5276    0.0000 C   0  0  0  0  0  0  0  0  0  0  0  0
    5.2945    0.0208    0.0000 C   0  0  0  0  0  0  0  0  0  0  0  0
    3.8467   -3.4385    0.0000 C   0  0  0  0  0  0  0  0  0  0  0  0
    4.8466   -3.4346    0.0000 C   0  0  0  0  0  0  0  0  0  0  0  0
   10.1642    1.9891    0.0000 C   0  0  0  0  0  0  0  0  0  0  0  0
    8.5179    2.5272    0.0000 C   0  0  0  0  0  0  0  0  0  0  0  0
   10.4749    2.9396    0.0000 C   0  0  0  0  0  0  0  0  0  0  0  0
   11.4534    3.1459    0.0000 C   0  0  0  0  0  0  0  0  0  0  0  0
   11.7640    4.0964    0.0000 C   0  0  0  0  0  0  0  0  0  0  0  0
   12.7425    4.3026    0.0000 C   0  0  0  0  0  0  0  0  0  0  0  0
   11.0962    4.8407    0.0000 C   0  0  0  0  0  0  0  0  0  0  0  0
    6.9329   -0.0473    0.0000 H   0  0  0  0  0  0  0  0  0  0  0  0
    8.0188   -1.3176    0.0000 H   0  0  0  0  0  0  0  0  0  0  0  0
    5.2820   -2.8708    0.0000 H   0  0  0  0  0  0  0  0  0  0  0  0
    9.7148    0.9643    0.0000 H   0  0  0  0  0  0  0  0  0  0  0  0
    7.4613    1.5026    0.0000 H   0  0  0  0  0  0  0  0  0  0  0  0
    6.6643    1.5026    0.0000 H   0  0  0  0  0  0  0  0  0  0  0  0
    5.9847    1.1103    0.0000 H   0  0  0  0  0  0  0  0  0  0  0  0
    5.5862    0.4200    0.0000 H   0  0  0  0  0  0  0  0  0  0  0  0
    8.6240   -1.3440    0.0000 H   0  0  0  0  0  0  0  0  0  0  0  0
    9.4124   -1.0863    0.0000 H   0  0  0  0  0  0  0  0  0  0  0  0
    9.9195   -0.3871    0.0000 H   0  0  0  0  0  0  0  0  0  0  0  0
    9.9195    0.4424    0.0000 H   0  0  0  0  0  0  0  0  0  0  0  0
    4.7681    0.0515    0.0000 H   0  0  0  0  0  0  0  0  0  0  0  0
    3.9700    0.0669    0.0000 H   0  0  0  0  0  0  0  0  0  0  0  0
    5.7835   -3.0176    0.0000 H   0  0  0  0  0  0  0  0  0  0  0  0
    6.5818   -3.0145    0.0000 H   0  0  0  0  0  0  0  0  0  0  0  0
    3.4025   -2.6480    0.0000 H   0  0  0  0  0  0  0  0  0  0  0  0
    7.6193   -2.3176    0.0000 H   0  0  0  0  0  0  0  0  0  0  0  0
    9.3783    2.3722    0.0000 H   0  0  0  0  0  0  0  0  0  0  0  0
    3.2075   -0.3578    0.0000 H   0  0  0  0  0  0  0  0  0  0  0  0
    2.8004   -1.0444    0.0000 H   0  0  0  0  0  0  0  0  0  0  0  0
    8.5488    1.5276    0.0000 H   0  0  0  0  0  0  0  0  0  0  0  0
    7.9288    2.1476    0.0000 H   0  0  0  0  0  0  0  0  0  0  0  0
    7.3088    1.5276    0.0000 H   0  0  0  0  0  0  0  0  0  0  0  0
    5.9145    0.0160    0.0000 H   0  0  0  0  0  0  0  0  0  0  0  0
    5.2993    0.6408    0.0000 H   0  0  0  0  0  0  0  0  0  0  0  0
    4.6745    0.0256    0.0000 H   0  0  0  0  0  0  0  0  0  0  0  0
    3.3702   -3.0418    0.0000 H   0  0  0  0  0  0  0  0  0  0  0  0
    3.3732   -3.8388    0.0000 H   0  0  0  0  0  0  0  0  0  0  0  0
    4.3109   -3.7467    0.0000 H   0  0  0  0  0  0  0  0  0  0  0  0
    5.1587   -3.9704    0.0000 H   0  0  0  0  0  0  0  0  0  0  0  0
    5.3824   -3.1225    0.0000 H   0  0  0  0  0  0  0  0  0  0  0  0
   10.1848    1.3695    0.0000 H   0  0  0  0  0  0  0  0  0  0  0  0
   10.7780    1.9018    0.0000 H   0  0  0  0  0  0  0  0  0  0  0  0
    8.9793    2.9413    0.0000 H   0  0  0  0  0  0  0  0  0  0  0  0
    8.1038    2.9887    0.0000 H   0  0  0  0  0  0  0  0  0  0  0  0
    8.0564    2.1131    0.0000 H   0  0  0  0  0  0  0  0  0  0  0  0
    2.0000   -2.2126    0.0000 H   0  0  0  0  0  0  0  0  0  0  0  0
   10.4543    3.5593    0.0000 H   0  0  0  0  0  0  0  0  0  0  0  0
    9.8611    3.0270    0.0000 H   0  0  0  0  0  0  0  0  0  0  0  0
    4.0421   -4.8407    0.0000 H   0  0  0  0  0  0  0  0  0  0  0  0
   11.4739    2.5262    0.0000 H   0  0  0  0  0  0  0  0  0  0  0  0
   12.0672    3.0585    0.0000 H   0  0  0  0  0  0  0  0  0  0  0  0
   12.1781    3.6349    0.0000 H   0  0  0  0  0  0  0  0  0  0  0  0
   12.8704    3.6959    0.0000 H   0  0  0  0  0  0  0  0  0  0  0  0
   13.3492    4.4305    0.0000 H   0  0  0  0  0  0  0  0  0  0  0  0
   12.6147    4.9093    0.0000 H   0  0  0  0  0  0  0  0  0  0  0  0
   11.5577    5.2547    0.0000 H   0  0  0  0  0  0  0  0  0  0  0  0
   10.6821    5.3022    0.0000 H   0  0  0  0  0  0  0  0  0  0  0  0
   10.6347    4.4266    0.0000 H   0  0  0  0  0  0  0  0  0  0  0  0
 17  1  1  1  0  0  0
  1 69  1  0  0  0  0
  2 23  1  0  0  0  0
  2 72  1  0  0  0  0
  3  6  1  0  0  0  0
  3  8  1  0  0  0  0
  3 10  1  0  0  0  0
  3 21  1  1  0  0  0
  4  5  1  0  0  0  0
  4  7  1  0  0  0  0
  4 15  1  0  0  0  0
  4 22  1  1  0  0  0
  5  9  1  0  0  0  0
  5 11  1  0  0  0  0
  5 32  1  0  0  0  0
  6  9  1  0  0  0  0
  6 13  1  0  0  0  0
  6 33  1  6  0  0  0
  7 12  1  0  0  0  0
  7 16  1  0  0  0  0
  7 34  1  6  0  0  0
  8 14  1  0  0  0  0
  8 19  1  0  0  0  0
  8 35  1  6  0  0  0
  9 18  2  0  0  0  0
 10 11  1  0  0  0  0
 10 36  1  0  0  0  0
 10 37  1  0  0  0  0
 11 38  1  0  0  0  0
 11 39  1  0  0  0  0
 12 17  1  0  0  0  0
 12 23  1  0  0  0  0
 12 24  1  6  0  0  0
 13 14  1  0  0  0  0
 13 40  1  0  0  0  0
 13 41  1  0  0  0  0
 14 42  1  0  0  0  0
 14 43  1  0  0  0  0
 15 20  1  0  0  0  0
 15 44  1  0  0  0  0
 15 45  1  0  0  0  0
 16 18  1  0  0  0  0
 16 46  1  0  0  0  0
 16 47  1  0  0  0  0
 17 20  1  0  0  0  0
 17 48  1  0  0  0  0
 18 49  1  0  0  0  0
 19 25  1  0  0  0  0
 19 26  1  6  0  0  0
 19 50  1  0  0  0  0
 20 51  1  0  0  0  0
 20 52  1  0  0  0  0
 21 53  1  0  0  0  0
 21 54  1  0  0  0  0
 21 55  1  0  0  0  0
 22 56  1  0  0  0  0
 22 57  1  0  0  0  0
 22 58  1  0  0  0  0
 23 59  1  0  0  0  0
 23 60  1  0  0  0  0
 24 61  1  0  0  0  0
 24 62  1  0  0  0  0
 24 63  1  0  0  0  0
 25 27  1  0  0  0  0
 25 64  1  0  0  0  0
 25 65  1  0  0  0  0
 26 66  1  0  0  0  0
 26 67  1  0  0  0  0
 26 68  1  0  0  0  0
 27 28  1  0  0  0  0
 27 70  1  0  0  0  0
 27 71  1  0  0  0  0
 28 29  1  0  0  0  0
 28 73  1  0  0  0  0
 28 74  1  0  0  0  0
 29 30  1  0  0  0  0
 29 31  1  0  0  0  0
 29 75  1  0  0  0  0
 30 76  1  0  0  0  0
 30 77  1  0  0  0  0
 30 78  1  0  0  0  0
 31 79  1  0  0  0  0
 31 80  1  0  0  0  0
 31 81  1  0  0  0  0
M  END
> <PUBCHEM_COMPOUND_CID>
440493

> <PUBCHEM_COMPOUND_CANONICALIZED>
1

> <PUBCHEM_CACTVS_COMPLEXITY>
682

> <PUBCHEM_CACTVS_HBOND_ACCEPTOR>
2

> <PUBCHEM_CACTVS_HBOND_DONOR>
2

> <PUBCHEM_CACTVS_ROTATABLE_BOND>
6

> <PUBCHEM_CACTVS_SUBSKEYS>
AAADcfB4MAAAAAAAAAAAAAAAAAAAAYAAAAAwYIAAAAAAAGCAAAAAGgAACAAADxSggAICAAAAAgCAAiBCAAAAAAAgAAAACAAAAAgAEAIAAQAAQAAFgAAIAAOAwPAPgAAAAAAAAADAAAYAADAAAQAACAAAAA==

> <PUBCHEM_IUPAC_OPENEYE_NAME>
(3S,4S,5R,10R,13R,14R,17R)-17-[(1R)-1,5-dimethylhexyl]-4-(hydroxymethyl)-4,10,13-trimethyl-1,2,3,5,6,9,11,12,14,15,16,17-dodecahydrocyclopenta[a]phenanthren-3-ol

> <PUBCHEM_IUPAC_CAS_NAME>
(3S,4S,5R,10R,13R,14R,17R)-4-(hydroxymethyl)-4,10,13-trimethyl-17-[(2R)-6-methylheptan-2-yl]-1,2,3,5,6,9,11,12,14,15,16,17-dodecahydrocyclopenta[a]phenanthren-3-ol

> <PUBCHEM_IUPAC_NAME>
(3S,4S,5R,10R,13R,14R,17R)-4-(hydroxymethyl)-4,10,13-trimethyl-17-[(2R)-6-methylheptan-2-yl]-1,2,3,5,6,9,11,12,14,15,16,17-dodecahydrocyclopenta[a]phenanthren-3-ol

> <PUBCHEM_IUPAC_SYSTEMATIC_NAME>
(3S,4S,5R,10R,13R,14R,17R)-4-(hydroxymethyl)-4,10,13-trimethyl-17-[(2R)-6-methylheptan-2-yl]-1,2,3,5,6,9,11,12,14,15,16,17-dodecahydrocyclopenta[a]phenanthren-3-ol

> <PUBCHEM_IUPAC_TRADITIONAL_NAME>
(3S,4S,5R,10R,13R,14R,17R)-17-[(1R)-1,5-dimethylhexyl]-4,10,13-trimethyl-4-methylol-1,2,3,5,6,9,11,12,14,15,16,17-dodecahydrocyclopenta[a]phenanthren-3-ol

> <PUBCHEM_IUPAC_INCHI>
InChI=1S/C29H50O2/c1-19(2)8-7-9-20(3)22-11-12-23-21-10-13-25-28(5,24(21)14-16-27(22,23)4)17-15-26(31)29(25,6)18-30/h10,19-20,22-26,30-31H,7-9,11-18H2,1-6H3/t20-,22-,23+,24?,25-,26+,27-,28-,29-/m1/s1

> <PUBCHEM_IUPAC_INCHIKEY>
DWEXIFLNCXYYAA-IIEBKBIYSA-N

> <PUBCHEM_XLOGP3_AA>
8.4

> <PUBCHEM_EXACT_MASS>
430.381081

> <PUBCHEM_MOLECULAR_FORMULA>
C29H50O2

> <PUBCHEM_MOLECULAR_WEIGHT>
430.7061

> <PUBCHEM_OPENEYE_CAN_SMILES>
CC(C)CCCC(C)C1CCC2C1(CCC3C2=CCC4C3(CCC(C4(C)CO)O)C)C

> <PUBCHEM_OPENEYE_ISO_SMILES>
C[C@H](CCCC(C)C)[C@H]1CC[C@@H]2[C@@]1(CCC3C2=CC[C@@H]4[C@@]3(CC[C@@H]([C@]4(C)CO)O)C)C

> <PUBCHEM_CACTVS_TPSA>
40.5

> <PUBCHEM_MONOISOTOPIC_WEIGHT>
430.381081

> <PUBCHEM_TOTAL_CHARGE>
0

> <PUBCHEM_HEAVY_ATOM_COUNT>
31

> <PUBCHEM_ATOM_DEF_STEREO_COUNT>
8

> <PUBCHEM_ATOM_UDEF_STEREO_COUNT>
1

> <PUBCHEM_BOND_DEF_STEREO_COUNT>
0

> <PUBCHEM_BOND_UDEF_STEREO_COUNT>
0

> <PUBCHEM_ISOTOPIC_ATOM_COUNT>
0

> <PUBCHEM_COMPONENT_COUNT>
1

> <PUBCHEM_CACTVS_TAUTO_COUNT>
1

> <PUBCHEM_COORDINATE_TYPE>
1
5
255

> <PUBCHEM_BONDANNOTATIONS>
17  1  5
12  24  6
19  26  6
3  21  5
4  22  5
5  32  3
6  33  6
7  34  6
8  35  6

$$$$

