442544
  -OEChem-07051212582D

 66 69  0     1  0  0  0  0  0999 V2000
    8.3301   -1.6900    0.0000 O   0  0  0  0  0  0  0  0  0  0  0  0
    9.1962    0.8100    0.0000 O   0  0  0  0  0  0  0  0  0  0  0  0
    7.4641   -0.1900    0.0000 O   0  0  0  0  0  0  0  0  0  0  0  0
   10.9282   -0.1900    0.0000 O   0  0  0  0  0  0  0  0  0  0  0  0
   10.9282   -2.1900    0.0000 O   0  0  0  0  0  0  0  0  0  0  0  0
   10.0622   -3.6900    0.0000 O   0  0  0  0  0  0  0  0  0  0  0  0
    4.8660    1.3100    0.0000 O   0  0  0  0  0  0  0  0  0  0  0  0
   10.9282    0.8100    0.0000 O   0  0  0  0  0  0  0  0  0  0  0  0
    4.8660    3.3100    0.0000 O   0  0  0  0  0  0  0  0  0  0  0  0
    4.0000    1.0780    0.0000 O   0  0  0  0  0  0  0  0  0  0  0  0
    5.7320    2.8100    0.0000 O   0  0  0  0  0  0  0  0  0  0  0  0
   10.0622   -0.6900    0.0000 C   0  0  1  0  0  0  0  0  0  0  0  0
   10.0622   -1.6900    0.0000 C   0  0  1  0  0  0  0  0  0  0  0  0
    9.1962   -0.1900    0.0000 C   0  0  2  0  0  0  0  0  0  0  0  0
    9.1962   -2.1900    0.0000 C   0  0  1  0  0  0  0  0  0  0  0  0
    8.3301   -0.6900    0.0000 C   0  0  1  0  0  0  0  0  0  0  0  0
    9.1962   -3.1900    0.0000 C   0  0  0  0  0  0  0  0  0  0  0  0
    6.5981   -0.6900    0.0000 C   0  0  0  0  0  0  0  0  0  0  0  0
   10.0622    1.3100    0.0000 C   0  0  0  0  0  0  0  0  0  0  0  0
    5.7320   -0.1900    0.0000 C   0  0  0  0  0  0  0  0  0  0  0  0
    6.5981   -1.6900    0.0000 C   0  0  0  0  0  0  0  0  0  0  0  0
    4.0000    2.8100    0.0000 C   0  0  3  0  0  0  0  0  0  0  0  0
    5.7320    0.8100    0.0000 C   0  0  0  0  0  0  0  0  0  0  0  0
   10.0622    2.3100    0.0000 C   0  0  0  0  0  0  0  0  0  0  0  0
    4.8660   -0.6900    0.0000 C   0  0  0  0  0  0  0  0  0  0  0  0
    2.5000    1.9440    0.0000 C   0  0  0  0  0  0  0  0  0  0  0  0
    3.5000    1.9440    0.0000 C   0  0  0  0  0  0  0  0  0  0  0  0
    2.0000    2.8100    0.0000 C   0  0  0  0  0  0  0  0  0  0  0  0
    5.7320   -2.1900    0.0000 C   0  0  0  0  0  0  0  0  0  0  0  0
    3.5000    3.6760    0.0000 C   0  0  0  0  0  0  0  0  0  0  0  0
    4.8660    2.3100    0.0000 C   0  0  0  0  0  0  0  0  0  0  0  0
    4.8660   -1.6900    0.0000 C   0  0  0  0  0  0  0  0  0  0  0  0
    2.5000    3.6760    0.0000 C   0  0  0  0  0  0  0  0  0  0  0  0
   10.9282    2.8100    0.0000 C   0  0  0  0  0  0  0  0  0  0  0  0
    9.1962    2.8100    0.0000 C   0  0  0  0  0  0  0  0  0  0  0  0
   10.9282    3.8100    0.0000 C   0  0  0  0  0  0  0  0  0  0  0  0
    9.1962    3.8100    0.0000 C   0  0  0  0  0  0  0  0  0  0  0  0
   10.0622    4.3100    0.0000 C   0  0  0  0  0  0  0  0  0  0  0  0
   10.0622   -0.0700    0.0000 H   0  0  0  0  0  0  0  0  0  0  0  0
   10.0622   -2.3100    0.0000 H   0  0  0  0  0  0  0  0  0  0  0  0
    9.7331    0.1200    0.0000 H   0  0  0  0  0  0  0  0  0  0  0  0
    8.6592   -2.5000    0.0000 H   0  0  0  0  0  0  0  0  0  0  0  0
    7.7932   -1.0000    0.0000 H   0  0  0  0  0  0  0  0  0  0  0  0
    8.5856   -3.0823    0.0000 H   0  0  0  0  0  0  0  0  0  0  0  0
    8.9841   -3.7726    0.0000 H   0  0  0  0  0  0  0  0  0  0  0  0
   11.4651   -0.5000    0.0000 H   0  0  0  0  0  0  0  0  0  0  0  0
   11.4651   -1.8800    0.0000 H   0  0  0  0  0  0  0  0  0  0  0  0
   10.0622   -4.3100    0.0000 H   0  0  0  0  0  0  0  0  0  0  0  0
    7.1350   -2.0000    0.0000 H   0  0  0  0  0  0  0  0  0  0  0  0
    6.3426    0.7023    0.0000 H   0  0  0  0  0  0  0  0  0  0  0  0
    5.9441    1.3926    0.0000 H   0  0  0  0  0  0  0  0  0  0  0  0
    4.3291   -0.3800    0.0000 H   0  0  0  0  0  0  0  0  0  0  0  0
    1.9174    1.7319    0.0000 H   0  0  0  0  0  0  0  0  0  0  0  0
    2.6077    1.3334    0.0000 H   0  0  0  0  0  0  0  0  0  0  0  0
    1.5250    3.2085    0.0000 H   0  0  0  0  0  0  0  0  0  0  0  0
    1.5250    2.4115    0.0000 H   0  0  0  0  0  0  0  0  0  0  0  0
    3.8100    4.2130    0.0000 H   0  0  0  0  0  0  0  0  0  0  0  0
    5.7320   -2.8100    0.0000 H   0  0  0  0  0  0  0  0  0  0  0  0
    4.3291   -2.0000    0.0000 H   0  0  0  0  0  0  0  0  0  0  0  0
    2.1900    4.2130    0.0000 H   0  0  0  0  0  0  0  0  0  0  0  0
   11.4651    2.5000    0.0000 H   0  0  0  0  0  0  0  0  0  0  0  0
    8.6592    2.5000    0.0000 H   0  0  0  0  0  0  0  0  0  0  0  0
    4.8660    3.9300    0.0000 H   0  0  0  0  0  0  0  0  0  0  0  0
   11.4651    4.1200    0.0000 H   0  0  0  0  0  0  0  0  0  0  0  0
    8.6592    4.1200    0.0000 H   0  0  0  0  0  0  0  0  0  0  0  0
   10.0622    4.9300    0.0000 H   0  0  0  0  0  0  0  0  0  0  0  0
  1 15  1  0  0  0  0
  1 16  1  0  0  0  0
 14  2  1  6  0  0  0
  2 19  1  0  0  0  0
 16  3  1  1  0  0  0
  3 18  1  0  0  0  0
 12  4  1  1  0  0  0
  4 46  1  0  0  0  0
 13  5  1  6  0  0  0
  5 47  1  0  0  0  0
  6 17  1  0  0  0  0
  6 48  1  0  0  0  0
  7 23  1  0  0  0  0
  7 31  1  0  0  0  0
  8 19  2  0  0  0  0
  9 22  1  0  0  0  0
  9 63  1  0  0  0  0
 10 27  2  0  0  0  0
 11 31  2  0  0  0  0
 12 13  1  0  0  0  0
 12 14  1  0  0  0  0
 12 39  1  0  0  0  0
 13 15  1  0  0  0  0
 13 40  1  0  0  0  0
 14 16  1  0  0  0  0
 14 41  1  0  0  0  0
 15 17  1  1  0  0  0
 15 42  1  0  0  0  0
 16 43  1  0  0  0  0
 17 44  1  0  0  0  0
 17 45  1  0  0  0  0
 18 20  1  0  0  0  0
 18 21  2  0  0  0  0
 19 24  1  0  0  0  0
 20 23  1  0  0  0  0
 20 25  2  0  0  0  0
 21 29  1  0  0  0  0
 21 49  1  0  0  0  0
 22 27  1  0  0  0  0
 22 30  1  0  0  0  0
 22 31  1  0  0  0  0
 23 50  1  0  0  0  0
 23 51  1  0  0  0  0
 24 34  2  0  0  0  0
 24 35  1  0  0  0  0
 25 32  1  0  0  0  0
 25 52  1  0  0  0  0
 26 27  1  0  0  0  0
 26 28  1  0  0  0  0
 26 53  1  0  0  0  0
 26 54  1  0  0  0  0
 28 33  1  0  0  0  0
 28 55  1  0  0  0  0
 28 56  1  0  0  0  0
 29 32  2  0  0  0  0
 29 58  1  0  0  0  0
 30 33  2  0  0  0  0
 30 57  1  0  0  0  0
 32 59  1  0  0  0  0
 33 60  1  0  0  0  0
 34 36  1  0  0  0  0
 34 61  1  0  0  0  0
 35 37  2  0  0  0  0
 35 62  1  0  0  0  0
 36 38  2  0  0  0  0
 36 64  1  0  0  0  0
 37 38  1  0  0  0  0
 37 65  1  0  0  0  0
 38 66  1  0  0  0  0
M  END
> <PUBCHEM_COMPOUND_CID>
442544

> <PUBCHEM_COMPOUND_CANONICALIZED>
1

> <PUBCHEM_CACTVS_COMPLEXITY>
869

> <PUBCHEM_CACTVS_HBOND_ACCEPTOR>
11

> <PUBCHEM_CACTVS_HBOND_DONOR>
4

> <PUBCHEM_CACTVS_ROTATABLE_BOND>
10

> <PUBCHEM_CACTVS_SUBSKEYS>
AAADceB4PAAAAAAAAAAAAAAAAAAAAAAAAAA0YIEAAAAAAAABQAAAGgAACAAADFSwmAMwDoAABgCIAqDSCAICCAAkIAAIiAFGCMgdNzaMNRqieSCl4BEPuYfI6CyOAAAAAAAIAAAAAAAAABAAAAAAAAAAAA==

> <PUBCHEM_IUPAC_OPENEYE_NAME>
[(2S,3R,4S,5S,6R)-4,5-dihydroxy-6-(hydroxymethyl)-2-[2-[(1-hydroxy-6-oxo-cyclohex-2-ene-1-carbonyl)oxymethyl]phenoxy]tetrahydropyran-3-yl] benzoate

> <PUBCHEM_IUPAC_CAS_NAME>
benzoic acid [(2S,3R,4S,5S,6R)-4,5-dihydroxy-6-(hydroxymethyl)-2-[2-[[(1-hydroxy-6-oxo-1-cyclohex-2-enyl)-oxomethoxy]methyl]phenoxy]-3-oxanyl] ester

> <PUBCHEM_IUPAC_NAME>
[(2S,3R,4S,5S,6R)-4,5-dihydroxy-6-(hydroxymethyl)-2-[2-[(1-hydroxy-6-oxocyclohex-2-ene-1-carbonyl)oxymethyl]phenoxy]oxan-3-yl] benzoate

> <PUBCHEM_IUPAC_SYSTEMATIC_NAME>
[(2S,3R,4S,5S,6R)-6-(hydroxymethyl)-4,5-bis(oxidanyl)-2-[2-[(1-oxidanyl-6-oxidanylidene-cyclohex-2-en-1-yl)carbonyloxymethyl]phenoxy]oxan-3-yl] benzoate

> <PUBCHEM_IUPAC_TRADITIONAL_NAME>
benzoic acid [(2S,3R,4S,5S,6R)-4,5-dihydroxy-2-[2-[(1-hydroxy-6-keto-cyclohex-2-ene-1-carbonyl)oxymethyl]phenoxy]-6-methylol-tetrahydropyran-3-yl] ester

> <PUBCHEM_IUPAC_INCHI>
InChI=1S/C27H28O11/c28-14-19-21(30)22(31)23(38-24(32)16-8-2-1-3-9-16)25(37-19)36-18-11-5-4-10-17(18)15-35-26(33)27(34)13-7-6-12-20(27)29/h1-5,7-11,13,19,21-23,25,28,30-31,34H,6,12,14-15H2/t19-,21-,22+,23-,25-,27?/m1/s1

> <PUBCHEM_IUPAC_INCHIKEY>
RCKCYCDBDYUIGM-LFMHJWGUSA-N

> <PUBCHEM_XLOGP3_AA>
1.7

> <PUBCHEM_EXACT_MASS>
528.163162

> <PUBCHEM_MOLECULAR_FORMULA>
C27H28O11

> <PUBCHEM_MOLECULAR_WEIGHT>
528.50462

> <PUBCHEM_OPENEYE_CAN_SMILES>
C1CC(=O)C(C=C1)(C(=O)OCC2=CC=CC=C2OC3C(C(C(C(O3)CO)O)O)OC(=O)C4=CC=CC=C4)O

> <PUBCHEM_OPENEYE_ISO_SMILES>
C1CC(=O)C(C=C1)(C(=O)OCC2=CC=CC=C2O[C@H]3[C@@H]([C@H]([C@@H]([C@H](O3)CO)O)O)OC(=O)C4=CC=CC=C4)O

> <PUBCHEM_CACTVS_TPSA>
169

> <PUBCHEM_MONOISOTOPIC_WEIGHT>
528.163162

> <PUBCHEM_TOTAL_CHARGE>
0

> <PUBCHEM_HEAVY_ATOM_COUNT>
38

> <PUBCHEM_ATOM_DEF_STEREO_COUNT>
5

> <PUBCHEM_ATOM_UDEF_STEREO_COUNT>
1

> <PUBCHEM_BOND_DEF_STEREO_COUNT>
0

> <PUBCHEM_BOND_UDEF_STEREO_COUNT>
0

> <PUBCHEM_ISOTOPIC_ATOM_COUNT>
0

> <PUBCHEM_COMPONENT_COUNT>
1

> <PUBCHEM_CACTVS_TAUTO_COUNT>
2

> <PUBCHEM_COORDINATE_TYPE>
1
5
255

> <PUBCHEM_BONDANNOTATIONS>
15  17  5
18  20  8
18  21  8
14  2  6
20  25  8
21  29  8
24  34  8
24  35  8
25  32  8
29  32  8
16  3  5
34  36  8
35  37  8
36  38  8
37  38  8
12  4  5
13  5  6
22  9  3

$$$$

