6032
  -OEChem-07051212462D

 69 71  0     1  0  0  0  0  0999 V2000
    7.0420    2.2785    0.0000 O   0  0  0  0  0  0  0  0  0  0  0  0
    5.3100   -0.7215    0.0000 O   0  0  0  0  0  0  0  0  0  0  0  0
    5.3100    1.2785    0.0000 O   0  0  0  0  0  0  0  0  0  0  0  0
    5.3100    2.2785    0.0000 O   0  0  0  0  0  0  0  0  0  0  0  0
    5.3100   -2.4535    0.0000 O   0  0  0  0  0  0  0  0  0  0  0  0
    7.0420    4.2785    0.0000 O   0  0  0  0  0  0  0  0  0  0  0  0
    3.3100   -0.7214    0.0000 O   0  0  0  0  0  0  0  0  0  0  0  0
    3.5779    4.2785    0.0000 O   0  0  0  0  0  0  0  0  0  0  0  0
    2.3100   -2.4536    0.0000 O   0  0  0  0  0  0  0  0  0  0  0  0
    3.3101   -4.1856    0.0000 O   0  0  0  0  0  0  0  0  0  0  0  0
    2.7119    2.7785    0.0000 O   0  0  0  0  0  0  0  0  0  0  0  0
    8.7741    1.2785    0.0000 N   0  0  0  0  0  0  0  0  0  0  0  0
    7.5421   -1.5874    0.0000 N   0  0  0  0  0  0  0  0  0  0  0  0
    5.3100    5.2785    0.0000 N   0  0  0  0  0  0  0  0  0  0  0  0
    4.8100   -5.0516    0.0000 N   0  0  0  0  0  0  0  0  0  0  0  0
    7.0420    1.2785    0.0000 C   0  0  2  0  0  0  0  0  0  0  0  0
    6.1760   -0.2215    0.0000 C   0  0  1  0  0  0  0  0  0  0  0  0
    6.1760    0.7785    0.0000 C   0  0  2  0  0  0  0  0  0  0  0  0
    7.9080    0.7785    0.0000 C   0  0  1  0  0  0  0  0  0  0  0  0
    7.0420   -0.7215    0.0000 C   0  0  2  0  0  0  0  0  0  0  0  0
    7.9080   -0.2215    0.0000 C   0  0  0  0  0  0  0  0  0  0  0  0
    6.1760    2.7785    0.0000 C   0  0  1  0  0  0  0  0  0  0  0  0
    4.8101   -1.5875    0.0000 C   0  0  1  0  0  0  0  0  0  0  0  0
    6.1760    3.7785    0.0000 C   0  0  1  0  0  0  0  0  0  0  0  0
    5.3100    4.2785    0.0000 C   0  0  2  0  0  0  0  0  0  0  0  0
    3.8100   -1.5875    0.0000 C   0  0  1  0  0  0  0  0  0  0  0  0
    4.4440    3.7785    0.0000 C   0  0  1  0  0  0  0  0  0  0  0  0
    3.3100   -2.4536    0.0000 C   0  0  2  0  0  0  0  0  0  0  0  0
    4.4440    2.7785    0.0000 C   0  0  1  0  0  0  0  0  0  0  0  0
    3.8101   -3.3196    0.0000 C   0  0  1  0  0  0  0  0  0  0  0  0
    4.8100   -3.3195    0.0000 C   0  0  1  0  0  0  0  0  0  0  0  0
    3.5779    2.2785    0.0000 C   0  0  0  0  0  0  0  0  0  0  0  0
    5.3100   -4.1856    0.0000 C   0  0  0  0  0  0  0  0  0  0  0  0
    7.5790    1.5885    0.0000 H   0  0  0  0  0  0  0  0  0  0  0  0
    6.1760   -0.8415    0.0000 H   0  0  0  0  0  0  0  0  0  0  0  0
    5.6391    0.4685    0.0000 H   0  0  0  0  0  0  0  0  0  0  0  0
    8.4450    0.4685    0.0000 H   0  0  0  0  0  0  0  0  0  0  0  0
    6.6036   -1.1599    0.0000 H   0  0  0  0  0  0  0  0  0  0  0  0
    8.1201   -0.8041    0.0000 H   0  0  0  0  0  0  0  0  0  0  0  0
    8.5186   -0.1138    0.0000 H   0  0  0  0  0  0  0  0  0  0  0  0
    6.1760    2.1585    0.0000 H   0  0  0  0  0  0  0  0  0  0  0  0
    4.5000   -1.0506    0.0000 H   0  0  0  0  0  0  0  0  0  0  0  0
    6.7129    3.4685    0.0000 H   0  0  0  0  0  0  0  0  0  0  0  0
    5.8469    4.5885    0.0000 H   0  0  0  0  0  0  0  0  0  0  0  0
    3.1900   -1.5875    0.0000 H   0  0  0  0  0  0  0  0  0  0  0  0
    3.9070    3.4685    0.0000 H   0  0  0  0  0  0  0  0  0  0  0  0
    3.0000   -2.9905    0.0000 H   0  0  0  0  0  0  0  0  0  0  0  0
    4.4440    2.1585    0.0000 H   0  0  0  0  0  0  0  0  0  0  0  0
    9.3110    0.9685    0.0000 H   0  0  0  0  0  0  0  0  0  0  0  0
    8.7741    1.8985    0.0000 H   0  0  0  0  0  0  0  0  0  0  0  0
    8.1620   -1.5875    0.0000 H   0  0  0  0  0  0  0  0  0  0  0  0
    7.2321   -2.1244    0.0000 H   0  0  0  0  0  0  0  0  0  0  0  0
    4.1201   -3.8565    0.0000 H   0  0  0  0  0  0  0  0  0  0  0  0
    5.4300   -3.3195    0.0000 H   0  0  0  0  0  0  0  0  0  0  0  0
    4.7730    0.9685    0.0000 H   0  0  0  0  0  0  0  0  0  0  0  0
    3.1794    1.8036    0.0000 H   0  0  0  0  0  0  0  0  0  0  0  0
    3.9764    1.8036    0.0000 H   0  0  0  0  0  0  0  0  0  0  0  0
    5.7849   -4.5841    0.0000 H   0  0  0  0  0  0  0  0  0  0  0  0
    5.7849   -3.7870    0.0000 H   0  0  0  0  0  0  0  0  0  0  0  0
    4.7730    5.5885    0.0000 H   0  0  0  0  0  0  0  0  0  0  0  0
    5.8469    5.5885    0.0000 H   0  0  0  0  0  0  0  0  0  0  0  0
    7.0420    4.8985    0.0000 H   0  0  0  0  0  0  0  0  0  0  0  0
    2.6900   -0.7214    0.0000 H   0  0  0  0  0  0  0  0  0  0  0  0
    3.5779    4.8985    0.0000 H   0  0  0  0  0  0  0  0  0  0  0  0
    2.0000   -2.9905    0.0000 H   0  0  0  0  0  0  0  0  0  0  0  0
    2.6900   -4.1856    0.0000 H   0  0  0  0  0  0  0  0  0  0  0  0
    5.1200   -5.5885    0.0000 H   0  0  0  0  0  0  0  0  0  0  0  0
    4.1900   -5.0516    0.0000 H   0  0  0  0  0  0  0  0  0  0  0  0
    2.1750    2.4685    0.0000 H   0  0  0  0  0  0  0  0  0  0  0  0
 16  1  1  1  0  0  0
 22  1  1  1  0  0  0
 17  2  1  1  0  0  0
 23  2  1  1  0  0  0
 18  3  1  6  0  0  0
  3 55  1  0  0  0  0
  4 22  1  0  0  0  0
  4 29  1  0  0  0  0
  5 23  1  0  0  0  0
  5 31  1  0  0  0  0
 24  6  1  1  0  0  0
  6 62  1  0  0  0  0
 26  7  1  1  0  0  0
  7 63  1  0  0  0  0
 27  8  1  1  0  0  0
  8 64  1  0  0  0  0
 28  9  1  6  0  0  0
  9 65  1  0  0  0  0
 30 10  1  1  0  0  0
 10 66  1  0  0  0  0
 11 32  1  0  0  0  0
 11 69  1  0  0  0  0
 19 12  1  6  0  0  0
 12 49  1  0  0  0  0
 12 50  1  0  0  0  0
 20 13  1  6  0  0  0
 13 51  1  0  0  0  0
 13 52  1  0  0  0  0
 25 14  1  6  0  0  0
 14 60  1  0  0  0  0
 14 61  1  0  0  0  0
 15 33  1  0  0  0  0
 15 67  1  0  0  0  0
 15 68  1  0  0  0  0
 16 18  1  0  0  0  0
 16 19  1  0  0  0  0
 16 34  1  0  0  0  0
 17 18  1  0  0  0  0
 17 20  1  0  0  0  0
 17 35  1  0  0  0  0
 18 36  1  0  0  0  0
 19 21  1  0  0  0  0
 19 37  1  0  0  0  0
 20 21  1  0  0  0  0
 20 38  1  0  0  0  0
 21 39  1  0  0  0  0
 21 40  1  0  0  0  0
 22 24  1  0  0  0  0
 22 41  1  0  0  0  0
 23 26  1  0  0  0  0
 23 42  1  0  0  0  0
 24 25  1  0  0  0  0
 24 43  1  0  0  0  0
 25 27  1  0  0  0  0
 25 44  1  0  0  0  0
 26 28  1  0  0  0  0
 26 45  1  0  0  0  0
 27 29  1  0  0  0  0
 27 46  1  0  0  0  0
 28 30  1  0  0  0  0
 28 47  1  0  0  0  0
 29 32  1  6  0  0  0
 29 48  1  0  0  0  0
 30 31  1  0  0  0  0
 30 53  1  0  0  0  0
 31 33  1  6  0  0  0
 31 54  1  0  0  0  0
 32 56  1  0  0  0  0
 32 57  1  0  0  0  0
 33 58  1  0  0  0  0
 33 59  1  0  0  0  0
M  END
> <PUBCHEM_COMPOUND_CID>
6032

> <PUBCHEM_COMPOUND_CANONICALIZED>
1

> <PUBCHEM_CACTVS_COMPLEXITY>
638

> <PUBCHEM_CACTVS_HBOND_ACCEPTOR>
15

> <PUBCHEM_CACTVS_HBOND_DONOR>
11

> <PUBCHEM_CACTVS_ROTATABLE_BOND>
6

> <PUBCHEM_CACTVS_SUBSKEYS>
AAADcfB7vAAAAAAAAAAAAAAAAAAAAAAAAAA0SIAAAAAAAAAAAAAAHgAQCAAACDzxgAcACABABgAAAAAAAAAAAAAAAAAAAIAAAAATEAIAwAAjQAAHEAAHAAHwcA0AAAAAAAAAAAAAgAAUCACgAAAAAAAAAA==

> <PUBCHEM_IUPAC_OPENEYE_NAME>
(2R,3S,4S,5R,6R)-2-(aminomethyl)-6-[(1R,2R,3S,4R,6S)-4,6-diamino-3-[(2S,3R,4S,5S,6R)-4-amino-3,5-dihydroxy-6-(hydroxymethyl)tetrahydropyran-2-yl]oxy-2-hydroxy-cyclohexoxy]tetrahydropyran-3,4,5-triol

> <PUBCHEM_IUPAC_CAS_NAME>
(2R,3S,4S,5R,6R)-2-(aminomethyl)-6-[(1R,2R,3S,4R,6S)-4,6-diamino-3-[[(2S,3R,4S,5S,6R)-4-amino-3,5-dihydroxy-6-(hydroxymethyl)-2-oxanyl]oxy]-2-hydroxycyclohexyl]oxyoxane-3,4,5-triol

> <PUBCHEM_IUPAC_NAME>
(2R,3S,4S,5R,6R)-2-(aminomethyl)-6-[(1R,2R,3S,4R,6S)-4,6-diamino-3-[(2S,3R,4S,5S,6R)-4-amino-3,5-dihydroxy-6-(hydroxymethyl)oxan-2-yl]oxy-2-hydroxycyclohexyl]oxyoxane-3,4,5-triol

> <PUBCHEM_IUPAC_SYSTEMATIC_NAME>
(2R,3S,4S,5R,6R)-2-(aminomethyl)-6-[(1R,2R,3S,4R,6S)-4,6-bis(azanyl)-3-[(2S,3R,4S,5S,6R)-4-azanyl-6-(hydroxymethyl)-3,5-bis(oxidanyl)oxan-2-yl]oxy-2-oxidanyl-cyclohexyl]oxy-oxane-3,4,5-triol

> <PUBCHEM_IUPAC_TRADITIONAL_NAME>
(2R,3S,4S,5R,6R)-2-(aminomethyl)-6-[(1R,2R,3S,4R,6S)-4,6-diamino-3-[(2S,3R,4S,5S,6R)-4-amino-3,5-dihydroxy-6-methylol-tetrahydropyran-2-yl]oxy-2-hydroxy-cyclohexoxy]tetrahydropyran-3,4,5-triol

> <PUBCHEM_IUPAC_INCHI>
InChI=1S/C18H36N4O11/c19-2-6-10(25)12(27)13(28)18(30-6)33-16-5(21)1-4(20)15(14(16)29)32-17-11(26)8(22)9(24)7(3-23)31-17/h4-18,23-29H,1-3,19-22H2/t4-,5+,6-,7-,8+,9-,10-,11-,12+,13-,14-,15+,16-,17-,18-/m1/s1

> <PUBCHEM_IUPAC_INCHIKEY>
SBUJHOSQTJFQJX-NOAMYHISSA-N

> <PUBCHEM_XLOGP3_AA>
-6.9

> <PUBCHEM_EXACT_MASS>
484.238058

> <PUBCHEM_MOLECULAR_FORMULA>
C18H36N4O11

> <PUBCHEM_MOLECULAR_WEIGHT>
484.49864

> <PUBCHEM_OPENEYE_CAN_SMILES>
C1C(C(C(C(C1N)OC2C(C(C(C(O2)CN)O)O)O)O)OC3C(C(C(C(O3)CO)O)N)O)N

> <PUBCHEM_OPENEYE_ISO_SMILES>
C1[C@H]([C@@H]([C@H]([C@@H]([C@H]1N)O[C@@H]2[C@@H]([C@H]([C@@H]([C@H](O2)CN)O)O)O)O)O[C@@H]3[C@@H]([C@H]([C@@H]([C@H](O3)CO)O)N)O)N

> <PUBCHEM_CACTVS_TPSA>
283

> <PUBCHEM_MONOISOTOPIC_WEIGHT>
484.238058

> <PUBCHEM_TOTAL_CHARGE>
0

> <PUBCHEM_HEAVY_ATOM_COUNT>
33

> <PUBCHEM_ATOM_DEF_STEREO_COUNT>
15

> <PUBCHEM_ATOM_UDEF_STEREO_COUNT>
0

> <PUBCHEM_BOND_DEF_STEREO_COUNT>
0

> <PUBCHEM_BOND_UDEF_STEREO_COUNT>
0

> <PUBCHEM_ISOTOPIC_ATOM_COUNT>
0

> <PUBCHEM_COMPONENT_COUNT>
1

> <PUBCHEM_CACTVS_TAUTO_COUNT>
1

> <PUBCHEM_COORDINATE_TYPE>
1
5
255

> <PUBCHEM_BONDANNOTATIONS>
16  1  5
22  1  5
30  10  5
19  12  6
20  13  6
25  14  6
17  2  5
23  2  5
29  32  6
18  3  6
31  33  6
24  6  5
26  7  5
27  8  5
28  9  6

$$$$

