5280662
  -OEChem-07051212492D

 34 34  0     1  0  0  0  0  0999 V2000
    3.3660    0.6340    0.0000 O   0  0  0  0  0  0  0  0  0  0  0  0
    3.8660   -3.2320    0.0000 O   0  0  0  0  0  0  0  0  0  0  0  0
    5.3660    2.3660    0.0000 O   0  0  0  0  0  0  0  0  0  0  0  0
    3.0000   -0.7321    0.0000 C   0  0  0  0  0  0  0  0  0  0  0  0
    3.8660   -0.2321    0.0000 C   0  0  3  0  0  0  0  0  0  0  0  0
    3.0000   -1.7320    0.0000 C   0  0  0  0  0  0  0  0  0  0  0  0
    4.7320   -0.7321    0.0000 C   0  0  0  0  0  0  0  0  0  0  0  0
    2.0000   -0.7321    0.0000 C   0  0  0  0  0  0  0  0  0  0  0  0
    2.2340   -0.0893    0.0000 C   0  0  0  0  0  0  0  0  0  0  0  0
    3.8660   -2.2320    0.0000 C   0  0  0  0  0  0  0  0  0  0  0  0
    4.3660    0.6340    0.0000 C   0  0  0  0  0  0  0  0  0  0  0  0
    4.7320   -1.7320    0.0000 C   0  0  0  0  0  0  0  0  0  0  0  0
    5.5981   -0.2321    0.0000 C   0  0  0  0  0  0  0  0  0  0  0  0
    3.8660    1.5000    0.0000 C   0  0  0  0  0  0  0  0  0  0  0  0
    4.3660    2.3660    0.0000 C   0  0  0  0  0  0  0  0  0  0  0  0
    3.8660    3.2320    0.0000 C   0  0  0  0  0  0  0  0  0  0  0  0
    2.3894   -1.6244    0.0000 H   0  0  0  0  0  0  0  0  0  0  0  0
    2.7880   -2.3147    0.0000 H   0  0  0  0  0  0  0  0  0  0  0  0
    2.0000   -0.1121    0.0000 H   0  0  0  0  0  0  0  0  0  0  0  0
    1.3800   -0.7321    0.0000 H   0  0  0  0  0  0  0  0  0  0  0  0
    2.0000   -1.3520    0.0000 H   0  0  0  0  0  0  0  0  0  0  0  0
    2.6325    0.3857    0.0000 H   0  0  0  0  0  0  0  0  0  0  0  0
    1.7590    0.3093    0.0000 H   0  0  0  0  0  0  0  0  0  0  0  0
    1.8354   -0.5642    0.0000 H   0  0  0  0  0  0  0  0  0  0  0  0
    4.9860    0.6340    0.0000 H   0  0  0  0  0  0  0  0  0  0  0  0
    5.2690   -2.0420    0.0000 H   0  0  0  0  0  0  0  0  0  0  0  0
    2.7835    0.8461    0.0000 H   0  0  0  0  0  0  0  0  0  0  0  0
    5.9081   -0.7690    0.0000 H   0  0  0  0  0  0  0  0  0  0  0  0
    6.1350    0.0779    0.0000 H   0  0  0  0  0  0  0  0  0  0  0  0
    5.2881    0.3049    0.0000 H   0  0  0  0  0  0  0  0  0  0  0  0
    3.2460    1.5000    0.0000 H   0  0  0  0  0  0  0  0  0  0  0  0
    4.4030    3.5420    0.0000 H   0  0  0  0  0  0  0  0  0  0  0  0
    3.5560    3.7690    0.0000 H   0  0  0  0  0  0  0  0  0  0  0  0
    3.3291    2.9220    0.0000 H   0  0  0  0  0  0  0  0  0  0  0  0
  1  5  1  0  0  0  0
  1 27  1  0  0  0  0
  2 10  2  0  0  0  0
  3 15  2  0  0  0  0
  4  5  1  0  0  0  0
  4  6  1  0  0  0  0
  4  8  1  0  0  0  0
  4  9  1  0  0  0  0
  5  7  1  0  0  0  0
  5 11  1  0  0  0  0
  6 10  1  0  0  0  0
  6 17  1  0  0  0  0
  6 18  1  0  0  0  0
  7 12  2  0  0  0  0
  7 13  1  0  0  0  0
  8 19  1  0  0  0  0
  8 20  1  0  0  0  0
  8 21  1  0  0  0  0
  9 22  1  0  0  0  0
  9 23  1  0  0  0  0
  9 24  1  0  0  0  0
 10 12  1  0  0  0  0
 11 14  2  0  0  0  0
 11 25  1  0  0  0  0
 12 26  1  0  0  0  0
 13 28  1  0  0  0  0
 13 29  1  0  0  0  0
 13 30  1  0  0  0  0
 14 15  1  0  0  0  0
 14 31  1  0  0  0  0
 15 16  1  0  0  0  0
 16 32  1  0  0  0  0
 16 33  1  0  0  0  0
 16 34  1  0  0  0  0
M  END
> <PUBCHEM_COMPOUND_CID>
5280662

> <PUBCHEM_COMPOUND_CANONICALIZED>
1

> <PUBCHEM_CACTVS_COMPLEXITY>
388

> <PUBCHEM_CACTVS_HBOND_ACCEPTOR>
3

> <PUBCHEM_CACTVS_HBOND_DONOR>
1

> <PUBCHEM_CACTVS_ROTATABLE_BOND>
2

> <PUBCHEM_CACTVS_SUBSKEYS>
AAADceBwMAAAAAAAAAAAAAAAAAAAAAAAAAAgAAAAAAAAAAAAAAAAGgAACAAADkSAgAACAAAAAgCIAqBSAAAAAAAgAAAICAEAAEgABBIAAQAAUAAEgAAIEYOKiAAPgAAAAAAAAAAAAAAAAAAAAAAAAAAAAA==

> <PUBCHEM_IUPAC_OPENEYE_NAME>
4-hydroxy-3,5,5-trimethyl-4-[(E)-3-oxobut-1-enyl]cyclohex-2-en-1-one

> <PUBCHEM_IUPAC_CAS_NAME>
4-hydroxy-3,5,5-trimethyl-4-[(E)-3-oxobut-1-enyl]-1-cyclohex-2-enone

> <PUBCHEM_IUPAC_NAME>
4-hydroxy-3,5,5-trimethyl-4-[(E)-3-oxobut-1-enyl]cyclohex-2-en-1-one

> <PUBCHEM_IUPAC_SYSTEMATIC_NAME>
3,5,5-trimethyl-4-oxidanyl-4-[(E)-3-oxidanylidenebut-1-enyl]cyclohex-2-en-1-one

> <PUBCHEM_IUPAC_TRADITIONAL_NAME>
4-hydroxy-4-[(E)-3-ketobut-1-enyl]-3,5,5-trimethyl-cyclohex-2-en-1-one

> <PUBCHEM_IUPAC_INCHI>
InChI=1S/C13H18O3/c1-9-7-11(15)8-12(3,4)13(9,16)6-5-10(2)14/h5-7,16H,8H2,1-4H3/b6-5+

> <PUBCHEM_IUPAC_INCHIKEY>
JJRYPZMXNLLZFH-AATRIKPKSA-N

> <PUBCHEM_XLOGP3_AA>
0.5

> <PUBCHEM_EXACT_MASS>
222.125594

> <PUBCHEM_MOLECULAR_FORMULA>
C13H18O3

> <PUBCHEM_MOLECULAR_WEIGHT>
222.28022

> <PUBCHEM_OPENEYE_CAN_SMILES>
CC1=CC(=O)CC(C1(C=CC(=O)C)O)(C)C

> <PUBCHEM_OPENEYE_ISO_SMILES>
CC1=CC(=O)CC(C1(/C=C/C(=O)C)O)(C)C

> <PUBCHEM_CACTVS_TPSA>
54.4

> <PUBCHEM_MONOISOTOPIC_WEIGHT>
222.125594

> <PUBCHEM_TOTAL_CHARGE>
0

> <PUBCHEM_HEAVY_ATOM_COUNT>
16

> <PUBCHEM_ATOM_DEF_STEREO_COUNT>
0

> <PUBCHEM_ATOM_UDEF_STEREO_COUNT>
1

> <PUBCHEM_BOND_DEF_STEREO_COUNT>
1

> <PUBCHEM_BOND_UDEF_STEREO_COUNT>
0

> <PUBCHEM_ISOTOPIC_ATOM_COUNT>
0

> <PUBCHEM_COMPONENT_COUNT>
1

> <PUBCHEM_CACTVS_TAUTO_COUNT>
10

> <PUBCHEM_COORDINATE_TYPE>
1
5
255

> <PUBCHEM_BONDANNOTATIONS>
5  1  3

$$$$

