582809
  -OEChem-06241222443D

 44 46  0     1  0  0  0  0  0999 V2000
   -5.1941    2.8110    0.6507 O   0  0  0  0  0  0  0  0  0  0  0  0
   -3.7155    2.9450   -1.0683 O   0  0  0  0  0  0  0  0  0  0  0  0
    0.6400    0.2597    0.4907 C   0  0  1  0  0  0  0  0  0  0  0  0
    1.0476    1.6714    0.9227 C   0  0  0  0  0  0  0  0  0  0  0  0
    1.8123   -0.7083    0.7096 C   0  0  0  0  0  0  0  0  0  0  0  0
   -0.5959   -0.2101    1.2548 C   0  0  0  0  0  0  0  0  0  0  0  0
    2.2060    2.1805    0.0660 C   0  0  0  0  0  0  0  0  0  0  0  0
    3.1269   -0.1872    0.1826 C   0  0  0  0  0  0  0  0  0  0  0  0
    3.3239    1.1800   -0.0820 C   0  0  0  0  0  0  0  0  0  0  0  0
   -1.3076   -1.3188    0.5294 C   0  0  0  0  0  0  0  0  0  0  0  0
    4.1932   -1.0828    0.0090 C   0  0  0  0  0  0  0  0  0  0  0  0
    4.5723    1.6181   -0.5500 C   0  0  0  0  0  0  0  0  0  0  0  0
   -2.3079   -1.0335   -0.3922 C   0  0  0  0  0  0  0  0  0  0  0  0
   -0.9439   -2.6328    0.7990 C   0  0  0  0  0  0  0  0  0  0  0  0
   -2.7092    0.3733   -0.6920 C   0  0  0  0  0  0  0  0  0  0  0  0
    5.4322   -0.6332   -0.4465 C   0  0  0  0  0  0  0  0  0  0  0  0
    5.6209    0.7164   -0.7283 C   0  0  0  0  0  0  0  0  0  0  0  0
   -2.9540   -2.0777   -1.0541 C   0  0  0  0  0  0  0  0  0  0  0  0
   -1.5902   -3.6770    0.1370 C   0  0  0  0  0  0  0  0  0  0  0  0
   -3.8334    0.8974    0.2080 C   0  0  0  0  0  0  0  0  0  0  0  0
   -2.5952   -3.3993   -0.7894 C   0  0  0  0  0  0  0  0  0  0  0  0
   -4.2281    2.3081   -0.1568 C   0  0  0  0  0  0  0  0  0  0  0  0
    0.4194    0.2978   -0.5858 H   0  0  0  0  0  0  0  0  0  0  0  0
    1.3427    1.6656    1.9803 H   0  0  0  0  0  0  0  0  0  0  0  0
    0.2040    2.3656    0.8297 H   0  0  0  0  0  0  0  0  0  0  0  0
    1.5979   -1.6597    0.2097 H   0  0  0  0  0  0  0  0  0  0  0  0
    1.9425   -0.9136    1.7800 H   0  0  0  0  0  0  0  0  0  0  0  0
   -1.2773    0.6244    1.4473 H   0  0  0  0  0  0  0  0  0  0  0  0
   -0.3179   -0.5518    2.2617 H   0  0  0  0  0  0  0  0  0  0  0  0
    2.5907    3.1061    0.5109 H   0  0  0  0  0  0  0  0  0  0  0  0
    1.8339    2.4253   -0.9368 H   0  0  0  0  0  0  0  0  0  0  0  0
    4.0620   -2.1395    0.2291 H   0  0  0  0  0  0  0  0  0  0  0  0
    4.7332    2.6690   -0.7782 H   0  0  0  0  0  0  0  0  0  0  0  0
   -0.1689   -2.8658    1.5237 H   0  0  0  0  0  0  0  0  0  0  0  0
   -1.8496    1.0527   -0.6696 H   0  0  0  0  0  0  0  0  0  0  0  0
   -3.0439    0.4244   -1.7384 H   0  0  0  0  0  0  0  0  0  0  0  0
    6.2489   -1.3362   -0.5809 H   0  0  0  0  0  0  0  0  0  0  0  0
    6.5839    1.0677   -1.0869 H   0  0  0  0  0  0  0  0  0  0  0  0
   -3.7407   -1.8770   -1.7766 H   0  0  0  0  0  0  0  0  0  0  0  0
   -1.3122   -4.7062    0.3445 H   0  0  0  0  0  0  0  0  0  0  0  0
   -4.7211    0.2623    0.1051 H   0  0  0  0  0  0  0  0  0  0  0  0
   -3.5244    0.8899    1.2584 H   0  0  0  0  0  0  0  0  0  0  0  0
   -3.0990   -4.2125   -1.3038 H   0  0  0  0  0  0  0  0  0  0  0  0
   -5.4304    3.7320    0.4094 H   0  0  0  0  0  0  0  0  0  0  0  0
  1 22  1  0  0  0  0
  1 44  1  0  0  0  0
  2 22  2  0  0  0  0
  3  4  1  0  0  0  0
  3  5  1  0  0  0  0
  3  6  1  0  0  0  0
  3 23  1  0  0  0  0
  4  7  1  0  0  0  0
  4 24  1  0  0  0  0
  4 25  1  0  0  0  0
  5  8  1  0  0  0  0
  5 26  1  0  0  0  0
  5 27  1  0  0  0  0
  6 10  1  0  0  0  0
  6 28  1  0  0  0  0
  6 29  1  0  0  0  0
  7  9  1  0  0  0  0
  7 30  1  0  0  0  0
  7 31  1  0  0  0  0
  8  9  1  0  0  0  0
  8 11  2  0  0  0  0
  9 12  2  0  0  0  0
 10 13  1  0  0  0  0
 10 14  2  0  0  0  0
 11 16  1  0  0  0  0
 11 32  1  0  0  0  0
 12 17  1  0  0  0  0
 12 33  1  0  0  0  0
 13 15  1  0  0  0  0
 13 18  2  0  0  0  0
 14 19  1  0  0  0  0
 14 34  1  0  0  0  0
 15 20  1  0  0  0  0
 15 35  1  0  0  0  0
 15 36  1  0  0  0  0
 16 17  2  0  0  0  0
 16 37  1  0  0  0  0
 17 38  1  0  0  0  0
 18 21  1  0  0  0  0
 18 39  1  0  0  0  0
 19 21  2  0  0  0  0
 19 40  1  0  0  0  0
 20 22  1  0  0  0  0
 20 41  1  0  0  0  0
 20 42  1  0  0  0  0
 21 43  1  0  0  0  0
M  END
> <PUBCHEM_COMPOUND_CID>
582809

> <PUBCHEM_CONFORMER_RMSD>
0.8

> <PUBCHEM_CONFORMER_DIVERSEORDER>
1
86
70
103
24
42
100
2
78
108
58
114
85
99
19
87
56
33
55
40
36
54
107
76
117
102
73
106
113
45
97
68
48
109
94
67
13
74
44
66
28
101
82
84
17
112
50
89
93
27
6
80
53
90
29
38
92
79
96
35
15
64
30
83
95
37
110
21
60
25
81
72
75
105
16
57
26
32
20
63
14
62
115
8
98
61
22
39
12
18
116
59
10
23
31
11
47
71
88
3
77
49
51
5
111
104
69
65
43
4
52
46
41
7
91
9
34

> <PUBCHEM_MMFF94_PARTIAL_CHARGES>
29
1 -0.65
10 -0.14
11 -0.15
12 -0.15
13 -0.14
14 -0.15
15 0.14
16 -0.15
17 -0.15
18 -0.15
19 -0.15
2 -0.57
20 0.06
21 -0.15
22 0.66
32 0.15
33 0.15
34 0.15
37 0.15
38 0.15
39 0.15
40 0.15
43 0.15
44 0.5
5 0.14
6 0.14
7 0.14
8 -0.14
9 -0.14

> <PUBCHEM_EFFECTIVE_ROTOR_COUNT>
5.8

> <PUBCHEM_PHARMACOPHORE_FEATURES>
6
1 1 acceptor
1 2 acceptor
3 1 2 22 anion
6 10 13 14 18 19 21 rings
6 3 4 5 7 8 9 rings
6 8 9 11 12 16 17 rings

> <PUBCHEM_HEAVY_ATOM_COUNT>
22

> <PUBCHEM_ATOM_DEF_STEREO_COUNT>
0

> <PUBCHEM_ATOM_UDEF_STEREO_COUNT>
1

> <PUBCHEM_BOND_DEF_STEREO_COUNT>
0

> <PUBCHEM_BOND_UDEF_STEREO_COUNT>
0

> <PUBCHEM_ISOTOPIC_ATOM_COUNT>
0

> <PUBCHEM_COMPONENT_COUNT>
1

> <PUBCHEM_CACTVS_TAUTO_COUNT>
1

> <PUBCHEM_CONFORMER_ID>
0008E49900000001

> <PUBCHEM_MMFF94_ENERGY>
52.8493

> <PUBCHEM_FEATURE_SELFOVERLAP>
30.525

> <PUBCHEM_SHAPE_FINGERPRINT>
10165383 225 18337388357420902521
107951 10 18409444812823109447
11014199 57 17982729671373058813
12107183 9 18197787806864281914
12173636 292 18339371768616779911
12788726 201 18268160755735937275
12954195 1 18187652392926016831
13135754 10 17273672305275260787
13690498 29 18119234078906669542
13944108 23 17404876233191707901
14117953 113 18047756194080295070
14251751 93 18411141337989773899
14251757 5 18408601461402413120
14347332 77 18263653857225543143
14713325 29 18342170038816249251
14790565 3 18193552491831271449
18785283 64 17907862048280765315
20775438 99 16888406605278871743
20871999 31 18409732824591935294
21307412 95 17825083034840600294
21756936 100 17632574950605756272
221357 26 18263929830248595903
221490 88 18049438141853676346
22393880 68 18335699395859190838
23402655 69 18342454833955134004
23559900 14 18047481032219374624
350125 39 18410573981647878755
3610482 184 18058713733409075228
4280585 95 18046615975143144254
44062 13 18333729087685549718
5283173 99 18409452449554159576
543358 83 18342457067327416128
559249 180 18408887364991689258
633830 44 17489583433949894952
7399639 24 17394742674203989440
9709674 26 18121504557395818522

> <PUBCHEM_SHAPE_MULTIPOLES>
441.01
11.13
3.92
1.02
8.48
0.93
-0.02
-5.32
2.92
-6.21
0.35
-0.28
0.05
-0.41

> <PUBCHEM_SHAPE_SELFOVERLAP>
943.097

> <PUBCHEM_SHAPE_VOLUME>
242.2

> <PUBCHEM_COORDINATE_TYPE>
2
5
10

$$$$

