854294
  -OEChem-06241222473D

 45 47  0     1  0  0  0  0  0999 V2000
   -4.5727   -3.1550   -0.8107 F   0  0  0  0  0  0  0  0  0  0  0  0
    0.4484    2.2170    0.7020 O   0  0  0  0  0  0  0  0  0  0  0  0
    4.2648   -0.5861    0.0086 N   0  0  0  0  0  0  0  0  0  0  0  0
   -1.1206    3.9053    0.8115 N   0  0  0  0  0  0  0  0  0  0  0  0
   -4.0472    2.7405   -0.9644 N   0  0  0  0  0  0  0  0  0  0  0  0
   -1.3110    0.4589   -0.7811 C   0  0  1  0  0  0  0  0  0  0  0  0
    0.1656    0.1834   -0.5956 C   0  0  0  0  0  0  0  0  0  0  0  0
    0.9521    1.0677    0.1456 C   0  0  0  0  0  0  0  0  0  0  0  0
    2.8940   -0.3268   -0.1974 C   0  0  0  0  0  0  0  0  0  0  0  0
   -2.1381   -0.5671   -0.0627 C   0  0  0  0  0  0  0  0  0  0  0  0
   -1.6938    1.8593   -0.3282 C   0  0  0  0  0  0  0  0  0  0  0  0
    0.7660   -0.9562   -1.1515 C   0  0  0  0  0  0  0  0  0  0  0  0
    2.3096    0.8126    0.3523 C   0  0  0  0  0  0  0  0  0  0  0  0
    2.1237   -1.2092   -0.9521 C   0  0  0  0  0  0  0  0  0  0  0  0
   -0.8358    2.6421    0.3663 C   0  0  0  0  0  0  0  0  0  0  0  0
    4.8859   -1.7618   -0.5560 C   0  0  0  0  0  0  0  0  0  0  0  0
    5.0794    0.3214    0.7826 C   0  0  0  0  0  0  0  0  0  0  0  0
   -2.9855   -1.3976   -0.7871 C   0  0  0  0  0  0  0  0  0  0  0  0
   -2.0494   -0.6766    1.3203 C   0  0  0  0  0  0  0  0  0  0  0  0
    4.5993   -2.9632    0.3221 C   0  0  0  0  0  0  0  0  0  0  0  0
    5.5034    1.4920   -0.0814 C   0  0  0  0  0  0  0  0  0  0  0  0
   -3.7546   -2.3506   -0.1195 C   0  0  0  0  0  0  0  0  0  0  0  0
   -2.8185   -1.6295    1.9881 C   0  0  0  0  0  0  0  0  0  0  0  0
   -2.9940    2.3462   -0.6797 C   0  0  0  0  0  0  0  0  0  0  0  0
   -3.6711   -2.4666    1.2681 C   0  0  0  0  0  0  0  0  0  0  0  0
   -1.4986    0.4122   -1.8643 H   0  0  0  0  0  0  0  0  0  0  0  0
    0.1776   -1.6548   -1.7413 H   0  0  0  0  0  0  0  0  0  0  0  0
    2.8596    1.5356    0.9451 H   0  0  0  0  0  0  0  0  0  0  0  0
    2.5170   -2.1088   -1.4119 H   0  0  0  0  0  0  0  0  0  0  0  0
    4.5944   -1.9385   -1.5974 H   0  0  0  0  0  0  0  0  0  0  0  0
    5.9746   -1.6265   -0.6015 H   0  0  0  0  0  0  0  0  0  0  0  0
    4.5898    0.6513    1.7058 H   0  0  0  0  0  0  0  0  0  0  0  0
    5.9866   -0.1910    1.1289 H   0  0  0  0  0  0  0  0  0  0  0  0
   -3.0607   -1.3189   -1.8680 H   0  0  0  0  0  0  0  0  0  0  0  0
   -1.3933   -0.0378    1.9044 H   0  0  0  0  0  0  0  0  0  0  0  0
    4.9750   -2.8028    1.3388 H   0  0  0  0  0  0  0  0  0  0  0  0
    3.5328   -3.1917    0.4006 H   0  0  0  0  0  0  0  0  0  0  0  0
    5.0995   -3.8497   -0.0813 H   0  0  0  0  0  0  0  0  0  0  0  0
    6.0676    1.1486   -0.9558 H   0  0  0  0  0  0  0  0  0  0  0  0
    4.6585    2.0810   -0.4488 H   0  0  0  0  0  0  0  0  0  0  0  0
    6.1522    2.1636    0.4902 H   0  0  0  0  0  0  0  0  0  0  0  0
   -2.7536   -1.7202    3.0684 H   0  0  0  0  0  0  0  0  0  0  0  0
   -2.0221    4.3295    0.6360 H   0  0  0  0  0  0  0  0  0  0  0  0
   -0.4113    4.4119    1.3259 H   0  0  0  0  0  0  0  0  0  0  0  0
   -4.2698   -3.2089    1.7876 H   0  0  0  0  0  0  0  0  0  0  0  0
  1 22  1  0  0  0  0
  2  8  1  0  0  0  0
  2 15  1  0  0  0  0
  3  9  1  0  0  0  0
  3 16  1  0  0  0  0
  3 17  1  0  0  0  0
  4 15  1  0  0  0  0
  4 43  1  0  0  0  0
  4 44  1  0  0  0  0
  5 24  3  0  0  0  0
  6  7  1  0  0  0  0
  6 10  1  0  0  0  0
  6 11  1  0  0  0  0
  6 26  1  0  0  0  0
  7  8  2  0  0  0  0
  7 12  1  0  0  0  0
  8 13  1  0  0  0  0
  9 13  2  0  0  0  0
  9 14  1  0  0  0  0
 10 18  2  0  0  0  0
 10 19  1  0  0  0  0
 11 15  2  0  0  0  0
 11 24  1  0  0  0  0
 12 14  2  0  0  0  0
 12 27  1  0  0  0  0
 13 28  1  0  0  0  0
 14 29  1  0  0  0  0
 16 20  1  0  0  0  0
 16 30  1  0  0  0  0
 16 31  1  0  0  0  0
 17 21  1  0  0  0  0
 17 32  1  0  0  0  0
 17 33  1  0  0  0  0
 18 22  1  0  0  0  0
 18 34  1  0  0  0  0
 19 23  2  0  0  0  0
 19 35  1  0  0  0  0
 20 36  1  0  0  0  0
 20 37  1  0  0  0  0
 20 38  1  0  0  0  0
 21 39  1  0  0  0  0
 21 40  1  0  0  0  0
 21 41  1  0  0  0  0
 22 25  2  0  0  0  0
 23 25  1  0  0  0  0
 23 42  1  0  0  0  0
 25 45  1  0  0  0  0
M  END
> <PUBCHEM_COMPOUND_CID>
854294

> <PUBCHEM_CONFORMER_RMSD>
0.8

> <PUBCHEM_CONFORMER_DIVERSEORDER>
2
5
7
6
3
8
4
1

> <PUBCHEM_MMFF94_PARTIAL_CHARGES>
32
1 -0.19
10 -0.14
11 -0.07
12 -0.15
13 -0.15
14 -0.15
15 0.18
16 0.37
17 0.37
18 -0.15
19 -0.15
2 -0.16
22 0.19
23 -0.15
24 0.49
25 -0.15
27 0.15
28 0.15
29 0.15
3 -0.84
34 0.15
35 0.15
4 -0.9
42 0.15
43 0.4
44 0.4
45 0.15
5 -0.56
6 0.43
7 -0.14
8 0.08
9 0.1

> <PUBCHEM_EFFECTIVE_ROTOR_COUNT>
4.4

> <PUBCHEM_PHARMACOPHORE_FEATURES>
8
1 2 acceptor
1 3 cation
1 4 cation
1 4 donor
1 5 acceptor
6 10 18 19 22 23 25 rings
6 2 6 7 8 11 15 rings
6 7 8 9 12 13 14 rings

> <PUBCHEM_HEAVY_ATOM_COUNT>
25

> <PUBCHEM_ATOM_DEF_STEREO_COUNT>
1

> <PUBCHEM_ATOM_UDEF_STEREO_COUNT>
0

> <PUBCHEM_BOND_DEF_STEREO_COUNT>
0

> <PUBCHEM_BOND_UDEF_STEREO_COUNT>
0

> <PUBCHEM_ISOTOPIC_ATOM_COUNT>
0

> <PUBCHEM_COMPONENT_COUNT>
1

> <PUBCHEM_CACTVS_TAUTO_COUNT>
2

> <PUBCHEM_CONFORMER_ID>
000D091600000002

> <PUBCHEM_MMFF94_ENERGY>
75.9325

> <PUBCHEM_FEATURE_SELFOVERLAP>
40.621

> <PUBCHEM_SHAPE_FINGERPRINT>
10906281 52 18042114526465934133
11405975 8 18268147733563251026
11796584 16 17417258619410037819
12035758 1 18337374033826088849
12293681 160 17756163519718347961
12363563 72 18269547261014397571
12553582 1 18193534719324821591
12788726 201 18271531901219885378
13140716 1 18334292071851256473
13224815 77 18187361069441369428
13544653 18 18341327803965600790
13583140 156 18187093862309066728
14787075 74 18198622134383822722
14790565 3 17113256642126758932
14844126 61 18338242672890681531
17492 89 18410294748644694126
1813 80 18116413869855853629
19591789 44 16898766091649954220
20681677 76 18408325505980631352
21033648 144 18269002045561392140
21065198 57 18266740367211694454
221490 88 18336824290928555678
22182313 1 18040704901024013524
23557571 272 18410005563599696580
23559900 14 18265621055969150706
3380486 145 18336251384971871809
3383291 50 17833272304433770867
4015057 19 18189071930487383548
4073 2 18341894151997847690
5104073 3 18334862757683823970
9709674 26 17971753534893390246
9981440 41 17898302850695602858

> <PUBCHEM_SHAPE_MULTIPOLES>
486.4
10.29
3.95
1.23
10.77
1.18
0.29
-5.26
0.21
-3.49
0.38
-0.88
-0.39
1.04

> <PUBCHEM_SHAPE_SELFOVERLAP>
1053.854

> <PUBCHEM_SHAPE_VOLUME>
268.5

> <PUBCHEM_COORDINATE_TYPE>
2
5
10

$$$$

