345501
  -OEChem-07051212593D

 51 55  0     1  0  0  0  0  0999 V2000
   -1.2503   -3.9571   -0.6906 O   0  0  0  0  0  0  0  0  0  0  0  0
   -2.0739   -3.0532    1.2614 O   0  0  0  0  0  0  0  0  0  0  0  0
    3.9668    2.2535    1.5784 O   0  0  0  0  0  0  0  0  0  0  0  0
    5.2734    1.3314   -0.2230 O   0  0  0  0  0  0  0  0  0  0  0  0
   -4.1929    0.8594    1.5608 O   0  0  0  0  0  0  0  0  0  0  0  0
   -1.5183    2.2241   -2.1701 O   0  0  0  0  0  0  0  0  0  0  0  0
   -3.8803    2.3808   -0.7327 O   0  0  0  0  0  0  0  0  0  0  0  0
    0.1354   -2.4379    0.4281 C   0  0  1  0  0  0  0  0  0  0  0  0
    0.4907   -2.4750   -1.0448 C   0  0  1  0  0  0  0  0  0  0  0  0
    0.2757   -1.0217    1.0027 C   0  0  1  0  0  0  0  0  0  0  0  0
    1.9719   -2.2068   -1.2367 C   0  0  0  0  0  0  0  0  0  0  0  0
    1.6449   -0.4430    0.6185 C   0  0  0  0  0  0  0  0  0  0  0  0
   -0.0275   -3.8341   -1.4421 C   0  0  0  0  0  0  0  0  0  0  0  0
    2.4197   -0.9858   -0.4532 C   0  0  0  0  0  0  0  0  0  0  0  0
   -1.1973   -3.1414    0.4175 C   0  0  0  0  0  0  0  0  0  0  0  0
   -0.8282   -0.1176    0.5418 C   0  0  0  0  0  0  0  0  0  0  0  0
    2.1325    0.6627    1.3416 C   0  0  0  0  0  0  0  0  0  0  0  0
    3.6657   -0.4193   -0.7732 C   0  0  0  0  0  0  0  0  0  0  0  0
    3.3557    1.1911    0.9866 C   0  0  0  0  0  0  0  0  0  0  0  0
    4.1002    0.6658   -0.0408 C   0  0  0  0  0  0  0  0  0  0  0  0
   -0.6609    0.6423   -0.6110 C   0  0  0  0  0  0  0  0  0  0  0  0
   -2.0103   -0.0458    1.2713 C   0  0  0  0  0  0  0  0  0  0  0  0
   -3.0370    0.7957    0.8428 C   0  0  0  0  0  0  0  0  0  0  0  0
   -1.6877    1.4838   -1.0392 C   0  0  0  0  0  0  0  0  0  0  0  0
   -2.8757    1.5605   -0.3123 C   0  0  0  0  0  0  0  0  0  0  0  0
    5.1807    2.3387    0.8047 C   0  0  0  0  0  0  0  0  0  0  0  0
   -5.2267   -0.0574    1.2077 C   0  0  0  0  0  0  0  0  0  0  0  0
   -0.2742    2.0873   -2.8541 C   0  0  0  0  0  0  0  0  0  0  0  0
   -3.8722    3.7187   -0.2400 C   0  0  0  0  0  0  0  0  0  0  0  0
    0.8141   -3.1021    0.9864 H   0  0  0  0  0  0  0  0  0  0  0  0
   -0.0917   -1.7363   -1.6083 H   0  0  0  0  0  0  0  0  0  0  0  0
    0.2452   -1.0963    2.0989 H   0  0  0  0  0  0  0  0  0  0  0  0
    2.1773   -2.0637   -2.3043 H   0  0  0  0  0  0  0  0  0  0  0  0
    2.5644   -3.0651   -0.8960 H   0  0  0  0  0  0  0  0  0  0  0  0
   -0.2512   -3.8951   -2.5110 H   0  0  0  0  0  0  0  0  0  0  0  0
    0.6389   -4.6576   -1.1644 H   0  0  0  0  0  0  0  0  0  0  0  0
    1.5619    1.0932    2.1585 H   0  0  0  0  0  0  0  0  0  0  0  0
    4.2750   -0.8249   -1.5747 H   0  0  0  0  0  0  0  0  0  0  0  0
    0.2582    0.5560   -1.1719 H   0  0  0  0  0  0  0  0  0  0  0  0
   -2.1369   -0.6218    2.1840 H   0  0  0  0  0  0  0  0  0  0  0  0
    6.0364    2.2301    1.4809 H   0  0  0  0  0  0  0  0  0  0  0  0
    5.2279    3.3270    0.3330 H   0  0  0  0  0  0  0  0  0  0  0  0
   -5.5438    0.0995    0.1719 H   0  0  0  0  0  0  0  0  0  0  0  0
   -6.0817    0.1201    1.8658 H   0  0  0  0  0  0  0  0  0  0  0  0
   -4.8873   -1.0891    1.3447 H   0  0  0  0  0  0  0  0  0  0  0  0
   -0.1333    1.0713   -3.2389 H   0  0  0  0  0  0  0  0  0  0  0  0
    0.5667    2.4240   -2.2378 H   0  0  0  0  0  0  0  0  0  0  0  0
   -0.3123    2.7510   -3.7244 H   0  0  0  0  0  0  0  0  0  0  0  0
   -2.9582    4.2370   -0.5466 H   0  0  0  0  0  0  0  0  0  0  0  0
   -3.9608    3.7280    0.8509 H   0  0  0  0  0  0  0  0  0  0  0  0
   -4.7314    4.2451   -0.6646 H   0  0  0  0  0  0  0  0  0  0  0  0
  1 13  1  0  0  0  0
  1 15  1  0  0  0  0
  2 15  2  0  0  0  0
  3 19  1  0  0  0  0
  3 26  1  0  0  0  0
  4 20  1  0  0  0  0
  4 26  1  0  0  0  0
  5 23  1  0  0  0  0
  5 27  1  0  0  0  0
  6 24  1  0  0  0  0
  6 28  1  0  0  0  0
  7 25  1  0  0  0  0
  7 29  1  0  0  0  0
  8  9  1  0  0  0  0
  8 10  1  0  0  0  0
  8 15  1  0  0  0  0
  8 30  1  0  0  0  0
  9 11  1  0  0  0  0
  9 13  1  0  0  0  0
  9 31  1  0  0  0  0
 10 12  1  0  0  0  0
 10 16  1  0  0  0  0
 10 32  1  0  0  0  0
 11 14  1  0  0  0  0
 11 33  1  0  0  0  0
 11 34  1  0  0  0  0
 12 14  1  0  0  0  0
 12 17  2  0  0  0  0
 13 35  1  0  0  0  0
 13 36  1  0  0  0  0
 14 18  2  0  0  0  0
 16 21  2  0  0  0  0
 16 22  1  0  0  0  0
 17 19  1  0  0  0  0
 17 37  1  0  0  0  0
 18 20  1  0  0  0  0
 18 38  1  0  0  0  0
 19 20  2  0  0  0  0
 21 24  1  0  0  0  0
 21 39  1  0  0  0  0
 22 23  2  0  0  0  0
 22 40  1  0  0  0  0
 23 25  1  0  0  0  0
 24 25  2  0  0  0  0
 26 41  1  0  0  0  0
 26 42  1  0  0  0  0
 27 43  1  0  0  0  0
 27 44  1  0  0  0  0
 27 45  1  0  0  0  0
 28 46  1  0  0  0  0
 28 47  1  0  0  0  0
 28 48  1  0  0  0  0
 29 49  1  0  0  0  0
 29 50  1  0  0  0  0
 29 51  1  0  0  0  0
M  END
> <PUBCHEM_COMPOUND_CID>
345501

> <PUBCHEM_CONFORMER_RMSD>
0.8

> <PUBCHEM_CONFORMER_DIVERSEORDER>
1
2
3

> <PUBCHEM_MMFF94_PARTIAL_CHARGES>
32
1 -0.43
10 0.29
11 0.14
12 -0.14
13 0.28
14 -0.14
15 0.66
16 -0.14
17 -0.15
18 -0.15
19 0.08
2 -0.57
20 0.08
21 -0.15
22 -0.15
23 0.08
24 0.08
25 0.08
26 0.56
27 0.28
28 0.28
29 0.28
3 -0.36
37 0.15
38 0.15
39 0.15
4 -0.36
40 0.15
5 -0.36
6 -0.36
7 -0.36
8 0.06

> <PUBCHEM_EFFECTIVE_ROTOR_COUNT>
5.4

> <PUBCHEM_PHARMACOPHORE_FEATURES>
11
1 2 acceptor
1 3 acceptor
1 4 acceptor
1 5 acceptor
1 6 acceptor
1 7 acceptor
5 1 8 9 13 15 rings
5 3 4 19 20 26 rings
6 12 14 17 18 19 20 rings
6 16 21 22 23 24 25 rings
6 8 9 10 11 12 14 rings

> <PUBCHEM_HEAVY_ATOM_COUNT>
29

> <PUBCHEM_ATOM_DEF_STEREO_COUNT>
3

> <PUBCHEM_ATOM_UDEF_STEREO_COUNT>
0

> <PUBCHEM_BOND_DEF_STEREO_COUNT>
0

> <PUBCHEM_BOND_UDEF_STEREO_COUNT>
0

> <PUBCHEM_ISOTOPIC_ATOM_COUNT>
0

> <PUBCHEM_COMPONENT_COUNT>
1

> <PUBCHEM_CACTVS_TAUTO_COUNT>
2

> <PUBCHEM_CONFORMER_ID>
0005459D00000001

> <PUBCHEM_MMFF94_ENERGY>
116.6168

> <PUBCHEM_FEATURE_SELFOVERLAP>
56.077

> <PUBCHEM_SHAPE_FINGERPRINT>
10165383 225 18335687343864778424
105312 117 18408889516880931508
10871710 139 17621582931352844588
11115154 58 17320160628067388391
11578080 2 18189879943449301132
11595378 159 17986686882836560290
12156800 1 17682933545298961831
12422481 6 18051381034508049155
12730499 353 18265610069131798761
12788726 201 18124338024361564203
13034934 17 18341036480939922371
13140716 1 17912636913351613889
13583140 156 16988299594003409808
13681431 1 17326907668778722798
14142880 1 18268157456810189326
14787075 74 18113339691717236881
15324884 4 18128232658087966435
17357779 13 17610642820484146918
17492 54 17841189642925408663
21033648 29 18409173224787410608
21202864 24 18338795602774350977
2260408 40 17978189986411455307
22907989 373 18050021995164975356
23227448 37 18265615386069416784
23536364 44 17039773531758896230
23557571 272 17773294933143695313
23559900 14 17834960046212655475
238 59 17977966883370192151
3187 122 17983575208626244210
3729539 64 18046887549913834358
4340502 62 18187351126328465227
469060 322 17631183978133649675
495365 180 18122077656320062905
5252454 2 18411141308109905096
6287921 2 18267566070152471629
633830 44 17604981684204682241
6442390 28 18411132567318467219
7399639 24 18341045315703558617
7808743 9 18342173311655220448
81228 2 18054239734453779922
9925002 15 17981037514625224015

> <PUBCHEM_SHAPE_MULTIPOLES>
555.72
8.57
4.53
1.83
2.33
3.07
0.83
-8.56
-2.95
-1.63
1.38
-0.44
-0.64
2.07

> <PUBCHEM_SHAPE_SELFOVERLAP>
1239.726

> <PUBCHEM_SHAPE_VOLUME>
296.9

> <PUBCHEM_COORDINATE_TYPE>
2
5
10

$$$$

