440959
  -OEChem-07051212512D

 22 21  0     1  0  0  0  0  0999 V2000
    2.5369   -0.0950    0.0000 O   0  0  0  0  0  0  0  0  0  0  0  0
    7.7331   -0.0950    0.0000 O   0  0  0  0  0  0  0  0  0  0  0  0
    3.4030    1.4050    0.0000 O   0  0  0  0  0  0  0  0  0  0  0  0
    6.8671    1.4050    0.0000 O   0  0  0  0  0  0  0  0  0  0  0  0
    6.0010   -1.0950    0.0000 N   0  0  0  0  0  0  0  0  0  0  0  0
    5.1350    0.4050    0.0000 C   0  0  0  0  0  0  0  0  0  0  0  0
    4.2690   -0.0950    0.0000 C   0  0  3  0  0  0  0  0  0  0  0  0
    6.0010   -0.0950    0.0000 C   0  0  1  0  0  0  0  0  0  0  0  0
    4.2690   -1.0950    0.0000 C   0  0  0  0  0  0  0  0  0  0  0  0
    3.4030    0.4050    0.0000 C   0  0  0  0  0  0  0  0  0  0  0  0
    6.8671    0.4050    0.0000 C   0  0  0  0  0  0  0  0  0  0  0  0
    5.5335    0.8799    0.0000 H   0  0  0  0  0  0  0  0  0  0  0  0
    4.7365    0.8799    0.0000 H   0  0  0  0  0  0  0  0  0  0  0  0
    5.0051   -0.5200    0.0000 H   0  0  0  0  0  0  0  0  0  0  0  0
    6.5380   -0.4050    0.0000 H   0  0  0  0  0  0  0  0  0  0  0  0
    3.6490   -1.0950    0.0000 H   0  0  0  0  0  0  0  0  0  0  0  0
    4.2690   -1.7150    0.0000 H   0  0  0  0  0  0  0  0  0  0  0  0
    4.8890   -1.0950    0.0000 H   0  0  0  0  0  0  0  0  0  0  0  0
    5.4641   -1.4050    0.0000 H   0  0  0  0  0  0  0  0  0  0  0  0
    6.5380   -1.4050    0.0000 H   0  0  0  0  0  0  0  0  0  0  0  0
    2.0000    0.2150    0.0000 H   0  0  0  0  0  0  0  0  0  0  0  0
    8.2700    0.2150    0.0000 H   0  0  0  0  0  0  0  0  0  0  0  0
  1 10  1  0  0  0  0
  1 21  1  0  0  0  0
  2 11  1  0  0  0  0
  2 22  1  0  0  0  0
  3 10  2  0  0  0  0
  4 11  2  0  0  0  0
  8  5  1  1  0  0  0
  5 19  1  0  0  0  0
  5 20  1  0  0  0  0
  6  7  1  0  0  0  0
  6  8  1  0  0  0  0
  6 12  1  0  0  0  0
  6 13  1  0  0  0  0
  7  9  1  0  0  0  0
  7 10  1  0  0  0  0
  7 14  1  0  0  0  0
  8 11  1  0  0  0  0
  8 15  1  0  0  0  0
  9 16  1  0  0  0  0
  9 17  1  0  0  0  0
  9 18  1  0  0  0  0
M  END
> <PUBCHEM_COMPOUND_CID>
440959

> <PUBCHEM_COMPOUND_CANONICALIZED>
1

> <PUBCHEM_CACTVS_COMPLEXITY>
168

> <PUBCHEM_CACTVS_HBOND_ACCEPTOR>
5

> <PUBCHEM_CACTVS_HBOND_DONOR>
3

> <PUBCHEM_CACTVS_ROTATABLE_BOND>
4

> <PUBCHEM_CACTVS_SUBSKEYS>
AAADccBiOAAAAAAAAAAAAAAAAAAAAAAAAAAAAAAAAAAAAAAAAAAAHgAQCAAADSjBgAQCCABAAgAIAACQCAAAAAAAAAAAAIGAAAACABIAgAAAQAAEEAAAAACsJgAMAAAAAAAAAAAAAAAAAAAAAAAAAAAAAA==

> <PUBCHEM_IUPAC_OPENEYE_NAME>
(2S)-2-amino-4-methyl-pentanedioic acid

> <PUBCHEM_IUPAC_CAS_NAME>
(2S)-2-amino-4-methylpentanedioic acid

> <PUBCHEM_IUPAC_NAME>
(2S)-2-amino-4-methylpentanedioic acid

> <PUBCHEM_IUPAC_SYSTEMATIC_NAME>
(2S)-2-azanyl-4-methyl-pentanedioic acid

> <PUBCHEM_IUPAC_TRADITIONAL_NAME>
(2S)-2-amino-4-methyl-glutaric acid

> <PUBCHEM_IUPAC_INCHI>
InChI=1S/C6H11NO4/c1-3(5(8)9)2-4(7)6(10)11/h3-4H,2,7H2,1H3,(H,8,9)(H,10,11)/t3?,4-/m0/s1

> <PUBCHEM_IUPAC_INCHIKEY>
KRKRAOXTGDJWNI-BKLSDQPFSA-N

> <PUBCHEM_XLOGP3_AA>
-2.9

> <PUBCHEM_EXACT_MASS>
161.068808

> <PUBCHEM_MOLECULAR_FORMULA>
C6H11NO4

> <PUBCHEM_MOLECULAR_WEIGHT>
161.15584

> <PUBCHEM_OPENEYE_CAN_SMILES>
CC(CC(C(=O)O)N)C(=O)O

> <PUBCHEM_OPENEYE_ISO_SMILES>
CC(C[C@@H](C(=O)O)N)C(=O)O

> <PUBCHEM_CACTVS_TPSA>
101

> <PUBCHEM_MONOISOTOPIC_WEIGHT>
161.068808

> <PUBCHEM_TOTAL_CHARGE>
0

> <PUBCHEM_HEAVY_ATOM_COUNT>
11

> <PUBCHEM_ATOM_DEF_STEREO_COUNT>
1

> <PUBCHEM_ATOM_UDEF_STEREO_COUNT>
1

> <PUBCHEM_BOND_DEF_STEREO_COUNT>
0

> <PUBCHEM_BOND_UDEF_STEREO_COUNT>
0

> <PUBCHEM_ISOTOPIC_ATOM_COUNT>
0

> <PUBCHEM_COMPONENT_COUNT>
1

> <PUBCHEM_CACTVS_TAUTO_COUNT>
1

> <PUBCHEM_COORDINATE_TYPE>
1
5
255

> <PUBCHEM_BONDANNOTATIONS>
8  5  5
7  14  3

$$$$

