439541
  -OEChem-07051212463D

 38 40  0     1  0  0  0  0  0999 V2000
   -4.4866    1.6332   -0.0692 P   0  0  0  0  0  0  0  0  0  0  0  0
   -1.0111   -0.7303   -1.0389 O   0  0  0  0  0  0  0  0  0  0  0  0
   -1.2830   -3.7128   -0.4401 O   0  0  0  0  0  0  0  0  0  0  0  0
   -3.5068    0.4776   -0.6402 O   0  0  0  0  0  0  0  0  0  0  0  0
   -3.6651    2.2506    1.1794 O   0  0  0  0  0  0  0  0  0  0  0  0
   -5.6663    0.7873    0.6435 O   0  0  0  0  0  0  0  0  0  0  0  0
   -4.9501    2.6319   -1.0892 O   0  0  0  0  0  0  0  0  0  0  0  0
    1.0885   -0.0664   -0.1647 N   0  0  0  0  0  0  0  0  0  0  0  0
    0.7423   -2.9179    1.3085 N   0  0  0  0  0  0  0  0  0  0  0  0
    1.7326    2.0144    0.3213 N   0  0  0  0  0  0  0  0  0  0  0  0
    3.2599   -1.1041   -0.4985 N   0  0  0  0  0  0  0  0  0  0  0  0
    5.0706    0.4993   -0.1713 N   0  0  0  0  0  0  0  0  0  0  0  0
    4.6721    2.7871    0.4063 N   0  0  0  0  0  0  0  0  0  0  0  0
   -0.2389   -1.9504    0.8448 C   0  0  2  0  0  0  0  0  0  0  0  0
   -1.5464   -2.5708    0.3761 C   0  0  1  0  0  0  0  0  0  0  0  0
    0.1996   -1.1977   -0.4092 C   0  0  1  0  0  0  0  0  0  0  0  0
   -2.1320   -1.4712   -0.5069 C   0  0  1  0  0  0  0  0  0  0  0  0
   -3.0244   -0.5050    0.2595 C   0  0  0  0  0  0  0  0  0  0  0  0
    2.4550   -0.0689   -0.2151 C   0  0  0  0  0  0  0  0  0  0  0  0
    0.7034    1.2087    0.1609 C   0  0  0  0  0  0  0  0  0  0  0  0
    2.8336    1.2288    0.0893 C   0  0  0  0  0  0  0  0  0  0  0  0
    4.1985    1.4984    0.1058 C   0  0  0  0  0  0  0  0  0  0  0  0
    4.5547   -0.7218   -0.4522 C   0  0  0  0  0  0  0  0  0  0  0  0
   -0.4454   -1.2407    1.6555 H   0  0  0  0  0  0  0  0  0  0  0  0
   -2.2031   -2.8864    1.1916 H   0  0  0  0  0  0  0  0  0  0  0  0
    0.7026   -1.8472   -1.1365 H   0  0  0  0  0  0  0  0  0  0  0  0
   -2.6776   -1.8774   -1.3664 H   0  0  0  0  0  0  0  0  0  0  0  0
   -2.4616   -0.0037    1.0529 H   0  0  0  0  0  0  0  0  0  0  0  0
   -3.8682   -1.0423    0.7033 H   0  0  0  0  0  0  0  0  0  0  0  0
    0.9491   -3.5841    0.5650 H   0  0  0  0  0  0  0  0  0  0  0  0
    0.3452   -3.4656    2.0711 H   0  0  0  0  0  0  0  0  0  0  0  0
   -0.8197   -3.4277   -1.2450 H   0  0  0  0  0  0  0  0  0  0  0  0
   -0.3339    1.4936    0.2731 H   0  0  0  0  0  0  0  0  0  0  0  0
    5.2814   -1.4975   -0.6689 H   0  0  0  0  0  0  0  0  0  0  0  0
    5.6684    2.9580    0.4119 H   0  0  0  0  0  0  0  0  0  0  0  0
    4.0233    3.5345    0.6132 H   0  0  0  0  0  0  0  0  0  0  0  0
   -4.0332    3.0271    1.6523 H   0  0  0  0  0  0  0  0  0  0  0  0
   -6.4469    1.2656    0.9959 H   0  0  0  0  0  0  0  0  0  0  0  0
  1  4  1  0  0  0  0
  1  5  1  0  0  0  0
  1  6  1  0  0  0  0
  1  7  2  0  0  0  0
  2 16  1  0  0  0  0
  2 17  1  0  0  0  0
  3 15  1  0  0  0  0
  3 32  1  0  0  0  0
  4 18  1  0  0  0  0
  5 37  1  0  0  0  0
  6 38  1  0  0  0  0
  8 16  1  0  0  0  0
  8 19  1  0  0  0  0
  8 20  1  0  0  0  0
  9 14  1  0  0  0  0
  9 30  1  0  0  0  0
  9 31  1  0  0  0  0
 10 20  2  0  0  0  0
 10 21  1  0  0  0  0
 11 19  2  0  0  0  0
 11 23  1  0  0  0  0
 12 22  1  0  0  0  0
 12 23  2  0  0  0  0
 13 22  1  0  0  0  0
 13 35  1  0  0  0  0
 13 36  1  0  0  0  0
 14 15  1  0  0  0  0
 14 16  1  0  0  0  0
 14 24  1  0  0  0  0
 15 17  1  0  0  0  0
 15 25  1  0  0  0  0
 16 26  1  0  0  0  0
 17 18  1  0  0  0  0
 17 27  1  0  0  0  0
 18 28  1  0  0  0  0
 18 29  1  0  0  0  0
 19 21  1  0  0  0  0
 20 33  1  0  0  0  0
 21 22  2  0  0  0  0
 23 34  1  0  0  0  0
M  END
> <PUBCHEM_COMPOUND_CID>
439541

> <PUBCHEM_CONFORMER_RMSD>
0.8

> <PUBCHEM_CONFORMER_DIVERSEORDER>
1
49
24
21
23
9
19
4
54
30
22
25
33
53
43
48
20
2
15
26
41
39
17
12
13
51
38
46
42
40
5
45
11
36
31
52
50
29
7
47
32
8
18
35
27
34
3
16
37
28
6
44
10
14

> <PUBCHEM_MMFF94_PARTIAL_CHARGES>
32
1 1.51
10 -0.57
11 -0.57
12 -0.62
13 -0.9
14 0.27
15 0.28
16 0.54
17 0.28
18 0.28
19 0.11
2 -0.56
20 0.04
21 0.23
22 0.41
23 0.47
3 -0.68
30 0.36
31 0.36
32 0.4
33 0.15
34 0.15
35 0.4
36 0.4
37 0.5
38 0.5
4 -0.55
5 -0.77
6 -0.77
7 -0.7
8 0.05
9 -0.99

> <PUBCHEM_EFFECTIVE_ROTOR_COUNT>
5

> <PUBCHEM_PHARMACOPHORE_FEATURES>
17
1 13 cation
1 13 donor
1 2 acceptor
1 3 acceptor
1 3 donor
1 5 acceptor
1 6 acceptor
1 7 acceptor
1 9 cation
1 9 donor
3 11 12 23 cation
3 8 10 20 cation
3 8 11 19 cation
4 1 5 6 7 anion
5 2 14 15 16 17 rings
5 8 10 19 20 21 rings
6 11 12 19 21 22 23 rings

> <PUBCHEM_HEAVY_ATOM_COUNT>
23

> <PUBCHEM_ATOM_DEF_STEREO_COUNT>
4

> <PUBCHEM_ATOM_UDEF_STEREO_COUNT>
0

> <PUBCHEM_BOND_DEF_STEREO_COUNT>
0

> <PUBCHEM_BOND_UDEF_STEREO_COUNT>
0

> <PUBCHEM_ISOTOPIC_ATOM_COUNT>
0

> <PUBCHEM_COMPONENT_COUNT>
1

> <PUBCHEM_CACTVS_TAUTO_COUNT>
3

> <PUBCHEM_CONFORMER_ID>
0006B4F500000001

> <PUBCHEM_MMFF94_ENERGY>
14.8295

> <PUBCHEM_FEATURE_SELFOVERLAP>
86.91

> <PUBCHEM_SHAPE_FINGERPRINT>
10906281 52 18336533972613955348
1100329 8 18198630028102008498
11405975 8 18340773650569289050
11578080 2 16372153008877179498
12107183 9 18341343283460317810
12788726 201 18051427166509428547
13464514 151 18409448119610063486
13544592 145 18337381730090783630
14123255 52 18412547639020622793
14790565 3 18339919411022285348
15196674 1 18408322159583942364
15375358 24 18265616481771101062
15534591 1 18408327670575895319
19591789 44 18123187063568189804
19784866 9 18200878494819903706
20832881 197 18269271434510667770
21033648 29 18410583881194711409
21279426 13 18337667632983642998
21421861 104 17988378065212206138
21524375 3 18412539925428547575
22182937 141 18410569553246459243
23558518 356 17983295923992735290
23559900 14 18334857213165939198
23845131 108 18202565116462943067
2838139 119 18335989752491146861
293599 30 18412260661789944479
335352 9 18410011070349312806
350125 39 18338513046051690771
474 4 18264772232865900643
495365 180 17603595101711242610
5104073 3 18270689645548645592
6328613 192 18412254022615147532
633830 44 18411144636187216334
7226269 152 18260833704700490112
9709674 26 18194117405169874214

> <PUBCHEM_SHAPE_MULTIPOLES>
412.08
10.63
3.52
0.91
1.94
1.26
0.07
-9.11
-0.38
1.64
0.46
0.46
0.09
0.41

> <PUBCHEM_SHAPE_SELFOVERLAP>
870.783

> <PUBCHEM_SHAPE_VOLUME>
233.7

> <PUBCHEM_COORDINATE_TYPE>
2
5
10

$$$$

