93379
  -OEChem-07051213123D

 27 28  0     0  0  0  0  0  0999 V2000
    5.8635   -1.5469    0.0011 Cl  0  0  0  0  0  0  0  0  0  0  0  0
   -0.4277    1.3526   -0.0010 O   0  0  0  0  0  0  0  0  0  0  0  0
   -1.4782   -0.7416   -0.0004 N   0  0  0  0  0  0  0  0  0  0  0  0
    0.8284   -0.6201   -0.0007 N   0  0  0  0  0  0  0  0  0  0  0  0
    4.7695    0.8027    0.0009 N   0  0  0  0  0  0  0  0  0  0  0  0
   -2.8348   -0.4154   -0.0003 C   0  0  0  0  0  0  0  0  0  0  0  0
    2.1593   -0.1399   -0.0010 C   0  0  0  0  0  0  0  0  0  0  0  0
   -0.3602    0.1276   -0.0007 C   0  0  0  0  0  0  0  0  0  0  0  0
   -3.7953   -1.4269    0.0000 C   0  0  0  0  0  0  0  0  0  0  0  0
   -3.2307    0.9223    0.0001 C   0  0  0  0  0  0  0  0  0  0  0  0
    3.2054   -1.0407   -0.0006 C   0  0  0  0  0  0  0  0  0  0  0  0
    2.3885    1.2216   -0.0003 C   0  0  0  0  0  0  0  0  0  0  0  0
   -5.1516   -1.1011    0.0005 C   0  0  0  0  0  0  0  0  0  0  0  0
   -4.5871    1.2481    0.0007 C   0  0  0  0  0  0  0  0  0  0  0  0
   -5.5474    0.2364    0.0009 C   0  0  0  0  0  0  0  0  0  0  0  0
    4.4893   -0.5197    0.0002 C   0  0  0  0  0  0  0  0  0  0  0  0
    3.7090    1.6412    0.0006 C   0  0  0  0  0  0  0  0  0  0  0  0
   -1.2683   -1.7367   -0.0003 H   0  0  0  0  0  0  0  0  0  0  0  0
    0.7297   -1.6322   -0.0006 H   0  0  0  0  0  0  0  0  0  0  0  0
   -3.5013   -2.4735   -0.0001 H   0  0  0  0  0  0  0  0  0  0  0  0
   -2.5506    1.7619    0.0000 H   0  0  0  0  0  0  0  0  0  0  0  0
    3.0325   -2.1120   -0.0007 H   0  0  0  0  0  0  0  0  0  0  0  0
    1.6359    1.9934   -0.0004 H   0  0  0  0  0  0  0  0  0  0  0  0
   -5.8995   -1.8886    0.0008 H   0  0  0  0  0  0  0  0  0  0  0  0
   -4.8970    2.2892    0.0010 H   0  0  0  0  0  0  0  0  0  0  0  0
   -6.6034    0.4901    0.0014 H   0  0  0  0  0  0  0  0  0  0  0  0
    3.9573    2.6976    0.0012 H   0  0  0  0  0  0  0  0  0  0  0  0
  1 16  1  0  0  0  0
  2  8  2  0  0  0  0
  3  6  1  0  0  0  0
  3  8  1  0  0  0  0
  3 18  1  0  0  0  0
  4  7  1  0  0  0  0
  4  8  1  0  0  0  0
  4 19  1  0  0  0  0
  5 16  2  0  0  0  0
  5 17  1  0  0  0  0
  6  9  2  0  0  0  0
  6 10  1  0  0  0  0
  7 11  2  0  0  0  0
  7 12  1  0  0  0  0
  9 13  1  0  0  0  0
  9 20  1  0  0  0  0
 10 14  2  0  0  0  0
 10 21  1  0  0  0  0
 11 16  1  0  0  0  0
 11 22  1  0  0  0  0
 12 17  2  0  0  0  0
 12 23  1  0  0  0  0
 13 15  2  0  0  0  0
 13 24  1  0  0  0  0
 14 15  1  0  0  0  0
 14 25  1  0  0  0  0
 15 26  1  0  0  0  0
 17 27  1  0  0  0  0
M  END
> <PUBCHEM_COMPOUND_CID>
93379

> <PUBCHEM_CONFORMER_RMSD>
0.6

> <PUBCHEM_CONFORMER_DIVERSEORDER>
1
9
8
6
4
10
7
3
5
2

> <PUBCHEM_MMFF94_PARTIAL_CHARGES>
27
1 -0.18
10 -0.15
11 -0.15
12 -0.15
13 -0.15
14 -0.15
15 -0.15
16 0.49
17 0.16
18 0.37
19 0.37
2 -0.57
20 0.15
21 0.15
22 0.15
23 0.15
24 0.15
25 0.15
26 0.15
27 0.15
3 -0.55
4 -0.55
5 -0.62
6 0.12
7 0.12
8 0.69
9 -0.15

> <PUBCHEM_EFFECTIVE_ROTOR_COUNT>
4

> <PUBCHEM_PHARMACOPHORE_FEATURES>
6
1 2 acceptor
1 3 donor
1 4 donor
1 5 acceptor
6 5 7 11 12 16 17 rings
6 6 9 10 13 14 15 rings

> <PUBCHEM_HEAVY_ATOM_COUNT>
17

> <PUBCHEM_ATOM_DEF_STEREO_COUNT>
0

> <PUBCHEM_ATOM_UDEF_STEREO_COUNT>
0

> <PUBCHEM_BOND_DEF_STEREO_COUNT>
0

> <PUBCHEM_BOND_UDEF_STEREO_COUNT>
0

> <PUBCHEM_ISOTOPIC_ATOM_COUNT>
0

> <PUBCHEM_COMPONENT_COUNT>
1

> <PUBCHEM_CACTVS_TAUTO_COUNT>
5

> <PUBCHEM_CONFORMER_ID>
00016CC300000001

> <PUBCHEM_MMFF94_ENERGY>
51.8531

> <PUBCHEM_FEATURE_SELFOVERLAP>
30.494

> <PUBCHEM_SHAPE_FINGERPRINT>
10680689 15 17418094330278137597
11287383 113 18411136913661749579
11315181 36 18186518808884610985
12107183 9 17762338423999788731
12236239 1 18333168366587682307
12616971 3 17894917308227480509
13167823 11 18410858741604885007
13288520 33 18410292511034681063
1420 363 18060413599897246155
14251731 8 18341333382911600151
14341114 176 18412539899146813473
15196674 1 18410855447248606117
15788980 27 18113901554553406175
17834072 33 18335702715146301991
17844677 252 18410567388266697089
18186145 218 17775292646417287346
19433438 28 18343864407529581585
200 152 18187083961797545808
20645477 70 18408320016970521582
21267235 1 18411130350925503330
21709351 56 18341337746703861935
23402539 116 18333736818890056239
23402655 69 18335983095338940356
23536379 177 18409729577448739354
23557571 272 17489590112149235135
23559900 14 18410859836773787184
239999 70 18335135406561074950
26918003 58 18260830409938048354
29717793 49 18040996262799135420
3004659 81 18342737442834865754
351380 180 18411700976032786521
3545911 37 18411980273846102461
4073 2 18059851710769319602
42 15 18412824689785412303
4214541 1 18410574007069600645
42788 4 18410855460333974567
465052 167 18334853935826629670
5104073 3 18409448072391414537
5374978 207 18408328778661367208
542803 24 13758357782270813951
559249 180 18411141380649666659
7495541 125 17531531975206921819
77779 3 18410855443132954405
90127 26 18060413620939767256
9971528 1 17917711279873325756

> <PUBCHEM_SHAPE_MULTIPOLES>
330.91
14.47
1.63
0.6
0.11
0.13
0
-2.66
-0.01
-0.61
0
0
-0.01
0

> <PUBCHEM_SHAPE_SELFOVERLAP>
697.959

> <PUBCHEM_SHAPE_VOLUME>
185

> <PUBCHEM_COORDINATE_TYPE>
2
5
10

$$$$

