5282200
  -OEChem-07051213033D

105105  0     1  0  0  0  0  0999 V2000
   -2.9152   -0.4368    2.0623 O   0  0  0  0  0  0  0  0  0  0  0  0
   -0.2319   -0.0427    1.3142 O   0  0  0  0  0  0  0  0  0  0  0  0
   -4.7937    3.0082    0.9489 O   0  0  0  0  0  0  0  0  0  0  0  0
    2.2891    1.6893   -1.6394 O   0  0  0  0  0  0  0  0  0  0  0  0
    3.4013    3.9772    1.8086 O   0  0  0  0  0  0  0  0  0  0  0  0
   -5.3381   -1.6445    0.6643 O   0  0  0  0  0  0  0  0  0  0  0  0
    5.8183    2.7514    2.7485 O   0  0  0  0  0  0  0  0  0  0  0  0
    7.8545    2.6470   -0.8210 O   0  0  0  0  0  0  0  0  0  0  0  0
   -4.9446   -0.5523   -1.3291 O   0  0  0  0  0  0  0  0  0  0  0  0
    9.5133    0.5133    0.0204 O   0  0  0  0  0  0  0  0  0  0  0  0
    8.8797   -2.0122   -1.1443 O   0  0  0  0  0  0  0  0  0  0  0  0
   -5.8286   -5.2733    0.3544 O   0  0  0  0  0  0  0  0  0  0  0  0
   -4.6768    0.6185    0.7909 C   0  0  1  0  0  0  0  0  0  0  0  0
   -3.1933    0.6756    1.2086 C   0  0  2  0  0  0  0  0  0  0  0  0
   -2.1844    0.6663    0.0450 C   0  0  0  0  0  0  0  0  0  0  0  0
   -0.7487    1.0038    0.4970 C   0  0  2  0  0  0  0  0  0  0  0  0
    0.1819    1.1683   -0.7126 C   0  0  0  0  0  0  0  0  0  0  0  0
   -5.1421    1.9094    0.1151 C   0  0  1  0  0  0  0  0  0  0  0  0
    1.6681    1.3994   -0.3838 C   0  0  2  0  0  0  0  0  0  0  0  0
    1.9071    2.5459    0.6051 C   0  0  0  0  0  0  0  0  0  0  0  0
    3.3596    3.0343    0.7357 C   0  0  2  0  0  0  0  0  0  0  0  0
   -6.6553    1.8977   -0.1045 C   0  0  0  0  0  0  0  0  0  0  0  0
    4.3880    1.9169    0.9925 C   0  0  0  0  0  0  0  0  0  0  0  0
    5.7822    2.4691    1.3452 C   0  0  2  0  0  0  0  0  0  0  0  0
    6.9129    1.4614    1.0655 C   0  0  0  0  0  0  0  0  0  0  0  0
   -7.1427    3.1775   -0.7925 C   0  0  0  0  0  0  0  0  0  0  0  0
   -4.9923   -0.5722   -0.1064 C   0  0  0  0  0  0  0  0  0  0  0  0
    7.2914    1.3901   -0.4229 C   0  0  2  0  0  0  0  0  0  0  0  0
    8.3391    0.3158   -0.7793 C   0  0  2  0  0  0  0  0  0  0  0  0
   -8.6536    3.1385   -1.0307 C   0  0  0  0  0  0  0  0  0  0  0  0
    7.8756   -1.1444   -0.6061 C   0  0  1  0  0  0  0  0  0  0  0  0
   -9.1354    4.3965   -1.7528 C   0  0  0  0  0  0  0  0  0  0  0  0
   -5.7503   -2.8605   -0.0031 C   0  0  1  0  0  0  0  0  0  0  0  0
    6.5571   -1.4641   -1.2942 C   0  0  0  0  0  0  0  0  0  0  0  0
   -5.3191   -4.0496    0.8793 C   0  0  2  0  0  0  0  0  0  0  0  0
  -10.6310    4.3465   -2.0213 C   0  0  0  0  0  0  0  0  0  0  0  0
   -7.2682   -2.8052   -0.1759 C   0  0  0  0  0  0  0  0  0  0  0  0
    6.5234   -1.2717   -2.7898 C   0  0  0  0  0  0  0  0  0  0  0  0
    5.5155   -1.8840   -0.5486 C   0  0  0  0  0  0  0  0  0  0  0  0
   -3.8350   -4.2205    1.0966 C   0  0  0  0  0  0  0  0  0  0  0  0
    4.1632   -2.1325   -0.9979 C   0  0  0  0  0  0  0  0  0  0  0  0
   -2.8586   -3.7393    0.3125 C   0  0  0  0  0  0  0  0  0  0  0  0
    3.2219   -2.6555   -0.1977 C   0  0  0  0  0  0  0  0  0  0  0  0
   -1.4534   -3.8500    0.6309 C   0  0  0  0  0  0  0  0  0  0  0  0
    1.8428   -2.8041   -0.6037 C   0  0  0  0  0  0  0  0  0  0  0  0
   -0.4965   -3.3633   -0.1727 C   0  0  0  0  0  0  0  0  0  0  0  0
    0.9026   -3.3393    0.1887 C   0  0  0  0  0  0  0  0  0  0  0  0
   -5.2710    0.4961    1.7089 H   0  0  0  0  0  0  0  0  0  0  0  0
   -3.0153    1.5646    1.8232 H   0  0  0  0  0  0  0  0  0  0  0  0
   -2.4882    1.3955   -0.7129 H   0  0  0  0  0  0  0  0  0  0  0  0
   -2.1787   -0.3291   -0.4164 H   0  0  0  0  0  0  0  0  0  0  0  0
   -0.7563    1.9274    1.0861 H   0  0  0  0  0  0  0  0  0  0  0  0
    0.1195    0.2696   -1.3422 H   0  0  0  0  0  0  0  0  0  0  0  0
   -0.1840    1.9919   -1.3404 H   0  0  0  0  0  0  0  0  0  0  0  0
   -4.6508    2.0522   -0.8548 H   0  0  0  0  0  0  0  0  0  0  0  0
    2.1140    0.4782    0.0066 H   0  0  0  0  0  0  0  0  0  0  0  0
    1.5397    2.2573    1.5982 H   0  0  0  0  0  0  0  0  0  0  0  0
    1.3006    3.4133    0.3103 H   0  0  0  0  0  0  0  0  0  0  0  0
    3.6352    3.5726   -0.1794 H   0  0  0  0  0  0  0  0  0  0  0  0
   -7.1655    1.8137    0.8638 H   0  0  0  0  0  0  0  0  0  0  0  0
   -6.9604    1.0374   -0.7098 H   0  0  0  0  0  0  0  0  0  0  0  0
    4.0338    1.2928    1.8230 H   0  0  0  0  0  0  0  0  0  0  0  0
    4.4417    1.2852    0.1007 H   0  0  0  0  0  0  0  0  0  0  0  0
    5.9689    3.4113    0.8209 H   0  0  0  0  0  0  0  0  0  0  0  0
    7.7941    1.7669    1.6444 H   0  0  0  0  0  0  0  0  0  0  0  0
    6.6209    0.4757    1.4453 H   0  0  0  0  0  0  0  0  0  0  0  0
   -6.6236    3.2960   -1.7514 H   0  0  0  0  0  0  0  0  0  0  0  0
   -6.8957    4.0527   -0.1800 H   0  0  0  0  0  0  0  0  0  0  0  0
    6.3995    1.2414   -1.0387 H   0  0  0  0  0  0  0  0  0  0  0  0
    8.6762    0.4735   -1.8115 H   0  0  0  0  0  0  0  0  0  0  0  0
   -8.9078    2.2543   -1.6281 H   0  0  0  0  0  0  0  0  0  0  0  0
   -9.1757    3.0410   -0.0711 H   0  0  0  0  0  0  0  0  0  0  0  0
   -3.5126   -0.3791    2.8273 H   0  0  0  0  0  0  0  0  0  0  0  0
   -0.7932   -0.1045    2.1053 H   0  0  0  0  0  0  0  0  0  0  0  0
   -3.8695    3.2430    0.7590 H   0  0  0  0  0  0  0  0  0  0  0  0
    2.1972    0.9010   -2.2017 H   0  0  0  0  0  0  0  0  0  0  0  0
    7.8301   -1.3781    0.4647 H   0  0  0  0  0  0  0  0  0  0  0  0
    4.2347    4.4724    1.7429 H   0  0  0  0  0  0  0  0  0  0  0  0
   -8.6041    4.5062   -2.7055 H   0  0  0  0  0  0  0  0  0  0  0  0
   -8.9063    5.2827   -1.1496 H   0  0  0  0  0  0  0  0  0  0  0  0
   -5.2982   -2.9424   -0.9990 H   0  0  0  0  0  0  0  0  0  0  0  0
    6.6648    3.1906    2.9383 H   0  0  0  0  0  0  0  0  0  0  0  0
    7.1248    3.2798   -0.9264 H   0  0  0  0  0  0  0  0  0  0  0  0
   -5.7545   -3.9104    1.8784 H   0  0  0  0  0  0  0  0  0  0  0  0
    9.3075    0.2489    0.9328 H   0  0  0  0  0  0  0  0  0  0  0  0
  -11.1949    4.2674   -1.0863 H   0  0  0  0  0  0  0  0  0  0  0  0
  -10.8882    3.4893   -2.6515 H   0  0  0  0  0  0  0  0  0  0  0  0
  -10.9542    5.2563   -2.5369 H   0  0  0  0  0  0  0  0  0  0  0  0
   -7.5591   -1.9022   -0.7239 H   0  0  0  0  0  0  0  0  0  0  0  0
   -7.6464   -3.6714   -0.7263 H   0  0  0  0  0  0  0  0  0  0  0  0
   -7.7710   -2.7560    0.7962 H   0  0  0  0  0  0  0  0  0  0  0  0
    8.5933   -2.9285   -0.9868 H   0  0  0  0  0  0  0  0  0  0  0  0
    5.6336   -1.6963   -3.2608 H   0  0  0  0  0  0  0  0  0  0  0  0
    6.5585   -0.2077   -3.0423 H   0  0  0  0  0  0  0  0  0  0  0  0
    7.3819   -1.7638   -3.2587 H   0  0  0  0  0  0  0  0  0  0  0  0
    5.6717   -2.0150    0.5217 H   0  0  0  0  0  0  0  0  0  0  0  0
   -3.5634   -4.7696    1.9973 H   0  0  0  0  0  0  0  0  0  0  0  0
   -6.7798   -5.3075    0.5517 H   0  0  0  0  0  0  0  0  0  0  0  0
    3.8970   -1.8348   -2.0073 H   0  0  0  0  0  0  0  0  0  0  0  0
   -3.1055   -3.2014   -0.5978 H   0  0  0  0  0  0  0  0  0  0  0  0
    3.4728   -2.9526    0.8182 H   0  0  0  0  0  0  0  0  0  0  0  0
   -1.1912   -4.3007    1.5851 H   0  0  0  0  0  0  0  0  0  0  0  0
    1.5709   -2.4111   -1.5811 H   0  0  0  0  0  0  0  0  0  0  0  0
   -0.7670   -2.9041   -1.1214 H   0  0  0  0  0  0  0  0  0  0  0  0
    1.1694   -3.7246    1.1701 H   0  0  0  0  0  0  0  0  0  0  0  0
  1 14  1  0  0  0  0
  1 73  1  0  0  0  0
  2 16  1  0  0  0  0
  2 74  1  0  0  0  0
  3 18  1  0  0  0  0
  3 75  1  0  0  0  0
  4 19  1  0  0  0  0
  4 76  1  0  0  0  0
  5 21  1  0  0  0  0
  5 78  1  0  0  0  0
  6 27  1  0  0  0  0
  6 33  1  0  0  0  0
  7 24  1  0  0  0  0
  7 82  1  0  0  0  0
  8 28  1  0  0  0  0
  8 83  1  0  0  0  0
  9 27  2  0  0  0  0
 10 29  1  0  0  0  0
 10 85  1  0  0  0  0
 11 31  1  0  0  0  0
 11 92  1  0  0  0  0
 12 35  1  0  0  0  0
 12 98  1  0  0  0  0
 13 14  1  0  0  0  0
 13 18  1  0  0  0  0
 13 27  1  0  0  0  0
 13 48  1  0  0  0  0
 14 15  1  0  0  0  0
 14 49  1  0  0  0  0
 15 16  1  0  0  0  0
 15 50  1  0  0  0  0
 15 51  1  0  0  0  0
 16 17  1  0  0  0  0
 16 52  1  0  0  0  0
 17 19  1  0  0  0  0
 17 53  1  0  0  0  0
 17 54  1  0  0  0  0
 18 22  1  0  0  0  0
 18 55  1  0  0  0  0
 19 20  1  0  0  0  0
 19 56  1  0  0  0  0
 20 21  1  0  0  0  0
 20 57  1  0  0  0  0
 20 58  1  0  0  0  0
 21 23  1  0  0  0  0
 21 59  1  0  0  0  0
 22 26  1  0  0  0  0
 22 60  1  0  0  0  0
 22 61  1  0  0  0  0
 23 24  1  0  0  0  0
 23 62  1  0  0  0  0
 23 63  1  0  0  0  0
 24 25  1  0  0  0  0
 24 64  1  0  0  0  0
 25 28  1  0  0  0  0
 25 65  1  0  0  0  0
 25 66  1  0  0  0  0
 26 30  1  0  0  0  0
 26 67  1  0  0  0  0
 26 68  1  0  0  0  0
 28 29  1  0  0  0  0
 28 69  1  0  0  0  0
 29 31  1  0  0  0  0
 29 70  1  0  0  0  0
 30 32  1  0  0  0  0
 30 71  1  0  0  0  0
 30 72  1  0  0  0  0
 31 34  1  0  0  0  0
 31 77  1  0  0  0  0
 32 36  1  0  0  0  0
 32 79  1  0  0  0  0
 32 80  1  0  0  0  0
 33 35  1  0  0  0  0
 33 37  1  0  0  0  0
 33 81  1  0  0  0  0
 34 38  1  0  0  0  0
 34 39  2  0  0  0  0
 35 40  1  0  0  0  0
 35 84  1  0  0  0  0
 36 86  1  0  0  0  0
 36 87  1  0  0  0  0
 36 88  1  0  0  0  0
 37 89  1  0  0  0  0
 37 90  1  0  0  0  0
 37 91  1  0  0  0  0
 38 93  1  0  0  0  0
 38 94  1  0  0  0  0
 38 95  1  0  0  0  0
 39 41  1  0  0  0  0
 39 96  1  0  0  0  0
 40 42  2  0  0  0  0
 40 97  1  0  0  0  0
 41 43  2  0  0  0  0
 41 99  1  0  0  0  0
 42 44  1  0  0  0  0
 42100  1  0  0  0  0
 43 45  1  0  0  0  0
 43101  1  0  0  0  0
 44 46  2  0  0  0  0
 44102  1  0  0  0  0
 45 47  2  0  0  0  0
 45103  1  0  0  0  0
 46 47  1  0  0  0  0
 46104  1  0  0  0  0
 47105  1  0  0  0  0
M  END
> <PUBCHEM_COMPOUND_CID>
5282200

> <PUBCHEM_CONFORMER_RMSD>
1.2

> <PUBCHEM_CONFORMER_DIVERSEORDER>
1
2
3

> <PUBCHEM_MMFF94_PARTIAL_CHARGES>
55
1 -0.68
10 -0.68
100 0.15
101 0.15
102 0.15
103 0.15
104 0.15
105 0.15
11 -0.68
12 -0.68
13 0.06
14 0.28
16 0.28
18 0.28
19 0.28
2 -0.68
21 0.28
24 0.28
27 0.66
28 0.28
29 0.28
3 -0.68
31 0.42
33 0.28
34 -0.28
35 0.42
38 0.14
39 -0.15
4 -0.68
40 -0.29
41 -0.15
42 -0.15
43 -0.15
44 -0.15
45 -0.15
46 -0.15
47 -0.15
5 -0.68
6 -0.43
7 -0.68
73 0.4
74 0.4
75 0.4
76 0.4
78 0.4
8 -0.68
82 0.4
83 0.4
85 0.4
9 -0.57
92 0.4
96 0.15
97 0.15
98 0.4
99 0.15

> <PUBCHEM_EFFECTIVE_ROTOR_COUNT>
8.4

> <PUBCHEM_PHARMACOPHORE_FEATURES>
23
1 1 acceptor
1 1 donor
1 10 acceptor
1 10 donor
1 11 acceptor
1 11 donor
1 12 acceptor
1 12 donor
1 2 acceptor
1 2 donor
1 3 acceptor
1 3 donor
1 36 hydrophobe
1 4 acceptor
1 4 donor
1 5 acceptor
1 5 donor
1 7 acceptor
1 7 donor
1 8 acceptor
1 8 donor
1 9 acceptor
4 22 26 30 32 hydrophobe

> <PUBCHEM_HEAVY_ATOM_COUNT>
47

> <PUBCHEM_ATOM_DEF_STEREO_COUNT>
12

> <PUBCHEM_ATOM_UDEF_STEREO_COUNT>
0

> <PUBCHEM_BOND_DEF_STEREO_COUNT>
5

> <PUBCHEM_BOND_UDEF_STEREO_COUNT>
0

> <PUBCHEM_ISOTOPIC_ATOM_COUNT>
0

> <PUBCHEM_COMPONENT_COUNT>
1

> <PUBCHEM_CACTVS_TAUTO_COUNT>
1

> <PUBCHEM_CONFORMER_ID>
0050999800000001

> <PUBCHEM_MMFF94_ENERGY>
87.0709

> <PUBCHEM_FEATURE_SELFOVERLAP>
116.739

> <PUBCHEM_SHAPE_FINGERPRINT>
10864689 126 18337380669397709846
11621639 179 17843129358026836861
13811026 1 18336263440491845394
14394314 77 18337381746743352464
14415360 78 18270129045253642799
15274700 259 17987240125853000541
15439362 3 18268437996354291953
15781502 593 18335139800449801730
20609170 92 18336267829853060867
20721686 56 18265892450521604755
21133410 127 17903083231951106104
5776283 40 18339642356315430369
9831232 110 18408317775329967468

> <PUBCHEM_SHAPE_MULTIPOLES>
896.81
31.15
7.15
1.72
0.74
3.31
-0.11
-23.86
-13.46
14.35
0.44
-1.16
-1.14
8.48

> <PUBCHEM_SHAPE_SELFOVERLAP>
1766.669

> <PUBCHEM_SHAPE_VOLUME>
530.4

> <PUBCHEM_COORDINATE_TYPE>
2
5
10

$$$$

