14196
  -OEChem-07051212453D

 48 51  0     0  0  0  0  0  0999 V2000
    3.4366    1.1999   -0.3379 N   0  3  0  0  0  0  0  0  0  0  0  0
   -3.4372    1.2009    0.3373 N   0  3  0  0  0  0  0  0  0  0  0  0
    0.7195    1.2001   -0.0707 C   0  0  0  0  0  0  0  0  0  0  0  0
   -0.7201    1.2007    0.0707 C   0  0  0  0  0  0  0  0  0  0  0  0
    4.8896    1.2002   -0.4808 C   0  0  0  0  0  0  0  0  0  0  0  0
   -4.8903    1.2005    0.4798 C   0  0  0  0  0  0  0  0  0  0  0  0
    1.2994    0.8876   -1.2967 C   0  0  0  0  0  0  0  0  0  0  0  0
   -1.5274    1.5122   -1.0192 C   0  0  0  0  0  0  0  0  0  0  0  0
    1.5270    1.5124    1.0188 C   0  0  0  0  0  0  0  0  0  0  0  0
   -1.3002    0.8892    1.2967 C   0  0  0  0  0  0  0  0  0  0  0  0
    2.6829    0.8955   -1.4031 C   0  0  0  0  0  0  0  0  0  0  0  0
   -2.9052    1.5043   -0.8545 C   0  0  0  0  0  0  0  0  0  0  0  0
    2.9047    1.5044    0.8538 C   0  0  0  0  0  0  0  0  0  0  0  0
   -2.6837    0.8972    1.4029 C   0  0  0  0  0  0  0  0  0  0  0  0
    5.4674   -0.1540   -0.1725 C   0  0  0  0  0  0  0  0  0  0  0  0
   -5.4674   -0.1541    0.1722 C   0  0  0  0  0  0  0  0  0  0  0  0
    5.6162   -1.0834   -1.1934 C   0  0  0  0  0  0  0  0  0  0  0  0
   -5.6161   -1.0829    1.1938 C   0  0  0  0  0  0  0  0  0  0  0  0
    5.8451   -0.4573    1.1289 C   0  0  0  0  0  0  0  0  0  0  0  0
   -5.8444   -0.4586   -1.1290 C   0  0  0  0  0  0  0  0  0  0  0  0
    6.1521   -2.3391   -0.9077 C   0  0  0  0  0  0  0  0  0  0  0  0
   -6.1513   -2.3391    0.9088 C   0  0  0  0  0  0  0  0  0  0  0  0
    6.3811   -1.7130    1.4144 C   0  0  0  0  0  0  0  0  0  0  0  0
   -6.3798   -1.7148   -1.4139 C   0  0  0  0  0  0  0  0  0  0  0  0
    6.5347   -2.6539    0.3960 C   0  0  0  0  0  0  0  0  0  0  0  0
   -6.5332   -2.6550   -0.3949 C   0  0  0  0  0  0  0  0  0  0  0  0
    5.3080    1.9701    0.1800 H   0  0  0  0  0  0  0  0  0  0  0  0
    5.1425    1.5169   -1.5007 H   0  0  0  0  0  0  0  0  0  0  0  0
   -5.3089    1.9698   -0.1817 H   0  0  0  0  0  0  0  0  0  0  0  0
   -5.1437    1.5178    1.4995 H   0  0  0  0  0  0  0  0  0  0  0  0
    0.7222    0.6089   -2.1725 H   0  0  0  0  0  0  0  0  0  0  0  0
   -1.1318    1.7910   -1.9905 H   0  0  0  0  0  0  0  0  0  0  0  0
    1.1315    1.7920    1.9900 H   0  0  0  0  0  0  0  0  0  0  0  0
   -0.7232    0.6110    2.1728 H   0  0  0  0  0  0  0  0  0  0  0  0
    3.1908    0.6568   -2.3297 H   0  0  0  0  0  0  0  0  0  0  0  0
   -3.5837    1.7468   -1.6635 H   0  0  0  0  0  0  0  0  0  0  0  0
    3.5833    1.7476    1.6625 H   0  0  0  0  0  0  0  0  0  0  0  0
   -3.1918    0.6590    2.3296 H   0  0  0  0  0  0  0  0  0  0  0  0
    5.3244   -0.8493   -2.2132 H   0  0  0  0  0  0  0  0  0  0  0  0
   -5.3248   -0.8480    2.2135 H   0  0  0  0  0  0  0  0  0  0  0  0
    5.7328    0.2677    1.9299 H   0  0  0  0  0  0  0  0  0  0  0  0
   -5.7322    0.2659   -1.9305 H   0  0  0  0  0  0  0  0  0  0  0  0
    6.2723   -3.0715   -1.7006 H   0  0  0  0  0  0  0  0  0  0  0  0
   -6.2713   -3.0711    1.7021 H   0  0  0  0  0  0  0  0  0  0  0  0
    6.6796   -1.9581    2.4296 H   0  0  0  0  0  0  0  0  0  0  0  0
   -6.6778   -1.9607   -2.4290 H   0  0  0  0  0  0  0  0  0  0  0  0
    6.9524   -3.6315    0.6184 H   0  0  0  0  0  0  0  0  0  0  0  0
   -6.9503   -3.6330   -0.6167 H   0  0  0  0  0  0  0  0  0  0  0  0
  1  5  1  0  0  0  0
  1 11  2  0  0  0  0
  1 13  1  0  0  0  0
  2  6  1  0  0  0  0
  2 12  2  0  0  0  0
  2 14  1  0  0  0  0
  3  4  1  0  0  0  0
  3  7  2  0  0  0  0
  3  9  1  0  0  0  0
  4  8  2  0  0  0  0
  4 10  1  0  0  0  0
  5 15  1  0  0  0  0
  5 27  1  0  0  0  0
  5 28  1  0  0  0  0
  6 16  1  0  0  0  0
  6 29  1  0  0  0  0
  6 30  1  0  0  0  0
  7 11  1  0  0  0  0
  7 31  1  0  0  0  0
  8 12  1  0  0  0  0
  8 32  1  0  0  0  0
  9 13  2  0  0  0  0
  9 33  1  0  0  0  0
 10 14  2  0  0  0  0
 10 34  1  0  0  0  0
 11 35  1  0  0  0  0
 12 36  1  0  0  0  0
 13 37  1  0  0  0  0
 14 38  1  0  0  0  0
 15 17  2  0  0  0  0
 15 19  1  0  0  0  0
 16 18  2  0  0  0  0
 16 20  1  0  0  0  0
 17 21  1  0  0  0  0
 17 39  1  0  0  0  0
 18 22  1  0  0  0  0
 18 40  1  0  0  0  0
 19 23  2  0  0  0  0
 19 41  1  0  0  0  0
 20 24  2  0  0  0  0
 20 42  1  0  0  0  0
 21 25  2  0  0  0  0
 21 43  1  0  0  0  0
 22 26  2  0  0  0  0
 22 44  1  0  0  0  0
 23 25  1  0  0  0  0
 23 45  1  0  0  0  0
 24 26  1  0  0  0  0
 24 46  1  0  0  0  0
 25 47  1  0  0  0  0
 26 48  1  0  0  0  0
M  CHG  2   1   1   2   1
M  END
> <PUBCHEM_COMPOUND_CID>
14196

> <PUBCHEM_CONFORMER_RMSD>
0.8

> <PUBCHEM_CONFORMER_DIVERSEORDER>
1
9
11
10
7
2
4
6
8
5
3

> <PUBCHEM_MMFF94_PARTIAL_CHARGES>
42
1 -0.21
10 -0.15
11 0.21
12 0.21
13 0.21
14 0.21
15 -0.14
16 -0.14
17 -0.15
18 -0.15
19 -0.15
2 -0.21
20 -0.15
21 -0.15
22 -0.15
23 -0.15
24 -0.15
25 -0.15
26 -0.15
31 0.15
32 0.15
33 0.15
34 0.15
35 0.15
36 0.15
37 0.15
38 0.15
39 0.15
40 0.15
41 0.15
42 0.15
43 0.15
44 0.15
45 0.15
46 0.15
47 0.15
48 0.15
5 0.63
6 0.63
7 -0.15
8 -0.15
9 -0.15

> <PUBCHEM_EFFECTIVE_ROTOR_COUNT>
5

> <PUBCHEM_PHARMACOPHORE_FEATURES>
4
6 1 3 7 9 11 13 rings
6 15 17 19 21 23 25 rings
6 16 18 20 22 24 26 rings
6 2 4 8 10 12 14 rings

> <PUBCHEM_HEAVY_ATOM_COUNT>
26

> <PUBCHEM_ATOM_DEF_STEREO_COUNT>
0

> <PUBCHEM_ATOM_UDEF_STEREO_COUNT>
0

> <PUBCHEM_BOND_DEF_STEREO_COUNT>
0

> <PUBCHEM_BOND_UDEF_STEREO_COUNT>
0

> <PUBCHEM_ISOTOPIC_ATOM_COUNT>
0

> <PUBCHEM_COMPONENT_COUNT>
1

> <PUBCHEM_CACTVS_TAUTO_COUNT>
1

> <PUBCHEM_CONFORMER_ID>
0000377400000001

> <PUBCHEM_MMFF94_ENERGY>
86.1061

> <PUBCHEM_FEATURE_SELFOVERLAP>
20.297

> <PUBCHEM_SHAPE_FINGERPRINT>
10 15 15213022647944414344
10066227 112 10303818678740494579
10693767 8 17418103152267805314
10730089 47 18412545418469900312
11393246 34 18343020025153697939
11646440 116 15430034357688543848
11991303 11 14979664473360926019
12166972 35 18341608200779426348
12895837 130 10951783967377545955
13167372 99 8718831972697062702
13533116 47 18409165502910524024
1361 4 18338515218646084338
13782708 43 18410575084663176352
14211702 104 18261103093132924830
14347332 77 18060142089028650564
14849402 71 7276534447972738651
14951699 99 8574717918271397339
15183329 4 17418095425046528738
15188451 53 18333734606850179285
15326921 28 15503480725686941547
15352257 5 18410854360616917283
15475509 35 18333737927281931650
15575132 122 11671776087554531642
16994733 274 8790878571503084646
190975 80 16805612434017804839
19377110 9 15791731901347297908
19958102 18 17561084691688224443
20028762 73 18408603695308127286
2026 5 18410859863203974167
20281389 69 8646776586230269917
20567600 247 18343022224593600730
21033648 29 6483088375073884743
21130935 74 18261110794420327514
21298829 104 8934704609854744458
21424621 283 7493291049206459045
21521239 73 17917996061721419346
21585481 151 17897720093118527446
21585482 111 8070031056158092306
21585483 132 18201452384129829898
21637258 2 18410858758663434881
2215653 11 16917344857715503864
23081809 10 18340758291059928381
23522609 53 18122310623652172832
23559900 14 17131825413676940485
25122255 55 18341606001861263211
2747138 104 17676487302658500298
2838139 119 11527679548516871087
29717793 49 17489586757859261644
328310 630 11312059868043971703
3383291 50 18333734615182592878
3504750 166 18194965364182929009
3680242 22 14201399417526105338
392239 28 16008753485379476881
4058900 60 12391521918198956985
439807 62 18335700521172589039
465052 167 18187362147536397428
504579 68 15913334610435334237
5104073 3 15647349476121847617
531348 171 18272653502159947773
5718773 13 18410578383198248066
6328613 192 10087641498606774999

> <PUBCHEM_SHAPE_MULTIPOLES>
525.11
21.76
2.72
1.51
0.02
1.83
0
20.05
0
0
0
0
0.11
-0.57

> <PUBCHEM_SHAPE_SELFOVERLAP>
1157.746

> <PUBCHEM_SHAPE_VOLUME>
281.3

> <PUBCHEM_COORDINATE_TYPE>
2
5
10

$$$$

