253633
  -OEChem-07051213063D

 56 59  0     1  0  0  0  0  0999 V2000
    5.2771    1.3572   -0.2803 O   0  0  0  0  0  0  0  0  0  0  0  0
   -4.4689   -0.4042   -1.6168 O   0  0  0  0  0  0  0  0  0  0  0  0
   -0.0408    0.3277   -0.1632 C   0  0  1  0  0  0  0  0  0  0  0  0
    0.8824   -0.8628    0.2589 C   0  0  2  0  0  0  0  0  0  0  0  0
   -1.4934    0.1830    0.4281 C   0  0  2  0  0  0  0  0  0  0  0  0
    2.2521   -0.6741   -0.4014 C   0  0  1  0  0  0  0  0  0  0  0  0
    2.9356    0.6431    0.0150 C   0  0  2  0  0  0  0  0  0  0  0  0
   -2.0482   -1.1998   -0.0397 C   0  0  1  0  0  0  0  0  0  0  0  0
    0.6266    1.7037    0.1017 C   0  0  0  0  0  0  0  0  0  0  0  0
    0.2587   -2.2147   -0.1156 C   0  0  0  0  0  0  0  0  0  0  0  0
    2.0569    1.8078   -0.4594 C   0  0  0  0  0  0  0  0  0  0  0  0
   -1.1652   -2.3677    0.4151 C   0  0  0  0  0  0  0  0  0  0  0  0
    3.3371   -1.7244   -0.1790 C   0  0  0  0  0  0  0  0  0  0  0  0
   -2.4305    1.2880   -0.1420 C   0  0  0  0  0  0  0  0  0  0  0  0
    4.2652    0.4863   -0.7478 C   0  0  2  0  0  0  0  0  0  0  0  0
    4.6432   -0.9934   -0.5395 C   0  0  0  0  0  0  0  0  0  0  0  0
   -3.5185   -1.4203    0.3538 C   0  0  0  0  0  0  0  0  0  0  0  0
   -3.9182    1.0860    0.2153 C   0  0  2  0  0  0  0  0  0  0  0  0
   -1.4695    0.3097    1.9736 C   0  0  0  0  0  0  0  0  0  0  0  0
    3.2004    0.7827    1.5360 C   0  0  0  0  0  0  0  0  0  0  0  0
   -4.4200   -0.3095   -0.1930 C   0  0  1  0  0  0  0  0  0  0  0  0
   -4.7620    2.1957   -0.4195 C   0  0  0  0  0  0  0  0  0  0  0  0
   -0.1455    0.2640   -1.2583 H   0  0  0  0  0  0  0  0  0  0  0  0
    1.0139   -0.8597    1.3456 H   0  0  0  0  0  0  0  0  0  0  0  0
    2.0770   -0.6458   -1.4902 H   0  0  0  0  0  0  0  0  0  0  0  0
   -2.0197   -1.2074   -1.1405 H   0  0  0  0  0  0  0  0  0  0  0  0
    0.6477    1.9180    1.1744 H   0  0  0  0  0  0  0  0  0  0  0  0
    0.0327    2.5005   -0.3597 H   0  0  0  0  0  0  0  0  0  0  0  0
    0.8719   -3.0342    0.2773 H   0  0  0  0  0  0  0  0  0  0  0  0
    0.2467   -2.3271   -1.2075 H   0  0  0  0  0  0  0  0  0  0  0  0
    2.0009    1.8137   -1.5557 H   0  0  0  0  0  0  0  0  0  0  0  0
    2.4968    2.7693   -0.1685 H   0  0  0  0  0  0  0  0  0  0  0  0
   -1.5779   -3.3132    0.0423 H   0  0  0  0  0  0  0  0  0  0  0  0
   -1.1527   -2.4455    1.5081 H   0  0  0  0  0  0  0  0  0  0  0  0
    3.1886   -2.6076   -0.8087 H   0  0  0  0  0  0  0  0  0  0  0  0
    3.3632   -2.0607    0.8634 H   0  0  0  0  0  0  0  0  0  0  0  0
   -2.3241    1.3226   -1.2347 H   0  0  0  0  0  0  0  0  0  0  0  0
   -2.1191    2.2724    0.2288 H   0  0  0  0  0  0  0  0  0  0  0  0
    4.1280    0.6729   -1.8205 H   0  0  0  0  0  0  0  0  0  0  0  0
    5.3920   -1.1200    0.2505 H   0  0  0  0  0  0  0  0  0  0  0  0
    5.0779   -1.4028   -1.4583 H   0  0  0  0  0  0  0  0  0  0  0  0
   -3.8521   -2.3812   -0.0586 H   0  0  0  0  0  0  0  0  0  0  0  0
   -3.6235   -1.4886    1.4420 H   0  0  0  0  0  0  0  0  0  0  0  0
   -4.0338    1.1804    1.3020 H   0  0  0  0  0  0  0  0  0  0  0  0
   -0.7664   -0.3816    2.4441 H   0  0  0  0  0  0  0  0  0  0  0  0
   -1.1872    1.3213    2.2837 H   0  0  0  0  0  0  0  0  0  0  0  0
   -2.4452    0.1098    2.4246 H   0  0  0  0  0  0  0  0  0  0  0  0
    3.8653    0.0016    1.9180 H   0  0  0  0  0  0  0  0  0  0  0  0
    3.6751    1.7455    1.7583 H   0  0  0  0  0  0  0  0  0  0  0  0
    2.2846    0.7375    2.1310 H   0  0  0  0  0  0  0  0  0  0  0  0
   -5.4392   -0.4682    0.1789 H   0  0  0  0  0  0  0  0  0  0  0  0
   -4.6320    2.2406   -1.5058 H   0  0  0  0  0  0  0  0  0  0  0  0
   -5.8256    2.0464   -0.2061 H   0  0  0  0  0  0  0  0  0  0  0  0
   -4.4752    3.1719   -0.0136 H   0  0  0  0  0  0  0  0  0  0  0  0
    4.9592    2.2676   -0.4041 H   0  0  0  0  0  0  0  0  0  0  0  0
   -5.2320    0.1140   -1.9230 H   0  0  0  0  0  0  0  0  0  0  0  0
  1 15  1  0  0  0  0
  1 55  1  0  0  0  0
  2 21  1  0  0  0  0
  2 56  1  0  0  0  0
  3  4  1  0  0  0  0
  3  5  1  0  0  0  0
  3  9  1  0  0  0  0
  3 23  1  0  0  0  0
  4  6  1  0  0  0  0
  4 10  1  0  0  0  0
  4 24  1  0  0  0  0
  5  8  1  0  0  0  0
  5 14  1  0  0  0  0
  5 19  1  0  0  0  0
  6  7  1  0  0  0  0
  6 13  1  0  0  0  0
  6 25  1  0  0  0  0
  7 11  1  0  0  0  0
  7 15  1  0  0  0  0
  7 20  1  0  0  0  0
  8 12  1  0  0  0  0
  8 17  1  0  0  0  0
  8 26  1  0  0  0  0
  9 11  1  0  0  0  0
  9 27  1  0  0  0  0
  9 28  1  0  0  0  0
 10 12  1  0  0  0  0
 10 29  1  0  0  0  0
 10 30  1  0  0  0  0
 11 31  1  0  0  0  0
 11 32  1  0  0  0  0
 12 33  1  0  0  0  0
 12 34  1  0  0  0  0
 13 16  1  0  0  0  0
 13 35  1  0  0  0  0
 13 36  1  0  0  0  0
 14 18  1  0  0  0  0
 14 37  1  0  0  0  0
 14 38  1  0  0  0  0
 15 16  1  0  0  0  0
 15 39  1  0  0  0  0
 16 40  1  0  0  0  0
 16 41  1  0  0  0  0
 17 21  1  0  0  0  0
 17 42  1  0  0  0  0
 17 43  1  0  0  0  0
 18 21  1  0  0  0  0
 18 22  1  0  0  0  0
 18 44  1  0  0  0  0
 19 45  1  0  0  0  0
 19 46  1  0  0  0  0
 19 47  1  0  0  0  0
 20 48  1  0  0  0  0
 20 49  1  0  0  0  0
 20 50  1  0  0  0  0
 21 51  1  0  0  0  0
 22 52  1  0  0  0  0
 22 53  1  0  0  0  0
 22 54  1  0  0  0  0
M  END
> <PUBCHEM_COMPOUND_CID>
253633

> <PUBCHEM_CONFORMER_RMSD>
0.6

> <PUBCHEM_CONFORMER_DIVERSEORDER>
1

> <PUBCHEM_MMFF94_PARTIAL_CHARGES>
6
1 -0.68
15 0.28
2 -0.68
21 0.28
55 0.4
56 0.4

> <PUBCHEM_EFFECTIVE_ROTOR_COUNT>
2.2

> <PUBCHEM_PHARMACOPHORE_FEATURES>
8
1 1 acceptor
1 1 donor
1 2 acceptor
1 2 donor
5 6 7 13 15 16 rings
6 3 4 5 8 10 12 rings
6 3 4 6 7 9 11 rings
6 5 8 14 17 18 21 rings

> <PUBCHEM_HEAVY_ATOM_COUNT>
22

> <PUBCHEM_ATOM_DEF_STEREO_COUNT>
9

> <PUBCHEM_ATOM_UDEF_STEREO_COUNT>
0

> <PUBCHEM_BOND_DEF_STEREO_COUNT>
0

> <PUBCHEM_BOND_UDEF_STEREO_COUNT>
0

> <PUBCHEM_ISOTOPIC_ATOM_COUNT>
0

> <PUBCHEM_COMPONENT_COUNT>
1

> <PUBCHEM_CACTVS_TAUTO_COUNT>
1

> <PUBCHEM_CONFORMER_ID>
0003DEC100000001

> <PUBCHEM_MMFF94_ENERGY>
79.6157

> <PUBCHEM_FEATURE_SELFOVERLAP>
40.685

> <PUBCHEM_SHAPE_FINGERPRINT>
10062212 137 18187368752974506959
10366900 7 17385718076458309610
10498660 4 18411131450753681164
10646746 165 18412262843617486933
10967382 1 18339357573654803906
1100329 8 16896799666347437024
11315181 36 17749382672906214800
11370993 70 18409453561459916187
11578080 2 16735244673382923251
12011746 2 18335696157264017230
12236239 1 17894907447467858665
12403259 226 18264772060930221257
12403259 415 18333732394741789361
12500047 106 18409167680025978002
12592029 89 18272087227611683051
12788726 201 17969215814353381576
13140716 1 18267298909895856058
13224815 77 17894907421233902779
14790565 3 18194955464542144673
15099037 51 18413105086709507438
15196674 1 18411134753356574606
15375358 24 18410853240062690406
15420108 30 16457685513082135728
15536298 74 18334013895509168546
15788980 27 17676207978753406301
1601671 61 18343863320876754916
16752209 62 18409172073661743699
16945 1 18193276290989374026
17349148 13 18113897160706884179
18186145 218 18412548738447893551
19862831 5 18040996267146817433
200 152 17821446850575210359
20645477 70 18334853957122020638
20775438 99 16670540553736588407
21033648 29 18408890620059844569
21267235 1 18338505383223529111
21279426 13 18338513165777954046
21421861 104 17631183046853663058
221357 26 18334862701807005125
22393880 68 18336269032565294551
23402539 116 18334580173845888740
23402655 69 18261674865154581973
23493267 7 18059855052132420227
23559900 14 18333732433802397280
25 1 18342740762417376103
2748010 2 18337379487595784042
296302 2 18411132545648302445
3004659 81 18271240621291766926
3286 77 17458348580547519946
335352 9 18267865158494833030
34934 24 18342176653139062176
350125 39 18411692159161260153
3545911 37 18408880724386174000
4028521 119 18335417967420459427
4214541 1 18411416224159695733
4280585 95 17395002601494034406
474 4 17846776295607166357
495365 180 17531259348326980090
5104073 3 18411416228238230155
542803 24 17346593075743226780
633830 44 17775844627140298771
69090 78 18408324375829395023
9709674 26 18338514119144791683

> <PUBCHEM_SHAPE_MULTIPOLES>
441.01
9.96
2.29
1.09
0.52
0.36
-0.34
-2.49
2.3
-0.48
0.1
-0.21
-0.12
0.3

> <PUBCHEM_SHAPE_SELFOVERLAP>
931.874

> <PUBCHEM_SHAPE_VOLUME>
245.5

> <PUBCHEM_COORDINATE_TYPE>
2
5
10

$$$$

