17395979
  -OEChem-06241222533D

 41 44  0     0  0  0  0  0  0999 V2000
   -0.4687   -0.3173    0.1669 S   0  0  0  0  0  0  0  0  0  0  0  0
    2.5296   -0.5789   -1.9732 O   0  0  0  0  0  0  0  0  0  0  0  0
   -3.1544   -0.9480   -0.1152 N   0  0  0  0  0  0  0  0  0  0  0  0
    2.1469   -0.9101    0.2955 N   0  0  0  0  0  0  0  0  0  0  0  0
   -3.9721   -1.9950   -0.2926 N   0  0  0  0  0  0  0  0  0  0  0  0
    2.5655   -0.7747    1.5906 N   0  0  0  0  0  0  0  0  0  0  0  0
   -1.8530   -2.6808   -0.1965 N   0  0  0  0  0  0  0  0  0  0  0  0
    3.6576   -0.2426    1.8831 N   0  0  0  0  0  0  0  0  0  0  0  0
   -3.1706   -3.0520   -0.3420 N   0  0  0  0  0  0  0  0  0  0  0  0
   -3.6598    0.3443   -0.0170 C   0  0  0  0  0  0  0  0  0  0  0  0
   -3.8174    1.1205   -1.1653 C   0  0  0  0  0  0  0  0  0  0  0  0
   -4.0084    0.8642    1.2296 C   0  0  0  0  0  0  0  0  0  0  0  0
   -4.3234    2.4167   -1.0669 C   0  0  0  0  0  0  0  0  0  0  0  0
   -4.5145    2.1603    1.3278 C   0  0  0  0  0  0  0  0  0  0  0  0
   -1.8661   -1.3751   -0.0580 C   0  0  0  0  0  0  0  0  0  0  0  0
   -4.6720    2.9364    0.1795 C   0  0  0  0  0  0  0  0  0  0  0  0
   -3.4545    0.5965   -2.5176 C   0  0  0  0  0  0  0  0  0  0  0  0
   -3.8526    0.0614    2.4811 C   0  0  0  0  0  0  0  0  0  0  0  0
    0.8521   -1.5514    0.1409 C   0  0  0  0  0  0  0  0  0  0  0  0
    4.1582    0.1496   -0.4774 C   0  0  0  0  0  0  0  0  0  0  0  0
    2.8761   -0.4762   -0.8004 C   0  0  0  0  0  0  0  0  0  0  0  0
    4.4913    0.2368    0.8674 C   0  0  0  0  0  0  0  0  0  0  0  0
    5.0090    0.6378   -1.4741 C   0  0  0  0  0  0  0  0  0  0  0  0
    5.7108    0.8298    1.2156 C   0  0  0  0  0  0  0  0  0  0  0  0
    6.2195    1.2257   -1.1132 C   0  0  0  0  0  0  0  0  0  0  0  0
    6.5710    1.3221    0.2315 C   0  0  0  0  0  0  0  0  0  0  0  0
   -4.4524    3.0361   -1.9506 H   0  0  0  0  0  0  0  0  0  0  0  0
   -4.7908    2.5822    2.2905 H   0  0  0  0  0  0  0  0  0  0  0  0
   -5.0658    3.9457    0.2561 H   0  0  0  0  0  0  0  0  0  0  0  0
    0.8317   -2.0823   -0.8166 H   0  0  0  0  0  0  0  0  0  0  0  0
    0.7157   -2.2807    0.9470 H   0  0  0  0  0  0  0  0  0  0  0  0
   -2.3811    0.3911   -2.5785 H   0  0  0  0  0  0  0  0  0  0  0  0
   -4.0143   -0.3168   -2.7437 H   0  0  0  0  0  0  0  0  0  0  0  0
   -3.6900    1.3177   -3.3082 H   0  0  0  0  0  0  0  0  0  0  0  0
   -4.4249   -0.8700    2.4195 H   0  0  0  0  0  0  0  0  0  0  0  0
   -2.7986   -0.1695    2.6649 H   0  0  0  0  0  0  0  0  0  0  0  0
   -4.2215    0.6037    3.3589 H   0  0  0  0  0  0  0  0  0  0  0  0
    4.7465    0.5688   -2.5258 H   0  0  0  0  0  0  0  0  0  0  0  0
    5.9997    0.9128    2.2608 H   0  0  0  0  0  0  0  0  0  0  0  0
    6.8881    1.6083   -1.8788 H   0  0  0  0  0  0  0  0  0  0  0  0
    7.5141    1.7801    0.5152 H   0  0  0  0  0  0  0  0  0  0  0  0
  1 15  1  0  0  0  0
  1 19  1  0  0  0  0
  2 21  2  0  0  0  0
  3  5  1  0  0  0  0
  3 10  1  0  0  0  0
  3 15  1  0  0  0  0
  4  6  1  0  0  0  0
  4 19  1  0  0  0  0
  4 21  1  0  0  0  0
  5  9  2  0  0  0  0
  6  8  2  0  0  0  0
  7  9  1  0  0  0  0
  7 15  2  0  0  0  0
  8 22  1  0  0  0  0
 10 11  2  0  0  0  0
 10 12  1  0  0  0  0
 11 13  1  0  0  0  0
 11 17  1  0  0  0  0
 12 14  2  0  0  0  0
 12 18  1  0  0  0  0
 13 16  2  0  0  0  0
 13 27  1  0  0  0  0
 14 16  1  0  0  0  0
 14 28  1  0  0  0  0
 16 29  1  0  0  0  0
 17 32  1  0  0  0  0
 17 33  1  0  0  0  0
 17 34  1  0  0  0  0
 18 35  1  0  0  0  0
 18 36  1  0  0  0  0
 18 37  1  0  0  0  0
 19 30  1  0  0  0  0
 19 31  1  0  0  0  0
 20 21  1  0  0  0  0
 20 22  1  0  0  0  0
 20 23  2  0  0  0  0
 22 24  2  0  0  0  0
 23 25  1  0  0  0  0
 23 38  1  0  0  0  0
 24 26  1  0  0  0  0
 24 39  1  0  0  0  0
 25 26  2  0  0  0  0
 25 40  1  0  0  0  0
 26 41  1  0  0  0  0
M  END
> <PUBCHEM_COMPOUND_CID>
17395979

> <PUBCHEM_CONFORMER_RMSD>
0.8

> <PUBCHEM_CONFORMER_DIVERSEORDER>
1
23
65
69
55
67
49
52
63
60
68
36
11
34
15
48
20
19
61
59
45
43
38
50
2
35
25
18
47
57
30
41
44
27
62
40
16
12
22
10
31
66
17
53
9
5
64
13
42
32
39
33
46
3
21
6
70
29
14
26
58
28
24
54
51
37
4
56
7
8
71

> <PUBCHEM_MMFF94_PARTIAL_CHARGES>
32
1 -0.29
10 -0.02
11 -0.14
12 -0.14
13 -0.15
14 -0.15
15 0.24
16 -0.15
17 0.14
18 0.14
19 0.53
2 -0.57
20 0.09
21 0.54
22 0.18
23 -0.15
24 -0.15
25 -0.15
26 -0.15
27 0.15
28 0.15
29 0.15
3 0.59
38 0.15
39 0.15
4 -0.3
40 0.15
41 0.15
5 -0.42
6 -0.06
7 -0.34
8 -0.18

> <PUBCHEM_EFFECTIVE_ROTOR_COUNT>
4

> <PUBCHEM_PHARMACOPHORE_FEATURES>
6
1 2 acceptor
3 3 7 15 cation
5 3 5 7 9 15 rings
6 10 11 12 13 14 16 rings
6 20 22 23 24 25 26 rings
6 4 6 8 20 21 22 rings

> <PUBCHEM_HEAVY_ATOM_COUNT>
26

> <PUBCHEM_ATOM_DEF_STEREO_COUNT>
0

> <PUBCHEM_ATOM_UDEF_STEREO_COUNT>
0

> <PUBCHEM_BOND_DEF_STEREO_COUNT>
0

> <PUBCHEM_BOND_UDEF_STEREO_COUNT>
0

> <PUBCHEM_ISOTOPIC_ATOM_COUNT>
0

> <PUBCHEM_COMPONENT_COUNT>
1

> <PUBCHEM_CACTVS_TAUTO_COUNT>
1

> <PUBCHEM_CONFORMER_ID>
0109710B00000001

> <PUBCHEM_MMFF94_ENERGY>
91.3149

> <PUBCHEM_FEATURE_SELFOVERLAP>
30.477

> <PUBCHEM_SHAPE_FINGERPRINT>
10498660 4 18259984898528825408
105312 117 18333731338179620039
11370993 144 14907630072262303411
12107183 9 18055650653023131890
12390115 104 18408035230325884939
12422481 6 17203334467676561452
12596602 18 15267059225282126740
12616971 3 17632863031832660616
14068700 675 18124043334456280055
14347329 18 18186804694850802488
15183329 4 15140958478717926284
15513586 35 17487033593049321309
1601671 61 18410293614693790860
17780758 139 13901910037620688245
17844677 252 18188770527241539248
19377110 9 17560795502928949739
20691028 202 18262226854489315833
21033648 29 18268418196006619701
21033650 10 18270097077268973222
21302155 148 18272931664989100405
22393880 68 15647345138452714558
23559900 14 18042686294214106494
283562 15 18339929225840533019
2838139 119 18114188527737407488
312425 54 13254525300589594124
32027 91 18044648944092307630
341906 21 18409176506131101930
392239 28 15841260480683788865
397830 11 11383827118472281974
46194498 28 17314796187679532458
469060 322 18270668784993170211
508706 21 18187937165783769113
5104073 3 17275107262359485416
5219985 9 18126003755478958195
531348 171 14563076087379927288
7495541 125 11312055444544375614
7808743 9 18411417319159896432
9849439 229 18122062276506815313

> <PUBCHEM_SHAPE_MULTIPOLES>
498.18
16.06
2.57
1.94
17.69
0.45
-0.06
-9.76
-0.63
-4.34
0.26
-0.65
-0.41
-0.45

> <PUBCHEM_SHAPE_SELFOVERLAP>
1079.671

> <PUBCHEM_SHAPE_VOLUME>
275.9

> <PUBCHEM_COORDINATE_TYPE>
2
5
10

$$$$

