46173865
  -OEChem-07051213093D

 39 40  0     1  0  0  0  0  0999 V2000
    2.8542   -1.9337   -0.7907 O   0  0  0  0  0  0  0  0  0  0  0  0
   -3.5017    1.6160   -0.5334 O   0  0  0  0  0  0  0  0  0  0  0  0
   -0.7522   -1.4008    0.2770 C   0  0  1  0  0  0  0  0  0  0  0  0
    0.6012   -2.1234    0.0081 C   0  0  0  0  0  0  0  0  0  0  0  0
   -0.5199    0.0616    0.6784 C   0  0  0  0  0  0  0  0  0  0  0  0
    1.9913   -0.0556    0.4867 C   0  0  2  0  0  0  0  0  0  0  0  0
    1.6745   -1.1737   -0.5319 C   0  0  1  0  0  0  0  0  0  0  0  0
   -1.5990   -1.4448   -1.0114 C   0  0  0  0  0  0  0  0  0  0  0  0
    0.7950    0.2656    1.4038 C   0  0  0  0  0  0  0  0  0  0  0  0
   -1.4789   -2.1458    1.4170 C   0  0  0  0  0  0  0  0  0  0  0  0
   -2.8876   -0.6540   -0.8793 C   0  0  0  0  0  0  0  0  0  0  0  0
   -1.3736    1.0619    0.3677 C   0  0  0  0  0  0  0  0  0  0  0  0
   -2.6438    0.7463   -0.3710 C   0  0  0  0  0  0  0  0  0  0  0  0
    2.4687    1.1819   -0.2186 C   0  0  0  0  0  0  0  0  0  0  0  0
   -1.1841    2.5203    0.6803 C   0  0  0  0  0  0  0  0  0  0  0  0
    3.8639    1.6296    0.1025 C   0  0  0  0  0  0  0  0  0  0  0  0
    1.6919    1.8485   -1.0853 C   0  0  0  0  0  0  0  0  0  0  0  0
    0.9854   -2.5863    0.9286 H   0  0  0  0  0  0  0  0  0  0  0  0
    0.4603   -2.9657   -0.6824 H   0  0  0  0  0  0  0  0  0  0  0  0
    2.8043   -0.4051    1.1393 H   0  0  0  0  0  0  0  0  0  0  0  0
    1.3445   -0.7762   -1.4981 H   0  0  0  0  0  0  0  0  0  0  0  0
   -1.0212   -1.0335   -1.8505 H   0  0  0  0  0  0  0  0  0  0  0  0
   -1.8387   -2.4810   -1.2811 H   0  0  0  0  0  0  0  0  0  0  0  0
    0.8136   -0.4219    2.2610 H   0  0  0  0  0  0  0  0  0  0  0  0
    0.9015    1.2542    1.8586 H   0  0  0  0  0  0  0  0  0  0  0  0
   -1.7148   -3.1749    1.1233 H   0  0  0  0  0  0  0  0  0  0  0  0
   -2.4159   -1.6556    1.7020 H   0  0  0  0  0  0  0  0  0  0  0  0
   -0.8614   -2.1955    2.3215 H   0  0  0  0  0  0  0  0  0  0  0  0
   -3.5924   -1.1482   -0.2030 H   0  0  0  0  0  0  0  0  0  0  0  0
   -3.3619   -0.5825   -1.8647 H   0  0  0  0  0  0  0  0  0  0  0  0
    2.6267   -2.6179   -1.4431 H   0  0  0  0  0  0  0  0  0  0  0  0
   -1.9470    2.8518    1.3930 H   0  0  0  0  0  0  0  0  0  0  0  0
   -0.2121    2.7681    1.1079 H   0  0  0  0  0  0  0  0  0  0  0  0
   -1.2854    3.1188   -0.2320 H   0  0  0  0  0  0  0  0  0  0  0  0
    4.1430    2.5350   -0.4469 H   0  0  0  0  0  0  0  0  0  0  0  0
    4.5840    0.8473   -0.1585 H   0  0  0  0  0  0  0  0  0  0  0  0
    3.9566    1.8478    1.1714 H   0  0  0  0  0  0  0  0  0  0  0  0
    2.0571    2.7438   -1.5793 H   0  0  0  0  0  0  0  0  0  0  0  0
    0.7007    1.5213   -1.3671 H   0  0  0  0  0  0  0  0  0  0  0  0
  1  7  1  0  0  0  0
  1 31  1  0  0  0  0
  2 13  2  0  0  0  0
  3  4  1  0  0  0  0
  3  5  1  0  0  0  0
  3  8  1  0  0  0  0
  3 10  1  0  0  0  0
  4  7  1  0  0  0  0
  4 18  1  0  0  0  0
  4 19  1  0  0  0  0
  5  9  1  0  0  0  0
  5 12  2  0  0  0  0
  6  7  1  0  0  0  0
  6  9  1  0  0  0  0
  6 14  1  0  0  0  0
  6 20  1  0  0  0  0
  7 21  1  0  0  0  0
  8 11  1  0  0  0  0
  8 22  1  0  0  0  0
  8 23  1  0  0  0  0
  9 24  1  0  0  0  0
  9 25  1  0  0  0  0
 10 26  1  0  0  0  0
 10 27  1  0  0  0  0
 10 28  1  0  0  0  0
 11 13  1  0  0  0  0
 11 29  1  0  0  0  0
 11 30  1  0  0  0  0
 12 13  1  0  0  0  0
 12 15  1  0  0  0  0
 14 16  1  0  0  0  0
 14 17  2  0  0  0  0
 15 32  1  0  0  0  0
 15 33  1  0  0  0  0
 15 34  1  0  0  0  0
 16 35  1  0  0  0  0
 16 36  1  0  0  0  0
 16 37  1  0  0  0  0
 17 38  1  0  0  0  0
 17 39  1  0  0  0  0
M  END
> <PUBCHEM_COMPOUND_CID>
46173865

> <PUBCHEM_CONFORMER_RMSD>
0.6

> <PUBCHEM_CONFORMER_DIVERSEORDER>
1
2
3
5
4

> <PUBCHEM_MMFF94_PARTIAL_CHARGES>
17
1 -0.68
11 0.06
12 -0.12
13 0.49
14 -0.28
15 0.14
16 0.14
17 -0.3
2 -0.57
3 0.14
31 0.4
38 0.15
39 0.15
5 -0.28
6 0.14
7 0.28
9 0.14

> <PUBCHEM_EFFECTIVE_ROTOR_COUNT>
2.2

> <PUBCHEM_PHARMACOPHORE_FEATURES>
5
1 1 acceptor
1 1 donor
1 2 acceptor
6 3 4 5 6 7 9 rings
6 3 5 8 11 12 13 rings

> <PUBCHEM_HEAVY_ATOM_COUNT>
17

> <PUBCHEM_ATOM_DEF_STEREO_COUNT>
2

> <PUBCHEM_ATOM_UDEF_STEREO_COUNT>
1

> <PUBCHEM_BOND_DEF_STEREO_COUNT>
0

> <PUBCHEM_BOND_UDEF_STEREO_COUNT>
0

> <PUBCHEM_ISOTOPIC_ATOM_COUNT>
0

> <PUBCHEM_COMPONENT_COUNT>
1

> <PUBCHEM_CACTVS_TAUTO_COUNT>
5

> <PUBCHEM_CONFORMER_ID>
02C08EA900000001

> <PUBCHEM_MMFF94_ENERGY>
43.1155

> <PUBCHEM_FEATURE_SELFOVERLAP>
25.408

> <PUBCHEM_SHAPE_FINGERPRINT>
10863032 1 18334016094337141636
10948715 1 18341337716533829220
11680986 33 18411972581538849202
12423570 1 6943972707717944483
12491281 212 18059295357611124012
12654903 92 18121502624486137228
13140716 1 18410568521969141730
13299463 15 17968939669414721178
13380535 220 18046625882650461254
13380535 76 18411986836429536770
13544592 271 18265623078160509424
13764800 53 18201147763668292675
14250199 8 18263361554487962597
144361 1 18260550064574809203
14614273 12 18267298742370765736
14817 1 15800110047033903307
15775835 57 18113616772367546381
16945 1 18045784747707703387
18186145 218 18200600310136048013
18981168 100 18057297583580028086
19765921 60 18272665557816402865
20344682 6 18116159869742873654
20525323 117 18338515214413913968
21501502 16 18261112993106037554
21947302 44 18411420656560644526
22802520 49 18335968835699546278
2334 1 18409728422065710762
23402539 116 18335715892512505340
23419403 2 15224475221515821529
23493267 7 18129668487061096026
23559900 14 18113904823920700704
25 1 18198901611657538679
2748010 2 18337939122008461210
3060560 45 18053954123528707581
353137 74 18411142424252600305
7364860 26 18261114123062056172
7832392 63 17470445600180562657
81228 2 17344890941855487595
9981440 41 18266470819253605394
9999458 23 18055344988774330725

> <PUBCHEM_SHAPE_MULTIPOLES>
338.11
4.91
2.72
1.18
1.7
0.02
0.15
1.78
-1.16
-0.22
0.03
-0.19
-0.17
0.23

> <PUBCHEM_SHAPE_SELFOVERLAP>
703.242

> <PUBCHEM_SHAPE_VOLUME>
192.1

> <PUBCHEM_COORDINATE_TYPE>
2
5
10

$$$$

