12789
  -OEChem-06261207223D

 15 16  0     0  0  0  0  0  0999 V2000
    1.7147   -2.0358    0.0003 O   0  0  0  0  0  0  0  0  0  0  0  0
   -1.7346    1.2429   -0.0001 N   0  0  0  0  0  0  0  0  0  0  0  0
   -0.9163   -1.4357    0.0000 N   0  0  0  0  0  0  0  0  0  0  0  0
    0.5808    1.8345    0.0002 N   0  0  0  0  0  0  0  0  0  0  0  0
    2.3360    0.1819    0.0001 N   0  0  0  0  0  0  0  0  0  0  0  0
   -0.3881    0.9753   -0.0004 C   0  0  0  0  0  0  0  0  0  0  0  0
   -0.0238   -0.4889   -0.0005 C   0  0  0  0  0  0  0  0  0  0  0  0
    1.4278   -0.8459   -0.0003 C   0  0  0  0  0  0  0  0  0  0  0  0
   -2.6439    0.2240    0.0003 C   0  0  0  0  0  0  0  0  0  0  0  0
   -2.2405   -1.0539    0.0001 C   0  0  0  0  0  0  0  0  0  0  0  0
    1.8879    1.4017    0.0002 C   0  0  0  0  0  0  0  0  0  0  0  0
   -2.0881    2.1929    0.0005 H   0  0  0  0  0  0  0  0  0  0  0  0
   -3.6822    0.5273    0.0007 H   0  0  0  0  0  0  0  0  0  0  0  0
   -2.9664   -1.8593    0.0003 H   0  0  0  0  0  0  0  0  0  0  0  0
    2.6406    2.2075    0.0006 H   0  0  0  0  0  0  0  0  0  0  0  0
  1  8  2  0  0  0  0
  2  6  1  0  0  0  0
  2  9  1  0  0  0  0
  2 12  1  0  0  0  0
  3  7  2  0  0  0  0
  3 10  1  0  0  0  0
  4  6  2  0  0  0  0
  4 11  1  0  0  0  0
  5  8  1  0  0  0  0
  5 11  2  0  0  0  0
  6  7  1  0  0  0  0
  7  8  1  0  0  0  0
  9 10  2  0  0  0  0
  9 13  1  0  0  0  0
 10 14  1  0  0  0  0
 11 15  1  0  0  0  0
M  END
> <PUBCHEM_COMPOUND_CID>
12789

> <PUBCHEM_CONFORMER_RMSD>
0.4

> <PUBCHEM_CONFORMER_DIVERSEORDER>
1

> <PUBCHEM_MMFF94_PARTIAL_CHARGES>
15
1 -0.57
10 0.02
11 0.6
12 0.4
13 0.15
14 0.15
15 0.06
2 -0.55
3 -0.62
4 -0.66
5 -0.66
6 0.5
7 0.45
8 0.78
9 -0.05

> <PUBCHEM_EFFECTIVE_ROTOR_COUNT>
0

> <PUBCHEM_PHARMACOPHORE_FEATURES>
7
1 1 acceptor
1 2 donor
1 3 acceptor
1 5 donor
3 2 4 6 cation
6 2 3 6 7 9 10 rings
6 4 5 6 7 8 11 rings

> <PUBCHEM_HEAVY_ATOM_COUNT>
11

> <PUBCHEM_ATOM_DEF_STEREO_COUNT>
0

> <PUBCHEM_ATOM_UDEF_STEREO_COUNT>
0

> <PUBCHEM_BOND_DEF_STEREO_COUNT>
0

> <PUBCHEM_BOND_UDEF_STEREO_COUNT>
0

> <PUBCHEM_ISOTOPIC_ATOM_COUNT>
0

> <PUBCHEM_COMPONENT_COUNT>
1

> <PUBCHEM_CACTVS_TAUTO_COUNT>
4

> <PUBCHEM_CONFORMER_ID>
000031F500000001

> <PUBCHEM_MMFF94_ENERGY>
29.13

> <PUBCHEM_FEATURE_SELFOVERLAP>
35.563

> <PUBCHEM_SHAPE_FINGERPRINT>
12524768 44 18336261353031900311
12897270 3 18339080380533471781
16945 1 18410856521106513637
18185500 45 18410011030918925766
193761 8 15528271722731004745
19973954 147 18410853278479941265
20201158 50 18412268319822258023
21040471 1 17762056541017203332
23402655 69 18336561473237096933
23552423 10 18342453725109734199
241688 4 18123187080573836496
2748010 2 18266461090619786501
29004967 10 18341327820876184915
5084963 1 17898281710776706424
528886 8 18265901254496607752
66348 1 18410009961466761847

> <PUBCHEM_SHAPE_MULTIPOLES>
200.58
3.37
1.93
0.57
0.76
0.18
0
0.06
0
-0.56
0
0.02
-0.01
0

> <PUBCHEM_SHAPE_SELFOVERLAP>
437.83

> <PUBCHEM_SHAPE_VOLUME>
104.4

> <PUBCHEM_COORDINATE_TYPE>
2
5
10

$$$$

