5281528
  -OEChem-07051212582D

 55 54  0     1  0  0  0  0  0999 V2000
    7.1962    1.3840    0.0000 O   0  0  0  0  0  0  0  0  0  0  0  0
    7.1962   -1.6160    0.0000 O   0  0  0  0  0  0  0  0  0  0  0  0
    3.7320    0.3840    0.0000 O   0  0  0  0  0  0  0  0  0  0  0  0
    5.6962    2.2501    0.0000 O   0  0  0  0  0  0  0  0  0  0  0  0
    6.3301   -3.1160    0.0000 O   0  0  0  0  0  0  0  0  0  0  0  0
    2.8660   -1.1160    0.0000 O   0  0  0  0  0  0  0  0  0  0  0  0
    7.1962    0.3840    0.0000 C   0  0  3  0  0  0  0  0  0  0  0  0
    8.0622   -0.1160    0.0000 C   0  0  0  0  0  0  0  0  0  0  0  0
    6.3301   -0.1160    0.0000 C   0  0  0  0  0  0  0  0  0  0  0  0
    8.9282    0.3840    0.0000 C   0  0  0  0  0  0  0  0  0  0  0  0
    9.7942   -0.1160    0.0000 C   0  0  0  0  0  0  0  0  0  0  0  0
    5.4641    0.3840    0.0000 C   0  0  0  0  0  0  0  0  0  0  0  0
    6.3301   -1.1160    0.0000 C   0  0  0  0  0  0  0  0  0  0  0  0
    9.7942   -1.1160    0.0000 C   0  0  0  0  0  0  0  0  0  0  0  0
   10.6603    0.3840    0.0000 C   0  0  0  0  0  0  0  0  0  0  0  0
    6.6962    2.2500    0.0000 C   0  0  0  0  0  0  0  0  0  0  0  0
   11.5263   -0.1160    0.0000 C   0  0  0  0  0  0  0  0  0  0  0  0
    4.5981   -0.1160    0.0000 C   0  0  0  0  0  0  0  0  0  0  0  0
    7.1962    3.1160    0.0000 C   0  0  0  0  0  0  0  0  0  0  0  0
   12.3923    0.3840    0.0000 C   0  0  0  0  0  0  0  0  0  0  0  0
   13.2583   -0.1160    0.0000 C   0  0  0  0  0  0  0  0  0  0  0  0
    7.1962   -2.6160    0.0000 C   0  0  0  0  0  0  0  0  0  0  0  0
   14.1244    0.3840    0.0000 C   0  0  0  0  0  0  0  0  0  0  0  0
   13.2583   -1.1160    0.0000 C   0  0  0  0  0  0  0  0  0  0  0  0
    8.0622   -3.1160    0.0000 C   0  0  0  0  0  0  0  0  0  0  0  0
    2.8660   -0.1160    0.0000 C   0  0  0  0  0  0  0  0  0  0  0  0
    2.0000    0.3840    0.0000 C   0  0  0  0  0  0  0  0  0  0  0  0
    6.6592    0.6940    0.0000 H   0  0  0  0  0  0  0  0  0  0  0  0
    7.6636   -0.5910    0.0000 H   0  0  0  0  0  0  0  0  0  0  0  0
    8.4607   -0.5910    0.0000 H   0  0  0  0  0  0  0  0  0  0  0  0
    8.9282    1.0040    0.0000 H   0  0  0  0  0  0  0  0  0  0  0  0
    5.1541    0.9209    0.0000 H   0  0  0  0  0  0  0  0  0  0  0  0
    5.7932   -1.4260    0.0000 H   0  0  0  0  0  0  0  0  0  0  0  0
    9.1742   -1.1160    0.0000 H   0  0  0  0  0  0  0  0  0  0  0  0
    9.7942   -1.7360    0.0000 H   0  0  0  0  0  0  0  0  0  0  0  0
   10.4142   -1.1160    0.0000 H   0  0  0  0  0  0  0  0  0  0  0  0
   10.6603    1.0040    0.0000 H   0  0  0  0  0  0  0  0  0  0  0  0
   11.5263   -0.7360    0.0000 H   0  0  0  0  0  0  0  0  0  0  0  0
    4.5981   -0.7360    0.0000 H   0  0  0  0  0  0  0  0  0  0  0  0
    7.7331    2.8060    0.0000 H   0  0  0  0  0  0  0  0  0  0  0  0
    7.5062    3.6530    0.0000 H   0  0  0  0  0  0  0  0  0  0  0  0
    6.6592    3.4260    0.0000 H   0  0  0  0  0  0  0  0  0  0  0  0
   12.3923    1.0040    0.0000 H   0  0  0  0  0  0  0  0  0  0  0  0
   12.6383   -1.1160    0.0000 H   0  0  0  0  0  0  0  0  0  0  0  0
   13.2583   -1.7360    0.0000 H   0  0  0  0  0  0  0  0  0  0  0  0
   13.8783   -1.1160    0.0000 H   0  0  0  0  0  0  0  0  0  0  0  0
   14.4344   -0.1530    0.0000 H   0  0  0  0  0  0  0  0  0  0  0  0
   14.6613    0.6940    0.0000 H   0  0  0  0  0  0  0  0  0  0  0  0
   13.8144    0.9209    0.0000 H   0  0  0  0  0  0  0  0  0  0  0  0
    7.7522   -3.6530    0.0000 H   0  0  0  0  0  0  0  0  0  0  0  0
    8.5991   -3.4260    0.0000 H   0  0  0  0  0  0  0  0  0  0  0  0
    8.3722   -2.5791    0.0000 H   0  0  0  0  0  0  0  0  0  0  0  0
    2.3100    0.9209    0.0000 H   0  0  0  0  0  0  0  0  0  0  0  0
    1.4631    0.6940    0.0000 H   0  0  0  0  0  0  0  0  0  0  0  0
    1.6900   -0.1530    0.0000 H   0  0  0  0  0  0  0  0  0  0  0  0
  1  7  1  0  0  0  0
  1 16  1  0  0  0  0
  2 13  1  0  0  0  0
  2 22  1  0  0  0  0
  3 18  1  0  0  0  0
  3 26  1  0  0  0  0
  4 16  2  0  0  0  0
  5 22  2  0  0  0  0
  6 26  2  0  0  0  0
  7  8  1  0  0  0  0
  7  9  1  0  0  0  0
  7 28  1  0  0  0  0
  8 10  1  0  0  0  0
  8 29  1  0  0  0  0
  8 30  1  0  0  0  0
  9 12  1  0  0  0  0
  9 13  2  0  0  0  0
 10 11  2  0  0  0  0
 10 31  1  0  0  0  0
 11 14  1  0  0  0  0
 11 15  1  0  0  0  0
 12 18  2  0  0  0  0
 12 32  1  0  0  0  0
 13 33  1  0  0  0  0
 14 34  1  0  0  0  0
 14 35  1  0  0  0  0
 14 36  1  0  0  0  0
 15 17  2  0  0  0  0
 15 37  1  0  0  0  0
 16 19  1  0  0  0  0
 17 20  1  0  0  0  0
 17 38  1  0  0  0  0
 18 39  1  0  0  0  0
 19 40  1  0  0  0  0
 19 41  1  0  0  0  0
 19 42  1  0  0  0  0
 20 21  2  0  0  0  0
 20 43  1  0  0  0  0
 21 23  1  0  0  0  0
 21 24  1  0  0  0  0
 22 25  1  0  0  0  0
 23 47  1  0  0  0  0
 23 48  1  0  0  0  0
 23 49  1  0  0  0  0
 24 44  1  0  0  0  0
 24 45  1  0  0  0  0
 24 46  1  0  0  0  0
 25 50  1  0  0  0  0
 25 51  1  0  0  0  0
 25 52  1  0  0  0  0
 26 27  1  0  0  0  0
 27 53  1  0  0  0  0
 27 54  1  0  0  0  0
 27 55  1  0  0  0  0
M  END
> <PUBCHEM_COMPOUND_CID>
5281528

> <PUBCHEM_COMPOUND_CANONICALIZED>
1

> <PUBCHEM_CACTVS_COMPLEXITY>
673

> <PUBCHEM_CACTVS_HBOND_ACCEPTOR>
6

> <PUBCHEM_CACTVS_HBOND_DONOR>
0

> <PUBCHEM_CACTVS_ROTATABLE_BOND>
12

> <PUBCHEM_CACTVS_SUBSKEYS>
AAADceB4OAAAAAAAAAAAAAAAAAAAAAAAAAAAAAAAAAAAAAAAAAAAGgAAAAAADBSggAICCAAABACIAiDSCAAACAAgIAAICAAAAAgIBAIAIQACAAAAwAAIoAIAAAAAAAAAAAAAAAAAAAAAAAAAAAAAAAAAAA==

> <PUBCHEM_IUPAC_OPENEYE_NAME>
[(1E,3Z,6E,8E)-4-acetoxy-3-(acetoxymethylene)-7,11-dimethyl-dodeca-1,6,8,10-tetraenyl] acetate

> <PUBCHEM_IUPAC_CAS_NAME>
acetic acid [(1E,3Z,6E,8E)-4-acetyloxy-3-(acetyloxymethylidene)-7,11-dimethyldodeca-1,6,8,10-tetraenyl] ester

> <PUBCHEM_IUPAC_NAME>
[(1E,3Z,6E,8E)-4-acetyloxy-3-(acetyloxymethylidene)-7,11-dimethyldodeca-1,6,8,10-tetraenyl] acetate

> <PUBCHEM_IUPAC_SYSTEMATIC_NAME>
[(1E,3Z,6E,8E)-4-acetyloxy-3-(acetyloxymethylidene)-7,11-dimethyl-dodeca-1,6,8,10-tetraenyl] ethanoate

> <PUBCHEM_IUPAC_TRADITIONAL_NAME>
acetic acid [(1E,3Z,6E,8E)-4-acetoxy-3-(acetoxymethylene)-7,11-dimethyl-dodeca-1,6,8,10-tetraenyl] ester

> <PUBCHEM_IUPAC_INCHI>
InChI=1S/C21H28O6/c1-15(2)8-7-9-16(3)10-11-21(27-19(6)24)20(14-26-18(5)23)12-13-25-17(4)22/h7-10,12-14,21H,11H2,1-6H3/b9-7+,13-12+,16-10+,20-14-

> <PUBCHEM_IUPAC_INCHIKEY>
BQBCCTYBKVNOPS-ZRRPUCMRSA-N

> <PUBCHEM_XLOGP3_AA>
4.5

> <PUBCHEM_EXACT_MASS>
376.188589

> <PUBCHEM_MOLECULAR_FORMULA>
C21H28O6

> <PUBCHEM_MOLECULAR_WEIGHT>
376.44342

> <PUBCHEM_OPENEYE_CAN_SMILES>
CC(=CC=CC(=CCC(C(=COC(=O)C)C=COC(=O)C)OC(=O)C)C)C

> <PUBCHEM_OPENEYE_ISO_SMILES>
CC(=C/C=C/C(=C/CC(/C(=C\OC(=O)C)/C=C/OC(=O)C)OC(=O)C)/C)C

> <PUBCHEM_CACTVS_TPSA>
78.9

> <PUBCHEM_MONOISOTOPIC_WEIGHT>
376.188589

> <PUBCHEM_TOTAL_CHARGE>
0

> <PUBCHEM_HEAVY_ATOM_COUNT>
27

> <PUBCHEM_ATOM_DEF_STEREO_COUNT>
0

> <PUBCHEM_ATOM_UDEF_STEREO_COUNT>
1

> <PUBCHEM_BOND_DEF_STEREO_COUNT>
4

> <PUBCHEM_BOND_UDEF_STEREO_COUNT>
0

> <PUBCHEM_ISOTOPIC_ATOM_COUNT>
0

> <PUBCHEM_COMPONENT_COUNT>
1

> <PUBCHEM_CACTVS_TAUTO_COUNT>
1

> <PUBCHEM_COORDINATE_TYPE>
1
5
255

> <PUBCHEM_BONDANNOTATIONS>
7  8  3

$$$$

