54680116
  -OEChem-07051213002D

 49 51  0     1  0  0  0  0  0999 V2000
    4.6200    0.4050    0.0000 O   0  0  0  0  0  0  0  0  0  0  0  0
    2.6200    2.1370    0.0000 O   0  0  0  0  0  0  0  0  0  0  0  0
    6.7181   -1.9610    0.0000 O   0  0  0  0  0  0  0  0  0  0  0  0
    4.9860    1.0390    0.0000 O   0  0  0  0  0  0  0  0  0  0  0  0
    6.7181    1.0390    0.0000 N   0  0  0  0  0  0  0  0  0  0  0  0
    4.1200   -0.4610    0.0000 C   0  0  3  0  0  0  0  0  0  0  0  0
    4.1200    1.2710    0.0000 C   0  0  0  0  0  0  0  0  0  0  0  0
    3.1200   -0.4610    0.0000 C   0  0  0  0  0  0  0  0  0  0  0  0
    3.1200    1.2710    0.0000 C   0  0  3  0  0  0  0  0  0  0  0  0
    4.9860   -0.9610    0.0000 C   0  0  3  0  0  0  0  0  0  0  0  0
    2.6200    0.4050    0.0000 C   0  0  0  0  0  0  0  0  0  0  0  0
    4.1200   -1.4610    0.0000 C   0  0  0  0  0  0  0  0  0  0  0  0
    4.1200    2.2710    0.0000 C   0  0  0  0  0  0  0  0  0  0  0  0
    4.9860    1.7710    0.0000 C   0  0  0  0  0  0  0  0  0  0  0  0
    5.8520   -0.4610    0.0000 C   0  0  0  0  0  0  0  0  0  0  0  0
    4.9860   -1.9610    0.0000 C   0  0  0  0  0  0  0  0  0  0  0  0
    6.7181   -0.9610    0.0000 C   0  0  0  0  0  0  0  0  0  0  0  0
    5.8520    0.5390    0.0000 C   0  0  0  0  0  0  0  0  0  0  0  0
    7.5841   -0.4610    0.0000 C   0  0  0  0  0  0  0  0  0  0  0  0
    7.5841    0.5390    0.0000 C   0  0  0  0  0  0  0  0  0  0  0  0
    8.4780   -0.9957    0.0000 C   0  0  0  0  0  0  0  0  0  0  0  0
    8.4780    1.0736    0.0000 C   0  0  0  0  0  0  0  0  0  0  0  0
    9.3841   -0.4818    0.0000 C   0  0  0  0  0  0  0  0  0  0  0  0
    9.3841    0.5598    0.0000 C   0  0  0  0  0  0  0  0  0  0  0  0
    2.5374   -0.6731    0.0000 H   0  0  0  0  0  0  0  0  0  0  0  0
    3.2277   -1.0716    0.0000 H   0  0  0  0  0  0  0  0  0  0  0  0
    2.5000    1.2710    0.0000 H   0  0  0  0  0  0  0  0  0  0  0  0
    5.5230   -1.2710    0.0000 H   0  0  0  0  0  0  0  0  0  0  0  0
    2.1450    0.8035    0.0000 H   0  0  0  0  0  0  0  0  0  0  0  0
    2.1450    0.0065    0.0000 H   0  0  0  0  0  0  0  0  0  0  0  0
    3.5000   -1.4610    0.0000 H   0  0  0  0  0  0  0  0  0  0  0  0
    4.1200   -2.0810    0.0000 H   0  0  0  0  0  0  0  0  0  0  0  0
    4.7400   -1.4610    0.0000 H   0  0  0  0  0  0  0  0  0  0  0  0
    4.7400    2.2710    0.0000 H   0  0  0  0  0  0  0  0  0  0  0  0
    4.1200    2.8910    0.0000 H   0  0  0  0  0  0  0  0  0  0  0  0
    5.2960    1.2341    0.0000 H   0  0  0  0  0  0  0  0  0  0  0  0
    5.5230    2.0810    0.0000 H   0  0  0  0  0  0  0  0  0  0  0  0
    4.6760    2.3080    0.0000 H   0  0  0  0  0  0  0  0  0  0  0  0
    3.5000    2.2710    0.0000 H   0  0  0  0  0  0  0  0  0  0  0  0
    4.3660   -1.9610    0.0000 H   0  0  0  0  0  0  0  0  0  0  0  0
    4.9860   -2.5810    0.0000 H   0  0  0  0  0  0  0  0  0  0  0  0
    5.6060   -1.9610    0.0000 H   0  0  0  0  0  0  0  0  0  0  0  0
    2.0000    2.1370    0.0000 H   0  0  0  0  0  0  0  0  0  0  0  0
    6.7181    1.6590    0.0000 H   0  0  0  0  0  0  0  0  0  0  0  0
    7.2550   -2.2710    0.0000 H   0  0  0  0  0  0  0  0  0  0  0  0
    8.4709   -1.6156    0.0000 H   0  0  0  0  0  0  0  0  0  0  0  0
    8.4709    1.6936    0.0000 H   0  0  0  0  0  0  0  0  0  0  0  0
    9.9198   -0.7939    0.0000 H   0  0  0  0  0  0  0  0  0  0  0  0
    9.9198    0.8719    0.0000 H   0  0  0  0  0  0  0  0  0  0  0  0
  1  6  1  0  0  0  0
  1  7  1  0  0  0  0
  2  9  1  0  0  0  0
  2 43  1  0  0  0  0
  3 17  1  0  0  0  0
  3 45  1  0  0  0  0
  4 18  2  0  0  0  0
  5 18  1  0  0  0  0
  5 20  1  0  0  0  0
  5 44  1  0  0  0  0
  6  8  1  0  0  0  0
  6 10  1  0  0  0  0
  6 12  1  0  0  0  0
  7  9  1  0  0  0  0
  7 13  1  0  0  0  0
  7 14  1  0  0  0  0
  8 11  1  0  0  0  0
  8 25  1  0  0  0  0
  8 26  1  0  0  0  0
  9 11  1  0  0  0  0
  9 27  1  0  0  0  0
 10 15  1  0  0  0  0
 10 16  1  0  0  0  0
 10 28  1  0  0  0  0
 11 29  1  0  0  0  0
 11 30  1  0  0  0  0
 12 31  1  0  0  0  0
 12 32  1  0  0  0  0
 12 33  1  0  0  0  0
 13 34  1  0  0  0  0
 13 35  1  0  0  0  0
 13 39  1  0  0  0  0
 14 36  1  0  0  0  0
 14 37  1  0  0  0  0
 14 38  1  0  0  0  0
 15 17  2  0  0  0  0
 15 18  1  0  0  0  0
 16 40  1  0  0  0  0
 16 41  1  0  0  0  0
 16 42  1  0  0  0  0
 17 19  1  0  0  0  0
 19 20  1  0  0  0  0
 19 21  2  0  0  0  0
 20 22  2  0  0  0  0
 21 23  1  0  0  0  0
 21 46  1  0  0  0  0
 22 24  1  0  0  0  0
 22 47  1  0  0  0  0
 23 24  2  0  0  0  0
 23 48  1  0  0  0  0
 24 49  1  0  0  0  0
M  END
> <PUBCHEM_COMPOUND_CID>
54680116

> <PUBCHEM_COMPOUND_CANONICALIZED>
1

> <PUBCHEM_CACTVS_COMPLEXITY>
556

> <PUBCHEM_CACTVS_HBOND_ACCEPTOR>
4

> <PUBCHEM_CACTVS_HBOND_DONOR>
3

> <PUBCHEM_CACTVS_ROTATABLE_BOND>
2

> <PUBCHEM_CACTVS_SUBSKEYS>
AAADceB6OAAAAAAAAAAAAAAAAAAAAAAAAAA0QIAAAAAAAACBAAAAHgAQCAAADVyhmAIywILABgCIAiVSUACCAAAhIgAIiAEAbMgJNjLAkZGGcAhm1AHL2Qf6yPCOgAAAAAACAAAAAAAAAAQAAAAAAAAAAA==

> <PUBCHEM_IUPAC_OPENEYE_NAME>
4-hydroxy-3-[1-(5-hydroxy-2,6,6-trimethyl-tetrahydropyran-2-yl)ethyl]-1H-quinolin-2-one

> <PUBCHEM_IUPAC_CAS_NAME>
4-hydroxy-3-[1-(5-hydroxy-2,6,6-trimethyl-2-oxanyl)ethyl]-1H-quinolin-2-one

> <PUBCHEM_IUPAC_NAME>
4-hydroxy-3-[1-(5-hydroxy-2,6,6-trimethyloxan-2-yl)ethyl]-1H-quinolin-2-one

> <PUBCHEM_IUPAC_SYSTEMATIC_NAME>
4-oxidanyl-3-[1-(2,6,6-trimethyl-5-oxidanyl-oxan-2-yl)ethyl]-1H-quinolin-2-one

> <PUBCHEM_IUPAC_TRADITIONAL_NAME>
4-hydroxy-3-[1-(5-hydroxy-2,6,6-trimethyl-tetrahydropyran-2-yl)ethyl]carbostyril

> <PUBCHEM_IUPAC_INCHI>
InChI=1S/C19H25NO4/c1-11(19(4)10-9-14(21)18(2,3)24-19)15-16(22)12-7-5-6-8-13(12)20-17(15)23/h5-8,11,14,21H,9-10H2,1-4H3,(H2,20,22,23)

> <PUBCHEM_IUPAC_INCHIKEY>
FNNBYKQCHDQXOO-UHFFFAOYSA-N

> <PUBCHEM_XLOGP3_AA>
1.9

> <PUBCHEM_EXACT_MASS>
331.178358

> <PUBCHEM_MOLECULAR_FORMULA>
C19H25NO4

> <PUBCHEM_MOLECULAR_WEIGHT>
331.4061

> <PUBCHEM_OPENEYE_CAN_SMILES>
CC(C1=C(C2=CC=CC=C2NC1=O)O)C3(CCC(C(O3)(C)C)O)C

> <PUBCHEM_OPENEYE_ISO_SMILES>
CC(C1=C(C2=CC=CC=C2NC1=O)O)C3(CCC(C(O3)(C)C)O)C

> <PUBCHEM_CACTVS_TPSA>
78.8

> <PUBCHEM_MONOISOTOPIC_WEIGHT>
331.178358

> <PUBCHEM_TOTAL_CHARGE>
0

> <PUBCHEM_HEAVY_ATOM_COUNT>
24

> <PUBCHEM_ATOM_DEF_STEREO_COUNT>
0

> <PUBCHEM_ATOM_UDEF_STEREO_COUNT>
3

> <PUBCHEM_BOND_DEF_STEREO_COUNT>
0

> <PUBCHEM_BOND_UDEF_STEREO_COUNT>
0

> <PUBCHEM_ISOTOPIC_ATOM_COUNT>
0

> <PUBCHEM_COMPONENT_COUNT>
1

> <PUBCHEM_CACTVS_TAUTO_COUNT>
15

> <PUBCHEM_COORDINATE_TYPE>
1
5
255

> <PUBCHEM_BONDANNOTATIONS>
10  16  3
15  17  8
15  18  8
17  19  8
19  20  8
19  21  8
9  2  3
20  22  8
21  23  8
22  24  8
23  24  8
5  18  8
5  20  8
6  12  3

$$$$

