5576
  -OEChem-06261200452D

 19 19  0     0  0  0  0  0  0999 V2000
    3.2601    0.7694    0.0000 O   0  0  0  0  0  0  0  0  0  0  0  0
    5.5202   -0.4907    0.0000 O   0  0  0  0  0  0  0  0  0  0  0  0
    2.0000   -0.4907    0.0000 O   0  0  0  0  0  0  0  0  0  0  0  0
    3.7601   -0.7694    0.0000 N   0  0  0  0  0  0  0  0  0  0  0  0
    4.2601    0.7694    0.0000 C   0  0  0  0  0  0  0  0  0  0  0  0
    4.5691   -0.1816    0.0000 C   0  0  0  0  0  0  0  0  0  0  0  0
    5.2111    1.0784    0.0000 C   0  0  0  0  0  0  0  0  0  0  0  0
    4.2601    1.7694    0.0000 C   0  0  0  0  0  0  0  0  0  0  0  0
    2.9511   -0.1816    0.0000 C   0  0  0  0  0  0  0  0  0  0  0  0
    3.7601   -1.7694    0.0000 C   0  0  0  0  0  0  0  0  0  0  0  0
    5.4027    0.4888    0.0000 H   0  0  0  0  0  0  0  0  0  0  0  0
    5.8008    1.2700    0.0000 H   0  0  0  0  0  0  0  0  0  0  0  0
    5.0195    1.6681    0.0000 H   0  0  0  0  0  0  0  0  0  0  0  0
    4.8801    1.7694    0.0000 H   0  0  0  0  0  0  0  0  0  0  0  0
    4.2601    2.3894    0.0000 H   0  0  0  0  0  0  0  0  0  0  0  0
    3.6401    1.7694    0.0000 H   0  0  0  0  0  0  0  0  0  0  0  0
    3.1401   -1.7694    0.0000 H   0  0  0  0  0  0  0  0  0  0  0  0
    3.7601   -2.3894    0.0000 H   0  0  0  0  0  0  0  0  0  0  0  0
    4.3801   -1.7694    0.0000 H   0  0  0  0  0  0  0  0  0  0  0  0
  1  5  1  0  0  0  0
  1  9  1  0  0  0  0
  2  6  2  0  0  0  0
  3  9  2  0  0  0  0
  4  6  1  0  0  0  0
  4  9  1  0  0  0  0
  4 10  1  0  0  0  0
  5  6  1  0  0  0  0
  5  7  1  0  0  0  0
  5  8  1  0  0  0  0
  7 11  1  0  0  0  0
  7 12  1  0  0  0  0
  7 13  1  0  0  0  0
  8 14  1  0  0  0  0
  8 15  1  0  0  0  0
  8 16  1  0  0  0  0
 10 17  1  0  0  0  0
 10 18  1  0  0  0  0
 10 19  1  0  0  0  0
M  END
> <PUBCHEM_COMPOUND_CID>
5576

> <PUBCHEM_COMPOUND_CANONICALIZED>
1

> <PUBCHEM_CACTVS_COMPLEXITY>
197

> <PUBCHEM_CACTVS_HBOND_ACCEPTOR>
3

> <PUBCHEM_CACTVS_HBOND_DONOR>
0

> <PUBCHEM_CACTVS_ROTATABLE_BOND>
0

> <PUBCHEM_CACTVS_SUBSKEYS>
AAADccBiMAAAAAAAAAAAAAAAAAAAAWAAAAAAAAAAAAAAAAAAAAAAHgAAAAAADESBgAQCCAMABAAIAAEQGAIAAAAAAAAAAAFIAAACAAAAAAQNAAAABiAQAAAAAAAAAAAAAAAAAAAAAAAAAAAAAAAAAAAAAA==

> <PUBCHEM_IUPAC_OPENEYE_NAME>
3,5,5-trimethyloxazolidine-2,4-dione

> <PUBCHEM_IUPAC_CAS_NAME>
3,5,5-trimethyloxazolidine-2,4-dione

> <PUBCHEM_IUPAC_NAME>
3,5,5-trimethyl-1,3-oxazolidine-2,4-dione

> <PUBCHEM_IUPAC_SYSTEMATIC_NAME>
3,5,5-trimethyl-1,3-oxazolidine-2,4-dione

> <PUBCHEM_IUPAC_TRADITIONAL_NAME>
3,5,5-trimethyloxazolidine-2,4-quinone

> <PUBCHEM_IUPAC_INCHI>
InChI=1S/C6H9NO3/c1-6(2)4(8)7(3)5(9)10-6/h1-3H3

> <PUBCHEM_IUPAC_INCHIKEY>
IRYJRGCIQBGHIV-UHFFFAOYSA-N

> <PUBCHEM_XLOGP3_AA>
0.3

> <PUBCHEM_EXACT_MASS>
143.058243

> <PUBCHEM_MOLECULAR_FORMULA>
C6H9NO3

> <PUBCHEM_MOLECULAR_WEIGHT>
143.14056

> <PUBCHEM_OPENEYE_CAN_SMILES>
CC1(C(=O)N(C(=O)O1)C)C

> <PUBCHEM_OPENEYE_ISO_SMILES>
CC1(C(=O)N(C(=O)O1)C)C

> <PUBCHEM_CACTVS_TPSA>
46.6

> <PUBCHEM_MONOISOTOPIC_WEIGHT>
143.058243

> <PUBCHEM_TOTAL_CHARGE>
0

> <PUBCHEM_HEAVY_ATOM_COUNT>
10

> <PUBCHEM_ATOM_DEF_STEREO_COUNT>
0

> <PUBCHEM_ATOM_UDEF_STEREO_COUNT>
0

> <PUBCHEM_BOND_DEF_STEREO_COUNT>
0

> <PUBCHEM_BOND_UDEF_STEREO_COUNT>
0

> <PUBCHEM_ISOTOPIC_ATOM_COUNT>
0

> <PUBCHEM_COMPONENT_COUNT>
1

> <PUBCHEM_CACTVS_TAUTO_COUNT>
1

> <PUBCHEM_COORDINATE_TYPE>
1
5
255

$$$$

