6633
  -OEChem-06261201253D

 36 37  0     0  0  0  0  0  0999 V2000
   -0.0388   -1.9044    0.1724 S   0  0  0  0  0  0  0  0  0  0  0  0
   -0.1711   -2.5657   -1.1117 O   0  0  0  0  0  0  0  0  0  0  0  0
    0.1657   -2.6850    1.3776 O   0  0  0  0  0  0  0  0  0  0  0  0
   -1.3593   -0.8667    0.4136 N   0  0  0  0  0  0  0  0  0  0  0  0
   -1.6860    0.1626   -0.6096 C   0  0  0  0  0  0  0  0  0  0  0  0
   -3.0858   -0.0996   -1.1694 C   0  0  0  0  0  0  0  0  0  0  0  0
   -1.5691    1.5560    0.0117 C   0  0  0  0  0  0  0  0  0  0  0  0
   -4.1936    0.2065   -0.1615 C   0  0  0  0  0  0  0  0  0  0  0  0
   -2.6849    1.8533    1.0134 C   0  0  0  0  0  0  0  0  0  0  0  0
   -4.0645    1.6156    0.4080 C   0  0  0  0  0  0  0  0  0  0  0  0
    1.3076   -0.7642    0.0623 C   0  0  0  0  0  0  0  0  0  0  0  0
    1.9824   -0.4021    1.2152 C   0  0  0  0  0  0  0  0  0  0  0  0
    1.6617   -0.2542   -1.1748 C   0  0  0  0  0  0  0  0  0  0  0  0
    3.0446    0.4978    1.1283 C   0  0  0  0  0  0  0  0  0  0  0  0
    2.7241    0.6454   -1.2618 C   0  0  0  0  0  0  0  0  0  0  0  0
    3.4156    1.0215   -0.1103 C   0  0  0  0  0  0  0  0  0  0  0  0
    4.5514    1.9834   -0.2032 C   0  0  0  0  0  0  0  0  0  0  0  0
   -0.9918    0.0900   -1.4498 H   0  0  0  0  0  0  0  0  0  0  0  0
   -3.1748   -1.1413   -1.5005 H   0  0  0  0  0  0  0  0  0  0  0  0
   -3.2366    0.5292   -2.0563 H   0  0  0  0  0  0  0  0  0  0  0  0
   -1.6106    2.3043   -0.7902 H   0  0  0  0  0  0  0  0  0  0  0  0
   -0.5986    1.6781    0.5063 H   0  0  0  0  0  0  0  0  0  0  0  0
   -4.1635   -0.5235    0.6564 H   0  0  0  0  0  0  0  0  0  0  0  0
   -5.1700    0.0952   -0.6469 H   0  0  0  0  0  0  0  0  0  0  0  0
   -2.6070    2.8953    1.3447 H   0  0  0  0  0  0  0  0  0  0  0  0
   -2.5635    1.2321    1.9085 H   0  0  0  0  0  0  0  0  0  0  0  0
   -4.2446    2.3485   -0.3881 H   0  0  0  0  0  0  0  0  0  0  0  0
   -4.8347    1.7774    1.1704 H   0  0  0  0  0  0  0  0  0  0  0  0
   -1.7903   -0.7781    1.3406 H   0  0  0  0  0  0  0  0  0  0  0  0
    1.7043   -0.7920    2.1893 H   0  0  0  0  0  0  0  0  0  0  0  0
    1.1449   -0.5401   -2.0855 H   0  0  0  0  0  0  0  0  0  0  0  0
    3.5756    0.7834    2.0326 H   0  0  0  0  0  0  0  0  0  0  0  0
    3.0061    1.0437   -2.2330 H   0  0  0  0  0  0  0  0  0  0  0  0
    4.4069    2.6867   -1.0304 H   0  0  0  0  0  0  0  0  0  0  0  0
    4.6406    2.5792    0.7115 H   0  0  0  0  0  0  0  0  0  0  0  0
    5.4896    1.4426   -0.3625 H   0  0  0  0  0  0  0  0  0  0  0  0
  1  2  2  0  0  0  0
  1  3  2  0  0  0  0
  1  4  1  0  0  0  0
  1 11  1  0  0  0  0
  4  5  1  0  0  0  0
  4 29  1  0  0  0  0
  5  6  1  0  0  0  0
  5  7  1  0  0  0  0
  5 18  1  0  0  0  0
  6  8  1  0  0  0  0
  6 19  1  0  0  0  0
  6 20  1  0  0  0  0
  7  9  1  0  0  0  0
  7 21  1  0  0  0  0
  7 22  1  0  0  0  0
  8 10  1  0  0  0  0
  8 23  1  0  0  0  0
  8 24  1  0  0  0  0
  9 10  1  0  0  0  0
  9 25  1  0  0  0  0
  9 26  1  0  0  0  0
 10 27  1  0  0  0  0
 10 28  1  0  0  0  0
 11 12  2  0  0  0  0
 11 13  1  0  0  0  0
 12 14  1  0  0  0  0
 12 30  1  0  0  0  0
 13 15  2  0  0  0  0
 13 31  1  0  0  0  0
 14 16  2  0  0  0  0
 14 32  1  0  0  0  0
 15 16  1  0  0  0  0
 15 33  1  0  0  0  0
 16 17  1  0  0  0  0
 17 34  1  0  0  0  0
 17 35  1  0  0  0  0
 17 36  1  0  0  0  0
M  END
> <PUBCHEM_COMPOUND_CID>
6633

> <PUBCHEM_CONFORMER_RMSD>
0.6

> <PUBCHEM_CONFORMER_DIVERSEORDER>
1
4
5
10
9
2
3
11
12
8
7
6

> <PUBCHEM_MMFF94_PARTIAL_CHARGES>
17
1 1.45
11 -0.01
12 -0.15
13 -0.15
14 -0.15
15 -0.15
16 -0.14
17 0.14
2 -0.65
29 0.42
3 -0.65
30 0.15
31 0.15
32 0.15
33 0.15
4 -0.91
5 0.36

> <PUBCHEM_EFFECTIVE_ROTOR_COUNT>
4.2

> <PUBCHEM_PHARMACOPHORE_FEATURES>
5
1 2 acceptor
1 3 acceptor
1 4 donor
6 11 12 13 14 15 16 rings
6 5 6 7 8 9 10 rings

> <PUBCHEM_HEAVY_ATOM_COUNT>
17

> <PUBCHEM_ATOM_DEF_STEREO_COUNT>
0

> <PUBCHEM_ATOM_UDEF_STEREO_COUNT>
0

> <PUBCHEM_BOND_DEF_STEREO_COUNT>
0

> <PUBCHEM_BOND_UDEF_STEREO_COUNT>
0

> <PUBCHEM_ISOTOPIC_ATOM_COUNT>
0

> <PUBCHEM_COMPONENT_COUNT>
1

> <PUBCHEM_CACTVS_TAUTO_COUNT>
1

> <PUBCHEM_CONFORMER_ID>
000019E900000001

> <PUBCHEM_MMFF94_ENERGY>
15.9598

> <PUBCHEM_FEATURE_SELFOVERLAP>
25.389

> <PUBCHEM_SHAPE_FINGERPRINT>
10498660 4 18260831535578721625
11221954 11 17608110679638990048
11640471 11 18202287957310633788
11715629 250 18114186397016799733
11725454 13 16228335827524180458
12346645 44 18408322215771821613
12633257 1 13614249212528792596
12788726 201 17625243226825933562
12892183 10 15697729180584912148
13583140 156 16630248004789775697
13764800 53 18341038645239500923
14739800 52 18046648719810032104
14787075 74 18267307521948758447
15342168 16 18342735239110753637
15775835 57 18343586230829408184
1741750 31 18340767031750281850
1798214 55 18411978074401237109
18186145 218 18336545022610207964
204376 136 18130787836910742116
20510252 161 18197211456011328330
20671657 1 18268424827003848299
20671657 53 4823219385858971920
21524375 3 18410858780312208314
21713013 43 14996574945090350717
21731228 192 17917990564137003986
2255824 54 18123750017737898787
22620623 9 17024600984101753527
23402539 116 18187655673785074396
23419403 2 16592814976677050259
23557571 272 18045776789333660206
2637199 183 18410564119954476600
276578 36 18272089422213194778
3323516 105 16226052162873040469
474 4 18341894134042427305
568465 68 14405194945490194112
6333272 397 18413386527479622841
633830 44 18336545009862345765
6442390 28 18262497248571390603
7364860 26 17972881642007578607
81228 2 17983848982710814282
83771 10 9079117765095625198

> <PUBCHEM_SHAPE_MULTIPOLES>
336.98
7.63
2.42
1.29
0.64
1.06
0.01
-5.82
-0.26
0.02
0.4
-0.33
0.24
-0.7

> <PUBCHEM_SHAPE_SELFOVERLAP>
682.004

> <PUBCHEM_SHAPE_VOLUME>
197.2

> <PUBCHEM_COORDINATE_TYPE>
2
5
10

$$$$

