114861
  -OEChem-07051213082D

 23 23  0     1  0  0  0  0  0999 V2000
    3.4030   -2.7320    0.0000 Cl  0  0  0  0  0  0  0  0  0  0  0  0
    3.4030    0.7321    0.0000 P   0  0  3  0  0  0  0  0  0  0  0  0
    4.2690    1.2320    0.0000 O   0  0  0  0  0  0  0  0  0  0  0  0
    3.9030   -0.1340    0.0000 O   0  0  0  0  0  0  0  0  0  0  0  0
    2.5369    1.2320    0.0000 N   0  0  0  0  0  0  0  0  0  0  0  0
    2.9030   -0.1340    0.0000 N   0  0  0  0  0  0  0  0  0  0  0  0
    3.4030    2.7320    0.0000 C   0  0  0  0  0  0  0  0  0  0  0  0
    2.5369    2.2320    0.0000 C   0  0  0  0  0  0  0  0  0  0  0  0
    4.2690    2.2320    0.0000 C   0  0  0  0  0  0  0  0  0  0  0  0
    3.4030   -1.0000    0.0000 C   0  0  0  0  0  0  0  0  0  0  0  0
    2.9030   -1.8660    0.0000 C   0  0  0  0  0  0  0  0  0  0  0  0
    3.8015    3.2070    0.0000 H   0  0  0  0  0  0  0  0  0  0  0  0
    3.0044    3.2070    0.0000 H   0  0  0  0  0  0  0  0  0  0  0  0
    2.3249    2.8147    0.0000 H   0  0  0  0  0  0  0  0  0  0  0  0
    1.9264    2.1244    0.0000 H   0  0  0  0  0  0  0  0  0  0  0  0
    4.8796    2.1244    0.0000 H   0  0  0  0  0  0  0  0  0  0  0  0
    4.4810    2.8147    0.0000 H   0  0  0  0  0  0  0  0  0  0  0  0
    2.0000    0.9221    0.0000 H   0  0  0  0  0  0  0  0  0  0  0  0
    2.2830   -0.1340    0.0000 H   0  0  0  0  0  0  0  0  0  0  0  0
    3.8779   -1.3985    0.0000 H   0  0  0  0  0  0  0  0  0  0  0  0
    3.8779   -0.6015    0.0000 H   0  0  0  0  0  0  0  0  0  0  0  0
    2.4280   -1.4675    0.0000 H   0  0  0  0  0  0  0  0  0  0  0  0
    2.4280   -2.2646    0.0000 H   0  0  0  0  0  0  0  0  0  0  0  0
  1 11  1  0  0  0  0
  2  3  1  0  0  0  0
  2  4  2  0  0  0  0
  2  5  1  0  0  0  0
  2  6  1  0  0  0  0
  3  9  1  0  0  0  0
  5  8  1  0  0  0  0
  5 18  1  0  0  0  0
  6 10  1  0  0  0  0
  6 19  1  0  0  0  0
  7  8  1  0  0  0  0
  7  9  1  0  0  0  0
  7 12  1  0  0  0  0
  7 13  1  0  0  0  0
  8 14  1  0  0  0  0
  8 15  1  0  0  0  0
  9 16  1  0  0  0  0
  9 17  1  0  0  0  0
 10 11  1  0  0  0  0
 10 20  1  0  0  0  0
 10 21  1  0  0  0  0
 11 22  1  0  0  0  0
 11 23  1  0  0  0  0
M  END
> <PUBCHEM_COMPOUND_CID>
114861

> <PUBCHEM_COMPOUND_CANONICALIZED>
1

> <PUBCHEM_CACTVS_COMPLEXITY>
167

> <PUBCHEM_CACTVS_HBOND_ACCEPTOR>
4

> <PUBCHEM_CACTVS_HBOND_DONOR>
2

> <PUBCHEM_CACTVS_ROTATABLE_BOND>
3

> <PUBCHEM_CACTVS_SUBSKEYS>
AAADccBjMAIEAAAAAAAAAAAAAAAAAAAAAAAsAAAAAAAAAAAAAAAAHgIQgCAACAPhgEYAAABAARAAQAAAAIAAAAAAAAAAAIAAAAAAAAAAAAAAAAACEAAAAAAAAAAAAAAAAAAAAAAAAAAAAAAAAAAAAAAAAA==

> <PUBCHEM_IUPAC_OPENEYE_NAME>
N-(2-chloroethyl)-2-oxo-1,3,2$l^{5}-oxazaphosphinan-2-amine

> <PUBCHEM_IUPAC_CAS_NAME>
N-(2-chloroethyl)-2-oxo-1,3,2$l^{5}-oxazaphosphorinan-2-amine

> <PUBCHEM_IUPAC_NAME>
N-(2-chloroethyl)-2-oxo-1,3,2$l^{5}-oxazaphosphinan-2-amine

> <PUBCHEM_IUPAC_SYSTEMATIC_NAME>
N-(2-chloroethyl)-2-oxidanylidene-1,3,2$l^{5}-oxazaphosphinan-2-amine

> <PUBCHEM_IUPAC_TRADITIONAL_NAME>
2-chloroethyl-(2-keto-1,3,2$l^{5}-oxazaphosphorinan-2-yl)amine

> <PUBCHEM_IUPAC_INCHI>
InChI=1S/C5H12ClN2O2P/c6-2-4-8-11(9)7-3-1-5-10-11/h1-5H2,(H2,7,8,9)

> <PUBCHEM_IUPAC_INCHIKEY>
DZKGMGPLDJOVCX-UHFFFAOYSA-N

> <PUBCHEM_XLOGP3_AA>
-0.3

> <PUBCHEM_EXACT_MASS>
198.032492

> <PUBCHEM_MOLECULAR_FORMULA>
C5H12ClN2O2P

> <PUBCHEM_MOLECULAR_WEIGHT>
198.587742

> <PUBCHEM_OPENEYE_CAN_SMILES>
C1CNP(=O)(OC1)NCCCl

> <PUBCHEM_OPENEYE_ISO_SMILES>
C1CNP(=O)(OC1)NCCCl

> <PUBCHEM_CACTVS_TPSA>
50.4

> <PUBCHEM_MONOISOTOPIC_WEIGHT>
198.032492

> <PUBCHEM_TOTAL_CHARGE>
0

> <PUBCHEM_HEAVY_ATOM_COUNT>
11

> <PUBCHEM_ATOM_DEF_STEREO_COUNT>
0

> <PUBCHEM_ATOM_UDEF_STEREO_COUNT>
1

> <PUBCHEM_BOND_DEF_STEREO_COUNT>
0

> <PUBCHEM_BOND_UDEF_STEREO_COUNT>
0

> <PUBCHEM_ISOTOPIC_ATOM_COUNT>
0

> <PUBCHEM_COMPONENT_COUNT>
1

> <PUBCHEM_CACTVS_TAUTO_COUNT>
3

> <PUBCHEM_COORDINATE_TYPE>
1
5
255

> <PUBCHEM_BONDANNOTATIONS>
2  6  3

$$$$

