107727
  -OEChem-07051213112D

 34 38  0     0  0  0  0  0  0999 V2000
    6.3718    0.2779    0.0000 O   0  0  0  0  0  0  0  0  0  0  0  0
    6.3987   -1.7030    0.0000 O   0  0  0  0  0  0  0  0  0  0  0  0
    3.7841   -0.2337    0.0000 C   0  0  0  0  0  0  0  0  0  0  0  0
    3.8001   -1.2752    0.0000 C   0  0  0  0  0  0  0  0  0  0  0  0
    2.9180    0.2663    0.0000 C   0  0  0  0  0  0  0  0  0  0  0  0
    4.6501    0.2663    0.0000 C   0  0  0  0  0  0  0  0  0  0  0  0
    4.6772   -1.7380    0.0000 C   0  0  0  0  0  0  0  0  0  0  0  0
    2.9180    1.2663    0.0000 C   0  0  0  0  0  0  0  0  0  0  0  0
    2.9021   -1.8030    0.0000 C   0  0  0  0  0  0  0  0  0  0  0  0
    3.7841    1.7663    0.0000 C   0  0  0  0  0  0  0  0  0  0  0  0
    4.6501    1.2663    0.0000 C   0  0  0  0  0  0  0  0  0  0  0  0
    5.5095   -0.2285    0.0000 C   0  0  0  0  0  0  0  0  0  0  0  0
    2.0080   -0.2406    0.0000 C   0  0  0  0  0  0  0  0  0  0  0  0
    5.5230   -1.2201    0.0000 C   0  0  0  0  0  0  0  0  0  0  0  0
    2.0000   -1.2822    0.0000 C   0  0  0  0  0  0  0  0  0  0  0  0
    4.7274   -2.7786    0.0000 C   0  0  0  0  0  0  0  0  0  0  0  0
    2.9282   -2.8445    0.0000 C   0  0  0  0  0  0  0  0  0  0  0  0
    2.0080    1.7731    0.0000 C   0  0  0  0  0  0  0  0  0  0  0  0
    3.8470   -3.3356    0.0000 C   0  0  0  0  0  0  0  0  0  0  0  0
    3.8001    2.8078    0.0000 C   0  0  0  0  0  0  0  0  0  0  0  0
    2.0000    2.8147    0.0000 C   0  0  0  0  0  0  0  0  0  0  0  0
    2.9021    3.3356    0.0000 C   0  0  0  0  0  0  0  0  0  0  0  0
    5.1870    1.5763    0.0000 H   0  0  0  0  0  0  0  0  0  0  0  0
    1.4747    0.0756    0.0000 H   0  0  0  0  0  0  0  0  0  0  0  0
    1.4619   -1.5901    0.0000 H   0  0  0  0  0  0  0  0  0  0  0  0
    5.2775   -3.0645    0.0000 H   0  0  0  0  0  0  0  0  0  0  0  0
    2.4004   -3.1698    0.0000 H   0  0  0  0  0  0  0  0  0  0  0  0
    1.4747    1.4569    0.0000 H   0  0  0  0  0  0  0  0  0  0  0  0
    4.3406    3.1116    0.0000 H   0  0  0  0  0  0  0  0  0  0  0  0
    3.8696   -3.9551    0.0000 H   0  0  0  0  0  0  0  0  0  0  0  0
    1.4619    3.1227    0.0000 H   0  0  0  0  0  0  0  0  0  0  0  0
    2.9045    3.9555    0.0000 H   0  0  0  0  0  0  0  0  0  0  0  0
    6.9111   -0.0281    0.0000 H   0  0  0  0  0  0  0  0  0  0  0  0
    6.4109   -2.3228    0.0000 H   0  0  0  0  0  0  0  0  0  0  0  0
  1 12  1  0  0  0  0
  1 33  1  0  0  0  0
  2 14  1  0  0  0  0
  2 34  1  0  0  0  0
  3  4  1  0  0  0  0
  3  5  2  0  0  0  0
  3  6  1  0  0  0  0
  4  7  1  0  0  0  0
  4  9  2  0  0  0  0
  5  8  1  0  0  0  0
  5 13  1  0  0  0  0
  6 11  2  0  0  0  0
  6 12  1  0  0  0  0
  7 14  1  0  0  0  0
  7 16  2  0  0  0  0
  8 10  1  0  0  0  0
  8 18  2  0  0  0  0
  9 15  1  0  0  0  0
  9 17  1  0  0  0  0
 10 11  1  0  0  0  0
 10 20  2  0  0  0  0
 11 23  1  0  0  0  0
 12 14  2  0  0  0  0
 13 15  2  0  0  0  0
 13 24  1  0  0  0  0
 15 25  1  0  0  0  0
 16 19  1  0  0  0  0
 16 26  1  0  0  0  0
 17 19  2  0  0  0  0
 17 27  1  0  0  0  0
 18 21  1  0  0  0  0
 18 28  1  0  0  0  0
 19 30  1  0  0  0  0
 20 22  1  0  0  0  0
 20 29  1  0  0  0  0
 21 22  2  0  0  0  0
 21 31  1  0  0  0  0
 22 32  1  0  0  0  0
M  END
> <PUBCHEM_COMPOUND_CID>
107727

> <PUBCHEM_COMPOUND_CANONICALIZED>
1

> <PUBCHEM_CACTVS_COMPLEXITY>
435

> <PUBCHEM_CACTVS_HBOND_ACCEPTOR>
2

> <PUBCHEM_CACTVS_HBOND_DONOR>
2

> <PUBCHEM_CACTVS_ROTATABLE_BOND>
0

> <PUBCHEM_CACTVS_SUBSKEYS>
AAADccB4MAAAAAAAAAAAAAAAAAAAAAAAAAAwYMGDAAAAAADBVAAAGgAACAAADASAmAAwBsAAAgCAAiBCAAACAAAgIAAIiAAEiIgJJiKCERKAcAEkwBEJmAeAwPAO4AADAAAYQADAAAYAADCAAAAAAAAAAA==

> <PUBCHEM_IUPAC_OPENEYE_NAME>
benzo[a]pyrene-4,5-diol

> <PUBCHEM_IUPAC_CAS_NAME>
benzo[a]pyrene-4,5-diol

> <PUBCHEM_IUPAC_NAME>
benzo[a]pyrene-4,5-diol

> <PUBCHEM_IUPAC_SYSTEMATIC_NAME>
benzo[a]pyrene-4,5-diol

> <PUBCHEM_IUPAC_TRADITIONAL_NAME>
benzo[a]pyrene-4,5-diol

> <PUBCHEM_IUPAC_INCHI>
InChI=1S/C20H12O2/c21-19-15-7-3-5-11-8-9-14-13-6-2-1-4-12(13)10-16(20(19)22)18(14)17(11)15/h1-10,21-22H

> <PUBCHEM_IUPAC_INCHIKEY>
AFDHSXYOTGMEAP-UHFFFAOYSA-N

> <PUBCHEM_XLOGP3_AA>
5.6

> <PUBCHEM_EXACT_MASS>
284.08373

> <PUBCHEM_MOLECULAR_FORMULA>
C20H12O2

> <PUBCHEM_MOLECULAR_WEIGHT>
284.30808

> <PUBCHEM_OPENEYE_CAN_SMILES>
C1=CC=C2C3=C4C(=CC2=C1)C(=C(C5=CC=CC(=C54)C=C3)O)O

> <PUBCHEM_OPENEYE_ISO_SMILES>
C1=CC=C2C3=C4C(=CC2=C1)C(=C(C5=CC=CC(=C54)C=C3)O)O

> <PUBCHEM_CACTVS_TPSA>
40.5

> <PUBCHEM_MONOISOTOPIC_WEIGHT>
284.08373

> <PUBCHEM_TOTAL_CHARGE>
0

> <PUBCHEM_HEAVY_ATOM_COUNT>
22

> <PUBCHEM_ATOM_DEF_STEREO_COUNT>
0

> <PUBCHEM_ATOM_UDEF_STEREO_COUNT>
0

> <PUBCHEM_BOND_DEF_STEREO_COUNT>
0

> <PUBCHEM_BOND_UDEF_STEREO_COUNT>
0

> <PUBCHEM_ISOTOPIC_ATOM_COUNT>
0

> <PUBCHEM_COMPONENT_COUNT>
1

> <PUBCHEM_CACTVS_TAUTO_COUNT>
3

> <PUBCHEM_COORDINATE_TYPE>
1
5
255

> <PUBCHEM_BONDANNOTATIONS>
10  11  8
10  20  8
12  14  8
13  15  8
16  19  8
17  19  8
18  21  8
20  22  8
21  22  8
3  4  8
3  5  8
3  6  8
4  7  8
4  9  8
5  13  8
5  8  8
6  11  8
6  12  8
7  14  8
7  16  8
8  10  8
8  18  8
9  15  8
9  17  8

$$$$

