8367
  -OEChem-06261202473D

 30 31  0     1  0  0  0  0  0999 V2000
    1.1670   -2.0197    0.1955 N   0  0  0  0  0  0  0  0  0  0  0  0
   -3.5954    1.4124    0.6360 N   0  0  0  0  0  0  0  0  0  0  0  0
   -2.4710    0.6568    0.0722 C   0  0  1  0  0  0  0  0  0  0  0  0
   -1.4459    0.3277    1.1930 C   0  0  0  0  0  0  0  0  0  0  0  0
   -0.2375   -0.3878    0.7353 C   0  0  0  0  0  0  0  0  0  0  0  0
   -2.9928   -0.6159   -0.6218 C   0  0  0  0  0  0  0  0  0  0  0  0
    0.9785    0.2013    0.2889 C   0  0  0  0  0  0  0  0  0  0  0  0
    1.8426   -0.8442   -0.0437 C   0  0  0  0  0  0  0  0  0  0  0  0
   -0.0907   -1.7541    0.6663 C   0  0  0  0  0  0  0  0  0  0  0  0
   -4.0089   -0.3294   -1.7216 C   0  0  0  0  0  0  0  0  0  0  0  0
    1.4284    1.5278    0.1355 C   0  0  0  0  0  0  0  0  0  0  0  0
    3.1393   -0.6287   -0.5239 C   0  0  0  0  0  0  0  0  0  0  0  0
    2.7229    1.7585   -0.3440 C   0  0  0  0  0  0  0  0  0  0  0  0
    3.5635    0.6954   -0.6679 C   0  0  0  0  0  0  0  0  0  0  0  0
   -1.9769    1.2885   -0.6772 H   0  0  0  0  0  0  0  0  0  0  0  0
   -1.9431   -0.2684    1.9713 H   0  0  0  0  0  0  0  0  0  0  0  0
   -1.1446    1.2609    1.6880 H   0  0  0  0  0  0  0  0  0  0  0  0
   -2.1596   -1.1517   -1.0890 H   0  0  0  0  0  0  0  0  0  0  0  0
   -3.4418   -1.2962    0.1126 H   0  0  0  0  0  0  0  0  0  0  0  0
   -0.7661   -2.5624    0.9103 H   0  0  0  0  0  0  0  0  0  0  0  0
    1.5457   -2.9445    0.0450 H   0  0  0  0  0  0  0  0  0  0  0  0
   -4.1837    1.7707   -0.1146 H   0  0  0  0  0  0  0  0  0  0  0  0
   -3.2419    2.2320    1.1286 H   0  0  0  0  0  0  0  0  0  0  0  0
   -4.2411   -1.2524   -2.2632 H   0  0  0  0  0  0  0  0  0  0  0  0
   -4.9498    0.0548   -1.3165 H   0  0  0  0  0  0  0  0  0  0  0  0
   -3.6160    0.3944   -2.4426 H   0  0  0  0  0  0  0  0  0  0  0  0
    0.7858    2.3682    0.3819 H   0  0  0  0  0  0  0  0  0  0  0  0
    3.7944   -1.4556   -0.7763 H   0  0  0  0  0  0  0  0  0  0  0  0
    3.0752    2.7795   -0.4648 H   0  0  0  0  0  0  0  0  0  0  0  0
    4.5652    0.8975   -1.0386 H   0  0  0  0  0  0  0  0  0  0  0  0
  1  8  1  0  0  0  0
  1  9  1  0  0  0  0
  1 21  1  0  0  0  0
  2  3  1  0  0  0  0
  2 22  1  0  0  0  0
  2 23  1  0  0  0  0
  3  4  1  0  0  0  0
  3  6  1  0  0  0  0
  3 15  1  0  0  0  0
  4  5  1  0  0  0  0
  4 16  1  0  0  0  0
  4 17  1  0  0  0  0
  5  7  1  0  0  0  0
  5  9  2  0  0  0  0
  6 10  1  0  0  0  0
  6 18  1  0  0  0  0
  6 19  1  0  0  0  0
  7  8  1  0  0  0  0
  7 11  2  0  0  0  0
  8 12  2  0  0  0  0
  9 20  1  0  0  0  0
 10 24  1  0  0  0  0
 10 25  1  0  0  0  0
 10 26  1  0  0  0  0
 11 13  1  0  0  0  0
 11 27  1  0  0  0  0
 12 14  1  0  0  0  0
 12 28  1  0  0  0  0
 13 14  2  0  0  0  0
 13 29  1  0  0  0  0
 14 30  1  0  0  0  0
M  END
> <PUBCHEM_COMPOUND_CID>
8367

> <PUBCHEM_CONFORMER_RMSD>
0.6

> <PUBCHEM_CONFORMER_DIVERSEORDER>
1
25
20
28
26
31
17
5
30
13
27
21
8
16
12
11
23
14
29
18
7
22
15
24
4
2
3
19
9
10
6

> <PUBCHEM_MMFF94_PARTIAL_CHARGES>
19
1 0.03
11 -0.15
12 -0.15
13 -0.15
14 -0.15
2 -0.99
20 0.15
21 0.27
22 0.36
23 0.36
27 0.15
28 0.15
29 0.15
3 0.27
30 0.15
4 0.18
5 -0.18
8 -0.15
9 -0.3

> <PUBCHEM_EFFECTIVE_ROTOR_COUNT>
3

> <PUBCHEM_PHARMACOPHORE_FEATURES>
7
1 1 cation
1 1 donor
1 10 hydrophobe
1 2 cation
1 2 donor
5 1 5 7 8 9 rings
6 7 8 11 12 13 14 rings

> <PUBCHEM_HEAVY_ATOM_COUNT>
14

> <PUBCHEM_ATOM_DEF_STEREO_COUNT>
0

> <PUBCHEM_ATOM_UDEF_STEREO_COUNT>
1

> <PUBCHEM_BOND_DEF_STEREO_COUNT>
0

> <PUBCHEM_BOND_UDEF_STEREO_COUNT>
0

> <PUBCHEM_ISOTOPIC_ATOM_COUNT>
0

> <PUBCHEM_COMPONENT_COUNT>
1

> <PUBCHEM_CACTVS_TAUTO_COUNT>
1

> <PUBCHEM_CONFORMER_ID>
000020AF00000001

> <PUBCHEM_MMFF94_ENERGY>
14.0177

> <PUBCHEM_FEATURE_SELFOVERLAP>
35.612

> <PUBCHEM_SHAPE_FINGERPRINT>
11543360 7 16805317765223586992
12119455 92 17775015565529756710
12138202 97 17774719757973230259
124424 183 17632579357685021072
12730499 353 17917713535179392691
13380535 76 18340485573974747258
13583140 156 16844734114391320056
13705890 14 16298381362306111988
14252887 29 8142090866250620188
14911166 2 18339343250344872046
15775835 57 18409440414670635165
16752209 62 17168724011056874463
16945 1 18341035398518531658
18186145 218 18343299275315938550
18915474 69 17676497090324517943
19422 9 18040716978519424727
20281407 28 6483358806724417145
20871999 31 17385446514392841909
21499 59 18343018861180364687
21524375 3 18272935977346904858
21639500 275 18342461438870945780
22959321 8 18130791139883037141
231179 274 17274830146589898508
23382010 3 18263650580038155179
23402539 116 18333730243337525252
23402655 69 18335416915290946781
23598291 2 18117563040296555679
25 1 18271518775504188826
2748010 2 18122886656655005370
3060560 45 18341624697605840206
3082319 5 18259989279675074365
633830 44 18339347639110514460
77492 1 18040712610347780593
7832392 63 18263360463814617921
81228 2 16984878893075628931
83771 10 7493015067339763240

> <PUBCHEM_SHAPE_MULTIPOLES>
278.15
6.56
1.78
1.13
3.39
0.17
-0.21
-1.71
-2.85
-0.71
0.2
0.98
0.03
-0.53

> <PUBCHEM_SHAPE_SELFOVERLAP>
587.88

> <PUBCHEM_SHAPE_VOLUME>
158.7

> <PUBCHEM_COORDINATE_TYPE>
2
5
10

$$$$

