255390
  -OEChem-07051213063D

 49 52  0     1  0  0  0  0  0999 V2000
   -3.1561   -0.7591   -2.7403 Cl  0  0  0  0  0  0  0  0  0  0  0  0
    5.1928   -1.0119    0.5939 O   0  0  0  0  0  0  0  0  0  0  0  0
   -4.8874    0.2976    1.9818 O   0  0  0  0  0  0  0  0  0  0  0  0
    2.0195    0.7671    0.3012 C   0  0  2  0  0  0  0  0  0  0  0  0
    2.8092   -0.5425    0.1078 C   0  0  2  0  0  0  0  0  0  0  0  0
    0.6745    0.7555   -0.4310 C   0  0  1  0  0  0  0  0  0  0  0  0
   -0.1920   -0.4267    0.1372 C   0  0  1  0  0  0  0  0  0  0  0  0
   -1.6160   -0.4710   -0.5268 C   0  0  2  0  0  0  0  0  0  0  0  0
    1.9894   -1.6885    0.7139 C   0  0  0  0  0  0  0  0  0  0  0  0
    0.5804   -1.7715    0.0967 C   0  0  0  0  0  0  0  0  0  0  0  0
    4.0879   -0.1796    0.8885 C   0  0  2  0  0  0  0  0  0  0  0  0
    3.0403    1.8515   -0.0329 C   0  0  0  0  0  0  0  0  0  0  0  0
   -0.0549    2.1060   -0.3031 C   0  0  0  0  0  0  0  0  0  0  0  0
    4.3737    1.2785    0.4808 C   0  0  0  0  0  0  0  0  0  0  0  0
   -2.2261    0.9178   -0.2967 C   0  0  0  0  0  0  0  0  0  0  0  0
   -1.4627    2.0700   -0.9012 C   0  0  0  0  0  0  0  0  0  0  0  0
    3.1557   -0.8801   -1.3648 C   0  0  0  0  0  0  0  0  0  0  0  0
   -2.5430   -1.5681    0.0705 C   0  0  0  0  0  0  0  0  0  0  0  0
   -1.5340   -0.7843   -2.0426 C   0  0  0  0  0  0  0  0  0  0  0  0
   -3.1059   -1.2112    1.4339 C   0  0  0  0  0  0  0  0  0  0  0  0
   -3.2803    1.1631    0.4992 C   0  0  0  0  0  0  0  0  0  0  0  0
   -3.8647    0.0874    1.3341 C   0  0  0  0  0  0  0  0  0  0  0  0
    1.7945    0.8834    1.3747 H   0  0  0  0  0  0  0  0  0  0  0  0
    0.8547    0.5916   -1.4988 H   0  0  0  0  0  0  0  0  0  0  0  0
   -0.3440   -0.2095    1.2064 H   0  0  0  0  0  0  0  0  0  0  0  0
    1.8851   -1.5426    1.7971 H   0  0  0  0  0  0  0  0  0  0  0  0
    2.5065   -2.6463    0.5815 H   0  0  0  0  0  0  0  0  0  0  0  0
    0.6601   -2.1355   -0.9321 H   0  0  0  0  0  0  0  0  0  0  0  0
    0.0306   -2.5368    0.6543 H   0  0  0  0  0  0  0  0  0  0  0  0
    3.9110   -0.2294    1.9699 H   0  0  0  0  0  0  0  0  0  0  0  0
    2.8022    2.8033    0.4528 H   0  0  0  0  0  0  0  0  0  0  0  0
    3.0937    2.0336   -1.1120 H   0  0  0  0  0  0  0  0  0  0  0  0
    0.5216    2.8925   -0.8042 H   0  0  0  0  0  0  0  0  0  0  0  0
   -0.1194    2.3899    0.7558 H   0  0  0  0  0  0  0  0  0  0  0  0
    5.1507    1.3591   -0.2874 H   0  0  0  0  0  0  0  0  0  0  0  0
    4.7293    1.8450    1.3490 H   0  0  0  0  0  0  0  0  0  0  0  0
   -1.4190    1.9806   -1.9913 H   0  0  0  0  0  0  0  0  0  0  0  0
   -1.9561    3.0284   -0.6980 H   0  0  0  0  0  0  0  0  0  0  0  0
    3.7789   -0.1133   -1.8357 H   0  0  0  0  0  0  0  0  0  0  0  0
    3.7048   -1.8270   -1.4256 H   0  0  0  0  0  0  0  0  0  0  0  0
    2.2674   -0.9929   -1.9920 H   0  0  0  0  0  0  0  0  0  0  0  0
   -2.0188   -2.5270    0.1365 H   0  0  0  0  0  0  0  0  0  0  0  0
   -3.4209   -1.7858   -0.5442 H   0  0  0  0  0  0  0  0  0  0  0  0
   -1.1302   -1.7857   -2.2200 H   0  0  0  0  0  0  0  0  0  0  0  0
   -0.9205   -0.0806   -2.6087 H   0  0  0  0  0  0  0  0  0  0  0  0
   -2.3210   -1.1098    2.1898 H   0  0  0  0  0  0  0  0  0  0  0  0
   -3.7963   -1.9962    1.7619 H   0  0  0  0  0  0  0  0  0  0  0  0
   -3.6717    2.1638    0.6463 H   0  0  0  0  0  0  0  0  0  0  0  0
    5.4963   -0.8250   -0.3099 H   0  0  0  0  0  0  0  0  0  0  0  0
  1 19  1  0  0  0  0
  2 11  1  0  0  0  0
  2 49  1  0  0  0  0
  3 22  2  0  0  0  0
  4  5  1  0  0  0  0
  4  6  1  0  0  0  0
  4 12  1  0  0  0  0
  4 23  1  0  0  0  0
  5  9  1  0  0  0  0
  5 11  1  0  0  0  0
  5 17  1  0  0  0  0
  6  7  1  0  0  0  0
  6 13  1  0  0  0  0
  6 24  1  0  0  0  0
  7  8  1  0  0  0  0
  7 10  1  0  0  0  0
  7 25  1  0  0  0  0
  8 15  1  0  0  0  0
  8 18  1  0  0  0  0
  8 19  1  0  0  0  0
  9 10  1  0  0  0  0
  9 26  1  0  0  0  0
  9 27  1  0  0  0  0
 10 28  1  0  0  0  0
 10 29  1  0  0  0  0
 11 14  1  0  0  0  0
 11 30  1  0  0  0  0
 12 14  1  0  0  0  0
 12 31  1  0  0  0  0
 12 32  1  0  0  0  0
 13 16  1  0  0  0  0
 13 33  1  0  0  0  0
 13 34  1  0  0  0  0
 14 35  1  0  0  0  0
 14 36  1  0  0  0  0
 15 16  1  0  0  0  0
 15 21  2  0  0  0  0
 16 37  1  0  0  0  0
 16 38  1  0  0  0  0
 17 39  1  0  0  0  0
 17 40  1  0  0  0  0
 17 41  1  0  0  0  0
 18 20  1  0  0  0  0
 18 42  1  0  0  0  0
 18 43  1  0  0  0  0
 19 44  1  0  0  0  0
 19 45  1  0  0  0  0
 20 22  1  0  0  0  0
 20 46  1  0  0  0  0
 20 47  1  0  0  0  0
 21 22  1  0  0  0  0
 21 48  1  0  0  0  0
M  END
> <PUBCHEM_COMPOUND_CID>
255390

> <PUBCHEM_CONFORMER_RMSD>
0.6

> <PUBCHEM_CONFORMER_DIVERSEORDER>
1
2

> <PUBCHEM_MMFF94_PARTIAL_CHARGES>
13
1 -0.29
11 0.28
15 -0.28
16 0.14
19 0.29
2 -0.68
20 0.06
21 -0.14
22 0.49
3 -0.57
48 0.15
49 0.4
8 0.14

> <PUBCHEM_EFFECTIVE_ROTOR_COUNT>
2.8

> <PUBCHEM_PHARMACOPHORE_FEATURES>
7
1 2 acceptor
1 2 donor
1 3 acceptor
5 4 5 11 12 14 rings
6 4 5 6 7 9 10 rings
6 6 7 8 13 15 16 rings
6 8 15 18 20 21 22 rings

> <PUBCHEM_HEAVY_ATOM_COUNT>
22

> <PUBCHEM_ATOM_DEF_STEREO_COUNT>
6

> <PUBCHEM_ATOM_UDEF_STEREO_COUNT>
0

> <PUBCHEM_BOND_DEF_STEREO_COUNT>
0

> <PUBCHEM_BOND_UDEF_STEREO_COUNT>
0

> <PUBCHEM_ISOTOPIC_ATOM_COUNT>
0

> <PUBCHEM_COMPONENT_COUNT>
1

> <PUBCHEM_CACTVS_TAUTO_COUNT>
5

> <PUBCHEM_CONFORMER_ID>
0003E59E00000001

> <PUBCHEM_MMFF94_ENERGY>
76.9747

> <PUBCHEM_FEATURE_SELFOVERLAP>
35.638

> <PUBCHEM_SHAPE_FINGERPRINT>
10863032 1 15936405645651327534
1100329 8 14232626161286342872
11132069 177 18413103953006985313
11578080 2 16126697160987737758
12011746 2 18342730858586548093
12236239 1 18040722437618173111
12251169 10 18411128135207565113
12403259 415 17632581535296724108
12403814 3 18408606963561266529
12553582 1 18342176665628591676
12633257 1 18129929122998956899
12714826 92 16702305641903652397
13140716 1 18341045212086182512
13214271 11 18341896311717284493
13224815 77 18410297990816773908
13583140 156 18271249438242440501
13675066 3 18335138704615656960
14223421 5 18200593729892748432
14289901 80 16878229658141930502
14790565 3 17767667374677179492
15163728 17 15793390047203775433
15196674 1 18413109442212676864
15209289 33 17918269870308217706
15209294 21 17967810526823466105
15309172 13 18413390929757986203
16945 1 18343027730329990100
1813 80 16271350925646880279
18186145 218 18272374161612898846
18927931 339 18343023332779727734
19433438 48 18113631070471845918
200 152 18190198822673583511
20261772 1 18410289207534794224
21637258 2 15338828704613555185
23184049 59 18260820527519019521
23402539 116 18335432266015323854
23419403 2 15189878933123442733
23493267 7 16845030003183128725
23503953 91 17603307059423620288
23557571 272 16271933747997288135
23559900 14 17702093879595653678
2748010 2 18341341045312896820
296302 2 4895550775340099456
5104073 3 18336834104564610272
633830 44 18335133168524151286
9709674 26 18339651156212881038

> <PUBCHEM_SHAPE_MULTIPOLES>
442.88
8.65
2.03
1.74
3.86
0.47
-0.76
-0.17
3.01
0.32
-0.13
-2.38
-0.5
-0.32

> <PUBCHEM_SHAPE_SELFOVERLAP>
941.107

> <PUBCHEM_SHAPE_VOLUME>
248.4

> <PUBCHEM_COORDINATE_TYPE>
2
5
10

$$$$

