43270
  -OEChem-07051213113D

 33 38  0     1  0  0  0  0  0999 V2000
    0.2800   -3.1762   -0.0324 O   0  0  0  0  0  0  0  0  0  0  0  0
   -0.0647   -1.9726    0.5844 C   0  0  1  0  0  0  0  0  0  0  0  0
    1.0835   -2.2021   -0.6304 C   0  0  1  0  0  0  0  0  0  0  0  0
   -0.6663   -0.6418    0.1586 C   0  0  0  0  0  0  0  0  0  0  0  0
    2.1402   -1.2137   -0.1860 C   0  0  0  0  0  0  0  0  0  0  0  0
    0.2886    0.4197    0.0168 C   0  0  0  0  0  0  0  0  0  0  0  0
    1.6878    0.1326   -0.0085 C   0  0  0  0  0  0  0  0  0  0  0  0
   -2.0488   -0.3753    0.0790 C   0  0  0  0  0  0  0  0  0  0  0  0
   -0.1524    1.7509   -0.0515 C   0  0  0  0  0  0  0  0  0  0  0  0
    2.6278    1.1756    0.0882 C   0  0  0  0  0  0  0  0  0  0  0  0
    3.5032   -1.5039   -0.1214 C   0  0  0  0  0  0  0  0  0  0  0  0
   -2.4784    0.9637   -0.0839 C   0  0  0  0  0  0  0  0  0  0  0  0
   -1.5317    2.0041   -0.1254 C   0  0  0  0  0  0  0  0  0  0  0  0
    0.7994    2.7828   -0.0190 C   0  0  0  0  0  0  0  0  0  0  0  0
    2.1657    2.5000    0.0892 C   0  0  0  0  0  0  0  0  0  0  0  0
    3.9941    0.8540    0.1515 C   0  0  0  0  0  0  0  0  0  0  0  0
    4.4231   -0.4744    0.0705 C   0  0  0  0  0  0  0  0  0  0  0  0
   -3.0203   -1.3906    0.1757 C   0  0  0  0  0  0  0  0  0  0  0  0
   -3.8527    1.2423   -0.1655 C   0  0  0  0  0  0  0  0  0  0  0  0
   -4.3813   -1.0949    0.0920 C   0  0  0  0  0  0  0  0  0  0  0  0
   -4.7970    0.2198   -0.0817 C   0  0  0  0  0  0  0  0  0  0  0  0
    0.2466   -1.9634    1.6282 H   0  0  0  0  0  0  0  0  0  0  0  0
    0.8046   -2.0560   -1.6731 H   0  0  0  0  0  0  0  0  0  0  0  0
    3.8548   -2.5221   -0.2614 H   0  0  0  0  0  0  0  0  0  0  0  0
   -1.8767    3.0354   -0.2054 H   0  0  0  0  0  0  0  0  0  0  0  0
    0.4832    3.8237   -0.0491 H   0  0  0  0  0  0  0  0  0  0  0  0
    2.8688    3.3288    0.1424 H   0  0  0  0  0  0  0  0  0  0  0  0
    4.7405    1.6397    0.2494 H   0  0  0  0  0  0  0  0  0  0  0  0
    5.4852   -0.7004    0.1115 H   0  0  0  0  0  0  0  0  0  0  0  0
   -2.7281   -2.4301    0.3086 H   0  0  0  0  0  0  0  0  0  0  0  0
   -4.2027    2.2654   -0.2891 H   0  0  0  0  0  0  0  0  0  0  0  0
   -5.1150   -1.8926    0.1625 H   0  0  0  0  0  0  0  0  0  0  0  0
   -5.8560    0.4520   -0.1457 H   0  0  0  0  0  0  0  0  0  0  0  0
  1  2  1  0  0  0  0
  1  3  1  0  0  0  0
  2  3  1  0  0  0  0
  2  4  1  0  0  0  0
  2 22  1  0  0  0  0
  3  5  1  0  0  0  0
  3 23  1  0  0  0  0
  4  6  2  0  0  0  0
  4  8  1  0  0  0  0
  5  7  1  0  0  0  0
  5 11  2  0  0  0  0
  6  7  1  0  0  0  0
  6  9  1  0  0  0  0
  7 10  2  0  0  0  0
  8 12  1  0  0  0  0
  8 18  2  0  0  0  0
  9 13  2  0  0  0  0
  9 14  1  0  0  0  0
 10 15  1  0  0  0  0
 10 16  1  0  0  0  0
 11 17  1  0  0  0  0
 11 24  1  0  0  0  0
 12 13  1  0  0  0  0
 12 19  2  0  0  0  0
 13 25  1  0  0  0  0
 14 15  2  0  0  0  0
 14 26  1  0  0  0  0
 15 27  1  0  0  0  0
 16 17  2  0  0  0  0
 16 28  1  0  0  0  0
 17 29  1  0  0  0  0
 18 20  1  0  0  0  0
 18 30  1  0  0  0  0
 19 21  1  0  0  0  0
 19 31  1  0  0  0  0
 20 21  2  0  0  0  0
 20 32  1  0  0  0  0
 21 33  1  0  0  0  0
M  END
> <PUBCHEM_COMPOUND_CID>
43270

> <PUBCHEM_CONFORMER_RMSD>
0.6

> <PUBCHEM_CONFORMER_DIVERSEORDER>
1

> <PUBCHEM_MMFF94_PARTIAL_CHARGES>
27
1 -0.3
11 -0.15
13 -0.15
14 -0.15
15 -0.15
16 -0.15
17 -0.15
18 -0.15
19 -0.15
2 0.08
20 -0.15
21 -0.15
22 0.1
23 0.1
24 0.15
25 0.15
26 0.15
27 0.15
28 0.15
29 0.15
3 0.08
30 0.15
31 0.15
32 0.15
33 0.15
4 -0.03
5 -0.03

> <PUBCHEM_EFFECTIVE_ROTOR_COUNT>
0.2

> <PUBCHEM_PHARMACOPHORE_FEATURES>
6
1 1 acceptor
6 4 6 8 9 12 13 rings
6 5 7 10 11 16 17 rings
6 6 7 9 10 14 15 rings
6 8 12 18 19 20 21 rings
7 1 2 3 4 5 6 7 rings

> <PUBCHEM_HEAVY_ATOM_COUNT>
21

> <PUBCHEM_ATOM_DEF_STEREO_COUNT>
0

> <PUBCHEM_ATOM_UDEF_STEREO_COUNT>
2

> <PUBCHEM_BOND_DEF_STEREO_COUNT>
0

> <PUBCHEM_BOND_UDEF_STEREO_COUNT>
0

> <PUBCHEM_ISOTOPIC_ATOM_COUNT>
0

> <PUBCHEM_COMPONENT_COUNT>
1

> <PUBCHEM_CACTVS_TAUTO_COUNT>
1

> <PUBCHEM_CONFORMER_ID>
0000A90600000001

> <PUBCHEM_MMFF94_ENERGY>
113.0096

> <PUBCHEM_FEATURE_SELFOVERLAP>
30.547

> <PUBCHEM_SHAPE_FINGERPRINT>
10411042 1 17689998259975172143
10616163 171 18410009953293610655
10906281 52 18339059546122054360
10967382 1 18410574006847853190
1100329 8 18338802195892294906
11132069 177 18411705391211811064
11471102 20 18410296916980127789
11578080 2 16555666146491778646
11680986 33 18197774388795059632
12011746 2 18410005529667128684
12035758 1 18410577241148099456
12236239 1 17676487242317747019
12403259 226 18412549811884009332
12403260 363 18410862022864596371
12553582 1 18122624122204514627
13140716 1 18410569565873086817
13402501 40 18412262839311957122
138480 1 18410574015506781812
13862211 1 18410862074663050018
14178342 30 18119817056292617848
14223421 5 18267022958378670749
14790565 3 18339351964544235636
15196674 1 18411138038911487008
15230672 131 13226104467755288227
15536298 74 18334857216421578921
15848702 151 17895184558288551839
1601671 61 18409728499401411352
16728300 4 17413620529060813722
16945 1 18050566545109085496
19591789 44 18339080380681385587
200 152 18041002834573916581
20028762 73 18115030693077503015
20739085 24 18199163162640192121
20905425 154 18048879894588724878
21197605 99 17977375050363851651
21267235 1 18410283727030170543
21421861 104 17770218576417384771
221490 88 18341044112775105571
23184049 29 17619350248122160142
23227448 37 18334859364185354423
2334 1 18410855456160372032
23402539 116 18335710433461307694
23559900 14 18409451401450120928
23566358 2 18122912194361950581
238 59 17838942335568172981
2748010 2 18411700976122626188
2871803 45 18339928211520362623
335352 9 18339080505435832685
34934 24 18266465480619714399
350125 39 18411415081740917745
3680242 22 18198624526010681171
5104073 3 18410293631214031177
5939293 188 18410015425034648440
6138700 20 18339077211549727414
6443956 14 18410853299839344029
7364860 26 18408603660647019777
8809292 202 18272646844490867875
9709674 26 18410851049540094935

> <PUBCHEM_SHAPE_MULTIPOLES>
426.3
7.76
3
0.66
3.25
0.04
0
0.37
0.01
-0.91
-0.07
-0.02
0.06
0.32

> <PUBCHEM_SHAPE_SELFOVERLAP>
1001.968

> <PUBCHEM_SHAPE_VOLUME>
216.5

> <PUBCHEM_COORDINATE_TYPE>
2
5
10

$$$$

