4503
  -OEChem-06261200102D

 80 83  0     1  0  0  0  0  0999 V2000
    8.9282    1.1900    0.0000 O   0  0  0  0  0  0  0  0  0  0  0  0
    9.7942   -2.3100    0.0000 O   0  0  0  0  0  0  0  0  0  0  0  0
   14.2045   -2.0053    0.0000 O   0  0  0  0  0  0  0  0  0  0  0  0
   14.2045   -3.6147    0.0000 O   0  0  0  0  0  0  0  0  0  0  0  0
    6.3301    0.6900    0.0000 O   0  0  0  0  0  0  0  0  0  0  0  0
   10.6603   -4.8100    0.0000 O   0  5  0  0  0  0  0  0  0  0  0  0
    9.7942   -3.3100    0.0000 O   0  0  0  0  0  0  0  0  0  0  0  0
    8.9282    4.1900    0.0000 O   0  0  0  0  0  0  0  0  0  0  0  0
   13.2583    2.6900    0.0000 O   0  0  0  0  0  0  0  0  0  0  0  0
   10.6603    4.1900    0.0000 O   0  0  0  0  0  0  0  0  0  0  0  0
   12.3923    1.1900    0.0000 O   0  0  0  0  0  0  0  0  0  0  0  0
    2.0000   -0.8100    0.0000 O   0  0  0  0  0  0  0  0  0  0  0  0
    6.3301   -2.3100    0.0000 O   0  0  0  0  0  0  0  0  0  0  0  0
    2.8660    0.6900    0.0000 O   0  0  0  0  0  0  0  0  0  0  0  0
    4.5981   -2.3100    0.0000 O   0  0  0  0  0  0  0  0  0  0  0  0
   10.6603    2.1900    0.0000 N   0  0  0  0  0  0  0  0  0  0  0  0
    4.5981   -0.3100    0.0000 N   0  0  0  0  0  0  0  0  0  0  0  0
   10.6603   -3.8100    0.0000 N   0  3  0  0  0  0  0  0  0  0  0  0
   10.6603   -1.8100    0.0000 C   0  0  3  0  0  0  0  0  0  0  0  0
   10.6603   -0.8100    0.0000 C   0  0  0  0  0  0  0  0  0  0  0  0
   11.5263   -2.3100    0.0000 C   0  0  0  0  0  0  0  0  0  0  0  0
   10.6603    1.1900    0.0000 C   0  0  0  0  0  0  0  0  0  0  0  0
    9.7942    0.6900    0.0000 C   0  0  0  0  0  0  0  0  0  0  0  0
    9.7942   -0.3100    0.0000 C   0  0  0  0  0  0  0  0  0  0  0  0
   11.5263   -0.3100    0.0000 C   0  0  0  0  0  0  0  0  0  0  0  0
   11.5263   -3.3100    0.0000 C   0  0  0  0  0  0  0  0  0  0  0  0
   11.5263    0.6900    0.0000 C   0  0  0  0  0  0  0  0  0  0  0  0
   12.3923   -1.8100    0.0000 C   0  0  0  0  0  0  0  0  0  0  0  0
   13.2583   -2.3100    0.0000 C   0  0  0  0  0  0  0  0  0  0  0  0
   13.2583   -3.3100    0.0000 C   0  0  0  0  0  0  0  0  0  0  0  0
   12.3923   -3.8100    0.0000 C   0  0  0  0  0  0  0  0  0  0  0  0
   11.5263    2.6900    0.0000 C   0  0  0  0  0  0  0  0  0  0  0  0
    9.7942    2.6900    0.0000 C   0  0  0  0  0  0  0  0  0  0  0  0
    8.0622    0.6900    0.0000 C   0  0  0  0  0  0  0  0  0  0  0  0
    4.5981    0.6900    0.0000 C   0  0  0  0  0  0  0  0  0  0  0  0
    7.1962    1.1900    0.0000 C   0  0  0  0  0  0  0  0  0  0  0  0
    5.4641    1.1900    0.0000 C   0  0  0  0  0  0  0  0  0  0  0  0
   14.7882   -2.8100    0.0000 C   0  0  0  0  0  0  0  0  0  0  0  0
    5.4641    2.1900    0.0000 C   0  0  0  0  0  0  0  0  0  0  0  0
    3.7320    1.1900    0.0000 C   0  0  0  0  0  0  0  0  0  0  0  0
    3.7320   -0.8100    0.0000 C   0  0  0  0  0  0  0  0  0  0  0  0
    5.4641   -0.8100    0.0000 C   0  0  0  0  0  0  0  0  0  0  0  0
    4.5981    2.6900    0.0000 C   0  0  0  0  0  0  0  0  0  0  0  0
    9.7942    3.6900    0.0000 C   0  0  0  0  0  0  0  0  0  0  0  0
   12.3923    2.1900    0.0000 C   0  0  0  0  0  0  0  0  0  0  0  0
    3.7320    2.1900    0.0000 C   0  0  0  0  0  0  0  0  0  0  0  0
    4.5981    3.6900    0.0000 C   0  0  0  0  0  0  0  0  0  0  0  0
    5.4641   -1.8100    0.0000 C   0  0  0  0  0  0  0  0  0  0  0  0
    2.8660   -0.3100    0.0000 C   0  0  0  0  0  0  0  0  0  0  0  0
   10.6603   -2.4300    0.0000 H   0  0  0  0  0  0  0  0  0  0  0  0
    9.2573   -0.6200    0.0000 H   0  0  0  0  0  0  0  0  0  0  0  0
   12.0632   -0.6200    0.0000 H   0  0  0  0  0  0  0  0  0  0  0  0
   12.0632    1.0000    0.0000 H   0  0  0  0  0  0  0  0  0  0  0  0
   12.3923   -1.1900    0.0000 H   0  0  0  0  0  0  0  0  0  0  0  0
   12.3923   -4.4300    0.0000 H   0  0  0  0  0  0  0  0  0  0  0  0
   11.9248    3.1650    0.0000 H   0  0  0  0  0  0  0  0  0  0  0  0
   11.1278    3.1650    0.0000 H   0  0  0  0  0  0  0  0  0  0  0  0
    9.1836    2.7977    0.0000 H   0  0  0  0  0  0  0  0  0  0  0  0
    9.5822    2.1074    0.0000 H   0  0  0  0  0  0  0  0  0  0  0  0
    7.6636    0.2151    0.0000 H   0  0  0  0  0  0  0  0  0  0  0  0
    8.4607    0.2151    0.0000 H   0  0  0  0  0  0  0  0  0  0  0  0
    9.2573   -2.0000    0.0000 H   0  0  0  0  0  0  0  0  0  0  0  0
    7.5947    1.6650    0.0000 H   0  0  0  0  0  0  0  0  0  0  0  0
    6.7976    1.6650    0.0000 H   0  0  0  0  0  0  0  0  0  0  0  0
   15.2490   -3.2247    0.0000 H   0  0  0  0  0  0  0  0  0  0  0  0
   15.2490   -2.3953    0.0000 H   0  0  0  0  0  0  0  0  0  0  0  0
    6.0010    2.5000    0.0000 H   0  0  0  0  0  0  0  0  0  0  0  0
    3.1951    0.8800    0.0000 H   0  0  0  0  0  0  0  0  0  0  0  0
    3.3335   -1.2850    0.0000 H   0  0  0  0  0  0  0  0  0  0  0  0
    4.1306   -1.2850    0.0000 H   0  0  0  0  0  0  0  0  0  0  0  0
    6.0747   -0.9177    0.0000 H   0  0  0  0  0  0  0  0  0  0  0  0
    5.6762   -0.2274    0.0000 H   0  0  0  0  0  0  0  0  0  0  0  0
    3.1951    2.5000    0.0000 H   0  0  0  0  0  0  0  0  0  0  0  0
    5.2181    3.6900    0.0000 H   0  0  0  0  0  0  0  0  0  0  0  0
    4.5981    4.3100    0.0000 H   0  0  0  0  0  0  0  0  0  0  0  0
    3.9781    3.6900    0.0000 H   0  0  0  0  0  0  0  0  0  0  0  0
   13.7953    2.3800    0.0000 H   0  0  0  0  0  0  0  0  0  0  0  0
    8.9282    4.8100    0.0000 H   0  0  0  0  0  0  0  0  0  0  0  0
    2.0000   -1.4300    0.0000 H   0  0  0  0  0  0  0  0  0  0  0  0
    6.3301   -2.9300    0.0000 H   0  0  0  0  0  0  0  0  0  0  0  0
  1 23  1  0  0  0  0
  1 34  1  0  0  0  0
  2 19  1  0  0  0  0
  2 62  1  0  0  0  0
  3 29  1  0  0  0  0
  3 38  1  0  0  0  0
  4 30  1  0  0  0  0
  4 38  1  0  0  0  0
  5 36  1  0  0  0  0
  5 37  1  0  0  0  0
  6 18  1  0  0  0  0
  7 18  2  0  0  0  0
  8 44  1  0  0  0  0
  8 78  1  0  0  0  0
  9 45  1  0  0  0  0
  9 77  1  0  0  0  0
 10 44  2  0  0  0  0
 11 45  2  0  0  0  0
 12 49  1  0  0  0  0
 12 79  1  0  0  0  0
 13 48  1  0  0  0  0
 13 80  1  0  0  0  0
 14 49  2  0  0  0  0
 15 48  2  0  0  0  0
 16 22  1  0  0  0  0
 16 32  1  0  0  0  0
 16 33  1  0  0  0  0
 17 35  1  0  0  0  0
 17 41  1  0  0  0  0
 17 42  1  0  0  0  0
 18 26  1  0  0  0  0
 19 20  1  0  0  0  0
 19 21  1  0  0  0  0
 19 50  1  0  0  0  0
 20 24  2  0  0  0  0
 20 25  1  0  0  0  0
 21 26  1  0  0  0  0
 21 28  2  0  0  0  0
 22 23  2  0  0  0  0
 22 27  1  0  0  0  0
 23 24  1  0  0  0  0
 24 51  1  0  0  0  0
 25 27  2  0  0  0  0
 25 52  1  0  0  0  0
 26 31  2  0  0  0  0
 27 53  1  0  0  0  0
 28 29  1  0  0  0  0
 28 54  1  0  0  0  0
 29 30  2  0  0  0  0
 30 31  1  0  0  0  0
 31 55  1  0  0  0  0
 32 45  1  0  0  0  0
 32 56  1  0  0  0  0
 32 57  1  0  0  0  0
 33 44  1  0  0  0  0
 33 58  1  0  0  0  0
 33 59  1  0  0  0  0
 34 36  1  0  0  0  0
 34 60  1  0  0  0  0
 34 61  1  0  0  0  0
 35 37  2  0  0  0  0
 35 40  1  0  0  0  0
 36 63  1  0  0  0  0
 36 64  1  0  0  0  0
 37 39  1  0  0  0  0
 38 65  1  0  0  0  0
 38 66  1  0  0  0  0
 39 43  2  0  0  0  0
 39 67  1  0  0  0  0
 40 46  2  0  0  0  0
 40 68  1  0  0  0  0
 41 49  1  0  0  0  0
 41 69  1  0  0  0  0
 41 70  1  0  0  0  0
 42 48  1  0  0  0  0
 42 71  1  0  0  0  0
 42 72  1  0  0  0  0
 43 46  1  0  0  0  0
 43 47  1  0  0  0  0
 46 73  1  0  0  0  0
 47 74  1  0  0  0  0
 47 75  1  0  0  0  0
 47 76  1  0  0  0  0
M  CHG  2   6  -1  18   1
M  END
> <PUBCHEM_COMPOUND_CID>
4503

> <PUBCHEM_COMPOUND_CANONICALIZED>
1

> <PUBCHEM_CACTVS_COMPLEXITY>
1140

> <PUBCHEM_CACTVS_HBOND_ACCEPTOR>
17

> <PUBCHEM_CACTVS_HBOND_DONOR>
5

> <PUBCHEM_CACTVS_ROTATABLE_BOND>
17

> <PUBCHEM_CACTVS_SUBSKEYS>
AAADceB7PAAAAAAAAAAAAAAAAAAAASAAAAAwYMAAAAAAAEgBUAAAHgAECAAADBzhmAcyzoMQRgCJAiTSSwCCCAAhIgAoiACP7IofNiLEsbuneCrmwBne+Afw8P8OKEABAgACUABQgAIEAASgAAAAAAAAAA==

> <PUBCHEM_IUPAC_OPENEYE_NAME>
2-[2-[2-[2-[bis(carboxymethyl)amino]-5-[hydroxy-(6-nitro-1,3-benzodioxol-5-yl)methyl]phenoxy]ethoxy]-N-(carboxymethyl)-4-methyl-anilino]acetic acid

> <PUBCHEM_IUPAC_CAS_NAME>
2-[2-[2-[2-[bis(carboxymethyl)amino]-5-[hydroxy-(6-nitro-1,3-benzodioxol-5-yl)methyl]phenoxy]ethoxy]-N-(carboxymethyl)-4-methylanilino]acetic acid

> <PUBCHEM_IUPAC_NAME>
2-[2-[2-[2-[bis(carboxymethyl)amino]-5-[hydroxy-(6-nitro-1,3-benzodioxol-5-yl)methyl]phenoxy]ethoxy]-N-(carboxymethyl)-4-methylanilino]acetic acid

> <PUBCHEM_IUPAC_SYSTEMATIC_NAME>
2-[[2-[2-[2-[bis(2-hydroxy-2-oxoethyl)amino]-5-[(6-nitro-1,3-benzodioxol-5-yl)-oxidanyl-methyl]phenoxy]ethoxy]-4-methyl-phenyl]-(2-hydroxy-2-oxoethyl)amino]ethanoic acid

> <PUBCHEM_IUPAC_TRADITIONAL_NAME>
2-[2-[2-[2-[bis(carboxymethyl)amino]-5-[hydroxy-(6-nitro-1,3-benzodioxol-5-yl)methyl]phenoxy]ethoxy]-N-(carboxymethyl)-4-methyl-anilino]acetic acid

> <PUBCHEM_IUPAC_INCHI>
InChI=1S/C31H31N3O15/c1-17-2-4-20(32(12-27(35)36)13-28(37)38)23(8-17)46-6-7-47-24-9-18(3-5-21(24)33(14-29(39)40)15-30(41)42)31(43)19-10-25-26(49-16-48-25)11-22(19)34(44)45/h2-5,8-11,31,43H,6-7,12-16H2,1H3,(H,35,36)(H,37,38)(H,39,40)(H,41,42)

> <PUBCHEM_IUPAC_INCHIKEY>
SQBFKIHOMAMLEJ-UHFFFAOYSA-N

> <PUBCHEM_XLOGP3_AA>
3

> <PUBCHEM_EXACT_MASS>
685.175517

> <PUBCHEM_MOLECULAR_FORMULA>
C31H31N3O15

> <PUBCHEM_MOLECULAR_WEIGHT>
685.58894

> <PUBCHEM_OPENEYE_CAN_SMILES>
CC1=CC(=C(C=C1)N(CC(=O)O)CC(=O)O)OCCOC2=C(C=CC(=C2)C(C3=CC4=C(C=C3[N+](=O)[O-])OCO4)O)N(CC(=O)O)CC(=O)O

> <PUBCHEM_OPENEYE_ISO_SMILES>
CC1=CC(=C(C=C1)N(CC(=O)O)CC(=O)O)OCCOC2=C(C=CC(=C2)C(C3=CC4=C(C=C3[N+](=O)[O-])OCO4)O)N(CC(=O)O)CC(=O)O

> <PUBCHEM_CACTVS_TPSA>
259

> <PUBCHEM_MONOISOTOPIC_WEIGHT>
685.175517

> <PUBCHEM_TOTAL_CHARGE>
0

> <PUBCHEM_HEAVY_ATOM_COUNT>
49

> <PUBCHEM_ATOM_DEF_STEREO_COUNT>
0

> <PUBCHEM_ATOM_UDEF_STEREO_COUNT>
1

> <PUBCHEM_BOND_DEF_STEREO_COUNT>
0

> <PUBCHEM_BOND_UDEF_STEREO_COUNT>
0

> <PUBCHEM_ISOTOPIC_ATOM_COUNT>
0

> <PUBCHEM_COMPONENT_COUNT>
1

> <PUBCHEM_CACTVS_TAUTO_COUNT>
1

> <PUBCHEM_COORDINATE_TYPE>
1
5
255

> <PUBCHEM_BONDANNOTATIONS>
19  2  3
20  24  8
20  25  8
21  26  8
21  28  8
22  23  8
22  27  8
23  24  8
25  27  8
26  31  8
28  29  8
29  30  8
30  31  8
35  37  8
35  40  8
37  39  8
39  43  8
40  46  8
43  46  8

$$$$

