23663938
  -OEChem-07051212542D

 38 39  0     1  0  0  0  0  0999 V2000
    2.8660   -0.8240    0.0000 S   0  0  0  0  0  0  0  0  0  0  0  0
    9.4434   -0.3531    0.0000 S   0  0  0  0  0  0  0  0  0  0  0  0
    2.0000    3.6760    0.0000 Na  0  3  0  0  0  0  0  0  0  0  0  0
    5.4460    1.3887    0.0000 O   0  0  0  0  0  0  0  0  0  0  0  0
    2.0000    2.6760    0.0000 O   0  5  0  0  0  0  0  0  0  0  0  0
    6.6732    0.1855    0.0000 O   0  0  0  0  0  0  0  0  0  0  0  0
    3.7320    2.6760    0.0000 O   0  0  0  0  0  0  0  0  0  0  0  0
    5.8908   -2.7106    0.0000 O   0  0  0  0  0  0  0  0  0  0  0  0
    3.7320    0.6760    0.0000 N   0  0  0  0  0  0  0  0  0  0  0  0
    5.4460   -1.0367    0.0000 N   0  0  0  0  0  0  0  0  0  0  0  0
    6.8573   -2.4538    0.0000 N   0  0  0  0  0  0  0  0  0  0  0  0
    8.8604   -1.8625    0.0000 N   0  0  0  0  0  0  0  0  0  0  0  0
   10.6330   -1.6799    0.0000 N   0  0  0  0  0  0  0  0  0  0  0  0
    3.7320   -0.3240    0.0000 C   0  0  1  0  0  0  0  0  0  0  0  0
    4.7403   -0.3281    0.0000 C   0  0  1  0  0  0  0  0  0  0  0  0
    4.7403    0.6802    0.0000 C   0  0  0  0  0  0  0  0  0  0  0  0
    2.8660    1.1760    0.0000 C   0  0  0  0  0  0  0  0  0  0  0  0
    2.0000   -0.3240    0.0000 C   0  0  0  0  0  0  0  0  0  0  0  0
    2.0000    0.6760    0.0000 C   0  0  0  0  0  0  0  0  0  0  0  0
    6.4124   -0.7798    0.0000 C   0  0  0  0  0  0  0  0  0  0  0  0
    2.8660    2.1760    0.0000 C   0  0  0  0  0  0  0  0  0  0  0  0
    7.1181   -1.4884    0.0000 C   0  0  0  0  0  0  0  0  0  0  0  0
    8.0846   -1.2316    0.0000 C   0  0  0  0  0  0  0  0  0  0  0  0
    8.4448   -0.2987    0.0000 C   0  0  0  0  0  0  0  0  0  0  0  0
    9.7002   -1.3196    0.0000 C   0  0  0  0  0  0  0  0  0  0  0  0
    5.6300   -3.6760    0.0000 C   0  0  0  0  0  0  0  0  0  0  0  0
    3.9504   -1.1455    0.0000 H   0  0  0  0  0  0  0  0  0  0  0  0
    4.5013   -0.9002    0.0000 H   0  0  0  0  0  0  0  0  0  0  0  0
    5.2843   -1.6352    0.0000 H   0  0  0  0  0  0  0  0  0  0  0  0
    1.3894   -0.2163    0.0000 H   0  0  0  0  0  0  0  0  0  0  0  0
    1.7880   -0.9066    0.0000 H   0  0  0  0  0  0  0  0  0  0  0  0
    1.4631    0.9860    0.0000 H   0  0  0  0  0  0  0  0  0  0  0  0
    8.1082    0.2219    0.0000 H   0  0  0  0  0  0  0  0  0  0  0  0
   11.1157   -1.2907    0.0000 H   0  0  0  0  0  0  0  0  0  0  0  0
   10.7288   -2.2924    0.0000 H   0  0  0  0  0  0  0  0  0  0  0  0
    5.0315   -3.5143    0.0000 H   0  0  0  0  0  0  0  0  0  0  0  0
    5.4683   -4.2746    0.0000 H   0  0  0  0  0  0  0  0  0  0  0  0
    6.2286   -3.8377    0.0000 H   0  0  0  0  0  0  0  0  0  0  0  0
  1 14  1  0  0  0  0
  1 18  1  0  0  0  0
  2 24  1  0  0  0  0
  2 25  1  0  0  0  0
  4 16  2  0  0  0  0
  5 21  1  0  0  0  0
  6 20  2  0  0  0  0
  7 21  2  0  0  0  0
  8 11  1  0  0  0  0
  8 26  1  0  0  0  0
  9 14  1  0  0  0  0
  9 16  1  0  0  0  0
  9 17  1  0  0  0  0
 15 10  1  1  0  0  0
 10 20  1  0  0  0  0
 10 29  1  0  0  0  0
 11 22  2  0  0  0  0
 12 23  1  0  0  0  0
 12 25  2  0  0  0  0
 13 25  1  0  0  0  0
 13 34  1  0  0  0  0
 13 35  1  0  0  0  0
 14 15  1  0  0  0  0
 14 27  1  6  0  0  0
 15 16  1  0  0  0  0
 15 28  1  0  0  0  0
 17 19  2  0  0  0  0
 17 21  1  0  0  0  0
 18 19  1  0  0  0  0
 18 30  1  0  0  0  0
 18 31  1  0  0  0  0
 19 32  1  0  0  0  0
 20 22  1  0  0  0  0
 22 23  1  0  0  0  0
 23 24  2  0  0  0  0
 24 33  1  0  0  0  0
 26 36  1  0  0  0  0
 26 37  1  0  0  0  0
 26 38  1  0  0  0  0
M  CHG  2   3   1   5  -1
M  END
> <PUBCHEM_COMPOUND_CID>
23663938

> <PUBCHEM_COMPOUND_CANONICALIZED>
1

> <PUBCHEM_CACTVS_COMPLEXITY>
675

> <PUBCHEM_CACTVS_HBOND_ACCEPTOR>
10

> <PUBCHEM_CACTVS_HBOND_DONOR>
2

> <PUBCHEM_CACTVS_ROTATABLE_BOND>
5

> <PUBCHEM_CACTVS_SUBSKEYS>
AAADccBzuCBgAAAAAAAAAAAAAABYAWAAAAAgAAAAAAAQAAABgAAAHgQUAAAACCjF1gajmRPYEAisASXyfAAA8KlhCjkACJW4IFiCZJggxCEUEAAAFgKwAaAAAAAAAAAAAAAAAAAAAAAAAAAAAAAAAAAAAA==

> <PUBCHEM_IUPAC_OPENEYE_NAME>
sodium (6R,7R)-7-[[(2Z)-2-(2-aminothiazol-4-yl)-2-methoxyimino-acetyl]amino]-8-oxo-5-thia-1-azabicyclo[4.2.0]oct-2-ene-2-carboxylate

> <PUBCHEM_IUPAC_CAS_NAME>
sodium (6R,7R)-7-[[(2Z)-2-(2-amino-4-thiazolyl)-2-methoxyimino-1-oxoethyl]amino]-8-oxo-5-thia-1-azabicyclo[4.2.0]oct-2-ene-2-carboxylate

> <PUBCHEM_IUPAC_NAME>
sodium (6R,7R)-7-[[(2Z)-2-(2-amino-1,3-thiazol-4-yl)-2-methoxyiminoacetyl]amino]-8-oxo-5-thia-1-azabicyclo[4.2.0]oct-2-ene-2-carboxylate

> <PUBCHEM_IUPAC_SYSTEMATIC_NAME>
sodium (6R,7R)-7-[[(2Z)-2-(2-azanyl-1,3-thiazol-4-yl)-2-methoxyimino-ethanoyl]amino]-8-oxidanylidene-5-thia-1-azabicyclo[4.2.0]oct-2-ene-2-carboxylate

> <PUBCHEM_IUPAC_TRADITIONAL_NAME>
sodium (6R,7R)-7-[[(2Z)-2-(2-aminothiazol-4-yl)-2-methyloximino-acetyl]amino]-8-keto-5-thia-1-azabicyclo[4.2.0]oct-2-ene-2-carboxylate

> <PUBCHEM_IUPAC_INCHI>
InChI=1S/C13H13N5O5S2.Na/c1-23-17-7(5-4-25-13(14)15-5)9(19)16-8-10(20)18-6(12(21)22)2-3-24-11(8)18;/h2,4,8,11H,3H2,1H3,(H2,14,15)(H,16,19)(H,21,22);/q;+1/p-1/b17-7-;/t8-,11-;/m1./s1

> <PUBCHEM_IUPAC_INCHIKEY>
ADLFUPFRVXCDMO-LIGXYSTNSA-M

> <PUBCHEM_EXACT_MASS>
405.017755

> <PUBCHEM_MOLECULAR_FORMULA>
C13H12N5NaO5S2

> <PUBCHEM_MOLECULAR_WEIGHT>
405.384649

> <PUBCHEM_OPENEYE_CAN_SMILES>
CON=C(C1=CSC(=N1)N)C(=O)NC2C3N(C2=O)C(=CCS3)C(=O)[O-].[Na+]

> <PUBCHEM_OPENEYE_ISO_SMILES>
CO/N=C(/C1=CSC(=N1)N)\C(=O)N[C@H]2[C@@H]3N(C2=O)C(=CCS3)C(=O)[O-].[Na+]

> <PUBCHEM_CACTVS_TPSA>
204

> <PUBCHEM_MONOISOTOPIC_WEIGHT>
405.017755

> <PUBCHEM_TOTAL_CHARGE>
0

> <PUBCHEM_HEAVY_ATOM_COUNT>
26

> <PUBCHEM_ATOM_DEF_STEREO_COUNT>
2

> <PUBCHEM_ATOM_UDEF_STEREO_COUNT>
0

> <PUBCHEM_BOND_DEF_STEREO_COUNT>
1

> <PUBCHEM_BOND_UDEF_STEREO_COUNT>
0

> <PUBCHEM_ISOTOPIC_ATOM_COUNT>
0

> <PUBCHEM_COMPONENT_COUNT>
2

> <PUBCHEM_CACTVS_TAUTO_COUNT>
14

> <PUBCHEM_NONSTANDARDBOND>
3  5  7

> <PUBCHEM_COORDINATE_TYPE>
1
5
255

> <PUBCHEM_BONDANNOTATIONS>
15  10  5
12  23  8
12  25  8
14  27  6
2  24  8
2  25  8
23  24  8

$$$$

