10965465
  -OEChem-07051213083D

 21 22  0     1  0  0  0  0  0999 V2000
   -0.4806    1.6588   -0.4633 O   0  0  0  0  0  0  0  0  0  0  0  0
   -2.2944    1.8856    0.9907 O   0  0  0  0  0  0  0  0  0  0  0  0
   -1.5060   -2.3934    0.0707 O   0  0  0  0  0  0  0  0  0  0  0  0
   -3.4346   -0.4942   -0.1835 O   0  0  0  0  0  0  0  0  0  0  0  0
    4.1065    0.6107    0.0533 O   0  0  0  0  0  0  0  0  0  0  0  0
   -1.1966   -1.0343   -0.0826 N   0  0  0  0  0  0  0  0  0  0  0  0
    0.1450   -0.6506   -0.0246 C   0  0  0  0  0  0  0  0  0  0  0  0
    0.4566    0.6975   -0.2109 C   0  0  0  0  0  0  0  0  0  0  0  0
   -1.8239    1.2951   -0.2174 C   0  0  2  0  0  0  0  0  0  0  0  0
   -2.2483   -0.1694   -0.1785 C   0  0  0  0  0  0  0  0  0  0  0  0
    1.1746   -1.5749    0.1888 C   0  0  0  0  0  0  0  0  0  0  0  0
    1.7882    1.1196   -0.1907 C   0  0  0  0  0  0  0  0  0  0  0  0
    2.8101    0.1976    0.0291 C   0  0  0  0  0  0  0  0  0  0  0  0
    2.5034   -1.1481    0.2190 C   0  0  0  0  0  0  0  0  0  0  0  0
   -2.4054    1.7499   -1.0277 H   0  0  0  0  0  0  0  0  0  0  0  0
    0.9656   -2.6313    0.3339 H   0  0  0  0  0  0  0  0  0  0  0  0
    2.0231    2.1700   -0.3472 H   0  0  0  0  0  0  0  0  0  0  0  0
    3.2959   -1.8725    0.3876 H   0  0  0  0  0  0  0  0  0  0  0  0
   -1.9405    1.3619    1.7297 H   0  0  0  0  0  0  0  0  0  0  0  0
   -1.6375   -2.6513   -0.8578 H   0  0  0  0  0  0  0  0  0  0  0  0
    4.1344    1.5714   -0.0963 H   0  0  0  0  0  0  0  0  0  0  0  0
  1  8  1  0  0  0  0
  1  9  1  0  0  0  0
  2  9  1  0  0  0  0
  2 19  1  0  0  0  0
  3  6  1  0  0  0  0
  3 20  1  0  0  0  0
  4 10  2  0  0  0  0
  5 13  1  0  0  0  0
  5 21  1  0  0  0  0
  6  7  1  0  0  0  0
  6 10  1  0  0  0  0
  7  8  2  0  0  0  0
  7 11  1  0  0  0  0
  8 12  1  0  0  0  0
  9 10  1  0  0  0  0
  9 15  1  0  0  0  0
 11 14  2  0  0  0  0
 11 16  1  0  0  0  0
 12 13  2  0  0  0  0
 12 17  1  0  0  0  0
 13 14  1  0  0  0  0
 14 18  1  0  0  0  0
M  END
> <PUBCHEM_COMPOUND_CID>
10965465

> <PUBCHEM_CONFORMER_RMSD>
0.4

> <PUBCHEM_CONFORMER_DIVERSEORDER>
1
2

> <PUBCHEM_MMFF94_PARTIAL_CHARGES>
20
1 -0.36
10 0.57
11 -0.15
12 -0.15
13 0.08
14 -0.15
16 0.15
17 0.15
18 0.15
19 0.4
2 -0.68
20 0.4
21 0.45
3 -0.44
4 -0.57
5 -0.53
6 -0.14
7 0.12
8 0.08
9 0.62

> <PUBCHEM_EFFECTIVE_ROTOR_COUNT>
0.6

> <PUBCHEM_PHARMACOPHORE_FEATURES>
7
1 1 acceptor
1 2 acceptor
1 2 donor
1 4 acceptor
1 5 donor
6 1 6 7 8 9 10 rings
6 7 8 11 12 13 14 rings

> <PUBCHEM_HEAVY_ATOM_COUNT>
14

> <PUBCHEM_ATOM_DEF_STEREO_COUNT>
0

> <PUBCHEM_ATOM_UDEF_STEREO_COUNT>
1

> <PUBCHEM_BOND_DEF_STEREO_COUNT>
0

> <PUBCHEM_BOND_UDEF_STEREO_COUNT>
0

> <PUBCHEM_ISOTOPIC_ATOM_COUNT>
0

> <PUBCHEM_COMPONENT_COUNT>
1

> <PUBCHEM_CACTVS_TAUTO_COUNT>
3

> <PUBCHEM_CONFORMER_ID>
00A751D900000001

> <PUBCHEM_MMFF94_ENERGY>
36.5913

> <PUBCHEM_FEATURE_SELFOVERLAP>
35.597

> <PUBCHEM_SHAPE_FINGERPRINT>
10967382 1 18412265021355946526
11132069 177 18340212899370084840
12382932 28 18337955709093004816
12491281 212 18337944696775655048
13380535 21 18338223973035032502
13380535 76 18411421713149245838
14144814 61 18412828018548583976
14325111 11 18338800116917068468
14614273 12 18201731668619347868
15775835 57 18338510953748541952
16945 1 18410571760400589876
193761 8 17476076826317495782
20510252 161 18259983803328262017
20525323 117 18335145297116084678
20871998 184 18188206507461920815
21501502 16 18337674234179487050
23236772 104 18411418431730584193
2334 1 17691123738578658518
23402539 116 18261684692250719599
23402655 69 18337405923673191133
23463225 33 18271812345483292814
23552423 10 18129381497198586422
23559900 14 18261950847933595206
2748010 2 18125160686665507446
3312278 4 18341332175973308746
353137 74 18342185474463908907
528886 8 18340212899143348482
53812653 166 18335146345557655440
6333449 129 18410015450593306188
7364860 26 18263930015443976902
8809292 202 18129379315345111874

> <PUBCHEM_SHAPE_MULTIPOLES>
253.79
4.98
2
0.67
1.58
0.39
-0.05
-0.53
-0.24
-0.69
-0.13
-0.13
-0.13
-0.32

> <PUBCHEM_SHAPE_SELFOVERLAP>
551.822

> <PUBCHEM_SHAPE_VOLUME>
136.5

> <PUBCHEM_COORDINATE_TYPE>
2
5
10

$$$$

