9303
  -OEChem-06261203352D

 36 35  0     0  0  0  0  0  0999 V2000
    4.8671    1.0000    0.0000 I   0  0  0  0  0  0  0  0  0  0  0  0
    1.4030    1.0000    0.0000 I   0  0  0  0  0  0  0  0  0  0  0  0
    5.7331    8.9750    0.0000 O   0  0  0  0  0  0  0  0  0  0  0  0
    0.5369    7.9750    0.0000 O   0  0  0  0  0  0  0  0  0  0  0  0
    3.1350    0.0000    0.0000 O   0  0  0  0  0  0  0  0  0  0  0  0
    4.0010    5.5000    0.0000 O   0  5  0  0  0  0  0  0  0  0  0  0
    4.8671    4.0000    0.0000 O   0  0  0  0  0  0  0  0  0  0  0  0
    3.1350    8.4750    0.0000 N   0  3  0  0  0  0  0  0  0  0  0  0
    3.1350    3.0000    0.0000 N   0  0  0  0  0  0  0  0  0  0  0  0
    4.0010    8.9750    0.0000 C   0  0  0  0  0  0  0  0  0  0  0  0
    2.2690    7.9750    0.0000 C   0  0  0  0  0  0  0  0  0  0  0  0
    1.4030    8.4750    0.0000 C   0  0  0  0  0  0  0  0  0  0  0  0
    4.8671    8.4750    0.0000 C   0  0  0  0  0  0  0  0  0  0  0  0
    3.1350    4.0000    0.0000 C   0  0  0  0  0  0  0  0  0  0  0  0
    4.0010    2.5000    0.0000 C   0  0  0  0  0  0  0  0  0  0  0  0
    2.2690    2.5000    0.0000 C   0  0  0  0  0  0  0  0  0  0  0  0
    4.0010    1.5000    0.0000 C   0  0  0  0  0  0  0  0  0  0  0  0
    2.2690    1.5000    0.0000 C   0  0  0  0  0  0  0  0  0  0  0  0
    3.1350    1.0000    0.0000 C   0  0  0  0  0  0  0  0  0  0  0  0
    4.0010    4.5000    0.0000 C   0  0  0  0  0  0  0  0  0  0  0  0
    2.8250    9.0119    0.0000 H   0  0  0  0  0  0  0  0  0  0  0  0
    3.4450    7.9380    0.0000 H   0  0  0  0  0  0  0  0  0  0  0  0
    4.3996    9.4499    0.0000 H   0  0  0  0  0  0  0  0  0  0  0  0
    3.6025    9.4499    0.0000 H   0  0  0  0  0  0  0  0  0  0  0  0
    1.8705    7.5000    0.0000 H   0  0  0  0  0  0  0  0  0  0  0  0
    2.6675    7.5000    0.0000 H   0  0  0  0  0  0  0  0  0  0  0  0
    1.8015    8.9499    0.0000 H   0  0  0  0  0  0  0  0  0  0  0  0
    1.0044    8.9499    0.0000 H   0  0  0  0  0  0  0  0  0  0  0  0
    4.4685    8.0000    0.0000 H   0  0  0  0  0  0  0  0  0  0  0  0
    5.2656    8.0000    0.0000 H   0  0  0  0  0  0  0  0  0  0  0  0
    2.9230    4.5826    0.0000 H   0  0  0  0  0  0  0  0  0  0  0  0
    2.5244    3.8923    0.0000 H   0  0  0  0  0  0  0  0  0  0  0  0
    4.5380    2.8100    0.0000 H   0  0  0  0  0  0  0  0  0  0  0  0
    1.7320    2.8100    0.0000 H   0  0  0  0  0  0  0  0  0  0  0  0
    6.2700    8.6649    0.0000 H   0  0  0  0  0  0  0  0  0  0  0  0
    0.0000    8.2850    0.0000 H   0  0  0  0  0  0  0  0  0  0  0  0
  1 17  1  0  0  0  0
  2 18  1  0  0  0  0
  3 13  1  0  0  0  0
  3 35  1  0  0  0  0
  4 12  1  0  0  0  0
  4 36  1  0  0  0  0
  5 19  2  0  0  0  0
  6 20  1  0  0  0  0
  7 20  2  0  0  0  0
  8 10  1  0  0  0  0
  8 11  1  0  0  0  0
  8 21  1  0  0  0  0
  8 22  1  0  0  0  0
  9 14  1  0  0  0  0
  9 15  1  0  0  0  0
  9 16  1  0  0  0  0
 10 13  1  0  0  0  0
 10 23  1  0  0  0  0
 10 24  1  0  0  0  0
 11 12  1  0  0  0  0
 11 25  1  0  0  0  0
 11 26  1  0  0  0  0
 12 27  1  0  0  0  0
 12 28  1  0  0  0  0
 13 29  1  0  0  0  0
 13 30  1  0  0  0  0
 14 20  1  0  0  0  0
 14 31  1  0  0  0  0
 14 32  1  0  0  0  0
 15 17  2  0  0  0  0
 15 33  1  0  0  0  0
 16 18  2  0  0  0  0
 16 34  1  0  0  0  0
 17 19  1  0  0  0  0
 18 19  1  0  0  0  0
M  CHG  2   6  -1   8   1
M  END
> <PUBCHEM_COMPOUND_CID>
9303

> <PUBCHEM_COMPOUND_CANONICALIZED>
1

> <PUBCHEM_CACTVS_COMPLEXITY>
323

> <PUBCHEM_CACTVS_HBOND_ACCEPTOR>
6

> <PUBCHEM_CACTVS_HBOND_DONOR>
3

> <PUBCHEM_CACTVS_ROTATABLE_BOND>
5

> <PUBCHEM_CACTVS_SUBSKEYS>
AAADceBzOAAAAwAAAAAAAAAAAAAAAAAAAAAgAAAAAAAAAAAAAAAAHgAwCAAACATjgAYACAPAAgCIAIDWSAAAAAAgAAAAAICIAEgCEAAAACAAAAAAEACQAMAAAAAAAAAAAAAAAAAAAAAAAAAAAAAAAAAAAA==

> <PUBCHEM_IUPAC_OPENEYE_NAME>
bis(2-hydroxyethyl)ammonium; 2-(3,5-diiodo-4-oxo-1-pyridyl)acetate

> <PUBCHEM_IUPAC_CAS_NAME>
bis(2-hydroxyethyl)ammonium; 2-(3,5-diiodo-4-oxo-1-pyridinyl)acetate

> <PUBCHEM_IUPAC_NAME>
bis(2-hydroxyethyl)azanium; 2-(3,5-diiodo-4-oxopyridin-1-yl)acetate

> <PUBCHEM_IUPAC_SYSTEMATIC_NAME>
bis(2-hydroxyethyl)azanium; 2-[3,5-bis(iodanyl)-4-oxidanylidene-pyridin-1-yl]ethanoate

> <PUBCHEM_IUPAC_TRADITIONAL_NAME>
bis(2-hydroxyethyl)ammonium; 2-(3,5-diiodo-4-keto-1-pyridyl)acetate

> <PUBCHEM_IUPAC_INCHI>
InChI=1S/C7H5I2NO3.C4H11NO2/c8-4-1-10(3-6(11)12)2-5(9)7(4)13;6-3-1-5-2-4-7/h1-2H,3H2,(H,11,12);5-7H,1-4H2

> <PUBCHEM_IUPAC_INCHIKEY>
RERHJVNYJKZHLJ-UHFFFAOYSA-N

> <PUBCHEM_EXACT_MASS>
509.914868

> <PUBCHEM_MOLECULAR_FORMULA>
C11H16I2N2O5

> <PUBCHEM_MOLECULAR_WEIGHT>
510.06408

> <PUBCHEM_OPENEYE_CAN_SMILES>
C1=C(C(=O)C(=CN1CC(=O)[O-])I)I.C(CO)[NH2+]CCO

> <PUBCHEM_OPENEYE_ISO_SMILES>
C1=C(C(=O)C(=CN1CC(=O)[O-])I)I.C(CO)[NH2+]CCO

> <PUBCHEM_CACTVS_TPSA>
118

> <PUBCHEM_MONOISOTOPIC_WEIGHT>
509.914868

> <PUBCHEM_TOTAL_CHARGE>
0

> <PUBCHEM_HEAVY_ATOM_COUNT>
20

> <PUBCHEM_ATOM_DEF_STEREO_COUNT>
0

> <PUBCHEM_ATOM_UDEF_STEREO_COUNT>
0

> <PUBCHEM_BOND_DEF_STEREO_COUNT>
0

> <PUBCHEM_BOND_UDEF_STEREO_COUNT>
0

> <PUBCHEM_ISOTOPIC_ATOM_COUNT>
0

> <PUBCHEM_COMPONENT_COUNT>
2

> <PUBCHEM_CACTVS_TAUTO_COUNT>
1

> <PUBCHEM_COORDINATE_TYPE>
1
5
255

> <PUBCHEM_BONDANNOTATIONS>
15  17  8
16  18  8
17  19  8
18  19  8
9  15  8
9  16  8

$$$$

