442219
  -OEChem-07051212573D

 46 49  0     1  0  0  0  0  0999 V2000
   -2.8999   -2.3262    1.6703 O   0  0  0  0  0  0  0  0  0  0  0  0
    2.8449   -1.6350   -1.5766 O   0  0  0  0  0  0  0  0  0  0  0  0
    4.3057   -0.0989    0.2120 O   0  0  0  0  0  0  0  0  0  0  0  0
   -1.7230    2.0655   -0.0125 N   0  0  1  0  0  0  0  0  0  0  0  0
   -1.3532    0.6197   -0.1245 C   0  0  1  0  0  0  0  0  0  0  0  0
   -2.0077   -0.1929    1.0247 C   0  0  0  0  0  0  0  0  0  0  0  0
   -2.0749    0.2145   -1.3971 C   0  0  0  0  0  0  0  0  0  0  0  0
    0.1701    0.4171   -0.1247 C   0  0  0  0  0  0  0  0  0  0  0  0
   -0.7825    2.9720    0.6508 C   0  0  0  0  0  0  0  0  0  0  0  0
   -2.0852    2.5255   -1.3732 C   0  0  0  0  0  0  0  0  0  0  0  0
   -1.9956   -1.7138    0.7528 C   0  0  2  0  0  0  0  0  0  0  0  0
    0.2247    2.2699    1.5600 C   0  0  0  0  0  0  0  0  0  0  0  0
    0.9337    1.2108    0.7597 C   0  0  0  0  0  0  0  0  0  0  0  0
   -2.4442    1.2809   -2.1104 C   0  0  0  0  0  0  0  0  0  0  0  0
   -2.4446   -1.1534   -1.6459 C   0  0  0  0  0  0  0  0  0  0  0  0
   -2.3959   -2.0617   -0.6594 C   0  0  0  0  0  0  0  0  0  0  0  0
    0.8398   -0.5354   -0.9063 C   0  0  0  0  0  0  0  0  0  0  0  0
    2.3158    1.0242    0.8777 C   0  0  0  0  0  0  0  0  0  0  0  0
    2.2224   -0.7061   -0.7962 C   0  0  0  0  0  0  0  0  0  0  0  0
    2.9577    0.0663    0.0984 C   0  0  0  0  0  0  0  0  0  0  0  0
   -2.5567   -2.0223    3.0133 C   0  0  0  0  0  0  0  0  0  0  0  0
    2.9641   -2.9530   -1.0452 C   0  0  0  0  0  0  0  0  0  0  0  0
    4.9844    0.7326    1.1520 C   0  0  0  0  0  0  0  0  0  0  0  0
   -3.0501    0.1347    1.1641 H   0  0  0  0  0  0  0  0  0  0  0  0
   -1.5036    0.0256    1.9724 H   0  0  0  0  0  0  0  0  0  0  0  0
   -1.3521    3.7043    1.2343 H   0  0  0  0  0  0  0  0  0  0  0  0
   -0.2080    3.5473   -0.0884 H   0  0  0  0  0  0  0  0  0  0  0  0
   -1.2584    3.0167   -1.8993 H   0  0  0  0  0  0  0  0  0  0  0  0
   -2.9364    3.2108   -1.3176 H   0  0  0  0  0  0  0  0  0  0  0  0
   -0.9944   -2.1284    0.9260 H   0  0  0  0  0  0  0  0  0  0  0  0
   -0.2625    1.8214    2.4321 H   0  0  0  0  0  0  0  0  0  0  0  0
    0.9381    3.0131    1.9356 H   0  0  0  0  0  0  0  0  0  0  0  0
   -3.0039    1.2621   -3.0342 H   0  0  0  0  0  0  0  0  0  0  0  0
   -2.7909   -1.4343   -2.6347 H   0  0  0  0  0  0  0  0  0  0  0  0
   -2.6655   -3.0921   -0.8734 H   0  0  0  0  0  0  0  0  0  0  0  0
    0.3025   -1.1647   -1.6084 H   0  0  0  0  0  0  0  0  0  0  0  0
    2.8334    1.6634    1.5849 H   0  0  0  0  0  0  0  0  0  0  0  0
   -2.9300   -1.0366    3.3056 H   0  0  0  0  0  0  0  0  0  0  0  0
   -1.4797   -2.1064    3.1929 H   0  0  0  0  0  0  0  0  0  0  0  0
   -3.0582   -2.7535    3.6549 H   0  0  0  0  0  0  0  0  0  0  0  0
    3.5486   -2.9443   -0.1198 H   0  0  0  0  0  0  0  0  0  0  0  0
    3.4831   -3.5735   -1.7808 H   0  0  0  0  0  0  0  0  0  0  0  0
    1.9743   -3.3826   -0.8605 H   0  0  0  0  0  0  0  0  0  0  0  0
    4.9171    1.7907    0.8767 H   0  0  0  0  0  0  0  0  0  0  0  0
    6.0447    0.4616    1.1147 H   0  0  0  0  0  0  0  0  0  0  0  0
    4.6444    0.5450    2.1762 H   0  0  0  0  0  0  0  0  0  0  0  0
  1 11  1  0  0  0  0
  1 21  1  0  0  0  0
  2 19  1  0  0  0  0
  2 22  1  0  0  0  0
  3 20  1  0  0  0  0
  3 23  1  0  0  0  0
  4  5  1  0  0  0  0
  4  9  1  0  0  0  0
  4 10  1  0  0  0  0
  5  6  1  0  0  0  0
  5  7  1  0  0  0  0
  5  8  1  0  0  0  0
  6 11  1  0  0  0  0
  6 24  1  0  0  0  0
  6 25  1  0  0  0  0
  7 14  2  0  0  0  0
  7 15  1  0  0  0  0
  8 13  1  0  0  0  0
  8 17  2  0  0  0  0
  9 12  1  0  0  0  0
  9 26  1  0  0  0  0
  9 27  1  0  0  0  0
 10 14  1  0  0  0  0
 10 28  1  0  0  0  0
 10 29  1  0  0  0  0
 11 16  1  0  0  0  0
 11 30  1  0  0  0  0
 12 13  1  0  0  0  0
 12 31  1  0  0  0  0
 12 32  1  0  0  0  0
 13 18  2  0  0  0  0
 14 33  1  0  0  0  0
 15 16  2  0  0  0  0
 15 34  1  0  0  0  0
 16 35  1  0  0  0  0
 17 19  1  0  0  0  0
 17 36  1  0  0  0  0
 18 20  1  0  0  0  0
 18 37  1  0  0  0  0
 19 20  2  0  0  0  0
 21 38  1  0  0  0  0
 21 39  1  0  0  0  0
 21 40  1  0  0  0  0
 22 41  1  0  0  0  0
 22 42  1  0  0  0  0
 22 43  1  0  0  0  0
 23 44  1  0  0  0  0
 23 45  1  0  0  0  0
 23 46  1  0  0  0  0
M  END
> <PUBCHEM_COMPOUND_CID>
442219

> <PUBCHEM_CONFORMER_RMSD>
0.6

> <PUBCHEM_CONFORMER_DIVERSEORDER>
6
1
5
4
3
2

> <PUBCHEM_MMFF94_PARTIAL_CHARGES>
27
1 -0.56
10 0.41
11 0.42
12 0.14
13 -0.14
14 -0.29
15 -0.15
16 -0.29
17 -0.15
18 -0.15
19 0.08
2 -0.36
20 0.08
21 0.28
22 0.28
23 0.28
3 -0.36
33 0.15
34 0.15
35 0.15
36 0.15
37 0.15
4 -0.81
5 0.55
7 -0.14
8 -0.14
9 0.27

> <PUBCHEM_EFFECTIVE_ROTOR_COUNT>
4

> <PUBCHEM_PHARMACOPHORE_FEATURES>
8
1 1 acceptor
1 2 acceptor
1 3 acceptor
1 4 cation
5 4 5 7 10 14 rings
6 4 5 8 9 12 13 rings
6 5 6 7 11 15 16 rings
6 8 13 17 18 19 20 rings

> <PUBCHEM_HEAVY_ATOM_COUNT>
23

> <PUBCHEM_ATOM_DEF_STEREO_COUNT>
2

> <PUBCHEM_ATOM_UDEF_STEREO_COUNT>
0

> <PUBCHEM_BOND_DEF_STEREO_COUNT>
0

> <PUBCHEM_BOND_UDEF_STEREO_COUNT>
0

> <PUBCHEM_ISOTOPIC_ATOM_COUNT>
0

> <PUBCHEM_COMPONENT_COUNT>
1

> <PUBCHEM_CACTVS_TAUTO_COUNT>
1

> <PUBCHEM_CONFORMER_ID>
0006BF6B00000006

> <PUBCHEM_MMFF94_ENERGY>
92.1998

> <PUBCHEM_FEATURE_SELFOVERLAP>
40.836

> <PUBCHEM_SHAPE_FINGERPRINT>
10764073 3 17396939885478864171
11582403 64 15743130077760665957
11640471 11 15553349027486832605
12363563 72 17843686551985245643
12553582 1 18190165802907086606
12714826 92 18271796904569552491
13140716 1 17537735295504935870
13224815 77 18113621196816727700
13583140 156 18129965398667473440
13911987 19 18116444631066359412
13965767 371 16302276936145602043
14223421 5 18187929521200385046
14817 1 14656792501913060853
16945 1 17971784248036101845
1813 80 17557958703227143467
18927931 339 18187364350954574174
18981168 100 10231742384499615722
19049666 15 18336545044391090238
200 152 16733847292998641013
20600515 1 17632009733384232799
21524375 3 17253417419490119117
23419403 2 17840875070709213729
23557571 272 18273214196854521268
23559900 14 17970927776271077278
23728640 28 17392479200590260639
2748010 2 18114461253501356244
3380486 145 18261952951518283379
394222 165 17475530842071092905
4921388 177 17917989511933280686
576247 118 17985531270203493011
81228 2 18344143696426123149
9709674 26 17969791967663478638
9981440 41 18117302408790981434

> <PUBCHEM_SHAPE_MULTIPOLES>
450.74
6.31
3.19
2.15
7.72
0.04
0.85
-1.98
0.42
-1.22
0.32
-1.84
-0.85
2.56

> <PUBCHEM_SHAPE_SELFOVERLAP>
983.555

> <PUBCHEM_SHAPE_VOLUME>
246.3

> <PUBCHEM_COORDINATE_TYPE>
2
5
10

$$$$

