6222
  -OEChem-07051213052D

 64 66  0     1  0  0  0  0  0999 V2000
    4.4641    2.2500    0.0000 O   0  0  0  0  0  0  0  0  0  0  0  0
    5.4641   -1.7500    0.0000 O   0  0  0  0  0  0  0  0  0  0  0  0
   10.2229    3.6181    0.0000 O   0  0  0  0  0  0  0  0  0  0  0  0
    3.7320   -3.7500    0.0000 N   0  0  0  0  0  0  0  0  0  0  0  0
    5.4641    2.2500    0.0000 C   0  0  3  0  0  0  0  0  0  0  0  0
    6.4641    2.2500    0.0000 C   0  0  0  0  0  0  0  0  0  0  0  0
    5.4641    1.2500    0.0000 C   0  0  0  0  0  0  0  0  0  0  0  0
    5.4641    3.2500    0.0000 C   0  0  0  0  0  0  0  0  0  0  0  0
    7.4038    2.5920    0.0000 C   0  0  0  0  0  0  0  0  0  0  0  0
    4.5981    0.7500    0.0000 C   0  0  0  0  0  0  0  0  0  0  0  0
    6.3301    0.7500    0.0000 C   0  0  0  0  0  0  0  0  0  0  0  0
    6.3301    3.7500    0.0000 C   0  0  0  0  0  0  0  0  0  0  0  0
    4.5981    3.7500    0.0000 C   0  0  0  0  0  0  0  0  0  0  0  0
    4.5981   -3.2500    0.0000 C   0  0  0  0  0  0  0  0  0  0  0  0
    5.4641   -0.7500    0.0000 C   0  0  0  0  0  0  0  0  0  0  0  0
    4.5981   -0.2500    0.0000 C   0  0  0  0  0  0  0  0  0  0  0  0
    6.3301   -0.2500    0.0000 C   0  0  0  0  0  0  0  0  0  0  0  0
    8.1698    1.9492    0.0000 C   0  0  0  0  0  0  0  0  0  0  0  0
    7.5774    3.5768    0.0000 C   0  0  0  0  0  0  0  0  0  0  0  0
    4.5981   -2.2500    0.0000 C   0  0  0  0  0  0  0  0  0  0  0  0
    3.7320   -4.7500    0.0000 C   0  0  0  0  0  0  0  0  0  0  0  0
    2.8660   -3.2500    0.0000 C   0  0  0  0  0  0  0  0  0  0  0  0
    6.3301    4.7500    0.0000 C   0  0  0  0  0  0  0  0  0  0  0  0
    4.5981    4.7500    0.0000 C   0  0  0  0  0  0  0  0  0  0  0  0
    9.1095    2.2912    0.0000 C   0  0  0  0  0  0  0  0  0  0  0  0
    8.5171    3.9188    0.0000 C   0  0  0  0  0  0  0  0  0  0  0  0
    5.4641    5.2500    0.0000 C   0  0  0  0  0  0  0  0  0  0  0  0
    9.2832    3.2761    0.0000 C   0  0  0  0  0  0  0  0  0  0  0  0
    2.0000   -3.7500    0.0000 C   0  0  0  0  0  0  0  0  0  0  0  0
    2.8660   -5.2500    0.0000 C   0  0  0  0  0  0  0  0  0  0  0  0
   10.9889    2.9753    0.0000 C   0  0  0  0  0  0  0  0  0  0  0  0
    6.2185    1.6807    0.0000 H   0  0  0  0  0  0  0  0  0  0  0  0
    6.3564    2.8606    0.0000 H   0  0  0  0  0  0  0  0  0  0  0  0
    4.0611    1.0600    0.0000 H   0  0  0  0  0  0  0  0  0  0  0  0
    6.8671    1.0600    0.0000 H   0  0  0  0  0  0  0  0  0  0  0  0
    4.1541    1.7131    0.0000 H   0  0  0  0  0  0  0  0  0  0  0  0
    6.8671    3.4400    0.0000 H   0  0  0  0  0  0  0  0  0  0  0  0
    4.0611    3.4400    0.0000 H   0  0  0  0  0  0  0  0  0  0  0  0
    4.8101   -3.8326    0.0000 H   0  0  0  0  0  0  0  0  0  0  0  0
    5.2087   -3.1423    0.0000 H   0  0  0  0  0  0  0  0  0  0  0  0
    4.0611   -0.5600    0.0000 H   0  0  0  0  0  0  0  0  0  0  0  0
    6.8671   -0.5600    0.0000 H   0  0  0  0  0  0  0  0  0  0  0  0
    8.0622    1.3386    0.0000 H   0  0  0  0  0  0  0  0  0  0  0  0
    7.1025    3.9754    0.0000 H   0  0  0  0  0  0  0  0  0  0  0  0
    4.3860   -1.6674    0.0000 H   0  0  0  0  0  0  0  0  0  0  0  0
    3.9875   -2.3577    0.0000 H   0  0  0  0  0  0  0  0  0  0  0  0
    3.9441   -5.3326    0.0000 H   0  0  0  0  0  0  0  0  0  0  0  0
    4.3426   -4.6423    0.0000 H   0  0  0  0  0  0  0  0  0  0  0  0
    3.2646   -2.7750    0.0000 H   0  0  0  0  0  0  0  0  0  0  0  0
    2.4675   -2.7750    0.0000 H   0  0  0  0  0  0  0  0  0  0  0  0
    6.8671    5.0600    0.0000 H   0  0  0  0  0  0  0  0  0  0  0  0
    4.0611    5.0600    0.0000 H   0  0  0  0  0  0  0  0  0  0  0  0
    9.5845    1.8927    0.0000 H   0  0  0  0  0  0  0  0  0  0  0  0
    8.6248    4.5294    0.0000 H   0  0  0  0  0  0  0  0  0  0  0  0
    5.4641    5.8700    0.0000 H   0  0  0  0  0  0  0  0  0  0  0  0
    1.6900   -3.2131    0.0000 H   0  0  0  0  0  0  0  0  0  0  0  0
    1.4631   -4.0600    0.0000 H   0  0  0  0  0  0  0  0  0  0  0  0
    2.3100   -4.2869    0.0000 H   0  0  0  0  0  0  0  0  0  0  0  0
    2.5560   -4.7131    0.0000 H   0  0  0  0  0  0  0  0  0  0  0  0
    2.3291   -5.5600    0.0000 H   0  0  0  0  0  0  0  0  0  0  0  0
    3.1760   -5.7869    0.0000 H   0  0  0  0  0  0  0  0  0  0  0  0
   10.5904    2.5004    0.0000 H   0  0  0  0  0  0  0  0  0  0  0  0
   11.4639    2.5768    0.0000 H   0  0  0  0  0  0  0  0  0  0  0  0
   11.3874    3.4502    0.0000 H   0  0  0  0  0  0  0  0  0  0  0  0
  1  5  1  0  0  0  0
  1 36  1  0  0  0  0
  2 15  1  0  0  0  0
  2 20  1  0  0  0  0
  3 28  1  0  0  0  0
  3 31  1  0  0  0  0
  4 14  1  0  0  0  0
  4 21  1  0  0  0  0
  4 22  1  0  0  0  0
  5  6  1  0  0  0  0
  5  7  1  0  0  0  0
  5  8  1  0  0  0  0
  6  9  1  0  0  0  0
  6 32  1  0  0  0  0
  6 33  1  0  0  0  0
  7 10  2  0  0  0  0
  7 11  1  0  0  0  0
  8 12  2  0  0  0  0
  8 13  1  0  0  0  0
  9 18  2  0  0  0  0
  9 19  1  0  0  0  0
 10 16  1  0  0  0  0
 10 34  1  0  0  0  0
 11 17  2  0  0  0  0
 11 35  1  0  0  0  0
 12 23  1  0  0  0  0
 12 37  1  0  0  0  0
 13 24  2  0  0  0  0
 13 38  1  0  0  0  0
 14 20  1  0  0  0  0
 14 39  1  0  0  0  0
 14 40  1  0  0  0  0
 15 16  2  0  0  0  0
 15 17  1  0  0  0  0
 16 41  1  0  0  0  0
 17 42  1  0  0  0  0
 18 25  1  0  0  0  0
 18 43  1  0  0  0  0
 19 26  2  0  0  0  0
 19 44  1  0  0  0  0
 20 45  1  0  0  0  0
 20 46  1  0  0  0  0
 21 30  1  0  0  0  0
 21 47  1  0  0  0  0
 21 48  1  0  0  0  0
 22 29  1  0  0  0  0
 22 49  1  0  0  0  0
 22 50  1  0  0  0  0
 23 27  2  0  0  0  0
 23 51  1  0  0  0  0
 24 27  1  0  0  0  0
 24 52  1  0  0  0  0
 25 28  2  0  0  0  0
 25 53  1  0  0  0  0
 26 28  1  0  0  0  0
 26 54  1  0  0  0  0
 27 55  1  0  0  0  0
 29 56  1  0  0  0  0
 29 57  1  0  0  0  0
 29 58  1  0  0  0  0
 30 59  1  0  0  0  0
 30 60  1  0  0  0  0
 30 61  1  0  0  0  0
 31 62  1  0  0  0  0
 31 63  1  0  0  0  0
 31 64  1  0  0  0  0
M  END
> <PUBCHEM_COMPOUND_CID>
6222

> <PUBCHEM_COMPOUND_CANONICALIZED>
1

> <PUBCHEM_CACTVS_COMPLEXITY>
475

> <PUBCHEM_CACTVS_HBOND_ACCEPTOR>
4

> <PUBCHEM_CACTVS_HBOND_DONOR>
1

> <PUBCHEM_CACTVS_ROTATABLE_BOND>
11

> <PUBCHEM_CACTVS_SUBSKEYS>
AAADcfB6MAAAAAAAAAAAAAAAAAAAAAAAAAAwYMAAAAAAAAABUAAAHgAACAAADEThmAYyBoMABgCAAiBCAAACCAAgIAAIiAAOCIgOJiKEMRqDeCCkwBGYuAeA4PwOoAAAAAAAAABAAAAAAAAAAAAAAAAAAA==

> <PUBCHEM_IUPAC_OPENEYE_NAME>
1-[4-[2-(diethylamino)ethoxy]phenyl]-2-(4-methoxyphenyl)-1-phenyl-ethanol

> <PUBCHEM_IUPAC_CAS_NAME>
1-[4-[2-(diethylamino)ethoxy]phenyl]-2-(4-methoxyphenyl)-1-phenylethanol

> <PUBCHEM_IUPAC_NAME>
1-[4-[2-(diethylamino)ethoxy]phenyl]-2-(4-methoxyphenyl)-1-phenylethanol

> <PUBCHEM_IUPAC_SYSTEMATIC_NAME>
1-[4-[2-(diethylamino)ethoxy]phenyl]-2-(4-methoxyphenyl)-1-phenyl-ethanol

> <PUBCHEM_IUPAC_TRADITIONAL_NAME>
1-[4-[2-(diethylamino)ethoxy]phenyl]-2-(4-methoxyphenyl)-1-phenyl-ethanol

> <PUBCHEM_IUPAC_INCHI>
InChI=1S/C27H33NO3/c1-4-28(5-2)19-20-31-26-17-13-24(14-18-26)27(29,23-9-7-6-8-10-23)21-22-11-15-25(30-3)16-12-22/h6-18,29H,4-5,19-21H2,1-3H3

> <PUBCHEM_IUPAC_INCHIKEY>
KDYQVUUCWUPJGE-UHFFFAOYSA-N

> <PUBCHEM_XLOGP3_AA>
5.2

> <PUBCHEM_EXACT_MASS>
419.246044

> <PUBCHEM_MOLECULAR_FORMULA>
C27H33NO3

> <PUBCHEM_MOLECULAR_WEIGHT>
419.55582

> <PUBCHEM_OPENEYE_CAN_SMILES>
CCN(CC)CCOC1=CC=C(C=C1)C(CC2=CC=C(C=C2)OC)(C3=CC=CC=C3)O

> <PUBCHEM_OPENEYE_ISO_SMILES>
CCN(CC)CCOC1=CC=C(C=C1)C(CC2=CC=C(C=C2)OC)(C3=CC=CC=C3)O

> <PUBCHEM_CACTVS_TPSA>
41.9

> <PUBCHEM_MONOISOTOPIC_WEIGHT>
419.246044

> <PUBCHEM_TOTAL_CHARGE>
0

> <PUBCHEM_HEAVY_ATOM_COUNT>
31

> <PUBCHEM_ATOM_DEF_STEREO_COUNT>
0

> <PUBCHEM_ATOM_UDEF_STEREO_COUNT>
1

> <PUBCHEM_BOND_DEF_STEREO_COUNT>
0

> <PUBCHEM_BOND_UDEF_STEREO_COUNT>
0

> <PUBCHEM_ISOTOPIC_ATOM_COUNT>
0

> <PUBCHEM_COMPONENT_COUNT>
1

> <PUBCHEM_CACTVS_TAUTO_COUNT>
1

> <PUBCHEM_COORDINATE_TYPE>
1
5
255

> <PUBCHEM_BONDANNOTATIONS>
5  1  3
10  16  8
11  17  8
12  23  8
13  24  8
15  16  8
15  17  8
18  25  8
19  26  8
23  27  8
24  27  8
25  28  8
26  28  8
7  10  8
7  11  8
8  12  8
8  13  8
9  18  8
9  19  8

$$$$

