441481
  -OEChem-07051212553D

 20 20  0     1  0  0  0  0  0999 V2000
    1.3032    0.9553   -0.6155 O   0  0  0  0  0  0  0  0  0  0  0  0
   -2.0508   -1.0369    0.8169 O   0  0  0  0  0  0  0  0  0  0  0  0
   -0.4602   -1.2113   -1.4779 O   0  0  0  0  0  0  0  0  0  0  0  0
   -1.5910    1.2409   -0.7313 O   0  0  0  0  0  0  0  0  0  0  0  0
    2.2547   -0.6198    0.8805 O   0  0  0  0  0  0  0  0  0  0  0  0
   -0.7583   -0.4432    0.7976 C   0  0  1  0  0  0  0  0  0  0  0  0
    0.1604   -1.1635   -0.1942 C   0  0  2  0  0  0  0  0  0  0  0  0
   -0.8745    1.0488    0.4878 C   0  0  1  0  0  0  0  0  0  0  0  0
    1.5003   -0.4309   -0.3128 C   0  0  1  0  0  0  0  0  0  0  0  0
    0.5161    1.6605    0.3489 C   0  0  0  0  0  0  0  0  0  0  0  0
   -0.3593   -0.5548    1.8115 H   0  0  0  0  0  0  0  0  0  0  0  0
    0.3024   -2.1992    0.1357 H   0  0  0  0  0  0  0  0  0  0  0  0
   -1.4469    1.5581    1.2698 H   0  0  0  0  0  0  0  0  0  0  0  0
    2.0860   -0.8464   -1.1388 H   0  0  0  0  0  0  0  0  0  0  0  0
    0.4375    2.6936   -0.0053 H   0  0  0  0  0  0  0  0  0  0  0  0
    1.0440    1.6739    1.3088 H   0  0  0  0  0  0  0  0  0  0  0  0
   -2.4254   -0.9520   -0.0767 H   0  0  0  0  0  0  0  0  0  0  0  0
    0.1367   -1.6945   -2.0743 H   0  0  0  0  0  0  0  0  0  0  0  0
   -1.0576    0.8734   -1.4563 H   0  0  0  0  0  0  0  0  0  0  0  0
    1.6590   -0.6718    1.6434 H   0  0  0  0  0  0  0  0  0  0  0  0
  1  9  1  0  0  0  0
  1 10  1  0  0  0  0
  2  6  1  0  0  0  0
  2 17  1  0  0  0  0
  3  7  1  0  0  0  0
  3 18  1  0  0  0  0
  4  8  1  0  0  0  0
  4 19  1  0  0  0  0
  5  9  1  0  0  0  0
  5 20  1  0  0  0  0
  6  7  1  0  0  0  0
  6  8  1  0  0  0  0
  6 11  1  0  0  0  0
  7  9  1  0  0  0  0
  7 12  1  0  0  0  0
  8 10  1  0  0  0  0
  8 13  1  0  0  0  0
  9 14  1  0  0  0  0
 10 15  1  0  0  0  0
 10 16  1  0  0  0  0
M  END
> <PUBCHEM_COMPOUND_CID>
441481

> <PUBCHEM_CONFORMER_RMSD>
0.4

> <PUBCHEM_CONFORMER_DIVERSEORDER>
1
2
3
4

> <PUBCHEM_MMFF94_PARTIAL_CHARGES>
14
1 -0.56
10 0.28
17 0.4
18 0.4
19 0.4
2 -0.68
20 0.4
3 -0.68
4 -0.68
5 -0.68
6 0.28
7 0.28
8 0.28
9 0.56

> <PUBCHEM_EFFECTIVE_ROTOR_COUNT>
1.2

> <PUBCHEM_PHARMACOPHORE_FEATURES>
10
1 1 acceptor
1 2 acceptor
1 2 donor
1 3 acceptor
1 3 donor
1 4 acceptor
1 4 donor
1 5 acceptor
1 5 donor
6 1 6 7 8 9 10 rings

> <PUBCHEM_HEAVY_ATOM_COUNT>
10

> <PUBCHEM_ATOM_DEF_STEREO_COUNT>
4

> <PUBCHEM_ATOM_UDEF_STEREO_COUNT>
0

> <PUBCHEM_BOND_DEF_STEREO_COUNT>
0

> <PUBCHEM_BOND_UDEF_STEREO_COUNT>
0

> <PUBCHEM_ISOTOPIC_ATOM_COUNT>
0

> <PUBCHEM_COMPONENT_COUNT>
1

> <PUBCHEM_CACTVS_TAUTO_COUNT>
1

> <PUBCHEM_CONFORMER_ID>
0006BC8900000001

> <PUBCHEM_MMFF94_ENERGY>
23.9304

> <PUBCHEM_FEATURE_SELFOVERLAP>
50.808

> <PUBCHEM_SHAPE_FINGERPRINT>
12423570 1 13948669599790570567
13024252 1 17842861068050396586
137420 1 14495509079418780154
16945 1 18127689541924187880
18185500 45 17684647628002391942
20653085 51 6266607746446609546
21040471 1 17836352023290390328
21922407 69 14687440696567501825
23235685 24 18048864488298492768
241688 4 16824731077277718280
24536 1 18118947329308834800
29004967 10 18115019826582461377
5084963 1 18188190083480489930

> <PUBCHEM_SHAPE_MULTIPOLES>
176.45
2.16
1.67
1.07
0.28
0.34
-0.14
-0.23
0.4
-0.21
-0.14
-0.1
-0.22
0.1

> <PUBCHEM_SHAPE_SELFOVERLAP>
352.012

> <PUBCHEM_SHAPE_VOLUME>
101.8

> <PUBCHEM_COORDINATE_TYPE>
2
5
10

$$$$

