4677
  -OEChem-07051213032D

 78 77  0     1  0  0  0  0  0999 V2000
   12.9292   -0.2500    0.0000 S   0  0  0  0  0  0  0  0  0  0  0  0
   13.7953    0.2500    0.0000 S   0  0  0  0  0  0  0  0  0  0  0  0
    5.1350    1.2500    0.0000 O   0  0  0  0  0  0  0  0  0  0  0  0
   21.5895   -1.2500    0.0000 O   0  0  0  0  0  0  0  0  0  0  0  0
    2.5369   -0.2500    0.0000 O   0  0  0  0  0  0  0  0  0  0  0  0
   24.1876    0.2500    0.0000 O   0  0  0  0  0  0  0  0  0  0  0  0
    6.0010   -1.2500    0.0000 O   0  0  0  0  0  0  0  0  0  0  0  0
   20.7235    1.2500    0.0000 O   0  0  0  0  0  0  0  0  0  0  0  0
   17.2594    1.2500    0.0000 O   0  0  0  0  0  0  0  0  0  0  0  0
    9.4651   -1.2500    0.0000 O   0  0  0  0  0  0  0  0  0  0  0  0
   19.8574   -0.2500    0.0000 N   0  0  0  0  0  0  0  0  0  0  0  0
    6.8671    0.2500    0.0000 N   0  0  0  0  0  0  0  0  0  0  0  0
   10.3312    0.2500    0.0000 N   0  0  0  0  0  0  0  0  0  0  0  0
   16.3933   -0.2500    0.0000 N   0  0  0  0  0  0  0  0  0  0  0  0
    4.2690   -0.2500    0.0000 C   0  0  0  0  0  0  0  0  0  0  0  0
   22.4555    0.2500    0.0000 C   0  0  0  0  0  0  0  0  0  0  0  0
   21.5895   -0.2500    0.0000 C   0  0  3  0  0  0  0  0  0  0  0  0
    5.1350    0.2500    0.0000 C   0  0  3  0  0  0  0  0  0  0  0  0
    3.4030   -0.7500    0.0000 C   0  0  0  0  0  0  0  0  0  0  0  0
   23.3215    0.7500    0.0000 C   0  0  0  0  0  0  0  0  0  0  0  0
   22.9555   -0.6160    0.0000 C   0  0  0  0  0  0  0  0  0  0  0  0
   21.9555    1.1160    0.0000 C   0  0  0  0  0  0  0  0  0  0  0  0
    3.7690    0.6160    0.0000 C   0  0  0  0  0  0  0  0  0  0  0  0
    4.7690   -1.1160    0.0000 C   0  0  0  0  0  0  0  0  0  0  0  0
    6.0010   -0.2500    0.0000 C   0  0  0  0  0  0  0  0  0  0  0  0
   20.7235    0.2500    0.0000 C   0  0  0  0  0  0  0  0  0  0  0  0
    7.7331   -0.2500    0.0000 C   0  0  0  0  0  0  0  0  0  0  0  0
   18.9914    0.2500    0.0000 C   0  0  0  0  0  0  0  0  0  0  0  0
   18.1254   -0.2500    0.0000 C   0  0  0  0  0  0  0  0  0  0  0  0
    8.5991    0.2500    0.0000 C   0  0  0  0  0  0  0  0  0  0  0  0
   17.2594    0.2500    0.0000 C   0  0  0  0  0  0  0  0  0  0  0  0
    9.4651   -0.2500    0.0000 C   0  0  0  0  0  0  0  0  0  0  0  0
   11.1972   -0.2500    0.0000 C   0  0  0  0  0  0  0  0  0  0  0  0
   15.5273    0.2500    0.0000 C   0  0  0  0  0  0  0  0  0  0  0  0
   12.0632    0.2500    0.0000 C   0  0  0  0  0  0  0  0  0  0  0  0
   14.6613   -0.2500    0.0000 C   0  0  0  0  0  0  0  0  0  0  0  0
   22.1264   -0.5600    0.0000 H   0  0  0  0  0  0  0  0  0  0  0  0
    5.6720    0.5600    0.0000 H   0  0  0  0  0  0  0  0  0  0  0  0
    3.0044   -1.2250    0.0000 H   0  0  0  0  0  0  0  0  0  0  0  0
    3.8015   -1.2250    0.0000 H   0  0  0  0  0  0  0  0  0  0  0  0
   23.7201    1.2250    0.0000 H   0  0  0  0  0  0  0  0  0  0  0  0
   22.9230    1.2250    0.0000 H   0  0  0  0  0  0  0  0  0  0  0  0
   22.4186   -0.9260    0.0000 H   0  0  0  0  0  0  0  0  0  0  0  0
   23.2655   -1.1530    0.0000 H   0  0  0  0  0  0  0  0  0  0  0  0
   23.4925   -0.3060    0.0000 H   0  0  0  0  0  0  0  0  0  0  0  0
   22.4925    1.4260    0.0000 H   0  0  0  0  0  0  0  0  0  0  0  0
   21.6455    1.6530    0.0000 H   0  0  0  0  0  0  0  0  0  0  0  0
   21.4186    0.8060    0.0000 H   0  0  0  0  0  0  0  0  0  0  0  0
    4.3059    0.9260    0.0000 H   0  0  0  0  0  0  0  0  0  0  0  0
    3.4590    1.1530    0.0000 H   0  0  0  0  0  0  0  0  0  0  0  0
    3.2320    0.3060    0.0000 H   0  0  0  0  0  0  0  0  0  0  0  0
    4.2320   -1.4260    0.0000 H   0  0  0  0  0  0  0  0  0  0  0  0
    5.0790   -1.6530    0.0000 H   0  0  0  0  0  0  0  0  0  0  0  0
    5.3059   -0.8060    0.0000 H   0  0  0  0  0  0  0  0  0  0  0  0
    5.6720    1.5600    0.0000 H   0  0  0  0  0  0  0  0  0  0  0  0
   22.1264   -1.5600    0.0000 H   0  0  0  0  0  0  0  0  0  0  0  0
    6.8671    0.8700    0.0000 H   0  0  0  0  0  0  0  0  0  0  0  0
   19.8574   -0.8700    0.0000 H   0  0  0  0  0  0  0  0  0  0  0  0
   24.7245    0.5600    0.0000 H   0  0  0  0  0  0  0  0  0  0  0  0
    2.0000   -0.5600    0.0000 H   0  0  0  0  0  0  0  0  0  0  0  0
   19.3899    0.7249    0.0000 H   0  0  0  0  0  0  0  0  0  0  0  0
   18.5929    0.7249    0.0000 H   0  0  0  0  0  0  0  0  0  0  0  0
    7.3346   -0.7249    0.0000 H   0  0  0  0  0  0  0  0  0  0  0  0
    8.1316   -0.7249    0.0000 H   0  0  0  0  0  0  0  0  0  0  0  0
    8.9976    0.7249    0.0000 H   0  0  0  0  0  0  0  0  0  0  0  0
    8.2006    0.7249    0.0000 H   0  0  0  0  0  0  0  0  0  0  0  0
   17.7269   -0.7249    0.0000 H   0  0  0  0  0  0  0  0  0  0  0  0
   18.5239   -0.7249    0.0000 H   0  0  0  0  0  0  0  0  0  0  0  0
   10.3312    0.8700    0.0000 H   0  0  0  0  0  0  0  0  0  0  0  0
   16.3933   -0.8700    0.0000 H   0  0  0  0  0  0  0  0  0  0  0  0
   10.7987   -0.7249    0.0000 H   0  0  0  0  0  0  0  0  0  0  0  0
   11.5957   -0.7249    0.0000 H   0  0  0  0  0  0  0  0  0  0  0  0
   15.9258    0.7249    0.0000 H   0  0  0  0  0  0  0  0  0  0  0  0
   15.1288    0.7249    0.0000 H   0  0  0  0  0  0  0  0  0  0  0  0
   12.4617    0.7249    0.0000 H   0  0  0  0  0  0  0  0  0  0  0  0
   11.6647    0.7249    0.0000 H   0  0  0  0  0  0  0  0  0  0  0  0
   14.2628   -0.7249    0.0000 H   0  0  0  0  0  0  0  0  0  0  0  0
   15.0598   -0.7249    0.0000 H   0  0  0  0  0  0  0  0  0  0  0  0
  1  2  1  0  0  0  0
  1 35  1  0  0  0  0
  2 36  1  0  0  0  0
  3 18  1  0  0  0  0
  3 55  1  0  0  0  0
  4 17  1  0  0  0  0
  4 56  1  0  0  0  0
  5 19  1  0  0  0  0
  5 60  1  0  0  0  0
  6 20  1  0  0  0  0
  6 59  1  0  0  0  0
  7 25  2  0  0  0  0
  8 26  2  0  0  0  0
  9 31  2  0  0  0  0
 10 32  2  0  0  0  0
 11 26  1  0  0  0  0
 11 28  1  0  0  0  0
 11 58  1  0  0  0  0
 12 25  1  0  0  0  0
 12 27  1  0  0  0  0
 12 57  1  0  0  0  0
 13 32  1  0  0  0  0
 13 33  1  0  0  0  0
 13 69  1  0  0  0  0
 14 31  1  0  0  0  0
 14 34  1  0  0  0  0
 14 70  1  0  0  0  0
 15 18  1  0  0  0  0
 15 19  1  0  0  0  0
 15 23  1  0  0  0  0
 15 24  1  0  0  0  0
 16 17  1  0  0  0  0
 16 20  1  0  0  0  0
 16 21  1  0  0  0  0
 16 22  1  0  0  0  0
 17 26  1  0  0  0  0
 17 37  1  0  0  0  0
 18 25  1  0  0  0  0
 18 38  1  0  0  0  0
 19 39  1  0  0  0  0
 19 40  1  0  0  0  0
 20 41  1  0  0  0  0
 20 42  1  0  0  0  0
 21 43  1  0  0  0  0
 21 44  1  0  0  0  0
 21 45  1  0  0  0  0
 22 46  1  0  0  0  0
 22 47  1  0  0  0  0
 22 48  1  0  0  0  0
 23 49  1  0  0  0  0
 23 50  1  0  0  0  0
 23 51  1  0  0  0  0
 24 52  1  0  0  0  0
 24 53  1  0  0  0  0
 24 54  1  0  0  0  0
 27 30  1  0  0  0  0
 27 63  1  0  0  0  0
 27 64  1  0  0  0  0
 28 29  1  0  0  0  0
 28 61  1  0  0  0  0
 28 62  1  0  0  0  0
 29 31  1  0  0  0  0
 29 67  1  0  0  0  0
 29 68  1  0  0  0  0
 30 32  1  0  0  0  0
 30 65  1  0  0  0  0
 30 66  1  0  0  0  0
 33 35  1  0  0  0  0
 33 71  1  0  0  0  0
 33 72  1  0  0  0  0
 34 36  1  0  0  0  0
 34 73  1  0  0  0  0
 34 74  1  0  0  0  0
 35 75  1  0  0  0  0
 35 76  1  0  0  0  0
 36 77  1  0  0  0  0
 36 78  1  0  0  0  0
M  END
> <PUBCHEM_COMPOUND_CID>
4677

> <PUBCHEM_COMPOUND_CANONICALIZED>
1

> <PUBCHEM_CACTVS_COMPLEXITY>
652

> <PUBCHEM_CACTVS_HBOND_ACCEPTOR>
10

> <PUBCHEM_CACTVS_HBOND_DONOR>
8

> <PUBCHEM_CACTVS_ROTATABLE_BOND>
19

> <PUBCHEM_CACTVS_SUBSKEYS>
AAADcfB7vABgAAAAAAAAAAAAAAAAAAAAAAAAAAAAAAAAAAAAAAAAHgQQCAAADhTlwAaCAALAAgAIAAEQEAIAAAAAAAAAAIFIAAACEBgAwAAEQAAFFgCQAAAiAAAJAAAAAAAAAAAAAAAAAAAAAAAAAAAAAA==

> <PUBCHEM_IUPAC_OPENEYE_NAME>
N-[3-[2-[2-[3-[(2,4-dihydroxy-3,3-dimethyl-butanoyl)amino]propanoylamino]ethyldisulfanyl]ethylamino]-3-oxo-propyl]-2,4-dihydroxy-3,3-dimethyl-butanamide

> <PUBCHEM_IUPAC_CAS_NAME>
N-[3-[2-[2-[[3-[(2,4-dihydroxy-3,3-dimethyl-1-oxobutyl)amino]-1-oxopropyl]amino]ethyldisulfanyl]ethylamino]-3-oxopropyl]-2,4-dihydroxy-3,3-dimethylbutanamide

> <PUBCHEM_IUPAC_NAME>
N-[3-[2-[2-[3-[(2,4-dihydroxy-3,3-dimethylbutanoyl)amino]propanoylamino]ethyldisulfanyl]ethylamino]-3-oxopropyl]-2,4-dihydroxy-3,3-dimethylbutanamide

> <PUBCHEM_IUPAC_SYSTEMATIC_NAME>
N-[3-[2-[2-[3-[[3,3-dimethyl-2,4-bis(oxidanyl)butanoyl]amino]propanoylamino]ethyldisulfanyl]ethylamino]-3-oxidanylidene-propyl]-3,3-dimethyl-2,4-bis(oxidanyl)butanamide

> <PUBCHEM_IUPAC_TRADITIONAL_NAME>
N-[3-[2-[2-[3-[(2,4-dihydroxy-3,3-dimethyl-butanoyl)amino]propanoylamino]ethyldisulfanyl]ethylamino]-3-keto-propyl]-2,4-dihydroxy-3,3-dimethyl-butyramide

> <PUBCHEM_IUPAC_INCHI>
InChI=1S/C22H42N4O8S2/c1-21(2,13-27)17(31)19(33)25-7-5-15(29)23-9-11-35-36-12-10-24-16(30)6-8-26-20(34)18(32)22(3,4)14-28/h17-18,27-28,31-32H,5-14H2,1-4H3,(H,23,29)(H,24,30)(H,25,33)(H,26,34)

> <PUBCHEM_IUPAC_INCHIKEY>
DJWYOLJPSHDSAL-UHFFFAOYSA-N

> <PUBCHEM_XLOGP3_AA>
-2.2

> <PUBCHEM_EXACT_MASS>
554.244406

> <PUBCHEM_MOLECULAR_FORMULA>
C22H42N4O8S2

> <PUBCHEM_MOLECULAR_WEIGHT>
554.72088

> <PUBCHEM_OPENEYE_CAN_SMILES>
CC(C)(CO)C(C(=O)NCCC(=O)NCCSSCCNC(=O)CCNC(=O)C(C(C)(C)CO)O)O

> <PUBCHEM_OPENEYE_ISO_SMILES>
CC(C)(CO)C(C(=O)NCCC(=O)NCCSSCCNC(=O)CCNC(=O)C(C(C)(C)CO)O)O

> <PUBCHEM_CACTVS_TPSA>
248

> <PUBCHEM_MONOISOTOPIC_WEIGHT>
554.244406

> <PUBCHEM_TOTAL_CHARGE>
0

> <PUBCHEM_HEAVY_ATOM_COUNT>
36

> <PUBCHEM_ATOM_DEF_STEREO_COUNT>
0

> <PUBCHEM_ATOM_UDEF_STEREO_COUNT>
2

> <PUBCHEM_BOND_DEF_STEREO_COUNT>
0

> <PUBCHEM_BOND_UDEF_STEREO_COUNT>
0

> <PUBCHEM_ISOTOPIC_ATOM_COUNT>
0

> <PUBCHEM_COMPONENT_COUNT>
1

> <PUBCHEM_CACTVS_TAUTO_COUNT>
10

> <PUBCHEM_COORDINATE_TYPE>
1
5
255

> <PUBCHEM_BONDANNOTATIONS>
18  3  3
17  4  3

$$$$

