73604
  -OEChem-07051212553D

 36 37  0     1  0  0  0  0  0999 V2000
    0.4982    0.6709   -0.0832 O   0  0  0  0  0  0  0  0  0  0  0  0
   -1.1330   -0.8995   -0.6459 O   0  0  0  0  0  0  0  0  0  0  0  0
    3.5021   -2.0909   -0.5476 O   0  0  0  0  0  0  0  0  0  0  0  0
    0.7218   -2.9755   -0.1379 O   0  0  0  0  0  0  0  0  0  0  0  0
    4.0105    0.3554    0.9058 O   0  0  0  0  0  0  0  0  0  0  0  0
    2.1647    2.7377   -0.8839 O   0  0  0  0  0  0  0  0  0  0  0  0
   -1.4691    2.4754   -0.5262 N   0  0  0  0  0  0  0  0  0  0  0  0
    2.4992   -1.3734    0.1733 C   0  0  2  0  0  0  0  0  0  0  0  0
    1.1308   -1.6446   -0.4519 C   0  0  2  0  0  0  0  0  0  0  0  0
    2.8488    0.1138    0.1163 C   0  0  1  0  0  0  0  0  0  0  0  0
    0.0734   -0.6796    0.0844 C   0  0  1  0  0  0  0  0  0  0  0  0
    1.6916    0.9644    0.6453 C   0  0  1  0  0  0  0  0  0  0  0  0
   -2.1687   -0.0359   -0.2034 C   0  0  2  0  0  0  0  0  0  0  0  0
   -2.5632   -0.3643    1.2443 C   0  0  0  0  0  0  0  0  0  0  0  0
    1.9702    2.4561    0.4900 C   0  0  0  0  0  0  0  0  0  0  0  0
   -4.0919   -0.2862    1.2943 C   0  0  0  0  0  0  0  0  0  0  0  0
   -3.4294   -0.3258   -0.9542 C   0  0  0  0  0  0  0  0  0  0  0  0
   -4.4779   -0.4641   -0.1358 C   0  0  0  0  0  0  0  0  0  0  0  0
   -1.7781    1.3662   -0.3837 C   0  0  0  0  0  0  0  0  0  0  0  0
    2.5350   -1.7431    1.2055 H   0  0  0  0  0  0  0  0  0  0  0  0
    1.1932   -1.5813   -1.5448 H   0  0  0  0  0  0  0  0  0  0  0  0
    3.0934    0.3611   -0.9240 H   0  0  0  0  0  0  0  0  0  0  0  0
   -0.0944   -0.8864    1.1488 H   0  0  0  0  0  0  0  0  0  0  0  0
    1.5237    0.7667    1.7122 H   0  0  0  0  0  0  0  0  0  0  0  0
   -2.1134    0.3079    1.9848 H   0  0  0  0  0  0  0  0  0  0  0  0
   -2.2618   -1.3860    1.5149 H   0  0  0  0  0  0  0  0  0  0  0  0
    2.8415    2.7894    1.0616 H   0  0  0  0  0  0  0  0  0  0  0  0
    1.1051    3.0388    0.8213 H   0  0  0  0  0  0  0  0  0  0  0  0
   -4.4354    0.6855    1.6634 H   0  0  0  0  0  0  0  0  0  0  0  0
   -4.5061   -1.0749    1.9290 H   0  0  0  0  0  0  0  0  0  0  0  0
   -3.4925   -0.3973   -2.0315 H   0  0  0  0  0  0  0  0  0  0  0  0
    4.3592   -1.8863   -0.1360 H   0  0  0  0  0  0  0  0  0  0  0  0
    0.6620   -3.0528    0.8296 H   0  0  0  0  0  0  0  0  0  0  0  0
    4.3501    1.2359    0.6734 H   0  0  0  0  0  0  0  0  0  0  0  0
   -5.4884   -0.6527   -0.4676 H   0  0  0  0  0  0  0  0  0  0  0  0
    3.0877    2.5262   -1.1032 H   0  0  0  0  0  0  0  0  0  0  0  0
  1 11  1  0  0  0  0
  1 12  1  0  0  0  0
  2 11  1  0  0  0  0
  2 13  1  0  0  0  0
  3  8  1  0  0  0  0
  3 32  1  0  0  0  0
  4  9  1  0  0  0  0
  4 33  1  0  0  0  0
  5 10  1  0  0  0  0
  5 34  1  0  0  0  0
  6 15  1  0  0  0  0
  6 36  1  0  0  0  0
  7 19  3  0  0  0  0
  8  9  1  0  0  0  0
  8 10  1  0  0  0  0
  8 20  1  0  0  0  0
  9 11  1  0  0  0  0
  9 21  1  0  0  0  0
 10 12  1  0  0  0  0
 10 22  1  0  0  0  0
 11 23  1  0  0  0  0
 12 15  1  0  0  0  0
 12 24  1  0  0  0  0
 13 14  1  0  0  0  0
 13 17  1  0  0  0  0
 13 19  1  0  0  0  0
 14 16  1  0  0  0  0
 14 25  1  0  0  0  0
 14 26  1  0  0  0  0
 15 27  1  0  0  0  0
 15 28  1  0  0  0  0
 16 18  1  0  0  0  0
 16 29  1  0  0  0  0
 16 30  1  0  0  0  0
 17 18  2  0  0  0  0
 17 31  1  0  0  0  0
 18 35  1  0  0  0  0
M  END
> <PUBCHEM_COMPOUND_CID>
73604

> <PUBCHEM_CONFORMER_RMSD>
0.6

> <PUBCHEM_CONFORMER_DIVERSEORDER>
1
9
4
6
5
8
7
3
10
2

> <PUBCHEM_MMFF94_PARTIAL_CHARGES>
24
1 -0.56
10 0.28
11 0.56
12 0.28
13 0.62
15 0.28
16 0.14
17 -0.29
18 -0.29
19 0.36
2 -0.56
3 -0.68
31 0.15
32 0.4
33 0.4
34 0.4
35 0.15
36 0.4
4 -0.68
5 -0.68
6 -0.68
7 -0.56
8 0.28
9 0.28

> <PUBCHEM_EFFECTIVE_ROTOR_COUNT>
4.8

> <PUBCHEM_PHARMACOPHORE_FEATURES>
13
1 1 acceptor
1 2 acceptor
1 3 acceptor
1 3 donor
1 4 acceptor
1 4 donor
1 5 acceptor
1 5 donor
1 6 acceptor
1 6 donor
1 7 acceptor
5 13 14 16 17 18 rings
6 1 8 9 10 11 12 rings

> <PUBCHEM_HEAVY_ATOM_COUNT>
19

> <PUBCHEM_ATOM_DEF_STEREO_COUNT>
6

> <PUBCHEM_ATOM_UDEF_STEREO_COUNT>
0

> <PUBCHEM_BOND_DEF_STEREO_COUNT>
0

> <PUBCHEM_BOND_UDEF_STEREO_COUNT>
0

> <PUBCHEM_ISOTOPIC_ATOM_COUNT>
0

> <PUBCHEM_COMPONENT_COUNT>
1

> <PUBCHEM_CACTVS_TAUTO_COUNT>
1

> <PUBCHEM_CONFORMER_ID>
00011F8400000001

> <PUBCHEM_MMFF94_ENERGY>
55.6427

> <PUBCHEM_FEATURE_SELFOVERLAP>
66.033

> <PUBCHEM_SHAPE_FINGERPRINT>
10366900 7 18130216142599468451
10967382 1 18409735019362168268
11132069 177 18334864878833295115
11471102 20 18408889550649631223
11471102 22 18341608209336978555
11578080 2 12893967795374487159
12236239 1 17530966874055178999
12596599 1 17676194784746157759
12670545 47 18130498656931793507
13140716 1 18122631556903641666
13583140 156 16987183576731613907
14178342 30 18192157207517669808
14250199 8 18410013230206003525
14251717 144 18335707117704233575
15219456 202 18339365261714679661
15309172 13 18337110068718581587
15775835 57 18040719121391639577
16945 1 18411138038959102814
17357779 13 18270695250011728133
17844478 74 18341890826980724521
1813 80 17897707976551178734
18186145 218 18187079550892740390
19049666 15 18055354888436603499
200 152 18040729082085391919
20559304 39 18411418401861258004
20645477 70 18341903961196405199
20671657 1 18188487965321760084
21041028 32 18116144644157850864
21501502 16 18338795744650988569
21524375 3 18188495644681223774
22182313 1 18265347268783563428
2255824 54 18408037403447558830
22854114 111 18408041792698088617
2334 1 17906175053228921846
23557571 272 17131844166104716981
23559900 14 17346600776640745787
2748010 2 18193006030599287862
44154327 71 18197775501186801813
474 4 18335140847598635363
5104073 3 18337394958078190395
6049 1 18201999949725712725
7364860 26 18335421240544352052
77492 1 17530964661957020059
7832392 63 18048318031045965793
81228 2 17110444641369940626
8272917 22 18335133207168242255
9709674 26 18341896294553402011

> <PUBCHEM_SHAPE_MULTIPOLES>
350.81
7.14
2.63
1
3.12
0.53
-0.17
-0.84
-1
-2.41
0.53
0.53
0.08
0.36

> <PUBCHEM_SHAPE_SELFOVERLAP>
734.606

> <PUBCHEM_SHAPE_VOLUME>
195.5

> <PUBCHEM_COORDINATE_TYPE>
2
5
10

$$$$

