75
  -OEChem-07051212503D

 12 11  0     0  0  0  0  0  0999 V2000
    1.8868   -0.6799   -0.0100 O   0  0  0  0  0  0  0  0  0  0  0  0
   -2.3394   -0.1050   -0.0126 N   0  0  0  0  0  0  0  0  0  0  0  0
   -0.9251   -0.4588    0.0194 C   0  0  0  0  0  0  0  0  0  0  0  0
   -0.0479    0.7875   -0.0019 C   0  0  0  0  0  0  0  0  0  0  0  0
    1.4255    0.4563    0.0050 C   0  0  0  0  0  0  0  0  0  0  0  0
   -0.7228   -1.0452    0.9227 H   0  0  0  0  0  0  0  0  0  0  0  0
   -0.6938   -1.0992   -0.8395 H   0  0  0  0  0  0  0  0  0  0  0  0
   -0.2437    1.3846   -0.8996 H   0  0  0  0  0  0  0  0  0  0  0  0
   -0.2485    1.4138    0.8747 H   0  0  0  0  0  0  0  0  0  0  0  0
   -2.8997   -0.9554   -0.0536 H   0  0  0  0  0  0  0  0  0  0  0  0
   -2.5439    0.4136   -0.8658 H   0  0  0  0  0  0  0  0  0  0  0  0
    2.0980    1.3313    0.0175 H   0  0  0  0  0  0  0  0  0  0  0  0
  1  5  2  0  0  0  0
  2  3  1  0  0  0  0
  2 10  1  0  0  0  0
  2 11  1  0  0  0  0
  3  4  1  0  0  0  0
  3  6  1  0  0  0  0
  3  7  1  0  0  0  0
  4  5  1  0  0  0  0
  4  8  1  0  0  0  0
  4  9  1  0  0  0  0
  5 12  1  0  0  0  0
M  END
> <PUBCHEM_COMPOUND_CID>
75

> <PUBCHEM_CONFORMER_RMSD>
0.4

> <PUBCHEM_CONFORMER_DIVERSEORDER>
1
7
8
2
4
3
9
5
6

> <PUBCHEM_MMFF94_PARTIAL_CHARGES>
8
1 -0.57
10 0.36
11 0.36
12 0.06
2 -0.99
3 0.27
4 0.06
5 0.45

> <PUBCHEM_EFFECTIVE_ROTOR_COUNT>
2

> <PUBCHEM_PHARMACOPHORE_FEATURES>
3
1 1 acceptor
1 2 cation
1 2 donor

> <PUBCHEM_HEAVY_ATOM_COUNT>
5

> <PUBCHEM_ATOM_DEF_STEREO_COUNT>
0

> <PUBCHEM_ATOM_UDEF_STEREO_COUNT>
0

> <PUBCHEM_BOND_DEF_STEREO_COUNT>
0

> <PUBCHEM_BOND_UDEF_STEREO_COUNT>
0

> <PUBCHEM_ISOTOPIC_ATOM_COUNT>
0

> <PUBCHEM_COMPONENT_COUNT>
1

> <PUBCHEM_CACTVS_TAUTO_COUNT>
2

> <PUBCHEM_CONFORMER_ID>
0000004B00000001

> <PUBCHEM_MMFF94_ENERGY>
-2.9065

> <PUBCHEM_FEATURE_SELFOVERLAP>
15.223

> <PUBCHEM_SHAPE_FINGERPRINT>
139733 1 9295288339432785952
20096714 4 18337389314443806665
29004967 10 18271803493107400512
5460574 1 9223238446339726561

> <PUBCHEM_SHAPE_MULTIPOLES>
92.05
2.72
0.88
0.58
0.7
0.05
0
-0.42
0.01
-0.18
0
0
0.02
0

> <PUBCHEM_SHAPE_SELFOVERLAP>
157.325

> <PUBCHEM_SHAPE_VOLUME>
61.4

> <PUBCHEM_COORDINATE_TYPE>
2
5
10

$$$$

