441680
  -OEChem-07051212552D

 88 92  0     1  0  0  0  0  0999 V2000
   11.7097    1.6711    0.0000 O   0  0  0  0  0  0  0  0  0  0  0  0
   12.0538    3.3686    0.0000 O   0  0  0  0  0  0  0  0  0  0  0  0
    6.5251   -0.4025    0.0000 C   0  0  1  0  0  0  0  0  0  0  0  0
    5.6591   -0.9025    0.0000 C   0  0  1  0  0  0  0  0  0  0  0  0
    6.5251    0.5975    0.0000 C   0  0  1  0  0  0  0  0  0  0  0  0
    4.7931   -0.4025    0.0000 C   0  0  1  0  0  0  0  0  0  0  0  0
    7.4191    1.1321    0.0000 C   0  0  2  0  0  0  0  0  0  0  0  0
    3.8831   -0.9094    0.0000 C   0  0  2  0  0  0  0  0  0  0  0  0
    8.3252    0.6183    0.0000 C   0  0  1  0  0  0  0  0  0  0  0  0
    3.8751   -1.9510    0.0000 C   0  0  1  0  0  0  0  0  0  0  0  0
    7.4191   -0.9372    0.0000 C   0  0  0  0  0  0  0  0  0  0  0  0
    5.6591    1.0975    0.0000 C   0  0  0  0  0  0  0  0  0  0  0  0
    4.7931    0.5975    0.0000 C   0  0  0  0  0  0  0  0  0  0  0  0
    5.6752   -1.9440    0.0000 C   0  0  0  0  0  0  0  0  0  0  0  0
    8.3252   -0.4233    0.0000 C   0  0  0  0  0  0  0  0  0  0  0  0
    9.0875    1.3190    0.0000 C   0  0  2  0  0  0  0  0  0  0  0  0
    7.6292    2.1460    0.0000 C   0  0  0  0  0  0  0  0  0  0  0  0
    4.7771   -2.4718    0.0000 C   0  0  0  0  0  0  0  0  0  0  0  0
    2.9396   -2.5007    0.0000 C   0  0  0  0  0  0  0  0  0  0  0  0
    6.8672   -1.3422    0.0000 C   0  0  0  0  0  0  0  0  0  0  0  0
    6.3019   -1.6686    0.0000 C   0  0  0  0  0  0  0  0  0  0  0  0
    2.9562   -0.3453    0.0000 C   0  0  0  0  0  0  0  0  0  0  0  0
    8.6582    2.2613    0.0000 C   0  0  0  0  0  0  0  0  0  0  0  0
    6.5492    1.6254    0.0000 C   0  0  0  0  0  0  0  0  0  0  0  0
    3.8908    0.0906    0.0000 C   0  0  0  0  0  0  0  0  0  0  0  0
    2.0000   -1.9582    0.0000 C   0  0  0  0  0  0  0  0  0  0  0  0
    2.0084   -0.8732    0.0000 C   0  0  0  0  0  0  0  0  0  0  0  0
   10.0675    1.1204    0.0000 C   0  0  3  0  0  0  0  0  0  0  0  0
    2.4430   -3.3686    0.0000 C   0  0  0  0  0  0  0  0  0  0  0  0
    3.4430   -3.3648    0.0000 C   0  0  0  0  0  0  0  0  0  0  0  0
   10.7296    1.8698    0.0000 C   0  0  0  0  0  0  0  0  0  0  0  0
   10.3855    0.1723    0.0000 C   0  0  0  0  0  0  0  0  0  0  0  0
   12.3718    2.4206    0.0000 C   0  0  0  0  0  0  0  0  0  0  0  0
   13.3518    2.2219    0.0000 C   0  0  0  0  0  0  0  0  0  0  0  0
    6.5186    1.4474    0.0000 H   0  0  0  0  0  0  0  0  0  0  0  0
    5.5292    0.0225    0.0000 H   0  0  0  0  0  0  0  0  0  0  0  0
    9.1034    0.2766    0.0000 H   0  0  0  0  0  0  0  0  0  0  0  0
    3.8783   -2.8010    0.0000 H   0  0  0  0  0  0  0  0  0  0  0  0
    7.0145   -1.4070    0.0000 H   0  0  0  0  0  0  0  0  0  0  0  0
    7.8127   -1.4162    0.0000 H   0  0  0  0  0  0  0  0  0  0  0  0
    6.0576    1.5724    0.0000 H   0  0  0  0  0  0  0  0  0  0  0  0
    5.2606    1.5724    0.0000 H   0  0  0  0  0  0  0  0  0  0  0  0
    4.5810    1.1801    0.0000 H   0  0  0  0  0  0  0  0  0  0  0  0
    4.1825    0.4898    0.0000 H   0  0  0  0  0  0  0  0  0  0  0  0
    5.8932   -2.5244    0.0000 H   0  0  0  0  0  0  0  0  0  0  0  0
    6.2843   -1.8285    0.0000 H   0  0  0  0  0  0  0  0  0  0  0  0
    8.5342   -1.0070    0.0000 H   0  0  0  0  0  0  0  0  0  0  0  0
    8.9360   -0.3173    0.0000 H   0  0  0  0  0  0  0  0  0  0  0  0
    9.4733    1.8044    0.0000 H   0  0  0  0  0  0  0  0  0  0  0  0
    7.6253    2.7660    0.0000 H   0  0  0  0  0  0  0  0  0  0  0  0
    7.0122    2.2074    0.0000 H   0  0  0  0  0  0  0  0  0  0  0  0
    4.3798   -2.9478    0.0000 H   0  0  0  0  0  0  0  0  0  0  0  0
    5.1781   -2.9447    0.0000 H   0  0  0  0  0  0  0  0  0  0  0  0
    6.2847   -1.5543    0.0000 H   0  0  0  0  0  0  0  0  0  0  0  0
    7.0794   -1.9248    0.0000 H   0  0  0  0  0  0  0  0  0  0  0  0
    7.4498   -1.1301    0.0000 H   0  0  0  0  0  0  0  0  0  0  0  0
    5.8270   -2.0671    0.0000 H   0  0  0  0  0  0  0  0  0  0  0  0
    6.7004   -2.1435    0.0000 H   0  0  0  0  0  0  0  0  0  0  0  0
    6.7768   -1.2700    0.0000 H   0  0  0  0  0  0  0  0  0  0  0  0
    3.3645    0.1214    0.0000 H   0  0  0  0  0  0  0  0  0  0  0  0
    2.5663    0.1367    0.0000 H   0  0  0  0  0  0  0  0  0  0  0  0
    9.2463    2.4576    0.0000 H   0  0  0  0  0  0  0  0  0  0  0  0
    8.5248    2.8668    0.0000 H   0  0  0  0  0  0  0  0  0  0  0  0
    6.8551    2.1648    0.0000 H   0  0  0  0  0  0  0  0  0  0  0  0
    6.0099    1.9313    0.0000 H   0  0  0  0  0  0  0  0  0  0  0  0
    6.2434    1.0861    0.0000 H   0  0  0  0  0  0  0  0  0  0  0  0
    4.5108    0.0858    0.0000 H   0  0  0  0  0  0  0  0  0  0  0  0
    3.8956    0.7106    0.0000 H   0  0  0  0  0  0  0  0  0  0  0  0
    3.2708    0.0954    0.0000 H   0  0  0  0  0  0  0  0  0  0  0  0
    1.3900   -1.8474    0.0000 H   0  0  0  0  0  0  0  0  0  0  0  0
    1.7864   -2.5403    0.0000 H   0  0  0  0  0  0  0  0  0  0  0  0
    1.8038   -0.2880    0.0000 H   0  0  0  0  0  0  0  0  0  0  0  0
    1.3967   -0.9746    0.0000 H   0  0  0  0  0  0  0  0  0  0  0  0
   10.9006    0.9515    0.0000 H   0  0  0  0  0  0  0  0  0  0  0  0
    1.9048   -3.0607    0.0000 H   0  0  0  0  0  0  0  0  0  0  0  0
    2.1350   -3.9068    0.0000 H   0  0  0  0  0  0  0  0  0  0  0  0
    2.9811   -3.6766    0.0000 H   0  0  0  0  0  0  0  0  0  0  0  0
    2.9072   -3.6769    0.0000 H   0  0  0  0  0  0  0  0  0  0  0  0
    3.7550   -3.9005    0.0000 H   0  0  0  0  0  0  0  0  0  0  0  0
    3.9787   -3.0527    0.0000 H   0  0  0  0  0  0  0  0  0  0  0  0
   10.9564    2.4468    0.0000 H   0  0  0  0  0  0  0  0  0  0  0  0
   10.2008    2.1934    0.0000 H   0  0  0  0  0  0  0  0  0  0  0  0
    9.7977   -0.0249    0.0000 H   0  0  0  0  0  0  0  0  0  0  0  0
   10.5827   -0.4156    0.0000 H   0  0  0  0  0  0  0  0  0  0  0  0
   10.9733    0.3694    0.0000 H   0  0  0  0  0  0  0  0  0  0  0  0
   13.2287    1.6142    0.0000 H   0  0  0  0  0  0  0  0  0  0  0  0
   13.9595    2.0987    0.0000 H   0  0  0  0  0  0  0  0  0  0  0  0
   13.4750    2.8295    0.0000 H   0  0  0  0  0  0  0  0  0  0  0  0
  1 31  1  0  0  0  0
  1 33  1  0  0  0  0
  2 33  2  0  0  0  0
  3  4  1  0  0  0  0
  3  5  1  0  0  0  0
  3 11  1  0  0  0  0
  3 20  1  6  0  0  0
  4  6  1  0  0  0  0
  4 14  1  0  0  0  0
  4 21  1  1  0  0  0
  5  7  1  0  0  0  0
  5 12  1  0  0  0  0
  5 35  1  1  0  0  0
  6  8  1  0  0  0  0
  6 13  1  0  0  0  0
  6 36  1  6  0  0  0
  7  9  1  0  0  0  0
  7 17  1  0  0  0  0
  7 24  1  6  0  0  0
  8 10  1  0  0  0  0
  8 22  1  0  0  0  0
  8 25  1  1  0  0  0
  9 15  1  0  0  0  0
  9 16  1  0  0  0  0
  9 37  1  1  0  0  0
 10 18  1  0  0  0  0
 10 19  1  0  0  0  0
 10 38  1  6  0  0  0
 11 15  1  0  0  0  0
 11 39  1  0  0  0  0
 11 40  1  0  0  0  0
 12 13  1  0  0  0  0
 12 41  1  0  0  0  0
 12 42  1  0  0  0  0
 13 43  1  0  0  0  0
 13 44  1  0  0  0  0
 14 18  1  0  0  0  0
 14 45  1  0  0  0  0
 14 46  1  0  0  0  0
 15 47  1  0  0  0  0
 15 48  1  0  0  0  0
 16 23  1  0  0  0  0
 16 28  1  6  0  0  0
 16 49  1  0  0  0  0
 17 23  1  0  0  0  0
 17 50  1  0  0  0  0
 17 51  1  0  0  0  0
 18 52  1  0  0  0  0
 18 53  1  0  0  0  0
 19 26  1  0  0  0  0
 19 29  1  0  0  0  0
 19 30  1  0  0  0  0
 20 54  1  0  0  0  0
 20 55  1  0  0  0  0
 20 56  1  0  0  0  0
 21 57  1  0  0  0  0
 21 58  1  0  0  0  0
 21 59  1  0  0  0  0
 22 27  1  0  0  0  0
 22 60  1  0  0  0  0
 22 61  1  0  0  0  0
 23 62  1  0  0  0  0
 23 63  1  0  0  0  0
 24 64  1  0  0  0  0
 24 65  1  0  0  0  0
 24 66  1  0  0  0  0
 25 67  1  0  0  0  0
 25 68  1  0  0  0  0
 25 69  1  0  0  0  0
 26 27  1  0  0  0  0
 26 70  1  0  0  0  0
 26 71  1  0  0  0  0
 27 72  1  0  0  0  0
 27 73  1  0  0  0  0
 28 31  1  0  0  0  0
 28 32  1  0  0  0  0
 28 74  1  0  0  0  0
 29 75  1  0  0  0  0
 29 76  1  0  0  0  0
 29 77  1  0  0  0  0
 30 78  1  0  0  0  0
 30 79  1  0  0  0  0
 30 80  1  0  0  0  0
 31 81  1  0  0  0  0
 31 82  1  0  0  0  0
 32 83  1  0  0  0  0
 32 84  1  0  0  0  0
 32 85  1  0  0  0  0
 33 34  1  0  0  0  0
 34 86  1  0  0  0  0
 34 87  1  0  0  0  0
 34 88  1  0  0  0  0
M  END
> <PUBCHEM_COMPOUND_CID>
441680

> <PUBCHEM_COMPOUND_CANONICALIZED>
1

> <PUBCHEM_CACTVS_COMPLEXITY>
816

> <PUBCHEM_CACTVS_HBOND_ACCEPTOR>
2

> <PUBCHEM_CACTVS_HBOND_DONOR>
0

> <PUBCHEM_CACTVS_ROTATABLE_BOND>
4

> <PUBCHEM_CACTVS_SUBSKEYS>
AAADcfB8MAAAAAAAAAAAAAAAAAAAAYAAAAAwYMGAAAAAAGDAAAAAGgAAAAAADwCggAICCAAABAAIAACQCAAAAAAAAAAAAAAAAAAAAAIAAAACAAAEAAAAAAGAwPAPgAAAAAAAAACAAAQAACAAAQAACAAAAA==

> <PUBCHEM_IUPAC_OPENEYE_NAME>
2-[(3S,3aS,5aR,5bR,7aS,11aS,11bR,13aR,13bS)-5a,5b,8,8,11a,13b-hexamethyl-1,2,3,3a,4,5,6,7,7a,9,10,11,11b,12,13,13a-hexadecahydrocyclopenta[a]chrysen-3-yl]propyl acetate

> <PUBCHEM_IUPAC_CAS_NAME>
acetic acid 2-[(3S,3aS,5aR,5bR,7aS,11aS,11bR,13aR,13bS)-5a,5b,8,8,11a,13b-hexamethyl-1,2,3,3a,4,5,6,7,7a,9,10,11,11b,12,13,13a-hexadecahydrocyclopenta[a]chrysen-3-yl]propyl ester

> <PUBCHEM_IUPAC_NAME>
2-[(3S,3aS,5aR,5bR,7aS,11aS,11bR,13aR,13bS)-5a,5b,8,8,11a,13b-hexamethyl-1,2,3,3a,4,5,6,7,7a,9,10,11,11b,12,13,13a-hexadecahydrocyclopenta[a]chrysen-3-yl]propyl acetate

> <PUBCHEM_IUPAC_SYSTEMATIC_NAME>
2-[(3S,3aS,5aR,5bR,7aS,11aS,11bR,13aR,13bS)-5a,5b,8,8,11a,13b-hexamethyl-1,2,3,3a,4,5,6,7,7a,9,10,11,11b,12,13,13a-hexadecahydrocyclopenta[a]chrysen-3-yl]propyl ethanoate

> <PUBCHEM_IUPAC_TRADITIONAL_NAME>
acetic acid 2-[(3S,3aS,5aR,5bR,7aS,11aS,11bR,13aR,13bS)-5a,5b,8,8,11a,13b-hexamethyl-1,2,3,3a,4,5,6,7,7a,9,10,11,11b,12,13,13a-hexadecahydrocyclopenta[a]chrysen-3-yl]propyl ester

> <PUBCHEM_IUPAC_INCHI>
InChI=1S/C32H54O2/c1-21(20-34-22(2)33)23-12-17-29(5)24(23)13-18-31(7)26(29)10-11-27-30(6)16-9-15-28(3,4)25(30)14-19-32(27,31)8/h21,23-27H,9-20H2,1-8H3/t21?,23-,24+,25+,26-,27-,29+,30+,31-,32-/m1/s1

> <PUBCHEM_IUPAC_INCHIKEY>
QSIMBUYUBYRBSU-ALPBESCQSA-N

> <PUBCHEM_XLOGP3_AA>
10.8

> <PUBCHEM_EXACT_MASS>
470.412381

> <PUBCHEM_MOLECULAR_FORMULA>
C32H54O2

> <PUBCHEM_MOLECULAR_WEIGHT>
470.76996

> <PUBCHEM_OPENEYE_CAN_SMILES>
CC(COC(=O)C)C1CCC2(C1CCC3(C2CCC4C3(CCC5C4(CCCC5(C)C)C)C)C)C

> <PUBCHEM_OPENEYE_ISO_SMILES>
CC(COC(=O)C)[C@H]1CC[C@]2([C@H]1CC[C@@]3([C@@H]2CC[C@H]4[C@]3(CC[C@@H]5[C@@]4(CCCC5(C)C)C)C)C)C

> <PUBCHEM_CACTVS_TPSA>
26.3

> <PUBCHEM_MONOISOTOPIC_WEIGHT>
470.412381

> <PUBCHEM_TOTAL_CHARGE>
0

> <PUBCHEM_HEAVY_ATOM_COUNT>
34

> <PUBCHEM_ATOM_DEF_STEREO_COUNT>
9

> <PUBCHEM_ATOM_UDEF_STEREO_COUNT>
1

> <PUBCHEM_BOND_DEF_STEREO_COUNT>
0

> <PUBCHEM_BOND_UDEF_STEREO_COUNT>
0

> <PUBCHEM_ISOTOPIC_ATOM_COUNT>
0

> <PUBCHEM_COMPONENT_COUNT>
1

> <PUBCHEM_CACTVS_TAUTO_COUNT>
1

> <PUBCHEM_COORDINATE_TYPE>
1
5
255

> <PUBCHEM_BONDANNOTATIONS>
10  38  6
16  28  6
28  74  3
3  20  6
4  21  5
5  35  5
6  36  6
7  24  6
8  25  5
9  37  5

$$$$

