86353
  -OEChem-07051213123D

 45 47  0     0  0  0  0  0  0999 V2000
   -1.4597   -4.3389    0.1070 Cl  0  0  0  0  0  0  0  0  0  0  0  0
   -4.7196   -0.6571    1.3942 F   0  0  0  0  0  0  0  0  0  0  0  0
   -3.8731    1.2622    0.8003 F   0  0  0  0  0  0  0  0  0  0  0  0
   -6.6386   -0.4220   -0.5827 F   0  0  0  0  0  0  0  0  0  0  0  0
   -5.7922    1.5012   -1.1724 F   0  0  0  0  0  0  0  0  0  0  0  0
   -6.5963    1.2331    0.8377 F   0  0  0  0  0  0  0  0  0  0  0  0
   -2.4776   -0.9099   -0.1799 O   0  0  0  0  0  0  0  0  0  0  0  0
    7.0507   -0.6410   -0.1035 O   0  0  0  0  0  0  0  0  0  0  0  0
    2.9629   -0.4375    0.0091 N   0  0  0  0  0  0  0  0  0  0  0  0
    4.2370   -0.8568   -0.0215 N   0  0  0  0  0  0  0  0  0  0  0  0
    4.1029    1.4268   -0.0075 N   0  0  0  0  0  0  0  0  0  0  0  0
    6.9138    1.6340   -0.0690 N   0  0  0  0  0  0  0  0  0  0  0  0
    1.9125   -1.3521    0.0292 C   0  0  0  0  0  0  0  0  0  0  0  0
   -0.3573   -1.9293   -0.5283 C   0  0  0  0  0  0  0  0  0  0  0  0
    0.6938   -1.0125   -0.5467 C   0  0  0  0  0  0  0  0  0  0  0  0
   -1.6548   -1.5339   -1.1563 C   0  0  0  0  0  0  0  0  0  0  0  0
    2.8901    0.9218    0.0176 C   0  0  0  0  0  0  0  0  0  0  0  0
    2.0952   -2.5951    0.6230 C   0  0  0  0  0  0  0  0  0  0  0  0
   -0.1820   -3.1793    0.0657 C   0  0  0  0  0  0  0  0  0  0  0  0
   -3.7277   -0.5133   -0.7274 C   0  0  0  0  0  0  0  0  0  0  0  0
    1.6603    1.6751    0.0492 C   0  0  0  0  0  0  0  0  0  0  0  0
    1.0443   -3.5122    0.6413 C   0  0  0  0  0  0  0  0  0  0  0  0
   -4.5515    0.1808    0.3399 C   0  0  0  0  0  0  0  0  0  0  0  0
    4.8869    0.3090   -0.0302 C   0  0  0  0  0  0  0  0  0  0  0  0
    1.0387    2.0449   -1.1437 C   0  0  0  0  0  0  0  0  0  0  0  0
    1.0927    2.0344    1.2718 C   0  0  0  0  0  0  0  0  0  0  0  0
   -5.9051    0.6259   -0.1509 C   0  0  0  0  0  0  0  0  0  0  0  0
   -0.1500    2.7742   -1.1140 C   0  0  0  0  0  0  0  0  0  0  0  0
   -0.0961    2.7635    1.3014 C   0  0  0  0  0  0  0  0  0  0  0  0
   -0.7173    3.1334    0.1084 C   0  0  0  0  0  0  0  0  0  0  0  0
    6.3170    0.3706   -0.0617 C   0  0  0  0  0  0  0  0  0  0  0  0
    0.5316   -0.1446   -1.1519 H   0  0  0  0  0  0  0  0  0  0  0  0
   -1.4712   -0.8292   -1.9782 H   0  0  0  0  0  0  0  0  0  0  0  0
   -2.1706   -2.3893   -1.6067 H   0  0  0  0  0  0  0  0  0  0  0  0
    3.0356   -2.8790    1.0882 H   0  0  0  0  0  0  0  0  0  0  0  0
   -3.5513    0.1711   -1.5650 H   0  0  0  0  0  0  0  0  0  0  0  0
   -4.2554   -1.4033   -1.0887 H   0  0  0  0  0  0  0  0  0  0  0  0
    1.1960   -4.4812    1.1100 H   0  0  0  0  0  0  0  0  0  0  0  0
    1.4756    1.7881   -2.1064 H   0  0  0  0  0  0  0  0  0  0  0  0
    1.5646    1.7532    2.2102 H   0  0  0  0  0  0  0  0  0  0  0  0
   -0.6326    3.0643   -2.0427 H   0  0  0  0  0  0  0  0  0  0  0  0
   -0.5388    3.0425    2.2531 H   0  0  0  0  0  0  0  0  0  0  0  0
   -1.6435    3.7000    0.1316 H   0  0  0  0  0  0  0  0  0  0  0  0
    6.3664    2.4885   -0.0456 H   0  0  0  0  0  0  0  0  0  0  0  0
    7.9231    1.7337   -0.0986 H   0  0  0  0  0  0  0  0  0  0  0  0
  1 19  1  0  0  0  0
  2 23  1  0  0  0  0
  3 23  1  0  0  0  0
  4 27  1  0  0  0  0
  5 27  1  0  0  0  0
  6 27  1  0  0  0  0
  7 16  1  0  0  0  0
  7 20  1  0  0  0  0
  8 31  2  0  0  0  0
  9 10  1  0  0  0  0
  9 13  1  0  0  0  0
  9 17  1  0  0  0  0
 10 24  2  0  0  0  0
 11 17  2  0  0  0  0
 11 24  1  0  0  0  0
 12 31  1  0  0  0  0
 12 44  1  0  0  0  0
 12 45  1  0  0  0  0
 13 15  2  0  0  0  0
 13 18  1  0  0  0  0
 14 15  1  0  0  0  0
 14 16  1  0  0  0  0
 14 19  2  0  0  0  0
 15 32  1  0  0  0  0
 16 33  1  0  0  0  0
 16 34  1  0  0  0  0
 17 21  1  0  0  0  0
 18 22  2  0  0  0  0
 18 35  1  0  0  0  0
 19 22  1  0  0  0  0
 20 23  1  0  0  0  0
 20 36  1  0  0  0  0
 20 37  1  0  0  0  0
 21 25  2  0  0  0  0
 21 26  1  0  0  0  0
 22 38  1  0  0  0  0
 23 27  1  0  0  0  0
 24 31  1  0  0  0  0
 25 28  1  0  0  0  0
 25 39  1  0  0  0  0
 26 29  2  0  0  0  0
 26 40  1  0  0  0  0
 28 30  2  0  0  0  0
 28 41  1  0  0  0  0
 29 30  1  0  0  0  0
 29 42  1  0  0  0  0
 30 43  1  0  0  0  0
M  END
> <PUBCHEM_COMPOUND_CID>
86353

> <PUBCHEM_CONFORMER_RMSD>
1

> <PUBCHEM_CONFORMER_DIVERSEORDER>
1
98
24
41
6
3
37
21
96
25
52
111
22
97
48
95
44
51
47
85
71
72
56
8
26
39
45
2
20
53
113
5
61
94
101
80
91
74
12
11
19
49
50
89
104
15
86
33
31
109
63
14
82
32
76
73
108
54
60
68
106
92
105
57
58
30
62
16
79
38
107
64
59
23
90
7
28
65
100
4
17
27
78
93
87
18
9
35
67
102
36
77
10
29
13
42
110
43
84
66
81
55
34
112
75
69
99
40
83
46
103
88
114
70

> <PUBCHEM_MMFF94_PARTIAL_CHARGES>
41
1 -0.18
10 -0.71
11 -0.57
12 -0.8
13 -0.02
14 -0.14
15 -0.15
16 0.42
17 0.13
18 -0.15
19 0.18
2 -0.34
20 0.28
21 0.05
22 -0.15
23 0.68
24 0.43
25 -0.15
26 -0.15
27 1.02
28 -0.15
29 -0.15
3 -0.34
30 -0.15
31 0.72
32 0.15
35 0.15
38 0.15
39 0.15
4 -0.34
40 0.15
41 0.15
42 0.15
43 0.15
44 0.37
45 0.37
5 -0.34
6 -0.34
7 -0.56
8 -0.57
9 0.59

> <PUBCHEM_EFFECTIVE_ROTOR_COUNT>
8

> <PUBCHEM_PHARMACOPHORE_FEATURES>
8
1 12 donor
1 7 acceptor
1 8 acceptor
3 10 11 24 cation
3 9 11 17 cation
5 9 10 11 17 24 rings
6 13 14 15 18 19 22 rings
6 21 25 26 28 29 30 rings

> <PUBCHEM_HEAVY_ATOM_COUNT>
31

> <PUBCHEM_ATOM_DEF_STEREO_COUNT>
0

> <PUBCHEM_ATOM_UDEF_STEREO_COUNT>
0

> <PUBCHEM_BOND_DEF_STEREO_COUNT>
0

> <PUBCHEM_BOND_UDEF_STEREO_COUNT>
0

> <PUBCHEM_ISOTOPIC_ATOM_COUNT>
0

> <PUBCHEM_COMPONENT_COUNT>
1

> <PUBCHEM_CACTVS_TAUTO_COUNT>
2

> <PUBCHEM_CONFORMER_ID>
0001515100000001

> <PUBCHEM_MMFF94_ENERGY>
78.8142

> <PUBCHEM_FEATURE_SELFOVERLAP>
43.338

> <PUBCHEM_SHAPE_FINGERPRINT>
10006869 2 18265906924122749590
10906281 52 18261939757837374492
1100329 8 18338516322715981764
11136131 41 18128263487458728450
11513181 2 17605831654254001135
11578080 2 16517396292289779714
11646440 116 18186792557136093521
12788726 201 18335704962205404520
12838862 33 18337691766009506240
13140716 1 18266464200798652946
13402501 40 18413389843479224949
13947920 75 17022911150561765245
14394314 77 18408322176759199688
14790565 3 18411976949457656148
15238133 3 18341324501351814206
15297060 5 16805318899628047575
1601671 61 18409451383790067334
16087824 20 18410854395045740772
17980427 23 5544372686187305042
19591789 44 18194680604347287230
20028762 73 18260265287237740102
20642791 178 18129651985606931653
20721686 56 18341046418998886011
21033648 29 17532664429877865386
21033650 10 14634859886608282147
21133410 38 17898560132934049137
21133410 62 18200050507721702655
21133410 90 17169261534519372843
21298829 104 18261387906090651729
21585483 110 18339091487857437445
24893992 56 18411702050793118335
3178227 256 18340474595969754297
335352 9 18410011014503974070
350125 39 18410293606383703948
484989 97 18122347879110679775
5486654 2 18410851058419959156
6328613 192 18263641784436340788
7226269 152 18261391122725328216

> <PUBCHEM_SHAPE_MULTIPOLES>
571.8
14.01
4.38
1.03
2.79
2.76
0.05
-4.9
-0.17
0.61
0.51
0.66
-0.38
-0.29

> <PUBCHEM_SHAPE_SELFOVERLAP>
1239.688

> <PUBCHEM_SHAPE_VOLUME>
314.8

> <PUBCHEM_COORDINATE_TYPE>
2
5
10

$$$$

