78092
  -OEChem-07051212543D

 19 20  0     0  0  0  0  0  0999 V2000
   -1.9465    1.0686   -0.1810 O   0  0  0  0  0  0  0  0  0  0  0  0
   -3.2952   -0.7254   -0.4108 O   0  0  0  0  0  0  0  0  0  0  0  0
    0.2671   -0.6188    0.1907 C   0  0  0  0  0  0  0  0  0  0  0  0
    0.4594    0.7632    0.1216 C   0  0  0  0  0  0  0  0  0  0  0  0
   -1.1115   -1.1319    0.4765 C   0  0  0  0  0  0  0  0  0  0  0  0
   -0.7277    1.6450    0.3410 C   0  0  0  0  0  0  0  0  0  0  0  0
    1.3598   -1.4803    0.0510 C   0  0  0  0  0  0  0  0  0  0  0  0
    1.7403    1.2819   -0.0878 C   0  0  0  0  0  0  0  0  0  0  0  0
   -2.2055   -0.2603   -0.0859 C   0  0  0  0  0  0  0  0  0  0  0  0
    2.6349   -0.9607   -0.1730 C   0  0  0  0  0  0  0  0  0  0  0  0
    2.8249    0.4187   -0.2425 C   0  0  0  0  0  0  0  0  0  0  0  0
   -1.2250   -2.1248    0.0255 H   0  0  0  0  0  0  0  0  0  0  0  0
   -1.2577   -1.2167    1.5586 H   0  0  0  0  0  0  0  0  0  0  0  0
   -0.8699    1.8484    1.4079 H   0  0  0  0  0  0  0  0  0  0  0  0
   -0.5924    2.6006   -0.1763 H   0  0  0  0  0  0  0  0  0  0  0  0
    1.2254   -2.5566    0.1173 H   0  0  0  0  0  0  0  0  0  0  0  0
    1.9008    2.3558   -0.1288 H   0  0  0  0  0  0  0  0  0  0  0  0
    3.4818   -1.6314   -0.2857 H   0  0  0  0  0  0  0  0  0  0  0  0
    3.8196    0.8218   -0.4093 H   0  0  0  0  0  0  0  0  0  0  0  0
  1  6  1  0  0  0  0
  1  9  1  0  0  0  0
  2  9  2  0  0  0  0
  3  4  1  0  0  0  0
  3  5  1  0  0  0  0
  3  7  2  0  0  0  0
  4  6  1  0  0  0  0
  4  8  2  0  0  0  0
  5  9  1  0  0  0  0
  5 12  1  0  0  0  0
  5 13  1  0  0  0  0
  6 14  1  0  0  0  0
  6 15  1  0  0  0  0
  7 10  1  0  0  0  0
  7 16  1  0  0  0  0
  8 11  1  0  0  0  0
  8 17  1  0  0  0  0
 10 11  2  0  0  0  0
 10 18  1  0  0  0  0
 11 19  1  0  0  0  0
M  END
> <PUBCHEM_COMPOUND_CID>
78092

> <PUBCHEM_CONFORMER_RMSD>
0.4

> <PUBCHEM_CONFORMER_DIVERSEORDER>
1
2

> <PUBCHEM_MMFF94_PARTIAL_CHARGES>
15
1 -0.43
10 -0.15
11 -0.15
16 0.15
17 0.15
18 0.15
19 0.15
2 -0.57
3 -0.14
4 -0.14
5 0.2
6 0.42
7 -0.15
8 -0.15
9 0.66

> <PUBCHEM_EFFECTIVE_ROTOR_COUNT>
0.6

> <PUBCHEM_PHARMACOPHORE_FEATURES>
3
1 2 acceptor
6 1 3 4 5 6 9 rings
6 3 4 7 8 10 11 rings

> <PUBCHEM_HEAVY_ATOM_COUNT>
11

> <PUBCHEM_ATOM_DEF_STEREO_COUNT>
0

> <PUBCHEM_ATOM_UDEF_STEREO_COUNT>
0

> <PUBCHEM_BOND_DEF_STEREO_COUNT>
0

> <PUBCHEM_BOND_UDEF_STEREO_COUNT>
0

> <PUBCHEM_ISOTOPIC_ATOM_COUNT>
0

> <PUBCHEM_COMPONENT_COUNT>
1

> <PUBCHEM_CACTVS_TAUTO_COUNT>
1

> <PUBCHEM_CONFORMER_ID>
0001310C00000001

> <PUBCHEM_MMFF94_ENERGY>
26.8922

> <PUBCHEM_FEATURE_SELFOVERLAP>
15.247

> <PUBCHEM_SHAPE_FINGERPRINT>
11206711 2 18341325686356690228
12897270 3 18411418392907008254
14128692 85 18334855051916291348
14325111 11 18411699898096397340
16945 1 18412537691644269784
17844478 74 17988629788533647489
19973954 147 18411132580161119044
20201158 50 18412545392346804946
21040471 1 18267863891790417848
21501502 16 18338513152898235536
23402655 69 18409457998651737293
23552423 10 18343016743882897922
241688 4 18269554021287529928
2748010 2 18339079397012412692
5084963 1 18333448759369791056
528886 8 18337956692571826834

> <PUBCHEM_SHAPE_MULTIPOLES>
214.64
4.14
1.67
0.66
0.83
0.2
-0.02
-0.6
0.68
-0.15
-0.1
0.03
-0.02
-0.05

> <PUBCHEM_SHAPE_SELFOVERLAP>
462.727

> <PUBCHEM_SHAPE_VOLUME>
117.7

> <PUBCHEM_COORDINATE_TYPE>
2
5
10

$$$$

