439686
  -OEChem-07051212472D

 34 36  0     1  0  0  0  0  0999 V2000
    4.8483    0.7872    0.0000 O   0  0  0  0  0  0  0  0  0  0  0  0
    7.1997   -0.2929    0.0000 O   0  0  0  0  0  0  0  0  0  0  0  0
    7.1926    1.8826    0.0000 O   0  0  0  0  0  0  0  0  0  0  0  0
    5.7881    3.2935    0.0000 O   0  0  0  0  0  0  0  0  0  0  0  0
    3.6418   -3.8826    0.0000 O   0  0  0  0  0  0  0  0  0  0  0  0
    5.1328   -0.9719    0.0000 N   0  0  0  0  0  0  0  0  0  0  0  0
    5.1408   -2.5814    0.0000 N   0  0  0  0  0  0  0  0  0  0  0  0
    3.4032   -0.6618    0.0000 N   0  0  0  0  0  0  0  0  0  0  0  0
    2.0000   -1.7923    0.0000 N   0  0  0  0  0  0  0  0  0  0  0  0
    5.4387   -0.0199    0.0000 C   0  0  1  0  0  0  0  0  0  0  0  0
    6.3888    0.2922    0.0000 C   0  0  1  0  0  0  0  0  0  0  0  0
    6.3855    1.2922    0.0000 C   0  0  1  0  0  0  0  0  0  0  0  0
    5.4335    1.5982    0.0000 C   0  0  1  0  0  0  0  0  0  0  0  0
    5.1213    2.5482    0.0000 C   0  0  0  0  0  0  0  0  0  0  0  0
    4.1881   -1.2814    0.0000 C   0  0  0  0  0  0  0  0  0  0  0  0
    5.7204   -1.7737    0.0000 C   0  0  0  0  0  0  0  0  0  0  0  0
    4.1931   -2.2814    0.0000 C   0  0  0  0  0  0  0  0  0  0  0  0
    3.4144   -2.9087    0.0000 C   0  0  0  0  0  0  0  0  0  0  0  0
    2.4384   -2.6911    0.0000 C   0  0  0  0  0  0  0  0  0  0  0  0
    2.4294   -0.8892    0.0000 C   0  0  0  0  0  0  0  0  0  0  0  0
    5.8786   -0.4568    0.0000 H   0  0  0  0  0  0  0  0  0  0  0  0
    6.9403    0.5755    0.0000 H   0  0  0  0  0  0  0  0  0  0  0  0
    6.9389    1.0126    0.0000 H   0  0  0  0  0  0  0  0  0  0  0  0
    4.8208    1.6932    0.0000 H   0  0  0  0  0  0  0  0  0  0  0  0
    4.7380    3.0355    0.0000 H   0  0  0  0  0  0  0  0  0  0  0  0
    4.5749    2.2554    0.0000 H   0  0  0  0  0  0  0  0  0  0  0  0
    7.7653   -0.0389    0.0000 H   0  0  0  0  0  0  0  0  0  0  0  0
    6.3404   -1.7706    0.0000 H   0  0  0  0  0  0  0  0  0  0  0  0
    7.7598    1.6323    0.0000 H   0  0  0  0  0  0  0  0  0  0  0  0
    3.5381   -0.0567    0.0000 H   0  0  0  0  0  0  0  0  0  0  0  0
    5.5946    3.8826    0.0000 H   0  0  0  0  0  0  0  0  0  0  0  0
    1.8346   -2.8321    0.0000 H   0  0  0  0  0  0  0  0  0  0  0  0
    2.4415   -3.3111    0.0000 H   0  0  0  0  0  0  0  0  0  0  0  0
    2.0404   -0.4064    0.0000 H   0  0  0  0  0  0  0  0  0  0  0  0
  1 10  1  0  0  0  0
  1 13  1  0  0  0  0
 11  2  1  1  0  0  0
  2 27  1  0  0  0  0
 12  3  1  1  0  0  0
  3 29  1  0  0  0  0
  4 14  1  0  0  0  0
  4 31  1  0  0  0  0
  5 18  2  0  0  0  0
 10  6  1  6  0  0  0
  6 15  1  0  0  0  0
  6 16  1  0  0  0  0
  7 16  2  0  0  0  0
  7 17  1  0  0  0  0
  8 15  1  0  0  0  0
  8 20  1  0  0  0  0
  8 30  1  0  0  0  0
  9 19  1  0  0  0  0
  9 20  2  0  0  0  0
 10 11  1  0  0  0  0
 10 21  1  0  0  0  0
 11 12  1  0  0  0  0
 11 22  1  0  0  0  0
 12 13  1  0  0  0  0
 12 23  1  0  0  0  0
 13 14  1  6  0  0  0
 13 24  1  0  0  0  0
 14 25  1  0  0  0  0
 14 26  1  0  0  0  0
 15 17  2  0  0  0  0
 16 28  1  0  0  0  0
 17 18  1  0  0  0  0
 18 19  1  0  0  0  0
 19 32  1  0  0  0  0
 19 33  1  0  0  0  0
 20 34  1  0  0  0  0
M  END
> <PUBCHEM_COMPOUND_CID>
439686

> <PUBCHEM_COMPOUND_CANONICALIZED>
1

> <PUBCHEM_CACTVS_COMPLEXITY>
420

> <PUBCHEM_CACTVS_HBOND_ACCEPTOR>
7

> <PUBCHEM_CACTVS_HBOND_DONOR>
4

> <PUBCHEM_CACTVS_ROTATABLE_BOND>
2

> <PUBCHEM_CACTVS_SUBSKEYS>
AAADccBzuAAAAAAAAAAAAAAAAAAAAWJAAAAAAAAABAAAAACBgAAAHgAQCAAACBzhlgYFsBfMFgCoAYZxZAAAgC03EKABUIGoUEiDeApAyCEeQIAPAALTQGDwMAIAAAAAAAAAAAAAAAAAAAAAAAAAAAAAAA==

> <PUBCHEM_IUPAC_OPENEYE_NAME>
3-[(2R,3R,4S,5R)-3,4-dihydroxy-5-(hydroxymethyl)tetrahydrofuran-2-yl]-4,7-dihydroimidazo[4,5-d][1,3]diazepin-8-one

> <PUBCHEM_IUPAC_CAS_NAME>
3-[(2R,3R,4S,5R)-3,4-dihydroxy-5-(hydroxymethyl)-2-oxolanyl]-4,7-dihydroimidazo[4,5-d][1,3]diazepin-8-one

> <PUBCHEM_IUPAC_NAME>
3-[(2R,3R,4S,5R)-3,4-dihydroxy-5-(hydroxymethyl)oxolan-2-yl]-4,7-dihydroimidazo[4,5-d][1,3]diazepin-8-one

> <PUBCHEM_IUPAC_SYSTEMATIC_NAME>
3-[(2R,3R,4S,5R)-5-(hydroxymethyl)-3,4-bis(oxidanyl)oxolan-2-yl]-4,7-dihydroimidazo[4,5-d][1,3]diazepin-8-one

> <PUBCHEM_IUPAC_TRADITIONAL_NAME>
3-[(2R,3R,4S,5R)-3,4-dihydroxy-5-methylol-tetrahydrofuran-2-yl]-4,7-dihydroimidazo[4,5-d][1,3]diazepin-8-one

> <PUBCHEM_IUPAC_INCHI>
InChI=1S/C11H14N4O5/c16-2-6-8(18)9(19)11(20-6)15-4-14-7-5(17)1-12-3-13-10(7)15/h3-4,6,8-9,11,16,18-19H,1-2H2,(H,12,13)/t6-,8-,9-,11-/m1/s1

> <PUBCHEM_IUPAC_INCHIKEY>
PICFAMQFTUCMDC-PNHWDRBUSA-N

> <PUBCHEM_XLOGP3>
-1.1

> <PUBCHEM_EXACT_MASS>
282.09642

> <PUBCHEM_MOLECULAR_FORMULA>
C11H14N4O5

> <PUBCHEM_MOLECULAR_WEIGHT>
282.25266

> <PUBCHEM_OPENEYE_CAN_SMILES>
C1C(=O)C2=C(NC=N1)N(C=N2)C3C(C(C(O3)CO)O)O

> <PUBCHEM_OPENEYE_ISO_SMILES>
C1C(=O)C2=C(NC=N1)N(C=N2)[C@H]3[C@@H]([C@@H]([C@H](O3)CO)O)O

> <PUBCHEM_CACTVS_TPSA>
129

> <PUBCHEM_MONOISOTOPIC_WEIGHT>
282.09642

> <PUBCHEM_TOTAL_CHARGE>
0

> <PUBCHEM_HEAVY_ATOM_COUNT>
20

> <PUBCHEM_ATOM_DEF_STEREO_COUNT>
4

> <PUBCHEM_ATOM_UDEF_STEREO_COUNT>
0

> <PUBCHEM_BOND_DEF_STEREO_COUNT>
0

> <PUBCHEM_BOND_UDEF_STEREO_COUNT>
0

> <PUBCHEM_ISOTOPIC_ATOM_COUNT>
0

> <PUBCHEM_COMPONENT_COUNT>
1

> <PUBCHEM_CACTVS_TAUTO_COUNT>
7

> <PUBCHEM_COORDINATE_TYPE>
1
5
255

> <PUBCHEM_BONDANNOTATIONS>
13  14  6
15  17  8
11  2  5
12  3  5
10  6  6
6  15  8
6  16  8
7  16  8
7  17  8

$$$$

