24098
  -OEChem-07051213042D

 56 57  0     0  0  0  0  0  0999 V2000
    7.9409    4.1200    0.0000 O   0  0  0  0  0  0  0  0  0  0  0  0
    0.5369    4.0785    0.0000 O   0  0  0  0  0  0  0  0  0  0  0  0
    3.1350    5.5785    0.0000 O   0  0  0  0  0  0  0  0  0  0  0  0
    1.4030    5.5785    0.0000 O   0  0  0  0  0  0  0  0  0  0  0  0
    7.0749    6.6200    0.0000 N   0  0  0  0  0  0  0  0  0  0  0  0
    8.8070    3.6200    0.0000 C   0  0  0  0  0  0  0  0  0  0  0  0
    8.8070    2.6200    0.0000 C   0  0  0  0  0  0  0  0  0  0  0  0
    9.6730    4.1200    0.0000 C   0  0  0  0  0  0  0  0  0  0  0  0
    7.9409    5.1200    0.0000 C   0  0  0  0  0  0  0  0  0  0  0  0
    7.0749    5.6200    0.0000 C   0  0  0  0  0  0  0  0  0  0  0  0
    7.9409    2.1200    0.0000 C   0  0  0  0  0  0  0  0  0  0  0  0
   10.5390    3.6200    0.0000 C   0  0  0  0  0  0  0  0  0  0  0  0
    9.6730    2.1200    0.0000 C   0  0  0  0  0  0  0  0  0  0  0  0
    9.6730    5.1200    0.0000 C   0  0  0  0  0  0  0  0  0  0  0  0
    6.2089    7.1200    0.0000 C   0  0  0  0  0  0  0  0  0  0  0  0
    7.9409    7.1200    0.0000 C   0  0  0  0  0  0  0  0  0  0  0  0
   11.4050    4.1200    0.0000 C   0  0  0  0  0  0  0  0  0  0  0  0
    7.9409    1.1200    0.0000 C   0  0  0  0  0  0  0  0  0  0  0  0
    9.6730    1.1200    0.0000 C   0  0  0  0  0  0  0  0  0  0  0  0
   10.5390    5.6200    0.0000 C   0  0  0  0  0  0  0  0  0  0  0  0
    8.8070    0.6200    0.0000 C   0  0  0  0  0  0  0  0  0  0  0  0
   11.4050    5.1200    0.0000 C   0  0  0  0  0  0  0  0  0  0  0  0
    2.2690    4.0785    0.0000 C   0  0  0  0  0  0  0  0  0  0  0  0
    1.4030    3.5785    0.0000 C   0  0  0  0  0  0  0  0  0  0  0  0
    3.1350    3.5785    0.0000 C   0  0  0  0  0  0  0  0  0  0  0  0
    1.4030    2.5785    0.0000 C   0  0  0  0  0  0  0  0  0  0  0  0
    3.1350    2.5785    0.0000 C   0  0  0  0  0  0  0  0  0  0  0  0
    2.2690    2.0785    0.0000 C   0  0  0  0  0  0  0  0  0  0  0  0
    2.2690    5.0785    0.0000 C   0  0  0  0  0  0  0  0  0  0  0  0
    8.8070    4.2400    0.0000 H   0  0  0  0  0  0  0  0  0  0  0  0
    8.5515    5.0123    0.0000 H   0  0  0  0  0  0  0  0  0  0  0  0
    8.1530    5.7026    0.0000 H   0  0  0  0  0  0  0  0  0  0  0  0
    6.4643    5.7277    0.0000 H   0  0  0  0  0  0  0  0  0  0  0  0
    6.8629    5.0374    0.0000 H   0  0  0  0  0  0  0  0  0  0  0  0
   10.5390    3.0000    0.0000 H   0  0  0  0  0  0  0  0  0  0  0  0
    7.4040    2.4300    0.0000 H   0  0  0  0  0  0  0  0  0  0  0  0
    9.1360    5.4300    0.0000 H   0  0  0  0  0  0  0  0  0  0  0  0
   10.2099    2.4300    0.0000 H   0  0  0  0  0  0  0  0  0  0  0  0
    8.2509    6.5831    0.0000 H   0  0  0  0  0  0  0  0  0  0  0  0
    8.4779    7.4300    0.0000 H   0  0  0  0  0  0  0  0  0  0  0  0
    7.6309    7.6569    0.0000 H   0  0  0  0  0  0  0  0  0  0  0  0
    6.5189    7.6569    0.0000 H   0  0  0  0  0  0  0  0  0  0  0  0
    5.6720    7.4300    0.0000 H   0  0  0  0  0  0  0  0  0  0  0  0
    5.8989    6.5831    0.0000 H   0  0  0  0  0  0  0  0  0  0  0  0
   11.9420    3.8100    0.0000 H   0  0  0  0  0  0  0  0  0  0  0  0
    7.4040    0.8100    0.0000 H   0  0  0  0  0  0  0  0  0  0  0  0
   10.5390    6.2400    0.0000 H   0  0  0  0  0  0  0  0  0  0  0  0
   10.2099    0.8100    0.0000 H   0  0  0  0  0  0  0  0  0  0  0  0
   11.9420    5.4300    0.0000 H   0  0  0  0  0  0  0  0  0  0  0  0
    8.8070    0.0000    0.0000 H   0  0  0  0  0  0  0  0  0  0  0  0
    3.6720    3.8885    0.0000 H   0  0  0  0  0  0  0  0  0  0  0  0
    0.8660    2.2685    0.0000 H   0  0  0  0  0  0  0  0  0  0  0  0
    3.6720    2.2685    0.0000 H   0  0  0  0  0  0  0  0  0  0  0  0
    2.2690    1.4585    0.0000 H   0  0  0  0  0  0  0  0  0  0  0  0
    0.0000    3.7685    0.0000 H   0  0  0  0  0  0  0  0  0  0  0  0
    3.1350    6.1985    0.0000 H   0  0  0  0  0  0  0  0  0  0  0  0
  1  6  1  0  0  0  0
  1  9  1  0  0  0  0
  2 24  1  0  0  0  0
  2 55  1  0  0  0  0
  3 29  1  0  0  0  0
  3 56  1  0  0  0  0
  4 29  2  0  0  0  0
  5 10  1  0  0  0  0
  5 15  1  0  0  0  0
  5 16  1  0  0  0  0
  6  7  1  0  0  0  0
  6  8  1  0  0  0  0
  6 30  1  0  0  0  0
  7 11  2  0  0  0  0
  7 13  1  0  0  0  0
  8 12  2  0  0  0  0
  8 14  1  0  0  0  0
  9 10  1  0  0  0  0
  9 31  1  0  0  0  0
  9 32  1  0  0  0  0
 10 33  1  0  0  0  0
 10 34  1  0  0  0  0
 11 18  1  0  0  0  0
 11 36  1  0  0  0  0
 12 17  1  0  0  0  0
 12 35  1  0  0  0  0
 13 19  2  0  0  0  0
 13 38  1  0  0  0  0
 14 20  2  0  0  0  0
 14 37  1  0  0  0  0
 15 42  1  0  0  0  0
 15 43  1  0  0  0  0
 15 44  1  0  0  0  0
 16 39  1  0  0  0  0
 16 40  1  0  0  0  0
 16 41  1  0  0  0  0
 17 22  2  0  0  0  0
 17 45  1  0  0  0  0
 18 21  2  0  0  0  0
 18 46  1  0  0  0  0
 19 21  1  0  0  0  0
 19 48  1  0  0  0  0
 20 22  1  0  0  0  0
 20 47  1  0  0  0  0
 21 50  1  0  0  0  0
 22 49  1  0  0  0  0
 23 24  1  0  0  0  0
 23 25  2  0  0  0  0
 23 29  1  0  0  0  0
 24 26  2  0  0  0  0
 25 27  1  0  0  0  0
 25 51  1  0  0  0  0
 26 28  1  0  0  0  0
 26 52  1  0  0  0  0
 27 28  2  0  0  0  0
 27 53  1  0  0  0  0
 28 54  1  0  0  0  0
M  END
> <PUBCHEM_COMPOUND_CID>
24098

> <PUBCHEM_COMPOUND_CANONICALIZED>
1

> <PUBCHEM_CACTVS_COMPLEXITY>
344

> <PUBCHEM_CACTVS_HBOND_ACCEPTOR>
5

> <PUBCHEM_CACTVS_HBOND_DONOR>
2

> <PUBCHEM_CACTVS_ROTATABLE_BOND>
7

> <PUBCHEM_CACTVS_SUBSKEYS>
AAADceB6OAAAAAAAAAAAAAAAAAAAAAAAAAAwYMAAAAAAAAABUAAAHgAACAAADBThmAYyDoMABgCIAiDSCAACAAAkIAAIiAEOCMgKJzaCNRqDcUAl4BEYuYeIyOCOAAAAAAAIAAAAAAAAABAAAAAAAAAAAA==

> <PUBCHEM_IUPAC_OPENEYE_NAME>
2-benzhydryloxy-N,N-dimethyl-ethanamine; 2-hydroxybenzoic acid

> <PUBCHEM_IUPAC_CAS_NAME>
2-(diphenylmethyl)oxy-N,N-dimethylethanamine; 2-hydroxybenzoic acid

> <PUBCHEM_IUPAC_NAME>
2-benzhydryloxy-N,N-dimethylethanamine; 2-hydroxybenzoic acid

> <PUBCHEM_IUPAC_SYSTEMATIC_NAME>
2-(diphenylmethyl)oxy-N,N-dimethyl-ethanamine; 2-oxidanylbenzoic acid

> <PUBCHEM_IUPAC_TRADITIONAL_NAME>
2-benzhydryloxyethyl(dimethyl)amine; salicylic acid

> <PUBCHEM_IUPAC_INCHI>
InChI=1S/C17H21NO.C7H6O3/c1-18(2)13-14-19-17(15-9-5-3-6-10-15)16-11-7-4-8-12-16;8-6-4-2-1-3-5(6)7(9)10/h3-12,17H,13-14H2,1-2H3;1-4,8H,(H,9,10)

> <PUBCHEM_IUPAC_INCHIKEY>
RTSZUSOHOIFYSY-UHFFFAOYSA-N

> <PUBCHEM_EXACT_MASS>
393.194008

> <PUBCHEM_MOLECULAR_FORMULA>
C24H27NO4

> <PUBCHEM_MOLECULAR_WEIGHT>
393.47548

> <PUBCHEM_OPENEYE_CAN_SMILES>
CN(C)CCOC(C1=CC=CC=C1)C2=CC=CC=C2.C1=CC=C(C(=C1)C(=O)O)O

> <PUBCHEM_OPENEYE_ISO_SMILES>
CN(C)CCOC(C1=CC=CC=C1)C2=CC=CC=C2.C1=CC=C(C(=C1)C(=O)O)O

> <PUBCHEM_CACTVS_TPSA>
70

> <PUBCHEM_MONOISOTOPIC_WEIGHT>
393.194008

> <PUBCHEM_TOTAL_CHARGE>
0

> <PUBCHEM_HEAVY_ATOM_COUNT>
29

> <PUBCHEM_ATOM_DEF_STEREO_COUNT>
0

> <PUBCHEM_ATOM_UDEF_STEREO_COUNT>
0

> <PUBCHEM_BOND_DEF_STEREO_COUNT>
0

> <PUBCHEM_BOND_UDEF_STEREO_COUNT>
0

> <PUBCHEM_ISOTOPIC_ATOM_COUNT>
0

> <PUBCHEM_COMPONENT_COUNT>
2

> <PUBCHEM_CACTVS_TAUTO_COUNT>
4

> <PUBCHEM_COORDINATE_TYPE>
1
5
255

> <PUBCHEM_BONDANNOTATIONS>
11  18  8
12  17  8
13  19  8
14  20  8
17  22  8
18  21  8
19  21  8
20  22  8
23  24  8
23  25  8
24  26  8
25  27  8
26  28  8
27  28  8
7  11  8
7  13  8
8  12  8
8  14  8

$$$$

