440903
  -OEChem-07051212513D

 40 41  0     1  0  0  0  0  0999 V2000
    3.8523    0.3957    0.8938 O   0  0  0  0  0  0  0  0  0  0  0  0
    3.9550    2.3487   -0.2536 O   0  0  0  0  0  0  0  0  0  0  0  0
    1.4618   -2.6973   -0.9932 N   0  0  0  0  0  0  0  0  0  0  0  0
    1.4181    2.9452    0.6608 N   0  0  0  0  0  0  0  0  0  0  0  0
   -0.0734   -1.3384   -0.1136 C   0  0  0  0  0  0  0  0  0  0  0  0
    0.9690   -0.5552   -0.6836 C   0  0  0  0  0  0  0  0  0  0  0  0
    1.0596    0.9192   -0.7103 C   0  0  0  0  0  0  0  0  0  0  0  0
    0.2602   -2.6784   -0.3215 C   0  0  0  0  0  0  0  0  0  0  0  0
   -1.2726   -1.0348    0.5612 C   0  0  0  0  0  0  0  0  0  0  0  0
    1.8980   -1.4189   -1.2165 C   0  0  0  0  0  0  0  0  0  0  0  0
    1.7855    1.5349    0.5080 C   0  0  1  0  0  0  0  0  0  0  0  0
   -1.7173    0.3681    0.8336 C   0  0  0  0  0  0  0  0  0  0  0  0
   -0.5485   -3.7343    0.1136 C   0  0  0  0  0  0  0  0  0  0  0  0
   -2.0915   -2.0807    1.0021 C   0  0  0  0  0  0  0  0  0  0  0  0
   -1.7331   -3.4090    0.7806 C   0  0  0  0  0  0  0  0  0  0  0  0
   -2.5693    0.9351   -0.2728 C   0  0  0  0  0  0  0  0  0  0  0  0
    3.2928    1.4935    0.3207 C   0  0  0  0  0  0  0  0  0  0  0  0
   -3.1060    2.1674   -0.3582 C   0  0  0  0  0  0  0  0  0  0  0  0
   -3.9498    2.6695   -1.4954 C   0  0  0  0  0  0  0  0  0  0  0  0
   -2.8910    3.1699    0.7445 C   0  0  0  0  0  0  0  0  0  0  0  0
    0.0683    1.3582   -0.8460 H   0  0  0  0  0  0  0  0  0  0  0  0
    1.5978    1.2131   -1.6243 H   0  0  0  0  0  0  0  0  0  0  0  0
    2.8304   -1.2410   -1.7343 H   0  0  0  0  0  0  0  0  0  0  0  0
    1.5297    1.0194    1.4406 H   0  0  0  0  0  0  0  0  0  0  0  0
    1.9506   -3.5342   -1.2797 H   0  0  0  0  0  0  0  0  0  0  0  0
   -2.3168    0.3639    1.7550 H   0  0  0  0  0  0  0  0  0  0  0  0
   -0.8688    1.0122    1.0629 H   0  0  0  0  0  0  0  0  0  0  0  0
   -0.2704   -4.7686   -0.0585 H   0  0  0  0  0  0  0  0  0  0  0  0
   -3.0230   -1.8713    1.5231 H   0  0  0  0  0  0  0  0  0  0  0  0
   -2.3842   -4.2059    1.1310 H   0  0  0  0  0  0  0  0  0  0  0  0
   -2.7739    0.2629   -1.1065 H   0  0  0  0  0  0  0  0  0  0  0  0
    0.4143    3.0192    0.8231 H   0  0  0  0  0  0  0  0  0  0  0  0
    1.5937    3.4425   -0.2121 H   0  0  0  0  0  0  0  0  0  0  0  0
   -4.0786    1.9058   -2.2695 H   0  0  0  0  0  0  0  0  0  0  0  0
   -4.9442    2.9540   -1.1371 H   0  0  0  0  0  0  0  0  0  0  0  0
   -3.4815    3.5424   -1.9614 H   0  0  0  0  0  0  0  0  0  0  0  0
   -2.3006    2.7905    1.5824 H   0  0  0  0  0  0  0  0  0  0  0  0
   -2.3716    4.0506    0.3518 H   0  0  0  0  0  0  0  0  0  0  0  0
   -3.8561    3.4931    1.1495 H   0  0  0  0  0  0  0  0  0  0  0  0
    4.8263    0.3795    0.7783 H   0  0  0  0  0  0  0  0  0  0  0  0
  1 17  1  0  0  0  0
  1 40  1  0  0  0  0
  2 17  2  0  0  0  0
  3  8  1  0  0  0  0
  3 10  1  0  0  0  0
  3 25  1  0  0  0  0
  4 11  1  0  0  0  0
  4 32  1  0  0  0  0
  4 33  1  0  0  0  0
  5  6  1  0  0  0  0
  5  8  1  0  0  0  0
  5  9  2  0  0  0  0
  6  7  1  0  0  0  0
  6 10  2  0  0  0  0
  7 11  1  0  0  0  0
  7 21  1  0  0  0  0
  7 22  1  0  0  0  0
  8 13  2  0  0  0  0
  9 12  1  0  0  0  0
  9 14  1  0  0  0  0
 10 23  1  0  0  0  0
 11 17  1  0  0  0  0
 11 24  1  0  0  0  0
 12 16  1  0  0  0  0
 12 26  1  0  0  0  0
 12 27  1  0  0  0  0
 13 15  1  0  0  0  0
 13 28  1  0  0  0  0
 14 15  2  0  0  0  0
 14 29  1  0  0  0  0
 15 30  1  0  0  0  0
 16 18  2  0  0  0  0
 16 31  1  0  0  0  0
 18 19  1  0  0  0  0
 18 20  1  0  0  0  0
 19 34  1  0  0  0  0
 19 35  1  0  0  0  0
 19 36  1  0  0  0  0
 20 37  1  0  0  0  0
 20 38  1  0  0  0  0
 20 39  1  0  0  0  0
M  END
> <PUBCHEM_COMPOUND_CID>
440903

> <PUBCHEM_CONFORMER_RMSD>
0.8

> <PUBCHEM_CONFORMER_DIVERSEORDER>
1
22
31
58
16
39
55
60
46
47
36
14
2
40
50
13
48
28
3
54
57
42
44
34
4
32
33
37
45
7
5
20
38
41
15
11
53
59
49
29
52
43
24
23
56
35
61
30
6
18
17
51
25
21
9
27
19
62
26
12
10
8

> <PUBCHEM_MMFF94_PARTIAL_CHARGES>
28
1 -0.65
10 -0.3
11 0.33
12 0.28
13 -0.15
14 -0.15
15 -0.15
16 -0.29
17 0.66
18 -0.28
19 0.14
2 -0.57
20 0.14
23 0.15
25 0.27
28 0.15
29 0.15
3 0.03
30 0.15
31 0.15
32 0.36
33 0.36
4 -0.99
40 0.5
6 -0.18
7 0.18
8 -0.15
9 -0.14

> <PUBCHEM_EFFECTIVE_ROTOR_COUNT>
5

> <PUBCHEM_PHARMACOPHORE_FEATURES>
10
1 1 acceptor
1 2 acceptor
1 3 cation
1 3 donor
1 4 cation
1 4 donor
3 1 2 17 anion
3 18 19 20 hydrophobe
5 3 5 6 8 10 rings
6 5 8 9 13 14 15 rings

> <PUBCHEM_HEAVY_ATOM_COUNT>
20

> <PUBCHEM_ATOM_DEF_STEREO_COUNT>
0

> <PUBCHEM_ATOM_UDEF_STEREO_COUNT>
1

> <PUBCHEM_BOND_DEF_STEREO_COUNT>
0

> <PUBCHEM_BOND_UDEF_STEREO_COUNT>
0

> <PUBCHEM_ISOTOPIC_ATOM_COUNT>
0

> <PUBCHEM_COMPONENT_COUNT>
1

> <PUBCHEM_CACTVS_TAUTO_COUNT>
1

> <PUBCHEM_CONFORMER_ID>
0006BA4700000001

> <PUBCHEM_MMFF94_ENERGY>
31.601

> <PUBCHEM_FEATURE_SELFOVERLAP>
50.894

> <PUBCHEM_SHAPE_FINGERPRINT>
10165383 225 17763695049581829653
10764073 3 14898663730736420352
12077114 3 18338802204307980712
12293681 160 17546417425923259286
12403259 226 17900812761048609310
12730499 353 18126558162562553405
12788726 201 17912376333195619802
13134695 92 17331969824845049255
13140716 1 18195517314956856723
13294875 104 17843120569610839875
13464514 151 18191298484509260908
13965767 371 17903326265777410601
14614273 12 18190729843808698379
16945 1 18193260902285466046
21524375 3 18338811081958006245
2255824 54 17975984481412137509
22907989 373 18052252899567419157
23402539 116 17683520637190375743
23559900 14 18048854576363989214
238 59 18194686101794383637
25 1 17623269977421776311
2748010 2 18266435733180759423
3091708 16 9195220691014533881
350125 39 18267559430001377323
352729 6 18337674088061155645
4409770 3 18195537982239258085
474 4 18265625466341849225
7471813 234 17113839929276892807
81228 2 18055893443292359891
84936 182 18119250816151465993
90316 7 17835238943871547443
9862522 239 18116434743761083970
9981440 41 18337966635468499409

> <PUBCHEM_SHAPE_MULTIPOLES>
389.89
5.75
5.12
1.14
4.41
2.01
-0.16
-6.3
-1.13
-1.93
1.11
0.33
-0.03
1.29

> <PUBCHEM_SHAPE_SELFOVERLAP>
822.435

> <PUBCHEM_SHAPE_VOLUME>
220.4

> <PUBCHEM_COORDINATE_TYPE>
2
5
10

$$$$

