12490
  -OEChem-06261207002D

 19 19  0     0  0  0  0  0  0999 V2000
    2.5369    0.5950    0.0000 O   0  0  0  0  0  0  0  0  0  0  0  0
    5.1350    2.0950    0.0000 O   0  0  0  0  0  0  0  0  0  0  0  0
    6.0010   -2.4050    0.0000 O   0  0  0  0  0  0  0  0  0  0  0  0
    3.4030    2.0950    0.0000 O   0  0  0  0  0  0  0  0  0  0  0  0
    6.8671   -0.9050    0.0000 O   0  0  0  0  0  0  0  0  0  0  0  0
    4.2690    0.5950    0.0000 C   0  0  0  0  0  0  0  0  0  0  0  0
    5.1350   -0.9050    0.0000 C   0  0  0  0  0  0  0  0  0  0  0  0
    5.1350    0.0950    0.0000 C   0  0  0  0  0  0  0  0  0  0  0  0
    3.4030    0.0950    0.0000 C   0  0  0  0  0  0  0  0  0  0  0  0
    4.2690   -1.4050    0.0000 C   0  0  0  0  0  0  0  0  0  0  0  0
    3.4030   -0.9050    0.0000 C   0  0  0  0  0  0  0  0  0  0  0  0
    4.2690    1.5950    0.0000 C   0  0  0  0  0  0  0  0  0  0  0  0
    6.0010   -1.4050    0.0000 C   0  0  0  0  0  0  0  0  0  0  0  0
    5.6720    0.4050    0.0000 H   0  0  0  0  0  0  0  0  0  0  0  0
    4.2690   -2.0250    0.0000 H   0  0  0  0  0  0  0  0  0  0  0  0
    2.8660   -1.2150    0.0000 H   0  0  0  0  0  0  0  0  0  0  0  0
    2.0000    0.2850    0.0000 H   0  0  0  0  0  0  0  0  0  0  0  0
    5.1350    2.7150    0.0000 H   0  0  0  0  0  0  0  0  0  0  0  0
    6.5380   -2.7150    0.0000 H   0  0  0  0  0  0  0  0  0  0  0  0
  1  9  1  0  0  0  0
  1 17  1  0  0  0  0
  2 12  1  0  0  0  0
  2 18  1  0  0  0  0
  3 13  1  0  0  0  0
  3 19  1  0  0  0  0
  4 12  2  0  0  0  0
  5 13  2  0  0  0  0
  6  8  1  0  0  0  0
  6  9  2  0  0  0  0
  6 12  1  0  0  0  0
  7  8  2  0  0  0  0
  7 10  1  0  0  0  0
  7 13  1  0  0  0  0
  8 14  1  0  0  0  0
  9 11  1  0  0  0  0
 10 11  2  0  0  0  0
 10 15  1  0  0  0  0
 11 16  1  0  0  0  0
M  END
> <PUBCHEM_COMPOUND_CID>
12490

> <PUBCHEM_COMPOUND_CANONICALIZED>
1

> <PUBCHEM_CACTVS_COMPLEXITY>
225

> <PUBCHEM_CACTVS_HBOND_ACCEPTOR>
5

> <PUBCHEM_CACTVS_HBOND_DONOR>
3

> <PUBCHEM_CACTVS_ROTATABLE_BOND>
2

> <PUBCHEM_CACTVS_SUBSKEYS>
AAADcYBwOAAAAAAAAAAAAAAAAAAAAAAAAAAwAAAAAAAAAAABAAAAGgAACAAADASAmAAwDoAAAgCIAiDSCAACAAAkIAAIiAEGCMgIJzaCFRKAcUAl4BEImYeI7mTOIAACAAAIAABAAAQAABAAAAAAAAAAAA==

> <PUBCHEM_IUPAC_OPENEYE_NAME>
4-hydroxybenzene-1,3-dicarboxylic acid

> <PUBCHEM_IUPAC_CAS_NAME>
4-hydroxybenzene-1,3-dicarboxylic acid

> <PUBCHEM_IUPAC_NAME>
4-hydroxybenzene-1,3-dicarboxylic acid

> <PUBCHEM_IUPAC_SYSTEMATIC_NAME>
4-oxidanylbenzene-1,3-dicarboxylic acid

> <PUBCHEM_IUPAC_TRADITIONAL_NAME>
4-hydroxyisophthalic acid

> <PUBCHEM_IUPAC_INCHI>
InChI=1S/C8H6O5/c9-6-2-1-4(7(10)11)3-5(6)8(12)13/h1-3,9H,(H,10,11)(H,12,13)

> <PUBCHEM_IUPAC_INCHIKEY>
BCEQKAQCUWUNML-UHFFFAOYSA-N

> <PUBCHEM_XLOGP3>
1.5

> <PUBCHEM_EXACT_MASS>
182.021523

> <PUBCHEM_MOLECULAR_FORMULA>
C8H6O5

> <PUBCHEM_MOLECULAR_WEIGHT>
182.13024

> <PUBCHEM_OPENEYE_CAN_SMILES>
C1=CC(=C(C=C1C(=O)O)C(=O)O)O

> <PUBCHEM_OPENEYE_ISO_SMILES>
C1=CC(=C(C=C1C(=O)O)C(=O)O)O

> <PUBCHEM_CACTVS_TPSA>
94.8

> <PUBCHEM_MONOISOTOPIC_WEIGHT>
182.021523

> <PUBCHEM_TOTAL_CHARGE>
0

> <PUBCHEM_HEAVY_ATOM_COUNT>
13

> <PUBCHEM_ATOM_DEF_STEREO_COUNT>
0

> <PUBCHEM_ATOM_UDEF_STEREO_COUNT>
0

> <PUBCHEM_BOND_DEF_STEREO_COUNT>
0

> <PUBCHEM_BOND_UDEF_STEREO_COUNT>
0

> <PUBCHEM_ISOTOPIC_ATOM_COUNT>
0

> <PUBCHEM_COMPONENT_COUNT>
1

> <PUBCHEM_CACTVS_TAUTO_COUNT>
6

> <PUBCHEM_COORDINATE_TYPE>
1
5
255

> <PUBCHEM_BONDANNOTATIONS>
10  11  8
6  8  8
6  9  8
7  10  8
7  8  8
9  11  8

$$$$

