3032340
  -OEChem-07051213053D

 43 44  0     0  0  0  0  0  0999 V2000
    5.6639    0.1636    0.3628 O   0  0  0  0  0  0  0  0  0  0  0  0
   -6.3063   -0.2066   -0.0198 O   0  0  0  0  0  0  0  0  0  0  0  0
    0.1076   -0.5470    0.1605 C   0  0  0  0  0  0  0  0  0  0  0  0
   -0.7501    0.5043    0.1842 C   0  0  0  0  0  0  0  0  0  0  0  0
   -0.3250   -2.0001    0.1315 C   0  0  0  0  0  0  0  0  0  0  0  0
   -0.3207    1.9524    0.3196 C   0  0  0  0  0  0  0  0  0  0  0  0
    1.5767   -0.3591    0.2141 C   0  0  0  0  0  0  0  0  0  0  0  0
   -2.2193    0.3163    0.1304 C   0  0  0  0  0  0  0  0  0  0  0  0
   -0.4932   -2.5248   -1.2887 C   0  0  0  0  0  0  0  0  0  0  0  0
   -0.0674    2.6088   -1.0314 C   0  0  0  0  0  0  0  0  0  0  0  0
    2.2041   -0.3313    1.4444 C   0  0  0  0  0  0  0  0  0  0  0  0
    2.2771   -0.2167   -0.9677 C   0  0  0  0  0  0  0  0  0  0  0  0
   -2.9203    0.1741    1.3120 C   0  0  0  0  0  0  0  0  0  0  0  0
   -2.8460    0.2882   -1.1001 C   0  0  0  0  0  0  0  0  0  0  0  0
    3.5868   -0.1540    1.4946 C   0  0  0  0  0  0  0  0  0  0  0  0
    3.6597   -0.0394   -0.9175 C   0  0  0  0  0  0  0  0  0  0  0  0
    4.3146   -0.0079    0.3136 C   0  0  0  0  0  0  0  0  0  0  0  0
   -4.3028   -0.0032    1.2610 C   0  0  0  0  0  0  0  0  0  0  0  0
   -4.2286    0.1107   -1.1510 C   0  0  0  0  0  0  0  0  0  0  0  0
   -4.9570   -0.0350    0.0295 C   0  0  0  0  0  0  0  0  0  0  0  0
    6.3461    0.3067   -0.8820 C   0  0  0  0  0  0  0  0  0  0  0  0
    0.4034   -2.6270    0.6618 H   0  0  0  0  0  0  0  0  0  0  0  0
   -1.2652   -2.1400    0.6767 H   0  0  0  0  0  0  0  0  0  0  0  0
    0.5840    2.0372    0.9322 H   0  0  0  0  0  0  0  0  0  0  0  0
   -1.0820    2.5283    0.8615 H   0  0  0  0  0  0  0  0  0  0  0  0
   -1.2245   -1.9465   -1.8589 H   0  0  0  0  0  0  0  0  0  0  0  0
   -0.8379   -3.5638   -1.2626 H   0  0  0  0  0  0  0  0  0  0  0  0
    0.4549   -2.5061   -1.8356 H   0  0  0  0  0  0  0  0  0  0  0  0
    0.6995    2.0854   -1.6078 H   0  0  0  0  0  0  0  0  0  0  0  0
    0.2717    3.6399   -0.8859 H   0  0  0  0  0  0  0  0  0  0  0  0
   -0.9800    2.6445   -1.6349 H   0  0  0  0  0  0  0  0  0  0  0  0
    1.6470   -0.4440    2.3703 H   0  0  0  0  0  0  0  0  0  0  0  0
    1.7778   -0.2402   -1.9325 H   0  0  0  0  0  0  0  0  0  0  0  0
   -2.4207    0.1972    2.2766 H   0  0  0  0  0  0  0  0  0  0  0  0
   -2.2901    0.4013   -2.0267 H   0  0  0  0  0  0  0  0  0  0  0  0
    4.0914   -0.1307    2.4567 H   0  0  0  0  0  0  0  0  0  0  0  0
    4.1631    0.0674   -1.8723 H   0  0  0  0  0  0  0  0  0  0  0  0
   -4.8588   -0.1153    2.1880 H   0  0  0  0  0  0  0  0  0  0  0  0
   -4.7326    0.0872   -2.1134 H   0  0  0  0  0  0  0  0  0  0  0  0
   -6.6467   -0.2900    0.8875 H   0  0  0  0  0  0  0  0  0  0  0  0
    6.2564   -0.5958   -1.4961 H   0  0  0  0  0  0  0  0  0  0  0  0
    7.4096    0.4344   -0.6551 H   0  0  0  0  0  0  0  0  0  0  0  0
    6.0232    1.2064   -1.4168 H   0  0  0  0  0  0  0  0  0  0  0  0
  1 17  1  0  0  0  0
  1 21  1  0  0  0  0
  2 20  1  0  0  0  0
  2 40  1  0  0  0  0
  3  4  2  0  0  0  0
  3  5  1  0  0  0  0
  3  7  1  0  0  0  0
  4  6  1  0  0  0  0
  4  8  1  0  0  0  0
  5  9  1  0  0  0  0
  5 22  1  0  0  0  0
  5 23  1  0  0  0  0
  6 10  1  0  0  0  0
  6 24  1  0  0  0  0
  6 25  1  0  0  0  0
  7 11  2  0  0  0  0
  7 12  1  0  0  0  0
  8 13  2  0  0  0  0
  8 14  1  0  0  0  0
  9 26  1  0  0  0  0
  9 27  1  0  0  0  0
  9 28  1  0  0  0  0
 10 29  1  0  0  0  0
 10 30  1  0  0  0  0
 10 31  1  0  0  0  0
 11 15  1  0  0  0  0
 11 32  1  0  0  0  0
 12 16  2  0  0  0  0
 12 33  1  0  0  0  0
 13 18  1  0  0  0  0
 13 34  1  0  0  0  0
 14 19  2  0  0  0  0
 14 35  1  0  0  0  0
 15 17  2  0  0  0  0
 15 36  1  0  0  0  0
 16 17  1  0  0  0  0
 16 37  1  0  0  0  0
 18 20  2  0  0  0  0
 18 38  1  0  0  0  0
 19 20  1  0  0  0  0
 19 39  1  0  0  0  0
 21 41  1  0  0  0  0
 21 42  1  0  0  0  0
 21 43  1  0  0  0  0
M  END
> <PUBCHEM_COMPOUND_CID>
3032340

> <PUBCHEM_CONFORMER_RMSD>
0.8

> <PUBCHEM_CONFORMER_DIVERSEORDER>
1
2

> <PUBCHEM_MMFF94_PARTIAL_CHARGES>
28
1 -0.36
11 -0.15
12 -0.15
13 -0.15
14 -0.15
15 -0.15
16 -0.15
17 0.08
18 -0.15
19 -0.15
2 -0.53
20 0.08
21 0.28
3 -0.17
32 0.15
33 0.15
34 0.15
35 0.15
36 0.15
37 0.15
38 0.15
39 0.15
4 -0.17
40 0.45
5 0.14
6 0.14
7 0.03
8 0.03

> <PUBCHEM_EFFECTIVE_ROTOR_COUNT>
5

> <PUBCHEM_PHARMACOPHORE_FEATURES>
6
1 1 acceptor
1 10 hydrophobe
1 2 donor
1 9 hydrophobe
6 7 11 12 15 16 17 rings
6 8 13 14 18 19 20 rings

> <PUBCHEM_HEAVY_ATOM_COUNT>
21

> <PUBCHEM_ATOM_DEF_STEREO_COUNT>
0

> <PUBCHEM_ATOM_UDEF_STEREO_COUNT>
0

> <PUBCHEM_BOND_DEF_STEREO_COUNT>
1

> <PUBCHEM_BOND_UDEF_STEREO_COUNT>
0

> <PUBCHEM_ISOTOPIC_ATOM_COUNT>
0

> <PUBCHEM_COMPONENT_COUNT>
1

> <PUBCHEM_CACTVS_TAUTO_COUNT>
2

> <PUBCHEM_CONFORMER_ID>
002E451400000001

> <PUBCHEM_MMFF94_ENERGY>
72.5343

> <PUBCHEM_FEATURE_SELFOVERLAP>
30.446

> <PUBCHEM_SHAPE_FINGERPRINT>
10906281 52 18200864197543934849
12011746 2 18335421265907779185
12107183 9 15406710580310559792
12236239 1 17704074006006485514
12633257 1 17968958426148833114
12969540 114 18342472416775725671
13140716 1 18265897956003883616
13533116 47 17775293806807628810
13583140 156 17418372463226973129
14787075 74 17489304153015683738
14955137 171 18335693906463842057
15209289 33 17676489449503864339
1601671 61 18339361967575360677
1813 80 18261664943727783517
18186145 218 17386016086558086290
18222031 100 18410016528656588321
19489759 90 16128657457212914013
200 152 17275387616149219296
21033648 29 18339381711213252392
23402539 116 18334580139760418038
23559900 14 16805897194961118850
23569943 247 17461140313253591798
26918003 58 16558747914486089632
34797466 226 17203035357306033934
34934 24 18200027322971020236
3545911 37 16128655258099773313
465052 167 18130498661606426123
7495541 125 17560510712865175377
77779 3 15502377824501740931

> <PUBCHEM_SHAPE_MULTIPOLES>
420.43
11.99
1.7
1.39
3.2
0.05
0.12
0.5
-0.24
-0.28
-0.65
0.08
-0.08
-0.18

> <PUBCHEM_SHAPE_SELFOVERLAP>
889.924

> <PUBCHEM_SHAPE_VOLUME>
237.2

> <PUBCHEM_COORDINATE_TYPE>
2
5
10

$$$$

