242128
  -OEChem-07051213063D

 53 56  0     1  0  0  0  0  0999 V2000
    4.3482    0.3562    1.6227 F   0  0  0  0  0  0  0  0  0  0  0  0
    4.6308    1.7621    0.0002 F   0  0  0  0  0  0  0  0  0  0  0  0
   -5.1905   -1.7168    0.2315 O   0  0  0  0  0  0  0  0  0  0  0  0
    5.5390   -0.3383   -1.3093 O   0  0  0  0  0  0  0  0  0  0  0  0
   -2.7028   -0.2786    0.0112 C   0  0  1  0  0  0  0  0  0  0  0  0
   -1.8092    0.9148   -0.3801 C   0  0  2  0  0  0  0  0  0  0  0  0
   -0.3803    0.8067    0.1618 C   0  0  1  0  0  0  0  0  0  0  0  0
    0.2738   -0.5088   -0.3492 C   0  0  1  0  0  0  0  0  0  0  0  0
    1.7416   -0.6855    0.2197 C   0  0  2  0  0  0  0  0  0  0  0  0
   -4.0319    0.1827   -0.6270 C   0  0  2  0  0  0  0  0  0  0  0  0
   -2.0907   -1.5371   -0.6181 C   0  0  0  0  0  0  0  0  0  0  0  0
   -0.6403   -1.7502   -0.1513 C   0  0  0  0  0  0  0  0  0  0  0  0
   -2.6495    2.1289    0.0006 C   0  0  0  0  0  0  0  0  0  0  0  0
   -4.0878    1.6979   -0.3385 C   0  0  0  0  0  0  0  0  0  0  0  0
    0.4581    2.0142   -0.2796 C   0  0  0  0  0  0  0  0  0  0  0  0
   -2.8560   -0.4703    1.5422 C   0  0  0  0  0  0  0  0  0  0  0  0
    2.5301    0.6364    0.1300 C   0  0  0  0  0  0  0  0  0  0  0  0
    2.4613   -1.7666   -0.6426 C   0  0  0  0  0  0  0  0  0  0  0  0
    1.9300    1.8163   -0.1110 C   0  0  0  0  0  0  0  0  0  0  0  0
    1.7148   -1.1397    1.6984 C   0  0  0  0  0  0  0  0  0  0  0  0
   -5.2425   -0.5399   -0.1227 C   0  0  0  0  0  0  0  0  0  0  0  0
    4.0309    0.5782    0.3167 C   0  0  0  0  0  0  0  0  0  0  0  0
    3.9588   -1.8828   -0.3868 C   0  0  0  0  0  0  0  0  0  0  0  0
    4.5892   -0.5247   -0.5510 C   0  0  0  0  0  0  0  0  0  0  0  0
   -6.5251    0.2450   -0.0678 C   0  0  0  0  0  0  0  0  0  0  0  0
   -1.7270    0.9342   -1.4803 H   0  0  0  0  0  0  0  0  0  0  0  0
   -0.4033    0.8044    1.2570 H   0  0  0  0  0  0  0  0  0  0  0  0
    0.3674   -0.3911   -1.4414 H   0  0  0  0  0  0  0  0  0  0  0  0
   -4.0053    0.0359   -1.7153 H   0  0  0  0  0  0  0  0  0  0  0  0
   -2.0971   -1.4546   -1.7127 H   0  0  0  0  0  0  0  0  0  0  0  0
   -2.6834   -2.4260   -0.3729 H   0  0  0  0  0  0  0  0  0  0  0  0
   -0.6640   -2.0453    0.9017 H   0  0  0  0  0  0  0  0  0  0  0  0
   -0.2303   -2.6043   -0.7016 H   0  0  0  0  0  0  0  0  0  0  0  0
   -2.3595    3.0241   -0.5586 H   0  0  0  0  0  0  0  0  0  0  0  0
   -2.5581    2.3594    1.0680 H   0  0  0  0  0  0  0  0  0  0  0  0
   -4.7336    1.9766    0.4991 H   0  0  0  0  0  0  0  0  0  0  0  0
   -4.4486    2.2366   -1.2224 H   0  0  0  0  0  0  0  0  0  0  0  0
    0.1530    2.8928    0.3018 H   0  0  0  0  0  0  0  0  0  0  0  0
    0.2698    2.2521   -1.3340 H   0  0  0  0  0  0  0  0  0  0  0  0
   -1.8928   -0.5063    2.0583 H   0  0  0  0  0  0  0  0  0  0  0  0
   -3.4318    0.3362    2.0077 H   0  0  0  0  0  0  0  0  0  0  0  0
   -3.3584   -1.4120    1.7848 H   0  0  0  0  0  0  0  0  0  0  0  0
    2.3188   -1.5324   -1.7068 H   0  0  0  0  0  0  0  0  0  0  0  0
    2.0096   -2.7518   -0.4780 H   0  0  0  0  0  0  0  0  0  0  0  0
    2.5288    2.7207   -0.1857 H   0  0  0  0  0  0  0  0  0  0  0  0
    2.7158   -1.2006    2.1360 H   0  0  0  0  0  0  0  0  0  0  0  0
    1.1370   -0.4516    2.3240 H   0  0  0  0  0  0  0  0  0  0  0  0
    1.2816   -2.1390    1.8072 H   0  0  0  0  0  0  0  0  0  0  0  0
    4.4075   -2.5759   -1.1064 H   0  0  0  0  0  0  0  0  0  0  0  0
    4.1778   -2.2571    0.6177 H   0  0  0  0  0  0  0  0  0  0  0  0
   -6.5690    0.8432    0.8445 H   0  0  0  0  0  0  0  0  0  0  0  0
   -6.6318    0.8740   -0.9553 H   0  0  0  0  0  0  0  0  0  0  0  0
   -7.3664   -0.4555   -0.0613 H   0  0  0  0  0  0  0  0  0  0  0  0
  1 22  1  0  0  0  0
  2 22  1  0  0  0  0
  3 21  2  0  0  0  0
  4 24  2  0  0  0  0
  5  6  1  0  0  0  0
  5 10  1  0  0  0  0
  5 11  1  0  0  0  0
  5 16  1  0  0  0  0
  6  7  1  0  0  0  0
  6 13  1  0  0  0  0
  6 26  1  0  0  0  0
  7  8  1  0  0  0  0
  7 15  1  0  0  0  0
  7 27  1  0  0  0  0
  8  9  1  0  0  0  0
  8 12  1  0  0  0  0
  8 28  1  0  0  0  0
  9 17  1  0  0  0  0
  9 18  1  0  0  0  0
  9 20  1  0  0  0  0
 10 14  1  0  0  0  0
 10 21  1  0  0  0  0
 10 29  1  0  0  0  0
 11 12  1  0  0  0  0
 11 30  1  0  0  0  0
 11 31  1  0  0  0  0
 12 32  1  0  0  0  0
 12 33  1  0  0  0  0
 13 14  1  0  0  0  0
 13 34  1  0  0  0  0
 13 35  1  0  0  0  0
 14 36  1  0  0  0  0
 14 37  1  0  0  0  0
 15 19  1  0  0  0  0
 15 38  1  0  0  0  0
 15 39  1  0  0  0  0
 16 40  1  0  0  0  0
 16 41  1  0  0  0  0
 16 42  1  0  0  0  0
 17 19  2  0  0  0  0
 17 22  1  0  0  0  0
 18 23  1  0  0  0  0
 18 43  1  0  0  0  0
 18 44  1  0  0  0  0
 19 45  1  0  0  0  0
 20 46  1  0  0  0  0
 20 47  1  0  0  0  0
 20 48  1  0  0  0  0
 21 25  1  0  0  0  0
 22 24  1  0  0  0  0
 23 24  1  0  0  0  0
 23 49  1  0  0  0  0
 23 50  1  0  0  0  0
 25 51  1  0  0  0  0
 25 52  1  0  0  0  0
 25 53  1  0  0  0  0
M  END
> <PUBCHEM_COMPOUND_CID>
242128

> <PUBCHEM_CONFORMER_RMSD>
0.6

> <PUBCHEM_CONFORMER_DIVERSEORDER>
3
2
1
4

> <PUBCHEM_MMFF94_PARTIAL_CHARGES>
15
1 -0.34
10 0.06
15 0.14
17 -0.28
19 -0.29
2 -0.34
21 0.45
22 0.88
23 0.06
24 0.45
25 0.06
3 -0.57
4 -0.57
45 0.15
9 0.14

> <PUBCHEM_EFFECTIVE_ROTOR_COUNT>
2.8

> <PUBCHEM_PHARMACOPHORE_FEATURES>
6
1 3 acceptor
1 4 acceptor
5 5 6 10 13 14 rings
6 5 6 7 8 11 12 rings
6 7 8 9 15 17 19 rings
6 9 17 18 22 23 24 rings

> <PUBCHEM_HEAVY_ATOM_COUNT>
25

> <PUBCHEM_ATOM_DEF_STEREO_COUNT>
6

> <PUBCHEM_ATOM_UDEF_STEREO_COUNT>
0

> <PUBCHEM_BOND_DEF_STEREO_COUNT>
0

> <PUBCHEM_BOND_UDEF_STEREO_COUNT>
0

> <PUBCHEM_ISOTOPIC_ATOM_COUNT>
0

> <PUBCHEM_COMPONENT_COUNT>
1

> <PUBCHEM_CACTVS_TAUTO_COUNT>
6

> <PUBCHEM_CONFORMER_ID>
0003B1D000000003

> <PUBCHEM_MMFF94_ENERGY>
72.208

> <PUBCHEM_FEATURE_SELFOVERLAP>
30.543

> <PUBCHEM_SHAPE_FINGERPRINT>
10 15 18338808814880146664
10366900 7 17704351069730133945
10498660 4 18341899652906675685
10906281 52 18270664455607807697
11578080 2 16662630747909653843
12011746 2 18413387648650547687
12107183 9 17621608636705484217
12166972 35 17894910719974787681
12236239 1 17847061103668448302
12403259 415 18260274070308827081
12788726 201 18270403913953986841
12916748 109 18410293609691649520
13140716 1 18050857623579935776
13224815 77 18272091620993649352
13402501 40 18410855468823591637
13533116 47 17312819402811214030
13583140 156 14189278340547458597
14341114 176 18410851071278201277
14790565 3 18337104661624229421
15196674 1 18410012173580816613
15536298 74 18334016111833534692
15788980 27 18411418414387106437
16945 1 18337951191082600468
17349148 13 18131353003230844501
17844677 252 18334007315519414625
1813 80 17489587870060534932
19141452 34 18187367593206808303
19591789 44 18338517572419843078
200 152 18113621188195241849
20645477 70 18261955245141544150
21033648 29 17749968737883234233
21033650 10 16915368042792458020
21267235 1 18408878560039356486
21279426 13 18266459999724532421
21682296 61 18115296916292665734
221357 26 18335702766696666949
22393880 68 18128260175700527157
23402539 116 18335427833693373309
23557571 272 18334286591377456748
23559900 14 18339929216886042849
239999 70 18410292523666427350
2871803 45 18273216408482986696
296302 2 15051727595058497432
3004659 81 18343863329656385612
335352 9 18409448076659988214
34797466 226 17822004285943949052
34934 24 18410017598229947982
350125 39 18410008858335854821
3545911 37 18334857216437533238
4073 2 18202276970921603427
4214541 1 18410012173776125333
4340502 62 16630528444742425299
474 4 17703503308032497172
5104073 3 18335705000116344497
5283173 99 18200037386032201541
542803 24 14692574325200658741
633830 44 18131633370485684102
9709674 26 18341891862147068115
9981440 41 17186165266907527457

> <PUBCHEM_SHAPE_MULTIPOLES>
488.2
12.24
2.13
1.05
4.57
0.33
-0.37
-0.77
1.1
-0.14
0.17
-0.56
-0.22
0.47

> <PUBCHEM_SHAPE_SELFOVERLAP>
1054.949

> <PUBCHEM_SHAPE_VOLUME>
269.2

> <PUBCHEM_COORDINATE_TYPE>
2
5
10

$$$$

