443727
  -OEChem-07051213032D

 46 49  0     1  0  0  0  0  0999 V2000
    5.5301    2.6176    0.0000 O   0  0  0  0  0  0  0  0  0  0  0  0
    8.1821   -1.9276    0.0000 O   0  0  0  0  0  0  0  0  0  0  0  0
    2.0000   -0.4066    0.0000 O   0  0  0  0  0  0  0  0  0  0  0  0
    2.0000    1.6417    0.0000 O   0  0  0  0  0  0  0  0  0  0  0  0
    6.3961    1.1176    0.0000 N   0  0  3  0  0  0  0  0  0  0  0  0
    5.5301   -0.3825    0.0000 C   0  0  1  0  0  0  0  0  0  0  0  0
    6.3961    0.1175    0.0000 C   0  0  3  0  0  0  0  0  0  0  0  0
    5.4167    0.2211    0.0000 C   0  0  0  0  0  0  0  0  0  0  0  0
    5.8167    0.9140    0.0000 C   0  0  0  0  0  0  0  0  0  0  0  0
    7.3062   -0.3893    0.0000 C   0  0  0  0  0  0  0  0  0  0  0  0
    4.6641    0.1175    0.0000 C   0  0  0  0  0  0  0  0  0  0  0  0
    5.5301    1.6176    0.0000 C   0  0  3  0  0  0  0  0  0  0  0  0
    5.5141   -1.4240    0.0000 C   0  0  0  0  0  0  0  0  0  0  0  0
    4.6641    1.1176    0.0000 C   0  0  0  0  0  0  0  0  0  0  0  0
    7.3142   -1.4309    0.0000 C   0  0  1  0  0  0  0  0  0  0  0  0
    6.4121   -1.9517    0.0000 C   0  0  0  0  0  0  0  0  0  0  0  0
    3.7702   -0.4171    0.0000 C   0  0  0  0  0  0  0  0  0  0  0  0
    3.7702    1.6522    0.0000 C   0  0  0  0  0  0  0  0  0  0  0  0
    2.8641    0.0967    0.0000 C   0  0  0  0  0  0  0  0  0  0  0  0
    2.8641    1.1384    0.0000 C   0  0  0  0  0  0  0  0  0  0  0  0
    8.1860   -2.9276    0.0000 C   0  0  0  0  0  0  0  0  0  0  0  0
    2.0038   -1.4066    0.0000 C   0  0  0  0  0  0  0  0  0  0  0  0
    2.0038    2.6417    0.0000 C   0  0  0  0  0  0  0  0  0  0  0  0
    6.9307    0.4317    0.0000 H   0  0  0  0  0  0  0  0  0  0  0  0
    4.9896    0.6705    0.0000 H   0  0  0  0  0  0  0  0  0  0  0  0
    4.8648   -0.0612    0.0000 H   0  0  0  0  0  0  0  0  0  0  0  0
    5.7853    1.5332    0.0000 H   0  0  0  0  0  0  0  0  0  0  0  0
    5.2140    1.0592    0.0000 H   0  0  0  0  0  0  0  0  0  0  0  0
    7.9178   -0.4907    0.0000 H   0  0  0  0  0  0  0  0  0  0  0  0
    7.5107    0.1960    0.0000 H   0  0  0  0  0  0  0  0  0  0  0  0
    4.9932    1.9276    0.0000 H   0  0  0  0  0  0  0  0  0  0  0  0
    4.9736   -1.7277    0.0000 H   0  0  0  0  0  0  0  0  0  0  0  0
    7.3154   -2.0509    0.0000 H   0  0  0  0  0  0  0  0  0  0  0  0
    6.4097   -2.5717    0.0000 H   0  0  0  0  0  0  0  0  0  0  0  0
    3.7773   -1.0371    0.0000 H   0  0  0  0  0  0  0  0  0  0  0  0
    3.7773    2.2722    0.0000 H   0  0  0  0  0  0  0  0  0  0  0  0
    6.0671    2.9276    0.0000 H   0  0  0  0  0  0  0  0  0  0  0  0
    7.5660   -2.9299    0.0000 H   0  0  0  0  0  0  0  0  0  0  0  0
    8.1884   -3.5475    0.0000 H   0  0  0  0  0  0  0  0  0  0  0  0
    8.8060   -2.9252    0.0000 H   0  0  0  0  0  0  0  0  0  0  0  0
    1.3839   -1.4090    0.0000 H   0  0  0  0  0  0  0  0  0  0  0  0
    2.0062   -2.0266    0.0000 H   0  0  0  0  0  0  0  0  0  0  0  0
    2.6238   -1.4042    0.0000 H   0  0  0  0  0  0  0  0  0  0  0  0
    2.6238    2.6393    0.0000 H   0  0  0  0  0  0  0  0  0  0  0  0
    2.0062    3.2617    0.0000 H   0  0  0  0  0  0  0  0  0  0  0  0
    1.3839    2.6441    0.0000 H   0  0  0  0  0  0  0  0  0  0  0  0
  1 12  1  0  0  0  0
  1 37  1  0  0  0  0
 15  2  1  6  0  0  0
  2 21  1  0  0  0  0
  3 19  1  0  0  0  0
  3 22  1  0  0  0  0
  4 20  1  0  0  0  0
  4 23  1  0  0  0  0
  5  7  1  0  0  0  0
  5  9  1  0  0  0  0
  5 12  1  0  0  0  0
  6  7  1  0  0  0  0
  6  8  1  0  0  0  0
  6 11  1  0  0  0  0
  6 13  1  1  0  0  0
  7 10  1  0  0  0  0
  7 24  1  0  0  0  0
  8  9  1  0  0  0  0
  8 25  1  0  0  0  0
  8 26  1  0  0  0  0
  9 27  1  0  0  0  0
  9 28  1  0  0  0  0
 10 15  1  0  0  0  0
 10 29  1  0  0  0  0
 10 30  1  0  0  0  0
 11 14  1  0  0  0  0
 11 17  2  0  0  0  0
 12 14  1  0  0  0  0
 12 31  1  0  0  0  0
 13 16  2  0  0  0  0
 13 32  1  0  0  0  0
 14 18  2  0  0  0  0
 15 16  1  0  0  0  0
 15 33  1  0  0  0  0
 16 34  1  0  0  0  0
 17 19  1  0  0  0  0
 17 35  1  0  0  0  0
 18 20  1  0  0  0  0
 18 36  1  0  0  0  0
 19 20  2  0  0  0  0
 21 38  1  0  0  0  0
 21 39  1  0  0  0  0
 21 40  1  0  0  0  0
 22 41  1  0  0  0  0
 22 42  1  0  0  0  0
 22 43  1  0  0  0  0
 23 44  1  0  0  0  0
 23 45  1  0  0  0  0
 23 46  1  0  0  0  0
M  END
> <PUBCHEM_COMPOUND_CID>
443727

> <PUBCHEM_COMPOUND_CANONICALIZED>
1

> <PUBCHEM_CACTVS_COMPLEXITY>
484

> <PUBCHEM_CACTVS_HBOND_ACCEPTOR>
5

> <PUBCHEM_CACTVS_HBOND_DONOR>
1

> <PUBCHEM_CACTVS_ROTATABLE_BOND>
3

> <PUBCHEM_CACTVS_SUBSKEYS>
AAADceB6OAAAAAAAAAAAAAAAAAAAAWAAAAA8QIAABYAAAECxAAAAHgAACAAADjzhmAYyBoMABgCAAiBCAACCCAAgIAAIiAAOjIgNNiKEsRuEcCpmwBGKuAfw8P8PoAABAAAQQABAAAIAACCAAAAAAAAAAA==

> <PUBCHEM_IUPAC_INCHI>
InChI=1S/C18H23NO4/c1-21-11-4-5-18-6-7-19(16(18)8-11)17(20)12-9-14(22-2)15(23-3)10-13(12)18/h4-5,9-11,16-17,20H,6-8H2,1-3H3/t11-,16?,17?,18+/m1/s1

> <PUBCHEM_IUPAC_INCHIKEY>
JFWCEOZJEWNPOW-GQOQCBKBSA-N

> <PUBCHEM_XLOGP3_AA>
1.8

> <PUBCHEM_EXACT_MASS>
317.162708

> <PUBCHEM_MOLECULAR_FORMULA>
C18H23NO4

> <PUBCHEM_MOLECULAR_WEIGHT>
317.37952

> <PUBCHEM_OPENEYE_CAN_SMILES>
COC1CC2C3(CCN2C(C4=CC(=C(C=C43)OC)OC)O)C=C1

> <PUBCHEM_OPENEYE_ISO_SMILES>
CO[C@H]1CC2[C@]3(CCN2C(C4=CC(=C(C=C43)OC)OC)O)C=C1

> <PUBCHEM_CACTVS_TPSA>
51.2

> <PUBCHEM_MONOISOTOPIC_WEIGHT>
317.162708

> <PUBCHEM_TOTAL_CHARGE>
0

> <PUBCHEM_HEAVY_ATOM_COUNT>
23

> <PUBCHEM_ATOM_DEF_STEREO_COUNT>
2

> <PUBCHEM_ATOM_UDEF_STEREO_COUNT>
2

> <PUBCHEM_BOND_DEF_STEREO_COUNT>
0

> <PUBCHEM_BOND_UDEF_STEREO_COUNT>
0

> <PUBCHEM_ISOTOPIC_ATOM_COUNT>
0

> <PUBCHEM_COMPONENT_COUNT>
1

> <PUBCHEM_CACTVS_TAUTO_COUNT>
1

> <PUBCHEM_COORDINATE_TYPE>
1
5
255

> <PUBCHEM_BONDANNOTATIONS>
12  1  3
11  14  8
11  17  8
14  18  8
17  19  8
18  20  8
19  20  8
15  2  6
6  13  5
7  10  3

$$$$

