60352
  -OEChem-07051213003D

 33 34  0     1  0  0  0  0  0999 V2000
    3.1845   -1.3588   -0.3154 O   0  0  0  0  0  0  0  0  0  0  0  0
   -0.3013   -1.1916   -1.3864 O   0  0  0  0  0  0  0  0  0  0  0  0
    3.0051    1.5377   -0.5279 N   0  0  0  0  0  0  0  0  0  0  0  0
   -1.2648   -0.5086    0.6486 N   0  0  0  0  0  0  0  0  0  0  0  0
    1.2662   -4.0714    0.3908 N   0  0  0  0  0  0  0  0  0  0  0  0
    2.2988    0.7496    0.3029 C   0  0  0  0  0  0  0  0  0  0  0  0
    0.9808   -1.4586    0.6285 C   0  0  1  0  0  0  0  0  0  0  0  0
    2.2466   -0.7196    0.1683 C   0  0  0  0  0  0  0  0  0  0  0  0
    1.6695    1.4838    1.2457 C   0  0  0  0  0  0  0  0  0  0  0  0
    2.8381    2.8366   -0.1236 C   0  0  0  0  0  0  0  0  0  0  0  0
    2.0119    2.8324    0.9786 C   0  0  0  0  0  0  0  0  0  0  0  0
   -0.2555   -1.0404   -0.1682 C   0  0  0  0  0  0  0  0  0  0  0  0
    3.8087    1.1267   -1.6581 C   0  0  0  0  0  0  0  0  0  0  0  0
   -2.5186   -0.0293    0.2678 C   0  0  0  0  0  0  0  0  0  0  0  0
   -3.3975    0.4666    1.2308 C   0  0  0  0  0  0  0  0  0  0  0  0
   -2.8929   -0.0450   -1.0759 C   0  0  0  0  0  0  0  0  0  0  0  0
    1.1425   -2.9220    0.4931 C   0  0  0  0  0  0  0  0  0  0  0  0
   -4.6508    0.9463    0.8503 C   0  0  0  0  0  0  0  0  0  0  0  0
   -4.1462    0.4349   -1.4564 C   0  0  0  0  0  0  0  0  0  0  0  0
   -5.0251    0.9306   -0.4932 C   0  0  0  0  0  0  0  0  0  0  0  0
    0.8500   -1.2427    1.6954 H   0  0  0  0  0  0  0  0  0  0  0  0
    1.0379    1.1320    2.0490 H   0  0  0  0  0  0  0  0  0  0  0  0
    3.3165    3.6548   -0.6452 H   0  0  0  0  0  0  0  0  0  0  0  0
    1.6927    3.7057    1.5298 H   0  0  0  0  0  0  0  0  0  0  0  0
    4.6931    0.6059   -1.2833 H   0  0  0  0  0  0  0  0  0  0  0  0
    3.2087    0.4779   -2.3012 H   0  0  0  0  0  0  0  0  0  0  0  0
    4.1157    2.0101   -2.2247 H   0  0  0  0  0  0  0  0  0  0  0  0
   -1.0730   -0.4581    1.6465 H   0  0  0  0  0  0  0  0  0  0  0  0
   -3.1190    0.4854    2.2814 H   0  0  0  0  0  0  0  0  0  0  0  0
   -2.2691   -0.4107   -1.8792 H   0  0  0  0  0  0  0  0  0  0  0  0
   -5.3352    1.3325    1.6001 H   0  0  0  0  0  0  0  0  0  0  0  0
   -4.4389    0.4235   -2.5024 H   0  0  0  0  0  0  0  0  0  0  0  0
   -6.0008    1.3042   -0.7896 H   0  0  0  0  0  0  0  0  0  0  0  0
  1  8  2  0  0  0  0
  2 12  2  0  0  0  0
  3  6  1  0  0  0  0
  3 10  1  0  0  0  0
  3 13  1  0  0  0  0
  4 12  1  0  0  0  0
  4 14  1  0  0  0  0
  4 28  1  0  0  0  0
  5 17  3  0  0  0  0
  6  8  1  0  0  0  0
  6  9  2  0  0  0  0
  7  8  1  0  0  0  0
  7 12  1  0  0  0  0
  7 17  1  0  0  0  0
  7 21  1  0  0  0  0
  9 11  1  0  0  0  0
  9 22  1  0  0  0  0
 10 11  2  0  0  0  0
 10 23  1  0  0  0  0
 11 24  1  0  0  0  0
 13 25  1  0  0  0  0
 13 26  1  0  0  0  0
 13 27  1  0  0  0  0
 14 15  2  0  0  0  0
 14 16  1  0  0  0  0
 15 18  1  0  0  0  0
 15 29  1  0  0  0  0
 16 19  2  0  0  0  0
 16 30  1  0  0  0  0
 18 20  2  0  0  0  0
 18 31  1  0  0  0  0
 19 20  1  0  0  0  0
 19 32  1  0  0  0  0
 20 33  1  0  0  0  0
M  END
> <PUBCHEM_COMPOUND_CID>
60352

> <PUBCHEM_CONFORMER_RMSD>
0.8

> <PUBCHEM_CONFORMER_DIVERSEORDER>
6
98
76
112
78
66
15
71
91
73
18
113
97
107
46
64
28
19
109
56
105
95
83
65
36
21
44
8
16
41
29
25
50
74
84
108
68
27
80
5
24
102
99
34
86
53
111
87
89
33
49
106
110
40
81
114
100
58
2
75
94
70
63
101
52
23
26
31
55
103
57
59
90
10
61
43
60
69
37
104
77
82
11
39
38
96
88
12
4
67
20
93
3
62
30
17
54
9
13
45
92
35
14
79
72
7
22
48
42
32
51
1
47
85

> <PUBCHEM_MMFF94_PARTIAL_CHARGES>
29
1 -0.57
10 -0.3
11 -0.15
12 0.57
13 0.26
14 0.12
15 -0.15
16 -0.15
17 0.36
18 -0.15
19 -0.15
2 -0.57
20 -0.15
22 0.15
23 0.15
24 0.15
28 0.37
29 0.15
3 0.05
30 0.15
31 0.15
32 0.15
33 0.15
4 -0.55
5 -0.56
6 -0.24
7 0.32
8 0.59
9 -0.15

> <PUBCHEM_EFFECTIVE_ROTOR_COUNT>
5

> <PUBCHEM_PHARMACOPHORE_FEATURES>
8
1 1 acceptor
1 2 acceptor
1 3 cation
1 4 donor
1 5 acceptor
1 7 anion
5 3 6 9 10 11 rings
6 14 15 16 18 19 20 rings

> <PUBCHEM_HEAVY_ATOM_COUNT>
20

> <PUBCHEM_ATOM_DEF_STEREO_COUNT>
0

> <PUBCHEM_ATOM_UDEF_STEREO_COUNT>
1

> <PUBCHEM_BOND_DEF_STEREO_COUNT>
0

> <PUBCHEM_BOND_UDEF_STEREO_COUNT>
0

> <PUBCHEM_ISOTOPIC_ATOM_COUNT>
0

> <PUBCHEM_COMPONENT_COUNT>
1

> <PUBCHEM_CACTVS_TAUTO_COUNT>
5

> <PUBCHEM_CONFORMER_ID>
0000EBC000000006

> <PUBCHEM_MMFF94_ENERGY>
46.0377

> <PUBCHEM_FEATURE_SELFOVERLAP>
40.594

> <PUBCHEM_SHAPE_FINGERPRINT>
10165383 225 18200858592163000220
10366900 7 18131064991561816147
10498660 4 18340491045615785549
11595378 159 14836410250419120829
12730499 353 18341606006541125139
12895836 83 17700388323014203324
13009979 54 17388535183893982291
13134695 92 18195538218341321959
13140716 1 18340494378346604442
13464514 151 18189893111634537252
13583140 156 18341612672541663607
13878862 14 18054810617913742269
14178000 15 17978798126977399906
17134986 127 18339361847184154244
17868525 174 17766286749081391441
1813 80 17682676581543171854
18186145 218 18261107426876063625
20671657 1 18334864925993597715
21041028 32 17834965539317993634
21524375 3 18262523589215088918
21639500 275 18338809982535984191
22289505 5 18124885808927440037
2255824 54 18335988652578650659
22892500 29 18342183314158812111
23559900 14 16128096792530455243
238 59 18334852788320879058
25 1 18338228280866007944
2637199 183 18261945276089803268
3060560 45 18408888438495681806
341906 21 15769504213652341789
350125 39 18268423525829250442
474 4 18409736140475304649
49207404 50 18129654197836693001
633830 44 18187639163878320205
6442390 28 18198051482963683315
7471813 234 18044669816957248890
7808743 9 17768523885787460348
81228 2 17333928656181072458
9971528 1 18042131006471155018

> <PUBCHEM_SHAPE_MULTIPOLES>
384.91
8.55
3.34
1.34
9.59
2.25
-0.29
-5.04
-1.76
-4.13
0.78
0.26
-0.36
-0.27

> <PUBCHEM_SHAPE_SELFOVERLAP>
823.142

> <PUBCHEM_SHAPE_VOLUME>
211.7

> <PUBCHEM_COORDINATE_TYPE>
2
5
10

$$$$

