583028
  -OEChem-06241222442D

110112  0     1  0  0  0  0  0999 V2000
    8.9887    3.0762    0.0000 Si  0  0  0  0  0  0  0  0  0  0  0  0
    5.6494    6.7977    0.0000 Si  0  0  0  0  0  0  0  0  0  0  0  0
    5.4641   -6.5420    0.0000 Si  0  0  0  0  0  0  0  0  0  0  0  0
    8.0102    2.8700    0.0000 O   0  0  0  0  0  0  0  0  0  0  0  0
    6.3173    6.0534    0.0000 O   0  0  0  0  0  0  0  0  0  0  0  0
    5.4641   -5.5420    0.0000 O   0  0  0  0  0  0  0  0  0  0  0  0
    5.4641    0.4580    0.0000 C   0  0  3  0  0  0  0  0  0  0  0  0
    6.4103    0.7627    0.0000 C   0  0  3  0  0  0  0  0  0  0  0  0
    5.4641   -0.5420    0.0000 C   0  0  3  0  0  0  0  0  0  0  0  0
    6.9939   -0.0420    0.0000 C   0  0  0  0  0  0  0  0  0  0  0  0
    6.4103   -0.8467    0.0000 C   0  0  0  0  0  0  0  0  0  0  0  0
    4.5981    0.9580    0.0000 C   0  0  0  0  0  0  0  0  0  0  0  0
    6.7210    1.7132    0.0000 C   0  0  3  0  0  0  0  0  0  0  0  0
    4.5981   -1.0420    0.0000 C   0  0  0  0  0  0  0  0  0  0  0  0
    5.4641    1.4580    0.0000 C   0  0  0  0  0  0  0  0  0  0  0  0
    3.7321    0.4580    0.0000 C   0  0  0  0  0  0  0  0  0  0  0  0
    3.7321   -0.5420    0.0000 C   0  0  0  0  0  0  0  0  0  0  0  0
    6.0531    2.4575    0.0000 C   0  0  0  0  0  0  0  0  0  0  0  0
    7.6995    1.9195    0.0000 C   0  0  0  0  0  0  0  0  0  0  0  0
    4.5981   -2.0420    0.0000 C   0  0  0  0  0  0  0  0  0  0  0  0
    6.3638    3.4081    0.0000 C   0  0  0  0  0  0  0  0  0  0  0  0
    5.6960    4.1524    0.0000 C   0  0  0  0  0  0  0  0  0  0  0  0
    3.7321   -2.5420    0.0000 C   0  0  0  0  0  0  0  0  0  0  0  0
    6.0066    5.1029    0.0000 C   0  0  0  0  0  0  0  0  0  0  0  0
    3.7321   -3.5420    0.0000 C   0  0  0  0  0  0  0  0  0  0  0  0
    9.9672    3.2824    0.0000 C   0  0  0  0  0  0  0  0  0  0  0  0
    8.7824    4.0547    0.0000 C   0  0  0  0  0  0  0  0  0  0  0  0
    9.1949    2.0977    0.0000 C   0  0  0  0  0  0  0  0  0  0  0  0
    5.0561    5.4135    0.0000 C   0  0  0  0  0  0  0  0  0  0  0  0
    6.9571    4.7922    0.0000 C   0  0  0  0  0  0  0  0  0  0  0  0
    4.5981   -4.0420    0.0000 C   0  0  0  0  0  0  0  0  0  0  0  0
    2.8660   -4.0420    0.0000 C   0  0  0  0  0  0  0  0  0  0  0  0
    4.5981   -5.0420    0.0000 C   0  0  3  0  0  0  0  0  0  0  0  0
    2.8660   -5.0420    0.0000 C   0  0  0  0  0  0  0  0  0  0  0  0
    3.7321   -5.5420    0.0000 C   0  0  0  0  0  0  0  0  0  0  0  0
    2.0000   -3.5420    0.0000 C   0  0  0  0  0  0  0  0  0  0  0  0
    4.9816    7.5420    0.0000 C   0  0  0  0  0  0  0  0  0  0  0  0
    6.3937    7.4656    0.0000 C   0  0  0  0  0  0  0  0  0  0  0  0
    4.9051    6.1299    0.0000 C   0  0  0  0  0  0  0  0  0  0  0  0
    5.4641   -7.5420    0.0000 C   0  0  0  0  0  0  0  0  0  0  0  0
    6.4641   -6.5420    0.0000 C   0  0  0  0  0  0  0  0  0  0  0  0
    4.4641   -6.5420    0.0000 C   0  0  0  0  0  0  0  0  0  0  0  0
    7.0228    0.8589    0.0000 H   0  0  0  0  0  0  0  0  0  0  0  0
    5.5297   -1.1585    0.0000 H   0  0  0  0  0  0  0  0  0  0  0  0
    7.4548   -0.4567    0.0000 H   0  0  0  0  0  0  0  0  0  0  0  0
    7.4548    0.3727    0.0000 H   0  0  0  0  0  0  0  0  0  0  0  0
    6.1593   -1.4136    0.0000 H   0  0  0  0  0  0  0  0  0  0  0  0
    6.9477   -1.1560    0.0000 H   0  0  0  0  0  0  0  0  0  0  0  0
    4.9966    1.4329    0.0000 H   0  0  0  0  0  0  0  0  0  0  0  0
    4.1995    1.4329    0.0000 H   0  0  0  0  0  0  0  0  0  0  0  0
    6.1143    1.5854    0.0000 H   0  0  0  0  0  0  0  0  0  0  0  0
    6.0841    1.4580    0.0000 H   0  0  0  0  0  0  0  0  0  0  0  0
    5.4641    2.0780    0.0000 H   0  0  0  0  0  0  0  0  0  0  0  0
    4.8441    1.4580    0.0000 H   0  0  0  0  0  0  0  0  0  0  0  0
    3.5200    1.0406    0.0000 H   0  0  0  0  0  0  0  0  0  0  0  0
    3.1215    0.3503    0.0000 H   0  0  0  0  0  0  0  0  0  0  0  0
    3.1215   -0.4343    0.0000 H   0  0  0  0  0  0  0  0  0  0  0  0
    3.5200   -1.1246    0.0000 H   0  0  0  0  0  0  0  0  0  0  0  0
    5.5062    2.7496    0.0000 H   0  0  0  0  0  0  0  0  0  0  0  0
    5.6706    1.9696    0.0000 H   0  0  0  0  0  0  0  0  0  0  0  0
    7.7201    1.2998    0.0000 H   0  0  0  0  0  0  0  0  0  0  0  0
    8.3133    1.8321    0.0000 H   0  0  0  0  0  0  0  0  0  0  0  0
    5.1350   -2.3520    0.0000 H   0  0  0  0  0  0  0  0  0  0  0  0
    6.9107    3.1160    0.0000 H   0  0  0  0  0  0  0  0  0  0  0  0
    6.7464    3.8960    0.0000 H   0  0  0  0  0  0  0  0  0  0  0  0
    5.1490    4.4444    0.0000 H   0  0  0  0  0  0  0  0  0  0  0  0
    5.3134    3.6645    0.0000 H   0  0  0  0  0  0  0  0  0  0  0  0
    3.1951   -2.2320    0.0000 H   0  0  0  0  0  0  0  0  0  0  0  0
   10.0950    2.6757    0.0000 H   0  0  0  0  0  0  0  0  0  0  0  0
   10.5738    3.4103    0.0000 H   0  0  0  0  0  0  0  0  0  0  0  0
    9.8393    3.8891    0.0000 H   0  0  0  0  0  0  0  0  0  0  0  0
    9.3891    4.1826    0.0000 H   0  0  0  0  0  0  0  0  0  0  0  0
    8.6546    4.6614    0.0000 H   0  0  0  0  0  0  0  0  0  0  0  0
    8.1758    3.9269    0.0000 H   0  0  0  0  0  0  0  0  0  0  0  0
    8.5882    1.9698    0.0000 H   0  0  0  0  0  0  0  0  0  0  0  0
    9.3227    1.4910    0.0000 H   0  0  0  0  0  0  0  0  0  0  0  0
    9.8015    2.2255    0.0000 H   0  0  0  0  0  0  0  0  0  0  0  0
    5.2487    6.0029    0.0000 H   0  0  0  0  0  0  0  0  0  0  0  0
    4.4668    5.6062    0.0000 H   0  0  0  0  0  0  0  0  0  0  0  0
    4.8635    4.8242    0.0000 H   0  0  0  0  0  0  0  0  0  0  0  0
    6.7645    4.2029    0.0000 H   0  0  0  0  0  0  0  0  0  0  0  0
    7.5465    4.5996    0.0000 H   0  0  0  0  0  0  0  0  0  0  0  0
    7.1498    5.3815    0.0000 H   0  0  0  0  0  0  0  0  0  0  0  0
    5.2087   -4.1497    0.0000 H   0  0  0  0  0  0  0  0  0  0  0  0
    4.8101   -3.4594    0.0000 H   0  0  0  0  0  0  0  0  0  0  0  0
    4.5981   -5.6620    0.0000 H   0  0  0  0  0  0  0  0  0  0  0  0
    2.2554   -4.9343    0.0000 H   0  0  0  0  0  0  0  0  0  0  0  0
    2.6540   -5.6246    0.0000 H   0  0  0  0  0  0  0  0  0  0  0  0
    3.3335   -6.0170    0.0000 H   0  0  0  0  0  0  0  0  0  0  0  0
    4.1306   -6.0170    0.0000 H   0  0  0  0  0  0  0  0  0  0  0  0
    2.0000   -2.9220    0.0000 H   0  0  0  0  0  0  0  0  0  0  0  0
    1.4631   -3.8520    0.0000 H   0  0  0  0  0  0  0  0  0  0  0  0
    5.4431    7.9561    0.0000 H   0  0  0  0  0  0  0  0  0  0  0  0
    4.5675    8.0035    0.0000 H   0  0  0  0  0  0  0  0  0  0  0  0
    4.5201    7.1279    0.0000 H   0  0  0  0  0  0  0  0  0  0  0  0
    6.8078    7.0041    0.0000 H   0  0  0  0  0  0  0  0  0  0  0  0
    6.8552    7.8796    0.0000 H   0  0  0  0  0  0  0  0  0  0  0  0
    5.9797    7.9270    0.0000 H   0  0  0  0  0  0  0  0  0  0  0  0
    4.4911    6.5913    0.0000 H   0  0  0  0  0  0  0  0  0  0  0  0
    4.4437    5.7158    0.0000 H   0  0  0  0  0  0  0  0  0  0  0  0
    5.3192    5.6684    0.0000 H   0  0  0  0  0  0  0  0  0  0  0  0
    4.8441   -7.5420    0.0000 H   0  0  0  0  0  0  0  0  0  0  0  0
    5.4641   -8.1620    0.0000 H   0  0  0  0  0  0  0  0  0  0  0  0
    6.0841   -7.5420    0.0000 H   0  0  0  0  0  0  0  0  0  0  0  0
    6.4641   -7.1620    0.0000 H   0  0  0  0  0  0  0  0  0  0  0  0
    7.0841   -6.5420    0.0000 H   0  0  0  0  0  0  0  0  0  0  0  0
    6.4641   -5.9220    0.0000 H   0  0  0  0  0  0  0  0  0  0  0  0
    4.4641   -5.9220    0.0000 H   0  0  0  0  0  0  0  0  0  0  0  0
    3.8441   -6.5420    0.0000 H   0  0  0  0  0  0  0  0  0  0  0  0
    4.4641   -7.1620    0.0000 H   0  0  0  0  0  0  0  0  0  0  0  0
  1  4  1  0  0  0  0
  1 26  1  0  0  0  0
  1 27  1  0  0  0  0
  1 28  1  0  0  0  0
  2  5  1  0  0  0  0
  2 37  1  0  0  0  0
  2 38  1  0  0  0  0
  2 39  1  0  0  0  0
  3  6  1  0  0  0  0
  3 40  1  0  0  0  0
  3 41  1  0  0  0  0
  3 42  1  0  0  0  0
  4 19  1  0  0  0  0
  5 24  1  0  0  0  0
  6 33  1  0  0  0  0
  7  8  1  0  0  0  0
  7  9  1  0  0  0  0
  7 12  1  0  0  0  0
  7 15  1  0  0  0  0
  8 10  1  0  0  0  0
  8 13  1  0  0  0  0
  8 43  1  0  0  0  0
  9 11  1  0  0  0  0
  9 14  1  0  0  0  0
  9 44  1  0  0  0  0
 10 11  1  0  0  0  0
 10 45  1  0  0  0  0
 10 46  1  0  0  0  0
 11 47  1  0  0  0  0
 11 48  1  0  0  0  0
 12 16  1  0  0  0  0
 12 49  1  0  0  0  0
 12 50  1  0  0  0  0
 13 18  1  0  0  0  0
 13 19  1  0  0  0  0
 13 51  1  0  0  0  0
 14 17  1  0  0  0  0
 14 20  2  3  0  0  0
 15 52  1  0  0  0  0
 15 53  1  0  0  0  0
 15 54  1  0  0  0  0
 16 17  1  0  0  0  0
 16 55  1  0  0  0  0
 16 56  1  0  0  0  0
 17 57  1  0  0  0  0
 17 58  1  0  0  0  0
 18 21  1  0  0  0  0
 18 59  1  0  0  0  0
 18 60  1  0  0  0  0
 19 61  1  0  0  0  0
 19 62  1  0  0  0  0
 20 23  1  0  0  0  0
 20 63  1  0  0  0  0
 21 22  1  0  0  0  0
 21 64  1  0  0  0  0
 21 65  1  0  0  0  0
 22 24  1  0  0  0  0
 22 66  1  0  0  0  0
 22 67  1  0  0  0  0
 23 25  2  3  0  0  0
 23 68  1  0  0  0  0
 24 29  1  0  0  0  0
 24 30  1  0  0  0  0
 25 31  1  0  0  0  0
 25 32  1  0  0  0  0
 26 69  1  0  0  0  0
 26 70  1  0  0  0  0
 26 71  1  0  0  0  0
 27 72  1  0  0  0  0
 27 73  1  0  0  0  0
 27 74  1  0  0  0  0
 28 75  1  0  0  0  0
 28 76  1  0  0  0  0
 28 77  1  0  0  0  0
 29 78  1  0  0  0  0
 29 79  1  0  0  0  0
 29 80  1  0  0  0  0
 30 81  1  0  0  0  0
 30 82  1  0  0  0  0
 30 83  1  0  0  0  0
 31 33  1  0  0  0  0
 31 84  1  0  0  0  0
 31 85  1  0  0  0  0
 32 34  1  0  0  0  0
 32 36  2  0  0  0  0
 33 35  1  0  0  0  0
 33 86  1  0  0  0  0
 34 35  1  0  0  0  0
 34 87  1  0  0  0  0
 34 88  1  0  0  0  0
 35 89  1  0  0  0  0
 35 90  1  0  0  0  0
 36 91  1  0  0  0  0
 36 92  1  0  0  0  0
 37 93  1  0  0  0  0
 37 94  1  0  0  0  0
 37 95  1  0  0  0  0
 38 96  1  0  0  0  0
 38 97  1  0  0  0  0
 38 98  1  0  0  0  0
 39 99  1  0  0  0  0
 39100  1  0  0  0  0
 39101  1  0  0  0  0
 40102  1  0  0  0  0
 40103  1  0  0  0  0
 40104  1  0  0  0  0
 41105  1  0  0  0  0
 41106  1  0  0  0  0
 41107  1  0  0  0  0
 42108  1  0  0  0  0
 42109  1  0  0  0  0
 42110  1  0  0  0  0
M  END
> <PUBCHEM_COMPOUND_CID>
583028

> <PUBCHEM_COMPOUND_CANONICALIZED>
1

> <PUBCHEM_CACTVS_COMPLEXITY>
978

> <PUBCHEM_CACTVS_HBOND_ACCEPTOR>
3

> <PUBCHEM_CACTVS_HBOND_DONOR>
0

> <PUBCHEM_CACTVS_ROTATABLE_BOND>
13

> <PUBCHEM_CACTVS_SUBSKEYS>
AAADcfB8MAwAAAAAAAAAAAAAAAAAAYAAAAAwYAAAAAAAAGAAAAAAGhAAAEAAD1SggAJCAAAAAAGAAiBCAAAAAAAgAAAACAAAAAgIAAIAAQAAAAAEwAAIgAOAwPAPgAAAAAAAAAAAAAAAACAAAQAACAAAAA==

> <PUBCHEM_IUPAC_OPENEYE_NAME>
[5-[7a-methyl-4-[2-(2-methylene-5-trimethylsilyloxy-cyclohexylidene)ethylidene]-2,3,3a,5,6,7-hexahydro-1H-inden-1-yl]-1,1-dimethyl-6-trimethylsilyloxy-hexoxy]-trimethyl-silane

> <PUBCHEM_IUPAC_CAS_NAME>
[3-[2-[7a-methyl-1-[6-methyl-1,6-bis(trimethylsilyloxy)heptan-2-yl]-2,3,3a,5,6,7-hexahydro-1H-inden-4-ylidene]ethylidene]-4-methylenecyclohexyl]oxy-trimethylsilane

> <PUBCHEM_IUPAC_NAME>
[3-[2-[7a-methyl-1-[6-methyl-1,6-bis(trimethylsilyloxy)heptan-2-yl]-2,3,3a,5,6,7-hexahydro-1H-inden-4-ylidene]ethylidene]-4-methylidenecyclohexyl]oxy-trimethylsilane

> <PUBCHEM_IUPAC_SYSTEMATIC_NAME>
[3-[2-[7a-methyl-1-[6-methyl-1,6-bis(trimethylsilyloxy)heptan-2-yl]-2,3,3a,5,6,7-hexahydro-1H-inden-4-ylidene]ethylidene]-4-methylidene-cyclohexyl]oxy-trimethyl-silane

> <PUBCHEM_IUPAC_TRADITIONAL_NAME>
[5-[7a-methyl-4-[2-(2-methylene-5-trimethylsilyloxy-cyclohexylidene)ethylidene]-2,3,3a,5,6,7-hexahydro-1H-inden-1-yl]-1,1-dimethyl-6-trimethylsilyloxy-hexoxy]-trimethyl-silane

> <PUBCHEM_IUPAC_INCHI>
InChI=1S/C36H68O3Si3/c1-28-18-21-32(38-41(8,9)10)26-30(28)20-19-29-16-15-25-36(4)33(29)22-23-34(36)31(27-37-40(5,6)7)17-14-24-35(2,3)39-42(11,12)13/h19-20,31-34H,1,14-18,21-27H2,2-13H3

> <PUBCHEM_IUPAC_INCHIKEY>
TZUKIDRDIKEQCR-UHFFFAOYSA-N

> <PUBCHEM_EXACT_MASS>
632.447626

> <PUBCHEM_MOLECULAR_FORMULA>
C36H68O3Si3

> <PUBCHEM_MOLECULAR_WEIGHT>
633.17982

> <PUBCHEM_OPENEYE_CAN_SMILES>
CC12CCCC(=CC=C3CC(CCC3=C)O[Si](C)(C)C)C1CCC2C(CCCC(C)(C)O[Si](C)(C)C)CO[Si](C)(C)C

> <PUBCHEM_OPENEYE_ISO_SMILES>
CC12CCCC(=CC=C3CC(CCC3=C)O[Si](C)(C)C)C1CCC2C(CCCC(C)(C)O[Si](C)(C)C)CO[Si](C)(C)C

> <PUBCHEM_CACTVS_TPSA>
27.7

> <PUBCHEM_MONOISOTOPIC_WEIGHT>
632.447626

> <PUBCHEM_TOTAL_CHARGE>
0

> <PUBCHEM_HEAVY_ATOM_COUNT>
42

> <PUBCHEM_ATOM_DEF_STEREO_COUNT>
0

> <PUBCHEM_ATOM_UDEF_STEREO_COUNT>
5

> <PUBCHEM_BOND_DEF_STEREO_COUNT>
0

> <PUBCHEM_BOND_UDEF_STEREO_COUNT>
2

> <PUBCHEM_ISOTOPIC_ATOM_COUNT>
0

> <PUBCHEM_COMPONENT_COUNT>
1

> <PUBCHEM_CACTVS_TAUTO_COUNT>
1

> <PUBCHEM_COORDINATE_TYPE>
1
5
255

> <PUBCHEM_BONDANNOTATIONS>
13  19  3
14  20  1
23  25  1
33  6  3
7  15  3
8  43  3
9  44  3

$$$$

