11617
  -OEChem-07051212553D

 17 16  0     0  0  0  0  0  0999 V2000
    0.0021   -0.6304    0.0019 S   0  0  0  0  0  0  0  0  0  0  0  0
   -1.3538    0.5536    0.2168 C   0  0  0  0  0  0  0  0  0  0  0  0
    1.3526    0.5504   -0.2205 C   0  0  0  0  0  0  0  0  0  0  0  0
   -2.6435   -0.1722    0.4277 C   0  0  0  0  0  0  0  0  0  0  0  0
    2.6432   -0.1753   -0.4265 C   0  0  0  0  0  0  0  0  0  0  0  0
   -3.7012   -0.0650   -0.3847 C   0  0  0  0  0  0  0  0  0  0  0  0
    3.7008   -0.0611    0.3852 C   0  0  0  0  0  0  0  0  0  0  0  0
   -1.1504    1.1789    1.0920 H   0  0  0  0  0  0  0  0  0  0  0  0
   -1.4032    1.2030   -0.6636 H   0  0  0  0  0  0  0  0  0  0  0  0
    1.1496    1.1700   -1.1000 H   0  0  0  0  0  0  0  0  0  0  0  0
    1.4023    1.2066    0.6550 H   0  0  0  0  0  0  0  0  0  0  0  0
   -2.7318   -0.8037    1.3088 H   0  0  0  0  0  0  0  0  0  0  0  0
    2.7325   -0.8125   -1.3034 H   0  0  0  0  0  0  0  0  0  0  0  0
   -4.6152   -0.6081   -0.1707 H   0  0  0  0  0  0  0  0  0  0  0  0
   -3.6758    0.5598   -1.2706 H   0  0  0  0  0  0  0  0  0  0  0  0
    4.6155   -0.6045    0.1748 H   0  0  0  0  0  0  0  0  0  0  0  0
    3.6745    0.5694    1.2670 H   0  0  0  0  0  0  0  0  0  0  0  0
  1  2  1  0  0  0  0
  1  3  1  0  0  0  0
  2  4  1  0  0  0  0
  2  8  1  0  0  0  0
  2  9  1  0  0  0  0
  3  5  1  0  0  0  0
  3 10  1  0  0  0  0
  3 11  1  0  0  0  0
  4  6  2  0  0  0  0
  4 12  1  0  0  0  0
  5  7  2  0  0  0  0
  5 13  1  0  0  0  0
  6 14  1  0  0  0  0
  6 15  1  0  0  0  0
  7 16  1  0  0  0  0
  7 17  1  0  0  0  0
M  END
> <PUBCHEM_COMPOUND_CID>
11617

> <PUBCHEM_CONFORMER_RMSD>
0.6

> <PUBCHEM_CONFORMER_DIVERSEORDER>
2
14
6
15
12
5
16
1
10
17
8
3
11
13
7
9
4

> <PUBCHEM_MMFF94_PARTIAL_CHARGES>
13
1 -0.46
12 0.15
13 0.15
14 0.15
15 0.15
16 0.15
17 0.15
2 0.37
3 0.37
4 -0.29
5 -0.29
6 -0.3
7 -0.3

> <PUBCHEM_EFFECTIVE_ROTOR_COUNT>
4

> <PUBCHEM_PHARMACOPHORE_FEATURES>
3
1 6 hydrophobe
1 7 hydrophobe
5 1 2 3 4 5 hydrophobe

> <PUBCHEM_HEAVY_ATOM_COUNT>
7

> <PUBCHEM_ATOM_DEF_STEREO_COUNT>
0

> <PUBCHEM_ATOM_UDEF_STEREO_COUNT>
0

> <PUBCHEM_BOND_DEF_STEREO_COUNT>
0

> <PUBCHEM_BOND_UDEF_STEREO_COUNT>
0

> <PUBCHEM_ISOTOPIC_ATOM_COUNT>
0

> <PUBCHEM_COMPONENT_COUNT>
1

> <PUBCHEM_CACTVS_TAUTO_COUNT>
1

> <PUBCHEM_CONFORMER_ID>
00002D6100000002

> <PUBCHEM_MMFF94_ENERGY>
3.6032

> <PUBCHEM_FEATURE_SELFOVERLAP>
15.223

> <PUBCHEM_SHAPE_FINGERPRINT>
11062470 55 18410855460128200773
14325111 11 18040431118091032230
20719005 15 9799690398276344025
3248919 1 18338782477222444771
5460574 1 11743838049479098148

> <PUBCHEM_SHAPE_MULTIPOLES>
147.91
6.89
0.79
0.73
0.01
0.01
0
0.2
0
0
0
0
0.01
-0.02

> <PUBCHEM_SHAPE_SELFOVERLAP>
248.998

> <PUBCHEM_SHAPE_VOLUME>
100.4

> <PUBCHEM_COORDINATE_TYPE>
2
5
10

$$$$

