96506
  -OEChem-07051213063D

 32 34  0     0  0  0  0  0  0999 V2000
    0.2376   -0.6320    0.0296 O   0  0  0  0  0  0  0  0  0  0  0  0
   -3.7232    2.1496   -0.1032 O   0  0  0  0  0  0  0  0  0  0  0  0
   -1.3437   -2.8290    0.1515 O   0  0  0  0  0  0  0  0  0  0  0  0
   -5.2608   -0.1007    0.0209 O   0  0  0  0  0  0  0  0  0  0  0  0
   -4.0884   -2.5895    0.1477 O   0  0  0  0  0  0  0  0  0  0  0  0
   -1.3063    3.1334   -0.1603 O   0  0  0  0  0  0  0  0  0  0  0  0
    6.5608   -0.6918    0.0312 O   0  0  0  0  0  0  0  0  0  0  0  0
   -1.7163    0.8093   -0.0398 C   0  0  0  0  0  0  0  0  0  0  0  0
   -1.1221   -0.4500    0.0243 C   0  0  0  0  0  0  0  0  0  0  0  0
    1.0541    0.4866   -0.0389 C   0  0  0  0  0  0  0  0  0  0  0  0
   -3.1074    0.9349   -0.0413 C   0  0  0  0  0  0  0  0  0  0  0  0
   -0.8532    1.9987   -0.1042 C   0  0  0  0  0  0  0  0  0  0  0  0
   -1.9179   -1.5939    0.0878 C   0  0  0  0  0  0  0  0  0  0  0  0
    0.6024    1.7495   -0.0976 C   0  0  0  0  0  0  0  0  0  0  0  0
    2.4981    0.1775   -0.0199 C   0  0  0  0  0  0  0  0  0  0  0  0
   -3.9010   -0.2110    0.0221 C   0  0  0  0  0  0  0  0  0  0  0  0
   -3.3078   -1.4728    0.0864 C   0  0  0  0  0  0  0  0  0  0  0  0
    3.4017    1.0796    0.5470 C   0  0  0  0  0  0  0  0  0  0  0  0
    2.9669   -1.0183   -0.5696 C   0  0  0  0  0  0  0  0  0  0  0  0
    4.7656    0.7876    0.5641 C   0  0  0  0  0  0  0  0  0  0  0  0
    4.3307   -1.3103   -0.5523 C   0  0  0  0  0  0  0  0  0  0  0  0
    5.2301   -0.4074    0.0145 C   0  0  0  0  0  0  0  0  0  0  0  0
    1.2426    2.6215   -0.1636 H   0  0  0  0  0  0  0  0  0  0  0  0
    3.0778    2.0105    1.0048 H   0  0  0  0  0  0  0  0  0  0  0  0
    2.2894   -1.7363   -1.0254 H   0  0  0  0  0  0  0  0  0  0  0  0
    5.4559    1.4970    1.0128 H   0  0  0  0  0  0  0  0  0  0  0  0
    4.6870   -2.2418   -0.9837 H   0  0  0  0  0  0  0  0  0  0  0  0
   -3.0703    2.8644   -0.1466 H   0  0  0  0  0  0  0  0  0  0  0  0
   -2.0515   -3.4956    0.1893 H   0  0  0  0  0  0  0  0  0  0  0  0
   -5.4921    0.8431   -0.0281 H   0  0  0  0  0  0  0  0  0  0  0  0
   -5.0212   -2.3132    0.1365 H   0  0  0  0  0  0  0  0  0  0  0  0
    7.0345    0.0416    0.4601 H   0  0  0  0  0  0  0  0  0  0  0  0
  1  9  1  0  0  0  0
  1 10  1  0  0  0  0
  2 11  1  0  0  0  0
  2 28  1  0  0  0  0
  3 13  1  0  0  0  0
  3 29  1  0  0  0  0
  4 16  1  0  0  0  0
  4 30  1  0  0  0  0
  5 17  1  0  0  0  0
  5 31  1  0  0  0  0
  6 12  2  0  0  0  0
  7 22  1  0  0  0  0
  7 32  1  0  0  0  0
  8  9  1  0  0  0  0
  8 11  2  0  0  0  0
  8 12  1  0  0  0  0
  9 13  2  0  0  0  0
 10 14  2  0  0  0  0
 10 15  1  0  0  0  0
 11 16  1  0  0  0  0
 12 14  1  0  0  0  0
 13 17  1  0  0  0  0
 14 23  1  0  0  0  0
 15 18  2  0  0  0  0
 15 19  1  0  0  0  0
 16 17  2  0  0  0  0
 18 20  1  0  0  0  0
 18 24  1  0  0  0  0
 19 21  2  0  0  0  0
 19 25  1  0  0  0  0
 20 22  2  0  0  0  0
 20 26  1  0  0  0  0
 21 22  1  0  0  0  0
 21 27  1  0  0  0  0
M  END
> <PUBCHEM_COMPOUND_CID>
96506

> <PUBCHEM_CONFORMER_RMSD>
0.6

> <PUBCHEM_CONFORMER_DIVERSEORDER>
1

> <PUBCHEM_MMFF94_PARTIAL_CHARGES>
32
1 -0.16
10 0.05
11 0.08
12 0.47
13 0.08
14 -0.14
15 0.03
16 0.08
17 0.08
18 -0.15
19 -0.15
2 -0.53
20 -0.15
21 -0.15
22 0.08
23 0.15
24 0.15
25 0.15
26 0.15
27 0.15
28 0.45
29 0.45
3 -0.53
30 0.45
31 0.45
32 0.45
4 -0.53
5 -0.53
6 -0.57
7 -0.53
8 0.09
9 0.08

> <PUBCHEM_EFFECTIVE_ROTOR_COUNT>
1

> <PUBCHEM_PHARMACOPHORE_FEATURES>
10
1 1 acceptor
1 2 donor
1 3 donor
1 4 donor
1 5 donor
1 6 acceptor
1 7 donor
6 1 8 9 10 12 14 rings
6 15 18 19 20 21 22 rings
6 8 9 11 13 16 17 rings

> <PUBCHEM_HEAVY_ATOM_COUNT>
22

> <PUBCHEM_ATOM_DEF_STEREO_COUNT>
0

> <PUBCHEM_ATOM_UDEF_STEREO_COUNT>
0

> <PUBCHEM_BOND_DEF_STEREO_COUNT>
0

> <PUBCHEM_BOND_UDEF_STEREO_COUNT>
0

> <PUBCHEM_ISOTOPIC_ATOM_COUNT>
0

> <PUBCHEM_COMPONENT_COUNT>
1

> <PUBCHEM_CACTVS_TAUTO_COUNT>
208

> <PUBCHEM_CONFORMER_ID>
000178FA00000001

> <PUBCHEM_MMFF94_ENERGY>
65.843

> <PUBCHEM_FEATURE_SELFOVERLAP>
50.788

> <PUBCHEM_SHAPE_FINGERPRINT>
10 15 18188224122277661016
10319926 262 18264788691497207754
10411042 1 18195244417568386731
10493431 412 18191295195203116121
105312 117 17630339755578976901
10616163 171 18410292527708505342
11315181 36 18202562874225665780
11524674 6 16950285118045713742
11578080 2 4821841663477402409
12107183 9 17550112897736600522
12236239 1 17561081440993709652
13140716 1 18338509734262725121
13288520 33 18410572885650411940
13402501 40 18334011701013196862
13862211 1 18411139108865057743
14341114 176 18409164412067854512
14790565 3 17616246327055924777
15042514 8 18268707208957331795
15196674 1 18410855412999598576
15352361 1 18410292467304338246
17492 89 17905891379625244055
17804303 29 18408602530769940641
1813 80 17561084683382983748
18927931 339 18410288112139097534
19141452 34 18187926140781925103
200 152 17385447643615786712
20374829 77 18411983546400419322
20510252 161 18261956361421824817
21033648 29 17531261559823635840
21065198 57 18407761439267167368
21236236 1 18335139838661401577
21267235 1 18412819170858120323
21279426 13 18192993952776802862
22122407 14 15936402299898347475
2297311 6 18408594873344282044
23366157 5 17771627854246516300
23402539 116 18335145275910364711
23557571 272 18334289890376751948
23559900 14 18335424608067607488
23845131 108 17471557198458811713
26918003 58 18186239537268288538
283562 15 18337111297454184025
3004659 81 18130790027760677636
335352 9 18411700972592368381
3545911 37 18408322203029286028
4214541 1 18410011056989565840
5104073 3 18334580148735488080
559249 180 18272094954321073674
9709674 26 18261669384966333526

> <PUBCHEM_SHAPE_MULTIPOLES>
411.66
11.38
2.58
0.65
10.18
0.2
0
-3.16
0.41
-2.46
-0.04
0.25
0
0.65

> <PUBCHEM_SHAPE_SELFOVERLAP>
925.783

> <PUBCHEM_SHAPE_VOLUME>
215.7

> <PUBCHEM_COORDINATE_TYPE>
2
5
10

$$$$

