54723870
  -OEChem-07051213083D

 87 88  0     1  0  0  0  0  0999 V2000
   -7.4300    0.0654   -0.0654 O   0  0  0  0  0  0  0  0  0  0  0  0
   -6.3610    2.0314    0.6228 O   0  0  0  0  0  0  0  0  0  0  0  0
   -4.0988    1.8275   -2.0644 O   0  0  0  0  0  0  0  0  0  0  0  0
   -4.2585    4.4490   -1.1981 O   0  0  0  0  0  0  0  0  0  0  0  0
    8.4974   -1.2758   -1.6776 O   0  0  0  0  0  0  0  0  0  0  0  0
    5.4161    1.8492    0.0258 O   0  0  0  0  0  0  0  0  0  0  0  0
    5.8537   -2.1523   -1.6046 O   0  0  0  0  0  0  0  0  0  0  0  0
    9.7760   -0.8283    3.7007 O   0  0  0  0  0  0  0  0  0  0  0  0
   11.4893   -0.0209    2.4470 O   0  0  0  0  0  0  0  0  0  0  0  0
    7.7664    1.8435   -0.2869 N   0  0  0  0  0  0  0  0  0  0  0  0
   -6.3351    0.9455   -0.3035 C   0  0  2  0  0  0  0  0  0  0  0  0
   -5.3649    2.4881   -2.0408 C   0  0  1  0  0  0  0  0  0  0  0  0
   -6.4573    1.4672   -1.7370 C   0  0  0  0  0  0  0  0  0  0  0  0
   -7.3767   -0.4695    1.2696 C   0  0  1  0  0  0  0  0  0  0  0  0
   -5.3521    3.5721   -0.9594 C   0  0  1  0  0  0  0  0  0  0  0  0
   -5.2728    2.9458    0.4405 C   0  0  1  0  0  0  0  0  0  0  0  0
   -8.6352    0.0525    2.0091 C   0  0  0  0  0  0  0  0  0  0  0  0
   -7.1929   -2.0030    1.1267 C   0  0  2  0  0  0  0  0  0  0  0  0
   -5.3726    3.9910    1.5470 C   0  0  0  0  0  0  0  0  0  0  0  0
   -9.9482   -0.4858    1.4407 C   0  0  0  0  0  0  0  0  0  0  0  0
   -8.6765    1.5771    2.1339 C   0  0  0  0  0  0  0  0  0  0  0  0
   -7.4751   -2.7893    2.4069 C   0  0  0  0  0  0  0  0  0  0  0  0
   -5.7603   -2.3066    0.7103 C   0  0  0  0  0  0  0  0  0  0  0  0
   -5.3283   -2.9206   -0.4094 C   0  0  0  0  0  0  0  0  0  0  0  0
    8.8392    0.9665   -0.7863 C   0  0  1  0  0  0  0  0  0  0  0  0
    9.8717    0.6153    0.2690 C   0  0  0  0  0  0  0  0  0  0  0  0
   -6.2990   -3.3621   -1.4719 C   0  0  0  0  0  0  0  0  0  0  0  0
   -3.9373   -3.1779   -0.7423 C   0  0  0  0  0  0  0  0  0  0  0  0
    8.0414   -0.2535   -1.1926 C   0  0  0  0  0  0  0  0  0  0  0  0
    6.6149   -0.0125   -0.8994 C   0  0  0  0  0  0  0  0  0  0  0  0
    6.4638    1.3338   -0.3208 C   0  0  0  0  0  0  0  0  0  0  0  0
    9.2501    0.0618    1.5474 C   0  0  0  0  0  0  0  0  0  0  0  0
    8.0671    3.1915    0.1576 C   0  0  0  0  0  0  0  0  0  0  0  0
   -2.9302   -2.3186   -0.5227 C   0  0  0  0  0  0  0  0  0  0  0  0
    5.6168   -0.8793   -1.1234 C   0  0  0  0  0  0  0  0  0  0  0  0
   10.2969   -0.2627    2.5841 C   0  0  0  0  0  0  0  0  0  0  0  0
    4.2200   -0.6321   -0.8317 C   0  0  0  0  0  0  0  0  0  0  0  0
   -1.5526   -2.6187   -0.8456 C   0  0  0  0  0  0  0  0  0  0  0  0
    3.2148   -1.4944   -1.0528 C   0  0  0  0  0  0  0  0  0  0  0  0
   -0.5474   -1.7580   -0.6252 C   0  0  0  0  0  0  0  0  0  0  0  0
    1.8363   -1.1958   -0.7283 C   0  0  0  0  0  0  0  0  0  0  0  0
    0.8309   -2.0564   -0.9487 C   0  0  0  0  0  0  0  0  0  0  0  0
   -5.3962    0.3900   -0.1872 H   0  0  0  0  0  0  0  0  0  0  0  0
   -5.5114    2.9369   -3.0293 H   0  0  0  0  0  0  0  0  0  0  0  0
   -6.4115    0.6224   -2.4346 H   0  0  0  0  0  0  0  0  0  0  0  0
   -7.4399    1.9380   -1.8690 H   0  0  0  0  0  0  0  0  0  0  0  0
   -6.5077   -0.0818    1.8225 H   0  0  0  0  0  0  0  0  0  0  0  0
   -6.2784    4.1555   -1.0389 H   0  0  0  0  0  0  0  0  0  0  0  0
   -4.3239    2.4106    0.5744 H   0  0  0  0  0  0  0  0  0  0  0  0
   -8.5707   -0.3250    3.0388 H   0  0  0  0  0  0  0  0  0  0  0  0
   -7.8912   -2.3662    0.3656 H   0  0  0  0  0  0  0  0  0  0  0  0
   -5.3482    3.5076    2.5298 H   0  0  0  0  0  0  0  0  0  0  0  0
   -4.5519    4.7123    1.4943 H   0  0  0  0  0  0  0  0  0  0  0  0
   -6.3228    4.5333    1.4880 H   0  0  0  0  0  0  0  0  0  0  0  0
   -8.7995    2.0642    1.1620 H   0  0  0  0  0  0  0  0  0  0  0  0
  -10.1103   -0.1251    0.4192 H   0  0  0  0  0  0  0  0  0  0  0  0
  -10.7963   -0.1522    2.0486 H   0  0  0  0  0  0  0  0  0  0  0  0
   -9.9748   -1.5778    1.4167 H   0  0  0  0  0  0  0  0  0  0  0  0
   -7.7803    1.9580    2.6323 H   0  0  0  0  0  0  0  0  0  0  0  0
   -9.5308    1.8798    2.7508 H   0  0  0  0  0  0  0  0  0  0  0  0
   -6.8617   -2.4272    3.2401 H   0  0  0  0  0  0  0  0  0  0  0  0
   -8.5230   -2.7147    2.7093 H   0  0  0  0  0  0  0  0  0  0  0  0
   -7.2579   -3.8552    2.2702 H   0  0  0  0  0  0  0  0  0  0  0  0
   -5.0111   -1.9975    1.4404 H   0  0  0  0  0  0  0  0  0  0  0  0
   -4.1394    1.1415   -2.7525 H   0  0  0  0  0  0  0  0  0  0  0  0
   -4.3690    4.8214   -2.0896 H   0  0  0  0  0  0  0  0  0  0  0  0
    9.2810    1.4282   -1.6750 H   0  0  0  0  0  0  0  0  0  0  0  0
   10.5802   -0.1169   -0.1394 H   0  0  0  0  0  0  0  0  0  0  0  0
   10.4608    1.5090    0.5108 H   0  0  0  0  0  0  0  0  0  0  0  0
   -6.7083   -4.3479   -1.2275 H   0  0  0  0  0  0  0  0  0  0  0  0
   -7.1238   -2.6549   -1.6027 H   0  0  0  0  0  0  0  0  0  0  0  0
   -5.8146   -3.4346   -2.4532 H   0  0  0  0  0  0  0  0  0  0  0  0
   -3.7362   -4.1428   -1.2038 H   0  0  0  0  0  0  0  0  0  0  0  0
    8.5657    0.7871    1.9991 H   0  0  0  0  0  0  0  0  0  0  0  0
    8.7032   -0.8639    1.3389 H   0  0  0  0  0  0  0  0  0  0  0  0
    8.5667    3.7263   -0.6546 H   0  0  0  0  0  0  0  0  0  0  0  0
    7.1493    3.7205    0.4274 H   0  0  0  0  0  0  0  0  0  0  0  0
    8.7236    3.1482    1.0300 H   0  0  0  0  0  0  0  0  0  0  0  0
   -3.1287   -1.3465   -0.0769 H   0  0  0  0  0  0  0  0  0  0  0  0
    3.9360    0.3166   -0.3964 H   0  0  0  0  0  0  0  0  0  0  0  0
   -1.3485   -3.5919   -1.2865 H   0  0  0  0  0  0  0  0  0  0  0  0
    6.8056   -2.2682   -1.7568 H   0  0  0  0  0  0  0  0  0  0  0  0
    3.4067   -2.4714   -1.4894 H   0  0  0  0  0  0  0  0  0  0  0  0
   -0.7521   -0.7847   -0.1846 H   0  0  0  0  0  0  0  0  0  0  0  0
   10.4669   -1.0221    4.3696 H   0  0  0  0  0  0  0  0  0  0  0  0
    1.6299   -0.2232   -0.2870 H   0  0  0  0  0  0  0  0  0  0  0  0
    1.0352   -3.0294   -1.3901 H   0  0  0  0  0  0  0  0  0  0  0  0
  1 11  1  0  0  0  0
  1 14  1  0  0  0  0
  2 11  1  0  0  0  0
  2 16  1  0  0  0  0
  3 12  1  0  0  0  0
  3 65  1  0  0  0  0
  4 15  1  0  0  0  0
  4 66  1  0  0  0  0
  5 29  2  0  0  0  0
  6 31  2  0  0  0  0
  7 35  1  0  0  0  0
  7 82  1  0  0  0  0
  8 36  1  0  0  0  0
  8 85  1  0  0  0  0
  9 36  2  0  0  0  0
 10 25  1  0  0  0  0
 10 31  1  0  0  0  0
 10 33  1  0  0  0  0
 11 13  1  0  0  0  0
 11 43  1  0  0  0  0
 12 13  1  0  0  0  0
 12 15  1  0  0  0  0
 12 44  1  0  0  0  0
 13 45  1  0  0  0  0
 13 46  1  0  0  0  0
 14 17  1  0  0  0  0
 14 18  1  0  0  0  0
 14 47  1  0  0  0  0
 15 16  1  0  0  0  0
 15 48  1  0  0  0  0
 16 19  1  0  0  0  0
 16 49  1  0  0  0  0
 17 20  1  0  0  0  0
 17 21  1  0  0  0  0
 17 50  1  0  0  0  0
 18 22  1  0  0  0  0
 18 23  1  0  0  0  0
 18 51  1  0  0  0  0
 19 52  1  0  0  0  0
 19 53  1  0  0  0  0
 19 54  1  0  0  0  0
 20 56  1  0  0  0  0
 20 57  1  0  0  0  0
 20 58  1  0  0  0  0
 21 55  1  0  0  0  0
 21 59  1  0  0  0  0
 21 60  1  0  0  0  0
 22 61  1  0  0  0  0
 22 62  1  0  0  0  0
 22 63  1  0  0  0  0
 23 24  2  0  0  0  0
 23 64  1  0  0  0  0
 24 27  1  0  0  0  0
 24 28  1  0  0  0  0
 25 26  1  0  0  0  0
 25 29  1  0  0  0  0
 25 67  1  0  0  0  0
 26 32  1  0  0  0  0
 26 68  1  0  0  0  0
 26 69  1  0  0  0  0
 27 70  1  0  0  0  0
 27 71  1  0  0  0  0
 27 72  1  0  0  0  0
 28 34  2  0  0  0  0
 28 73  1  0  0  0  0
 29 30  1  0  0  0  0
 30 31  1  0  0  0  0
 30 35  2  0  0  0  0
 32 36  1  0  0  0  0
 32 74  1  0  0  0  0
 32 75  1  0  0  0  0
 33 76  1  0  0  0  0
 33 77  1  0  0  0  0
 33 78  1  0  0  0  0
 34 38  1  0  0  0  0
 34 79  1  0  0  0  0
 35 37  1  0  0  0  0
 37 39  2  0  0  0  0
 37 80  1  0  0  0  0
 38 40  2  0  0  0  0
 38 81  1  0  0  0  0
 39 41  1  0  0  0  0
 39 83  1  0  0  0  0
 40 42  1  0  0  0  0
 40 84  1  0  0  0  0
 41 42  2  0  0  0  0
 41 86  1  0  0  0  0
 42 87  1  0  0  0  0
M  END
> <PUBCHEM_COMPOUND_CID>
54723870

> <PUBCHEM_CONFORMER_RMSD>
1.4

> <PUBCHEM_CONFORMER_DIVERSEORDER>
1
257
178
270
77
61
70
234
129
21
172
51
113
235
181
239
254
74
11
264
53
217
99
143
22
125
80
198
23
258
86
108
134
133
232
112
262
245
173
135
185
193
92
163
75
137
250
243
132
167
249
180
59
226
148
220
219
41
157
105
7
24
255
151
156
209
222
19
58
147
140
126
268
218
90
131
136
102
177
118
201
154
203
213
228
54
144
47
106
188
122
123
183
233
88
48
119
150
229
260
168
174
67
52
182
84
65
60
87
208
14
205
223
236
261
130
30
62
121
69
231
269
155
196
212
252
265
256
40
242
141
214
107
15
170
238
79
120
104
237
160
55
145
124
171
195
91
202
191
95
63
38
273
230
20
100
115
211
227
216
186
266
169
28
5
103
73
161
116
206
36
49
189
187
109
82
259
42
139
138
9
164
37
184
98
31
56
17
85
64
204
162
111
158
101
33
43
176
93
78
6
152
165
13
225
12
272
39
246
50
2
197
241
35
166
251
10
175
240
27
194
45
68
159
199
179
26
71
210
248
34
128
46
200
146
117
72
66
127
253
81
4
114
263
153
44
192
190
76
244
271
149
89
32
96
221
110
142
97
267
8
29
57
94
3
247
215
207
16
25
83
224
18

> <PUBCHEM_MMFF94_PARTIAL_CHARGES>
48
1 -0.56
10 -0.66
11 0.56
12 0.28
14 0.28
15 0.28
16 0.28
18 0.14
2 -0.56
23 -0.29
24 -0.14
25 0.36
27 0.14
28 -0.15
29 0.49
3 -0.68
30 0.03
31 0.62
32 0.06
33 0.3
34 -0.15
35 0.08
36 0.66
37 -0.15
38 -0.15
39 -0.15
4 -0.68
40 -0.15
41 -0.15
42 -0.15
5 -0.57
6 -0.57
64 0.15
65 0.4
66 0.4
7 -0.53
73 0.15
79 0.15
8 -0.65
80 0.15
81 0.15
82 0.45
83 0.15
84 0.15
85 0.5
86 0.15
87 0.15
9 -0.57

> <PUBCHEM_EFFECTIVE_ROTOR_COUNT>
14.6

> <PUBCHEM_PHARMACOPHORE_FEATURES>
18
1 1 acceptor
1 2 acceptor
1 22 hydrophobe
1 27 hydrophobe
1 3 acceptor
1 3 donor
1 30 anion
1 4 acceptor
1 4 donor
1 5 acceptor
1 6 acceptor
1 7 donor
1 8 acceptor
1 9 acceptor
3 17 20 21 hydrophobe
3 8 9 36 anion
5 10 25 29 30 31 rings
6 2 11 12 13 15 16 rings

> <PUBCHEM_HEAVY_ATOM_COUNT>
42

> <PUBCHEM_ATOM_DEF_STEREO_COUNT>
4

> <PUBCHEM_ATOM_UDEF_STEREO_COUNT>
3

> <PUBCHEM_BOND_DEF_STEREO_COUNT>
6

> <PUBCHEM_BOND_UDEF_STEREO_COUNT>
0

> <PUBCHEM_ISOTOPIC_ATOM_COUNT>
0

> <PUBCHEM_COMPONENT_COUNT>
1

> <PUBCHEM_CACTVS_TAUTO_COUNT>
7

> <PUBCHEM_CONFORMER_ID>
0343051E00000001

> <PUBCHEM_MMFF94_ENERGY>
95.2978

> <PUBCHEM_FEATURE_SELFOVERLAP>
91.449

> <PUBCHEM_SHAPE_FINGERPRINT>
10625338 131 18409169931000564112
10625338 86 18334293180026204119
10930396 42 17917983976996874419
11061554 47 18040719135147051050
11456790 92 18272656719338145074
11578821 258 17822287934163646760
13383668 254 16443641095243060808
15145344 5 18113901585204383006
15419008 145 18202003226448214605
15604295 49 18187928322704302680
18603816 31 13686004360440875643
20105231 36 13470415487784039266
20766409 102 18338791196265214445
21772523 7 15430334520521894314
437795 83 18333737910012398639
44280117 145 17822572686881445239
4616759 239 17632570510364173787
6201320 215 18342462568605976945
6289498 60 18410854361228749944

> <PUBCHEM_SHAPE_MULTIPOLES>
806.54
45.98
4.77
2.47
84.99
2.89
1.82
9.26
27.01
-11.44
-1.19
1.73
-0.06
1.6

> <PUBCHEM_SHAPE_SELFOVERLAP>
1642.239

> <PUBCHEM_SHAPE_VOLUME>
464.4

> <PUBCHEM_COORDINATE_TYPE>
2
5
10

$$$$

