54726727
  -OEChem-07051213112D

 54 57  0     1  0  0  0  0  0999 V2000
   10.5194    2.0023    0.0000 Cl  0  0  0  0  0  0  0  0  0  0  0  0
    6.0678   -1.5754    0.0000 O   0  0  0  0  0  0  0  0  0  0  0  0
    9.1837    1.8310    0.0000 O   0  0  0  0  0  0  0  0  0  0  0  0
    4.8427   -2.0536    0.0000 O   0  0  0  0  0  0  0  0  0  0  0  0
    6.9338   -2.0754    0.0000 O   0  0  0  0  0  0  0  0  0  0  0  0
    3.4037    0.9488    0.0000 O   0  0  0  0  0  0  0  0  0  0  0  0
    8.6822   -2.1100    0.0000 O   0  0  0  0  0  0  0  0  0  0  0  0
   10.5194   -2.1530    0.0000 O   0  0  0  0  0  0  0  0  0  0  0  0
    3.4075   -2.0995    0.0000 O   0  0  0  0  0  0  0  0  0  0  0  0
    5.1854    1.9592    0.0000 N   0  0  0  0  0  0  0  0  0  0  0  0
    2.5357   -0.6029    0.0000 N   0  0  0  0  0  0  0  0  0  0  0  0
    6.0678    0.4246    0.0000 C   0  0  1  0  0  0  0  0  0  0  0  0
    6.0678   -0.5754    0.0000 C   0  0  1  0  0  0  0  0  0  0  0  0
    6.9338    0.9246    0.0000 C   0  0  0  0  0  0  0  0  0  0  0  0
    5.1738    0.9593    0.0000 C   0  0  1  0  0  0  0  0  0  0  0  0
    7.7998    0.4246    0.0000 C   0  0  0  0  0  0  0  0  0  0  0  0
    8.6938    0.9593    0.0000 C   0  0  1  0  0  0  0  0  0  0  0  0
    7.7998   -0.5754    0.0000 C   0  0  0  0  0  0  0  0  0  0  0  0
    6.9338   -1.0754    0.0000 C   0  0  0  0  0  0  0  0  0  0  0  0
    5.1738   -1.1100    0.0000 C   0  0  0  0  0  0  0  0  0  0  0  0
    4.2678    0.4455    0.0000 C   0  0  0  0  0  0  0  0  0  0  0  0
    4.2678   -0.5962    0.0000 C   0  0  0  0  0  0  0  0  0  0  0  0
    9.5998    0.4455    0.0000 C   0  0  0  0  0  0  0  0  0  0  0  0
    8.6938   -1.1100    0.0000 C   0  0  0  0  0  0  0  0  0  0  0  0
    9.5998   -0.5962    0.0000 C   0  0  0  0  0  0  0  0  0  0  0  0
    8.1838    1.8195    0.0000 C   0  0  0  0  0  0  0  0  0  0  0  0
    4.3252    2.4692    0.0000 C   0  0  0  0  0  0  0  0  0  0  0  0
    6.0572    2.4492    0.0000 C   0  0  0  0  0  0  0  0  0  0  0  0
   10.5310    1.0024    0.0000 C   0  0  0  0  0  0  0  0  0  0  0  0
    3.4037   -1.0995    0.0000 C   0  0  0  0  0  0  0  0  0  0  0  0
   10.5310   -1.1531    0.0000 C   0  0  0  0  0  0  0  0  0  0  0  0
   11.4748    0.4671    0.0000 C   0  0  0  0  0  0  0  0  0  0  0  0
   11.4748   -0.6179    0.0000 C   0  0  0  0  0  0  0  0  0  0  0  0
    6.0743    1.2746    0.0000 H   0  0  0  0  0  0  0  0  0  0  0  0
    7.3323    1.3996    0.0000 H   0  0  0  0  0  0  0  0  0  0  0  0
    6.5353    1.3996    0.0000 H   0  0  0  0  0  0  0  0  0  0  0  0
    5.7149    1.2620    0.0000 H   0  0  0  0  0  0  0  0  0  0  0  0
    5.6692   -2.0503    0.0000 H   0  0  0  0  0  0  0  0  0  0  0  0
    8.7171    2.1357    0.0000 H   0  0  0  0  0  0  0  0  0  0  0  0
    7.8676    2.3528    0.0000 H   0  0  0  0  0  0  0  0  0  0  0  0
    7.6505    1.5033    0.0000 H   0  0  0  0  0  0  0  0  0  0  0  0
    4.6414    3.0025    0.0000 H   0  0  0  0  0  0  0  0  0  0  0  0
    3.7919    2.7854    0.0000 H   0  0  0  0  0  0  0  0  0  0  0  0
    4.0090    1.9359    0.0000 H   0  0  0  0  0  0  0  0  0  0  0  0
    6.3609    1.9087    0.0000 H   0  0  0  0  0  0  0  0  0  0  0  0
    6.5976    2.7530    0.0000 H   0  0  0  0  0  0  0  0  0  0  0  0
    5.7534    2.9897    0.0000 H   0  0  0  0  0  0  0  0  0  0  0  0
    8.8675    2.3644    0.0000 H   0  0  0  0  0  0  0  0  0  0  0  0
    4.2335   -2.1684    0.0000 H   0  0  0  0  0  0  0  0  0  0  0  0
   12.0105    0.7792    0.0000 H   0  0  0  0  0  0  0  0  0  0  0  0
   12.0105   -0.9299    0.0000 H   0  0  0  0  0  0  0  0  0  0  0  0
    2.0000   -0.9149    0.0000 H   0  0  0  0  0  0  0  0  0  0  0  0
    2.5334    0.0171    0.0000 H   0  0  0  0  0  0  0  0  0  0  0  0
   11.0528   -2.4692    0.0000 H   0  0  0  0  0  0  0  0  0  0  0  0
  1 29  1  0  0  0  0
 13  2  1  1  0  0  0
  2 38  1  0  0  0  0
 17  3  1  6  0  0  0
  3 48  1  0  0  0  0
  4 20  1  0  0  0  0
  4 49  1  0  0  0  0
  5 19  2  0  0  0  0
  6 21  2  0  0  0  0
  7 24  2  0  0  0  0
  8 31  1  0  0  0  0
  8 54  1  0  0  0  0
  9 30  2  0  0  0  0
 15 10  1  1  0  0  0
 10 27  1  0  0  0  0
 10 28  1  0  0  0  0
 11 30  1  0  0  0  0
 11 52  1  0  0  0  0
 11 53  1  0  0  0  0
 12 13  1  0  0  0  0
 12 14  1  0  0  0  0
 12 15  1  0  0  0  0
 12 34  1  1  0  0  0
 13 19  1  0  0  0  0
 13 20  1  0  0  0  0
 14 16  1  0  0  0  0
 14 35  1  0  0  0  0
 14 36  1  0  0  0  0
 15 21  1  0  0  0  0
 15 37  1  0  0  0  0
 16 17  1  0  0  0  0
 16 18  2  0  0  0  0
 17 23  1  0  0  0  0
 17 26  1  0  0  0  0
 18 19  1  0  0  0  0
 18 24  1  0  0  0  0
 20 22  2  0  0  0  0
 21 22  1  0  0  0  0
 22 30  1  0  0  0  0
 23 25  1  0  0  0  0
 23 29  2  0  0  0  0
 24 25  1  0  0  0  0
 25 31  2  0  0  0  0
 26 39  1  0  0  0  0
 26 40  1  0  0  0  0
 26 41  1  0  0  0  0
 27 42  1  0  0  0  0
 27 43  1  0  0  0  0
 27 44  1  0  0  0  0
 28 45  1  0  0  0  0
 28 46  1  0  0  0  0
 28 47  1  0  0  0  0
 29 32  1  0  0  0  0
 31 33  1  0  0  0  0
 32 33  2  0  0  0  0
 32 50  1  0  0  0  0
 33 51  1  0  0  0  0
M  END
> <PUBCHEM_COMPOUND_CID>
54726727

> <PUBCHEM_COMPOUND_CANONICALIZED>
1

> <PUBCHEM_CACTVS_COMPLEXITY>
1050

> <PUBCHEM_CACTVS_HBOND_ACCEPTOR>
9

> <PUBCHEM_CACTVS_HBOND_DONOR>
5

> <PUBCHEM_CACTVS_ROTATABLE_BOND>
2

> <PUBCHEM_CACTVS_SUBSKEYS>
AAADceB7PAAEAAAAAAAAAAAAAAAAAAAAAAAwQIEAAAAAAADBAAAAHgIQCAAADW7BmCQyBoNAAgCIAqFSEAKCAAAkJQAIiAHOCsgJJj6LljKEcUAm4BEJmQf+/vfugCABIAAZAAAAQAJAADIAAAAAAAAAAA==

> <PUBCHEM_IUPAC_OPENEYE_NAME>
(4S,4aS,6S,12aR)-7-chloro-4-(dimethylamino)-1,6,10,12a-tetrahydroxy-6-methyl-3,11,12-trioxo-4a,5-dihydro-4H-tetracene-2-carboxamide

> <PUBCHEM_IUPAC_CAS_NAME>
(4S,4aS,6S,12aR)-7-chloro-4-(dimethylamino)-1,6,10,12a-tetrahydroxy-6-methyl-3,11,12-trioxo-4a,5-dihydro-4H-tetracene-2-carboxamide

> <PUBCHEM_IUPAC_NAME>
(4S,4aS,6S,12aR)-7-chloro-4-(dimethylamino)-1,6,10,12a-tetrahydroxy-6-methyl-3,11,12-trioxo-4a,5-dihydro-4H-tetracene-2-carboxamide

> <PUBCHEM_IUPAC_SYSTEMATIC_NAME>
(4S,4aS,6S,12aR)-7-chloranyl-4-(dimethylamino)-6-methyl-1,6,10,12a-tetrakis(oxidanyl)-3,11,12-tris(oxidanylidene)-4a,5-dihydro-4H-tetracene-2-carboxamide

> <PUBCHEM_IUPAC_TRADITIONAL_NAME>
(4S,4aS,6S,12aR)-7-chloro-4-(dimethylamino)-1,6,10,12a-tetrahydroxy-3,11,12-triketo-6-methyl-4a,5-dihydro-4H-tetracene-2-carboxamide

> <PUBCHEM_IUPAC_INCHI>
InChI=1S/C22H21ClN2O8/c1-21(32)7-6-8-15(25(2)3)17(28)13(20(24)31)19(30)22(8,33)18(29)11(7)16(27)12-10(26)5-4-9(23)14(12)21/h4-5,8,15,26,30,32-33H,6H2,1-3H3,(H2,24,31)/t8-,15-,21-,22-/m0/s1

> <PUBCHEM_IUPAC_INCHIKEY>
IMZOVGZUDCFUML-GUQUGOGCSA-N

> <PUBCHEM_XLOGP3_AA>
0.9

> <PUBCHEM_EXACT_MASS>
476.098643

> <PUBCHEM_MOLECULAR_FORMULA>
C22H21ClN2O8

> <PUBCHEM_MOLECULAR_WEIGHT>
476.86374

> <PUBCHEM_OPENEYE_CAN_SMILES>
CC1(C2=C(C(=O)C3=C(C=CC(=C31)Cl)O)C(=O)C4(C(C2)C(C(=O)C(=C4O)C(=O)N)N(C)C)O)O

> <PUBCHEM_OPENEYE_ISO_SMILES>
C[C@@]1(C2=C(C(=O)C3=C(C=CC(=C31)Cl)O)C(=O)[C@]4([C@@H](C2)[C@@H](C(=O)C(=C4O)C(=O)N)N(C)C)O)O

> <PUBCHEM_CACTVS_TPSA>
179

> <PUBCHEM_MONOISOTOPIC_WEIGHT>
476.098643

> <PUBCHEM_TOTAL_CHARGE>
0

> <PUBCHEM_HEAVY_ATOM_COUNT>
33

> <PUBCHEM_ATOM_DEF_STEREO_COUNT>
4

> <PUBCHEM_ATOM_UDEF_STEREO_COUNT>
0

> <PUBCHEM_BOND_DEF_STEREO_COUNT>
0

> <PUBCHEM_BOND_UDEF_STEREO_COUNT>
0

> <PUBCHEM_ISOTOPIC_ATOM_COUNT>
0

> <PUBCHEM_COMPONENT_COUNT>
1

> <PUBCHEM_CACTVS_TAUTO_COUNT>
180

> <PUBCHEM_COORDINATE_TYPE>
1
5
255

> <PUBCHEM_BONDANNOTATIONS>
15  10  5
12  34  5
13  2  5
23  25  8
23  29  8
25  31  8
29  32  8
17  3  6
31  33  8
32  33  8

$$$$

