14003
  -OEChem-06241222413D

 52 54  0     1  0  0  0  0  0999 V2000
    3.7729   -0.6962    0.8057 P   0  0  2  0  0  0  0  0  0  0  0  0
    1.4469   -2.4328    1.2788 P   0  0  2  0  0  0  0  0  0  0  0  0
   -0.4284   -2.4761   -0.9988 P   0  0  2  0  0  0  0  0  0  0  0  0
    0.0891   -0.5599   -3.1692 P   0  0  0  0  0  0  0  0  0  0  0  0
    0.9379    1.4426   -0.4480 O   0  0  0  0  0  0  0  0  0  0  0  0
   -0.7763    4.3743    0.7300 O   0  0  0  0  0  0  0  0  0  0  0  0
    1.1499    4.3934   -1.1869 O   0  0  0  0  0  0  0  0  0  0  0  0
    3.8141    0.8099    0.2155 O   0  0  0  0  0  0  0  0  0  0  0  0
    2.2139   -1.1191    0.7331 O   0  0  0  0  0  0  0  0  0  0  0  0
    4.0349   -0.5153    2.3917 O   0  0  0  0  0  0  0  0  0  0  0  0
    4.7023   -1.6623    0.1302 O   0  0  0  0  0  0  0  0  0  0  0  0
    0.0086   -2.3576    0.5509 O   0  0  0  0  0  0  0  0  0  0  0  0
    1.1187   -2.0494    2.8146 O   0  0  0  0  0  0  0  0  0  0  0  0
    2.1976   -3.7183    1.0930 O   0  0  0  0  0  0  0  0  0  0  0  0
    0.2197   -1.1628   -1.6775 O   0  0  0  0  0  0  0  0  0  0  0  0
   -2.0110   -2.1463   -0.9670 O   0  0  0  0  0  0  0  0  0  0  0  0
   -0.0682   -3.7788   -1.6498 O   0  0  0  0  0  0  0  0  0  0  0  0
    1.1480    0.6611   -3.1737 O   0  0  0  0  0  0  0  0  0  0  0  0
    0.8089   -1.6787   -4.0886 O   0  0  0  0  0  0  0  0  0  0  0  0
   -1.3045   -0.2003   -3.5920 O   0  0  0  0  0  0  0  0  0  0  0  0
   -1.1190    1.2112    0.7120 N   0  0  0  0  0  0  0  0  0  0  0  0
   -1.7809   -0.1582    2.3418 N   0  0  0  0  0  0  0  0  0  0  0  0
   -3.0728    1.1195   -0.7285 N   0  0  0  0  0  0  0  0  0  0  0  0
   -4.7898   -0.3460    0.1990 N   0  0  0  0  0  0  0  0  0  0  0  0
   -4.5051   -1.5070    2.2722 N   0  0  0  0  0  0  0  0  0  0  0  0
    0.1897    3.3432    0.7506 C   0  0  2  0  0  0  0  0  0  0  0  0
    1.4694    3.7140    0.0273 C   0  0  1  0  0  0  0  0  0  0  0  0
   -0.2632    2.1256   -0.0405 C   0  0  1  0  0  0  0  0  0  0  0  0
    2.0577    2.3483   -0.3134 C   0  0  1  0  0  0  0  0  0  0  0  0
    2.9808    1.8123    0.7719 C   0  0  0  0  0  0  0  0  0  0  0  0
   -2.3708    0.7884    0.3657 C   0  0  0  0  0  0  0  0  0  0  0  0
   -0.8086    0.6151    1.9056 C   0  0  0  0  0  0  0  0  0  0  0  0
   -2.7635   -0.0592    1.3891 C   0  0  0  0  0  0  0  0  0  0  0  0
   -4.0250   -0.6358    1.2791 C   0  0  0  0  0  0  0  0  0  0  0  0
   -4.2738    0.5012   -0.7240 C   0  0  0  0  0  0  0  0  0  0  0  0
    0.4210    3.1000    1.7939 H   0  0  0  0  0  0  0  0  0  0  0  0
    2.1242    4.3670    0.6111 H   0  0  0  0  0  0  0  0  0  0  0  0
   -0.8089    2.4168   -0.9459 H   0  0  0  0  0  0  0  0  0  0  0  0
    2.5757    2.3599   -1.2790 H   0  0  0  0  0  0  0  0  0  0  0  0
    3.6463    2.6010    1.1361 H   0  0  0  0  0  0  0  0  0  0  0  0
    2.4175    1.4182    1.6234 H   0  0  0  0  0  0  0  0  0  0  0  0
   -1.5854    4.0261    1.1419 H   0  0  0  0  0  0  0  0  0  0  0  0
    1.9876    4.5764   -1.6458 H   0  0  0  0  0  0  0  0  0  0  0  0
    0.1350    0.7730    2.4089 H   0  0  0  0  0  0  0  0  0  0  0  0
   -4.9125    0.7098   -1.5756 H   0  0  0  0  0  0  0  0  0  0  0  0
   -3.9365   -1.7242    3.0795 H   0  0  0  0  0  0  0  0  0  0  0  0
   -5.4254   -1.9126    2.1701 H   0  0  0  0  0  0  0  0  0  0  0  0
    4.1801   -1.3140    2.9422 H   0  0  0  0  0  0  0  0  0  0  0  0
    1.8373   -2.0999    3.4804 H   0  0  0  0  0  0  0  0  0  0  0  0
   -2.6356   -2.8431   -0.6727 H   0  0  0  0  0  0  0  0  0  0  0  0
    1.1943    1.2475   -3.9586 H   0  0  0  0  0  0  0  0  0  0  0  0
    0.7849   -1.5785   -5.0640 H   0  0  0  0  0  0  0  0  0  0  0  0
  1  8  1  0  0  0  0
  1  9  1  0  0  0  0
  1 10  1  0  0  0  0
  1 11  2  0  0  0  0
  2  9  1  0  0  0  0
  2 12  1  0  0  0  0
  2 13  1  0  0  0  0
  2 14  2  0  0  0  0
  3 12  1  0  0  0  0
  3 15  1  0  0  0  0
  3 16  1  0  0  0  0
  3 17  2  0  0  0  0
  4 15  1  0  0  0  0
  4 18  1  0  0  0  0
  4 19  1  0  0  0  0
  4 20  2  0  0  0  0
  5 28  1  0  0  0  0
  5 29  1  0  0  0  0
  6 26  1  0  0  0  0
  6 42  1  0  0  0  0
  7 27  1  0  0  0  0
  7 43  1  0  0  0  0
  8 30  1  0  0  0  0
 10 48  1  0  0  0  0
 13 49  1  0  0  0  0
 16 50  1  0  0  0  0
 18 51  1  0  0  0  0
 19 52  1  0  0  0  0
 21 28  1  0  0  0  0
 21 31  1  0  0  0  0
 21 32  1  0  0  0  0
 22 32  2  0  0  0  0
 22 33  1  0  0  0  0
 23 31  2  0  0  0  0
 23 35  1  0  0  0  0
 24 34  1  0  0  0  0
 24 35  2  0  0  0  0
 25 34  1  0  0  0  0
 25 46  1  0  0  0  0
 25 47  1  0  0  0  0
 26 27  1  0  0  0  0
 26 28  1  0  0  0  0
 26 36  1  0  0  0  0
 27 29  1  0  0  0  0
 27 37  1  0  0  0  0
 28 38  1  0  0  0  0
 29 30  1  0  0  0  0
 29 39  1  0  0  0  0
 30 40  1  0  0  0  0
 30 41  1  0  0  0  0
 31 33  1  0  0  0  0
 32 44  1  0  0  0  0
 33 34  2  0  0  0  0
 35 45  1  0  0  0  0
M  END
> <PUBCHEM_COMPOUND_CID>
14003

> <PUBCHEM_CONFORMER_RMSD>
1.6

> <PUBCHEM_CONFORMER_DIVERSEORDER>
1
59
63
69
97
4
54
81
47
28
78
3
79
36
49
83
100
89
37
31
98
75
29
20
61
57
65
76
103
68
71
32
24
87
6
74
77
94
91
58
16
62
11
84
8
70
56
35
72
102
10
21
50
17
104
43
34
86
19
40
5
25
42
80
7
67
33
88
85
64
55
14
73
101
23
51
53
45
2
96
48
13
27
18
52
30
95
60
26
46
90
82
15
41
44
12
92
99
39
38
93
9
66
22

> <PUBCHEM_MMFF94_PARTIAL_CHARGES>
46
1 1.51
10 -0.77
11 -0.7
12 -0.54
13 -0.77
14 -0.7
15 -0.54
16 -0.77
17 -0.7
18 -0.77
19 -0.77
2 1.51
20 -0.7
21 0.05
22 -0.57
23 -0.57
24 -0.62
25 -0.9
26 0.28
27 0.28
28 0.54
29 0.28
3 1.51
30 0.28
31 0.11
32 0.04
33 0.23
34 0.41
35 0.47
4 1.51
42 0.4
43 0.4
44 0.15
45 0.15
46 0.4
47 0.4
48 0.5
49 0.5
5 -0.56
50 0.5
51 0.5
52 0.5
6 -0.68
7 -0.68
8 -0.55
9 -0.54

> <PUBCHEM_EFFECTIVE_ROTOR_COUNT>
11

> <PUBCHEM_PHARMACOPHORE_FEATURES>
23
1 10 acceptor
1 11 acceptor
1 13 acceptor
1 14 acceptor
1 16 acceptor
1 17 acceptor
1 18 acceptor
1 19 acceptor
1 20 acceptor
1 25 cation
1 25 donor
1 5 acceptor
1 6 acceptor
1 6 donor
1 7 acceptor
1 7 donor
3 21 22 32 cation
3 21 23 31 cation
3 23 24 35 cation
4 4 18 19 20 anion
5 21 22 31 32 33 rings
5 5 26 27 28 29 rings
6 23 24 31 33 34 35 rings

> <PUBCHEM_HEAVY_ATOM_COUNT>
35

> <PUBCHEM_ATOM_DEF_STEREO_COUNT>
4

> <PUBCHEM_ATOM_UDEF_STEREO_COUNT>
0

> <PUBCHEM_BOND_DEF_STEREO_COUNT>
0

> <PUBCHEM_BOND_UDEF_STEREO_COUNT>
0

> <PUBCHEM_ISOTOPIC_ATOM_COUNT>
0

> <PUBCHEM_COMPONENT_COUNT>
1

> <PUBCHEM_CACTVS_TAUTO_COUNT>
3

> <PUBCHEM_CONFORMER_ID>
000036B300000001

> <PUBCHEM_MMFF94_ENERGY>
-23.0441

> <PUBCHEM_FEATURE_SELFOVERLAP>
117.402

> <PUBCHEM_SHAPE_FINGERPRINT>
11578080 2 16770141304385068814
12156800 1 17760618740901739646
131258 38 17700411378156412490
13583140 156 18056193566879835177
14747281 78 18129923647227657149
20764821 26 15599500598734630168
20905425 154 18051128395951754128
22121540 332 16625498312664402461
229495 10 17558577882470702838
23419403 2 17628943371241900863
23559900 14 17060048195641464091
35225 105 17407366188661315630
463206 1 18341614767931608787
469060 322 17758443799090258118
6287921 2 16661748046536720599
6669772 16 18050829045194868596

> <PUBCHEM_SHAPE_MULTIPOLES>
616.87
6.57
4.74
3.22
2.47
2.51
3.08
-1.36
-3.55
-2.74
0.2
0.13
-2.02
-0.6

> <PUBCHEM_SHAPE_SELFOVERLAP>
1244.486

> <PUBCHEM_SHAPE_VOLUME>
363.6

> <PUBCHEM_COORDINATE_TYPE>
2
5
10

$$$$

