121160
  -OEChem-07051213063D

 37 38  0     0  0  0  0  0  0999 V2000
    5.8116   -0.9907   -0.3755 O   0  0  0  0  0  0  0  0  0  0  0  0
   -0.2689    2.3041   -0.3282 O   0  0  0  0  0  0  0  0  0  0  0  0
   -5.4591   -1.2296    0.1470 O   0  0  0  0  0  0  0  0  0  0  0  0
    3.3090    0.1608    0.3406 N   0  0  0  0  0  0  0  0  0  0  0  0
    3.4044   -0.9068   -0.6647 C   0  0  0  0  0  0  0  0  0  0  0  0
    4.5502    0.9474    0.3589 C   0  0  0  0  0  0  0  0  0  0  0  0
    2.1550    1.0183    0.0789 C   0  0  0  0  0  0  0  0  0  0  0  0
    4.6220   -1.7807   -0.3777 C   0  0  0  0  0  0  0  0  0  0  0  0
    5.7412    0.0301    0.6207 C   0  0  0  0  0  0  0  0  0  0  0  0
    0.8504    0.2259    0.1617 C   0  0  0  0  0  0  0  0  0  0  0  0
   -0.3680    1.1040   -0.0830 C   0  0  0  0  0  0  0  0  0  0  0  0
   -1.7239    0.4825   -0.0212 C   0  0  0  0  0  0  0  0  0  0  0  0
   -1.8207   -0.8620    0.2549 C   0  0  0  0  0  0  0  0  0  0  0  0
   -2.8243    1.2785   -0.2431 C   0  0  0  0  0  0  0  0  0  0  0  0
   -3.0877   -1.4426    0.3123 C   0  0  0  0  0  0  0  0  0  0  0  0
   -4.0913    0.6980   -0.1856 C   0  0  0  0  0  0  0  0  0  0  0  0
   -4.2231   -0.6627    0.0922 C   0  0  0  0  0  0  0  0  0  0  0  0
   -6.5769   -0.3744   -0.0879 C   0  0  0  0  0  0  0  0  0  0  0  0
    3.4874   -0.4802   -1.6726 H   0  0  0  0  0  0  0  0  0  0  0  0
    2.5410   -1.5767   -0.6414 H   0  0  0  0  0  0  0  0  0  0  0  0
    4.5080    1.7077    1.1471 H   0  0  0  0  0  0  0  0  0  0  0  0
    4.6897    1.4602   -0.6018 H   0  0  0  0  0  0  0  0  0  0  0  0
    2.2374    1.5060   -0.9019 H   0  0  0  0  0  0  0  0  0  0  0  0
    2.1203    1.8205    0.8277 H   0  0  0  0  0  0  0  0  0  0  0  0
    4.5285   -2.3040    0.5819 H   0  0  0  0  0  0  0  0  0  0  0  0
    4.7293   -2.5397   -1.1594 H   0  0  0  0  0  0  0  0  0  0  0  0
    6.6717    0.6048    0.5742 H   0  0  0  0  0  0  0  0  0  0  0  0
    5.6859   -0.4314    1.6143 H   0  0  0  0  0  0  0  0  0  0  0  0
    0.8164   -0.5455   -0.6128 H   0  0  0  0  0  0  0  0  0  0  0  0
    0.7675   -0.2284    1.1555 H   0  0  0  0  0  0  0  0  0  0  0  0
   -0.9680   -1.5068    0.4323 H   0  0  0  0  0  0  0  0  0  0  0  0
   -2.7427    2.3389   -0.4607 H   0  0  0  0  0  0  0  0  0  0  0  0
   -3.1847   -2.5031    0.5287 H   0  0  0  0  0  0  0  0  0  0  0  0
   -4.9302    1.3612   -0.3668 H   0  0  0  0  0  0  0  0  0  0  0  0
   -6.5628    0.0366   -1.1031 H   0  0  0  0  0  0  0  0  0  0  0  0
   -6.6527    0.4074    0.6754 H   0  0  0  0  0  0  0  0  0  0  0  0
   -7.4783   -0.9904   -0.0051 H   0  0  0  0  0  0  0  0  0  0  0  0
  1  8  1  0  0  0  0
  1  9  1  0  0  0  0
  2 11  2  0  0  0  0
  3 17  1  0  0  0  0
  3 18  1  0  0  0  0
  4  5  1  0  0  0  0
  4  6  1  0  0  0  0
  4  7  1  0  0  0  0
  5  8  1  0  0  0  0
  5 19  1  0  0  0  0
  5 20  1  0  0  0  0
  6  9  1  0  0  0  0
  6 21  1  0  0  0  0
  6 22  1  0  0  0  0
  7 10  1  0  0  0  0
  7 23  1  0  0  0  0
  7 24  1  0  0  0  0
  8 25  1  0  0  0  0
  8 26  1  0  0  0  0
  9 27  1  0  0  0  0
  9 28  1  0  0  0  0
 10 11  1  0  0  0  0
 10 29  1  0  0  0  0
 10 30  1  0  0  0  0
 11 12  1  0  0  0  0
 12 13  2  0  0  0  0
 12 14  1  0  0  0  0
 13 15  1  0  0  0  0
 13 31  1  0  0  0  0
 14 16  2  0  0  0  0
 14 32  1  0  0  0  0
 15 17  2  0  0  0  0
 15 33  1  0  0  0  0
 16 17  1  0  0  0  0
 16 34  1  0  0  0  0
 18 35  1  0  0  0  0
 18 36  1  0  0  0  0
 18 37  1  0  0  0  0
M  END
> <PUBCHEM_COMPOUND_CID>
121160

> <PUBCHEM_CONFORMER_RMSD>
0.8

> <PUBCHEM_CONFORMER_DIVERSEORDER>
1
37
39
13
38
27
22
41
33
4
43
16
18
40
5
25
30
21
17
11
14
42
19
15
24
9
20
12
26
31
6
28
2
8
3
29
23
35
36
10
34
7
32

> <PUBCHEM_MMFF94_PARTIAL_CHARGES>
22
1 -0.56
10 0.06
11 0.42
12 0.09
13 -0.15
14 -0.15
15 -0.15
16 -0.15
17 0.08
18 0.28
2 -0.57
3 -0.36
31 0.15
32 0.15
33 0.15
34 0.15
4 -0.81
5 0.27
6 0.27
7 0.27
8 0.28
9 0.28

> <PUBCHEM_EFFECTIVE_ROTOR_COUNT>
6.2

> <PUBCHEM_PHARMACOPHORE_FEATURES>
6
1 1 acceptor
1 2 acceptor
1 3 acceptor
1 4 cation
6 1 4 5 6 8 9 rings
6 12 13 14 15 16 17 rings

> <PUBCHEM_HEAVY_ATOM_COUNT>
18

> <PUBCHEM_ATOM_DEF_STEREO_COUNT>
0

> <PUBCHEM_ATOM_UDEF_STEREO_COUNT>
0

> <PUBCHEM_BOND_DEF_STEREO_COUNT>
0

> <PUBCHEM_BOND_UDEF_STEREO_COUNT>
0

> <PUBCHEM_ISOTOPIC_ATOM_COUNT>
0

> <PUBCHEM_COMPONENT_COUNT>
1

> <PUBCHEM_CACTVS_TAUTO_COUNT>
2

> <PUBCHEM_CONFORMER_ID>
0001D94800000001

> <PUBCHEM_MMFF94_ENERGY>
49.5002

> <PUBCHEM_FEATURE_SELFOVERLAP>
30.446

> <PUBCHEM_SHAPE_FINGERPRINT>
10 15 18262812783408476552
10354089 29 5112008344014013234
10968037 39 18342737394809373893
11128504 68 16773789290945715054
12236239 1 17131836481880787536
12516196 113 18186803564820911145
12555020 224 18340776944978452015
12596602 18 15213308491008684702
13288520 33 18412825777145458581
13402501 40 18409446990134001798
13533116 47 18040434382492965872
13551218 46 18261109698982556143
13685833 64 18411696569792090267
13862211 1 18343024388835170139
1420 363 18409728460762542862
14251752 14 17418105342510987685
14251764 18 18113332003825997169
14386348 63 18408602565403927110
14528608 73 10663817460007446401
15196674 1 18410292544729742126
15352361 1 18410854365222776668
17834072 8 18202570579454965367
17844677 252 18335696157021976064
18006028 8 18261114067106512793
1813 80 17704351078483664204
19141452 34 18187647960018795831
19784866 240 18411974759029200493
200 152 17967817158252912360
20374829 77 18342741822920675546
20403669 9 18409726279082920846
20645477 70 18260264187905538278
21236236 1 18335984263908135609
21267235 1 18342170060163861307
212847 35 8502657009061639342
2215653 11 18410018732285839711
22224240 67 17095249099022644518
2297311 6 18410849984208701676
23198884 109 14692574329738225623
23402539 116 18334019385015495245
23557571 272 18202004356457383484
23559900 14 18339647715838919697
239999 70 18334292081364006342
26918003 58 18040434386497795690
2871803 45 18271807947426485722
29717793 49 18202001018824351540
300161 21 6988322707572879733
3004659 81 18131631184331551604
335352 9 18413672397114985581
4214541 1 18410292548914290440
4325135 7 18273211968299290268
465052 167 18187359922347660422
5104073 3 18114749355834203144
542803 24 4895550788346379112
559249 180 18272093845960859915
9709674 26 18270396066673800642

> <PUBCHEM_SHAPE_MULTIPOLES>
347.84
15.24
1.69
0.7
1.65
0.13
0
-5.44
0.34
0.22
-0.15
0.27
-0.03
0.77

> <PUBCHEM_SHAPE_SELFOVERLAP>
719.38

> <PUBCHEM_SHAPE_VOLUME>
199.2

> <PUBCHEM_COORDINATE_TYPE>
2
5
10

$$$$

