13865
  -OEChem-06241222402D

 22 21  0     0  0  0  0  0  0999 V2000
    4.8059    2.4235    0.0000 Cl  0  5  0  0  0  0  0  0  0  0  0  0
    1.4030    4.3100    0.0000 S   0  3  0  0  0  0  0  0  0  0  0  0
    1.4030    0.3100    0.0000 O   0  0  0  0  0  0  0  0  0  0  0  0
    1.4030    3.3100    0.0000 C   0  0  0  0  0  0  0  0  0  0  0  0
    0.5369    2.8100    0.0000 C   0  0  0  0  0  0  0  0  0  0  0  0
    2.2690    2.8100    0.0000 C   0  0  0  0  0  0  0  0  0  0  0  0
    2.2690    4.8100    0.0000 C   0  0  0  0  0  0  0  0  0  0  0  0
    0.5369    4.8100    0.0000 C   0  0  0  0  0  0  0  0  0  0  0  0
    0.5369    1.8100    0.0000 C   0  0  0  0  0  0  0  0  0  0  0  0
    2.2690    1.8100    0.0000 C   0  0  0  0  0  0  0  0  0  0  0  0
    1.4030    1.3100    0.0000 C   0  0  0  0  0  0  0  0  0  0  0  0
    0.0000    3.1200    0.0000 H   0  0  0  0  0  0  0  0  0  0  0  0
    2.8059    3.1200    0.0000 H   0  0  0  0  0  0  0  0  0  0  0  0
    2.5790    4.2731    0.0000 H   0  0  0  0  0  0  0  0  0  0  0  0
    2.8059    5.1200    0.0000 H   0  0  0  0  0  0  0  0  0  0  0  0
    0.8469    5.3469    0.0000 H   0  0  0  0  0  0  0  0  0  0  0  0
    0.0000    5.1200    0.0000 H   0  0  0  0  0  0  0  0  0  0  0  0
    0.2269    4.2731    0.0000 H   0  0  0  0  0  0  0  0  0  0  0  0
    1.9590    5.3469    0.0000 H   0  0  0  0  0  0  0  0  0  0  0  0
    0.0000    1.5000    0.0000 H   0  0  0  0  0  0  0  0  0  0  0  0
    2.8059    1.5000    0.0000 H   0  0  0  0  0  0  0  0  0  0  0  0
    0.8660    0.0000    0.0000 H   0  0  0  0  0  0  0  0  0  0  0  0
  2  4  1  0  0  0  0
  2  7  1  0  0  0  0
  2  8  1  0  0  0  0
  3 11  1  0  0  0  0
  3 22  1  0  0  0  0
  4  5  2  0  0  0  0
  4  6  1  0  0  0  0
  5  9  1  0  0  0  0
  5 12  1  0  0  0  0
  6 10  2  0  0  0  0
  6 13  1  0  0  0  0
  7 14  1  0  0  0  0
  7 15  1  0  0  0  0
  7 19  1  0  0  0  0
  8 16  1  0  0  0  0
  8 17  1  0  0  0  0
  8 18  1  0  0  0  0
  9 11  2  0  0  0  0
  9 20  1  0  0  0  0
 10 11  1  0  0  0  0
 10 21  1  0  0  0  0
M  CHG  2   1  -1   2   1
M  END
> <PUBCHEM_COMPOUND_CID>
13865

> <PUBCHEM_COMPOUND_CANONICALIZED>
1

> <PUBCHEM_CACTVS_COMPLEXITY>
95.4

> <PUBCHEM_CACTVS_HBOND_ACCEPTOR>
2

> <PUBCHEM_CACTVS_HBOND_DONOR>
1

> <PUBCHEM_CACTVS_ROTATABLE_BOND>
1

> <PUBCHEM_CACTVS_SUBSKEYS>
AAADccBwIABEAAAAAAAAAAAAAAAAAAAAAAAwAAAAAAAAAAABAAAAGgQACAAACASA0ACyB4AAAgiAACBCAAACAAAgKBAIiBgGCIgIJiKiERKAcAAkwBEImAeAQAAAAIAAAAAAAAABAAAAAAAAAAAAAAAAAA==

> <PUBCHEM_IUPAC_OPENEYE_NAME>
(4-hydroxyphenyl)-dimethyl-sulfonium chloride

> <PUBCHEM_IUPAC_CAS_NAME>
(4-hydroxyphenyl)-dimethylsulfonium chloride

> <PUBCHEM_IUPAC_NAME>
(4-hydroxyphenyl)-dimethylsulfanium chloride

> <PUBCHEM_IUPAC_SYSTEMATIC_NAME>
(4-hydroxyphenyl)-dimethyl-sulfanium chloride

> <PUBCHEM_IUPAC_TRADITIONAL_NAME>
(4-hydroxyphenyl)-dimethyl-sulfonium chloride

> <PUBCHEM_IUPAC_INCHI>
InChI=1S/C8H10OS.ClH/c1-10(2)8-5-3-7(9)4-6-8;/h3-6H,1-2H3;1H

> <PUBCHEM_IUPAC_INCHIKEY>
UXWDJTXZHNODLR-UHFFFAOYSA-N

> <PUBCHEM_EXACT_MASS>
190.021914

> <PUBCHEM_MOLECULAR_FORMULA>
C8H11ClOS

> <PUBCHEM_MOLECULAR_WEIGHT>
190.69034

> <PUBCHEM_OPENEYE_CAN_SMILES>
C[S+](C)C1=CC=C(C=C1)O.[Cl-]

> <PUBCHEM_OPENEYE_ISO_SMILES>
C[S+](C)C1=CC=C(C=C1)O.[Cl-]

> <PUBCHEM_CACTVS_TPSA>
21.2

> <PUBCHEM_MONOISOTOPIC_WEIGHT>
190.021914

> <PUBCHEM_TOTAL_CHARGE>
0

> <PUBCHEM_HEAVY_ATOM_COUNT>
11

> <PUBCHEM_ATOM_DEF_STEREO_COUNT>
0

> <PUBCHEM_ATOM_UDEF_STEREO_COUNT>
0

> <PUBCHEM_BOND_DEF_STEREO_COUNT>
0

> <PUBCHEM_BOND_UDEF_STEREO_COUNT>
0

> <PUBCHEM_ISOTOPIC_ATOM_COUNT>
0

> <PUBCHEM_COMPONENT_COUNT>
2

> <PUBCHEM_CACTVS_TAUTO_COUNT>
2

> <PUBCHEM_COORDINATE_TYPE>
1
5
255

> <PUBCHEM_BONDANNOTATIONS>
10  11  8
4  5  8
4  6  8
5  9  8
6  10  8
9  11  8

$$$$

