442929
  -OEChem-07051213003D

 26 28  0     1  0  0  0  0  0999 V2000
   -2.9921   -1.4016   -1.0223 O   0  0  0  0  0  0  0  0  0  0  0  0
   -1.1897    0.9245    0.0372 N   0  0  0  0  0  0  0  0  0  0  0  0
   -0.2098   -1.2542    0.2109 N   0  0  0  0  0  0  0  0  0  0  0  0
   -2.5066    1.5152   -0.0280 C   0  0  0  0  0  0  0  0  0  0  0  0
   -3.3786    0.4035    0.5792 C   0  0  0  0  0  0  0  0  0  0  0  0
   -2.6467   -0.9109    0.2575 C   0  0  2  0  0  0  0  0  0  0  0  0
   -1.2163   -0.4413    0.1740 C   0  0  0  0  0  0  0  0  0  0  0  0
    0.0255    1.6668   -0.1899 C   0  0  0  0  0  0  0  0  0  0  0  0
    1.2258    0.7493   -0.0856 C   0  0  0  0  0  0  0  0  0  0  0  0
    1.0633   -0.6442    0.1023 C   0  0  0  0  0  0  0  0  0  0  0  0
    2.5140    1.2912   -0.1910 C   0  0  0  0  0  0  0  0  0  0  0  0
    2.1997   -1.4577    0.1833 C   0  0  0  0  0  0  0  0  0  0  0  0
    3.6341    0.4655   -0.1073 C   0  0  0  0  0  0  0  0  0  0  0  0
    3.4773   -0.9061    0.0797 C   0  0  0  0  0  0  0  0  0  0  0  0
   -2.7857    1.7105   -1.0688 H   0  0  0  0  0  0  0  0  0  0  0  0
   -2.5794    2.4423    0.5485 H   0  0  0  0  0  0  0  0  0  0  0  0
   -3.4192    0.5379    1.6673 H   0  0  0  0  0  0  0  0  0  0  0  0
   -4.3985    0.4351    0.1844 H   0  0  0  0  0  0  0  0  0  0  0  0
   -2.7908   -1.6864    1.0129 H   0  0  0  0  0  0  0  0  0  0  0  0
    0.1116    2.4656    0.5552 H   0  0  0  0  0  0  0  0  0  0  0  0
    0.0028    2.1148   -1.1898 H   0  0  0  0  0  0  0  0  0  0  0  0
    2.6492    2.3595   -0.3393 H   0  0  0  0  0  0  0  0  0  0  0  0
   -2.9947   -0.6596   -1.6505 H   0  0  0  0  0  0  0  0  0  0  0  0
    2.0954   -2.5305    0.3277 H   0  0  0  0  0  0  0  0  0  0  0  0
    4.6297    0.8918   -0.1889 H   0  0  0  0  0  0  0  0  0  0  0  0
    4.3511   -1.5480    0.1441 H   0  0  0  0  0  0  0  0  0  0  0  0
  1  6  1  0  0  0  0
  1 23  1  0  0  0  0
  2  4  1  0  0  0  0
  2  7  1  0  0  0  0
  2  8  1  0  0  0  0
  3  7  2  0  0  0  0
  3 10  1  0  0  0  0
  4  5  1  0  0  0  0
  4 15  1  0  0  0  0
  4 16  1  0  0  0  0
  5  6  1  0  0  0  0
  5 17  1  0  0  0  0
  5 18  1  0  0  0  0
  6  7  1  0  0  0  0
  6 19  1  0  0  0  0
  8  9  1  0  0  0  0
  8 20  1  0  0  0  0
  8 21  1  0  0  0  0
  9 10  1  0  0  0  0
  9 11  2  0  0  0  0
 10 12  2  0  0  0  0
 11 13  1  0  0  0  0
 11 22  1  0  0  0  0
 12 14  1  0  0  0  0
 12 24  1  0  0  0  0
 13 14  2  0  0  0  0
 13 25  1  0  0  0  0
 14 26  1  0  0  0  0
M  END
> <PUBCHEM_COMPOUND_CID>
442929

> <PUBCHEM_CONFORMER_RMSD>
0.4

> <PUBCHEM_CONFORMER_DIVERSEORDER>
1

> <PUBCHEM_MMFF94_PARTIAL_CHARGES>
18
1 -0.68
10 0.18
11 -0.15
12 -0.15
13 -0.15
14 -0.15
2 -0.79
22 0.15
23 0.4
24 0.15
25 0.15
26 0.15
3 -0.63
4 0.37
6 0.34
7 0.44
8 0.51
9 -0.14

> <PUBCHEM_EFFECTIVE_ROTOR_COUNT>
0.8

> <PUBCHEM_PHARMACOPHORE_FEATURES>
6
1 1 acceptor
1 1 donor
3 2 3 7 cation
5 2 4 5 6 7 rings
6 2 3 7 8 9 10 rings
6 9 10 11 12 13 14 rings

> <PUBCHEM_HEAVY_ATOM_COUNT>
14

> <PUBCHEM_ATOM_DEF_STEREO_COUNT>
1

> <PUBCHEM_ATOM_UDEF_STEREO_COUNT>
0

> <PUBCHEM_BOND_DEF_STEREO_COUNT>
0

> <PUBCHEM_BOND_UDEF_STEREO_COUNT>
0

> <PUBCHEM_ISOTOPIC_ATOM_COUNT>
0

> <PUBCHEM_COMPONENT_COUNT>
1

> <PUBCHEM_CACTVS_TAUTO_COUNT>
4

> <PUBCHEM_CONFORMER_ID>
0006C23100000001

> <PUBCHEM_MMFF94_ENERGY>
36.4076

> <PUBCHEM_FEATURE_SELFOVERLAP>
30.576

> <PUBCHEM_SHAPE_FINGERPRINT>
10062212 137 18339932596455443339
10608611 8 18412546530666359520
10922523 26 18339920527633992020
10967382 1 18340204193112627722
11132069 177 18408891762673729392
11471102 20 18413109476276944612
11769659 78 18410017649669367682
11806522 49 18266182729663430311
12032990 46 18341603828491558898
12251169 10 18336542810823356617
12932764 1 17895194367977810528
13221675 6 18413102887681003082
14144814 61 18412824685601266834
14325111 11 18411698794353086320
15196674 1 18412261748448357752
15442244 35 18195245744322404050
15536298 74 18335419076017751016
15775835 57 18408034113291412112
16945 1 18411983533299012200
17844478 74 17846770836693313461
18186145 218 17489868249999789546
193761 8 17403451880200952392
19422 9 18334853905054632262
200 152 18260558796696736519
20201158 50 18342455945750329018
20645477 70 18339928211499711855
21267235 1 18411690002370564530
21501502 16 18410855468881704644
21501925 9 18341061756716938018
2334 1 18412262830737879304
23402539 116 18410019840387492950
23402655 69 18411139168519813997
23463225 33 18341610442872991936
23552423 10 18272367576863512042
23559900 14 18262241131545227890
2748010 2 18412826918910492124
5104073 3 18411980269356113248
528886 8 18411984675797249456
53812653 166 18335140873621809240
69090 78 18335423512734844045
7364860 26 18336543803367380008
8809292 202 18201992235758889898
9709674 26 18410849954244417062

> <PUBCHEM_SHAPE_MULTIPOLES>
272.28
6.09
1.75
0.7
0.48
0.14
-0.04
-0.47
0.02
-0.09
-0.12
-0.25
-0.08
-0.36

> <PUBCHEM_SHAPE_SELFOVERLAP>
596.827

> <PUBCHEM_SHAPE_VOLUME>
148.5

> <PUBCHEM_COORDINATE_TYPE>
2
5
10

$$$$

