168722
  -OEChem-07051212573D

 39 42  0     1  0  0  0  0  0999 V2000
   -2.2327    1.8604    0.8498 O   0  0  0  0  0  0  0  0  0  0  0  0
    1.6798    1.3554    0.2299 O   0  0  0  0  0  0  0  0  0  0  0  0
   -2.6770   -1.1132    1.6886 O   0  0  0  0  0  0  0  0  0  0  0  0
    3.9603    1.7301    0.3468 O   0  0  0  0  0  0  0  0  0  0  0  0
   -0.5396    0.2040    0.2089 C   0  0  1  0  0  0  0  0  0  0  0  0
   -1.3251    1.4244   -0.1824 C   0  0  1  0  0  0  0  0  0  0  0  0
   -1.2359   -1.1000   -0.3160 C   0  0  2  0  0  0  0  0  0  0  0  0
   -2.8242    1.3464   -0.3427 C   0  0  1  0  0  0  0  0  0  0  0  0
    0.9193    0.2374   -0.2439 C   0  0  2  0  0  0  0  0  0  0  0  0
   -2.6840   -1.1364    0.2587 C   0  0  2  0  0  0  0  0  0  0  0  0
   -3.5557    0.0444   -0.2055 C   0  0  0  0  0  0  0  0  0  0  0  0
   -0.4183   -2.3441    0.1598 C   0  0  0  0  0  0  0  0  0  0  0  0
    1.6456   -0.9539    0.3556 C   0  0  1  0  0  0  0  0  0  0  0  0
    1.0871   -2.2650   -0.1727 C   0  0  0  0  0  0  0  0  0  0  0  0
   -0.6462    2.5630   -0.8599 C   0  0  0  0  0  0  0  0  0  0  0  0
   -1.3163   -1.1551   -1.8659 C   0  0  0  0  0  0  0  0  0  0  0  0
    3.0313   -0.4978    0.0948 C   0  0  0  0  0  0  0  0  0  0  0  0
    3.0056    0.9848    0.2271 C   0  0  0  0  0  0  0  0  0  0  0  0
    4.1261   -1.1848   -0.2310 C   0  0  0  0  0  0  0  0  0  0  0  0
   -0.5167    0.1888    1.3083 H   0  0  0  0  0  0  0  0  0  0  0  0
   -3.3437    2.0493   -0.9802 H   0  0  0  0  0  0  0  0  0  0  0  0
    0.9820    0.2512   -1.3410 H   0  0  0  0  0  0  0  0  0  0  0  0
   -3.1768   -2.0737   -0.0249 H   0  0  0  0  0  0  0  0  0  0  0  0
   -4.4074    0.1843    0.4709 H   0  0  0  0  0  0  0  0  0  0  0  0
   -3.9716   -0.1999   -1.1907 H   0  0  0  0  0  0  0  0  0  0  0  0
   -0.8353   -3.2600   -0.2770 H   0  0  0  0  0  0  0  0  0  0  0  0
   -0.5172   -2.4513    1.2479 H   0  0  0  0  0  0  0  0  0  0  0  0
    1.5273   -0.9531    1.4507 H   0  0  0  0  0  0  0  0  0  0  0  0
    1.6048   -3.1118    0.2932 H   0  0  0  0  0  0  0  0  0  0  0  0
    1.2508   -2.3559   -1.2522 H   0  0  0  0  0  0  0  0  0  0  0  0
   -0.1017    2.2393   -1.7518 H   0  0  0  0  0  0  0  0  0  0  0  0
   -1.3668    3.3175   -1.1984 H   0  0  0  0  0  0  0  0  0  0  0  0
    0.0370    3.0823   -0.1815 H   0  0  0  0  0  0  0  0  0  0  0  0
   -1.8031   -0.2753   -2.2963 H   0  0  0  0  0  0  0  0  0  0  0  0
   -0.3329   -1.2273   -2.3376 H   0  0  0  0  0  0  0  0  0  0  0  0
   -1.8885   -2.0334   -2.1877 H   0  0  0  0  0  0  0  0  0  0  0  0
   -2.5103   -0.2035    1.9863 H   0  0  0  0  0  0  0  0  0  0  0  0
    4.0967   -2.2645   -0.3301 H   0  0  0  0  0  0  0  0  0  0  0  0
    5.0758   -0.6909   -0.4061 H   0  0  0  0  0  0  0  0  0  0  0  0
  1  6  1  0  0  0  0
  1  8  1  0  0  0  0
  2  9  1  0  0  0  0
  2 18  1  0  0  0  0
  3 10  1  0  0  0  0
  3 37  1  0  0  0  0
  4 18  2  0  0  0  0
  5  6  1  0  0  0  0
  5  7  1  0  0  0  0
  5  9  1  0  0  0  0
  5 20  1  0  0  0  0
  6  8  1  0  0  0  0
  6 15  1  0  0  0  0
  7 10  1  0  0  0  0
  7 12  1  0  0  0  0
  7 16  1  0  0  0  0
  8 11  1  0  0  0  0
  8 21  1  0  0  0  0
  9 13  1  0  0  0  0
  9 22  1  0  0  0  0
 10 11  1  0  0  0  0
 10 23  1  0  0  0  0
 11 24  1  0  0  0  0
 11 25  1  0  0  0  0
 12 14  1  0  0  0  0
 12 26  1  0  0  0  0
 12 27  1  0  0  0  0
 13 14  1  0  0  0  0
 13 17  1  0  0  0  0
 13 28  1  0  0  0  0
 14 29  1  0  0  0  0
 14 30  1  0  0  0  0
 15 31  1  0  0  0  0
 15 32  1  0  0  0  0
 15 33  1  0  0  0  0
 16 34  1  0  0  0  0
 16 35  1  0  0  0  0
 16 36  1  0  0  0  0
 17 18  1  0  0  0  0
 17 19  2  0  0  0  0
 19 38  1  0  0  0  0
 19 39  1  0  0  0  0
M  END
> <PUBCHEM_COMPOUND_CID>
168722

> <PUBCHEM_CONFORMER_RMSD>
0.6

> <PUBCHEM_CONFORMER_DIVERSEORDER>
1

> <PUBCHEM_MMFF94_PARTIAL_CHARGES>
19
1 -0.3
10 0.28
11 0.09
13 0.14
15 0.09
17 -0.12
18 0.71
19 -0.3
2 -0.43
21 0.1
3 -0.68
37 0.4
38 0.15
39 0.15
4 -0.57
5 0.09
6 -0.04
8 -0.05
9 0.28

> <PUBCHEM_EFFECTIVE_ROTOR_COUNT>
1.2

> <PUBCHEM_PHARMACOPHORE_FEATURES>
7
1 1 acceptor
1 3 acceptor
1 3 donor
1 4 acceptor
5 2 9 13 17 18 rings
6 5 7 9 12 13 14 rings
7 1 5 6 7 8 10 11 rings

> <PUBCHEM_HEAVY_ATOM_COUNT>
19

> <PUBCHEM_ATOM_DEF_STEREO_COUNT>
7

> <PUBCHEM_ATOM_UDEF_STEREO_COUNT>
0

> <PUBCHEM_BOND_DEF_STEREO_COUNT>
0

> <PUBCHEM_BOND_UDEF_STEREO_COUNT>
0

> <PUBCHEM_ISOTOPIC_ATOM_COUNT>
0

> <PUBCHEM_COMPONENT_COUNT>
1

> <PUBCHEM_CACTVS_TAUTO_COUNT>
1

> <PUBCHEM_CONFORMER_ID>
0002931200000001

> <PUBCHEM_MMFF94_ENERGY>
62.2841

> <PUBCHEM_FEATURE_SELFOVERLAP>
35.603

> <PUBCHEM_SHAPE_FINGERPRINT>
10411042 1 16609137107371005306
10608611 8 18411141376333431428
10863032 1 18341051899614129659
10922523 26 18260267494840335190
10948715 1 18336830913240572997
10967382 1 18411140208049306596
11132069 177 18334304149504429978
12011746 2 18340769363785609581
12730499 353 16833478766578716213
13024252 1 11743846871779845607
13027679 85 17906173945369803269
13140716 1 18411420656703134568
13214271 11 18342742862403013917
13221675 6 18339082700069240022
13380535 76 18339365287157715115
13583140 156 16699521596910960256
14223421 5 18341330097219693434
14614273 12 18271820058880871749
14787075 74 17270308778661940066
15196674 1 18410857654882849805
15309172 13 18187359960939075147
15536298 74 18334016090564387460
15775835 57 18186802448150311563
16945 1 18260257560296155719
17804303 29 18339355379142754662
18186145 218 18334574693926658616
19591789 44 18410572933222600006
19868273 325 18268718216214069749
200 152 18041010561082854277
20510252 161 18334575711417183281
20525323 117 18336838485040991100
21267235 1 18410004463898437262
21501502 16 18194967576307130307
21524375 3 18337394949562491222
2334 1 18411140199601985164
23388829 49 18338517418006333095
23402539 116 18264784176584641990
23419403 2 16024592938046306781
23463225 33 18341896311569558948
23493267 7 17775010119437340065
23559900 14 18188212130639792670
238 59 15612465652949589164
2748010 2 18412262835043389740
3286 77 17095534967265530803
335352 9 18194403526873496220
350125 39 18338231673711090064
5104073 3 18411138047665056840
69090 78 18113908164455379247
7097593 13 17556316281815968442
7364860 26 18118968233083839838
81228 2 18121795936403492538
8809292 202 18272646895877566098
90525 40 18187086199528469142
9709674 26 18337670926859867206

> <PUBCHEM_SHAPE_MULTIPOLES>
367.53
5.96
2.57
1.02
3.72
0.34
-0.14
0.73
0.59
-0.06
-0.13
-0.64
-0.22
0.32

> <PUBCHEM_SHAPE_SELFOVERLAP>
801.192

> <PUBCHEM_SHAPE_VOLUME>
198.3

> <PUBCHEM_COORDINATE_TYPE>
2
5
10

$$$$

