5280366
  -OEChem-07051212443D

 16 15  0     0  0  0  0  0  0999 V2000
    1.4246   -1.6311   -0.0016 O   0  0  0  0  0  0  0  0  0  0  0  0
    3.6867   -0.4057    0.0045 O   0  0  0  0  0  0  0  0  0  0  0  0
   -4.7714    0.3132    0.0015 O   0  0  0  0  0  0  0  0  0  0  0  0
    2.6350    1.6219   -0.0022 O   0  0  0  0  0  0  0  0  0  0  0  0
    0.0710    0.3449   -0.0001 C   0  0  0  0  0  0  0  0  0  0  0  0
   -1.0961   -0.3132   -0.0014 C   0  0  0  0  0  0  0  0  0  0  0  0
    1.3467   -0.4124   -0.0024 C   0  0  0  0  0  0  0  0  0  0  0  0
   -2.3736    0.3636    0.0011 C   0  0  0  0  0  0  0  0  0  0  0  0
    2.6189    0.4077    0.0009 C   0  0  0  0  0  0  0  0  0  0  0  0
   -3.5418   -0.2888   -0.0002 C   0  0  0  0  0  0  0  0  0  0  0  0
    0.1118    1.4285    0.0028 H   0  0  0  0  0  0  0  0  0  0  0  0
   -1.1182   -1.4002   -0.0044 H   0  0  0  0  0  0  0  0  0  0  0  0
   -2.3682    1.4505    0.0040 H   0  0  0  0  0  0  0  0  0  0  0  0
   -3.6467   -1.3650   -0.0032 H   0  0  0  0  0  0  0  0  0  0  0  0
    4.5320    0.0919    0.0054 H   0  0  0  0  0  0  0  0  0  0  0  0
   -4.6353    1.2765    0.0040 H   0  0  0  0  0  0  0  0  0  0  0  0
  1  7  2  0  0  0  0
  2  9  1  0  0  0  0
  2 15  1  0  0  0  0
  3 10  1  0  0  0  0
  3 16  1  0  0  0  0
  4  9  2  0  0  0  0
  5  6  2  0  0  0  0
  5  7  1  0  0  0  0
  5 11  1  0  0  0  0
  6  8  1  0  0  0  0
  6 12  1  0  0  0  0
  7  9  1  0  0  0  0
  8 10  2  0  0  0  0
  8 13  1  0  0  0  0
 10 14  1  0  0  0  0
M  END
> <PUBCHEM_COMPOUND_CID>
5280366

> <PUBCHEM_CONFORMER_RMSD>
0.6

> <PUBCHEM_CONFORMER_DIVERSEORDER>
1
3
4
2

> <PUBCHEM_MMFF94_PARTIAL_CHARGES>
16
1 -0.57
10 -0.07
11 0.15
12 0.15
13 0.15
14 0.15
15 0.5
16 0.45
2 -0.65
3 -0.53
4 -0.57
5 -0.14
6 -0.15
7 0.56
8 -0.15
9 0.72

> <PUBCHEM_EFFECTIVE_ROTOR_COUNT>
3

> <PUBCHEM_PHARMACOPHORE_FEATURES>
5
1 1 acceptor
1 2 acceptor
1 3 donor
1 4 acceptor
3 2 4 9 anion

> <PUBCHEM_HEAVY_ATOM_COUNT>
10

> <PUBCHEM_ATOM_DEF_STEREO_COUNT>
0

> <PUBCHEM_ATOM_UDEF_STEREO_COUNT>
0

> <PUBCHEM_BOND_DEF_STEREO_COUNT>
2

> <PUBCHEM_BOND_UDEF_STEREO_COUNT>
0

> <PUBCHEM_ISOTOPIC_ATOM_COUNT>
0

> <PUBCHEM_COMPONENT_COUNT>
1

> <PUBCHEM_CACTVS_TAUTO_COUNT>
4

> <PUBCHEM_CONFORMER_ID>
0050926E00000001

> <PUBCHEM_MMFF94_ENERGY>
12.8985

> <PUBCHEM_FEATURE_SELFOVERLAP>
25.44

> <PUBCHEM_SHAPE_FINGERPRINT>
10219947 1 18272930505394967948
11062470 55 18060419114540113485
12932764 1 17417826023133203075
14325111 11 18410573942238727427
170605 34 18413389821619286130
190213 19 17458060460913393743
20201158 50 18343017809061226243
20279233 1 17918267663016826131
20606313 2 18411138004779017756
20645477 70 18338521966593607519
20719005 15 18410855452065812843
23402655 69 18335142016109392685

> <PUBCHEM_SHAPE_MULTIPOLES>
182.32
7.39
1.11
0.58
5.51
0.02
0
-0.81
0.01
-0.88
0
0.03
0
0

> <PUBCHEM_SHAPE_SELFOVERLAP>
354.269

> <PUBCHEM_SHAPE_VOLUME>
108.5

> <PUBCHEM_COORDINATE_TYPE>
2
5
10

$$$$

