6457
  -OEChem-06261201203D

 36 38  0     0  0  0  0  0  0999 V2000
    0.0180   -0.0333   -2.0796 O   0  0  0  0  0  0  0  0  0  0  0  0
   -0.0278    0.0268   -0.6175 C   0  0  0  0  0  0  0  0  0  0  0  0
   -1.3596    0.5844   -0.2436 C   0  0  0  0  0  0  0  0  0  0  0  0
    0.1784   -1.4655   -0.1918 C   0  0  0  0  0  0  0  0  0  0  0  0
    1.2048    0.8945   -0.1906 C   0  0  0  0  0  0  0  0  0  0  0  0
   -2.5247   -0.0003   -0.7398 C   0  0  0  0  0  0  0  0  0  0  0  0
   -0.4753   -1.8924    0.9211 C   0  0  0  0  0  0  0  0  0  0  0  0
    1.7438    0.6505    1.0327 C   0  0  0  0  0  0  0  0  0  0  0  0
   -1.4400    1.6904    0.6027 C   0  0  0  0  0  0  0  0  0  0  0  0
    0.9959   -2.2276   -0.9657 C   0  0  0  0  0  0  0  0  0  0  0  0
    1.6454    1.8274   -1.0750 C   0  0  0  0  0  0  0  0  0  0  0  0
   -3.7703    0.5209   -0.3900 C   0  0  0  0  0  0  0  0  0  0  0  0
   -0.2919   -3.2220    1.3005 C   0  0  0  0  0  0  0  0  0  0  0  0
    2.8413    1.4228    1.4129 C   0  0  0  0  0  0  0  0  0  0  0  0
   -2.6857    2.2116    0.9526 C   0  0  0  0  0  0  0  0  0  0  0  0
    1.1791   -3.5574   -0.5863 C   0  0  0  0  0  0  0  0  0  0  0  0
    2.7432    2.5997   -0.6948 C   0  0  0  0  0  0  0  0  0  0  0  0
   -3.8509    1.6268    0.4561 C   0  0  0  0  0  0  0  0  0  0  0  0
    0.5352   -4.0545    0.5468 C   0  0  0  0  0  0  0  0  0  0  0  0
    3.3410    2.3973    0.5492 C   0  0  0  0  0  0  0  0  0  0  0  0
   -2.4856   -0.8617   -1.4017 H   0  0  0  0  0  0  0  0  0  0  0  0
   -1.1022   -1.2640    1.5425 H   0  0  0  0  0  0  0  0  0  0  0  0
    1.3649   -0.0789    1.7366 H   0  0  0  0  0  0  0  0  0  0  0  0
   -0.5719    2.1858    1.0223 H   0  0  0  0  0  0  0  0  0  0  0  0
    1.5245   -1.8587   -1.8375 H   0  0  0  0  0  0  0  0  0  0  0  0
    1.1873    2.0199   -2.0379 H   0  0  0  0  0  0  0  0  0  0  0  0
   -0.6744    0.5360   -2.4554 H   0  0  0  0  0  0  0  0  0  0  0  0
   -4.6776    0.0659   -0.7764 H   0  0  0  0  0  0  0  0  0  0  0  0
   -0.7878   -3.6077    2.1866 H   0  0  0  0  0  0  0  0  0  0  0  0
    3.3032    1.2700    2.3841 H   0  0  0  0  0  0  0  0  0  0  0  0
   -2.7495    3.0723    1.6121 H   0  0  0  0  0  0  0  0  0  0  0  0
    1.8276   -4.2045   -1.1698 H   0  0  0  0  0  0  0  0  0  0  0  0
    3.1294    3.3624   -1.3649 H   0  0  0  0  0  0  0  0  0  0  0  0
   -4.8207    2.0326    0.7287 H   0  0  0  0  0  0  0  0  0  0  0  0
    0.6802   -5.0891    0.8438 H   0  0  0  0  0  0  0  0  0  0  0  0
    4.1939    3.0005    0.8463 H   0  0  0  0  0  0  0  0  0  0  0  0
  1  2  1  0  0  0  0
  1 27  1  0  0  0  0
  2  3  1  0  0  0  0
  2  4  1  0  0  0  0
  2  5  1  0  0  0  0
  3  6  2  0  0  0  0
  3  9  1  0  0  0  0
  4  7  2  0  0  0  0
  4 10  1  0  0  0  0
  5  8  2  0  0  0  0
  5 11  1  0  0  0  0
  6 12  1  0  0  0  0
  6 21  1  0  0  0  0
  7 13  1  0  0  0  0
  7 22  1  0  0  0  0
  8 14  1  0  0  0  0
  8 23  1  0  0  0  0
  9 15  2  0  0  0  0
  9 24  1  0  0  0  0
 10 16  2  0  0  0  0
 10 25  1  0  0  0  0
 11 17  2  0  0  0  0
 11 26  1  0  0  0  0
 12 18  2  0  0  0  0
 12 28  1  0  0  0  0
 13 19  2  0  0  0  0
 13 29  1  0  0  0  0
 14 20  2  0  0  0  0
 14 30  1  0  0  0  0
 15 18  1  0  0  0  0
 15 31  1  0  0  0  0
 16 19  1  0  0  0  0
 16 32  1  0  0  0  0
 17 20  1  0  0  0  0
 17 33  1  0  0  0  0
 18 34  1  0  0  0  0
 19 35  1  0  0  0  0
 20 36  1  0  0  0  0
M  END
> <PUBCHEM_COMPOUND_CID>
6457

> <PUBCHEM_CONFORMER_RMSD>
0.6

> <PUBCHEM_CONFORMER_DIVERSEORDER>
1
2

> <PUBCHEM_MMFF94_PARTIAL_CHARGES>
36
1 -0.68
10 -0.15
11 -0.15
12 -0.15
13 -0.15
14 -0.15
15 -0.15
16 -0.15
17 -0.15
18 -0.15
19 -0.15
2 0.71
20 -0.15
21 0.15
22 0.15
23 0.15
24 0.15
25 0.15
26 0.15
27 0.4
28 0.15
29 0.15
3 -0.14
30 0.15
31 0.15
32 0.15
33 0.15
34 0.15
35 0.15
36 0.15
4 -0.14
5 -0.14
6 -0.15
7 -0.15
8 -0.15
9 -0.15

> <PUBCHEM_EFFECTIVE_ROTOR_COUNT>
3

> <PUBCHEM_PHARMACOPHORE_FEATURES>
5
1 1 acceptor
1 1 donor
6 3 6 9 12 15 18 rings
6 4 7 10 13 16 19 rings
6 5 8 11 14 17 20 rings

> <PUBCHEM_HEAVY_ATOM_COUNT>
20

> <PUBCHEM_ATOM_DEF_STEREO_COUNT>
0

> <PUBCHEM_ATOM_UDEF_STEREO_COUNT>
0

> <PUBCHEM_BOND_DEF_STEREO_COUNT>
0

> <PUBCHEM_BOND_UDEF_STEREO_COUNT>
0

> <PUBCHEM_ISOTOPIC_ATOM_COUNT>
0

> <PUBCHEM_COMPONENT_COUNT>
1

> <PUBCHEM_CACTVS_TAUTO_COUNT>
1

> <PUBCHEM_CONFORMER_ID>
0000193900000001

> <PUBCHEM_MMFF94_ENERGY>
81.013

> <PUBCHEM_FEATURE_SELFOVERLAP>
25.371

> <PUBCHEM_SHAPE_FINGERPRINT>
10090160 65 18339093601091830989
12553582 1 17474949208909453635
12643181 29 18339631271569368420
12788726 201 17693945089979758522
13132413 78 17687736555602184580
13134695 92 17691970775202601069
13140716 1 18410857667773039699
13275264 69 17403742151191570650
133893 2 18194139618397441573
13538477 17 17910683068367924896
136203 1 17906733596461339176
14178342 30 18412818084822309617
14617773 55 17196579901417313240
14787075 74 17980468276856226566
14817 1 14496170736162924910
14955137 171 17323487041171087123
15375462 189 17405408383970578603
15490181 8 18411979135268331887
15906896 17 18048323245104413518
16752209 62 17979642229869055846
16945 1 18116726302882973996
17980427 23 16884442156811800441
20510252 161 18119524328284988729
20567600 347 18335707117830671723
20645476 183 18268151950688846892
20905425 154 17827636168963556148
21524375 3 18259989262094707213
21731228 192 18410860923353326160
2255824 54 18266169724660531743
23366157 5 18196931282694375761
23419403 2 17032128309145143279
23557571 272 17613155166263081312
23558518 356 18337397028263424142
23559900 14 18123474040909638105
23598288 3 17835806296667463844
23728640 28 18121517764625865562
298252 57 17168149987834076508
3071541 236 18195253204327305541
3091708 16 9190438906244449675
352729 6 18051128094913698637
4175511 71 17613995622389431541
4340502 62 18343864408151995705
43471831 8 18408611357196668345
4409770 3 17835237848591524895
458136 41 18339060662571023297
474 4 18411138060713780425
6138700 20 18191300697193196790
6442390 28 18120343524777508987
7097593 13 17903074770136571025
7364860 26 18117560841041106989
81228 2 17761501291686747792
90316 7 17328854405634014114
9981440 41 18409454652519013529

> <PUBCHEM_SHAPE_MULTIPOLES>
405.72
4.85
4.68
1.37
2.87
5.31
-0.11
-5.53
0.65
-2.34
0.83
-0.34
0.05
-0.03

> <PUBCHEM_SHAPE_SELFOVERLAP>
900.92

> <PUBCHEM_SHAPE_VOLUME>
214.9

> <PUBCHEM_COORDINATE_TYPE>
2
5
10

$$$$

