51090948
  -OEChem-06241223012D

 50 53  0     0  0  0  0  0  0999 V2000
    8.0622   -0.2673    0.0000 O   0  0  0  0  0  0  0  0  0  0  0  0
    3.7320   -1.7673    0.0000 N   0  0  0  0  0  0  0  0  0  0  0  0
    6.3301   -0.2673    0.0000 N   0  0  0  0  0  0  0  0  0  0  0  0
    4.5981   -1.2673    0.0000 C   0  0  0  0  0  0  0  0  0  0  0  0
    4.5981   -0.2673    0.0000 C   0  0  0  0  0  0  0  0  0  0  0  0
    5.4641   -1.7673    0.0000 C   0  0  0  0  0  0  0  0  0  0  0  0
    2.8660   -1.2673    0.0000 C   0  0  0  0  0  0  0  0  0  0  0  0
    3.7320   -2.7673    0.0000 C   0  0  0  0  0  0  0  0  0  0  0  0
    5.4641    0.2327    0.0000 C   0  0  0  0  0  0  0  0  0  0  0  0
    6.3301   -1.2673    0.0000 C   0  0  0  0  0  0  0  0  0  0  0  0
    2.0000   -1.7673    0.0000 C   0  0  0  0  0  0  0  0  0  0  0  0
    2.8660   -3.2673    0.0000 C   0  0  0  0  0  0  0  0  0  0  0  0
    2.0000   -2.7673    0.0000 C   0  0  0  0  0  0  0  0  0  0  0  0
    7.1962    0.2327    0.0000 C   0  0  0  0  0  0  0  0  0  0  0  0
    7.1962    1.2327    0.0000 C   0  0  0  0  0  0  0  0  0  0  0  0
    8.0622    1.7327    0.0000 C   0  0  0  0  0  0  0  0  0  0  0  0
    6.3301    1.7327    0.0000 C   0  0  0  0  0  0  0  0  0  0  0  0
    8.0622    2.7327    0.0000 C   0  0  0  0  0  0  0  0  0  0  0  0
    8.9561    1.1980    0.0000 C   0  0  0  0  0  0  0  0  0  0  0  0
    6.3301    2.7327    0.0000 C   0  0  0  0  0  0  0  0  0  0  0  0
    7.1962    3.2327    0.0000 C   0  0  0  0  0  0  0  0  0  0  0  0
    8.9561    3.2673    0.0000 C   0  0  0  0  0  0  0  0  0  0  0  0
    9.8622    1.7118    0.0000 C   0  0  0  0  0  0  0  0  0  0  0  0
    9.8622    2.7535    0.0000 C   0  0  0  0  0  0  0  0  0  0  0  0
    4.5981   -1.8873    0.0000 H   0  0  0  0  0  0  0  0  0  0  0  0
    4.3860    0.3153    0.0000 H   0  0  0  0  0  0  0  0  0  0  0  0
    3.9875   -0.3750    0.0000 H   0  0  0  0  0  0  0  0  0  0  0  0
    5.0656   -2.2423    0.0000 H   0  0  0  0  0  0  0  0  0  0  0  0
    5.8626   -2.2423    0.0000 H   0  0  0  0  0  0  0  0  0  0  0  0
    3.2646   -0.7924    0.0000 H   0  0  0  0  0  0  0  0  0  0  0  0
    2.4675   -0.7924    0.0000 H   0  0  0  0  0  0  0  0  0  0  0  0
    3.9441   -3.3499    0.0000 H   0  0  0  0  0  0  0  0  0  0  0  0
    4.3426   -2.6597    0.0000 H   0  0  0  0  0  0  0  0  0  0  0  0
    5.8626    0.7076    0.0000 H   0  0  0  0  0  0  0  0  0  0  0  0
    6.5422   -1.8499    0.0000 H   0  0  0  0  0  0  0  0  0  0  0  0
    6.9407   -1.1597    0.0000 H   0  0  0  0  0  0  0  0  0  0  0  0
    5.0656    0.7076    0.0000 H   0  0  0  0  0  0  0  0  0  0  0  0
    1.7880   -1.1847    0.0000 H   0  0  0  0  0  0  0  0  0  0  0  0
    1.3894   -1.8750    0.0000 H   0  0  0  0  0  0  0  0  0  0  0  0
    2.4675   -3.7423    0.0000 H   0  0  0  0  0  0  0  0  0  0  0  0
    3.2646   -3.7423    0.0000 H   0  0  0  0  0  0  0  0  0  0  0  0
    1.3894   -2.6597    0.0000 H   0  0  0  0  0  0  0  0  0  0  0  0
    1.7880   -3.3499    0.0000 H   0  0  0  0  0  0  0  0  0  0  0  0
    5.7932    1.4227    0.0000 H   0  0  0  0  0  0  0  0  0  0  0  0
    8.9490    0.5780    0.0000 H   0  0  0  0  0  0  0  0  0  0  0  0
    5.7932    3.0427    0.0000 H   0  0  0  0  0  0  0  0  0  0  0  0
    7.1962    3.8527    0.0000 H   0  0  0  0  0  0  0  0  0  0  0  0
    8.9490    3.8873    0.0000 H   0  0  0  0  0  0  0  0  0  0  0  0
   10.3979    1.3998    0.0000 H   0  0  0  0  0  0  0  0  0  0  0  0
   10.3979    3.0656    0.0000 H   0  0  0  0  0  0  0  0  0  0  0  0
  1 14  2  0  0  0  0
  2  4  1  0  0  0  0
  2  7  1  0  0  0  0
  2  8  1  0  0  0  0
  3  9  1  0  0  0  0
  3 10  1  0  0  0  0
  3 14  1  0  0  0  0
  4  5  1  0  0  0  0
  4  6  1  0  0  0  0
  4 25  1  0  0  0  0
  5  9  1  0  0  0  0
  5 26  1  0  0  0  0
  5 27  1  0  0  0  0
  6 10  1  0  0  0  0
  6 28  1  0  0  0  0
  6 29  1  0  0  0  0
  7 11  1  0  0  0  0
  7 30  1  0  0  0  0
  7 31  1  0  0  0  0
  8 12  1  0  0  0  0
  8 32  1  0  0  0  0
  8 33  1  0  0  0  0
  9 34  1  0  0  0  0
  9 37  1  0  0  0  0
 10 35  1  0  0  0  0
 10 36  1  0  0  0  0
 11 13  1  0  0  0  0
 11 38  1  0  0  0  0
 11 39  1  0  0  0  0
 12 13  1  0  0  0  0
 12 40  1  0  0  0  0
 12 41  1  0  0  0  0
 13 42  1  0  0  0  0
 13 43  1  0  0  0  0
 14 15  1  0  0  0  0
 15 16  1  0  0  0  0
 15 17  2  0  0  0  0
 16 18  1  0  0  0  0
 16 19  2  0  0  0  0
 17 20  1  0  0  0  0
 17 44  1  0  0  0  0
 18 21  1  0  0  0  0
 18 22  2  0  0  0  0
 19 23  1  0  0  0  0
 19 45  1  0  0  0  0
 20 21  2  0  0  0  0
 20 46  1  0  0  0  0
 21 47  1  0  0  0  0
 22 24  1  0  0  0  0
 22 48  1  0  0  0  0
 23 24  2  0  0  0  0
 23 49  1  0  0  0  0
 24 50  1  0  0  0  0
M  END
> <PUBCHEM_COMPOUND_CID>
51090948

> <PUBCHEM_COMPOUND_CANONICALIZED>
1

> <PUBCHEM_CACTVS_COMPLEXITY>
424

> <PUBCHEM_CACTVS_HBOND_ACCEPTOR>
2

> <PUBCHEM_CACTVS_HBOND_DONOR>
0

> <PUBCHEM_CACTVS_ROTATABLE_BOND>
2

> <PUBCHEM_CACTVS_SUBSKEYS>
AAADceB7IAAAAAAAAAAAAAAAAAAAAAAAAAA8eIEAAAAAAADBUAAAHgAAAAAADCjBmAQwAMMAAACIAiFSEACCAAAkAAAIiAEIBMgIIDKA1RGEIQhghgCIiYcYiMCOgAACAAAQAAAAAAQAACAAAAAAAAAAAA==

> <PUBCHEM_IUPAC_OPENEYE_NAME>
1-naphthyl-[4-(1-piperidyl)-1-piperidyl]methanone

> <PUBCHEM_IUPAC_CAS_NAME>
1-naphthalenyl-[4-(1-piperidinyl)-1-piperidinyl]methanone

> <PUBCHEM_IUPAC_NAME>
naphthalen-1-yl-(4-piperidin-1-ylpiperidin-1-yl)methanone

> <PUBCHEM_IUPAC_SYSTEMATIC_NAME>
naphthalen-1-yl-(4-piperidin-1-ylpiperidin-1-yl)methanone

> <PUBCHEM_IUPAC_TRADITIONAL_NAME>
1-naphthyl-(4-piperidinopiperidino)methanone

> <PUBCHEM_IUPAC_INCHI>
InChI=1S/C21H26N2O/c24-21(20-10-6-8-17-7-2-3-9-19(17)20)23-15-11-18(12-16-23)22-13-4-1-5-14-22/h2-3,6-10,18H,1,4-5,11-16H2

> <PUBCHEM_IUPAC_INCHIKEY>
RCFBIMIXYLFTER-UHFFFAOYSA-N

> <PUBCHEM_XLOGP3_AA>
4.1

> <PUBCHEM_EXACT_MASS>
322.204513

> <PUBCHEM_MOLECULAR_FORMULA>
C21H26N2O

> <PUBCHEM_MOLECULAR_WEIGHT>
322.44394

> <PUBCHEM_OPENEYE_CAN_SMILES>
C1CCN(CC1)C2CCN(CC2)C(=O)C3=CC=CC4=CC=CC=C43

> <PUBCHEM_OPENEYE_ISO_SMILES>
C1CCN(CC1)C2CCN(CC2)C(=O)C3=CC=CC4=CC=CC=C43

> <PUBCHEM_CACTVS_TPSA>
23.6

> <PUBCHEM_MONOISOTOPIC_WEIGHT>
322.204513

> <PUBCHEM_TOTAL_CHARGE>
0

> <PUBCHEM_HEAVY_ATOM_COUNT>
24

> <PUBCHEM_ATOM_DEF_STEREO_COUNT>
0

> <PUBCHEM_ATOM_UDEF_STEREO_COUNT>
0

> <PUBCHEM_BOND_DEF_STEREO_COUNT>
0

> <PUBCHEM_BOND_UDEF_STEREO_COUNT>
0

> <PUBCHEM_ISOTOPIC_ATOM_COUNT>
0

> <PUBCHEM_COMPONENT_COUNT>
1

> <PUBCHEM_CACTVS_TAUTO_COUNT>
1

> <PUBCHEM_COORDINATE_TYPE>
1
5
255

> <PUBCHEM_BONDANNOTATIONS>
15  16  8
15  17  8
16  18  8
16  19  8
17  20  8
18  21  8
18  22  8
19  23  8
20  21  8
22  24  8
23  24  8

$$$$

