17396321
  -OEChem-06241222553D

 33 35  0     0  0  0  0  0  0999 V2000
    0.0432   -1.7230   -0.0022 S   0  0  0  0  0  0  0  0  0  0  0  0
   -4.3297    1.9816   -0.0019 S   0  0  0  0  0  0  0  0  0  0  0  0
    6.9830    0.4618   -1.0910 O   0  0  0  0  0  0  0  0  0  0  0  0
   -3.8731   -1.9627    0.0104 N   0  0  0  0  0  0  0  0  0  0  0  0
   -2.3106   -0.2921   -0.0007 N   0  0  0  0  0  0  0  0  0  0  0  0
   -2.6249   -2.4546    0.0086 N   0  0  0  0  0  0  0  0  0  0  0  0
    6.9899    0.4552    1.2021 N   0  0  0  0  0  0  0  0  0  0  0  0
    2.1069    0.1079   -0.0148 C   0  0  0  0  0  0  0  0  0  0  0  0
    0.6191    0.0022   -0.0102 C   0  0  0  0  0  0  0  0  0  0  0  0
    2.8058    0.1618    1.1909 C   0  0  0  0  0  0  0  0  0  0  0  0
    2.7993    0.1514   -1.2250 C   0  0  0  0  0  0  0  0  0  0  0  0
    4.8897    0.3028   -0.0232 C   0  0  0  0  0  0  0  0  0  0  0  0
    4.1973    0.2593    1.1869 C   0  0  0  0  0  0  0  0  0  0  0  0
    4.1907    0.2489   -1.2292 C   0  0  0  0  0  0  0  0  0  0  0  0
   -3.6282   -0.6507    0.0042 C   0  0  0  0  0  0  0  0  0  0  0  0
   -4.6759    0.3046    0.0040 C   0  0  0  0  0  0  0  0  0  0  0  0
   -1.7022   -1.4554    0.0019 C   0  0  0  0  0  0  0  0  0  0  0  0
   -6.0310    0.0566    0.0087 C   0  0  0  0  0  0  0  0  0  0  0  0
    6.3404    0.4046   -0.0278 C   0  0  0  0  0  0  0  0  0  0  0  0
   -6.7949    1.2593    0.0070 C   0  0  0  0  0  0  0  0  0  0  0  0
   -5.9949    2.3806    0.0015 C   0  0  0  0  0  0  0  0  0  0  0  0
    0.2144    0.5213    0.8671 H   0  0  0  0  0  0  0  0  0  0  0  0
    0.2095    0.5148   -0.8891 H   0  0  0  0  0  0  0  0  0  0  0  0
    2.2776    0.1274    2.1403 H   0  0  0  0  0  0  0  0  0  0  0  0
    2.2667    0.1088   -2.1715 H   0  0  0  0  0  0  0  0  0  0  0  0
    4.6737    0.2967    2.1590 H   0  0  0  0  0  0  0  0  0  0  0  0
    4.7076    0.2806   -2.1847 H   0  0  0  0  0  0  0  0  0  0  0  0
   -4.6973   -2.5576    0.0152 H   0  0  0  0  0  0  0  0  0  0  0  0
   -6.4748   -0.9314    0.0131 H   0  0  0  0  0  0  0  0  0  0  0  0
   -7.8763    1.3000    0.0098 H   0  0  0  0  0  0  0  0  0  0  0  0
   -6.3085    3.4149   -0.0008 H   0  0  0  0  0  0  0  0  0  0  0  0
    6.5466    0.4192    2.1108 H   0  0  0  0  0  0  0  0  0  0  0  0
    8.0019    0.5333    1.2260 H   0  0  0  0  0  0  0  0  0  0  0  0
  1  9  1  0  0  0  0
  1 17  1  0  0  0  0
  2 16  1  0  0  0  0
  2 21  1  0  0  0  0
  3 19  2  0  0  0  0
  4  6  1  0  0  0  0
  4 15  1  0  0  0  0
  4 28  1  0  0  0  0
  5 15  2  0  0  0  0
  5 17  1  0  0  0  0
  6 17  2  0  0  0  0
  7 19  1  0  0  0  0
  7 32  1  0  0  0  0
  7 33  1  0  0  0  0
  8  9  1  0  0  0  0
  8 10  2  0  0  0  0
  8 11  1  0  0  0  0
  9 22  1  0  0  0  0
  9 23  1  0  0  0  0
 10 13  1  0  0  0  0
 10 24  1  0  0  0  0
 11 14  2  0  0  0  0
 11 25  1  0  0  0  0
 12 13  2  0  0  0  0
 12 14  1  0  0  0  0
 12 19  1  0  0  0  0
 13 26  1  0  0  0  0
 14 27  1  0  0  0  0
 15 16  1  0  0  0  0
 16 18  2  0  0  0  0
 18 20  1  0  0  0  0
 18 29  1  0  0  0  0
 20 21  2  0  0  0  0
 20 30  1  0  0  0  0
 21 31  1  0  0  0  0
M  END
> <PUBCHEM_COMPOUND_CID>
17396321

> <PUBCHEM_CONFORMER_RMSD>
0.8

> <PUBCHEM_CONFORMER_DIVERSEORDER>
1
55
120
4
24
52
46
22
62
59
76
31
91
17
26
97
40
29
53
2
75
51
30
65
109
111
114
11
63
61
49
74
3
60
64
43
69
103
71
122
56
117
8
13
23
12
113
25
10
96
16
77
14
93
54
101
32
116
58
85
72
80
83
9
20
44
105
100
48
34
118
41
45
68
82
15
38
87
6
33
99
79
95
57
5
98
81
21
110
84
7
112
73
66
19
108
70
107
36
86
78
121
42
89
119
39
28
104
35
88
115
123
92
94
106
67
27
18
50
90
37
47
102

> <PUBCHEM_MMFF94_PARTIAL_CHARGES>
31
1 -0.28
10 -0.15
11 -0.15
12 0.09
13 -0.15
14 -0.15
15 0.19
16 0.04
17 0.57
18 -0.15
19 0.54
2 -0.08
20 -0.15
21 -0.11
24 0.15
25 0.15
26 0.15
27 0.15
28 0.27
29 0.15
3 -0.57
30 0.15
31 0.15
32 0.37
33 0.37
4 0.3
5 -0.57
6 -0.71
7 -0.8
8 -0.14
9 0.37

> <PUBCHEM_EFFECTIVE_ROTOR_COUNT>
5

> <PUBCHEM_PHARMACOPHORE_FEATURES>
8
1 3 acceptor
1 4 donor
1 7 donor
3 4 5 15 cation
3 5 6 17 cation
5 2 16 18 20 21 rings
5 4 5 6 15 17 rings
6 8 10 11 12 13 14 rings

> <PUBCHEM_HEAVY_ATOM_COUNT>
21

> <PUBCHEM_ATOM_DEF_STEREO_COUNT>
0

> <PUBCHEM_ATOM_UDEF_STEREO_COUNT>
0

> <PUBCHEM_BOND_DEF_STEREO_COUNT>
0

> <PUBCHEM_BOND_UDEF_STEREO_COUNT>
0

> <PUBCHEM_ISOTOPIC_ATOM_COUNT>
0

> <PUBCHEM_COMPONENT_COUNT>
1

> <PUBCHEM_CACTVS_TAUTO_COUNT>
6

> <PUBCHEM_CONFORMER_ID>
0109726100000001

> <PUBCHEM_MMFF94_ENERGY>
50.7708

> <PUBCHEM_FEATURE_SELFOVERLAP>
43.343

> <PUBCHEM_SHAPE_FINGERPRINT>
10 15 18130783482652622401
10354089 29 16845572019903565292
10411042 1 17906170656306959223
10674148 151 18272652355931051314
10730089 173 18411135853274566121
11089746 13 18410017610808933797
11315181 36 17917711254382940447
11646440 116 18114172035020799833
11796584 16 18335136476150720070
12236239 1 17846499210419283042
12596602 18 16917062257552463481
12616971 3 16988560178311739230
12838862 33 18340783623605286837
13177829 73 18342737424847797212
13402501 40 18040720276944155505
13533116 47 17968940923783120054
14251752 14 18410292536472143098
14251764 18 17918275333353623831
14341114 176 14549017676189165294
14729087 3 18334298673152375080
14849402 71 16772940407998351356
15183329 4 17676482886598715842
15238133 3 18272366452136085660
155225 5 18191866940880801105
15716309 27 12607403290859642761
15778101 99 18411135836184335307
16079462 125 17676776405027507016
17780758 139 12463571799165801831
17844677 252 18267298742418173736
18608769 82 18336261250828495603
19489759 90 18261112954952426855
20281389 69 18413673521336458072
20621476 66 18342453742273889508
20645477 56 18408604764865039067
21033648 29 17896054178008259472
21150785 3 15357701885506405173
21623969 137 14189578554740697896
220451 1 17346601855268458954
22224240 67 14836121044332485289
23081809 10 17917713453390443190
23198884 109 16226045613786385873
23402539 116 18335706005423677246
23522609 53 17489006207361860084
23559900 14 17821732706291910976
2838139 119 18334582334736866389
300161 21 18334577949169172518
3009799 131 17313104154937298168
3411729 13 18271527610163025698
3545911 37 18260828202699411011
4073 2 18131626760452589746
5104073 3 16629680614167244336
5385378 56 18341048635339225819
5758199 1 17275384279682349248
5969126 39 18116440237700145535
6327066 14 18341055233215867341
6328613 192 18271520901877582100
7062679 6 18343017804919259205
7226269 152 18333449859177266417

> <PUBCHEM_SHAPE_MULTIPOLES>
414.08
20.03
1.91
0.99
6.55
0.43
0
-10.03
-0.21
-3.93
-0.01
1.69
-0.13
0.02

> <PUBCHEM_SHAPE_SELFOVERLAP>
874.881

> <PUBCHEM_SHAPE_VOLUME>
234.2

> <PUBCHEM_COORDINATE_TYPE>
2
5
10

$$$$

