5280595
  -OEChem-07051212483D

 17 16  0     0  0  0  0  0  0999 V2000
   -1.0058    0.7932    1.3384 O   0  0  0  0  0  0  0  0  0  0  0  0
   -3.1312   -0.4904    0.8972 O   0  0  0  0  0  0  0  0  0  0  0  0
    3.5592   -0.8963    0.0093 O   0  0  0  0  0  0  0  0  0  0  0  0
   -2.5865   -0.6932   -1.3220 O   0  0  0  0  0  0  0  0  0  0  0  0
    1.3371   -1.3434    0.2706 O   0  0  0  0  0  0  0  0  0  0  0  0
   -0.1307    0.6876   -0.9422 C   0  0  0  0  0  0  0  0  0  0  0  0
    1.0356    1.4786   -0.4346 C   0  0  0  0  0  0  0  0  0  0  0  0
   -1.1200    0.4377    0.1744 C   0  0  0  0  0  0  0  0  0  0  0  0
    2.1444    0.9153    0.0633 C   0  0  0  0  0  0  0  0  0  0  0  0
   -2.3575   -0.3353   -0.1844 C   0  0  0  0  0  0  0  0  0  0  0  0
    2.2555   -0.5537    0.1299 C   0  0  0  0  0  0  0  0  0  0  0  0
   -0.6371    1.2929   -1.7042 H   0  0  0  0  0  0  0  0  0  0  0  0
    0.1510   -0.2479   -1.4319 H   0  0  0  0  0  0  0  0  0  0  0  0
    0.9739    2.5622   -0.4865 H   0  0  0  0  0  0  0  0  0  0  0  0
    2.9839    1.5207    0.3852 H   0  0  0  0  0  0  0  0  0  0  0  0
   -3.9618   -0.9712    0.6945 H   0  0  0  0  0  0  0  0  0  0  0  0
    3.6887   -1.8680    0.0475 H   0  0  0  0  0  0  0  0  0  0  0  0
  1  8  2  0  0  0  0
  2 10  1  0  0  0  0
  2 16  1  0  0  0  0
  3 11  1  0  0  0  0
  3 17  1  0  0  0  0
  4 10  2  0  0  0  0
  5 11  2  0  0  0  0
  6  7  1  0  0  0  0
  6  8  1  0  0  0  0
  6 12  1  0  0  0  0
  6 13  1  0  0  0  0
  7  9  2  0  0  0  0
  7 14  1  0  0  0  0
  8 10  1  0  0  0  0
  9 11  1  0  0  0  0
  9 15  1  0  0  0  0
M  END
> <PUBCHEM_COMPOUND_CID>
5280595

> <PUBCHEM_CONFORMER_RMSD>
0.6

> <PUBCHEM_CONFORMER_DIVERSEORDER>
1
43
38
22
5
40
13
36
9
32
14
35
17
37
12
8
18
3
11
39
24
30
26
7
27
6
19
23
33
29
21
42
28
25
16
31
34
4
15
20
41
10
2

> <PUBCHEM_MMFF94_PARTIAL_CHARGES>
15
1 -0.57
10 0.72
11 0.71
14 0.15
15 0.15
16 0.5
17 0.5
2 -0.65
3 -0.65
4 -0.57
5 -0.57
6 0.2
7 -0.29
8 0.51
9 -0.14

> <PUBCHEM_EFFECTIVE_ROTOR_COUNT>
4

> <PUBCHEM_PHARMACOPHORE_FEATURES>
7
1 1 acceptor
1 2 acceptor
1 3 acceptor
1 4 acceptor
1 5 acceptor
3 2 4 10 anion
3 3 5 11 anion

> <PUBCHEM_HEAVY_ATOM_COUNT>
11

> <PUBCHEM_ATOM_DEF_STEREO_COUNT>
0

> <PUBCHEM_ATOM_UDEF_STEREO_COUNT>
0

> <PUBCHEM_BOND_DEF_STEREO_COUNT>
1

> <PUBCHEM_BOND_UDEF_STEREO_COUNT>
0

> <PUBCHEM_ISOTOPIC_ATOM_COUNT>
0

> <PUBCHEM_COMPONENT_COUNT>
1

> <PUBCHEM_CACTVS_TAUTO_COUNT>
4

> <PUBCHEM_CONFORMER_ID>
0050935300000001

> <PUBCHEM_MMFF94_ENERGY>
19.1318

> <PUBCHEM_FEATURE_SELFOVERLAP>
35.646

> <PUBCHEM_SHAPE_FINGERPRINT>
12897270 3 17846505845637392174
12932764 1 18187078408605688309
14128692 85 18334864887270119014
14390081 3 6771875060473756259
20201158 50 17846503650935614170
20711985 344 17201655556160162836
21028194 46 7565046277351367966
29004967 10 18130791122550349453
449060 23 18113895000713017566

> <PUBCHEM_SHAPE_MULTIPOLES>
197.03
4.79
1.29
1.02
0.02
0.1
-0.01
-1.8
-0.02
-0.73
0.05
0.7
0.07
-0.11

> <PUBCHEM_SHAPE_SELFOVERLAP>
390.579

> <PUBCHEM_SHAPE_VOLUME>
115

> <PUBCHEM_COORDINATE_TYPE>
2
5
10

$$$$

