55473
  -OEChem-07051213022D

 55 57  0     0  0  0  0  0  0999 V2000
    4.8198    1.3815    0.0000 O   0  0  0  0  0  0  0  0  0  0  0  0
    2.4067   -5.8799    0.0000 O   0  0  0  0  0  0  0  0  0  0  0  0
    7.4179    4.8815    0.0000 N   0  0  0  0  0  0  0  0  0  0  0  0
    3.0878   -1.6185    0.0000 N   0  0  0  0  0  0  0  0  0  0  0  0
    3.8968   -3.2063    0.0000 N   0  0  0  0  0  0  0  0  0  0  0  0
    2.2788   -3.2063    0.0000 N   0  0  0  0  0  0  0  0  0  0  0  0
    3.5878   -4.1573    0.0000 N   0  0  0  0  0  0  0  0  0  0  0  0
    8.2839    4.3815    0.0000 C   0  0  0  0  0  0  0  0  0  0  0  0
    7.4179    5.8815    0.0000 C   0  0  0  0  0  0  0  0  0  0  0  0
    8.2839    6.3815    0.0000 C   0  0  0  0  0  0  0  0  0  0  0  0
    9.1500    4.8815    0.0000 C   0  0  0  0  0  0  0  0  0  0  0  0
    9.1500    5.8815    0.0000 C   0  0  0  0  0  0  0  0  0  0  0  0
    6.5519    4.3815    0.0000 C   0  0  0  0  0  0  0  0  0  0  0  0
    6.5519    3.3815    0.0000 C   0  0  0  0  0  0  0  0  0  0  0  0
    5.6859    2.8815    0.0000 C   0  0  0  0  0  0  0  0  0  0  0  0
    7.4179    2.8815    0.0000 C   0  0  0  0  0  0  0  0  0  0  0  0
    5.6859    1.8815    0.0000 C   0  0  0  0  0  0  0  0  0  0  0  0
    7.4179    1.8815    0.0000 C   0  0  0  0  0  0  0  0  0  0  0  0
    6.5519    1.3815    0.0000 C   0  0  0  0  0  0  0  0  0  0  0  0
    3.9538   -0.1185    0.0000 C   0  0  0  0  0  0  0  0  0  0  0  0
    4.8198    0.3815    0.0000 C   0  0  0  0  0  0  0  0  0  0  0  0
    3.9538   -1.1185    0.0000 C   0  0  0  0  0  0  0  0  0  0  0  0
    3.0878   -2.6185    0.0000 C   0  0  0  0  0  0  0  0  0  0  0  0
    2.5878   -4.1573    0.0000 C   0  0  0  0  0  0  0  0  0  0  0  0
    4.8479   -2.8973    0.0000 C   0  0  0  0  0  0  0  0  0  0  0  0
    2.0000   -4.9664    0.0000 C   0  0  0  0  0  0  0  0  0  0  0  0
    7.8854    3.9066    0.0000 H   0  0  0  0  0  0  0  0  0  0  0  0
    8.6825    3.9066    0.0000 H   0  0  0  0  0  0  0  0  0  0  0  0
    7.2059    6.4641    0.0000 H   0  0  0  0  0  0  0  0  0  0  0  0
    6.8073    5.7738    0.0000 H   0  0  0  0  0  0  0  0  0  0  0  0
    8.6825    6.8564    0.0000 H   0  0  0  0  0  0  0  0  0  0  0  0
    7.8854    6.8564    0.0000 H   0  0  0  0  0  0  0  0  0  0  0  0
    9.3620    4.2989    0.0000 H   0  0  0  0  0  0  0  0  0  0  0  0
    9.7605    4.9892    0.0000 H   0  0  0  0  0  0  0  0  0  0  0  0
    9.7605    5.7738    0.0000 H   0  0  0  0  0  0  0  0  0  0  0  0
    9.3620    6.4641    0.0000 H   0  0  0  0  0  0  0  0  0  0  0  0
    6.3398    4.9641    0.0000 H   0  0  0  0  0  0  0  0  0  0  0  0
    5.9413    4.2738    0.0000 H   0  0  0  0  0  0  0  0  0  0  0  0
    5.1489    3.1915    0.0000 H   0  0  0  0  0  0  0  0  0  0  0  0
    7.9548    3.1915    0.0000 H   0  0  0  0  0  0  0  0  0  0  0  0
    7.9548    1.5715    0.0000 H   0  0  0  0  0  0  0  0  0  0  0  0
    6.5519    0.7615    0.0000 H   0  0  0  0  0  0  0  0  0  0  0  0
    3.7418    0.4641    0.0000 H   0  0  0  0  0  0  0  0  0  0  0  0
    3.3432   -0.2262    0.0000 H   0  0  0  0  0  0  0  0  0  0  0  0
    5.0319   -0.2011    0.0000 H   0  0  0  0  0  0  0  0  0  0  0  0
    5.4304    0.4892    0.0000 H   0  0  0  0  0  0  0  0  0  0  0  0
    4.1659   -1.7011    0.0000 H   0  0  0  0  0  0  0  0  0  0  0  0
    4.5644   -1.0108    0.0000 H   0  0  0  0  0  0  0  0  0  0  0  0
    2.5508   -1.3085    0.0000 H   0  0  0  0  0  0  0  0  0  0  0  0
    5.0395   -3.4869    0.0000 H   0  0  0  0  0  0  0  0  0  0  0  0
    5.4375   -2.7057    0.0000 H   0  0  0  0  0  0  0  0  0  0  0  0
    4.6563   -2.3076    0.0000 H   0  0  0  0  0  0  0  0  0  0  0  0
    1.5693   -4.5204    0.0000 H   0  0  0  0  0  0  0  0  0  0  0  0
    1.4860   -5.3131    0.0000 H   0  0  0  0  0  0  0  0  0  0  0  0
    2.0423   -6.3815    0.0000 H   0  0  0  0  0  0  0  0  0  0  0  0
  1 17  1  0  0  0  0
  1 21  1  0  0  0  0
  2 26  1  0  0  0  0
  2 55  1  0  0  0  0
  3  8  1  0  0  0  0
  3  9  1  0  0  0  0
  3 13  1  0  0  0  0
  4 22  1  0  0  0  0
  4 23  1  0  0  0  0
  4 49  1  0  0  0  0
  5  7  1  0  0  0  0
  5 23  1  0  0  0  0
  5 25  1  0  0  0  0
  6 23  2  0  0  0  0
  6 24  1  0  0  0  0
  7 24  2  0  0  0  0
  8 11  1  0  0  0  0
  8 27  1  0  0  0  0
  8 28  1  0  0  0  0
  9 10  1  0  0  0  0
  9 29  1  0  0  0  0
  9 30  1  0  0  0  0
 10 12  1  0  0  0  0
 10 31  1  0  0  0  0
 10 32  1  0  0  0  0
 11 12  1  0  0  0  0
 11 33  1  0  0  0  0
 11 34  1  0  0  0  0
 12 35  1  0  0  0  0
 12 36  1  0  0  0  0
 13 14  1  0  0  0  0
 13 37  1  0  0  0  0
 13 38  1  0  0  0  0
 14 15  2  0  0  0  0
 14 16  1  0  0  0  0
 15 17  1  0  0  0  0
 15 39  1  0  0  0  0
 16 18  2  0  0  0  0
 16 40  1  0  0  0  0
 17 19  2  0  0  0  0
 18 19  1  0  0  0  0
 18 41  1  0  0  0  0
 19 42  1  0  0  0  0
 20 21  1  0  0  0  0
 20 22  1  0  0  0  0
 20 43  1  0  0  0  0
 20 44  1  0  0  0  0
 21 45  1  0  0  0  0
 21 46  1  0  0  0  0
 22 47  1  0  0  0  0
 22 48  1  0  0  0  0
 24 26  1  0  0  0  0
 25 50  1  0  0  0  0
 25 51  1  0  0  0  0
 25 52  1  0  0  0  0
 26 53  1  0  0  0  0
 26 54  1  0  0  0  0
M  END
> <PUBCHEM_COMPOUND_CID>
55473

> <PUBCHEM_COMPOUND_CANONICALIZED>
1

> <PUBCHEM_CACTVS_COMPLEXITY>
394

> <PUBCHEM_CACTVS_HBOND_ACCEPTOR>
6

> <PUBCHEM_CACTVS_HBOND_DONOR>
2

> <PUBCHEM_CACTVS_ROTATABLE_BOND>
9

> <PUBCHEM_CACTVS_SUBSKEYS>
AAADceB7sAAAAAAAAAAAAAAAAAAAAWAAAAA8QAAAAAAAAAABwAAAHgAYCAAADAThmwYzFofIFgCiAiJiJASSiAsgoKAdyIAeDIiOPiKEuRuGOCj+2BOYqAewwBAOAAABAAAAAAAAAAIAAAAAAAAAAAAAAA==

> <PUBCHEM_IUPAC_OPENEYE_NAME>
[1-methyl-5-[3-[3-(1-piperidylmethyl)phenoxy]propylamino]-1,2,4-triazol-3-yl]methanol

> <PUBCHEM_IUPAC_CAS_NAME>
[1-methyl-5-[3-[3-(1-piperidinylmethyl)phenoxy]propylamino]-1,2,4-triazol-3-yl]methanol

> <PUBCHEM_IUPAC_NAME>
[1-methyl-5-[3-[3-(piperidin-1-ylmethyl)phenoxy]propylamino]-1,2,4-triazol-3-yl]methanol

> <PUBCHEM_IUPAC_SYSTEMATIC_NAME>
[1-methyl-5-[3-[3-(piperidin-1-ylmethyl)phenoxy]propylamino]-1,2,4-triazol-3-yl]methanol

> <PUBCHEM_IUPAC_TRADITIONAL_NAME>
[1-methyl-5-[3-[3-(piperidinomethyl)phenoxy]propylamino]-1,2,4-triazol-3-yl]methanol

> <PUBCHEM_IUPAC_INCHI>
InChI=1S/C19H29N5O2/c1-23-19(21-18(15-25)22-23)20-9-6-12-26-17-8-5-7-16(13-17)14-24-10-3-2-4-11-24/h5,7-8,13,25H,2-4,6,9-12,14-15H2,1H3,(H,20,21,22)

> <PUBCHEM_IUPAC_INCHIKEY>
VTLNPNNUIJHJQB-UHFFFAOYSA-N

> <PUBCHEM_XLOGP3_AA>
2.2

> <PUBCHEM_EXACT_MASS>
359.232125

> <PUBCHEM_MOLECULAR_FORMULA>
C19H29N5O2

> <PUBCHEM_MOLECULAR_WEIGHT>
359.46586

> <PUBCHEM_OPENEYE_CAN_SMILES>
CN1C(=NC(=N1)CO)NCCCOC2=CC=CC(=C2)CN3CCCCC3

> <PUBCHEM_OPENEYE_ISO_SMILES>
CN1C(=NC(=N1)CO)NCCCOC2=CC=CC(=C2)CN3CCCCC3

> <PUBCHEM_CACTVS_TPSA>
75.4

> <PUBCHEM_MONOISOTOPIC_WEIGHT>
359.232125

> <PUBCHEM_TOTAL_CHARGE>
0

> <PUBCHEM_HEAVY_ATOM_COUNT>
26

> <PUBCHEM_ATOM_DEF_STEREO_COUNT>
0

> <PUBCHEM_ATOM_UDEF_STEREO_COUNT>
0

> <PUBCHEM_BOND_DEF_STEREO_COUNT>
0

> <PUBCHEM_BOND_UDEF_STEREO_COUNT>
0

> <PUBCHEM_ISOTOPIC_ATOM_COUNT>
0

> <PUBCHEM_COMPONENT_COUNT>
1

> <PUBCHEM_CACTVS_TAUTO_COUNT>
3

> <PUBCHEM_COORDINATE_TYPE>
1
5
255

> <PUBCHEM_BONDANNOTATIONS>
14  15  8
14  16  8
15  17  8
16  18  8
17  19  8
18  19  8
5  23  8
5  7  8
6  23  8
6  24  8
7  24  8

$$$$

