9088
  -OEChem-06261203232D

 13 14  0     0  0  0  0  0  0999 V2000
    2.5000    0.0000    0.0000 C   0  0  0  0  0  0  0  0  0  0  0  0
    2.0000    0.8660    0.0000 C   0  0  0  0  0  0  0  0  0  0  0  0
    3.0000   -0.8660    0.0000 C   0  0  0  0  0  0  0  0  0  0  0  0
    2.0000   -0.8660    0.0000 C   0  0  0  0  0  0  0  0  0  0  0  0
    3.0000    0.8660    0.0000 C   0  0  0  0  0  0  0  0  0  0  0  0
    1.8923    1.4766    0.0000 H   0  0  0  0  0  0  0  0  0  0  0  0
    1.4174    0.6540    0.0000 H   0  0  0  0  0  0  0  0  0  0  0  0
    3.1077   -1.4766    0.0000 H   0  0  0  0  0  0  0  0  0  0  0  0
    3.5826   -0.6540    0.0000 H   0  0  0  0  0  0  0  0  0  0  0  0
    1.4174   -0.6540    0.0000 H   0  0  0  0  0  0  0  0  0  0  0  0
    1.8923   -1.4766    0.0000 H   0  0  0  0  0  0  0  0  0  0  0  0
    3.5826    0.6540    0.0000 H   0  0  0  0  0  0  0  0  0  0  0  0
    3.1077    1.4766    0.0000 H   0  0  0  0  0  0  0  0  0  0  0  0
  1  2  1  0  0  0  0
  1  3  1  0  0  0  0
  1  4  1  0  0  0  0
  1  5  1  0  0  0  0
  2  5  1  0  0  0  0
  2  6  1  0  0  0  0
  2  7  1  0  0  0  0
  3  4  1  0  0  0  0
  3  8  1  0  0  0  0
  3  9  1  0  0  0  0
  4 10  1  0  0  0  0
  4 11  1  0  0  0  0
  5 12  1  0  0  0  0
  5 13  1  0  0  0  0
M  END
> <PUBCHEM_COMPOUND_CID>
9088

> <PUBCHEM_COMPOUND_CANONICALIZED>
1

> <PUBCHEM_CACTVS_COMPLEXITY>
42.9

> <PUBCHEM_CACTVS_HBOND_ACCEPTOR>
0

> <PUBCHEM_CACTVS_HBOND_DONOR>
0

> <PUBCHEM_CACTVS_ROTATABLE_BOND>
0

> <PUBCHEM_CACTVS_SUBSKEYS>
AAADccBgAAAAAAAAAAAAAAAAGDAAAAAAAAAAAAAAAAAAAAAAAAAAGAAAAAAADgCAAAAAAAAAAAAAAAAAAAAAAAAAAAAAAAAAAAAAAAIAAAAAAAAAAAAAAAAAAAAIAAAAAAAAAAAAAAAAAAAAAAAAAAAAAA==

> <PUBCHEM_IUPAC_OPENEYE_NAME>
spiro[2.2]pentane

> <PUBCHEM_IUPAC_CAS_NAME>
spiro[2.2]pentane

> <PUBCHEM_IUPAC_NAME>
spiro[2.2]pentane

> <PUBCHEM_IUPAC_SYSTEMATIC_NAME>
spiro[2.2]pentane

> <PUBCHEM_IUPAC_TRADITIONAL_NAME>
spiro[2.2]pentane

> <PUBCHEM_IUPAC_INCHI>
InChI=1S/C5H8/c1-2-5(1)3-4-5/h1-4H2

> <PUBCHEM_IUPAC_INCHIKEY>
OGNAOIGAPPSUMG-UHFFFAOYSA-N

> <PUBCHEM_XLOGP3_AA>
2.1

> <PUBCHEM_EXACT_MASS>
68.0626

> <PUBCHEM_MOLECULAR_FORMULA>
C5H8

> <PUBCHEM_MOLECULAR_WEIGHT>
68.11702

> <PUBCHEM_OPENEYE_CAN_SMILES>
C1CC12CC2

> <PUBCHEM_OPENEYE_ISO_SMILES>
C1CC12CC2

> <PUBCHEM_CACTVS_TPSA>
0

> <PUBCHEM_MONOISOTOPIC_WEIGHT>
68.0626

> <PUBCHEM_TOTAL_CHARGE>
0

> <PUBCHEM_HEAVY_ATOM_COUNT>
5

> <PUBCHEM_ATOM_DEF_STEREO_COUNT>
0

> <PUBCHEM_ATOM_UDEF_STEREO_COUNT>
0

> <PUBCHEM_BOND_DEF_STEREO_COUNT>
0

> <PUBCHEM_BOND_UDEF_STEREO_COUNT>
0

> <PUBCHEM_ISOTOPIC_ATOM_COUNT>
0

> <PUBCHEM_COMPONENT_COUNT>
1

> <PUBCHEM_CACTVS_TAUTO_COUNT>
1

> <PUBCHEM_COORDINATE_TYPE>
1
5
255

$$$$

