308072
  -OEChem-07051213103D

 21 21  0     0  0  0  0  0  0999 V2000
    1.7898    1.2661    0.6058 O   0  0  0  0  0  0  0  0  0  0  0  0
    2.2311   -0.8195   -0.3064 N   0  0  0  0  0  0  0  0  0  0  0  0
   -0.5557    2.2907   -0.2383 N   0  0  0  0  0  0  0  0  0  0  0  0
   -0.0557   -0.0794    0.0746 C   0  0  0  0  0  0  0  0  0  0  0  0
   -0.9795    0.9490   -0.1111 C   0  0  0  0  0  0  0  0  0  0  0  0
   -0.4949   -1.3976    0.1981 C   0  0  0  0  0  0  0  0  0  0  0  0
    1.3750    0.1901    0.1441 C   0  0  0  0  0  0  0  0  0  0  0  0
   -2.3425    0.6593   -0.1731 C   0  0  0  0  0  0  0  0  0  0  0  0
   -1.8579   -1.6874    0.1360 C   0  0  0  0  0  0  0  0  0  0  0  0
   -2.7817   -0.6589   -0.0496 C   0  0  0  0  0  0  0  0  0  0  0  0
    3.6722   -0.7124   -0.2801 C   0  0  0  0  0  0  0  0  0  0  0  0
    0.1872   -2.2243    0.3752 H   0  0  0  0  0  0  0  0  0  0  0  0
   -3.0735    1.4510   -0.3169 H   0  0  0  0  0  0  0  0  0  0  0  0
   -2.2011   -2.7127    0.2394 H   0  0  0  0  0  0  0  0  0  0  0  0
   -3.8431   -0.8844   -0.0961 H   0  0  0  0  0  0  0  0  0  0  0  0
    1.8489   -1.6494   -0.7477 H   0  0  0  0  0  0  0  0  0  0  0  0
    0.4259    2.5292   -0.2191 H   0  0  0  0  0  0  0  0  0  0  0  0
   -1.2417    3.0213   -0.3764 H   0  0  0  0  0  0  0  0  0  0  0  0
    4.0020   -0.2873   -1.2311 H   0  0  0  0  0  0  0  0  0  0  0  0
    4.0922   -1.7134   -0.1582 H   0  0  0  0  0  0  0  0  0  0  0  0
    3.9941   -0.0676    0.5414 H   0  0  0  0  0  0  0  0  0  0  0  0
  1  7  2  0  0  0  0
  2  7  1  0  0  0  0
  2 11  1  0  0  0  0
  2 16  1  0  0  0  0
  3  5  1  0  0  0  0
  3 17  1  0  0  0  0
  3 18  1  0  0  0  0
  4  5  1  0  0  0  0
  4  6  2  0  0  0  0
  4  7  1  0  0  0  0
  5  8  2  0  0  0  0
  6  9  1  0  0  0  0
  6 12  1  0  0  0  0
  8 10  1  0  0  0  0
  8 13  1  0  0  0  0
  9 10  2  0  0  0  0
  9 14  1  0  0  0  0
 10 15  1  0  0  0  0
 11 19  1  0  0  0  0
 11 20  1  0  0  0  0
 11 21  1  0  0  0  0
M  END
> <PUBCHEM_COMPOUND_CID>
308072

> <PUBCHEM_CONFORMER_RMSD>
0.4

> <PUBCHEM_CONFORMER_DIVERSEORDER>
2
5
3
4
1

> <PUBCHEM_MMFF94_PARTIAL_CHARGES>
18
1 -0.57
10 -0.15
11 0.3
12 0.15
13 0.15
14 0.15
15 0.15
16 0.37
17 0.4
18 0.4
2 -0.73
3 -0.9
4 0.09
5 0.1
6 -0.15
7 0.54
8 -0.15
9 -0.15

> <PUBCHEM_EFFECTIVE_ROTOR_COUNT>
2

> <PUBCHEM_PHARMACOPHORE_FEATURES>
5
1 1 acceptor
1 2 donor
1 3 cation
1 3 donor
6 4 5 6 8 9 10 rings

> <PUBCHEM_HEAVY_ATOM_COUNT>
11

> <PUBCHEM_ATOM_DEF_STEREO_COUNT>
0

> <PUBCHEM_ATOM_UDEF_STEREO_COUNT>
0

> <PUBCHEM_BOND_DEF_STEREO_COUNT>
0

> <PUBCHEM_BOND_UDEF_STEREO_COUNT>
0

> <PUBCHEM_ISOTOPIC_ATOM_COUNT>
0

> <PUBCHEM_COMPONENT_COUNT>
1

> <PUBCHEM_CACTVS_TAUTO_COUNT>
3

> <PUBCHEM_CONFORMER_ID>
0004B36800000002

> <PUBCHEM_MMFF94_ENERGY>
38.816

> <PUBCHEM_FEATURE_SELFOVERLAP>
25.371

> <PUBCHEM_SHAPE_FINGERPRINT>
11206711 2 18340209703455429093
12032990 46 18340482275376748723
12524768 44 18337680689351666275
12716758 59 18342182163070536539
12897270 3 18411704300284797566
13024252 1 17346873472867775251
15219456 202 18261680272687147800
16945 1 18339087097899310931
20201158 50 18260265282684387750
20871998 184 18333165068132310335
21040471 1 18124885808895823665
23402539 116 18261684748169670959
23552423 10 18201439116927359062
23559900 14 18263928899184827774
241688 4 18412263921828507785
2748010 2 18339085873865228063
369184 2 14851608799169871879
5084963 1 18260551142616634977
7364860 26 18120369861369735724

> <PUBCHEM_SHAPE_MULTIPOLES>
210.54
4.45
1.83
0.65
3.16
0.5
0.01
-1.29
-0.41
-0.55
0.01
0.05
0.01
0.3

> <PUBCHEM_SHAPE_SELFOVERLAP>
436.799

> <PUBCHEM_SHAPE_VOLUME>
120.5

> <PUBCHEM_COORDINATE_TYPE>
2
5
10

$$$$

