5280408
  -OEChem-07051212453D

 22 21  0     0  0  0  0  0  0999 V2000
   -1.6447    2.0554    0.4047 O   0  0  0  0  0  0  0  0  0  0  0  0
   -3.8445   -1.3718   -0.1801 O   0  0  0  0  0  0  0  0  0  0  0  0
    0.5253    2.3644   -0.1853 O   0  0  0  0  0  0  0  0  0  0  0  0
   -2.2625   -0.8975    1.3771 O   0  0  0  0  0  0  0  0  0  0  0  0
    3.1356   -1.8448   -0.2445 O   0  0  0  0  0  0  0  0  0  0  0  0
    1.8088    0.0596   -0.0126 N   0  0  0  0  0  0  0  0  0  0  0  0
   -0.5277    0.2176   -0.5272 C   0  0  0  0  0  0  0  0  0  0  0  0
   -1.8469   -0.3608   -0.9692 C   0  0  0  0  0  0  0  0  0  0  0  0
    0.6280   -0.4644   -0.4471 C   0  0  0  0  0  0  0  0  0  0  0  0
   -0.4574    1.6436   -0.0985 C   0  0  0  0  0  0  0  0  0  0  0  0
   -2.6340   -0.8921    0.2117 C   0  0  0  0  0  0  0  0  0  0  0  0
    2.9897   -0.6635    0.0618 C   0  0  0  0  0  0  0  0  0  0  0  0
    4.1301    0.1542    0.6092 C   0  0  0  0  0  0  0  0  0  0  0  0
   -1.6756   -1.1927   -1.6623 H   0  0  0  0  0  0  0  0  0  0  0  0
   -2.4415    0.3977   -1.4897 H   0  0  0  0  0  0  0  0  0  0  0  0
    0.6527   -1.5111   -0.7343 H   0  0  0  0  0  0  0  0  0  0  0  0
    1.8300    1.0309    0.2826 H   0  0  0  0  0  0  0  0  0  0  0  0
    5.0748   -0.3684    0.4354 H   0  0  0  0  0  0  0  0  0  0  0  0
    3.9904    0.2996    1.6839 H   0  0  0  0  0  0  0  0  0  0  0  0
    4.1733    1.1276    0.1122 H   0  0  0  0  0  0  0  0  0  0  0  0
   -1.6173    2.9937    0.6898 H   0  0  0  0  0  0  0  0  0  0  0  0
   -4.3638   -1.7151    0.5780 H   0  0  0  0  0  0  0  0  0  0  0  0
  1 10  1  0  0  0  0
  1 21  1  0  0  0  0
  2 11  1  0  0  0  0
  2 22  1  0  0  0  0
  3 10  2  0  0  0  0
  4 11  2  0  0  0  0
  5 12  2  0  0  0  0
  6  9  1  0  0  0  0
  6 12  1  0  0  0  0
  6 17  1  0  0  0  0
  7  8  1  0  0  0  0
  7  9  2  0  0  0  0
  7 10  1  0  0  0  0
  8 11  1  0  0  0  0
  8 14  1  0  0  0  0
  8 15  1  0  0  0  0
  9 16  1  0  0  0  0
 12 13  1  0  0  0  0
 13 18  1  0  0  0  0
 13 19  1  0  0  0  0
 13 20  1  0  0  0  0
M  END
> <PUBCHEM_COMPOUND_CID>
5280408

> <PUBCHEM_CONFORMER_RMSD>
0.6

> <PUBCHEM_CONFORMER_DIVERSEORDER>
1
8
10
12
4
11
6
14
13
5
2
9
7
15
3

> <PUBCHEM_MMFF94_PARTIAL_CHARGES>
17
1 -0.65
10 0.71
11 0.66
12 0.57
13 0.06
16 0.15
17 0.37
2 -0.65
21 0.5
22 0.5
3 -0.57
4 -0.57
5 -0.57
6 -0.54
7 -0.12
8 0.2
9 -0.04

> <PUBCHEM_EFFECTIVE_ROTOR_COUNT>
5

> <PUBCHEM_PHARMACOPHORE_FEATURES>
8
1 1 acceptor
1 2 acceptor
1 3 acceptor
1 4 acceptor
1 5 acceptor
1 6 donor
3 1 3 10 anion
3 2 4 11 anion

> <PUBCHEM_HEAVY_ATOM_COUNT>
13

> <PUBCHEM_ATOM_DEF_STEREO_COUNT>
0

> <PUBCHEM_ATOM_UDEF_STEREO_COUNT>
0

> <PUBCHEM_BOND_DEF_STEREO_COUNT>
1

> <PUBCHEM_BOND_UDEF_STEREO_COUNT>
0

> <PUBCHEM_ISOTOPIC_ATOM_COUNT>
0

> <PUBCHEM_COMPONENT_COUNT>
1

> <PUBCHEM_CACTVS_TAUTO_COUNT>
4

> <PUBCHEM_CONFORMER_ID>
0050929800000001

> <PUBCHEM_MMFF94_ENERGY>
22.1688

> <PUBCHEM_FEATURE_SELFOVERLAP>
40.712

> <PUBCHEM_SHAPE_FINGERPRINT>
12932764 1 17386020485206003398
13296909 8 17095232640628559305
14252887 29 18334005073688975798
17844478 74 18261114092986716128
20201158 50 18131352981524217866
20281407 28 18408039615323976726
20671657 53 17060341807657806622
20871998 184 18114747139008631316
20871998 22 18335130999185910678
21061003 4 18410572864175542921
21296965 67 18410296891315747559
25610 137 18412545384199839252
2748010 2 18262244446801174700
5493415 88 18129378190100402179
5902787 121 17987522515578428746
81228 2 18197485427754012589

> <PUBCHEM_SHAPE_MULTIPOLES>
233.21
6.14
1.96
0.87
3.18
1.1
0.1
-3.19
1.04
-0.37
0.04
-0.34
-0.13
0.2

> <PUBCHEM_SHAPE_SELFOVERLAP>
460.649

> <PUBCHEM_SHAPE_VOLUME>
137.3

> <PUBCHEM_COORDINATE_TYPE>
2
5
10

$$$$

