442321
  -OEChem-07051212572D

 86 92  0     1  0  0  0  0  0999 V2000
    7.1982    0.8568    0.0000 O   0  0  0  0  0  0  0  0  0  0  0  0
    8.9311    3.8578    0.0000 O   0  0  0  0  0  0  0  0  0  0  0  0
    7.7312    3.3003    0.0000 O   0  0  0  0  0  0  0  0  0  0  0  0
    5.0588   -3.0478    0.0000 O   0  0  0  0  0  0  0  0  0  0  0  0
    6.6738    3.2972    0.0000 O   0  0  0  0  0  0  0  0  0  0  0  0
    3.3259   -4.0478    0.0000 O   0  0  0  0  0  0  0  0  0  0  0  0
    9.7975   -0.6439    0.0000 N   0  3  0  0  0  0  0  0  0  0  0  0
    2.8660    1.3571    0.0000 N   0  0  3  0  0  0  0  0  0  0  0  0
    8.9311   -0.1436    0.0000 C   0  0  1  0  0  0  0  0  0  0  0  0
   10.6640   -0.1436    0.0000 C   0  0  0  0  0  0  0  0  0  0  0  0
    8.9311    0.8568    0.0000 C   0  0  0  0  0  0  0  0  0  0  0  0
   10.6640    0.8568    0.0000 C   0  0  0  0  0  0  0  0  0  0  0  0
    8.5245   -1.0468    0.0000 C   0  0  0  0  0  0  0  0  0  0  0  0
    9.7975    1.3571    0.0000 C   0  0  0  0  0  0  0  0  0  0  0  0
   10.2975   -1.5099    0.0000 C   0  0  0  0  0  0  0  0  0  0  0  0
    9.2975   -1.5099    0.0000 C   0  0  0  0  0  0  0  0  0  0  0  0
    8.0646    1.3571    0.0000 C   0  0  0  0  0  0  0  0  0  0  0  0
    9.7975    2.3575    0.0000 C   0  0  0  0  0  0  0  0  0  0  0  0
    7.6581   -1.5471    0.0000 C   0  0  0  0  0  0  0  0  0  0  0  0
    8.0646    2.3575    0.0000 C   0  0  0  0  0  0  0  0  0  0  0  0
    8.9311    2.8578    0.0000 C   0  0  0  0  0  0  0  0  0  0  0  0
    3.7325    0.8568    0.0000 C   0  0  2  0  0  0  0  0  0  0  0  0
    4.5989    1.3571    0.0000 C   0  0  0  0  0  0  0  0  0  0  0  0
    6.7917   -1.0468    0.0000 C   0  0  0  0  0  0  0  0  0  0  0  0
    7.6581   -2.5476    0.0000 C   0  0  0  0  0  0  0  0  0  0  0  0
    6.3318    1.3571    0.0000 C   0  0  0  0  0  0  0  0  0  0  0  0
    4.5989    2.3575    0.0000 C   0  0  0  0  0  0  0  0  0  0  0  0
    2.8660    2.3575    0.0000 C   0  0  0  0  0  0  0  0  0  0  0  0
    3.7325    2.8578    0.0000 C   0  0  0  0  0  0  0  0  0  0  0  0
    3.3259   -0.0464    0.0000 C   0  0  0  0  0  0  0  0  0  0  0  0
    5.4653    0.8568    0.0000 C   0  0  0  0  0  0  0  0  0  0  0  0
    6.3318    2.3575    0.0000 C   0  0  0  0  0  0  0  0  0  0  0  0
    5.4653    2.8578    0.0000 C   0  0  0  0  0  0  0  0  0  0  0  0
    5.9252   -1.5471    0.0000 C   0  0  0  0  0  0  0  0  0  0  0  0
    6.7917   -3.0478    0.0000 C   0  0  0  0  0  0  0  0  0  0  0  0
    5.9252   -2.5476    0.0000 C   0  0  0  0  0  0  0  0  0  0  0  0
    2.0000    0.8571    0.0000 C   0  0  0  0  0  0  0  0  0  0  0  0
    3.3259   -1.0468    0.0000 C   0  0  0  0  0  0  0  0  0  0  0  0
    9.7971    4.3578    0.0000 C   0  0  0  0  0  0  0  0  0  0  0  0
    4.1924   -1.5471    0.0000 C   0  0  0  0  0  0  0  0  0  0  0  0
    4.1924   -2.5476    0.0000 C   0  0  0  0  0  0  0  0  0  0  0  0
    2.4595   -1.5471    0.0000 C   0  0  0  0  0  0  0  0  0  0  0  0
    3.3259   -3.0478    0.0000 C   0  0  0  0  0  0  0  0  0  0  0  0
    2.4595   -2.5476    0.0000 C   0  0  0  0  0  0  0  0  0  0  0  0
    6.0310    4.0633    0.0000 C   0  0  0  0  0  0  0  0  0  0  0  0
    8.1000    0.0348    0.0000 H   0  0  0  0  0  0  0  0  0  0  0  0
   10.8760   -0.7262    0.0000 H   0  0  0  0  0  0  0  0  0  0  0  0
   11.2745   -0.0360    0.0000 H   0  0  0  0  0  0  0  0  0  0  0  0
   11.2745    0.7492    0.0000 H   0  0  0  0  0  0  0  0  0  0  0  0
   10.8760    1.4394    0.0000 H   0  0  0  0  0  0  0  0  0  0  0  0
    8.6526   -1.6535    0.0000 H   0  0  0  0  0  0  0  0  0  0  0  0
    8.0646   -0.6310    0.0000 H   0  0  0  0  0  0  0  0  0  0  0  0
    8.7606   -1.1999    0.0000 H   0  0  0  0  0  0  0  0  0  0  0  0
    8.9875   -2.0468    0.0000 H   0  0  0  0  0  0  0  0  0  0  0  0
    9.8345   -1.8199    0.0000 H   0  0  0  0  0  0  0  0  0  0  0  0
    9.7606   -1.8199    0.0000 H   0  0  0  0  0  0  0  0  0  0  0  0
   10.6075   -2.0468    0.0000 H   0  0  0  0  0  0  0  0  0  0  0  0
   10.8345   -1.1999    0.0000 H   0  0  0  0  0  0  0  0  0  0  0  0
   10.3345    2.6676    0.0000 H   0  0  0  0  0  0  0  0  0  0  0  0
    2.9235    0.5958    0.0000 H   0  0  0  0  0  0  0  0  0  0  0  0
    6.7917   -0.4268    0.0000 H   0  0  0  0  0  0  0  0  0  0  0  0
    8.1950   -2.8576    0.0000 H   0  0  0  0  0  0  0  0  0  0  0  0
    2.6540    2.9402    0.0000 H   0  0  0  0  0  0  0  0  0  0  0  0
    2.2554    2.2499    0.0000 H   0  0  0  0  0  0  0  0  0  0  0  0
    4.1310    3.3327    0.0000 H   0  0  0  0  0  0  0  0  0  0  0  0
    3.3339    3.3327    0.0000 H   0  0  0  0  0  0  0  0  0  0  0  0
    2.8964    0.4008    0.0000 H   0  0  0  0  0  0  0  0  0  0  0  0
    3.9321   -0.1765    0.0000 H   0  0  0  0  0  0  0  0  0  0  0  0
    5.4653    0.2368    0.0000 H   0  0  0  0  0  0  0  0  0  0  0  0
    5.4653    3.4778    0.0000 H   0  0  0  0  0  0  0  0  0  0  0  0
    5.3883   -1.2371    0.0000 H   0  0  0  0  0  0  0  0  0  0  0  0
    6.7917   -3.6678    0.0000 H   0  0  0  0  0  0  0  0  0  0  0  0
    8.1340    3.7716    0.0000 H   0  0  0  0  0  0  0  0  0  0  0  0
    1.6900    1.3940    0.0000 H   0  0  0  0  0  0  0  0  0  0  0  0
    1.4631    0.5471    0.0000 H   0  0  0  0  0  0  0  0  0  0  0  0
    2.3100    0.3201    0.0000 H   0  0  0  0  0  0  0  0  0  0  0  0
   10.1071    3.8209    0.0000 H   0  0  0  0  0  0  0  0  0  0  0  0
   10.3340    4.6678    0.0000 H   0  0  0  0  0  0  0  0  0  0  0  0
    9.4871    4.8947    0.0000 H   0  0  0  0  0  0  0  0  0  0  0  0
    4.7293   -1.2371    0.0000 H   0  0  0  0  0  0  0  0  0  0  0  0
    1.9225   -1.2371    0.0000 H   0  0  0  0  0  0  0  0  0  0  0  0
    1.9225   -2.8576    0.0000 H   0  0  0  0  0  0  0  0  0  0  0  0
    6.5060    4.4618    0.0000 H   0  0  0  0  0  0  0  0  0  0  0  0
    5.6325    4.5382    0.0000 H   0  0  0  0  0  0  0  0  0  0  0  0
    5.5561    3.6648    0.0000 H   0  0  0  0  0  0  0  0  0  0  0  0
    2.7890   -4.3578    0.0000 H   0  0  0  0  0  0  0  0  0  0  0  0
  1 17  1  0  0  0  0
  1 26  1  0  0  0  0
  2 21  1  0  0  0  0
  2 39  1  0  0  0  0
  3 20  1  0  0  0  0
  3 73  1  0  0  0  0
  4 36  1  0  0  0  0
  4 41  1  0  0  0  0
  5 32  1  0  0  0  0
  5 45  1  0  0  0  0
  6 43  1  0  0  0  0
  6 86  1  0  0  0  0
  7  9  1  0  0  0  0
  7 10  1  0  0  0  0
  7 15  1  0  0  0  0
  7 16  1  0  0  0  0
  8 22  1  0  0  0  0
  8 28  1  0  0  0  0
  8 37  1  0  0  0  0
  9 11  1  0  0  0  0
  9 13  1  0  0  0  0
  9 46  1  1  0  0  0
 10 12  1  0  0  0  0
 10 47  1  0  0  0  0
 10 48  1  0  0  0  0
 11 14  1  0  0  0  0
 11 17  2  0  0  0  0
 12 14  1  0  0  0  0
 12 49  1  0  0  0  0
 12 50  1  0  0  0  0
 13 19  1  0  0  0  0
 13 51  1  0  0  0  0
 13 52  1  0  0  0  0
 14 18  2  0  0  0  0
 15 56  1  0  0  0  0
 15 57  1  0  0  0  0
 15 58  1  0  0  0  0
 16 53  1  0  0  0  0
 16 54  1  0  0  0  0
 16 55  1  0  0  0  0
 17 20  1  0  0  0  0
 18 21  1  0  0  0  0
 18 59  1  0  0  0  0
 19 24  2  0  0  0  0
 19 25  1  0  0  0  0
 20 21  2  0  0  0  0
 22 23  1  0  0  0  0
 22 30  1  0  0  0  0
 22 60  1  1  0  0  0
 23 27  1  0  0  0  0
 23 31  2  0  0  0  0
 24 34  1  0  0  0  0
 24 61  1  0  0  0  0
 25 35  2  0  0  0  0
 25 62  1  0  0  0  0
 26 31  1  0  0  0  0
 26 32  2  0  0  0  0
 27 29  1  0  0  0  0
 27 33  2  0  0  0  0
 28 29  1  0  0  0  0
 28 63  1  0  0  0  0
 28 64  1  0  0  0  0
 29 65  1  0  0  0  0
 29 66  1  0  0  0  0
 30 38  1  0  0  0  0
 30 67  1  0  0  0  0
 30 68  1  0  0  0  0
 31 69  1  0  0  0  0
 32 33  1  0  0  0  0
 33 70  1  0  0  0  0
 34 36  2  0  0  0  0
 34 71  1  0  0  0  0
 35 36  1  0  0  0  0
 35 72  1  0  0  0  0
 37 74  1  0  0  0  0
 37 75  1  0  0  0  0
 37 76  1  0  0  0  0
 38 40  2  0  0  0  0
 38 42  1  0  0  0  0
 39 77  1  0  0  0  0
 39 78  1  0  0  0  0
 39 79  1  0  0  0  0
 40 41  1  0  0  0  0
 40 80  1  0  0  0  0
 41 43  2  0  0  0  0
 42 44  2  0  0  0  0
 42 81  1  0  0  0  0
 43 44  1  0  0  0  0
 44 82  1  0  0  0  0
 45 83  1  0  0  0  0
 45 84  1  0  0  0  0
 45 85  1  0  0  0  0
M  CHG  1   7   1
M  END
> <PUBCHEM_COMPOUND_CID>
442321

> <PUBCHEM_COMPOUND_CANONICALIZED>
1

> <PUBCHEM_CACTVS_COMPLEXITY>
990

> <PUBCHEM_CACTVS_HBOND_ACCEPTOR>
7

> <PUBCHEM_CACTVS_HBOND_DONOR>
2

> <PUBCHEM_CACTVS_ROTATABLE_BOND>
2

> <PUBCHEM_CACTVS_SUBSKEYS>
AAADcfB/OAAAAAAAAAAAAAAAAAAAAAAAAAA8eMGCAAAAAACxVAAAHgAACAAADCzBmAYyBoMABgCAAiBCAACCCAAgIAAIiAAOjIgNJyKGsRuGeCvnwBWLuAew8P8OoAABCAAYQABAAAIQADCAAAAAAAAAAA==

> <PUBCHEM_IUPAC_INCHI>
InChI=1S/C37H40N2O6/c1-38-14-12-24-19-32(42-4)33-21-27(24)28(38)16-23-8-11-30(40)31(18-23)44-26-9-6-22(7-10-26)17-29-35-25(13-15-39(29,2)3)20-34(43-5)36(41)37(35)45-33/h6-11,18-21,28-29H,12-17H2,1-5H3,(H-,40,41)/p+1/t28-,29+/m0/s1

> <PUBCHEM_IUPAC_INCHIKEY>
MRNNKFDOEWDVRD-URLMMPGGSA-O

> <PUBCHEM_XLOGP3_AA>
6

> <PUBCHEM_EXACT_MASS>
609.296462

> <PUBCHEM_MOLECULAR_FORMULA>
C37H41N2O6+

> <PUBCHEM_MOLECULAR_WEIGHT>
609.73124

> <PUBCHEM_OPENEYE_CAN_SMILES>
CN1CCC2=CC(=C3C=C2C1CC4=CC(=C(C=C4)O)OC5=CC=C(CC6C7=C(O3)C(=C(C=C7CC[N+]6(C)C)OC)O)C=C5)OC

> <PUBCHEM_OPENEYE_ISO_SMILES>
CN1CCC2=CC(=C3C=C2[C@@H]1CC4=CC(=C(C=C4)O)OC5=CC=C(C[C@@H]6C7=C(O3)C(=C(C=C7CC[N+]6(C)C)OC)O)C=C5)OC

> <PUBCHEM_CACTVS_TPSA>
80.6

> <PUBCHEM_MONOISOTOPIC_WEIGHT>
609.296462

> <PUBCHEM_TOTAL_CHARGE>
1

> <PUBCHEM_HEAVY_ATOM_COUNT>
45

> <PUBCHEM_ATOM_DEF_STEREO_COUNT>
2

> <PUBCHEM_ATOM_UDEF_STEREO_COUNT>
0

> <PUBCHEM_BOND_DEF_STEREO_COUNT>
0

> <PUBCHEM_BOND_UDEF_STEREO_COUNT>
0

> <PUBCHEM_ISOTOPIC_ATOM_COUNT>
0

> <PUBCHEM_COMPONENT_COUNT>
1

> <PUBCHEM_CACTVS_TAUTO_COUNT>
2

> <PUBCHEM_COORDINATE_TYPE>
1
5
255

> <PUBCHEM_BONDANNOTATIONS>
11  14  8
11  17  8
14  18  8
17  20  8
18  21  8
19  24  8
19  25  8
20  21  8
22  60  5
23  27  8
23  31  8
24  34  8
25  35  8
26  31  8
26  32  8
27  33  8
32  33  8
34  36  8
35  36  8
38  40  8
38  42  8
40  41  8
41  43  8
42  44  8
43  44  8
9  46  5

$$$$

