443994
  -OEChem-07051213032D

 26 25  0     1  0  0  0  0  0999 V2000
    2.5369    1.2500    0.0000 O   0  0  0  0  0  0  0  0  0  0  0  0
    3.4030    2.7500    0.0000 O   0  0  0  0  0  0  0  0  0  0  0  0
    6.0010    0.2500    0.0000 O   0  0  0  0  0  0  0  0  0  0  0  0
    2.5369   -2.7500    0.0000 O   0  0  0  0  0  0  0  0  0  0  0  0
    5.1350    1.7500    0.0000 N   0  0  0  0  0  0  0  0  0  0  0  0
    4.2690    0.2500    0.0000 C   0  0  0  0  0  0  0  0  0  0  0  0
    4.2690    1.2500    0.0000 C   0  0  1  0  0  0  0  0  0  0  0  0
    3.4030   -0.2500    0.0000 C   0  0  0  0  0  0  0  0  0  0  0  0
    3.4030   -1.2500    0.0000 C   0  0  0  0  0  0  0  0  0  0  0  0
    3.4030    1.7500    0.0000 C   0  0  0  0  0  0  0  0  0  0  0  0
    6.0010    1.2500    0.0000 C   0  0  0  0  0  0  0  0  0  0  0  0
    2.5369   -1.7500    0.0000 C   0  0  0  0  0  0  0  0  0  0  0  0
    6.8671    1.7500    0.0000 C   0  0  0  0  0  0  0  0  0  0  0  0
    4.4810   -0.3326    0.0000 H   0  0  0  0  0  0  0  0  0  0  0  0
    4.8796    0.3577    0.0000 H   0  0  0  0  0  0  0  0  0  0  0  0
    4.2690    1.8700    0.0000 H   0  0  0  0  0  0  0  0  0  0  0  0
    3.1909    0.3326    0.0000 H   0  0  0  0  0  0  0  0  0  0  0  0
    2.7924   -0.3577    0.0000 H   0  0  0  0  0  0  0  0  0  0  0  0
    3.6150   -1.8326    0.0000 H   0  0  0  0  0  0  0  0  0  0  0  0
    4.0135   -1.1423    0.0000 H   0  0  0  0  0  0  0  0  0  0  0  0
    5.1350    2.3700    0.0000 H   0  0  0  0  0  0  0  0  0  0  0  0
    2.0000   -1.4400    0.0000 H   0  0  0  0  0  0  0  0  0  0  0  0
    7.1771    1.2131    0.0000 H   0  0  0  0  0  0  0  0  0  0  0  0
    7.4040    2.0600    0.0000 H   0  0  0  0  0  0  0  0  0  0  0  0
    6.5571    2.2869    0.0000 H   0  0  0  0  0  0  0  0  0  0  0  0
    2.0000    1.5600    0.0000 H   0  0  0  0  0  0  0  0  0  0  0  0
  1 10  1  0  0  0  0
  1 26  1  0  0  0  0
  2 10  2  0  0  0  0
  3 11  2  0  0  0  0
  4 12  2  0  0  0  0
  7  5  1  1  0  0  0
  5 11  1  0  0  0  0
  5 21  1  0  0  0  0
  6  7  1  0  0  0  0
  6  8  1  0  0  0  0
  6 14  1  0  0  0  0
  6 15  1  0  0  0  0
  7 10  1  0  0  0  0
  7 16  1  0  0  0  0
  8  9  1  0  0  0  0
  8 17  1  0  0  0  0
  8 18  1  0  0  0  0
  9 12  1  0  0  0  0
  9 19  1  0  0  0  0
  9 20  1  0  0  0  0
 11 13  1  0  0  0  0
 12 22  1  0  0  0  0
 13 23  1  0  0  0  0
 13 24  1  0  0  0  0
 13 25  1  0  0  0  0
M  END
> <PUBCHEM_COMPOUND_CID>
443994

> <PUBCHEM_COMPOUND_CANONICALIZED>
1

> <PUBCHEM_CACTVS_COMPLEXITY>
202

> <PUBCHEM_CACTVS_HBOND_ACCEPTOR>
4

> <PUBCHEM_CACTVS_HBOND_DONOR>
2

> <PUBCHEM_CACTVS_ROTATABLE_BOND>
6

> <PUBCHEM_CACTVS_SUBSKEYS>
AAADccByOAAAAAAAAAAAAAAAAAAAAAAAAAAAAAAAAAAAAAAAAAAAHgAQCAAACCjhgAYCCALAAgAIAAmQmAAAAAAAAAAAAIGIAAACABIAgCAEQAAEFgCQAAGYSQAQAAAAAAAAAAAAAAAAAAAAAAAAAAAAAA==

> <PUBCHEM_IUPAC_OPENEYE_NAME>
(2S)-2-acetamido-6-oxo-hexanoic acid

> <PUBCHEM_IUPAC_CAS_NAME>
(2S)-2-acetamido-6-oxohexanoic acid

> <PUBCHEM_IUPAC_NAME>
(2S)-2-acetamido-6-oxohexanoic acid

> <PUBCHEM_IUPAC_SYSTEMATIC_NAME>
(2S)-2-acetamido-6-oxidanylidene-hexanoic acid

> <PUBCHEM_IUPAC_TRADITIONAL_NAME>
(2S)-2-acetamido-6-keto-hexanoic acid

> <PUBCHEM_IUPAC_INCHI>
InChI=1S/C8H13NO4/c1-6(11)9-7(8(12)13)4-2-3-5-10/h5,7H,2-4H2,1H3,(H,9,11)(H,12,13)/t7-/m0/s1

> <PUBCHEM_IUPAC_INCHIKEY>
CRVYRJLIQHSUOQ-ZETCQYMHSA-N

> <PUBCHEM_XLOGP3>
-0.9

> <PUBCHEM_EXACT_MASS>
187.084458

> <PUBCHEM_MOLECULAR_FORMULA>
C8H13NO4

> <PUBCHEM_MOLECULAR_WEIGHT>
187.19312

> <PUBCHEM_OPENEYE_CAN_SMILES>
CC(=O)NC(CCCC=O)C(=O)O

> <PUBCHEM_OPENEYE_ISO_SMILES>
CC(=O)N[C@@H](CCCC=O)C(=O)O

> <PUBCHEM_CACTVS_TPSA>
83.5

> <PUBCHEM_MONOISOTOPIC_WEIGHT>
187.084458

> <PUBCHEM_TOTAL_CHARGE>
0

> <PUBCHEM_HEAVY_ATOM_COUNT>
13

> <PUBCHEM_ATOM_DEF_STEREO_COUNT>
1

> <PUBCHEM_ATOM_UDEF_STEREO_COUNT>
0

> <PUBCHEM_BOND_DEF_STEREO_COUNT>
0

> <PUBCHEM_BOND_UDEF_STEREO_COUNT>
0

> <PUBCHEM_ISOTOPIC_ATOM_COUNT>
0

> <PUBCHEM_COMPONENT_COUNT>
1

> <PUBCHEM_CACTVS_TAUTO_COUNT>
4

> <PUBCHEM_COORDINATE_TYPE>
1
5
255

> <PUBCHEM_BONDANNOTATIONS>
7  5  5

$$$$

