5280581
  -OEChem-07051212482D

 56 55  0     0  0  0  0  0  0999 V2000
    2.0000    3.2500    0.0000 O   0  0  0  0  0  0  0  0  0  0  0  0
    3.7320    3.2500    0.0000 O   0  0  0  0  0  0  0  0  0  0  0  0
    4.5981   -0.2500    0.0000 C   0  0  0  0  0  0  0  0  0  0  0  0
    3.7320    0.2500    0.0000 C   0  0  0  0  0  0  0  0  0  0  0  0
    4.5981   -1.2500    0.0000 C   0  0  0  0  0  0  0  0  0  0  0  0
    3.7320    1.2500    0.0000 C   0  0  0  0  0  0  0  0  0  0  0  0
    5.4641   -1.7500    0.0000 C   0  0  0  0  0  0  0  0  0  0  0  0
    2.8660    1.7500    0.0000 C   0  0  0  0  0  0  0  0  0  0  0  0
    8.9282    1.2500    0.0000 C   0  0  0  0  0  0  0  0  0  0  0  0
    8.0622    1.7500    0.0000 C   0  0  0  0  0  0  0  0  0  0  0  0
    8.9282    0.2500    0.0000 C   0  0  0  0  0  0  0  0  0  0  0  0
    8.0622    2.7500    0.0000 C   0  0  0  0  0  0  0  0  0  0  0  0
    5.4641   -2.7500    0.0000 C   0  0  0  0  0  0  0  0  0  0  0  0
    6.3301   -3.2500    0.0000 C   0  0  0  0  0  0  0  0  0  0  0  0
    9.7942   -0.2500    0.0000 C   0  0  0  0  0  0  0  0  0  0  0  0
    2.8660    2.7500    0.0000 C   0  0  0  0  0  0  0  0  0  0  0  0
    7.1962    3.2500    0.0000 C   0  0  0  0  0  0  0  0  0  0  0  0
    7.1962   -2.7500    0.0000 C   0  0  0  0  0  0  0  0  0  0  0  0
    9.7942   -1.2500    0.0000 C   0  0  0  0  0  0  0  0  0  0  0  0
    8.9282   -1.7500    0.0000 C   0  0  0  0  0  0  0  0  0  0  0  0
    8.0622   -3.2500    0.0000 C   0  0  0  0  0  0  0  0  0  0  0  0
    8.9282   -2.7500    0.0000 C   0  0  0  0  0  0  0  0  0  0  0  0
    5.2087   -0.3577    0.0000 H   0  0  0  0  0  0  0  0  0  0  0  0
    4.8101    0.3326    0.0000 H   0  0  0  0  0  0  0  0  0  0  0  0
    3.1215    0.3577    0.0000 H   0  0  0  0  0  0  0  0  0  0  0  0
    3.5200   -0.3326    0.0000 H   0  0  0  0  0  0  0  0  0  0  0  0
    3.9875   -1.1423    0.0000 H   0  0  0  0  0  0  0  0  0  0  0  0
    4.3860   -1.8326    0.0000 H   0  0  0  0  0  0  0  0  0  0  0  0
    4.3426    1.1423    0.0000 H   0  0  0  0  0  0  0  0  0  0  0  0
    3.9441    1.8326    0.0000 H   0  0  0  0  0  0  0  0  0  0  0  0
    6.0747   -1.8577    0.0000 H   0  0  0  0  0  0  0  0  0  0  0  0
    5.6762   -1.1674    0.0000 H   0  0  0  0  0  0  0  0  0  0  0  0
    2.2554    1.8577    0.0000 H   0  0  0  0  0  0  0  0  0  0  0  0
    2.6540    1.1674    0.0000 H   0  0  0  0  0  0  0  0  0  0  0  0
    9.5388    1.1423    0.0000 H   0  0  0  0  0  0  0  0  0  0  0  0
    9.1403    1.8326    0.0000 H   0  0  0  0  0  0  0  0  0  0  0  0
    7.4516    1.8577    0.0000 H   0  0  0  0  0  0  0  0  0  0  0  0
    7.8501    1.1674    0.0000 H   0  0  0  0  0  0  0  0  0  0  0  0
    8.3176    0.3577    0.0000 H   0  0  0  0  0  0  0  0  0  0  0  0
    8.7162   -0.3326    0.0000 H   0  0  0  0  0  0  0  0  0  0  0  0
    8.6728    2.6423    0.0000 H   0  0  0  0  0  0  0  0  0  0  0  0
    8.2742    3.3326    0.0000 H   0  0  0  0  0  0  0  0  0  0  0  0
    4.9272   -3.0600    0.0000 H   0  0  0  0  0  0  0  0  0  0  0  0
   10.3312    0.0600    0.0000 H   0  0  0  0  0  0  0  0  0  0  0  0
    6.3301   -3.8700    0.0000 H   0  0  0  0  0  0  0  0  0  0  0  0
    7.5062    3.7869    0.0000 H   0  0  0  0  0  0  0  0  0  0  0  0
    6.6592    3.5600    0.0000 H   0  0  0  0  0  0  0  0  0  0  0  0
    6.8862    2.7131    0.0000 H   0  0  0  0  0  0  0  0  0  0  0  0
    7.5947   -2.2750    0.0000 H   0  0  0  0  0  0  0  0  0  0  0  0
    6.7976   -2.2750    0.0000 H   0  0  0  0  0  0  0  0  0  0  0  0
   10.3312   -1.5600    0.0000 H   0  0  0  0  0  0  0  0  0  0  0  0
    8.7162   -1.1674    0.0000 H   0  0  0  0  0  0  0  0  0  0  0  0
    8.3176   -1.8577    0.0000 H   0  0  0  0  0  0  0  0  0  0  0  0
    8.0622   -3.8700    0.0000 H   0  0  0  0  0  0  0  0  0  0  0  0
    9.4651   -3.0600    0.0000 H   0  0  0  0  0  0  0  0  0  0  0  0
    2.0000    3.8700    0.0000 H   0  0  0  0  0  0  0  0  0  0  0  0
  1 16  1  0  0  0  0
  1 56  1  0  0  0  0
  2 16  2  0  0  0  0
  3  4  1  0  0  0  0
  3  5  1  0  0  0  0
  3 23  1  0  0  0  0
  3 24  1  0  0  0  0
  4  6  1  0  0  0  0
  4 25  1  0  0  0  0
  4 26  1  0  0  0  0
  5  7  1  0  0  0  0
  5 27  1  0  0  0  0
  5 28  1  0  0  0  0
  6  8  1  0  0  0  0
  6 29  1  0  0  0  0
  6 30  1  0  0  0  0
  7 13  1  0  0  0  0
  7 31  1  0  0  0  0
  7 32  1  0  0  0  0
  8 16  1  0  0  0  0
  8 33  1  0  0  0  0
  8 34  1  0  0  0  0
  9 10  1  0  0  0  0
  9 11  1  0  0  0  0
  9 35  1  0  0  0  0
  9 36  1  0  0  0  0
 10 12  1  0  0  0  0
 10 37  1  0  0  0  0
 10 38  1  0  0  0  0
 11 15  1  0  0  0  0
 11 39  1  0  0  0  0
 11 40  1  0  0  0  0
 12 17  1  0  0  0  0
 12 41  1  0  0  0  0
 12 42  1  0  0  0  0
 13 14  2  0  0  0  0
 13 43  1  0  0  0  0
 14 18  1  0  0  0  0
 14 45  1  0  0  0  0
 15 19  2  0  0  0  0
 15 44  1  0  0  0  0
 17 46  1  0  0  0  0
 17 47  1  0  0  0  0
 17 48  1  0  0  0  0
 18 21  1  0  0  0  0
 18 49  1  0  0  0  0
 18 50  1  0  0  0  0
 19 20  1  0  0  0  0
 19 51  1  0  0  0  0
 20 22  1  0  0  0  0
 20 52  1  0  0  0  0
 20 53  1  0  0  0  0
 21 22  2  0  0  0  0
 21 54  1  0  0  0  0
 22 55  1  0  0  0  0
M  END
> <PUBCHEM_COMPOUND_CID>
5280581

> <PUBCHEM_COMPOUND_CANONICALIZED>
1

> <PUBCHEM_CACTVS_COMPLEXITY>
327

> <PUBCHEM_CACTVS_HBOND_ACCEPTOR>
2

> <PUBCHEM_CACTVS_HBOND_DONOR>
1

> <PUBCHEM_CACTVS_ROTATABLE_BOND>
15

> <PUBCHEM_CACTVS_SUBSKEYS>
AAADcfB4MAAAAAAAAAAAAAAAAAAAAAAAAAAAAAAAAAAAAAAAAAAAGgAACAAACACAgAACCAAAAgCIACDSCAAAAAAgAAAICAEAAAgAABIAAQAAQAAEgAAIAAOIyKCAAAAAAAAAAAAAAAAAAAAAAAAAAAAAAA==

> <PUBCHEM_IUPAC_OPENEYE_NAME>
(8Z,11Z,14Z)-icosa-8,11,14-trienoic acid

> <PUBCHEM_IUPAC_CAS_NAME>
(8Z,11Z,14Z)-eicosa-8,11,14-trienoic acid

> <PUBCHEM_IUPAC_NAME>
(8Z,11Z,14Z)-icosa-8,11,14-trienoic acid

> <PUBCHEM_IUPAC_SYSTEMATIC_NAME>
(8Z,11Z,14Z)-icosa-8,11,14-trienoic acid

> <PUBCHEM_IUPAC_TRADITIONAL_NAME>
(8Z,11Z,14Z)-eicosa-8,11,14-trienoic acid

> <PUBCHEM_IUPAC_INCHI>
InChI=1S/C20H34O2/c1-2-3-4-5-6-7-8-9-10-11-12-13-14-15-16-17-18-19-20(21)22/h6-7,9-10,12-13H,2-5,8,11,14-19H2,1H3,(H,21,22)/b7-6-,10-9-,13-12-

> <PUBCHEM_IUPAC_INCHIKEY>
HOBAELRKJCKHQD-QNEBEIHSSA-N

> <PUBCHEM_XLOGP3>
7.2

> <PUBCHEM_EXACT_MASS>
306.25588

> <PUBCHEM_MOLECULAR_FORMULA>
C20H34O2

> <PUBCHEM_MOLECULAR_WEIGHT>
306.48276

> <PUBCHEM_OPENEYE_CAN_SMILES>
CCCCCC=CCC=CCC=CCCCCCCC(=O)O

> <PUBCHEM_OPENEYE_ISO_SMILES>
CCCCC/C=C\C/C=C\C/C=C\CCCCCCC(=O)O

> <PUBCHEM_CACTVS_TPSA>
37.3

> <PUBCHEM_MONOISOTOPIC_WEIGHT>
306.25588

> <PUBCHEM_TOTAL_CHARGE>
0

> <PUBCHEM_HEAVY_ATOM_COUNT>
22

> <PUBCHEM_ATOM_DEF_STEREO_COUNT>
0

> <PUBCHEM_ATOM_UDEF_STEREO_COUNT>
0

> <PUBCHEM_BOND_DEF_STEREO_COUNT>
3

> <PUBCHEM_BOND_UDEF_STEREO_COUNT>
0

> <PUBCHEM_ISOTOPIC_ATOM_COUNT>
0

> <PUBCHEM_COMPONENT_COUNT>
1

> <PUBCHEM_CACTVS_TAUTO_COUNT>
1

> <PUBCHEM_COORDINATE_TYPE>
1
5
255

$$$$

