24883456
  -OEChem-07051213103D

 25 24  0     1  0  0  0  0  0999 V2000
   -3.5486   -0.4171    0.7000 S   0  0  0  0  0  0  0  0  0  0  0  0
    0.5296    0.4041   -1.6416 O   0  0  0  0  0  0  0  0  0  0  0  0
    0.5948    2.2522    1.4171 O   0  0  0  0  0  0  0  0  0  0  0  0
    0.4579    2.9081   -0.7532 O   0  0  0  0  0  0  0  0  0  0  0  0
    2.1025   -2.2904    1.2138 O   0  0  0  0  0  0  0  0  0  0  0  0
    1.7826   -2.1059   -1.0270 O   0  0  0  0  0  0  0  0  0  0  0  0
    0.4912    0.5223   -0.2220 C   0  0  1  0  0  0  0  0  0  0  0  0
   -0.7671   -0.1691    0.3507 C   0  0  0  0  0  0  0  0  0  0  0  0
    1.7930   -0.0950    0.3180 C   0  0  0  0  0  0  0  0  0  0  0  0
   -2.1274    0.3862   -0.0949 C   0  0  0  0  0  0  0  0  0  0  0  0
    0.5099    2.0161    0.0828 C   0  0  0  0  0  0  0  0  0  0  0  0
    1.8942   -1.5842    0.0751 C   0  0  0  0  0  0  0  0  0  0  0  0
   -3.7125   -1.8270   -0.4189 C   0  0  0  0  0  0  0  0  0  0  0  0
   -0.7422   -1.2276    0.0631 H   0  0  0  0  0  0  0  0  0  0  0  0
   -0.7174   -0.1360    1.4474 H   0  0  0  0  0  0  0  0  0  0  0  0
    1.8870    0.0832    1.3964 H   0  0  0  0  0  0  0  0  0  0  0  0
    2.6716    0.3620   -0.1547 H   0  0  0  0  0  0  0  0  0  0  0  0
   -2.2408    0.3278   -1.1820 H   0  0  0  0  0  0  0  0  0  0  0  0
   -2.1863    1.4467    0.1708 H   0  0  0  0  0  0  0  0  0  0  0  0
   -0.2746    0.8102   -2.0058 H   0  0  0  0  0  0  0  0  0  0  0  0
    0.6076    3.2120    1.6186 H   0  0  0  0  0  0  0  0  0  0  0  0
   -4.5552   -2.4439   -0.0952 H   0  0  0  0  0  0  0  0  0  0  0  0
   -2.8097   -2.4424   -0.4012 H   0  0  0  0  0  0  0  0  0  0  0  0
   -3.9075   -1.4865   -1.4391 H   0  0  0  0  0  0  0  0  0  0  0  0
    2.1558   -3.2548    1.0421 H   0  0  0  0  0  0  0  0  0  0  0  0
  1 10  1  0  0  0  0
  1 13  1  0  0  0  0
  2  7  1  0  0  0  0
  2 20  1  0  0  0  0
  3 11  1  0  0  0  0
  3 21  1  0  0  0  0
  4 11  2  0  0  0  0
  5 12  1  0  0  0  0
  5 25  1  0  0  0  0
  6 12  2  0  0  0  0
  7  8  1  0  0  0  0
  7  9  1  0  0  0  0
  7 11  1  0  0  0  0
  8 10  1  0  0  0  0
  8 14  1  0  0  0  0
  8 15  1  0  0  0  0
  9 12  1  0  0  0  0
  9 16  1  0  0  0  0
  9 17  1  0  0  0  0
 10 18  1  0  0  0  0
 10 19  1  0  0  0  0
 13 22  1  0  0  0  0
 13 23  1  0  0  0  0
 13 24  1  0  0  0  0
M  END
> <PUBCHEM_COMPOUND_CID>
24883456

> <PUBCHEM_CONFORMER_RMSD>
0.8

> <PUBCHEM_CONFORMER_DIVERSEORDER>
5
35
22
117
125
61
91
9
76
88
31
30
51
25
103
124
63
64
43
112
104
57
20
36
32
106
81
19
7
77
109
121
78
52
75
53
34
13
123
86
62
68
115
12
122
73
92
101
94
127
89
97
116
105
58
82
74
8
99
65
72
66
59
118
110
96
93
69
90
29
60
1
45
111
37
42
18
84
14
23
98
79
102
24
108
50
48
49
40
16
87
56
126
17
27
100
6
3
11
120
85
33
67
47
95
44
46
39
55
83
71
54
4
38
26
28
114
2
113
41
10
21
119
107
15
80
70

> <PUBCHEM_MMFF94_PARTIAL_CHARGES>
15
1 -0.46
10 0.23
11 0.66
12 0.66
13 0.23
2 -0.68
20 0.4
21 0.5
25 0.5
3 -0.65
4 -0.57
5 -0.65
6 -0.57
7 0.34
9 0.06

> <PUBCHEM_EFFECTIVE_ROTOR_COUNT>
6

> <PUBCHEM_PHARMACOPHORE_FEATURES>
9
1 13 hydrophobe
1 2 acceptor
1 2 donor
1 3 acceptor
1 4 acceptor
1 5 acceptor
1 6 acceptor
3 3 4 11 anion
3 5 6 12 anion

> <PUBCHEM_HEAVY_ATOM_COUNT>
13

> <PUBCHEM_ATOM_DEF_STEREO_COUNT>
0

> <PUBCHEM_ATOM_UDEF_STEREO_COUNT>
1

> <PUBCHEM_BOND_DEF_STEREO_COUNT>
0

> <PUBCHEM_BOND_UDEF_STEREO_COUNT>
0

> <PUBCHEM_ISOTOPIC_ATOM_COUNT>
0

> <PUBCHEM_COMPONENT_COUNT>
1

> <PUBCHEM_CACTVS_TAUTO_COUNT>
1

> <PUBCHEM_CONFORMER_ID>
017BB10000000005

> <PUBCHEM_MMFF94_ENERGY>
19.9593

> <PUBCHEM_FEATURE_SELFOVERLAP>
45.797

> <PUBCHEM_SHAPE_FINGERPRINT>
12725867 57 18412546517755006021
12932764 1 18264474114975268491
14817 1 17537991859370578132
15852999 172 17554626001894845443
16945 1 18272365322000543320
20559304 39 18261948553645514451
20645477 70 18265335015458620031
20653091 64 18335411336138732113
20871998 22 18336261365837758754
21524375 3 17538563206217548249
2255824 54 18194674878738896957
23598291 2 18261657196128358261
3248919 1 17023169506388800211
7364860 26 18261951826157431811
81228 2 17832707146555098073

> <PUBCHEM_SHAPE_MULTIPOLES>
242.04
4.58
2.89
1.15
6.58
0.46
0.05
-2.83
-0.36
-2.07
-0.09
-0.31
0.02
-0.32

> <PUBCHEM_SHAPE_SELFOVERLAP>
453.155

> <PUBCHEM_SHAPE_VOLUME>
152.8

> <PUBCHEM_COORDINATE_TYPE>
2
5
10

$$$$

