162464
  -OEChem-07051212582D

 41 43  0     0  0  0  0  0  0999 V2000
    6.3580    0.6126    0.0000 O   0  0  0  0  0  0  0  0  0  0  0  0
    2.8660   -1.4221    0.0000 O   0  0  0  0  0  0  0  0  0  0  0  0
    2.8660    0.5779    0.0000 O   0  0  0  0  0  0  0  0  0  0  0  0
    4.5981   -2.4221    0.0000 O   0  0  0  0  0  0  0  0  0  0  0  0
    6.3465   -2.4567    0.0000 O   0  0  0  0  0  0  0  0  0  0  0  0
   10.7282    0.1121    0.0000 O   0  0  0  0  0  0  0  0  0  0  0  0
   10.7205    2.1121    0.0000 O   0  0  0  0  0  0  0  0  0  0  0  0
    5.4641   -0.9221    0.0000 C   0  0  0  0  0  0  0  0  0  0  0  0
    5.4641    0.0779    0.0000 C   0  0  0  0  0  0  0  0  0  0  0  0
    7.2641    0.0987    0.0000 C   0  0  0  0  0  0  0  0  0  0  0  0
    4.5981   -1.4221    0.0000 C   0  0  0  0  0  0  0  0  0  0  0  0
    6.3580   -1.4567    0.0000 C   0  0  0  0  0  0  0  0  0  0  0  0
    8.1282    0.6021    0.0000 C   0  0  0  0  0  0  0  0  0  0  0  0
    4.5981    0.5779    0.0000 C   0  0  0  0  0  0  0  0  0  0  0  0
    3.7320   -0.9221    0.0000 C   0  0  0  0  0  0  0  0  0  0  0  0
    7.2641   -0.9429    0.0000 C   0  0  0  0  0  0  0  0  0  0  0  0
    3.7320    0.0779    0.0000 C   0  0  0  0  0  0  0  0  0  0  0  0
    8.9962    0.1054    0.0000 C   0  0  0  0  0  0  0  0  0  0  0  0
    8.1244    1.6021    0.0000 C   0  0  0  0  0  0  0  0  0  0  0  0
    9.8602    0.6088    0.0000 C   0  0  0  0  0  0  0  0  0  0  0  0
    8.9884    2.1054    0.0000 C   0  0  0  0  0  0  0  0  0  0  0  0
    9.8564    1.6087    0.0000 C   0  0  0  0  0  0  0  0  0  0  0  0
    2.0000   -0.9221    0.0000 C   0  0  0  0  0  0  0  0  0  0  0  0
    2.8660    1.5779    0.0000 C   0  0  0  0  0  0  0  0  0  0  0  0
   10.7320   -0.8879    0.0000 C   0  0  0  0  0  0  0  0  0  0  0  0
    4.5981    1.1979    0.0000 H   0  0  0  0  0  0  0  0  0  0  0  0
    7.7998   -1.2550    0.0000 H   0  0  0  0  0  0  0  0  0  0  0  0
    8.9985   -0.5146    0.0000 H   0  0  0  0  0  0  0  0  0  0  0  0
    7.5862    1.9100    0.0000 H   0  0  0  0  0  0  0  0  0  0  0  0
    8.9860    2.7254    0.0000 H   0  0  0  0  0  0  0  0  0  0  0  0
    4.0611   -2.7321    0.0000 H   0  0  0  0  0  0  0  0  0  0  0  0
    2.3100   -0.3851    0.0000 H   0  0  0  0  0  0  0  0  0  0  0  0
    1.4631   -0.6121    0.0000 H   0  0  0  0  0  0  0  0  0  0  0  0
    1.6900   -1.4590    0.0000 H   0  0  0  0  0  0  0  0  0  0  0  0
    3.4860    1.5779    0.0000 H   0  0  0  0  0  0  0  0  0  0  0  0
    2.8660    2.1979    0.0000 H   0  0  0  0  0  0  0  0  0  0  0  0
    2.2460    1.5779    0.0000 H   0  0  0  0  0  0  0  0  0  0  0  0
   10.7181    2.7321    0.0000 H   0  0  0  0  0  0  0  0  0  0  0  0
   10.1120   -0.8903    0.0000 H   0  0  0  0  0  0  0  0  0  0  0  0
   10.7344   -1.5079    0.0000 H   0  0  0  0  0  0  0  0  0  0  0  0
   11.3520   -0.8855    0.0000 H   0  0  0  0  0  0  0  0  0  0  0  0
  1  9  1  0  0  0  0
  1 10  1  0  0  0  0
  2 15  1  0  0  0  0
  2 23  1  0  0  0  0
  3 17  1  0  0  0  0
  3 24  1  0  0  0  0
  4 11  1  0  0  0  0
  4 31  1  0  0  0  0
  5 12  2  0  0  0  0
  6 20  1  0  0  0  0
  6 25  1  0  0  0  0
  7 22  1  0  0  0  0
  7 38  1  0  0  0  0
  8  9  1  0  0  0  0
  8 11  2  0  0  0  0
  8 12  1  0  0  0  0
  9 14  2  0  0  0  0
 10 13  1  0  0  0  0
 10 16  2  0  0  0  0
 11 15  1  0  0  0  0
 12 16  1  0  0  0  0
 13 18  2  0  0  0  0
 13 19  1  0  0  0  0
 14 17  1  0  0  0  0
 14 26  1  0  0  0  0
 15 17  2  0  0  0  0
 16 27  1  0  0  0  0
 18 20  1  0  0  0  0
 18 28  1  0  0  0  0
 19 21  2  0  0  0  0
 19 29  1  0  0  0  0
 20 22  2  0  0  0  0
 21 22  1  0  0  0  0
 21 30  1  0  0  0  0
 23 32  1  0  0  0  0
 23 33  1  0  0  0  0
 23 34  1  0  0  0  0
 24 35  1  0  0  0  0
 24 36  1  0  0  0  0
 24 37  1  0  0  0  0
 25 39  1  0  0  0  0
 25 40  1  0  0  0  0
 25 41  1  0  0  0  0
M  END
> <PUBCHEM_COMPOUND_CID>
162464

> <PUBCHEM_COMPOUND_CANONICALIZED>
1

> <PUBCHEM_CACTVS_COMPLEXITY>
520

> <PUBCHEM_CACTVS_HBOND_ACCEPTOR>
7

> <PUBCHEM_CACTVS_HBOND_DONOR>
2

> <PUBCHEM_CACTVS_ROTATABLE_BOND>
4

> <PUBCHEM_CACTVS_SUBSKEYS>
AAADceB4OAAAAAAAAAAAAAAAAAAAAAAAAAAwYIAAAAAAAACBQAAAGgAACAAADASAmAIyBoAABgCIAqBSAAACCAAkIAAIiAEGiMgNJzaGNRqCeWOl4BULuQfK7LzOIQABCAAIQABCAAIQABCAAAAAAAAAAA==

> <PUBCHEM_IUPAC_OPENEYE_NAME>
5-hydroxy-2-(4-hydroxy-3-methoxy-phenyl)-6,7-dimethoxy-chromen-4-one

> <PUBCHEM_IUPAC_CAS_NAME>
5-hydroxy-2-(4-hydroxy-3-methoxyphenyl)-6,7-dimethoxy-1-benzopyran-4-one

> <PUBCHEM_IUPAC_NAME>
5-hydroxy-2-(4-hydroxy-3-methoxyphenyl)-6,7-dimethoxychromen-4-one

> <PUBCHEM_IUPAC_SYSTEMATIC_NAME>
6,7-dimethoxy-2-(3-methoxy-4-oxidanyl-phenyl)-5-oxidanyl-chromen-4-one

> <PUBCHEM_IUPAC_TRADITIONAL_NAME>
5-hydroxy-2-(4-hydroxy-3-methoxy-phenyl)-6,7-dimethoxy-chromone

> <PUBCHEM_IUPAC_INCHI>
InChI=1S/C18H16O7/c1-22-13-6-9(4-5-10(13)19)12-7-11(20)16-14(25-12)8-15(23-2)18(24-3)17(16)21/h4-8,19,21H,1-3H3

> <PUBCHEM_IUPAC_INCHIKEY>
VKOSQMWSWLZQPA-UHFFFAOYSA-N

> <PUBCHEM_XLOGP3_AA>
2.9

> <PUBCHEM_EXACT_MASS>
344.089603

> <PUBCHEM_MOLECULAR_FORMULA>
C18H16O7

> <PUBCHEM_MOLECULAR_WEIGHT>
344.31544

> <PUBCHEM_OPENEYE_CAN_SMILES>
COC1=C(C=CC(=C1)C2=CC(=O)C3=C(C(=C(C=C3O2)OC)OC)O)O

> <PUBCHEM_OPENEYE_ISO_SMILES>
COC1=C(C=CC(=C1)C2=CC(=O)C3=C(C(=C(C=C3O2)OC)OC)O)O

> <PUBCHEM_CACTVS_TPSA>
94.4

> <PUBCHEM_MONOISOTOPIC_WEIGHT>
344.089603

> <PUBCHEM_TOTAL_CHARGE>
0

> <PUBCHEM_HEAVY_ATOM_COUNT>
25

> <PUBCHEM_ATOM_DEF_STEREO_COUNT>
0

> <PUBCHEM_ATOM_UDEF_STEREO_COUNT>
0

> <PUBCHEM_BOND_DEF_STEREO_COUNT>
0

> <PUBCHEM_BOND_UDEF_STEREO_COUNT>
0

> <PUBCHEM_ISOTOPIC_ATOM_COUNT>
0

> <PUBCHEM_COMPONENT_COUNT>
1

> <PUBCHEM_CACTVS_TAUTO_COUNT>
29

> <PUBCHEM_COORDINATE_TYPE>
1
5
255

> <PUBCHEM_BONDANNOTATIONS>
1  10  8
1  9  8
10  16  8
11  15  8
12  16  8
13  18  8
13  19  8
14  17  8
15  17  8
18  20  8
19  21  8
20  22  8
21  22  8
8  11  8
8  12  8
8  9  8
9  14  8

$$$$

