7869
  -OEChem-06261202243D

 24 23  0     0  0  0  0  0  0999 V2000
    1.1451   -0.0592    0.0000 C   0  0  0  0  0  0  0  0  0  0  0  0
   -0.2429   -0.6910   -0.0007 C   0  0  0  0  0  0  0  0  0  0  0  0
    2.1920   -1.1993   -0.0023 C   0  0  0  0  0  0  0  0  0  0  0  0
    1.3858    0.7785    1.2678 C   0  0  0  0  0  0  0  0  0  0  0  0
    1.3882    0.7838   -1.2639 C   0  0  0  0  0  0  0  0  0  0  0  0
   -1.4705   -0.1318   -0.0001 C   0  0  0  0  0  0  0  0  0  0  0  0
   -2.7879   -0.8518   -0.0008 C   0  0  0  0  0  0  0  0  0  0  0  0
   -1.6098    1.3708   -0.0001 C   0  0  0  0  0  0  0  0  0  0  0  0
   -0.2400   -1.7826   -0.0011 H   0  0  0  0  0  0  0  0  0  0  0  0
    2.0876   -1.8360   -0.8891 H   0  0  0  0  0  0  0  0  0  0  0  0
    3.2141   -0.8024   -0.0012 H   0  0  0  0  0  0  0  0  0  0  0  0
    2.0874   -1.8399    0.8817 H   0  0  0  0  0  0  0  0  0  0  0  0
    0.7912    1.6917    1.3192 H   0  0  0  0  0  0  0  0  0  0  0  0
    1.1688    0.1956    2.1712 H   0  0  0  0  0  0  0  0  0  0  0  0
    2.4350    1.0925    1.3294 H   0  0  0  0  0  0  0  0  0  0  0  0
    0.7946    1.6980   -1.3118 H   0  0  0  0  0  0  0  0  0  0  0  0
    2.4378    1.0971   -1.3231 H   0  0  0  0  0  0  0  0  0  0  0  0
    1.1713    0.2052   -2.1700 H   0  0  0  0  0  0  0  0  0  0  0  0
   -3.3688   -0.5886   -0.8905 H   0  0  0  0  0  0  0  0  0  0  0  0
   -3.3690   -0.5898    0.8891 H   0  0  0  0  0  0  0  0  0  0  0  0
   -2.6492   -1.9379   -0.0015 H   0  0  0  0  0  0  0  0  0  0  0  0
   -0.6978    1.9547    0.0023 H   0  0  0  0  0  0  0  0  0  0  0  0
   -2.1796    1.6815    0.8834 H   0  0  0  0  0  0  0  0  0  0  0  0
   -2.1756    1.6819   -0.8859 H   0  0  0  0  0  0  0  0  0  0  0  0
  1  2  1  0  0  0  0
  1  3  1  0  0  0  0
  1  4  1  0  0  0  0
  1  5  1  0  0  0  0
  2  6  2  0  0  0  0
  2  9  1  0  0  0  0
  3 10  1  0  0  0  0
  3 11  1  0  0  0  0
  3 12  1  0  0  0  0
  4 13  1  0  0  0  0
  4 14  1  0  0  0  0
  4 15  1  0  0  0  0
  5 16  1  0  0  0  0
  5 17  1  0  0  0  0
  5 18  1  0  0  0  0
  6  7  1  0  0  0  0
  6  8  1  0  0  0  0
  7 19  1  0  0  0  0
  7 20  1  0  0  0  0
  7 21  1  0  0  0  0
  8 22  1  0  0  0  0
  8 23  1  0  0  0  0
  8 24  1  0  0  0  0
M  END
> <PUBCHEM_COMPOUND_CID>
7869

> <PUBCHEM_CONFORMER_RMSD>
0.4

> <PUBCHEM_CONFORMER_DIVERSEORDER>
1

> <PUBCHEM_MMFF94_PARTIAL_CHARGES>
6
1 0.14
2 -0.29
6 -0.28
7 0.14
8 0.14
9 0.15

> <PUBCHEM_EFFECTIVE_ROTOR_COUNT>
1

> <PUBCHEM_PHARMACOPHORE_FEATURES>
2
3 6 7 8 hydrophobe
4 1 3 4 5 hydrophobe

> <PUBCHEM_HEAVY_ATOM_COUNT>
8

> <PUBCHEM_ATOM_DEF_STEREO_COUNT>
0

> <PUBCHEM_ATOM_UDEF_STEREO_COUNT>
0

> <PUBCHEM_BOND_DEF_STEREO_COUNT>
0

> <PUBCHEM_BOND_UDEF_STEREO_COUNT>
0

> <PUBCHEM_ISOTOPIC_ATOM_COUNT>
0

> <PUBCHEM_COMPONENT_COUNT>
1

> <PUBCHEM_CACTVS_TAUTO_COUNT>
1

> <PUBCHEM_CONFORMER_ID>
00001EBD00000001

> <PUBCHEM_MMFF94_ENERGY>
19.8852

> <PUBCHEM_FEATURE_SELFOVERLAP>
10.149

> <PUBCHEM_SHAPE_FINGERPRINT>
10857977 72 18266184924697543931
12897270 3 18199454481275016351
12932764 1 18040713632813896919
14128692 85 18339630248306874310
20653091 64 18131913771382973674
21040471 1 18410575054640629287
23552333 60 17346039957043766361
23552423 10 18201717375089752467
23552449 11 17458346312224532203
24536 1 18131354089688628847
29004967 10 16009024012147037318
5084963 1 18342457071031676003

> <PUBCHEM_SHAPE_MULTIPOLES>
164.64
3.44
1.34
1.02
1.46
0.11
0
-0.78
0
0.04
0
-0.56
0.31
0

> <PUBCHEM_SHAPE_SELFOVERLAP>
300.389

> <PUBCHEM_SHAPE_VOLUME>
108.7

> <PUBCHEM_COORDINATE_TYPE>
2
5
10

$$$$

