17395617
  -OEChem-06241222512D

 62 65  0     1  0  0  0  0  0999 V2000
    8.1424   -5.3047    0.0000 S   0  0  0  0  0  0  0  0  0  0  0  0
    6.3301   -0.5000    0.0000 O   0  0  0  0  0  0  0  0  0  0  0  0
    4.5981    3.5000    0.0000 N   0  0  0  0  0  0  0  0  0  0  0  0
    4.5981   -0.5000    0.0000 N   0  0  0  0  0  0  0  0  0  0  0  0
    6.3301   -2.5000    0.0000 N   0  0  0  0  0  0  0  0  0  0  0  0
    5.4641   -4.0000    0.0000 N   0  0  0  0  0  0  0  0  0  0  0  0
    6.3301   -5.5000    0.0000 N   0  0  0  0  0  0  0  0  0  0  0  0
    5.4641    4.0000    0.0000 C   0  0  0  0  0  0  0  0  0  0  0  0
    3.7320    4.0000    0.0000 C   0  0  0  0  0  0  0  0  0  0  0  0
    3.7320    5.0000    0.0000 C   0  0  0  0  0  0  0  0  0  0  0  0
    5.4641    5.0000    0.0000 C   0  0  0  0  0  0  0  0  0  0  0  0
    4.5981    5.5000    0.0000 C   0  0  0  0  0  0  0  0  0  0  0  0
    4.5981    2.5000    0.0000 C   0  0  0  0  0  0  0  0  0  0  0  0
    3.7320    2.0000    0.0000 C   0  0  0  0  0  0  0  0  0  0  0  0
    3.7320    1.0000    0.0000 C   0  0  0  0  0  0  0  0  0  0  0  0
    2.8660    2.5000    0.0000 C   0  0  0  0  0  0  0  0  0  0  0  0
    4.5981    0.5000    0.0000 C   0  0  0  0  0  0  0  0  0  0  0  0
    2.8660    0.5000    0.0000 C   0  0  0  0  0  0  0  0  0  0  0  0
    2.0000    2.0000    0.0000 C   0  0  0  0  0  0  0  0  0  0  0  0
    2.0000    1.0000    0.0000 C   0  0  0  0  0  0  0  0  0  0  0  0
    5.4641   -2.0000    0.0000 C   0  0  3  0  0  0  0  0  0  0  0  0
    5.4641   -1.0000    0.0000 C   0  0  0  0  0  0  0  0  0  0  0  0
    7.1962   -4.0000    0.0000 C   0  0  0  0  0  0  0  0  0  0  0  0
    6.3301   -3.5000    0.0000 C   0  0  0  0  0  0  0  0  0  0  0  0
    4.5981   -2.5000    0.0000 C   0  0  0  0  0  0  0  0  0  0  0  0
    8.1424   -3.6953    0.0000 C   0  0  0  0  0  0  0  0  0  0  0  0
    7.1962   -5.0000    0.0000 C   0  0  0  0  0  0  0  0  0  0  0  0
    8.7260   -4.5000    0.0000 C   0  0  0  0  0  0  0  0  0  0  0  0
    8.4530   -2.7447    0.0000 C   0  0  0  0  0  0  0  0  0  0  0  0
    9.7260   -4.5000    0.0000 C   0  0  0  0  0  0  0  0  0  0  0  0
    5.4641   -5.0000    0.0000 C   0  0  0  0  0  0  0  0  0  0  0  0
    5.6762    3.4174    0.0000 H   0  0  0  0  0  0  0  0  0  0  0  0
    6.0747    4.1077    0.0000 H   0  0  0  0  0  0  0  0  0  0  0  0
    3.1215    4.1077    0.0000 H   0  0  0  0  0  0  0  0  0  0  0  0
    3.5200    3.4174    0.0000 H   0  0  0  0  0  0  0  0  0  0  0  0
    6.0747    4.8923    0.0000 H   0  0  0  0  0  0  0  0  0  0  0  0
    5.6762    5.5826    0.0000 H   0  0  0  0  0  0  0  0  0  0  0  0
    3.5200    5.5826    0.0000 H   0  0  0  0  0  0  0  0  0  0  0  0
    3.1215    4.8923    0.0000 H   0  0  0  0  0  0  0  0  0  0  0  0
    4.9966    5.9750    0.0000 H   0  0  0  0  0  0  0  0  0  0  0  0
    4.1996    5.9750    0.0000 H   0  0  0  0  0  0  0  0  0  0  0  0
    4.8101    1.9174    0.0000 H   0  0  0  0  0  0  0  0  0  0  0  0
    5.2087    2.6077    0.0000 H   0  0  0  0  0  0  0  0  0  0  0  0
    2.8660    3.1200    0.0000 H   0  0  0  0  0  0  0  0  0  0  0  0
    5.2087    0.3923    0.0000 H   0  0  0  0  0  0  0  0  0  0  0  0
    4.8101    1.0826    0.0000 H   0  0  0  0  0  0  0  0  0  0  0  0
    2.8660   -0.1200    0.0000 H   0  0  0  0  0  0  0  0  0  0  0  0
    1.4631    2.3100    0.0000 H   0  0  0  0  0  0  0  0  0  0  0  0
    4.0611   -0.8100    0.0000 H   0  0  0  0  0  0  0  0  0  0  0  0
    1.4631    0.6900    0.0000 H   0  0  0  0  0  0  0  0  0  0  0  0
    5.4641   -2.6200    0.0000 H   0  0  0  0  0  0  0  0  0  0  0  0
    6.8671   -2.1900    0.0000 H   0  0  0  0  0  0  0  0  0  0  0  0
    4.2881   -1.9631    0.0000 H   0  0  0  0  0  0  0  0  0  0  0  0
    4.0611   -2.8100    0.0000 H   0  0  0  0  0  0  0  0  0  0  0  0
    4.9081   -3.0369    0.0000 H   0  0  0  0  0  0  0  0  0  0  0  0
    9.0424   -2.9374    0.0000 H   0  0  0  0  0  0  0  0  0  0  0  0
    8.6456   -2.1554    0.0000 H   0  0  0  0  0  0  0  0  0  0  0  0
    7.8637   -2.5521    0.0000 H   0  0  0  0  0  0  0  0  0  0  0  0
    9.7260   -5.1200    0.0000 H   0  0  0  0  0  0  0  0  0  0  0  0
   10.3460   -4.5000    0.0000 H   0  0  0  0  0  0  0  0  0  0  0  0
    9.7260   -3.8800    0.0000 H   0  0  0  0  0  0  0  0  0  0  0  0
    4.9272   -5.3100    0.0000 H   0  0  0  0  0  0  0  0  0  0  0  0
  1 27  1  0  0  0  0
  1 28  1  0  0  0  0
  2 22  2  0  0  0  0
  3  8  1  0  0  0  0
  3  9  1  0  0  0  0
  3 13  1  0  0  0  0
  4 17  1  0  0  0  0
  4 22  1  0  0  0  0
  4 49  1  0  0  0  0
  5 21  1  0  0  0  0
  5 24  1  0  0  0  0
  5 52  1  0  0  0  0
  6 24  1  0  0  0  0
  6 31  2  0  0  0  0
  7 27  2  0  0  0  0
  7 31  1  0  0  0  0
  8 11  1  0  0  0  0
  8 32  1  0  0  0  0
  8 33  1  0  0  0  0
  9 10  1  0  0  0  0
  9 34  1  0  0  0  0
  9 35  1  0  0  0  0
 10 12  1  0  0  0  0
 10 38  1  0  0  0  0
 10 39  1  0  0  0  0
 11 12  1  0  0  0  0
 11 36  1  0  0  0  0
 11 37  1  0  0  0  0
 12 40  1  0  0  0  0
 12 41  1  0  0  0  0
 13 14  1  0  0  0  0
 13 42  1  0  0  0  0
 13 43  1  0  0  0  0
 14 15  1  0  0  0  0
 14 16  2  0  0  0  0
 15 17  1  0  0  0  0
 15 18  2  0  0  0  0
 16 19  1  0  0  0  0
 16 44  1  0  0  0  0
 17 45  1  0  0  0  0
 17 46  1  0  0  0  0
 18 20  1  0  0  0  0
 18 47  1  0  0  0  0
 19 20  2  0  0  0  0
 19 48  1  0  0  0  0
 20 50  1  0  0  0  0
 21 22  1  0  0  0  0
 21 25  1  0  0  0  0
 21 51  1  0  0  0  0
 23 24  2  0  0  0  0
 23 26  1  0  0  0  0
 23 27  1  0  0  0  0
 25 53  1  0  0  0  0
 25 54  1  0  0  0  0
 25 55  1  0  0  0  0
 26 28  2  0  0  0  0
 26 29  1  0  0  0  0
 28 30  1  0  0  0  0
 29 56  1  0  0  0  0
 29 57  1  0  0  0  0
 29 58  1  0  0  0  0
 30 59  1  0  0  0  0
 30 60  1  0  0  0  0
 30 61  1  0  0  0  0
 31 62  1  0  0  0  0
M  END
> <PUBCHEM_COMPOUND_CID>
17395617

> <PUBCHEM_COMPOUND_CANONICALIZED>
1

> <PUBCHEM_CACTVS_COMPLEXITY>
586

> <PUBCHEM_CACTVS_HBOND_ACCEPTOR>
6

> <PUBCHEM_CACTVS_HBOND_DONOR>
2

> <PUBCHEM_CACTVS_ROTATABLE_BOND>
7

> <PUBCHEM_CACTVS_SUBSKEYS>
AAADceB7oABAAAAAAAAAAAAAAAAAASAAAAA8WIAAAAAAAFgB/AAAHgQQAAAADCjB2gQ3sdfIEAisAiNzdACD0KlxCLgJ2LGoRJiIaCLg2fGUJAxolgLoyCcQgIAOgAAAAAAQAAAAAAAAACAAAAAAAAAAAA==

> <PUBCHEM_IUPAC_OPENEYE_NAME>
2-[(5,6-dimethylthieno[2,3-d]pyrimidin-4-yl)amino]-N-[[2-(1-piperidylmethyl)phenyl]methyl]propanamide

> <PUBCHEM_IUPAC_CAS_NAME>
2-[(5,6-dimethyl-4-thieno[2,3-d]pyrimidinyl)amino]-N-[[2-(1-piperidinylmethyl)phenyl]methyl]propanamide

> <PUBCHEM_IUPAC_NAME>
2-[(5,6-dimethylthieno[2,3-d]pyrimidin-4-yl)amino]-N-[[2-(piperidin-1-ylmethyl)phenyl]methyl]propanamide

> <PUBCHEM_IUPAC_SYSTEMATIC_NAME>
2-[(5,6-dimethylthieno[2,3-d]pyrimidin-4-yl)amino]-N-[[2-(piperidin-1-ylmethyl)phenyl]methyl]propanamide

> <PUBCHEM_IUPAC_TRADITIONAL_NAME>
2-[(5,6-dimethylthieno[2,3-d]pyrimidin-4-yl)amino]-N-[2-(piperidinomethyl)benzyl]propionamide

> <PUBCHEM_IUPAC_INCHI>
InChI=1S/C24H31N5OS/c1-16-18(3)31-24-21(16)22(26-15-27-24)28-17(2)23(30)25-13-19-9-5-6-10-20(19)14-29-11-7-4-8-12-29/h5-6,9-10,15,17H,4,7-8,11-14H2,1-3H3,(H,25,30)(H,26,27,28)

> <PUBCHEM_IUPAC_INCHIKEY>
JHFSTYOMJBEEMN-UHFFFAOYSA-N

> <PUBCHEM_XLOGP3_AA>
4.6

> <PUBCHEM_EXACT_MASS>
437.224932

> <PUBCHEM_MOLECULAR_FORMULA>
C24H31N5OS

> <PUBCHEM_MOLECULAR_WEIGHT>
437.60084

> <PUBCHEM_OPENEYE_CAN_SMILES>
CC1=C(SC2=NC=NC(=C12)NC(C)C(=O)NCC3=CC=CC=C3CN4CCCCC4)C

> <PUBCHEM_OPENEYE_ISO_SMILES>
CC1=C(SC2=NC=NC(=C12)NC(C)C(=O)NCC3=CC=CC=C3CN4CCCCC4)C

> <PUBCHEM_CACTVS_TPSA>
98.4

> <PUBCHEM_MONOISOTOPIC_WEIGHT>
437.224932

> <PUBCHEM_TOTAL_CHARGE>
0

> <PUBCHEM_HEAVY_ATOM_COUNT>
31

> <PUBCHEM_ATOM_DEF_STEREO_COUNT>
0

> <PUBCHEM_ATOM_UDEF_STEREO_COUNT>
1

> <PUBCHEM_BOND_DEF_STEREO_COUNT>
0

> <PUBCHEM_BOND_UDEF_STEREO_COUNT>
0

> <PUBCHEM_ISOTOPIC_ATOM_COUNT>
0

> <PUBCHEM_COMPONENT_COUNT>
1

> <PUBCHEM_CACTVS_TAUTO_COUNT>
8

> <PUBCHEM_COORDINATE_TYPE>
1
5
255

> <PUBCHEM_BONDANNOTATIONS>
1  27  8
1  28  8
14  15  8
14  16  8
15  18  8
16  19  8
18  20  8
19  20  8
21  25  3
23  24  8
23  26  8
23  27  8
26  28  8
6  24  8
6  31  8
7  27  8
7  31  8

$$$$

