5281586
  -OEChem-07051212582D

 82 85  0     1  0  0  0  0  0999 V2000
    3.4044    0.8100    0.0000 O   0  0  0  0  0  0  0  0  0  0  0  0
    5.6604    3.2497    0.0000 O   0  0  0  0  0  0  0  0  0  0  0  0
    4.2610    0.2933    0.0000 O   0  0  0  0  0  0  0  0  0  0  0  0
    4.2502   -2.6532    0.0000 O   0  0  0  0  0  0  0  0  0  0  0  0
    6.8685    3.8100    0.0000 N   0  0  0  0  0  0  0  0  0  0  0  0
    6.0024    1.3100    0.0000 N   0  0  0  0  0  0  0  0  0  0  0  0
    6.0024   -0.6900    0.0000 N   0  0  0  0  0  0  0  0  0  0  0  0
    5.1364   -3.1900    0.0000 N   0  0  0  0  0  0  0  0  0  0  0  0
    6.8685    2.8100    0.0000 C   0  0  1  0  0  0  0  0  0  0  0  0
    7.7345    2.3100    0.0000 C   0  0  0  0  0  0  0  0  0  0  0  0
    8.6005    2.8100    0.0000 C   0  0  0  0  0  0  0  0  0  0  0  0
    5.1364    0.8100    0.0000 C   0  0  1  0  0  0  0  0  0  0  0  0
    4.2704    1.3100    0.0000 C   0  0  1  0  0  0  0  0  0  0  0  0
    6.0024    2.3100    0.0000 C   0  0  0  0  0  0  0  0  0  0  0  0
    9.4665    2.3100    0.0000 C   0  0  0  0  0  0  0  0  0  0  0  0
    8.6005    3.8100    0.0000 C   0  0  0  0  0  0  0  0  0  0  0  0
    5.1364   -0.1900    0.0000 C   0  0  0  0  0  0  0  0  0  0  0  0
    3.6276    2.0760    0.0000 C   0  0  0  0  0  0  0  0  0  0  0  0
    6.0024   -1.6900    0.0000 C   0  0  1  0  0  0  0  0  0  0  0  0
    7.7345    4.3100    0.0000 C   0  0  0  0  0  0  0  0  0  0  0  0
    6.0024    4.3100    0.0000 C   0  0  0  0  0  0  0  0  0  0  0  0
    6.8685   -2.1900    0.0000 C   0  0  0  0  0  0  0  0  0  0  0  0
    3.9696    3.0157    0.0000 C   0  0  0  0  0  0  0  0  0  0  0  0
    2.6428    1.9024    0.0000 C   0  0  0  0  0  0  0  0  0  0  0  0
    5.1364   -2.1900    0.0000 C   0  0  0  0  0  0  0  0  0  0  0  0
    3.4044   -0.1900    0.0000 C   0  0  0  0  0  0  0  0  0  0  0  0
    7.7345   -1.6900    0.0000 C   0  0  0  0  0  0  0  0  0  0  0  0
    3.3268    3.7818    0.0000 C   0  0  0  0  0  0  0  0  0  0  0  0
    2.0000    2.6684    0.0000 C   0  0  0  0  0  0  0  0  0  0  0  0
    2.3420    3.6081    0.0000 C   0  0  0  0  0  0  0  0  0  0  0  0
    4.2704   -0.6900    0.0000 C   0  0  0  0  0  0  0  0  0  0  0  0
    2.5383   -0.6900    0.0000 C   0  0  0  0  0  0  0  0  0  0  0  0
    8.6005   -2.1900    0.0000 C   0  0  0  0  0  0  0  0  0  0  0  0
    7.7345   -0.6900    0.0000 C   0  0  0  0  0  0  0  0  0  0  0  0
    3.4044   -2.1900    0.0000 C   0  0  0  0  0  0  0  0  0  0  0  0
    4.2704   -1.6900    0.0000 C   0  0  0  0  0  0  0  0  0  0  0  0
    2.5383   -1.6900    0.0000 C   0  0  0  0  0  0  0  0  0  0  0  0
    4.2704   -3.6900    0.0000 C   0  0  0  0  0  0  0  0  0  0  0  0
    3.4044   -3.1900    0.0000 C   0  0  0  0  0  0  0  0  0  0  0  0
    9.4665   -1.6900    0.0000 C   0  0  0  0  0  0  0  0  0  0  0  0
    8.6005   -0.1900    0.0000 C   0  0  0  0  0  0  0  0  0  0  0  0
    9.4665   -0.6900    0.0000 C   0  0  0  0  0  0  0  0  0  0  0  0
    7.4054    3.1200    0.0000 H   0  0  0  0  0  0  0  0  0  0  0  0
    7.3360    1.8350    0.0000 H   0  0  0  0  0  0  0  0  0  0  0  0
    8.1330    1.8350    0.0000 H   0  0  0  0  0  0  0  0  0  0  0  0
    8.6005    2.1900    0.0000 H   0  0  0  0  0  0  0  0  0  0  0  0
    5.6734    0.5000    0.0000 H   0  0  0  0  0  0  0  0  0  0  0  0
    4.6689    1.7850    0.0000 H   0  0  0  0  0  0  0  0  0  0  0  0
    6.5394    1.0000    0.0000 H   0  0  0  0  0  0  0  0  0  0  0  0
    9.2205    3.8100    0.0000 H   0  0  0  0  0  0  0  0  0  0  0  0
    8.6005    4.4300    0.0000 H   0  0  0  0  0  0  0  0  0  0  0  0
    7.9805    3.8100    0.0000 H   0  0  0  0  0  0  0  0  0  0  0  0
    9.1565    1.7731    0.0000 H   0  0  0  0  0  0  0  0  0  0  0  0
   10.0035    2.0000    0.0000 H   0  0  0  0  0  0  0  0  0  0  0  0
    9.7765    2.8469    0.0000 H   0  0  0  0  0  0  0  0  0  0  0  0
    6.5394   -1.3800    0.0000 H   0  0  0  0  0  0  0  0  0  0  0  0
    6.5394   -0.3800    0.0000 H   0  0  0  0  0  0  0  0  0  0  0  0
    6.3124    4.8469    0.0000 H   0  0  0  0  0  0  0  0  0  0  0  0
    5.4655    4.6200    0.0000 H   0  0  0  0  0  0  0  0  0  0  0  0
    5.6924    3.7731    0.0000 H   0  0  0  0  0  0  0  0  0  0  0  0
    8.0445    3.7731    0.0000 H   0  0  0  0  0  0  0  0  0  0  0  0
    8.2714    4.6200    0.0000 H   0  0  0  0  0  0  0  0  0  0  0  0
    7.4245    4.8469    0.0000 H   0  0  0  0  0  0  0  0  0  0  0  0
    6.4699   -2.6650    0.0000 H   0  0  0  0  0  0  0  0  0  0  0  0
    7.2670   -2.6649    0.0000 H   0  0  0  0  0  0  0  0  0  0  0  0
    4.5802    3.1234    0.0000 H   0  0  0  0  0  0  0  0  0  0  0  0
    2.4307    1.3198    0.0000 H   0  0  0  0  0  0  0  0  0  0  0  0
    3.5389    4.3644    0.0000 H   0  0  0  0  0  0  0  0  0  0  0  0
    1.3894    2.5608    0.0000 H   0  0  0  0  0  0  0  0  0  0  0  0
    1.9435    4.0831    0.0000 H   0  0  0  0  0  0  0  0  0  0  0  0
    5.6734   -3.5000    0.0000 H   0  0  0  0  0  0  0  0  0  0  0  0
    4.8073   -0.3800    0.0000 H   0  0  0  0  0  0  0  0  0  0  0  0
    2.0014   -0.3800    0.0000 H   0  0  0  0  0  0  0  0  0  0  0  0
    8.6005   -2.8100    0.0000 H   0  0  0  0  0  0  0  0  0  0  0  0
    7.1976   -0.3800    0.0000 H   0  0  0  0  0  0  0  0  0  0  0  0
    4.8073   -2.0000    0.0000 H   0  0  0  0  0  0  0  0  0  0  0  0
    2.0014   -2.0000    0.0000 H   0  0  0  0  0  0  0  0  0  0  0  0
    4.2704   -4.3100    0.0000 H   0  0  0  0  0  0  0  0  0  0  0  0
    2.8674   -3.5000    0.0000 H   0  0  0  0  0  0  0  0  0  0  0  0
   10.0035   -2.0000    0.0000 H   0  0  0  0  0  0  0  0  0  0  0  0
    8.6005    0.4300    0.0000 H   0  0  0  0  0  0  0  0  0  0  0  0
   10.0035   -0.3800    0.0000 H   0  0  0  0  0  0  0  0  0  0  0  0
  1 13  1  0  0  0  0
  1 26  1  0  0  0  0
  2 14  2  0  0  0  0
  3 17  2  0  0  0  0
  4 25  2  0  0  0  0
  9  5  1  1  0  0  0
  5 20  1  0  0  0  0
  5 21  1  0  0  0  0
 12  6  1  6  0  0  0
  6 14  1  0  0  0  0
  6 49  1  0  0  0  0
  7 17  1  0  0  0  0
  7 19  1  0  0  0  0
  7 57  1  0  0  0  0
  8 25  1  0  0  0  0
  8 38  1  0  0  0  0
  8 71  1  0  0  0  0
  9 10  1  0  0  0  0
  9 14  1  0  0  0  0
  9 43  1  0  0  0  0
 10 11  1  0  0  0  0
 10 44  1  0  0  0  0
 10 45  1  0  0  0  0
 11 15  1  0  0  0  0
 11 16  1  0  0  0  0
 11 46  1  0  0  0  0
 12 13  1  0  0  0  0
 12 17  1  0  0  0  0
 12 47  1  0  0  0  0
 13 18  1  6  0  0  0
 13 48  1  0  0  0  0
 15 53  1  0  0  0  0
 15 54  1  0  0  0  0
 15 55  1  0  0  0  0
 16 50  1  0  0  0  0
 16 51  1  0  0  0  0
 16 52  1  0  0  0  0
 18 23  2  0  0  0  0
 18 24  1  0  0  0  0
 19 22  1  1  0  0  0
 19 25  1  0  0  0  0
 19 56  1  0  0  0  0
 20 61  1  0  0  0  0
 20 62  1  0  0  0  0
 20 63  1  0  0  0  0
 21 58  1  0  0  0  0
 21 59  1  0  0  0  0
 21 60  1  0  0  0  0
 22 27  1  0  0  0  0
 22 64  1  0  0  0  0
 22 65  1  0  0  0  0
 23 28  1  0  0  0  0
 23 66  1  0  0  0  0
 24 29  2  0  0  0  0
 24 67  1  0  0  0  0
 26 31  2  0  0  0  0
 26 32  1  0  0  0  0
 27 33  2  0  0  0  0
 27 34  1  0  0  0  0
 28 30  2  0  0  0  0
 28 68  1  0  0  0  0
 29 30  1  0  0  0  0
 29 69  1  0  0  0  0
 30 70  1  0  0  0  0
 31 36  1  0  0  0  0
 31 72  1  0  0  0  0
 32 37  2  0  0  0  0
 32 73  1  0  0  0  0
 33 40  1  0  0  0  0
 33 74  1  0  0  0  0
 34 41  2  0  0  0  0
 34 75  1  0  0  0  0
 35 36  2  0  0  0  0
 35 37  1  0  0  0  0
 35 39  1  0  0  0  0
 36 76  1  0  0  0  0
 37 77  1  0  0  0  0
 38 39  2  0  0  0  0
 38 78  1  0  0  0  0
 39 79  1  0  0  0  0
 40 42  2  0  0  0  0
 40 80  1  0  0  0  0
 41 42  1  0  0  0  0
 41 81  1  0  0  0  0
 42 82  1  0  0  0  0
M  END
> <PUBCHEM_COMPOUND_CID>
5281586

> <PUBCHEM_COMPOUND_CANONICALIZED>
1

> <PUBCHEM_CACTVS_COMPLEXITY>
901

> <PUBCHEM_CACTVS_HBOND_ACCEPTOR>
5

> <PUBCHEM_CACTVS_HBOND_DONOR>
3

> <PUBCHEM_CACTVS_ROTATABLE_BOND>
8

> <PUBCHEM_CACTVS_SUBSKEYS>
AAADcfB/uAAAAAAAAAAAAAAAAAAAAAAAAAAwYMAAAAAAAAABUAAAHgAQAAAADTzhmAYyBoPABACIAiFWUAACCAAgIgAIiIGOCIgOZjaEsTuXOCCm9hGYqAeYyKCOIAAAAAAAAABAAAAAAAAAAAAAAAAAAA==

> <PUBCHEM_IUPAC_OPENEYE_NAME>
(2S)-N-[(2Z,6S,9S,10R)-6-benzyl-5,8-dioxo-10-phenyl-11-oxa-4,7-diazabicyclo[10.2.2]hexadeca-1(14),2,12,15-tetraen-9-yl]-2-(dimethylamino)-4-methyl-pentanamide

> <PUBCHEM_IUPAC_CAS_NAME>
(2S)-2-(dimethylamino)-N-[(2Z,6S,9S,10R)-5,8-dioxo-10-phenyl-6-(phenylmethyl)-11-oxa-4,7-diazabicyclo[10.2.2]hexadeca-1(14),2,12,15-tetraen-9-yl]-4-methylpentanamide

> <PUBCHEM_IUPAC_NAME>
(2S)-N-[(2Z,6S,9S,10R)-6-benzyl-5,8-dioxo-10-phenyl-11-oxa-4,7-diazabicyclo[10.2.2]hexadeca-1(14),2,12,15-tetraen-9-yl]-2-(dimethylamino)-4-methylpentanamide

> <PUBCHEM_IUPAC_SYSTEMATIC_NAME>
(2S)-N-[(2Z,6S,9S,10R)-5,8-bis(oxidanylidene)-10-phenyl-6-(phenylmethyl)-11-oxa-4,7-diazabicyclo[10.2.2]hexadeca-1(14),2,12,15-tetraen-9-yl]-2-(dimethylamino)-4-methyl-pentanamide

> <PUBCHEM_IUPAC_TRADITIONAL_NAME>
(2S)-N-[(2Z,6S,9S,10R)-6-benzyl-5,8-diketo-10-phenyl-11-oxa-4,7-diazabicyclo[10.2.2]hexadeca-1(14),2,12,15-tetraen-9-yl]-2-(dimethylamino)-4-methyl-valeramide

> <PUBCHEM_IUPAC_INCHI>
InChI=1S/C34H40N4O4/c1-23(2)21-29(38(3)4)33(40)37-30-31(26-13-9-6-10-14-26)42-27-17-15-24(16-18-27)19-20-35-32(39)28(36-34(30)41)22-25-11-7-5-8-12-25/h5-20,23,28-31H,21-22H2,1-4H3,(H,35,39)(H,36,41)(H,37,40)/b20-19-/t28-,29-,30-,31+/m0/s1

> <PUBCHEM_IUPAC_INCHIKEY>
NAMLDTWANUOXLT-GQIVPORTSA-N

> <PUBCHEM_XLOGP3_AA>
5.4

> <PUBCHEM_EXACT_MASS>
568.304956

> <PUBCHEM_MOLECULAR_FORMULA>
C34H40N4O4

> <PUBCHEM_MOLECULAR_WEIGHT>
568.7058

> <PUBCHEM_OPENEYE_CAN_SMILES>
CC(C)CC(C(=O)NC1C(OC2=CC=C(C=C2)C=CNC(=O)C(NC1=O)CC3=CC=CC=C3)C4=CC=CC=C4)N(C)C

> <PUBCHEM_OPENEYE_ISO_SMILES>
CC(C)C[C@@H](C(=O)N[C@H]1[C@H](OC2=CC=C(C=C2)/C=C\NC(=O)[C@@H](NC1=O)CC3=CC=CC=C3)C4=CC=CC=C4)N(C)C

> <PUBCHEM_CACTVS_TPSA>
99.8

> <PUBCHEM_MONOISOTOPIC_WEIGHT>
568.304956

> <PUBCHEM_TOTAL_CHARGE>
0

> <PUBCHEM_HEAVY_ATOM_COUNT>
42

> <PUBCHEM_ATOM_DEF_STEREO_COUNT>
4

> <PUBCHEM_ATOM_UDEF_STEREO_COUNT>
0

> <PUBCHEM_BOND_DEF_STEREO_COUNT>
1

> <PUBCHEM_BOND_UDEF_STEREO_COUNT>
0

> <PUBCHEM_ISOTOPIC_ATOM_COUNT>
0

> <PUBCHEM_COMPONENT_COUNT>
1

> <PUBCHEM_CACTVS_TAUTO_COUNT>
18

> <PUBCHEM_COORDINATE_TYPE>
1
5
255

> <PUBCHEM_BONDANNOTATIONS>
13  18  6
18  23  8
18  24  8
19  22  5
23  28  8
24  29  8
26  31  8
26  32  8
27  33  8
27  34  8
28  30  8
29  30  8
31  36  8
32  37  8
33  40  8
34  41  8
35  36  8
35  37  8
40  42  8
41  42  8
9  5  5
12  6  6

$$$$

