6756
  -OEChem-06261201293D

 50 54  0     1  0  0  0  0  0999 V2000
    5.5866    1.2178   -0.1442 O   0  0  0  0  0  0  0  0  0  0  0  0
    0.9738   -1.6789    0.4667 N   0  0  0  0  0  0  0  0  0  0  0  0
   -2.2760    0.2191    0.5164 C   0  0  2  0  0  0  0  0  0  0  0  0
   -1.9891    0.7747   -0.9188 C   0  0  1  0  0  0  0  0  0  0  0  0
   -1.4791   -1.0883    0.4802 C   0  0  1  0  0  0  0  0  0  0  0  0
   -3.3379   -1.1867   -1.3668 C   0  0  1  0  0  0  0  0  0  0  0  0
   -3.7655   -0.0754    0.8255 C   0  0  2  0  0  0  0  0  0  0  0  0
   -3.0324    0.2609   -1.8868 C   0  0  0  0  0  0  0  0  0  0  0  0
   -2.0522   -1.8920   -0.7497 C   0  0  0  0  0  0  0  0  0  0  0  0
   -4.3559   -1.0225   -0.2312 C   0  0  0  0  0  0  0  0  0  0  0  0
   -1.2588    2.0932   -0.8640 C   0  0  0  0  0  0  0  0  0  0  0  0
    0.0045   -0.7146    0.3764 C   0  0  0  0  0  0  0  0  0  0  0  0
   -4.5785    1.2125    0.9682 C   0  0  0  0  0  0  0  0  0  0  0  0
    0.0194    1.9336    0.0343 C   0  0  0  0  0  0  0  0  0  0  0  0
    0.6441    0.5263    0.1724 C   0  0  0  0  0  0  0  0  0  0  0  0
    2.0549    0.2481    0.1457 C   0  0  0  0  0  0  0  0  0  0  0  0
   -5.9974    0.9213    1.4138 C   0  0  0  0  0  0  0  0  0  0  0  0
    2.2230   -1.1257    0.3283 C   0  0  0  0  0  0  0  0  0  0  0  0
    3.2094    1.0460   -0.0136 C   0  0  0  0  0  0  0  0  0  0  0  0
    3.4812   -1.7396    0.3546 C   0  0  0  0  0  0  0  0  0  0  0  0
    4.4738    0.4465    0.0106 C   0  0  0  0  0  0  0  0  0  0  0  0
    4.6054   -0.9271    0.1917 C   0  0  0  0  0  0  0  0  0  0  0  0
    6.8467    0.5510   -0.1097 C   0  0  0  0  0  0  0  0  0  0  0  0
   -1.9061    0.8742    1.3132 H   0  0  0  0  0  0  0  0  0  0  0  0
   -1.1625    0.2277   -1.3968 H   0  0  0  0  0  0  0  0  0  0  0  0
   -1.6314   -1.6621    1.4030 H   0  0  0  0  0  0  0  0  0  0  0  0
   -3.7582   -1.8016   -2.1695 H   0  0  0  0  0  0  0  0  0  0  0  0
   -3.8065   -0.5920    1.7952 H   0  0  0  0  0  0  0  0  0  0  0  0
   -3.9265    0.8894   -1.9295 H   0  0  0  0  0  0  0  0  0  0  0  0
   -2.6255    0.2102   -2.9045 H   0  0  0  0  0  0  0  0  0  0  0  0
   -1.2965   -2.0234   -1.5339 H   0  0  0  0  0  0  0  0  0  0  0  0
   -2.3281   -2.8987   -0.4115 H   0  0  0  0  0  0  0  0  0  0  0  0
   -5.2995   -0.6616   -0.6512 H   0  0  0  0  0  0  0  0  0  0  0  0
   -4.5696   -1.9988    0.2213 H   0  0  0  0  0  0  0  0  0  0  0  0
   -1.8946    2.8961   -0.4764 H   0  0  0  0  0  0  0  0  0  0  0  0
   -0.9504    2.3876   -1.8748 H   0  0  0  0  0  0  0  0  0  0  0  0
   -4.6015    1.7841    0.0351 H   0  0  0  0  0  0  0  0  0  0  0  0
   -4.1035    1.8570    1.7181 H   0  0  0  0  0  0  0  0  0  0  0  0
   -0.2171    2.2787    1.0496 H   0  0  0  0  0  0  0  0  0  0  0  0
    0.7753    2.6327   -0.3430 H   0  0  0  0  0  0  0  0  0  0  0  0
    0.7947   -2.6632    0.6099 H   0  0  0  0  0  0  0  0  0  0  0  0
   -6.5886    0.4182    0.6446 H   0  0  0  0  0  0  0  0  0  0  0  0
   -6.0124    0.3057    2.3192 H   0  0  0  0  0  0  0  0  0  0  0  0
   -6.5108    1.8608    1.6457 H   0  0  0  0  0  0  0  0  0  0  0  0
    3.1225    2.1200   -0.1547 H   0  0  0  0  0  0  0  0  0  0  0  0
    3.5829   -2.8105    0.4981 H   0  0  0  0  0  0  0  0  0  0  0  0
    5.5606   -1.4415    0.2186 H   0  0  0  0  0  0  0  0  0  0  0  0
    7.6195    1.3143   -0.2481 H   0  0  0  0  0  0  0  0  0  0  0  0
    6.9498   -0.1596   -0.9369 H   0  0  0  0  0  0  0  0  0  0  0  0
    7.0303    0.0855    0.8646 H   0  0  0  0  0  0  0  0  0  0  0  0
  1 21  1  0  0  0  0
  1 23  1  0  0  0  0
  2 12  1  0  0  0  0
  2 18  1  0  0  0  0
  2 41  1  0  0  0  0
  3  4  1  0  0  0  0
  3  5  1  0  0  0  0
  3  7  1  0  0  0  0
  3 24  1  0  0  0  0
  4  8  1  0  0  0  0
  4 11  1  0  0  0  0
  4 25  1  0  0  0  0
  5  9  1  0  0  0  0
  5 12  1  0  0  0  0
  5 26  1  0  0  0  0
  6  8  1  0  0  0  0
  6  9  1  0  0  0  0
  6 10  1  0  0  0  0
  6 27  1  0  0  0  0
  7 10  1  0  0  0  0
  7 13  1  0  0  0  0
  7 28  1  0  0  0  0
  8 29  1  0  0  0  0
  8 30  1  0  0  0  0
  9 31  1  0  0  0  0
  9 32  1  0  0  0  0
 10 33  1  0  0  0  0
 10 34  1  0  0  0  0
 11 14  1  0  0  0  0
 11 35  1  0  0  0  0
 11 36  1  0  0  0  0
 12 15  2  0  0  0  0
 13 17  1  0  0  0  0
 13 37  1  0  0  0  0
 13 38  1  0  0  0  0
 14 15  1  0  0  0  0
 14 39  1  0  0  0  0
 14 40  1  0  0  0  0
 15 16  1  0  0  0  0
 16 18  2  0  0  0  0
 16 19  1  0  0  0  0
 17 42  1  0  0  0  0
 17 43  1  0  0  0  0
 17 44  1  0  0  0  0
 18 20  1  0  0  0  0
 19 21  2  0  0  0  0
 19 45  1  0  0  0  0
 20 22  2  0  0  0  0
 20 46  1  0  0  0  0
 21 22  1  0  0  0  0
 22 47  1  0  0  0  0
 23 48  1  0  0  0  0
 23 49  1  0  0  0  0
 23 50  1  0  0  0  0
M  END
> <PUBCHEM_COMPOUND_CID>
6756

> <PUBCHEM_CONFORMER_RMSD>
0.6

> <PUBCHEM_CONFORMER_DIVERSEORDER>
1
2

> <PUBCHEM_MMFF94_PARTIAL_CHARGES>
16
1 -0.36
12 -0.33
14 0.18
15 -0.18
18 -0.15
19 -0.15
2 0.03
20 -0.15
21 0.08
22 -0.15
23 0.28
41 0.27
45 0.15
46 0.15
47 0.15
5 0.18

> <PUBCHEM_EFFECTIVE_ROTOR_COUNT>
3.2

> <PUBCHEM_PHARMACOPHORE_FEATURES>
8
1 1 acceptor
1 17 hydrophobe
1 2 cation
1 2 donor
5 2 12 15 16 18 rings
6 16 18 19 20 21 22 rings
7 3 4 5 11 12 14 15 rings
8 3 4 5 6 7 8 9 10 rings

> <PUBCHEM_HEAVY_ATOM_COUNT>
23

> <PUBCHEM_ATOM_DEF_STEREO_COUNT>
5

> <PUBCHEM_ATOM_UDEF_STEREO_COUNT>
0

> <PUBCHEM_BOND_DEF_STEREO_COUNT>
0

> <PUBCHEM_BOND_UDEF_STEREO_COUNT>
0

> <PUBCHEM_ISOTOPIC_ATOM_COUNT>
0

> <PUBCHEM_COMPONENT_COUNT>
1

> <PUBCHEM_CACTVS_TAUTO_COUNT>
1

> <PUBCHEM_CONFORMER_ID>
00001A6400000001

> <PUBCHEM_MMFF94_ENERGY>
111.048

> <PUBCHEM_FEATURE_SELFOVERLAP>
40.807

> <PUBCHEM_SHAPE_FINGERPRINT>
10090160 65 17989209231304098506
10906281 52 18341315722654951378
11135609 99 17914037713590576355
11315181 36 18187088304078203148
11796584 16 15647048275061817910
12166972 35 11455883655283973870
12236239 1 18113616789547396203
12403259 415 18272098184247574796
12403814 3 18272654562816065501
12507557 5 15626225697679114030
12553582 1 18411147934516442424
12616971 3 18411707616543161490
12788726 201 17096077116650062408
128620 24 18202567284877497558
13140716 1 18127965308889518264
13224815 77 18343871025921158282
13533116 47 4822664089315914932
13583140 156 15482402966668802426
13760787 5 18341056288991682210
14251764 18 18333447643342971361
14790565 3 18410004476952280777
15048467 5 18113332033479474273
15163728 17 16083315913346233289
15196674 1 18341898527925612502
15209289 33 18410014312558822211
15788980 27 16343709833083882082
15849732 13 18408036321785687277
16945 1 18340785775008614983
17349148 13 17917717903008002528
1813 80 17703215304394033141
18785283 64 17273395193711171757
19141452 34 18260828198425620775
200 152 18114185220327350058
21033648 29 17560536031033033132
21267235 1 18337387137201615567
23402539 116 18186803565253349692
23559900 14 18339088065021709856
23622692 88 17967531281678827001
300161 21 17894352185410984274
34797466 226 16298945342972693000
34934 24 18410856576930636667
350125 39 18412542120188698776
3545911 37 18202562874341703810
4340502 62 16343983607316009594
5104073 3 18410297995027735738
542803 24 18040718069356845154
7495541 125 14692276323015700373
9709674 26 18341894125827344386

> <PUBCHEM_SHAPE_MULTIPOLES>
462.48
12.65
1.91
1.16
10.93
0.01
0.28
-2.32
-1.98
-0.14
0.15
-1.72
-0.07
-0.99

> <PUBCHEM_SHAPE_SELFOVERLAP>
1019.496

> <PUBCHEM_SHAPE_VOLUME>
248.1

> <PUBCHEM_COORDINATE_TYPE>
2
5
10

$$$$

