5281531
  -OEChem-07051212582D

 40 42  0     1  0  0  0  0  0999 V2000
    4.0885   -2.7382    0.0000 O   0  0  0  0  0  0  0  0  0  0  0  0
    2.5739    1.9248    0.0000 C   0  0  0  0  0  0  0  0  0  0  0  0
    2.0000    1.5048    0.0000 C   0  0  3  0  0  0  0  0  0  0  0  0
    2.3886    2.6979    0.0000 C   0  0  3  0  0  0  0  0  0  0  0  0
    3.2246    1.7622    0.0000 C   0  0  3  0  0  0  0  0  0  0  0  0
    4.0843    2.0875    0.0000 C   0  0  0  0  0  0  0  0  0  0  0  0
    3.3827    2.8312    0.0000 C   0  0  0  0  0  0  0  0  0  0  0  0
    3.3827    1.1264    0.0000 C   0  0  0  0  0  0  0  0  0  0  0  0
    2.8211    3.0479    0.0000 C   0  0  0  0  0  0  0  0  0  0  0  0
    4.0904    1.2618    0.0000 C   0  0  0  0  0  0  0  0  0  0  0  0
    3.9331    2.6681    0.0000 C   0  0  0  0  0  0  0  0  0  0  0  0
    4.0899    0.2618    0.0000 C   0  0  0  0  0  0  0  0  0  0  0  0
    4.9557   -0.2386    0.0000 C   0  0  0  0  0  0  0  0  0  0  0  0
    4.9552   -1.2386    0.0000 C   0  0  0  0  0  0  0  0  0  0  0  0
    4.0890   -1.7382    0.0000 C   0  0  0  0  0  0  0  0  0  0  0  0
    5.8210   -1.7390    0.0000 C   0  0  0  0  0  0  0  0  0  0  0  0
    1.8445    3.3510    0.0000 H   0  0  0  0  0  0  0  0  0  0  0  0
    1.2518    1.1014    0.0000 H   0  0  0  0  0  0  0  0  0  0  0  0
    4.7031    2.1264    0.0000 H   0  0  0  0  0  0  0  0  0  0  0  0
    3.1480    0.5525    0.0000 H   0  0  0  0  0  0  0  0  0  0  0  0
    3.9240    0.8240    0.0000 H   0  0  0  0  0  0  0  0  0  0  0  0
    3.9117    3.1546    0.0000 H   0  0  0  0  0  0  0  0  0  0  0  0
    3.1754    3.4156    0.0000 H   0  0  0  0  0  0  0  0  0  0  0  0
    3.4266    2.9147    0.0000 H   0  0  0  0  0  0  0  0  0  0  0  0
    2.9543    3.6534    0.0000 H   0  0  0  0  0  0  0  0  0  0  0  0
    2.2156    3.1812    0.0000 H   0  0  0  0  0  0  0  0  0  0  0  0
    4.7009    1.1538    0.0000 H   0  0  0  0  0  0  0  0  0  0  0  0
    4.3027    1.8443    0.0000 H   0  0  0  0  0  0  0  0  0  0  0  0
    4.4214    2.2861    0.0000 H   0  0  0  0  0  0  0  0  0  0  0  0
    4.3150    3.1565    0.0000 H   0  0  0  0  0  0  0  0  0  0  0  0
    3.4447    3.0500    0.0000 H   0  0  0  0  0  0  0  0  0  0  0  0
    3.4794    0.3698    0.0000 H   0  0  0  0  0  0  0  0  0  0  0  0
    3.8776   -0.3207    0.0000 H   0  0  0  0  0  0  0  0  0  0  0  0
    5.4928    0.0711    0.0000 H   0  0  0  0  0  0  0  0  0  0  0  0
    3.8772   -1.1555    0.0000 H   0  0  0  0  0  0  0  0  0  0  0  0
    3.4783   -1.8456    0.0000 H   0  0  0  0  0  0  0  0  0  0  0  0
    5.5108   -2.2758    0.0000 H   0  0  0  0  0  0  0  0  0  0  0  0
    6.3578   -2.0493    0.0000 H   0  0  0  0  0  0  0  0  0  0  0  0
    6.1313   -1.2022    0.0000 H   0  0  0  0  0  0  0  0  0  0  0  0
    3.5514   -3.0479    0.0000 H   0  0  0  0  0  0  0  0  0  0  0  0
  1 15  1  0  0  0  0
  1 40  1  0  0  0  0
  2  3  1  0  0  0  0
  2  4  1  0  0  0  0
  2  5  1  0  0  0  0
  2  9  1  0  0  0  0
  3  4  1  0  0  0  0
  3  8  1  0  0  0  0
  3 18  1  0  0  0  0
  4  7  1  0  0  0  0
  4 17  1  0  0  0  0
  5  6  1  0  0  0  0
  5 10  1  0  0  0  0
  5 11  1  0  0  0  0
  6  7  1  0  0  0  0
  6  8  1  0  0  0  0
  6 19  1  0  0  0  0
  7 22  1  0  0  0  0
  7 23  1  0  0  0  0
  8 20  1  0  0  0  0
  8 21  1  0  0  0  0
  9 24  1  0  0  0  0
  9 25  1  0  0  0  0
  9 26  1  0  0  0  0
 10 12  1  0  0  0  0
 10 27  1  0  0  0  0
 10 28  1  0  0  0  0
 11 29  1  0  0  0  0
 11 30  1  0  0  0  0
 11 31  1  0  0  0  0
 12 13  1  0  0  0  0
 12 32  1  0  0  0  0
 12 33  1  0  0  0  0
 13 14  2  0  0  0  0
 13 34  1  0  0  0  0
 14 15  1  0  0  0  0
 14 16  1  0  0  0  0
 15 35  1  0  0  0  0
 15 36  1  0  0  0  0
 16 37  1  0  0  0  0
 16 38  1  0  0  0  0
 16 39  1  0  0  0  0
M  END
> <PUBCHEM_COMPOUND_CID>
5281531

> <PUBCHEM_COMPOUND_CANONICALIZED>
1

> <PUBCHEM_CACTVS_COMPLEXITY>
331

> <PUBCHEM_CACTVS_HBOND_ACCEPTOR>
1

> <PUBCHEM_CACTVS_HBOND_DONOR>
1

> <PUBCHEM_CACTVS_ROTATABLE_BOND>
4

> <PUBCHEM_CACTVS_SUBSKEYS>
AAADceBwIAAAAAAAAAAAAAAAGAAAAYMGAAAAAAAAAAAAAAAAAAAAGgAACAAADwCggAICAAAAAgCAAiBCAAAAAAAgAAAACAAAAAgAFAIAAQAAUAAAgAAIEAMAgMAPgAAAAAAAAACAAAQAACAAAQAACAAAAA==

> <PUBCHEM_IUPAC_OPENEYE_NAME>
(Z)-5-(2,3-dimethyl-4,5,6,7-tetrahydro-1H-tricyclo[2.2.1.0^{2,6}]heptan-3-yl)-2-methyl-pent-2-en-1-ol

> <PUBCHEM_IUPAC_CAS_NAME>
(Z)-5-(2,3-dimethyl-4,5,6,7-tetrahydro-1H-tricyclo[2.2.1.0^{2,6}]heptan-3-yl)-2-methyl-2-penten-1-ol

> <PUBCHEM_IUPAC_NAME>
(Z)-5-(2,3-dimethyl-4,5,6,7-tetrahydro-1H-tricyclo[2.2.1.0^{2,6}]heptan-3-yl)-2-methylpent-2-en-1-ol

> <PUBCHEM_IUPAC_SYSTEMATIC_NAME>
(Z)-5-(2,3-dimethyl-4,5,6,7-tetrahydro-1H-tricyclo[2.2.1.0^{2,6}]heptan-3-yl)-2-methyl-pent-2-en-1-ol

> <PUBCHEM_IUPAC_TRADITIONAL_NAME>
(Z)-5-(2,3-dimethyl-4,5,6,7-tetrahydro-1H-tricyclo[2.2.1.0^{2,6}]heptan-3-yl)-2-methyl-pent-2-en-1-ol

> <PUBCHEM_IUPAC_INCHI>
InChI=1S/C15H24O/c1-10(9-16)5-4-6-14(2)11-7-12-13(8-11)15(12,14)3/h5,11-13,16H,4,6-9H2,1-3H3/b10-5-

> <PUBCHEM_IUPAC_INCHIKEY>
PDEQKAVEYSOLJX-YHYXMXQVSA-N

> <PUBCHEM_XLOGP3_AA>
4

> <PUBCHEM_EXACT_MASS>
220.182715

> <PUBCHEM_MOLECULAR_FORMULA>
C15H24O

> <PUBCHEM_MOLECULAR_WEIGHT>
220.35046

> <PUBCHEM_OPENEYE_CAN_SMILES>
CC(=CCCC1(C2CC3C1(C3C2)C)C)CO

> <PUBCHEM_OPENEYE_ISO_SMILES>
C/C(=C/CCC1(C2CC3C1(C3C2)C)C)/CO

> <PUBCHEM_CACTVS_TPSA>
20.2

> <PUBCHEM_MONOISOTOPIC_WEIGHT>
220.182715

> <PUBCHEM_TOTAL_CHARGE>
0

> <PUBCHEM_HEAVY_ATOM_COUNT>
16

> <PUBCHEM_ATOM_DEF_STEREO_COUNT>
0

> <PUBCHEM_ATOM_UDEF_STEREO_COUNT>
3

> <PUBCHEM_BOND_DEF_STEREO_COUNT>
1

> <PUBCHEM_BOND_UDEF_STEREO_COUNT>
0

> <PUBCHEM_ISOTOPIC_ATOM_COUNT>
0

> <PUBCHEM_COMPONENT_COUNT>
1

> <PUBCHEM_CACTVS_TAUTO_COUNT>
1

> <PUBCHEM_COORDINATE_TYPE>
1
5
255

> <PUBCHEM_BONDANNOTATIONS>
3  18  3
4  17  3
5  10  3

$$$$

