5281616
  -OEChem-07051212582D

 30 32  0     0  0  0  0  0  0999 V2000
    5.4641    0.9254    0.0000 O   0  0  0  0  0  0  0  0  0  0  0  0
    3.7320   -1.0746    0.0000 O   0  0  0  0  0  0  0  0  0  0  0  0
    7.2125   -2.1092    0.0000 O   0  0  0  0  0  0  0  0  0  0  0  0
    5.4641   -2.0746    0.0000 O   0  0  0  0  0  0  0  0  0  0  0  0
    8.9942    0.9495    0.0000 O   0  0  0  0  0  0  0  0  0  0  0  0
    6.3301   -0.5746    0.0000 C   0  0  0  0  0  0  0  0  0  0  0  0
    6.3301    0.4254    0.0000 C   0  0  0  0  0  0  0  0  0  0  0  0
    4.5981    0.4254    0.0000 C   0  0  0  0  0  0  0  0  0  0  0  0
    5.4641   -1.0746    0.0000 C   0  0  0  0  0  0  0  0  0  0  0  0
    4.5981   -0.5746    0.0000 C   0  0  0  0  0  0  0  0  0  0  0  0
    3.7320    0.9254    0.0000 C   0  0  0  0  0  0  0  0  0  0  0  0
    7.2241   -1.1093    0.0000 C   0  0  0  0  0  0  0  0  0  0  0  0
    7.2241    0.9601    0.0000 C   0  0  0  0  0  0  0  0  0  0  0  0
    8.1301    0.4462    0.0000 C   0  0  0  0  0  0  0  0  0  0  0  0
    8.1301   -0.5954    0.0000 C   0  0  0  0  0  0  0  0  0  0  0  0
    3.7320    1.9254    0.0000 C   0  0  0  0  0  0  0  0  0  0  0  0
    2.8660    0.4254    0.0000 C   0  0  0  0  0  0  0  0  0  0  0  0
    2.8660    2.4254    0.0000 C   0  0  0  0  0  0  0  0  0  0  0  0
    2.0000    0.9254    0.0000 C   0  0  0  0  0  0  0  0  0  0  0  0
    2.0000    1.9254    0.0000 C   0  0  0  0  0  0  0  0  0  0  0  0
    7.2169    1.5800    0.0000 H   0  0  0  0  0  0  0  0  0  0  0  0
    8.6659   -0.9075    0.0000 H   0  0  0  0  0  0  0  0  0  0  0  0
    4.2690    2.2354    0.0000 H   0  0  0  0  0  0  0  0  0  0  0  0
    2.8660   -0.1946    0.0000 H   0  0  0  0  0  0  0  0  0  0  0  0
    2.8660    3.0454    0.0000 H   0  0  0  0  0  0  0  0  0  0  0  0
    1.4631    0.6154    0.0000 H   0  0  0  0  0  0  0  0  0  0  0  0
    1.4631    2.2354    0.0000 H   0  0  0  0  0  0  0  0  0  0  0  0
    3.7320   -1.6946    0.0000 H   0  0  0  0  0  0  0  0  0  0  0  0
    7.7458   -2.4254    0.0000 H   0  0  0  0  0  0  0  0  0  0  0  0
    9.5323    0.6416    0.0000 H   0  0  0  0  0  0  0  0  0  0  0  0
  1  7  1  0  0  0  0
  1  8  1  0  0  0  0
  2 10  1  0  0  0  0
  2 28  1  0  0  0  0
  3 12  1  0  0  0  0
  3 29  1  0  0  0  0
  4  9  2  0  0  0  0
  5 14  1  0  0  0  0
  5 30  1  0  0  0  0
  6  7  1  0  0  0  0
  6  9  1  0  0  0  0
  6 12  2  0  0  0  0
  7 13  2  0  0  0  0
  8 10  2  0  0  0  0
  8 11  1  0  0  0  0
  9 10  1  0  0  0  0
 11 16  2  0  0  0  0
 11 17  1  0  0  0  0
 12 15  1  0  0  0  0
 13 14  1  0  0  0  0
 13 21  1  0  0  0  0
 14 15  2  0  0  0  0
 15 22  1  0  0  0  0
 16 18  1  0  0  0  0
 16 23  1  0  0  0  0
 17 19  2  0  0  0  0
 17 24  1  0  0  0  0
 18 20  2  0  0  0  0
 18 25  1  0  0  0  0
 19 20  1  0  0  0  0
 19 26  1  0  0  0  0
 20 27  1  0  0  0  0
M  END
> <PUBCHEM_COMPOUND_CID>
5281616

> <PUBCHEM_COMPOUND_CANONICALIZED>
1

> <PUBCHEM_CACTVS_COMPLEXITY>
424

> <PUBCHEM_CACTVS_HBOND_ACCEPTOR>
5

> <PUBCHEM_CACTVS_HBOND_DONOR>
3

> <PUBCHEM_CACTVS_ROTATABLE_BOND>
1

> <PUBCHEM_CACTVS_SUBSKEYS>
AAADccBwOAAAAAAAAAAAAAAAAAAAAAAAAAAwYIAAAAAAAACBQAAAGgAACAAADASAmAAwBoAABgCIAqBSAAICCAAkIAAIiAFGCMgMJzaGNRqCeWCl4BUIuQfI7KzOIAAACAAIAABAAAAQABAAAAAAAAAAAA==

> <PUBCHEM_IUPAC_OPENEYE_NAME>
3,5,7-trihydroxy-2-phenyl-chromen-4-one

> <PUBCHEM_IUPAC_CAS_NAME>
3,5,7-trihydroxy-2-phenyl-1-benzopyran-4-one

> <PUBCHEM_IUPAC_NAME>
3,5,7-trihydroxy-2-phenylchromen-4-one

> <PUBCHEM_IUPAC_SYSTEMATIC_NAME>
3,5,7-tris(oxidanyl)-2-phenyl-chromen-4-one

> <PUBCHEM_IUPAC_TRADITIONAL_NAME>
3,5,7-trihydroxy-2-phenyl-chromone

> <PUBCHEM_IUPAC_INCHI>
InChI=1S/C15H10O5/c16-9-6-10(17)12-11(7-9)20-15(14(19)13(12)18)8-4-2-1-3-5-8/h1-7,16-17,19H

> <PUBCHEM_IUPAC_INCHIKEY>
VCCRNZQBSJXYJD-UHFFFAOYSA-N

> <PUBCHEM_XLOGP3>
2.3

> <PUBCHEM_EXACT_MASS>
270.052823

> <PUBCHEM_MOLECULAR_FORMULA>
C15H10O5

> <PUBCHEM_MOLECULAR_WEIGHT>
270.2369

> <PUBCHEM_OPENEYE_CAN_SMILES>
C1=CC=C(C=C1)C2=C(C(=O)C3=C(C=C(C=C3O2)O)O)O

> <PUBCHEM_OPENEYE_ISO_SMILES>
C1=CC=C(C=C1)C2=C(C(=O)C3=C(C=C(C=C3O2)O)O)O

> <PUBCHEM_CACTVS_TPSA>
87

> <PUBCHEM_MONOISOTOPIC_WEIGHT>
270.052823

> <PUBCHEM_TOTAL_CHARGE>
0

> <PUBCHEM_HEAVY_ATOM_COUNT>
20

> <PUBCHEM_ATOM_DEF_STEREO_COUNT>
0

> <PUBCHEM_ATOM_UDEF_STEREO_COUNT>
0

> <PUBCHEM_BOND_DEF_STEREO_COUNT>
0

> <PUBCHEM_BOND_UDEF_STEREO_COUNT>
0

> <PUBCHEM_ISOTOPIC_ATOM_COUNT>
0

> <PUBCHEM_COMPONENT_COUNT>
1

> <PUBCHEM_CACTVS_TAUTO_COUNT>
24

> <PUBCHEM_COORDINATE_TYPE>
1
5
255

> <PUBCHEM_BONDANNOTATIONS>
1  7  8
1  8  8
11  16  8
11  17  8
12  15  8
13  14  8
14  15  8
16  18  8
17  19  8
18  20  8
19  20  8
6  12  8
6  7  8
6  9  8
7  13  8
8  10  8
9  10  8

$$$$

