13831
  -OEChem-06241222403D

 40 39  0     0  0  0  0  0  0999 V2000
    0.0918   -0.0398   -0.7653 P   0  0  0  0  0  0  0  0  0  0  0  0
    1.6135    0.3284    0.1859 C   0  0  0  0  0  0  0  0  0  0  0  0
   -0.3803   -1.6422   -0.0137 C   0  0  0  0  0  0  0  0  0  0  0  0
   -1.0959    1.0728    0.1124 C   0  0  0  0  0  0  0  0  0  0  0  0
    2.8168   -0.4659   -0.3181 C   0  0  0  0  0  0  0  0  0  0  0  0
   -1.8426   -1.9960   -0.2776 C   0  0  0  0  0  0  0  0  0  0  0  0
   -0.9448    2.5316   -0.3144 C   0  0  0  0  0  0  0  0  0  0  0  0
    4.0762   -0.1238    0.4794 C   0  0  0  0  0  0  0  0  0  0  0  0
   -2.2034   -3.3468    0.3426 C   0  0  0  0  0  0  0  0  0  0  0  0
   -1.9521    3.4252    0.4109 C   0  0  0  0  0  0  0  0  0  0  0  0
    5.2708   -0.9405    0.0126 C   0  0  0  0  0  0  0  0  0  0  0  0
   -3.6683   -3.6884    0.1213 C   0  0  0  0  0  0  0  0  0  0  0  0
   -1.7817    4.8856    0.0240 C   0  0  0  0  0  0  0  0  0  0  0  0
    1.4561    0.1342    1.2529 H   0  0  0  0  0  0  0  0  0  0  0  0
    1.8404    1.3959    0.0905 H   0  0  0  0  0  0  0  0  0  0  0  0
   -0.2104   -1.6131    1.0688 H   0  0  0  0  0  0  0  0  0  0  0  0
    0.2679   -2.4280   -0.4176 H   0  0  0  0  0  0  0  0  0  0  0  0
   -0.9740    0.9760    1.1970 H   0  0  0  0  0  0  0  0  0  0  0  0
   -2.1190    0.7723   -0.1309 H   0  0  0  0  0  0  0  0  0  0  0  0
    2.9921   -0.2555   -1.3811 H   0  0  0  0  0  0  0  0  0  0  0  0
    2.6217   -1.5426   -0.2362 H   0  0  0  0  0  0  0  0  0  0  0  0
   -2.0397   -2.0246   -1.3569 H   0  0  0  0  0  0  0  0  0  0  0  0
   -2.5157   -1.2483    0.1526 H   0  0  0  0  0  0  0  0  0  0  0  0
   -1.0898    2.6258   -1.3985 H   0  0  0  0  0  0  0  0  0  0  0  0
    0.0687    2.8903   -0.0989 H   0  0  0  0  0  0  0  0  0  0  0  0
    3.9063   -0.3162    1.5452 H   0  0  0  0  0  0  0  0  0  0  0  0
    4.3054    0.9430    0.3744 H   0  0  0  0  0  0  0  0  0  0  0  0
   -1.9990   -3.3298    1.4196 H   0  0  0  0  0  0  0  0  0  0  0  0
   -1.5793   -4.1351   -0.0941 H   0  0  0  0  0  0  0  0  0  0  0  0
   -1.8255    3.3256    1.4953 H   0  0  0  0  0  0  0  0  0  0  0  0
   -2.9733    3.1058    0.1723 H   0  0  0  0  0  0  0  0  0  0  0  0
    6.1597   -0.6786    0.5949 H   0  0  0  0  0  0  0  0  0  0  0  0
    5.0865   -2.0123    0.1376 H   0  0  0  0  0  0  0  0  0  0  0  0
    5.4878   -0.7497   -1.0432 H   0  0  0  0  0  0  0  0  0  0  0  0
   -3.9026   -4.6593    0.5690 H   0  0  0  0  0  0  0  0  0  0  0  0
   -4.3205   -2.9376    0.5788 H   0  0  0  0  0  0  0  0  0  0  0  0
   -3.9015   -3.7417   -0.9468 H   0  0  0  0  0  0  0  0  0  0  0  0
   -2.5127    5.5054    0.5525 H   0  0  0  0  0  0  0  0  0  0  0  0
   -0.7809    5.2460    0.2824 H   0  0  0  0  0  0  0  0  0  0  0  0
   -1.9309    5.0263   -1.0513 H   0  0  0  0  0  0  0  0  0  0  0  0
  1  2  1  0  0  0  0
  1  3  1  0  0  0  0
  1  4  1  0  0  0  0
  2  5  1  0  0  0  0
  2 14  1  0  0  0  0
  2 15  1  0  0  0  0
  3  6  1  0  0  0  0
  3 16  1  0  0  0  0
  3 17  1  0  0  0  0
  4  7  1  0  0  0  0
  4 18  1  0  0  0  0
  4 19  1  0  0  0  0
  5  8  1  0  0  0  0
  5 20  1  0  0  0  0
  5 21  1  0  0  0  0
  6  9  1  0  0  0  0
  6 22  1  0  0  0  0
  6 23  1  0  0  0  0
  7 10  1  0  0  0  0
  7 24  1  0  0  0  0
  7 25  1  0  0  0  0
  8 11  1  0  0  0  0
  8 26  1  0  0  0  0
  8 27  1  0  0  0  0
  9 12  1  0  0  0  0
  9 28  1  0  0  0  0
  9 29  1  0  0  0  0
 10 13  1  0  0  0  0
 10 30  1  0  0  0  0
 10 31  1  0  0  0  0
 11 32  1  0  0  0  0
 11 33  1  0  0  0  0
 11 34  1  0  0  0  0
 12 35  1  0  0  0  0
 12 36  1  0  0  0  0
 12 37  1  0  0  0  0
 13 38  1  0  0  0  0
 13 39  1  0  0  0  0
 13 40  1  0  0  0  0
M  END
> <PUBCHEM_COMPOUND_CID>
13831

> <PUBCHEM_CONFORMER_RMSD>
0.8

> <PUBCHEM_CONFORMER_DIVERSEORDER>
1
180
167
176
189
51
61
70
90
139
2
28
33
100
186
190
128
85
117
132
12
55
188
182
118
115
126
39
96
92
46
191
145
155
62
178
106
63
185
26
166
154
65
77
108
141
71
162
87
110
124
45
138
94
66
36
181
169
144
52
73
53
15
79
72
149
20
89
69
59
64
111
151
133
19
160
121
173
97
177
119
44
107
81
140
95
22
11
37
101
172
67
130
99
116
93
8
38
156
105
127
30
161
41
158
76
88
29
21
157
9
50
6
170
84
150
104
42
114
143
18
146
57
43
14
142
83
25
184
10
171
174
134
131
56
168
165
7
75
91
147
183
175
103
78
80
112
125
13
49
135
98
113
187
137
31
120
54
32
129
86
74
27
48
148
17
123
152
47
102
40
163
5
35
109
122
82
159
153
179
60
3
16
23
58
24
4
164
34
136
68

> <PUBCHEM_MMFF94_PARTIAL_CHARGES>
4
1 -0.5
2 0.17
3 0.17
4 0.17

> <PUBCHEM_EFFECTIVE_ROTOR_COUNT>
9

> <PUBCHEM_PHARMACOPHORE_FEATURES>
3
1 11 hydrophobe
1 12 hydrophobe
1 13 hydrophobe

> <PUBCHEM_HEAVY_ATOM_COUNT>
13

> <PUBCHEM_ATOM_DEF_STEREO_COUNT>
0

> <PUBCHEM_ATOM_UDEF_STEREO_COUNT>
0

> <PUBCHEM_BOND_DEF_STEREO_COUNT>
0

> <PUBCHEM_BOND_UDEF_STEREO_COUNT>
0

> <PUBCHEM_ISOTOPIC_ATOM_COUNT>
0

> <PUBCHEM_COMPONENT_COUNT>
1

> <PUBCHEM_CACTVS_TAUTO_COUNT>
1

> <PUBCHEM_CONFORMER_ID>
0000360700000001

> <PUBCHEM_MMFF94_ENERGY>
-1.4797

> <PUBCHEM_FEATURE_SELFOVERLAP>
15.223

> <PUBCHEM_SHAPE_FINGERPRINT>
11357001 24 18410856564114384338
12500047 106 18192716859384119472
12532896 13 18048036560384919060
13134695 92 17977952284887389191
136203 1 18410575093258301483
13955234 65 17040910443940851265
14123255 52 17905049497241735888
14178000 15 17977382737885007339
14178000 22 18122909990948833640
14178342 30 18269291174280320962
15042514 8 18411132537390937163
17539 30 18336273387419370695
19021347 4 18194402427124471741
20671657 1 17039225987647280669
20671657 53 18120930603641492611
21426921 1 18410854374218925646
21524375 3 17755877655004920724
23526113 38 17835556763088298983
23558518 356 18271237348078781478
3091708 16 9275430059891829761
68521 5 18410572855786347838
7364860 26 17474105397837638303
77188 2 18194682553523669013
81228 2 18411418405791890581
81539 233 17619348053457422428

> <PUBCHEM_SHAPE_MULTIPOLES>
271.38
7.14
6.38
0.74
12.04
5.57
-0.04
-5.44
0.83
-11.4
0.65
0.03
0.01
0.08

> <PUBCHEM_SHAPE_SELFOVERLAP>
462.775

> <PUBCHEM_SHAPE_VOLUME>
182.6

> <PUBCHEM_COORDINATE_TYPE>
2
5
10

$$$$

