3220
  -OEChem-07051212593D

 30 32  0     0  0  0  0  0  0999 V2000
   -2.5416    2.6359   -0.0003 O   0  0  0  0  0  0  0  0  0  0  0  0
    0.0183    2.5369    0.0002 O   0  0  0  0  0  0  0  0  0  0  0  0
   -0.0087   -2.8071    0.0010 O   0  0  0  0  0  0  0  0  0  0  0  0
    2.5792    2.6101    0.0012 O   0  0  0  0  0  0  0  0  0  0  0  0
    4.8713   -1.5356   -0.0011 O   0  0  0  0  0  0  0  0  0  0  0  0
   -1.2715   -0.8267    0.0003 C   0  0  0  0  0  0  0  0  0  0  0  0
   -1.2646    0.5697    0.0001 C   0  0  0  0  0  0  0  0  0  0  0  0
    1.2816    0.5569    0.0005 C   0  0  0  0  0  0  0  0  0  0  0  0
    1.2745   -0.8395    0.0003 C   0  0  0  0  0  0  0  0  0  0  0  0
    0.0122    1.3126   -0.0003 C   0  0  0  0  0  0  0  0  0  0  0  0
   -0.0023   -1.5823    0.0007 C   0  0  0  0  0  0  0  0  0  0  0  0
   -2.4886   -1.5188    0.0002 C   0  0  0  0  0  0  0  0  0  0  0  0
   -2.4746    1.2740   -0.0006 C   0  0  0  0  0  0  0  0  0  0  0  0
   -3.6921   -0.8130   -0.0001 C   0  0  0  0  0  0  0  0  0  0  0  0
    2.4986    1.2490    0.0005 C   0  0  0  0  0  0  0  0  0  0  0  0
    2.4845   -1.5439   -0.0004 C   0  0  0  0  0  0  0  0  0  0  0  0
   -3.6851    0.5803   -0.0009 C   0  0  0  0  0  0  0  0  0  0  0  0
    3.6949   -0.8502   -0.0008 C   0  0  0  0  0  0  0  0  0  0  0  0
    3.7020    0.5433   -0.0003 C   0  0  0  0  0  0  0  0  0  0  0  0
   -4.9881   -1.5513    0.0000 C   0  0  0  0  0  0  0  0  0  0  0  0
   -2.5081   -2.6060   -0.0014 H   0  0  0  0  0  0  0  0  0  0  0  0
    2.4921   -2.6312   -0.0005 H   0  0  0  0  0  0  0  0  0  0  0  0
   -4.6224    1.1321   -0.0033 H   0  0  0  0  0  0  0  0  0  0  0  0
    4.6533    1.0702   -0.0004 H   0  0  0  0  0  0  0  0  0  0  0  0
   -5.2950   -1.7715   -1.0273 H   0  0  0  0  0  0  0  0  0  0  0  0
   -4.9047   -2.4936    0.5522 H   0  0  0  0  0  0  0  0  0  0  0  0
   -5.7781   -0.9665    0.4835 H   0  0  0  0  0  0  0  0  0  0  0  0
   -1.6543    3.0245    0.0018 H   0  0  0  0  0  0  0  0  0  0  0  0
    3.5126    2.8827    0.0011 H   0  0  0  0  0  0  0  0  0  0  0  0
    4.6814   -2.4895   -0.0013 H   0  0  0  0  0  0  0  0  0  0  0  0
  1 13  1  0  0  0  0
  1 28  1  0  0  0  0
  2 10  2  0  0  0  0
  3 11  2  0  0  0  0
  4 15  1  0  0  0  0
  4 29  1  0  0  0  0
  5 18  1  0  0  0  0
  5 30  1  0  0  0  0
  6  7  2  0  0  0  0
  6 11  1  0  0  0  0
  6 12  1  0  0  0  0
  7 10  1  0  0  0  0
  7 13  1  0  0  0  0
  8  9  2  0  0  0  0
  8 10  1  0  0  0  0
  8 15  1  0  0  0  0
  9 11  1  0  0  0  0
  9 16  1  0  0  0  0
 12 14  2  0  0  0  0
 12 21  1  0  0  0  0
 13 17  2  0  0  0  0
 14 17  1  0  0  0  0
 14 20  1  0  0  0  0
 15 19  2  0  0  0  0
 16 18  2  0  0  0  0
 16 22  1  0  0  0  0
 17 23  1  0  0  0  0
 18 19  1  0  0  0  0
 19 24  1  0  0  0  0
 20 25  1  0  0  0  0
 20 26  1  0  0  0  0
 20 27  1  0  0  0  0
M  END
> <PUBCHEM_COMPOUND_CID>
3220

> <PUBCHEM_CONFORMER_RMSD>
0.6

> <PUBCHEM_CONFORMER_DIVERSEORDER>
1

> <PUBCHEM_MMFF94_PARTIAL_CHARGES>
27
1 -0.53
10 0.4
11 0.4
12 -0.15
13 0.08
14 -0.14
15 0.08
16 -0.15
17 -0.15
18 0.08
19 -0.15
2 -0.57
20 0.14
21 0.15
22 0.15
23 0.15
24 0.15
28 0.45
29 0.45
3 -0.57
30 0.45
4 -0.53
5 -0.53
6 0.09
7 0.09
8 0.09
9 0.09

> <PUBCHEM_EFFECTIVE_ROTOR_COUNT>
0

> <PUBCHEM_PHARMACOPHORE_FEATURES>
8
1 1 donor
1 2 acceptor
1 3 acceptor
1 4 donor
1 5 donor
6 6 7 12 13 14 17 rings
6 6 7 8 9 10 11 rings
6 8 9 15 16 18 19 rings

> <PUBCHEM_HEAVY_ATOM_COUNT>
20

> <PUBCHEM_ATOM_DEF_STEREO_COUNT>
0

> <PUBCHEM_ATOM_UDEF_STEREO_COUNT>
0

> <PUBCHEM_BOND_DEF_STEREO_COUNT>
0

> <PUBCHEM_BOND_UDEF_STEREO_COUNT>
0

> <PUBCHEM_ISOTOPIC_ATOM_COUNT>
0

> <PUBCHEM_COMPONENT_COUNT>
1

> <PUBCHEM_CACTVS_TAUTO_COUNT>
135

> <PUBCHEM_CONFORMER_ID>
00000C9400000001

> <PUBCHEM_MMFF94_ENERGY>
62.0452

> <PUBCHEM_FEATURE_SELFOVERLAP>
40.637

> <PUBCHEM_SHAPE_FINGERPRINT>
10062212 137 18338806713860358043
10608611 8 18410858762968860741
10616163 171 18337672030840301631
10967382 1 18266459789339823077
1100329 8 16897928864826196666
11132069 177 18409736174492067192
11471102 20 18411422769563273830
11680986 33 18198337347375533667
11806522 49 18411983529373453039
12032990 46 18410572889945385639
12236239 1 17822570496378927967
12403259 226 18410860961992291692
12403260 363 18410579487004596299
13140716 1 18337110167292183872
13288520 33 18337106869221355086
13862211 1 18410860957739795235
14790565 3 17116060401352038989
15196674 1 18410573989457019909
15230672 131 13298728306012940387
15442244 35 18410575106438673744
15536298 74 18334858290506307320
16945 1 18122906434436227271
17492 89 18338517542329295763
17802600 8 18410577283696948931
17804303 29 18409726278892724340
19591789 44 18410575088995352743
200 152 18186527588093156455
20028762 73 18187369779346006711
20510252 161 18333449841617439705
21267235 1 18410566288575812175
21501502 16 18410851070703526121
221490 88 18341044129907534458
2334 1 18410575058898725285
23366157 5 18059575737993880668
23402539 116 18334866033995089454
23463225 33 18411981364461905516
23559900 14 18408328782856308864
238 59 15685368754623941053
2748010 2 18410857663446469228
2871803 45 18342464729269692127
3286 77 18342177765113611990
335352 9 18194682789688958788
350125 39 18410852165941383065
4214541 1 18410856602700440193
474 4 17273970238772312612
5104073 3 18409730668344078953
69090 78 18334860476397091951
7364860 26 18335984151953915448
8809292 202 18343860013445890915
9709674 26 18410005533414060670
9981440 41 17477206033956415944

> <PUBCHEM_SHAPE_MULTIPOLES>
382.24
7.97
2.76
0.59
0.69
0.77
0
-2.38
0
-0.07
0
0.03
-0.02
0

> <PUBCHEM_SHAPE_SELFOVERLAP>
867.007

> <PUBCHEM_SHAPE_VOLUME>
198.5

> <PUBCHEM_COORDINATE_TYPE>
2
5
10

$$$$

