4012
  -OEChem-06251223492D

102103  0     1  0  0  0  0  0999 V2000
   12.3923    0.2500    0.0000 O   0  0  0  0  0  0  0  0  0  0  0  0
    9.7942   -0.2500    0.0000 O   0  0  0  0  0  0  0  0  0  0  0  0
   16.7224    1.7500    0.0000 O   0  0  0  0  0  0  0  0  0  0  0  0
   12.3923    3.2500    0.0000 O   0  0  0  0  0  0  0  0  0  0  0  0
    5.4641   -1.7500    0.0000 O   0  0  0  0  0  0  0  0  0  0  0  0
    9.7942   -3.2500    0.0000 O   0  0  0  0  0  0  0  0  0  0  0  0
   15.8564    0.2500    0.0000 O   0  0  0  0  0  0  0  0  0  0  0  0
   14.1244    3.2500    0.0000 O   0  0  0  0  0  0  0  0  0  0  0  0
    8.0622   -3.2500    0.0000 O   0  0  0  0  0  0  0  0  0  0  0  0
    6.3301   -0.2500    0.0000 O   0  0  0  0  0  0  0  0  0  0  0  0
   18.4545    1.7500    0.0000 O   0  0  0  0  0  0  0  0  0  0  0  0
   11.5263    4.7500    0.0000 O   0  0  0  0  0  0  0  0  0  0  0  0
   10.6603   -4.7500    0.0000 O   0  0  0  0  0  0  0  0  0  0  0  0
    3.7320   -1.7500    0.0000 O   0  0  0  0  0  0  0  0  0  0  0  0
   12.3923    6.2500    0.0000 O   0  0  0  0  0  0  0  0  0  0  0  0
    2.8660   -0.2500    0.0000 O   0  0  0  0  0  0  0  0  0  0  0  0
    9.7942   -6.2500    0.0000 O   0  0  0  0  0  0  0  0  0  0  0  0
   14.1244    1.2500    0.0000 N   0  0  3  0  0  0  0  0  0  0  0  0
    8.0622   -1.2500    0.0000 N   0  0  0  0  0  0  0  0  0  0  0  0
   14.1244    0.2500    0.0000 C   0  0  0  0  0  0  0  0  0  0  0  0
    8.0622   -0.2500    0.0000 C   0  0  0  0  0  0  0  0  0  0  0  0
   13.2583   -0.2500    0.0000 C   0  0  0  0  0  0  0  0  0  0  0  0
    8.9282    0.2500    0.0000 C   0  0  0  0  0  0  0  0  0  0  0  0
   14.9904    1.7500    0.0000 C   0  0  0  0  0  0  0  0  0  0  0  0
   13.2583    1.7500    0.0000 C   0  0  0  0  0  0  0  0  0  0  0  0
    7.1962   -1.7500    0.0000 C   0  0  0  0  0  0  0  0  0  0  0  0
    8.9282   -1.7500    0.0000 C   0  0  0  0  0  0  0  0  0  0  0  0
   14.9904   -0.2500    0.0000 C   0  0  0  0  0  0  0  0  0  0  0  0
    7.1962    0.2500    0.0000 C   0  0  0  0  0  0  0  0  0  0  0  0
   11.5263   -0.2500    0.0000 C   0  0  0  0  0  0  0  0  0  0  0  0
   10.6603    0.2500    0.0000 C   0  0  0  0  0  0  0  0  0  0  0  0
   13.2583   -1.2500    0.0000 C   0  0  0  0  0  0  0  0  0  0  0  0
    8.9282    1.2500    0.0000 C   0  0  0  0  0  0  0  0  0  0  0  0
   14.1244   -1.7500    0.0000 C   0  0  0  0  0  0  0  0  0  0  0  0
    8.0622    1.7500    0.0000 C   0  0  0  0  0  0  0  0  0  0  0  0
   14.9904   -1.2500    0.0000 C   0  0  0  0  0  0  0  0  0  0  0  0
    7.1962    1.2500    0.0000 C   0  0  0  0  0  0  0  0  0  0  0  0
   14.1244   -2.7500    0.0000 C   0  0  0  0  0  0  0  0  0  0  0  0
    8.0622    2.7500    0.0000 C   0  0  0  0  0  0  0  0  0  0  0  0
   15.8564    1.2500    0.0000 C   0  0  0  0  0  0  0  0  0  0  0  0
   13.2583    2.7500    0.0000 C   0  0  0  0  0  0  0  0  0  0  0  0
    8.9282   -2.7500    0.0000 C   0  0  0  0  0  0  0  0  0  0  0  0
    6.3301   -1.2500    0.0000 C   0  0  0  0  0  0  0  0  0  0  0  0
   17.5885    1.2500    0.0000 C   0  0  0  0  0  0  0  0  0  0  0  0
   12.3923    4.2500    0.0000 C   0  0  0  0  0  0  0  0  0  0  0  0
    9.7942   -4.2500    0.0000 C   0  0  0  0  0  0  0  0  0  0  0  0
    4.5981   -1.2500    0.0000 C   0  0  0  0  0  0  0  0  0  0  0  0
   19.3205    1.2500    0.0000 C   0  0  0  0  0  0  0  0  0  0  0  0
   11.5263    5.7500    0.0000 C   0  0  0  0  0  0  0  0  0  0  0  0
    2.8660   -1.2500    0.0000 C   0  0  0  0  0  0  0  0  0  0  0  0
   10.6603   -5.7500    0.0000 C   0  0  0  0  0  0  0  0  0  0  0  0
   20.1865    1.7500    0.0000 C   0  0  0  0  0  0  0  0  0  0  0  0
   10.6603    6.2500    0.0000 C   0  0  0  0  0  0  0  0  0  0  0  0
    2.0000   -1.7500    0.0000 C   0  0  0  0  0  0  0  0  0  0  0  0
   11.5263   -6.2500    0.0000 C   0  0  0  0  0  0  0  0  0  0  0  0
   19.3205    0.2500    0.0000 C   0  0  0  0  0  0  0  0  0  0  0  0
   15.3889    2.2250    0.0000 H   0  0  0  0  0  0  0  0  0  0  0  0
   14.5919    2.2250    0.0000 H   0  0  0  0  0  0  0  0  0  0  0  0
   12.6477    1.8577    0.0000 H   0  0  0  0  0  0  0  0  0  0  0  0
   13.0463    1.1674    0.0000 H   0  0  0  0  0  0  0  0  0  0  0  0
    9.5388   -1.8577    0.0000 H   0  0  0  0  0  0  0  0  0  0  0  0
    9.1403   -1.1674    0.0000 H   0  0  0  0  0  0  0  0  0  0  0  0
    6.7976   -2.2250    0.0000 H   0  0  0  0  0  0  0  0  0  0  0  0
    7.5947   -2.2250    0.0000 H   0  0  0  0  0  0  0  0  0  0  0  0
   15.5273    0.0600    0.0000 H   0  0  0  0  0  0  0  0  0  0  0  0
    6.6592   -0.0600    0.0000 H   0  0  0  0  0  0  0  0  0  0  0  0
   11.1278   -0.7249    0.0000 H   0  0  0  0  0  0  0  0  0  0  0  0
   11.9248   -0.7249    0.0000 H   0  0  0  0  0  0  0  0  0  0  0  0
   11.0588    0.7249    0.0000 H   0  0  0  0  0  0  0  0  0  0  0  0
   10.2617    0.7249    0.0000 H   0  0  0  0  0  0  0  0  0  0  0  0
   12.7214   -1.5600    0.0000 H   0  0  0  0  0  0  0  0  0  0  0  0
    9.4651    1.5600    0.0000 H   0  0  0  0  0  0  0  0  0  0  0  0
   15.5273   -1.5600    0.0000 H   0  0  0  0  0  0  0  0  0  0  0  0
    6.6592    1.5600    0.0000 H   0  0  0  0  0  0  0  0  0  0  0  0
   13.5044   -2.7500    0.0000 H   0  0  0  0  0  0  0  0  0  0  0  0
   14.1244   -3.3700    0.0000 H   0  0  0  0  0  0  0  0  0  0  0  0
   14.7444   -2.7500    0.0000 H   0  0  0  0  0  0  0  0  0  0  0  0
    8.6822    2.7500    0.0000 H   0  0  0  0  0  0  0  0  0  0  0  0
    8.0622    3.3700    0.0000 H   0  0  0  0  0  0  0  0  0  0  0  0
    7.4422    2.7500    0.0000 H   0  0  0  0  0  0  0  0  0  0  0  0
   17.1899    0.7751    0.0000 H   0  0  0  0  0  0  0  0  0  0  0  0
   17.9870    0.7751    0.0000 H   0  0  0  0  0  0  0  0  0  0  0  0
   13.0029    4.1423    0.0000 H   0  0  0  0  0  0  0  0  0  0  0  0
   12.6044    4.8326    0.0000 H   0  0  0  0  0  0  0  0  0  0  0  0
    4.9966   -0.7751    0.0000 H   0  0  0  0  0  0  0  0  0  0  0  0
    4.1996   -0.7751    0.0000 H   0  0  0  0  0  0  0  0  0  0  0  0
    9.1836   -4.1423    0.0000 H   0  0  0  0  0  0  0  0  0  0  0  0
    9.5822   -4.8326    0.0000 H   0  0  0  0  0  0  0  0  0  0  0  0
   20.4965    1.2131    0.0000 H   0  0  0  0  0  0  0  0  0  0  0  0
   20.7235    2.0600    0.0000 H   0  0  0  0  0  0  0  0  0  0  0  0
   19.8765    2.2869    0.0000 H   0  0  0  0  0  0  0  0  0  0  0  0
   10.9703    6.7869    0.0000 H   0  0  0  0  0  0  0  0  0  0  0  0
   10.1233    6.5600    0.0000 H   0  0  0  0  0  0  0  0  0  0  0  0
   10.3503    5.7131    0.0000 H   0  0  0  0  0  0  0  0  0  0  0  0
   11.2163   -6.7869    0.0000 H   0  0  0  0  0  0  0  0  0  0  0  0
   12.0632   -6.5600    0.0000 H   0  0  0  0  0  0  0  0  0  0  0  0
    1.6900   -1.2131    0.0000 H   0  0  0  0  0  0  0  0  0  0  0  0
    1.4631   -2.0600    0.0000 H   0  0  0  0  0  0  0  0  0  0  0  0
    2.3100   -2.2869    0.0000 H   0  0  0  0  0  0  0  0  0  0  0  0
   11.8363   -5.7131    0.0000 H   0  0  0  0  0  0  0  0  0  0  0  0
   18.7836   -0.0600    0.0000 H   0  0  0  0  0  0  0  0  0  0  0  0
   19.8574   -0.0600    0.0000 H   0  0  0  0  0  0  0  0  0  0  0  0
  1 22  1  0  0  0  0
  1 30  1  0  0  0  0
  2 23  1  0  0  0  0
  2 31  1  0  0  0  0
  3 40  1  0  0  0  0
  3 44  1  0  0  0  0
  4 41  1  0  0  0  0
  4 45  1  0  0  0  0
  5 43  1  0  0  0  0
  5 47  1  0  0  0  0
  6 42  1  0  0  0  0
  6 46  1  0  0  0  0
  7 40  2  0  0  0  0
  8 41  2  0  0  0  0
  9 42  2  0  0  0  0
 10 43  2  0  0  0  0
 11 44  1  0  0  0  0
 11 48  1  0  0  0  0
 12 45  1  0  0  0  0
 12 49  1  0  0  0  0
 13 46  1  0  0  0  0
 13 51  1  0  0  0  0
 14 47  1  0  0  0  0
 14 50  1  0  0  0  0
 15 49  2  0  0  0  0
 16 50  2  0  0  0  0
 17 51  2  0  0  0  0
 18 20  1  0  0  0  0
 18 24  1  0  0  0  0
 18 25  1  0  0  0  0
 19 21  1  0  0  0  0
 19 26  1  0  0  0  0
 19 27  1  0  0  0  0
 20 22  2  0  0  0  0
 20 28  1  0  0  0  0
 21 23  2  0  0  0  0
 21 29  1  0  0  0  0
 22 32  1  0  0  0  0
 23 33  1  0  0  0  0
 24 40  1  0  0  0  0
 24 57  1  0  0  0  0
 24 58  1  0  0  0  0
 25 41  1  0  0  0  0
 25 59  1  0  0  0  0
 25 60  1  0  0  0  0
 26 43  1  0  0  0  0
 26 63  1  0  0  0  0
 26 64  1  0  0  0  0
 27 42  1  0  0  0  0
 27 61  1  0  0  0  0
 27 62  1  0  0  0  0
 28 36  2  0  0  0  0
 28 65  1  0  0  0  0
 29 37  2  0  0  0  0
 29 66  1  0  0  0  0
 30 31  1  0  0  0  0
 30 67  1  0  0  0  0
 30 68  1  0  0  0  0
 31 69  1  0  0  0  0
 31 70  1  0  0  0  0
 32 34  2  0  0  0  0
 32 71  1  0  0  0  0
 33 35  2  0  0  0  0
 33 72  1  0  0  0  0
 34 36  1  0  0  0  0
 34 38  1  0  0  0  0
 35 37  1  0  0  0  0
 35 39  1  0  0  0  0
 36 73  1  0  0  0  0
 37 74  1  0  0  0  0
 38 75  1  0  0  0  0
 38 76  1  0  0  0  0
 38 77  1  0  0  0  0
 39 78  1  0  0  0  0
 39 79  1  0  0  0  0
 39 80  1  0  0  0  0
 44 81  1  0  0  0  0
 44 82  1  0  0  0  0
 45 83  1  0  0  0  0
 45 84  1  0  0  0  0
 46 87  1  0  0  0  0
 46 88  1  0  0  0  0
 47 85  1  0  0  0  0
 47 86  1  0  0  0  0
 48 52  1  0  0  0  0
 48 56  2  0  0  0  0
 49 53  1  0  0  0  0
 50 54  1  0  0  0  0
 51 55  1  0  0  0  0
 52 89  1  0  0  0  0
 52 90  1  0  0  0  0
 52 91  1  0  0  0  0
 53 92  1  0  0  0  0
 53 93  1  0  0  0  0
 53 94  1  0  0  0  0
 54 97  1  0  0  0  0
 54 98  1  0  0  0  0
 54 99  1  0  0  0  0
 55 95  1  0  0  0  0
 55 96  1  0  0  0  0
 55100  1  0  0  0  0
 56101  1  0  0  0  0
 56102  1  0  0  0  0
M  END
> <PUBCHEM_COMPOUND_CID>
4012

> <PUBCHEM_COMPOUND_CANONICALIZED>
1

> <PUBCHEM_CACTVS_COMPLEXITY>
1290

> <PUBCHEM_CACTVS_HBOND_ACCEPTOR>
19

> <PUBCHEM_CACTVS_HBOND_DONOR>
0

> <PUBCHEM_CACTVS_ROTATABLE_BOND>
31

> <PUBCHEM_CACTVS_SUBSKEYS>
AAADcfB/PgAAAAAAAAAAAAAAAAAAAAAAAAAwYAAAAAAAAAABQAAAHgAAAAAADAzhmAcyzoMABACIAiTSSACCCAAhIgAIiACPbIgfJiLEsbunOCjkwBHe6AeQwBAOCAABAAAAEAAQAAIAAAAgAAAAAAAAAA==

> <PUBCHEM_IUPAC_OPENEYE_NAME>
isopropenyloxymethyl 2-[N-[2-(acetoxymethoxy)-2-oxo-ethyl]-2-[2-[2-[bis[2-(acetoxymethoxy)-2-oxo-ethyl]amino]-5-methyl-phenoxy]ethoxy]-4-methyl-anilino]acetate

> <PUBCHEM_IUPAC_CAS_NAME>
2-[N-[2-(acetyloxymethoxy)-2-oxoethyl]-2-[2-[2-[bis[2-(acetyloxymethoxy)-2-oxoethyl]amino]-5-methylphenoxy]ethoxy]-4-methylanilino]acetic acid 1-methylethenoxymethyl ester

> <PUBCHEM_IUPAC_NAME>
prop-1-en-2-yloxymethyl 2-[N-[2-(acetyloxymethoxy)-2-oxoethyl]-2-[2-[2-[bis[2-(acetyloxymethoxy)-2-oxoethyl]amino]-5-methylphenoxy]ethoxy]-4-methylanilino]acetate

> <PUBCHEM_IUPAC_SYSTEMATIC_NAME>
prop-1-en-2-yloxymethyl 2-[[2-(acetyloxymethoxy)-2-oxidanylidene-ethyl]-[2-[2-[2-[bis[2-(acetyloxymethoxy)-2-oxidanylidene-ethyl]amino]-5-methyl-phenoxy]ethoxy]-4-methyl-phenyl]amino]ethanoate

> <PUBCHEM_IUPAC_TRADITIONAL_NAME>
2-[N-[2-(acetoxymethoxy)-2-keto-ethyl]-2-[2-[2-[bis[2-(acetoxymethoxy)-2-keto-ethyl]amino]-5-methyl-phenoxy]ethoxy]-4-methyl-anilino]acetic acid isopropenyloxymethyl ester

> <PUBCHEM_IUPAC_INCHI>
InChI=1S/C37H46N2O17/c1-24(2)49-20-53-34(43)16-38(17-35(44)54-21-50-27(5)40)30-10-8-25(3)14-32(30)47-12-13-48-33-15-26(4)9-11-31(33)39(18-36(45)55-22-51-28(6)41)19-37(46)56-23-52-29(7)42/h8-11,14-15H,1,12-13,16-23H2,2-7H3

> <PUBCHEM_IUPAC_INCHIKEY>
QNNNZOMNDRGARI-UHFFFAOYSA-N

> <PUBCHEM_XLOGP3_AA>
5.2

> <PUBCHEM_EXACT_MASS>
790.279648

> <PUBCHEM_MOLECULAR_FORMULA>
C37H46N2O17

> <PUBCHEM_MOLECULAR_WEIGHT>
790.76434

> <PUBCHEM_OPENEYE_CAN_SMILES>
CC1=CC(=C(C=C1)N(CC(=O)OCOC(=C)C)CC(=O)OCOC(=O)C)OCCOC2=C(C=CC(=C2)C)N(CC(=O)OCOC(=O)C)CC(=O)OCOC(=O)C

> <PUBCHEM_OPENEYE_ISO_SMILES>
CC1=CC(=C(C=C1)N(CC(=O)OCOC(=C)C)CC(=O)OCOC(=O)C)OCCOC2=C(C=CC(=C2)C)N(CC(=O)OCOC(=O)C)CC(=O)OCOC(=O)C

> <PUBCHEM_CACTVS_TPSA>
218

> <PUBCHEM_MONOISOTOPIC_WEIGHT>
790.279648

> <PUBCHEM_TOTAL_CHARGE>
0

> <PUBCHEM_HEAVY_ATOM_COUNT>
56

> <PUBCHEM_ATOM_DEF_STEREO_COUNT>
0

> <PUBCHEM_ATOM_UDEF_STEREO_COUNT>
0

> <PUBCHEM_BOND_DEF_STEREO_COUNT>
0

> <PUBCHEM_BOND_UDEF_STEREO_COUNT>
0

> <PUBCHEM_ISOTOPIC_ATOM_COUNT>
0

> <PUBCHEM_COMPONENT_COUNT>
1

> <PUBCHEM_CACTVS_TAUTO_COUNT>
1

> <PUBCHEM_COORDINATE_TYPE>
1
5
255

> <PUBCHEM_BONDANNOTATIONS>
20  22  8
20  28  8
21  23  8
21  29  8
22  32  8
23  33  8
28  36  8
29  37  8
32  34  8
33  35  8
34  36  8
35  37  8

$$$$

