5451
  -OEChem-06261200413D

 54 56  0     1  0  0  0  0  0999 V2000
    3.2367    0.7358   -1.0618 S   0  0  0  0  0  0  0  0  0  0  0  0
   -3.4637    2.5995   -0.5366 P   0  0  2  0  0  0  0  0  0  0  0  0
   -0.6761    2.7664    0.4132 P   0  0  1  0  0  0  0  0  0  0  0  0
    2.1825    2.0839    0.1492 P   0  0  2  0  0  0  0  0  0  0  0  0
   -2.0393   -0.8146   -1.1275 O   0  0  0  0  0  0  0  0  0  0  0  0
   -2.9070   -3.7451   -2.3055 O   0  0  0  0  0  0  0  0  0  0  0  0
   -3.4009   -2.4268    1.0023 O   0  0  0  0  0  0  0  0  0  0  0  0
   -4.2378    1.2331   -0.9252 O   0  0  0  0  0  0  0  0  0  0  0  0
   -1.9095    2.1637   -0.4391 O   0  0  0  0  0  0  0  0  0  0  0  0
   -3.8786    2.8319    1.0095 O   0  0  0  0  0  0  0  0  0  0  0  0
   -3.7268    3.7726   -1.4352 O   0  0  0  0  0  0  0  0  0  0  0  0
    0.5957    1.9405   -0.1366 O   0  0  0  0  0  0  0  0  0  0  0  0
   -0.4738    4.2374   -0.2261 O   0  0  0  0  0  0  0  0  0  0  0  0
   -0.8700    2.7449    1.9007 O   0  0  0  0  0  0  0  0  0  0  0  0
    2.4610    3.5972   -0.3670 O   0  0  0  0  0  0  0  0  0  0  0  0
    2.5318    1.9041    1.6016 O   0  0  0  0  0  0  0  0  0  0  0  0
    5.7378    0.1260   -2.8380 O   0  0  0  0  0  0  0  0  0  0  0  0
   -0.2115   -2.2088   -0.5465 N   0  0  0  0  0  0  0  0  0  0  0  0
    1.8541   -2.8009    0.0472 N   0  0  0  0  0  0  0  0  0  0  0  0
   -0.8726   -0.9628    1.4311 N   0  0  0  0  0  0  0  0  0  0  0  0
    0.9173   -0.9172    3.0893 N   0  0  0  0  0  0  0  0  0  0  0  0
    3.0273   -1.9887    2.7322 N   0  0  0  0  0  0  0  0  0  0  0  0
    6.6719   -0.6174   -0.8738 N   0  0  0  0  0  0  0  0  0  0  0  0
   -2.4610   -3.1778   -1.0760 C   0  0  2  0  0  0  0  0  0  0  0  0
   -3.5992   -2.4309   -0.4060 C   0  0  2  0  0  0  0  0  0  0  0  0
   -1.4201   -2.0918   -1.3647 C   0  0  1  0  0  0  0  0  0  0  0  0
   -3.4523   -1.0237   -0.9721 C   0  0  1  0  0  0  0  0  0  0  0  0
   -4.0329    0.0876   -0.1168 C   0  0  0  0  0  0  0  0  0  0  0  0
   -0.0118   -1.6863    0.6995 C   0  0  0  0  0  0  0  0  0  0  0  0
    0.9367   -2.8696   -0.8948 C   0  0  0  0  0  0  0  0  0  0  0  0
    1.2747   -2.0642    1.0496 C   0  0  0  0  0  0  0  0  0  0  0  0
    1.7341   -1.6517    2.2964 C   0  0  0  0  0  0  0  0  0  0  0  0
   -0.3170   -0.6226    2.6144 C   0  0  0  0  0  0  0  0  0  0  0  0
    4.9796    1.1030   -0.7746 C   0  0  0  0  0  0  0  0  0  0  0  0
    5.8206    0.1730   -1.6124 C   0  0  0  0  0  0  0  0  0  0  0  0
   -2.0574   -3.9929   -0.4657 H   0  0  0  0  0  0  0  0  0  0  0  0
   -4.5916   -2.8425   -0.6147 H   0  0  0  0  0  0  0  0  0  0  0  0
   -1.0898   -2.1075   -2.4103 H   0  0  0  0  0  0  0  0  0  0  0  0
   -3.8791   -0.9875   -1.9831 H   0  0  0  0  0  0  0  0  0  0  0  0
   -5.0154   -0.2023    0.2691 H   0  0  0  0  0  0  0  0  0  0  0  0
   -3.3835    0.3168    0.7342 H   0  0  0  0  0  0  0  0  0  0  0  0
   -3.5978   -4.3953   -2.0916 H   0  0  0  0  0  0  0  0  0  0  0  0
   -3.4569   -3.3484    1.3072 H   0  0  0  0  0  0  0  0  0  0  0  0
    1.0457   -3.3804   -1.8417 H   0  0  0  0  0  0  0  0  0  0  0  0
   -0.9442   -0.0341    3.2754 H   0  0  0  0  0  0  0  0  0  0  0  0
    3.6393   -2.5349    2.1414 H   0  0  0  0  0  0  0  0  0  0  0  0
    3.3387   -1.6761    3.6417 H   0  0  0  0  0  0  0  0  0  0  0  0
   -4.7583    3.2158    1.2121 H   0  0  0  0  0  0  0  0  0  0  0  0
   -1.0939    4.9540    0.0270 H   0  0  0  0  0  0  0  0  0  0  0  0
    5.1988    2.1335   -1.0695 H   0  0  0  0  0  0  0  0  0  0  0  0
    5.1994    0.9961    0.2913 H   0  0  0  0  0  0  0  0  0  0  0  0
    2.1325    4.3473    0.1730 H   0  0  0  0  0  0  0  0  0  0  0  0
    6.7256   -0.5690    0.1385 H   0  0  0  0  0  0  0  0  0  0  0  0
    7.2856   -1.2858   -1.3281 H   0  0  0  0  0  0  0  0  0  0  0  0
  1  4  1  0  0  0  0
  1 34  1  0  0  0  0
  2  8  1  0  0  0  0
  2  9  1  0  0  0  0
  2 10  1  0  0  0  0
  2 11  2  0  0  0  0
  3  9  1  0  0  0  0
  3 12  1  0  0  0  0
  3 13  1  0  0  0  0
  3 14  2  0  0  0  0
  4 12  1  0  0  0  0
  4 15  1  0  0  0  0
  4 16  2  0  0  0  0
  5 26  1  0  0  0  0
  5 27  1  0  0  0  0
  6 24  1  0  0  0  0
  6 42  1  0  0  0  0
  7 25  1  0  0  0  0
  7 43  1  0  0  0  0
  8 28  1  0  0  0  0
 10 48  1  0  0  0  0
 13 49  1  0  0  0  0
 15 52  1  0  0  0  0
 17 35  2  0  0  0  0
 18 26  1  0  0  0  0
 18 29  1  0  0  0  0
 18 30  1  0  0  0  0
 19 30  2  0  0  0  0
 19 31  1  0  0  0  0
 20 29  2  0  0  0  0
 20 33  1  0  0  0  0
 21 32  1  0  0  0  0
 21 33  2  0  0  0  0
 22 32  1  0  0  0  0
 22 46  1  0  0  0  0
 22 47  1  0  0  0  0
 23 35  1  0  0  0  0
 23 53  1  0  0  0  0
 23 54  1  0  0  0  0
 24 25  1  0  0  0  0
 24 26  1  0  0  0  0
 24 36  1  0  0  0  0
 25 27  1  0  0  0  0
 25 37  1  0  0  0  0
 26 38  1  0  0  0  0
 27 28  1  0  0  0  0
 27 39  1  0  0  0  0
 28 40  1  0  0  0  0
 28 41  1  0  0  0  0
 29 31  1  0  0  0  0
 30 44  1  0  0  0  0
 31 32  2  0  0  0  0
 33 45  1  0  0  0  0
 34 35  1  0  0  0  0
 34 50  1  0  0  0  0
 34 51  1  0  0  0  0
M  END
> <PUBCHEM_COMPOUND_CID>
5451

> <PUBCHEM_CONFORMER_RMSD>
2

> <PUBCHEM_CONFORMER_DIVERSEORDER>
1
36
42
69
75
48
81
7
65
72
50
30
53
49
12
55
67
35
91
59
15
92
52
45
44
40
78
76
63
24
82
87
57
14
88
68
37
84
43
60
83
80
21
33
28
54
38
73
58
93
85
29
4
62
77
11
61
22
41
79
86
25
26
3
89
2
74
19
39
23
32
47
95
18
10
71
9
6
64
46
66
16
51
27
70
94
8
56
90
31
17
34
5
13
20

> <PUBCHEM_MMFF94_PARTIAL_CHARGES>
46
1 -0.48
10 -0.77
11 -0.7
12 -0.54
13 -0.77
14 -0.7
15 -0.77
16 -0.7
17 -0.57
18 0.05
19 -0.57
2 1.51
20 -0.57
21 -0.62
22 -0.9
23 -0.8
24 0.28
25 0.28
26 0.54
27 0.28
28 0.28
29 0.11
3 1.51
30 0.04
31 0.23
32 0.41
33 0.47
34 0.29
35 0.57
4 1.49
42 0.4
43 0.4
44 0.15
45 0.15
46 0.4
47 0.4
48 0.5
49 0.5
5 -0.56
52 0.5
53 0.37
54 0.37
6 -0.68
7 -0.68
8 -0.55
9 -0.54

> <PUBCHEM_EFFECTIVE_ROTOR_COUNT>
12

> <PUBCHEM_PHARMACOPHORE_FEATURES>
21
1 10 acceptor
1 11 acceptor
1 13 acceptor
1 14 acceptor
1 15 acceptor
1 16 acceptor
1 17 acceptor
1 22 cation
1 22 donor
1 23 donor
1 5 acceptor
1 6 acceptor
1 6 donor
1 7 acceptor
1 7 donor
3 18 19 30 cation
3 18 20 29 cation
3 20 21 33 cation
5 18 19 29 30 31 rings
5 5 24 25 26 27 rings
6 20 21 29 31 32 33 rings

> <PUBCHEM_HEAVY_ATOM_COUNT>
35

> <PUBCHEM_ATOM_DEF_STEREO_COUNT>
0

> <PUBCHEM_ATOM_UDEF_STEREO_COUNT>
4

> <PUBCHEM_BOND_DEF_STEREO_COUNT>
0

> <PUBCHEM_BOND_UDEF_STEREO_COUNT>
0

> <PUBCHEM_ISOTOPIC_ATOM_COUNT>
0

> <PUBCHEM_COMPONENT_COUNT>
1

> <PUBCHEM_CACTVS_TAUTO_COUNT>
6

> <PUBCHEM_CONFORMER_ID>
0000154B00000001

> <PUBCHEM_MMFF94_ENERGY>
6.9959

> <PUBCHEM_FEATURE_SELFOVERLAP>
107.204

> <PUBCHEM_SHAPE_FINGERPRINT>
11093857 51 17613456844596582751
12156800 1 18189918507696647810
12422481 6 17906217054051551962
14251757 17 18113609093203307564
14955137 171 17836072387261795987
15297060 5 17823693259967614592
17977149 70 18261961743332162704
19311894 1 18335135388616334364
19930381 70 17328871993599093887
20905425 154 18340783541667858201
3027735 51 18115568440557898358

> <PUBCHEM_SHAPE_MULTIPOLES>
629.49
9.66
5.35
2.46
11.75
2.71
1.34
1.36
-6.69
-4.28
-0.81
1.71
-1.31
-1.29

> <PUBCHEM_SHAPE_SELFOVERLAP>
1265.255

> <PUBCHEM_SHAPE_VOLUME>
372.6

> <PUBCHEM_COORDINATE_TYPE>
2
5
10

$$$$

