586164
  -OEChem-06241222452D

 27 27  0     0  0  0  0  0  0999 V2000
    3.2601   -0.3126    0.0000 O   0  0  0  0  0  0  0  0  0  0  0  0
    3.7601    1.2262    0.0000 C   0  0  0  0  0  0  0  0  0  0  0  0
    4.5691    0.6384    0.0000 C   0  0  0  0  0  0  0  0  0  0  0  0
    4.2601   -0.3126    0.0000 C   0  0  0  0  0  0  0  0  0  0  0  0
    4.8479   -1.1217    0.0000 C   0  0  0  0  0  0  0  0  0  0  0  0
    2.9511    0.6384    0.0000 C   0  0  0  0  0  0  0  0  0  0  0  0
    4.3479    2.0352    0.0000 C   0  0  0  0  0  0  0  0  0  0  0  0
    3.1723    2.0352    0.0000 C   0  0  0  0  0  0  0  0  0  0  0  0
    4.4411   -2.0352    0.0000 C   0  0  0  0  0  0  0  0  0  0  0  0
    5.8424   -1.0171    0.0000 C   0  0  0  0  0  0  0  0  0  0  0  0
    2.0000    0.9474    0.0000 C   0  0  0  0  0  0  0  0  0  0  0  0
    5.1588    0.8300    0.0000 H   0  0  0  0  0  0  0  0  0  0  0  0
    5.2123   -1.6233    0.0000 H   0  0  0  0  0  0  0  0  0  0  0  0
    3.6739    2.3996    0.0000 H   0  0  0  0  0  0  0  0  0  0  0  0
    2.8079    2.5368    0.0000 H   0  0  0  0  0  0  0  0  0  0  0  0
    2.6707    1.6708    0.0000 H   0  0  0  0  0  0  0  0  0  0  0  0
    4.8494    1.6708    0.0000 H   0  0  0  0  0  0  0  0  0  0  0  0
    4.7123    2.5368    0.0000 H   0  0  0  0  0  0  0  0  0  0  0  0
    3.8463    2.3996    0.0000 H   0  0  0  0  0  0  0  0  0  0  0  0
    3.8747   -1.7830    0.0000 H   0  0  0  0  0  0  0  0  0  0  0  0
    4.1890   -2.6016    0.0000 H   0  0  0  0  0  0  0  0  0  0  0  0
    5.0075   -2.2874    0.0000 H   0  0  0  0  0  0  0  0  0  0  0  0
    5.9072   -1.6337    0.0000 H   0  0  0  0  0  0  0  0  0  0  0  0
    6.4590   -0.9523    0.0000 H   0  0  0  0  0  0  0  0  0  0  0  0
    5.7776   -0.4005    0.0000 H   0  0  0  0  0  0  0  0  0  0  0  0
    1.8711    1.5539    0.0000 H   0  0  0  0  0  0  0  0  0  0  0  0
    1.5392    0.5326    0.0000 H   0  0  0  0  0  0  0  0  0  0  0  0
  1  4  1  0  0  0  0
  1  6  1  0  0  0  0
  2  3  1  0  0  0  0
  2  6  1  0  0  0  0
  2  7  1  0  0  0  0
  2  8  1  0  0  0  0
  3  4  2  0  0  0  0
  3 12  1  0  0  0  0
  4  5  1  0  0  0  0
  5  9  1  0  0  0  0
  5 10  1  0  0  0  0
  5 13  1  0  0  0  0
  6 11  2  0  0  0  0
  7 17  1  0  0  0  0
  7 18  1  0  0  0  0
  7 19  1  0  0  0  0
  8 14  1  0  0  0  0
  8 15  1  0  0  0  0
  8 16  1  0  0  0  0
  9 20  1  0  0  0  0
  9 21  1  0  0  0  0
  9 22  1  0  0  0  0
 10 23  1  0  0  0  0
 10 24  1  0  0  0  0
 10 25  1  0  0  0  0
 11 26  1  0  0  0  0
 11 27  1  0  0  0  0
M  END
> <PUBCHEM_COMPOUND_CID>
586164

> <PUBCHEM_COMPOUND_CANONICALIZED>
1

> <PUBCHEM_CACTVS_COMPLEXITY>
209

> <PUBCHEM_CACTVS_HBOND_ACCEPTOR>
1

> <PUBCHEM_CACTVS_HBOND_DONOR>
0

> <PUBCHEM_CACTVS_ROTATABLE_BOND>
1

> <PUBCHEM_CACTVS_SUBSKEYS>
AAADceBwIAAAAAAAAAAAAAAAAAAAAQAAAAAAAAAAAAAAAAAAAAAAGgAAAAAADwSAgAACAAAABACAACBCAAAACAAgIAAACAAAAAgAAAAAAQACAAAAQAAIAAIAAAAAAAAAAAAAAAAAAAAAAAAAAAAAAAAAAA==

> <PUBCHEM_IUPAC_OPENEYE_NAME>
5-isopropyl-3,3-dimethyl-2-methylene-furan

> <PUBCHEM_IUPAC_CAS_NAME>
3,3-dimethyl-2-methylene-5-propan-2-ylfuran

> <PUBCHEM_IUPAC_NAME>
3,3-dimethyl-2-methylidene-5-propan-2-ylfuran

> <PUBCHEM_IUPAC_SYSTEMATIC_NAME>
3,3-dimethyl-2-methylidene-5-propan-2-yl-furan

> <PUBCHEM_IUPAC_TRADITIONAL_NAME>
5-isopropyl-3,3-dimethyl-2-methylene-furan

> <PUBCHEM_IUPAC_INCHI>
InChI=1S/C10H16O/c1-7(2)9-6-10(4,5)8(3)11-9/h6-7H,3H2,1-2,4-5H3

> <PUBCHEM_IUPAC_INCHIKEY>
UYVNMDHQHUJGJN-UHFFFAOYSA-N

> <PUBCHEM_XLOGP3_AA>
3.3

> <PUBCHEM_EXACT_MASS>
152.120115

> <PUBCHEM_MOLECULAR_FORMULA>
C10H16O

> <PUBCHEM_MOLECULAR_WEIGHT>
152.23344

> <PUBCHEM_OPENEYE_CAN_SMILES>
CC(C)C1=CC(C(=C)O1)(C)C

> <PUBCHEM_OPENEYE_ISO_SMILES>
CC(C)C1=CC(C(=C)O1)(C)C

> <PUBCHEM_CACTVS_TPSA>
9.2

> <PUBCHEM_MONOISOTOPIC_WEIGHT>
152.120115

> <PUBCHEM_TOTAL_CHARGE>
0

> <PUBCHEM_HEAVY_ATOM_COUNT>
11

> <PUBCHEM_ATOM_DEF_STEREO_COUNT>
0

> <PUBCHEM_ATOM_UDEF_STEREO_COUNT>
0

> <PUBCHEM_BOND_DEF_STEREO_COUNT>
0

> <PUBCHEM_BOND_UDEF_STEREO_COUNT>
0

> <PUBCHEM_ISOTOPIC_ATOM_COUNT>
0

> <PUBCHEM_COMPONENT_COUNT>
1

> <PUBCHEM_CACTVS_TAUTO_COUNT>
1

> <PUBCHEM_COORDINATE_TYPE>
1
5
255

$$$$

