6829
  -OEChem-06261201313D

 24 25  0     0  0  0  0  0  0999 V2000
    1.6950   -2.7798   -0.0005 O   0  5  0  0  0  0  0  0  0  0  0  0
   -0.3567   -1.9988   -0.0001 O   0  0  0  0  0  0  0  0  0  0  0  0
    0.8839   -1.8250   -0.0004 N   0  3  0  0  0  0  0  0  0  0  0  0
    0.5345    0.6102   -0.0003 C   0  0  0  0  0  0  0  0  0  0  0  0
   -0.9041    0.4548    0.0000 C   0  0  0  0  0  0  0  0  0  0  0  0
    1.3906   -0.4940    0.0001 C   0  0  0  0  0  0  0  0  0  0  0  0
    1.0694    1.9006   -0.0002 C   0  0  0  0  0  0  0  0  0  0  0  0
   -1.5977    0.3801   -1.2079 C   0  0  0  0  0  0  0  0  0  0  0  0
   -1.5974    0.3792    1.2082 C   0  0  0  0  0  0  0  0  0  0  0  0
    2.7732   -0.3084    0.0003 C   0  0  0  0  0  0  0  0  0  0  0  0
    2.4520    2.0860    0.0001 C   0  0  0  0  0  0  0  0  0  0  0  0
    3.3037    0.9816    0.0004 C   0  0  0  0  0  0  0  0  0  0  0  0
   -2.9845    0.2300   -1.2078 C   0  0  0  0  0  0  0  0  0  0  0  0
   -2.9842    0.2291    1.2081 C   0  0  0  0  0  0  0  0  0  0  0  0
   -3.6777    0.1545    0.0001 C   0  0  0  0  0  0  0  0  0  0  0  0
    0.4220    2.7748   -0.0004 H   0  0  0  0  0  0  0  0  0  0  0  0
   -1.0728    0.4370   -2.1586 H   0  0  0  0  0  0  0  0  0  0  0  0
   -1.0723    0.4355    2.1588 H   0  0  0  0  0  0  0  0  0  0  0  0
    3.4721   -1.1410    0.0004 H   0  0  0  0  0  0  0  0  0  0  0  0
    2.8653    3.0904    0.0001 H   0  0  0  0  0  0  0  0  0  0  0  0
    4.3801    1.1266    0.0006 H   0  0  0  0  0  0  0  0  0  0  0  0
   -3.5245    0.1717   -2.1483 H   0  0  0  0  0  0  0  0  0  0  0  0
   -3.5241    0.1699    2.1486 H   0  0  0  0  0  0  0  0  0  0  0  0
   -4.7574    0.0374    0.0002 H   0  0  0  0  0  0  0  0  0  0  0  0
  1  3  1  0  0  0  0
  2  3  2  0  0  0  0
  3  6  1  0  0  0  0
  4  5  1  0  0  0  0
  4  6  1  0  0  0  0
  4  7  2  0  0  0  0
  5  8  2  0  0  0  0
  5  9  1  0  0  0  0
  6 10  2  0  0  0  0
  7 11  1  0  0  0  0
  7 16  1  0  0  0  0
  8 13  1  0  0  0  0
  8 17  1  0  0  0  0
  9 14  2  0  0  0  0
  9 18  1  0  0  0  0
 10 12  1  0  0  0  0
 10 19  1  0  0  0  0
 11 12  2  0  0  0  0
 11 20  1  0  0  0  0
 12 21  1  0  0  0  0
 13 15  2  0  0  0  0
 13 22  1  0  0  0  0
 14 15  1  0  0  0  0
 14 23  1  0  0  0  0
 15 24  1  0  0  0  0
M  CHG  2   1  -1   3   1
M  END
> <PUBCHEM_COMPOUND_CID>
6829

> <PUBCHEM_CONFORMER_RMSD>
0.6

> <PUBCHEM_CONFORMER_DIVERSEORDER>
1

> <PUBCHEM_MMFF94_PARTIAL_CHARGES>
22
1 -0.52
10 -0.15
11 -0.15
12 -0.15
13 -0.15
14 -0.15
15 -0.15
16 0.15
17 0.15
18 0.15
19 0.15
2 -0.52
20 0.15
21 0.15
22 0.15
23 0.15
24 0.15
3 0.91
6 0.13
7 -0.15
8 -0.15
9 -0.15

> <PUBCHEM_EFFECTIVE_ROTOR_COUNT>
2

> <PUBCHEM_PHARMACOPHORE_FEATURES>
5
1 1 acceptor
1 1 anion
1 2 acceptor
6 4 6 7 10 11 12 rings
6 5 8 9 13 14 15 rings

> <PUBCHEM_HEAVY_ATOM_COUNT>
15

> <PUBCHEM_ATOM_DEF_STEREO_COUNT>
0

> <PUBCHEM_ATOM_UDEF_STEREO_COUNT>
0

> <PUBCHEM_BOND_DEF_STEREO_COUNT>
0

> <PUBCHEM_BOND_UDEF_STEREO_COUNT>
0

> <PUBCHEM_ISOTOPIC_ATOM_COUNT>
0

> <PUBCHEM_COMPONENT_COUNT>
1

> <PUBCHEM_CACTVS_TAUTO_COUNT>
1

> <PUBCHEM_CONFORMER_ID>
00001AAD00000001

> <PUBCHEM_MMFF94_ENERGY>
58.6253

> <PUBCHEM_FEATURE_SELFOVERLAP>
25.453

> <PUBCHEM_SHAPE_FINGERPRINT>
1 1 18412547587317498124
10219947 1 18413670197174241084
107287 299 18201993330890835700
10980938 120 18410291427906428408
11471102 20 18411422825382095901
12236239 1 17676487250549251821
12326174 3 18201448016173287392
12491281 212 16660907916267851240
13140716 1 18338801087795767192
13380535 76 18340771442317970770
13538477 17 17458071451972185165
13581323 91 14908181945511106857
14251717 144 18409733967000241743
15219456 202 18131634512725562029
15279307 12 18114184107720110007
15309172 13 18340764836600227704
15775835 57 18340769234699395540
16752209 62 16515981328125265237
16945 1 18410855473213647172
18175812 5 17703507709967754445
18186145 218 18334292033238540924
19049666 15 17773039871989138205
19422 9 17676202472589508645
200 152 18260838077061307221
20201158 50 18273215330593758617
204376 136 18267867190315160936
20645477 70 18338808921895424831
21639500 275 18410022013192720621
21730867 7 18343300374806473693
22112679 90 17240770622230611817
22802520 49 17986682673473594093
23236772 104 17749106669206298761
2334 1 18050568439437550380
23557571 272 17275098440834074197
23559900 14 16486981738685489194
25 1 18412547608555172060
2748010 2 18195519295094859990
458136 41 18268972259350744262
474 4 17534075077115301512
528862 383 18410856589741665931
528886 8 18337676325791747528
633830 44 18115290211890855924
7364860 26 18334856168687130470
77492 1 17676489458083262213
81228 2 17404026916160793786
8272917 22 18263074569695867517
9981440 41 16232548984167361264

> <PUBCHEM_SHAPE_MULTIPOLES>
291.97
5.39
2.07
1.01
1.54
1.23
0
-1.31
0
-1.87
0
0.93
-0.15
0

> <PUBCHEM_SHAPE_SELFOVERLAP>
640.333

> <PUBCHEM_SHAPE_VOLUME>
157.9

> <PUBCHEM_COORDINATE_TYPE>
2
5
10

$$$$

