17395885
  -OEChem-06241222533D

 35 37  0     0  0  0  0  0  0999 V2000
   -1.1996   -3.2640    0.0022 S   0  0  0  0  0  0  0  0  0  0  0  0
   -2.5251    1.2030    0.0027 O   0  0  0  0  0  0  0  0  0  0  0  0
    4.2604   -0.7276   -0.0084 N   0  0  0  0  0  0  0  0  0  0  0  0
   -0.3582   -0.8198    0.0040 N   0  0  0  0  0  0  0  0  0  0  0  0
   -2.7450   -1.1462    0.0052 N   0  0  0  0  0  0  0  0  0  0  0  0
    2.3171    0.3682   -0.0001 C   0  0  0  0  0  0  0  0  0  0  0  0
    2.0616   -1.0317   -0.0028 C   0  0  0  0  0  0  0  0  0  0  0  0
    3.7041    0.5317   -0.0037 C   0  0  0  0  0  0  0  0  0  0  0  0
    0.7506   -1.6434    0.0007 C   0  0  0  0  0  0  0  0  0  0  0  0
    3.2758   -1.6789   -0.0079 C   0  0  0  0  0  0  0  0  0  0  0  0
    1.4990    1.5154    0.0051 C   0  0  0  0  0  0  0  0  0  0  0  0
    4.3162    1.7901   -0.0024 C   0  0  0  0  0  0  0  0  0  0  0  0
   -4.7294    0.2367    0.0068 C   0  0  0  0  0  0  0  0  0  0  0  0
   -5.2682    1.6647    0.0056 C   0  0  0  0  0  0  0  0  0  0  0  0
   -1.4410   -1.5650    0.0052 C   0  0  0  0  0  0  0  0  0  0  0  0
    2.0973    2.7807    0.0065 C   0  0  0  0  0  0  0  0  0  0  0  0
    0.4948   -2.9986   -0.0008 C   0  0  0  0  0  0  0  0  0  0  0  0
    3.4845    2.9135    0.0027 C   0  0  0  0  0  0  0  0  0  0  0  0
   -3.2072    0.1839    0.0039 C   0  0  0  0  0  0  0  0  0  0  0  0
   -6.7876    1.6876   -0.0247 C   0  0  0  0  0  0  0  0  0  0  0  0
    3.5374   -2.7283   -0.0111 H   0  0  0  0  0  0  0  0  0  0  0  0
    5.2523   -0.9209   -0.0116 H   0  0  0  0  0  0  0  0  0  0  0  0
    0.4160    1.4597    0.0082 H   0  0  0  0  0  0  0  0  0  0  0  0
    5.3959    1.8946   -0.0052 H   0  0  0  0  0  0  0  0  0  0  0  0
   -5.0892   -0.2998   -0.8794 H   0  0  0  0  0  0  0  0  0  0  0  0
   -5.0887   -0.2983    0.8940 H   0  0  0  0  0  0  0  0  0  0  0  0
   -4.9149    2.1980    0.8962 H   0  0  0  0  0  0  0  0  0  0  0  0
   -4.8825    2.2098   -0.8643 H   0  0  0  0  0  0  0  0  0  0  0  0
    1.1870   -3.8291   -0.0037 H   0  0  0  0  0  0  0  0  0  0  0  0
    1.4716    3.6694    0.0105 H   0  0  0  0  0  0  0  0  0  0  0  0
    3.9281    3.9060    0.0038 H   0  0  0  0  0  0  0  0  0  0  0  0
   -3.4355   -1.8926    0.0056 H   0  0  0  0  0  0  0  0  0  0  0  0
   -7.1697    1.1936   -0.9238 H   0  0  0  0  0  0  0  0  0  0  0  0
   -7.2049    1.1795    0.8506 H   0  0  0  0  0  0  0  0  0  0  0  0
   -7.1514    2.7198   -0.0237 H   0  0  0  0  0  0  0  0  0  0  0  0
  1 15  1  0  0  0  0
  1 17  1  0  0  0  0
  2 19  2  0  0  0  0
  3  8  1  0  0  0  0
  3 10  1  0  0  0  0
  3 22  1  0  0  0  0
  4  9  1  0  0  0  0
  4 15  2  0  0  0  0
  5 15  1  0  0  0  0
  5 19  1  0  0  0  0
  5 32  1  0  0  0  0
  6  7  1  0  0  0  0
  6  8  1  0  0  0  0
  6 11  2  0  0  0  0
  7  9  1  0  0  0  0
  7 10  2  0  0  0  0
  8 12  2  0  0  0  0
  9 17  2  0  0  0  0
 10 21  1  0  0  0  0
 11 16  1  0  0  0  0
 11 23  1  0  0  0  0
 12 18  1  0  0  0  0
 12 24  1  0  0  0  0
 13 14  1  0  0  0  0
 13 19  1  0  0  0  0
 13 25  1  0  0  0  0
 13 26  1  0  0  0  0
 14 20  1  0  0  0  0
 14 27  1  0  0  0  0
 14 28  1  0  0  0  0
 16 18  2  0  0  0  0
 16 30  1  0  0  0  0
 17 29  1  0  0  0  0
 18 31  1  0  0  0  0
 20 33  1  0  0  0  0
 20 34  1  0  0  0  0
 20 35  1  0  0  0  0
M  END
> <PUBCHEM_COMPOUND_CID>
17395885

> <PUBCHEM_CONFORMER_RMSD>
0.8

> <PUBCHEM_CONFORMER_DIVERSEORDER>
1
30
17
31
11
19
12
25
2
15
21
13
18
16
10
6
3
23
26
14
7
27
22
8
4
24
28
20
29
5
9

> <PUBCHEM_MMFF94_PARTIAL_CHARGES>
24
1 -0.08
10 -0.3
11 -0.15
12 -0.15
13 0.06
15 0.44
16 -0.15
17 -0.11
18 -0.15
19 0.57
2 -0.57
21 0.15
22 0.27
23 0.15
24 0.15
29 0.15
3 0.03
30 0.15
31 0.15
32 0.37
4 -0.57
5 -0.49
8 -0.15
9 0.23

> <PUBCHEM_EFFECTIVE_ROTOR_COUNT>
5

> <PUBCHEM_PHARMACOPHORE_FEATURES>
8
1 2 acceptor
1 20 hydrophobe
1 3 cation
1 3 donor
1 5 donor
5 1 4 9 15 17 rings
5 3 6 7 8 10 rings
6 6 8 11 12 16 18 rings

> <PUBCHEM_HEAVY_ATOM_COUNT>
20

> <PUBCHEM_ATOM_DEF_STEREO_COUNT>
0

> <PUBCHEM_ATOM_UDEF_STEREO_COUNT>
0

> <PUBCHEM_BOND_DEF_STEREO_COUNT>
0

> <PUBCHEM_BOND_UDEF_STEREO_COUNT>
0

> <PUBCHEM_ISOTOPIC_ATOM_COUNT>
0

> <PUBCHEM_COMPONENT_COUNT>
1

> <PUBCHEM_CACTVS_TAUTO_COUNT>
3

> <PUBCHEM_CONFORMER_ID>
010970AD00000001

> <PUBCHEM_MMFF94_ENERGY>
27.3651

> <PUBCHEM_FEATURE_SELFOVERLAP>
40.686

> <PUBCHEM_SHAPE_FINGERPRINT>
10411042 1 17617940674205555335
10608611 8 18194119604055830114
10967382 1 18410574011427877954
11273773 38 18199741462511662020
12107183 9 18341625832189363050
12173636 292 18121783828869930646
12633257 1 18342188751719115074
12730499 353 18341042017321786107
12769317 202 18338247080091142117
12838862 33 18338253629573721512
13140716 1 18342181025089079370
13402501 40 18272090551985168965
138480 1 17834113422069720963
13878862 14 18057065681669892333
13965767 371 18059028197918744444
14251764 75 18337658721027354081
14429380 56 18340499958558966685
14464042 87 17822288046022811001
14528608 73 18408889551350998125
14790565 3 18408880763679774393
14848178 96 18409453574603553841
15196674 1 18410573959703413729
15238133 3 18343863295565490574
15322687 12 18334581226519513193
15442244 35 18339083692612880290
16087824 20 18267302213200784812
17810953 82 18411697699110364005
17834072 32 18410292489011237795
18335252 114 18266186213240311551
19427546 62 18339078294045042275
20157964 124 18337955692667418629
20715895 44 18408889554976338297
21033650 10 14635410728774115411
21279426 13 18263350401513300260
21421861 104 17917167069384073344
22182937 141 18266171738879095235
23227448 37 18336547110349585063
23558518 356 17984984791207617490
23559900 14 18260829310996580918
238 59 17766884779889467165
23845131 108 18273496776155324619
245318 6 17987219059249741709
335352 9 18410574007322776182
350125 39 18341049700459284748
3680242 22 18341053028931903841
474 4 18409165549964993827
5104073 3 18272091560885434347
633830 44 18408047316364122615
7808743 9 18196373615498266928
7832392 63 18338519630099327534
9999458 23 18342174509249248958

> <PUBCHEM_SHAPE_MULTIPOLES>
394.63
11.38
3.81
0.6
17.18
0.85
0
-9.79
-0.05
-1.09
0
0
0.01
0.02

> <PUBCHEM_SHAPE_SELFOVERLAP>
843.826

> <PUBCHEM_SHAPE_VOLUME>
221.6

> <PUBCHEM_COORDINATE_TYPE>
2
5
10

$$$$

