5281620
  -OEChem-07051212583D

 53 56  0     1  0  0  0  0  0999 V2000
    1.5148    1.6613    0.8252 O   0  0  0  0  0  0  0  0  0  0  0  0
    2.0415   -0.2264   -0.5131 O   0  0  0  0  0  0  0  0  0  0  0  0
    5.4313    2.4525   -0.2869 O   0  0  0  0  0  0  0  0  0  0  0  0
    3.3073    4.0293   -1.3585 O   0  0  0  0  0  0  0  0  0  0  0  0
    4.1469    1.4129    1.9524 O   0  0  0  0  0  0  0  0  0  0  0  0
   -0.6204   -0.6728   -0.2649 O   0  0  0  0  0  0  0  0  0  0  0  0
    3.8337   -2.3343   -0.4200 O   0  0  0  0  0  0  0  0  0  0  0  0
    0.2781   -5.4145    0.1808 O   0  0  0  0  0  0  0  0  0  0  0  0
   -3.9134   -2.2803    0.1357 O   0  0  0  0  0  0  0  0  0  0  0  0
   -2.1392   -4.4194    0.2455 O   0  0  0  0  0  0  0  0  0  0  0  0
   -4.0942    2.9311    2.0242 O   0  0  0  0  0  0  0  0  0  0  0  0
   -4.9963    3.8523   -0.4383 O   0  0  0  0  0  0  0  0  0  0  0  0
    4.0909    1.9802   -0.4025 C   0  0  2  0  0  0  0  0  0  0  0  0
    3.1271    3.1570   -0.2456 C   0  0  2  0  0  0  0  0  0  0  0  0
    3.8234    0.9085    0.6556 C   0  0  2  0  0  0  0  0  0  0  0  0
    1.6791    2.6498   -0.1967 C   0  0  2  0  0  0  0  0  0  0  0  0
    2.3491    0.5087    0.6664 C   0  0  1  0  0  0  0  0  0  0  0  0
    0.6901    3.7721    0.1057 C   0  0  0  0  0  0  0  0  0  0  0  0
    1.5878   -1.5029   -0.3407 C   0  0  0  0  0  0  0  0  0  0  0  0
    0.2215   -1.7534   -0.2107 C   0  0  0  0  0  0  0  0  0  0  0  0
    2.4950   -2.5617   -0.2946 C   0  0  0  0  0  0  0  0  0  0  0  0
   -0.2340   -3.0583   -0.0361 C   0  0  0  0  0  0  0  0  0  0  0  0
    0.6712   -4.1214    0.0105 C   0  0  0  0  0  0  0  0  0  0  0  0
    2.0373   -3.8683   -0.1192 C   0  0  0  0  0  0  0  0  0  0  0  0
   -1.6798   -3.2952    0.0959 C   0  0  0  0  0  0  0  0  0  0  0  0
   -1.9826   -0.8885   -0.1283 C   0  0  0  0  0  0  0  0  0  0  0  0
   -2.5511   -2.0968    0.0360 C   0  0  0  0  0  0  0  0  0  0  0  0
   -2.7718    0.3537   -0.2060 C   0  0  0  0  0  0  0  0  0  0  0  0
   -3.0662    1.0676    0.9560 C   0  0  0  0  0  0  0  0  0  0  0  0
   -3.2252    0.8164   -1.4416 C   0  0  0  0  0  0  0  0  0  0  0  0
   -3.8132    2.2431    0.8824 C   0  0  0  0  0  0  0  0  0  0  0  0
   -3.9722    1.9921   -1.5153 C   0  0  0  0  0  0  0  0  0  0  0  0
   -4.2662    2.7054   -0.3532 C   0  0  0  0  0  0  0  0  0  0  0  0
    3.9945    1.5520   -1.4073 H   0  0  0  0  0  0  0  0  0  0  0  0
    3.3783    3.7237    0.6592 H   0  0  0  0  0  0  0  0  0  0  0  0
    4.4779    0.0505    0.4773 H   0  0  0  0  0  0  0  0  0  0  0  0
    1.3956    2.2153   -1.1641 H   0  0  0  0  0  0  0  0  0  0  0  0
    2.1626   -0.1038    1.5591 H   0  0  0  0  0  0  0  0  0  0  0  0
    0.9213    4.2490    1.0645 H   0  0  0  0  0  0  0  0  0  0  0  0
    0.6886    4.5364   -0.6765 H   0  0  0  0  0  0  0  0  0  0  0  0
   -0.3254    3.3695    0.1929 H   0  0  0  0  0  0  0  0  0  0  0  0
    5.5486    2.7944    0.6159 H   0  0  0  0  0  0  0  0  0  0  0  0
    2.8164    4.8480   -1.1765 H   0  0  0  0  0  0  0  0  0  0  0  0
    3.4844    2.0814    2.1955 H   0  0  0  0  0  0  0  0  0  0  0  0
    2.7424   -4.6954   -0.0827 H   0  0  0  0  0  0  0  0  0  0  0  0
    4.3062   -3.1823   -0.3620 H   0  0  0  0  0  0  0  0  0  0  0  0
   -2.7158    0.7147    1.9236 H   0  0  0  0  0  0  0  0  0  0  0  0
   -3.0034    0.2715   -2.3560 H   0  0  0  0  0  0  0  0  0  0  0  0
   -0.6862   -5.4690    0.2645 H   0  0  0  0  0  0  0  0  0  0  0  0
   -4.3665   -1.4238    0.0788 H   0  0  0  0  0  0  0  0  0  0  0  0
   -4.3219    2.3470   -2.4809 H   0  0  0  0  0  0  0  0  0  0  0  0
   -4.8741    3.4921    1.8847 H   0  0  0  0  0  0  0  0  0  0  0  0
   -4.8292    4.4052    0.3419 H   0  0  0  0  0  0  0  0  0  0  0  0
  1 16  1  0  0  0  0
  1 17  1  0  0  0  0
  2 17  1  0  0  0  0
  2 19  1  0  0  0  0
  3 13  1  0  0  0  0
  3 42  1  0  0  0  0
  4 14  1  0  0  0  0
  4 43  1  0  0  0  0
  5 15  1  0  0  0  0
  5 44  1  0  0  0  0
  6 20  1  0  0  0  0
  6 26  1  0  0  0  0
  7 21  1  0  0  0  0
  7 46  1  0  0  0  0
  8 23  1  0  0  0  0
  8 49  1  0  0  0  0
  9 27  1  0  0  0  0
  9 50  1  0  0  0  0
 10 25  2  0  0  0  0
 11 31  1  0  0  0  0
 11 52  1  0  0  0  0
 12 33  1  0  0  0  0
 12 53  1  0  0  0  0
 13 14  1  0  0  0  0
 13 15  1  0  0  0  0
 13 34  1  0  0  0  0
 14 16  1  0  0  0  0
 14 35  1  0  0  0  0
 15 17  1  0  0  0  0
 15 36  1  0  0  0  0
 16 18  1  0  0  0  0
 16 37  1  0  0  0  0
 17 38  1  0  0  0  0
 18 39  1  0  0  0  0
 18 40  1  0  0  0  0
 18 41  1  0  0  0  0
 19 20  1  0  0  0  0
 19 21  2  0  0  0  0
 20 22  2  0  0  0  0
 21 24  1  0  0  0  0
 22 23  1  0  0  0  0
 22 25  1  0  0  0  0
 23 24  2  0  0  0  0
 24 45  1  0  0  0  0
 25 27  1  0  0  0  0
 26 27  2  0  0  0  0
 26 28  1  0  0  0  0
 28 29  2  0  0  0  0
 28 30  1  0  0  0  0
 29 31  1  0  0  0  0
 29 47  1  0  0  0  0
 30 32  2  0  0  0  0
 30 48  1  0  0  0  0
 31 33  2  0  0  0  0
 32 33  1  0  0  0  0
 32 51  1  0  0  0  0
M  END
> <PUBCHEM_COMPOUND_CID>
5281620

> <PUBCHEM_CONFORMER_RMSD>
0.8

> <PUBCHEM_CONFORMER_DIVERSEORDER>
1
38
31
58
55
51
34
45
36
46
26
40
67
10
44
63
39
33
66
52
30
56
32
64
49
17
37
20
50
59
61
57
43
19
25
12
11
53
65
23
54
18
22
48
28
41
14
29
35
62
47
21
15
24
42
27
16
13
60
6
7
3
5
8
4
9
2

> <PUBCHEM_MMFF94_PARTIAL_CHARGES>
44
1 -0.56
10 -0.57
11 -0.53
12 -0.53
13 0.28
14 0.28
15 0.28
16 0.28
17 0.56
19 0.08
2 -0.36
20 0.08
21 0.08
22 0.09
23 0.08
24 -0.15
25 0.47
26 0.05
27 0.09
28 0.03
29 -0.15
3 -0.68
30 -0.15
31 0.08
32 -0.15
33 0.08
4 -0.68
42 0.4
43 0.4
44 0.4
45 0.15
46 0.45
47 0.15
48 0.15
49 0.45
5 -0.68
50 0.45
51 0.15
52 0.45
53 0.45
6 -0.16
7 -0.53
8 -0.53
9 -0.53

> <PUBCHEM_EFFECTIVE_ROTOR_COUNT>
4.2

> <PUBCHEM_PHARMACOPHORE_FEATURES>
19
1 1 acceptor
1 10 acceptor
1 11 donor
1 12 donor
1 2 acceptor
1 3 acceptor
1 3 donor
1 4 acceptor
1 4 donor
1 5 acceptor
1 5 donor
1 6 acceptor
1 7 donor
1 8 donor
1 9 donor
6 1 13 14 15 16 17 rings
6 19 20 21 22 23 24 rings
6 28 29 30 31 32 33 rings
6 6 20 22 25 26 27 rings

> <PUBCHEM_HEAVY_ATOM_COUNT>
33

> <PUBCHEM_ATOM_DEF_STEREO_COUNT>
5

> <PUBCHEM_ATOM_UDEF_STEREO_COUNT>
0

> <PUBCHEM_BOND_DEF_STEREO_COUNT>
0

> <PUBCHEM_BOND_UDEF_STEREO_COUNT>
0

> <PUBCHEM_ISOTOPIC_ATOM_COUNT>
0

> <PUBCHEM_COMPONENT_COUNT>
1

> <PUBCHEM_CACTVS_TAUTO_COUNT>
435

> <PUBCHEM_CONFORMER_ID>
0050975400000001

> <PUBCHEM_MMFF94_ENERGY>
110.2855

> <PUBCHEM_FEATURE_SELFOVERLAP>
96.507

> <PUBCHEM_SHAPE_FINGERPRINT>
10670039 82 17979064995329434924
1100329 8 18265892634951425394
11059048 146 18337660932623995796
11582403 64 16627470772036533125
12107183 9 18270981102224543882
12156800 1 14509240429024273075
12422481 6 18198367185304994040
12788726 201 17838346172500918874
12978246 48 18268153050194881816
13140716 1 18338800125454632418
13590594 115 17401486442767884859
138480 1 17834397104511617005
14790565 3 18339920412356489276
15081414 286 17831856128797789375
151778 21 18340755039980545461
15320467 1 18194964045786361061
15439362 3 18266463293991484320
19930381 70 18195531613377959333
20764821 26 18340491152873326004
21033648 29 17486491783346586165
21033650 10 17553182326486277012
21860390 5 17971193874526416830
22122407 14 17540522953257338617
22907989 373 17980776943196528821
23558518 356 18409735053928349719
283562 15 18266463109840666503
350125 39 18339077064987530723
474 4 18191876827983998233
508706 21 18264764372579877172
581034 39 18199454498703377588
6371009 1 18194423116040036916
9981440 41 18338531767492387803

> <PUBCHEM_SHAPE_MULTIPOLES>
608.69
9.15
7.42
1.11
2.73
4.54
0.2
-10.01
0.09
-1.88
-0.25
0.51
-0.94
-0.11

> <PUBCHEM_SHAPE_SELFOVERLAP>
1343.235

> <PUBCHEM_SHAPE_VOLUME>
323.1

> <PUBCHEM_COORDINATE_TYPE>
2
5
10

$$$$

