62275
  -OEChem-07051213133D

 27 29  0     0  0  0  0  0  0999 V2000
   -2.6861   -0.1774    0.0000 N   0  0  0  0  0  0  0  0  0  0  0  0
   -1.2602    1.5263    0.0000 N   0  0  0  0  0  0  0  0  0  0  0  0
    1.6362    1.1644   -0.0005 N   0  0  0  0  0  0  0  0  0  0  0  0
    2.6252   -1.4573   -0.0002 N   0  0  0  0  0  0  0  0  0  0  0  0
   -3.6206    1.9799   -0.0003 N   0  0  0  0  0  0  0  0  0  0  0  0
   -1.4377   -0.7436    0.0003 C   0  0  0  0  0  0  0  0  0  0  0  0
   -0.5637    0.3379    0.0006 C   0  0  0  0  0  0  0  0  0  0  0  0
    0.8217    0.0866    0.0001 C   0  0  0  0  0  0  0  0  0  0  0  0
    1.2988   -1.2353    0.0000 C   0  0  0  0  0  0  0  0  0  0  0  0
   -2.5279    1.1802    0.0000 C   0  0  0  0  0  0  0  0  0  0  0  0
   -1.0077   -2.0681    0.0001 C   0  0  0  0  0  0  0  0  0  0  0  0
    0.3777   -2.2824    0.0000 C   0  0  0  0  0  0  0  0  0  0  0  0
   -3.9380   -0.9025   -0.0001 C   0  0  0  0  0  0  0  0  0  0  0  0
    2.9554    0.9055   -0.0004 C   0  0  0  0  0  0  0  0  0  0  0  0
    3.4403   -0.3811   -0.0003 C   0  0  0  0  0  0  0  0  0  0  0  0
    3.8865    2.0668    0.0007 C   0  0  0  0  0  0  0  0  0  0  0  0
   -1.6953   -2.9059   -0.0001 H   0  0  0  0  0  0  0  0  0  0  0  0
    0.7390   -3.3100   -0.0001 H   0  0  0  0  0  0  0  0  0  0  0  0
   -4.4959   -0.6264    0.8986 H   0  0  0  0  0  0  0  0  0  0  0  0
   -3.7610   -1.9791    0.0010 H   0  0  0  0  0  0  0  0  0  0  0  0
   -4.4946   -0.6281   -0.9001 H   0  0  0  0  0  0  0  0  0  0  0  0
    4.5017   -0.6009    0.0000 H   0  0  0  0  0  0  0  0  0  0  0  0
   -3.5311    2.9911   -0.0009 H   0  0  0  0  0  0  0  0  0  0  0  0
   -4.5718    1.6262   -0.0010 H   0  0  0  0  0  0  0  0  0  0  0  0
    4.5202    2.0465    0.8929 H   0  0  0  0  0  0  0  0  0  0  0  0
    4.5227    2.0461   -0.8898 H   0  0  0  0  0  0  0  0  0  0  0  0
    3.3350    3.0127   -0.0003 H   0  0  0  0  0  0  0  0  0  0  0  0
  1  6  1  0  0  0  0
  1 10  1  0  0  0  0
  1 13  1  0  0  0  0
  2  7  1  0  0  0  0
  2 10  2  0  0  0  0
  3  8  2  0  0  0  0
  3 14  1  0  0  0  0
  4  9  2  0  0  0  0
  4 15  1  0  0  0  0
  5 10  1  0  0  0  0
  5 23  1  0  0  0  0
  5 24  1  0  0  0  0
  6  7  2  0  0  0  0
  6 11  1  0  0  0  0
  7  8  1  0  0  0  0
  8  9  1  0  0  0  0
  9 12  1  0  0  0  0
 11 12  2  0  0  0  0
 11 17  1  0  0  0  0
 12 18  1  0  0  0  0
 13 19  1  0  0  0  0
 13 20  1  0  0  0  0
 13 21  1  0  0  0  0
 14 15  2  0  0  0  0
 14 16  1  0  0  0  0
 15 22  1  0  0  0  0
 16 25  1  0  0  0  0
 16 26  1  0  0  0  0
 16 27  1  0  0  0  0
M  END
> <PUBCHEM_COMPOUND_CID>
62275

> <PUBCHEM_CONFORMER_RMSD>
0.4

> <PUBCHEM_CONFORMER_DIVERSEORDER>
1

> <PUBCHEM_MMFF94_PARTIAL_CHARGES>
21
1 0.05
10 0.27
11 -0.15
12 -0.15
13 0.26
14 0.17
15 0.16
16 0.14
17 0.15
18 0.15
2 -0.57
22 0.15
23 0.4
24 0.4
3 -0.62
4 -0.62
5 -0.88
6 -0.15
7 0.23
8 0.31
9 0.31

> <PUBCHEM_EFFECTIVE_ROTOR_COUNT>
0

> <PUBCHEM_PHARMACOPHORE_FEATURES>
7
1 3 acceptor
1 4 acceptor
1 5 donor
4 1 2 5 10 cation
5 1 2 6 7 10 rings
6 3 4 8 9 14 15 rings
6 6 7 8 9 11 12 rings

> <PUBCHEM_HEAVY_ATOM_COUNT>
16

> <PUBCHEM_ATOM_DEF_STEREO_COUNT>
0

> <PUBCHEM_ATOM_UDEF_STEREO_COUNT>
0

> <PUBCHEM_BOND_DEF_STEREO_COUNT>
0

> <PUBCHEM_BOND_UDEF_STEREO_COUNT>
0

> <PUBCHEM_ISOTOPIC_ATOM_COUNT>
0

> <PUBCHEM_COMPONENT_COUNT>
1

> <PUBCHEM_CACTVS_TAUTO_COUNT>
3

> <PUBCHEM_CONFORMER_ID>
0000F34300000001

> <PUBCHEM_MMFF94_ENERGY>
38.4884

> <PUBCHEM_FEATURE_SELFOVERLAP>
35.666

> <PUBCHEM_SHAPE_FINGERPRINT>
10411042 1 16465019286390480715
10608611 8 18411139147103005996
10967382 1 18338798918399425894
11471102 20 18266463302596606669
12173636 292 18337956679729025812
12390115 104 18189877795053484553
13140716 1 18340204214661350025
13380535 76 18410576145836888906
13897977 150 18339645667181269141
14144814 61 18411982459683860320
14325111 11 18410855473023762593
14897335 6 18410578340643921702
15196674 1 18410573993751948228
15219456 202 18410854382101926505
15442244 35 18339082713054446682
15536298 74 18334857229691609238
15775835 57 18335135371483606272
16945 1 18266458706923629478
18186145 218 18260540173381067032
20510252 161 18334009467445508961
21267235 1 18410847763642187126
21501502 16 18410296929722624267
21524375 3 18410296904079583418
2334 1 18410575084684223393
23402539 116 18264217923938526655
23402655 69 18334300872539367837
23463225 33 18341897436872206458
23559900 14 18260267482498628550
25 1 18267303307931479502
2748010 2 18411696616609345663
335352 9 18122626316706118846
5104073 3 18411699906543726201
53812653 166 18336832012351150858
6333272 397 18341332193348109896
633830 44 18260546774740637173
69090 78 18335141946983837831
7364860 26 18119528988240381614
9709674 26 18408880728861041678

> <PUBCHEM_SHAPE_MULTIPOLES>
304.37
6.5
2.37
0.59
0.23
0.15
0
-2.81
0
0
0
0.02
0.02
0

> <PUBCHEM_SHAPE_SELFOVERLAP>
684.412

> <PUBCHEM_SHAPE_VOLUME>
160.7

> <PUBCHEM_COORDINATE_TYPE>
2
5
10

$$$$

