443148
  -OEChem-07051213013D

 51 54  0     1  0  0  0  0  0999 V2000
   -5.1280    0.6568    0.1542 O   0  0  0  0  0  0  0  0  0  0  0  0
   -2.1123   -3.3422   -0.1601 O   0  0  0  0  0  0  0  0  0  0  0  0
   -4.9345   -1.8962   -1.2053 O   0  0  0  0  0  0  0  0  0  0  0  0
   -2.8067    3.1054   -0.8142 O   0  5  0  0  0  0  0  0  0  0  0  0
   -4.2793    1.8291   -1.9991 O   0  0  0  0  0  0  0  0  0  0  0  0
    7.1558    1.2280   -0.1500 O   0  0  0  0  0  0  0  0  0  0  0  0
   -0.6506   -1.5609   -0.0664 N   0  0  0  0  0  0  0  0  0  0  0  0
    1.6277    1.2183    0.0740 N   0  0  0  0  0  0  0  0  0  0  0  0
    1.6329   -1.2025   -0.1307 C   0  0  0  0  0  0  0  0  0  0  0  0
    0.6233   -2.3014   -0.1826 C   0  0  0  0  0  0  0  0  0  0  0  0
   -0.4259   -0.2010    0.0381 C   0  0  0  0  0  0  0  0  0  0  0  0
    1.0109    0.0309   -0.0010 C   0  0  0  0  0  0  0  0  0  0  0  0
   -2.8049    0.1689    0.1649 C   0  0  0  0  0  0  0  0  0  0  0  0
    3.0056   -1.2409   -0.1900 C   0  0  0  0  0  0  0  0  0  0  0  0
   -3.8390    1.2555    0.2743 C   0  0  2  0  0  0  0  0  0  0  0  0
   -1.4342    0.6649    0.1511 C   0  0  0  0  0  0  0  0  0  0  0  0
   -3.0629   -1.1573    0.0742 C   0  0  0  0  0  0  0  0  0  0  0  0
   -1.9076   -2.1337   -0.0616 C   0  0  0  0  0  0  0  0  0  0  0  0
    3.7076   -0.0264   -0.1162 C   0  0  0  0  0  0  0  0  0  0  0  0
    3.6886   -2.5616   -0.3297 C   0  0  0  0  0  0  0  0  0  0  0  0
   -3.7466    2.0086    1.6080 C   0  0  0  0  0  0  0  0  0  0  0  0
    2.9749    1.1873    0.0162 C   0  0  0  0  0  0  0  0  0  0  0  0
   -4.4203   -1.8001    0.1089 C   0  0  0  0  0  0  0  0  0  0  0  0
   -3.6224    2.1494   -0.9676 C   0  0  0  0  0  0  0  0  0  0  0  0
    5.1101    0.0005   -0.1712 C   0  0  0  0  0  0  0  0  0  0  0  0
    4.0111   -3.1921    1.0217 C   0  0  0  0  0  0  0  0  0  0  0  0
   -3.9485    1.1289    2.8387 C   0  0  0  0  0  0  0  0  0  0  0  0
    3.6915    2.3773    0.0872 C   0  0  0  0  0  0  0  0  0  0  0  0
    5.7967    1.2093   -0.0975 C   0  0  0  0  0  0  0  0  0  0  0  0
    5.0873    2.3971    0.0317 C   0  0  0  0  0  0  0  0  0  0  0  0
    0.6266   -2.8405   -1.1347 H   0  0  0  0  0  0  0  0  0  0  0  0
    0.7027   -2.9961    0.6586 H   0  0  0  0  0  0  0  0  0  0  0  0
   -1.2082    1.7161    0.2725 H   0  0  0  0  0  0  0  0  0  0  0  0
    3.0453   -3.2544   -0.8877 H   0  0  0  0  0  0  0  0  0  0  0  0
    4.5889   -2.4986   -0.9493 H   0  0  0  0  0  0  0  0  0  0  0  0
   -2.7975    2.5465    1.7163 H   0  0  0  0  0  0  0  0  0  0  0  0
   -4.5296    2.7787    1.6268 H   0  0  0  0  0  0  0  0  0  0  0  0
   -5.1391   -1.3501    0.7962 H   0  0  0  0  0  0  0  0  0  0  0  0
   -4.3366   -2.8239    0.4937 H   0  0  0  0  0  0  0  0  0  0  0  0
    5.7072   -0.9023   -0.2565 H   0  0  0  0  0  0  0  0  0  0  0  0
    4.6925   -2.5624    1.6031 H   0  0  0  0  0  0  0  0  0  0  0  0
    4.4901   -4.1660    0.8780 H   0  0  0  0  0  0  0  0  0  0  0  0
    3.1055   -3.3457    1.6178 H   0  0  0  0  0  0  0  0  0  0  0  0
   -3.9417    1.7470    3.7425 H   0  0  0  0  0  0  0  0  0  0  0  0
   -4.9081    0.6042    2.8018 H   0  0  0  0  0  0  0  0  0  0  0  0
   -3.1505    0.3874    2.9407 H   0  0  0  0  0  0  0  0  0  0  0  0
    3.1616    3.3228    0.1887 H   0  0  0  0  0  0  0  0  0  0  0  0
   -5.7913    1.3668    0.1967 H   0  0  0  0  0  0  0  0  0  0  0  0
    5.6059    3.3504    0.0911 H   0  0  0  0  0  0  0  0  0  0  0  0
   -5.7898   -2.3552   -1.1473 H   0  0  0  0  0  0  0  0  0  0  0  0
    7.4614    2.1492   -0.0847 H   0  0  0  0  0  0  0  0  0  0  0  0
  1 15  1  0  0  0  0
  1 48  1  0  0  0  0
  2 18  2  0  0  0  0
  3 23  1  0  0  0  0
  3 50  1  0  0  0  0
  4 24  1  0  0  0  0
  5 24  2  0  0  0  0
  6 29  1  0  0  0  0
  6 51  1  0  0  0  0
  7 10  1  0  0  0  0
  7 11  1  0  0  0  0
  7 18  1  0  0  0  0
  8 12  2  0  0  0  0
  8 22  1  0  0  0  0
  9 10  1  0  0  0  0
  9 12  1  0  0  0  0
  9 14  2  0  0  0  0
 10 31  1  0  0  0  0
 10 32  1  0  0  0  0
 11 12  1  0  0  0  0
 11 16  2  0  0  0  0
 13 15  1  0  0  0  0
 13 16  1  0  0  0  0
 13 17  2  0  0  0  0
 14 19  1  0  0  0  0
 14 20  1  0  0  0  0
 15 21  1  0  0  0  0
 15 24  1  0  0  0  0
 16 33  1  0  0  0  0
 17 18  1  0  0  0  0
 17 23  1  0  0  0  0
 19 22  2  0  0  0  0
 19 25  1  0  0  0  0
 20 26  1  0  0  0  0
 20 34  1  0  0  0  0
 20 35  1  0  0  0  0
 21 27  1  0  0  0  0
 21 36  1  0  0  0  0
 21 37  1  0  0  0  0
 22 28  1  0  0  0  0
 23 38  1  0  0  0  0
 23 39  1  0  0  0  0
 25 29  2  0  0  0  0
 25 40  1  0  0  0  0
 26 41  1  0  0  0  0
 26 42  1  0  0  0  0
 26 43  1  0  0  0  0
 27 44  1  0  0  0  0
 27 45  1  0  0  0  0
 27 46  1  0  0  0  0
 28 30  2  0  0  0  0
 28 47  1  0  0  0  0
 29 30  1  0  0  0  0
 30 49  1  0  0  0  0
M  CHG  1   4  -1
M  END
> <PUBCHEM_COMPOUND_CID>
443148

> <PUBCHEM_CONFORMER_RMSD>
0.8

> <PUBCHEM_CONFORMER_DIVERSEORDER>
1
4
6
7
2
5
3

> <PUBCHEM_MMFF94_PARTIAL_CHARGES>
33
1 -0.68
10 0.44
11 0.08
12 0.34
13 -0.14
14 -0.14
15 0.31
16 -0.15
17 -0.12
18 0.62
2 -0.57
20 0.14
22 0.31
23 0.42
24 0.91
25 -0.15
28 -0.15
29 0.08
3 -0.68
30 -0.15
33 0.15
4 -0.9
40 0.15
47 0.15
48 0.4
49 0.15
5 -0.9
50 0.4
51 0.45
6 -0.53
7 -0.47
8 -0.62
9 -0.14

> <PUBCHEM_EFFECTIVE_ROTOR_COUNT>
5.2

> <PUBCHEM_PHARMACOPHORE_FEATURES>
16
1 1 acceptor
1 1 donor
1 2 acceptor
1 26 hydrophobe
1 27 hydrophobe
1 3 acceptor
1 3 donor
1 4 acceptor
1 5 acceptor
1 6 donor
1 8 acceptor
3 4 5 24 anion
5 7 9 10 11 12 rings
6 19 22 25 28 29 30 rings
6 7 11 13 16 17 18 rings
6 8 9 12 14 19 22 rings

> <PUBCHEM_HEAVY_ATOM_COUNT>
30

> <PUBCHEM_ATOM_DEF_STEREO_COUNT>
1

> <PUBCHEM_ATOM_UDEF_STEREO_COUNT>
0

> <PUBCHEM_BOND_DEF_STEREO_COUNT>
0

> <PUBCHEM_BOND_UDEF_STEREO_COUNT>
0

> <PUBCHEM_ISOTOPIC_ATOM_COUNT>
0

> <PUBCHEM_COMPONENT_COUNT>
1

> <PUBCHEM_CACTVS_TAUTO_COUNT>
3

> <PUBCHEM_CONFORMER_ID>
0006C30C00000001

> <PUBCHEM_MMFF94_ENERGY>
96.9262

> <PUBCHEM_FEATURE_SELFOVERLAP>
81.479

> <PUBCHEM_SHAPE_FINGERPRINT>
10411042 1 17690279309729196919
10595046 47 18334858294469121107
10670039 82 18198890445238753884
11578080 2 17416988273215551558
11595378 159 17203339930638156196
12107183 9 18048312546457034522
12390115 104 18261375746341254664
12403259 415 18200307852907180765
12633257 1 18191300679142545107
13140716 1 18338788030963617299
13631057 29 18190743029237211491
14466204 15 18339086991322090632
14790565 3 18336820983223469650
15081414 286 18337942489774810148
15183329 4 18335133216127461428
15196674 1 18410011056857911398
1601671 61 18411418415257817348
16112460 7 18263071270538557584
17349148 13 17822858722025830611
17844677 252 18268987759935305204
21033648 144 18410576214265955973
21033648 29 17560797796784487629
21236236 1 18335701598628891325
21279426 13 18408599293319330030
21421861 104 17987525965260120058
21623110 236 18408879621223560081
21709351 56 18409451345784546428
21756936 100 17458613541269664681
21859007 373 17343522268790168612
22393880 68 18408316675633587142
23559900 14 18187643678327006142
25147074 1 18334864917620259226
335352 9 18194401314918320750
350125 39 18336544932774428241
3545911 37 18409727348624690408
4073 2 18201431450621986122
4214541 1 18337107878274879936
469060 322 18127115395666155817
497634 4 18187079560131586333
5104073 3 18412820317551377930
543358 83 18336259124576895866
633830 44 17751066106206135109

> <PUBCHEM_SHAPE_MULTIPOLES>
572.21
13.59
3.64
1.22
8.92
1.17
-0.57
-5.38
0.02
0.3
0.14
-2.14
-0.6
-0.69

> <PUBCHEM_SHAPE_SELFOVERLAP>
1273.115

> <PUBCHEM_SHAPE_VOLUME>
305.9

> <PUBCHEM_COORDINATE_TYPE>
2
5
10

$$$$

