5281104
  -OEChem-07051212542D

 74 76  0     1  0  0  0  0  0999 V2000
   10.1469    5.4642    0.0000 O   0  0  0  0  0  0  0  0  0  0  0  0
    6.0010   -5.0551    0.0000 O   0  0  0  0  0  0  0  0  0  0  0  0
    2.5369   -5.0551    0.0000 O   0  0  0  0  0  0  0  0  0  0  0  0
    6.0010    0.9449    0.0000 C   0  0  2  0  0  0  0  0  0  0  0  0
    6.9473    1.2496    0.0000 C   0  0  2  0  0  0  0  0  0  0  0  0
    6.0010   -0.0551    0.0000 C   0  0  1  0  0  0  0  0  0  0  0  0
    7.5309    0.4449    0.0000 C   0  0  0  0  0  0  0  0  0  0  0  0
    6.9473   -0.3598    0.0000 C   0  0  0  0  0  0  0  0  0  0  0  0
    5.1350    1.4449    0.0000 C   0  0  0  0  0  0  0  0  0  0  0  0
    7.2579    2.2002    0.0000 C   0  0  2  0  0  0  0  0  0  0  0  0
    5.1350   -0.5551    0.0000 C   0  0  0  0  0  0  0  0  0  0  0  0
    6.0010    1.9449    0.0000 C   0  0  0  0  0  0  0  0  0  0  0  0
    4.2690    0.9449    0.0000 C   0  0  0  0  0  0  0  0  0  0  0  0
    4.2690   -0.0551    0.0000 C   0  0  0  0  0  0  0  0  0  0  0  0
    6.5901    2.9445    0.0000 C   0  0  0  0  0  0  0  0  0  0  0  0
    8.2364    2.4064    0.0000 C   0  0  0  0  0  0  0  0  0  0  0  0
    5.1350   -1.5551    0.0000 C   0  0  0  0  0  0  0  0  0  0  0  0
    8.5471    3.3569    0.0000 C   0  0  0  0  0  0  0  0  0  0  0  0
    4.2690   -2.0551    0.0000 C   0  0  0  0  0  0  0  0  0  0  0  0
    9.5256    3.5631    0.0000 C   0  0  1  0  0  0  0  0  0  0  0  0
    4.2690   -3.0551    0.0000 C   0  0  0  0  0  0  0  0  0  0  0  0
    9.8363    4.5136    0.0000 C   0  0  0  0  0  0  0  0  0  0  0  0
    5.1350   -3.5551    0.0000 C   0  0  0  0  0  0  0  0  0  0  0  0
    3.4030   -3.5551    0.0000 C   0  0  0  0  0  0  0  0  0  0  0  0
   10.1934    2.8188    0.0000 C   0  0  0  0  0  0  0  0  0  0  0  0
    5.1350   -4.5551    0.0000 C   0  0  2  0  0  0  0  0  0  0  0  0
    3.4030   -4.5551    0.0000 C   0  0  2  0  0  0  0  0  0  0  0  0
    4.2690   -5.0551    0.0000 C   0  0  0  0  0  0  0  0  0  0  0  0
   10.7868    4.2030    0.0000 C   0  0  0  0  0  0  0  0  0  0  0  0
    8.8857    4.8243    0.0000 C   0  0  0  0  0  0  0  0  0  0  0  0
    7.7870    1.3815    0.0000 H   0  0  0  0  0  0  0  0  0  0  0  0
    6.0910   -0.9003    0.0000 H   0  0  0  0  0  0  0  0  0  0  0  0
    7.9917    0.0302    0.0000 H   0  0  0  0  0  0  0  0  0  0  0  0
    7.9917    0.8596    0.0000 H   0  0  0  0  0  0  0  0  0  0  0  0
    6.6962   -0.9267    0.0000 H   0  0  0  0  0  0  0  0  0  0  0  0
    7.4846   -0.6690    0.0000 H   0  0  0  0  0  0  0  0  0  0  0  0
    5.5335    1.9199    0.0000 H   0  0  0  0  0  0  0  0  0  0  0  0
    4.7365    1.9199    0.0000 H   0  0  0  0  0  0  0  0  0  0  0  0
    6.6512    2.0723    0.0000 H   0  0  0  0  0  0  0  0  0  0  0  0
    6.6210    1.9449    0.0000 H   0  0  0  0  0  0  0  0  0  0  0  0
    6.0010    2.5649    0.0000 H   0  0  0  0  0  0  0  0  0  0  0  0
    5.3810    1.9449    0.0000 H   0  0  0  0  0  0  0  0  0  0  0  0
    4.0569    1.5275    0.0000 H   0  0  0  0  0  0  0  0  0  0  0  0
    3.6584    0.8373    0.0000 H   0  0  0  0  0  0  0  0  0  0  0  0
    3.6584    0.0526    0.0000 H   0  0  0  0  0  0  0  0  0  0  0  0
    4.0569   -0.6377    0.0000 H   0  0  0  0  0  0  0  0  0  0  0  0
    7.0515    3.3585    0.0000 H   0  0  0  0  0  0  0  0  0  0  0  0
    6.1760    3.4059    0.0000 H   0  0  0  0  0  0  0  0  0  0  0  0
    6.1286    2.5304    0.0000 H   0  0  0  0  0  0  0  0  0  0  0  0
    8.6505    1.9449    0.0000 H   0  0  0  0  0  0  0  0  0  0  0  0
    5.6720   -1.8651    0.0000 H   0  0  0  0  0  0  0  0  0  0  0  0
    8.1330    3.8184    0.0000 H   0  0  0  0  0  0  0  0  0  0  0  0
    3.7320   -1.7451    0.0000 H   0  0  0  0  0  0  0  0  0  0  0  0
    9.3330    2.9738    0.0000 H   0  0  0  0  0  0  0  0  0  0  0  0
    5.7456   -3.6628    0.0000 H   0  0  0  0  0  0  0  0  0  0  0  0
    5.3471   -2.9725    0.0000 H   0  0  0  0  0  0  0  0  0  0  0  0
    3.1909   -2.9725    0.0000 H   0  0  0  0  0  0  0  0  0  0  0  0
    2.7924   -3.6628    0.0000 H   0  0  0  0  0  0  0  0  0  0  0  0
    9.7320    2.4048    0.0000 H   0  0  0  0  0  0  0  0  0  0  0  0
   10.6075    2.3574    0.0000 H   0  0  0  0  0  0  0  0  0  0  0  0
   10.6549    3.2329    0.0000 H   0  0  0  0  0  0  0  0  0  0  0  0
    5.1350   -5.1751    0.0000 H   0  0  0  0  0  0  0  0  0  0  0  0
    3.4030   -5.1751    0.0000 H   0  0  0  0  0  0  0  0  0  0  0  0
    3.9590   -5.5920    0.0000 H   0  0  0  0  0  0  0  0  0  0  0  0
    4.5790   -5.5920    0.0000 H   0  0  0  0  0  0  0  0  0  0  0  0
   10.5942    3.6137    0.0000 H   0  0  0  0  0  0  0  0  0  0  0  0
   11.3761    4.0104    0.0000 H   0  0  0  0  0  0  0  0  0  0  0  0
   10.9794    4.7923    0.0000 H   0  0  0  0  0  0  0  0  0  0  0  0
    9.0784    5.4136    0.0000 H   0  0  0  0  0  0  0  0  0  0  0  0
    8.2964    5.0169    0.0000 H   0  0  0  0  0  0  0  0  0  0  0  0
    8.6931    4.2350    0.0000 H   0  0  0  0  0  0  0  0  0  0  0  0
   10.7536    5.5920    0.0000 H   0  0  0  0  0  0  0  0  0  0  0  0
    6.5380   -4.7451    0.0000 H   0  0  0  0  0  0  0  0  0  0  0  0
    2.0000   -4.7451    0.0000 H   0  0  0  0  0  0  0  0  0  0  0  0
  1 22  1  0  0  0  0
  1 72  1  0  0  0  0
 26  2  1  1  0  0  0
  2 73  1  0  0  0  0
 27  3  1  6  0  0  0
  3 74  1  0  0  0  0
  4  5  1  0  0  0  0
  4  6  1  0  0  0  0
  4  9  1  0  0  0  0
  4 12  1  1  0  0  0
  5  7  1  0  0  0  0
  5 10  1  0  0  0  0
  5 31  1  6  0  0  0
  6  8  1  0  0  0  0
  6 11  1  0  0  0  0
  6 32  1  6  0  0  0
  7  8  1  0  0  0  0
  7 33  1  0  0  0  0
  7 34  1  0  0  0  0
  8 35  1  0  0  0  0
  8 36  1  0  0  0  0
  9 13  1  0  0  0  0
  9 37  1  0  0  0  0
  9 38  1  0  0  0  0
 10 15  1  6  0  0  0
 10 16  1  0  0  0  0
 10 39  1  0  0  0  0
 11 14  1  0  0  0  0
 11 17  2  0  0  0  0
 12 40  1  0  0  0  0
 12 41  1  0  0  0  0
 12 42  1  0  0  0  0
 13 14  1  0  0  0  0
 13 43  1  0  0  0  0
 13 44  1  0  0  0  0
 14 45  1  0  0  0  0
 14 46  1  0  0  0  0
 15 47  1  0  0  0  0
 15 48  1  0  0  0  0
 15 49  1  0  0  0  0
 16 18  2  0  0  0  0
 16 50  1  0  0  0  0
 17 19  1  0  0  0  0
 17 51  1  0  0  0  0
 18 20  1  0  0  0  0
 18 52  1  0  0  0  0
 19 21  2  0  0  0  0
 19 53  1  0  0  0  0
 20 22  1  0  0  0  0
 20 25  1  1  0  0  0
 20 54  1  0  0  0  0
 21 23  1  0  0  0  0
 21 24  1  0  0  0  0
 22 29  1  0  0  0  0
 22 30  1  0  0  0  0
 23 26  1  0  0  0  0
 23 55  1  0  0  0  0
 23 56  1  0  0  0  0
 24 27  1  0  0  0  0
 24 57  1  0  0  0  0
 24 58  1  0  0  0  0
 25 59  1  0  0  0  0
 25 60  1  0  0  0  0
 25 61  1  0  0  0  0
 26 28  1  0  0  0  0
 26 62  1  0  0  0  0
 27 28  1  0  0  0  0
 27 63  1  0  0  0  0
 28 64  1  0  0  0  0
 28 65  1  0  0  0  0
 29 66  1  0  0  0  0
 29 67  1  0  0  0  0
 29 68  1  0  0  0  0
 30 69  1  0  0  0  0
 30 70  1  0  0  0  0
 30 71  1  0  0  0  0
M  END
> <PUBCHEM_COMPOUND_CID>
5281104

> <PUBCHEM_COMPOUND_CANONICALIZED>
1

> <PUBCHEM_CACTVS_COMPLEXITY>
676

> <PUBCHEM_CACTVS_HBOND_ACCEPTOR>
3

> <PUBCHEM_CACTVS_HBOND_DONOR>
3

> <PUBCHEM_CACTVS_ROTATABLE_BOND>
5

> <PUBCHEM_CACTVS_SUBSKEYS>
AAADcfB4MAAAAAAAAAAAAAAAAAAAAYAAAAAwYAAAAAAAAGAAAAAAGgAACAAAD1SggAICAAAAAgCAAiBCAAAAAAAgAAAICAAAAAgIEAIAAQAAQAAFwAAIgAOA4MQPgAAAAAAAAAAAAAAQACAAAQAACAAAAA==

> <PUBCHEM_IUPAC_OPENEYE_NAME>
(1R,3R)-5-[(2E)-2-[(1R,3aS,7aR)-1-[(E,1R,4S)-5-hydroxy-1,4,5-trimethyl-hex-2-enyl]-7a-methyl-2,3,3a,5,6,7-hexahydro-1H-inden-4-ylidene]ethylidene]cyclohexane-1,3-diol

> <PUBCHEM_IUPAC_CAS_NAME>
(1R,3R)-5-[(2E)-2-[(1R,3aS,7aR)-1-[(E,2R,5S)-6-hydroxy-5,6-dimethylhept-3-en-2-yl]-7a-methyl-2,3,3a,5,6,7-hexahydro-1H-inden-4-ylidene]ethylidene]cyclohexane-1,3-diol

> <PUBCHEM_IUPAC_NAME>
(1R,3R)-5-[(2E)-2-[(1R,3aS,7aR)-1-[(E,2R,5S)-6-hydroxy-5,6-dimethylhept-3-en-2-yl]-7a-methyl-2,3,3a,5,6,7-hexahydro-1H-inden-4-ylidene]ethylidene]cyclohexane-1,3-diol

> <PUBCHEM_IUPAC_SYSTEMATIC_NAME>
(1R,3R)-5-[(2E)-2-[(1R,3aS,7aR)-1-[(E,2R,5S)-5,6-dimethyl-6-oxidanyl-hept-3-en-2-yl]-7a-methyl-2,3,3a,5,6,7-hexahydro-1H-inden-4-ylidene]ethylidene]cyclohexane-1,3-diol

> <PUBCHEM_IUPAC_TRADITIONAL_NAME>
(1R,3R)-5-[(2E)-2-[(1R,3aS,7aR)-1-[(E,1R,4S)-5-hydroxy-1,4,5-trimethyl-hex-2-enyl]-7a-methyl-2,3,3a,5,6,7-hexahydro-1H-inden-4-ylidene]ethylidene]cyclohexane-1,3-diol

> <PUBCHEM_IUPAC_INCHI>
InChI=1S/C27H44O3/c1-18(8-9-19(2)26(3,4)30)24-12-13-25-21(7-6-14-27(24,25)5)11-10-20-15-22(28)17-23(29)16-20/h8-11,18-19,22-25,28-30H,6-7,12-17H2,1-5H3/b9-8+,21-11+/t18-,19+,22-,23-,24-,25+,27-/m1/s1

> <PUBCHEM_IUPAC_INCHIKEY>
BPKAHTKRCLCHEA-UBFJEZKGSA-N

> <PUBCHEM_XLOGP3_AA>
5

> <PUBCHEM_EXACT_MASS>
416.329045

> <PUBCHEM_MOLECULAR_FORMULA>
C27H44O3

> <PUBCHEM_MOLECULAR_WEIGHT>
416.63646

> <PUBCHEM_OPENEYE_CAN_SMILES>
CC(C=CC(C)C(C)(C)O)C1CCC2C1(CCCC2=CC=C3CC(CC(C3)O)O)C

> <PUBCHEM_OPENEYE_ISO_SMILES>
C[C@H](/C=C/[C@H](C)C(C)(C)O)[C@H]1CC[C@@H]\2[C@@]1(CCC/C2=C\C=C3C[C@H](C[C@@H](C3)O)O)C

> <PUBCHEM_CACTVS_TPSA>
60.7

> <PUBCHEM_MONOISOTOPIC_WEIGHT>
416.329045

> <PUBCHEM_TOTAL_CHARGE>
0

> <PUBCHEM_HEAVY_ATOM_COUNT>
30

> <PUBCHEM_ATOM_DEF_STEREO_COUNT>
7

> <PUBCHEM_ATOM_UDEF_STEREO_COUNT>
0

> <PUBCHEM_BOND_DEF_STEREO_COUNT>
2

> <PUBCHEM_BOND_UDEF_STEREO_COUNT>
0

> <PUBCHEM_ISOTOPIC_ATOM_COUNT>
0

> <PUBCHEM_COMPONENT_COUNT>
1

> <PUBCHEM_CACTVS_TAUTO_COUNT>
1

> <PUBCHEM_COORDINATE_TYPE>
1
5
255

> <PUBCHEM_BONDANNOTATIONS>
10  15  6
26  2  5
20  25  5
27  3  6
4  12  5
5  31  6
6  32  6

$$$$

