375117
  -OEChem-07051213023D

 43 47  0     1  0  0  0  0  0999 V2000
    0.0115    2.8171    0.3782 O   0  0  0  0  0  0  0  0  0  0  0  0
    3.3863   -2.4550    1.3628 O   0  0  0  0  0  0  0  0  0  0  0  0
   -2.0101    3.1993    1.3379 O   0  0  0  0  0  0  0  0  0  0  0  0
   -3.0663   -2.6432   -0.7297 O   0  0  0  0  0  0  0  0  0  0  0  0
   -4.6949   -0.9819   -0.1041 O   0  0  0  0  0  0  0  0  0  0  0  0
    2.7488    1.0313   -1.2223 N   0  0  2  0  0  0  0  0  0  0  0  0
    0.7398    0.5166    0.0006 C   0  0  1  0  0  0  0  0  0  0  0  0
    1.7490   -0.0623   -1.0250 C   0  0  2  0  0  0  0  0  0  0  0  0
    0.7018    1.9563   -0.5222 C   0  0  2  0  0  0  0  0  0  0  0  0
    2.1555    2.2997   -0.7611 C   0  0  0  0  0  0  0  0  0  0  0  0
    2.4499   -1.3345   -0.5321 C   0  0  0  0  0  0  0  0  0  0  0  0
   -0.7173    0.1016   -0.0526 C   0  0  0  0  0  0  0  0  0  0  0  0
    1.2533    0.3804    1.4332 C   0  0  0  0  0  0  0  0  0  0  0  0
    3.1321   -1.1583    0.8270 C   0  0  1  0  0  0  0  0  0  0  0  0
    2.3097   -0.3628    1.7935 C   0  0  0  0  0  0  0  0  0  0  0  0
   -1.6895    1.0790    0.3139 C   0  0  0  0  0  0  0  0  0  0  0  0
    3.2033    1.1082   -2.6065 C   0  0  0  0  0  0  0  0  0  0  0  0
   -1.1361   -1.1843   -0.4154 C   0  0  0  0  0  0  0  0  0  0  0  0
   -1.2618    2.4526    0.7209 C   0  0  0  0  0  0  0  0  0  0  0  0
   -3.0558    0.7734    0.3205 C   0  0  0  0  0  0  0  0  0  0  0  0
   -2.4911   -1.4524   -0.4047 C   0  0  0  0  0  0  0  0  0  0  0  0
   -3.4213   -0.5041   -0.0476 C   0  0  0  0  0  0  0  0  0  0  0  0
    4.1653   -3.2398    0.4722 C   0  0  0  0  0  0  0  0  0  0  0  0
   -4.4621   -2.3371   -0.5375 C   0  0  0  0  0  0  0  0  0  0  0  0
    1.2292   -0.2774   -1.9698 H   0  0  0  0  0  0  0  0  0  0  0  0
    0.1883    2.0208   -1.4965 H   0  0  0  0  0  0  0  0  0  0  0  0
    2.2576    3.1278   -1.4723 H   0  0  0  0  0  0  0  0  0  0  0  0
    2.6441    2.6225    0.1655 H   0  0  0  0  0  0  0  0  0  0  0  0
    3.1826   -1.6435   -1.2887 H   0  0  0  0  0  0  0  0  0  0  0  0
    1.7234   -2.1539   -0.4794 H   0  0  0  0  0  0  0  0  0  0  0  0
    0.7325    0.9252    2.2178 H   0  0  0  0  0  0  0  0  0  0  0  0
    4.0923   -0.6394    0.7084 H   0  0  0  0  0  0  0  0  0  0  0  0
    2.6088   -0.3745    2.8382 H   0  0  0  0  0  0  0  0  0  0  0  0
    3.6578    0.1621   -2.9189 H   0  0  0  0  0  0  0  0  0  0  0  0
    3.9757    1.8781   -2.7110 H   0  0  0  0  0  0  0  0  0  0  0  0
    2.3863    1.3443   -3.2977 H   0  0  0  0  0  0  0  0  0  0  0  0
   -0.4354   -1.9584   -0.6994 H   0  0  0  0  0  0  0  0  0  0  0  0
   -3.8084    1.5033    0.5978 H   0  0  0  0  0  0  0  0  0  0  0  0
    3.5506   -3.6688   -0.3242 H   0  0  0  0  0  0  0  0  0  0  0  0
    4.5752   -4.0781    1.0439 H   0  0  0  0  0  0  0  0  0  0  0  0
    5.0076   -2.6753    0.0587 H   0  0  0  0  0  0  0  0  0  0  0  0
   -4.8711   -3.0214    0.2148 H   0  0  0  0  0  0  0  0  0  0  0  0
   -4.9904   -2.4986   -1.4842 H   0  0  0  0  0  0  0  0  0  0  0  0
  1  9  1  0  0  0  0
  1 19  1  0  0  0  0
  2 14  1  0  0  0  0
  2 23  1  0  0  0  0
  3 19  2  0  0  0  0
  4 21  1  0  0  0  0
  4 24  1  0  0  0  0
  5 22  1  0  0  0  0
  5 24  1  0  0  0  0
  6  8  1  0  0  0  0
  6 10  1  0  0  0  0
  6 17  1  0  0  0  0
  7  8  1  0  0  0  0
  7  9  1  0  0  0  0
  7 12  1  0  0  0  0
  7 13  1  0  0  0  0
  8 11  1  0  0  0  0
  8 25  1  0  0  0  0
  9 10  1  0  0  0  0
  9 26  1  0  0  0  0
 10 27  1  0  0  0  0
 10 28  1  0  0  0  0
 11 14  1  0  0  0  0
 11 29  1  0  0  0  0
 11 30  1  0  0  0  0
 12 16  1  0  0  0  0
 12 18  2  0  0  0  0
 13 15  2  0  0  0  0
 13 31  1  0  0  0  0
 14 15  1  0  0  0  0
 14 32  1  0  0  0  0
 15 33  1  0  0  0  0
 16 19  1  0  0  0  0
 16 20  2  0  0  0  0
 17 34  1  0  0  0  0
 17 35  1  0  0  0  0
 17 36  1  0  0  0  0
 18 21  1  0  0  0  0
 18 37  1  0  0  0  0
 20 22  1  0  0  0  0
 20 38  1  0  0  0  0
 21 22  2  0  0  0  0
 23 39  1  0  0  0  0
 23 40  1  0  0  0  0
 23 41  1  0  0  0  0
 24 42  1  0  0  0  0
 24 43  1  0  0  0  0
M  END
> <PUBCHEM_COMPOUND_CID>
375117

> <PUBCHEM_CONFORMER_RMSD>
0.6

> <PUBCHEM_CONFORMER_DIVERSEORDER>
1

> <PUBCHEM_MMFF94_PARTIAL_CHARGES>
27
1 -0.43
10 0.27
12 -0.14
13 -0.29
14 0.42
15 -0.29
16 0.09
17 0.27
18 -0.15
19 0.63
2 -0.56
20 -0.15
21 0.08
22 0.08
23 0.28
24 0.56
3 -0.57
31 0.15
33 0.15
37 0.15
38 0.15
4 -0.36
5 -0.36
6 -0.81
7 0.28
8 0.27
9 0.28

> <PUBCHEM_EFFECTIVE_ROTOR_COUNT>
2.6

> <PUBCHEM_PHARMACOPHORE_FEATURES>
10
1 2 acceptor
1 3 acceptor
1 4 acceptor
1 5 acceptor
1 6 cation
5 4 5 21 22 24 rings
5 6 7 8 9 10 rings
6 1 7 9 12 16 19 rings
6 12 16 18 20 21 22 rings
6 7 8 11 13 14 15 rings

> <PUBCHEM_HEAVY_ATOM_COUNT>
24

> <PUBCHEM_ATOM_DEF_STEREO_COUNT>
4

> <PUBCHEM_ATOM_UDEF_STEREO_COUNT>
0

> <PUBCHEM_BOND_DEF_STEREO_COUNT>
0

> <PUBCHEM_BOND_UDEF_STEREO_COUNT>
0

> <PUBCHEM_ISOTOPIC_ATOM_COUNT>
0

> <PUBCHEM_COMPONENT_COUNT>
1

> <PUBCHEM_CACTVS_TAUTO_COUNT>
1

> <PUBCHEM_CONFORMER_ID>
0005B94D00000001

> <PUBCHEM_MMFF94_ENERGY>
81.9673

> <PUBCHEM_FEATURE_SELFOVERLAP>
51.302

> <PUBCHEM_SHAPE_FINGERPRINT>
10756046 70 17841692295643147580
10759866 29 18271800190235280733
11578080 2 17986417592223983356
11582403 64 14690044159872081684
11725454 13 14475554764309320164
12035759 4 18339345388732495116
12293681 160 17687720771556024749
12553582 1 18261384491369663375
12633257 1 17458633374922287563
12788726 201 18335686261495940817
13009979 54 18338792437568193482
13140716 1 18334579053418483321
133893 2 17275096237468573524
14178342 30 18118685658426527419
14863182 85 18198072387112611186
15099037 8 18341331188304689650
15230672 131 16537918002355558774
15664445 248 18045211652904781600
15842332 3 18269817856881125956
16752209 62 18336265742984420325
16945 1 18188200013434406645
17349148 13 17846217731300917392
17492 89 18412829075195766411
17804303 29 18115876363383957490
1813 80 17845947345787359754
18222031 100 17750232513795680919
19078846 21 18260825960895125233
20559304 39 18339088068477432843
20600515 1 17898855914088386056
21197605 99 5007300133952688458
21421861 104 18340205198124601297
21452121 199 18337119989982246114
22112679 90 18198896097157115208
2255824 54 17838902533948283413
23184049 29 18335707160421733033
23419403 2 17049145438003275432
23557571 272 17967531268176694960
23559900 14 17968085478098379532
23598288 3 18197198442640223049
23598291 2 18200581626928090054
238 59 17202757086395869100
25147074 1 18269538580922357132
266924 1 18342162385052197764
3004659 81 18272093790174121799
312423 11 18271793657690327875
34934 24 17972034743318650557
394222 165 17127903344411192056
404807 78 16407040332560445555
6992083 37 17981601877470248960
7164475 11 18412549824979953341
7364860 26 18193564367367735472

> <PUBCHEM_SHAPE_MULTIPOLES>
459.58
7.39
3.52
1.52
3.55
0.04
-0.29
6.21
-0.78
-0.44
0.47
-1.64
-0.4
-2.5

> <PUBCHEM_SHAPE_SELFOVERLAP>
1031.623

> <PUBCHEM_SHAPE_VOLUME>
243.1

> <PUBCHEM_COORDINATE_TYPE>
2
5
10

$$$$

