442614
  -OEChem-07051212583D

 41 43  0     1  0  0  0  0  0999 V2000
   -0.6568   -1.7550    0.3878 O   0  0  0  0  0  0  0  0  0  0  0  0
    1.8243    1.7958   -0.6997 O   0  0  0  0  0  0  0  0  0  0  0  0
   -0.5521    2.9376    0.3577 O   0  0  0  0  0  0  0  0  0  0  0  0
    4.0451   -2.3618    0.0274 O   0  0  0  0  0  0  0  0  0  0  0  0
   -4.6893    0.7188   -0.5955 O   0  0  0  0  0  0  0  0  0  0  0  0
   -4.7267   -1.8984    0.0112 O   0  0  0  0  0  0  0  0  0  0  0  0
    5.2823   -0.1228   -1.1303 O   0  0  0  0  0  0  0  0  0  0  0  0
    0.7350    0.1765    0.7413 C   0  0  1  0  0  0  0  0  0  0  0  0
   -0.6599    0.5509    0.3403 C   0  0  0  0  0  0  0  0  0  0  0  0
    0.6593   -1.3206    0.5265 C   0  0  0  0  0  0  0  0  0  0  0  0
   -1.4160   -0.6202    0.2000 C   0  0  0  0  0  0  0  0  0  0  0  0
    1.8697    0.7095   -0.1269 C   0  0  0  0  0  0  0  0  0  0  0  0
    0.9933    0.5277    2.2119 C   0  0  0  0  0  0  0  0  0  0  0  0
   -1.2549    1.7888    0.1785 C   0  0  0  0  0  0  0  0  0  0  0  0
   -2.7596   -0.6025   -0.1109 C   0  0  0  0  0  0  0  0  0  0  0  0
    1.7214   -2.0782    0.2310 C   0  0  0  0  0  0  0  0  0  0  0  0
    3.1290   -0.1245   -0.1974 C   0  0  0  0  0  0  0  0  0  0  0  0
   -2.6155    1.8298   -0.1422 C   0  0  0  0  0  0  0  0  0  0  0  0
    3.0144   -1.4501    0.0404 C   0  0  0  0  0  0  0  0  0  0  0  0
   -3.3608    0.6450   -0.2848 C   0  0  0  0  0  0  0  0  0  0  0  0
   -3.5102   -1.8406   -0.2556 C   0  0  0  0  0  0  0  0  0  0  0  0
    4.4138    0.5078   -0.5281 C   0  0  0  0  0  0  0  0  0  0  0  0
   -3.2912    3.1529   -0.3254 C   0  0  0  0  0  0  0  0  0  0  0  0
   -2.8152   -3.1074   -0.7418 C   0  0  0  0  0  0  0  0  0  0  0  0
    4.6206    1.9409   -0.1155 C   0  0  0  0  0  0  0  0  0  0  0  0
    1.9632    0.1486    2.5549 H   0  0  0  0  0  0  0  0  0  0  0  0
    1.0049    1.6122    2.3693 H   0  0  0  0  0  0  0  0  0  0  0  0
    0.2248    0.1090    2.8733 H   0  0  0  0  0  0  0  0  0  0  0  0
    1.5982   -3.1299   -0.0051 H   0  0  0  0  0  0  0  0  0  0  0  0
   -3.7197    3.2284   -1.3308 H   0  0  0  0  0  0  0  0  0  0  0  0
   -4.0807    3.2854    0.4223 H   0  0  0  0  0  0  0  0  0  0  0  0
   -2.6087    4.0013   -0.2162 H   0  0  0  0  0  0  0  0  0  0  0  0
    0.3760    2.7297    0.5508 H   0  0  0  0  0  0  0  0  0  0  0  0
    3.7056   -3.2461    0.2462 H   0  0  0  0  0  0  0  0  0  0  0  0
   -2.4092   -3.6604    0.1084 H   0  0  0  0  0  0  0  0  0  0  0  0
   -2.0341   -2.8733   -1.4699 H   0  0  0  0  0  0  0  0  0  0  0  0
   -3.5511   -3.7350   -1.2550 H   0  0  0  0  0  0  0  0  0  0  0  0
   -4.9933    1.6364   -0.6608 H   0  0  0  0  0  0  0  0  0  0  0  0
    4.0559    2.1798    0.7899 H   0  0  0  0  0  0  0  0  0  0  0  0
    4.3339    2.6083   -0.9316 H   0  0  0  0  0  0  0  0  0  0  0  0
    5.6797    2.0913    0.1159 H   0  0  0  0  0  0  0  0  0  0  0  0
  1 10  1  0  0  0  0
  1 11  1  0  0  0  0
  2 12  2  0  0  0  0
  3 14  1  0  0  0  0
  3 33  1  0  0  0  0
  4 19  1  0  0  0  0
  4 34  1  0  0  0  0
  5 20  1  0  0  0  0
  5 38  1  0  0  0  0
  6 21  2  0  0  0  0
  7 22  2  0  0  0  0
  8  9  1  0  0  0  0
  8 10  1  0  0  0  0
  8 12  1  0  0  0  0
  8 13  1  0  0  0  0
  9 11  1  0  0  0  0
  9 14  2  0  0  0  0
 10 16  2  0  0  0  0
 11 15  2  0  0  0  0
 12 17  1  0  0  0  0
 13 26  1  0  0  0  0
 13 27  1  0  0  0  0
 13 28  1  0  0  0  0
 14 18  1  0  0  0  0
 15 20  1  0  0  0  0
 15 21  1  0  0  0  0
 16 19  1  0  0  0  0
 16 29  1  0  0  0  0
 17 19  2  0  0  0  0
 17 22  1  0  0  0  0
 18 20  2  0  0  0  0
 18 23  1  0  0  0  0
 21 24  1  0  0  0  0
 22 25  1  0  0  0  0
 23 30  1  0  0  0  0
 23 31  1  0  0  0  0
 23 32  1  0  0  0  0
 24 35  1  0  0  0  0
 24 36  1  0  0  0  0
 24 37  1  0  0  0  0
 25 39  1  0  0  0  0
 25 40  1  0  0  0  0
 25 41  1  0  0  0  0
M  END
> <PUBCHEM_COMPOUND_CID>
442614

> <PUBCHEM_CONFORMER_RMSD>
0.6

> <PUBCHEM_CONFORMER_DIVERSEORDER>
1
6
4
5
2
3

> <PUBCHEM_MMFF94_PARTIAL_CHARGES>
28
1 -0.16
10 -0.06
11 0.08
12 0.49
14 0.08
15 0.09
16 -0.15
17 0.03
18 -0.14
19 0.08
2 -0.57
20 0.08
21 0.42
22 0.49
23 0.14
24 0.06
25 0.06
29 0.15
3 -0.53
33 0.45
34 0.45
38 0.45
4 -0.53
5 -0.53
6 -0.57
7 -0.57
8 0.34
9 -0.14

> <PUBCHEM_EFFECTIVE_ROTOR_COUNT>
2.2

> <PUBCHEM_PHARMACOPHORE_FEATURES>
11
1 1 acceptor
1 17 anion
1 2 acceptor
1 3 donor
1 4 donor
1 5 donor
1 6 acceptor
1 7 acceptor
5 1 8 9 10 11 rings
6 8 10 12 16 17 19 rings
6 9 11 14 15 18 20 rings

> <PUBCHEM_HEAVY_ATOM_COUNT>
25

> <PUBCHEM_ATOM_DEF_STEREO_COUNT>
1

> <PUBCHEM_ATOM_UDEF_STEREO_COUNT>
0

> <PUBCHEM_BOND_DEF_STEREO_COUNT>
0

> <PUBCHEM_BOND_UDEF_STEREO_COUNT>
0

> <PUBCHEM_ISOTOPIC_ATOM_COUNT>
0

> <PUBCHEM_COMPONENT_COUNT>
1

> <PUBCHEM_CACTVS_TAUTO_COUNT>
147

> <PUBCHEM_CONFORMER_ID>
0006C0F600000001

> <PUBCHEM_MMFF94_ENERGY>
83.7856

> <PUBCHEM_FEATURE_SELFOVERLAP>
56.022

> <PUBCHEM_SHAPE_FINGERPRINT>
10369192 42 16520494616798286968
10498660 4 18341618122068964389
10616163 171 18409165506583025119
10756046 5 18339358681787910926
10863032 1 18410575127934635292
10967382 1 18266744756420312099
11578080 2 17749684990927021977
12054548 360 18334862684009989811
12403260 363 18342460301538354408
12553582 1 18194414303384785083
12670546 177 18334008406688651174
12788726 201 18342462521440393619
13140716 1 18339926038135016363
13224815 77 18408326566288830106
14790565 3 18048028859978913089
15196674 1 18412262852281443478
16945 1 18120370123088018642
17349148 13 18060421283678063072
17492 89 18411417340851991626
19591789 44 17762336920724395627
20691752 17 17131832118505147250
20775438 99 17033934700240931143
20871999 31 18411985758566805807
21267235 1 18339634663190479995
221357 26 18408887308898294415
221490 88 18411976970863686946
22182313 1 18117582681002795441
22393880 68 18409442622763665710
23227448 37 18339360884784426229
23352939 185 18116142286373688961
23402539 116 18340772555046595556
23557571 272 18260539013708092958
23559900 14 18189341341549306074
2748010 2 18263384550238633587
335352 9 18051413160440825356
350125 39 18409444821781756713
474 4 17417799656766888068
5104073 3 18341049704669402000
633830 44 16987987418795399248
9709674 26 18412255130326143946
9981440 41 17769084645592410144

> <PUBCHEM_SHAPE_MULTIPOLES>
473.4
9.08
3.27
0.97
3.58
0.17
0.4
-0.45
-2.83
-2.22
-0.37
0.42
0.09
-0.25

> <PUBCHEM_SHAPE_SELFOVERLAP>
1055.442

> <PUBCHEM_SHAPE_VOLUME>
253.7

> <PUBCHEM_COORDINATE_TYPE>
2
5
10

$$$$

