442536
  -OEChem-07051212582D

 25 26  0     1  0  0  0  0  0999 V2000
    6.3981    0.7535    0.0000 O   0  0  0  0  0  0  0  0  0  0  0  0
    5.4804    2.2673    0.0000 O   0  0  0  0  0  0  0  0  0  0  0  0
    2.8660   -2.2673    0.0000 O   0  0  0  0  0  0  0  0  0  0  0  0
    2.8660    0.7327    0.0000 N   0  0  0  0  0  0  0  0  0  0  0  0
    2.8660   -0.2673    0.0000 C   0  0  3  0  0  0  0  0  0  0  0  0
    4.5981   -0.2673    0.0000 C   0  0  0  0  0  0  0  0  0  0  0  0
    3.7320   -0.7673    0.0000 C   0  0  0  0  0  0  0  0  0  0  0  0
    5.4920   -0.8020    0.0000 C   0  0  0  0  0  0  0  0  0  0  0  0
    4.5981    0.7327    0.0000 C   0  0  0  0  0  0  0  0  0  0  0  0
    6.3981   -0.2881    0.0000 C   0  0  0  0  0  0  0  0  0  0  0  0
    3.7320    1.2327    0.0000 C   0  0  0  0  0  0  0  0  0  0  0  0
    2.0000   -0.7673    0.0000 C   0  0  0  0  0  0  0  0  0  0  0  0
    5.4920    1.2674    0.0000 C   0  0  0  0  0  0  0  0  0  0  0  0
    3.7320   -1.7673    0.0000 C   0  0  0  0  0  0  0  0  0  0  0  0
    2.1299    0.1577    0.0000 H   0  0  0  0  0  0  0  0  0  0  0  0
    5.0874   -1.2718    0.0000 H   0  0  0  0  0  0  0  0  0  0  0  0
    5.8856   -1.2810    0.0000 H   0  0  0  0  0  0  0  0  0  0  0  0
    2.3291    1.0427    0.0000 H   0  0  0  0  0  0  0  0  0  0  0  0
    6.6071   -0.8718    0.0000 H   0  0  0  0  0  0  0  0  0  0  0  0
    7.0089   -0.1820    0.0000 H   0  0  0  0  0  0  0  0  0  0  0  0
    3.7320    1.8527    0.0000 H   0  0  0  0  0  0  0  0  0  0  0  0
    1.6900   -0.2304    0.0000 H   0  0  0  0  0  0  0  0  0  0  0  0
    1.4631   -1.0773    0.0000 H   0  0  0  0  0  0  0  0  0  0  0  0
    2.3100   -1.3042    0.0000 H   0  0  0  0  0  0  0  0  0  0  0  0
    4.2690   -2.0773    0.0000 H   0  0  0  0  0  0  0  0  0  0  0  0
  1 10  1  0  0  0  0
  1 13  1  0  0  0  0
  2 13  2  0  0  0  0
  3 14  2  0  0  0  0
  4  5  1  0  0  0  0
  4 11  1  0  0  0  0
  4 18  1  0  0  0  0
  5  7  1  0  0  0  0
  5 12  1  0  0  0  0
  5 15  1  0  0  0  0
  6  7  2  0  0  0  0
  6  8  1  0  0  0  0
  6  9  1  0  0  0  0
  7 14  1  0  0  0  0
  8 10  1  0  0  0  0
  8 16  1  0  0  0  0
  8 17  1  0  0  0  0
  9 11  2  0  0  0  0
  9 13  1  0  0  0  0
 10 19  1  0  0  0  0
 10 20  1  0  0  0  0
 11 21  1  0  0  0  0
 12 22  1  0  0  0  0
 12 23  1  0  0  0  0
 12 24  1  0  0  0  0
 14 25  1  0  0  0  0
M  END
> <PUBCHEM_COMPOUND_CID>
442536

> <PUBCHEM_COMPOUND_CANONICALIZED>
1

> <PUBCHEM_CACTVS_COMPLEXITY>
354

> <PUBCHEM_CACTVS_HBOND_ACCEPTOR>
4

> <PUBCHEM_CACTVS_HBOND_DONOR>
1

> <PUBCHEM_CACTVS_ROTATABLE_BOND>
1

> <PUBCHEM_CACTVS_SUBSKEYS>
AAADccByMAAAAAAAAAAAAAAAAAAAAAAAAAAkQAAAAAAAAACAAAAAHgAQAAAADCjhgAYCCALABACIAgjWyACAAAAgAAAACIEIAEgIBBoAIAAGAAAE0AAIocKIBAAAAAAAAAAAAAAAAAAAAAAAAAAAAAAAAA==

> <PUBCHEM_IUPAC_OPENEYE_NAME>
6-methyl-1-oxo-3,4,6,7-tetrahydropyrano[3,4-c]pyridine-5-carbaldehyde

> <PUBCHEM_IUPAC_CAS_NAME>
6-methyl-1-oxo-3,4,6,7-tetrahydropyrano[3,4-c]pyridine-5-carboxaldehyde

> <PUBCHEM_IUPAC_NAME>
6-methyl-1-oxo-3,4,6,7-tetrahydropyrano[3,4-c]pyridine-5-carbaldehyde

> <PUBCHEM_IUPAC_SYSTEMATIC_NAME>
6-methyl-1-oxidanylidene-3,4,6,7-tetrahydropyrano[3,4-c]pyridine-5-carbaldehyde

> <PUBCHEM_IUPAC_TRADITIONAL_NAME>
1-keto-6-methyl-3,4,6,7-tetrahydropyrano[3,4-c]pyridine-5-carbaldehyde

> <PUBCHEM_IUPAC_INCHI>
InChI=1S/C10H11NO3/c1-6-9(5-12)7-2-3-14-10(13)8(7)4-11-6/h4-6,11H,2-3H2,1H3

> <PUBCHEM_IUPAC_INCHIKEY>
GLNRAZLQBMAROT-UHFFFAOYSA-N

> <PUBCHEM_XLOGP3_AA>
-0.1

> <PUBCHEM_EXACT_MASS>
193.073893

> <PUBCHEM_MOLECULAR_FORMULA>
C10H11NO3

> <PUBCHEM_MOLECULAR_WEIGHT>
193.19924

> <PUBCHEM_OPENEYE_CAN_SMILES>
CC1C(=C2CCOC(=O)C2=CN1)C=O

> <PUBCHEM_OPENEYE_ISO_SMILES>
CC1C(=C2CCOC(=O)C2=CN1)C=O

> <PUBCHEM_CACTVS_TPSA>
55.4

> <PUBCHEM_MONOISOTOPIC_WEIGHT>
193.073893

> <PUBCHEM_TOTAL_CHARGE>
0

> <PUBCHEM_HEAVY_ATOM_COUNT>
14

> <PUBCHEM_ATOM_DEF_STEREO_COUNT>
0

> <PUBCHEM_ATOM_UDEF_STEREO_COUNT>
1

> <PUBCHEM_BOND_DEF_STEREO_COUNT>
0

> <PUBCHEM_BOND_UDEF_STEREO_COUNT>
0

> <PUBCHEM_ISOTOPIC_ATOM_COUNT>
0

> <PUBCHEM_COMPONENT_COUNT>
1

> <PUBCHEM_CACTVS_TAUTO_COUNT>
5

> <PUBCHEM_COORDINATE_TYPE>
1
5
255

> <PUBCHEM_BONDANNOTATIONS>
5  15  3

$$$$

