17395286
  -OEChem-06241222493D

 39 40  0     0  0  0  0  0  0999 V2000
   -4.2152   -1.3664    1.9561 S   0  0  0  0  0  0  0  0  0  0  0  0
   -0.0523   -0.6710   -0.1461 O   0  0  0  0  0  0  0  0  0  0  0  0
    3.9189   -1.3553   -0.8121 O   0  0  0  0  0  0  0  0  0  0  0  0
    5.7506    0.4802    0.1470 O   0  0  0  0  0  0  0  0  0  0  0  0
    1.3544   -1.6179   -1.7027 O   0  0  0  0  0  0  0  0  0  0  0  0
   -5.0297    1.6181   -1.5371 O   0  0  0  0  0  0  0  0  0  0  0  0
   -3.2695   -0.4018   -0.2479 N   0  0  0  0  0  0  0  0  0  0  0  0
   -5.4101    0.4355    0.4735 N   0  0  0  0  0  0  0  0  0  0  0  0
    2.1285    0.1480   -0.3002 C   0  0  0  0  0  0  0  0  0  0  0  0
    3.4896   -0.1571   -0.3215 C   0  0  0  0  0  0  0  0  0  0  0  0
    4.4184    0.7647    0.1615 C   0  0  0  0  0  0  0  0  0  0  0  0
   -1.1067   -1.5518   -0.5490 C   0  0  0  0  0  0  0  0  0  0  0  0
    1.6964    1.3747    0.2038 C   0  0  0  0  0  0  0  0  0  0  0  0
   -2.3552   -1.3186    0.2334 C   0  0  0  0  0  0  0  0  0  0  0  0
    1.1414   -0.7992   -0.8005 C   0  0  0  0  0  0  0  0  0  0  0  0
    3.9863    1.9915    0.6656 C   0  0  0  0  0  0  0  0  0  0  0  0
    2.6252    2.2963    0.6868 C   0  0  0  0  0  0  0  0  0  0  0  0
   -2.6931   -1.9428    1.4158 C   0  0  0  0  0  0  0  0  0  0  0  0
   -4.2895   -0.3448    0.5793 C   0  0  0  0  0  0  0  0  0  0  0  0
    4.0264   -2.4324    0.1154 C   0  0  0  0  0  0  0  0  0  0  0  0
    6.6320    1.4776    0.6593 C   0  0  0  0  0  0  0  0  0  0  0  0
   -5.7083    1.3484   -0.5518 C   0  0  0  0  0  0  0  0  0  0  0  0
   -7.0386    2.0241   -0.3287 C   0  0  0  0  0  0  0  0  0  0  0  0
   -1.3141   -1.3938   -1.6145 H   0  0  0  0  0  0  0  0  0  0  0  0
   -0.7766   -2.5892   -0.4149 H   0  0  0  0  0  0  0  0  0  0  0  0
    0.6448    1.6485    0.2215 H   0  0  0  0  0  0  0  0  0  0  0  0
    4.6492    2.7556    1.0563 H   0  0  0  0  0  0  0  0  0  0  0  0
    2.2881    3.2527    1.0762 H   0  0  0  0  0  0  0  0  0  0  0  0
   -2.1391   -2.6853    1.9726 H   0  0  0  0  0  0  0  0  0  0  0  0
   -6.0837    0.3255    1.2274 H   0  0  0  0  0  0  0  0  0  0  0  0
    4.3339   -3.3268   -0.4332 H   0  0  0  0  0  0  0  0  0  0  0  0
    3.0637   -2.6321    0.5965 H   0  0  0  0  0  0  0  0  0  0  0  0
    4.7839   -2.2105    0.8737 H   0  0  0  0  0  0  0  0  0  0  0  0
    6.5936    2.3954    0.0627 H   0  0  0  0  0  0  0  0  0  0  0  0
    6.4552    1.6641    1.7241 H   0  0  0  0  0  0  0  0  0  0  0  0
    7.6499    1.0839    0.5708 H   0  0  0  0  0  0  0  0  0  0  0  0
   -7.0304    2.5517    0.6293 H   0  0  0  0  0  0  0  0  0  0  0  0
   -7.8365    1.2762   -0.3273 H   0  0  0  0  0  0  0  0  0  0  0  0
   -7.2280    2.7449   -1.1289 H   0  0  0  0  0  0  0  0  0  0  0  0
  1 18  1  0  0  0  0
  1 19  1  0  0  0  0
  2 12  1  0  0  0  0
  2 15  1  0  0  0  0
  3 10  1  0  0  0  0
  3 20  1  0  0  0  0
  4 11  1  0  0  0  0
  4 21  1  0  0  0  0
  5 15  2  0  0  0  0
  6 22  2  0  0  0  0
  7 14  1  0  0  0  0
  7 19  2  0  0  0  0
  8 19  1  0  0  0  0
  8 22  1  0  0  0  0
  8 30  1  0  0  0  0
  9 10  2  0  0  0  0
  9 13  1  0  0  0  0
  9 15  1  0  0  0  0
 10 11  1  0  0  0  0
 11 16  2  0  0  0  0
 12 14  1  0  0  0  0
 12 24  1  0  0  0  0
 12 25  1  0  0  0  0
 13 17  2  0  0  0  0
 13 26  1  0  0  0  0
 14 18  2  0  0  0  0
 16 17  1  0  0  0  0
 16 27  1  0  0  0  0
 17 28  1  0  0  0  0
 18 29  1  0  0  0  0
 20 31  1  0  0  0  0
 20 32  1  0  0  0  0
 20 33  1  0  0  0  0
 21 34  1  0  0  0  0
 21 35  1  0  0  0  0
 21 36  1  0  0  0  0
 22 23  1  0  0  0  0
 23 37  1  0  0  0  0
 23 38  1  0  0  0  0
 23 39  1  0  0  0  0
M  END
> <PUBCHEM_COMPOUND_CID>
17395286

> <PUBCHEM_CONFORMER_RMSD>
1.2

> <PUBCHEM_CONFORMER_DIVERSEORDER>
1
20
34
28
24
62
19
66
47
61
25
29
30
52
77
7
73
26
72
48
9
49
70
10
55
53
46
15
58
40
8
51
45
59
54
32
33
22
75
56
23
71
18
74
38
44
31
5
43
41
16
6
2
64
21
13
68
37
4
57
69
76
12
17
14
3
67
36
27
42
65
63
11
35
60
50
39

> <PUBCHEM_MMFF94_PARTIAL_CHARGES>
28
1 -0.08
10 0.08
11 0.08
12 0.46
13 -0.15
14 0.05
15 0.63
16 -0.15
17 -0.15
18 -0.11
19 0.44
2 -0.43
20 0.28
21 0.28
22 0.57
23 0.06
26 0.15
27 0.15
28 0.15
29 0.15
3 -0.36
30 0.37
4 -0.36
5 -0.57
6 -0.57
7 -0.57
8 -0.49
9 0.09

> <PUBCHEM_EFFECTIVE_ROTOR_COUNT>
8

> <PUBCHEM_PHARMACOPHORE_FEATURES>
7
1 3 acceptor
1 4 acceptor
1 5 acceptor
1 6 acceptor
1 8 donor
5 1 7 14 18 19 rings
6 9 10 11 13 16 17 rings

> <PUBCHEM_HEAVY_ATOM_COUNT>
23

> <PUBCHEM_ATOM_DEF_STEREO_COUNT>
0

> <PUBCHEM_ATOM_UDEF_STEREO_COUNT>
0

> <PUBCHEM_BOND_DEF_STEREO_COUNT>
0

> <PUBCHEM_BOND_UDEF_STEREO_COUNT>
0

> <PUBCHEM_ISOTOPIC_ATOM_COUNT>
0

> <PUBCHEM_COMPONENT_COUNT>
1

> <PUBCHEM_CACTVS_TAUTO_COUNT>
3

> <PUBCHEM_CONFORMER_ID>
01096E5600000001

> <PUBCHEM_MMFF94_ENERGY>
70.6858

> <PUBCHEM_FEATURE_SELFOVERLAP>
35.531

> <PUBCHEM_SHAPE_FINGERPRINT>
10319926 262 17775273964011449539
11089746 13 16443345339204633584
11370993 144 18343585144297686503
11545043 162 17988352694386870163
12403259 415 18340194237837559875
12596602 18 15051718777981671669
12633257 1 16056878001415846919
12778500 126 17846225500696140296
13103583 49 14261344783035531605
13402501 40 18410858780792691581
13583140 156 18337947879394381307
13675066 3 18272081665386460467
13878862 14 18261975018844102780
14350574 20 9799694800528138678
14790565 3 17545882625571039508
14950920 106 13973384869664954957
15142383 8 18272093799254530176
15188451 53 17202199595720954243
15238133 3 17917986161785008636
20157964 124 18114179769987731271
20511986 3 17676500410355440066
20621476 21 8574424353352248901
21033648 29 18339088098605735057
21054139 6 5545201627201002924
21279426 13 18270119153216037431
21421861 104 18059308646936413570
23559900 14 18130775806792229615
2838139 119 18263649618873115093
312425 54 17274829034383117618
3737641 26 14045205002859918888
5104073 3 18342168977727082619
9995097 60 18412262826437611238

> <PUBCHEM_SHAPE_MULTIPOLES>
437.87
16.73
2.59
1.26
8.57
0.1
-0.13
9.6
-1.43
0.19
-0.19
1.01
-0.37
2.92

> <PUBCHEM_SHAPE_SELFOVERLAP>
909.706

> <PUBCHEM_SHAPE_VOLUME>
252

> <PUBCHEM_COORDINATE_TYPE>
2
5
10

$$$$

