442943
  -OEChem-07051213002D

 39 42  0     1  0  0  0  0  0999 V2000
    3.1608   -2.7362    0.0000 O   0  0  0  0  0  0  0  0  0  0  0  0
    9.1563   -0.3778    0.0000 O   0  0  0  0  0  0  0  0  0  0  0  0
    2.8520    0.3176    0.0000 N   0  0  3  0  0  0  0  0  0  0  0  0
    7.7826    0.7386    0.0000 N   0  0  0  0  0  0  0  0  0  0  0  0
    5.3007    1.1540    0.0000 C   0  0  2  0  0  0  0  0  0  0  0  0
    3.7656   -0.0892    0.0000 C   0  0  1  0  0  0  0  0  0  0  0  0
    5.5596    2.1199    0.0000 C   0  0  1  0  0  0  0  0  0  0  0  0
    4.8229    3.1025    0.0000 C   0  0  0  0  0  0  0  0  0  0  0  0
    2.9566    1.3121    0.0000 C   0  0  0  0  0  0  0  0  0  0  0  0
    3.8904   -1.1233    0.0000 C   0  0  0  0  0  0  0  0  0  0  0  0
    7.0054    0.1093    0.0000 C   0  0  0  0  0  0  0  0  0  0  0  0
    2.0000   -0.2816    0.0000 C   0  0  0  0  0  0  0  0  0  0  0  0
    7.4242    1.6722    0.0000 C   0  0  0  0  0  0  0  0  0  0  0  0
    3.0525   -1.7420    0.0000 C   0  0  2  0  0  0  0  0  0  0  0  0
    2.1009   -1.3184    0.0000 C   0  0  0  0  0  0  0  0  0  0  0  0
    8.0672    2.4917    0.0000 C   0  0  0  0  0  0  0  0  0  0  0  0
    8.8088    0.5599    0.0000 C   0  0  0  0  0  0  0  0  0  0  0  0
    9.0972    2.3367    0.0000 C   0  0  0  0  0  0  0  0  0  0  0  0
    9.4705    1.3643    0.0000 C   0  0  0  0  0  0  0  0  0  0  0  0
    5.0807    0.3329    0.0000 H   0  0  0  0  0  0  0  0  0  0  0  0
    4.5421   -0.4349    0.0000 H   0  0  0  0  0  0  0  0  0  0  0  0
    5.7796    2.9409    0.0000 H   0  0  0  0  0  0  0  0  0  0  0  0
    5.1408    3.6349    0.0000 H   0  0  0  0  0  0  0  0  0  0  0  0
    4.2098    3.1945    0.0000 H   0  0  0  0  0  0  0  0  0  0  0  0
    2.8543    1.9236    0.0000 H   0  0  0  0  0  0  0  0  0  0  0  0
    2.3368    1.2932    0.0000 H   0  0  0  0  0  0  0  0  0  0  0  0
    4.1679   -1.6777    0.0000 H   0  0  0  0  0  0  0  0  0  0  0  0
    4.4842   -0.9448    0.0000 H   0  0  0  0  0  0  0  0  0  0  0  0
    6.6237   -0.3792    0.0000 H   0  0  0  0  0  0  0  0  0  0  0  0
    7.4476   -0.3252    0.0000 H   0  0  0  0  0  0  0  0  0  0  0  0
    1.7354    0.2791    0.0000 H   0  0  0  0  0  0  0  0  0  0  0  0
    1.4023   -0.4464    0.0000 H   0  0  0  0  0  0  0  0  0  0  0  0
    3.6203   -1.9909    0.0000 H   0  0  0  0  0  0  0  0  0  0  0  0
    1.4826   -1.2719    0.0000 H   0  0  0  0  0  0  0  0  0  0  0  0
    1.9494   -1.9196    0.0000 H   0  0  0  0  0  0  0  0  0  0  0  0
    7.8383    3.0680    0.0000 H   0  0  0  0  0  0  0  0  0  0  0  0
    2.6606   -3.1025    0.0000 H   0  0  0  0  0  0  0  0  0  0  0  0
    9.4855    2.8201    0.0000 H   0  0  0  0  0  0  0  0  0  0  0  0
   10.0825    1.2649    0.0000 H   0  0  0  0  0  0  0  0  0  0  0  0
 14  1  1  1  0  0  0
  1 37  1  0  0  0  0
  2 17  2  0  0  0  0
  3  6  1  0  0  0  0
  3  9  1  0  0  0  0
  3 12  1  0  0  0  0
  4 11  1  0  0  0  0
  4 13  1  0  0  0  0
  4 17  1  0  0  0  0
  5  6  1  0  0  0  0
  5  8  1  0  0  0  0
  5 11  1  0  0  0  0
  5 20  1  1  0  0  0
  6 10  1  0  0  0  0
  6 21  1  6  0  0  0
  7  8  1  0  0  0  0
  7  9  1  0  0  0  0
  7 13  1  0  0  0  0
  7 22  1  1  0  0  0
  8 23  1  0  0  0  0
  8 24  1  0  0  0  0
  9 25  1  0  0  0  0
  9 26  1  0  0  0  0
 10 14  1  0  0  0  0
 10 27  1  0  0  0  0
 10 28  1  0  0  0  0
 11 29  1  0  0  0  0
 11 30  1  0  0  0  0
 12 15  1  0  0  0  0
 12 31  1  0  0  0  0
 12 32  1  0  0  0  0
 13 16  2  0  0  0  0
 14 15  1  0  0  0  0
 14 33  1  0  0  0  0
 15 34  1  0  0  0  0
 15 35  1  0  0  0  0
 16 18  1  0  0  0  0
 16 36  1  0  0  0  0
 17 19  1  0  0  0  0
 18 19  2  0  0  0  0
 18 38  1  0  0  0  0
 19 39  1  0  0  0  0
M  END
> <PUBCHEM_COMPOUND_CID>
442943

> <PUBCHEM_COMPOUND_CANONICALIZED>
1

> <PUBCHEM_CACTVS_COMPLEXITY>
471

> <PUBCHEM_CACTVS_HBOND_ACCEPTOR>
3

> <PUBCHEM_CACTVS_HBOND_DONOR>
1

> <PUBCHEM_CACTVS_ROTATABLE_BOND>
0

> <PUBCHEM_CACTVS_SUBSKEYS>
AAADceBzMAAAAAAAAAAAAAAAAAAAAAAAAAAsWLEAAAAWAACwAAAAHgAACAAADTzhgAYAAAMAAgCIACVSUACAAAAgAgAICAAIAEgIEAIAwQAEQAAGhgCIgYOQ0OIOAAAAAAAAAAAAAAAAAAAAAAAAAAAAAA==

> <PUBCHEM_IUPAC_INCHI>
InChI=1S/C15H20N2O2/c18-12-4-5-16-8-10-6-11(14(16)7-12)9-17-13(10)2-1-3-15(17)19/h1-3,10-12,14,18H,4-9H2/t10-,11+,12-,14+/m0/s1

> <PUBCHEM_IUPAC_INCHIKEY>
AOOCSKCGZYCEJX-KZVDOYCCSA-N

> <PUBCHEM_XLOGP3_AA>
0.6

> <PUBCHEM_EXACT_MASS>
260.152478

> <PUBCHEM_MOLECULAR_FORMULA>
C15H20N2O2

> <PUBCHEM_MOLECULAR_WEIGHT>
260.3315

> <PUBCHEM_OPENEYE_CAN_SMILES>
C1CN2CC3CC(C2CC1O)CN4C3=CC=CC4=O

> <PUBCHEM_OPENEYE_ISO_SMILES>
C1CN2C[C@@H]3C[C@@H]([C@H]2C[C@H]1O)CN4C3=CC=CC4=O

> <PUBCHEM_CACTVS_TPSA>
43.8

> <PUBCHEM_MONOISOTOPIC_WEIGHT>
260.152478

> <PUBCHEM_TOTAL_CHARGE>
0

> <PUBCHEM_HEAVY_ATOM_COUNT>
19

> <PUBCHEM_ATOM_DEF_STEREO_COUNT>
4

> <PUBCHEM_ATOM_UDEF_STEREO_COUNT>
0

> <PUBCHEM_BOND_DEF_STEREO_COUNT>
0

> <PUBCHEM_BOND_UDEF_STEREO_COUNT>
0

> <PUBCHEM_ISOTOPIC_ATOM_COUNT>
0

> <PUBCHEM_COMPONENT_COUNT>
1

> <PUBCHEM_CACTVS_TAUTO_COUNT>
3

> <PUBCHEM_COORDINATE_TYPE>
1
5
255

> <PUBCHEM_BONDANNOTATIONS>
14  1  5
13  16  8
16  18  8
17  19  8
18  19  8
4  13  8
4  17  8
5  20  5
6  21  6
7  22  5

$$$$

