6452133
  -OEChem-07051213153D

 40 41  0     1  0  0  0  0  0999 V2000
    1.1131   -0.5692    0.1429 O   0  0  0  0  0  0  0  0  0  0  0  0
    0.0228    1.4936    0.1430 O   0  0  0  0  0  0  0  0  0  0  0  0
    4.8010    1.2339    0.2691 O   0  0  0  0  0  0  0  0  0  0  0  0
    4.5836   -1.5419   -0.5077 O   0  0  0  0  0  0  0  0  0  0  0  0
    2.4388    2.7458   -0.6338 O   0  0  0  0  0  0  0  0  0  0  0  0
    0.7238   -3.2593   -0.2667 O   0  0  0  0  0  0  0  0  0  0  0  0
   -1.6687    0.7752    2.2284 O   0  0  0  0  0  0  0  0  0  0  0  0
   -5.8782   -0.8875   -0.0707 O   0  0  0  0  0  0  0  0  0  0  0  0
    3.6504    0.6760   -0.3677 C   0  0  1  0  0  0  0  0  0  0  0  0
    3.5267   -0.7826    0.0733 C   0  0  1  0  0  0  0  0  0  0  0  0
    2.4111    1.4800    0.0253 C   0  0  2  0  0  0  0  0  0  0  0  0
    2.1825   -1.3698   -0.3636 C   0  0  1  0  0  0  0  0  0  0  0  0
    1.1271    0.7566   -0.3811 C   0  0  1  0  0  0  0  0  0  0  0  0
    1.9866   -2.7870    0.1658 C   0  0  0  0  0  0  0  0  0  0  0  0
   -1.2242    0.9935   -0.1140 C   0  0  0  0  0  0  0  0  0  0  0  0
   -2.0680    0.6354    0.9335 C   0  0  0  0  0  0  0  0  0  0  0  0
   -1.6396    0.8478   -1.4347 C   0  0  0  0  0  0  0  0  0  0  0  0
   -3.3375    0.1271    0.6582 C   0  0  0  0  0  0  0  0  0  0  0  0
   -2.9090    0.3396   -1.7099 C   0  0  0  0  0  0  0  0  0  0  0  0
   -3.7579   -0.0207   -0.6635 C   0  0  0  0  0  0  0  0  0  0  0  0
   -5.0815   -0.5505   -0.9510 C   0  0  0  0  0  0  0  0  0  0  0  0
   -1.0029   -0.3360    2.8250 C   0  0  0  0  0  0  0  0  0  0  0  0
    3.8296    0.7464   -1.4477 H   0  0  0  0  0  0  0  0  0  0  0  0
    3.6386   -0.8446    1.1627 H   0  0  0  0  0  0  0  0  0  0  0  0
    2.4158    1.6830    1.1028 H   0  0  0  0  0  0  0  0  0  0  0  0
    2.1038   -1.4034   -1.4588 H   0  0  0  0  0  0  0  0  0  0  0  0
    1.0561    0.7250   -1.4761 H   0  0  0  0  0  0  0  0  0  0  0  0
    1.9945   -2.8103    1.2606 H   0  0  0  0  0  0  0  0  0  0  0  0
    2.7559   -3.4689   -0.2074 H   0  0  0  0  0  0  0  0  0  0  0  0
    5.5674    0.6938    0.0106 H   0  0  0  0  0  0  0  0  0  0  0  0
    4.4881   -1.4987   -1.4746 H   0  0  0  0  0  0  0  0  0  0  0  0
    2.4367    2.5867   -1.5931 H   0  0  0  0  0  0  0  0  0  0  0  0
    0.0492   -2.6432    0.0671 H   0  0  0  0  0  0  0  0  0  0  0  0
   -1.0015    1.1408   -2.2632 H   0  0  0  0  0  0  0  0  0  0  0  0
   -3.9879   -0.1487    1.4849 H   0  0  0  0  0  0  0  0  0  0  0  0
   -3.2239    0.2342   -2.7449 H   0  0  0  0  0  0  0  0  0  0  0  0
   -5.3571   -0.6438   -2.0153 H   0  0  0  0  0  0  0  0  0  0  0  0
    0.0624   -0.3033    2.5822 H   0  0  0  0  0  0  0  0  0  0  0  0
   -1.4335   -1.2891    2.4999 H   0  0  0  0  0  0  0  0  0  0  0  0
   -1.1123   -0.2567    3.9102 H   0  0  0  0  0  0  0  0  0  0  0  0
  1 12  1  0  0  0  0
  1 13  1  0  0  0  0
  2 13  1  0  0  0  0
  2 15  1  0  0  0  0
  3  9  1  0  0  0  0
  3 30  1  0  0  0  0
  4 10  1  0  0  0  0
  4 31  1  0  0  0  0
  5 11  1  0  0  0  0
  5 32  1  0  0  0  0
  6 14  1  0  0  0  0
  6 33  1  0  0  0  0
  7 16  1  0  0  0  0
  7 22  1  0  0  0  0
  8 21  2  0  0  0  0
  9 10  1  0  0  0  0
  9 11  1  0  0  0  0
  9 23  1  0  0  0  0
 10 12  1  0  0  0  0
 10 24  1  0  0  0  0
 11 13  1  0  0  0  0
 11 25  1  0  0  0  0
 12 14  1  0  0  0  0
 12 26  1  0  0  0  0
 13 27  1  0  0  0  0
 14 28  1  0  0  0  0
 14 29  1  0  0  0  0
 15 16  2  0  0  0  0
 15 17  1  0  0  0  0
 16 18  1  0  0  0  0
 17 19  2  0  0  0  0
 17 34  1  0  0  0  0
 18 20  2  0  0  0  0
 18 35  1  0  0  0  0
 19 20  1  0  0  0  0
 19 36  1  0  0  0  0
 20 21  1  0  0  0  0
 21 37  1  0  0  0  0
 22 38  1  0  0  0  0
 22 39  1  0  0  0  0
 22 40  1  0  0  0  0
M  END
> <PUBCHEM_COMPOUND_CID>
6452133

> <PUBCHEM_CONFORMER_RMSD>
0.8

> <PUBCHEM_CONFORMER_DIVERSEORDER>
1
47
90
39
45
3
113
101
53
78
79
92
112
107
76
28
75
9
100
59
67
110
51
6
114
54
10
38
32
66
108
25
14
64
11
65
60
84
52
27
109
98
94
103
82
8
111
70
104
105
7
36
55
2
93
26
62
49
77
48
102
21
40
95
50
106
34
99
23
86
37
57
33
19
41
31
16
13
74
73
61
63
85
68
43
87
44
12
35
46
22
71
81
4
83
69
56
88
72
58
24
97
17
5
96
42
91
30
18
20
80
15
29
89

> <PUBCHEM_MMFF94_PARTIAL_CHARGES>
30
1 -0.56
10 0.28
11 0.28
12 0.28
13 0.56
14 0.28
15 0.08
16 0.08
17 -0.15
18 -0.15
19 -0.15
2 -0.36
20 0.09
21 0.42
22 0.28
3 -0.68
30 0.4
31 0.4
32 0.4
33 0.4
34 0.15
35 0.15
36 0.15
37 0.06
4 -0.68
5 -0.68
6 -0.68
7 -0.36
8 -0.57
9 0.28

> <PUBCHEM_EFFECTIVE_ROTOR_COUNT>
6.2

> <PUBCHEM_PHARMACOPHORE_FEATURES>
14
1 1 acceptor
1 2 acceptor
1 3 acceptor
1 3 donor
1 4 acceptor
1 4 donor
1 5 acceptor
1 5 donor
1 6 acceptor
1 6 donor
1 7 acceptor
1 8 acceptor
6 1 9 10 11 12 13 rings
6 15 16 17 18 19 20 rings

> <PUBCHEM_HEAVY_ATOM_COUNT>
22

> <PUBCHEM_ATOM_DEF_STEREO_COUNT>
5

> <PUBCHEM_ATOM_UDEF_STEREO_COUNT>
0

> <PUBCHEM_BOND_DEF_STEREO_COUNT>
0

> <PUBCHEM_BOND_UDEF_STEREO_COUNT>
0

> <PUBCHEM_ISOTOPIC_ATOM_COUNT>
0

> <PUBCHEM_COMPONENT_COUNT>
1

> <PUBCHEM_CACTVS_TAUTO_COUNT>
1

> <PUBCHEM_CONFORMER_ID>
006273A500000001

> <PUBCHEM_MMFF94_ENERGY>
78.3344

> <PUBCHEM_FEATURE_SELFOVERLAP>
71.106

> <PUBCHEM_SHAPE_FINGERPRINT>
10366900 7 17917984014491134486
10906281 52 17632280285784849949
11578080 2 12893677490092371118
11582403 64 16908400201194818004
11796584 16 17894912906830416799
12236239 1 17749105586837772725
12592029 89 18413113852743189086
12596599 1 17461427311510122126
12596602 18 17386005040435132803
12788726 201 17240473720158505835
13009979 54 17315353889094000378
13583140 156 17274823507214245072
13836976 161 18342738468952241932
13862211 1 18267585887728278190
13911987 19 18198607857844609180
14787075 74 17387150701359761176
14844126 61 16180167730223646882
15207287 21 17917996061563170080
15375358 24 17632574950542315904
15375462 189 17749400264665069295
15635459 17 18130505326825982970
16752209 62 16588595330623050253
17138139 8 17680449761586042279
18186145 218 17346602993223945061
19930381 70 18198064883588726683
200 152 18334016094669658629
20028762 73 18187369856776646398
20567600 347 16702031897789187827
20600515 1 15430044214712496929
20645477 70 18272091591108408332
2297311 6 15068609457889789336
23402539 116 16486983847414224117
23419403 2 4625890398704109589
23526113 38 17845936358701483747
23557571 272 17275112738580080965
23559900 14 16773792602381421608
23598288 3 17386849594156443209
238 59 18342172267492318826
2871803 45 18412829113591359718
3323516 105 18201726167156611999
33382 64 18337951195821030315
33824 294 18412830187586462550
4340502 62 18261960622044764625
4409770 3 15306797439209402497
602551 16 15213313984102662221
9709674 26 18202279242721730867

> <PUBCHEM_SHAPE_MULTIPOLES>
405.8
9.41
2.34
1.6
4.09
1.28
1.22
1.38
-2.24
-2.74
-0.34
1.53
-0.07
0.07

> <PUBCHEM_SHAPE_SELFOVERLAP>
849.996

> <PUBCHEM_SHAPE_VOLUME>
227

> <PUBCHEM_COORDINATE_TYPE>
2
5
10

$$$$

