442357
  -OEChem-07051212572D

 42 43  0     1  0  0  0  0  0999 V2000
    3.7690   -1.4145    0.0000 O   0  0  0  0  0  0  0  0  0  0  0  0
    2.5369   -0.5485    0.0000 O   0  0  0  0  0  0  0  0  0  0  0  0
    7.7991    1.4756    0.0000 O   0  0  0  0  0  0  0  0  0  0  0  0
    5.1350    0.9515    0.0000 C   0  0  2  0  0  0  0  0  0  0  0  0
    5.1350   -0.0485    0.0000 C   0  0  2  0  0  0  0  0  0  0  0  0
    4.2690   -0.5485    0.0000 C   0  0  1  0  0  0  0  0  0  0  0  0
    4.2690    1.4515    0.0000 C   0  0  0  0  0  0  0  0  0  0  0  0
    3.4030   -0.0485    0.0000 C   0  0  1  0  0  0  0  0  0  0  0  0
    6.0290   -0.5832    0.0000 C   0  0  0  0  0  0  0  0  0  0  0  0
    6.0290    1.4861    0.0000 C   0  0  0  0  0  0  0  0  0  0  0  0
    3.4030    0.9515    0.0000 C   0  0  0  0  0  0  0  0  0  0  0  0
    5.1350    1.9515    0.0000 C   0  0  0  0  0  0  0  0  0  0  0  0
    6.9350   -0.0693    0.0000 C   0  0  0  0  0  0  0  0  0  0  0  0
    4.7690   -1.4145    0.0000 C   0  0  0  0  0  0  0  0  0  0  0  0
    6.9350    0.9723    0.0000 C   0  0  0  0  0  0  0  0  0  0  0  0
    7.7991   -0.5727    0.0000 C   0  0  0  0  0  0  0  0  0  0  0  0
    7.7953   -1.5727    0.0000 C   0  0  0  0  0  0  0  0  0  0  0  0
    8.6671   -0.0760    0.0000 C   0  0  0  0  0  0  0  0  0  0  0  0
    5.1285   -0.8985    0.0000 H   0  0  0  0  0  0  0  0  0  0  0  0
    4.6675    1.9264    0.0000 H   0  0  0  0  0  0  0  0  0  0  0  0
    3.8705    1.9264    0.0000 H   0  0  0  0  0  0  0  0  0  0  0  0
    3.4030   -0.6685    0.0000 H   0  0  0  0  0  0  0  0  0  0  0  0
    5.6244   -1.0530    0.0000 H   0  0  0  0  0  0  0  0  0  0  0  0
    6.4226   -1.0622    0.0000 H   0  0  0  0  0  0  0  0  0  0  0  0
    6.4226    1.9652    0.0000 H   0  0  0  0  0  0  0  0  0  0  0  0
    5.6244    1.9559    0.0000 H   0  0  0  0  0  0  0  0  0  0  0  0
    3.1909    1.5341    0.0000 H   0  0  0  0  0  0  0  0  0  0  0  0
    2.7924    0.8438    0.0000 H   0  0  0  0  0  0  0  0  0  0  0  0
    5.7550    1.9515    0.0000 H   0  0  0  0  0  0  0  0  0  0  0  0
    5.1350    2.5715    0.0000 H   0  0  0  0  0  0  0  0  0  0  0  0
    4.5150    1.9515    0.0000 H   0  0  0  0  0  0  0  0  0  0  0  0
    4.2320   -1.7245    0.0000 H   0  0  0  0  0  0  0  0  0  0  0  0
    5.0790   -1.9515    0.0000 H   0  0  0  0  0  0  0  0  0  0  0  0
    5.3059   -1.1045    0.0000 H   0  0  0  0  0  0  0  0  0  0  0  0
    4.0790   -1.9515    0.0000 H   0  0  0  0  0  0  0  0  0  0  0  0
    2.0000   -0.2385    0.0000 H   0  0  0  0  0  0  0  0  0  0  0  0
    8.9750   -0.6141    0.0000 H   0  0  0  0  0  0  0  0  0  0  0  0
    9.2052    0.2319    0.0000 H   0  0  0  0  0  0  0  0  0  0  0  0
    8.3591    0.4621    0.0000 H   0  0  0  0  0  0  0  0  0  0  0  0
    7.1753   -1.5703    0.0000 H   0  0  0  0  0  0  0  0  0  0  0  0
    7.7929   -2.1927    0.0000 H   0  0  0  0  0  0  0  0  0  0  0  0
    8.4152   -1.5750    0.0000 H   0  0  0  0  0  0  0  0  0  0  0  0
  6  1  1  6  0  0  0
  1 35  1  0  0  0  0
  8  2  1  6  0  0  0
  2 36  1  0  0  0  0
  3 15  2  0  0  0  0
  4  5  1  0  0  0  0
  4  7  1  0  0  0  0
  4 10  1  0  0  0  0
  4 12  1  1  0  0  0
  5  6  1  0  0  0  0
  5  9  1  0  0  0  0
  5 19  1  6  0  0  0
  6  8  1  0  0  0  0
  6 14  1  0  0  0  0
  7 11  1  0  0  0  0
  7 20  1  0  0  0  0
  7 21  1  0  0  0  0
  8 11  1  0  0  0  0
  8 22  1  0  0  0  0
  9 13  1  0  0  0  0
  9 23  1  0  0  0  0
  9 24  1  0  0  0  0
 10 15  1  0  0  0  0
 10 25  1  0  0  0  0
 10 26  1  0  0  0  0
 11 27  1  0  0  0  0
 11 28  1  0  0  0  0
 12 29  1  0  0  0  0
 12 30  1  0  0  0  0
 12 31  1  0  0  0  0
 13 15  1  0  0  0  0
 13 16  2  0  0  0  0
 14 32  1  0  0  0  0
 14 33  1  0  0  0  0
 14 34  1  0  0  0  0
 16 17  1  0  0  0  0
 16 18  1  0  0  0  0
 17 40  1  0  0  0  0
 17 41  1  0  0  0  0
 17 42  1  0  0  0  0
 18 37  1  0  0  0  0
 18 38  1  0  0  0  0
 18 39  1  0  0  0  0
M  END
> <PUBCHEM_COMPOUND_CID>
442357

> <PUBCHEM_COMPOUND_CANONICALIZED>
1

> <PUBCHEM_CACTVS_COMPLEXITY>
408

> <PUBCHEM_CACTVS_HBOND_ACCEPTOR>
3

> <PUBCHEM_CACTVS_HBOND_DONOR>
2

> <PUBCHEM_CACTVS_ROTATABLE_BOND>
0

> <PUBCHEM_CACTVS_SUBSKEYS>
AAADceBwMAAAAAAAAAAAAAAAAAAAAAAAAAAwYAAAAAAAAADAAAAAGgAACAAAD1SggAICAAAAAgCIAoBQAAAAAAAgAAAACAEAAEgBEBIAAAAAQAAEgAAJAQOIzPDPgAAAAAAAAABAAAYAADCAAAAAAAAAAA==

> <PUBCHEM_IUPAC_OPENEYE_NAME>
(4aR,5S,6R,8aR)-5,6-dihydroxy-3-isopropylidene-5,8a-dimethyl-decalin-2-one

> <PUBCHEM_IUPAC_CAS_NAME>
(4aR,5S,6R,8aR)-5,6-dihydroxy-5,8a-dimethyl-3-propan-2-ylidene-1,4,4a,6,7,8-hexahydronaphthalen-2-one

> <PUBCHEM_IUPAC_NAME>
(4aR,5S,6R,8aR)-5,6-dihydroxy-5,8a-dimethyl-3-propan-2-ylidene-1,4,4a,6,7,8-hexahydronaphthalen-2-one

> <PUBCHEM_IUPAC_SYSTEMATIC_NAME>
(4aR,5S,6R,8aR)-5,8a-dimethyl-5,6-bis(oxidanyl)-3-propan-2-ylidene-1,4,4a,6,7,8-hexahydronaphthalen-2-one

> <PUBCHEM_IUPAC_TRADITIONAL_NAME>
(4aR,5S,6R,8aR)-5,6-dihydroxy-3-isopropylidene-5,8a-dimethyl-decalin-2-one

> <PUBCHEM_IUPAC_INCHI>
InChI=1S/C15H24O3/c1-9(2)10-7-12-14(3,8-11(10)16)6-5-13(17)15(12,4)18/h12-13,17-18H,5-8H2,1-4H3/t12-,13-,14-,15+/m1/s1

> <PUBCHEM_IUPAC_INCHIKEY>
JYWBCQDZTOFWOI-TUVASFSCSA-N

> <PUBCHEM_XLOGP3_AA>
1.8

> <PUBCHEM_EXACT_MASS>
252.172545

> <PUBCHEM_MOLECULAR_FORMULA>
C15H24O3

> <PUBCHEM_MOLECULAR_WEIGHT>
252.34926

> <PUBCHEM_OPENEYE_CAN_SMILES>
CC(=C1CC2C(CCC(C2(C)O)O)(CC1=O)C)C

> <PUBCHEM_OPENEYE_ISO_SMILES>
CC(=C1C[C@@H]2[C@](CC[C@H]([C@@]2(C)O)O)(CC1=O)C)C

> <PUBCHEM_CACTVS_TPSA>
57.5

> <PUBCHEM_MONOISOTOPIC_WEIGHT>
252.172545

> <PUBCHEM_TOTAL_CHARGE>
0

> <PUBCHEM_HEAVY_ATOM_COUNT>
18

> <PUBCHEM_ATOM_DEF_STEREO_COUNT>
4

> <PUBCHEM_ATOM_UDEF_STEREO_COUNT>
0

> <PUBCHEM_BOND_DEF_STEREO_COUNT>
0

> <PUBCHEM_BOND_UDEF_STEREO_COUNT>
0

> <PUBCHEM_ISOTOPIC_ATOM_COUNT>
0

> <PUBCHEM_COMPONENT_COUNT>
1

> <PUBCHEM_CACTVS_TAUTO_COUNT>
5

> <PUBCHEM_COORDINATE_TYPE>
1
5
255

> <PUBCHEM_BONDANNOTATIONS>
6  1  6
8  2  6
4  12  5
5  19  6

$$$$

