442542
  -OEChem-07051212583D

 52 54  0     1  0  0  0  0  0999 V2000
   -0.6193    0.0034    0.2424 O   0  0  0  0  0  0  0  0  0  0  0  0
    0.5332   -2.7968   -1.8889 O   0  0  0  0  0  0  0  0  0  0  0  0
    3.3768   -2.6325   -0.5253 O   0  0  0  0  0  0  0  0  0  0  0  0
    3.6868    1.9310    0.7510 O   0  0  0  0  0  0  0  0  0  0  0  0
   -0.9134   -2.4247    0.0127 C   0  0  0  0  0  0  0  0  0  0  0  0
    0.5209   -2.6095   -0.4767 C   0  0  2  0  0  0  0  0  0  0  0  0
   -1.4067   -1.0261   -0.3779 C   0  0  1  0  0  0  0  0  0  0  0  0
    1.3458   -1.3947   -0.1571 C   0  0  0  0  0  0  0  0  0  0  0  0
    0.7384   -0.1753    0.1722 C   0  0  0  0  0  0  0  0  0  0  0  0
    1.5197    0.9396    0.4879 C   0  0  0  0  0  0  0  0  0  0  0  0
   -2.8526   -0.8254    0.0260 C   0  0  0  0  0  0  0  0  0  0  0  0
    2.7455   -1.4691   -0.1948 C   0  0  0  0  0  0  0  0  0  0  0  0
    2.9104    0.8515    0.4527 C   0  0  0  0  0  0  0  0  0  0  0  0
    0.8724    2.2367    0.8592 C   0  0  0  0  0  0  0  0  0  0  0  0
    3.5232   -0.3511    0.1085 C   0  0  0  0  0  0  0  0  0  0  0  0
   -3.8760   -1.1595   -0.8602 C   0  0  0  0  0  0  0  0  0  0  0  0
   -3.1589   -0.3071    1.2838 C   0  0  0  0  0  0  0  0  0  0  0  0
    0.6165    3.1234   -0.3325 C   0  0  0  0  0  0  0  0  0  0  0  0
   -5.2076   -0.9749   -0.4882 C   0  0  0  0  0  0  0  0  0  0  0  0
   -4.4906   -0.1226    1.6557 C   0  0  0  0  0  0  0  0  0  0  0  0
   -5.5149   -0.4565    0.7696 C   0  0  0  0  0  0  0  0  0  0  0  0
   -0.5604    3.6188   -0.7607 C   0  0  0  0  0  0  0  0  0  0  0  0
    3.6906   -3.5232    0.5422 C   0  0  0  0  0  0  0  0  0  0  0  0
    5.0999    1.7494    0.6893 C   0  0  0  0  0  0  0  0  0  0  0  0
   -0.7445    4.5012   -1.9627 C   0  0  0  0  0  0  0  0  0  0  0  0
   -1.8352    3.2940   -0.0283 C   0  0  0  0  0  0  0  0  0  0  0  0
   -0.9349   -2.5293    1.1060 H   0  0  0  0  0  0  0  0  0  0  0  0
   -1.5656   -3.1968   -0.4126 H   0  0  0  0  0  0  0  0  0  0  0  0
    0.9335   -3.5093   -0.0106 H   0  0  0  0  0  0  0  0  0  0  0  0
   -1.3317   -0.8768   -1.4642 H   0  0  0  0  0  0  0  0  0  0  0  0
   -0.0172    2.0359    1.4606 H   0  0  0  0  0  0  0  0  0  0  0  0
    1.5189    2.7928    1.5512 H   0  0  0  0  0  0  0  0  0  0  0  0
    4.5986   -0.4863    0.0582 H   0  0  0  0  0  0  0  0  0  0  0  0
   -0.0029   -3.5839   -2.0852 H   0  0  0  0  0  0  0  0  0  0  0  0
   -3.6491   -1.5661   -1.8421 H   0  0  0  0  0  0  0  0  0  0  0  0
   -2.3804   -0.0501    1.9969 H   0  0  0  0  0  0  0  0  0  0  0  0
    1.5065    3.4000   -0.8976 H   0  0  0  0  0  0  0  0  0  0  0  0
   -6.0053   -1.2354   -1.1777 H   0  0  0  0  0  0  0  0  0  0  0  0
   -4.7303    0.2786    2.6361 H   0  0  0  0  0  0  0  0  0  0  0  0
   -6.5517   -0.3135    1.0596 H   0  0  0  0  0  0  0  0  0  0  0  0
    3.8851   -4.5122    0.1185 H   0  0  0  0  0  0  0  0  0  0  0  0
    2.8706   -3.6046    1.2629 H   0  0  0  0  0  0  0  0  0  0  0  0
    4.5944   -3.1780    1.0538 H   0  0  0  0  0  0  0  0  0  0  0  0
    5.4331    1.5123   -0.3269 H   0  0  0  0  0  0  0  0  0  0  0  0
    5.4461    1.0159    1.4255 H   0  0  0  0  0  0  0  0  0  0  0  0
    5.5588    2.7069    0.9572 H   0  0  0  0  0  0  0  0  0  0  0  0
    0.2049    4.6844   -2.4764 H   0  0  0  0  0  0  0  0  0  0  0  0
   -1.4271    4.0323   -2.6787 H   0  0  0  0  0  0  0  0  0  0  0  0
   -1.1573    5.4709   -1.6668 H   0  0  0  0  0  0  0  0  0  0  0  0
   -1.7047    2.9847    1.0092 H   0  0  0  0  0  0  0  0  0  0  0  0
   -2.4774    4.1818    0.0102 H   0  0  0  0  0  0  0  0  0  0  0  0
   -2.3824    2.5098   -0.5614 H   0  0  0  0  0  0  0  0  0  0  0  0
  1  7  1  0  0  0  0
  1  9  1  0  0  0  0
  2  6  1  0  0  0  0
  2 34  1  0  0  0  0
  3 12  1  0  0  0  0
  3 23  1  0  0  0  0
  4 13  1  0  0  0  0
  4 24  1  0  0  0  0
  5  6  1  0  0  0  0
  5  7  1  0  0  0  0
  5 27  1  0  0  0  0
  5 28  1  0  0  0  0
  6  8  1  0  0  0  0
  6 29  1  0  0  0  0
  7 11  1  0  0  0  0
  7 30  1  0  0  0  0
  8  9  1  0  0  0  0
  8 12  2  0  0  0  0
  9 10  2  0  0  0  0
 10 13  1  0  0  0  0
 10 14  1  0  0  0  0
 11 16  2  0  0  0  0
 11 17  1  0  0  0  0
 12 15  1  0  0  0  0
 13 15  2  0  0  0  0
 14 18  1  0  0  0  0
 14 31  1  0  0  0  0
 14 32  1  0  0  0  0
 15 33  1  0  0  0  0
 16 19  1  0  0  0  0
 16 35  1  0  0  0  0
 17 20  2  0  0  0  0
 17 36  1  0  0  0  0
 18 22  2  0  0  0  0
 18 37  1  0  0  0  0
 19 21  2  0  0  0  0
 19 38  1  0  0  0  0
 20 21  1  0  0  0  0
 20 39  1  0  0  0  0
 21 40  1  0  0  0  0
 22 25  1  0  0  0  0
 22 26  1  0  0  0  0
 23 41  1  0  0  0  0
 23 42  1  0  0  0  0
 23 43  1  0  0  0  0
 24 44  1  0  0  0  0
 24 45  1  0  0  0  0
 24 46  1  0  0  0  0
 25 47  1  0  0  0  0
 25 48  1  0  0  0  0
 25 49  1  0  0  0  0
 26 50  1  0  0  0  0
 26 51  1  0  0  0  0
 26 52  1  0  0  0  0
M  END
> <PUBCHEM_COMPOUND_CID>
442542

> <PUBCHEM_CONFORMER_RMSD>
0.8

> <PUBCHEM_CONFORMER_DIVERSEORDER>
3
10
5
8
27
23
15
22
13
20
12
24
7
11
18
25
17
21
6
26
4
9
14
19
16
2
1

> <PUBCHEM_MMFF94_PARTIAL_CHARGES>
33
1 -0.36
10 -0.14
11 -0.14
12 0.08
13 0.08
14 0.28
15 -0.15
16 -0.15
17 -0.15
18 -0.29
19 -0.15
2 -0.68
20 -0.15
21 -0.15
22 -0.28
23 0.28
24 0.28
25 0.14
26 0.14
3 -0.36
33 0.15
34 0.4
35 0.15
36 0.15
37 0.15
38 0.15
39 0.15
4 -0.36
40 0.15
6 0.42
7 0.42
8 -0.14
9 0.08

> <PUBCHEM_EFFECTIVE_ROTOR_COUNT>
5.8

> <PUBCHEM_PHARMACOPHORE_FEATURES>
9
1 1 acceptor
1 2 acceptor
1 2 donor
1 3 acceptor
1 4 acceptor
3 22 25 26 hydrophobe
6 1 5 6 7 8 9 rings
6 11 16 17 19 20 21 rings
6 8 9 10 12 13 15 rings

> <PUBCHEM_HEAVY_ATOM_COUNT>
26

> <PUBCHEM_ATOM_DEF_STEREO_COUNT>
2

> <PUBCHEM_ATOM_UDEF_STEREO_COUNT>
0

> <PUBCHEM_BOND_DEF_STEREO_COUNT>
0

> <PUBCHEM_BOND_UDEF_STEREO_COUNT>
0

> <PUBCHEM_ISOTOPIC_ATOM_COUNT>
0

> <PUBCHEM_COMPONENT_COUNT>
1

> <PUBCHEM_CACTVS_TAUTO_COUNT>
1

> <PUBCHEM_CONFORMER_ID>
0006C0AE00000003

> <PUBCHEM_MMFF94_ENERGY>
91.1538

> <PUBCHEM_FEATURE_SELFOVERLAP>
45.698

> <PUBCHEM_SHAPE_FINGERPRINT>
10411042 1 18119244219509616726
10688039 33 18272365433980909981
108634 29 17761495098676281839
10906281 52 18198611151868052128
10967382 1 18336549309304021714
12236239 1 17603581907492873731
12293681 4 18060134285030798465
12403259 226 18337393867066962019
12422481 6 18190173684282767225
12788726 201 18201720712627449698
13052359 8 17549547756690507022
13140716 1 17976824185883340384
13402501 40 18270972331806918813
13540713 4 18119261803405445618
13965767 371 18045528351050381224
14178342 30 17901121723895330962
14790565 3 18050562946301875824
14840074 17 18268426828796478368
14955137 171 18126268754095217600
15042514 8 17472697404975322802
15081414 286 18411133610985178509
15420108 30 18040437663626901503
1601671 61 18337953372694112160
17357779 13 18340218448557905093
17980427 26 16081956779192151738
1813 80 18265033877741534423
18785283 64 17912915085735986825
19591789 44 18265050408690530088
20642791 178 17766837234813165140
20739085 24 18265874973892397537
21033648 144 18336271162800872023
21033648 29 17703799132500536887
21421861 104 18342184396976004434
21641784 216 18056735806485268124
22113638 7 18121504548631921141
22182313 1 18340499953288033388
2748010 2 18263936603823315856
335352 9 18261392183972432692
34934 24 18337115540844851714
350125 39 18336261353590926608
4409770 3 17764308740357604397
474 4 18264206920538301667
5104073 3 18335412470495973779
7237137 82 18122606517508284246

> <PUBCHEM_SHAPE_MULTIPOLES>
511.59
9.06
5.05
1.25
5.39
4.15
0.19
-3.16
-2.81
-2.59
2.25
0.71
0.36
0.76

> <PUBCHEM_SHAPE_SELFOVERLAP>
1092.452

> <PUBCHEM_SHAPE_VOLUME>
284.6

> <PUBCHEM_COORDINATE_TYPE>
2
5
10

$$$$

