12882
  -OEChem-06261207292D

 37 37  0     0  0  0  0  0  0999 V2000
    2.7537    0.0000    0.0000 O   0  0  0  0  0  0  0  0  0  0  0  0
    4.8228    2.8479    0.0000 O   0  0  0  0  0  0  0  0  0  0  0  0
    5.7364    1.0790    0.0000 O   0  0  0  0  0  0  0  0  0  0  0  0
    1.9845    6.2116    0.0000 O   0  5  0  0  0  0  0  0  0  0  0  0
    3.0627    2.5691    0.0000 N   0  3  0  0  0  0  0  0  0  0  0  0
    4.0138    1.2601    0.0000 N   0  0  0  0  0  0  0  0  0  0  0  0
    2.4749    1.7601    0.0000 C   0  0  0  0  0  0  0  0  0  0  0  0
    1.9749    0.8940    0.0000 C   0  0  0  0  0  0  0  0  0  0  0  0
    1.9749    2.6261    0.0000 C   0  0  0  0  0  0  0  0  0  0  0  0
    0.9749    0.8940    0.0000 C   0  0  0  0  0  0  0  0  0  0  0  0
    0.9749    2.6261    0.0000 C   0  0  0  0  0  0  0  0  0  0  0  0
    0.4749    1.7601    0.0000 C   0  0  0  0  0  0  0  0  0  0  0  0
    3.0627    0.9511    0.0000 C   0  0  0  0  0  0  0  0  0  0  0  0
    4.0138    2.2601    0.0000 C   0  0  0  0  0  0  0  0  0  0  0  0
    4.8228    0.6723    0.0000 C   0  0  0  0  0  0  0  0  0  0  0  0
    2.8505    5.7116    0.0000 C   0  0  0  0  0  0  0  0  0  0  0  0
    3.7165    6.2116    0.0000 C   0  0  0  0  0  0  0  0  0  0  0  0
    1.8673    0.2835    0.0000 H   0  0  0  0  0  0  0  0  0  0  0  0
    2.5576    0.6820    0.0000 H   0  0  0  0  0  0  0  0  0  0  0  0
    2.5576    2.8382    0.0000 H   0  0  0  0  0  0  0  0  0  0  0  0
    1.8673    3.2367    0.0000 H   0  0  0  0  0  0  0  0  0  0  0  0
    3.2543    3.1587    0.0000 H   0  0  0  0  0  0  0  0  0  0  0  0
    2.5611    2.9335    0.0000 H   0  0  0  0  0  0  0  0  0  0  0  0
    0.3923    0.6820    0.0000 H   0  0  0  0  0  0  0  0  0  0  0  0
    1.0826    0.2835    0.0000 H   0  0  0  0  0  0  0  0  0  0  0  0
    1.0826    3.2367    0.0000 H   0  0  0  0  0  0  0  0  0  0  0  0
    0.3923    2.8382    0.0000 H   0  0  0  0  0  0  0  0  0  0  0  0
    0.0000    2.1586    0.0000 H   0  0  0  0  0  0  0  0  0  0  0  0
    0.0000    1.3615    0.0000 H   0  0  0  0  0  0  0  0  0  0  0  0
    4.3768    0.2416    0.0000 H   0  0  0  0  0  0  0  0  0  0  0  0
    5.1695    0.1583    0.0000 H   0  0  0  0  0  0  0  0  0  0  0  0
    6.2379    0.7146    0.0000 H   0  0  0  0  0  0  0  0  0  0  0  0
    2.4520    5.2367    0.0000 H   0  0  0  0  0  0  0  0  0  0  0  0
    3.2490    5.2367    0.0000 H   0  0  0  0  0  0  0  0  0  0  0  0
    4.0265    5.6747    0.0000 H   0  0  0  0  0  0  0  0  0  0  0  0
    4.2535    6.5216    0.0000 H   0  0  0  0  0  0  0  0  0  0  0  0
    3.4065    6.7486    0.0000 H   0  0  0  0  0  0  0  0  0  0  0  0
  1 13  2  0  0  0  0
  2 14  2  0  0  0  0
  3 15  1  0  0  0  0
  3 32  1  0  0  0  0
  4 16  1  0  0  0  0
  5  7  1  0  0  0  0
  5 14  1  0  0  0  0
  5 22  1  0  0  0  0
  5 23  1  0  0  0  0
  6 13  1  0  0  0  0
  6 14  1  0  0  0  0
  6 15  1  0  0  0  0
  7  8  1  0  0  0  0
  7  9  1  0  0  0  0
  7 13  1  0  0  0  0
  8 10  1  0  0  0  0
  8 18  1  0  0  0  0
  8 19  1  0  0  0  0
  9 11  1  0  0  0  0
  9 20  1  0  0  0  0
  9 21  1  0  0  0  0
 10 12  1  0  0  0  0
 10 24  1  0  0  0  0
 10 25  1  0  0  0  0
 11 12  1  0  0  0  0
 11 26  1  0  0  0  0
 11 27  1  0  0  0  0
 12 28  1  0  0  0  0
 12 29  1  0  0  0  0
 15 30  1  0  0  0  0
 15 31  1  0  0  0  0
 16 17  1  0  0  0  0
 16 33  1  0  0  0  0
 16 34  1  0  0  0  0
 17 35  1  0  0  0  0
 17 36  1  0  0  0  0
 17 37  1  0  0  0  0
M  CHG  2   4  -1   5   1
M  END
> <PUBCHEM_COMPOUND_CID>
12882

> <PUBCHEM_COMPOUND_CANONICALIZED>
1

> <PUBCHEM_CACTVS_COMPLEXITY>
274

> <PUBCHEM_CACTVS_HBOND_ACCEPTOR>
4

> <PUBCHEM_CACTVS_HBOND_DONOR>
2

> <PUBCHEM_CACTVS_ROTATABLE_BOND>
1

> <PUBCHEM_CACTVS_SUBSKEYS>
AAADceBzOAAAAAAAAAAAAAAAAAAAAWAAAAAwAAAAAAAAAAAAAAAAHgAQCAAADIihgAYDAAPAAgAIAAEQEAAAAAAAAAAAAAGIAACAUBIAgCAUAAAIFyIAAAEYiACOAAAAAAAAAAAAAAAAAAAAAAAAAAAAAA==

> <PUBCHEM_IUPAC_OPENEYE_NAME>
ethanolate; 3-(hydroxymethyl)-3-aza-1-azoniaspiro[4.5]decane-2,4-dione

> <PUBCHEM_IUPAC_CAS_NAME>
ethanolate; 3-(hydroxymethyl)-3-aza-1-azoniaspiro[4.5]decane-2,4-dione

> <PUBCHEM_IUPAC_NAME>
ethanolate; 3-(hydroxymethyl)-3-aza-1-azoniaspiro[4.5]decane-2,4-dione

> <PUBCHEM_IUPAC_SYSTEMATIC_NAME>
ethanolate; 3-(hydroxymethyl)-3-aza-1-azoniaspiro[4.5]decane-2,4-dione

> <PUBCHEM_IUPAC_TRADITIONAL_NAME>
ethanolate; 3-methylol-3-aza-1-azoniaspiro[4.5]decane-2,4-quinone

> <PUBCHEM_IUPAC_INCHI>
InChI=1S/C9H14N2O3.C2H5O/c12-6-11-7(13)9(10-8(11)14)4-2-1-3-5-9;1-2-3/h12H,1-6H2,(H,10,14);2H2,1H3/q;-1/p+1

> <PUBCHEM_IUPAC_INCHIKEY>
UIQRYSYFWULEPO-UHFFFAOYSA-O

> <PUBCHEM_EXACT_MASS>
244.142307

> <PUBCHEM_MOLECULAR_FORMULA>
C11H20N2O4

> <PUBCHEM_MOLECULAR_WEIGHT>
244.2875

> <PUBCHEM_OPENEYE_CAN_SMILES>
CC[O-].C1CCC2(CC1)C(=O)N(C(=O)[NH2+]2)CO

> <PUBCHEM_OPENEYE_ISO_SMILES>
CC[O-].C1CCC2(CC1)C(=O)N(C(=O)[NH2+]2)CO

> <PUBCHEM_CACTVS_TPSA>
97.3

> <PUBCHEM_MONOISOTOPIC_WEIGHT>
244.142307

> <PUBCHEM_TOTAL_CHARGE>
0

> <PUBCHEM_HEAVY_ATOM_COUNT>
17

> <PUBCHEM_ATOM_DEF_STEREO_COUNT>
0

> <PUBCHEM_ATOM_UDEF_STEREO_COUNT>
0

> <PUBCHEM_BOND_DEF_STEREO_COUNT>
0

> <PUBCHEM_BOND_UDEF_STEREO_COUNT>
0

> <PUBCHEM_ISOTOPIC_ATOM_COUNT>
0

> <PUBCHEM_COMPONENT_COUNT>
2

> <PUBCHEM_CACTVS_TAUTO_COUNT>
2

> <PUBCHEM_COORDINATE_TYPE>
1
5
255

$$$$

