47866
  -OEChem-07051213042D

 22 23  0     0  0  0  0  0  0999 V2000
    3.8660   -1.3450    0.0000 N   0  0  0  0  0  0  0  0  0  0  0  0
    5.5981   -1.3450    0.0000 N   0  0  0  0  0  0  0  0  0  0  0  0
    4.7320    0.1550    0.0000 N   0  0  0  0  0  0  0  0  0  0  0  0
    6.4641    0.1550    0.0000 N   0  0  0  0  0  0  0  0  0  0  0  0
    7.3301   -1.3450    0.0000 N   0  0  0  0  0  0  0  0  0  0  0  0
    5.5981    1.6550    0.0000 N   0  0  0  0  0  0  0  0  0  0  0  0
    3.0000   -0.8450    0.0000 C   0  0  0  0  0  0  0  0  0  0  0  0
    2.5000    0.0210    0.0000 C   0  0  0  0  0  0  0  0  0  0  0  0
    2.0000   -0.8450    0.0000 C   0  0  0  0  0  0  0  0  0  0  0  0
    4.7320   -0.8450    0.0000 C   0  0  0  0  0  0  0  0  0  0  0  0
    6.4641   -0.8450    0.0000 C   0  0  0  0  0  0  0  0  0  0  0  0
    5.5981    0.6550    0.0000 C   0  0  0  0  0  0  0  0  0  0  0  0
    2.8395   -1.4439    0.0000 H   0  0  0  0  0  0  0  0  0  0  0  0
    2.9750    0.4196    0.0000 H   0  0  0  0  0  0  0  0  0  0  0  0
    2.0250    0.4196    0.0000 H   0  0  0  0  0  0  0  0  0  0  0  0
    1.4174   -0.6329    0.0000 H   0  0  0  0  0  0  0  0  0  0  0  0
    1.8923   -1.4556    0.0000 H   0  0  0  0  0  0  0  0  0  0  0  0
    3.8660   -1.9650    0.0000 H   0  0  0  0  0  0  0  0  0  0  0  0
    7.8671   -1.0350    0.0000 H   0  0  0  0  0  0  0  0  0  0  0  0
    7.3301   -1.9650    0.0000 H   0  0  0  0  0  0  0  0  0  0  0  0
    6.1350    1.9650    0.0000 H   0  0  0  0  0  0  0  0  0  0  0  0
    5.0611    1.9650    0.0000 H   0  0  0  0  0  0  0  0  0  0  0  0
  1  7  1  0  0  0  0
  1 10  1  0  0  0  0
  1 18  1  0  0  0  0
  2 10  2  0  0  0  0
  2 11  1  0  0  0  0
  3 10  1  0  0  0  0
  3 12  2  0  0  0  0
  4 11  2  0  0  0  0
  4 12  1  0  0  0  0
  5 11  1  0  0  0  0
  5 19  1  0  0  0  0
  5 20  1  0  0  0  0
  6 12  1  0  0  0  0
  6 21  1  0  0  0  0
  6 22  1  0  0  0  0
  7  8  1  0  0  0  0
  7  9  1  0  0  0  0
  7 13  1  0  0  0  0
  8  9  1  0  0  0  0
  8 14  1  0  0  0  0
  8 15  1  0  0  0  0
  9 16  1  0  0  0  0
  9 17  1  0  0  0  0
M  END
> <PUBCHEM_COMPOUND_CID>
47866

> <PUBCHEM_COMPOUND_CANONICALIZED>
1

> <PUBCHEM_CACTVS_COMPLEXITY>
148

> <PUBCHEM_CACTVS_HBOND_ACCEPTOR>
6

> <PUBCHEM_CACTVS_HBOND_DONOR>
3

> <PUBCHEM_CACTVS_ROTATABLE_BOND>
2

> <PUBCHEM_CACTVS_SUBSKEYS>
AAADccBjgAAAAAAAAAAAAAAAGAAAAAAAAAAsAAAAAAAAAAABgAAAHAAQAAAACCjBAAQBEAbIEAAgAAAAJAAAAAkAAIABAIAIAACACAAACAAEAAAIEAIAAAAAAAAAAAAAAAAAAAAAAAAAAAAAAAAAAAAAAA==

> <PUBCHEM_IUPAC_OPENEYE_NAME>
N2-cyclopropyl-1,3,5-triazine-2,4,6-triamine

> <PUBCHEM_IUPAC_CAS_NAME>
N2-cyclopropyl-1,3,5-triazine-2,4,6-triamine

> <PUBCHEM_IUPAC_NAME>
2-N-cyclopropyl-1,3,5-triazine-2,4,6-triamine

> <PUBCHEM_IUPAC_SYSTEMATIC_NAME>
N2-cyclopropyl-1,3,5-triazine-2,4,6-triamine

> <PUBCHEM_IUPAC_TRADITIONAL_NAME>
cyclopropyl-(4,6-diamino-s-triazin-2-yl)amine

> <PUBCHEM_IUPAC_INCHI>
InChI=1S/C6H10N6/c7-4-10-5(8)12-6(11-4)9-3-1-2-3/h3H,1-2H2,(H5,7,8,9,10,11,12)

> <PUBCHEM_IUPAC_INCHIKEY>
LVQDKIWDGQRHTE-UHFFFAOYSA-N

> <PUBCHEM_XLOGP3>
-0.2

> <PUBCHEM_EXACT_MASS>
166.096694

> <PUBCHEM_MOLECULAR_FORMULA>
C6H10N6

> <PUBCHEM_MOLECULAR_WEIGHT>
166.1838

> <PUBCHEM_OPENEYE_CAN_SMILES>
C1CC1NC2=NC(=NC(=N2)N)N

> <PUBCHEM_OPENEYE_ISO_SMILES>
C1CC1NC2=NC(=NC(=N2)N)N

> <PUBCHEM_CACTVS_TPSA>
103

> <PUBCHEM_MONOISOTOPIC_WEIGHT>
166.096694

> <PUBCHEM_TOTAL_CHARGE>
0

> <PUBCHEM_HEAVY_ATOM_COUNT>
12

> <PUBCHEM_ATOM_DEF_STEREO_COUNT>
0

> <PUBCHEM_ATOM_UDEF_STEREO_COUNT>
0

> <PUBCHEM_BOND_DEF_STEREO_COUNT>
0

> <PUBCHEM_BOND_UDEF_STEREO_COUNT>
0

> <PUBCHEM_ISOTOPIC_ATOM_COUNT>
0

> <PUBCHEM_COMPONENT_COUNT>
1

> <PUBCHEM_CACTVS_TAUTO_COUNT>
10

> <PUBCHEM_COORDINATE_TYPE>
1
5
255

> <PUBCHEM_BONDANNOTATIONS>
2  10  8
2  11  8
3  10  8
3  12  8
4  11  8
4  12  8

$$$$

