194139
  -OEChem-07051212463D

 42 43  0     1  0  0  0  0  0999 V2000
   -5.4074    0.9558    1.6422 O   0  0  0  0  0  0  0  0  0  0  0  0
   -5.6109    2.2050   -0.2392 O   0  0  0  0  0  0  0  0  0  0  0  0
   -1.1875   -0.0935    0.4196 N   0  0  0  0  0  0  0  0  0  0  0  0
    0.7901    1.1993   -0.0144 N   0  0  0  0  0  0  0  0  0  0  0  0
    2.8833    0.0638   -0.4091 N   0  0  0  0  0  0  0  0  0  0  0  0
   -5.6037   -0.1114   -1.7318 N   0  0  0  0  0  0  0  0  0  0  0  0
   -0.8205   -2.5345    0.3628 N   0  0  0  0  0  0  0  0  0  0  0  0
    1.4300   -2.4686   -0.0820 N   0  0  0  0  0  0  0  0  0  0  0  0
   -2.6221   -0.0847    0.6578 C   0  0  0  0  0  0  0  0  0  0  0  0
   -3.4073   -0.1501   -0.6503 C   0  0  0  0  0  0  0  0  0  0  0  0
   -4.9243   -0.1254   -0.4341 C   0  0  1  0  0  0  0  0  0  0  0  0
   -0.4960   -1.2771    0.2894 C   0  0  0  0  0  0  0  0  0  0  0  0
    0.9461   -1.1942   -0.0005 C   0  0  0  0  0  0  0  0  0  0  0  0
   -0.4814    1.0853    0.2444 C   0  0  0  0  0  0  0  0  0  0  0  0
    1.5343    0.0150   -0.1383 C   0  0  0  0  0  0  0  0  0  0  0  0
   -5.3560    1.1334    0.2963 C   0  0  0  0  0  0  0  0  0  0  0  0
    3.6019    1.2929   -0.5733 C   0  0  0  0  0  0  0  0  0  0  0  0
    0.3743   -3.1996    0.1326 C   0  0  0  0  0  0  0  0  0  0  0  0
    5.0339    0.9772   -0.8758 C   0  0  0  0  0  0  0  0  0  0  0  0
    6.0467    0.8239   -0.0014 C   0  0  0  0  0  0  0  0  0  0  0  0
    7.4676    0.5062   -0.3720 C   0  0  0  0  0  0  0  0  0  0  0  0
    5.8091    0.9811    1.4770 C   0  0  0  0  0  0  0  0  0  0  0  0
   -2.8764    0.8199    1.2208 H   0  0  0  0  0  0  0  0  0  0  0  0
   -2.9003   -0.9294    1.3004 H   0  0  0  0  0  0  0  0  0  0  0  0
   -3.1289   -1.0588   -1.1999 H   0  0  0  0  0  0  0  0  0  0  0  0
   -3.1043    0.6970   -1.2814 H   0  0  0  0  0  0  0  0  0  0  0  0
   -5.2623   -1.0023    0.1285 H   0  0  0  0  0  0  0  0  0  0  0  0
   -1.1010    1.9917    0.3414 H   0  0  0  0  0  0  0  0  0  0  0  0
    3.3720   -0.8234   -0.4864 H   0  0  0  0  0  0  0  0  0  0  0  0
   -5.3518   -0.9496   -2.2548 H   0  0  0  0  0  0  0  0  0  0  0  0
   -5.2701    0.6740   -2.2902 H   0  0  0  0  0  0  0  0  0  0  0  0
    3.1930    1.8643   -1.4160 H   0  0  0  0  0  0  0  0  0  0  0  0
    3.5059    1.9350    0.3087 H   0  0  0  0  0  0  0  0  0  0  0  0
    0.4065   -4.2996    0.1372 H   0  0  0  0  0  0  0  0  0  0  0  0
    5.2609    0.8534   -1.9340 H   0  0  0  0  0  0  0  0  0  0  0  0
   -5.6733    1.7764    2.1093 H   0  0  0  0  0  0  0  0  0  0  0  0
    7.7762   -0.4440    0.0753 H   0  0  0  0  0  0  0  0  0  0  0  0
    7.5918    0.4214   -1.4566 H   0  0  0  0  0  0  0  0  0  0  0  0
    8.1394    1.2951   -0.0189 H   0  0  0  0  0  0  0  0  0  0  0  0
    6.2849    1.8994    1.8367 H   0  0  0  0  0  0  0  0  0  0  0  0
    4.7564    1.0088    1.7665 H   0  0  0  0  0  0  0  0  0  0  0  0
    6.2518    0.1358    2.0160 H   0  0  0  0  0  0  0  0  0  0  0  0
  1 16  1  0  0  0  0
  1 36  1  0  0  0  0
  2 16  2  0  0  0  0
  3  9  1  0  0  0  0
  3 12  1  0  0  0  0
  3 14  1  0  0  0  0
  4 14  2  0  0  0  0
  4 15  1  0  0  0  0
  5 15  1  0  0  0  0
  5 17  1  0  0  0  0
  5 29  1  0  0  0  0
  6 11  1  0  0  0  0
  6 30  1  0  0  0  0
  6 31  1  0  0  0  0
  7 12  2  0  0  0  0
  7 18  1  0  0  0  0
  8 13  1  0  0  0  0
  8 18  2  0  0  0  0
  9 10  1  0  0  0  0
  9 23  1  0  0  0  0
  9 24  1  0  0  0  0
 10 11  1  0  0  0  0
 10 25  1  0  0  0  0
 10 26  1  0  0  0  0
 11 16  1  0  0  0  0
 11 27  1  0  0  0  0
 12 13  1  0  0  0  0
 13 15  2  0  0  0  0
 14 28  1  0  0  0  0
 17 19  1  0  0  0  0
 17 32  1  0  0  0  0
 17 33  1  0  0  0  0
 18 34  1  0  0  0  0
 19 20  2  0  0  0  0
 19 35  1  0  0  0  0
 20 21  1  0  0  0  0
 20 22  1  0  0  0  0
 21 37  1  0  0  0  0
 21 38  1  0  0  0  0
 21 39  1  0  0  0  0
 22 40  1  0  0  0  0
 22 41  1  0  0  0  0
 22 42  1  0  0  0  0
M  END
> <PUBCHEM_COMPOUND_CID>
194139

> <PUBCHEM_CONFORMER_RMSD>
0.8

> <PUBCHEM_CONFORMER_DIVERSEORDER>
3
276
336
363
285
166
300
314
186
260
369
307
268
364
141
284
220
224
151
136
317
372
299
318
60
147
246
197
76
374
235
69
254
352
309
34
252
258
274
153
110
340
353
351
94
227
282
158
334
231
237
278
240
283
354
331
167
242
225
163
349
169
132
368
320
196
243
378
256
347
289
84
140
203
273
210
126
323
377
271
165
24
189
371
277
26
279
68
302
155
85
190
293
343
194
238
291
117
129
326
222
344
327
348
209
322
357
362
350
280
251
296
288
330
346
146
178
175
184
304
375
46
239
191
228
192
93
75
162
182
359
188
112
216
253
52
223
259
142
170
290
56
38
287
212
236
358
370
89
230
9
2
366
262
79
15
281
321
376
159
329
181
207
11
171
332
202
102
313
173
106
244
148
156
360
87
226
232
131
219
335
308
70
32
303
306
269
91
361
208
199
103
134
22
217
139
45
27
179
18
298
221
295
164
292
123
54
176
341
241
328
133
77
229
65
195
37
272
316
263
261
355
108
20
145
23
92
12
154
315
206
124
14
270
64
82
63
339
67
31
72
267
319
42
337
333
58
149
51
160
365
28
21
83
286
135
88
338
53
311
33
86
80
310
66
324
275
249
294
172
25
157
96
78
81
342
114
257
115
113
109
137
213
250
214
143
373
233
107
345
152
73
248
138
265
180
40
29
367
187
264
98
204
74
200
266
35
100
57
305
161
59
90
325
183
193
47
41
71
101
205
247
43
127
48
185
105
1
218
6
13
215
97
95
8
19
55
104
211
312
50
177
119
17
30
118
61
39
122
36
234
201
5
297
130
125
144
301
168
245
255
150
62
120
44
356
198
128
49
99
7
4
111
174
10
116
121
16

> <PUBCHEM_MMFF94_PARTIAL_CHARGES>
28
1 -0.65
11 0.33
12 0.49
13 0.19
14 0.44
15 0.27
16 0.66
17 0.51
18 0.6
19 -0.29
2 -0.57
20 -0.28
21 0.14
22 0.14
28 0.06
29 0.4
3 -0.47
30 0.36
31 0.36
34 0.06
35 0.15
36 0.5
4 -0.62
5 -0.87
6 -0.99
7 -0.66
8 -0.62
9 0.37

> <PUBCHEM_EFFECTIVE_ROTOR_COUNT>
7

> <PUBCHEM_PHARMACOPHORE_FEATURES>
13
1 1 acceptor
1 2 acceptor
1 5 cation
1 5 donor
1 6 cation
1 6 donor
3 1 2 16 anion
3 20 21 22 hydrophobe
3 3 4 14 cation
3 3 7 12 cation
3 7 8 18 cation
5 7 8 12 13 18 rings
6 3 4 12 13 14 15 rings

> <PUBCHEM_HEAVY_ATOM_COUNT>
22

> <PUBCHEM_ATOM_DEF_STEREO_COUNT>
0

> <PUBCHEM_ATOM_UDEF_STEREO_COUNT>
1

> <PUBCHEM_BOND_DEF_STEREO_COUNT>
0

> <PUBCHEM_BOND_UDEF_STEREO_COUNT>
0

> <PUBCHEM_ISOTOPIC_ATOM_COUNT>
0

> <PUBCHEM_COMPONENT_COUNT>
1

> <PUBCHEM_CACTVS_TAUTO_COUNT>
3

> <PUBCHEM_CONFORMER_ID>
0002F65B00000003

> <PUBCHEM_MMFF94_ENERGY>
47.8483

> <PUBCHEM_FEATURE_SELFOVERLAP>
66.593

> <PUBCHEM_SHAPE_FINGERPRINT>
10906281 52 18271794752806924024
12236239 1 17894631478175095447
12293681 160 17967531293914610435
13533116 47 18187928430643058926
13631057 29 18188777129097572111
13740256 8 8286197249522069749
14123256 34 8934997096546976405
15183329 4 18202569466705410580
18222031 100 9439403493085561148
19784866 34 18412542137294487447
20554085 129 17968673674291729018
20612939 158 18339080518521265863
21054139 6 18335147445058980831
21150785 3 16588031212502042549
2215653 11 18114169836392838790
22182313 1 18193529260390116526
23402539 116 18334296431448348652
23536379 177 16370719340283129644
23559900 14 18189889830680384956
23569917 315 18411976940794530914
2767999 5 18410858750279189632
2838139 119 18412826867392308500
293599 30 18410570682326881760
335352 9 18412260606868057988
38695281 34 18114178644458588111
4072396 5 18201446887034718792
5104073 3 18059003021305642313
5385378 56 18341045319808894802
559249 180 18271810069488697402
7226269 152 18260542303832857600

> <PUBCHEM_SHAPE_MULTIPOLES>
411.13
16.41
2.33
1.05
8.26
2.15
-0.09
-10.79
0.93
-0.7
-0.18
-0.45
-0.24
-0.31

> <PUBCHEM_SHAPE_SELFOVERLAP>
853.503

> <PUBCHEM_SHAPE_VOLUME>
232.4

> <PUBCHEM_COORDINATE_TYPE>
2
5
10

$$$$

