4407
  -OEChem-06261200063D

 20 21  0     0  0  0  0  0  0999 V2000
    3.4509    1.5935    0.0007 Cl  0  0  0  0  0  0  0  0  0  0  0  0
    3.4510   -1.5934   -0.0007 Cl  0  0  0  0  0  0  0  0  0  0  0  0
    0.7855    2.7631    0.0010 O   0  0  0  0  0  0  0  0  0  0  0  0
    0.7852   -2.7631   -0.0005 O   0  0  0  0  0  0  0  0  0  0  0  0
   -1.7874    2.6710   -0.0006 O   0  0  0  0  0  0  0  0  0  0  0  0
   -1.7868   -2.6711    0.0015 O   0  0  0  0  0  0  0  0  0  0  0  0
   -0.4564    0.6986   -0.0002 C   0  0  0  0  0  0  0  0  0  0  0  0
   -0.4563   -0.6987    0.0000 C   0  0  0  0  0  0  0  0  0  0  0  0
    0.7559    1.3976   -0.0001 C   0  0  0  0  0  0  0  0  0  0  0  0
    0.7559   -1.3976   -0.0002 C   0  0  0  0  0  0  0  0  0  0  0  0
   -1.7286    1.4476   -0.0002 C   0  0  0  0  0  0  0  0  0  0  0  0
   -1.7285   -1.4475    0.0002 C   0  0  0  0  0  0  0  0  0  0  0  0
    1.9625    0.6971   -0.0002 C   0  0  0  0  0  0  0  0  0  0  0  0
    1.9625   -0.6970   -0.0002 C   0  0  0  0  0  0  0  0  0  0  0  0
   -2.9828    0.6669   -0.0004 C   0  0  0  0  0  0  0  0  0  0  0  0
   -2.9827   -0.6670   -0.0002 C   0  0  0  0  0  0  0  0  0  0  0  0
   -3.9163    1.2190   -0.0007 H   0  0  0  0  0  0  0  0  0  0  0  0
   -3.9163   -1.2192   -0.0002 H   0  0  0  0  0  0  0  0  0  0  0  0
   -0.1079    3.1360    0.0068 H   0  0  0  0  0  0  0  0  0  0  0  0
    1.7127   -3.0562   -0.0006 H   0  0  0  0  0  0  0  0  0  0  0  0
  1 13  1  0  0  0  0
  2 14  1  0  0  0  0
  3  9  1  0  0  0  0
  3 19  1  0  0  0  0
  4 10  1  0  0  0  0
  4 20  1  0  0  0  0
  5 11  2  0  0  0  0
  6 12  2  0  0  0  0
  7  8  2  0  0  0  0
  7  9  1  0  0  0  0
  7 11  1  0  0  0  0
  8 10  1  0  0  0  0
  8 12  1  0  0  0  0
  9 13  2  0  0  0  0
 10 14  2  0  0  0  0
 11 15  1  0  0  0  0
 12 16  1  0  0  0  0
 13 14  1  0  0  0  0
 15 16  2  0  0  0  0
 15 17  1  0  0  0  0
 16 18  1  0  0  0  0
M  END
> <PUBCHEM_COMPOUND_CID>
4407

> <PUBCHEM_CONFORMER_RMSD>
0.4

> <PUBCHEM_CONFORMER_DIVERSEORDER>
1

> <PUBCHEM_MMFF94_PARTIAL_CHARGES>
20
1 -0.18
10 0.08
11 0.47
12 0.47
13 0.18
14 0.18
15 -0.14
16 -0.14
17 0.15
18 0.15
19 0.45
2 -0.18
20 0.45
3 -0.53
4 -0.53
5 -0.57
6 -0.57
7 0.09
8 0.09
9 0.08

> <PUBCHEM_EFFECTIVE_ROTOR_COUNT>
0

> <PUBCHEM_PHARMACOPHORE_FEATURES>
6
1 3 donor
1 4 donor
1 5 acceptor
1 6 acceptor
6 7 8 11 12 15 16 rings
6 7 8 9 10 13 14 rings

> <PUBCHEM_HEAVY_ATOM_COUNT>
16

> <PUBCHEM_ATOM_DEF_STEREO_COUNT>
0

> <PUBCHEM_ATOM_UDEF_STEREO_COUNT>
0

> <PUBCHEM_BOND_DEF_STEREO_COUNT>
0

> <PUBCHEM_BOND_UDEF_STEREO_COUNT>
0

> <PUBCHEM_ISOTOPIC_ATOM_COUNT>
0

> <PUBCHEM_COMPONENT_COUNT>
1

> <PUBCHEM_CACTVS_TAUTO_COUNT>
8

> <PUBCHEM_CONFORMER_ID>
0000113700000001

> <PUBCHEM_MMFF94_ENERGY>
46.4854

> <PUBCHEM_FEATURE_SELFOVERLAP>
30.468

> <PUBCHEM_SHAPE_FINGERPRINT>
10608611 8 18410295838990932552
10967382 1 18338798901177352199
11132069 177 18411144614817770672
11471102 20 18411142428921932157
13140716 1 18410575127997874186
13380535 76 18411142406898638235
14614273 12 18272662237579985749
15196674 1 18410575089343103127
15442244 35 18339081592067742050
15536298 74 18334295366665483654
16945 1 18410855460333877127
193761 8 18410573985246396676
19591789 44 18338791337793100714
20510252 161 18117836590911224304
21267235 1 18338507638018120938
21501502 16 18409449184772060548
2334 1 18410573955455912710
23366157 5 18131350809240891502
23402539 116 18190476028284172127
23463225 33 18413110588979338410
23559900 14 18190176992225678086
2748010 2 18410293610013422486
2897 32 18411980260665911973
335352 9 18266458895912610516
528886 8 18337958861540743899
53812653 166 18261957323837189008
7364860 26 18335139791421548800
8809292 202 18343577451832073755

> <PUBCHEM_SHAPE_MULTIPOLES>
309.53
4.88
3.1
0.6
1.37
0
0
0
0
0.1
0
0.03
0
0

> <PUBCHEM_SHAPE_SELFOVERLAP>
669.131

> <PUBCHEM_SHAPE_VOLUME>
171.4

> <PUBCHEM_COORDINATE_TYPE>
2
5
10

$$$$

