12584
  -OEChem-06261207072D

 13 13  0     0  0  0  0  0  0999 V2000
    6.0010   -1.1900    0.0000 O   0  0  0  0  0  0  0  0  0  0  0  0
    4.2690    1.8100    0.0000 O   0  0  0  0  0  0  0  0  0  0  0  0
    4.2690   -1.1900    0.0000 N   0  0  0  0  0  0  0  0  0  0  0  0
    5.1350    0.3100    0.0000 N   0  0  0  0  0  0  0  0  0  0  0  0
    3.4030    0.3100    0.0000 N   0  0  0  0  0  0  0  0  0  0  0  0
    2.5369   -1.1900    0.0000 N   0  0  0  0  0  0  0  0  0  0  0  0
    3.4030   -0.6900    0.0000 C   0  0  0  0  0  0  0  0  0  0  0  0
    5.1350   -0.6900    0.0000 C   0  0  0  0  0  0  0  0  0  0  0  0
    4.2690    0.8100    0.0000 C   0  0  0  0  0  0  0  0  0  0  0  0
    4.2690   -1.8100    0.0000 H   0  0  0  0  0  0  0  0  0  0  0  0
    5.6720    0.6200    0.0000 H   0  0  0  0  0  0  0  0  0  0  0  0
    2.0000   -0.8800    0.0000 H   0  0  0  0  0  0  0  0  0  0  0  0
    2.5369   -1.8100    0.0000 H   0  0  0  0  0  0  0  0  0  0  0  0
  1  8  2  0  0  0  0
  2  9  2  0  0  0  0
  3  7  1  0  0  0  0
  3  8  1  0  0  0  0
  3 10  1  0  0  0  0
  4  8  1  0  0  0  0
  4  9  1  0  0  0  0
  4 11  1  0  0  0  0
  5  7  2  0  0  0  0
  5  9  1  0  0  0  0
  6  7  1  0  0  0  0
  6 12  1  0  0  0  0
  6 13  1  0  0  0  0
M  END
> <PUBCHEM_COMPOUND_CID>
12584

> <PUBCHEM_COMPOUND_CANONICALIZED>
1

> <PUBCHEM_CACTVS_COMPLEXITY>
196

> <PUBCHEM_CACTVS_HBOND_ACCEPTOR>
2

> <PUBCHEM_CACTVS_HBOND_DONOR>
3

> <PUBCHEM_CACTVS_ROTATABLE_BOND>
0

> <PUBCHEM_CACTVS_SUBSKEYS>
AAADcYBDsAAAAAAAAAAAAAAAAAAAAAAAAAAgAAAAAAAAAAAAAAAABgAQAAAAAAAAAAABAALAAAAoAAAANAAAAAEAAAABAAAAAACAAAAAAAAAAAAIASAAAAAAAAAAAAAAAAAAAAAAAAAAAAAAAAAAAAAAAA==

> <PUBCHEM_IUPAC_OPENEYE_NAME>
6-amino-1H-1,3,5-triazine-2,4-dione

> <PUBCHEM_IUPAC_CAS_NAME>
6-amino-1H-1,3,5-triazine-2,4-dione

> <PUBCHEM_IUPAC_NAME>
6-amino-1H-1,3,5-triazine-2,4-dione

> <PUBCHEM_IUPAC_SYSTEMATIC_NAME>
6-azanyl-1H-1,3,5-triazine-2,4-dione

> <PUBCHEM_IUPAC_TRADITIONAL_NAME>
6-amino-1H-s-triazine-2,4-quinone

> <PUBCHEM_IUPAC_INCHI>
InChI=1S/C3H4N4O2/c4-1-5-2(8)7-3(9)6-1/h(H4,4,5,6,7,8,9)

> <PUBCHEM_IUPAC_INCHIKEY>
YSKUZVBSHIWEFK-UHFFFAOYSA-N

> <PUBCHEM_XLOGP3_AA>
-1.5

> <PUBCHEM_EXACT_MASS>
128.033425

> <PUBCHEM_MOLECULAR_FORMULA>
C3H4N4O2

> <PUBCHEM_MOLECULAR_WEIGHT>
128.08946

> <PUBCHEM_OPENEYE_CAN_SMILES>
C1(=NC(=O)NC(=O)N1)N

> <PUBCHEM_OPENEYE_ISO_SMILES>
C1(=NC(=O)NC(=O)N1)N

> <PUBCHEM_CACTVS_TPSA>
96.6

> <PUBCHEM_MONOISOTOPIC_WEIGHT>
128.033425

> <PUBCHEM_TOTAL_CHARGE>
0

> <PUBCHEM_HEAVY_ATOM_COUNT>
9

> <PUBCHEM_ATOM_DEF_STEREO_COUNT>
0

> <PUBCHEM_ATOM_UDEF_STEREO_COUNT>
0

> <PUBCHEM_BOND_DEF_STEREO_COUNT>
0

> <PUBCHEM_BOND_UDEF_STEREO_COUNT>
0

> <PUBCHEM_ISOTOPIC_ATOM_COUNT>
0

> <PUBCHEM_COMPONENT_COUNT>
1

> <PUBCHEM_CACTVS_TAUTO_COUNT>
10

> <PUBCHEM_COORDINATE_TYPE>
1
5
255

> <PUBCHEM_BONDANNOTATIONS>
3  7  8
3  8  8
4  8  8
4  9  8
5  7  8
5  9  8

$$$$

