7813
  -OEChem-06261202213D

 17 17  0     0  0  0  0  0  0999 V2000
   -2.8154    0.0003   -0.0001 N   0  0  0  0  0  0  0  0  0  0  0  0
    1.3848    0.0000   -0.0001 C   0  0  0  0  0  0  0  0  0  0  0  0
   -1.4050   -0.0002    0.0000 C   0  0  0  0  0  0  0  0  0  0  0  0
    0.6874   -1.2080    0.0000 C   0  0  0  0  0  0  0  0  0  0  0  0
    0.6873    1.2079    0.0000 C   0  0  0  0  0  0  0  0  0  0  0  0
   -0.7075   -1.2081    0.0001 C   0  0  0  0  0  0  0  0  0  0  0  0
   -0.7076    1.2078    0.0001 C   0  0  0  0  0  0  0  0  0  0  0  0
    2.8761    0.0002    0.0000 C   0  0  0  0  0  0  0  0  0  0  0  0
    1.2195   -2.1556   -0.0018 H   0  0  0  0  0  0  0  0  0  0  0  0
    1.2193    2.1556   -0.0018 H   0  0  0  0  0  0  0  0  0  0  0  0
   -1.2395   -2.1560   -0.0003 H   0  0  0  0  0  0  0  0  0  0  0  0
   -1.2397    2.1558   -0.0003 H   0  0  0  0  0  0  0  0  0  0  0  0
    3.2710    0.8791    0.5209 H   0  0  0  0  0  0  0  0  0  0  0  0
    3.2715   -0.8816    0.5155 H   0  0  0  0  0  0  0  0  0  0  0  0
    3.2518    0.0033   -1.0279 H   0  0  0  0  0  0  0  0  0  0  0  0
   -3.3213    0.8759   -0.0009 H   0  0  0  0  0  0  0  0  0  0  0  0
   -3.3219   -0.8751   -0.0009 H   0  0  0  0  0  0  0  0  0  0  0  0
  1  3  1  0  0  0  0
  1 16  1  0  0  0  0
  1 17  1  0  0  0  0
  2  4  2  0  0  0  0
  2  5  1  0  0  0  0
  2  8  1  0  0  0  0
  3  6  2  0  0  0  0
  3  7  1  0  0  0  0
  4  6  1  0  0  0  0
  4  9  1  0  0  0  0
  5  7  2  0  0  0  0
  5 10  1  0  0  0  0
  6 11  1  0  0  0  0
  7 12  1  0  0  0  0
  8 13  1  0  0  0  0
  8 14  1  0  0  0  0
  8 15  1  0  0  0  0
M  END
> <PUBCHEM_COMPOUND_CID>
7813

> <PUBCHEM_CONFORMER_RMSD>
0.4

> <PUBCHEM_CONFORMER_DIVERSEORDER>
1

> <PUBCHEM_MMFF94_PARTIAL_CHARGES>
14
1 -0.9
10 0.15
11 0.15
12 0.15
16 0.4
17 0.4
2 -0.14
3 0.1
4 -0.15
5 -0.15
6 -0.15
7 -0.15
8 0.14
9 0.15

> <PUBCHEM_EFFECTIVE_ROTOR_COUNT>
0

> <PUBCHEM_PHARMACOPHORE_FEATURES>
3
1 1 cation
1 1 donor
6 2 3 4 5 6 7 rings

> <PUBCHEM_HEAVY_ATOM_COUNT>
8

> <PUBCHEM_ATOM_DEF_STEREO_COUNT>
0

> <PUBCHEM_ATOM_UDEF_STEREO_COUNT>
0

> <PUBCHEM_BOND_DEF_STEREO_COUNT>
0

> <PUBCHEM_BOND_UDEF_STEREO_COUNT>
0

> <PUBCHEM_ISOTOPIC_ATOM_COUNT>
0

> <PUBCHEM_COMPONENT_COUNT>
1

> <PUBCHEM_CACTVS_TAUTO_COUNT>
1

> <PUBCHEM_CONFORMER_ID>
00001E8500000001

> <PUBCHEM_MMFF94_ENERGY>
28.6633

> <PUBCHEM_FEATURE_SELFOVERLAP>
15.223

> <PUBCHEM_SHAPE_FINGERPRINT>
15310529 11 16702311156399002292
16714656 1 18410572885871912518
16945 1 18410855460180909318
18185500 45 18410859841016013190
21040471 1 18410573967987425698
23235685 24 18410578383208570212
23402655 69 18193858144107066293
23552423 10 18056760931953972646
2748010 2 18122344571109337070
29004967 10 18271800237543224209
5084963 1 18333731325162751728

> <PUBCHEM_SHAPE_MULTIPOLES>
159.66
3.19
1.36
0.61
0.27
0
0
0
0
-0.04
0
0.03
0
0

> <PUBCHEM_SHAPE_SELFOVERLAP>
328.154

> <PUBCHEM_SHAPE_VOLUME>
92.8

> <PUBCHEM_COORDINATE_TYPE>
2
5
10

$$$$

