442048
  -OEChem-07051212563D

 52 54  0     1  0  0  0  0  0999 V2000
    3.5629    2.1493   -0.6805 O   0  0  0  0  0  0  0  0  0  0  0  0
    4.6409    0.3166   -1.5022 O   0  0  0  0  0  0  0  0  0  0  0  0
    0.5902   -0.8891    0.2967 C   0  0  1  0  0  0  0  0  0  0  0  0
    1.5477    0.3213    0.0208 C   0  0  2  0  0  0  0  0  0  0  0  0
   -0.8340   -0.5412   -0.3187 C   0  0  2  0  0  0  0  0  0  0  0  0
    3.0647    0.0738    0.3353 C   0  0  2  0  0  0  0  0  0  0  0  0
    1.1216   -2.1856   -0.3924 C   0  0  0  0  0  0  0  0  0  0  0  0
   -1.2765    0.8992   -0.1113 C   0  0  0  0  0  0  0  0  0  0  0  0
    0.9983    1.6194    0.6554 C   0  0  0  0  0  0  0  0  0  0  0  0
   -1.9364   -1.5311    0.1265 C   0  0  0  0  0  0  0  0  0  0  0  0
    3.4502   -1.4171    0.2264 C   0  0  0  0  0  0  0  0  0  0  0  0
    2.5952   -2.1559   -0.7900 C   0  0  0  0  0  0  0  0  0  0  0  0
    0.4802   -1.1586    1.8211 C   0  0  0  0  0  0  0  0  0  0  0  0
   -3.7524    0.2604   -0.0776 C   0  0  1  0  0  0  0  0  0  0  0  0
   -2.6761    1.2503   -0.5653 C   0  0  0  0  0  0  0  0  0  0  0  0
   -3.3168   -1.1781   -0.4326 C   0  0  0  0  0  0  0  0  0  0  0  0
   -0.4504    1.8485    0.3571 C   0  0  0  0  0  0  0  0  0  0  0  0
    3.5634    0.6184    1.6857 C   0  0  0  0  0  0  0  0  0  0  0  0
    3.8514    0.8254   -0.7204 C   0  0  0  0  0  0  0  0  0  0  0  0
   -3.9844    0.4123    1.4382 C   0  0  0  0  0  0  0  0  0  0  0  0
   -5.0511    0.5687   -0.7841 C   0  0  0  0  0  0  0  0  0  0  0  0
   -6.1884   -0.1070   -0.5879 C   0  0  0  0  0  0  0  0  0  0  0  0
    1.4823    0.4778   -1.0701 H   0  0  0  0  0  0  0  0  0  0  0  0
   -0.7449   -0.6417   -1.4118 H   0  0  0  0  0  0  0  0  0  0  0  0
    0.5515   -2.4092   -1.3028 H   0  0  0  0  0  0  0  0  0  0  0  0
    0.9554   -3.0509    0.2626 H   0  0  0  0  0  0  0  0  0  0  0  0
    1.5336    2.4975    0.2875 H   0  0  0  0  0  0  0  0  0  0  0  0
    1.1141    1.6145    1.7446 H   0  0  0  0  0  0  0  0  0  0  0  0
   -2.0174   -1.5651    1.2175 H   0  0  0  0  0  0  0  0  0  0  0  0
   -1.6769   -2.5458   -0.1977 H   0  0  0  0  0  0  0  0  0  0  0  0
    3.3259   -1.9112    1.1985 H   0  0  0  0  0  0  0  0  0  0  0  0
    4.5105   -1.5496   -0.0222 H   0  0  0  0  0  0  0  0  0  0  0  0
    2.6984   -1.6855   -1.7755 H   0  0  0  0  0  0  0  0  0  0  0  0
    2.9574   -3.1846   -0.9025 H   0  0  0  0  0  0  0  0  0  0  0  0
    1.4561   -1.3097    2.2850 H   0  0  0  0  0  0  0  0  0  0  0  0
   -0.0177   -0.3412    2.3513 H   0  0  0  0  0  0  0  0  0  0  0  0
   -0.0867   -2.0722    2.0311 H   0  0  0  0  0  0  0  0  0  0  0  0
   -2.9411    2.2705   -0.2551 H   0  0  0  0  0  0  0  0  0  0  0  0
   -2.6586    1.2638   -1.6651 H   0  0  0  0  0  0  0  0  0  0  0  0
   -3.2930   -1.3049   -1.5240 H   0  0  0  0  0  0  0  0  0  0  0  0
   -4.0377   -1.9132   -0.0523 H   0  0  0  0  0  0  0  0  0  0  0  0
   -0.8131    2.8654    0.4843 H   0  0  0  0  0  0  0  0  0  0  0  0
    4.6323    0.4069    1.8158 H   0  0  0  0  0  0  0  0  0  0  0  0
    3.4543    1.7043    1.7792 H   0  0  0  0  0  0  0  0  0  0  0  0
    3.0392    0.1618    2.5293 H   0  0  0  0  0  0  0  0  0  0  0  0
   -3.0523    0.3310    2.0073 H   0  0  0  0  0  0  0  0  0  0  0  0
   -4.4156    1.3923    1.6771 H   0  0  0  0  0  0  0  0  0  0  0  0
   -4.6637   -0.3538    1.8294 H   0  0  0  0  0  0  0  0  0  0  0  0
   -5.0725    1.3923   -1.4942 H   0  0  0  0  0  0  0  0  0  0  0  0
    4.0629    2.6539   -1.3568 H   0  0  0  0  0  0  0  0  0  0  0  0
   -7.0868    0.1709   -1.1289 H   0  0  0  0  0  0  0  0  0  0  0  0
   -6.2576   -0.9401    0.1018 H   0  0  0  0  0  0  0  0  0  0  0  0
  1 19  1  0  0  0  0
  1 50  1  0  0  0  0
  2 19  2  0  0  0  0
  3  4  1  0  0  0  0
  3  5  1  0  0  0  0
  3  7  1  0  0  0  0
  3 13  1  0  0  0  0
  4  6  1  0  0  0  0
  4  9  1  0  0  0  0
  4 23  1  0  0  0  0
  5  8  1  0  0  0  0
  5 10  1  0  0  0  0
  5 24  1  0  0  0  0
  6 11  1  0  0  0  0
  6 18  1  0  0  0  0
  6 19  1  0  0  0  0
  7 12  1  0  0  0  0
  7 25  1  0  0  0  0
  7 26  1  0  0  0  0
  8 15  1  0  0  0  0
  8 17  2  0  0  0  0
  9 17  1  0  0  0  0
  9 27  1  0  0  0  0
  9 28  1  0  0  0  0
 10 16  1  0  0  0  0
 10 29  1  0  0  0  0
 10 30  1  0  0  0  0
 11 12  1  0  0  0  0
 11 31  1  0  0  0  0
 11 32  1  0  0  0  0
 12 33  1  0  0  0  0
 12 34  1  0  0  0  0
 13 35  1  0  0  0  0
 13 36  1  0  0  0  0
 13 37  1  0  0  0  0
 14 15  1  0  0  0  0
 14 16  1  0  0  0  0
 14 20  1  0  0  0  0
 14 21  1  0  0  0  0
 15 38  1  0  0  0  0
 15 39  1  0  0  0  0
 16 40  1  0  0  0  0
 16 41  1  0  0  0  0
 17 42  1  0  0  0  0
 18 43  1  0  0  0  0
 18 44  1  0  0  0  0
 18 45  1  0  0  0  0
 20 46  1  0  0  0  0
 20 47  1  0  0  0  0
 20 48  1  0  0  0  0
 21 22  2  0  0  0  0
 21 49  1  0  0  0  0
 22 51  1  0  0  0  0
 22 52  1  0  0  0  0
M  END
> <PUBCHEM_COMPOUND_CID>
442048

> <PUBCHEM_CONFORMER_RMSD>
0.6

> <PUBCHEM_CONFORMER_DIVERSEORDER>
3
4
1
2

> <PUBCHEM_MMFF94_PARTIAL_CHARGES>
17
1 -0.65
14 0.14
15 0.14
17 -0.29
19 0.66
2 -0.57
21 -0.29
22 -0.3
42 0.15
49 0.15
5 0.14
50 0.5
51 0.15
52 0.15
6 0.06
8 -0.28
9 0.14

> <PUBCHEM_EFFECTIVE_ROTOR_COUNT>
3.8

> <PUBCHEM_PHARMACOPHORE_FEATURES>
7
1 1 acceptor
1 2 acceptor
1 22 hydrophobe
3 1 2 19 anion
6 3 4 5 8 9 17 rings
6 3 4 6 7 11 12 rings
6 5 8 10 14 15 16 rings

> <PUBCHEM_HEAVY_ATOM_COUNT>
22

> <PUBCHEM_ATOM_DEF_STEREO_COUNT>
5

> <PUBCHEM_ATOM_UDEF_STEREO_COUNT>
0

> <PUBCHEM_BOND_DEF_STEREO_COUNT>
0

> <PUBCHEM_BOND_UDEF_STEREO_COUNT>
0

> <PUBCHEM_ISOTOPIC_ATOM_COUNT>
0

> <PUBCHEM_COMPONENT_COUNT>
1

> <PUBCHEM_CACTVS_TAUTO_COUNT>
1

> <PUBCHEM_CONFORMER_ID>
0006BEC000000003

> <PUBCHEM_MMFF94_ENERGY>
76.0962

> <PUBCHEM_FEATURE_SELFOVERLAP>
35.61

> <PUBCHEM_SHAPE_FINGERPRINT>
10366900 7 18261108573732311881
10498660 4 18338792321704420164
10759866 29 18059855065238802626
10863032 1 18259703393397912874
10967382 1 18408888433857771050
11132069 177 18410865347206213449
11471102 20 18408888451090426743
12011746 2 18407761439319785213
12236239 1 17775010068235446384
12403814 3 17775011193437854405
12553582 1 18408321081737360561
12670546 56 17095243631323366697
12730499 353 18410849936974656371
12788726 201 17386557094030228921
13140716 1 18193006923557197617
13221675 6 18410016541689020787
13224815 77 18201716266961595659
13533116 47 17967816089497411919
14528608 73 18335703819248348421
14787075 74 18201431420672902131
15196674 1 18337112371190310837
15375358 24 18059858380964007331
15536298 74 18261115205061667751
15635459 17 18336269023964706199
15788980 27 17632581569234456275
15848702 151 17749669705175292519
1601671 61 18410292497363938540
16945 1 18335423465158024416
17834072 33 18260834787190231127
17980427 23 17984161287711842340
18186145 218 17967250888537671712
200 152 17894921720029201221
20645477 70 18340210781766656695
20691752 17 17702089473075025256
21267235 1 18335979869428520167
21285901 2 18271249429895008853
21637258 2 15213294274940767924
23493267 7 17916858016185205210
23558518 356 17977378661787035521
23559900 14 18340487863139932114
2748010 2 18121789596910431260
2871803 45 18340487858427642405
296302 2 16272208591797584057
3004659 81 18343023336863451630
3060560 45 17603304843405281030
3323516 105 18333448746484914982
34797466 226 16153711977436099193
34934 24 18335712610772187351
350125 39 18265050409070377040
3545911 37 18334859403182600263
4340502 62 16415479385408934739
474 4 17632287956701318348
495365 180 17822868484808183088
5104073 3 18335422421823805139
537710 114 18408324392967066116
633830 44 17846781831677689907
7164475 11 18191020312531465648
9709674 26 18337668723641845175
9999458 23 16988850492684637794

> <PUBCHEM_SHAPE_MULTIPOLES>
441.01
10.09
2.06
1.25
8.72
0.29
0.4
-1.19
-2.32
-1.35
-0.18
-0.57
-0.04
-0.06

> <PUBCHEM_SHAPE_SELFOVERLAP>
928.397

> <PUBCHEM_SHAPE_VOLUME>
244.7

> <PUBCHEM_COORDINATE_TYPE>
2
5
10

$$$$

