54675762
  -OEChem-07051212483D

 54 57  0     1  0  0  0  0  0999 V2000
   -2.2766   -0.2538    2.3730 O   0  0  0  0  0  0  0  0  0  0  0  0
    1.6271    1.4227   -2.3670 O   0  0  0  0  0  0  0  0  0  0  0  0
   -1.5091   -2.5900    0.5972 O   0  0  0  0  0  0  0  0  0  0  0  0
    0.1467   -1.2031    2.6546 O   0  0  0  0  0  0  0  0  0  0  0  0
   -4.2660    0.4677   -1.8287 O   0  0  0  0  0  0  0  0  0  0  0  0
    2.7594   -0.9533    2.2686 O   0  0  0  0  0  0  0  0  0  0  0  0
    5.0554   -1.6738    1.3977 O   0  0  0  0  0  0  0  0  0  0  0  0
   -4.4829   -2.5106   -1.7423 O   0  0  0  0  0  0  0  0  0  0  0  0
   -4.0029    1.5961    0.9548 N   0  0  0  0  0  0  0  0  0  0  0  0
   -2.2641   -2.7917   -2.3165 N   0  0  0  0  0  0  0  0  0  0  0  0
   -1.5742    1.1484    0.5446 C   0  0  1  0  0  0  0  0  0  0  0  0
   -1.4902   -0.2411    1.1763 C   0  0  1  0  0  0  0  0  0  0  0  0
   -0.4994    1.3331   -0.5433 C   0  0  0  0  0  0  0  0  0  0  0  0
   -2.9658    1.4128   -0.0579 C   0  0  1  0  0  0  0  0  0  0  0  0
    0.8916    0.8810   -0.1481 C   0  0  0  0  0  0  0  0  0  0  0  0
    2.0307    1.4607   -0.9905 C   0  0  1  0  0  0  0  0  0  0  0  0
    1.1013    0.0222    0.8677 C   0  0  0  0  0  0  0  0  0  0  0  0
   -0.0602   -0.5144    1.6527 C   0  0  0  0  0  0  0  0  0  0  0  0
   -2.0018   -1.3396    0.2667 C   0  0  0  0  0  0  0  0  0  0  0  0
   -3.4180    0.2711   -0.9558 C   0  0  0  0  0  0  0  0  0  0  0  0
   -2.8661   -1.1109   -0.7454 C   0  0  0  0  0  0  0  0  0  0  0  0
    3.3407    0.7052   -0.8539 C   0  0  0  0  0  0  0  0  0  0  0  0
    2.4953   -0.3950    1.2093 C   0  0  0  0  0  0  0  0  0  0  0  0
    3.5625   -0.1575    0.2216 C   0  0  0  0  0  0  0  0  0  0  0  0
    2.2693    2.9349   -0.6187 C   0  0  0  0  0  0  0  0  0  0  0  0
   -3.6140    2.6428    1.8985 C   0  0  0  0  0  0  0  0  0  0  0  0
   -5.2798    1.9241    0.3231 C   0  0  0  0  0  0  0  0  0  0  0  0
    4.3831    0.8969   -1.7799 C   0  0  0  0  0  0  0  0  0  0  0  0
   -3.3015   -2.1984   -1.6406 C   0  0  0  0  0  0  0  0  0  0  0  0
    4.7927   -0.8134    0.3734 C   0  0  0  0  0  0  0  0  0  0  0  0
    5.6060    0.2407   -1.6346 C   0  0  0  0  0  0  0  0  0  0  0  0
    5.8107   -0.6136   -0.5566 C   0  0  0  0  0  0  0  0  0  0  0  0
   -1.3259    1.8987    1.3046 H   0  0  0  0  0  0  0  0  0  0  0  0
   -0.4856    2.3971   -0.8067 H   0  0  0  0  0  0  0  0  0  0  0  0
   -0.7743    0.7980   -1.4608 H   0  0  0  0  0  0  0  0  0  0  0  0
   -2.8923    2.3094   -0.6913 H   0  0  0  0  0  0  0  0  0  0  0  0
   -2.3016   -1.1626    2.7182 H   0  0  0  0  0  0  0  0  0  0  0  0
    1.3768    3.5485   -0.7815 H   0  0  0  0  0  0  0  0  0  0  0  0
    3.0489    3.3839   -1.2462 H   0  0  0  0  0  0  0  0  0  0  0  0
    2.5754    3.0455    0.4281 H   0  0  0  0  0  0  0  0  0  0  0  0
   -2.8328    2.3178    2.5911 H   0  0  0  0  0  0  0  0  0  0  0  0
   -3.2964    3.5639    1.3960 H   0  0  0  0  0  0  0  0  0  0  0  0
   -4.4571    2.9018    2.5514 H   0  0  0  0  0  0  0  0  0  0  0  0
   -5.1960    2.7260   -0.4195 H   0  0  0  0  0  0  0  0  0  0  0  0
   -5.7558    1.0476   -0.1262 H   0  0  0  0  0  0  0  0  0  0  0  0
   -6.0044    2.2580    1.0768 H   0  0  0  0  0  0  0  0  0  0  0  0
    1.6482    0.4966   -2.6647 H   0  0  0  0  0  0  0  0  0  0  0  0
    4.2519    1.5703   -2.6239 H   0  0  0  0  0  0  0  0  0  0  0  0
   -1.1832   -2.5748    1.5118 H   0  0  0  0  0  0  0  0  0  0  0  0
    6.3979    0.4014   -2.3601 H   0  0  0  0  0  0  0  0  0  0  0  0
    6.7652   -1.1216   -0.4481 H   0  0  0  0  0  0  0  0  0  0  0  0
   -1.2980   -2.4979   -2.2105 H   0  0  0  0  0  0  0  0  0  0  0  0
   -2.4348   -3.5550   -2.9630 H   0  0  0  0  0  0  0  0  0  0  0  0
    4.2505   -1.8512    1.9078 H   0  0  0  0  0  0  0  0  0  0  0  0
  1 12  1  0  0  0  0
  1 37  1  0  0  0  0
  2 16  1  0  0  0  0
  2 47  1  0  0  0  0
  3 19  1  0  0  0  0
  3 49  1  0  0  0  0
  4 18  2  0  0  0  0
  5 20  2  0  0  0  0
  6 23  2  0  0  0  0
  7 30  1  0  0  0  0
  7 54  1  0  0  0  0
  8 29  2  0  0  0  0
  9 14  1  0  0  0  0
  9 26  1  0  0  0  0
  9 27  1  0  0  0  0
 10 29  1  0  0  0  0
 10 52  1  0  0  0  0
 10 53  1  0  0  0  0
 11 12  1  0  0  0  0
 11 13  1  0  0  0  0
 11 14  1  0  0  0  0
 11 33  1  0  0  0  0
 12 18  1  0  0  0  0
 12 19  1  0  0  0  0
 13 15  1  0  0  0  0
 13 34  1  0  0  0  0
 13 35  1  0  0  0  0
 14 20  1  0  0  0  0
 14 36  1  0  0  0  0
 15 16  1  0  0  0  0
 15 17  2  0  0  0  0
 16 22  1  0  0  0  0
 16 25  1  0  0  0  0
 17 18  1  0  0  0  0
 17 23  1  0  0  0  0
 19 21  2  0  0  0  0
 20 21  1  0  0  0  0
 21 29  1  0  0  0  0
 22 24  2  0  0  0  0
 22 28  1  0  0  0  0
 23 24  1  0  0  0  0
 24 30  1  0  0  0  0
 25 38  1  0  0  0  0
 25 39  1  0  0  0  0
 25 40  1  0  0  0  0
 26 41  1  0  0  0  0
 26 42  1  0  0  0  0
 26 43  1  0  0  0  0
 27 44  1  0  0  0  0
 27 45  1  0  0  0  0
 27 46  1  0  0  0  0
 28 31  2  0  0  0  0
 28 48  1  0  0  0  0
 30 32  2  0  0  0  0
 31 32  1  0  0  0  0
 31 50  1  0  0  0  0
 32 51  1  0  0  0  0
M  END
> <PUBCHEM_COMPOUND_CID>
54675762

> <PUBCHEM_CONFORMER_RMSD>
0.8

> <PUBCHEM_CONFORMER_DIVERSEORDER>
1
2

> <PUBCHEM_MMFF94_PARTIAL_CHARGES>
39
1 -0.68
10 -0.8
12 0.48
13 0.14
14 0.33
15 -0.28
16 0.56
17 0.03
18 0.49
19 -0.06
2 -0.68
20 0.49
21 0.03
22 -0.14
23 0.47
24 0.09
26 0.27
27 0.27
28 -0.15
29 0.62
3 -0.53
30 0.08
31 -0.15
32 -0.15
37 0.4
4 -0.57
47 0.4
48 0.15
49 0.45
5 -0.57
50 0.15
51 0.15
52 0.37
53 0.37
54 0.45
6 -0.57
7 -0.53
8 -0.57
9 -0.81

> <PUBCHEM_EFFECTIVE_ROTOR_COUNT>
2.6

> <PUBCHEM_PHARMACOPHORE_FEATURES>
18
1 1 acceptor
1 1 donor
1 10 donor
1 17 anion
1 2 acceptor
1 2 donor
1 21 anion
1 3 donor
1 4 acceptor
1 5 acceptor
1 6 acceptor
1 7 donor
1 8 acceptor
1 9 cation
6 11 12 13 15 17 18 rings
6 11 12 14 19 20 21 rings
6 15 16 17 22 23 24 rings
6 22 24 28 30 31 32 rings

> <PUBCHEM_HEAVY_ATOM_COUNT>
32

> <PUBCHEM_ATOM_DEF_STEREO_COUNT>
4

> <PUBCHEM_ATOM_UDEF_STEREO_COUNT>
0

> <PUBCHEM_BOND_DEF_STEREO_COUNT>
0

> <PUBCHEM_BOND_UDEF_STEREO_COUNT>
0

> <PUBCHEM_ISOTOPIC_ATOM_COUNT>
0

> <PUBCHEM_COMPONENT_COUNT>
1

> <PUBCHEM_CACTVS_TAUTO_COUNT>
228

> <PUBCHEM_CONFORMER_ID>
0342493200000001

> <PUBCHEM_MMFF94_ENERGY>
102.0715

> <PUBCHEM_FEATURE_SELFOVERLAP>
91.467

> <PUBCHEM_SHAPE_FINGERPRINT>
10369192 42 15481800434824523342
11135926 11 17274815853946377382
11578080 2 17750240213912764624
11796584 16 17748825241748769118
12156800 1 5613822070448847143
12236239 1 18271523190868089545
12553582 1 17704076213693892448
12788726 201 18268420420768699608
13224815 77 18131070385829983856
13544653 18 14923941245640131536
13583140 156 13829860066965399264
13782708 43 16371017252479406575
13947920 75 18334577974923171544
14294032 229 18043811103832440761
14790565 3 17559668636860791500
14955137 171 18129090293984008593
16752209 62 18261117326865540119
16988056 13 10366395252821985623
17349148 13 18334011679232119558
17809404 112 15936397974834923653
20511986 3 18341341049861110508
20600515 1 17822871843214789201
20775438 99 17402356783716070535
20775530 9 16522166930834234919
21033648 144 17845931832265156148
21033650 10 17459734003426352152
21424621 283 16734653398768908201
21781051 124 18334296423660618175
22122407 14 17559389369903673365
22393880 68 18059019371750336990
23559900 14 17676214558696382840
23569914 2 14762409698711832670
3027735 51 17821725027191832879
3459 83 18131072692617850778
350125 39 17274239665969982817
392239 28 14129061413568261910
404807 14 16165786053475498279
497634 4 17632004265848816331
5283173 99 15431153767536215145
633830 44 17988349374472258116
9981440 41 17549823283481353016

> <PUBCHEM_SHAPE_MULTIPOLES>
601.63
11.28
2.66
2.33
7.07
0.42
-0.41
0.23
2.99
-3.27
0.72
0.09
0.6
-2.98

> <PUBCHEM_SHAPE_SELFOVERLAP>
1339.069

> <PUBCHEM_SHAPE_VOLUME>
314.2

> <PUBCHEM_COORDINATE_TYPE>
2
5
10

$$$$

