442898
  -OEChem-07051213003D

 25 26  0     0  0  0  0  0  0999 V2000
    2.3868   -1.1790    0.0003 O   0  0  0  0  0  0  0  0  0  0  0  0
   -0.5309    1.7002    0.0000 N   0  3  0  0  0  0  0  0  0  0  0  0
   -0.9320    0.4149    0.0000 C   0  0  0  0  0  0  0  0  0  0  0  0
    0.0434   -0.6069   -0.0001 C   0  0  0  0  0  0  0  0  0  0  0  0
    1.3963   -0.2409   -0.0003 C   0  0  0  0  0  0  0  0  0  0  0  0
    0.7589    2.0622   -0.0001 C   0  0  0  0  0  0  0  0  0  0  0  0
   -2.2931    0.0944    0.0000 C   0  0  0  0  0  0  0  0  0  0  0  0
   -0.3782   -1.9458   -0.0001 C   0  0  0  0  0  0  0  0  0  0  0  0
    1.7571    1.1021   -0.0001 C   0  0  0  0  0  0  0  0  0  0  0  0
   -1.5050    2.7988    0.0002 C   0  0  0  0  0  0  0  0  0  0  0  0
   -2.6933   -1.2411    0.0001 C   0  0  0  0  0  0  0  0  0  0  0  0
   -1.7393   -2.2582    0.0000 C   0  0  0  0  0  0  0  0  0  0  0  0
    3.7295   -0.7007    0.0001 C   0  0  0  0  0  0  0  0  0  0  0  0
    0.9957    3.1200    0.0000 H   0  0  0  0  0  0  0  0  0  0  0  0
   -3.0752    0.8466    0.0001 H   0  0  0  0  0  0  0  0  0  0  0  0
    2.7752    1.4719   -0.0001 H   0  0  0  0  0  0  0  0  0  0  0  0
    0.3411   -2.7614   -0.0001 H   0  0  0  0  0  0  0  0  0  0  0  0
   -2.1121    2.7248    0.9069 H   0  0  0  0  0  0  0  0  0  0  0  0
   -1.0029    3.7704    0.0002 H   0  0  0  0  0  0  0  0  0  0  0  0
   -2.1121    2.7250   -0.9065 H   0  0  0  0  0  0  0  0  0  0  0  0
   -3.7505   -1.4908    0.0001 H   0  0  0  0  0  0  0  0  0  0  0  0
   -2.0560   -3.2973    0.0000 H   0  0  0  0  0  0  0  0  0  0  0  0
    4.3828   -1.5797    0.0003 H   0  0  0  0  0  0  0  0  0  0  0  0
    3.9601   -0.1378    0.9112 H   0  0  0  0  0  0  0  0  0  0  0  0
    3.9601   -0.1382   -0.9112 H   0  0  0  0  0  0  0  0  0  0  0  0
  1  5  1  0  0  0  0
  1 13  1  0  0  0  0
  2  3  1  0  0  0  0
  2  6  2  0  0  0  0
  2 10  1  0  0  0  0
  3  4  1  0  0  0  0
  3  7  2  0  0  0  0
  4  5  1  0  0  0  0
  4  8  2  0  0  0  0
  5  9  2  0  0  0  0
  6  9  1  0  0  0  0
  6 14  1  0  0  0  0
  7 11  1  0  0  0  0
  7 15  1  0  0  0  0
  8 12  1  0  0  0  0
  8 17  1  0  0  0  0
  9 16  1  0  0  0  0
 10 18  1  0  0  0  0
 10 19  1  0  0  0  0
 10 20  1  0  0  0  0
 11 12  2  0  0  0  0
 11 21  1  0  0  0  0
 12 22  1  0  0  0  0
 13 23  1  0  0  0  0
 13 24  1  0  0  0  0
 13 25  1  0  0  0  0
M  CHG  1   2   1
M  END
> <PUBCHEM_COMPOUND_CID>
442898

> <PUBCHEM_CONFORMER_RMSD>
0.4

> <PUBCHEM_CONFORMER_DIVERSEORDER>
3
1
2

> <PUBCHEM_MMFF94_PARTIAL_CHARGES>
18
1 -0.36
10 0.49
11 -0.15
12 -0.15
13 0.28
14 0.15
15 0.15
16 0.15
17 0.15
2 -0.21
21 0.15
22 0.15
3 0.36
5 0.08
6 0.21
7 -0.15
8 -0.15
9 -0.15

> <PUBCHEM_EFFECTIVE_ROTOR_COUNT>
1

> <PUBCHEM_PHARMACOPHORE_FEATURES>
3
1 1 acceptor
6 2 3 4 5 6 9 rings
6 3 4 7 8 11 12 rings

> <PUBCHEM_HEAVY_ATOM_COUNT>
13

> <PUBCHEM_ATOM_DEF_STEREO_COUNT>
0

> <PUBCHEM_ATOM_UDEF_STEREO_COUNT>
0

> <PUBCHEM_BOND_DEF_STEREO_COUNT>
0

> <PUBCHEM_BOND_UDEF_STEREO_COUNT>
0

> <PUBCHEM_ISOTOPIC_ATOM_COUNT>
0

> <PUBCHEM_COMPONENT_COUNT>
1

> <PUBCHEM_CACTVS_TAUTO_COUNT>
1

> <PUBCHEM_CONFORMER_ID>
0006C21200000003

> <PUBCHEM_MMFF94_ENERGY>
54.6816

> <PUBCHEM_FEATURE_SELFOVERLAP>
15.253

> <PUBCHEM_SHAPE_FINGERPRINT>
10967382 1 17978229688028952097
11206711 2 18339924921364450060
12423570 1 7607138850832512452
12524768 44 18263074423071146911
13140716 1 18338514140709143475
13380535 76 17906459079542683429
16945 1 18410855485908580038
17990270 104 17979640026434885875
193761 8 18410855417273960548
20510252 161 18189055455097915688
20711985 365 18412263943155696444
20871998 184 18260267477402009694
21501502 16 18265891371787383036
22802520 49 17754162404101942862
2334 1 18122624955227865831
23402539 116 18261404368356990175
23463225 33 18339078168683433966
23552423 10 17618502082423050639
23559900 14 17973444593026824742
241688 4 18411137991804036169
2748010 2 18265900159422411007
7364860 26 17903073339622317432
81228 2 18411696620978159560

> <PUBCHEM_SHAPE_MULTIPOLES>
256.68
4.02
2.84
0.6
2.38
1.35
0
-1.84
0
-1.03
0
-0.01
0
0

> <PUBCHEM_SHAPE_SELFOVERLAP>
557.29

> <PUBCHEM_SHAPE_VOLUME>
142.8

> <PUBCHEM_COORDINATE_TYPE>
2
5
10

$$$$

