11954084
  -OEChem-07051213063D

 55 58  0     1  0  0  0  0  0999 V2000
    1.0964   -0.0274   -2.2276 Br  0  0  0  0  0  0  0  0  0  0  0  0
    0.4887   -2.6970    0.0339 O   0  0  0  0  0  0  0  0  0  0  0  0
   -5.2978   -0.6244    1.0356 O   0  0  0  0  0  0  0  0  0  0  0  0
    6.2576    0.1762   -0.8051 O   0  0  0  0  0  0  0  0  0  0  0  0
   -1.3989    0.9562   -0.2041 C   0  0  2  0  0  0  0  0  0  0  0  0
   -2.1660   -0.3429    0.1286 C   0  0  1  0  0  0  0  0  0  0  0  0
    0.0379    0.9295    0.3299 C   0  0  1  0  0  0  0  0  0  0  0  0
    0.8503   -0.2897   -0.2300 C   0  0  2  0  0  0  0  0  0  0  0  0
   -3.5493    0.0372   -0.4468 C   0  0  2  0  0  0  0  0  0  0  0  0
   -2.3363    2.0607    0.2842 C   0  0  0  0  0  0  0  0  0  0  0  0
   -3.7530    1.5079   -0.0002 C   0  0  1  0  0  0  0  0  0  0  0  0
    2.2882   -0.3838    0.4469 C   0  0  2  0  0  0  0  0  0  0  0  0
   -1.4785   -1.5052   -0.5864 C   0  0  0  0  0  0  0  0  0  0  0  0
    0.7806    2.2583    0.1309 C   0  0  0  0  0  0  0  0  0  0  0  0
    0.0008   -1.5906   -0.2028 C   0  0  0  0  0  0  0  0  0  0  0  0
   -2.2504   -0.6652    1.6443 C   0  0  0  0  0  0  0  0  0  0  0  0
    2.9838    0.9880    0.3346 C   0  0  0  0  0  0  0  0  0  0  0  0
    2.1802    2.2074    0.7379 C   0  0  0  0  0  0  0  0  0  0  0  0
    3.1799   -1.5141   -0.1710 C   0  0  0  0  0  0  0  0  0  0  0  0
   -4.6658   -0.8540    0.0056 C   0  0  0  0  0  0  0  0  0  0  0  0
   -4.4853    2.3230   -1.0617 C   0  0  0  0  0  0  0  0  0  0  0  0
    2.1537   -0.7084    1.9624 C   0  0  0  0  0  0  0  0  0  0  0  0
    4.6663   -1.3565    0.1175 C   0  0  0  0  0  0  0  0  0  0  0  0
    4.2542    1.1567   -0.0690 C   0  0  0  0  0  0  0  0  0  0  0  0
    5.1404    0.0004   -0.3242 C   0  0  0  0  0  0  0  0  0  0  0  0
   -4.9776   -2.0422   -0.8635 C   0  0  0  0  0  0  0  0  0  0  0  0
   -1.3547    1.0735   -1.2967 H   0  0  0  0  0  0  0  0  0  0  0  0
   -0.0495    0.8092    1.4151 H   0  0  0  0  0  0  0  0  0  0  0  0
   -3.5187    0.0028   -1.5449 H   0  0  0  0  0  0  0  0  0  0  0  0
   -2.2099    2.2374    1.3586 H   0  0  0  0  0  0  0  0  0  0  0  0
   -2.1428    3.0096   -0.2273 H   0  0  0  0  0  0  0  0  0  0  0  0
   -4.3356    1.5804    0.9261 H   0  0  0  0  0  0  0  0  0  0  0  0
   -1.5482   -1.4107   -1.6752 H   0  0  0  0  0  0  0  0  0  0  0  0
   -1.9504   -2.4564   -0.3162 H   0  0  0  0  0  0  0  0  0  0  0  0
    0.2279    3.0721    0.6159 H   0  0  0  0  0  0  0  0  0  0  0  0
    0.8400    2.5279   -0.9293 H   0  0  0  0  0  0  0  0  0  0  0  0
   -2.7270    0.1341    2.2195 H   0  0  0  0  0  0  0  0  0  0  0  0
   -2.8268   -1.5813    1.8174 H   0  0  0  0  0  0  0  0  0  0  0  0
   -1.2658   -0.8406    2.0886 H   0  0  0  0  0  0  0  0  0  0  0  0
    2.0938    2.2167    1.8318 H   0  0  0  0  0  0  0  0  0  0  0  0
    2.7048    3.1339    0.4724 H   0  0  0  0  0  0  0  0  0  0  0  0
    3.0742   -1.5619   -1.2581 H   0  0  0  0  0  0  0  0  0  0  0  0
    2.8728   -2.4978    0.2014 H   0  0  0  0  0  0  0  0  0  0  0  0
   -4.6193    3.3574   -0.7284 H   0  0  0  0  0  0  0  0  0  0  0  0
   -3.9289    2.3435   -2.0049 H   0  0  0  0  0  0  0  0  0  0  0  0
   -5.4761    1.9012   -1.2595 H   0  0  0  0  0  0  0  0  0  0  0  0
    1.5667    0.0326    2.5117 H   0  0  0  0  0  0  0  0  0  0  0  0
    1.6770   -1.6808    2.1237 H   0  0  0  0  0  0  0  0  0  0  0  0
    3.1330   -0.7440    2.4533 H   0  0  0  0  0  0  0  0  0  0  0  0
    5.2232   -2.1191   -0.4384 H   0  0  0  0  0  0  0  0  0  0  0  0
    4.8954   -1.4819    1.1803 H   0  0  0  0  0  0  0  0  0  0  0  0
    4.7027    2.1405   -0.1578 H   0  0  0  0  0  0  0  0  0  0  0  0
   -5.1675   -1.7125   -1.8881 H   0  0  0  0  0  0  0  0  0  0  0  0
   -4.1525   -2.7551   -0.8424 H   0  0  0  0  0  0  0  0  0  0  0  0
   -5.8779   -2.5387   -0.4899 H   0  0  0  0  0  0  0  0  0  0  0  0
  1  8  1  0  0  0  0
  2 15  2  0  0  0  0
  3 20  2  0  0  0  0
  4 25  2  0  0  0  0
  5  6  1  0  0  0  0
  5  7  1  0  0  0  0
  5 10  1  0  0  0  0
  5 27  1  0  0  0  0
  6  9  1  0  0  0  0
  6 13  1  0  0  0  0
  6 16  1  0  0  0  0
  7  8  1  0  0  0  0
  7 14  1  0  0  0  0
  7 28  1  0  0  0  0
  8 12  1  0  0  0  0
  8 15  1  0  0  0  0
  9 11  1  0  0  0  0
  9 20  1  0  0  0  0
  9 29  1  0  0  0  0
 10 11  1  0  0  0  0
 10 30  1  0  0  0  0
 10 31  1  0  0  0  0
 11 21  1  0  0  0  0
 11 32  1  0  0  0  0
 12 17  1  0  0  0  0
 12 19  1  0  0  0  0
 12 22  1  0  0  0  0
 13 15  1  0  0  0  0
 13 33  1  0  0  0  0
 13 34  1  0  0  0  0
 14 18  1  0  0  0  0
 14 35  1  0  0  0  0
 14 36  1  0  0  0  0
 16 37  1  0  0  0  0
 16 38  1  0  0  0  0
 16 39  1  0  0  0  0
 17 18  1  0  0  0  0
 17 24  2  0  0  0  0
 18 40  1  0  0  0  0
 18 41  1  0  0  0  0
 19 23  1  0  0  0  0
 19 42  1  0  0  0  0
 19 43  1  0  0  0  0
 20 26  1  0  0  0  0
 21 44  1  0  0  0  0
 21 45  1  0  0  0  0
 21 46  1  0  0  0  0
 22 47  1  0  0  0  0
 22 48  1  0  0  0  0
 22 49  1  0  0  0  0
 23 25  1  0  0  0  0
 23 50  1  0  0  0  0
 23 51  1  0  0  0  0
 24 25  1  0  0  0  0
 24 52  1  0  0  0  0
 26 53  1  0  0  0  0
 26 54  1  0  0  0  0
 26 55  1  0  0  0  0
M  END
> <PUBCHEM_COMPOUND_CID>
11954084

> <PUBCHEM_CONFORMER_RMSD>
0.6

> <PUBCHEM_CONFORMER_DIVERSEORDER>
1
2

> <PUBCHEM_MMFF94_PARTIAL_CHARGES>
17
1 -0.23
12 0.14
13 0.06
15 0.45
17 -0.28
18 0.14
2 -0.57
20 0.45
23 0.06
24 -0.14
25 0.49
26 0.06
3 -0.57
4 -0.57
52 0.15
8 0.29
9 0.06

> <PUBCHEM_EFFECTIVE_ROTOR_COUNT>
2.6

> <PUBCHEM_PHARMACOPHORE_FEATURES>
8
1 1 hydrophobe
1 2 acceptor
1 3 acceptor
1 4 acceptor
5 5 6 9 10 11 rings
6 12 17 19 23 24 25 rings
6 5 6 7 8 13 15 rings
6 7 8 12 14 17 18 rings

> <PUBCHEM_HEAVY_ATOM_COUNT>
26

> <PUBCHEM_ATOM_DEF_STEREO_COUNT>
7

> <PUBCHEM_ATOM_UDEF_STEREO_COUNT>
0

> <PUBCHEM_BOND_DEF_STEREO_COUNT>
0

> <PUBCHEM_BOND_UDEF_STEREO_COUNT>
0

> <PUBCHEM_ISOTOPIC_ATOM_COUNT>
0

> <PUBCHEM_COMPONENT_COUNT>
1

> <PUBCHEM_CACTVS_TAUTO_COUNT>
30

> <PUBCHEM_CONFORMER_ID>
00B667A400000001

> <PUBCHEM_MMFF94_ENERGY>
89.3041

> <PUBCHEM_FEATURE_SELFOVERLAP>
40.686

> <PUBCHEM_SHAPE_FINGERPRINT>
10366900 7 17988646267837917777
10498660 4 18410577330973484544
10863032 1 18410012165207049400
11578080 2 17201654474139283727
12011746 2 18412265025545282468
12107183 9 17692819602136439146
12166972 35 18131066004762914684
12236239 1 17989205971434255918
12403259 226 18335428928567804777
12403259 415 18261399939918803249
12403260 363 18408888408367652597
12616971 3 4823211749248851163
12788726 201 18194405712954652904
13140716 1 18192988228107961307
13224815 77 18412260649369259585
13862211 1 18408890620170555278
13944108 23 16469826329294197061
14341114 176 18408880720233774513
14787075 74 18412543193460712522
14790565 3 18410569613292059872
15196674 1 18410295830269031728
15788980 27 18412263943398192069
1601671 61 18340488962603781836
16945 1 18188508894465168026
17349148 13 17989203737850983831
17980427 23 17846207874086956757
18681886 176 18409736123253562240
19591789 44 18409452491907512462
200 152 18113057138144643505
20028762 73 17968383338238934751
21033648 144 17823145531573819616
21033648 29 18411149016864233401
21267235 1 18336539443463494878
21279426 13 18266176308924537574
21709351 56 18409173203385939893
221357 26 18408608045682028497
22393880 68 18410583898099734629
23402539 116 18260833704241242165
23522609 53 18119495839783563729
23557571 272 18186237338487632557
23559900 14 18119536684885176910
296302 2 18059855112019160761
3004659 81 18270960258922692854
335352 9 18264774427172455917
34797466 226 18261097553342167708
34934 24 18335991904696834952
350125 39 18410008832423392265
4214541 1 18410013255949634765
465052 167 18114458959667300622
5104073 3 18410296942655116761
7495541 125 17458347386066771546
9709674 26 18341896238729259953
9999458 23 18059013870071498724

> <PUBCHEM_SHAPE_MULTIPOLES>
523.4
10.98
2.44
1.32
1.05
0.36
-0.11
-0.85
-1.13
-1.21
-0.09
0.05
-0.14
0.23

> <PUBCHEM_SHAPE_SELFOVERLAP>
1108.976

> <PUBCHEM_SHAPE_VOLUME>
299.2

> <PUBCHEM_COORDINATE_TYPE>
2
5
10

$$$$

