9543297
  -OEChem-07051213113D

 17 17  0     0  0  0  0  0  0999 V2000
   -2.9888   -1.9791   -0.0026 Cl  0  0  0  0  0  0  0  0  0  0  0  0
   -0.8698    1.3353    0.0073 O   0  0  0  0  0  0  0  0  0  0  0  0
    2.6872   -0.8848   -1.2093 O   0  0  0  0  0  0  0  0  0  0  0  0
   -3.1641    1.1583   -0.0187 O   0  0  0  0  0  0  0  0  0  0  0  0
    2.8085   -1.0553    1.0528 O   0  0  0  0  0  0  0  0  0  0  0  0
    0.1144    0.3528    0.0230 C   0  0  0  0  0  0  0  0  0  0  0  0
    1.4249    0.6358    0.0363 C   0  0  0  0  0  0  0  0  0  0  0  0
   -0.4765   -0.9401    0.0223 C   0  0  0  0  0  0  0  0  0  0  0  0
    1.9452    2.0400    0.0348 C   0  0  0  0  0  0  0  0  0  0  0  0
   -1.7913   -0.7959    0.0057 C   0  0  0  0  0  0  0  0  0  0  0  0
   -2.0578    0.6441   -0.0037 C   0  0  0  0  0  0  0  0  0  0  0  0
    2.3681   -0.5110    0.0521 C   0  0  0  0  0  0  0  0  0  0  0  0
    0.0479   -1.8827    0.0332 H   0  0  0  0  0  0  0  0  0  0  0  0
    2.5687    2.2073   -0.8496 H   0  0  0  0  0  0  0  0  0  0  0  0
    1.1528    2.7944    0.0300 H   0  0  0  0  0  0  0  0  0  0  0  0
    2.5610    2.2110    0.9239 H   0  0  0  0  0  0  0  0  0  0  0  0
    3.3102   -1.6425   -1.2213 H   0  0  0  0  0  0  0  0  0  0  0  0
  1 10  1  0  0  0  0
  2  6  1  0  0  0  0
  2 11  1  0  0  0  0
  3 12  1  0  0  0  0
  3 17  1  0  0  0  0
  4 11  2  0  0  0  0
  5 12  2  0  0  0  0
  6  7  2  0  0  0  0
  6  8  1  0  0  0  0
  7  9  1  0  0  0  0
  7 12  1  0  0  0  0
  8 10  2  0  0  0  0
  8 13  1  0  0  0  0
  9 14  1  0  0  0  0
  9 15  1  0  0  0  0
  9 16  1  0  0  0  0
 10 11  1  0  0  0  0
M  END
> <PUBCHEM_COMPOUND_CID>
9543297

> <PUBCHEM_CONFORMER_RMSD>
0.4

> <PUBCHEM_CONFORMER_DIVERSEORDER>
1
3
2

> <PUBCHEM_MMFF94_PARTIAL_CHARGES>
14
1 -0.14
10 0.15
11 0.71
12 0.71
13 0.15
17 0.5
2 -0.23
3 -0.65
4 -0.57
5 -0.57
6 0.08
7 -0.12
8 -0.15
9 0.14

> <PUBCHEM_EFFECTIVE_ROTOR_COUNT>
1.2

> <PUBCHEM_PHARMACOPHORE_FEATURES>
6
1 3 acceptor
1 4 acceptor
1 5 acceptor
1 9 hydrophobe
3 3 5 12 anion
5 2 6 8 10 11 rings

> <PUBCHEM_HEAVY_ATOM_COUNT>
12

> <PUBCHEM_ATOM_DEF_STEREO_COUNT>
0

> <PUBCHEM_ATOM_UDEF_STEREO_COUNT>
0

> <PUBCHEM_BOND_DEF_STEREO_COUNT>
1

> <PUBCHEM_BOND_UDEF_STEREO_COUNT>
0

> <PUBCHEM_ISOTOPIC_ATOM_COUNT>
0

> <PUBCHEM_COMPONENT_COUNT>
1

> <PUBCHEM_CACTVS_TAUTO_COUNT>
1

> <PUBCHEM_CONFORMER_ID>
00919E8100000001

> <PUBCHEM_MMFF94_ENERGY>
23.7409

> <PUBCHEM_FEATURE_SELFOVERLAP>
30.504

> <PUBCHEM_SHAPE_FINGERPRINT>
11769659 78 18341057319826102803
12932764 1 18060418027655041725
14325111 11 18410856534186691793
14648413 74 18408318874102928392
15775835 57 18131064974044213412
16945 1 18338233898414290161
17990270 104 18334852792937716502
19973954 147 18409165476497083313
20201158 50 18188208805274503854
20645477 70 18264774264143449455
20653091 64 18341052930522305936
20715346 28 17822013111885262814
21501502 16 18338798918489278585
21501925 9 18338531732837093962
2334 1 18338798888540532569
23552423 10 18272368616261480453
23559900 14 18263080089082641270
2748010 2 18338519642646586893
3248919 1 17967252005102645841
369184 2 18411984641648552953
5084963 1 18114177523324111955
7364860 26 18188769427645982744
74978 22 18411136956695883401
8030462 33 17988639653598954414

> <PUBCHEM_SHAPE_MULTIPOLES>
225.35
4.94
1.9
0.76
0.87
0.25
0.04
-1.19
0.01
0.23
-0.03
-0.43
-0.21
0

> <PUBCHEM_SHAPE_SELFOVERLAP>
466.712

> <PUBCHEM_SHAPE_VOLUME>
131

> <PUBCHEM_COORDINATE_TYPE>
2
5
10

$$$$

