7011
  -OEChem-06261201403D

 25 25  0     1  0  0  0  0  0999 V2000
   -1.5267   -1.5885    1.1539 O   0  0  0  0  0  0  0  0  0  0  0  0
   -3.0853   -1.2001   -0.4881 N   0  0  0  0  0  0  0  0  0  0  0  0
   -1.1305    0.2378   -0.4043 C   0  0  1  0  0  0  0  0  0  0  0  0
   -1.6414    1.5615    0.2001 C   0  0  0  0  0  0  0  0  0  0  0  0
    0.3631    0.0376   -0.2118 C   0  0  0  0  0  0  0  0  0  0  0  0
   -1.9067   -0.9426    0.1801 C   0  0  0  0  0  0  0  0  0  0  0  0
   -0.9815    2.7902   -0.4131 C   0  0  0  0  0  0  0  0  0  0  0  0
    0.9607    0.5169    0.9377 C   0  0  0  0  0  0  0  0  0  0  0  0
    1.0829   -0.6180   -1.1917 C   0  0  0  0  0  0  0  0  0  0  0  0
    2.3321    0.3332    1.1142 C   0  0  0  0  0  0  0  0  0  0  0  0
    2.4543   -0.8019   -1.0150 C   0  0  0  0  0  0  0  0  0  0  0  0
    3.0790   -0.3263    0.1379 C   0  0  0  0  0  0  0  0  0  0  0  0
   -1.3295    0.2742   -1.4851 H   0  0  0  0  0  0  0  0  0  0  0  0
   -1.5567    1.5851    1.2923 H   0  0  0  0  0  0  0  0  0  0  0  0
   -2.7201    1.6333    0.0043 H   0  0  0  0  0  0  0  0  0  0  0  0
   -1.4700    3.6968   -0.0406 H   0  0  0  0  0  0  0  0  0  0  0  0
   -1.0799    2.7838   -1.5036 H   0  0  0  0  0  0  0  0  0  0  0  0
    0.0798    2.8682   -0.1645 H   0  0  0  0  0  0  0  0  0  0  0  0
    0.4140    1.0091    1.7334 H   0  0  0  0  0  0  0  0  0  0  0  0
    0.6048   -0.9936   -2.0913 H   0  0  0  0  0  0  0  0  0  0  0  0
    2.8179    0.6976    2.0146 H   0  0  0  0  0  0  0  0  0  0  0  0
    3.0356   -1.3161   -1.7748 H   0  0  0  0  0  0  0  0  0  0  0  0
    4.1464   -0.4709    0.2762 H   0  0  0  0  0  0  0  0  0  0  0  0
   -3.6948   -1.9568   -0.1961 H   0  0  0  0  0  0  0  0  0  0  0  0
   -3.3914   -0.6507   -1.2846 H   0  0  0  0  0  0  0  0  0  0  0  0
  1  6  2  0  0  0  0
  2  6  1  0  0  0  0
  2 24  1  0  0  0  0
  2 25  1  0  0  0  0
  3  4  1  0  0  0  0
  3  5  1  0  0  0  0
  3  6  1  0  0  0  0
  3 13  1  0  0  0  0
  4  7  1  0  0  0  0
  4 14  1  0  0  0  0
  4 15  1  0  0  0  0
  5  8  2  0  0  0  0
  5  9  1  0  0  0  0
  7 16  1  0  0  0  0
  7 17  1  0  0  0  0
  7 18  1  0  0  0  0
  8 10  1  0  0  0  0
  8 19  1  0  0  0  0
  9 11  2  0  0  0  0
  9 20  1  0  0  0  0
 10 12  2  0  0  0  0
 10 21  1  0  0  0  0
 11 12  1  0  0  0  0
 11 22  1  0  0  0  0
 12 23  1  0  0  0  0
M  END
> <PUBCHEM_COMPOUND_CID>
7011

> <PUBCHEM_CONFORMER_RMSD>
0.6

> <PUBCHEM_CONFORMER_DIVERSEORDER>
3
22
6
16
2
20
19
12
10
7
14
5
21
18
13
15
17
11
4
1
9
8

> <PUBCHEM_MMFF94_PARTIAL_CHARGES>
17
1 -0.57
10 -0.15
11 -0.15
12 -0.15
19 0.15
2 -0.8
20 0.15
21 0.15
22 0.15
23 0.15
24 0.37
25 0.37
3 0.2
5 -0.14
6 0.57
8 -0.15
9 -0.15

> <PUBCHEM_EFFECTIVE_ROTOR_COUNT>
3

> <PUBCHEM_PHARMACOPHORE_FEATURES>
4
1 1 acceptor
1 2 donor
1 7 hydrophobe
6 5 8 9 10 11 12 rings

> <PUBCHEM_HEAVY_ATOM_COUNT>
12

> <PUBCHEM_ATOM_DEF_STEREO_COUNT>
0

> <PUBCHEM_ATOM_UDEF_STEREO_COUNT>
1

> <PUBCHEM_BOND_DEF_STEREO_COUNT>
0

> <PUBCHEM_BOND_UDEF_STEREO_COUNT>
0

> <PUBCHEM_ISOTOPIC_ATOM_COUNT>
0

> <PUBCHEM_COMPONENT_COUNT>
1

> <PUBCHEM_CACTVS_TAUTO_COUNT>
2

> <PUBCHEM_CONFORMER_ID>
00001B6300000003

> <PUBCHEM_MMFF94_ENERGY>
29.2007

> <PUBCHEM_FEATURE_SELFOVERLAP>
20.297

> <PUBCHEM_SHAPE_FINGERPRINT>
1 1 17117478217311008325
12138202 97 18192435392264283084
12423570 1 14973263292667994597
12716758 59 18194398029257276178
13839132 238 18121222236210356324
13898156 1 17560511923481567308
14128692 85 16844730802929232474
15219456 202 17967255325117640464
15490181 7 17835802272040566337
15501101 241 17677330498457722363
16945 1 18342734165052028468
17844478 74 18186800266459880032
18380122 1 18114190696205008608
20711985 344 18340767138881936041
21040471 1 17981042230109255940
21061003 4 17313096467235923610
21501502 16 18334572473238656032
21524375 3 17692530430831904821
21930827 45 18192713560089886224
22802520 49 18116150154616520828
23402539 116 18337408088041230935
23419403 2 13992897755575900262
23559900 14 17756145949592494678
25 1 17248642210457467908
2748010 2 17749679592300699540
276578 36 17838889692027697425
305870 269 17334500895932450820
5084963 1 17530973444938384482
54338 74 18202285801168726317
81228 2 18412258471715670457

> <PUBCHEM_SHAPE_MULTIPOLES>
236.1
4.14
1.95
1.14
1.03
1.19
0.06
-1.1
-0.02
-1.75
-0.13
0.41
-0.15
0.59

> <PUBCHEM_SHAPE_SELFOVERLAP>
483.624

> <PUBCHEM_SHAPE_VOLUME>
135.9

> <PUBCHEM_COORDINATE_TYPE>
2
5
10

$$$$

