159296
  -OEChem-07051212433D

 42 44  0     1  0  0  0  0  0999 V2000
    1.6426    3.7377    0.6209 P   0  0  0  0  0  0  0  0  0  0  0  0
    4.3340   -2.8835   -0.0468 P   0  0  0  0  0  0  0  0  0  0  0  0
    0.6560   -0.7859   -0.9988 O   0  0  0  0  0  0  0  0  0  0  0  0
    2.1327    2.3403   -0.0211 O   0  0  0  0  0  0  0  0  0  0  0  0
    0.1196    2.2585   -1.8576 O   0  0  0  0  0  0  0  0  0  0  0  0
    3.2457   -1.8675   -0.6831 O   0  0  0  0  0  0  0  0  0  0  0  0
    2.9547    4.6798    0.5439 O   0  0  0  0  0  0  0  0  0  0  0  0
    1.5317    3.3824    2.1947 O   0  0  0  0  0  0  0  0  0  0  0  0
    0.3992    4.3180    0.0130 O   0  0  0  0  0  0  0  0  0  0  0  0
    3.6762   -3.3147    1.3662 O   0  0  0  0  0  0  0  0  0  0  0  0
    5.5383   -1.8965    0.3893 O   0  0  0  0  0  0  0  0  0  0  0  0
    4.7378   -4.0200   -0.9400 O   0  0  0  0  0  0  0  0  0  0  0  0
   -1.5613   -0.4750   -0.2102 N   0  0  0  0  0  0  0  0  0  0  0  0
   -2.5182   -1.5113    1.5184 N   0  0  0  0  0  0  0  0  0  0  0  0
   -3.5436    0.1434   -1.4715 N   0  0  0  0  0  0  0  0  0  0  0  0
   -5.5786   -0.6012   -0.3488 N   0  0  0  0  0  0  0  0  0  0  0  0
   -5.5390   -1.7841    1.7311 N   0  0  0  0  0  0  0  0  0  0  0  0
    1.2533    1.2375    0.0335 C   0  0  1  0  0  0  0  0  0  0  0  0
   -0.0654    1.4802   -0.6763 C   0  0  2  0  0  0  0  0  0  0  0  0
    1.8019    0.0311   -0.7085 C   0  0  1  0  0  0  0  0  0  0  0  0
   -0.5059    0.0684   -1.0668 C   0  0  1  0  0  0  0  0  0  0  0  0
    2.8116   -0.7670    0.0967 C   0  0  0  0  0  0  0  0  0  0  0  0
   -2.9091   -0.4178   -0.4313 C   0  0  0  0  0  0  0  0  0  0  0  0
   -1.3779   -1.1423    0.9731 C   0  0  0  0  0  0  0  0  0  0  0  0
   -3.4835   -1.0649    0.6512 C   0  0  0  0  0  0  0  0  0  0  0  0
   -4.8722   -1.1467    0.6706 C   0  0  0  0  0  0  0  0  0  0  0  0
   -4.8806    0.0009   -1.3419 C   0  0  0  0  0  0  0  0  0  0  0  0
    1.0609    0.9725    1.0808 H   0  0  0  0  0  0  0  0  0  0  0  0
   -0.7924    2.0030   -0.0468 H   0  0  0  0  0  0  0  0  0  0  0  0
    2.2500    0.3209   -1.6677 H   0  0  0  0  0  0  0  0  0  0  0  0
   -0.8798    0.0195   -2.0961 H   0  0  0  0  0  0  0  0  0  0  0  0
    2.3484   -1.1497    1.0120 H   0  0  0  0  0  0  0  0  0  0  0  0
    3.6685   -0.1402    0.3617 H   0  0  0  0  0  0  0  0  0  0  0  0
   -0.7490    2.3457   -2.2862 H   0  0  0  0  0  0  0  0  0  0  0  0
   -0.3987   -1.3279    1.3931 H   0  0  0  0  0  0  0  0  0  0  0  0
   -5.4780    0.4264   -2.1412 H   0  0  0  0  0  0  0  0  0  0  0  0
    2.8841    5.6157    0.8291 H   0  0  0  0  0  0  0  0  0  0  0  0
    1.1556    4.0504    2.8065 H   0  0  0  0  0  0  0  0  0  0  0  0
   -5.0143   -2.1909    2.4935 H   0  0  0  0  0  0  0  0  0  0  0  0
   -6.5488   -1.8296    1.7230 H   0  0  0  0  0  0  0  0  0  0  0  0
    4.1284   -3.9918    1.9132 H   0  0  0  0  0  0  0  0  0  0  0  0
    6.3733   -2.2863    0.7257 H   0  0  0  0  0  0  0  0  0  0  0  0
  1  4  1  0  0  0  0
  1  7  1  0  0  0  0
  1  8  1  0  0  0  0
  1  9  2  0  0  0  0
  2  6  1  0  0  0  0
  2 10  1  0  0  0  0
  2 11  1  0  0  0  0
  2 12  2  0  0  0  0
  3 20  1  0  0  0  0
  3 21  1  0  0  0  0
  4 18  1  0  0  0  0
  5 19  1  0  0  0  0
  5 34  1  0  0  0  0
  6 22  1  0  0  0  0
  7 37  1  0  0  0  0
  8 38  1  0  0  0  0
 10 41  1  0  0  0  0
 11 42  1  0  0  0  0
 13 21  1  0  0  0  0
 13 23  1  0  0  0  0
 13 24  1  0  0  0  0
 14 24  2  0  0  0  0
 14 25  1  0  0  0  0
 15 23  2  0  0  0  0
 15 27  1  0  0  0  0
 16 26  1  0  0  0  0
 16 27  2  0  0  0  0
 17 26  1  0  0  0  0
 17 39  1  0  0  0  0
 17 40  1  0  0  0  0
 18 19  1  0  0  0  0
 18 20  1  0  0  0  0
 18 28  1  0  0  0  0
 19 21  1  0  0  0  0
 19 29  1  0  0  0  0
 20 22  1  0  0  0  0
 20 30  1  0  0  0  0
 21 31  1  0  0  0  0
 22 32  1  0  0  0  0
 22 33  1  0  0  0  0
 23 25  1  0  0  0  0
 24 35  1  0  0  0  0
 25 26  2  0  0  0  0
 27 36  1  0  0  0  0
M  END
> <PUBCHEM_COMPOUND_CID>
159296

> <PUBCHEM_CONFORMER_RMSD>
0.8

> <PUBCHEM_CONFORMER_DIVERSEORDER>
1
35
22
52
14
29
24
2
7
32
41
27
15
48
49
28
33
5
43
8
44
42
6
47
51
10
38
46
9
16
3
20
25
13
30
34
39
26
18
40
4
21
11
12
31
50
19
45
37
17
23
36

> <PUBCHEM_MMFF94_PARTIAL_CHARGES>
36
1 1.51
10 -0.77
11 -0.77
12 -0.7
13 0.05
14 -0.57
15 -0.57
16 -0.62
17 -0.9
18 0.28
19 0.28
2 1.51
20 0.28
21 0.54
22 0.28
23 0.11
24 0.04
25 0.23
26 0.41
27 0.47
3 -0.56
34 0.4
35 0.15
36 0.15
37 0.5
38 0.5
39 0.4
4 -0.55
40 0.4
41 0.5
42 0.5
5 -0.68
6 -0.55
7 -0.77
8 -0.77
9 -0.7

> <PUBCHEM_EFFECTIVE_ROTOR_COUNT>
7

> <PUBCHEM_PHARMACOPHORE_FEATURES>
19
1 10 acceptor
1 11 acceptor
1 12 acceptor
1 17 cation
1 17 donor
1 3 acceptor
1 5 acceptor
1 5 donor
1 7 acceptor
1 8 acceptor
1 9 acceptor
3 13 14 24 cation
3 13 15 23 cation
3 15 16 27 cation
4 1 7 8 9 anion
4 2 10 11 12 anion
5 13 14 23 24 25 rings
5 3 18 19 20 21 rings
6 15 16 23 25 26 27 rings

> <PUBCHEM_HEAVY_ATOM_COUNT>
27

> <PUBCHEM_ATOM_DEF_STEREO_COUNT>
4

> <PUBCHEM_ATOM_UDEF_STEREO_COUNT>
0

> <PUBCHEM_BOND_DEF_STEREO_COUNT>
0

> <PUBCHEM_BOND_UDEF_STEREO_COUNT>
0

> <PUBCHEM_ISOTOPIC_ATOM_COUNT>
0

> <PUBCHEM_COMPONENT_COUNT>
1

> <PUBCHEM_CACTVS_TAUTO_COUNT>
3

> <PUBCHEM_CONFORMER_ID>
00026E4000000001

> <PUBCHEM_MMFF94_ENERGY>
-4.9736

> <PUBCHEM_FEATURE_SELFOVERLAP>
97.095

> <PUBCHEM_SHAPE_FINGERPRINT>
10074138 170 17688885549833118968
11991303 11 17331380478033300052
12342043 65 17916285192192154587
12403259 226 18273214188623159431
12516196 113 18410013277625282110
12549972 3 18059566967417150065
12760667 363 18126004003790313910
12788726 201 18054230109616926362
13134695 92 18408604755657984949
13140716 1 17903076629799673480
13533116 47 18339633439836931475
13583140 156 18266455404500266391
13631057 29 18127406972728439930
13955234 65 18265046938330717832
14022347 108 16702026348818112893
14866123 147 17837491117668893835
15042514 8 17976253870155912724
15927050 60 17760085113243994068
17980427 23 17677044750278839145
1813 80 17968648423762101926
18222031 100 18041276660040170638
20505436 4 17462270345039337309
20600515 1 18127110069300313662
20832881 197 18342737468219697275
21049683 271 18271513209712143268
21065201 7 17275109397369681111
21120745 212 18048015648943834124
21279426 13 18129388266399439127
2132832 1 17968089850380433321
21344244 78 17967814946323747619
23175994 123 18411701032131333031
23559900 14 17917713470401345335
244849 19 18057911115743057741
283562 15 18125436673291874210
3004659 81 17274817004481258662
3421961 26 18413105035307179698
437815 12 18339643450762178535
474 4 17828480263555960473
5385378 56 18192424178120932729
6004065 56 18337122206212420279
6679774 75 17913221867361600488
77188 2 18336543923715946788
79837 15 17184760091383949448
9709674 26 17844802586790097939
9841814 1 18261382347832654326

> <PUBCHEM_SHAPE_MULTIPOLES>
479.75
10.79
5.24
1.49
6.64
5.09
-0.23
-11.43
-1.07
-9.95
-1.56
0.82
0.17
1.9

> <PUBCHEM_SHAPE_SELFOVERLAP>
996.922

> <PUBCHEM_SHAPE_VOLUME>
275.7

> <PUBCHEM_COORDINATE_TYPE>
2
5
10

$$$$

