442440
  -OEChem-07051212583D

 40 41  0     1  0  0  0  0  0999 V2000
   -0.9363    2.7451    0.8877 O   0  0  0  0  0  0  0  0  0  0  0  0
    1.6344    3.0196    0.5146 O   0  0  0  0  0  0  0  0  0  0  0  0
   -5.7821   -1.6160    0.1638 O   0  0  0  0  0  0  0  0  0  0  0  0
    3.6613    2.2024   -1.0078 O   0  0  0  0  0  0  0  0  0  0  0  0
    4.9387   -2.3297   -0.2815 O   0  0  0  0  0  0  0  0  0  0  0  0
   -0.8186    0.9320   -0.6737 C   0  0  0  0  0  0  0  0  0  0  0  0
   -0.2509    1.5237    0.6199 C   0  0  1  0  0  0  0  0  0  0  0  0
   -2.1472    0.2500   -0.4493 C   0  0  0  0  0  0  0  0  0  0  0  0
    1.2548    1.8315    0.4609 C   0  0  0  0  0  0  0  0  0  0  0  0
    2.2201    0.7604    0.2567 C   0  0  0  0  0  0  0  0  0  0  0  0
   -2.1723   -1.0962   -0.1238 C   0  0  0  0  0  0  0  0  0  0  0  0
   -3.3158    0.9840   -0.5735 C   0  0  0  0  0  0  0  0  0  0  0  0
    3.3908    0.9800   -0.4694 C   0  0  0  0  0  0  0  0  0  0  0  0
    1.9634   -0.4974    0.8026 C   0  0  0  0  0  0  0  0  0  0  0  0
   -3.3994   -1.7261    0.0831 C   0  0  0  0  0  0  0  0  0  0  0  0
   -4.5431    0.3541   -0.3664 C   0  0  0  0  0  0  0  0  0  0  0  0
   -4.5849   -1.0009   -0.0380 C   0  0  0  0  0  0  0  0  0  0  0  0
    4.3046   -0.0585   -0.6497 C   0  0  0  0  0  0  0  0  0  0  0  0
    2.8771   -1.5355    0.6221 C   0  0  0  0  0  0  0  0  0  0  0  0
    4.0478   -1.3161   -0.1040 C   0  0  0  0  0  0  0  0  0  0  0  0
   -6.9551   -0.8159    0.0240 C   0  0  0  0  0  0  0  0  0  0  0  0
    4.6128   -3.5904    0.3017 C   0  0  0  0  0  0  0  0  0  0  0  0
   -0.9426    1.7206   -1.4284 H   0  0  0  0  0  0  0  0  0  0  0  0
   -0.1312    0.2053   -1.1233 H   0  0  0  0  0  0  0  0  0  0  0  0
   -0.4054    0.8746    1.4870 H   0  0  0  0  0  0  0  0  0  0  0  0
   -1.2545   -1.6687   -0.0253 H   0  0  0  0  0  0  0  0  0  0  0  0
   -3.2930    2.0396   -0.8289 H   0  0  0  0  0  0  0  0  0  0  0  0
    1.0713   -0.7031    1.3855 H   0  0  0  0  0  0  0  0  0  0  0  0
   -3.4257   -2.7819    0.3391 H   0  0  0  0  0  0  0  0  0  0  0  0
   -5.4246    0.9763   -0.4766 H   0  0  0  0  0  0  0  0  0  0  0  0
   -0.6224    3.0709    1.7486 H   0  0  0  0  0  0  0  0  0  0  0  0
    5.2173    0.1118   -1.2153 H   0  0  0  0  0  0  0  0  0  0  0  0
    2.6171   -2.4862    1.0750 H   0  0  0  0  0  0  0  0  0  0  0  0
    2.9069    2.8017   -0.8941 H   0  0  0  0  0  0  0  0  0  0  0  0
   -6.9855   -0.0130    0.7684 H   0  0  0  0  0  0  0  0  0  0  0  0
   -7.8147   -1.4654    0.2192 H   0  0  0  0  0  0  0  0  0  0  0  0
   -7.0652   -0.4384   -0.9983 H   0  0  0  0  0  0  0  0  0  0  0  0
    5.4296   -4.2786    0.0611 H   0  0  0  0  0  0  0  0  0  0  0  0
    3.7008   -4.0118   -0.1344 H   0  0  0  0  0  0  0  0  0  0  0  0
    4.5597   -3.5267    1.3939 H   0  0  0  0  0  0  0  0  0  0  0  0
  1  7  1  0  0  0  0
  1 31  1  0  0  0  0
  2  9  2  0  0  0  0
  3 17  1  0  0  0  0
  3 21  1  0  0  0  0
  4 13  1  0  0  0  0
  4 34  1  0  0  0  0
  5 20  1  0  0  0  0
  5 22  1  0  0  0  0
  6  7  1  0  0  0  0
  6  8  1  0  0  0  0
  6 23  1  0  0  0  0
  6 24  1  0  0  0  0
  7  9  1  0  0  0  0
  7 25  1  0  0  0  0
  8 11  2  0  0  0  0
  8 12  1  0  0  0  0
  9 10  1  0  0  0  0
 10 13  2  0  0  0  0
 10 14  1  0  0  0  0
 11 15  1  0  0  0  0
 11 26  1  0  0  0  0
 12 16  2  0  0  0  0
 12 27  1  0  0  0  0
 13 18  1  0  0  0  0
 14 19  2  0  0  0  0
 14 28  1  0  0  0  0
 15 17  2  0  0  0  0
 15 29  1  0  0  0  0
 16 17  1  0  0  0  0
 16 30  1  0  0  0  0
 18 20  2  0  0  0  0
 18 32  1  0  0  0  0
 19 20  1  0  0  0  0
 19 33  1  0  0  0  0
 21 35  1  0  0  0  0
 21 36  1  0  0  0  0
 21 37  1  0  0  0  0
 22 38  1  0  0  0  0
 22 39  1  0  0  0  0
 22 40  1  0  0  0  0
M  END
> <PUBCHEM_COMPOUND_CID>
442440

> <PUBCHEM_CONFORMER_RMSD>
0.8

> <PUBCHEM_CONFORMER_DIVERSEORDER>
7
137
129
5
126
16
91
49
101
45
127
106
60
32
136
111
71
22
18
125
35
122
6
76
110
120
131
20
23
99
133
74
118
88
135
94
113
98
8
12
138
14
84
108
25
4
34
31
96
115
104
40
29
68
56
70
114
103
79
77
67
10
128
142
21
119
86
90
1
47
28
62
57
52
117
53
33
89
30
11
69
66
109
73
82
92
41
78
2
63
97
24
124
55
43
48
112
141
36
38
143
65
134
58
121
116
27
132
17
107
93
123
72
85
80
9
37
44
130
51
64
139
59
46
19
15
13
102
75
105
39
100
50
95
26
42
140
87
3
81
54
61
83

> <PUBCHEM_MMFF94_PARTIAL_CHARGES>
31
1 -0.68
10 0.09
11 -0.15
12 -0.15
13 0.08
14 -0.15
15 -0.15
16 -0.15
17 0.08
18 -0.15
19 -0.15
2 -0.57
20 0.08
21 0.28
22 0.28
26 0.15
27 0.15
28 0.15
29 0.15
3 -0.36
30 0.15
31 0.4
32 0.15
33 0.15
34 0.45
4 -0.53
5 -0.36
6 0.14
7 0.34
8 -0.14
9 0.42

> <PUBCHEM_EFFECTIVE_ROTOR_COUNT>
6

> <PUBCHEM_PHARMACOPHORE_FEATURES>
8
1 1 acceptor
1 1 donor
1 2 acceptor
1 3 acceptor
1 4 donor
1 5 acceptor
6 10 13 14 18 19 20 rings
6 8 11 12 15 16 17 rings

> <PUBCHEM_HEAVY_ATOM_COUNT>
22

> <PUBCHEM_ATOM_DEF_STEREO_COUNT>
0

> <PUBCHEM_ATOM_UDEF_STEREO_COUNT>
1

> <PUBCHEM_BOND_DEF_STEREO_COUNT>
0

> <PUBCHEM_BOND_UDEF_STEREO_COUNT>
0

> <PUBCHEM_ISOTOPIC_ATOM_COUNT>
0

> <PUBCHEM_COMPONENT_COUNT>
1

> <PUBCHEM_CACTVS_TAUTO_COUNT>
33

> <PUBCHEM_CONFORMER_ID>
0006C04800000007

> <PUBCHEM_MMFF94_ENERGY>
76.6535

> <PUBCHEM_FEATURE_SELFOVERLAP>
40.605

> <PUBCHEM_SHAPE_FINGERPRINT>
12107183 9 18190451861062425545
12403259 327 14562819841252272566
12553582 1 18187938265300145324
12760667 363 18262241122343642959
12788726 201 17894618275583265137
13073987 5 18334294266890651273
13533116 47 18409449142455461851
13551218 46 18409730656155885279
13911852 28 18335707169444626215
13955234 65 18189901907152800488
14341114 176 18412259507118916467
14576447 43 18411977001545324678
14617045 38 18342451496433365519
14866123 147 18047188841642541753
15188451 53 15647635367174057749
15196674 1 18411702101514652111
15352361 1 18337393845893033122
15537594 2 18261109617240735327
17349148 13 17168141201016550565
17492 89 18192712465601505382
193927 3 18042121115166623838
19784866 135 18188214324154427232
1979834 28 17240760709230244182
20281475 54 18409727386978878264
20403669 9 18334290993856513935
20645477 70 18343023276607198454
20832881 197 18409730668940060475
21267235 1 18410005554899206294
21279426 13 18341904026000787893
21478907 32 18337107972701039033
21634736 98 18412542146089897014
21713013 43 17988650743293969604
221357 26 18341896298705989907
221490 88 18342452626088729890
2215653 11 18340215115984679527
22950370 63 18409726257892732465
23379529 103 18262793090340553918
23522609 53 18119499134672176697
23559900 14 18411429422446678625
270888 7 9511159860067561246
2871803 45 18131917056774602586
3004659 81 18272934942407518394
3014965 18 18410578375420495671
314173 41 18336825299322782252
314194 84 18335985272787483359
3323516 105 18342742875224735865
3421961 26 18335144163418947928
345986 75 17748823025202499993
3472631 163 10735864089009932530
34797466 226 16702017531350221415
46194498 28 17632577115343048908
465052 167 18260544502924444599
5104073 3 18041282161555543464
7970288 3 18266180724104341066
88748 71 18340205288355934742
9709674 26 18270401568854045363

> <PUBCHEM_SHAPE_MULTIPOLES>
423.4
13.35
3.19
0.84
12.94
0.35
0
9.86
-1.29
-3.87
0.49
-0.28
-0.23
-0.24

> <PUBCHEM_SHAPE_SELFOVERLAP>
901.367

> <PUBCHEM_SHAPE_VOLUME>
236

> <PUBCHEM_COORDINATE_TYPE>
2
5
10

$$$$

