439544
  -OEChem-07051212463D

 57 58  0     1  0  0  0  0  0999 V2000
   -0.5463    0.7260   -0.3124 O   0  0  0  0  0  0  0  0  0  0  0  0
   -1.2517   -1.4415    0.1637 O   0  0  0  0  0  0  0  0  0  0  0  0
    2.5469    1.6358    1.4700 O   0  0  0  0  0  0  0  0  0  0  0  0
    1.2515   -1.4231   -0.9811 O   0  0  0  0  0  0  0  0  0  0  0  0
   -5.0957   -0.5860   -0.9905 O   0  0  0  0  0  0  0  0  0  0  0  0
   -4.5778   -2.9326    0.6006 O   0  0  0  0  0  0  0  0  0  0  0  0
    3.6618    2.1524   -0.5534 O   0  0  0  0  0  0  0  0  0  0  0  0
    0.9204    3.5369    2.5628 O   0  0  0  0  0  0  0  0  0  0  0  0
   -0.4691   -3.7464    1.4322 O   0  0  0  0  0  0  0  0  0  0  0  0
   -2.0914    2.5108   -2.1216 O   0  0  0  0  0  0  0  0  0  0  0  0
    5.4672   -1.7440    0.4232 O   0  0  0  0  0  0  0  0  0  0  0  0
   -3.2805    1.6117   -0.3341 N   0  0  0  0  0  0  0  0  0  0  0  0
    4.0420   -0.6325   -1.0442 N   0  0  0  0  0  0  0  0  0  0  0  0
    0.6948    0.5023    0.3522 C   0  0  1  0  0  0  0  0  0  0  0  0
   -2.8850    0.2296   -0.5099 C   0  0  1  0  0  0  0  0  0  0  0  0
    1.6745   -0.0957   -0.6625 C   0  0  1  0  0  0  0  0  0  0  0  0
   -1.5915   -0.0593    0.2597 C   0  0  2  0  0  0  0  0  0  0  0  0
   -4.0140   -0.7045   -0.0641 C   0  0  2  0  0  0  0  0  0  0  0  0
    1.2304    1.8148    0.9364 C   0  0  1  0  0  0  0  0  0  0  0  0
    3.0849   -0.1590   -0.0707 C   0  0  2  0  0  0  0  0  0  0  0  0
   -3.5542   -2.1636   -0.0253 C   0  0  1  0  0  0  0  0  0  0  0  0
   -2.2384   -2.2950    0.7461 C   0  0  1  0  0  0  0  0  0  0  0  0
    3.5007    1.2015    0.4975 C   0  0  2  0  0  0  0  0  0  0  0  0
    0.3550    2.3349    2.0735 C   0  0  0  0  0  0  0  0  0  0  0  0
   -1.6856   -3.7160    0.7080 C   0  0  0  0  0  0  0  0  0  0  0  0
   -2.8457    2.6325   -1.1600 C   0  0  0  0  0  0  0  0  0  0  0  0
    5.1544   -1.3869   -0.7096 C   0  0  0  0  0  0  0  0  0  0  0  0
   -3.4272    3.9652   -0.7704 C   0  0  0  0  0  0  0  0  0  0  0  0
    5.9695   -1.7683   -1.9161 C   0  0  0  0  0  0  0  0  0  0  0  0
    0.5863   -0.2129    1.1813 H   0  0  0  0  0  0  0  0  0  0  0  0
   -2.6986    0.0801   -1.5823 H   0  0  0  0  0  0  0  0  0  0  0  0
    1.6565    0.4753   -1.5984 H   0  0  0  0  0  0  0  0  0  0  0  0
   -1.7051    0.2201    1.3163 H   0  0  0  0  0  0  0  0  0  0  0  0
   -4.4060   -0.4048    0.9157 H   0  0  0  0  0  0  0  0  0  0  0  0
    1.2678    2.5936    0.1632 H   0  0  0  0  0  0  0  0  0  0  0  0
    3.0727   -0.8832    0.7557 H   0  0  0  0  0  0  0  0  0  0  0  0
   -3.4388   -2.5413   -1.0485 H   0  0  0  0  0  0  0  0  0  0  0  0
   -2.3691   -2.0101    1.7990 H   0  0  0  0  0  0  0  0  0  0  0  0
    4.4672    1.1046    1.0052 H   0  0  0  0  0  0  0  0  0  0  0  0
    0.3231    1.6187    2.9013 H   0  0  0  0  0  0  0  0  0  0  0  0
   -0.6639    2.5405    1.7320 H   0  0  0  0  0  0  0  0  0  0  0  0
   -3.8599    1.8440    0.4678 H   0  0  0  0  0  0  0  0  0  0  0  0
   -1.4691   -4.0226   -0.3208 H   0  0  0  0  0  0  0  0  0  0  0  0
   -2.3828   -4.4284    1.1592 H   0  0  0  0  0  0  0  0  0  0  0  0
    3.9138   -0.3517   -2.0124 H   0  0  0  0  0  0  0  0  0  0  0  0
    1.2427   -1.9440   -0.1600 H   0  0  0  0  0  0  0  0  0  0  0  0
   -4.7727   -0.8534   -1.8678 H   0  0  0  0  0  0  0  0  0  0  0  0
   -4.6567   -2.6341    1.5227 H   0  0  0  0  0  0  0  0  0  0  0  0
    4.2948    2.8204   -0.2399 H   0  0  0  0  0  0  0  0  0  0  0  0
    0.3498    3.8492    3.2855 H   0  0  0  0  0  0  0  0  0  0  0  0
   -0.1326   -4.6577    1.3900 H   0  0  0  0  0  0  0  0  0  0  0  0
   -4.5128    3.9459   -0.9002 H   0  0  0  0  0  0  0  0  0  0  0  0
   -3.0053    4.7512   -1.4027 H   0  0  0  0  0  0  0  0  0  0  0  0
   -3.1875    4.1859    0.2737 H   0  0  0  0  0  0  0  0  0  0  0  0
    6.2152   -0.8773   -2.5009 H   0  0  0  0  0  0  0  0  0  0  0  0
    6.8996   -2.2466   -1.5970 H   0  0  0  0  0  0  0  0  0  0  0  0
    5.4012   -2.4669   -2.5364 H   0  0  0  0  0  0  0  0  0  0  0  0
  1 14  1  0  0  0  0
  1 17  1  0  0  0  0
  2 17  1  0  0  0  0
  2 22  1  0  0  0  0
  3 19  1  0  0  0  0
  3 23  1  0  0  0  0
  4 16  1  0  0  0  0
  4 46  1  0  0  0  0
  5 18  1  0  0  0  0
  5 47  1  0  0  0  0
  6 21  1  0  0  0  0
  6 48  1  0  0  0  0
  7 23  1  0  0  0  0
  7 49  1  0  0  0  0
  8 24  1  0  0  0  0
  8 50  1  0  0  0  0
  9 25  1  0  0  0  0
  9 51  1  0  0  0  0
 10 26  2  0  0  0  0
 11 27  2  0  0  0  0
 12 15  1  0  0  0  0
 12 26  1  0  0  0  0
 12 42  1  0  0  0  0
 13 20  1  0  0  0  0
 13 27  1  0  0  0  0
 13 45  1  0  0  0  0
 14 16  1  0  0  0  0
 14 19  1  0  0  0  0
 14 30  1  0  0  0  0
 15 17  1  0  0  0  0
 15 18  1  0  0  0  0
 15 31  1  0  0  0  0
 16 20  1  0  0  0  0
 16 32  1  0  0  0  0
 17 33  1  0  0  0  0
 18 21  1  0  0  0  0
 18 34  1  0  0  0  0
 19 24  1  0  0  0  0
 19 35  1  0  0  0  0
 20 23  1  0  0  0  0
 20 36  1  0  0  0  0
 21 22  1  0  0  0  0
 21 37  1  0  0  0  0
 22 25  1  0  0  0  0
 22 38  1  0  0  0  0
 23 39  1  0  0  0  0
 24 40  1  0  0  0  0
 24 41  1  0  0  0  0
 25 43  1  0  0  0  0
 25 44  1  0  0  0  0
 26 28  1  0  0  0  0
 27 29  1  0  0  0  0
 28 52  1  0  0  0  0
 28 53  1  0  0  0  0
 28 54  1  0  0  0  0
 29 55  1  0  0  0  0
 29 56  1  0  0  0  0
 29 57  1  0  0  0  0
M  END
> <PUBCHEM_COMPOUND_CID>
439544

> <PUBCHEM_CONFORMER_RMSD>
1

> <PUBCHEM_CONFORMER_DIVERSEORDER>
1
84
82
31
61
46
12
64
20
71
76
25
55
29
69
17
80
51
38
45
28
86
50
30
72
27
49
63
33
15
73
42
37
21
58
39
59
18
57
40
8
26
35
9
32
22
47
87
56
85
14
65
81
11
74
2
23
75
79
88
68
34
4
53
43
10
60
36
41
54
70
52
19
6
13
83
77
16
78
24
3
5
7
62
44
48
67
66

> <PUBCHEM_MMFF94_PARTIAL_CHARGES>
37
1 -0.56
10 -0.57
11 -0.57
12 -0.73
13 -0.73
14 0.28
15 0.3
16 0.28
17 0.56
18 0.28
19 0.28
2 -0.56
20 0.3
21 0.28
22 0.28
23 0.56
24 0.28
25 0.28
26 0.57
27 0.57
28 0.06
29 0.06
3 -0.56
4 -0.68
42 0.37
45 0.37
46 0.4
47 0.4
48 0.4
49 0.4
5 -0.68
50 0.4
51 0.4
6 -0.68
7 -0.68
8 -0.68
9 -0.68

> <PUBCHEM_EFFECTIVE_ROTOR_COUNT>
10.4

> <PUBCHEM_PHARMACOPHORE_FEATURES>
21
1 1 acceptor
1 10 acceptor
1 11 acceptor
1 12 donor
1 13 donor
1 2 acceptor
1 3 acceptor
1 4 acceptor
1 4 donor
1 5 acceptor
1 5 donor
1 6 acceptor
1 6 donor
1 7 acceptor
1 7 donor
1 8 acceptor
1 8 donor
1 9 acceptor
1 9 donor
6 2 15 17 18 21 22 rings
6 3 14 16 19 20 23 rings

> <PUBCHEM_HEAVY_ATOM_COUNT>
29

> <PUBCHEM_ATOM_DEF_STEREO_COUNT>
9

> <PUBCHEM_ATOM_UDEF_STEREO_COUNT>
1

> <PUBCHEM_BOND_DEF_STEREO_COUNT>
0

> <PUBCHEM_BOND_UDEF_STEREO_COUNT>
0

> <PUBCHEM_ISOTOPIC_ATOM_COUNT>
0

> <PUBCHEM_COMPONENT_COUNT>
1

> <PUBCHEM_CACTVS_TAUTO_COUNT>
4

> <PUBCHEM_CONFORMER_ID>
0006B4F800000001

> <PUBCHEM_MMFF94_ENERGY>
67.5117

> <PUBCHEM_FEATURE_SELFOVERLAP>
106.679

> <PUBCHEM_SHAPE_FINGERPRINT>
10165383 225 18053660562826106957
10366900 7 18190184477482905365
1100329 8 17692257747727225699
12293681 160 17682689767145407681
12403259 226 18263365802437445475
12623949 98 17825934936707492023
12788726 201 17987522502751601185
13140716 1 18041550425708619560
13402501 40 18336544924058341303
13690498 29 18339348700400388974
14022347 108 17700986448607087323
14251740 79 18337946908525413738
14866123 147 17827058908321315378
14910302 57 18411987927172011908
20642791 178 17624708134130270523
20693207 138 18335415747291613244
21033650 10 18060414750985814104
21279426 13 18409167710080569871
221357 26 18334581243582850309
22182313 1 18187097126389688576
23526113 38 18187655669157739416
23536364 44 18189892196262788246
23557571 272 18057611953632384253
23559900 14 18340206289309927846
3298306 158 18337678636358007158
350125 39 18270683198718278979
508706 21 18411709806775801629
5104073 3 18259982660845531400
5265222 85 18199731657496236438
5283173 99 18411982490271085084
7226269 152 18117281565377951928
7399639 24 17830465977012817656
9709674 26 18192995924172514283

> <PUBCHEM_SHAPE_MULTIPOLES>
522.28
10.51
4.72
1.65
9.68
0.15
0.35
-4.75
-4.7
-4.11
1.39
0.69
1.14
3.03

> <PUBCHEM_SHAPE_SELFOVERLAP>
1063.74

> <PUBCHEM_SHAPE_VOLUME>
296.5

> <PUBCHEM_COORDINATE_TYPE>
2
5
10

$$$$

