18991
  -OEChem-07051213093D

 49 51  0     1  0  0  0  0  0999 V2000
    0.8634   -2.1516    0.2715 O   0  0  0  0  0  0  0  0  0  0  0  0
    3.5968   -2.0127    0.1945 O   0  0  0  0  0  0  0  0  0  0  0  0
    4.8522    0.3665   -0.4441 O   0  0  0  0  0  0  0  0  0  0  0  0
   -5.0502   -1.1970   -1.1206 O   0  0  0  0  0  0  0  0  0  0  0  0
   -4.5011   -0.8800    1.5545 O   0  0  0  0  0  0  0  0  0  0  0  0
    0.1219    1.7889    2.3703 N   0  0  0  0  0  0  0  0  0  0  0  0
   -0.8460    2.1639    1.3279 C   0  0  1  0  0  0  0  0  0  0  0  0
   -0.2236    3.1711    0.3276 C   0  0  0  0  0  0  0  0  0  0  0  0
    0.5264    2.6295   -0.8964 C   0  0  0  0  0  0  0  0  0  0  0  0
    1.3401    1.3929   -0.6262 C   0  0  0  0  0  0  0  0  0  0  0  0
   -1.5500    0.9489    0.7032 C   0  0  0  0  0  0  0  0  0  0  0  0
    0.6942    0.1787   -0.3134 C   0  0  0  0  0  0  0  0  0  0  0  0
   -0.7946    0.1277   -0.2552 C   0  0  0  0  0  0  0  0  0  0  0  0
    1.4629   -0.9609   -0.0292 C   0  0  0  0  0  0  0  0  0  0  0  0
    2.7397    1.4402   -0.6639 C   0  0  0  0  0  0  0  0  0  0  0  0
   -2.7965    0.6763    1.1329 C   0  0  0  0  0  0  0  0  0  0  0  0
   -1.3464   -0.6451   -1.2109 C   0  0  0  0  0  0  0  0  0  0  0  0
    2.8555   -0.8990   -0.0712 C   0  0  0  0  0  0  0  0  0  0  0  0
    3.4924    0.2983   -0.3897 C   0  0  0  0  0  0  0  0  0  0  0  0
   -3.7143   -0.4155    0.7317 C   0  0  0  0  0  0  0  0  0  0  0  0
   -2.7362   -0.8649   -1.5156 C   0  0  0  0  0  0  0  0  0  0  0  0
   -3.7878   -0.8244   -0.6895 C   0  0  0  0  0  0  0  0  0  0  0  0
    0.5838   -2.4039    1.6455 C   0  0  0  0  0  0  0  0  0  0  0  0
    4.5057   -1.9382    1.2900 C   0  0  0  0  0  0  0  0  0  0  0  0
    5.4646    0.0893   -1.7017 C   0  0  0  0  0  0  0  0  0  0  0  0
   -5.7528   -0.0793   -1.6220 C   0  0  0  0  0  0  0  0  0  0  0  0
   -1.6032    2.7488    1.8695 H   0  0  0  0  0  0  0  0  0  0  0  0
    0.4537    3.8397    0.8780 H   0  0  0  0  0  0  0  0  0  0  0  0
   -1.0226    3.8277   -0.0440 H   0  0  0  0  0  0  0  0  0  0  0  0
   -0.1873    2.4115   -1.7020 H   0  0  0  0  0  0  0  0  0  0  0  0
    1.1652    3.4267   -1.2981 H   0  0  0  0  0  0  0  0  0  0  0  0
    3.2472    2.3717   -0.9036 H   0  0  0  0  0  0  0  0  0  0  0  0
   -3.2259    1.2969    1.9189 H   0  0  0  0  0  0  0  0  0  0  0  0
    0.3610    2.6152    2.9186 H   0  0  0  0  0  0  0  0  0  0  0  0
    0.9985    1.4821    1.9547 H   0  0  0  0  0  0  0  0  0  0  0  0
   -0.6966   -1.1688   -1.9143 H   0  0  0  0  0  0  0  0  0  0  0  0
   -2.9117   -1.1922   -2.5399 H   0  0  0  0  0  0  0  0  0  0  0  0
    0.0803   -3.3717    1.7194 H   0  0  0  0  0  0  0  0  0  0  0  0
    1.5111   -2.4493    2.2249 H   0  0  0  0  0  0  0  0  0  0  0  0
   -0.0767   -1.6364    2.0602 H   0  0  0  0  0  0  0  0  0  0  0  0
    5.5102   -1.7012    0.9289 H   0  0  0  0  0  0  0  0  0  0  0  0
    4.1888   -1.2085    2.0435 H   0  0  0  0  0  0  0  0  0  0  0  0
    4.5414   -2.9232    1.7649 H   0  0  0  0  0  0  0  0  0  0  0  0
    5.2226   -0.9252   -2.0339 H   0  0  0  0  0  0  0  0  0  0  0  0
    5.1435    0.8176   -2.4531 H   0  0  0  0  0  0  0  0  0  0  0  0
    6.5484    0.1675   -1.5793 H   0  0  0  0  0  0  0  0  0  0  0  0
   -6.7442   -0.4145   -1.9415 H   0  0  0  0  0  0  0  0  0  0  0  0
   -5.8901    0.6862   -0.8500 H   0  0  0  0  0  0  0  0  0  0  0  0
   -5.2478    0.3525   -2.4933 H   0  0  0  0  0  0  0  0  0  0  0  0
  1 14  1  0  0  0  0
  1 23  1  0  0  0  0
  2 18  1  0  0  0  0
  2 24  1  0  0  0  0
  3 19  1  0  0  0  0
  3 25  1  0  0  0  0
  4 22  1  0  0  0  0
  4 26  1  0  0  0  0
  5 20  2  0  0  0  0
  6  7  1  0  0  0  0
  6 34  1  0  0  0  0
  6 35  1  0  0  0  0
  7  8  1  0  0  0  0
  7 11  1  0  0  0  0
  7 27  1  0  0  0  0
  8  9  1  0  0  0  0
  8 28  1  0  0  0  0
  8 29  1  0  0  0  0
  9 10  1  0  0  0  0
  9 30  1  0  0  0  0
  9 31  1  0  0  0  0
 10 12  1  0  0  0  0
 10 15  2  0  0  0  0
 11 13  1  0  0  0  0
 11 16  2  0  0  0  0
 12 13  1  0  0  0  0
 12 14  2  0  0  0  0
 13 17  2  0  0  0  0
 14 18  1  0  0  0  0
 15 19  1  0  0  0  0
 15 32  1  0  0  0  0
 16 20  1  0  0  0  0
 16 33  1  0  0  0  0
 17 21  1  0  0  0  0
 17 36  1  0  0  0  0
 18 19  2  0  0  0  0
 20 22  1  0  0  0  0
 21 22  2  0  0  0  0
 21 37  1  0  0  0  0
 23 38  1  0  0  0  0
 23 39  1  0  0  0  0
 23 40  1  0  0  0  0
 24 41  1  0  0  0  0
 24 42  1  0  0  0  0
 24 43  1  0  0  0  0
 25 44  1  0  0  0  0
 25 45  1  0  0  0  0
 25 46  1  0  0  0  0
 26 47  1  0  0  0  0
 26 48  1  0  0  0  0
 26 49  1  0  0  0  0
M  END
> <PUBCHEM_COMPOUND_CID>
18991

> <PUBCHEM_CONFORMER_RMSD>
0.8

> <PUBCHEM_CONFORMER_DIVERSEORDER>
1
11
13
7
4
5
8
3
9
12
6
10
2

> <PUBCHEM_MMFF94_PARTIAL_CHARGES>
31
1 -0.36
10 -0.14
11 -0.14
12 0.03
13 -0.03
14 0.08
15 -0.15
16 -0.14
17 -0.15
18 0.08
19 0.08
2 -0.36
20 0.54
21 -0.15
22 0.09
23 0.28
24 0.28
25 0.28
26 0.28
3 -0.36
32 0.15
33 0.15
34 0.36
35 0.36
36 0.15
37 0.15
4 -0.36
5 -0.57
6 -0.99
7 0.41
9 0.14

> <PUBCHEM_EFFECTIVE_ROTOR_COUNT>
4.6

> <PUBCHEM_PHARMACOPHORE_FEATURES>
10
1 1 acceptor
1 2 acceptor
1 3 acceptor
1 4 acceptor
1 5 acceptor
1 6 cation
1 6 donor
6 10 12 14 15 18 19 rings
7 11 13 16 17 20 21 22 rings
7 7 8 9 10 11 12 13 rings

> <PUBCHEM_HEAVY_ATOM_COUNT>
26

> <PUBCHEM_ATOM_DEF_STEREO_COUNT>
1

> <PUBCHEM_ATOM_UDEF_STEREO_COUNT>
0

> <PUBCHEM_BOND_DEF_STEREO_COUNT>
0

> <PUBCHEM_BOND_UDEF_STEREO_COUNT>
0

> <PUBCHEM_ISOTOPIC_ATOM_COUNT>
0

> <PUBCHEM_COMPONENT_COUNT>
1

> <PUBCHEM_CACTVS_TAUTO_COUNT>
1

> <PUBCHEM_CONFORMER_ID>
00004A2F00000001

> <PUBCHEM_MMFF94_ENERGY>
130.8312

> <PUBCHEM_FEATURE_SELFOVERLAP>
50.775

> <PUBCHEM_SHAPE_FINGERPRINT>
11135609 187 18272652295173956676
11578080 2 18117024197636702521
12236239 1 18187361017258203269
12553582 1 18334011687721892214
12788726 201 18334289898829270090
13004483 165 18336278923616585700
13140716 1 17983016949636784152
13544653 18 18413389851694509333
13583140 156 15553867907508797188
13911987 19 17774142540691989134
13965767 371 17248602551003731809
14294032 229 17096350904917591233
14347332 77 18042678589253274286
14787075 74 18114458947220553992
14955137 171 17750775702224660963
15375462 189 18260821571143377065
16945 1 18340485543493296780
17349148 13 18342171181240132770
17492 54 18272647926991444390
1813 80 18334849520019870996
18222031 100 17530973462155021463
192875 21 18272094941430734810
200 152 18411141342221405247
20600515 1 16370996352704527641
20691752 17 18336554806572381088
21267235 1 18187352204032817239
22112679 90 17894630340330619181
23402539 116 18113611296363391516
23557571 272 16805593789601774188
23559900 14 18266182733947887041
25147074 1 18198617921210757500
2748010 2 16108960055042562668
312423 11 18199177572566232230
34934 24 18266448992129930689
404807 14 14543444406842156656
7164475 11 18263646337037767166
9981440 41 16600146447033125617

> <PUBCHEM_SHAPE_MULTIPOLES>
500.74
9.82
2.68
1.72
1.67
1
-0.35
-4.31
3.76
-1.18
-0.93
0.72
0.03
-1.35

> <PUBCHEM_SHAPE_SELFOVERLAP>
1075.832

> <PUBCHEM_SHAPE_VOLUME>
273.6

> <PUBCHEM_COORDINATE_TYPE>
2
5
10

$$$$

