13842
  -OEChem-06241222403D

 12 11  0     0  0  0  0  0  0999 V2000
    2.2169    0.1217   -0.6231 O   0  0  0  0  0  0  0  0  0  0  0  0
   -0.9633    1.3089    0.0859 O   0  0  0  0  0  0  0  0  0  0  0  0
    0.2073   -0.6935    0.2351 N   0  0  0  0  0  0  0  0  0  0  0  0
   -2.0303   -0.6904   -0.2868 N   0  0  0  0  0  0  0  0  0  0  0  0
    1.4938   -0.1282    0.5696 C   0  0  0  0  0  0  0  0  0  0  0  0
   -0.9244    0.0815    0.0193 C   0  0  0  0  0  0  0  0  0  0  0  0
    2.0428   -0.8472    1.1833 H   0  0  0  0  0  0  0  0  0  0  0  0
    1.3710    0.8106    1.1163 H   0  0  0  0  0  0  0  0  0  0  0  0
    0.1370   -1.7003    0.1250 H   0  0  0  0  0  0  0  0  0  0  0  0
   -2.9328   -0.2655   -0.4713 H   0  0  0  0  0  0  0  0  0  0  0  0
   -1.9767   -1.7022   -0.3361 H   0  0  0  0  0  0  0  0  0  0  0  0
    2.1681   -0.6903   -1.1553 H   0  0  0  0  0  0  0  0  0  0  0  0
  1  5  1  0  0  0  0
  1 12  1  0  0  0  0
  2  6  2  0  0  0  0
  3  5  1  0  0  0  0
  3  6  1  0  0  0  0
  3  9  1  0  0  0  0
  4  6  1  0  0  0  0
  4 10  1  0  0  0  0
  4 11  1  0  0  0  0
  5  7  1  0  0  0  0
  5  8  1  0  0  0  0
M  END
> <PUBCHEM_COMPOUND_CID>
13842

> <PUBCHEM_CONFORMER_RMSD>
0.4

> <PUBCHEM_CONFORMER_DIVERSEORDER>
1
3
4
2

> <PUBCHEM_MMFF94_PARTIAL_CHARGES>
10
1 -0.68
10 0.37
11 0.37
12 0.4
2 -0.57
3 -0.73
4 -0.8
5 0.58
6 0.69
9 0.37

> <PUBCHEM_EFFECTIVE_ROTOR_COUNT>
2

> <PUBCHEM_PHARMACOPHORE_FEATURES>
5
1 1 acceptor
1 1 donor
1 2 acceptor
1 3 donor
1 4 donor

> <PUBCHEM_HEAVY_ATOM_COUNT>
6

> <PUBCHEM_ATOM_DEF_STEREO_COUNT>
0

> <PUBCHEM_ATOM_UDEF_STEREO_COUNT>
0

> <PUBCHEM_BOND_DEF_STEREO_COUNT>
0

> <PUBCHEM_BOND_UDEF_STEREO_COUNT>
0

> <PUBCHEM_ISOTOPIC_ATOM_COUNT>
0

> <PUBCHEM_COMPONENT_COUNT>
1

> <PUBCHEM_CACTVS_TAUTO_COUNT>
3

> <PUBCHEM_CONFORMER_ID>
0000361200000001

> <PUBCHEM_MMFF94_ENERGY>
3.754

> <PUBCHEM_FEATURE_SELFOVERLAP>
25.467

> <PUBCHEM_SHAPE_FINGERPRINT>
139733 1 10015596033513941979
16714656 1 18333729091827328039
20096714 4 18200871910803726784
21040471 1 17975703006018890321
24536 1 17988928924041410834
29004967 10 15647053755012968274
5460574 1 8935006975040010602

> <PUBCHEM_SHAPE_MULTIPOLES>
101.78
2.66
0.95
0.69
0.56
0.22
0.01
-0.19
-0.42
-0.36
0.03
0.22
-0.01
-0.13

> <PUBCHEM_SHAPE_SELFOVERLAP>
182.297

> <PUBCHEM_SHAPE_VOLUME>
65.8

> <PUBCHEM_COORDINATE_TYPE>
2
5
10

$$$$

