17395524
  -OEChem-06241222502D

 46 48  0     0  0  0  0  0  0999 V2000
    5.4387    2.6065    0.0000 O   0  0  0  0  0  0  0  0  0  0  0  0
    6.7290   -0.8744    0.0000 O   0  0  0  0  0  0  0  0  0  0  0  0
    7.2334   -1.7380    0.0000 O   0  0  0  0  0  0  0  0  0  0  0  0
    4.1881    1.3450    0.0000 N   0  0  0  0  0  0  0  0  0  0  0  0
    5.7204    0.8526    0.0000 N   0  0  0  0  0  0  0  0  0  0  0  0
    5.1408    0.0450    0.0000 N   0  0  0  0  0  0  0  0  0  0  0  0
    8.2247   -0.0009    0.0000 N   0  0  0  0  0  0  0  0  0  0  0  0
    2.0000    0.8340    0.0000 C   0  0  0  0  0  0  0  0  0  0  0  0
    2.4294    1.7372    0.0000 C   0  0  0  0  0  0  0  0  0  0  0  0
    2.4384   -0.0647    0.0000 C   0  0  0  0  0  0  0  0  0  0  0  0
    3.4032    1.9646    0.0000 C   0  0  0  0  0  0  0  0  0  0  0  0
    3.4144   -0.2824    0.0000 C   0  0  0  0  0  0  0  0  0  0  0  0
    4.1931    0.3450    0.0000 C   0  0  0  0  0  0  0  0  0  0  0  0
    5.1328    1.6544    0.0000 C   0  0  0  0  0  0  0  0  0  0  0  0
    6.7204    0.8576    0.0000 C   0  0  0  0  0  0  0  0  0  0  0  0
    7.2247   -0.0059    0.0000 C   0  0  0  0  0  0  0  0  0  0  0  0
    8.7290   -0.8645    0.0000 C   0  0  0  0  0  0  0  0  0  0  0  0
    8.2334   -1.7330    0.0000 C   0  0  0  0  0  0  0  0  0  0  0  0
    9.7290   -0.8595    0.0000 C   0  0  0  0  0  0  0  0  0  0  0  0
   10.2333   -1.7230    0.0000 C   0  0  0  0  0  0  0  0  0  0  0  0
    8.7377   -2.5965    0.0000 C   0  0  0  0  0  0  0  0  0  0  0  0
    9.7376   -2.5915    0.0000 C   0  0  0  0  0  0  0  0  0  0  0  0
   11.2333   -1.7180    0.0000 C   0  0  0  0  0  0  0  0  0  0  0  0
    6.7377   -2.6065    0.0000 C   0  0  0  0  0  0  0  0  0  0  0  0
    1.5133    1.2182    0.0000 H   0  0  0  0  0  0  0  0  0  0  0  0
    1.5172    0.4451    0.0000 H   0  0  0  0  0  0  0  0  0  0  0  0
    2.4263    2.3572    0.0000 H   0  0  0  0  0  0  0  0  0  0  0  0
    1.8242    1.8721    0.0000 H   0  0  0  0  0  0  0  0  0  0  0  0
    1.8346   -0.2057    0.0000 H   0  0  0  0  0  0  0  0  0  0  0  0
    2.4415   -0.6847    0.0000 H   0  0  0  0  0  0  0  0  0  0  0  0
    3.8860    2.3535    0.0000 H   0  0  0  0  0  0  0  0  0  0  0  0
    3.1314    2.5218    0.0000 H   0  0  0  0  0  0  0  0  0  0  0  0
    3.1482   -0.8423    0.0000 H   0  0  0  0  0  0  0  0  0  0  0  0
    3.9010   -0.6665    0.0000 H   0  0  0  0  0  0  0  0  0  0  0  0
    7.3020    1.0725    0.0000 H   0  0  0  0  0  0  0  0  0  0  0  0
    6.6097    1.4676    0.0000 H   0  0  0  0  0  0  0  0  0  0  0  0
    8.5320    0.5375    0.0000 H   0  0  0  0  0  0  0  0  0  0  0  0
   10.0363   -0.3210    0.0000 H   0  0  0  0  0  0  0  0  0  0  0  0
    8.4303   -3.1350    0.0000 H   0  0  0  0  0  0  0  0  0  0  0  0
   10.0503   -3.1269    0.0000 H   0  0  0  0  0  0  0  0  0  0  0  0
   11.2364   -2.3380    0.0000 H   0  0  0  0  0  0  0  0  0  0  0  0
   11.8533   -1.7149    0.0000 H   0  0  0  0  0  0  0  0  0  0  0  0
   11.2302   -1.0980    0.0000 H   0  0  0  0  0  0  0  0  0  0  0  0
    6.1992   -2.2992    0.0000 H   0  0  0  0  0  0  0  0  0  0  0  0
    6.4304   -3.1450    0.0000 H   0  0  0  0  0  0  0  0  0  0  0  0
    7.2762   -2.9138    0.0000 H   0  0  0  0  0  0  0  0  0  0  0  0
  1 14  2  0  0  0  0
  2 16  2  0  0  0  0
  3 18  1  0  0  0  0
  3 24  1  0  0  0  0
  4 11  1  0  0  0  0
  4 13  1  0  0  0  0
  4 14  1  0  0  0  0
  5  6  1  0  0  0  0
  5 14  1  0  0  0  0
  5 15  1  0  0  0  0
  6 13  2  0  0  0  0
  7 16  1  0  0  0  0
  7 17  1  0  0  0  0
  7 37  1  0  0  0  0
  8  9  1  0  0  0  0
  8 10  1  0  0  0  0
  8 25  1  0  0  0  0
  8 26  1  0  0  0  0
  9 11  1  0  0  0  0
  9 27  1  0  0  0  0
  9 28  1  0  0  0  0
 10 12  1  0  0  0  0
 10 29  1  0  0  0  0
 10 30  1  0  0  0  0
 11 31  1  0  0  0  0
 11 32  1  0  0  0  0
 12 13  1  0  0  0  0
 12 33  1  0  0  0  0
 12 34  1  0  0  0  0
 15 16  1  0  0  0  0
 15 35  1  0  0  0  0
 15 36  1  0  0  0  0
 17 18  2  0  0  0  0
 17 19  1  0  0  0  0
 18 21  1  0  0  0  0
 19 20  2  0  0  0  0
 19 38  1  0  0  0  0
 20 22  1  0  0  0  0
 20 23  1  0  0  0  0
 21 22  2  0  0  0  0
 21 39  1  0  0  0  0
 22 40  1  0  0  0  0
 23 41  1  0  0  0  0
 23 42  1  0  0  0  0
 23 43  1  0  0  0  0
 24 44  1  0  0  0  0
 24 45  1  0  0  0  0
 24 46  1  0  0  0  0
M  END
> <PUBCHEM_COMPOUND_CID>
17395524

> <PUBCHEM_COMPOUND_CANONICALIZED>
1

> <PUBCHEM_CACTVS_COMPLEXITY>
522

> <PUBCHEM_CACTVS_HBOND_ACCEPTOR>
4

> <PUBCHEM_CACTVS_HBOND_DONOR>
1

> <PUBCHEM_CACTVS_ROTATABLE_BOND>
4

> <PUBCHEM_CACTVS_SUBSKEYS>
AAADceB7sAAAAAAAAAAAAAAAAAAAAQAAAAAwAAAABYAAAACBAAAAHgAYAAAADAzBmAYzxoPABACoAidycACSCAAhIgAfiAC/bIiOZiLEubuVMChs3hPY6AeQwAAOIAAAQAAAEABAAACAAAAgAAAAAAAAAA==

> <PUBCHEM_IUPAC_OPENEYE_NAME>
N-(2-methoxy-5-methyl-phenyl)-2-(3-oxo-6,7,8,9-tetrahydro-5H-[1,2,4]triazolo[4,3-a]azepin-2-yl)acetamide

> <PUBCHEM_IUPAC_CAS_NAME>
N-(2-methoxy-5-methylphenyl)-2-(3-oxo-6,7,8,9-tetrahydro-5H-[1,2,4]triazolo[4,3-a]azepin-2-yl)acetamide

> <PUBCHEM_IUPAC_NAME>
N-(2-methoxy-5-methylphenyl)-2-(3-oxo-6,7,8,9-tetrahydro-5H-[1,2,4]triazolo[4,3-a]azepin-2-yl)acetamide

> <PUBCHEM_IUPAC_SYSTEMATIC_NAME>
N-(2-methoxy-5-methyl-phenyl)-2-(3-oxidanylidene-6,7,8,9-tetrahydro-5H-[1,2,4]triazolo[4,3-a]azepin-2-yl)ethanamide

> <PUBCHEM_IUPAC_TRADITIONAL_NAME>
2-(3-keto-6,7,8,9-tetrahydro-5H-[1,2,4]triazol[4,3-a]azepin-2-yl)-N-(2-methoxy-5-methyl-phenyl)acetamide

> <PUBCHEM_IUPAC_INCHI>
InChI=1S/C17H22N4O3/c1-12-7-8-14(24-2)13(10-12)18-16(22)11-21-17(23)20-9-5-3-4-6-15(20)19-21/h7-8,10H,3-6,9,11H2,1-2H3,(H,18,22)

> <PUBCHEM_IUPAC_INCHIKEY>
ARAHLFQFIKSVGD-UHFFFAOYSA-N

> <PUBCHEM_XLOGP3_AA>
1.6

> <PUBCHEM_EXACT_MASS>
330.169191

> <PUBCHEM_MOLECULAR_FORMULA>
C17H22N4O3

> <PUBCHEM_MOLECULAR_WEIGHT>
330.38158

> <PUBCHEM_OPENEYE_CAN_SMILES>
CC1=CC(=C(C=C1)OC)NC(=O)CN2C(=O)N3CCCCCC3=N2

> <PUBCHEM_OPENEYE_ISO_SMILES>
CC1=CC(=C(C=C1)OC)NC(=O)CN2C(=O)N3CCCCCC3=N2

> <PUBCHEM_CACTVS_TPSA>
74.2

> <PUBCHEM_MONOISOTOPIC_WEIGHT>
330.169191

> <PUBCHEM_TOTAL_CHARGE>
0

> <PUBCHEM_HEAVY_ATOM_COUNT>
24

> <PUBCHEM_ATOM_DEF_STEREO_COUNT>
0

> <PUBCHEM_ATOM_UDEF_STEREO_COUNT>
0

> <PUBCHEM_BOND_DEF_STEREO_COUNT>
0

> <PUBCHEM_BOND_UDEF_STEREO_COUNT>
0

> <PUBCHEM_ISOTOPIC_ATOM_COUNT>
0

> <PUBCHEM_COMPONENT_COUNT>
1

> <PUBCHEM_CACTVS_TAUTO_COUNT>
3

> <PUBCHEM_COORDINATE_TYPE>
1
5
255

> <PUBCHEM_BONDANNOTATIONS>
17  18  8
17  19  8
18  21  8
19  20  8
20  22  8
21  22  8
4  13  8
4  14  8
5  14  8
5  6  8
6  13  8

$$$$

