173719
  -OEChem-07051213093D

 25 24  0     1  0  0  0  0  0999 V2000
   -0.6801    1.1711   -1.1906 O   0  0  0  0  0  0  0  0  0  0  0  0
    0.5704   -2.7958    0.4725 O   0  0  0  0  0  0  0  0  0  0  0  0
   -1.2198   -2.0884   -0.7299 O   0  0  0  0  0  0  0  0  0  0  0  0
    0.1639   -0.4401    0.4049 C   0  0  1  0  0  0  0  0  0  0  0  0
    1.5951   -0.1594   -0.0821 C   0  0  0  0  0  0  0  0  0  0  0  0
    2.1069    1.2094    0.3766 C   0  0  0  0  0  0  0  0  0  0  0  0
   -0.8224    0.6163   -0.1012 C   0  0  0  0  0  0  0  0  0  0  0  0
   -2.0126    0.9007    0.8019 C   0  0  0  0  0  0  0  0  0  0  0  0
   -0.2541   -1.8362   -0.0210 C   0  0  0  0  0  0  0  0  0  0  0  0
    3.5072    1.4835   -0.1500 C   0  0  0  0  0  0  0  0  0  0  0  0
   -2.9543    1.9388    0.2190 C   0  0  0  0  0  0  0  0  0  0  0  0
    0.1445   -0.4085    1.5015 H   0  0  0  0  0  0  0  0  0  0  0  0
    2.2786   -0.9336    0.2881 H   0  0  0  0  0  0  0  0  0  0  0  0
    1.6318   -0.2153   -1.1781 H   0  0  0  0  0  0  0  0  0  0  0  0
    2.1199    1.2487    1.4721 H   0  0  0  0  0  0  0  0  0  0  0  0
    1.4492    2.0144    0.0337 H   0  0  0  0  0  0  0  0  0  0  0  0
   -1.6318    1.2553    1.7653 H   0  0  0  0  0  0  0  0  0  0  0  0
   -2.5556   -0.0362    0.9622 H   0  0  0  0  0  0  0  0  0  0  0  0
    4.2140    0.7252    0.2016 H   0  0  0  0  0  0  0  0  0  0  0  0
    3.8579    2.4607    0.1963 H   0  0  0  0  0  0  0  0  0  0  0  0
    3.5211    1.4859   -1.2445 H   0  0  0  0  0  0  0  0  0  0  0  0
   -3.3590    1.6066   -0.7427 H   0  0  0  0  0  0  0  0  0  0  0  0
   -2.4377    2.8903    0.0548 H   0  0  0  0  0  0  0  0  0  0  0  0
   -3.7926    2.1177    0.8993 H   0  0  0  0  0  0  0  0  0  0  0  0
    0.2948   -3.6944    0.1917 H   0  0  0  0  0  0  0  0  0  0  0  0
  1  7  2  0  0  0  0
  2  9  1  0  0  0  0
  2 25  1  0  0  0  0
  3  9  2  0  0  0  0
  4  5  1  0  0  0  0
  4  7  1  0  0  0  0
  4  9  1  0  0  0  0
  4 12  1  0  0  0  0
  5  6  1  0  0  0  0
  5 13  1  0  0  0  0
  5 14  1  0  0  0  0
  6 10  1  0  0  0  0
  6 15  1  0  0  0  0
  6 16  1  0  0  0  0
  7  8  1  0  0  0  0
  8 11  1  0  0  0  0
  8 17  1  0  0  0  0
  8 18  1  0  0  0  0
 10 19  1  0  0  0  0
 10 20  1  0  0  0  0
 10 21  1  0  0  0  0
 11 22  1  0  0  0  0
 11 23  1  0  0  0  0
 11 24  1  0  0  0  0
M  END
> <PUBCHEM_COMPOUND_CID>
173719

> <PUBCHEM_CONFORMER_RMSD>
0.6

> <PUBCHEM_CONFORMER_DIVERSEORDER>
1
39
139
50
134
126
101
82
128
144
142
85
117
135
6
131
122
93
141
96
104
127
59
132
88
111
78
125
76
46
138
105
116
137
136
41
98
100
32
106
130
84
47
109
146
34
91
65
70
80
74
108
118
143
133
37
42
97
68
49
140
58
62
114
92
124
103
54
55
23
48
129
57
21
145
83
90
112
16
56
115
63
36
33
5
113
27
72
66
28
119
8
64
17
110
89
3
67
77
75
61
95
52
11
15
60
79
43
81
24
45
71
120
30
40
87
99
9
53
22
38
69
51
107
7
123
102
121
13
94
25
20
44
73
10
19
18
2
35
4
12
86
31
14
26
29

> <PUBCHEM_MMFF94_PARTIAL_CHARGES>
8
1 -0.57
2 -0.65
25 0.5
3 -0.57
4 0.12
7 0.45
8 0.06
9 0.66

> <PUBCHEM_EFFECTIVE_ROTOR_COUNT>
5

> <PUBCHEM_PHARMACOPHORE_FEATURES>
7
1 1 acceptor
1 10 hydrophobe
1 11 hydrophobe
1 2 acceptor
1 3 acceptor
1 4 anion
3 2 3 9 anion

> <PUBCHEM_HEAVY_ATOM_COUNT>
11

> <PUBCHEM_ATOM_DEF_STEREO_COUNT>
0

> <PUBCHEM_ATOM_UDEF_STEREO_COUNT>
1

> <PUBCHEM_BOND_DEF_STEREO_COUNT>
0

> <PUBCHEM_BOND_UDEF_STEREO_COUNT>
0

> <PUBCHEM_ISOTOPIC_ATOM_COUNT>
0

> <PUBCHEM_COMPONENT_COUNT>
1

> <PUBCHEM_CACTVS_TAUTO_COUNT>
5

> <PUBCHEM_CONFORMER_ID>
0002A69700000001

> <PUBCHEM_MMFF94_ENERGY>
7.2492

> <PUBCHEM_FEATURE_SELFOVERLAP>
35.829

> <PUBCHEM_SHAPE_FINGERPRINT>
1 1 18267864071857349388
12138202 78 17910396426392362149
12423570 1 12097927278012063843
14648413 74 17693096679177921073
16945 1 18120656820913753210
20711978 78 17907586079019377709
20711985 344 18049452448046744130
21040471 1 18409446985923066816
21061003 4 17328587731061916435
21501502 16 18338238172407883670
21524375 3 18334297590878690600
21930827 45 18188218593605191928
23419403 2 17104748926172256159
29004967 10 17038953304537079707
305870 269 18265615566336737112
528862 383 18122629615225080259
54338 74 17839755767824326920
81228 2 18050571737808929696

> <PUBCHEM_SHAPE_MULTIPOLES>
208.77
3.99
2.74
0.84
1.6
1.96
0.08
-3.81
-0.22
-0.43
-0.02
-0.18
-0.07
-0.29

> <PUBCHEM_SHAPE_SELFOVERLAP>
392.348

> <PUBCHEM_SHAPE_VOLUME>
129.8

> <PUBCHEM_COORDINATE_TYPE>
2
5
10

$$$$

