239804
  -OEChem-07051213063D

 56 59  0     1  0  0  0  0  0999 V2000
    4.0949   -0.5206   -0.0350 O   0  0  0  0  0  0  0  0  0  0  0  0
   -0.8433   -2.6183   -0.4148 O   0  0  0  0  0  0  0  0  0  0  0  0
   -6.6780    0.0054    1.2543 O   0  0  0  0  0  0  0  0  0  0  0  0
    5.5433    0.7781    1.2056 O   0  0  0  0  0  0  0  0  0  0  0  0
    0.8097    1.0536    0.1359 C   0  0  2  0  0  0  0  0  0  0  0  0
    1.6575   -0.1892   -0.2006 C   0  0  1  0  0  0  0  0  0  0  0  0
   -0.6089    0.9712   -0.4403 C   0  0  1  0  0  0  0  0  0  0  0  0
   -1.3283   -0.2799    0.1506 C   0  0  1  0  0  0  0  0  0  0  0  0
   -2.8131   -0.4314   -0.3509 C   0  0  2  0  0  0  0  0  0  0  0  0
    2.9971    0.2446    0.4234 C   0  0  2  0  0  0  0  0  0  0  0  0
    1.7058    2.2195   -0.2776 C   0  0  0  0  0  0  0  0  0  0  0  0
    1.0125   -1.4055    0.4626 C   0  0  0  0  0  0  0  0  0  0  0  0
   -1.4103    2.2389   -0.1224 C   0  0  0  0  0  0  0  0  0  0  0  0
    3.1308    1.7270    0.0290 C   0  0  0  0  0  0  0  0  0  0  0  0
   -0.4323   -1.5333   -0.0070 C   0  0  0  0  0  0  0  0  0  0  0  0
   -3.5444    0.9110   -0.1803 C   0  0  0  0  0  0  0  0  0  0  0  0
   -2.8259    2.1446   -0.6736 C   0  0  0  0  0  0  0  0  0  0  0  0
    1.8240   -0.4693   -1.7161 C   0  0  0  0  0  0  0  0  0  0  0  0
   -3.5190   -1.5204    0.5108 C   0  0  0  0  0  0  0  0  0  0  0  0
   -2.8892   -0.8193   -1.8451 C   0  0  0  0  0  0  0  0  0  0  0  0
   -5.0352   -1.5068    0.3922 C   0  0  0  0  0  0  0  0  0  0  0  0
   -4.7726    1.0388    0.3497 C   0  0  0  0  0  0  0  0  0  0  0  0
   -5.5741   -0.1444    0.7348 C   0  0  0  0  0  0  0  0  0  0  0  0
    5.3302   -0.1481    0.4354 C   0  0  0  0  0  0  0  0  0  0  0  0
    6.3866   -1.0593   -0.1445 C   0  0  0  0  0  0  0  0  0  0  0  0
    7.7825   -0.6869    0.3239 C   0  0  0  0  0  0  0  0  0  0  0  0
    0.7072    1.1204    1.2321 H   0  0  0  0  0  0  0  0  0  0  0  0
   -0.5432    0.8806   -1.5304 H   0  0  0  0  0  0  0  0  0  0  0  0
   -1.3799   -0.1296    1.2414 H   0  0  0  0  0  0  0  0  0  0  0  0
    2.9391    0.1578    1.5177 H   0  0  0  0  0  0  0  0  0  0  0  0
    1.4716    3.1325    0.2793 H   0  0  0  0  0  0  0  0  0  0  0  0
    1.6023    2.4466   -1.3444 H   0  0  0  0  0  0  0  0  0  0  0  0
    0.9993   -1.3171    1.5550 H   0  0  0  0  0  0  0  0  0  0  0  0
    1.5570   -2.3234    0.2139 H   0  0  0  0  0  0  0  0  0  0  0  0
   -0.9210    3.1166   -0.5603 H   0  0  0  0  0  0  0  0  0  0  0  0
   -1.4453    2.4024    0.9626 H   0  0  0  0  0  0  0  0  0  0  0  0
    3.7810    1.8745   -0.8409 H   0  0  0  0  0  0  0  0  0  0  0  0
    3.5547    2.3106    0.8537 H   0  0  0  0  0  0  0  0  0  0  0  0
   -2.7930    2.1233   -1.7699 H   0  0  0  0  0  0  0  0  0  0  0  0
   -3.3689    3.0583   -0.4018 H   0  0  0  0  0  0  0  0  0  0  0  0
    2.2774    0.3717   -2.2497 H   0  0  0  0  0  0  0  0  0  0  0  0
    2.4685   -1.3410   -1.8797 H   0  0  0  0  0  0  0  0  0  0  0  0
    0.8711   -0.6879   -2.2077 H   0  0  0  0  0  0  0  0  0  0  0  0
   -3.2603   -1.3732    1.5688 H   0  0  0  0  0  0  0  0  0  0  0  0
   -3.1686   -2.5231    0.2452 H   0  0  0  0  0  0  0  0  0  0  0  0
   -2.2962   -0.1515   -2.4777 H   0  0  0  0  0  0  0  0  0  0  0  0
   -2.5324   -1.8377   -2.0240 H   0  0  0  0  0  0  0  0  0  0  0  0
   -3.9192   -0.7761   -2.2186 H   0  0  0  0  0  0  0  0  0  0  0  0
   -5.4565   -2.2338    1.0954 H   0  0  0  0  0  0  0  0  0  0  0  0
   -5.3679   -1.7751   -0.6154 H   0  0  0  0  0  0  0  0  0  0  0  0
   -5.2497    2.0066    0.4638 H   0  0  0  0  0  0  0  0  0  0  0  0
    6.1623   -2.0867    0.1608 H   0  0  0  0  0  0  0  0  0  0  0  0
    6.3403   -0.9910   -1.2365 H   0  0  0  0  0  0  0  0  0  0  0  0
    7.8616   -0.7510    1.4142 H   0  0  0  0  0  0  0  0  0  0  0  0
    8.5241   -1.3623   -0.1134 H   0  0  0  0  0  0  0  0  0  0  0  0
    8.0358    0.3371    0.0297 H   0  0  0  0  0  0  0  0  0  0  0  0
  1 10  1  0  0  0  0
  1 24  1  0  0  0  0
  2 15  2  0  0  0  0
  3 23  2  0  0  0  0
  4 24  2  0  0  0  0
  5  6  1  0  0  0  0
  5  7  1  0  0  0  0
  5 11  1  0  0  0  0
  5 27  1  0  0  0  0
  6 10  1  0  0  0  0
  6 12  1  0  0  0  0
  6 18  1  0  0  0  0
  7  8  1  0  0  0  0
  7 13  1  0  0  0  0
  7 28  1  0  0  0  0
  8  9  1  0  0  0  0
  8 15  1  0  0  0  0
  8 29  1  0  0  0  0
  9 16  1  0  0  0  0
  9 19  1  0  0  0  0
  9 20  1  0  0  0  0
 10 14  1  0  0  0  0
 10 30  1  0  0  0  0
 11 14  1  0  0  0  0
 11 31  1  0  0  0  0
 11 32  1  0  0  0  0
 12 15  1  0  0  0  0
 12 33  1  0  0  0  0
 12 34  1  0  0  0  0
 13 17  1  0  0  0  0
 13 35  1  0  0  0  0
 13 36  1  0  0  0  0
 14 37  1  0  0  0  0
 14 38  1  0  0  0  0
 16 17  1  0  0  0  0
 16 22  2  0  0  0  0
 17 39  1  0  0  0  0
 17 40  1  0  0  0  0
 18 41  1  0  0  0  0
 18 42  1  0  0  0  0
 18 43  1  0  0  0  0
 19 21  1  0  0  0  0
 19 44  1  0  0  0  0
 19 45  1  0  0  0  0
 20 46  1  0  0  0  0
 20 47  1  0  0  0  0
 20 48  1  0  0  0  0
 21 23  1  0  0  0  0
 21 49  1  0  0  0  0
 21 50  1  0  0  0  0
 22 23  1  0  0  0  0
 22 51  1  0  0  0  0
 24 25  1  0  0  0  0
 25 26  1  0  0  0  0
 25 52  1  0  0  0  0
 25 53  1  0  0  0  0
 26 54  1  0  0  0  0
 26 55  1  0  0  0  0
 26 56  1  0  0  0  0
M  END
> <PUBCHEM_COMPOUND_CID>
239804

> <PUBCHEM_CONFORMER_RMSD>
0.8

> <PUBCHEM_CONFORMER_DIVERSEORDER>
1
2
3

> <PUBCHEM_MMFF94_PARTIAL_CHARGES>
17
1 -0.43
10 0.28
12 0.06
15 0.45
16 -0.28
17 0.14
2 -0.57
21 0.06
22 -0.14
23 0.49
24 0.66
25 0.06
3 -0.57
4 -0.57
51 0.15
8 0.06
9 0.14

> <PUBCHEM_EFFECTIVE_ROTOR_COUNT>
4.6

> <PUBCHEM_PHARMACOPHORE_FEATURES>
8
1 2 acceptor
1 26 hydrophobe
1 3 acceptor
1 4 acceptor
5 5 6 10 11 14 rings
6 5 6 7 8 12 15 rings
6 7 8 9 13 16 17 rings
6 9 16 19 21 22 23 rings

> <PUBCHEM_HEAVY_ATOM_COUNT>
26

> <PUBCHEM_ATOM_DEF_STEREO_COUNT>
6

> <PUBCHEM_ATOM_UDEF_STEREO_COUNT>
0

> <PUBCHEM_BOND_DEF_STEREO_COUNT>
0

> <PUBCHEM_BOND_UDEF_STEREO_COUNT>
0

> <PUBCHEM_ISOTOPIC_ATOM_COUNT>
0

> <PUBCHEM_COMPONENT_COUNT>
1

> <PUBCHEM_CACTVS_TAUTO_COUNT>
15

> <PUBCHEM_CONFORMER_ID>
0003A8BC00000001

> <PUBCHEM_MMFF94_ENERGY>
71.915

> <PUBCHEM_FEATURE_SELFOVERLAP>
40.693

> <PUBCHEM_SHAPE_FINGERPRINT>
10 15 18339089203335568000
10906281 52 18189037751406251588
11524674 6 17240203226944238142
11578080 2 4966509888574116552
11646440 116 18187077360475315720
12035758 1 18334019384872908176
12166972 35 17275380984830705532
12236239 1 17894912901601720363
12403259 415 18335993016560920104
12616971 3 18187930538638434908
13140716 1 18196089949866358019
13288520 33 18342458153247487533
13583140 156 17059518269385489941
13685833 64 18342738520776536330
13862211 1 18411983529183672359
14251764 18 18411418389361133644
14341114 176 18413387622817816984
14849402 71 18268144267414750184
15042514 8 18268710515728637267
15183329 4 18410303531804977862
15196674 1 18340206297657412069
15788980 27 17967817128483475420
15849732 13 17775283868052806414
17349148 13 17489867146077058920
1813 80 17060622231058379486
18927931 339 18412262839475728135
19141452 34 18187087217799831998
20028762 73 18335423417792747167
20511986 3 6699528247591099332
21033648 29 17968678080332075832
21130935 74 18187365402700017378
21150785 3 15697994129191891558
21236236 1 18410576222951024000
21267235 1 18342734122244916784
21279426 13 18194403523053581406
21781051 124 18058707144560341291
22182313 1 18261668302233382215
23402539 116 18260836981364566502
23522609 53 18127096806573925724
23559900 14 18334022662307741680
23569917 315 18335135346279455215
300161 21 6916265126298566884
3004659 81 18131068234800201332
3178227 256 18342725321930592465
335352 9 18411419505335186757
3383291 50 18272937089949761298
350125 39 18412260627546744212
392239 28 18270667694018391859
4093350 32 16226321633854360062
4340502 62 15430027743154058623
5104073 3 18337389318833830753
5265222 85 18335977559695879814
7226269 152 17894632564933800936

> <PUBCHEM_SHAPE_MULTIPOLES>
511.59
15.01
2.16
1.06
14.9
0.42
-0.33
-3.32
4.69
-0.84
-0.16
-0.42
-0.14
0.31

> <PUBCHEM_SHAPE_SELFOVERLAP>
1094.383

> <PUBCHEM_SHAPE_VOLUME>
280.7

> <PUBCHEM_COORDINATE_TYPE>
2
5
10

$$$$

