14339
  -OEChem-06241222433D

 30 31  0     0  0  0  0  0  0999 V2000
    2.3214    0.2222    0.9252 C   0  0  0  0  0  0  0  0  0  0  0  0
    3.2001   -0.1276   -0.2852 C   0  0  0  0  0  0  0  0  0  0  0  0
    0.8887    0.4009    0.5501 C   0  0  0  0  0  0  0  0  0  0  0  0
    4.6583   -0.3476    0.1171 C   0  0  0  0  0  0  0  0  0  0  0  0
   -1.3303   -0.5402    0.2205 C   0  0  0  0  0  0  0  0  0  0  0  0
    0.0213   -0.6916    0.5709 C   0  0  0  0  0  0  0  0  0  0  0  0
   -1.8086    0.7373   -0.1563 C   0  0  0  0  0  0  0  0  0  0  0  0
    0.4184    1.6572    0.1796 C   0  0  0  0  0  0  0  0  0  0  0  0
   -0.9213    1.8259   -0.1716 C   0  0  0  0  0  0  0  0  0  0  0  0
    5.5144   -0.7331   -1.0787 C   0  0  0  0  0  0  0  0  0  0  0  0
   -2.2176   -1.6286    0.2360 C   0  0  0  0  0  0  0  0  0  0  0  0
   -3.1601    0.8889   -0.5066 C   0  0  0  0  0  0  0  0  0  0  0  0
   -3.5572   -1.4600   -0.1152 C   0  0  0  0  0  0  0  0  0  0  0  0
   -4.0276   -0.2036   -0.4858 C   0  0  0  0  0  0  0  0  0  0  0  0
    2.6969    1.1359    1.4039 H   0  0  0  0  0  0  0  0  0  0  0  0
    2.4078   -0.5641    1.6865 H   0  0  0  0  0  0  0  0  0  0  0  0
    3.1419    0.6761   -1.0304 H   0  0  0  0  0  0  0  0  0  0  0  0
    2.8152   -1.0340   -0.7699 H   0  0  0  0  0  0  0  0  0  0  0  0
    5.0603    0.5658    0.5706 H   0  0  0  0  0  0  0  0  0  0  0  0
    4.7205   -1.1397    0.8724 H   0  0  0  0  0  0  0  0  0  0  0  0
    0.3989   -1.6710    0.8602 H   0  0  0  0  0  0  0  0  0  0  0  0
    1.0850    2.5155    0.1576 H   0  0  0  0  0  0  0  0  0  0  0  0
   -1.2671    2.8168   -0.4584 H   0  0  0  0  0  0  0  0  0  0  0  0
    5.4983    0.0516   -1.8418 H   0  0  0  0  0  0  0  0  0  0  0  0
    5.1576   -1.6626   -1.5336 H   0  0  0  0  0  0  0  0  0  0  0  0
    6.5531   -0.8838   -0.7683 H   0  0  0  0  0  0  0  0  0  0  0  0
   -1.8720   -2.6198    0.5224 H   0  0  0  0  0  0  0  0  0  0  0  0
   -3.5496    1.8617   -0.7996 H   0  0  0  0  0  0  0  0  0  0  0  0
   -4.2331   -2.3101   -0.0991 H   0  0  0  0  0  0  0  0  0  0  0  0
   -5.0706   -0.0731   -0.7591 H   0  0  0  0  0  0  0  0  0  0  0  0
  1  2  1  0  0  0  0
  1  3  1  0  0  0  0
  1 15  1  0  0  0  0
  1 16  1  0  0  0  0
  2  4  1  0  0  0  0
  2 17  1  0  0  0  0
  2 18  1  0  0  0  0
  3  6  2  0  0  0  0
  3  8  1  0  0  0  0
  4 10  1  0  0  0  0
  4 19  1  0  0  0  0
  4 20  1  0  0  0  0
  5  6  1  0  0  0  0
  5  7  1  0  0  0  0
  5 11  2  0  0  0  0
  6 21  1  0  0  0  0
  7  9  1  0  0  0  0
  7 12  2  0  0  0  0
  8  9  2  0  0  0  0
  8 22  1  0  0  0  0
  9 23  1  0  0  0  0
 10 24  1  0  0  0  0
 10 25  1  0  0  0  0
 10 26  1  0  0  0  0
 11 13  1  0  0  0  0
 11 27  1  0  0  0  0
 12 14  1  0  0  0  0
 12 28  1  0  0  0  0
 13 14  2  0  0  0  0
 13 29  1  0  0  0  0
 14 30  1  0  0  0  0
M  END
> <PUBCHEM_COMPOUND_CID>
14339

> <PUBCHEM_CONFORMER_RMSD>
0.6

> <PUBCHEM_CONFORMER_DIVERSEORDER>
1
3
6
7
5
8
2
4

> <PUBCHEM_MMFF94_PARTIAL_CHARGES>
16
1 0.14
11 -0.15
12 -0.15
13 -0.15
14 -0.15
21 0.15
22 0.15
23 0.15
27 0.15
28 0.15
29 0.15
3 -0.14
30 0.15
6 -0.15
8 -0.15
9 -0.15

> <PUBCHEM_EFFECTIVE_ROTOR_COUNT>
3

> <PUBCHEM_PHARMACOPHORE_FEATURES>
3
1 10 hydrophobe
6 3 5 6 7 8 9 rings
6 5 7 11 12 13 14 rings

> <PUBCHEM_HEAVY_ATOM_COUNT>
14

> <PUBCHEM_ATOM_DEF_STEREO_COUNT>
0

> <PUBCHEM_ATOM_UDEF_STEREO_COUNT>
0

> <PUBCHEM_BOND_DEF_STEREO_COUNT>
0

> <PUBCHEM_BOND_UDEF_STEREO_COUNT>
0

> <PUBCHEM_ISOTOPIC_ATOM_COUNT>
0

> <PUBCHEM_COMPONENT_COUNT>
1

> <PUBCHEM_CACTVS_TAUTO_COUNT>
1

> <PUBCHEM_CONFORMER_ID>
0000380300000001

> <PUBCHEM_MMFF94_ENERGY>
30.2974

> <PUBCHEM_FEATURE_SELFOVERLAP>
15.249

> <PUBCHEM_SHAPE_FINGERPRINT>
10465860 71 18343862199774038092
11128504 68 17775277249692702646
11458722 379 18341895207694788482
11543360 7 15482675641241835915
12032990 46 18337674122494350827
12186901 62 18343305898224132877
12251169 10 7493281145117219722
13288520 33 18407758140204691950
13675066 3 8430316857346269348
13760787 19 17203336619460646155
14911166 2 18341903991203270893
14993402 34 17489873730119395101
15536298 74 18339084770227918816
16945 1 18270981089023260233
17804303 29 18408888408367652681
17870717 6 18336535105931719734
1813 80 15213286527178935960
18186145 218 17632024056593742996
19141452 34 17894631409761996191
200 152 17095244734998021050
20300324 65 18341889710479248548
20325693 3 18273492386096743895
20374829 77 18408608067352050254
20432913 95 16225763038960619454
20645476 183 17346599659907291475
20645477 70 17676209070128806190
20871999 31 18272373091680855972
21029758 27 18060696174375158285
21119208 17 17703790327632372358
21267235 1 18340482288504185283
22094290 60 18411136952548648192
22926399 37 15267340725827609548
2297311 6 18408876348125703414
23175994 123 17458345229940331297
23402539 116 18343025510301383518
23403322 49 18334011718134991838
23557571 272 18261385706808562948
23559900 14 18409735045723043224
2748010 2 18054243041873814929
293599 30 18268713990589314293
42 15 6122505701017904940
7364860 26 18120940494761388233
8809292 202 18200595791857209771

> <PUBCHEM_SHAPE_MULTIPOLES>
288.11
9.07
1.61
0.86
10.93
0.25
-0.03
-3.37
-2.95
-1.11
-0.02
0.5
-0.04
0.5

> <PUBCHEM_SHAPE_SELFOVERLAP>
609.227

> <PUBCHEM_SHAPE_VOLUME>
153.1

> <PUBCHEM_COORDINATE_TYPE>
2
5
10

$$$$

