6512
  -OEChem-06261201212D

 39 37  0     0  0  0  0  0  0999 V2000
    3.7321    0.5000    0.0000 Sn  0  3  0  0  0  0  0  0  0  0  0  0
    4.5981    1.0000    0.0000 S   0  5  0  0  0  0  0  0  0  0  0  0
    2.8660    1.0000    0.0000 O   0  0  0  0  0  0  0  0  0  0  0  0
    2.0000    2.5000    0.0000 O   0  0  0  0  0  0  0  0  0  0  0  0
    3.7321   -0.5000    0.0000 C   0  0  0  0  0  0  0  0  0  0  0  0
    4.3198   -0.3090    0.0000 C   0  0  0  0  0  0  0  0  0  0  0  0
    2.8660   -1.0000    0.0000 C   0  0  0  0  0  0  0  0  0  0  0  0
    5.3144   -0.2045    0.0000 C   0  0  0  0  0  0  0  0  0  0  0  0
    4.5981    2.0000    0.0000 C   0  0  0  0  0  0  0  0  0  0  0  0
    2.8660    2.0000    0.0000 C   0  0  0  0  0  0  0  0  0  0  0  0
    3.7321    2.5000    0.0000 C   0  0  0  0  0  0  0  0  0  0  0  0
    2.8660   -2.0000    0.0000 C   0  0  0  0  0  0  0  0  0  0  0  0
    5.9021   -1.0135    0.0000 C   0  0  0  0  0  0  0  0  0  0  0  0
    2.0000   -2.5000    0.0000 C   0  0  0  0  0  0  0  0  0  0  0  0
    6.8967   -0.9090    0.0000 C   0  0  0  0  0  0  0  0  0  0  0  0
    3.3676   -0.0016    0.0000 H   0  0  0  0  0  0  0  0  0  0  0  0
    3.9441   -1.0826    0.0000 H   0  0  0  0  0  0  0  0  0  0  0  0
    4.3426   -0.3923    0.0000 H   0  0  0  0  0  0  0  0  0  0  0  0
    3.7626   -0.5808    0.0000 H   0  0  0  0  0  0  0  0  0  0  0  0
    4.4907   -0.9050    0.0000 H   0  0  0  0  0  0  0  0  0  0  0  0
    2.3291    0.6900    0.0000 H   0  0  0  0  0  0  0  0  0  0  0  0
    2.6540   -0.4174    0.0000 H   0  0  0  0  0  0  0  0  0  0  0  0
    2.2554   -1.1077    0.0000 H   0  0  0  0  0  0  0  0  0  0  0  0
    5.1435    0.3915    0.0000 H   0  0  0  0  0  0  0  0  0  0  0  0
    5.8716    0.0673    0.0000 H   0  0  0  0  0  0  0  0  0  0  0  0
    5.2087    1.8923    0.0000 H   0  0  0  0  0  0  0  0  0  0  0  0
    4.8101    2.5826    0.0000 H   0  0  0  0  0  0  0  0  0  0  0  0
    3.3335    2.9749    0.0000 H   0  0  0  0  0  0  0  0  0  0  0  0
    4.1306    2.9749    0.0000 H   0  0  0  0  0  0  0  0  0  0  0  0
    3.0781   -2.5826    0.0000 H   0  0  0  0  0  0  0  0  0  0  0  0
    3.4766   -1.8923    0.0000 H   0  0  0  0  0  0  0  0  0  0  0  0
    6.0730   -1.6095    0.0000 H   0  0  0  0  0  0  0  0  0  0  0  0
    5.3449   -1.2853    0.0000 H   0  0  0  0  0  0  0  0  0  0  0  0
    1.4631   -2.8100    0.0000 H   0  0  0  0  0  0  0  0  0  0  0  0
    1.6900   -1.9631    0.0000 H   0  0  0  0  0  0  0  0  0  0  0  0
    2.3100   -3.0369    0.0000 H   0  0  0  0  0  0  0  0  0  0  0  0
    6.8319   -0.2924    0.0000 H   0  0  0  0  0  0  0  0  0  0  0  0
    7.5133   -0.8442    0.0000 H   0  0  0  0  0  0  0  0  0  0  0  0
    6.9615   -1.5256    0.0000 H   0  0  0  0  0  0  0  0  0  0  0  0
  1  5  1  0  0  0  0
  1  6  1  0  0  0  0
  1 16  1  0  0  0  0
  2  9  1  0  0  0  0
  3 10  1  0  0  0  0
  3 21  1  0  0  0  0
  4 10  2  0  0  0  0
  5  7  1  0  0  0  0
  5 17  1  0  0  0  0
  5 18  1  0  0  0  0
  6  8  1  0  0  0  0
  6 19  1  0  0  0  0
  6 20  1  0  0  0  0
  7 12  1  0  0  0  0
  7 22  1  0  0  0  0
  7 23  1  0  0  0  0
  8 13  1  0  0  0  0
  8 24  1  0  0  0  0
  8 25  1  0  0  0  0
  9 11  1  0  0  0  0
  9 26  1  0  0  0  0
  9 27  1  0  0  0  0
 10 11  1  0  0  0  0
 11 28  1  0  0  0  0
 11 29  1  0  0  0  0
 12 14  1  0  0  0  0
 12 30  1  0  0  0  0
 12 31  1  0  0  0  0
 13 15  1  0  0  0  0
 13 32  1  0  0  0  0
 13 33  1  0  0  0  0
 14 34  1  0  0  0  0
 14 35  1  0  0  0  0
 14 36  1  0  0  0  0
 15 37  1  0  0  0  0
 15 38  1  0  0  0  0
 15 39  1  0  0  0  0
M  CHG  2   1   1   2  -1
M  END
> <PUBCHEM_COMPOUND_CID>
6512

> <PUBCHEM_COMPOUND_CANONICALIZED>
1

> <PUBCHEM_CACTVS_COMPLEXITY>
126

> <PUBCHEM_CACTVS_HBOND_ACCEPTOR>
3

> <PUBCHEM_CACTVS_HBOND_DONOR>
1

> <PUBCHEM_CACTVS_ROTATABLE_BOND>
6

> <PUBCHEM_CACTVS_SUBSKEYS>
AAADceBwMABAAAAAAACAAAAAAAAAAAAAAAAkAAAAAAAAAAAAAAAAGgQACAAACACEwACCCAAAAgAIAACQCAAAAAAAAAAAAAEAAAAAAAAAAAAAQAAAAAAAAAAAAAAAAAAAAAAAAAAAAAAAAAAAAAAAAAAAAA==

> <PUBCHEM_IUPAC_OPENEYE_NAME>
dibutylstannanylium; 3-hydroxy-3-oxo-propane-1-thiolate

> <PUBCHEM_IUPAC_CAS_NAME>
dibutylstannanylium; 3-hydroxy-3-oxo-1-propanethiolate

> <PUBCHEM_IUPAC_NAME>
dibutylstannanylium; 3-hydroxy-3-oxopropane-1-thiolate

> <PUBCHEM_IUPAC_SYSTEMATIC_NAME>
dibutylstannanylium; 3-oxidanyl-3-oxidanylidene-propane-1-thiolate

> <PUBCHEM_IUPAC_TRADITIONAL_NAME>
dibutylstannanylium; 3-hydroxy-3-keto-propane-1-thiolate

> <PUBCHEM_IUPAC_INCHI>
InChI=1S/2C4H9.C3H6O2S.Sn.H/c2*1-3-4-2;4-3(5)1-2-6;;/h2*1,3-4H2,2H3;6H,1-2H2,(H,4,5);;/q;;;+1;/p-1

> <PUBCHEM_IUPAC_INCHIKEY>
NNQDXDXGAUCBTG-UHFFFAOYSA-M

> <PUBCHEM_EXACT_MASS>
340.051896

> <PUBCHEM_MOLECULAR_FORMULA>
C11H24O2SSn

> <PUBCHEM_MOLECULAR_WEIGHT>
339.08206

> <PUBCHEM_OPENEYE_CAN_SMILES>
CCCC[SnH+]CCCC.C(C[S-])C(=O)O

> <PUBCHEM_OPENEYE_ISO_SMILES>
CCCC[SnH+]CCCC.C(C[S-])C(=O)O

> <PUBCHEM_CACTVS_TPSA>
38.3

> <PUBCHEM_MONOISOTOPIC_WEIGHT>
340.051896

> <PUBCHEM_TOTAL_CHARGE>
0

> <PUBCHEM_HEAVY_ATOM_COUNT>
15

> <PUBCHEM_ATOM_DEF_STEREO_COUNT>
0

> <PUBCHEM_ATOM_UDEF_STEREO_COUNT>
0

> <PUBCHEM_BOND_DEF_STEREO_COUNT>
0

> <PUBCHEM_BOND_UDEF_STEREO_COUNT>
0

> <PUBCHEM_ISOTOPIC_ATOM_COUNT>
0

> <PUBCHEM_COMPONENT_COUNT>
2

> <PUBCHEM_CACTVS_TAUTO_COUNT>
2

> <PUBCHEM_NONSTANDARDBOND>
1  2  6
1  3  6

> <PUBCHEM_COORDINATE_TYPE>
1
5
255

> <PUBCHEM_BONDANNOTATIONS>
1  2  4
1  3  4

$$$$

