12304409
  -OEChem-07051213093D

 75 80  0     1  0  0  0  0  0999 V2000
    3.5786    1.0846   -0.2496 O   0  0  0  0  0  0  0  0  0  0  0  0
    5.0441   -0.2143    1.1220 O   0  0  0  0  0  0  0  0  0  0  0  0
   -6.8657   -2.0258    0.8096 O   0  0  0  0  0  0  0  0  0  0  0  0
   -7.9303    0.6106    0.1112 O   0  0  0  0  0  0  0  0  0  0  0  0
    0.7057   -0.7423   -0.2258 C   0  0  1  0  0  0  0  0  0  0  0  0
    0.0774    0.5742    0.2963 C   0  0  2  0  0  0  0  0  0  0  0  0
   -1.3339    0.8244   -0.2444 C   0  0  1  0  0  0  0  0  0  0  0  0
    2.1079   -0.6633    0.4486 C   0  0  2  0  0  0  0  0  0  0  0  0
   -2.2497   -0.3643    0.1973 C   0  0  1  0  0  0  0  0  0  0  0  0
    2.4119    0.8481    0.5321 C   0  0  2  0  0  0  0  0  0  0  0  0
   -3.7375   -0.1654   -0.2769 C   0  0  2  0  0  0  0  0  0  0  0  0
    1.1756    1.5996    0.0370 C   0  0  0  0  0  0  0  0  0  0  0  0
   -0.1699   -1.9002    0.2773 C   0  0  0  0  0  0  0  0  0  0  0  0
   -1.6368   -1.7433   -0.1667 C   0  0  0  0  0  0  0  0  0  0  0  0
    3.3315   -1.2436   -0.2695 C   0  0  1  0  0  0  0  0  0  0  0  0
   -4.2273    1.2067    0.2873 C   0  0  1  0  0  0  0  0  0  0  0  0
   -1.8946    2.1677    0.2442 C   0  0  0  0  0  0  0  0  0  0  0  0
    4.3772   -0.1161   -0.1452 C   0  0  1  0  0  0  0  0  0  0  0  0
   -3.3491    2.3763   -0.1713 C   0  0  0  0  0  0  0  0  0  0  0  0
    0.7931   -0.8055   -1.7720 C   0  0  0  0  0  0  0  0  0  0  0  0
   -4.6549   -1.2670    0.3192 C   0  0  0  0  0  0  0  0  0  0  0  0
   -5.7082    1.4737   -0.0042 C   0  0  0  0  0  0  0  0  0  0  0  0
   -3.8367   -0.2301   -1.8222 C   0  0  0  0  0  0  0  0  0  0  0  0
   -6.1501   -1.0260    0.0816 C   0  0  2  0  0  0  0  0  0  0  0  0
    3.7536   -2.5934    0.2986 C   0  0  0  0  0  0  0  0  0  0  0  0
    5.3955   -0.1537   -1.2910 C   0  0  0  0  0  0  0  0  0  0  0  0
   -6.5958    0.3601    0.5493 C   0  0  2  0  0  0  0  0  0  0  0  0
    6.4946    0.8902   -1.0976 C   0  0  0  0  0  0  0  0  0  0  0  0
    5.9902    0.8288    1.3519 C   0  0  0  0  0  0  0  0  0  0  0  0
    7.1055    0.8217    0.3057 C   0  0  1  0  0  0  0  0  0  0  0  0
    7.9982   -0.4123    0.4673 C   0  0  0  0  0  0  0  0  0  0  0  0
   -0.0199    0.5003    1.3933 H   0  0  0  0  0  0  0  0  0  0  0  0
   -1.2931    0.8767   -1.3364 H   0  0  0  0  0  0  0  0  0  0  0  0
    2.0380   -1.0487    1.4751 H   0  0  0  0  0  0  0  0  0  0  0  0
   -2.2722   -0.3426    1.2988 H   0  0  0  0  0  0  0  0  0  0  0  0
    2.6307    1.1301    1.5701 H   0  0  0  0  0  0  0  0  0  0  0  0
    1.2566    1.8799   -1.0182 H   0  0  0  0  0  0  0  0  0  0  0  0
    1.0234    2.5202    0.6097 H   0  0  0  0  0  0  0  0  0  0  0  0
   -0.1432   -1.9443    1.3738 H   0  0  0  0  0  0  0  0  0  0  0  0
    0.2214   -2.8607   -0.0790 H   0  0  0  0  0  0  0  0  0  0  0  0
   -1.7047   -1.9206   -1.2441 H   0  0  0  0  0  0  0  0  0  0  0  0
   -2.2125   -2.5432    0.3122 H   0  0  0  0  0  0  0  0  0  0  0  0
    3.1264   -1.3886   -1.3327 H   0  0  0  0  0  0  0  0  0  0  0  0
   -4.1363    1.1619    1.3840 H   0  0  0  0  0  0  0  0  0  0  0  0
   -1.2930    2.9936   -0.1530 H   0  0  0  0  0  0  0  0  0  0  0  0
   -1.8234    2.2238    1.3380 H   0  0  0  0  0  0  0  0  0  0  0  0
   -3.7107    3.3103    0.2759 H   0  0  0  0  0  0  0  0  0  0  0  0
   -3.4130    2.5090   -1.2574 H   0  0  0  0  0  0  0  0  0  0  0  0
    1.4701   -0.0497   -2.1825 H   0  0  0  0  0  0  0  0  0  0  0  0
    1.1517   -1.7883   -2.0993 H   0  0  0  0  0  0  0  0  0  0  0  0
   -0.1722   -0.6603   -2.2632 H   0  0  0  0  0  0  0  0  0  0  0  0
   -4.4732   -1.3507    1.4000 H   0  0  0  0  0  0  0  0  0  0  0  0
   -4.4000   -2.2524   -0.0909 H   0  0  0  0  0  0  0  0  0  0  0  0
   -6.0152    2.4253    0.4498 H   0  0  0  0  0  0  0  0  0  0  0  0
   -5.8854    1.6049   -1.0786 H   0  0  0  0  0  0  0  0  0  0  0  0
   -3.1732    0.4822   -2.3185 H   0  0  0  0  0  0  0  0  0  0  0  0
   -3.5810   -1.2276   -2.1944 H   0  0  0  0  0  0  0  0  0  0  0  0
   -4.8466   -0.0174   -2.1839 H   0  0  0  0  0  0  0  0  0  0  0  0
   -6.4065   -1.1733   -0.9728 H   0  0  0  0  0  0  0  0  0  0  0  0
    2.9630   -3.3351    0.1436 H   0  0  0  0  0  0  0  0  0  0  0  0
    4.6588   -2.9594   -0.1956 H   0  0  0  0  0  0  0  0  0  0  0  0
    3.9527   -2.5415    1.3740 H   0  0  0  0  0  0  0  0  0  0  0  0
    4.9002    0.0322   -2.2516 H   0  0  0  0  0  0  0  0  0  0  0  0
    5.8606   -1.1444   -1.3470 H   0  0  0  0  0  0  0  0  0  0  0  0
   -6.6057    0.4072    1.6451 H   0  0  0  0  0  0  0  0  0  0  0  0
    7.2682    0.7645   -1.8640 H   0  0  0  0  0  0  0  0  0  0  0  0
    6.0656    1.8892   -1.2489 H   0  0  0  0  0  0  0  0  0  0  0  0
    6.4060    0.6828    2.3546 H   0  0  0  0  0  0  0  0  0  0  0  0
    5.4704    1.7941    1.3614 H   0  0  0  0  0  0  0  0  0  0  0  0
    7.7361    1.7065    0.4570 H   0  0  0  0  0  0  0  0  0  0  0  0
   -6.6792   -1.9015    1.7559 H   0  0  0  0  0  0  0  0  0  0  0  0
   -8.4877   -0.1096    0.4527 H   0  0  0  0  0  0  0  0  0  0  0  0
    8.7871   -0.4216   -0.2922 H   0  0  0  0  0  0  0  0  0  0  0  0
    8.4831   -0.4066    1.4495 H   0  0  0  0  0  0  0  0  0  0  0  0
    7.4346   -1.3466    0.3823 H   0  0  0  0  0  0  0  0  0  0  0  0
  1 10  1  0  0  0  0
  1 18  1  0  0  0  0
  2 18  1  0  0  0  0
  2 29  1  0  0  0  0
  3 24  1  0  0  0  0
  3 71  1  0  0  0  0
  4 27  1  0  0  0  0
  4 72  1  0  0  0  0
  5  6  1  0  0  0  0
  5  8  1  0  0  0  0
  5 13  1  0  0  0  0
  5 20  1  0  0  0  0
  6  7  1  0  0  0  0
  6 12  1  0  0  0  0
  6 32  1  0  0  0  0
  7  9  1  0  0  0  0
  7 17  1  0  0  0  0
  7 33  1  0  0  0  0
  8 10  1  0  0  0  0
  8 15  1  0  0  0  0
  8 34  1  0  0  0  0
  9 11  1  0  0  0  0
  9 14  1  0  0  0  0
  9 35  1  0  0  0  0
 10 12  1  0  0  0  0
 10 36  1  0  0  0  0
 11 16  1  0  0  0  0
 11 21  1  0  0  0  0
 11 23  1  0  0  0  0
 12 37  1  0  0  0  0
 12 38  1  0  0  0  0
 13 14  1  0  0  0  0
 13 39  1  0  0  0  0
 13 40  1  0  0  0  0
 14 41  1  0  0  0  0
 14 42  1  0  0  0  0
 15 18  1  0  0  0  0
 15 25  1  0  0  0  0
 15 43  1  0  0  0  0
 16 19  1  0  0  0  0
 16 22  1  0  0  0  0
 16 44  1  0  0  0  0
 17 19  1  0  0  0  0
 17 45  1  0  0  0  0
 17 46  1  0  0  0  0
 18 26  1  0  0  0  0
 19 47  1  0  0  0  0
 19 48  1  0  0  0  0
 20 49  1  0  0  0  0
 20 50  1  0  0  0  0
 20 51  1  0  0  0  0
 21 24  1  0  0  0  0
 21 52  1  0  0  0  0
 21 53  1  0  0  0  0
 22 27  1  0  0  0  0
 22 54  1  0  0  0  0
 22 55  1  0  0  0  0
 23 56  1  0  0  0  0
 23 57  1  0  0  0  0
 23 58  1  0  0  0  0
 24 27  1  0  0  0  0
 24 59  1  0  0  0  0
 25 60  1  0  0  0  0
 25 61  1  0  0  0  0
 25 62  1  0  0  0  0
 26 28  1  0  0  0  0
 26 63  1  0  0  0  0
 26 64  1  0  0  0  0
 27 65  1  0  0  0  0
 28 30  1  0  0  0  0
 28 66  1  0  0  0  0
 28 67  1  0  0  0  0
 29 30  1  0  0  0  0
 29 68  1  0  0  0  0
 29 69  1  0  0  0  0
 30 31  1  0  0  0  0
 30 70  1  0  0  0  0
 31 73  1  0  0  0  0
 31 74  1  0  0  0  0
 31 75  1  0  0  0  0
M  END
> <PUBCHEM_COMPOUND_CID>
12304409

> <PUBCHEM_CONFORMER_RMSD>
0.8

> <PUBCHEM_CONFORMER_DIVERSEORDER>
1

> <PUBCHEM_MMFF94_PARTIAL_CHARGES>
11
1 -0.56
10 0.28
18 0.56
2 -0.56
24 0.28
27 0.28
29 0.28
3 -0.68
4 -0.68
71 0.4
72 0.4

> <PUBCHEM_EFFECTIVE_ROTOR_COUNT>
3.2

> <PUBCHEM_PHARMACOPHORE_FEATURES>
12
1 1 acceptor
1 2 acceptor
1 3 acceptor
1 3 donor
1 4 acceptor
1 4 donor
5 1 8 10 15 18 rings
5 5 6 8 10 12 rings
6 11 16 21 22 24 27 rings
6 2 18 26 28 29 30 rings
6 5 6 7 9 13 14 rings
6 7 9 11 16 17 19 rings

> <PUBCHEM_HEAVY_ATOM_COUNT>
31

> <PUBCHEM_ATOM_DEF_STEREO_COUNT>
13

> <PUBCHEM_ATOM_UDEF_STEREO_COUNT>
0

> <PUBCHEM_BOND_DEF_STEREO_COUNT>
0

> <PUBCHEM_BOND_UDEF_STEREO_COUNT>
0

> <PUBCHEM_ISOTOPIC_ATOM_COUNT>
0

> <PUBCHEM_COMPONENT_COUNT>
1

> <PUBCHEM_CACTVS_TAUTO_COUNT>
1

> <PUBCHEM_CONFORMER_ID>
00BBC01900000001

> <PUBCHEM_MMFF94_ENERGY>
115.6481

> <PUBCHEM_FEATURE_SELFOVERLAP>
61.305

> <PUBCHEM_SHAPE_FINGERPRINT>
10 15 18409172087084690104
10050765 1 18122906692118317474
10299344 5 18060419114577049888
10906281 52 18335686256778843646
11135926 11 18340497724100085503
11315181 36 17988923354223201737
11488393 25 16952235749946102334
11524674 6 16587743123122404159
11646440 116 17894907412691720864
11719270 70 18411984676610217354
11963148 33 18340493282962041514
12107698 1 16343984706490332637
12166972 35 17560798797285255045
12236239 1 17704072897424894648
12403259 415 17894920623926707553
12516196 113 18260266347662223344
12596602 18 17846503655172351801
12730499 353 17821444682176096830
12788726 201 17677045866601051984
12838862 33 18337689567038874841
13073987 5 18339361967200632570
13402501 40 18334575741972512537
13533116 47 18339926025493434866
13811026 1 18334293205732977390
14251764 18 18131070415741566058
14341114 176 18410290354470468519
14394314 77 18335979861382405193
14849402 71 18271240500484745188
14856354 85 18342732980242864031
14933364 13 18333730221298121376
15131766 46 14058443011246883978
15183329 4 18413106164783384369
15196674 1 18338236075799133483
15419008 47 17749112192450593384
15461852 350 13758065290470828898
15849732 13 17821728316724824356
16087824 20 18338516465542757105
18335252 98 18412820283661111435
18608769 82 18409730629884694259
18681886 176 18411140195196527737
19377110 9 18060705017454124400
19611394 137 18058436609197240723
20105231 36 18113888351787561095
21033648 29 17459207217730078618
21130935 74 18336546109327195907
21267235 1 18410569565630162065
21521721 280 17095243597026821170
21792934 111 18263937681743777242
21792961 116 17822007662019955736
22149856 69 18263067950629123041
23516275 137 14924761464166726958
23522609 53 18194088967664477737
23559900 14 18262245417179408200
23569917 315 18202279226170720818
24771293 8 17897182238722274880
24771750 20 17984127168075263084
3004659 81 18343580724992779020
335352 9 18409449159023570501
3383291 50 18341332189048648019
34797466 226 17821722811431474908
350125 39 18410573981052117433
3545911 37 18408042918507073360
4073 2 18131344198416480691
4093350 32 17095518539284694646
4258327 124 16629379377977303366
4325135 7 18413387644055107868
4340502 62 17989771107568683906
5104073 3 18263365952486975466

> <PUBCHEM_SHAPE_MULTIPOLES>
614.49
20.4
2.09
1.09
3.22
0.2
0.34
-1.22
-2.65
-1.21
-0.2
0.63
0.08
0.25

> <PUBCHEM_SHAPE_SELFOVERLAP>
1319.226

> <PUBCHEM_SHAPE_VOLUME>
338.5

> <PUBCHEM_COORDINATE_TYPE>
2
5
10

$$$$

