12786
  -OEChem-06261207222D

 14 14  0     0  0  0  0  0  0999 V2000
    2.0000    0.3450    0.0000 F   0  0  0  0  0  0  0  0  0  0  0  0
    5.4641    0.3450    0.0000 F   0  0  0  0  0  0  0  0  0  0  0  0
    5.4641   -1.6550    0.0000 F   0  0  0  0  0  0  0  0  0  0  0  0
    2.0000   -1.6550    0.0000 F   0  0  0  0  0  0  0  0  0  0  0  0
    3.7320    1.3450    0.0000 N   0  0  0  0  0  0  0  0  0  0  0  0
    3.7320    0.3450    0.0000 C   0  0  0  0  0  0  0  0  0  0  0  0
    2.8660   -0.1550    0.0000 C   0  0  0  0  0  0  0  0  0  0  0  0
    4.5981   -0.1550    0.0000 C   0  0  0  0  0  0  0  0  0  0  0  0
    4.5981   -1.1550    0.0000 C   0  0  0  0  0  0  0  0  0  0  0  0
    2.8660   -1.1550    0.0000 C   0  0  0  0  0  0  0  0  0  0  0  0
    3.7320   -1.6550    0.0000 C   0  0  0  0  0  0  0  0  0  0  0  0
    3.7320   -2.2750    0.0000 H   0  0  0  0  0  0  0  0  0  0  0  0
    4.2690    1.6550    0.0000 H   0  0  0  0  0  0  0  0  0  0  0  0
    3.1951    1.6550    0.0000 H   0  0  0  0  0  0  0  0  0  0  0  0
  1  7  1  0  0  0  0
  2  8  1  0  0  0  0
  3  9  1  0  0  0  0
  4 10  1  0  0  0  0
  5  6  1  0  0  0  0
  5 13  1  0  0  0  0
  5 14  1  0  0  0  0
  6  7  2  0  0  0  0
  6  8  1  0  0  0  0
  7 10  1  0  0  0  0
  8  9  2  0  0  0  0
  9 11  1  0  0  0  0
 10 11  2  0  0  0  0
 11 12  1  0  0  0  0
M  END
> <PUBCHEM_COMPOUND_CID>
12786

> <PUBCHEM_COMPOUND_CANONICALIZED>
1

> <PUBCHEM_CACTVS_COMPLEXITY>
129

> <PUBCHEM_CACTVS_HBOND_ACCEPTOR>
5

> <PUBCHEM_CACTVS_HBOND_DONOR>
1

> <PUBCHEM_CACTVS_ROTATABLE_BOND>
0

> <PUBCHEM_CACTVS_SUBSKEYS>
AAADcQBiAcAAAAAAAAAAAAAAAAAAAAAAAAAwAAAAAAAAAAABAAAAHQAQAAAACAiBEAgwwIBAAACAACRCQACCAAAgAAAAiAAARIgIICKAkJGAIABggAAIyAcQAAAAAAAAAAAAAAAAAAAAAAAAAAAAAAAAAA==

> <PUBCHEM_IUPAC_OPENEYE_NAME>
2,3,5,6-tetrafluoroaniline

> <PUBCHEM_IUPAC_CAS_NAME>
2,3,5,6-tetrafluoroaniline

> <PUBCHEM_IUPAC_NAME>
2,3,5,6-tetrafluoroaniline

> <PUBCHEM_IUPAC_SYSTEMATIC_NAME>
2,3,5,6-tetrakis(fluoranyl)aniline

> <PUBCHEM_IUPAC_TRADITIONAL_NAME>
(2,3,5,6-tetrafluorophenyl)amine

> <PUBCHEM_IUPAC_INCHI>
InChI=1S/C6H3F4N/c7-2-1-3(8)5(10)6(11)4(2)9/h1H,11H2

> <PUBCHEM_IUPAC_INCHIKEY>
SPSWJTZNOXMMMV-UHFFFAOYSA-N

> <PUBCHEM_XLOGP3>
1.7

> <PUBCHEM_EXACT_MASS>
165.020162

> <PUBCHEM_MOLECULAR_FORMULA>
C6H3F4N

> <PUBCHEM_MOLECULAR_WEIGHT>
165.088333

> <PUBCHEM_OPENEYE_CAN_SMILES>
C1=C(C(=C(C(=C1F)F)N)F)F

> <PUBCHEM_OPENEYE_ISO_SMILES>
C1=C(C(=C(C(=C1F)F)N)F)F

> <PUBCHEM_CACTVS_TPSA>
26

> <PUBCHEM_MONOISOTOPIC_WEIGHT>
165.020162

> <PUBCHEM_TOTAL_CHARGE>
0

> <PUBCHEM_HEAVY_ATOM_COUNT>
11

> <PUBCHEM_ATOM_DEF_STEREO_COUNT>
0

> <PUBCHEM_ATOM_UDEF_STEREO_COUNT>
0

> <PUBCHEM_BOND_DEF_STEREO_COUNT>
0

> <PUBCHEM_BOND_UDEF_STEREO_COUNT>
0

> <PUBCHEM_ISOTOPIC_ATOM_COUNT>
0

> <PUBCHEM_COMPONENT_COUNT>
1

> <PUBCHEM_CACTVS_TAUTO_COUNT>
1

> <PUBCHEM_COORDINATE_TYPE>
1
5
255

> <PUBCHEM_BONDANNOTATIONS>
10  11  8
6  7  8
6  8  8
7  10  8
8  9  8
9  11  8

$$$$

