441228
  -OEChem-07051212522D

 16 16  0     1  0  0  0  0  0999 V2000
    6.0010    0.3450    0.0000 Cl  0  0  0  0  0  0  0  0  0  0  0  0
    2.5369   -1.6550    0.0000 Cl  0  0  0  0  0  0  0  0  0  0  0  0
    4.2690    1.3450    0.0000 O   0  0  0  0  0  0  0  0  0  0  0  0
    2.5369    0.3450    0.0000 O   0  0  0  0  0  0  0  0  0  0  0  0
    4.2690    0.3450    0.0000 C   0  0  3  0  0  0  0  0  0  0  0  0
    3.4030   -0.1550    0.0000 C   0  0  3  0  0  0  0  0  0  0  0  0
    5.1350   -0.1550    0.0000 C   0  0  0  0  0  0  0  0  0  0  0  0
    3.4030   -1.1550    0.0000 C   0  0  0  0  0  0  0  0  0  0  0  0
    5.1350   -1.1550    0.0000 C   0  0  0  0  0  0  0  0  0  0  0  0
    4.2690   -1.6550    0.0000 C   0  0  0  0  0  0  0  0  0  0  0  0
    5.0051    0.7700    0.0000 H   0  0  0  0  0  0  0  0  0  0  0  0
    3.4030    0.6950    0.0000 H   0  0  0  0  0  0  0  0  0  0  0  0
    5.6720   -1.4650    0.0000 H   0  0  0  0  0  0  0  0  0  0  0  0
    4.2690   -2.2750    0.0000 H   0  0  0  0  0  0  0  0  0  0  0  0
    4.8059    1.6550    0.0000 H   0  0  0  0  0  0  0  0  0  0  0  0
    2.0000    0.0350    0.0000 H   0  0  0  0  0  0  0  0  0  0  0  0
  1  7  1  0  0  0  0
  2  8  1  0  0  0  0
  3  5  1  0  0  0  0
  3 15  1  0  0  0  0
  4  6  1  0  0  0  0
  4 16  1  0  0  0  0
  5  6  1  0  0  0  0
  5  7  1  0  0  0  0
  5 11  1  0  0  0  0
  6  8  1  0  0  0  0
  6 12  1  0  0  0  0
  7  9  2  0  0  0  0
  8 10  2  0  0  0  0
  9 10  1  0  0  0  0
  9 13  1  0  0  0  0
 10 14  1  0  0  0  0
M  END
> <PUBCHEM_COMPOUND_CID>
441228

> <PUBCHEM_COMPOUND_CANONICALIZED>
1

> <PUBCHEM_CACTVS_COMPLEXITY>
176

> <PUBCHEM_CACTVS_HBOND_ACCEPTOR>
2

> <PUBCHEM_CACTVS_HBOND_DONOR>
2

> <PUBCHEM_CACTVS_ROTATABLE_BOND>
0

> <PUBCHEM_CACTVS_SUBSKEYS>
AAADcYBgMAAGAAAAAAAAAAAAAAAAAAAAAAAgAAAAAAAAAAAAAAAAGgIACAAACBaggAIAAAAAAgCAACBCAAAAAAAgAAAACAAAAwgJFAABAQAAUAAAwAAJkAIAAAAAAAAAAAAAAAAAAAAAAAAAAAAAAAAAAA==

> <PUBCHEM_IUPAC_OPENEYE_NAME>
3,6-dichlorocyclohexa-3,5-diene-1,2-diol

> <PUBCHEM_IUPAC_CAS_NAME>
3,6-dichlorocyclohexa-3,5-diene-1,2-diol

> <PUBCHEM_IUPAC_NAME>
3,6-dichlorocyclohexa-3,5-diene-1,2-diol

> <PUBCHEM_IUPAC_SYSTEMATIC_NAME>
3,6-bis(chloranyl)cyclohexa-3,5-diene-1,2-diol

> <PUBCHEM_IUPAC_TRADITIONAL_NAME>
3,6-dichlorocyclohexa-3,5-diene-1,2-diol

> <PUBCHEM_IUPAC_INCHI>
InChI=1S/C6H6Cl2O2/c7-3-1-2-4(8)6(10)5(3)9/h1-2,5-6,9-10H

> <PUBCHEM_IUPAC_INCHIKEY>
NPONHQROCKGAME-UHFFFAOYSA-N

> <PUBCHEM_XLOGP3_AA>
0.6

> <PUBCHEM_EXACT_MASS>
179.974485

> <PUBCHEM_MOLECULAR_FORMULA>
C6H6Cl2O2

> <PUBCHEM_MOLECULAR_WEIGHT>
181.01664

> <PUBCHEM_OPENEYE_CAN_SMILES>
C1=C(C(C(C(=C1)Cl)O)O)Cl

> <PUBCHEM_OPENEYE_ISO_SMILES>
C1=C(C(C(C(=C1)Cl)O)O)Cl

> <PUBCHEM_CACTVS_TPSA>
40.5

> <PUBCHEM_MONOISOTOPIC_WEIGHT>
179.974485

> <PUBCHEM_TOTAL_CHARGE>
0

> <PUBCHEM_HEAVY_ATOM_COUNT>
10

> <PUBCHEM_ATOM_DEF_STEREO_COUNT>
0

> <PUBCHEM_ATOM_UDEF_STEREO_COUNT>
2

> <PUBCHEM_BOND_DEF_STEREO_COUNT>
0

> <PUBCHEM_BOND_UDEF_STEREO_COUNT>
0

> <PUBCHEM_ISOTOPIC_ATOM_COUNT>
0

> <PUBCHEM_COMPONENT_COUNT>
1

> <PUBCHEM_CACTVS_TAUTO_COUNT>
1

> <PUBCHEM_COORDINATE_TYPE>
1
5
255

> <PUBCHEM_BONDANNOTATIONS>
5  11  3
6  12  3

$$$$

