4978
  -OEChem-06261200273D

 55 62  0     0  0  0  0  0  0999 V2000
   -3.2787    3.5820    0.1704 O   0  0  0  0  0  0  0  0  0  0  0  0
    3.4309   -3.5050   -0.0396 O   0  0  0  0  0  0  0  0  0  0  0  0
    2.9469    4.2400    0.1287 O   0  0  0  0  0  0  0  0  0  0  0  0
    4.4082    2.6685   -0.3938 O   0  0  0  0  0  0  0  0  0  0  0  0
   -1.4782    5.3370    0.1555 O   0  0  0  0  0  0  0  0  0  0  0  0
    5.2742   -1.8045   -0.2221 O   0  0  0  0  0  0  0  0  0  0  0  0
   -4.9906    1.7824    0.4439 O   0  0  0  0  0  0  0  0  0  0  0  0
    1.5329   -5.1287   -0.1141 O   0  0  0  0  0  0  0  0  0  0  0  0
   -3.8659   -2.3897   -2.4472 O   0  0  0  0  0  0  0  0  0  0  0  0
   -0.3827    0.5730    0.0714 C   0  0  0  0  0  0  0  0  0  0  0  0
    0.5850   -0.4482    0.0568 C   0  0  0  0  0  0  0  0  0  0  0  0
   -1.7582    0.2306    0.0702 C   0  0  0  0  0  0  0  0  0  0  0  0
    0.1732   -1.8010    0.1564 C   0  0  0  0  0  0  0  0  0  0  0  0
    0.0252    1.9344    0.0572 C   0  0  0  0  0  0  0  0  0  0  0  0
    1.9640   -0.1150   -0.0270 C   0  0  0  0  0  0  0  0  0  0  0  0
   -2.1668   -1.1282    0.0439 C   0  0  0  0  0  0  0  0  0  0  0  0
   -1.2011   -2.1328    0.2809 C   0  0  0  0  0  0  0  0  0  0  0  0
    1.4007    2.2800   -0.0042 C   0  0  0  0  0  0  0  0  0  0  0  0
    2.3828    1.2409   -0.0641 C   0  0  0  0  0  0  0  0  0  0  0  0
   -2.6981    1.2742    0.1144 C   0  0  0  0  0  0  0  0  0  0  0  0
    1.1629   -2.7973    0.1098 C   0  0  0  0  0  0  0  0  0  0  0  0
   -0.9624    2.9540    0.1008 C   0  0  0  0  0  0  0  0  0  0  0  0
    2.9275   -1.1576   -0.0689 C   0  0  0  0  0  0  0  0  0  0  0  0
   -2.3133    2.6139    0.1416 C   0  0  0  0  0  0  0  0  0  0  0  0
    2.5168   -2.4882   -0.0129 C   0  0  0  0  0  0  0  0  0  0  0  0
   -3.5852   -1.3829   -0.3559 C   0  0  0  0  0  0  0  0  0  0  0  0
   -1.5045   -3.5110    0.7758 C   0  0  0  0  0  0  0  0  0  0  0  0
    1.7226    3.6603   -0.0068 C   0  0  0  0  0  0  0  0  0  0  0  0
    3.7756    1.4868   -0.1553 C   0  0  0  0  0  0  0  0  0  0  0  0
   -4.1387    0.9534    0.1546 C   0  0  0  0  0  0  0  0  0  0  0  0
    0.7668   -4.2183    0.1707 C   0  0  0  0  0  0  0  0  0  0  0  0
   -0.5906    4.3009    0.0995 C   0  0  0  0  0  0  0  0  0  0  0  0
    4.2896   -0.8603   -0.1624 C   0  0  0  0  0  0  0  0  0  0  0  0
   -4.5093   -0.4149   -0.2476 C   0  0  0  0  0  0  0  0  0  0  0  0
   -0.5930   -4.4911    0.6686 C   0  0  0  0  0  0  0  0  0  0  0  0
    0.7472    4.6532    0.0468 C   0  0  0  0  0  0  0  0  0  0  0  0
    4.7125    0.4572   -0.2065 C   0  0  0  0  0  0  0  0  0  0  0  0
   -3.9852   -2.6459   -1.0679 C   0  0  0  0  0  0  0  0  0  0  0  0
   -2.7430   -3.8018    1.5782 C   0  0  0  0  0  0  0  0  0  0  0  0
   -5.5429   -0.5721   -0.5390 H   0  0  0  0  0  0  0  0  0  0  0  0
   -0.7890   -5.4974    1.0251 H   0  0  0  0  0  0  0  0  0  0  0  0
    1.0184    5.7071    0.0738 H   0  0  0  0  0  0  0  0  0  0  0  0
    5.7711    0.6907   -0.3063 H   0  0  0  0  0  0  0  0  0  0  0  0
   -5.0216   -2.9218   -0.8426 H   0  0  0  0  0  0  0  0  0  0  0  0
   -3.3625   -3.5115   -0.8755 H   0  0  0  0  0  0  0  0  0  0  0  0
   -2.4900   -4.4061    2.4590 H   0  0  0  0  0  0  0  0  0  0  0  0
   -3.4855   -4.3703    1.0127 H   0  0  0  0  0  0  0  0  0  0  0  0
   -3.2081   -2.8937    1.9733 H   0  0  0  0  0  0  0  0  0  0  0  0
   -2.9459    4.4111   -0.2057 H   0  0  0  0  0  0  0  0  0  0  0  0
    4.2379   -3.2247   -0.4981 H   0  0  0  0  0  0  0  0  0  0  0  0
    2.9196    5.2034    0.0057 H   0  0  0  0  0  0  0  0  0  0  0  0
    3.8858    3.1546   -1.0536 H   0  0  0  0  0  0  0  0  0  0  0  0
   -1.0047    6.1859    0.1402 H   0  0  0  0  0  0  0  0  0  0  0  0
    6.1449   -1.3760   -0.2814 H   0  0  0  0  0  0  0  0  0  0  0  0
   -4.1638   -3.1864   -2.9184 H   0  0  0  0  0  0  0  0  0  0  0  0
  1 24  1  0  0  0  0
  1 49  1  0  0  0  0
  2 25  1  0  0  0  0
  2 50  1  0  0  0  0
  3 28  1  0  0  0  0
  3 51  1  0  0  0  0
  4 29  1  0  0  0  0
  4 52  1  0  0  0  0
  5 32  1  0  0  0  0
  5 53  1  0  0  0  0
  6 33  1  0  0  0  0
  6 54  1  0  0  0  0
  7 30  2  0  0  0  0
  8 31  2  0  0  0  0
  9 38  1  0  0  0  0
  9 55  1  0  0  0  0
 10 11  1  0  0  0  0
 10 12  2  0  0  0  0
 10 14  1  0  0  0  0
 11 13  2  0  0  0  0
 11 15  1  0  0  0  0
 12 16  1  0  0  0  0
 12 20  1  0  0  0  0
 13 17  1  0  0  0  0
 13 21  1  0  0  0  0
 14 18  2  0  0  0  0
 14 22  1  0  0  0  0
 15 19  2  0  0  0  0
 15 23  1  0  0  0  0
 16 17  2  0  0  0  0
 16 26  1  0  0  0  0
 17 27  1  0  0  0  0
 18 19  1  0  0  0  0
 18 28  1  0  0  0  0
 19 29  1  0  0  0  0
 20 24  2  0  0  0  0
 20 30  1  0  0  0  0
 21 25  2  0  0  0  0
 21 31  1  0  0  0  0
 22 24  1  0  0  0  0
 22 32  2  0  0  0  0
 23 25  1  0  0  0  0
 23 33  2  0  0  0  0
 26 34  2  0  0  0  0
 26 38  1  0  0  0  0
 27 35  2  0  0  0  0
 27 39  1  0  0  0  0
 28 36  2  0  0  0  0
 29 37  2  0  0  0  0
 30 34  1  0  0  0  0
 31 35  1  0  0  0  0
 32 36  1  0  0  0  0
 33 37  1  0  0  0  0
 34 40  1  0  0  0  0
 35 41  1  0  0  0  0
 36 42  1  0  0  0  0
 37 43  1  0  0  0  0
 38 44  1  0  0  0  0
 38 45  1  0  0  0  0
 39 46  1  0  0  0  0
 39 47  1  0  0  0  0
 39 48  1  0  0  0  0
M  END
> <PUBCHEM_COMPOUND_CID>
4978

> <PUBCHEM_CONFORMER_RMSD>
0.8

> <PUBCHEM_CONFORMER_DIVERSEORDER>
2
1

> <PUBCHEM_MMFF94_PARTIAL_CHARGES>
40
1 -0.53
16 0.03
17 0.03
2 -0.53
20 0.09
21 0.09
24 0.08
25 0.08
26 -0.17
27 -0.17
28 0.08
29 0.08
3 -0.53
30 0.47
31 0.47
32 0.08
33 0.08
34 -0.14
35 -0.14
36 -0.15
37 -0.15
38 0.42
39 0.14
4 -0.53
40 0.15
41 0.15
42 0.15
43 0.15
49 0.45
5 -0.53
50 0.45
51 0.45
52 0.45
53 0.45
54 0.45
55 0.4
6 -0.53
7 -0.57
8 -0.57
9 -0.68

> <PUBCHEM_EFFECTIVE_ROTOR_COUNT>
1

> <PUBCHEM_PHARMACOPHORE_FEATURES>
18
1 1 donor
1 2 donor
1 3 donor
1 4 donor
1 5 donor
1 6 donor
1 7 acceptor
1 8 acceptor
1 9 acceptor
1 9 donor
6 10 11 12 13 16 17 rings
6 10 11 14 15 18 19 rings
6 10 12 14 20 22 24 rings
6 11 13 15 21 23 25 rings
6 12 16 20 26 30 34 rings
6 13 17 21 27 31 35 rings
6 14 18 22 28 32 36 rings
6 15 19 23 29 33 37 rings

> <PUBCHEM_HEAVY_ATOM_COUNT>
39

> <PUBCHEM_ATOM_DEF_STEREO_COUNT>
0

> <PUBCHEM_ATOM_UDEF_STEREO_COUNT>
0

> <PUBCHEM_BOND_DEF_STEREO_COUNT>
0

> <PUBCHEM_BOND_UDEF_STEREO_COUNT>
0

> <PUBCHEM_ISOTOPIC_ATOM_COUNT>
0

> <PUBCHEM_COMPONENT_COUNT>
1

> <PUBCHEM_CACTVS_TAUTO_COUNT>
987

> <PUBCHEM_CONFORMER_ID>
0000137200000002

> <PUBCHEM_MMFF94_ENERGY>
203.0423

> <PUBCHEM_FEATURE_SELFOVERLAP>
91.777

> <PUBCHEM_SHAPE_FINGERPRINT>
10675989 125 18269008646688489069
10967382 1 18339077193794520520
1100329 8 18411133649592301049
11513181 2 18187358780002495758
12788726 201 18268432523669314466
13140716 1 18339353085113085113
138480 1 18123187080473511992
144659 178 18341041943927599100
14790565 3 18411409627032322561
15320467 1 18339078306037887504
15439362 3 17906182746275485205
15927050 60 17760929936888471340
16112460 7 18262219063491974561
19319366 153 16257823985798551827
19591789 44 18411135835683233824
19930381 70 18340206413600176841
20764821 26 18340481188422559466
20775438 99 16312214030401835103
22311459 1 18338515369059623432
23559900 14 17761497989047327552
3178227 256 18339062883934370081
350125 39 18123183773570629904
3882209 13 17334536029213558851
463206 1 18411695499907247061

> <PUBCHEM_SHAPE_MULTIPOLES>
749.78
8.25
7.83
0.86
0.42
0.36
-0.22
-0.15
-1.06
1.26
0.71
-1.08
-0.16
0.88

> <PUBCHEM_SHAPE_SELFOVERLAP>
1804.559

> <PUBCHEM_SHAPE_VOLUME>
364.9

> <PUBCHEM_COORDINATE_TYPE>
2
5
10

$$$$

