160607
  -OEChem-07051213093D

 21 21  0     0  0  0  0  0  0999 V2000
   -0.5648    1.5750    0.9315 O   0  0  0  0  0  0  0  0  0  0  0  0
   -2.6348   -0.0447   -1.5061 O   0  0  0  0  0  0  0  0  0  0  0  0
   -4.5675   -0.0241   -0.3179 O   0  0  0  0  0  0  0  0  0  0  0  0
   -1.1087   -0.6428    0.5282 N   0  0  0  0  0  0  0  0  0  0  0  0
    3.8255   -0.3582   -0.4685 N   0  0  0  0  0  0  0  0  0  0  0  0
    1.1695    0.1603    0.2320 C   0  0  0  0  0  0  0  0  0  0  0  0
   -2.5162   -0.5288    0.8359 C   0  0  0  0  0  0  0  0  0  0  0  0
   -0.2118    0.4300    0.5967 C   0  0  0  0  0  0  0  0  0  0  0  0
    1.9720    1.1808   -0.2660 C   0  0  0  0  0  0  0  0  0  0  0  0
    1.6934   -1.1192    0.3802 C   0  0  0  0  0  0  0  0  0  0  0  0
    3.2813    0.8725   -0.5984 C   0  0  0  0  0  0  0  0  0  0  0  0
    3.0152   -1.3246    0.0188 C   0  0  0  0  0  0  0  0  0  0  0  0
   -3.3531   -0.1760   -0.3667 C   0  0  0  0  0  0  0  0  0  0  0  0
   -2.6566    0.2441    1.5972 H   0  0  0  0  0  0  0  0  0  0  0  0
   -2.8441   -1.4998    1.2174 H   0  0  0  0  0  0  0  0  0  0  0  0
   -0.7980   -1.5422    0.1765 H   0  0  0  0  0  0  0  0  0  0  0  0
    1.6020    2.1915   -0.4012 H   0  0  0  0  0  0  0  0  0  0  0  0
    1.1298   -1.9501    0.7889 H   0  0  0  0  0  0  0  0  0  0  0  0
    3.9480    1.6326   -0.9921 H   0  0  0  0  0  0  0  0  0  0  0  0
    3.4740   -2.3025    0.1217 H   0  0  0  0  0  0  0  0  0  0  0  0
   -3.2015    0.1843   -2.2732 H   0  0  0  0  0  0  0  0  0  0  0  0
  1  8  2  0  0  0  0
  2 13  1  0  0  0  0
  2 21  1  0  0  0  0
  3 13  2  0  0  0  0
  4  7  1  0  0  0  0
  4  8  1  0  0  0  0
  4 16  1  0  0  0  0
  5 11  2  0  0  0  0
  5 12  1  0  0  0  0
  6  8  1  0  0  0  0
  6  9  2  0  0  0  0
  6 10  1  0  0  0  0
  7 13  1  0  0  0  0
  7 14  1  0  0  0  0
  7 15  1  0  0  0  0
  9 11  1  0  0  0  0
  9 17  1  0  0  0  0
 10 12  2  0  0  0  0
 10 18  1  0  0  0  0
 11 19  1  0  0  0  0
 12 20  1  0  0  0  0
M  END
> <PUBCHEM_COMPOUND_CID>
160607

> <PUBCHEM_CONFORMER_RMSD>
0.6

> <PUBCHEM_CONFORMER_DIVERSEORDER>
1
10
5
3
8
9
11
6
4
7
2

> <PUBCHEM_MMFF94_PARTIAL_CHARGES>
19
1 -0.57
10 -0.15
11 0.16
12 0.16
13 0.66
16 0.37
17 0.15
18 0.15
19 0.15
2 -0.65
20 0.15
21 0.5
3 -0.57
4 -0.73
5 -0.62
6 0.09
7 0.36
8 0.54
9 -0.15

> <PUBCHEM_EFFECTIVE_ROTOR_COUNT>
4

> <PUBCHEM_PHARMACOPHORE_FEATURES>
7
1 1 acceptor
1 2 acceptor
1 3 acceptor
1 4 donor
1 5 acceptor
3 2 3 13 anion
6 5 6 9 10 11 12 rings

> <PUBCHEM_HEAVY_ATOM_COUNT>
13

> <PUBCHEM_ATOM_DEF_STEREO_COUNT>
0

> <PUBCHEM_ATOM_UDEF_STEREO_COUNT>
0

> <PUBCHEM_BOND_DEF_STEREO_COUNT>
0

> <PUBCHEM_BOND_UDEF_STEREO_COUNT>
0

> <PUBCHEM_ISOTOPIC_ATOM_COUNT>
0

> <PUBCHEM_COMPONENT_COUNT>
1

> <PUBCHEM_CACTVS_TAUTO_COUNT>
2

> <PUBCHEM_CONFORMER_ID>
0002735F00000001

> <PUBCHEM_MMFF94_ENERGY>
28.9115

> <PUBCHEM_FEATURE_SELFOVERLAP>
35.579

> <PUBCHEM_SHAPE_FINGERPRINT>
10149128 111 12895069634662864503
10465860 228 12534809191082077189
10498660 4 16271103630093719693
11471102 20 18342174457983505966
12251169 10 8574710204420163937
12932764 1 17603585227069784809
14943859 89 15339117939910321305
14993402 34 17676483921606485365
18186145 218 17918274268185741475
18619055 16 18410855443001300098
200 152 18334576867016404706
20201158 50 18342736329694732642
20361792 2 17676213459121366645
20645477 70 18342174500812489826
20653085 51 16702293542669751029
20671657 53 18341329011025328430
21119208 17 18410291414963439366
21501925 9 18340209691393589842
22485316 2 17167865265830135844
23402539 116 18114179770024498364
23402655 69 18413389855994894429
23557571 272 16988267673932670323
2748010 2 17905594511537686824
8030462 33 18336253609437844328
93112 12 18201436952342963151

> <PUBCHEM_SHAPE_MULTIPOLES>
239.96
7.23
1.26
0.96
3.91
0.04
0.1
-0.6
2.06
-0.92
-0.15
0.52
0.11
-0.02

> <PUBCHEM_SHAPE_SELFOVERLAP>
496.569

> <PUBCHEM_SHAPE_VOLUME>
135.2

> <PUBCHEM_COORDINATE_TYPE>
2
5
10

$$$$

