92810
  -OEChem-07051212483D

 55 58  0     1  0  0  0  0  0999 V2000
    5.5238   -0.2238   -0.7814 O   0  0  0  0  0  0  0  0  0  0  0  0
   -6.1594   -0.3200    0.8434 O   0  0  0  0  0  0  0  0  0  0  0  0
    0.0627    0.9525   -0.1946 C   0  0  1  0  0  0  0  0  0  0  0  0
    1.4740    0.9526    0.4040 C   0  0  1  0  0  0  0  0  0  0  0  0
   -0.6627   -0.3632    0.2358 C   0  0  1  0  0  0  0  0  0  0  0  0
    2.3258   -0.2491   -0.0594 C   0  0  2  0  0  0  0  0  0  0  0  0
   -2.1425   -0.4225   -0.3009 C   0  0  2  0  0  0  0  0  0  0  0  0
    0.1857   -1.6238   -0.0794 C   0  0  0  0  0  0  0  0  0  0  0  0
   -2.8784    0.8627    0.2013 C   0  0  1  0  0  0  0  0  0  0  0  0
    1.6353   -1.5294    0.4299 C   0  0  0  0  0  0  0  0  0  0  0  0
    3.6496    0.0917    0.6597 C   0  0  2  0  0  0  0  0  0  0  0  0
   -0.7313    2.1908    0.2428 C   0  0  0  0  0  0  0  0  0  0  0  0
    2.3843    2.1500    0.1531 C   0  0  0  0  0  0  0  0  0  0  0  0
   -2.1778    2.1523   -0.2417 C   0  0  0  0  0  0  0  0  0  0  0  0
    3.7895    1.6196    0.4894 C   0  0  0  0  0  0  0  0  0  0  0  0
   -2.8898   -1.6454    0.3049 C   0  0  0  0  0  0  0  0  0  0  0  0
    2.5328   -0.3173   -1.5954 C   0  0  0  0  0  0  0  0  0  0  0  0
   -2.1659   -0.5416   -1.8451 C   0  0  0  0  0  0  0  0  0  0  0  0
   -4.3625    0.8926   -0.1740 C   0  0  0  0  0  0  0  0  0  0  0  0
   -4.3837   -1.6790   -0.0101 C   0  0  0  0  0  0  0  0  0  0  0  0
    4.8496   -0.6491    0.1553 C   0  0  0  0  0  0  0  0  0  0  0  0
   -5.0509   -0.3626    0.3099 C   0  0  0  0  0  0  0  0  0  0  0  0
    5.1916   -1.9381    0.8526 C   0  0  0  0  0  0  0  0  0  0  0  0
    0.1422    0.9899   -1.2857 H   0  0  0  0  0  0  0  0  0  0  0  0
    1.3508    0.8886    1.4985 H   0  0  0  0  0  0  0  0  0  0  0  0
   -0.7341   -0.3304    1.3349 H   0  0  0  0  0  0  0  0  0  0  0  0
    0.1983   -1.8171   -1.1562 H   0  0  0  0  0  0  0  0  0  0  0  0
   -0.2696   -2.5049    0.3859 H   0  0  0  0  0  0  0  0  0  0  0  0
   -2.8402    0.8456    1.3022 H   0  0  0  0  0  0  0  0  0  0  0  0
    1.6244   -1.5575    1.5271 H   0  0  0  0  0  0  0  0  0  0  0  0
    2.1854   -2.4180    0.1011 H   0  0  0  0  0  0  0  0  0  0  0  0
    3.5593   -0.1103    1.7362 H   0  0  0  0  0  0  0  0  0  0  0  0
   -0.2548    3.0998   -0.1426 H   0  0  0  0  0  0  0  0  0  0  0  0
   -0.7223    2.2705    1.3375 H   0  0  0  0  0  0  0  0  0  0  0  0
    2.1222    3.0063    0.7827 H   0  0  0  0  0  0  0  0  0  0  0  0
    2.3370    2.4791   -0.8909 H   0  0  0  0  0  0  0  0  0  0  0  0
   -2.7077    3.0219    0.1663 H   0  0  0  0  0  0  0  0  0  0  0  0
   -2.2087    2.2553   -1.3326 H   0  0  0  0  0  0  0  0  0  0  0  0
    4.4952    1.9197   -0.2920 H   0  0  0  0  0  0  0  0  0  0  0  0
    4.1497    2.0640    1.4248 H   0  0  0  0  0  0  0  0  0  0  0  0
   -2.7665   -1.6356    1.3962 H   0  0  0  0  0  0  0  0  0  0  0  0
   -2.4488   -2.5838   -0.0504 H   0  0  0  0  0  0  0  0  0  0  0  0
    1.5907   -0.3741   -2.1468 H   0  0  0  0  0  0  0  0  0  0  0  0
    3.0746    0.5502   -1.9855 H   0  0  0  0  0  0  0  0  0  0  0  0
    3.1071   -1.2099   -1.8693 H   0  0  0  0  0  0  0  0  0  0  0  0
   -3.1807   -0.5025   -2.2509 H   0  0  0  0  0  0  0  0  0  0  0  0
   -1.6038    0.2560   -2.3371 H   0  0  0  0  0  0  0  0  0  0  0  0
   -1.7397   -1.4944   -2.1759 H   0  0  0  0  0  0  0  0  0  0  0  0
   -4.5181    0.9855   -1.2531 H   0  0  0  0  0  0  0  0  0  0  0  0
   -4.8470    1.7525    0.3037 H   0  0  0  0  0  0  0  0  0  0  0  0
   -4.8602   -2.4675    0.5831 H   0  0  0  0  0  0  0  0  0  0  0  0
   -4.5639   -1.9065   -1.0656 H   0  0  0  0  0  0  0  0  0  0  0  0
    5.3284   -1.7557    1.9214 H   0  0  0  0  0  0  0  0  0  0  0  0
    4.4031   -2.6748    0.6926 H   0  0  0  0  0  0  0  0  0  0  0  0
    6.1272   -2.3339    0.4470 H   0  0  0  0  0  0  0  0  0  0  0  0
  1 21  2  0  0  0  0
  2 22  2  0  0  0  0
  3  4  1  0  0  0  0
  3  5  1  0  0  0  0
  3 12  1  0  0  0  0
  3 24  1  0  0  0  0
  4  6  1  0  0  0  0
  4 13  1  0  0  0  0
  4 25  1  0  0  0  0
  5  7  1  0  0  0  0
  5  8  1  0  0  0  0
  5 26  1  0  0  0  0
  6 10  1  0  0  0  0
  6 11  1  0  0  0  0
  6 17  1  0  0  0  0
  7  9  1  0  0  0  0
  7 16  1  0  0  0  0
  7 18  1  0  0  0  0
  8 10  1  0  0  0  0
  8 27  1  0  0  0  0
  8 28  1  0  0  0  0
  9 14  1  0  0  0  0
  9 19  1  0  0  0  0
  9 29  1  0  0  0  0
 10 30  1  0  0  0  0
 10 31  1  0  0  0  0
 11 15  1  0  0  0  0
 11 21  1  0  0  0  0
 11 32  1  0  0  0  0
 12 14  1  0  0  0  0
 12 33  1  0  0  0  0
 12 34  1  0  0  0  0
 13 15  1  0  0  0  0
 13 35  1  0  0  0  0
 13 36  1  0  0  0  0
 14 37  1  0  0  0  0
 14 38  1  0  0  0  0
 15 39  1  0  0  0  0
 15 40  1  0  0  0  0
 16 20  1  0  0  0  0
 16 41  1  0  0  0  0
 16 42  1  0  0  0  0
 17 43  1  0  0  0  0
 17 44  1  0  0  0  0
 17 45  1  0  0  0  0
 18 46  1  0  0  0  0
 18 47  1  0  0  0  0
 18 48  1  0  0  0  0
 19 22  1  0  0  0  0
 19 49  1  0  0  0  0
 19 50  1  0  0  0  0
 20 22  1  0  0  0  0
 20 51  1  0  0  0  0
 20 52  1  0  0  0  0
 21 23  1  0  0  0  0
 23 53  1  0  0  0  0
 23 54  1  0  0  0  0
 23 55  1  0  0  0  0
M  END
> <PUBCHEM_COMPOUND_CID>
92810

> <PUBCHEM_CONFORMER_RMSD>
0.6

> <PUBCHEM_CONFORMER_DIVERSEORDER>
1
2

> <PUBCHEM_MMFF94_PARTIAL_CHARGES>
8
1 -0.57
11 0.06
19 0.06
2 -0.57
20 0.06
21 0.45
22 0.45
23 0.06

> <PUBCHEM_EFFECTIVE_ROTOR_COUNT>
3

> <PUBCHEM_PHARMACOPHORE_FEATURES>
6
1 1 acceptor
1 2 acceptor
5 4 6 11 13 15 rings
6 3 4 5 6 8 10 rings
6 3 5 7 9 12 14 rings
6 7 9 16 19 20 22 rings

> <PUBCHEM_HEAVY_ATOM_COUNT>
23

> <PUBCHEM_ATOM_DEF_STEREO_COUNT>
7

> <PUBCHEM_ATOM_UDEF_STEREO_COUNT>
0

> <PUBCHEM_BOND_DEF_STEREO_COUNT>
0

> <PUBCHEM_BOND_UDEF_STEREO_COUNT>
0

> <PUBCHEM_ISOTOPIC_ATOM_COUNT>
0

> <PUBCHEM_COMPONENT_COUNT>
1

> <PUBCHEM_CACTVS_TAUTO_COUNT>
9

> <PUBCHEM_CONFORMER_ID>
00016A8A00000001

> <PUBCHEM_MMFF94_ENERGY>
75.5513

> <PUBCHEM_FEATURE_SELFOVERLAP>
30.537

> <PUBCHEM_SHAPE_FINGERPRINT>
12011746 2 18411705383465674447
12107183 9 17550395471792363866
12166972 35 17775280560601077460
12236239 1 17775564269002791124
12403259 226 18412271640032964096
12403259 415 18201729435252476908
12553582 1 18338249218409582793
12596599 1 17968918813328208571
12616971 3 18040439867160954045
12633257 1 16805606932212229873
12788726 201 17822276986039022640
13140716 1 18336829663099232355
13224815 77 18409450267151486797
13288520 33 18410292540545447214
13533116 47 18202005455979619426
13675066 3 18113905931098687512
13862211 1 18410017632574069915
14115302 16 17846210030012923438
14341114 176 18411980256465883760
15196674 1 18410295778708377233
15209289 33 18342177777798287522
15536298 74 18334013856706886792
15788980 27 18272652346238459347
16945 1 18265046010776160473
17349148 13 17917712417849501402
17804303 29 18409449180603947144
1813 80 17489873712966257349
18186145 218 18130518456757102828
19141452 34 17749108855518881967
19591789 44 18410015398890356746
200 152 18410577288150093985
20028762 73 18187652374987246230
20261772 1 18113904835787126998
21267235 1 18410848875990899867
21279426 13 18267869556461956366
221490 88 18340204098934700688
22182313 1 17750226083480442388
2297311 6 18335692862475565820
23402539 116 18334583429447137743
23522609 53 18124000586056432148
23557571 272 18187640344783135044
23559900 14 18411143515164003936
2871803 45 18342183249691948593
296302 2 7420947581981622629
3004659 81 18201998876712057658
3286 77 18343024384919757620
335352 9 18410857676990897237
34934 24 18409173203791718519
350125 39 18411698807122138544
3545911 37 18411135848842279867
4214541 1 18410857689527736689
465052 167 18410289216431008458
5104073 3 18334859398265070169
542803 24 17418373597140524132
9709674 26 18268710519659081651

> <PUBCHEM_SHAPE_MULTIPOLES>
461.59
11.53
2.2
1.02
0.84
0.54
0.41
-3.38
-1.73
-0.31
-0.28
-0.13
-0.17
-0.05

> <PUBCHEM_SHAPE_SELFOVERLAP>
980.806

> <PUBCHEM_SHAPE_VOLUME>
255.5

> <PUBCHEM_COORDINATE_TYPE>
2
5
10

$$$$

