6326996
  -OEChem-07051212503D

  5  4  0     0  0  0  0  0  0999 V2000
    0.0926    0.6682    0.0000 P   0  3  0  0  0  0  0  0  0  0  0  0
   -1.2080   -0.2942    0.0000 O   0  0  0  0  0  0  0  0  0  0  0  0
    1.1154   -0.3741    0.0000 O   0  0  0  0  0  0  0  0  0  0  0  0
    0.1160    0.9749    1.3813 H   0  0  0  0  0  0  0  0  0  0  0  0
   -1.1255   -0.9822    0.6944 H   0  0  0  0  0  0  0  0  0  0  0  0
  1  2  1  0  0  0  0
  1  3  2  0  0  0  0
  1  4  1  0  0  0  0
  2  5  1  0  0  0  0
M  CHG  1   1   1
M  END
> <PUBCHEM_COMPOUND_CID>
6326996

> <PUBCHEM_CONFORMER_RMSD>
0.4

> <PUBCHEM_CONFORMER_DIVERSEORDER>
1

> <PUBCHEM_EFFECTIVE_ROTOR_COUNT>
0

> <PUBCHEM_PHARMACOPHORE_FEATURES>
0

> <PUBCHEM_HEAVY_ATOM_COUNT>
3

> <PUBCHEM_ATOM_DEF_STEREO_COUNT>
0

> <PUBCHEM_ATOM_UDEF_STEREO_COUNT>
0

> <PUBCHEM_BOND_DEF_STEREO_COUNT>
0

> <PUBCHEM_BOND_UDEF_STEREO_COUNT>
0

> <PUBCHEM_ISOTOPIC_ATOM_COUNT>
0

> <PUBCHEM_COMPONENT_COUNT>
1

> <PUBCHEM_CACTVS_TAUTO_COUNT>
2

> <PUBCHEM_CONFORMER_ID>
00608AD400000001

> <PUBCHEM_MMFF94_ENERGY>
0.0166

> <PUBCHEM_FEATURE_SELFOVERLAP>
0

> <PUBCHEM_SHAPE_FINGERPRINT>
139733 1 17762338015783086308
21015797 1 18409164394070184300

> <PUBCHEM_SHAPE_MULTIPOLES>
53.85
1.33
0.83
0.58
0.13
0.17
0
-0.28
0
-0.05
0
-0.01
0.05
0

> <PUBCHEM_SHAPE_SELFOVERLAP>
79.34

> <PUBCHEM_SHAPE_VOLUME>
40.7

> <PUBCHEM_COORDINATE_TYPE>
2
5
10

$$$$

