111178
  -OEChem-07051212483D

 24 24  0     1  0  0  0  0  0999 V2000
   -0.5537    2.4264    0.3667 O   0  0  0  0  0  0  0  0  0  0  0  0
   -1.1451   -1.7719   -1.1219 O   0  0  0  0  0  0  0  0  0  0  0  0
   -2.6430   -1.5806    0.5719 O   0  0  0  0  0  0  0  0  0  0  0  0
   -3.0575    1.0432   -0.1387 N   0  0  0  0  0  0  0  0  0  0  0  0
   -0.6763    1.0154    0.5495 C   0  0  1  0  0  0  0  0  0  0  0  0
   -1.7455    0.4449   -0.3982 C   0  0  1  0  0  0  0  0  0  0  0  0
    0.7026    0.4371    0.2973 C   0  0  0  0  0  0  0  0  0  0  0  0
    1.0873   -0.7049    0.9751 C   0  0  0  0  0  0  0  0  0  0  0  0
    1.5413    1.0664   -0.6039 C   0  0  0  0  0  0  0  0  0  0  0  0
   -1.8931   -1.0571   -0.2438 C   0  0  0  0  0  0  0  0  0  0  0  0
    2.3560   -1.2367    0.7435 C   0  0  0  0  0  0  0  0  0  0  0  0
    2.8098    0.5347   -0.8357 C   0  0  0  0  0  0  0  0  0  0  0  0
    3.2171   -0.6168   -0.1619 C   0  0  0  0  0  0  0  0  0  0  0  0
   -0.9493    0.8494    1.5999 H   0  0  0  0  0  0  0  0  0  0  0  0
   -1.4954    0.6713   -1.4417 H   0  0  0  0  0  0  0  0  0  0  0  0
    0.4262   -1.1927    1.6852 H   0  0  0  0  0  0  0  0  0  0  0  0
    1.2451    1.9523   -1.1572 H   0  0  0  0  0  0  0  0  0  0  0  0
   -3.3502    0.8409    0.8164 H   0  0  0  0  0  0  0  0  0  0  0  0
   -3.7567    0.6286   -0.7534 H   0  0  0  0  0  0  0  0  0  0  0  0
   -1.4352    2.8135    0.5042 H   0  0  0  0  0  0  0  0  0  0  0  0
    2.6733   -2.1329    1.2684 H   0  0  0  0  0  0  0  0  0  0  0  0
    3.4791    1.0143   -1.5440 H   0  0  0  0  0  0  0  0  0  0  0  0
    4.2044   -1.0314   -0.3431 H   0  0  0  0  0  0  0  0  0  0  0  0
   -1.2714   -2.7380   -1.0085 H   0  0  0  0  0  0  0  0  0  0  0  0
  1  5  1  0  0  0  0
  1 20  1  0  0  0  0
  2 10  1  0  0  0  0
  2 24  1  0  0  0  0
  3 10  2  0  0  0  0
  4  6  1  0  0  0  0
  4 18  1  0  0  0  0
  4 19  1  0  0  0  0
  5  6  1  0  0  0  0
  5  7  1  0  0  0  0
  5 14  1  0  0  0  0
  6 10  1  0  0  0  0
  6 15  1  0  0  0  0
  7  8  2  0  0  0  0
  7  9  1  0  0  0  0
  8 11  1  0  0  0  0
  8 16  1  0  0  0  0
  9 12  2  0  0  0  0
  9 17  1  0  0  0  0
 11 13  2  0  0  0  0
 11 21  1  0  0  0  0
 12 13  1  0  0  0  0
 12 22  1  0  0  0  0
 13 23  1  0  0  0  0
M  END
> <PUBCHEM_COMPOUND_CID>
111178

> <PUBCHEM_CONFORMER_RMSD>
0.6

> <PUBCHEM_CONFORMER_DIVERSEORDER>
2
9
3
5
1
10
8
6
4
7

> <PUBCHEM_MMFF94_PARTIAL_CHARGES>
22
1 -0.68
10 0.66
11 -0.15
12 -0.15
13 -0.15
16 0.15
17 0.15
18 0.36
19 0.36
2 -0.65
20 0.4
21 0.15
22 0.15
23 0.15
24 0.5
3 -0.57
4 -0.99
5 0.42
6 0.33
7 -0.14
8 -0.15
9 -0.15

> <PUBCHEM_EFFECTIVE_ROTOR_COUNT>
3

> <PUBCHEM_PHARMACOPHORE_FEATURES>
8
1 1 acceptor
1 1 donor
1 2 acceptor
1 3 acceptor
1 4 cation
1 4 donor
3 2 3 10 anion
6 7 8 9 11 12 13 rings

> <PUBCHEM_HEAVY_ATOM_COUNT>
13

> <PUBCHEM_ATOM_DEF_STEREO_COUNT>
2

> <PUBCHEM_ATOM_UDEF_STEREO_COUNT>
0

> <PUBCHEM_BOND_DEF_STEREO_COUNT>
0

> <PUBCHEM_BOND_UDEF_STEREO_COUNT>
0

> <PUBCHEM_ISOTOPIC_ATOM_COUNT>
0

> <PUBCHEM_COMPONENT_COUNT>
1

> <PUBCHEM_CACTVS_TAUTO_COUNT>
1

> <PUBCHEM_CONFORMER_ID>
0001B24A00000002

> <PUBCHEM_MMFF94_ENERGY>
29.8241

> <PUBCHEM_FEATURE_SELFOVERLAP>
40.655

> <PUBCHEM_SHAPE_FINGERPRINT>
12202030 40 16515676741354372494
12897270 3 17917433068712797158
14128692 85 18413108346900908320
14251711 518 18264497195401945846
15076042 46 18263645241319972528
15775835 57 18059567018634945372
161256 15 18049163259324632881
16945 1 18268429212249450952
18619055 16 18341620346798681253
19422 9 18343294855895038515
20645476 183 18273209828704054127
20645477 70 17542236662076912743
20871998 184 18187083979051333031
23552423 10 18272651203713919988
23559900 14 18259989306083097130
2748010 2 18263938656432567993
305870 269 8790619103859585868
3312278 4 18413385436526118784
465052 167 18192418681333180119
528886 8 17846782922762809568

> <PUBCHEM_SHAPE_MULTIPOLES>
244.94
4.61
1.89
0.96
0.34
0.21
-0.04
-0.83
-0.49
-0.76
0.07
0.18
-0.15
-0.49

> <PUBCHEM_SHAPE_SELFOVERLAP>
507.363

> <PUBCHEM_SHAPE_VOLUME>
138.9

> <PUBCHEM_COORDINATE_TYPE>
2
5
10

$$$$

