12292
  -OEChem-06261206463D

 23 22  0     1  0  0  0  0  0999 V2000
   -2.8484    1.9190    0.1927 O   0  0  0  0  0  0  0  0  0  0  0  0
    3.4979    1.1349    0.6088 O   0  0  0  0  0  0  0  0  0  0  0  0
   -1.9695    0.5602   -1.3949 O   0  0  0  0  0  0  0  0  0  0  0  0
    3.0586   -0.2662   -1.1294 O   0  0  0  0  0  0  0  0  0  0  0  0
   -0.8434   -1.2445    0.6428 C   0  0  1  0  0  0  0  0  0  0  0  0
    0.4894   -0.9427   -0.0770 C   0  0  0  0  0  0  0  0  0  0  0  0
   -1.6987   -0.0066    0.9677 C   0  0  0  0  0  0  0  0  0  0  0  0
   -1.6407   -2.2947   -0.1395 C   0  0  0  0  0  0  0  0  0  0  0  0
    1.4076    0.0538    0.6328 C   0  0  0  0  0  0  0  0  0  0  0  0
   -2.1675    0.8145   -0.2163 C   0  0  0  0  0  0  0  0  0  0  0  0
    2.7148    0.2724   -0.0878 C   0  0  0  0  0  0  0  0  0  0  0  0
   -0.5868   -1.7019    1.6086 H   0  0  0  0  0  0  0  0  0  0  0  0
    0.2943   -0.5848   -1.0952 H   0  0  0  0  0  0  0  0  0  0  0  0
    1.0357   -1.8877   -0.2019 H   0  0  0  0  0  0  0  0  0  0  0  0
   -2.5967   -0.3310    1.5084 H   0  0  0  0  0  0  0  0  0  0  0  0
   -1.1399    0.6584    1.6355 H   0  0  0  0  0  0  0  0  0  0  0  0
   -1.8730   -1.9655   -1.1562 H   0  0  0  0  0  0  0  0  0  0  0  0
   -1.0702   -3.2267   -0.2179 H   0  0  0  0  0  0  0  0  0  0  0  0
   -2.5828   -2.5267    0.3682 H   0  0  0  0  0  0  0  0  0  0  0  0
    1.6303   -0.3121    1.6413 H   0  0  0  0  0  0  0  0  0  0  0  0
    0.9146    1.0286    0.7075 H   0  0  0  0  0  0  0  0  0  0  0  0
   -3.1513    2.4623   -0.5659 H   0  0  0  0  0  0  0  0  0  0  0  0
    4.3630    1.2797    0.1696 H   0  0  0  0  0  0  0  0  0  0  0  0
  1 10  1  0  0  0  0
  1 22  1  0  0  0  0
  2 11  1  0  0  0  0
  2 23  1  0  0  0  0
  3 10  2  0  0  0  0
  4 11  2  0  0  0  0
  5  6  1  0  0  0  0
  5  7  1  0  0  0  0
  5  8  1  0  0  0  0
  5 12  1  0  0  0  0
  6  9  1  0  0  0  0
  6 13  1  0  0  0  0
  6 14  1  0  0  0  0
  7 10  1  0  0  0  0
  7 15  1  0  0  0  0
  7 16  1  0  0  0  0
  8 17  1  0  0  0  0
  8 18  1  0  0  0  0
  8 19  1  0  0  0  0
  9 11  1  0  0  0  0
  9 20  1  0  0  0  0
  9 21  1  0  0  0  0
M  END
> <PUBCHEM_COMPOUND_CID>
12292

> <PUBCHEM_CONFORMER_RMSD>
0.6

> <PUBCHEM_CONFORMER_DIVERSEORDER>
3
93
37
60
40
56
90
76
82
44
101
6
54
70
28
100
34
1
78
32
92
53
71
23
79
49
27
22
96
35
66
17
89
57
15
50
80
10
7
103
81
65
52
86
69
19
20
62
95
24
61
74
63
21
83
58
16
88
36
94
87
45
4
64
105
26
2
39
73
14
104
68
42
43
99
75
25
8
46
84
91
11
102
67
9
41
51
38
97
48
18
47
72
59
55
13
5
30
12
31
29
85
98
77
33

> <PUBCHEM_MMFF94_PARTIAL_CHARGES>
10
1 -0.65
10 0.66
11 0.66
2 -0.65
22 0.5
23 0.5
3 -0.57
4 -0.57
7 0.06
9 0.06

> <PUBCHEM_EFFECTIVE_ROTOR_COUNT>
5

> <PUBCHEM_PHARMACOPHORE_FEATURES>
8
1 1 acceptor
1 2 acceptor
1 3 acceptor
1 4 acceptor
1 8 hydrophobe
3 1 3 10 anion
3 2 4 11 anion
4 5 6 7 9 hydrophobe

> <PUBCHEM_HEAVY_ATOM_COUNT>
11

> <PUBCHEM_ATOM_DEF_STEREO_COUNT>
0

> <PUBCHEM_ATOM_UDEF_STEREO_COUNT>
1

> <PUBCHEM_BOND_DEF_STEREO_COUNT>
0

> <PUBCHEM_BOND_UDEF_STEREO_COUNT>
0

> <PUBCHEM_ISOTOPIC_ATOM_COUNT>
0

> <PUBCHEM_COMPONENT_COUNT>
1

> <PUBCHEM_CACTVS_TAUTO_COUNT>
1

> <PUBCHEM_CONFORMER_ID>
0000300400000003

> <PUBCHEM_MMFF94_ENERGY>
10.5524

> <PUBCHEM_FEATURE_SELFOVERLAP>
40.743

> <PUBCHEM_SHAPE_FINGERPRINT>
100427 49 17548966763790530435
12716758 59 18409443687430524514
12932764 1 18339912741317467178
14390081 3 18411420622111170432
15775835 57 18131071562376521336
19837323 101 18408887347526580763
20645477 56 18409727348524385904
20653085 51 17967812794698066785
21028194 46 18271806886147290995
21524375 3 18127977605739270971
22802520 49 18115012104436971926
23211744 41 17343503594567367689
23235685 24 18340768246988903025
23557571 272 18191015716984660484
3248919 1 17458338637629690330
6333449 129 18410015398900711298
81228 2 18127406757193721715

> <PUBCHEM_SHAPE_MULTIPOLES>
202.9
5.1
1.81
1.03
4.07
0.43
0.15
-2.19
0.39
-1.64
0.01
-0.04
-0.06
0.33

> <PUBCHEM_SHAPE_SELFOVERLAP>
382.257

> <PUBCHEM_SHAPE_VOLUME>
125.2

> <PUBCHEM_COORDINATE_TYPE>
2
5
10

$$$$

