4680
  -OEChem-06261200172D

 46 48  0     0  0  0  0  0  0999 V2000
    2.0000    0.7722    0.0000 O   0  0  0  0  0  0  0  0  0  0  0  0
    2.0000    2.7722    0.0000 O   0  0  0  0  0  0  0  0  0  0  0  0
    7.1777   -3.2822    0.0000 O   0  0  0  0  0  0  0  0  0  0  0  0
    8.9212   -2.3023    0.0000 O   0  0  0  0  0  0  0  0  0  0  0  0
    6.3981    1.2514    0.0000 N   0  0  0  0  0  0  0  0  0  0  0  0
    4.5981    1.2722    0.0000 C   0  0  0  0  0  0  0  0  0  0  0  0
    5.4804   -0.2624    0.0000 C   0  0  0  0  0  0  0  0  0  0  0  0
    5.4920    0.7375    0.0000 C   0  0  0  0  0  0  0  0  0  0  0  0
    4.5981    2.2722    0.0000 C   0  0  0  0  0  0  0  0  0  0  0  0
    6.3406   -0.7724    0.0000 C   0  0  0  0  0  0  0  0  0  0  0  0
    3.7320    0.7722    0.0000 C   0  0  0  0  0  0  0  0  0  0  0  0
    3.7320    2.7722    0.0000 C   0  0  0  0  0  0  0  0  0  0  0  0
    2.8660    1.2722    0.0000 C   0  0  0  0  0  0  0  0  0  0  0  0
    5.4920    2.8068    0.0000 C   0  0  0  0  0  0  0  0  0  0  0  0
    2.8660    2.2722    0.0000 C   0  0  0  0  0  0  0  0  0  0  0  0
    6.3291   -1.7723    0.0000 C   0  0  0  0  0  0  0  0  0  0  0  0
    7.2124   -0.2824    0.0000 C   0  0  0  0  0  0  0  0  0  0  0  0
    6.3981    2.2930    0.0000 C   0  0  0  0  0  0  0  0  0  0  0  0
    7.1893   -2.2823    0.0000 C   0  0  0  0  0  0  0  0  0  0  0  0
    8.0610   -1.7924    0.0000 C   0  0  0  0  0  0  0  0  0  0  0  0
    8.0726   -0.7924    0.0000 C   0  0  0  0  0  0  0  0  0  0  0  0
    2.0000   -0.2278    0.0000 C   0  0  0  0  0  0  0  0  0  0  0  0
    2.0000    3.7722    0.0000 C   0  0  0  0  0  0  0  0  0  0  0  0
    6.3060   -3.7722    0.0000 C   0  0  0  0  0  0  0  0  0  0  0  0
    9.7930   -1.8124    0.0000 C   0  0  0  0  0  0  0  0  0  0  0  0
    4.8712   -0.1477    0.0000 H   0  0  0  0  0  0  0  0  0  0  0  0
    5.2617   -0.8425    0.0000 H   0  0  0  0  0  0  0  0  0  0  0  0
    3.7320    0.1522    0.0000 H   0  0  0  0  0  0  0  0  0  0  0  0
    3.7320    3.3922    0.0000 H   0  0  0  0  0  0  0  0  0  0  0  0
    5.4848    3.4268    0.0000 H   0  0  0  0  0  0  0  0  0  0  0  0
    5.7886   -2.0761    0.0000 H   0  0  0  0  0  0  0  0  0  0  0  0
    7.2196    0.3375    0.0000 H   0  0  0  0  0  0  0  0  0  0  0  0
    6.9338    2.6051    0.0000 H   0  0  0  0  0  0  0  0  0  0  0  0
    8.6131   -0.4886    0.0000 H   0  0  0  0  0  0  0  0  0  0  0  0
    1.3800   -0.2278    0.0000 H   0  0  0  0  0  0  0  0  0  0  0  0
    2.0000   -0.8478    0.0000 H   0  0  0  0  0  0  0  0  0  0  0  0
    2.6200   -0.2278    0.0000 H   0  0  0  0  0  0  0  0  0  0  0  0
    2.6200    3.7722    0.0000 H   0  0  0  0  0  0  0  0  0  0  0  0
    2.0000    4.3922    0.0000 H   0  0  0  0  0  0  0  0  0  0  0  0
    1.3800    3.7722    0.0000 H   0  0  0  0  0  0  0  0  0  0  0  0
    6.0022   -3.2317    0.0000 H   0  0  0  0  0  0  0  0  0  0  0  0
    5.7655   -4.0760    0.0000 H   0  0  0  0  0  0  0  0  0  0  0  0
    6.6097   -4.3127    0.0000 H   0  0  0  0  0  0  0  0  0  0  0  0
   10.0967   -2.3529    0.0000 H   0  0  0  0  0  0  0  0  0  0  0  0
   10.3334   -1.5086    0.0000 H   0  0  0  0  0  0  0  0  0  0  0  0
    9.4892   -1.2719    0.0000 H   0  0  0  0  0  0  0  0  0  0  0  0
  1 13  1  0  0  0  0
  1 22  1  0  0  0  0
  2 15  1  0  0  0  0
  2 23  1  0  0  0  0
  3 19  1  0  0  0  0
  3 24  1  0  0  0  0
  4 20  1  0  0  0  0
  4 25  1  0  0  0  0
  5  8  2  0  0  0  0
  5 18  1  0  0  0  0
  6  8  1  0  0  0  0
  6  9  1  0  0  0  0
  6 11  2  0  0  0  0
  7  8  1  0  0  0  0
  7 10  1  0  0  0  0
  7 26  1  0  0  0  0
  7 27  1  0  0  0  0
  9 12  2  0  0  0  0
  9 14  1  0  0  0  0
 10 16  2  0  0  0  0
 10 17  1  0  0  0  0
 11 13  1  0  0  0  0
 11 28  1  0  0  0  0
 12 15  1  0  0  0  0
 12 29  1  0  0  0  0
 13 15  2  0  0  0  0
 14 18  2  0  0  0  0
 14 30  1  0  0  0  0
 16 19  1  0  0  0  0
 16 31  1  0  0  0  0
 17 21  2  0  0  0  0
 17 32  1  0  0  0  0
 18 33  1  0  0  0  0
 19 20  2  0  0  0  0
 20 21  1  0  0  0  0
 21 34  1  0  0  0  0
 22 35  1  0  0  0  0
 22 36  1  0  0  0  0
 22 37  1  0  0  0  0
 23 38  1  0  0  0  0
 23 39  1  0  0  0  0
 23 40  1  0  0  0  0
 24 41  1  0  0  0  0
 24 42  1  0  0  0  0
 24 43  1  0  0  0  0
 25 44  1  0  0  0  0
 25 45  1  0  0  0  0
 25 46  1  0  0  0  0
M  END
> <PUBCHEM_COMPOUND_CID>
4680

> <PUBCHEM_COMPOUND_CANONICALIZED>
1

> <PUBCHEM_CACTVS_COMPLEXITY>
407

> <PUBCHEM_CACTVS_HBOND_ACCEPTOR>
5

> <PUBCHEM_CACTVS_HBOND_DONOR>
0

> <PUBCHEM_CACTVS_ROTATABLE_BOND>
6

> <PUBCHEM_CACTVS_SUBSKEYS>
AAADceB6OAAAAAAAAAAAAAAAAAAAAAAAAAA8YIAAAAAAAACx9AAAHgAAAAAADAzBngY+htIIFACgAzRnRACCiCAxIiAI2CA+7JgNJuLEsZuEMCpkwBHK6Aew0PMOoAABAAAQQABAAAIAACCAAAAAAAAAAA==

> <PUBCHEM_IUPAC_OPENEYE_NAME>
1-[(3,4-dimethoxyphenyl)methyl]-6,7-dimethoxy-isoquinoline

> <PUBCHEM_IUPAC_CAS_NAME>
1-[(3,4-dimethoxyphenyl)methyl]-6,7-dimethoxyisoquinoline

> <PUBCHEM_IUPAC_NAME>
1-[(3,4-dimethoxyphenyl)methyl]-6,7-dimethoxyisoquinoline

> <PUBCHEM_IUPAC_SYSTEMATIC_NAME>
1-[(3,4-dimethoxyphenyl)methyl]-6,7-dimethoxy-isoquinoline

> <PUBCHEM_IUPAC_TRADITIONAL_NAME>
6,7-dimethoxy-1-veratryl-isoquinoline

> <PUBCHEM_IUPAC_INCHI>
InChI=1S/C20H21NO4/c1-22-17-6-5-13(10-18(17)23-2)9-16-15-12-20(25-4)19(24-3)11-14(15)7-8-21-16/h5-8,10-12H,9H2,1-4H3

> <PUBCHEM_IUPAC_INCHIKEY>
XQYZDYMELSJDRZ-UHFFFAOYSA-N

> <PUBCHEM_XLOGP3_AA>
3.9

> <PUBCHEM_EXACT_MASS>
339.147058

> <PUBCHEM_MOLECULAR_FORMULA>
C20H21NO4

> <PUBCHEM_MOLECULAR_WEIGHT>
339.38504

> <PUBCHEM_OPENEYE_CAN_SMILES>
COC1=C(C=C(C=C1)CC2=NC=CC3=CC(=C(C=C32)OC)OC)OC

> <PUBCHEM_OPENEYE_ISO_SMILES>
COC1=C(C=C(C=C1)CC2=NC=CC3=CC(=C(C=C32)OC)OC)OC

> <PUBCHEM_CACTVS_TPSA>
49.8

> <PUBCHEM_MONOISOTOPIC_WEIGHT>
339.147058

> <PUBCHEM_TOTAL_CHARGE>
0

> <PUBCHEM_HEAVY_ATOM_COUNT>
25

> <PUBCHEM_ATOM_DEF_STEREO_COUNT>
0

> <PUBCHEM_ATOM_UDEF_STEREO_COUNT>
0

> <PUBCHEM_BOND_DEF_STEREO_COUNT>
0

> <PUBCHEM_BOND_UDEF_STEREO_COUNT>
0

> <PUBCHEM_ISOTOPIC_ATOM_COUNT>
0

> <PUBCHEM_COMPONENT_COUNT>
1

> <PUBCHEM_CACTVS_TAUTO_COUNT>
1

> <PUBCHEM_COORDINATE_TYPE>
1
5
255

> <PUBCHEM_BONDANNOTATIONS>
10  16  8
10  17  8
11  13  8
12  15  8
13  15  8
14  18  8
16  19  8
17  21  8
19  20  8
20  21  8
5  18  8
5  8  8
6  11  8
6  8  8
6  9  8
9  12  8
9  14  8

$$$$

