7231
  -OEChem-06261201553D

 29 31  0     0  0  0  0  0  0999 V2000
   -1.7236   -1.7904    0.9100 S   0  0  0  0  0  0  0  0  0  0  0  0
   -0.7954   -2.1323   -0.8899 S   0  0  0  0  0  0  0  0  0  0  0  0
    1.0348    0.1542   -1.6757 S   0  0  0  0  0  0  0  0  0  0  0  0
   -4.6332    1.5128   -0.0698 O   0  0  0  0  0  0  0  0  0  0  0  0
   -2.6055   -0.4460    0.4554 N   0  0  0  0  0  0  0  0  0  0  0  0
    1.4697   -1.4025    0.3343 N   0  0  0  0  0  0  0  0  0  0  0  0
   -3.5746   -0.5911   -0.6457 C   0  0  0  0  0  0  0  0  0  0  0  0
   -3.1900    0.3880    1.5204 C   0  0  0  0  0  0  0  0  0  0  0  0
   -4.0526    0.7706   -1.1397 C   0  0  0  0  0  0  0  0  0  0  0  0
   -3.6777    1.7232    0.9673 C   0  0  0  0  0  0  0  0  0  0  0  0
    2.4516    0.4460   -0.7373 C   0  0  0  0  0  0  0  0  0  0  0  0
    2.5150   -0.4911    0.2983 C   0  0  0  0  0  0  0  0  0  0  0  0
    0.6531   -1.1472   -0.6491 C   0  0  0  0  0  0  0  0  0  0  0  0
    3.4360    1.4331   -0.9055 C   0  0  0  0  0  0  0  0  0  0  0  0
    3.6033   -0.4363    1.1960 C   0  0  0  0  0  0  0  0  0  0  0  0
    4.5024    1.4653   -0.0034 C   0  0  0  0  0  0  0  0  0  0  0  0
    4.5868    0.5437    1.0345 C   0  0  0  0  0  0  0  0  0  0  0  0
   -4.4376   -1.1694   -0.2884 H   0  0  0  0  0  0  0  0  0  0  0  0
   -3.1769   -1.1201   -1.5161 H   0  0  0  0  0  0  0  0  0  0  0  0
   -2.4465    0.5909    2.3010 H   0  0  0  0  0  0  0  0  0  0  0  0
   -4.0272   -0.1466    1.9881 H   0  0  0  0  0  0  0  0  0  0  0  0
   -3.2339    1.3475   -1.5873 H   0  0  0  0  0  0  0  0  0  0  0  0
   -4.8222    0.6390   -1.9072 H   0  0  0  0  0  0  0  0  0  0  0  0
   -4.1675    2.2978    1.7600 H   0  0  0  0  0  0  0  0  0  0  0  0
   -2.8469    2.3286    0.5847 H   0  0  0  0  0  0  0  0  0  0  0  0
    3.3765    2.1559   -1.7134 H   0  0  0  0  0  0  0  0  0  0  0  0
    3.6791   -1.1512    2.0104 H   0  0  0  0  0  0  0  0  0  0  0  0
    5.2751    2.2213   -0.1157 H   0  0  0  0  0  0  0  0  0  0  0  0
    5.4235    0.5842    1.7265 H   0  0  0  0  0  0  0  0  0  0  0  0
  1  2  1  0  0  0  0
  1  5  1  0  0  0  0
  2 13  1  0  0  0  0
  3 11  1  0  0  0  0
  3 13  1  0  0  0  0
  4  9  1  0  0  0  0
  4 10  1  0  0  0  0
  5  7  1  0  0  0  0
  5  8  1  0  0  0  0
  6 12  1  0  0  0  0
  6 13  2  0  0  0  0
  7  9  1  0  0  0  0
  7 18  1  0  0  0  0
  7 19  1  0  0  0  0
  8 10  1  0  0  0  0
  8 20  1  0  0  0  0
  8 21  1  0  0  0  0
  9 22  1  0  0  0  0
  9 23  1  0  0  0  0
 10 24  1  0  0  0  0
 10 25  1  0  0  0  0
 11 12  1  0  0  0  0
 11 14  2  0  0  0  0
 12 15  2  0  0  0  0
 14 16  1  0  0  0  0
 14 26  1  0  0  0  0
 15 17  1  0  0  0  0
 15 27  1  0  0  0  0
 16 17  2  0  0  0  0
 16 28  1  0  0  0  0
 17 29  1  0  0  0  0
M  END
> <PUBCHEM_COMPOUND_CID>
7231

> <PUBCHEM_CONFORMER_RMSD>
0.6

> <PUBCHEM_CONFORMER_DIVERSEORDER>
1
100
73
39
85
89
101
5
78
106
82
10
90
95
107
42
67
96
41
77
92
108
74
22
64
97
84
98
7
6
87
102
60
105
62
2
69
57
109
43
45
59
68
44
19
30
36
72
33
71
46
94
23
21
56
104
3
79
54
40
49
63
103
4
61
20
47
29
91
93
65
76
75
34
86
70
32
52
80
66
88
17
28
31
51
27
14
99
35
38
25
26
58
48
37
16
15
18
81
24
8
83
53
11
12
50
9
55
13

> <PUBCHEM_MMFF94_PARTIAL_CHARGES>
21
1 0.02
10 0.28
11 0.04
12 0.23
13 0.43
14 -0.15
15 -0.15
16 -0.15
17 -0.15
2 -0.06
26 0.15
27 0.15
28 0.15
29 0.15
3 -0.08
4 -0.56
5 -0.56
6 -0.57
7 0.27
8 0.27
9 0.28

> <PUBCHEM_EFFECTIVE_ROTOR_COUNT>
4.2

> <PUBCHEM_PHARMACOPHORE_FEATURES>
5
1 4 acceptor
1 6 acceptor
5 3 6 11 12 13 rings
6 11 12 14 15 16 17 rings
6 4 5 7 8 9 10 rings

> <PUBCHEM_HEAVY_ATOM_COUNT>
17

> <PUBCHEM_ATOM_DEF_STEREO_COUNT>
0

> <PUBCHEM_ATOM_UDEF_STEREO_COUNT>
0

> <PUBCHEM_BOND_DEF_STEREO_COUNT>
0

> <PUBCHEM_BOND_UDEF_STEREO_COUNT>
0

> <PUBCHEM_ISOTOPIC_ATOM_COUNT>
0

> <PUBCHEM_COMPONENT_COUNT>
1

> <PUBCHEM_CACTVS_TAUTO_COUNT>
1

> <PUBCHEM_CONFORMER_ID>
00001C3F00000001

> <PUBCHEM_MMFF94_ENERGY>
19.2825

> <PUBCHEM_FEATURE_SELFOVERLAP>
25.444

> <PUBCHEM_SHAPE_FINGERPRINT>
10465860 228 18412824703203518762
10498660 4 17167861993281594353
10646746 165 18040997302503013106
11046707 91 10447931663540241135
11089746 13 18261122842114809352
11370993 144 16414928533597722404
11543360 7 14345794950284744272
11552529 35 17058359272403084706
11640471 11 18335422391516608991
12596602 18 17704071763770053857
12633257 1 16271917212594711773
12670546 177 13912323460575864896
12788726 201 18122359977379814595
12892183 10 17060333011649050427
13103583 49 13254509924885937741
13583140 156 17775002328256057777
13675066 3 16056884640844312854
14123255 352 18409450280068056737
14123260 362 18259701190306199023
14251758 9 18410292532515026078
14251764 30 7348592059559703653
14576447 43 7637405138092329588
14790565 3 17200780100771981828
14957384 54 18335426712369506672
15188451 53 15051441666818061937
15209294 21 18271249318215133606
15239191 94 10159695781113738473
15537594 2 9223228580963774325
1741750 31 18335416850834756295
17834072 32 18334290950859290105
1813 80 9943520864496635251
18186145 218 17677314108799412327
18915474 69 8430316839992151616
20281475 54 9727632799954167239
20291156 8 9511458918376215403
20739085 24 17346597465896012420
20871999 31 13984662568730499451
21713013 43 5400792852677979109
22646028 28 9583520906049434757
22749437 52 18409724080096516969
22950370 63 9511456758144542815
231179 274 17313384505044111562
23379529 103 9367056805010754440
23402539 116 5617271324889131586
23402655 69 5111746651456513538
23503958 8 12607394495252125013
235170 7 15068621604004470457
23557571 272 17677045720941727479
23559900 14 18261669372329611038
2871803 45 5761649270078342815
3268164 11 17240769441299150495
328317 168 18040439901620905929
341906 21 18187371986900082864
3472631 163 17895473743465197337
351380 180 17918001589687149013
351380 3 9727632830034827461
4028521 119 17095522889838385331
4259306 186 8142083152452439593
474 4 18338515356564637515
4921388 177 14996282488230020983
5924683 9 16845283883675406291
6328613 192 18341043048425147412
7970288 3 10159693590749963969
9981440 41 18407479964169729003

> <PUBCHEM_SHAPE_MULTIPOLES>
345.57
10.11
1.98
1.5
0.33
0.3
-0.04
-6
1.74
1.03
0
0.14
-0.06
-0.53

> <PUBCHEM_SHAPE_SELFOVERLAP>
696.515

> <PUBCHEM_SHAPE_VOLUME>
205.2

> <PUBCHEM_COORDINATE_TYPE>
2
5
10

$$$$

