5460130
  -OEChem-07051212492D

 25 26  0     0  0  0  0  0  0999 V2000
    5.1350   -1.8450    0.0000 Cl  0  0  0  0  0  0  0  0  0  0  0  0
    5.1350    0.1550    0.0000 O   0  0  0  0  0  0  0  0  0  0  0  0
    5.1350    1.1550    0.0000 O   0  0  0  0  0  0  0  0  0  0  0  0
    5.1350    3.1550    0.0000 O   0  0  0  0  0  0  0  0  0  0  0  0
    3.4030    0.1550    0.0000 N   0  0  0  0  0  0  0  0  0  0  0  0
    2.5369   -0.3450    0.0000 N   0  0  0  0  0  0  0  0  0  0  0  0
    3.4030   -2.8450    0.0000 N   0  0  0  0  0  0  0  0  0  0  0  0
    3.4030    1.1550    0.0000 C   0  0  0  0  0  0  0  0  0  0  0  0
    4.2690   -0.3450    0.0000 C   0  0  0  0  0  0  0  0  0  0  0  0
    3.4030   -1.8450    0.0000 C   0  0  0  0  0  0  0  0  0  0  0  0
    4.2690   -1.3450    0.0000 C   0  0  0  0  0  0  0  0  0  0  0  0
    2.5369   -1.3450    0.0000 C   0  0  0  0  0  0  0  0  0  0  0  0
    4.2690    1.6550    0.0000 C   0  0  0  0  0  0  0  0  0  0  0  0
    2.5369    1.6550    0.0000 C   0  0  0  0  0  0  0  0  0  0  0  0
    4.2690    2.6550    0.0000 C   0  0  0  0  0  0  0  0  0  0  0  0
    2.5369    2.6550    0.0000 C   0  0  0  0  0  0  0  0  0  0  0  0
    3.4030    3.1550    0.0000 C   0  0  0  0  0  0  0  0  0  0  0  0
    2.0000   -0.0350    0.0000 H   0  0  0  0  0  0  0  0  0  0  0  0
    2.0000   -1.6550    0.0000 H   0  0  0  0  0  0  0  0  0  0  0  0
    2.0000    1.3450    0.0000 H   0  0  0  0  0  0  0  0  0  0  0  0
    2.0000    2.9650    0.0000 H   0  0  0  0  0  0  0  0  0  0  0  0
    3.4030    3.7750    0.0000 H   0  0  0  0  0  0  0  0  0  0  0  0
    2.8660   -3.1550    0.0000 H   0  0  0  0  0  0  0  0  0  0  0  0
    3.9399   -3.1550    0.0000 H   0  0  0  0  0  0  0  0  0  0  0  0
    5.6719   -0.1550    0.0000 H   0  0  0  0  0  0  0  0  0  0  0  0
  1 11  1  0  0  0  0
  2  9  1  0  0  0  0
  2 25  1  0  0  0  0
  3 13  2  0  0  0  0
  4 15  2  0  0  0  0
  5  6  1  0  0  0  0
  5  8  1  0  0  0  0
  5  9  1  0  0  0  0
  6 12  1  0  0  0  0
  6 18  1  0  0  0  0
  7 10  1  0  0  0  0
  7 23  1  0  0  0  0
  7 24  1  0  0  0  0
  8 13  1  0  0  0  0
  8 14  2  0  0  0  0
  9 11  2  0  0  0  0
 10 11  1  0  0  0  0
 10 12  2  0  0  0  0
 12 19  1  0  0  0  0
 13 15  1  0  0  0  0
 14 16  1  0  0  0  0
 14 20  1  0  0  0  0
 15 17  1  0  0  0  0
 16 17  2  0  0  0  0
 16 21  1  0  0  0  0
 17 22  1  0  0  0  0
M  END
> <PUBCHEM_COMPOUND_CID>
5460130

> <PUBCHEM_COMPOUND_CANONICALIZED>
1

> <PUBCHEM_CACTVS_COMPLEXITY>
531

> <PUBCHEM_CACTVS_HBOND_ACCEPTOR>
6

> <PUBCHEM_CACTVS_HBOND_DONOR>
3

> <PUBCHEM_CACTVS_ROTATABLE_BOND>
1

> <PUBCHEM_CACTVS_SUBSKEYS>
AAADccBzMAAEAAAAAAAAAAAAAAAAAAAAAAAgQAAAAAAAAAAAAAAAHgIYCAAACA7BgAQAAAJiAgCIAKRWQACAAAAgIgAYKIGAAEgIAAgAgSAEAAAAgAAIgYIAAAAAAAAAAAAAAAAAAAAAAAAAAAAAAAAAAA==

> <PUBCHEM_IUPAC_OPENEYE_NAME>
3-(5-amino-4-chloro-3-hydroxy-1H-pyridazin-2-yl)-1,2-benzoquinone

> <PUBCHEM_IUPAC_CAS_NAME>
3-(5-amino-4-chloro-3-hydroxy-1H-pyridazin-2-yl)cyclohexa-3,5-diene-1,2-dione

> <PUBCHEM_IUPAC_NAME>
3-(5-amino-4-chloro-3-hydroxy-1H-pyridazin-2-yl)cyclohexa-3,5-diene-1,2-dione

> <PUBCHEM_IUPAC_SYSTEMATIC_NAME>
3-(5-azanyl-4-chloranyl-3-oxidanyl-1H-pyridazin-2-yl)cyclohexa-3,5-diene-1,2-dione

> <PUBCHEM_IUPAC_TRADITIONAL_NAME>
3-(5-amino-4-chloro-3-hydroxy-1H-pyridazin-2-yl)-o-benzoquinone

> <PUBCHEM_IUPAC_INCHI>
InChI=1S/C10H8ClN3O3/c11-8-5(12)4-13-14(10(8)17)6-2-1-3-7(15)9(6)16/h1-4,13,17H,12H2

> <PUBCHEM_IUPAC_INCHIKEY>
FEJSPYHSYAVCGK-UHFFFAOYSA-N

> <PUBCHEM_XLOGP3_AA>
1.5

> <PUBCHEM_EXACT_MASS>
253.025419

> <PUBCHEM_MOLECULAR_FORMULA>
C10H8ClN3O3

> <PUBCHEM_MOLECULAR_WEIGHT>
253.64182

> <PUBCHEM_OPENEYE_CAN_SMILES>
C1=CC(=O)C(=O)C(=C1)N2C(=C(C(=CN2)N)Cl)O

> <PUBCHEM_OPENEYE_ISO_SMILES>
C1=CC(=O)C(=O)C(=C1)N2C(=C(C(=CN2)N)Cl)O

> <PUBCHEM_CACTVS_TPSA>
95.7

> <PUBCHEM_MONOISOTOPIC_WEIGHT>
253.025419

> <PUBCHEM_TOTAL_CHARGE>
0

> <PUBCHEM_HEAVY_ATOM_COUNT>
17

> <PUBCHEM_ATOM_DEF_STEREO_COUNT>
0

> <PUBCHEM_ATOM_UDEF_STEREO_COUNT>
0

> <PUBCHEM_BOND_DEF_STEREO_COUNT>
0

> <PUBCHEM_BOND_UDEF_STEREO_COUNT>
0

> <PUBCHEM_ISOTOPIC_ATOM_COUNT>
0

> <PUBCHEM_COMPONENT_COUNT>
1

> <PUBCHEM_CACTVS_TAUTO_COUNT>
5

> <PUBCHEM_COORDINATE_TYPE>
1
5
255

> <PUBCHEM_BONDANNOTATIONS>
10  11  8
10  12  8
13  15  8
14  16  8
15  17  8
16  17  8
5  6  8
5  9  8
6  12  8
8  13  8
8  14  8
9  11  8

$$$$

