17395471
  -OEChem-06241222503D

 36 37  0     0  0  0  0  0  0999 V2000
   -0.2525    2.0778    0.7122 O   0  0  0  0  0  0  0  0  0  0  0  0
   -5.6201   -1.2626    0.1396 O   0  0  0  0  0  0  0  0  0  0  0  0
    0.3699    0.5822   -0.9303 N   0  0  0  0  0  0  0  0  0  0  0  0
    2.6558    0.3272   -0.1183 C   0  0  0  0  0  0  0  0  0  0  0  0
    2.6545   -1.1790   -0.4123 C   0  0  0  0  0  0  0  0  0  0  0  0
    4.0757    0.9015   -0.2145 C   0  0  0  0  0  0  0  0  0  0  0  0
    3.6322   -1.9300    0.4886 C   0  0  0  0  0  0  0  0  0  0  0  0
    5.0512    0.1468    0.6859 C   0  0  0  0  0  0  0  0  0  0  0  0
    5.0406   -1.3509    0.3968 C   0  0  0  0  0  0  0  0  0  0  0  0
    1.7110    1.0628   -1.0668 C   0  0  0  0  0  0  0  0  0  0  0  0
   -0.5408    1.1375   -0.0273 C   0  0  0  0  0  0  0  0  0  0  0  0
   -1.8690    0.5102    0.0162 C   0  0  0  0  0  0  0  0  0  0  0  0
   -2.6295    0.5677    1.1842 C   0  0  0  0  0  0  0  0  0  0  0  0
   -2.3691   -0.1431   -1.1102 C   0  0  0  0  0  0  0  0  0  0  0  0
   -3.8900   -0.0280    1.2256 C   0  0  0  0  0  0  0  0  0  0  0  0
   -3.6296   -0.7389   -1.0687 C   0  0  0  0  0  0  0  0  0  0  0  0
   -4.3901   -0.6813    0.0991 C   0  0  0  0  0  0  0  0  0  0  0  0
    2.3001    0.4705    0.9118 H   0  0  0  0  0  0  0  0  0  0  0  0
    2.9232   -1.3559   -1.4617 H   0  0  0  0  0  0  0  0  0  0  0  0
    1.6553   -1.6041   -0.2634 H   0  0  0  0  0  0  0  0  0  0  0  0
    4.0704    1.9612    0.0674 H   0  0  0  0  0  0  0  0  0  0  0  0
    4.4294    0.8503   -1.2523 H   0  0  0  0  0  0  0  0  0  0  0  0
    3.6510   -2.9896    0.2094 H   0  0  0  0  0  0  0  0  0  0  0  0
    3.2834   -1.8796    1.5276 H   0  0  0  0  0  0  0  0  0  0  0  0
    4.7848    0.3180    1.7362 H   0  0  0  0  0  0  0  0  0  0  0  0
    6.0636    0.5421    0.5449 H   0  0  0  0  0  0  0  0  0  0  0  0
    5.6989   -1.8680    1.1039 H   0  0  0  0  0  0  0  0  0  0  0  0
    5.4445   -1.5316   -0.6070 H   0  0  0  0  0  0  0  0  0  0  0  0
    2.0077    0.9123   -2.1108 H   0  0  0  0  0  0  0  0  0  0  0  0
    1.7315    2.1400   -0.8665 H   0  0  0  0  0  0  0  0  0  0  0  0
    0.1191   -0.2314   -1.4816 H   0  0  0  0  0  0  0  0  0  0  0  0
   -2.2551    1.0686    2.0732 H   0  0  0  0  0  0  0  0  0  0  0  0
   -1.8267   -0.1835   -2.0500 H   0  0  0  0  0  0  0  0  0  0  0  0
   -4.4723    0.0229    2.1417 H   0  0  0  0  0  0  0  0  0  0  0  0
   -4.0174   -1.2403   -1.9514 H   0  0  0  0  0  0  0  0  0  0  0  0
   -6.0041   -1.1263    1.0229 H   0  0  0  0  0  0  0  0  0  0  0  0
  1 11  2  0  0  0  0
  2 17  1  0  0  0  0
  2 36  1  0  0  0  0
  3 10  1  0  0  0  0
  3 11  1  0  0  0  0
  3 31  1  0  0  0  0
  4  5  1  0  0  0  0
  4  6  1  0  0  0  0
  4 10  1  0  0  0  0
  4 18  1  0  0  0  0
  5  7  1  0  0  0  0
  5 19  1  0  0  0  0
  5 20  1  0  0  0  0
  6  8  1  0  0  0  0
  6 21  1  0  0  0  0
  6 22  1  0  0  0  0
  7  9  1  0  0  0  0
  7 23  1  0  0  0  0
  7 24  1  0  0  0  0
  8  9  1  0  0  0  0
  8 25  1  0  0  0  0
  8 26  1  0  0  0  0
  9 27  1  0  0  0  0
  9 28  1  0  0  0  0
 10 29  1  0  0  0  0
 10 30  1  0  0  0  0
 11 12  1  0  0  0  0
 12 13  2  0  0  0  0
 12 14  1  0  0  0  0
 13 15  1  0  0  0  0
 13 32  1  0  0  0  0
 14 16  2  0  0  0  0
 14 33  1  0  0  0  0
 15 17  2  0  0  0  0
 15 34  1  0  0  0  0
 16 17  1  0  0  0  0
 16 35  1  0  0  0  0
M  END
> <PUBCHEM_COMPOUND_CID>
17395471

> <PUBCHEM_CONFORMER_RMSD>
0.6

> <PUBCHEM_CONFORMER_DIVERSEORDER>
1
47
7
20
41
34
42
17
40
16
50
36
48
37
43
46
18
49
33
39
32
35
24
44
22
9
23
14
6
13
38
26
31
2
11
25
15
29
10
30
5
4
3
8
21
45
28
12
27
19

> <PUBCHEM_MMFF94_PARTIAL_CHARGES>
17
1 -0.57
10 0.3
11 0.54
12 0.09
13 -0.15
14 -0.15
15 -0.15
16 -0.15
17 0.08
2 -0.53
3 -0.73
31 0.37
32 0.15
33 0.15
34 0.15
35 0.15
36 0.45

> <PUBCHEM_EFFECTIVE_ROTOR_COUNT>
5.2

> <PUBCHEM_PHARMACOPHORE_FEATURES>
5
1 1 acceptor
1 2 donor
1 3 donor
6 12 13 14 15 16 17 rings
6 4 5 6 7 8 9 rings

> <PUBCHEM_HEAVY_ATOM_COUNT>
17

> <PUBCHEM_ATOM_DEF_STEREO_COUNT>
0

> <PUBCHEM_ATOM_UDEF_STEREO_COUNT>
0

> <PUBCHEM_BOND_DEF_STEREO_COUNT>
0

> <PUBCHEM_BOND_UDEF_STEREO_COUNT>
0

> <PUBCHEM_ISOTOPIC_ATOM_COUNT>
0

> <PUBCHEM_COMPONENT_COUNT>
1

> <PUBCHEM_CACTVS_TAUTO_COUNT>
5

> <PUBCHEM_CONFORMER_ID>
01096F0F00000001

> <PUBCHEM_MMFF94_ENERGY>
28.5392

> <PUBCHEM_FEATURE_SELFOVERLAP>
25.371

> <PUBCHEM_SHAPE_FINGERPRINT>
100836 57 6411291347631920002
10366900 7 18411129213429213200
10447042 23 18411708677025342510
12236239 1 18260546714864042279
12251169 10 17095243609458328037
12363563 72 17489580199501923972
12596602 18 17749107781492247474
12633257 1 16153717500389638355
13167823 11 18408041831574450754
13533116 47 18410855425773750344
13544653 18 18343863333582152652
1420 369 18412260662011743774
14251764 18 18334852819446024465
14252887 29 18336261332110906406
14341114 176 16370720435636777826
14341114 328 17385724677707011930
14386348 63 17489586761948214514
146900 427 18041564620723414208
14848160 23 17561370586666012178
15342168 16 8214140763738659267
15375462 189 18260550008919497888
15880784 105 18186517730858707082
17834072 14 17632297895471970900
17834072 8 9583520949663674712
17870717 6 15769771385934282275
1798214 20 17704076213340243882
1813 80 18339910589127493092
18186145 218 15051726486793794933
19050596 39 18040716982856680776
193927 3 18130495418473509754
19784866 240 18272646853244410639
200 152 18342460347917682077
20279233 1 17203888561159517464
20325693 3 13973963212474689953
20374829 77 16773800290119628367
20432913 95 18342736325404812690
20645477 56 5039951836434175109
20645477 70 17775567507524241940
20671657 53 17703785929327788468
20871999 31 14620511254900080614
21065198 48 18260543459252601280
212847 35 7132436818054906606
21652331 79 7204778081080785675
22079108 93 5761644902223346621
22646028 1 18411417319339277044
22646028 28 18411418423003557726
231179 274 6771866264517890564
23402539 116 18341334469586019568
23559900 14 14907891627207192860
25 1 7492999670415004252
26918003 58 18272652354717598168
2871803 45 17560803268672893514
32948 21 13830138290704140220
351380 3 18410292527740082438
449060 50 14707201119605409981
4990 188 16200154270414056893
5104073 3 18262527017189718576
573450 72 18040431114175873225
90316 7 18041268980454236705
9882013 296 17822012025416571646

> <PUBCHEM_SHAPE_MULTIPOLES>
333.13
11.98
1.61
1.13
0.57
0.12
0
5.39
-2.02
1.01
-0.13
-0.68
-0.09
-0.62

> <PUBCHEM_SHAPE_SELFOVERLAP>
690.56

> <PUBCHEM_SHAPE_VOLUME>
188.5

> <PUBCHEM_COORDINATE_TYPE>
2
5
10

$$$$

