17396417
  -OEChem-06241222563D

 45 47  0     0  0  0  0  0  0999 V2000
    0.9985   -3.4962   -0.3631 S   0  0  0  0  0  0  0  0  0  0  0  0
    5.1595   -0.5374    0.2871 O   0  0  0  0  0  0  0  0  0  0  0  0
    4.4380    2.1220   -0.0779 O   0  0  0  0  0  0  0  0  0  0  0  0
   -3.9494   -1.4015   -1.3082 O   0  0  0  0  0  0  0  0  0  0  0  0
   -3.6941   -0.6924    0.8883 N   0  0  0  0  0  0  0  0  0  0  0  0
   -0.7585   -1.6691    0.1441 N   0  0  0  0  0  0  0  0  0  0  0  0
   -1.4723    3.6334   -0.3559 N   0  0  0  0  0  0  0  0  0  0  0  0
   -2.8837   -2.8898    0.2793 C   0  0  0  0  0  0  0  0  0  0  0  0
   -1.4221   -2.8783    0.0709 C   0  0  0  0  0  0  0  0  0  0  0  0
    1.5347   -0.8463   -0.0707 C   0  0  0  0  0  0  0  0  0  0  0  0
    0.5225   -1.8740   -0.0686 C   0  0  0  0  0  0  0  0  0  0  0  0
   -4.3157    0.6030    0.7366 C   0  0  0  0  0  0  0  0  0  0  0  0
   -3.5623   -1.5945   -0.1584 C   0  0  0  0  0  0  0  0  0  0  0  0
    2.8751   -1.1866    0.1109 C   0  0  0  0  0  0  0  0  0  0  0  0
    1.1727    0.4884   -0.2541 C   0  0  0  0  0  0  0  0  0  0  0  0
   -0.6379   -3.9811   -0.1955 C   0  0  0  0  0  0  0  0  0  0  0  0
    3.8536   -0.1926    0.1089 C   0  0  0  0  0  0  0  0  0  0  0  0
   -3.3221    1.6618    0.3548 C   0  0  0  0  0  0  0  0  0  0  0  0
    3.4917    1.1419   -0.0744 C   0  0  0  0  0  0  0  0  0  0  0  0
    2.1513    1.4824   -0.2557 C   0  0  0  0  0  0  0  0  0  0  0  0
   -2.6608    2.3862    1.3404 C   0  0  0  0  0  0  0  0  0  0  0  0
   -3.0598    1.9221   -0.9856 C   0  0  0  0  0  0  0  0  0  0  0  0
   -1.7535    3.3524    0.9364 C   0  0  0  0  0  0  0  0  0  0  0  0
   -2.1347    2.9090   -1.2856 C   0  0  0  0  0  0  0  0  0  0  0  0
    5.4451   -1.9231    0.4676 C   0  0  0  0  0  0  0  0  0  0  0  0
    3.9843    3.4602   -0.2716 C   0  0  0  0  0  0  0  0  0  0  0  0
   -3.1026   -3.0833    1.3361 H   0  0  0  0  0  0  0  0  0  0  0  0
   -3.3486   -3.7044   -0.2896 H   0  0  0  0  0  0  0  0  0  0  0  0
   -5.1129    0.5401   -0.0136 H   0  0  0  0  0  0  0  0  0  0  0  0
   -4.7951    0.8518    1.6903 H   0  0  0  0  0  0  0  0  0  0  0  0
    3.1438   -2.2182    0.2906 H   0  0  0  0  0  0  0  0  0  0  0  0
   -3.3185   -0.9303    1.8017 H   0  0  0  0  0  0  0  0  0  0  0  0
    0.1347    0.7753   -0.4007 H   0  0  0  0  0  0  0  0  0  0  0  0
   -0.9345   -5.0155   -0.2967 H   0  0  0  0  0  0  0  0  0  0  0  0
    1.7967    2.4965   -0.4042 H   0  0  0  0  0  0  0  0  0  0  0  0
   -2.8397    2.2077    2.3951 H   0  0  0  0  0  0  0  0  0  0  0  0
   -3.5578    1.3791   -1.7812 H   0  0  0  0  0  0  0  0  0  0  0  0
   -1.2102    3.9439    1.6659 H   0  0  0  0  0  0  0  0  0  0  0  0
   -1.8941    3.1501   -2.3157 H   0  0  0  0  0  0  0  0  0  0  0  0
    4.9976   -2.3121    1.3887 H   0  0  0  0  0  0  0  0  0  0  0  0
    5.1738   -2.5123   -0.4152 H   0  0  0  0  0  0  0  0  0  0  0  0
    6.5304   -2.0134    0.5837 H   0  0  0  0  0  0  0  0  0  0  0  0
    4.8676    4.1069   -0.2458 H   0  0  0  0  0  0  0  0  0  0  0  0
    3.3282    3.7859    0.5428 H   0  0  0  0  0  0  0  0  0  0  0  0
    3.5230    3.5915   -1.2564 H   0  0  0  0  0  0  0  0  0  0  0  0
  1 11  1  0  0  0  0
  1 16  1  0  0  0  0
  2 17  1  0  0  0  0
  2 25  1  0  0  0  0
  3 19  1  0  0  0  0
  3 26  1  0  0  0  0
  4 13  2  0  0  0  0
  5 12  1  0  0  0  0
  5 13  1  0  0  0  0
  5 32  1  0  0  0  0
  6  9  1  0  0  0  0
  6 11  2  0  0  0  0
  7 23  2  0  0  0  0
  7 24  1  0  0  0  0
  8  9  1  0  0  0  0
  8 13  1  0  0  0  0
  8 27  1  0  0  0  0
  8 28  1  0  0  0  0
  9 16  2  0  0  0  0
 10 11  1  0  0  0  0
 10 14  2  0  0  0  0
 10 15  1  0  0  0  0
 12 18  1  0  0  0  0
 12 29  1  0  0  0  0
 12 30  1  0  0  0  0
 14 17  1  0  0  0  0
 14 31  1  0  0  0  0
 15 20  2  0  0  0  0
 15 33  1  0  0  0  0
 16 34  1  0  0  0  0
 17 19  2  0  0  0  0
 18 21  2  0  0  0  0
 18 22  1  0  0  0  0
 19 20  1  0  0  0  0
 20 35  1  0  0  0  0
 21 23  1  0  0  0  0
 21 36  1  0  0  0  0
 22 24  2  0  0  0  0
 22 37  1  0  0  0  0
 23 38  1  0  0  0  0
 24 39  1  0  0  0  0
 25 40  1  0  0  0  0
 25 41  1  0  0  0  0
 25 42  1  0  0  0  0
 26 43  1  0  0  0  0
 26 44  1  0  0  0  0
 26 45  1  0  0  0  0
M  END
> <PUBCHEM_COMPOUND_CID>
17396417

> <PUBCHEM_CONFORMER_RMSD>
1

> <PUBCHEM_CONFORMER_DIVERSEORDER>
1
51
34
107
125
89
40
27
39
16
102
128
115
85
103
127
47
44
82
70
49
118
116
95
117
75
8
111
112
79
99
48
114
9
60
21
87
108
119
113
17
126
36
76
93
19
97
29
100
66
62
68
4
81
56
109
71
74
65
122
58
45
7
61
90
67
121
98
63
124
54
105
106
73
96
94
10
120
46
18
6
110
3
13
55
12
5
104
92
11
80
2
42
14
101
26
53
123
88
24
31
84
38
20
15
28
72
86
32
83
23
41
43
64
25
30
52
77
91
33
35
50
22
78
57
59
69
37

> <PUBCHEM_MMFF94_PARTIAL_CHARGES>
35
1 -0.08
10 0.05
11 0.33
12 0.44
13 0.57
14 -0.15
15 -0.15
16 -0.11
17 0.08
18 -0.14
19 0.08
2 -0.36
20 -0.15
21 -0.15
22 -0.15
23 0.16
24 0.16
25 0.28
26 0.28
3 -0.36
31 0.15
32 0.37
33 0.15
34 0.15
35 0.15
36 0.15
37 0.15
38 0.15
39 0.15
4 -0.57
5 -0.73
6 -0.57
7 -0.62
8 0.24
9 0.05

> <PUBCHEM_EFFECTIVE_ROTOR_COUNT>
8

> <PUBCHEM_PHARMACOPHORE_FEATURES>
9
1 2 acceptor
1 3 acceptor
1 4 acceptor
1 5 donor
1 6 acceptor
1 7 acceptor
5 1 6 9 11 16 rings
6 10 14 15 17 19 20 rings
6 7 18 21 22 23 24 rings

> <PUBCHEM_HEAVY_ATOM_COUNT>
26

> <PUBCHEM_ATOM_DEF_STEREO_COUNT>
0

> <PUBCHEM_ATOM_UDEF_STEREO_COUNT>
0

> <PUBCHEM_BOND_DEF_STEREO_COUNT>
0

> <PUBCHEM_BOND_UDEF_STEREO_COUNT>
0

> <PUBCHEM_ISOTOPIC_ATOM_COUNT>
0

> <PUBCHEM_COMPONENT_COUNT>
1

> <PUBCHEM_CACTVS_TAUTO_COUNT>
2

> <PUBCHEM_CONFORMER_ID>
010972C100000001

> <PUBCHEM_MMFF94_ENERGY>
76.9101

> <PUBCHEM_FEATURE_SELFOVERLAP>
45.673

> <PUBCHEM_SHAPE_FINGERPRINT>
10670039 82 18268414760191026076
11370993 70 18196094558688214705
11513181 2 18115296787670084990
12166972 35 17987803986777370935
12403260 363 18408892827768057606
12978246 48 18339641255943881832
13122387 1 17762335121317740881
13140716 1 18340761538171196843
13583140 156 17632007679915099008
13773456 30 17766293345935250685
138480 1 16897645186852957931
14117953 113 18268991063103247325
14251751 93 18340207508753514386
14251757 17 17752750596680316854
14466204 15 18267871764713982778
14765038 42 17972290981183860785
15021287 119 17274532248449480518
15256400 18 18410011070032905226
16120349 21 17907870848975327666
17818456 19 18411419488651546626
19591789 44 18339642347371924964
19930381 70 17475231779298270009
20101258 96 17332233200461043474
20775438 99 16530086691962740463
21236236 1 18410015468089894390
21623110 236 18337666421914011889
238 59 16976204150597309749
350125 39 18411415120600968456
6287921 2 18268409399623499509
6371009 1 18337969968321032970

> <PUBCHEM_SHAPE_MULTIPOLES>
506.37
9.73
5.64
0.95
7.4
0.03
0.04
-2.33
-0.98
-1.44
0.4
-0.85
-0.43
-0.53

> <PUBCHEM_SHAPE_SELFOVERLAP>
1074.347

> <PUBCHEM_SHAPE_VOLUME>
285.6

> <PUBCHEM_COORDINATE_TYPE>
2
5
10

$$$$

