7417
  -OEChem-06261202043D

 19 19  0     0  0  0  0  0  0999 V2000
    2.3395    1.5407   -0.0004 O   0  0  0  0  0  0  0  0  0  0  0  0
   -2.7917    1.4914    0.0001 N   0  0  0  0  0  0  0  0  0  0  0  0
    0.5764   -0.0534    0.0000 C   0  0  0  0  0  0  0  0  0  0  0  0
   -0.4325    0.9098    0.0001 C   0  0  0  0  0  0  0  0  0  0  0  0
   -1.7711    0.5177    0.0001 C   0  0  0  0  0  0  0  0  0  0  0  0
    0.2468   -1.4088   -0.0002 C   0  0  0  0  0  0  0  0  0  0  0  0
   -2.1008   -0.8377    0.0000 C   0  0  0  0  0  0  0  0  0  0  0  0
    1.9724    0.3546    0.0002 C   0  0  0  0  0  0  0  0  0  0  0  0
   -1.0919   -1.8009   -0.0001 C   0  0  0  0  0  0  0  0  0  0  0  0
    3.0527   -0.7134    0.0003 C   0  0  0  0  0  0  0  0  0  0  0  0
   -0.1853    1.9691    0.0002 H   0  0  0  0  0  0  0  0  0  0  0  0
    0.9960   -2.1939   -0.0003 H   0  0  0  0  0  0  0  0  0  0  0  0
   -3.1402   -1.1560    0.0000 H   0  0  0  0  0  0  0  0  0  0  0  0
   -1.3492   -2.8562   -0.0003 H   0  0  0  0  0  0  0  0  0  0  0  0
    2.9838   -1.3262    0.9030 H   0  0  0  0  0  0  0  0  0  0  0  0
    4.0352   -0.2298    0.0007 H   0  0  0  0  0  0  0  0  0  0  0  0
    2.9842   -1.3258   -0.9028 H   0  0  0  0  0  0  0  0  0  0  0  0
   -2.5538    2.4744    0.0008 H   0  0  0  0  0  0  0  0  0  0  0  0
   -3.7622    1.2072    0.0007 H   0  0  0  0  0  0  0  0  0  0  0  0
  1  8  2  0  0  0  0
  2  5  1  0  0  0  0
  2 18  1  0  0  0  0
  2 19  1  0  0  0  0
  3  4  2  0  0  0  0
  3  6  1  0  0  0  0
  3  8  1  0  0  0  0
  4  5  1  0  0  0  0
  4 11  1  0  0  0  0
  5  7  2  0  0  0  0
  6  9  2  0  0  0  0
  6 12  1  0  0  0  0
  7  9  1  0  0  0  0
  7 13  1  0  0  0  0
  8 10  1  0  0  0  0
  9 14  1  0  0  0  0
 10 15  1  0  0  0  0
 10 16  1  0  0  0  0
 10 17  1  0  0  0  0
M  END
> <PUBCHEM_COMPOUND_CID>
7417

> <PUBCHEM_CONFORMER_RMSD>
0.4

> <PUBCHEM_CONFORMER_DIVERSEORDER>
1
3
2
4

> <PUBCHEM_MMFF94_PARTIAL_CHARGES>
16
1 -0.57
10 0.06
11 0.15
12 0.15
13 0.15
14 0.15
18 0.4
19 0.4
2 -0.9
3 0.09
4 -0.15
5 0.1
6 -0.15
7 -0.15
8 0.42
9 -0.15

> <PUBCHEM_EFFECTIVE_ROTOR_COUNT>
1

> <PUBCHEM_PHARMACOPHORE_FEATURES>
4
1 1 acceptor
1 2 cation
1 2 donor
6 3 4 5 6 7 9 rings

> <PUBCHEM_HEAVY_ATOM_COUNT>
10

> <PUBCHEM_ATOM_DEF_STEREO_COUNT>
0

> <PUBCHEM_ATOM_UDEF_STEREO_COUNT>
0

> <PUBCHEM_BOND_DEF_STEREO_COUNT>
0

> <PUBCHEM_BOND_UDEF_STEREO_COUNT>
0

> <PUBCHEM_ISOTOPIC_ATOM_COUNT>
0

> <PUBCHEM_COMPONENT_COUNT>
1

> <PUBCHEM_CACTVS_TAUTO_COUNT>
2

> <PUBCHEM_CONFORMER_ID>
00001CF900000001

> <PUBCHEM_MMFF94_ENERGY>
36.3917

> <PUBCHEM_FEATURE_SELFOVERLAP>
20.297

> <PUBCHEM_SHAPE_FINGERPRINT>
12716758 59 18408608041239257890
12932764 1 17604709946034661462
13380535 76 18338238283792372127
14325111 11 18410575084726544832
15775835 57 18272645787923664076
16945 1 18338517563645012678
193761 8 14591521058981217606
19973954 147 18338796702375824628
20653085 51 18411971473073101696
20871998 184 18116707409517511607
21040471 1 18410574006731828131
23235685 24 18337397161391267473
23402655 69 18048614895750640477
23552423 10 18200313217305437518
241688 4 16391270642819894875
2748010 2 18410573950823361422
369184 2 18334576789448634490
5084963 1 18260267434293925098

> <PUBCHEM_SHAPE_MULTIPOLES>
194.94
4.01
1.76
0.6
1.34
0.16
0
-0.83
0
-0.45
0
0
0.03
0

> <PUBCHEM_SHAPE_SELFOVERLAP>
405.223

> <PUBCHEM_SHAPE_VOLUME>
111.9

> <PUBCHEM_COORDINATE_TYPE>
2
5
10

$$$$

