3035008
  -OEChem-07051213152D

 39 43  0     1  0  0  0  0  0999 V2000
    3.3757   -0.4776    0.0000 O   0  0  0  0  0  0  0  0  0  0  0  0
    4.8986   -1.5894    0.0000 O   0  0  0  0  0  0  0  0  0  0  0  0
    4.6216    1.7694    0.0000 O   0  0  0  0  0  0  0  0  0  0  0  0
    6.6948    1.2569    0.0000 O   0  0  0  0  0  0  0  0  0  0  0  0
    2.5662    1.0976    0.0000 O   0  0  0  0  0  0  0  0  0  0  0  0
    8.4429   -1.7846    0.0000 O   0  0  0  0  0  0  0  0  0  0  0  0
    9.8009    2.5217    0.0000 O   0  0  0  0  0  0  0  0  0  0  0  0
    7.5890    2.7846    0.0000 O   0  0  0  0  0  0  0  0  0  0  0  0
    4.8986    0.0201    0.0000 C   0  0  1  0  0  0  0  0  0  0  0  0
    4.3150   -0.7846    0.0000 C   0  0  2  0  0  0  0  0  0  0  0  0
    4.3150    0.8176    0.0000 C   0  0  2  0  0  0  0  0  0  0  0  0
    5.8448   -0.2846    0.0000 C   0  0  0  0  0  0  0  0  0  0  0  0
    3.3757    0.5106    0.0000 C   0  0  1  0  0  0  0  0  0  0  0  0
    5.8448   -1.2846    0.0000 C   0  0  0  0  0  0  0  0  0  0  0  0
    6.7109    0.2154    0.0000 C   0  0  0  0  0  0  0  0  0  0  0  0
    7.5769   -0.2846    0.0000 C   0  0  0  0  0  0  0  0  0  0  0  0
    8.4869    0.2222    0.0000 C   0  0  0  0  0  0  0  0  0  0  0  0
    6.7109   -1.7846    0.0000 C   0  0  0  0  0  0  0  0  0  0  0  0
    7.5769   -1.2846    0.0000 C   0  0  0  0  0  0  0  0  0  0  0  0
    9.4700   -0.1028    0.0000 C   0  0  0  0  0  0  0  0  0  0  0  0
    8.4949    1.2638    0.0000 C   0  0  0  0  0  0  0  0  0  0  0  0
   10.0844    0.7307    0.0000 C   0  0  0  0  0  0  0  0  0  0  0  0
    9.4829    1.5736    0.0000 C   0  0  0  0  0  0  0  0  0  0  0  0
    7.5928    1.7846    0.0000 C   0  0  0  0  0  0  0  0  0  0  0  0
    8.4429   -2.7846    0.0000 C   0  0  0  0  0  0  0  0  0  0  0  0
    5.3961    0.7093    0.0000 H   0  0  0  0  0  0  0  0  0  0  0  0
    3.8145   -1.4716    0.0000 H   0  0  0  0  0  0  0  0  0  0  0  0
    4.9271    0.9164    0.0000 H   0  0  0  0  0  0  0  0  0  0  0  0
    3.4719    1.1231    0.0000 H   0  0  0  0  0  0  0  0  0  0  0  0
    6.7109   -2.4046    0.0000 H   0  0  0  0  0  0  0  0  0  0  0  0
    9.2146   -0.6677    0.0000 H   0  0  0  0  0  0  0  0  0  0  0  0
   10.0050   -0.4161    0.0000 H   0  0  0  0  0  0  0  0  0  0  0  0
    4.2055    2.2291    0.0000 H   0  0  0  0  0  0  0  0  0  0  0  0
   10.5420    0.3125    0.0000 H   0  0  0  0  0  0  0  0  0  0  0  0
   10.5484    1.1419    0.0000 H   0  0  0  0  0  0  0  0  0  0  0  0
    2.0000    0.8450    0.0000 H   0  0  0  0  0  0  0  0  0  0  0  0
    7.8229   -2.7846    0.0000 H   0  0  0  0  0  0  0  0  0  0  0  0
    8.4429   -3.4046    0.0000 H   0  0  0  0  0  0  0  0  0  0  0  0
    9.0629   -2.7846    0.0000 H   0  0  0  0  0  0  0  0  0  0  0  0
  1 10  1  0  0  0  0
  1 13  1  0  0  0  0
  2 10  1  0  0  0  0
  2 14  1  0  0  0  0
 11  3  1  6  0  0  0
  3 33  1  0  0  0  0
  4 15  1  0  0  0  0
  4 24  1  0  0  0  0
 13  5  1  1  0  0  0
  5 36  1  0  0  0  0
  6 19  1  0  0  0  0
  6 25  1  0  0  0  0
  7 23  2  0  0  0  0
  8 24  2  0  0  0  0
  9 10  1  0  0  0  0
  9 11  1  0  0  0  0
  9 12  1  0  0  0  0
  9 26  1  6  0  0  0
 10 27  1  6  0  0  0
 11 13  1  0  0  0  0
 11 28  1  0  0  0  0
 12 14  1  0  0  0  0
 12 15  2  0  0  0  0
 13 29  1  0  0  0  0
 14 18  2  0  0  0  0
 15 16  1  0  0  0  0
 16 17  1  0  0  0  0
 16 19  2  0  0  0  0
 17 20  1  0  0  0  0
 17 21  2  0  0  0  0
 18 19  1  0  0  0  0
 18 30  1  0  0  0  0
 20 22  1  0  0  0  0
 20 31  1  0  0  0  0
 20 32  1  0  0  0  0
 21 23  1  0  0  0  0
 21 24  1  0  0  0  0
 22 23  1  0  0  0  0
 22 34  1  0  0  0  0
 22 35  1  0  0  0  0
 25 37  1  0  0  0  0
 25 38  1  0  0  0  0
 25 39  1  0  0  0  0
M  END
> <PUBCHEM_COMPOUND_CID>
3035008

> <PUBCHEM_COMPOUND_CANONICALIZED>
1

> <PUBCHEM_CACTVS_COMPLEXITY>
672

> <PUBCHEM_CACTVS_HBOND_ACCEPTOR>
8

> <PUBCHEM_CACTVS_HBOND_DONOR>
2

> <PUBCHEM_CACTVS_ROTATABLE_BOND>
1

> <PUBCHEM_CACTVS_SUBSKEYS>
AAADccB4PAAAAAAAAAAAAAAAAAAAASJEAAAwQAAAAAASAEiBAAAAGgAACAAADRSwmAMyDoAABgCIAqDSCAACCAAgIAAAiAEGCMgdNzaMMBqieiCl4BUPqQfI6PyOoAACCAAIAABAAAQQABAAAAAAAAAAAA==

> <PUBCHEM_IUPAC_INCHI>
InChI=1S/C17H14O8/c1-22-7-4-8-11(12-13(19)16(21)25-17(12)23-8)14-10(7)5-2-3-6(18)9(5)15(20)24-14/h4,12-13,16-17,19,21H,2-3H2,1H3/t12-,13-,16-,17+/m1/s1

> <PUBCHEM_IUPAC_INCHIKEY>
JRZBEIPOZPNWID-KFZJALRRSA-N

> <PUBCHEM_XLOGP3_AA>
-0.2

> <PUBCHEM_EXACT_MASS>
346.068867

> <PUBCHEM_MOLECULAR_FORMULA>
C17H14O8

> <PUBCHEM_MOLECULAR_WEIGHT>
346.28826

> <PUBCHEM_OPENEYE_CAN_SMILES>
COC1=C2C3=C(C(=O)CC3)C(=O)OC2=C4C5C(C(OC5OC4=C1)O)O

> <PUBCHEM_OPENEYE_ISO_SMILES>
COC1=C2C3=C(C(=O)CC3)C(=O)OC2=C4[C@@H]5[C@H]([C@@H](O[C@@H]5OC4=C1)O)O

> <PUBCHEM_CACTVS_TPSA>
112

> <PUBCHEM_MONOISOTOPIC_WEIGHT>
346.068867

> <PUBCHEM_TOTAL_CHARGE>
0

> <PUBCHEM_HEAVY_ATOM_COUNT>
25

> <PUBCHEM_ATOM_DEF_STEREO_COUNT>
4

> <PUBCHEM_ATOM_UDEF_STEREO_COUNT>
0

> <PUBCHEM_BOND_DEF_STEREO_COUNT>
0

> <PUBCHEM_BOND_UDEF_STEREO_COUNT>
0

> <PUBCHEM_ISOTOPIC_ATOM_COUNT>
0

> <PUBCHEM_COMPONENT_COUNT>
1

> <PUBCHEM_CACTVS_TAUTO_COUNT>
10

> <PUBCHEM_COORDINATE_TYPE>
1
5
255

> <PUBCHEM_BONDANNOTATIONS>
10  27  6
12  14  8
12  15  8
14  18  8
15  16  8
16  17  8
16  19  8
17  21  8
18  19  8
21  24  8
11  3  6
4  15  8
4  24  8
13  5  5
9  26  6

$$$$

