4279
  -OEChem-06261200002D

 70 69  0     1  0  0  0  0  0999 V2000
   14.9904    1.6550    0.0000 O   0  0  0  0  0  0  0  0  0  0  0  0
   14.9904   -1.3450    0.0000 O   0  0  0  0  0  0  0  0  0  0  0  0
   16.7224    0.6550    0.0000 N   0  3  0  0  0  0  0  0  0  0  0  0
   15.8564    0.1550    0.0000 C   0  0  3  0  0  0  0  0  0  0  0  0
   14.9904    0.6550    0.0000 C   0  0  3  0  0  0  0  0  0  0  0  0
   14.1244    0.1550    0.0000 C   0  0  0  0  0  0  0  0  0  0  0  0
   15.8564   -0.8450    0.0000 C   0  0  0  0  0  0  0  0  0  0  0  0
   17.5885    1.1550    0.0000 C   0  0  0  0  0  0  0  0  0  0  0  0
   17.2224   -0.2110    0.0000 C   0  0  0  0  0  0  0  0  0  0  0  0
   16.2224    1.5210    0.0000 C   0  0  0  0  0  0  0  0  0  0  0  0
   13.2583    0.6550    0.0000 C   0  0  0  0  0  0  0  0  0  0  0  0
   12.3923    0.1550    0.0000 C   0  0  0  0  0  0  0  0  0  0  0  0
   11.5263    0.6550    0.0000 C   0  0  0  0  0  0  0  0  0  0  0  0
   10.6603    0.1550    0.0000 C   0  0  0  0  0  0  0  0  0  0  0  0
    9.7942    0.6550    0.0000 C   0  0  0  0  0  0  0  0  0  0  0  0
    8.9282    0.1550    0.0000 C   0  0  0  0  0  0  0  0  0  0  0  0
    8.0622    0.6550    0.0000 C   0  0  0  0  0  0  0  0  0  0  0  0
    7.1962    0.1550    0.0000 C   0  0  0  0  0  0  0  0  0  0  0  0
    6.3301    0.6550    0.0000 C   0  0  0  0  0  0  0  0  0  0  0  0
    5.4641    0.1550    0.0000 C   0  0  0  0  0  0  0  0  0  0  0  0
    4.5981    0.6550    0.0000 C   0  0  0  0  0  0  0  0  0  0  0  0
    3.7320    0.1550    0.0000 C   0  0  0  0  0  0  0  0  0  0  0  0
    2.8660    0.6550    0.0000 C   0  0  0  0  0  0  0  0  0  0  0  0
    2.0000    0.1550    0.0000 C   0  0  0  0  0  0  0  0  0  0  0  0
   16.3933   -0.1550    0.0000 H   0  0  0  0  0  0  0  0  0  0  0  0
   15.5273    0.9650    0.0000 H   0  0  0  0  0  0  0  0  0  0  0  0
   13.7258   -0.3199    0.0000 H   0  0  0  0  0  0  0  0  0  0  0  0
   14.5229   -0.3199    0.0000 H   0  0  0  0  0  0  0  0  0  0  0  0
   16.0685   -1.4276    0.0000 H   0  0  0  0  0  0  0  0  0  0  0  0
   16.4670   -0.7373    0.0000 H   0  0  0  0  0  0  0  0  0  0  0  0
   16.7594    1.8310    0.0000 H   0  0  0  0  0  0  0  0  0  0  0  0
   15.9124    2.0580    0.0000 H   0  0  0  0  0  0  0  0  0  0  0  0
   15.6855    1.2110    0.0000 H   0  0  0  0  0  0  0  0  0  0  0  0
   16.6855   -0.5210    0.0000 H   0  0  0  0  0  0  0  0  0  0  0  0
   17.5324   -0.7480    0.0000 H   0  0  0  0  0  0  0  0  0  0  0  0
   17.7594    0.0990    0.0000 H   0  0  0  0  0  0  0  0  0  0  0  0
   17.8985    0.6181    0.0000 H   0  0  0  0  0  0  0  0  0  0  0  0
   18.1254    1.4650    0.0000 H   0  0  0  0  0  0  0  0  0  0  0  0
   17.2785    1.6919    0.0000 H   0  0  0  0  0  0  0  0  0  0  0  0
   13.6569    1.1300    0.0000 H   0  0  0  0  0  0  0  0  0  0  0  0
   12.8598    1.1300    0.0000 H   0  0  0  0  0  0  0  0  0  0  0  0
   11.9938   -0.3199    0.0000 H   0  0  0  0  0  0  0  0  0  0  0  0
   12.7908   -0.3199    0.0000 H   0  0  0  0  0  0  0  0  0  0  0  0
   11.9248    1.1300    0.0000 H   0  0  0  0  0  0  0  0  0  0  0  0
   11.1278    1.1300    0.0000 H   0  0  0  0  0  0  0  0  0  0  0  0
   10.2617   -0.3199    0.0000 H   0  0  0  0  0  0  0  0  0  0  0  0
   11.0588   -0.3199    0.0000 H   0  0  0  0  0  0  0  0  0  0  0  0
   14.4534    1.9650    0.0000 H   0  0  0  0  0  0  0  0  0  0  0  0
   10.1928    1.1300    0.0000 H   0  0  0  0  0  0  0  0  0  0  0  0
    9.3957    1.1300    0.0000 H   0  0  0  0  0  0  0  0  0  0  0  0
    8.5297   -0.3199    0.0000 H   0  0  0  0  0  0  0  0  0  0  0  0
    9.3267   -0.3199    0.0000 H   0  0  0  0  0  0  0  0  0  0  0  0
    8.4607    1.1300    0.0000 H   0  0  0  0  0  0  0  0  0  0  0  0
    7.6636    1.1300    0.0000 H   0  0  0  0  0  0  0  0  0  0  0  0
   14.9904   -1.9650    0.0000 H   0  0  0  0  0  0  0  0  0  0  0  0
    6.7976   -0.3199    0.0000 H   0  0  0  0  0  0  0  0  0  0  0  0
    7.5947   -0.3199    0.0000 H   0  0  0  0  0  0  0  0  0  0  0  0
    6.7287    1.1300    0.0000 H   0  0  0  0  0  0  0  0  0  0  0  0
    5.9316    1.1300    0.0000 H   0  0  0  0  0  0  0  0  0  0  0  0
    5.0656   -0.3199    0.0000 H   0  0  0  0  0  0  0  0  0  0  0  0
    5.8626   -0.3199    0.0000 H   0  0  0  0  0  0  0  0  0  0  0  0
    4.9966    1.1300    0.0000 H   0  0  0  0  0  0  0  0  0  0  0  0
    4.1996    1.1300    0.0000 H   0  0  0  0  0  0  0  0  0  0  0  0
    3.3335   -0.3199    0.0000 H   0  0  0  0  0  0  0  0  0  0  0  0
    4.1306   -0.3199    0.0000 H   0  0  0  0  0  0  0  0  0  0  0  0
    3.2646    1.1300    0.0000 H   0  0  0  0  0  0  0  0  0  0  0  0
    2.4675    1.1300    0.0000 H   0  0  0  0  0  0  0  0  0  0  0  0
    1.6900    0.6919    0.0000 H   0  0  0  0  0  0  0  0  0  0  0  0
    1.4631   -0.1550    0.0000 H   0  0  0  0  0  0  0  0  0  0  0  0
    2.3100   -0.3819    0.0000 H   0  0  0  0  0  0  0  0  0  0  0  0
  1  5  1  0  0  0  0
  1 48  1  0  0  0  0
  2  7  1  0  0  0  0
  2 55  1  0  0  0  0
  3  4  1  0  0  0  0
  3  8  1  0  0  0  0
  3  9  1  0  0  0  0
  3 10  1  0  0  0  0
  4  5  1  0  0  0  0
  4  7  1  0  0  0  0
  4 25  1  0  0  0  0
  5  6  1  0  0  0  0
  5 26  1  0  0  0  0
  6 11  1  0  0  0  0
  6 27  1  0  0  0  0
  6 28  1  0  0  0  0
  7 29  1  0  0  0  0
  7 30  1  0  0  0  0
  8 37  1  0  0  0  0
  8 38  1  0  0  0  0
  8 39  1  0  0  0  0
  9 34  1  0  0  0  0
  9 35  1  0  0  0  0
  9 36  1  0  0  0  0
 10 31  1  0  0  0  0
 10 32  1  0  0  0  0
 10 33  1  0  0  0  0
 11 12  1  0  0  0  0
 11 40  1  0  0  0  0
 11 41  1  0  0  0  0
 12 13  1  0  0  0  0
 12 42  1  0  0  0  0
 12 43  1  0  0  0  0
 13 14  1  0  0  0  0
 13 44  1  0  0  0  0
 13 45  1  0  0  0  0
 14 15  1  0  0  0  0
 14 46  1  0  0  0  0
 14 47  1  0  0  0  0
 15 16  1  0  0  0  0
 15 49  1  0  0  0  0
 15 50  1  0  0  0  0
 16 17  1  0  0  0  0
 16 51  1  0  0  0  0
 16 52  1  0  0  0  0
 17 18  1  0  0  0  0
 17 53  1  0  0  0  0
 17 54  1  0  0  0  0
 18 19  1  0  0  0  0
 18 56  1  0  0  0  0
 18 57  1  0  0  0  0
 19 20  1  0  0  0  0
 19 58  1  0  0  0  0
 19 59  1  0  0  0  0
 20 21  1  0  0  0  0
 20 60  1  0  0  0  0
 20 61  1  0  0  0  0
 21 22  1  0  0  0  0
 21 62  1  0  0  0  0
 21 63  1  0  0  0  0
 22 23  1  0  0  0  0
 22 64  1  0  0  0  0
 22 65  1  0  0  0  0
 23 24  1  0  0  0  0
 23 66  1  0  0  0  0
 23 67  1  0  0  0  0
 24 68  1  0  0  0  0
 24 69  1  0  0  0  0
 24 70  1  0  0  0  0
M  CHG  1   3   1
M  END
> <PUBCHEM_COMPOUND_CID>
4279

> <PUBCHEM_COMPOUND_CANONICALIZED>
1

> <PUBCHEM_CACTVS_COMPLEXITY>
263

> <PUBCHEM_CACTVS_HBOND_ACCEPTOR>
2

> <PUBCHEM_CACTVS_HBOND_DONOR>
2

> <PUBCHEM_CACTVS_ROTATABLE_BOND>
17

> <PUBCHEM_CACTVS_SUBSKEYS>
AAADcfB6MAAAAAAAAAAAAAAAAAAAAAAAAAAAAAAAAAAAAAAAAAAAHgAACAAACDzhgAYCAAMAAgAAAAAAAAAAAAAAAAAAAAAIAAACEAIAgAAEQAAFAAAQAAGQwKAAAAAAAAAAAAAAAAAAAAAAAAAAAAAAAA==

> <PUBCHEM_IUPAC_OPENEYE_NAME>
[2-hydroxy-1-(hydroxymethyl)heptadecyl]-trimethyl-ammonium

> <PUBCHEM_IUPAC_CAS_NAME>
1,3-dihydroxyoctadecan-2-yl(trimethyl)ammonium

> <PUBCHEM_IUPAC_NAME>
1,3-dihydroxyoctadecan-2-yl(trimethyl)azanium

> <PUBCHEM_IUPAC_SYSTEMATIC_NAME>
1,3-bis(oxidanyl)octadecan-2-yl-trimethyl-azanium

> <PUBCHEM_IUPAC_TRADITIONAL_NAME>
(2-hydroxy-1-methylol-heptadecyl)-trimethyl-ammonium

> <PUBCHEM_IUPAC_INCHI>
InChI=1S/C21H46NO2/c1-5-6-7-8-9-10-11-12-13-14-15-16-17-18-21(24)20(19-23)22(2,3)4/h20-21,23-24H,5-19H2,1-4H3/q+1

> <PUBCHEM_IUPAC_INCHIKEY>
QWCOHPHEFYGTLD-UHFFFAOYSA-N

> <PUBCHEM_XLOGP3_AA>
6.8

> <PUBCHEM_EXACT_MASS>
344.352855

> <PUBCHEM_MOLECULAR_FORMULA>
C21H46NO2+

> <PUBCHEM_MOLECULAR_WEIGHT>
344.59544

> <PUBCHEM_OPENEYE_CAN_SMILES>
CCCCCCCCCCCCCCCC(C(CO)[N+](C)(C)C)O

> <PUBCHEM_OPENEYE_ISO_SMILES>
CCCCCCCCCCCCCCCC(C(CO)[N+](C)(C)C)O

> <PUBCHEM_CACTVS_TPSA>
40.5

> <PUBCHEM_MONOISOTOPIC_WEIGHT>
344.352855

> <PUBCHEM_TOTAL_CHARGE>
1

> <PUBCHEM_HEAVY_ATOM_COUNT>
24

> <PUBCHEM_ATOM_DEF_STEREO_COUNT>
0

> <PUBCHEM_ATOM_UDEF_STEREO_COUNT>
2

> <PUBCHEM_BOND_DEF_STEREO_COUNT>
0

> <PUBCHEM_BOND_UDEF_STEREO_COUNT>
0

> <PUBCHEM_ISOTOPIC_ATOM_COUNT>
0

> <PUBCHEM_COMPONENT_COUNT>
1

> <PUBCHEM_CACTVS_TAUTO_COUNT>
1

> <PUBCHEM_COORDINATE_TYPE>
1
5
255

> <PUBCHEM_BONDANNOTATIONS>
5  1  3
4  7  3

$$$$

