45359883
  -OEChem-07051213103D

 73 77  0     1  0  0  0  0  0999 V2000
   -1.6688   -1.3208    0.2679 O   0  0  0  0  0  0  0  0  0  0  0  0
   -0.7479   -3.4644    0.2398 O   0  0  0  0  0  0  0  0  0  0  0  0
   -2.2685   -0.1715   -1.7001 O   0  0  0  0  0  0  0  0  0  0  0  0
   -3.5624    0.2383    1.6697 O   0  0  0  0  0  0  0  0  0  0  0  0
    0.9394   -0.2237    0.2283 O   0  0  0  0  0  0  0  0  0  0  0  0
   -5.1932    2.9459    0.5357 O   0  0  0  0  0  0  0  0  0  0  0  0
    2.9176   -2.0459    1.4313 O   0  0  0  0  0  0  0  0  0  0  0  0
    2.7062   -4.6821    0.2643 O   0  0  0  0  0  0  0  0  0  0  0  0
   -1.2068   -6.0410   -0.6000 O   0  0  0  0  0  0  0  0  0  0  0  0
   -3.5572    3.6624   -0.8316 O   0  0  0  0  0  0  0  0  0  0  0  0
    1.7163    0.3689    2.3127 O   0  0  0  0  0  0  0  0  0  0  0  0
   -0.5265    2.6367    1.1832 O   0  0  0  0  0  0  0  0  0  0  0  0
    2.2733    5.7270   -1.1179 O   0  0  0  0  0  0  0  0  0  0  0  0
    5.2088   -1.3274   -2.3440 O   0  0  0  0  0  0  0  0  0  0  0  0
   -4.2637    0.2291    0.4155 C   0  0  1  0  0  0  0  0  0  0  0  0
   -4.0367   -1.1577   -0.2475 C   0  0  2  0  0  0  0  0  0  0  0  0
   -2.6003   -1.2485   -0.8127 C   0  0  2  0  0  0  0  0  0  0  0  0
   -0.5234   -2.0950   -0.0869 C   0  0  2  0  0  0  0  0  0  0  0  0
    0.6738   -1.5478    0.6904 C   0  0  1  0  0  0  0  0  0  0  0  0
    1.9149   -2.4160    0.4835 C   0  0  2  0  0  0  0  0  0  0  0  0
   -5.7322    0.5488    0.6993 C   0  0  0  0  0  0  0  0  0  0  0  0
    1.5948   -3.8968    0.6878 C   0  0  1  0  0  0  0  0  0  0  0  0
    0.3553   -4.3002   -0.1144 C   0  0  1  0  0  0  0  0  0  0  0  0
   -3.6716    1.3243   -0.4153 C   0  0  0  0  0  0  0  0  0  0  0  0
   -5.8363    1.9260    1.3294 C   0  0  0  0  0  0  0  0  0  0  0  0
   -5.0285   -1.4990   -1.3249 C   0  0  0  0  0  0  0  0  0  0  0  0
   -2.7743    1.0595   -1.3773 C   0  0  0  0  0  0  0  0  0  0  0  0
   -0.0528   -5.7433    0.1644 C   0  0  0  0  0  0  0  0  0  0  0  0
   -4.1142    2.7303   -0.2600 C   0  0  0  0  0  0  0  0  0  0  0  0
   -5.8518   -2.5518   -1.2780 C   0  0  0  0  0  0  0  0  0  0  0  0
    1.4606    0.6313    1.1477 C   0  0  0  0  0  0  0  0  0  0  0  0
    1.6896    1.9688    0.5451 C   0  0  0  0  0  0  0  0  0  0  0  0
    2.9056    2.2811   -0.0629 C   0  0  0  0  0  0  0  0  0  0  0  0
    0.6699    2.9193    0.5943 C   0  0  0  0  0  0  0  0  0  0  0  0
    3.1017    3.5441   -0.6218 C   0  0  0  0  0  0  0  0  0  0  0  0
    3.9855    1.3154   -0.1292 C   0  0  0  0  0  0  0  0  0  0  0  0
    0.8661    4.1823    0.0355 C   0  0  0  0  0  0  0  0  0  0  0  0
    2.0821    4.4947   -0.5724 C   0  0  0  0  0  0  0  0  0  0  0  0
    4.0795    0.4486   -1.2181 C   0  0  0  0  0  0  0  0  0  0  0  0
    4.9294    1.2526    0.8959 C   0  0  0  0  0  0  0  0  0  0  0  0
    5.1176   -0.4810   -1.2820 C   0  0  0  0  0  0  0  0  0  0  0  0
    5.9674    0.3228    0.8321 C   0  0  0  0  0  0  0  0  0  0  0  0
    6.0617   -0.5438   -0.2568 C   0  0  0  0  0  0  0  0  0  0  0  0
   -4.1125   -1.9160    0.5464 H   0  0  0  0  0  0  0  0  0  0  0  0
   -2.5340   -2.1734   -1.4030 H   0  0  0  0  0  0  0  0  0  0  0  0
    0.4034   -1.5274    1.7556 H   0  0  0  0  0  0  0  0  0  0  0  0
   -0.3248   -1.9946   -1.1639 H   0  0  0  0  0  0  0  0  0  0  0  0
    2.3494   -2.2423   -0.5077 H   0  0  0  0  0  0  0  0  0  0  0  0
   -6.1716   -0.1902    1.3794 H   0  0  0  0  0  0  0  0  0  0  0  0
   -6.3180    0.5492   -0.2279 H   0  0  0  0  0  0  0  0  0  0  0  0
    1.4411   -4.0966    1.7554 H   0  0  0  0  0  0  0  0  0  0  0  0
    0.5348   -4.2015   -1.1937 H   0  0  0  0  0  0  0  0  0  0  0  0
   -5.3978    1.9553    2.3326 H   0  0  0  0  0  0  0  0  0  0  0  0
   -6.8895    2.2091    1.4266 H   0  0  0  0  0  0  0  0  0  0  0  0
   -5.0773   -0.8508   -2.1965 H   0  0  0  0  0  0  0  0  0  0  0  0
   -2.3517    1.8002   -2.0436 H   0  0  0  0  0  0  0  0  0  0  0  0
   -0.3086   -5.8791    1.2206 H   0  0  0  0  0  0  0  0  0  0  0  0
    0.7406   -6.4453   -0.1090 H   0  0  0  0  0  0  0  0  0  0  0  0
   -3.9675   -0.4341    2.2438 H   0  0  0  0  0  0  0  0  0  0  0  0
    2.5483   -2.1617    2.3233 H   0  0  0  0  0  0  0  0  0  0  0  0
    2.8450   -4.5191   -0.6843 H   0  0  0  0  0  0  0  0  0  0  0  0
   -6.5447   -2.7433   -2.0900 H   0  0  0  0  0  0  0  0  0  0  0  0
   -5.8518   -3.2363   -0.4371 H   0  0  0  0  0  0  0  0  0  0  0  0
   -1.4513   -6.9616   -0.4042 H   0  0  0  0  0  0  0  0  0  0  0  0
    4.0483    3.7933   -1.0974 H   0  0  0  0  0  0  0  0  0  0  0  0
    0.0714    4.9233    0.0731 H   0  0  0  0  0  0  0  0  0  0  0  0
    3.3473    0.4877   -2.0219 H   0  0  0  0  0  0  0  0  0  0  0  0
    4.8700    1.9201    1.7523 H   0  0  0  0  0  0  0  0  0  0  0  0
   -0.5426    1.7210    1.5047 H   0  0  0  0  0  0  0  0  0  0  0  0
    6.7018    0.2734    1.6307 H   0  0  0  0  0  0  0  0  0  0  0  0
    3.1688    5.7698   -1.4950 H   0  0  0  0  0  0  0  0  0  0  0  0
    6.8747   -1.2639   -0.2942 H   0  0  0  0  0  0  0  0  0  0  0  0
    5.9839   -1.9025   -2.2228 H   0  0  0  0  0  0  0  0  0  0  0  0
  1 17  1  0  0  0  0
  1 18  1  0  0  0  0
  2 18  1  0  0  0  0
  2 23  1  0  0  0  0
  3 17  1  0  0  0  0
  3 27  1  0  0  0  0
  4 15  1  0  0  0  0
  4 59  1  0  0  0  0
  5 19  1  0  0  0  0
  5 31  1  0  0  0  0
  6 25  1  0  0  0  0
  6 29  1  0  0  0  0
  7 20  1  0  0  0  0
  7 60  1  0  0  0  0
  8 22  1  0  0  0  0
  8 61  1  0  0  0  0
  9 28  1  0  0  0  0
  9 64  1  0  0  0  0
 10 29  2  0  0  0  0
 11 31  2  0  0  0  0
 12 34  1  0  0  0  0
 12 69  1  0  0  0  0
 13 38  1  0  0  0  0
 13 71  1  0  0  0  0
 14 41  1  0  0  0  0
 14 73  1  0  0  0  0
 15 16  1  0  0  0  0
 15 21  1  0  0  0  0
 15 24  1  0  0  0  0
 16 17  1  0  0  0  0
 16 26  1  0  0  0  0
 16 44  1  0  0  0  0
 17 45  1  0  0  0  0
 18 19  1  0  0  0  0
 18 47  1  0  0  0  0
 19 20  1  0  0  0  0
 19 46  1  0  0  0  0
 20 22  1  0  0  0  0
 20 48  1  0  0  0  0
 21 25  1  0  0  0  0
 21 49  1  0  0  0  0
 21 50  1  0  0  0  0
 22 23  1  0  0  0  0
 22 51  1  0  0  0  0
 23 28  1  0  0  0  0
 23 52  1  0  0  0  0
 24 27  2  0  0  0  0
 24 29  1  0  0  0  0
 25 53  1  0  0  0  0
 25 54  1  0  0  0  0
 26 30  2  0  0  0  0
 26 55  1  0  0  0  0
 27 56  1  0  0  0  0
 28 57  1  0  0  0  0
 28 58  1  0  0  0  0
 30 62  1  0  0  0  0
 30 63  1  0  0  0  0
 31 32  1  0  0  0  0
 32 33  2  0  0  0  0
 32 34  1  0  0  0  0
 33 35  1  0  0  0  0
 33 36  1  0  0  0  0
 34 37  2  0  0  0  0
 35 38  2  0  0  0  0
 35 65  1  0  0  0  0
 36 39  2  0  0  0  0
 36 40  1  0  0  0  0
 37 38  1  0  0  0  0
 37 66  1  0  0  0  0
 39 41  1  0  0  0  0
 39 67  1  0  0  0  0
 40 42  2  0  0  0  0
 40 68  1  0  0  0  0
 41 43  2  0  0  0  0
 42 43  1  0  0  0  0
 42 70  1  0  0  0  0
 43 72  1  0  0  0  0
M  END
> <PUBCHEM_COMPOUND_CID>
45359883

> <PUBCHEM_CONFORMER_RMSD>
1.2

> <PUBCHEM_CONFORMER_DIVERSEORDER>
1
53
37
24
38
64
54
78
33
41
68
61
72
28
59
34
49
77
43
19
55
58
62
26
75
8
21
45
31
76
46
23
80
56
15
20
29
9
22
25
79
6
27
73
30
18
52
60
35
63
70
65
74
39
50
48
36
67
44
13
11
7
47
42
57
32
14
40
12
51
17
10
71
2
69
16
5
3
66
4

> <PUBCHEM_MMFF94_PARTIAL_CHARGES>
57
1 -0.56
10 -0.57
11 -0.57
12 -0.53
13 -0.53
14 -0.53
15 0.42
16 0.14
17 0.56
18 0.56
19 0.28
2 -0.56
20 0.28
22 0.28
23 0.28
24 -0.12
25 0.28
26 -0.29
27 -0.07
28 0.28
29 0.71
3 -0.36
30 -0.3
31 0.63
32 0.09
34 0.08
35 -0.15
37 -0.15
38 0.08
39 -0.15
4 -0.68
40 -0.15
41 0.08
42 -0.15
43 -0.15
5 -0.43
55 0.15
56 0.15
59 0.4
6 -0.43
60 0.4
61 0.4
62 0.15
63 0.15
64 0.4
65 0.15
66 0.15
67 0.15
68 0.15
69 0.45
7 -0.68
70 0.15
71 0.45
72 0.15
73 0.45
8 -0.68
9 -0.68

> <PUBCHEM_EFFECTIVE_ROTOR_COUNT>
10.4

> <PUBCHEM_PHARMACOPHORE_FEATURES>
22
1 1 acceptor
1 10 acceptor
1 11 acceptor
1 12 donor
1 13 donor
1 14 donor
1 2 acceptor
1 3 acceptor
1 30 hydrophobe
1 4 acceptor
1 4 donor
1 7 acceptor
1 7 donor
1 8 acceptor
1 8 donor
1 9 acceptor
1 9 donor
6 2 18 19 20 22 23 rings
6 3 15 16 17 24 27 rings
6 32 33 34 35 37 38 rings
6 36 39 40 41 42 43 rings
6 6 15 21 24 25 29 rings

> <PUBCHEM_HEAVY_ATOM_COUNT>
43

> <PUBCHEM_ATOM_DEF_STEREO_COUNT>
8

> <PUBCHEM_ATOM_UDEF_STEREO_COUNT>
0

> <PUBCHEM_BOND_DEF_STEREO_COUNT>
0

> <PUBCHEM_BOND_UDEF_STEREO_COUNT>
0

> <PUBCHEM_ISOTOPIC_ATOM_COUNT>
0

> <PUBCHEM_COMPONENT_COUNT>
1

> <PUBCHEM_CACTVS_TAUTO_COUNT>
36

> <PUBCHEM_CONFORMER_ID>
02B4230B00000001

> <PUBCHEM_MMFF94_ENERGY>
133.6363

> <PUBCHEM_FEATURE_SELFOVERLAP>
111.76

> <PUBCHEM_SHAPE_FINGERPRINT>
10190108 129 18121195817755950656
10439779 11 18266195963016747986
10483366 6 18266165305572103574
11135926 11 18267873958983191868
14394314 77 18410296951841611024
144659 178 16537072477432575726
14790565 3 18410575084953197034
15001296 14 18198628735216222641
15082195 135 18267607830436248751
15200665 1 18122907529975440627
15320467 1 18411421682857218717
16112460 7 18336535041502689064
19311894 1 18335986380503598987
20028762 73 18334579005931301886
20764821 26 18124338213324015071
20775438 99 17190980518199620532
5776283 40 18125701428071808348
6371009 1 18195265341899342967

> <PUBCHEM_SHAPE_MULTIPOLES>
802.75
12.86
7.7
1.45
4.04
4.8
-0.09
-3.77
-1.75
-0.91
-0.75
-0.19
-0.07
-1.47

> <PUBCHEM_SHAPE_SELFOVERLAP>
1749.54

> <PUBCHEM_SHAPE_VOLUME>
427.2

> <PUBCHEM_COORDINATE_TYPE>
2
5
10

$$$$

