439358
  -OEChem-07051212452D

 20 19  0     0  0  0  0  0  0999 V2000
    6.8671   -1.0600    0.0000 O   0  0  0  0  0  0  0  0  0  0  0  0
    2.5369    0.4400    0.0000 N   0  0  0  0  0  0  0  0  0  0  0  0
    7.7331    0.4400    0.0000 N   0  0  0  0  0  0  0  0  0  0  0  0
    5.1350   -0.0600    0.0000 C   0  0  0  0  0  0  0  0  0  0  0  0
    4.2690    0.4400    0.0000 C   0  0  0  0  0  0  0  0  0  0  0  0
    6.0010    0.4400    0.0000 C   0  0  0  0  0  0  0  0  0  0  0  0
    3.4030   -0.0600    0.0000 C   0  0  0  0  0  0  0  0  0  0  0  0
    6.8671   -0.0600    0.0000 C   0  0  0  0  0  0  0  0  0  0  0  0
    4.7365   -0.5349    0.0000 H   0  0  0  0  0  0  0  0  0  0  0  0
    5.5335   -0.5349    0.0000 H   0  0  0  0  0  0  0  0  0  0  0  0
    4.6675    0.9149    0.0000 H   0  0  0  0  0  0  0  0  0  0  0  0
    3.8705    0.9149    0.0000 H   0  0  0  0  0  0  0  0  0  0  0  0
    6.3996    0.9149    0.0000 H   0  0  0  0  0  0  0  0  0  0  0  0
    5.6025    0.9149    0.0000 H   0  0  0  0  0  0  0  0  0  0  0  0
    3.0044   -0.5349    0.0000 H   0  0  0  0  0  0  0  0  0  0  0  0
    3.8015   -0.5349    0.0000 H   0  0  0  0  0  0  0  0  0  0  0  0
    2.0000    0.1300    0.0000 H   0  0  0  0  0  0  0  0  0  0  0  0
    2.5369    1.0600    0.0000 H   0  0  0  0  0  0  0  0  0  0  0  0
    8.2700    0.1300    0.0000 H   0  0  0  0  0  0  0  0  0  0  0  0
    7.7331    1.0600    0.0000 H   0  0  0  0  0  0  0  0  0  0  0  0
  1  8  2  0  0  0  0
  2  7  1  0  0  0  0
  2 17  1  0  0  0  0
  2 18  1  0  0  0  0
  3  8  1  0  0  0  0
  3 19  1  0  0  0  0
  3 20  1  0  0  0  0
  4  5  1  0  0  0  0
  4  6  1  0  0  0  0
  4  9  1  0  0  0  0
  4 10  1  0  0  0  0
  5  7  1  0  0  0  0
  5 11  1  0  0  0  0
  5 12  1  0  0  0  0
  6  8  1  0  0  0  0
  6 13  1  0  0  0  0
  6 14  1  0  0  0  0
  7 15  1  0  0  0  0
  7 16  1  0  0  0  0
M  END
> <PUBCHEM_COMPOUND_CID>
439358

> <PUBCHEM_COMPOUND_CANONICALIZED>
1

> <PUBCHEM_CACTVS_COMPLEXITY>
72.8

> <PUBCHEM_CACTVS_HBOND_ACCEPTOR>
2

> <PUBCHEM_CACTVS_HBOND_DONOR>
2

> <PUBCHEM_CACTVS_ROTATABLE_BOND>
4

> <PUBCHEM_CACTVS_SUBSKEYS>
AAADccBjIAAAAAAAAAAAAAAAAAAAAAAAAAAAAAAAAAAAAAAAAAAAHgAQAAAACADBgAQAAABAAAAIAAEQEAAAAAAAAAAAAIEAAAAAABIAgAAAAAAAEAAAAAAYAQAAAAAAAAAAAAAAAAAAAAAAAAAAAAAAAA==

> <PUBCHEM_IUPAC_OPENEYE_NAME>
5-aminopentanamide

> <PUBCHEM_IUPAC_CAS_NAME>
5-aminopentanamide

> <PUBCHEM_IUPAC_NAME>
5-aminopentanamide

> <PUBCHEM_IUPAC_SYSTEMATIC_NAME>
5-azanylpentanamide

> <PUBCHEM_IUPAC_TRADITIONAL_NAME>
5-aminovaleramide

> <PUBCHEM_IUPAC_INCHI>
InChI=1S/C5H12N2O/c6-4-2-1-3-5(7)8/h1-4,6H2,(H2,7,8)

> <PUBCHEM_IUPAC_INCHIKEY>
OTIAVLWNTIXJDO-UHFFFAOYSA-N

> <PUBCHEM_XLOGP3>
-1

> <PUBCHEM_EXACT_MASS>
116.094963

> <PUBCHEM_MOLECULAR_FORMULA>
C5H12N2O

> <PUBCHEM_MOLECULAR_WEIGHT>
116.16158

> <PUBCHEM_OPENEYE_CAN_SMILES>
C(CCN)CC(=O)N

> <PUBCHEM_OPENEYE_ISO_SMILES>
C(CCN)CC(=O)N

> <PUBCHEM_CACTVS_TPSA>
69.1

> <PUBCHEM_MONOISOTOPIC_WEIGHT>
116.094963

> <PUBCHEM_TOTAL_CHARGE>
0

> <PUBCHEM_HEAVY_ATOM_COUNT>
8

> <PUBCHEM_ATOM_DEF_STEREO_COUNT>
0

> <PUBCHEM_ATOM_UDEF_STEREO_COUNT>
0

> <PUBCHEM_BOND_DEF_STEREO_COUNT>
0

> <PUBCHEM_BOND_UDEF_STEREO_COUNT>
0

> <PUBCHEM_ISOTOPIC_ATOM_COUNT>
0

> <PUBCHEM_COMPONENT_COUNT>
1

> <PUBCHEM_CACTVS_TAUTO_COUNT>
3

> <PUBCHEM_COORDINATE_TYPE>
1
5
255

$$$$

