15108350
  -OEChem-07051213152D

 73 76  0     1  0  0  0  0  0999 V2000
    2.0000   -3.9299    0.0000 O   0  0  0  0  0  0  0  0  0  0  0  0
   12.5175    3.8479    0.0000 O   0  0  0  0  0  0  0  0  0  0  0  0
    7.3931   -0.8776    0.0000 C   0  0  1  0  0  0  0  0  0  0  0  0
    7.3931   -1.8776    0.0000 C   0  0  2  0  0  0  0  0  0  0  0  0
    6.5271   -2.3776    0.0000 C   0  0  1  0  0  0  0  0  0  0  0  0
    5.6610   -1.8776    0.0000 C   0  0  1  0  0  0  0  0  0  0  0  0
    8.3393   -0.5728    0.0000 C   0  0  2  0  0  0  0  0  0  0  0  0
    6.5271   -0.3776    0.0000 C   0  0  0  0  0  0  0  0  0  0  0  0
    8.3393   -2.1823    0.0000 C   0  0  0  0  0  0  0  0  0  0  0  0
    4.7510   -2.3844    0.0000 C   0  0  2  0  0  0  0  0  0  0  0  0
    5.6610   -0.8776    0.0000 C   0  0  0  0  0  0  0  0  0  0  0  0
    8.9229   -1.3776    0.0000 C   0  0  0  0  0  0  0  0  0  0  0  0
    6.5431   -3.4191    0.0000 C   0  0  0  0  0  0  0  0  0  0  0  0
    8.6500    0.3777    0.0000 C   0  0  1  0  0  0  0  0  0  0  0  0
    7.3931    0.1224    0.0000 C   0  0  0  0  0  0  0  0  0  0  0  0
    4.7430   -3.4260    0.0000 C   0  0  0  0  0  0  0  0  0  0  0  0
    5.6451   -3.9468    0.0000 C   0  0  0  0  0  0  0  0  0  0  0  0
    3.8242   -1.8203    0.0000 C   0  0  0  0  0  0  0  0  0  0  0  0
    4.7587   -1.3844    0.0000 C   0  0  0  0  0  0  0  0  0  0  0  0
    9.6285    0.5839    0.0000 C   0  0  0  0  0  0  0  0  0  0  0  0
    7.9821    1.1220    0.0000 C   0  0  0  0  0  0  0  0  0  0  0  0
    2.8763   -2.3483    0.0000 C   0  0  0  0  0  0  0  0  0  0  0  0
    3.8076   -3.9758    0.0000 C   0  0  0  0  0  0  0  0  0  0  0  0
    2.8680   -3.4332    0.0000 C   0  0  0  0  0  0  0  0  0  0  0  0
    9.9391    1.5344    0.0000 C   0  0  0  0  0  0  0  0  0  0  0  0
   10.9176    1.7406    0.0000 C   0  0  0  0  0  0  0  0  0  0  0  0
   11.2283    2.6912    0.0000 C   0  0  3  0  0  0  0  0  0  0  0  0
   12.2068    2.8974    0.0000 C   0  0  0  0  0  0  0  0  0  0  0  0
   10.5605    3.4354    0.0000 C   0  0  0  0  0  0  0  0  0  0  0  0
    7.4830   -2.7228    0.0000 H   0  0  0  0  0  0  0  0  0  0  0  0
    7.2664   -2.7969    0.0000 H   0  0  0  0  0  0  0  0  0  0  0  0
    6.3972   -1.4526    0.0000 H   0  0  0  0  0  0  0  0  0  0  0  0
    9.1790   -0.4410    0.0000 H   0  0  0  0  0  0  0  0  0  0  0  0
    6.9256    0.0974    0.0000 H   0  0  0  0  0  0  0  0  0  0  0  0
    6.1285    0.0974    0.0000 H   0  0  0  0  0  0  0  0  0  0  0  0
    8.0883   -2.7492    0.0000 H   0  0  0  0  0  0  0  0  0  0  0  0
    8.8767   -2.4915    0.0000 H   0  0  0  0  0  0  0  0  0  0  0  0
    5.4490   -0.2950    0.0000 H   0  0  0  0  0  0  0  0  0  0  0  0
    5.0504   -0.9852    0.0000 H   0  0  0  0  0  0  0  0  0  0  0  0
    9.3838   -1.7923    0.0000 H   0  0  0  0  0  0  0  0  0  0  0  0
    9.3838   -0.9628    0.0000 H   0  0  0  0  0  0  0  0  0  0  0  0
    6.7612   -3.9995    0.0000 H   0  0  0  0  0  0  0  0  0  0  0  0
    7.1523   -3.3036    0.0000 H   0  0  0  0  0  0  0  0  0  0  0  0
    8.0433    0.2498    0.0000 H   0  0  0  0  0  0  0  0  0  0  0  0
    8.0131    0.1224    0.0000 H   0  0  0  0  0  0  0  0  0  0  0  0
    7.3931    0.7424    0.0000 H   0  0  0  0  0  0  0  0  0  0  0  0
    6.7731    0.1224    0.0000 H   0  0  0  0  0  0  0  0  0  0  0  0
    5.2478   -4.4228    0.0000 H   0  0  0  0  0  0  0  0  0  0  0  0
    6.0460   -4.4197    0.0000 H   0  0  0  0  0  0  0  0  0  0  0  0
    4.2324   -1.3537    0.0000 H   0  0  0  0  0  0  0  0  0  0  0  0
    3.4343   -1.3383    0.0000 H   0  0  0  0  0  0  0  0  0  0  0  0
    5.3787   -1.3892    0.0000 H   0  0  0  0  0  0  0  0  0  0  0  0
    4.7635   -0.7645    0.0000 H   0  0  0  0  0  0  0  0  0  0  0  0
    4.1388   -1.3797    0.0000 H   0  0  0  0  0  0  0  0  0  0  0  0
    9.6490   -0.0358    0.0000 H   0  0  0  0  0  0  0  0  0  0  0  0
   10.2423    0.4965    0.0000 H   0  0  0  0  0  0  0  0  0  0  0  0
    8.4436    1.5360    0.0000 H   0  0  0  0  0  0  0  0  0  0  0  0
    7.5681    1.5834    0.0000 H   0  0  0  0  0  0  0  0  0  0  0  0
    7.5207    0.7079    0.0000 H   0  0  0  0  0  0  0  0  0  0  0  0
    2.6718   -1.7630    0.0000 H   0  0  0  0  0  0  0  0  0  0  0  0
    2.2647   -2.4497    0.0000 H   0  0  0  0  0  0  0  0  0  0  0  0
    3.8100   -4.5957    0.0000 H   0  0  0  0  0  0  0  0  0  0  0  0
    9.9186    2.1541    0.0000 H   0  0  0  0  0  0  0  0  0  0  0  0
    9.3253    1.6218    0.0000 H   0  0  0  0  0  0  0  0  0  0  0  0
   10.9382    1.1210    0.0000 H   0  0  0  0  0  0  0  0  0  0  0  0
   11.5315    1.6533    0.0000 H   0  0  0  0  0  0  0  0  0  0  0  0
   11.4209    3.2805    0.0000 H   0  0  0  0  0  0  0  0  0  0  0  0
   12.2274    2.2777    0.0000 H   0  0  0  0  0  0  0  0  0  0  0  0
   12.8206    2.8100    0.0000 H   0  0  0  0  0  0  0  0  0  0  0  0
   11.0219    3.8495    0.0000 H   0  0  0  0  0  0  0  0  0  0  0  0
   10.1464    3.8969    0.0000 H   0  0  0  0  0  0  0  0  0  0  0  0
   10.0990    3.0214    0.0000 H   0  0  0  0  0  0  0  0  0  0  0  0
   13.1241    3.9758    0.0000 H   0  0  0  0  0  0  0  0  0  0  0  0
  1 24  2  0  0  0  0
  2 28  1  0  0  0  0
  2 73  1  0  0  0  0
  3  4  1  0  0  0  0
  3  7  1  0  0  0  0
  3  8  1  0  0  0  0
  3 15  1  1  0  0  0
  4  5  1  0  0  0  0
  4  9  1  0  0  0  0
  4 30  1  6  0  0  0
  5  6  1  0  0  0  0
  5 13  1  0  0  0  0
  5 31  1  1  0  0  0
  6 10  1  0  0  0  0
  6 11  1  0  0  0  0
  6 32  1  6  0  0  0
  7 12  1  0  0  0  0
  7 14  1  0  0  0  0
  7 33  1  6  0  0  0
  8 11  1  0  0  0  0
  8 34  1  0  0  0  0
  8 35  1  0  0  0  0
  9 12  1  0  0  0  0
  9 36  1  0  0  0  0
  9 37  1  0  0  0  0
 10 16  1  0  0  0  0
 10 18  1  0  0  0  0
 10 19  1  1  0  0  0
 11 38  1  0  0  0  0
 11 39  1  0  0  0  0
 12 40  1  0  0  0  0
 12 41  1  0  0  0  0
 13 17  1  0  0  0  0
 13 42  1  0  0  0  0
 13 43  1  0  0  0  0
 14 20  1  0  0  0  0
 14 21  1  6  0  0  0
 14 44  1  0  0  0  0
 15 45  1  0  0  0  0
 15 46  1  0  0  0  0
 15 47  1  0  0  0  0
 16 17  1  0  0  0  0
 16 23  2  0  0  0  0
 17 48  1  0  0  0  0
 17 49  1  0  0  0  0
 18 22  1  0  0  0  0
 18 50  1  0  0  0  0
 18 51  1  0  0  0  0
 19 52  1  0  0  0  0
 19 53  1  0  0  0  0
 19 54  1  0  0  0  0
 20 25  1  0  0  0  0
 20 55  1  0  0  0  0
 20 56  1  0  0  0  0
 21 57  1  0  0  0  0
 21 58  1  0  0  0  0
 21 59  1  0  0  0  0
 22 24  1  0  0  0  0
 22 60  1  0  0  0  0
 22 61  1  0  0  0  0
 23 24  1  0  0  0  0
 23 62  1  0  0  0  0
 25 26  1  0  0  0  0
 25 63  1  0  0  0  0
 25 64  1  0  0  0  0
 26 27  1  0  0  0  0
 26 65  1  0  0  0  0
 26 66  1  0  0  0  0
 27 28  1  0  0  0  0
 27 29  1  0  0  0  0
 27 67  1  0  0  0  0
 28 68  1  0  0  0  0
 28 69  1  0  0  0  0
 29 70  1  0  0  0  0
 29 71  1  0  0  0  0
 29 72  1  0  0  0  0
M  END
> <PUBCHEM_COMPOUND_CID>
15108350

> <PUBCHEM_COMPOUND_CANONICALIZED>
1

> <PUBCHEM_CACTVS_COMPLEXITY>
651

> <PUBCHEM_CACTVS_HBOND_ACCEPTOR>
2

> <PUBCHEM_CACTVS_HBOND_DONOR>
1

> <PUBCHEM_CACTVS_ROTATABLE_BOND>
6

> <PUBCHEM_CACTVS_SUBSKEYS>
AAADcfB4MAAAAAAAAAAAAAAAAAAAAYAAAAAwYIAAAAAAAGDAAAAAGgAACAAADwSggAICAAAAAgCIAqBSAAAAAAAgAAAACAEAAEgAEBIAAQAAQAAEgAAIAQOIyOCPgAAAAAAAAACAAAQAACAAAQAACAAAAA==

> <PUBCHEM_IUPAC_OPENEYE_NAME>
(8S,9S,10R,13R,14S,17R)-17-[(1R)-6-hydroxy-1,5-dimethyl-hexyl]-10,13-dimethyl-1,2,6,7,8,9,11,12,14,15,16,17-dodecahydrocyclopenta[a]phenanthren-3-one

> <PUBCHEM_IUPAC_CAS_NAME>
(8S,9S,10R,13R,14S,17R)-17-[(2R)-7-hydroxy-6-methylheptan-2-yl]-10,13-dimethyl-1,2,6,7,8,9,11,12,14,15,16,17-dodecahydrocyclopenta[a]phenanthren-3-one

> <PUBCHEM_IUPAC_NAME>
(8S,9S,10R,13R,14S,17R)-17-[(2R)-7-hydroxy-6-methylheptan-2-yl]-10,13-dimethyl-1,2,6,7,8,9,11,12,14,15,16,17-dodecahydrocyclopenta[a]phenanthren-3-one

> <PUBCHEM_IUPAC_SYSTEMATIC_NAME>
(8S,9S,10R,13R,14S,17R)-10,13-dimethyl-17-[(2R)-6-methyl-7-oxidanyl-heptan-2-yl]-1,2,6,7,8,9,11,12,14,15,16,17-dodecahydrocyclopenta[a]phenanthren-3-one

> <PUBCHEM_IUPAC_TRADITIONAL_NAME>
(8S,9S,10R,13R,14S,17R)-17-[(1R)-6-hydroxy-1,5-dimethyl-hexyl]-10,13-dimethyl-1,2,6,7,8,9,11,12,14,15,16,17-dodecahydrocyclopenta[a]phenanthren-3-one

> <PUBCHEM_IUPAC_INCHI>
InChI=1S/C27H44O2/c1-18(17-28)6-5-7-19(2)23-10-11-24-22-9-8-20-16-21(29)12-14-26(20,3)25(22)13-15-27(23,24)4/h16,18-19,22-25,28H,5-15,17H2,1-4H3/t18?,19-,22+,23-,24+,25+,26+,27-/m1/s1

> <PUBCHEM_IUPAC_INCHIKEY>
CXUORUGFOXGJNY-XVENTEFESA-N

> <PUBCHEM_XLOGP3_AA>
7.1

> <PUBCHEM_EXACT_MASS>
400.334131

> <PUBCHEM_MOLECULAR_FORMULA>
C27H44O2

> <PUBCHEM_MOLECULAR_WEIGHT>
400.63706

> <PUBCHEM_OPENEYE_CAN_SMILES>
CC(CCCC(C)C1CCC2C1(CCC3C2CCC4=CC(=O)CCC34C)C)CO

> <PUBCHEM_OPENEYE_ISO_SMILES>
C[C@H](CCCC(C)CO)[C@H]1CC[C@@H]2[C@@]1(CC[C@H]3[C@H]2CCC4=CC(=O)CC[C@]34C)C

> <PUBCHEM_CACTVS_TPSA>
37.3

> <PUBCHEM_MONOISOTOPIC_WEIGHT>
400.334131

> <PUBCHEM_TOTAL_CHARGE>
0

> <PUBCHEM_HEAVY_ATOM_COUNT>
29

> <PUBCHEM_ATOM_DEF_STEREO_COUNT>
7

> <PUBCHEM_ATOM_UDEF_STEREO_COUNT>
1

> <PUBCHEM_BOND_DEF_STEREO_COUNT>
0

> <PUBCHEM_BOND_UDEF_STEREO_COUNT>
0

> <PUBCHEM_ISOTOPIC_ATOM_COUNT>
0

> <PUBCHEM_COMPONENT_COUNT>
1

> <PUBCHEM_CACTVS_TAUTO_COUNT>
5

> <PUBCHEM_COORDINATE_TYPE>
1
5
255

> <PUBCHEM_BONDANNOTATIONS>
10  19  5
14  21  6
27  29  3
3  15  5
4  30  6
5  31  5
6  32  6
7  33  6

$$$$

