443016
  -OEChem-07051213002D

 43 48  0     0  0  0  0  0  0999 V2000
    6.7059    2.5612    0.0000 O   0  0  0  0  0  0  0  0  0  0  0  0
    2.9562   -2.2569    0.0000 O   0  0  0  0  0  0  0  0  0  0  0  0
    4.4081   -3.0952    0.0000 O   0  0  0  0  0  0  0  0  0  0  0  0
    2.8718   -0.0105    0.0000 O   0  0  0  0  0  0  0  0  0  0  0  0
    9.9183   -0.2089    0.0000 O   0  0  0  0  0  0  0  0  0  0  0  0
    9.9183   -1.8184    0.0000 O   0  0  0  0  0  0  0  0  0  0  0  0
    6.3740   -2.0136    0.0000 O   0  0  0  0  0  0  0  0  0  0  0  0
    5.0493    3.2025    0.0000 O   0  0  0  0  0  0  0  0  0  0  0  0
    6.3740   -0.0136    0.0000 C   0  0  0  0  0  0  0  0  0  0  0  0
    6.3740    0.9864    0.0000 C   0  0  0  0  0  0  0  0  0  0  0  0
    5.5080   -0.5136    0.0000 C   0  0  0  0  0  0  0  0  0  0  0  0
    4.6419   -0.0136    0.0000 C   0  0  0  0  0  0  0  0  0  0  0  0
    5.5080    1.4864    0.0000 C   0  0  0  0  0  0  0  0  0  0  0  0
    7.2400   -0.5136    0.0000 C   0  0  0  0  0  0  0  0  0  0  0  0
    4.6419    0.9864    0.0000 C   0  0  0  0  0  0  0  0  0  0  0  0
    7.1110    1.6535    0.0000 C   0  0  0  0  0  0  0  0  0  0  0  0
    3.7319   -0.5205    0.0000 C   0  0  0  0  0  0  0  0  0  0  0  0
    5.5240   -1.5551    0.0000 C   0  0  0  0  0  0  0  0  0  0  0  0
    3.7239   -1.5621    0.0000 C   0  0  0  0  0  0  0  0  0  0  0  0
    4.6260   -2.0829    0.0000 C   0  0  0  0  0  0  0  0  0  0  0  0
    5.7172    2.4582    0.0000 C   0  0  0  0  0  0  0  0  0  0  0  0
    8.1060   -0.0136    0.0000 C   0  0  0  0  0  0  0  0  0  0  0  0
    7.2400   -1.5136    0.0000 C   0  0  0  0  0  0  0  0  0  0  0  0
    8.9721   -0.5136    0.0000 C   0  0  0  0  0  0  0  0  0  0  0  0
    8.9721   -1.5136    0.0000 C   0  0  0  0  0  0  0  0  0  0  0  0
    8.1060   -2.0136    0.0000 C   0  0  0  0  0  0  0  0  0  0  0  0
    3.3782   -3.2025    0.0000 C   0  0  0  0  0  0  0  0  0  0  0  0
   10.5019   -1.0136    0.0000 C   0  0  0  0  0  0  0  0  0  0  0  0
    2.0000   -0.5004    0.0000 C   0  0  0  0  0  0  0  0  0  0  0  0
    4.1050    1.2964    0.0000 H   0  0  0  0  0  0  0  0  0  0  0  0
    7.4764    1.1526    0.0000 H   0  0  0  0  0  0  0  0  0  0  0  0
    7.6475    1.9642    0.0000 H   0  0  0  0  0  0  0  0  0  0  0  0
    6.0645   -1.8589    0.0000 H   0  0  0  0  0  0  0  0  0  0  0  0
    8.1060    0.6064    0.0000 H   0  0  0  0  0  0  0  0  0  0  0  0
    8.1060   -2.6336    0.0000 H   0  0  0  0  0  0  0  0  0  0  0  0
    2.7886   -3.3943    0.0000 H   0  0  0  0  0  0  0  0  0  0  0  0
    3.5069   -3.8090    0.0000 H   0  0  0  0  0  0  0  0  0  0  0  0
   10.9628   -1.4284    0.0000 H   0  0  0  0  0  0  0  0  0  0  0  0
   10.9628   -0.5989    0.0000 H   0  0  0  0  0  0  0  0  0  0  0  0
    6.3740   -2.6336    0.0000 H   0  0  0  0  0  0  0  0  0  0  0  0
    1.6962    0.0400    0.0000 H   0  0  0  0  0  0  0  0  0  0  0  0
    1.4595   -0.8042    0.0000 H   0  0  0  0  0  0  0  0  0  0  0  0
    2.3038   -1.0409    0.0000 H   0  0  0  0  0  0  0  0  0  0  0  0
  1 16  1  0  0  0  0
  1 21  1  0  0  0  0
  2 19  1  0  0  0  0
  2 27  1  0  0  0  0
  3 20  1  0  0  0  0
  3 27  1  0  0  0  0
  4 17  1  0  0  0  0
  4 29  1  0  0  0  0
  5 24  1  0  0  0  0
  5 28  1  0  0  0  0
  6 25  1  0  0  0  0
  6 28  1  0  0  0  0
  7 23  1  0  0  0  0
  7 40  1  0  0  0  0
  8 21  2  0  0  0  0
  9 10  1  0  0  0  0
  9 11  2  0  0  0  0
  9 14  1  0  0  0  0
 10 13  2  0  0  0  0
 10 16  1  0  0  0  0
 11 12  1  0  0  0  0
 11 18  1  0  0  0  0
 12 15  2  0  0  0  0
 12 17  1  0  0  0  0
 13 15  1  0  0  0  0
 13 21  1  0  0  0  0
 14 22  2  0  0  0  0
 14 23  1  0  0  0  0
 15 30  1  0  0  0  0
 16 31  1  0  0  0  0
 16 32  1  0  0  0  0
 17 19  2  0  0  0  0
 18 20  2  0  0  0  0
 18 33  1  0  0  0  0
 19 20  1  0  0  0  0
 22 24  1  0  0  0  0
 22 34  1  0  0  0  0
 23 26  2  0  0  0  0
 24 25  2  0  0  0  0
 25 26  1  0  0  0  0
 26 35  1  0  0  0  0
 27 36  1  0  0  0  0
 27 37  1  0  0  0  0
 28 38  1  0  0  0  0
 28 39  1  0  0  0  0
 29 41  1  0  0  0  0
 29 42  1  0  0  0  0
 29 43  1  0  0  0  0
M  END
> <PUBCHEM_COMPOUND_CID>
443016

> <PUBCHEM_COMPOUND_CANONICALIZED>
1

> <PUBCHEM_CACTVS_COMPLEXITY>
657

> <PUBCHEM_CACTVS_HBOND_ACCEPTOR>
8

> <PUBCHEM_CACTVS_HBOND_DONOR>
1

> <PUBCHEM_CACTVS_ROTATABLE_BOND>
2

> <PUBCHEM_CACTVS_SUBSKEYS>
AAADccB4PAAAAAAAAAAAAAAAAAAAASJEgAAwYMAAAAAAAEjBVAAAGgAACAAADASgmAMyDsAABgCIAiDSCAACCAAkIAAAiAEGiMgdJzKGNBqicSIlwBUOuYfK7PzO4QADCAAYQADCAAYQADCAAAAAAAAAAA==

> <PUBCHEM_IUPAC_OPENEYE_NAME>
9-(6-hydroxy-1,3-benzodioxol-5-yl)-4-methoxy-8H-isobenzofuro[5,6-f][1,3]benzodioxol-6-one

> <PUBCHEM_IUPAC_CAS_NAME>
9-(6-hydroxy-1,3-benzodioxol-5-yl)-4-methoxy-8H-isobenzofuro[5,6-f][1,3]benzodioxol-6-one

> <PUBCHEM_IUPAC_NAME>
9-(6-hydroxy-1,3-benzodioxol-5-yl)-4-methoxy-8H-[2]benzofuro[5,6-f][1,3]benzodioxol-6-one

> <PUBCHEM_IUPAC_SYSTEMATIC_NAME>
4-methoxy-9-(6-oxidanyl-1,3-benzodioxol-5-yl)-8H-[2]benzofuro[5,6-f][1,3]benzodioxol-6-one

> <PUBCHEM_IUPAC_TRADITIONAL_NAME>
9-(6-hydroxy-1,3-benzodioxol-5-yl)-4-methoxy-8H-isobenzofuro[5,6-f][1,3]benzodioxol-6-one

> <PUBCHEM_IUPAC_INCHI>
InChI=1S/C21H14O8/c1-24-19-10-2-11-13(6-25-21(11)23)18(9(10)3-17-20(19)29-8-28-17)12-4-15-16(5-14(12)22)27-7-26-15/h2-5,22H,6-8H2,1H3

> <PUBCHEM_IUPAC_INCHIKEY>
SPDGJRPFXFRCMO-UHFFFAOYSA-N

> <PUBCHEM_XLOGP3_AA>
3.5

> <PUBCHEM_EXACT_MASS>
394.068867

> <PUBCHEM_MOLECULAR_FORMULA>
C21H14O8

> <PUBCHEM_MOLECULAR_WEIGHT>
394.33106

> <PUBCHEM_OPENEYE_CAN_SMILES>
COC1=C2C(=CC3=C(C4=C(C=C31)C(=O)OC4)C5=CC6=C(C=C5O)OCO6)OCO2

> <PUBCHEM_OPENEYE_ISO_SMILES>
COC1=C2C(=CC3=C(C4=C(C=C31)C(=O)OC4)C5=CC6=C(C=C5O)OCO6)OCO2

> <PUBCHEM_CACTVS_TPSA>
92.7

> <PUBCHEM_MONOISOTOPIC_WEIGHT>
394.068867

> <PUBCHEM_TOTAL_CHARGE>
0

> <PUBCHEM_HEAVY_ATOM_COUNT>
29

> <PUBCHEM_ATOM_DEF_STEREO_COUNT>
0

> <PUBCHEM_ATOM_UDEF_STEREO_COUNT>
0

> <PUBCHEM_BOND_DEF_STEREO_COUNT>
0

> <PUBCHEM_BOND_UDEF_STEREO_COUNT>
0

> <PUBCHEM_ISOTOPIC_ATOM_COUNT>
0

> <PUBCHEM_COMPONENT_COUNT>
1

> <PUBCHEM_CACTVS_TAUTO_COUNT>
3

> <PUBCHEM_COORDINATE_TYPE>
1
5
255

> <PUBCHEM_BONDANNOTATIONS>
10  13  8
11  12  8
11  18  8
12  15  8
12  17  8
13  15  8
14  22  8
14  23  8
17  19  8
18  20  8
19  20  8
22  24  8
23  26  8
24  25  8
25  26  8
9  10  8
9  11  8

$$$$

