441844
  -OEChem-07051212562D

 83 89  0     1  0  0  0  0  0999 V2000
    7.6032    4.1129    0.0000 O   0  0  0  0  0  0  0  0  0  0  0  0
    9.3586   -1.0692    0.0000 O   0  0  0  0  0  0  0  0  0  0  0  0
   11.2253    0.0085    0.0000 O   0  0  0  0  0  0  0  0  0  0  0  0
    8.1926   -0.1208    0.0000 O   0  0  0  0  0  0  0  0  0  0  0  0
    2.4774    3.7922    0.0000 O   0  0  0  0  0  0  0  0  0  0  0  0
   12.2210   -1.6263    0.0000 O   0  0  0  0  0  0  0  0  0  0  0  0
    9.4280   -2.1189    0.0000 O   0  0  0  0  0  0  0  0  0  0  0  0
    9.4049   -3.2389    0.0000 O   0  0  0  0  0  0  0  0  0  0  0  0
    2.0000    2.0753    0.0000 O   0  0  0  0  0  0  0  0  0  0  0  0
   10.2535   -4.7488    0.0000 O   0  0  0  0  0  0  0  0  0  0  0  0
    6.7334    3.6196    0.0000 C   0  0  1  0  0  0  0  0  0  0  0  0
    7.6273    3.0849    0.0000 C   0  0  1  0  0  0  0  0  0  0  0  0
    7.6273    2.0849    0.0000 C   0  0  1  0  0  0  0  0  0  0  0  0
    5.8273    3.1058    0.0000 C   0  0  2  0  0  0  0  0  0  0  0  0
    8.4934    1.5849    0.0000 C   0  0  2  0  0  0  0  0  0  0  0  0
    9.3594    2.0849    0.0000 C   0  0  1  0  0  0  0  0  0  0  0  0
    6.7334    1.5503    0.0000 C   0  0  0  0  0  0  0  0  0  0  0  0
    5.8273    2.0641    0.0000 C   0  0  0  0  0  0  0  0  0  0  0  0
    5.0650    3.8065    0.0000 C   0  0  2  0  0  0  0  0  0  0  0  0
    8.4934    3.5849    0.0000 C   0  0  0  0  0  0  0  0  0  0  0  0
    6.5233    4.6335    0.0000 C   0  0  0  0  0  0  0  0  0  0  0  0
    9.3594    3.0849    0.0000 C   0  0  0  0  0  0  0  0  0  0  0  0
    5.4943    4.7488    0.0000 C   0  0  0  0  0  0  0  0  0  0  0  0
    8.4773    0.5434    0.0000 C   0  0  0  0  0  0  0  0  0  0  0  0
   10.2694    1.5781    0.0000 C   0  0  0  0  0  0  0  0  0  0  0  0
    4.9575    2.6124    0.0000 C   0  0  0  0  0  0  0  0  0  0  0  0
    9.3753    0.0157    0.0000 C   0  0  2  0  0  0  0  0  0  0  0  0
   10.2774    0.5365    0.0000 C   0  0  2  0  0  0  0  0  0  0  0  0
    7.8506    0.8189    0.0000 C   0  0  0  0  0  0  0  0  0  0  0  0
    4.0850    3.6078    0.0000 C   0  0  0  0  0  0  0  0  0  0  0  0
   10.2940   -1.6189    0.0000 C   0  0  2  0  0  0  0  0  0  0  0  0
    3.3482    4.2840    0.0000 C   0  0  0  0  0  0  0  0  0  0  0  0
   11.2337   -1.0764    0.0000 C   0  0  2  0  0  0  0  0  0  0  0  0
    3.6696    2.6982    0.0000 C   0  0  0  0  0  0  0  0  0  0  0  0
   10.2766   -2.7489    0.0000 C   0  0  2  0  0  0  0  0  0  0  0  0
    2.6761    2.8121    0.0000 C   0  0  0  0  0  0  0  0  0  0  0  0
   11.2510   -3.3216    0.0000 C   0  0  0  0  0  0  0  0  0  0  0  0
   12.2297   -2.7565    0.0000 C   0  0  1  0  0  0  0  0  0  0  0  0
   13.0977   -3.2531    0.0000 C   0  0  0  0  0  0  0  0  0  0  0  0
    9.3933   -4.2388    0.0000 C   0  0  0  0  0  0  0  0  0  0  0  0
    8.5216   -4.7288    0.0000 C   0  0  0  0  0  0  0  0  0  0  0  0
    8.3635    2.6599    0.0000 H   0  0  0  0  0  0  0  0  0  0  0  0
    7.6339    1.2350    0.0000 H   0  0  0  0  0  0  0  0  0  0  0  0
   10.0922    2.5156    0.0000 H   0  0  0  0  0  0  0  0  0  0  0  0
    6.3398    1.0713    0.0000 H   0  0  0  0  0  0  0  0  0  0  0  0
    7.1380    1.0805    0.0000 H   0  0  0  0  0  0  0  0  0  0  0  0
    5.2165    2.1702    0.0000 H   0  0  0  0  0  0  0  0  0  0  0  0
    5.6183    1.4804    0.0000 H   0  0  0  0  0  0  0  0  0  0  0  0
    4.6792    4.2918    0.0000 H   0  0  0  0  0  0  0  0  0  0  0  0
    8.8919    4.0599    0.0000 H   0  0  0  0  0  0  0  0  0  0  0  0
    8.0948    4.0599    0.0000 H   0  0  0  0  0  0  0  0  0  0  0  0
    7.1403    4.6948    0.0000 H   0  0  0  0  0  0  0  0  0  0  0  0
    6.5272    5.2535    0.0000 H   0  0  0  0  0  0  0  0  0  0  0  0
    9.9700    2.9773    0.0000 H   0  0  0  0  0  0  0  0  0  0  0  0
    9.5714    3.6676    0.0000 H   0  0  0  0  0  0  0  0  0  0  0  0
    5.6277    5.3543    0.0000 H   0  0  0  0  0  0  0  0  0  0  0  0
    4.9062    4.9451    0.0000 H   0  0  0  0  0  0  0  0  0  0  0  0
    7.8682    0.6589    0.0000 H   0  0  0  0  0  0  0  0  0  0  0  0
    8.2593   -0.0370    0.0000 H   0  0  0  0  0  0  0  0  0  0  0  0
   10.8811    1.4767    0.0000 H   0  0  0  0  0  0  0  0  0  0  0  0
   10.4739    2.1634    0.0000 H   0  0  0  0  0  0  0  0  0  0  0  0
    4.6516    3.1518    0.0000 H   0  0  0  0  0  0  0  0  0  0  0  0
    4.4182    2.3066    0.0000 H   0  0  0  0  0  0  0  0  0  0  0  0
    5.2633    2.0731    0.0000 H   0  0  0  0  0  0  0  0  0  0  0  0
    8.6344   -0.4008    0.0000 H   0  0  0  0  0  0  0  0  0  0  0  0
   11.0086    0.9700    0.0000 H   0  0  0  0  0  0  0  0  0  0  0  0
    7.2400    0.9266    0.0000 H   0  0  0  0  0  0  0  0  0  0  0  0
    7.6080    4.7329    0.0000 H   0  0  0  0  0  0  0  0  0  0  0  0
   11.9648   -0.6429    0.0000 H   0  0  0  0  0  0  0  0  0  0  0  0
    3.8128    4.6944    0.0000 H   0  0  0  0  0  0  0  0  0  0  0  0
    2.9885    4.7890    0.0000 H   0  0  0  0  0  0  0  0  0  0  0  0
    3.9745    2.1583    0.0000 H   0  0  0  0  0  0  0  0  0  0  0  0
   10.2706   -3.3689    0.0000 H   0  0  0  0  0  0  0  0  0  0  0  0
   10.8500   -3.7944    0.0000 H   0  0  0  0  0  0  0  0  0  0  0  0
   11.6483   -3.7975    0.0000 H   0  0  0  0  0  0  0  0  0  0  0  0
   12.7649   -2.4434    0.0000 H   0  0  0  0  0  0  0  0  0  0  0  0
    8.8911   -1.8089    0.0000 H   0  0  0  0  0  0  0  0  0  0  0  0
   12.7898   -3.7912    0.0000 H   0  0  0  0  0  0  0  0  0  0  0  0
   13.6358   -3.5611    0.0000 H   0  0  0  0  0  0  0  0  0  0  0  0
   13.4056   -2.7150    0.0000 H   0  0  0  0  0  0  0  0  0  0  0  0
    8.2178   -4.1883    0.0000 H   0  0  0  0  0  0  0  0  0  0  0  0
    7.9811   -5.0325    0.0000 H   0  0  0  0  0  0  0  0  0  0  0  0
    8.8253   -5.2693    0.0000 H   0  0  0  0  0  0  0  0  0  0  0  0
 11  1  1  1  0  0  0
  1 68  1  0  0  0  0
  2 27  1  0  0  0  0
  2 31  1  0  0  0  0
  3 28  1  0  0  0  0
  3 33  1  0  0  0  0
  4 29  2  0  0  0  0
  5 32  1  0  0  0  0
  5 36  1  0  0  0  0
  6 33  1  0  0  0  0
  6 38  1  0  0  0  0
 31  7  1  1  0  0  0
  7 77  1  0  0  0  0
 35  8  1  6  0  0  0
  8 40  1  0  0  0  0
  9 36  2  0  0  0  0
 10 40  2  0  0  0  0
 11 12  1  0  0  0  0
 11 14  1  0  0  0  0
 11 21  1  0  0  0  0
 12 13  1  0  0  0  0
 12 20  1  0  0  0  0
 12 42  1  1  0  0  0
 13 15  1  0  0  0  0
 13 17  1  0  0  0  0
 13 43  1  6  0  0  0
 14 18  1  0  0  0  0
 14 19  1  0  0  0  0
 14 26  1  1  0  0  0
 15 16  1  0  0  0  0
 15 24  1  0  0  0  0
 15 29  1  1  0  0  0
 16 22  1  0  0  0  0
 16 25  1  0  0  0  0
 16 44  1  6  0  0  0
 17 18  1  0  0  0  0
 17 45  1  0  0  0  0
 17 46  1  0  0  0  0
 18 47  1  0  0  0  0
 18 48  1  0  0  0  0
 19 23  1  0  0  0  0
 19 30  1  1  0  0  0
 19 49  1  0  0  0  0
 20 22  1  0  0  0  0
 20 50  1  0  0  0  0
 20 51  1  0  0  0  0
 21 23  1  0  0  0  0
 21 52  1  0  0  0  0
 21 53  1  0  0  0  0
 22 54  1  0  0  0  0
 22 55  1  0  0  0  0
 23 56  1  0  0  0  0
 23 57  1  0  0  0  0
 24 27  1  0  0  0  0
 24 58  1  0  0  0  0
 24 59  1  0  0  0  0
 25 28  1  0  0  0  0
 25 60  1  0  0  0  0
 25 61  1  0  0  0  0
 26 62  1  0  0  0  0
 26 63  1  0  0  0  0
 26 64  1  0  0  0  0
 27 28  1  0  0  0  0
 27 65  1  1  0  0  0
 28 66  1  6  0  0  0
 29 67  1  0  0  0  0
 30 32  1  0  0  0  0
 30 34  2  0  0  0  0
 31 33  1  0  0  0  0
 31 35  1  0  0  0  0
 32 70  1  0  0  0  0
 32 71  1  0  0  0  0
 33 69  1  1  0  0  0
 34 36  1  0  0  0  0
 34 72  1  0  0  0  0
 35 37  1  0  0  0  0
 35 73  1  0  0  0  0
 37 38  1  0  0  0  0
 37 74  1  0  0  0  0
 37 75  1  0  0  0  0
 38 39  1  6  0  0  0
 38 76  1  0  0  0  0
 39 78  1  0  0  0  0
 39 79  1  0  0  0  0
 39 80  1  0  0  0  0
 40 41  1  0  0  0  0
 41 81  1  0  0  0  0
 41 82  1  0  0  0  0
 41 83  1  0  0  0  0
M  END
> <PUBCHEM_COMPOUND_CID>
441844

> <PUBCHEM_COMPOUND_CANONICALIZED>
1

> <PUBCHEM_CACTVS_COMPLEXITY>
1170

> <PUBCHEM_CACTVS_HBOND_ACCEPTOR>
10

> <PUBCHEM_CACTVS_HBOND_DONOR>
2

> <PUBCHEM_CACTVS_ROTATABLE_BOND>
4

> <PUBCHEM_CACTVS_SUBSKEYS>
AAADcfB4PAAAAAAAAAAAAAAAAAAAAYIAAAA0aMECAAAAAGDQAAAAGgAACAAAD1SwgAMCCAAABgCIAijSiAAAAAAgAAAACAEAAEgRBBIAIQAiUAAFgAAPIQPK7PzPgAAAAAAAAADAAAYAADCAAYAADAAAAA==

> <PUBCHEM_IUPAC_INCHI>
InChI=1S/C31H42O10/c1-16-10-25(39-17(2)33)31(36)27(38-16)40-23-12-19-4-5-22-21(29(19,15-32)13-24(23)41-31)6-8-28(3)20(7-9-30(22,28)35)18-11-26(34)37-14-18/h11,15-16,19-25,27,35-36H,4-10,12-14H2,1-3H3/t16-,19+,20-,21+,22-,23-,24-,25+,27+,28-,29-,30+,31+/m1/s1

> <PUBCHEM_IUPAC_INCHIKEY>
OXKMZIABKYHLAR-SVDYBJNLSA-N

> <PUBCHEM_XLOGP3_AA>
1.5

> <PUBCHEM_EXACT_MASS>
574.277798

> <PUBCHEM_MOLECULAR_FORMULA>
C31H42O10

> <PUBCHEM_MOLECULAR_WEIGHT>
574.65918

> <PUBCHEM_OPENEYE_CAN_SMILES>
CC1CC(C2(C(O1)OC3CC4CCC5C(C4(CC3O2)C=O)CCC6(C5(CCC6C7=CC(=O)OC7)O)C)O)OC(=O)C

> <PUBCHEM_OPENEYE_ISO_SMILES>
C[C@@H]1C[C@@H]([C@]2([C@@H](O1)O[C@@H]3C[C@@H]4CC[C@@H]5[C@@H]([C@]4(C[C@H]3O2)C=O)CC[C@]6([C@@]5(CC[C@@H]6C7=CC(=O)OC7)O)C)O)OC(=O)C

> <PUBCHEM_CACTVS_TPSA>
138

> <PUBCHEM_MONOISOTOPIC_WEIGHT>
574.277798

> <PUBCHEM_TOTAL_CHARGE>
0

> <PUBCHEM_HEAVY_ATOM_COUNT>
41

> <PUBCHEM_ATOM_DEF_STEREO_COUNT>
13

> <PUBCHEM_ATOM_UDEF_STEREO_COUNT>
0

> <PUBCHEM_BOND_DEF_STEREO_COUNT>
0

> <PUBCHEM_BOND_UDEF_STEREO_COUNT>
0

> <PUBCHEM_ISOTOPIC_ATOM_COUNT>
0

> <PUBCHEM_COMPONENT_COUNT>
1

> <PUBCHEM_CACTVS_TAUTO_COUNT>
1

> <PUBCHEM_COORDINATE_TYPE>
1
5
255

> <PUBCHEM_BONDANNOTATIONS>
11  1  5
12  42  5
13  43  6
14  26  5
15  29  5
16  44  6
19  30  5
27  65  5
28  66  6
33  69  5
38  39  6
31  7  5
35  8  6

$$$$

