439309
  -OEChem-07051212452D

 24 25  0     1  0  0  0  0  0999 V2000
    7.2622    1.3692    0.0000 O   0  0  0  0  0  0  0  0  0  0  0  0
    5.4804   -1.6896    0.0000 O   0  0  0  0  0  0  0  0  0  0  0  0
    3.7320   -1.6550    0.0000 O   0  0  0  0  0  0  0  0  0  0  0  0
    2.0000    1.3450    0.0000 O   0  0  0  0  0  0  0  0  0  0  0  0
    6.3981    0.8658    0.0000 C   0  0  1  0  0  0  0  0  0  0  0  0
    5.4920    1.3797    0.0000 C   0  0  0  0  0  0  0  0  0  0  0  0
    6.3981   -0.1758    0.0000 C   0  0  0  0  0  0  0  0  0  0  0  0
    4.5981    0.8450    0.0000 C   0  0  0  0  0  0  0  0  0  0  0  0
    4.5981   -0.1550    0.0000 C   0  0  0  0  0  0  0  0  0  0  0  0
    5.4920   -0.6897    0.0000 C   0  0  0  0  0  0  0  0  0  0  0  0
    3.7320    1.3450    0.0000 C   0  0  0  0  0  0  0  0  0  0  0  0
    3.7320   -0.6550    0.0000 C   0  0  0  0  0  0  0  0  0  0  0  0
    2.8660    0.8450    0.0000 C   0  0  0  0  0  0  0  0  0  0  0  0
    2.8660   -0.1550    0.0000 C   0  0  0  0  0  0  0  0  0  0  0  0
    6.9356    0.5569    0.0000 H   0  0  0  0  0  0  0  0  0  0  0  0
    5.8856    1.8587    0.0000 H   0  0  0  0  0  0  0  0  0  0  0  0
    5.0874    1.8494    0.0000 H   0  0  0  0  0  0  0  0  0  0  0  0
    6.6071   -0.7595    0.0000 H   0  0  0  0  0  0  0  0  0  0  0  0
    7.0089   -0.0697    0.0000 H   0  0  0  0  0  0  0  0  0  0  0  0
    3.7320    1.9650    0.0000 H   0  0  0  0  0  0  0  0  0  0  0  0
    2.3291   -0.4650    0.0000 H   0  0  0  0  0  0  0  0  0  0  0  0
    7.8003    1.0612    0.0000 H   0  0  0  0  0  0  0  0  0  0  0  0
    3.1951   -1.9650    0.0000 H   0  0  0  0  0  0  0  0  0  0  0  0
    2.0000    1.9650    0.0000 H   0  0  0  0  0  0  0  0  0  0  0  0
  5  1  1  6  0  0  0
  1 22  1  0  0  0  0
  2 10  2  0  0  0  0
  3 12  1  0  0  0  0
  3 23  1  0  0  0  0
  4 13  1  0  0  0  0
  4 24  1  0  0  0  0
  5  6  1  0  0  0  0
  5  7  1  0  0  0  0
  5 15  1  0  0  0  0
  6  8  1  0  0  0  0
  6 16  1  0  0  0  0
  6 17  1  0  0  0  0
  7 10  1  0  0  0  0
  7 18  1  0  0  0  0
  7 19  1  0  0  0  0
  8  9  1  0  0  0  0
  8 11  2  0  0  0  0
  9 10  1  0  0  0  0
  9 12  2  0  0  0  0
 11 13  1  0  0  0  0
 11 20  1  0  0  0  0
 12 14  1  0  0  0  0
 13 14  2  0  0  0  0
 14 21  1  0  0  0  0
M  END
> <PUBCHEM_COMPOUND_CID>
439309

> <PUBCHEM_COMPOUND_CANONICALIZED>
1

> <PUBCHEM_CACTVS_COMPLEXITY>
240

> <PUBCHEM_CACTVS_HBOND_ACCEPTOR>
4

> <PUBCHEM_CACTVS_HBOND_DONOR>
3

> <PUBCHEM_CACTVS_ROTATABLE_BOND>
0

> <PUBCHEM_CACTVS_SUBSKEYS>
AAADccBwOAAAAAAAAAAAAAAAAAAAAAAAAAAwYAAAAAAAAADBAAAAGgAACAAADBSgmAIwBoAAAgCIAqBSAAACAAAkIAAAiAEGCMgINzaCFRKAcUAl4BUImQeI7LTOoAABCAAYAABAAAIQADAAAAAAAAAAAA==

> <PUBCHEM_IUPAC_OPENEYE_NAME>
(3S)-3,6,8-trihydroxytetralin-1-one

> <PUBCHEM_IUPAC_CAS_NAME>
(3S)-3,6,8-trihydroxy-3,4-dihydro-2H-naphthalen-1-one

> <PUBCHEM_IUPAC_NAME>
(3S)-3,6,8-trihydroxy-3,4-dihydro-2H-naphthalen-1-one

> <PUBCHEM_IUPAC_SYSTEMATIC_NAME>
(3S)-3,6,8-tris(oxidanyl)-3,4-dihydro-2H-naphthalen-1-one

> <PUBCHEM_IUPAC_TRADITIONAL_NAME>
(3S)-3,6,8-trihydroxytetralin-1-one

> <PUBCHEM_IUPAC_INCHI>
InChI=1S/C10H10O4/c11-6-1-5-2-7(12)4-9(14)10(5)8(13)3-6/h1,3,7,11-13H,2,4H2/t7-/m0/s1

> <PUBCHEM_IUPAC_INCHIKEY>
RTWVXIIKUFSDJB-ZETCQYMHSA-N

> <PUBCHEM_XLOGP3_AA>
0.9

> <PUBCHEM_EXACT_MASS>
194.057909

> <PUBCHEM_MOLECULAR_FORMULA>
C10H10O4

> <PUBCHEM_MOLECULAR_WEIGHT>
194.184

> <PUBCHEM_OPENEYE_CAN_SMILES>
C1C(CC(=O)C2=C(C=C(C=C21)O)O)O

> <PUBCHEM_OPENEYE_ISO_SMILES>
C1[C@@H](CC(=O)C2=C(C=C(C=C21)O)O)O

> <PUBCHEM_CACTVS_TPSA>
77.8

> <PUBCHEM_MONOISOTOPIC_WEIGHT>
194.057909

> <PUBCHEM_TOTAL_CHARGE>
0

> <PUBCHEM_HEAVY_ATOM_COUNT>
14

> <PUBCHEM_ATOM_DEF_STEREO_COUNT>
1

> <PUBCHEM_ATOM_UDEF_STEREO_COUNT>
0

> <PUBCHEM_BOND_DEF_STEREO_COUNT>
0

> <PUBCHEM_BOND_UDEF_STEREO_COUNT>
0

> <PUBCHEM_ISOTOPIC_ATOM_COUNT>
0

> <PUBCHEM_COMPONENT_COUNT>
1

> <PUBCHEM_CACTVS_TAUTO_COUNT>
42

> <PUBCHEM_COORDINATE_TYPE>
1
5
255

> <PUBCHEM_BONDANNOTATIONS>
5  1  6
11  13  8
12  14  8
13  14  8
8  11  8
8  9  8
9  12  8

$$$$

