21630814
  -OEChem-07051213103D

 29 28  0     1  0  0  0  0  0999 V2000
    2.0796    3.1465    1.2571 Br  0  0  0  0  0  0  0  0  0  0  0  0
   -2.5037   -2.0650   -0.6505 Cl  0  0  0  0  0  0  0  0  0  0  0  0
    0.6887   -3.2854    0.2647 Cl  0  0  0  0  0  0  0  0  0  0  0  0
   -1.9303    2.1199   -1.8766 Cl  0  0  0  0  0  0  0  0  0  0  0  0
    2.5834    1.1155   -1.3437 O   0  0  0  0  0  0  0  0  0  0  0  0
   -0.5553   -0.9632    0.8913 C   0  0  0  0  0  0  0  0  0  0  0  0
    1.7937   -0.8435   -0.1552 C   0  0  0  0  0  0  0  0  0  0  0  0
   -1.5981   -0.5816   -0.1811 C   0  0  2  0  0  0  0  0  0  0  0  0
    1.8554    0.6860   -0.1886 C   0  0  1  0  0  0  0  0  0  0  0  0
    0.7253   -1.5342    0.3119 C   0  0  0  0  0  0  0  0  0  0  0  0
   -2.5606    0.5169    0.2446 C   0  0  0  0  0  0  0  0  0  0  0  0
    3.0264   -1.5195   -0.7147 C   0  0  0  0  0  0  0  0  0  0  0  0
    2.5014    1.2462    1.0764 C   0  0  0  0  0  0  0  0  0  0  0  0
   -3.3753    0.2965    1.4970 C   0  0  0  0  0  0  0  0  0  0  0  0
   -2.7308    1.6647   -0.4324 C   0  0  0  0  0  0  0  0  0  0  0  0
   -0.9827   -1.6388    1.6444 H   0  0  0  0  0  0  0  0  0  0  0  0
   -0.2846   -0.0619    1.4582 H   0  0  0  0  0  0  0  0  0  0  0  0
   -1.0718   -0.2919   -1.0947 H   0  0  0  0  0  0  0  0  0  0  0  0
    0.8420    1.0829   -0.3088 H   0  0  0  0  0  0  0  0  0  0  0  0
    3.0497   -1.4230   -1.8052 H   0  0  0  0  0  0  0  0  0  0  0  0
    3.1044   -2.5820   -0.4740 H   0  0  0  0  0  0  0  0  0  0  0  0
    3.9298   -1.0528   -0.3064 H   0  0  0  0  0  0  0  0  0  0  0  0
    3.5933    1.1882    1.0489 H   0  0  0  0  0  0  0  0  0  0  0  0
    2.1226    0.7777    1.9890 H   0  0  0  0  0  0  0  0  0  0  0  0
   -4.0093   -0.5897    1.3984 H   0  0  0  0  0  0  0  0  0  0  0  0
   -4.0336    1.1439    1.7186 H   0  0  0  0  0  0  0  0  0  0  0  0
   -2.7190    0.1609    2.3623 H   0  0  0  0  0  0  0  0  0  0  0  0
    2.6221    2.0869   -1.3166 H   0  0  0  0  0  0  0  0  0  0  0  0
   -3.4209    2.4385   -0.1193 H   0  0  0  0  0  0  0  0  0  0  0  0
  1 13  1  0  0  0  0
  2  8  1  0  0  0  0
  3 10  1  0  0  0  0
  4 15  1  0  0  0  0
  5  9  1  0  0  0  0
  5 28  1  0  0  0  0
  6  8  1  0  0  0  0
  6 10  1  0  0  0  0
  6 16  1  0  0  0  0
  6 17  1  0  0  0  0
  7  9  1  0  0  0  0
  7 10  2  0  0  0  0
  7 12  1  0  0  0  0
  8 11  1  0  0  0  0
  8 18  1  0  0  0  0
  9 13  1  0  0  0  0
  9 19  1  0  0  0  0
 11 14  1  0  0  0  0
 11 15  2  0  0  0  0
 12 20  1  0  0  0  0
 12 21  1  0  0  0  0
 12 22  1  0  0  0  0
 13 23  1  0  0  0  0
 13 24  1  0  0  0  0
 14 25  1  0  0  0  0
 14 26  1  0  0  0  0
 14 27  1  0  0  0  0
 15 29  1  0  0  0  0
M  END
> <PUBCHEM_COMPOUND_CID>
21630814

> <PUBCHEM_CONFORMER_RMSD>
0.6

> <PUBCHEM_CONFORMER_DIVERSEORDER>
1
146
250
121
7
225
151
187
94
51
80
174
201
128
64
172
76
47
163
233
263
265
129
230
101
162
10
130
234
71
26
143
149
156
244
267
125
219
238
204
243
252
192
215
202
141
9
226
264
106
236
109
197
195
112
231
246
184
212
232
227
196
269
188
154
144
126
175
153
137
145
8
260
176
147
103
208
189
88
160
82
185
127
164
113
191
158
139
161
69
107
237
178
179
49
221
75
217
203
134
111
253
39
83
68
140
193
41
78
240
11
182
205
60
229
50
239
257
136
36
25
209
256
259
38
93
27
159
81
245
262
100
272
17
148
251
24
194
108
110
89
35
190
216
198
186
266
207
77
235
19
15
72
173
183
3
48
114
249
66
142
59
22
213
87
32
200
54
222
105
115
261
211
65
199
90
135
18
242
52
98
271
122
258
167
84
152
63
45
67
14
171
74
95
53
133
31
157
16
20
62
268
58
131
223
214
44
270
56
220
37
43
30
46
168
169
79
21
132
116
85
165
166
118
170
12
228
155
218
73
210
34
138
206
181
241
28
23
99
29
248
97
91
117
247
124
120
224
96
33
104
92
123
254
4
70
86
13
255
2
150
119
180
42
55
102
61
40
6
5
57
177

> <PUBCHEM_MMFF94_PARTIAL_CHARGES>
16
1 -0.23
11 -0.28
12 0.14
13 0.23
14 0.14
15 -0.01
2 -0.29
28 0.4
29 0.15
3 -0.14
4 -0.14
5 -0.68
6 0.14
7 -0.28
8 0.43
9 0.42

> <PUBCHEM_EFFECTIVE_ROTOR_COUNT>
5

> <PUBCHEM_PHARMACOPHORE_FEATURES>
5
1 1 hydrophobe
1 12 hydrophobe
1 14 hydrophobe
1 5 acceptor
1 5 donor

> <PUBCHEM_HEAVY_ATOM_COUNT>
15

> <PUBCHEM_ATOM_DEF_STEREO_COUNT>
2

> <PUBCHEM_ATOM_UDEF_STEREO_COUNT>
0

> <PUBCHEM_BOND_DEF_STEREO_COUNT>
2

> <PUBCHEM_BOND_UDEF_STEREO_COUNT>
0

> <PUBCHEM_ISOTOPIC_ATOM_COUNT>
0

> <PUBCHEM_COMPONENT_COUNT>
1

> <PUBCHEM_CACTVS_TAUTO_COUNT>
1

> <PUBCHEM_CONFORMER_ID>
014A0F5E00000001

> <PUBCHEM_MMFF94_ENERGY>
22.1464

> <PUBCHEM_FEATURE_SELFOVERLAP>
25.371

> <PUBCHEM_SHAPE_FINGERPRINT>
104564 63 17181367526581045962
11715629 250 18412548729699800815
11759241 127 17608941875800441204
12932764 1 18340767138882143875
13134695 92 18045231685058823116
14386348 128 18410002226336559573
14614273 12 18267040391919969895
15775835 57 18336814334271035149
16945 1 18191312782286675195
17802600 8 18341617057085678567
18186145 218 18114175324432588882
18219364 16 18411141367748875881
18981168 100 18338253638157842121
20233049 118 18198343060140849594
20671657 1 18334287699515981307
21041028 32 17400068068720902667
21524375 3 18339080385029295410
21947302 44 18041561326098135768
230 275 18131356305970894434
23402539 116 17759825653230698302
23419403 2 15970528134706018042
2748010 2 18270393884904370987
2803657 2 17684648014650137112
305870 269 18341346547250418554
31174 14 18266447884186143243
3524813 1 18199749317942925357
549884 4 18260539043799309112
7364860 26 18264776625942744010
74978 22 18187367674584216299
7832392 63 18261958573403412779
8050 44 18263657181392787865
81228 2 17765146168549219274

> <PUBCHEM_SHAPE_MULTIPOLES>
314.38
5.39
3.69
1.46
0.96
0.18
-0.22
-1.86
0.11
-1.41
0.22
0.38
-0.91
1.13

> <PUBCHEM_SHAPE_SELFOVERLAP>
560.374

> <PUBCHEM_SHAPE_VOLUME>
210.4

> <PUBCHEM_COORDINATE_TYPE>
2
5
10

$$$$

