51090944
  -OEChem-06241223013D

 50 53  0     0  0  0  0  0  0999 V2000
   -2.6472    0.3300    1.0764 O   0  0  0  0  0  0  0  0  0  0  0  0
   -1.1631    3.0113   -0.1882 O   0  0  0  0  0  0  0  0  0  0  0  0
    3.9651   -0.3655   -0.1399 N   0  0  0  0  0  0  0  0  0  0  0  0
    0.1774    1.3048    0.6826 N   0  0  0  0  0  0  0  0  0  0  0  0
    2.8353    0.1709    0.6186 C   0  0  0  0  0  0  0  0  0  0  0  0
    1.5872   -0.6922    0.3853 C   0  0  0  0  0  0  0  0  0  0  0  0
    2.5699    1.6266    0.2099 C   0  0  0  0  0  0  0  0  0  0  0  0
    4.2599   -1.7422    0.2815 C   0  0  0  0  0  0  0  0  0  0  0  0
    5.1429    0.5001    0.0114 C   0  0  0  0  0  0  0  0  0  0  0  0
    1.3297    2.1760    0.9141 C   0  0  0  0  0  0  0  0  0  0  0  0
    0.3726   -0.0925    1.0917 C   0  0  0  0  0  0  0  0  0  0  0  0
    5.4078   -2.3360   -0.5365 C   0  0  0  0  0  0  0  0  0  0  0  0
    6.3199   -0.0203   -0.8152 C   0  0  0  0  0  0  0  0  0  0  0  0
    6.6551   -1.4633   -0.4558 C   0  0  0  0  0  0  0  0  0  0  0  0
   -0.9990    1.8413    0.1545 C   0  0  0  0  0  0  0  0  0  0  0  0
   -2.1480    0.9456   -0.0271 C   0  0  0  0  0  0  0  0  0  0  0  0
   -2.8583    0.5862   -1.1490 C   0  0  0  0  0  0  0  0  0  0  0  0
   -3.8664   -0.3138   -0.7133 C   0  0  0  0  0  0  0  0  0  0  0  0
   -3.6939   -0.4379    0.6615 C   0  0  0  0  0  0  0  0  0  0  0  0
   -2.6196    1.0442   -2.5317 C   0  0  0  0  0  0  0  0  0  0  0  0
   -4.9043   -1.0360   -1.3278 C   0  0  0  0  0  0  0  0  0  0  0  0
   -4.4886   -1.2386    1.4797 C   0  0  0  0  0  0  0  0  0  0  0  0
   -5.7203   -1.8504   -0.5307 C   0  0  0  0  0  0  0  0  0  0  0  0
   -5.5141   -1.9483    0.8478 C   0  0  0  0  0  0  0  0  0  0  0  0
    3.0667    0.1579    1.6939 H   0  0  0  0  0  0  0  0  0  0  0  0
    3.3868    2.2971    0.4934 H   0  0  0  0  0  0  0  0  0  0  0  0
    2.4303    1.6986   -0.8767 H   0  0  0  0  0  0  0  0  0  0  0  0
    1.3781   -0.7742   -0.6895 H   0  0  0  0  0  0  0  0  0  0  0  0
    1.6978   -1.7049    0.7835 H   0  0  0  0  0  0  0  0  0  0  0  0
    3.4171   -2.4158    0.1066 H   0  0  0  0  0  0  0  0  0  0  0  0
    4.5063   -1.7846    1.3505 H   0  0  0  0  0  0  0  0  0  0  0  0
    5.4381    0.5900    1.0649 H   0  0  0  0  0  0  0  0  0  0  0  0
    4.9688    1.5062   -0.3790 H   0  0  0  0  0  0  0  0  0  0  0  0
    0.5110   -0.1004    2.1792 H   0  0  0  0  0  0  0  0  0  0  0  0
   -0.4956   -0.7123    0.8651 H   0  0  0  0  0  0  0  0  0  0  0  0
    1.4911    2.2268    1.9975 H   0  0  0  0  0  0  0  0  0  0  0  0
    1.1244    3.1930    0.5649 H   0  0  0  0  0  0  0  0  0  0  0  0
    5.0998   -2.4361   -1.5852 H   0  0  0  0  0  0  0  0  0  0  0  0
    5.6394   -3.3440   -0.1739 H   0  0  0  0  0  0  0  0  0  0  0  0
    7.1985    0.6139   -0.6506 H   0  0  0  0  0  0  0  0  0  0  0  0
    6.0762    0.0420   -1.8836 H   0  0  0  0  0  0  0  0  0  0  0  0
    7.0635   -1.5017    0.5615 H   0  0  0  0  0  0  0  0  0  0  0  0
    7.4287   -1.8490   -1.1288 H   0  0  0  0  0  0  0  0  0  0  0  0
   -3.1790    1.9642   -2.7291 H   0  0  0  0  0  0  0  0  0  0  0  0
   -1.5575    1.2457   -2.7065 H   0  0  0  0  0  0  0  0  0  0  0  0
   -2.9333    0.2908   -3.2612 H   0  0  0  0  0  0  0  0  0  0  0  0
   -5.0793   -0.9712   -2.3974 H   0  0  0  0  0  0  0  0  0  0  0  0
   -4.3224   -1.3094    2.5480 H   0  0  0  0  0  0  0  0  0  0  0  0
   -6.5263   -2.4143   -0.9935 H   0  0  0  0  0  0  0  0  0  0  0  0
   -6.1630   -2.5881    1.4408 H   0  0  0  0  0  0  0  0  0  0  0  0
  1 16  1  0  0  0  0
  1 19  1  0  0  0  0
  2 15  2  0  0  0  0
  3  5  1  0  0  0  0
  3  8  1  0  0  0  0
  3  9  1  0  0  0  0
  4 10  1  0  0  0  0
  4 11  1  0  0  0  0
  4 15  1  0  0  0  0
  5  6  1  0  0  0  0
  5  7  1  0  0  0  0
  5 25  1  0  0  0  0
  6 11  1  0  0  0  0
  6 28  1  0  0  0  0
  6 29  1  0  0  0  0
  7 10  1  0  0  0  0
  7 26  1  0  0  0  0
  7 27  1  0  0  0  0
  8 12  1  0  0  0  0
  8 30  1  0  0  0  0
  8 31  1  0  0  0  0
  9 13  1  0  0  0  0
  9 32  1  0  0  0  0
  9 33  1  0  0  0  0
 10 36  1  0  0  0  0
 10 37  1  0  0  0  0
 11 34  1  0  0  0  0
 11 35  1  0  0  0  0
 12 14  1  0  0  0  0
 12 38  1  0  0  0  0
 12 39  1  0  0  0  0
 13 14  1  0  0  0  0
 13 40  1  0  0  0  0
 13 41  1  0  0  0  0
 14 42  1  0  0  0  0
 14 43  1  0  0  0  0
 15 16  1  0  0  0  0
 16 17  2  0  0  0  0
 17 18  1  0  0  0  0
 17 20  1  0  0  0  0
 18 19  1  0  0  0  0
 18 21  2  0  0  0  0
 19 22  2  0  0  0  0
 20 44  1  0  0  0  0
 20 45  1  0  0  0  0
 20 46  1  0  0  0  0
 21 23  1  0  0  0  0
 21 47  1  0  0  0  0
 22 24  1  0  0  0  0
 22 48  1  0  0  0  0
 23 24  2  0  0  0  0
 23 49  1  0  0  0  0
 24 50  1  0  0  0  0
M  END
> <PUBCHEM_COMPOUND_CID>
51090944

> <PUBCHEM_CONFORMER_RMSD>
0.8

> <PUBCHEM_CONFORMER_DIVERSEORDER>
1
5
15
16
12
3
11
8
6
18
17
9
20
25
21
24
19
22
10
14
26
4
2
13
27
23
7

> <PUBCHEM_MMFF94_PARTIAL_CHARGES>
22
1 -0.28
10 0.3
11 0.3
15 0.71
16 0.05
17 -0.18
19 0.14
2 -0.57
20 0.18
21 -0.15
22 -0.15
23 -0.15
24 -0.15
3 -0.81
4 -0.66
47 0.15
48 0.15
49 0.15
5 0.27
50 0.15
8 0.27
9 0.27

> <PUBCHEM_EFFECTIVE_ROTOR_COUNT>
5.4

> <PUBCHEM_PHARMACOPHORE_FEATURES>
7
1 1 acceptor
1 2 acceptor
1 3 cation
5 1 16 17 18 19 rings
6 18 19 21 22 23 24 rings
6 3 8 9 12 13 14 rings
6 4 5 6 7 10 11 rings

> <PUBCHEM_HEAVY_ATOM_COUNT>
24

> <PUBCHEM_ATOM_DEF_STEREO_COUNT>
0

> <PUBCHEM_ATOM_UDEF_STEREO_COUNT>
0

> <PUBCHEM_BOND_DEF_STEREO_COUNT>
0

> <PUBCHEM_BOND_UDEF_STEREO_COUNT>
0

> <PUBCHEM_ISOTOPIC_ATOM_COUNT>
0

> <PUBCHEM_COMPONENT_COUNT>
1

> <PUBCHEM_CACTVS_TAUTO_COUNT>
1

> <PUBCHEM_CONFORMER_ID>
030B960000000001

> <PUBCHEM_MMFF94_ENERGY>
40.9208

> <PUBCHEM_FEATURE_SELFOVERLAP>
35.622

> <PUBCHEM_SHAPE_FINGERPRINT>
10 15 7060372647725976142
10319926 262 5184348550810097661
10928967 22 17749404701446005502
11089746 13 13183019592990781046
11809386 21 18269561709463287898
12107183 9 18041546045074275041
12166972 35 18060131047168633084
12236239 1 17386283191080659265
12403259 118 6843908503620474209
12422481 6 16660916781222613070
12592606 108 18261676983549697295
12596602 18 16226047751815553539
12633257 1 14923948903556387545
12760667 363 18335137592403717587
13103583 49 16370722612900392859
13402501 40 18412540994353548299
13540713 4 18189920706230390960
13673619 4 18271804593167660865
13690498 29 18342462555889724773
13782708 43 18202004313270359586
13862211 1 18335421288100319730
13955234 65 17897452688059033608
14211702 104 18192430995131161274
14251764 30 18334294249299169342
14347332 77 18339081592099286666
14350574 20 18412824664110599592
14767858 380 18341319025732767756
14950920 106 16081377319078794739
14951699 99 6915965003128187234
15183329 4 16773801424439426666
15188451 53 15358272489698054053
15238133 3 5039677001365972394
15348495 7 6050151251673008846
15537594 2 17530687623650118726
17492 89 18118961628089004238
17780758 139 16660364796505567619
17870717 6 17704076183818817571
1813 80 17968365780180220685
19958102 18 17704068525697574050
20567600 247 18261114062827584110
20871999 31 17561089115820965569
21033650 10 16917076598311315989
21150785 3 17917703592446088806
21267235 1 18410006607619725203
21304303 64 11240006685228094775
21307412 95 18130230351106027611
21315763 76 12463571777284997750
21401589 2 8286200565621808141
21637258 2 17603310327893699771
21713013 43 18060146448451890261
221357 26 18341898480332851666
22393880 68 17988935508416211980
22950370 63 18260826003433530048
23522609 53 17972283327272889208
23559900 14 17917715656381553405
2748736 6 10879994640363388102
2767999 5 11959732651062108158
2838139 119 13326857716583645558
2916195 48 8070037662001616867
312425 83 15337455585803968291
314194 84 18260266335120043850
329604 57 18341610430294051774
34797466 226 17274536525345428644
351380 3 17749391468640703318
3737641 26 17096356410284812614
437815 12 18411985737424558109
439807 62 18342738541597758054
46194498 28 17917151594253389628
465052 167 18186798037303431366
474113 269 17168436952955586655
4938544 92 17241317105406112641
497634 4 18340763831678263165
5104073 3 18114466768519063184
6431902 208 18335702784267114702
6608658 132 15123516938197692358
6669772 16 18050001087639439260
7970288 3 18260270732771409983
8217 86 18343580724633842482
999808 66 18334850615062769454

> <PUBCHEM_SHAPE_MULTIPOLES>
472.21
15.93
2.45
1.42
11.57
0.49
-0.56
-12.33
-3.03
0.19
0.08
-1.7
0.13
1.22

> <PUBCHEM_SHAPE_SELFOVERLAP>
1013.998

> <PUBCHEM_SHAPE_VOLUME>
260.9

> <PUBCHEM_COORDINATE_TYPE>
2
5
10

$$$$

