53297398
  -OEChem-07051213122D

 95101  0     1  0  0  0  0  0999 V2000
    6.0203    2.8642    0.0000 O   0  0  0  0  0  0  0  0  0  0  0  0
    4.2884    2.8441    0.0000 O   0  0  0  0  0  0  0  0  0  0  0  0
    4.2537    5.8439    0.0000 O   0  0  0  0  0  0  0  0  0  0  0  0
    6.9152    0.3743    0.0000 O   0  0  0  0  0  0  0  0  0  0  0  0
    5.1023    7.3538    0.0000 O   0  0  0  0  0  0  0  0  0  0  0  0
    2.5333    4.8240    0.0000 O   0  0  0  0  0  0  0  0  0  0  0  0
    4.2999    1.8442    0.0000 O   0  0  0  0  0  0  0  0  0  0  0  0
    6.0666   -1.1356    0.0000 O   0  0  0  0  0  0  0  0  0  0  0  0
    7.6944    7.8838    0.0000 O   0  0  0  0  0  0  0  0  0  0  0  0
    4.3182   -4.1639    0.0000 O   0  0  0  0  0  0  0  0  0  0  0  0
    5.2223   -2.6670    0.0000 O   0  0  0  0  0  0  0  0  0  0  0  0
    8.6864   -4.6670    0.0000 O   0  0  0  0  0  0  0  0  0  0  0  0
    9.5906   -3.1702    0.0000 O   0  0  0  0  0  0  0  0  0  0  0  0
    8.7786   -5.7126    0.0000 O   0  0  0  0  0  0  0  0  0  0  0  0
    4.2652    4.8440    0.0000 C   0  0  2  0  0  0  0  0  0  0  0  0
    5.1370    4.3540    0.0000 C   0  0  0  0  0  0  0  0  0  0  0  0
    6.0319    1.8642    0.0000 C   0  0  1  0  0  0  0  0  0  0  0  0
    3.4051    4.3340    0.0000 C   0  0  1  0  0  0  0  0  0  0  0  0
    5.1486    3.3541    0.0000 C   0  0  2  0  0  0  0  0  0  0  0  0
    3.4166    3.3341    0.0000 C   0  0  1  0  0  0  0  0  0  0  0  0
    5.1717    1.3542    0.0000 C   0  0  1  0  0  0  0  0  0  0  0  0
    6.9036    1.3743    0.0000 C   0  0  1  0  0  0  0  0  0  0  0  0
    5.1832    0.3543    0.0000 C   0  0  0  0  0  0  0  0  0  0  0  0
    5.1139    6.3539    0.0000 C   0  0  2  0  0  0  0  0  0  0  0  0
    6.0550   -0.1356    0.0000 C   0  0  1  0  0  0  0  0  0  0  0  0
    5.9856    5.8640    0.0000 C   0  0  0  0  0  0  0  0  0  0  0  0
    6.8458    6.3739    0.0000 C   0  0  0  0  0  0  0  0  0  0  0  0
    6.8342    7.3739    0.0000 C   0  0  1  0  0  0  0  0  0  0  0  0
    5.9625    7.8638    0.0000 C   0  0  2  0  0  0  0  0  0  0  0  0
    2.5564    2.8241    0.0000 C   0  0  0  0  0  0  0  0  0  0  0  0
    7.7638    1.8842    0.0000 C   0  0  0  0  0  0  0  0  0  0  0  0
    5.9509    8.8638    0.0000 C   0  0  0  0  0  0  0  0  0  0  0  0
    6.9383   -1.6255    0.0000 C   0  0  0  0  0  0  0  0  0  0  0  0
    6.9544   -2.6670    0.0000 C   0  0  0  0  0  0  0  0  0  0  0  0
    6.0884   -4.1670    0.0000 C   0  0  0  0  0  0  0  0  0  0  0  0
    5.1784   -4.6739    0.0000 C   0  0  1  0  0  0  0  0  0  0  0  0
    6.9544   -4.6670    0.0000 C   0  0  0  0  0  0  0  0  0  0  0  0
    5.1703   -5.7155    0.0000 C   0  0  0  0  0  0  0  0  0  0  0  0
    7.8204   -3.1670    0.0000 C   0  0  0  0  0  0  0  0  0  0  0  0
    6.0884   -3.1670    0.0000 C   0  0  0  0  0  0  0  0  0  0  0  0
    6.9704   -5.7086    0.0000 C   0  0  0  0  0  0  0  0  0  0  0  0
    6.0724   -6.2363    0.0000 C   0  0  0  0  0  0  0  0  0  0  0  0
    7.8204   -4.1670    0.0000 C   0  0  0  0  0  0  0  0  0  0  0  0
    7.8364   -1.0978    0.0000 C   0  0  0  0  0  0  0  0  0  0  0  0
    8.7304   -2.6602    0.0000 C   0  0  0  0  0  0  0  0  0  0  0  0
    8.7384   -1.6186    0.0000 C   0  0  0  0  0  0  0  0  0  0  0  0
    7.9224   -6.2292    0.0000 C   0  0  0  0  0  0  0  0  0  0  0  0
    6.0640   -7.3213    0.0000 C   0  0  0  0  0  0  0  0  0  0  0  0
    7.0037   -7.8638    0.0000 C   0  0  0  0  0  0  0  0  0  0  0  0
    7.9391   -7.3140    0.0000 C   0  0  0  0  0  0  0  0  0  0  0  0
    7.0075   -8.8638    0.0000 C   0  0  0  0  0  0  0  0  0  0  0  0
    3.7248    5.1478    0.0000 H   0  0  0  0  0  0  0  0  0  0  0  0
    5.7488    4.2534    0.0000 H   0  0  0  0  0  0  0  0  0  0  0  0
    5.3423    4.9391    0.0000 H   0  0  0  0  0  0  0  0  0  0  0  0
    6.5652    2.1804    0.0000 H   0  0  0  0  0  0  0  0  0  0  0  0
    2.8718    4.0178    0.0000 H   0  0  0  0  0  0  0  0  0  0  0  0
    5.6819    3.6703    0.0000 H   0  0  0  0  0  0  0  0  0  0  0  0
    3.4238    2.7141    0.0000 H   0  0  0  0  0  0  0  0  0  0  0  0
    4.6384    1.0380    0.0000 H   0  0  0  0  0  0  0  0  0  0  0  0
    7.4441    1.0705    0.0000 H   0  0  0  0  0  0  0  0  0  0  0  0
    4.5715    0.4549    0.0000 H   0  0  0  0  0  0  0  0  0  0  0  0
    4.9780   -0.2307    0.0000 H   0  0  0  0  0  0  0  0  0  0  0  0
    5.1210    5.7340    0.0000 H   0  0  0  0  0  0  0  0  0  0  0  0
    5.5217   -0.4518    0.0000 H   0  0  0  0  0  0  0  0  0  0  0  0
    5.5926    5.3844    0.0000 H   0  0  0  0  0  0  0  0  0  0  0  0
    6.3896    5.3936    0.0000 H   0  0  0  0  0  0  0  0  0  0  0  0
    7.0646    5.7938    0.0000 H   0  0  0  0  0  0  0  0  0  0  0  0
    7.4551    6.4886    0.0000 H   0  0  0  0  0  0  0  0  0  0  0  0
    7.3747    7.0701    0.0000 H   0  0  0  0  0  0  0  0  0  0  0  0
    5.4220    8.1676    0.0000 H   0  0  0  0  0  0  0  0  0  0  0  0
    2.2402    3.3574    0.0000 H   0  0  0  0  0  0  0  0  0  0  0  0
    2.0231    2.5079    0.0000 H   0  0  0  0  0  0  0  0  0  0  0  0
    2.8726    2.2908    0.0000 H   0  0  0  0  0  0  0  0  0  0  0  0
    8.0800    1.3509    0.0000 H   0  0  0  0  0  0  0  0  0  0  0  0
    8.2971    2.2004    0.0000 H   0  0  0  0  0  0  0  0  0  0  0  0
    7.4476    2.4176    0.0000 H   0  0  0  0  0  0  0  0  0  0  0  0
    2.0000    4.5078    0.0000 H   0  0  0  0  0  0  0  0  0  0  0  0
    3.7666    1.5280    0.0000 H   0  0  0  0  0  0  0  0  0  0  0  0
    6.5709    8.8709    0.0000 H   0  0  0  0  0  0  0  0  0  0  0  0
    5.9438    9.4837    0.0000 H   0  0  0  0  0  0  0  0  0  0  0  0
    5.3310    8.8566    0.0000 H   0  0  0  0  0  0  0  0  0  0  0  0
    4.6384   -4.9787    0.0000 H   0  0  0  0  0  0  0  0  0  0  0  0
    8.2349    7.5801    0.0000 H   0  0  0  0  0  0  0  0  0  0  0  0
    4.5603   -5.6047    0.0000 H   0  0  0  0  0  0  0  0  0  0  0  0
    4.9568   -6.2976    0.0000 H   0  0  0  0  0  0  0  0  0  0  0  0
    7.8340   -0.4778    0.0000 H   0  0  0  0  0  0  0  0  0  0  0  0
    9.2766   -1.3107    0.0000 H   0  0  0  0  0  0  0  0  0  0  0  0
    5.5259   -7.6292    0.0000 H   0  0  0  0  0  0  0  0  0  0  0  0
    8.4796   -7.6178    0.0000 H   0  0  0  0  0  0  0  0  0  0  0  0
    3.7777   -4.4677    0.0000 H   0  0  0  0  0  0  0  0  0  0  0  0
    6.3875   -8.8661    0.0000 H   0  0  0  0  0  0  0  0  0  0  0  0
    7.0099   -9.4838    0.0000 H   0  0  0  0  0  0  0  0  0  0  0  0
    7.6275   -8.8614    0.0000 H   0  0  0  0  0  0  0  0  0  0  0  0
   10.1311   -2.8664    0.0000 H   0  0  0  0  0  0  0  0  0  0  0  0
    9.3214   -6.0122    0.0000 H   0  0  0  0  0  0  0  0  0  0  0  0
 17  1  1  6  0  0  0
 19  1  1  6  0  0  0
  2 19  1  0  0  0  0
  2 20  1  0  0  0  0
 15  3  1  6  0  0  0
 24  3  1  6  0  0  0
  4 22  1  0  0  0  0
  4 25  1  0  0  0  0
  5 24  1  0  0  0  0
  5 29  1  0  0  0  0
 18  6  1  1  0  0  0
  6 77  1  0  0  0  0
 21  7  1  1  0  0  0
  7 78  1  0  0  0  0
 25  8  1  1  0  0  0
  8 33  1  0  0  0  0
 28  9  1  1  0  0  0
  9 83  1  0  0  0  0
 36 10  1  1  0  0  0
 10 90  1  0  0  0  0
 11 40  2  0  0  0  0
 12 43  2  0  0  0  0
 13 45  1  0  0  0  0
 13 94  1  0  0  0  0
 14 47  1  0  0  0  0
 14 95  1  0  0  0  0
 15 16  1  0  0  0  0
 15 18  1  0  0  0  0
 15 52  1  0  0  0  0
 16 19  1  0  0  0  0
 16 53  1  0  0  0  0
 16 54  1  0  0  0  0
 17 21  1  0  0  0  0
 17 22  1  0  0  0  0
 17 55  1  0  0  0  0
 18 20  1  0  0  0  0
 18 56  1  0  0  0  0
 19 57  1  0  0  0  0
 20 30  1  6  0  0  0
 20 58  1  0  0  0  0
 21 23  1  0  0  0  0
 21 59  1  0  0  0  0
 22 31  1  1  0  0  0
 22 60  1  0  0  0  0
 23 25  1  0  0  0  0
 23 61  1  0  0  0  0
 23 62  1  0  0  0  0
 24 26  1  0  0  0  0
 24 63  1  0  0  0  0
 25 64  1  0  0  0  0
 26 27  1  0  0  0  0
 26 65  1  0  0  0  0
 26 66  1  0  0  0  0
 27 28  1  0  0  0  0
 27 67  1  0  0  0  0
 27 68  1  0  0  0  0
 28 29  1  0  0  0  0
 28 69  1  0  0  0  0
 29 32  1  1  0  0  0
 29 70  1  0  0  0  0
 30 71  1  0  0  0  0
 30 72  1  0  0  0  0
 30 73  1  0  0  0  0
 31 74  1  0  0  0  0
 31 75  1  0  0  0  0
 31 76  1  0  0  0  0
 32 79  1  0  0  0  0
 32 80  1  0  0  0  0
 32 81  1  0  0  0  0
 33 34  2  0  0  0  0
 33 44  1  0  0  0  0
 34 39  1  0  0  0  0
 34 40  1  0  0  0  0
 35 36  1  0  0  0  0
 35 37  2  0  0  0  0
 35 40  1  0  0  0  0
 36 38  1  0  0  0  0
 36 82  1  0  0  0  0
 37 41  1  0  0  0  0
 37 43  1  0  0  0  0
 38 42  1  0  0  0  0
 38 84  1  0  0  0  0
 38 85  1  0  0  0  0
 39 43  1  0  0  0  0
 39 45  2  0  0  0  0
 41 42  2  0  0  0  0
 41 47  1  0  0  0  0
 42 48  1  0  0  0  0
 44 46  2  0  0  0  0
 44 86  1  0  0  0  0
 45 46  1  0  0  0  0
 46 87  1  0  0  0  0
 47 50  2  0  0  0  0
 48 49  2  0  0  0  0
 48 88  1  0  0  0  0
 49 50  1  0  0  0  0
 49 51  1  0  0  0  0
 50 89  1  0  0  0  0
 51 91  1  0  0  0  0
 51 92  1  0  0  0  0
 51 93  1  0  0  0  0
M  END
> <PUBCHEM_COMPOUND_CID>
53297398

> <PUBCHEM_COMPOUND_CANONICALIZED>
1

> <PUBCHEM_CACTVS_COMPLEXITY>
1320

> <PUBCHEM_CACTVS_HBOND_ACCEPTOR>
14

> <PUBCHEM_CACTVS_HBOND_DONOR>
6

> <PUBCHEM_CACTVS_ROTATABLE_BOND>
6

> <PUBCHEM_CACTVS_SUBSKEYS>
AAADcfB8PAAAAAAAAAAAAAAAAAAAAAAAAAA0aJECAAAAAADBQAAAGgAACAAADBSwmAMyDoAABgCIAqBSAAACCAAkIAAIiAEGCMgdNjaGNRqieWCl4BEPuQfL6PyOwQADAAAYAACCAAYAADAAAAAAAAAAAA==

> <PUBCHEM_IUPAC_OPENEYE_NAME>
(6R)-1,6,11-trihydroxy-8-[(2S,4R,5S,6R)-4-hydroxy-5-[(2S,4R,5R,6R)-5-hydroxy-4-[(2S,5S,6S)-5-hydroxy-6-methyl-tetrahydropyran-2-yl]oxy-6-methyl-tetrahydropyran-2-yl]oxy-6-methyl-tetrahydropyran-2-yl]oxy-3-methyl-5,6-dihydrobenzo[a]anthracene-7,12-dione

> <PUBCHEM_IUPAC_CAS_NAME>
(6R)-1,6,11-trihydroxy-8-[[(2S,4R,5S,6R)-4-hydroxy-5-[[(2S,4R,5R,6R)-5-hydroxy-4-[[(2S,5S,6S)-5-hydroxy-6-methyl-2-oxanyl]oxy]-6-methyl-2-oxanyl]oxy]-6-methyl-2-oxanyl]oxy]-3-methyl-5,6-dihydrobenzo[a]anthracene-7,12-dione

> <PUBCHEM_IUPAC_NAME>
(6R)-1,6,11-trihydroxy-8-[(2S,4R,5S,6R)-4-hydroxy-5-[(2S,4R,5R,6R)-5-hydroxy-4-[(2S,5S,6S)-5-hydroxy-6-methyloxan-2-yl]oxy-6-methyloxan-2-yl]oxy-6-methyloxan-2-yl]oxy-3-methyl-5,6-dihydrobenzo[a]anthracene-7,12-dione

> <PUBCHEM_IUPAC_SYSTEMATIC_NAME>
(6R)-3-methyl-8-[(2S,4R,5S,6R)-6-methyl-5-[(2S,4R,5R,6R)-6-methyl-4-[(2S,5S,6S)-6-methyl-5-oxidanyl-oxan-2-yl]oxy-5-oxidanyl-oxan-2-yl]oxy-4-oxidanyl-oxan-2-yl]oxy-1,6,11-tris(oxidanyl)-5,6-dihydrobenzo[a]anthracene-7,12-dione

> <PUBCHEM_IUPAC_TRADITIONAL_NAME>
(6R)-1,6,11-trihydroxy-8-[(2S,4R,5S,6R)-4-hydroxy-5-[(2S,4R,5R,6R)-5-hydroxy-4-[(2S,5S,6S)-5-hydroxy-6-methyl-tetrahydropyran-2-yl]oxy-6-methyl-tetrahydropyran-2-yl]oxy-6-methyl-tetrahydropyran-2-yl]oxy-3-methyl-5,6-dihydrobenz[a]anthracene-7,12-quinone

> <PUBCHEM_IUPAC_INCHI>
InChI=1S/C37H44O14/c1-14-9-18-11-22(41)31-33(29(18)21(40)10-14)36(45)30-20(39)5-7-24(32(30)35(31)44)49-27-12-23(42)37(17(4)48-27)51-28-13-25(34(43)16(3)47-28)50-26-8-6-19(38)15(2)46-26/h5,7,9-10,15-17,19,22-23,25-28,34,37-43H,6,8,11-13H2,1-4H3/t15-,16+,17+,19-,22+,23+,25+,26-,27-,28-,34+,37+/m0/s1

> <PUBCHEM_IUPAC_INCHIKEY>
RYRHTBKDZLGPGI-VATHHNCSSA-N

> <PUBCHEM_XLOGP3_AA>
2.5

> <PUBCHEM_EXACT_MASS>
712.273106

> <PUBCHEM_MOLECULAR_FORMULA>
C37H44O14

> <PUBCHEM_MOLECULAR_WEIGHT>
712.73686

> <PUBCHEM_OPENEYE_CAN_SMILES>
CC1C(CCC(O1)OC2CC(OC(C2O)C)OC3C(OC(CC3O)OC4=C5C(=C(C=C4)O)C(=O)C6=C(C5=O)C(CC7=CC(=CC(=C76)O)C)O)C)O

> <PUBCHEM_OPENEYE_ISO_SMILES>
C[C@H]1[C@H](CC[C@@H](O1)O[C@@H]2C[C@@H](O[C@@H]([C@H]2O)C)O[C@@H]3[C@H](O[C@H](C[C@H]3O)OC4=C5C(=C(C=C4)O)C(=O)C6=C(C5=O)[C@@H](CC7=CC(=CC(=C76)O)C)O)C)O

> <PUBCHEM_CACTVS_TPSA>
211

> <PUBCHEM_MONOISOTOPIC_WEIGHT>
712.273106

> <PUBCHEM_TOTAL_CHARGE>
0

> <PUBCHEM_HEAVY_ATOM_COUNT>
51

> <PUBCHEM_ATOM_DEF_STEREO_COUNT>
12

> <PUBCHEM_ATOM_UDEF_STEREO_COUNT>
0

> <PUBCHEM_BOND_DEF_STEREO_COUNT>
0

> <PUBCHEM_BOND_UDEF_STEREO_COUNT>
0

> <PUBCHEM_ISOTOPIC_ATOM_COUNT>
0

> <PUBCHEM_COMPONENT_COUNT>
1

> <PUBCHEM_CACTVS_TAUTO_COUNT>
132

> <PUBCHEM_COORDINATE_TYPE>
1
5
255

> <PUBCHEM_BONDANNOTATIONS>
17  1  6
19  1  6
36  10  5
20  30  6
22  31  5
29  32  5
15  3  6
24  3  6
33  34  8
33  44  8
34  39  8
39  45  8
41  42  8
41  47  8
42  48  8
44  46  8
45  46  8
47  50  8
48  49  8
49  50  8
18  6  5
21  7  5
25  8  5
28  9  5

$$$$

