92383
  -OEChem-07051213122D

 43 45  0     0  0  0  0  0  0999 V2000
    2.0000   -0.0818    0.0000 Cl  0  0  0  0  0  0  0  0  0  0  0  0
    3.7320   -3.0818    0.0000 Cl  0  0  0  0  0  0  0  0  0  0  0  0
    5.7195    0.0333    0.0000 O   0  0  0  0  0  0  0  0  0  0  0  0
    2.8660    1.4182    0.0000 O   0  0  0  0  0  0  0  0  0  0  0  0
    6.1354   -1.9230    0.0000 O   0  0  0  0  0  0  0  0  0  0  0  0
    6.1808    1.7546    0.0000 N   0  0  0  0  0  0  0  0  0  0  0  0
    5.6808    2.6206    0.0000 N   0  0  0  0  0  0  0  0  0  0  0  0
    4.5981    1.4182    0.0000 C   0  0  0  0  0  0  0  0  0  0  0  0
    5.5116    1.0114    0.0000 C   0  0  0  0  0  0  0  0  0  0  0  0
    4.7026    2.4127    0.0000 C   0  0  0  0  0  0  0  0  0  0  0  0
    3.7320    0.9182    0.0000 C   0  0  0  0  0  0  0  0  0  0  0  0
    3.7320   -0.0818    0.0000 C   0  0  0  0  0  0  0  0  0  0  0  0
    3.9595    3.0818    0.0000 C   0  0  0  0  0  0  0  0  0  0  0  0
    7.1753    1.6500    0.0000 C   0  0  0  0  0  0  0  0  0  0  0  0
    6.6706   -0.2757    0.0000 C   0  0  0  0  0  0  0  0  0  0  0  0
    6.8785   -1.2539    0.0000 C   0  0  0  0  0  0  0  0  0  0  0  0
    2.8660   -0.5818    0.0000 C   0  0  0  0  0  0  0  0  0  0  0  0
    4.5981   -0.5818    0.0000 C   0  0  0  0  0  0  0  0  0  0  0  0
    7.8296   -1.5629    0.0000 C   0  0  0  0  0  0  0  0  0  0  0  0
    2.8660   -1.5818    0.0000 C   0  0  0  0  0  0  0  0  0  0  0  0
    4.5981   -1.5818    0.0000 C   0  0  0  0  0  0  0  0  0  0  0  0
    3.7320   -2.0818    0.0000 C   0  0  0  0  0  0  0  0  0  0  0  0
    8.0375   -2.5410    0.0000 C   0  0  0  0  0  0  0  0  0  0  0  0
    8.5727   -0.8938    0.0000 C   0  0  0  0  0  0  0  0  0  0  0  0
    8.9885   -2.8501    0.0000 C   0  0  0  0  0  0  0  0  0  0  0  0
    9.5238   -1.2028    0.0000 C   0  0  0  0  0  0  0  0  0  0  0  0
    9.7317   -2.1809    0.0000 C   0  0  0  0  0  0  0  0  0  0  0  0
    4.3743    3.5426    0.0000 H   0  0  0  0  0  0  0  0  0  0  0  0
    3.4987    3.4967    0.0000 H   0  0  0  0  0  0  0  0  0  0  0  0
    3.5446    2.6211    0.0000 H   0  0  0  0  0  0  0  0  0  0  0  0
    7.1105    1.0334    0.0000 H   0  0  0  0  0  0  0  0  0  0  0  0
    7.7919    1.5852    0.0000 H   0  0  0  0  0  0  0  0  0  0  0  0
    7.2401    2.2667    0.0000 H   0  0  0  0  0  0  0  0  0  0  0  0
    7.2902   -0.2541    0.0000 H   0  0  0  0  0  0  0  0  0  0  0  0
    6.7569    0.3382    0.0000 H   0  0  0  0  0  0  0  0  0  0  0  0
    5.1350   -0.2718    0.0000 H   0  0  0  0  0  0  0  0  0  0  0  0
    2.3291   -1.8918    0.0000 H   0  0  0  0  0  0  0  0  0  0  0  0
    5.1350   -1.8918    0.0000 H   0  0  0  0  0  0  0  0  0  0  0  0
    7.5767   -2.9559    0.0000 H   0  0  0  0  0  0  0  0  0  0  0  0
    8.4438   -0.2873    0.0000 H   0  0  0  0  0  0  0  0  0  0  0  0
    9.1174   -3.4565    0.0000 H   0  0  0  0  0  0  0  0  0  0  0  0
    9.9845   -0.7879    0.0000 H   0  0  0  0  0  0  0  0  0  0  0  0
   10.3213   -2.3725    0.0000 H   0  0  0  0  0  0  0  0  0  0  0  0
  1 17  1  0  0  0  0
  2 22  1  0  0  0  0
  3  9  1  0  0  0  0
  3 15  1  0  0  0  0
  4 11  2  0  0  0  0
  5 16  2  0  0  0  0
  6  7  1  0  0  0  0
  6  9  1  0  0  0  0
  6 14  1  0  0  0  0
  7 10  2  0  0  0  0
  8  9  2  0  0  0  0
  8 10  1  0  0  0  0
  8 11  1  0  0  0  0
 10 13  1  0  0  0  0
 11 12  1  0  0  0  0
 12 17  2  0  0  0  0
 12 18  1  0  0  0  0
 13 28  1  0  0  0  0
 13 29  1  0  0  0  0
 13 30  1  0  0  0  0
 14 31  1  0  0  0  0
 14 32  1  0  0  0  0
 14 33  1  0  0  0  0
 15 16  1  0  0  0  0
 15 34  1  0  0  0  0
 15 35  1  0  0  0  0
 16 19  1  0  0  0  0
 17 20  1  0  0  0  0
 18 21  2  0  0  0  0
 18 36  1  0  0  0  0
 19 23  2  0  0  0  0
 19 24  1  0  0  0  0
 20 22  2  0  0  0  0
 20 37  1  0  0  0  0
 21 22  1  0  0  0  0
 21 38  1  0  0  0  0
 23 25  1  0  0  0  0
 23 39  1  0  0  0  0
 24 26  2  0  0  0  0
 24 40  1  0  0  0  0
 25 27  2  0  0  0  0
 25 41  1  0  0  0  0
 26 27  1  0  0  0  0
 26 42  1  0  0  0  0
 27 43  1  0  0  0  0
M  END
> <PUBCHEM_COMPOUND_CID>
92383

> <PUBCHEM_COMPOUND_CANONICALIZED>
1

> <PUBCHEM_CACTVS_COMPLEXITY>
541

> <PUBCHEM_CACTVS_HBOND_ACCEPTOR>
4

> <PUBCHEM_CACTVS_HBOND_DONOR>
0

> <PUBCHEM_CACTVS_ROTATABLE_BOND>
6

> <PUBCHEM_CACTVS_SUBSKEYS>
AAADceB7MAAGAAAAAAAAAAAAAAAAAWAAAAAwYAAAAAAAAAAB0AAAHgIIAAAADA6hniYyhJIIBACqA6RyRAKSDAAlpQAY2CF8TtgMJj7F996Ovejm6BlI7ceYyOCOBAAAAACBAAAIAAAAAQIAAAAAAAAAAA==

> <PUBCHEM_IUPAC_OPENEYE_NAME>
2-[4-(2,4-dichlorobenzoyl)-2,5-dimethyl-pyrazol-3-yl]oxy-1-phenyl-ethanone

> <PUBCHEM_IUPAC_CAS_NAME>
2-[[4-[(2,4-dichlorophenyl)-oxomethyl]-2,5-dimethyl-3-pyrazolyl]oxy]-1-phenylethanone

> <PUBCHEM_IUPAC_NAME>
2-[4-(2,4-dichlorobenzoyl)-2,5-dimethylpyrazol-3-yl]oxy-1-phenylethanone

> <PUBCHEM_IUPAC_SYSTEMATIC_NAME>
2-[4-(2,4-dichlorophenyl)carbonyl-2,5-dimethyl-pyrazol-3-yl]oxy-1-phenyl-ethanone

> <PUBCHEM_IUPAC_TRADITIONAL_NAME>
2-[4-(2,4-dichlorobenzoyl)-2,5-dimethyl-pyrazol-3-yl]oxy-1-phenyl-ethanone

> <PUBCHEM_IUPAC_INCHI>
InChI=1S/C20H16Cl2N2O3/c1-12-18(19(26)15-9-8-14(21)10-16(15)22)20(24(2)23-12)27-11-17(25)13-6-4-3-5-7-13/h3-10H,11H2,1-2H3

> <PUBCHEM_IUPAC_INCHIKEY>
FKERUJTUOYLBKB-UHFFFAOYSA-N

> <PUBCHEM_XLOGP3>
3.7

> <PUBCHEM_EXACT_MASS>
402.053798

> <PUBCHEM_MOLECULAR_FORMULA>
C20H16Cl2N2O3

> <PUBCHEM_MOLECULAR_WEIGHT>
403.25864

> <PUBCHEM_OPENEYE_CAN_SMILES>
CC1=NN(C(=C1C(=O)C2=C(C=C(C=C2)Cl)Cl)OCC(=O)C3=CC=CC=C3)C

> <PUBCHEM_OPENEYE_ISO_SMILES>
CC1=NN(C(=C1C(=O)C2=C(C=C(C=C2)Cl)Cl)OCC(=O)C3=CC=CC=C3)C

> <PUBCHEM_CACTVS_TPSA>
61.2

> <PUBCHEM_MONOISOTOPIC_WEIGHT>
402.053798

> <PUBCHEM_TOTAL_CHARGE>
0

> <PUBCHEM_HEAVY_ATOM_COUNT>
27

> <PUBCHEM_ATOM_DEF_STEREO_COUNT>
0

> <PUBCHEM_ATOM_UDEF_STEREO_COUNT>
0

> <PUBCHEM_BOND_DEF_STEREO_COUNT>
0

> <PUBCHEM_BOND_UDEF_STEREO_COUNT>
0

> <PUBCHEM_ISOTOPIC_ATOM_COUNT>
0

> <PUBCHEM_COMPONENT_COUNT>
1

> <PUBCHEM_CACTVS_TAUTO_COUNT>
2

> <PUBCHEM_COORDINATE_TYPE>
1
5
255

> <PUBCHEM_BONDANNOTATIONS>
12  17  8
12  18  8
17  20  8
18  21  8
19  23  8
19  24  8
20  22  8
21  22  8
23  25  8
24  26  8
25  27  8
26  27  8
6  7  8
6  9  8
7  10  8
8  10  8
8  9  8

$$$$

