582902
  -OEChem-06241222442D

 34 35  0     1  0  0  0  0  0999 V2000
    4.0000   -1.5570    0.0000 O   0  0  0  0  0  0  0  0  0  0  0  0
    8.7806   -0.0958    0.0000 C   0  0  0  0  0  0  0  0  0  0  0  0
    7.2075    1.1113    0.0000 C   0  0  3  0  0  0  0  0  0  0  0  0
    6.9487    0.1454    0.0000 C   0  0  3  0  0  0  0  0  0  0  0  0
    6.4709    2.0940    0.0000 C   0  0  0  0  0  0  0  0  0  0  0  0
    4.6045    0.3035    0.0000 C   0  0  0  0  0  0  0  0  0  0  0  0
    4.5000   -0.6910    0.0000 C   0  0  3  0  0  0  0  0  0  0  0  0
    5.4136   -1.0977    0.0000 C   0  0  0  0  0  0  0  0  0  0  0  0
    9.2806   -0.9618    0.0000 C   0  0  0  0  0  0  0  0  0  0  0  0
    9.6467    0.4042    0.0000 C   0  0  0  0  0  0  0  0  0  0  0  0
    3.5000   -0.6910    0.0000 C   0  0  0  0  0  0  0  0  0  0  0  0
    5.6215   -2.0759    0.0000 C   0  0  0  0  0  0  0  0  0  0  0  0
    3.0000    0.1750    0.0000 C   0  0  0  0  0  0  0  0  0  0  0  0
    2.0000    0.1750    0.0000 C   0  0  0  0  0  0  0  0  0  0  0  0
    7.6484    1.5473    0.0000 H   0  0  0  0  0  0  0  0  0  0  0  0
    7.1170   -0.4513    0.0000 H   0  0  0  0  0  0  0  0  0  0  0  0
    6.7887    2.6263    0.0000 H   0  0  0  0  0  0  0  0  0  0  0  0
    5.8578    2.1859    0.0000 H   0  0  0  0  0  0  0  0  0  0  0  0
    4.5023    0.9150    0.0000 H   0  0  0  0  0  0  0  0  0  0  0  0
    3.9848    0.2846    0.0000 H   0  0  0  0  0  0  0  0  0  0  0  0
    8.7437   -1.2718    0.0000 H   0  0  0  0  0  0  0  0  0  0  0  0
    9.5906   -1.4987    0.0000 H   0  0  0  0  0  0  0  0  0  0  0  0
    9.8176   -0.6518    0.0000 H   0  0  0  0  0  0  0  0  0  0  0  0
    9.9567   -0.1327    0.0000 H   0  0  0  0  0  0  0  0  0  0  0  0
   10.1836    0.7142    0.0000 H   0  0  0  0  0  0  0  0  0  0  0  0
    9.3367    0.9412    0.0000 H   0  0  0  0  0  0  0  0  0  0  0  0
    2.9174   -0.9030    0.0000 H   0  0  0  0  0  0  0  0  0  0  0  0
    3.6077   -1.3016    0.0000 H   0  0  0  0  0  0  0  0  0  0  0  0
    5.1607   -2.4907    0.0000 H   0  0  0  0  0  0  0  0  0  0  0  0
    6.2111   -2.2675    0.0000 H   0  0  0  0  0  0  0  0  0  0  0  0
    4.3100   -2.0940    0.0000 H   0  0  0  0  0  0  0  0  0  0  0  0
    3.3100    0.7120    0.0000 H   0  0  0  0  0  0  0  0  0  0  0  0
    1.6900    0.7120    0.0000 H   0  0  0  0  0  0  0  0  0  0  0  0
    1.6900   -0.3619    0.0000 H   0  0  0  0  0  0  0  0  0  0  0  0
  1  7  1  0  0  0  0
  1 31  1  0  0  0  0
  2  3  1  0  0  0  0
  2  4  1  0  0  0  0
  2  9  1  0  0  0  0
  2 10  1  0  0  0  0
  3  5  1  0  0  0  0
  3  6  1  0  0  0  0
  3 15  1  0  0  0  0
  4  5  1  0  0  0  0
  4  8  1  0  0  0  0
  4 16  1  0  0  0  0
  5 17  1  0  0  0  0
  5 18  1  0  0  0  0
  6  7  1  0  0  0  0
  6 19  1  0  0  0  0
  6 20  1  0  0  0  0
  7  8  1  0  0  0  0
  7 11  1  0  0  0  0
  8 12  2  0  0  0  0
  9 21  1  0  0  0  0
  9 22  1  0  0  0  0
  9 23  1  0  0  0  0
 10 24  1  0  0  0  0
 10 25  1  0  0  0  0
 10 26  1  0  0  0  0
 11 13  1  0  0  0  0
 11 27  1  0  0  0  0
 11 28  1  0  0  0  0
 12 29  1  0  0  0  0
 12 30  1  0  0  0  0
 13 14  2  0  0  0  0
 13 32  1  0  0  0  0
 14 33  1  0  0  0  0
 14 34  1  0  0  0  0
M  END
> <PUBCHEM_COMPOUND_CID>
582902

> <PUBCHEM_COMPOUND_CANONICALIZED>
1

> <PUBCHEM_CACTVS_COMPLEXITY>
290

> <PUBCHEM_CACTVS_HBOND_ACCEPTOR>
1

> <PUBCHEM_CACTVS_HBOND_DONOR>
1

> <PUBCHEM_CACTVS_ROTATABLE_BOND>
2

> <PUBCHEM_CACTVS_SUBSKEYS>
AAADceBwIAAAAAAAAAAAAAAAAABgAAAAAAAwYAAAAAAAAAAAAAAAGgAACAAAD0SAgAACAAAAAgCAAiBCAAAAAAAgAAAIAAAAAAgABAIAAQAAQAAEwAAAEAGAwPAPgAAAAAAAAADAAAYAACAAAAAAAAAAAA==

> <PUBCHEM_IUPAC_OPENEYE_NAME>
3-allyl-6,6-dimethyl-2-methylene-norpinan-3-ol

> <PUBCHEM_IUPAC_CAS_NAME>
6,6-dimethyl-4-methylene-3-prop-2-enyl-3-bicyclo[3.1.1]heptanol

> <PUBCHEM_IUPAC_NAME>
6,6-dimethyl-4-methylidene-3-prop-2-enylbicyclo[3.1.1]heptan-3-ol

> <PUBCHEM_IUPAC_SYSTEMATIC_NAME>
6,6-dimethyl-4-methylidene-3-prop-2-enyl-bicyclo[3.1.1]heptan-3-ol

> <PUBCHEM_IUPAC_TRADITIONAL_NAME>
3-allyl-6,6-dimethyl-2-methylene-norpinan-3-ol

> <PUBCHEM_IUPAC_INCHI>
InChI=1S/C13H20O/c1-5-6-13(14)8-10-7-11(9(13)2)12(10,3)4/h5,10-11,14H,1-2,6-8H2,3-4H3

> <PUBCHEM_IUPAC_INCHIKEY>
RVKFWWCOAWVOOC-UHFFFAOYSA-N

> <PUBCHEM_XLOGP3_AA>
2.7

> <PUBCHEM_EXACT_MASS>
192.151415

> <PUBCHEM_MOLECULAR_FORMULA>
C13H20O

> <PUBCHEM_MOLECULAR_WEIGHT>
192.2973

> <PUBCHEM_OPENEYE_CAN_SMILES>
CC1(C2CC1C(=C)C(C2)(CC=C)O)C

> <PUBCHEM_OPENEYE_ISO_SMILES>
CC1(C2CC1C(=C)C(C2)(CC=C)O)C

> <PUBCHEM_CACTVS_TPSA>
20.2

> <PUBCHEM_MONOISOTOPIC_WEIGHT>
192.151415

> <PUBCHEM_TOTAL_CHARGE>
0

> <PUBCHEM_HEAVY_ATOM_COUNT>
14

> <PUBCHEM_ATOM_DEF_STEREO_COUNT>
0

> <PUBCHEM_ATOM_UDEF_STEREO_COUNT>
3

> <PUBCHEM_BOND_DEF_STEREO_COUNT>
0

> <PUBCHEM_BOND_UDEF_STEREO_COUNT>
0

> <PUBCHEM_ISOTOPIC_ATOM_COUNT>
0

> <PUBCHEM_COMPONENT_COUNT>
1

> <PUBCHEM_CACTVS_TAUTO_COUNT>
1

> <PUBCHEM_COORDINATE_TYPE>
1
5
255

> <PUBCHEM_BONDANNOTATIONS>
7  1  3
3  2  3
4  2  3

$$$$

