221118
  -OEChem-07051213023D

 52 54  0     1  0  0  0  0  0999 V2000
    5.2505    0.8120   -0.2037 O   0  0  0  0  0  0  0  0  0  0  0  0
    3.5174    1.9010   -1.2067 O   0  0  0  0  0  0  0  0  0  0  0  0
    0.5549   -0.8670    0.1581 C   0  0  1  0  0  0  0  0  0  0  0  0
    1.5806    0.2984   -0.1011 C   0  0  2  0  0  0  0  0  0  0  0  0
   -0.7689   -0.5118   -0.6396 C   0  0  2  0  0  0  0  0  0  0  0  0
    3.0730    0.0306    0.2867 C   0  0  2  0  0  0  0  0  0  0  0  0
    1.1526   -2.1896   -0.3856 C   0  0  0  0  0  0  0  0  0  0  0  0
    1.0273    1.6325    0.4394 C   0  0  0  0  0  0  0  0  0  0  0  0
    3.5236   -1.3556   -0.2195 C   0  0  0  0  0  0  0  0  0  0  0  0
    2.5573   -2.4778    0.1360 C   0  0  0  0  0  0  0  0  0  0  0  0
   -1.2963    0.8758   -0.2775 C   0  0  0  0  0  0  0  0  0  0  0  0
   -0.2891    1.9990   -0.2459 C   0  0  0  0  0  0  0  0  0  0  0  0
    0.2228   -1.0524    1.6617 C   0  0  0  0  0  0  0  0  0  0  0  0
   -1.8637   -1.6047   -0.5272 C   0  0  0  0  0  0  0  0  0  0  0  0
    3.4211    0.2028    1.7730 C   0  0  0  0  0  0  0  0  0  0  0  0
    3.9378    1.0258   -0.4647 C   0  0  0  0  0  0  0  0  0  0  0  0
   -3.2249   -1.1083   -1.0080 C   0  0  0  0  0  0  0  0  0  0  0  0
   -2.6005    1.1215   -0.0535 C   0  0  0  0  0  0  0  0  0  0  0  0
   -3.6350    0.1238   -0.2452 C   0  0  0  0  0  0  0  0  0  0  0  0
   -4.8865    0.3083    0.1993 C   0  0  0  0  0  0  0  0  0  0  0  0
   -5.9586   -0.7223    0.0021 C   0  0  0  0  0  0  0  0  0  0  0  0
   -5.2956    1.5577    0.9219 C   0  0  0  0  0  0  0  0  0  0  0  0
    1.5947    0.4058   -1.1992 H   0  0  0  0  0  0  0  0  0  0  0  0
   -0.5049   -0.4536   -1.7071 H   0  0  0  0  0  0  0  0  0  0  0  0
    1.1899   -2.1517   -1.4825 H   0  0  0  0  0  0  0  0  0  0  0  0
    0.5074   -3.0383   -0.1289 H   0  0  0  0  0  0  0  0  0  0  0  0
    1.7278    2.4591    0.2871 H   0  0  0  0  0  0  0  0  0  0  0  0
    0.8713    1.5764    1.5226 H   0  0  0  0  0  0  0  0  0  0  0  0
    4.5153   -1.6141    0.1744 H   0  0  0  0  0  0  0  0  0  0  0  0
    3.6345   -1.3344   -1.3131 H   0  0  0  0  0  0  0  0  0  0  0  0
    2.9177   -3.4131   -0.3089 H   0  0  0  0  0  0  0  0  0  0  0  0
    2.5422   -2.6397    1.2189 H   0  0  0  0  0  0  0  0  0  0  0  0
   -0.0737    2.2843   -1.2841 H   0  0  0  0  0  0  0  0  0  0  0  0
   -0.7020    2.8906    0.2413 H   0  0  0  0  0  0  0  0  0  0  0  0
    1.1062   -1.1806    2.2812 H   0  0  0  0  0  0  0  0  0  0  0  0
   -0.3454   -0.2136    2.0740 H   0  0  0  0  0  0  0  0  0  0  0  0
   -0.3732   -1.9550    1.8315 H   0  0  0  0  0  0  0  0  0  0  0  0
   -1.9814   -1.9510    0.5044 H   0  0  0  0  0  0  0  0  0  0  0  0
   -1.5731   -2.4792   -1.1212 H   0  0  0  0  0  0  0  0  0  0  0  0
    4.4972    0.1047    1.9611 H   0  0  0  0  0  0  0  0  0  0  0  0
    3.1348    1.1931    2.1425 H   0  0  0  0  0  0  0  0  0  0  0  0
    2.9534   -0.5465    2.4096 H   0  0  0  0  0  0  0  0  0  0  0  0
   -3.9262   -1.9405   -0.8989 H   0  0  0  0  0  0  0  0  0  0  0  0
   -3.1740   -0.8706   -2.0784 H   0  0  0  0  0  0  0  0  0  0  0  0
   -2.8926    2.1354    0.2017 H   0  0  0  0  0  0  0  0  0  0  0  0
    5.8269    1.4456   -0.6818 H   0  0  0  0  0  0  0  0  0  0  0  0
   -5.9150   -1.4777    0.7929 H   0  0  0  0  0  0  0  0  0  0  0  0
   -6.9501   -0.2562    0.0410 H   0  0  0  0  0  0  0  0  0  0  0  0
   -5.9070   -1.2103   -0.9756 H   0  0  0  0  0  0  0  0  0  0  0  0
   -5.6001    2.3308    0.2092 H   0  0  0  0  0  0  0  0  0  0  0  0
   -6.1513    1.3547    1.5767 H   0  0  0  0  0  0  0  0  0  0  0  0
   -4.5190    1.9542    1.5827 H   0  0  0  0  0  0  0  0  0  0  0  0
  1 16  1  0  0  0  0
  1 46  1  0  0  0  0
  2 16  2  0  0  0  0
  3  4  1  0  0  0  0
  3  5  1  0  0  0  0
  3  7  1  0  0  0  0
  3 13  1  0  0  0  0
  4  6  1  0  0  0  0
  4  8  1  0  0  0  0
  4 23  1  0  0  0  0
  5 11  1  0  0  0  0
  5 14  1  0  0  0  0
  5 24  1  0  0  0  0
  6  9  1  0  0  0  0
  6 15  1  0  0  0  0
  6 16  1  0  0  0  0
  7 10  1  0  0  0  0
  7 25  1  0  0  0  0
  7 26  1  0  0  0  0
  8 12  1  0  0  0  0
  8 27  1  0  0  0  0
  8 28  1  0  0  0  0
  9 10  1  0  0  0  0
  9 29  1  0  0  0  0
  9 30  1  0  0  0  0
 10 31  1  0  0  0  0
 10 32  1  0  0  0  0
 11 12  1  0  0  0  0
 11 18  2  0  0  0  0
 12 33  1  0  0  0  0
 12 34  1  0  0  0  0
 13 35  1  0  0  0  0
 13 36  1  0  0  0  0
 13 37  1  0  0  0  0
 14 17  1  0  0  0  0
 14 38  1  0  0  0  0
 14 39  1  0  0  0  0
 15 40  1  0  0  0  0
 15 41  1  0  0  0  0
 15 42  1  0  0  0  0
 17 19  1  0  0  0  0
 17 43  1  0  0  0  0
 17 44  1  0  0  0  0
 18 19  1  0  0  0  0
 18 45  1  0  0  0  0
 19 20  2  0  0  0  0
 20 21  1  0  0  0  0
 20 22  1  0  0  0  0
 21 47  1  0  0  0  0
 21 48  1  0  0  0  0
 21 49  1  0  0  0  0
 22 50  1  0  0  0  0
 22 51  1  0  0  0  0
 22 52  1  0  0  0  0
M  END
> <PUBCHEM_COMPOUND_CID>
221118

> <PUBCHEM_CONFORMER_RMSD>
0.6

> <PUBCHEM_CONFORMER_DIVERSEORDER>
1
2

> <PUBCHEM_MMFF94_PARTIAL_CHARGES>
15
1 -0.65
11 -0.28
12 0.14
16 0.66
17 0.14
18 -0.15
19 -0.14
2 -0.57
20 -0.28
21 0.14
22 0.14
45 0.15
46 0.5
5 0.14
6 0.06

> <PUBCHEM_EFFECTIVE_ROTOR_COUNT>
2.6

> <PUBCHEM_PHARMACOPHORE_FEATURES>
7
1 1 acceptor
1 2 acceptor
3 1 2 16 anion
3 20 21 22 hydrophobe
6 3 4 5 8 11 12 rings
6 3 4 6 7 9 10 rings
6 5 11 14 17 18 19 rings

> <PUBCHEM_HEAVY_ATOM_COUNT>
22

> <PUBCHEM_ATOM_DEF_STEREO_COUNT>
4

> <PUBCHEM_ATOM_UDEF_STEREO_COUNT>
0

> <PUBCHEM_BOND_DEF_STEREO_COUNT>
0

> <PUBCHEM_BOND_UDEF_STEREO_COUNT>
0

> <PUBCHEM_ISOTOPIC_ATOM_COUNT>
0

> <PUBCHEM_COMPONENT_COUNT>
1

> <PUBCHEM_CACTVS_TAUTO_COUNT>
1

> <PUBCHEM_CONFORMER_ID>
00035FBE00000001

> <PUBCHEM_MMFF94_ENERGY>
70.0524

> <PUBCHEM_FEATURE_SELFOVERLAP>
35.61

> <PUBCHEM_SHAPE_FINGERPRINT>
10090160 65 18202568375482874430
10616163 171 18336828584978317983
10906281 52 18271514305007963372
10967382 1 18410015437766472118
11089746 13 17168155558580609113
11132069 177 18338530693386293409
12107183 9 17686895434050348057
12236239 1 18334011705096927113
12403814 3 18059862770404922293
12553582 1 18337403672609421021
12592029 89 18410292518796590194
12644460 14 18272087222873272512
12788726 201 17241035617354634849
13140716 1 18193286195236732297
13221675 6 18410300215757565167
13224815 77 18273498991561136279
14341114 176 18409439311533862307
14341114 328 18202005412707751027
14787075 74 18201999898286195505
14790565 3 18338228250353630060
15196674 1 18409166653734548591
15238133 3 16588587651031608571
15536298 74 18261677059708803383
15664445 248 18262783108799550636
15788980 27 14764348241286551107
1601671 61 18335421261613006576
16945 1 18336840714192314724
17492 89 18196657512604690298
1813 80 17560796662897122149
18186145 218 17775853410491038862
20739085 24 18266446784405671685
21267235 1 18337103566001354718
21421861 104 18128825320477598370
23402539 116 18334863771127228972
23559900 14 18194969762356073038
2748010 2 17906466763160145892
296302 2 17988924466213419569
34797466 226 16153710869276488457
34934 24 18408608067278009031
350125 39 18264205988451004150
4340502 62 16917068836940882768
4409770 3 16327951963337320326
44154327 71 18411134736408703806
474 4 18202561752785553492
5104073 3 18335422413239281659
537710 114 18409166610347337508
633830 44 18202565089875090983
8272917 22 18410288142430721830
9981440 41 17183916765850226265

> <PUBCHEM_SHAPE_MULTIPOLES>
441.01
10.54
2.22
1.1
8.54
0.36
0.36
-1.83
0.51
-0.92
-0.22
-0.43
-0.03
-0.86

> <PUBCHEM_SHAPE_SELFOVERLAP>
929.115

> <PUBCHEM_SHAPE_VOLUME>
244.9

> <PUBCHEM_COORDINATE_TYPE>
2
5
10

$$$$

