5160
  -OEChem-06261200323D

 62 63  0     1  0  0  0  0  0999 V2000
   -2.5951   -0.2290   -0.1604 O   0  0  0  0  0  0  0  0  0  0  0  0
   -0.3572   -1.5594    0.8170 O   0  0  0  0  0  0  0  0  0  0  0  0
    0.6642   -3.5237    1.4629 O   0  0  0  0  0  0  0  0  0  0  0  0
    3.6247    0.3193   -2.1392 O   0  0  0  0  0  0  0  0  0  0  0  0
    5.4972   -1.5450    1.7933 O   0  0  0  0  0  0  0  0  0  0  0  0
    4.0464    0.1138    2.3467 O   0  0  0  0  0  0  0  0  0  0  0  0
   -2.4225   -3.4350   -1.6187 N   0  0  0  0  0  0  0  0  0  0  0  0
   -1.5036   -2.2978    0.3819 C   0  0  2  0  0  0  0  0  0  0  0  0
   -1.2833   -2.7074   -1.0762 C   0  0  0  0  0  0  0  0  0  0  0  0
   -2.7454   -1.4326    0.5860 C   0  0  0  0  0  0  0  0  0  0  0  0
   -1.0137    2.0534    0.5242 C   0  0  0  0  0  0  0  0  0  0  0  0
   -2.4982    2.0201    0.6799 C   0  0  0  0  0  0  0  0  0  0  0  0
   -0.5392    2.5632   -0.8504 C   0  0  0  0  0  0  0  0  0  0  0  0
   -3.2260    0.8825    0.3310 C   0  0  0  0  0  0  0  0  0  0  0  0
    0.9624    2.5559   -1.0017 C   0  0  0  0  0  0  0  0  0  0  0  0
   -3.1569    3.1433    1.1800 C   0  0  0  0  0  0  0  0  0  0  0  0
   -2.4738   -3.3030   -3.0763 C   0  0  0  0  0  0  0  0  0  0  0  0
   -2.3609   -4.8484   -1.2402 C   0  0  0  0  0  0  0  0  0  0  0  0
   -4.6126    0.8683    0.4820 C   0  0  0  0  0  0  0  0  0  0  0  0
    0.6600   -2.3067    1.3412 C   0  0  0  0  0  0  0  0  0  0  0  0
   -4.5434    3.1291    1.3311 C   0  0  0  0  0  0  0  0  0  0  0  0
   -5.2713    1.9915    0.9821 C   0  0  0  0  0  0  0  0  0  0  0  0
    1.7842   -1.3797    1.7508 C   0  0  0  0  0  0  0  0  0  0  0  0
    1.6075    1.4267   -1.5062 C   0  0  0  0  0  0  0  0  0  0  0  0
    1.7053    3.6789   -0.6371 C   0  0  0  0  0  0  0  0  0  0  0  0
    2.9953    1.4205   -1.6462 C   0  0  0  0  0  0  0  0  0  0  0  0
    3.1653   -1.9990    1.5733 C   0  0  0  0  0  0  0  0  0  0  0  0
    3.0930    3.6727   -0.7770 C   0  0  0  0  0  0  0  0  0  0  0  0
    3.7380    2.5435   -1.2816 C   0  0  0  0  0  0  0  0  0  0  0  0
    4.2549   -1.0220    1.9403 C   0  0  0  0  0  0  0  0  0  0  0  0
    2.8048   -0.7938   -2.4923 C   0  0  0  0  0  0  0  0  0  0  0  0
   -1.6348   -3.1861    1.0121 H   0  0  0  0  0  0  0  0  0  0  0  0
   -0.3489   -3.2748   -1.1854 H   0  0  0  0  0  0  0  0  0  0  0  0
   -1.1074   -1.7857   -1.6495 H   0  0  0  0  0  0  0  0  0  0  0  0
   -3.6555   -1.9522    0.2680 H   0  0  0  0  0  0  0  0  0  0  0  0
   -2.8330   -1.1970    1.6551 H   0  0  0  0  0  0  0  0  0  0  0  0
   -0.5832    2.6878    1.3118 H   0  0  0  0  0  0  0  0  0  0  0  0
   -0.5913    1.0612    0.7198 H   0  0  0  0  0  0  0  0  0  0  0  0
   -0.9158    3.5806   -1.0212 H   0  0  0  0  0  0  0  0  0  0  0  0
   -0.9853    1.9548   -1.6487 H   0  0  0  0  0  0  0  0  0  0  0  0
   -2.6025    4.0372    1.4534 H   0  0  0  0  0  0  0  0  0  0  0  0
   -2.5910   -2.2523   -3.3645 H   0  0  0  0  0  0  0  0  0  0  0  0
   -1.5717   -3.6969   -3.5584 H   0  0  0  0  0  0  0  0  0  0  0  0
   -3.3423   -3.8348   -3.4808 H   0  0  0  0  0  0  0  0  0  0  0  0
   -2.3845   -4.9718   -0.1528 H   0  0  0  0  0  0  0  0  0  0  0  0
   -1.4612   -5.3427   -1.6250 H   0  0  0  0  0  0  0  0  0  0  0  0
   -3.2353   -5.3841   -1.6275 H   0  0  0  0  0  0  0  0  0  0  0  0
   -5.1944   -0.0069    0.2060 H   0  0  0  0  0  0  0  0  0  0  0  0
   -5.0566    4.0040    1.7194 H   0  0  0  0  0  0  0  0  0  0  0  0
   -6.3512    1.9814    1.0976 H   0  0  0  0  0  0  0  0  0  0  0  0
    1.7245   -0.4668    1.1450 H   0  0  0  0  0  0  0  0  0  0  0  0
    1.6156   -1.0925    2.7950 H   0  0  0  0  0  0  0  0  0  0  0  0
    0.9809    0.5808   -1.7696 H   0  0  0  0  0  0  0  0  0  0  0  0
    1.2140    4.5636   -0.2409 H   0  0  0  0  0  0  0  0  0  0  0  0
    3.2641   -2.8833    2.2122 H   0  0  0  0  0  0  0  0  0  0  0  0
    3.3078   -2.3037    0.5307 H   0  0  0  0  0  0  0  0  0  0  0  0
    3.6715    4.5467   -0.4923 H   0  0  0  0  0  0  0  0  0  0  0  0
    4.8193    2.5443   -1.3878 H   0  0  0  0  0  0  0  0  0  0  0  0
    3.4705   -1.5822   -2.8588 H   0  0  0  0  0  0  0  0  0  0  0  0
    2.1213   -0.5457   -3.3114 H   0  0  0  0  0  0  0  0  0  0  0  0
    2.2782   -1.2002   -1.6222 H   0  0  0  0  0  0  0  0  0  0  0  0
    6.1964   -0.9042    2.0441 H   0  0  0  0  0  0  0  0  0  0  0  0
  1 10  1  0  0  0  0
  1 14  1  0  0  0  0
  2  8  1  0  0  0  0
  2 20  1  0  0  0  0
  3 20  2  0  0  0  0
  4 26  1  0  0  0  0
  4 31  1  0  0  0  0
  5 30  1  0  0  0  0
  5 62  1  0  0  0  0
  6 30  2  0  0  0  0
  7  9  1  0  0  0  0
  7 17  1  0  0  0  0
  7 18  1  0  0  0  0
  8  9  1  0  0  0  0
  8 10  1  0  0  0  0
  8 32  1  0  0  0  0
  9 33  1  0  0  0  0
  9 34  1  0  0  0  0
 10 35  1  0  0  0  0
 10 36  1  0  0  0  0
 11 12  1  0  0  0  0
 11 13  1  0  0  0  0
 11 37  1  0  0  0  0
 11 38  1  0  0  0  0
 12 14  1  0  0  0  0
 12 16  2  0  0  0  0
 13 15  1  0  0  0  0
 13 39  1  0  0  0  0
 13 40  1  0  0  0  0
 14 19  2  0  0  0  0
 15 24  2  0  0  0  0
 15 25  1  0  0  0  0
 16 21  1  0  0  0  0
 16 41  1  0  0  0  0
 17 42  1  0  0  0  0
 17 43  1  0  0  0  0
 17 44  1  0  0  0  0
 18 45  1  0  0  0  0
 18 46  1  0  0  0  0
 18 47  1  0  0  0  0
 19 22  1  0  0  0  0
 19 48  1  0  0  0  0
 20 23  1  0  0  0  0
 21 22  2  0  0  0  0
 21 49  1  0  0  0  0
 22 50  1  0  0  0  0
 23 27  1  0  0  0  0
 23 51  1  0  0  0  0
 23 52  1  0  0  0  0
 24 26  1  0  0  0  0
 24 53  1  0  0  0  0
 25 28  2  0  0  0  0
 25 54  1  0  0  0  0
 26 29  2  0  0  0  0
 27 30  1  0  0  0  0
 27 55  1  0  0  0  0
 27 56  1  0  0  0  0
 28 29  1  0  0  0  0
 28 57  1  0  0  0  0
 29 58  1  0  0  0  0
 31 59  1  0  0  0  0
 31 60  1  0  0  0  0
 31 61  1  0  0  0  0
M  END
> <PUBCHEM_COMPOUND_CID>
5160

> <PUBCHEM_CONFORMER_RMSD>
1.2

> <PUBCHEM_CONFORMER_DIVERSEORDER>
1
178
8
243
73
206
215
35
222
263
93
284
280
228
25
140
265
64
262
104
63
157
273
54
227
238
187
218
110
148
256
139
102
75
266
92
153
249
111
239
34
162
69
42
230
285
250
15
159
113
116
38
247
121
163
182
26
151
88
211
260
183
89
128
170
114
176
267
180
108
136
199
201
9
198
56
122
61
11
138
191
251
194
281
255
107
141
269
74
221
23
261
200
51
205
203
90
167
195
277
190
6
188
149
233
28
216
196
131
184
177
99
275
87
57
105
202
143
244
10
145
283
17
33
207
101
179
118
84
171
181
103
175
47
43
259
29
234
21
46
97
127
264
24
254
31
164
204
27
271
226
245
91
100
96
235
62
2
45
147
241
214
49
223
94
258
135
40
115
231
210
112
32
20
72
276
76
150
268
193
52
197
81
18
155
237
185
173
146
209
117
225
156
79
137
119
16
282
58
3
133
106
242
4
154
144
217
70
246
77
60
67
65
71
158
123
212
78
82
50
55
13
192
132
142
125
41
109
129
53
257
208
172
166
37
220
213
66
12
5
236
7
48
248
152
68
30
224
189
169
168
44
219
186
274
36
165
278
272
134
86
270
80
14
252
83
161
22
95
124
279
98
85
229
19
174
130
120
59
240
253
232
39
126
160

> <PUBCHEM_MMFF94_PARTIAL_CHARGES>
40
1 -0.36
10 0.28
11 0.14
12 -0.14
13 0.14
14 0.08
15 -0.14
16 -0.15
17 0.27
18 0.27
19 -0.15
2 -0.43
20 0.66
21 -0.15
22 -0.15
23 0.06
24 -0.15
25 -0.15
26 0.08
27 0.06
28 -0.15
29 -0.15
3 -0.57
30 0.66
31 0.28
4 -0.36
41 0.15
48 0.15
49 0.15
5 -0.65
50 0.15
53 0.15
54 0.15
57 0.15
58 0.15
6 -0.57
62 0.5
7 -0.81
8 0.28
9 0.27

> <PUBCHEM_EFFECTIVE_ROTOR_COUNT>
14

> <PUBCHEM_PHARMACOPHORE_FEATURES>
9
1 1 acceptor
1 3 acceptor
1 4 acceptor
1 5 acceptor
1 6 acceptor
1 7 cation
3 5 6 30 anion
6 12 14 16 19 21 22 rings
6 15 24 25 26 28 29 rings

> <PUBCHEM_HEAVY_ATOM_COUNT>
31

> <PUBCHEM_ATOM_DEF_STEREO_COUNT>
0

> <PUBCHEM_ATOM_UDEF_STEREO_COUNT>
1

> <PUBCHEM_BOND_DEF_STEREO_COUNT>
0

> <PUBCHEM_BOND_UDEF_STEREO_COUNT>
0

> <PUBCHEM_ISOTOPIC_ATOM_COUNT>
0

> <PUBCHEM_COMPONENT_COUNT>
1

> <PUBCHEM_CACTVS_TAUTO_COUNT>
1

> <PUBCHEM_CONFORMER_ID>
0000142800000001

> <PUBCHEM_MMFF94_ENERGY>
83.9693

> <PUBCHEM_FEATURE_SELFOVERLAP>
45.727

> <PUBCHEM_SHAPE_FINGERPRINT>
10006869 2 18269540660356533003
10032420 55 14456695662003098476
1100329 8 18273210923941489048
11513181 2 17606980643557295591
11578080 2 16588576492484728098
12156800 1 17604722049009817862
12788726 201 18048593716559488935
14117953 113 17982454003255825701
14840074 17 18059010713170303144
14955137 171 18058442287186249242
15840311 113 16095453632728378201
18336668 15 17345754230661407776
19319366 153 17702075119710969230
2132832 1 18195268636266314278
21796203 349 17698973462092629160
23558518 356 18052522284190215684
23559900 14 18115007671968413068
25019877 29 17605859107558895455
445580 8 18198900503619091416
463206 1 17988351642204570984
474144 1 17916008230766862768
5895379 119 18334294249668304646
6287921 2 17541932531046644057

> <PUBCHEM_SHAPE_MULTIPOLES>
597.77
9.26
6.35
2.59
0.54
2.68
0.65
-3.99
-3.15
-3.23
1.92
2.36
2
-5.58

> <PUBCHEM_SHAPE_SELFOVERLAP>
1230.299

> <PUBCHEM_SHAPE_VOLUME>
343.5

> <PUBCHEM_COORDINATE_TYPE>
2
5
10

$$$$

