5281924
  -OEChem-07051213013D

 26 25  0     0  0  0  0  0  0999 V2000
    0.4622    1.6441   -0.1370 O   0  0  0  0  0  0  0  0  0  0  0  0
   -1.8987   -0.2378   -0.0484 N   0  3  0  0  0  0  0  0  0  0  0  0
   -0.7766   -0.0974    0.9701 C   0  0  0  0  0  0  0  0  0  0  0  0
   -1.4372   -1.1297   -1.1921 C   0  0  0  0  0  0  0  0  0  0  0  0
   -3.1159   -0.8599    0.6206 C   0  0  0  0  0  0  0  0  0  0  0  0
   -2.2652    1.1355   -0.5923 C   0  0  0  0  0  0  0  0  0  0  0  0
    0.4543    0.5166    0.3496 C   0  0  0  0  0  0  0  0  0  0  0  0
    1.6724   -0.3427    0.3634 C   0  0  0  0  0  0  0  0  0  0  0  0
    2.8262    0.0926   -0.1586 C   0  0  0  0  0  0  0  0  0  0  0  0
    4.0785   -0.7213   -0.1752 C   0  0  0  0  0  0  0  0  0  0  0  0
   -0.5743   -1.0945    1.3762 H   0  0  0  0  0  0  0  0  0  0  0  0
   -1.1270    0.5434    1.7874 H   0  0  0  0  0  0  0  0  0  0  0  0
   -1.1239   -2.0925   -0.7773 H   0  0  0  0  0  0  0  0  0  0  0  0
   -2.2808   -1.2699   -1.8752 H   0  0  0  0  0  0  0  0  0  0  0  0
   -0.6117   -0.6499   -1.7247 H   0  0  0  0  0  0  0  0  0  0  0  0
   -3.4403   -0.1981    1.4293 H   0  0  0  0  0  0  0  0  0  0  0  0
   -3.9083   -0.9686   -0.1259 H   0  0  0  0  0  0  0  0  0  0  0  0
   -2.8309   -1.8390    1.0170 H   0  0  0  0  0  0  0  0  0  0  0  0
   -2.3572    1.8369    0.2419 H   0  0  0  0  0  0  0  0  0  0  0  0
   -1.5227    1.4638   -1.3227 H   0  0  0  0  0  0  0  0  0  0  0  0
   -3.2282    1.0473   -1.1064 H   0  0  0  0  0  0  0  0  0  0  0  0
    1.5962   -1.3295    0.8064 H   0  0  0  0  0  0  0  0  0  0  0  0
    2.8948    1.0823   -0.6017 H   0  0  0  0  0  0  0  0  0  0  0  0
    4.4114   -0.8711   -1.2069 H   0  0  0  0  0  0  0  0  0  0  0  0
    3.9412   -1.7048    0.2851 H   0  0  0  0  0  0  0  0  0  0  0  0
    4.8702   -0.1975    0.3690 H   0  0  0  0  0  0  0  0  0  0  0  0
  1  7  2  0  0  0  0
  2  3  1  0  0  0  0
  2  4  1  0  0  0  0
  2  5  1  0  0  0  0
  2  6  1  0  0  0  0
  3  7  1  0  0  0  0
  3 11  1  0  0  0  0
  3 12  1  0  0  0  0
  4 13  1  0  0  0  0
  4 14  1  0  0  0  0
  4 15  1  0  0  0  0
  5 16  1  0  0  0  0
  5 17  1  0  0  0  0
  5 18  1  0  0  0  0
  6 19  1  0  0  0  0
  6 20  1  0  0  0  0
  6 21  1  0  0  0  0
  7  8  1  0  0  0  0
  8  9  2  0  0  0  0
  8 22  1  0  0  0  0
  9 10  1  0  0  0  0
  9 23  1  0  0  0  0
 10 24  1  0  0  0  0
 10 25  1  0  0  0  0
 10 26  1  0  0  0  0
M  CHG  1   2   1
M  END
> <PUBCHEM_COMPOUND_CID>
5281924

> <PUBCHEM_CONFORMER_RMSD>
0.6

> <PUBCHEM_CONFORMER_DIVERSEORDER>
1
7
3
6
8
2
5
4

> <PUBCHEM_MMFF94_PARTIAL_CHARGES>
12
1 -0.57
10 0.14
2 -1.01
22 0.15
23 0.15
3 0.56
4 0.5
5 0.5
6 0.5
7 0.49
8 -0.14
9 -0.29

> <PUBCHEM_EFFECTIVE_ROTOR_COUNT>
3

> <PUBCHEM_PHARMACOPHORE_FEATURES>
3
1 1 acceptor
1 10 hydrophobe
1 2 cation

> <PUBCHEM_HEAVY_ATOM_COUNT>
10

> <PUBCHEM_ATOM_DEF_STEREO_COUNT>
0

> <PUBCHEM_ATOM_UDEF_STEREO_COUNT>
0

> <PUBCHEM_BOND_DEF_STEREO_COUNT>
1

> <PUBCHEM_BOND_UDEF_STEREO_COUNT>
0

> <PUBCHEM_ISOTOPIC_ATOM_COUNT>
0

> <PUBCHEM_COMPONENT_COUNT>
1

> <PUBCHEM_CACTVS_TAUTO_COUNT>
5

> <PUBCHEM_CONFORMER_ID>
0050988400000001

> <PUBCHEM_MMFF94_ENERGY>
26.7697

> <PUBCHEM_FEATURE_SELFOVERLAP>
15.223

> <PUBCHEM_SHAPE_FINGERPRINT>
11062470 55 14056997230523155963
12932764 1 18261683609792236810
13024252 1 16988838402056124737
13296908 3 18410015433624368664
14128692 85 18115311051192917100
14390081 3 11743849066038700350
14577589 140 18186522132825359503
15310529 11 18273217503689110627
18186145 218 17132117952894801348
21028194 46 9511455637158085010
21293036 1 17774999064370926506
23402539 116 13398631606598865282
29004967 10 18411702071302188208
369184 2 14562530674015267787
5084963 1 18334859368606389323
528716 315 18201997750596728150

> <PUBCHEM_SHAPE_MULTIPOLES>
194.94
5.67
1.25
0.96
4.27
0.26
-0.06
-1.6
-0.22
-0.43
-0.23
-0.46
-0.16
0.17

> <PUBCHEM_SHAPE_SELFOVERLAP>
358.946

> <PUBCHEM_SHAPE_VOLUME>
125.7

> <PUBCHEM_COORDINATE_TYPE>
2
5
10

$$$$

