5281491
  -OEChem-07051212572D

 52 54  0     1  0  0  0  0  0999 V2000
    7.1949    1.4782    0.0000 O   0  0  0  0  0  0  0  0  0  0  0  0
    6.7084    3.1493    0.0000 O   0  0  0  0  0  0  0  0  0  0  0  0
    4.2704   -0.3230    0.0000 O   0  0  0  0  0  0  0  0  0  0  0  0
    8.9510    0.9756    0.0000 O   0  0  0  0  0  0  0  0  0  0  0  0
    6.6576   -2.3508    0.0000 O   0  0  0  0  0  0  0  0  0  0  0  0
    5.3598   -3.5637    0.0000 O   0  0  0  0  0  0  0  0  0  0  0  0
    3.9696    1.3827    0.0000 O   0  0  0  0  0  0  0  0  0  0  0  0
    6.1949    1.4782    0.0000 C   0  0  1  0  0  0  0  0  0  0  0  0
    6.9152    2.1709    0.0000 C   0  0  2  0  0  0  0  0  0  0  0  0
    5.4288    0.8354    0.0000 C   0  0  0  0  0  0  0  0  0  0  0  0
    7.9609    0.8354    0.0000 C   0  0  2  0  0  0  0  0  0  0  0  0
    7.8544    1.8291    0.0000 C   0  0  0  0  0  0  0  0  0  0  0  0
    5.2552   -0.1494    0.0000 C   0  0  2  0  0  0  0  0  0  0  0  0
    5.7552   -1.0154    0.0000 C   0  0  2  0  0  0  0  0  0  0  0  0
    6.6949   -1.3574    0.0000 C   0  0  1  0  0  0  0  0  0  0  0  0
    5.5265    2.2221    0.0000 C   0  0  0  0  0  0  0  0  0  0  0  0
    8.1346   -0.1494    0.0000 C   0  0  0  0  0  0  0  0  0  0  0  0
    7.6346   -1.0154    0.0000 C   0  0  0  0  0  0  0  0  0  0  0  0
    5.1452   -1.8003    0.0000 C   0  0  0  0  0  0  0  0  0  0  0  0
    9.1194   -0.3230    0.0000 C   0  0  0  0  0  0  0  0  0  0  0  0
    5.7018   -2.6240    0.0000 C   0  0  0  0  0  0  0  0  0  0  0  0
    4.1458   -1.7672    0.0000 C   0  0  0  0  0  0  0  0  0  0  0  0
    3.6276    0.4430    0.0000 C   0  0  0  0  0  0  0  0  0  0  0  0
    2.6428    0.2694    0.0000 C   0  0  0  0  0  0  0  0  0  0  0  0
    2.0000    1.0354    0.0000 C   0  0  0  0  0  0  0  0  0  0  0  0
    2.3008   -0.6703    0.0000 C   0  0  0  0  0  0  0  0  0  0  0  0
    7.3834    2.5774    0.0000 H   0  0  0  0  0  0  0  0  0  0  0  0
    5.1833    1.4047    0.0000 H   0  0  0  0  0  0  0  0  0  0  0  0
    4.8130    0.7634    0.0000 H   0  0  0  0  0  0  0  0  0  0  0  0
    8.4737    1.8012    0.0000 H   0  0  0  0  0  0  0  0  0  0  0  0
    7.9758    2.4371    0.0000 H   0  0  0  0  0  0  0  0  0  0  0  0
    4.9932   -0.7113    0.0000 H   0  0  0  0  0  0  0  0  0  0  0  0
    4.9564   -0.7247    0.0000 H   0  0  0  0  0  0  0  0  0  0  0  0
    7.4936   -1.6481    0.0000 H   0  0  0  0  0  0  0  0  0  0  0  0
    5.9877    2.6364    0.0000 H   0  0  0  0  0  0  0  0  0  0  0  0
    5.1122    2.6832    0.0000 H   0  0  0  0  0  0  0  0  0  0  0  0
    5.0653    1.8077    0.0000 H   0  0  0  0  0  0  0  0  0  0  0  0
    8.0331   -1.4904    0.0000 H   0  0  0  0  0  0  0  0  0  0  0  0
    7.1696    3.5637    0.0000 H   0  0  0  0  0  0  0  0  0  0  0  0
    9.1827    1.5507    0.0000 H   0  0  0  0  0  0  0  0  0  0  0  0
    9.0117   -0.9336    0.0000 H   0  0  0  0  0  0  0  0  0  0  0  0
    9.7300   -0.4307    0.0000 H   0  0  0  0  0  0  0  0  0  0  0  0
    9.2270    0.2876    0.0000 H   0  0  0  0  0  0  0  0  0  0  0  0
    3.8537   -1.2202    0.0000 H   0  0  0  0  0  0  0  0  0  0  0  0
    3.8181   -2.2935    0.0000 H   0  0  0  0  0  0  0  0  0  0  0  0
    3.0413   -0.2056    0.0000 H   0  0  0  0  0  0  0  0  0  0  0  0
    2.4750    1.4339    0.0000 H   0  0  0  0  0  0  0  0  0  0  0  0
    1.6015    1.5104    0.0000 H   0  0  0  0  0  0  0  0  0  0  0  0
    1.5250    0.6369    0.0000 H   0  0  0  0  0  0  0  0  0  0  0  0
    1.7182   -0.4583    0.0000 H   0  0  0  0  0  0  0  0  0  0  0  0
    2.0887   -1.2529    0.0000 H   0  0  0  0  0  0  0  0  0  0  0  0
    2.8834   -0.8824    0.0000 H   0  0  0  0  0  0  0  0  0  0  0  0
  1  8  1  0  0  0  0
  1 11  1  0  0  0  0
  9  2  1  1  0  0  0
  2 39  1  0  0  0  0
 13  3  1  6  0  0  0
  3 23  1  0  0  0  0
 11  4  1  1  0  0  0
  4 40  1  0  0  0  0
  5 15  1  0  0  0  0
  5 21  1  0  0  0  0
  6 21  2  0  0  0  0
  7 23  2  0  0  0  0
  8  9  1  0  0  0  0
  8 10  1  0  0  0  0
  8 16  1  1  0  0  0
  9 12  1  0  0  0  0
  9 27  1  0  0  0  0
 10 13  1  0  0  0  0
 10 28  1  0  0  0  0
 10 29  1  0  0  0  0
 11 12  1  0  0  0  0
 11 17  1  0  0  0  0
 12 30  1  0  0  0  0
 12 31  1  0  0  0  0
 13 14  1  0  0  0  0
 13 32  1  0  0  0  0
 14 15  1  0  0  0  0
 14 19  1  0  0  0  0
 14 33  1  1  0  0  0
 15 18  1  0  0  0  0
 15 34  1  6  0  0  0
 16 35  1  0  0  0  0
 16 36  1  0  0  0  0
 16 37  1  0  0  0  0
 17 18  2  0  0  0  0
 17 20  1  0  0  0  0
 18 38  1  0  0  0  0
 19 21  1  0  0  0  0
 19 22  2  0  0  0  0
 20 41  1  0  0  0  0
 20 42  1  0  0  0  0
 20 43  1  0  0  0  0
 22 44  1  0  0  0  0
 22 45  1  0  0  0  0
 23 24  1  0  0  0  0
 24 25  1  0  0  0  0
 24 26  1  0  0  0  0
 24 46  1  0  0  0  0
 25 47  1  0  0  0  0
 25 48  1  0  0  0  0
 25 49  1  0  0  0  0
 26 50  1  0  0  0  0
 26 51  1  0  0  0  0
 26 52  1  0  0  0  0
M  END
> <PUBCHEM_COMPOUND_CID>
5281491

> <PUBCHEM_COMPOUND_CANONICALIZED>
1

> <PUBCHEM_CACTVS_COMPLEXITY>
681

> <PUBCHEM_CACTVS_HBOND_ACCEPTOR>
7

> <PUBCHEM_CACTVS_HBOND_DONOR>
2

> <PUBCHEM_CACTVS_ROTATABLE_BOND>
3

> <PUBCHEM_CACTVS_SUBSKEYS>
AAADceB4OAAAAAAAAAAAAAAAAAAAASJAAAAAAAAAAAAAAECAAAAAGgAACAAADVSggAICCAAABgCIAiDSCAAAAAAgAAAACAEAAEgRFBIAIQACUAAFwAAPMIPK6PyOAAAAAAAAAAAAAAAAAAAAAAAAAAAAAA==

> <PUBCHEM_IUPAC_INCHI>
InChI=1S/C19H26O7/c1-9(2)16(21)25-13-7-18(5)14(20)8-19(23,26-18)10(3)6-12-15(13)11(4)17(22)24-12/h6,9,12-15,20,23H,4,7-8H2,1-3,5H3/b10-6-/t12-,13-,14+,15+,18-,19-/m1/s1

> <PUBCHEM_IUPAC_INCHIKEY>
RHVYFOFKEZHFKR-GIKWLFIVSA-N

> <PUBCHEM_XLOGP3_AA>
1

> <PUBCHEM_EXACT_MASS>
366.167853

> <PUBCHEM_MOLECULAR_FORMULA>
C19H26O7

> <PUBCHEM_MOLECULAR_WEIGHT>
366.40554

> <PUBCHEM_OPENEYE_CAN_SMILES>
CC1=CC2C(C(CC3(C(CC1(O3)O)O)C)OC(=O)C(C)C)C(=C)C(=O)O2

> <PUBCHEM_OPENEYE_ISO_SMILES>
C/C/1=C/[C@@H]2[C@@H]([C@@H](C[C@@]3([C@H](C[C@]1(O3)O)O)C)OC(=O)C(C)C)C(=C)C(=O)O2

> <PUBCHEM_CACTVS_TPSA>
102

> <PUBCHEM_MONOISOTOPIC_WEIGHT>
366.167853

> <PUBCHEM_TOTAL_CHARGE>
0

> <PUBCHEM_HEAVY_ATOM_COUNT>
26

> <PUBCHEM_ATOM_DEF_STEREO_COUNT>
6

> <PUBCHEM_ATOM_UDEF_STEREO_COUNT>
0

> <PUBCHEM_BOND_DEF_STEREO_COUNT>
1

> <PUBCHEM_BOND_UDEF_STEREO_COUNT>
0

> <PUBCHEM_ISOTOPIC_ATOM_COUNT>
0

> <PUBCHEM_COMPONENT_COUNT>
1

> <PUBCHEM_CACTVS_TAUTO_COUNT>
1

> <PUBCHEM_COORDINATE_TYPE>
1
5
255

> <PUBCHEM_BONDANNOTATIONS>
14  33  5
15  34  6
9  2  5
13  3  6
11  4  5
8  16  5

$$$$

