152192
  -OEChem-07051212502D

 39 38  0     1  0  0  0  0  0999 V2000
    5.1350   -0.1645    0.0000 P   0  0  3  0  0  0  0  0  0  0  0  0
    3.4030   -0.1645    0.0000 P   0  0  0  0  0  0  0  0  0  0  0  0
    6.0010    0.3355    0.0000 O   0  0  0  0  0  0  0  0  0  0  0  0
    4.2690   -0.6645    0.0000 O   0  0  0  0  0  0  0  0  0  0  0  0
    4.6350    0.7015    0.0000 O   0  0  0  0  0  0  0  0  0  0  0  0
    5.6350   -1.0306    0.0000 O   0  0  0  0  0  0  0  0  0  0  0  0
    2.5369    0.3355    0.0000 O   0  0  0  0  0  0  0  0  0  0  0  0
    2.9030   -1.0306    0.0000 O   0  0  0  0  0  0  0  0  0  0  0  0
    3.9030    0.7015    0.0000 O   0  0  0  0  0  0  0  0  0  0  0  0
    6.8671   -0.1645    0.0000 C   0  0  3  0  0  0  0  0  0  0  0  0
    7.7331   -0.6645    0.0000 C   0  0  0  0  0  0  0  0  0  0  0  0
    8.5991   -0.1645    0.0000 C   0  0  0  0  0  0  0  0  0  0  0  0
    6.3671   -1.0306    0.0000 C   0  0  0  0  0  0  0  0  0  0  0  0
    7.3671    0.7015    0.0000 C   0  0  0  0  0  0  0  0  0  0  0  0
    9.4651   -0.6645    0.0000 C   0  0  0  0  0  0  0  0  0  0  0  0
   10.3312   -0.1645    0.0000 C   0  0  0  0  0  0  0  0  0  0  0  0
    6.8671    1.5675    0.0000 C   0  0  0  0  0  0  0  0  0  0  0  0
   11.1972   -0.6645    0.0000 C   0  0  0  0  0  0  0  0  0  0  0  0
   10.3312    0.8355    0.0000 C   0  0  0  0  0  0  0  0  0  0  0  0
    7.3346   -1.1395    0.0000 H   0  0  0  0  0  0  0  0  0  0  0  0
    8.1316   -1.1395    0.0000 H   0  0  0  0  0  0  0  0  0  0  0  0
    8.9976    0.3104    0.0000 H   0  0  0  0  0  0  0  0  0  0  0  0
    8.2006    0.3104    0.0000 H   0  0  0  0  0  0  0  0  0  0  0  0
    5.8301   -0.7206    0.0000 H   0  0  0  0  0  0  0  0  0  0  0  0
    6.0571   -1.5675    0.0000 H   0  0  0  0  0  0  0  0  0  0  0  0
    6.9040   -1.3406    0.0000 H   0  0  0  0  0  0  0  0  0  0  0  0
    7.9871    0.7015    0.0000 H   0  0  0  0  0  0  0  0  0  0  0  0
    9.4651   -1.2845    0.0000 H   0  0  0  0  0  0  0  0  0  0  0  0
    7.1771    2.1044    0.0000 H   0  0  0  0  0  0  0  0  0  0  0  0
    6.2471    1.5675    0.0000 H   0  0  0  0  0  0  0  0  0  0  0  0
   10.8872   -1.2015    0.0000 H   0  0  0  0  0  0  0  0  0  0  0  0
   11.7341   -0.9745    0.0000 H   0  0  0  0  0  0  0  0  0  0  0  0
   11.5072   -0.1276    0.0000 H   0  0  0  0  0  0  0  0  0  0  0  0
   10.9512    0.8355    0.0000 H   0  0  0  0  0  0  0  0  0  0  0  0
   10.3312    1.4555    0.0000 H   0  0  0  0  0  0  0  0  0  0  0  0
    9.7112    0.8355    0.0000 H   0  0  0  0  0  0  0  0  0  0  0  0
    4.9450    1.2384    0.0000 H   0  0  0  0  0  0  0  0  0  0  0  0
    3.2130   -1.5675    0.0000 H   0  0  0  0  0  0  0  0  0  0  0  0
    2.0000    0.0255    0.0000 H   0  0  0  0  0  0  0  0  0  0  0  0
  1  3  1  0  0  0  0
  1  4  1  0  0  0  0
  1  5  1  0  0  0  0
  1  6  2  0  0  0  0
  2  4  1  0  0  0  0
  2  7  1  0  0  0  0
  2  8  1  0  0  0  0
  2  9  2  0  0  0  0
  3 10  1  0  0  0  0
  5 37  1  0  0  0  0
  7 39  1  0  0  0  0
  8 38  1  0  0  0  0
 10 11  1  0  0  0  0
 10 13  1  0  0  0  0
 10 14  1  0  0  0  0
 11 12  1  0  0  0  0
 11 20  1  0  0  0  0
 11 21  1  0  0  0  0
 12 15  1  0  0  0  0
 12 22  1  0  0  0  0
 12 23  1  0  0  0  0
 13 24  1  0  0  0  0
 13 25  1  0  0  0  0
 13 26  1  0  0  0  0
 14 17  2  0  0  0  0
 14 27  1  0  0  0  0
 15 16  2  0  0  0  0
 15 28  1  0  0  0  0
 16 18  1  0  0  0  0
 16 19  1  0  0  0  0
 17 29  1  0  0  0  0
 17 30  1  0  0  0  0
 18 31  1  0  0  0  0
 18 32  1  0  0  0  0
 18 33  1  0  0  0  0
 19 34  1  0  0  0  0
 19 35  1  0  0  0  0
 19 36  1  0  0  0  0
M  END
> <PUBCHEM_COMPOUND_CID>
152192

> <PUBCHEM_COMPOUND_CANONICALIZED>
1

> <PUBCHEM_CACTVS_COMPLEXITY>
435

> <PUBCHEM_CACTVS_HBOND_ACCEPTOR>
7

> <PUBCHEM_CACTVS_HBOND_DONOR>
3

> <PUBCHEM_CACTVS_ROTATABLE_BOND>
8

> <PUBCHEM_CACTVS_SUBSKEYS>
AAADceBwOAMAAAAAAAAAAAAAAAAAAAAAAAAAAAAAAAAAAAAAAAAAGgAACCAADESAgAACAAAAARCAQiBCAIAAAAAgAAAICAAAAAgABAIAAQAAAAAEgAAIAAIAAAAMAAAAAAAAAAAAAAAAAAAAAAAAAAAAAA==

> <PUBCHEM_IUPAC_OPENEYE_NAME>
(1,5-dimethyl-1-vinyl-hex-4-enyl) phosphono hydrogen phosphate

> <PUBCHEM_IUPAC_CAS_NAME>
3,7-dimethylocta-1,6-dien-3-yl phosphono hydrogen phosphate

> <PUBCHEM_IUPAC_NAME>
3,7-dimethylocta-1,6-dien-3-yl phosphono hydrogen phosphate

> <PUBCHEM_IUPAC_SYSTEMATIC_NAME>
3,7-dimethylocta-1,6-dien-3-yl phosphono hydrogen phosphate

> <PUBCHEM_IUPAC_TRADITIONAL_NAME>
(1,5-dimethyl-1-vinyl-hex-4-enyl) phosphono hydrogen phosphate

> <PUBCHEM_IUPAC_INCHI>
InChI=1S/C10H20O7P2/c1-5-10(4,8-6-7-9(2)3)16-19(14,15)17-18(11,12)13/h5,7H,1,6,8H2,2-4H3,(H,14,15)(H2,11,12,13)

> <PUBCHEM_IUPAC_INCHIKEY>
UOJPTUWXHXNLDB-UHFFFAOYSA-N

> <PUBCHEM_XLOGP3_AA>
0.5

> <PUBCHEM_EXACT_MASS>
314.068426

> <PUBCHEM_MOLECULAR_FORMULA>
C10H20O7P2

> <PUBCHEM_MOLECULAR_WEIGHT>
314.209124

> <PUBCHEM_OPENEYE_CAN_SMILES>
CC(=CCCC(C)(C=C)OP(=O)(O)OP(=O)(O)O)C

> <PUBCHEM_OPENEYE_ISO_SMILES>
CC(=CCCC(C)(C=C)OP(=O)(O)OP(=O)(O)O)C

> <PUBCHEM_CACTVS_TPSA>
113

> <PUBCHEM_MONOISOTOPIC_WEIGHT>
314.068426

> <PUBCHEM_TOTAL_CHARGE>
0

> <PUBCHEM_HEAVY_ATOM_COUNT>
19

> <PUBCHEM_ATOM_DEF_STEREO_COUNT>
0

> <PUBCHEM_ATOM_UDEF_STEREO_COUNT>
1

> <PUBCHEM_BOND_DEF_STEREO_COUNT>
0

> <PUBCHEM_BOND_UDEF_STEREO_COUNT>
0

> <PUBCHEM_ISOTOPIC_ATOM_COUNT>
0

> <PUBCHEM_COMPONENT_COUNT>
1

> <PUBCHEM_CACTVS_TAUTO_COUNT>
1

> <PUBCHEM_COORDINATE_TYPE>
1
5
255

> <PUBCHEM_BONDANNOTATIONS>
10  3  3

$$$$

