17396416
  -OEChem-06241222563D

 48 49  0     0  0  0  0  0  0999 V2000
   -1.2345   -0.1304    0.0339 O   0  0  0  0  0  0  0  0  0  0  0  0
    6.9559    0.6527   -0.5361 O   0  0  0  0  0  0  0  0  0  0  0  0
    0.8369   -1.7759    0.0250 O   0  0  0  0  0  0  0  0  0  0  0  0
    6.7040   -1.3587    0.5547 O   0  0  0  0  0  0  0  0  0  0  0  0
   -2.2272    1.9450    0.1109 O   0  0  0  0  0  0  0  0  0  0  0  0
    2.9232    1.1824    0.1101 N   0  0  0  0  0  0  0  0  0  0  0  0
   -7.2094    0.6520   -0.0397 N   0  0  0  0  0  0  0  0  0  0  0  0
    3.7023   -0.8965    0.0524 C   0  0  0  0  0  0  0  0  0  0  0  0
    2.5536   -0.1366    0.0723 C   0  0  0  0  0  0  0  0  0  0  0  0
    4.8013   -0.0026    0.0795 C   0  0  0  0  0  0  0  0  0  0  0  0
    4.2906    1.2761    0.1154 C   0  0  0  0  0  0  0  0  0  0  0  0
    1.1518   -0.5843    0.0577 C   0  0  0  0  0  0  0  0  0  0  0  0
    3.7766   -2.3722    0.0101 C   0  0  0  0  0  0  0  0  0  0  0  0
    4.9604    2.5908    0.1543 C   0  0  0  0  0  0  0  0  0  0  0  0
    0.0609    0.4768    0.0862 C   0  0  0  0  0  0  0  0  0  0  0  0
    6.2010   -0.3223    0.0725 C   0  0  0  0  0  0  0  0  0  0  0  0
   -5.9819   -0.0429   -0.0486 C   0  0  0  0  0  0  0  0  0  0  0  0
   -3.5664   -0.0243   -0.0036 C   0  0  0  0  0  0  0  0  0  0  0  0
   -4.7802    0.6631    0.0061 C   0  0  0  0  0  0  0  0  0  0  0  0
   -2.3130    0.7112    0.0525 C   0  0  0  0  0  0  0  0  0  0  0  0
   -5.9699   -1.4361   -0.1127 C   0  0  0  0  0  0  0  0  0  0  0  0
   -3.5545   -1.4176   -0.0678 C   0  0  0  0  0  0  0  0  0  0  0  0
   -4.7563   -2.1236   -0.1224 C   0  0  0  0  0  0  0  0  0  0  0  0
   -8.4632   -0.0727   -0.0968 C   0  0  0  0  0  0  0  0  0  0  0  0
   -7.2329    2.0989    0.0409 C   0  0  0  0  0  0  0  0  0  0  0  0
    8.3710    0.4479   -0.6070 C   0  0  0  0  0  0  0  0  0  0  0  0
    2.2899    1.9700    0.1313 H   0  0  0  0  0  0  0  0  0  0  0  0
    4.7718   -2.7339   -0.2611 H   0  0  0  0  0  0  0  0  0  0  0  0
    3.0883   -2.7793   -0.7378 H   0  0  0  0  0  0  0  0  0  0  0  0
    3.5175   -2.7957    0.9858 H   0  0  0  0  0  0  0  0  0  0  0  0
    5.7616    2.6022    0.9003 H   0  0  0  0  0  0  0  0  0  0  0  0
    4.2606    3.3908    0.4193 H   0  0  0  0  0  0  0  0  0  0  0  0
    5.3878    2.8361   -0.8232 H   0  0  0  0  0  0  0  0  0  0  0  0
    0.1510    1.0473    1.0169 H   0  0  0  0  0  0  0  0  0  0  0  0
    0.1820    1.1293   -0.7852 H   0  0  0  0  0  0  0  0  0  0  0  0
   -4.7592    1.7476    0.0560 H   0  0  0  0  0  0  0  0  0  0  0  0
   -6.8769   -2.0309   -0.1566 H   0  0  0  0  0  0  0  0  0  0  0  0
   -2.6342   -1.9949   -0.0779 H   0  0  0  0  0  0  0  0  0  0  0  0
   -4.7470   -3.2087   -0.1723 H   0  0  0  0  0  0  0  0  0  0  0  0
   -8.5406   -0.6586   -1.0195 H   0  0  0  0  0  0  0  0  0  0  0  0
   -8.5779   -0.7341    0.7692 H   0  0  0  0  0  0  0  0  0  0  0  0
   -9.3238    0.6056   -0.0868 H   0  0  0  0  0  0  0  0  0  0  0  0
   -6.7654    2.4521    0.9669 H   0  0  0  0  0  0  0  0  0  0  0  0
   -6.7312    2.5521   -0.8214 H   0  0  0  0  0  0  0  0  0  0  0  0
   -8.2576    2.4873    0.0427 H   0  0  0  0  0  0  0  0  0  0  0  0
    8.7915    0.3779    0.4004 H   0  0  0  0  0  0  0  0  0  0  0  0
    8.5918   -0.4563   -1.1816 H   0  0  0  0  0  0  0  0  0  0  0  0
    8.8147    1.3074   -1.1161 H   0  0  0  0  0  0  0  0  0  0  0  0
  1 15  1  0  0  0  0
  1 20  1  0  0  0  0
  2 16  1  0  0  0  0
  2 26  1  0  0  0  0
  3 12  2  0  0  0  0
  4 16  2  0  0  0  0
  5 20  2  0  0  0  0
  6  9  1  0  0  0  0
  6 11  1  0  0  0  0
  6 27  1  0  0  0  0
  7 17  1  0  0  0  0
  7 24  1  0  0  0  0
  7 25  1  0  0  0  0
  8  9  2  0  0  0  0
  8 10  1  0  0  0  0
  8 13  1  0  0  0  0
  9 12  1  0  0  0  0
 10 11  2  0  0  0  0
 10 16  1  0  0  0  0
 11 14  1  0  0  0  0
 12 15  1  0  0  0  0
 13 28  1  0  0  0  0
 13 29  1  0  0  0  0
 13 30  1  0  0  0  0
 14 31  1  0  0  0  0
 14 32  1  0  0  0  0
 14 33  1  0  0  0  0
 15 34  1  0  0  0  0
 15 35  1  0  0  0  0
 17 19  1  0  0  0  0
 17 21  2  0  0  0  0
 18 19  2  0  0  0  0
 18 20  1  0  0  0  0
 18 22  1  0  0  0  0
 19 36  1  0  0  0  0
 21 23  1  0  0  0  0
 21 37  1  0  0  0  0
 22 23  2  0  0  0  0
 22 38  1  0  0  0  0
 23 39  1  0  0  0  0
 24 40  1  0  0  0  0
 24 41  1  0  0  0  0
 24 42  1  0  0  0  0
 25 43  1  0  0  0  0
 25 44  1  0  0  0  0
 25 45  1  0  0  0  0
 26 46  1  0  0  0  0
 26 47  1  0  0  0  0
 26 48  1  0  0  0  0
M  END
> <PUBCHEM_COMPOUND_CID>
17396416

> <PUBCHEM_CONFORMER_RMSD>
1

> <PUBCHEM_CONFORMER_DIVERSEORDER>
2
26
40
12
48
30
36
172
179
59
128
78
147
28
77
114
39
157
32
107
140
64
135
112
18
151
50
181
87
43
115
169
113
117
52
144
122
10
53
176
105
89
37
66
133
34
126
103
130
160
84
146
29
63
68
116
129
45
38
155
153
121
158
167
163
145
15
177
61
124
164
132
154
111
137
56
119
99
88
76
108
118
102
171
55
7
123
42
22
98
131
184
14
162
79
24
125
143
75
95
69
83
168
142
47
41
20
86
67
187
188
185
3
73
9
13
82
165
182
46
93
139
170
27
51
161
91
57
178
150
148
152
1
138
92
110
166
175
183
109
19
35
44
186
70
5
106
85
71
72
31
136
174
180
159
58
90
4
120
11
96
33
173
54
156
25
16
74
21
127
8
134
94
49
101
65
60
6
80
62
141
97
23
100
104
149
17
81

> <PUBCHEM_MMFF94_PARTIAL_CHARGES>
31
1 -0.43
10 -0.09
11 -0.33
12 0.59
13 0.18
14 0.18
15 0.34
16 0.81
17 0.1
18 0.09
19 -0.15
2 -0.43
20 0.63
21 -0.15
22 -0.15
23 -0.15
24 0.37
25 0.37
26 0.28
27 0.27
3 -0.57
36 0.15
37 0.15
38 0.15
39 0.15
4 -0.57
5 -0.57
6 0.03
7 -0.84
8 -0.18
9 -0.24

> <PUBCHEM_EFFECTIVE_ROTOR_COUNT>
8

> <PUBCHEM_PHARMACOPHORE_FEATURES>
8
1 3 acceptor
1 4 acceptor
1 5 acceptor
1 6 cation
1 6 donor
1 7 cation
5 6 8 9 10 11 rings
6 17 18 19 21 22 23 rings

> <PUBCHEM_HEAVY_ATOM_COUNT>
26

> <PUBCHEM_ATOM_DEF_STEREO_COUNT>
0

> <PUBCHEM_ATOM_UDEF_STEREO_COUNT>
0

> <PUBCHEM_BOND_DEF_STEREO_COUNT>
0

> <PUBCHEM_BOND_UDEF_STEREO_COUNT>
0

> <PUBCHEM_ISOTOPIC_ATOM_COUNT>
0

> <PUBCHEM_COMPONENT_COUNT>
1

> <PUBCHEM_CACTVS_TAUTO_COUNT>
18

> <PUBCHEM_CONFORMER_ID>
010972C000000002

> <PUBCHEM_MMFF94_ENERGY>
71.6814

> <PUBCHEM_FEATURE_SELFOVERLAP>
40.594

> <PUBCHEM_SHAPE_FINGERPRINT>
10050765 1 18122907800288380063
10299344 5 18412544310157373703
10595046 47 18409167696942116169
10835480 77 18410862027745528805
10968037 39 18411138035471185527
11135926 11 18342186587346404623
11315181 36 18040149605097861347
11524674 6 16805324371152418567
11719270 70 18113902684547199182
12107183 9 17760646271140953563
12166972 35 18202563956399870828
12236239 1 18410575059215067647
12516196 113 17967818241302245289
13533116 47 17203059572552961762
13885169 127 18335701667702010281
14123256 10 18410572885645098124
14251764 18 18411420621989747059
14251764 46 18410855460128161799
14428016 248 17561073701157032204
14933364 13 18411699881127427293
15183329 4 18408886252425848241
15419008 47 14045745898103619279
15461852 350 17676211243730320607
18681886 176 18337397045442877656
21267235 1 18335415769056424436
21315759 40 5473140734538195693
21315763 28 18410294701373088877
220451 1 17203615873612269227
22224240 67 14764627495686178592
23035841 295 18412265038788984395
23559900 14 18262527975215767377
255183 451 17970901405325556502
3004659 81 18342178856061919248
335352 9 18409451375991417349
34797466 226 17967526870040493677
350125 39 18410576188981337982
3545911 37 18412546513354186364
4073 2 18130503029198036123
4325135 7 18409729560279361165
5758199 1 17989768895233044234

> <PUBCHEM_SHAPE_MULTIPOLES>
495.76
25.48
2.15
0.63
5.49
0.08
0.01
3.67
1.85
-0.01
-0.07
-0.23
0
-0.35

> <PUBCHEM_SHAPE_SELFOVERLAP>
1048.462

> <PUBCHEM_SHAPE_VOLUME>
280

> <PUBCHEM_COORDINATE_TYPE>
2
5
10

$$$$

