17396375
  -OEChem-06241222562D

 56 60  0     0  0  0  0  0  0999 V2000
    5.3923    0.9911    0.0000 S   0  0  0  0  0  0  0  0  0  0  0  0
    8.0361   -4.3566    0.0000 O   0  0  0  0  0  0  0  0  0  0  0  0
    4.7524   -0.9038    0.0000 O   0  0  0  0  0  0  0  0  0  0  0  0
    6.3116   -4.5177    0.0000 N   0  0  0  0  0  0  0  0  0  0  0  0
    5.0274    2.7232    0.0000 N   0  0  0  0  0  0  0  0  0  0  0  0
    7.7851   -2.2832    0.0000 N   0  0  0  0  0  0  0  0  0  0  0  0
    4.5274    4.2621    0.0000 N   0  0  0  0  0  0  0  0  0  0  0  0
    6.9478    5.8157    0.0000 N   0  0  0  0  0  0  0  0  0  0  0  0
    5.3454   -5.8157    0.0000 C   0  0  0  0  0  0  0  0  0  0  0  0
    4.7670   -4.9999    0.0000 C   0  0  0  0  0  0  0  0  0  0  0  0
    5.3642   -4.1977    0.0000 C   0  0  0  0  0  0  0  0  0  0  0  0
    6.3000   -5.5177    0.0000 C   0  0  0  0  0  0  0  0  0  0  0  0
    7.1273   -3.9393    0.0000 C   0  0  0  0  0  0  0  0  0  0  0  0
    7.0343   -2.9437    0.0000 C   0  0  0  0  0  0  0  0  0  0  0  0
    5.3364    3.6743    0.0000 C   0  0  0  0  0  0  0  0  0  0  0  0
    4.0274    2.7232    0.0000 C   0  0  0  0  0  0  0  0  0  0  0  0
    6.1741   -2.4337    0.0000 C   0  0  0  0  0  0  0  0  0  0  0  0
    5.7123    1.9385    0.0000 C   0  0  0  0  0  0  0  0  0  0  0  0
    7.0547    3.1378    0.0000 C   0  0  0  0  0  0  0  0  0  0  0  0
    6.3933   -1.4580    0.0000 C   0  0  0  0  0  0  0  0  0  0  0  0
    6.3518    3.9065    0.0000 C   0  0  0  0  0  0  0  0  0  0  0  0
    3.7183    3.6743    0.0000 C   0  0  0  0  0  0  0  0  0  0  0  0
    6.7328    2.1472    0.0000 C   0  0  0  0  0  0  0  0  0  0  0  0
    7.3890   -1.3650    0.0000 C   0  0  0  0  0  0  0  0  0  0  0  0
    8.0321    3.3495    0.0000 C   0  0  0  0  0  0  0  0  0  0  0  0
    5.7328   -0.7072    0.0000 C   0  0  0  0  0  0  0  0  0  0  0  0
    6.0528    0.2402    0.0000 C   0  0  0  0  0  0  0  0  0  0  0  0
    3.3424    1.9385    0.0000 C   0  0  0  0  0  0  0  0  0  0  0  0
    2.7029    3.9065    0.0000 C   0  0  0  0  0  0  0  0  0  0  0  0
    2.3219    2.1472    0.0000 C   0  0  0  0  0  0  0  0  0  0  0  0
    8.7040    2.6090    0.0000 C   0  0  0  0  0  0  0  0  0  0  0  0
    2.0000    3.1378    0.0000 C   0  0  0  0  0  0  0  0  0  0  0  0
    6.6498    4.8611    0.0000 C   0  0  0  0  0  0  0  0  0  0  0  0
    4.8050   -6.1194    0.0000 H   0  0  0  0  0  0  0  0  0  0  0  0
    5.5910   -6.3849    0.0000 H   0  0  0  0  0  0  0  0  0  0  0  0
    4.3111   -4.5797    0.0000 H   0  0  0  0  0  0  0  0  0  0  0  0
    4.3015   -5.4094    0.0000 H   0  0  0  0  0  0  0  0  0  0  0  0
    6.4219   -6.1256    0.0000 H   0  0  0  0  0  0  0  0  0  0  0  0
    6.9173   -5.4600    0.0000 H   0  0  0  0  0  0  0  0  0  0  0  0
    5.6229   -3.6343    0.0000 H   0  0  0  0  0  0  0  0  0  0  0  0
    4.8308   -3.8816    0.0000 H   0  0  0  0  0  0  0  0  0  0  0  0
    5.6048   -2.6793    0.0000 H   0  0  0  0  0  0  0  0  0  0  0  0
    8.3901   -2.4191    0.0000 H   0  0  0  0  0  0  0  0  0  0  0  0
    7.1459    1.6848    0.0000 H   0  0  0  0  0  0  0  0  0  0  0  0
    7.7052   -0.8317    0.0000 H   0  0  0  0  0  0  0  0  0  0  0  0
    8.5566    3.6801    0.0000 H   0  0  0  0  0  0  0  0  0  0  0  0
    7.7976    3.9235    0.0000 H   0  0  0  0  0  0  0  0  0  0  0  0
    6.5968   -0.0571    0.0000 H   0  0  0  0  0  0  0  0  0  0  0  0
    6.4402    0.7244    0.0000 H   0  0  0  0  0  0  0  0  0  0  0  0
    3.5408    1.3511    0.0000 H   0  0  0  0  0  0  0  0  0  0  0  0
    2.5182    4.4984    0.0000 H   0  0  0  0  0  0  0  0  0  0  0  0
    1.9088    1.6848    0.0000 H   0  0  0  0  0  0  0  0  0  0  0  0
    8.2449    2.1923    0.0000 H   0  0  0  0  0  0  0  0  0  0  0  0
    9.1207    2.1498    0.0000 H   0  0  0  0  0  0  0  0  0  0  0  0
    9.1632    3.0256    0.0000 H   0  0  0  0  0  0  0  0  0  0  0  0
    1.3940    3.2691    0.0000 H   0  0  0  0  0  0  0  0  0  0  0  0
  1 18  1  0  0  0  0
  1 27  1  0  0  0  0
  2 13  2  0  0  0  0
  3 26  2  0  0  0  0
  4 11  1  0  0  0  0
  4 12  1  0  0  0  0
  4 13  1  0  0  0  0
  5 15  1  0  0  0  0
  5 16  1  0  0  0  0
  5 18  1  0  0  0  0
  6 14  1  0  0  0  0
  6 24  1  0  0  0  0
  6 43  1  0  0  0  0
  7 15  2  0  0  0  0
  7 22  1  0  0  0  0
  8 33  3  0  0  0  0
  9 10  1  0  0  0  0
  9 12  1  0  0  0  0
  9 34  1  0  0  0  0
  9 35  1  0  0  0  0
 10 11  1  0  0  0  0
 10 36  1  0  0  0  0
 10 37  1  0  0  0  0
 11 40  1  0  0  0  0
 11 41  1  0  0  0  0
 12 38  1  0  0  0  0
 12 39  1  0  0  0  0
 13 14  1  0  0  0  0
 14 17  2  0  0  0  0
 15 21  1  0  0  0  0
 16 22  1  0  0  0  0
 16 28  2  0  0  0  0
 17 20  1  0  0  0  0
 17 42  1  0  0  0  0
 18 23  2  0  0  0  0
 19 21  2  0  0  0  0
 19 23  1  0  0  0  0
 19 25  1  0  0  0  0
 20 24  2  0  0  0  0
 20 26  1  0  0  0  0
 21 33  1  0  0  0  0
 22 29  2  0  0  0  0
 23 44  1  0  0  0  0
 24 45  1  0  0  0  0
 25 31  1  0  0  0  0
 25 46  1  0  0  0  0
 25 47  1  0  0  0  0
 26 27  1  0  0  0  0
 27 48  1  0  0  0  0
 27 49  1  0  0  0  0
 28 30  1  0  0  0  0
 28 50  1  0  0  0  0
 29 32  1  0  0  0  0
 29 51  1  0  0  0  0
 30 32  2  0  0  0  0
 30 52  1  0  0  0  0
 31 53  1  0  0  0  0
 31 54  1  0  0  0  0
 31 55  1  0  0  0  0
 32 56  1  0  0  0  0
M  END
> <PUBCHEM_COMPOUND_CID>
17396375

> <PUBCHEM_COMPOUND_CANONICALIZED>
1

> <PUBCHEM_CACTVS_COMPLEXITY>
793

> <PUBCHEM_CACTVS_HBOND_ACCEPTOR>
5

> <PUBCHEM_CACTVS_HBOND_DONOR>
1

> <PUBCHEM_CACTVS_ROTATABLE_BOND>
6

> <PUBCHEM_CACTVS_SUBSKEYS>
AAADceB7sABAAAAAAAAAAAAAAAAAAWLFgAA8QAAAAAAAAFgB/gAAHgQQAAAADAzF3wS/8b/NmAi4B7d3dACi0C13GrAJ2bm4dNiI6PrgnbGUIYholgLoye8cCwAugAAAAAAAACAAAAAAAAAAQAAAAAAAAA==

> <PUBCHEM_IUPAC_OPENEYE_NAME>
3-ethyl-1-[2-oxo-2-[5-(pyrrolidine-1-carbonyl)-1H-pyrrol-3-yl]ethyl]sulfanyl-pyrido[1,2-a]benzimidazole-4-carbonitrile

> <PUBCHEM_IUPAC_CAS_NAME>
3-ethyl-1-[[2-oxo-2-[5-[oxo(1-pyrrolidinyl)methyl]-1H-pyrrol-3-yl]ethyl]thio]-4-pyrido[1,2-a]benzimidazolecarbonitrile

> <PUBCHEM_IUPAC_NAME>
3-ethyl-1-[2-oxo-2-[5-(pyrrolidine-1-carbonyl)-1H-pyrrol-3-yl]ethyl]sulfanylpyrido[1,2-a]benzimidazole-4-carbonitrile

> <PUBCHEM_IUPAC_SYSTEMATIC_NAME>
3-ethyl-1-[2-oxidanylidene-2-(5-pyrrolidin-1-ylcarbonyl-1H-pyrrol-3-yl)ethyl]sulfanyl-pyrido[1,2-a]benzimidazole-4-carbonitrile

> <PUBCHEM_IUPAC_TRADITIONAL_NAME>
3-ethyl-1-[[2-keto-2-[5-(pyrrolidine-1-carbonyl)-1H-pyrrol-3-yl]ethyl]thio]pyrido[1,2-a]benzimidazole-4-carbonitrile

> <PUBCHEM_IUPAC_INCHI>
InChI=1S/C25H23N5O2S/c1-2-16-12-23(30-21-8-4-3-7-19(21)28-24(30)18(16)13-26)33-15-22(31)17-11-20(27-14-17)25(32)29-9-5-6-10-29/h3-4,7-8,11-12,14,27H,2,5-6,9-10,15H2,1H3

> <PUBCHEM_IUPAC_INCHIKEY>
YONORABSMVMVMP-UHFFFAOYSA-N

> <PUBCHEM_XLOGP3_AA>
5

> <PUBCHEM_EXACT_MASS>
457.157246

> <PUBCHEM_MOLECULAR_FORMULA>
C25H23N5O2S

> <PUBCHEM_MOLECULAR_WEIGHT>
457.54742

> <PUBCHEM_OPENEYE_CAN_SMILES>
CCC1=C(C2=NC3=CC=CC=C3N2C(=C1)SCC(=O)C4=CNC(=C4)C(=O)N5CCCC5)C#N

> <PUBCHEM_OPENEYE_ISO_SMILES>
CCC1=C(C2=NC3=CC=CC=C3N2C(=C1)SCC(=O)C4=CNC(=C4)C(=O)N5CCCC5)C#N

> <PUBCHEM_CACTVS_TPSA>
120

> <PUBCHEM_MONOISOTOPIC_WEIGHT>
457.157246

> <PUBCHEM_TOTAL_CHARGE>
0

> <PUBCHEM_HEAVY_ATOM_COUNT>
33

> <PUBCHEM_ATOM_DEF_STEREO_COUNT>
0

> <PUBCHEM_ATOM_UDEF_STEREO_COUNT>
0

> <PUBCHEM_BOND_DEF_STEREO_COUNT>
0

> <PUBCHEM_BOND_UDEF_STEREO_COUNT>
0

> <PUBCHEM_ISOTOPIC_ATOM_COUNT>
0

> <PUBCHEM_COMPONENT_COUNT>
1

> <PUBCHEM_CACTVS_TAUTO_COUNT>
11

> <PUBCHEM_COORDINATE_TYPE>
1
5
255

> <PUBCHEM_BONDANNOTATIONS>
14  17  8
15  21  8
16  22  8
16  28  8
17  20  8
18  23  8
19  21  8
19  23  8
20  24  8
22  29  8
28  30  8
29  32  8
30  32  8
5  15  8
5  16  8
5  18  8
6  14  8
6  24  8
7  15  8
7  22  8

$$$$

