156509
  -OEChem-07051213093D

 25 26  0     0  0  0  0  0  0999 V2000
    5.3915   -0.3969   -0.2010 Br  0  0  0  0  0  0  0  0  0  0  0  0
   -2.0407    2.5740   -0.4872 S   0  0  0  0  0  0  0  0  0  0  0  0
   -2.4910   -1.4756   -0.3002 S   0  0  0  0  0  0  0  0  0  0  0  0
   -1.6843   -0.4866    0.7510 O   0  0  0  0  0  0  0  0  0  0  0  0
   -3.7503   -2.0250    0.5814 O   0  0  0  0  0  0  0  0  0  0  0  0
   -3.0227   -0.6679   -1.3824 O   0  0  0  0  0  0  0  0  0  0  0  0
   -1.6403   -2.6138   -0.5963 O   0  0  0  0  0  0  0  0  0  0  0  0
    0.5505    1.9001   -0.5399 N   0  0  0  0  0  0  0  0  0  0  0  0
    0.7315   -0.1587    0.3004 C   0  0  0  0  0  0  0  0  0  0  0  0
    1.4550    0.9065   -0.2402 C   0  0  0  0  0  0  0  0  0  0  0  0
   -0.6371    0.2306    0.3141 C   0  0  0  0  0  0  0  0  0  0  0  0
   -0.7165    1.5009   -0.2084 C   0  0  0  0  0  0  0  0  0  0  0  0
    1.4263   -1.3185    0.6972 C   0  0  0  0  0  0  0  0  0  0  0  0
    2.8443    0.8696   -0.4044 C   0  0  0  0  0  0  0  0  0  0  0  0
    2.8160   -1.3695    0.5389 C   0  0  0  0  0  0  0  0  0  0  0  0
    3.5120   -0.2912   -0.0039 C   0  0  0  0  0  0  0  0  0  0  0  0
   -2.7443    2.8219    1.1807 C   0  0  0  0  0  0  0  0  0  0  0  0
    0.7871    2.7948   -0.9456 H   0  0  0  0  0  0  0  0  0  0  0  0
    0.8973   -2.1662    1.1229 H   0  0  0  0  0  0  0  0  0  0  0  0
    3.3741    1.7170   -0.8282 H   0  0  0  0  0  0  0  0  0  0  0  0
    3.3418   -2.2697    0.8492 H   0  0  0  0  0  0  0  0  0  0  0  0
   -3.1318    1.8777    1.5717 H   0  0  0  0  0  0  0  0  0  0  0  0
   -3.5641    3.5421    1.1198 H   0  0  0  0  0  0  0  0  0  0  0  0
   -1.9789    3.2112    1.8571 H   0  0  0  0  0  0  0  0  0  0  0  0
   -3.5230   -2.3455    1.4858 H   0  0  0  0  0  0  0  0  0  0  0  0
  1 16  1  0  0  0  0
  2 12  1  0  0  0  0
  2 17  1  0  0  0  0
  3  4  1  0  0  0  0
  3  5  1  0  0  0  0
  3  6  2  0  0  0  0
  3  7  2  0  0  0  0
  4 11  1  0  0  0  0
  5 25  1  0  0  0  0
  8 10  1  0  0  0  0
  8 12  1  0  0  0  0
  8 18  1  0  0  0  0
  9 10  2  0  0  0  0
  9 11  1  0  0  0  0
  9 13  1  0  0  0  0
 10 14  1  0  0  0  0
 11 12  2  0  0  0  0
 13 15  2  0  0  0  0
 13 19  1  0  0  0  0
 14 16  2  0  0  0  0
 14 20  1  0  0  0  0
 15 16  1  0  0  0  0
 15 21  1  0  0  0  0
 17 22  1  0  0  0  0
 17 23  1  0  0  0  0
 17 24  1  0  0  0  0
M  END
> <PUBCHEM_COMPOUND_CID>
156509

> <PUBCHEM_CONFORMER_RMSD>
0.6

> <PUBCHEM_CONFORMER_DIVERSEORDER>
3
6
11
9
10
5
1
8
7
4
2

> <PUBCHEM_MMFF94_PARTIAL_CHARGES>
21
1 -0.11
10 -0.15
11 0.06
12 -0.1
13 -0.15
14 -0.15
15 -0.15
16 0.11
17 0.23
18 0.27
19 0.15
2 -0.29
20 0.15
21 0.15
25 0.5
3 1.67
4 -0.25
5 -0.68
6 -0.65
7 -0.65
8 0.03

> <PUBCHEM_EFFECTIVE_ROTOR_COUNT>
3

> <PUBCHEM_PHARMACOPHORE_FEATURES>
10
1 1 hydrophobe
1 17 hydrophobe
1 5 acceptor
1 6 acceptor
1 7 acceptor
1 8 cation
1 8 donor
4 3 5 6 7 anion
5 8 9 10 11 12 rings
6 9 10 13 14 15 16 rings

> <PUBCHEM_HEAVY_ATOM_COUNT>
17

> <PUBCHEM_ATOM_DEF_STEREO_COUNT>
0

> <PUBCHEM_ATOM_UDEF_STEREO_COUNT>
0

> <PUBCHEM_BOND_DEF_STEREO_COUNT>
0

> <PUBCHEM_BOND_UDEF_STEREO_COUNT>
0

> <PUBCHEM_ISOTOPIC_ATOM_COUNT>
0

> <PUBCHEM_COMPONENT_COUNT>
1

> <PUBCHEM_CACTVS_TAUTO_COUNT>
1

> <PUBCHEM_CONFORMER_ID>
0002635D00000003

> <PUBCHEM_MMFF94_ENERGY>
27.2626

> <PUBCHEM_FEATURE_SELFOVERLAP>
50.894

> <PUBCHEM_SHAPE_FINGERPRINT>
10062212 137 18201724007041354298
104564 63 18408041827321765999
10616163 171 18410855494789015894
11578080 2 17822869575878083081
11806522 49 18342739568701155054
12500047 106 18262805206226511176
12553582 1 18338807701613470595
12788726 201 18262249923005886937
13140716 1 17980199678169883370
13583140 156 14273452591531229679
14178342 30 18340501061695239392
15309172 13 17978789343901278297
15906896 17 18115874164740490533
16752209 62 18335999643658177215
16945 1 18340205181108112552
200 152 18342745091839349662
20261772 1 18339062896143928185
20871998 184 18335419105665836319
21041028 32 18268418045693242579
21267235 1 18341323405713653698
21501502 16 18342460395594858504
21634736 98 18270400478027031502
221490 88 17696466291475108762
2334 1 18341614853714695264
23388829 49 18269554949084770748
23402539 116 18343302596227770910
23557571 272 18186515532104197148
23559900 14 18337121072794591720
23598294 1 18337958990300072786
2748010 2 17837200841971975100
34934 24 17986674968386478912
5104073 3 18337961185972522656
69090 78 18196936788721402881
81228 2 18341903978144594633
90525 40 18337111275530720735

> <PUBCHEM_SHAPE_MULTIPOLES>
335.04
7.47
2.87
0.95
7.5
0.22
0
-1.06
-0.15
-3.85
0.04
-0.53
0.07
-0.79

> <PUBCHEM_SHAPE_SELFOVERLAP>
678.118

> <PUBCHEM_SHAPE_VOLUME>
202.8

> <PUBCHEM_COORDINATE_TYPE>
2
5
10

$$$$

