4384
  -OEChem-06261200052D

 37 37  0     1  0  0  0  0  0999 V2000
    4.7320    4.0000    0.0000 Cl  0  0  0  0  0  0  0  0  0  0  0  0
    3.0000    0.0000    0.0000 S   0  0  0  0  0  0  0  0  0  0  0  0
    4.0000    0.0000    0.0000 O   0  0  0  0  0  0  0  0  0  0  0  0
    2.0000    0.0000    0.0000 O   0  0  0  0  0  0  0  0  0  0  0  0
    3.0000    3.0000    0.0000 O   0  0  0  0  0  0  0  0  0  0  0  0
    3.0000    1.0000    0.0000 N   0  0  0  0  0  0  0  0  0  0  0  0
    3.8660    1.5000    0.0000 C   0  0  3  0  0  0  0  0  0  0  0  0
    4.7320    1.0000    0.0000 C   0  0  0  0  0  0  0  0  0  0  0  0
    5.5981    1.5000    0.0000 C   0  0  0  0  0  0  0  0  0  0  0  0
    4.7320    0.0000    0.0000 C   0  0  0  0  0  0  0  0  0  0  0  0
    3.8660    2.5000    0.0000 C   0  0  0  0  0  0  0  0  0  0  0  0
    3.0000   -1.0000    0.0000 C   0  0  0  0  0  0  0  0  0  0  0  0
    4.7320    3.0000    0.0000 C   0  0  0  0  0  0  0  0  0  0  0  0
    2.1340   -1.5000    0.0000 C   0  0  0  0  0  0  0  0  0  0  0  0
    3.8660   -1.5000    0.0000 C   0  0  0  0  0  0  0  0  0  0  0  0
    3.0000   -3.0000    0.0000 C   0  0  0  0  0  0  0  0  0  0  0  0
    2.1340   -2.5000    0.0000 C   0  0  0  0  0  0  0  0  0  0  0  0
    3.8660   -2.5000    0.0000 C   0  0  0  0  0  0  0  0  0  0  0  0
    3.0000   -4.0000    0.0000 C   0  0  0  0  0  0  0  0  0  0  0  0
    3.8660    0.6500    0.0000 H   0  0  0  0  0  0  0  0  0  0  0  0
    4.7320    1.6200    0.0000 H   0  0  0  0  0  0  0  0  0  0  0  0
    2.4631    1.3100    0.0000 H   0  0  0  0  0  0  0  0  0  0  0  0
    5.9081    0.9631    0.0000 H   0  0  0  0  0  0  0  0  0  0  0  0
    6.1350    1.8100    0.0000 H   0  0  0  0  0  0  0  0  0  0  0  0
    5.2881    2.0369    0.0000 H   0  0  0  0  0  0  0  0  0  0  0  0
    4.1120    0.0000    0.0000 H   0  0  0  0  0  0  0  0  0  0  0  0
    4.7320   -0.6200    0.0000 H   0  0  0  0  0  0  0  0  0  0  0  0
    5.3520    0.0000    0.0000 H   0  0  0  0  0  0  0  0  0  0  0  0
    4.9441    2.4174    0.0000 H   0  0  0  0  0  0  0  0  0  0  0  0
    5.3426    3.1077    0.0000 H   0  0  0  0  0  0  0  0  0  0  0  0
    1.5970   -1.1900    0.0000 H   0  0  0  0  0  0  0  0  0  0  0  0
    4.4030   -1.1900    0.0000 H   0  0  0  0  0  0  0  0  0  0  0  0
    1.5970   -2.8100    0.0000 H   0  0  0  0  0  0  0  0  0  0  0  0
    4.4030   -2.8100    0.0000 H   0  0  0  0  0  0  0  0  0  0  0  0
    2.3800   -4.0000    0.0000 H   0  0  0  0  0  0  0  0  0  0  0  0
    3.0000   -4.6200    0.0000 H   0  0  0  0  0  0  0  0  0  0  0  0
    3.6200   -4.0000    0.0000 H   0  0  0  0  0  0  0  0  0  0  0  0
  1 13  1  0  0  0  0
  2  3  2  0  0  0  0
  2  4  2  0  0  0  0
  2  6  1  0  0  0  0
  2 12  1  0  0  0  0
  5 11  2  0  0  0  0
  6  7  1  0  0  0  0
  6 22  1  0  0  0  0
  7  8  1  0  0  0  0
  7 11  1  0  0  0  0
  7 20  1  0  0  0  0
  8  9  1  0  0  0  0
  8 10  1  0  0  0  0
  8 21  1  0  0  0  0
  9 23  1  0  0  0  0
  9 24  1  0  0  0  0
  9 25  1  0  0  0  0
 10 26  1  0  0  0  0
 10 27  1  0  0  0  0
 10 28  1  0  0  0  0
 11 13  1  0  0  0  0
 12 14  2  0  0  0  0
 12 15  1  0  0  0  0
 13 29  1  0  0  0  0
 13 30  1  0  0  0  0
 14 17  1  0  0  0  0
 14 31  1  0  0  0  0
 15 18  2  0  0  0  0
 15 32  1  0  0  0  0
 16 17  2  0  0  0  0
 16 18  1  0  0  0  0
 16 19  1  0  0  0  0
 17 33  1  0  0  0  0
 18 34  1  0  0  0  0
 19 35  1  0  0  0  0
 19 36  1  0  0  0  0
 19 37  1  0  0  0  0
M  END
> <PUBCHEM_COMPOUND_CID>
4384

> <PUBCHEM_COMPOUND_CANONICALIZED>
1

> <PUBCHEM_CACTVS_COMPLEXITY>
395

> <PUBCHEM_CACTVS_HBOND_ACCEPTOR>
4

> <PUBCHEM_CACTVS_HBOND_DONOR>
1

> <PUBCHEM_CACTVS_ROTATABLE_BOND>
6

> <PUBCHEM_CACTVS_SUBSKEYS>
AAADceByMABEAAAAAAAAAAAAAAAAAAAAAAAwAAAAAAAAAAABAAAAHgYQQAAADS/B2EQyAYBAAAKIAqBSAHBCABAgAAAIiJmAAohIIDKBERCAIAAgkAAIiAcAgAAOEAAAAAAAAAAgAAAAAAAAAAAAAAAAAA==

> <PUBCHEM_IUPAC_OPENEYE_NAME>
N-(3-chloro-1-isopropyl-2-oxo-propyl)-4-methyl-benzenesulfonamide

> <PUBCHEM_IUPAC_CAS_NAME>
N-(1-chloro-4-methyl-2-oxopentan-3-yl)-4-methylbenzenesulfonamide

> <PUBCHEM_IUPAC_NAME>
N-(1-chloro-4-methyl-2-oxopentan-3-yl)-4-methylbenzenesulfonamide

> <PUBCHEM_IUPAC_SYSTEMATIC_NAME>
N-(1-chloranyl-4-methyl-2-oxidanylidene-pentan-3-yl)-4-methyl-benzenesulfonamide

> <PUBCHEM_IUPAC_TRADITIONAL_NAME>
N-(3-chloro-1-isopropyl-2-keto-propyl)-4-methyl-benzenesulfonamide

> <PUBCHEM_IUPAC_INCHI>
InChI=1S/C13H18ClNO3S/c1-9(2)13(12(16)8-14)15-19(17,18)11-6-4-10(3)5-7-11/h4-7,9,13,15H,8H2,1-3H3

> <PUBCHEM_IUPAC_INCHIKEY>
NCKHHRVMFVHPET-UHFFFAOYSA-N

> <PUBCHEM_XLOGP3_AA>
3

> <PUBCHEM_EXACT_MASS>
303.069592

> <PUBCHEM_MOLECULAR_FORMULA>
C13H18ClNO3S

> <PUBCHEM_MOLECULAR_WEIGHT>
303.80492

> <PUBCHEM_OPENEYE_CAN_SMILES>
CC1=CC=C(C=C1)S(=O)(=O)NC(C(C)C)C(=O)CCl

> <PUBCHEM_OPENEYE_ISO_SMILES>
CC1=CC=C(C=C1)S(=O)(=O)NC(C(C)C)C(=O)CCl

> <PUBCHEM_CACTVS_TPSA>
71.6

> <PUBCHEM_MONOISOTOPIC_WEIGHT>
303.069592

> <PUBCHEM_TOTAL_CHARGE>
0

> <PUBCHEM_HEAVY_ATOM_COUNT>
19

> <PUBCHEM_ATOM_DEF_STEREO_COUNT>
0

> <PUBCHEM_ATOM_UDEF_STEREO_COUNT>
1

> <PUBCHEM_BOND_DEF_STEREO_COUNT>
0

> <PUBCHEM_BOND_UDEF_STEREO_COUNT>
0

> <PUBCHEM_ISOTOPIC_ATOM_COUNT>
0

> <PUBCHEM_COMPONENT_COUNT>
1

> <PUBCHEM_CACTVS_TAUTO_COUNT>
3

> <PUBCHEM_COORDINATE_TYPE>
1
5
255

> <PUBCHEM_BONDANNOTATIONS>
12  14  8
12  15  8
14  17  8
15  18  8
16  17  8
16  18  8
7  20  3

$$$$

