9561873
  -OEChem-07051213062D

 50 53  0     1  0  0  0  0  0999 V2000
   11.2461    2.1767    0.0000 O   0  0  0  0  0  0  0  0  0  0  0  0
   13.0190   -0.4446    0.0000 O   0  0  0  0  0  0  0  0  0  0  0  0
    4.5961   -2.1309    0.0000 O   0  0  0  0  0  0  0  0  0  0  0  0
   12.5190    0.4215    0.0000 N   0  0  0  0  0  0  0  0  0  0  0  0
    9.9892   -0.0785    0.0000 C   0  0  1  0  0  0  0  0  0  0  0  0
    9.1232   -0.5785    0.0000 C   0  0  1  0  0  0  0  0  0  0  0  0
    9.9892    0.9215    0.0000 C   0  0  2  0  0  0  0  0  0  0  0  0
    8.2572   -0.0785    0.0000 C   0  0  2  0  0  0  0  0  0  0  0  0
    9.1232    1.4215    0.0000 C   0  0  0  0  0  0  0  0  0  0  0  0
    8.2572    0.9215    0.0000 C   0  0  0  0  0  0  0  0  0  0  0  0
   10.9354   -0.3833    0.0000 C   0  0  0  0  0  0  0  0  0  0  0  0
    9.1392   -1.6200    0.0000 C   0  0  0  0  0  0  0  0  0  0  0  0
   10.9354    1.2262    0.0000 C   0  0  0  0  0  0  0  0  0  0  0  0
    7.3472   -0.5854    0.0000 C   0  0  0  0  0  0  0  0  0  0  0  0
    9.9892    1.9215    0.0000 C   0  0  0  0  0  0  0  0  0  0  0  0
   11.5190    0.4215    0.0000 C   0  0  0  0  0  0  0  0  0  0  0  0
    8.2412   -2.1478    0.0000 C   0  0  0  0  0  0  0  0  0  0  0  0
    7.3391   -1.6270    0.0000 C   0  0  0  0  0  0  0  0  0  0  0  0
    6.4203   -0.0213    0.0000 C   0  0  0  0  0  0  0  0  0  0  0  0
    6.4037   -2.1767    0.0000 C   0  0  0  0  0  0  0  0  0  0  0  0
    5.4724   -0.5493    0.0000 C   0  0  0  0  0  0  0  0  0  0  0  0
    5.4641   -1.6342    0.0000 C   0  0  0  0  0  0  0  0  0  0  0  0
    3.7320   -1.6275    0.0000 C   0  0  0  0  0  0  0  0  0  0  0  0
    2.8641   -2.1242    0.0000 C   0  0  0  0  0  0  0  0  0  0  0  0
    2.0000   -1.6209    0.0000 C   0  0  0  0  0  0  0  0  0  0  0  0
   10.0792   -0.9238    0.0000 H   0  0  0  0  0  0  0  0  0  0  0  0
    9.8626   -0.9979    0.0000 H   0  0  0  0  0  0  0  0  0  0  0  0
    8.9933    0.3465    0.0000 H   0  0  0  0  0  0  0  0  0  0  0  0
    9.5217    1.8964    0.0000 H   0  0  0  0  0  0  0  0  0  0  0  0
    8.7247    1.8964    0.0000 H   0  0  0  0  0  0  0  0  0  0  0  0
    8.0451    1.5041    0.0000 H   0  0  0  0  0  0  0  0  0  0  0  0
    7.6466    0.8138    0.0000 H   0  0  0  0  0  0  0  0  0  0  0  0
   10.6844   -0.9502    0.0000 H   0  0  0  0  0  0  0  0  0  0  0  0
   11.4728   -0.6925    0.0000 H   0  0  0  0  0  0  0  0  0  0  0  0
    9.3573   -2.2004    0.0000 H   0  0  0  0  0  0  0  0  0  0  0  0
    9.7484   -1.5046    0.0000 H   0  0  0  0  0  0  0  0  0  0  0  0
   10.6092    1.9215    0.0000 H   0  0  0  0  0  0  0  0  0  0  0  0
    9.9892    2.5415    0.0000 H   0  0  0  0  0  0  0  0  0  0  0  0
    9.3692    1.9215    0.0000 H   0  0  0  0  0  0  0  0  0  0  0  0
    7.8439   -2.6238    0.0000 H   0  0  0  0  0  0  0  0  0  0  0  0
    8.6422   -2.6207    0.0000 H   0  0  0  0  0  0  0  0  0  0  0  0
    6.4323    0.5986    0.0000 H   0  0  0  0  0  0  0  0  0  0  0  0
    6.4061   -2.7967    0.0000 H   0  0  0  0  0  0  0  0  0  0  0  0
    4.9391   -0.2331    0.0000 H   0  0  0  0  0  0  0  0  0  0  0  0
   13.6390   -0.4446    0.0000 H   0  0  0  0  0  0  0  0  0  0  0  0
    4.1324   -1.1541    0.0000 H   0  0  0  0  0  0  0  0  0  0  0  0
    3.3353   -1.1511    0.0000 H   0  0  0  0  0  0  0  0  0  0  0  0
    2.8617   -2.7442    0.0000 H   0  0  0  0  0  0  0  0  0  0  0  0
    2.0024   -1.0009    0.0000 H   0  0  0  0  0  0  0  0  0  0  0  0
    1.4619   -1.9288    0.0000 H   0  0  0  0  0  0  0  0  0  0  0  0
  1 13  2  0  0  0  0
  2  4  1  0  0  0  0
  2 45  1  0  0  0  0
  3 22  1  0  0  0  0
  3 23  1  0  0  0  0
  4 16  2  0  0  0  0
  5  6  1  0  0  0  0
  5  7  1  0  0  0  0
  5 11  1  0  0  0  0
  5 26  1  6  0  0  0
  6  8  1  0  0  0  0
  6 12  1  0  0  0  0
  6 27  1  1  0  0  0
  7  9  1  0  0  0  0
  7 13  1  0  0  0  0
  7 15  1  1  0  0  0
  8 10  1  0  0  0  0
  8 14  1  0  0  0  0
  8 28  1  6  0  0  0
  9 10  1  0  0  0  0
  9 29  1  0  0  0  0
  9 30  1  0  0  0  0
 10 31  1  0  0  0  0
 10 32  1  0  0  0  0
 11 16  1  0  0  0  0
 11 33  1  0  0  0  0
 11 34  1  0  0  0  0
 12 17  1  0  0  0  0
 12 35  1  0  0  0  0
 12 36  1  0  0  0  0
 13 16  1  0  0  0  0
 14 18  2  0  0  0  0
 14 19  1  0  0  0  0
 15 37  1  0  0  0  0
 15 38  1  0  0  0  0
 15 39  1  0  0  0  0
 17 18  1  0  0  0  0
 17 40  1  0  0  0  0
 17 41  1  0  0  0  0
 18 20  1  0  0  0  0
 19 21  2  0  0  0  0
 19 42  1  0  0  0  0
 20 22  2  0  0  0  0
 20 43  1  0  0  0  0
 21 22  1  0  0  0  0
 21 44  1  0  0  0  0
 23 24  1  0  0  0  0
 23 46  1  0  0  0  0
 23 47  1  0  0  0  0
 24 25  2  0  0  0  0
 24 48  1  0  0  0  0
 25 49  1  0  0  0  0
 25 50  1  0  0  0  0
M  END
> <PUBCHEM_COMPOUND_CID>
9561873

> <PUBCHEM_COMPOUND_CANONICALIZED>
1

> <PUBCHEM_CACTVS_COMPLEXITY>
586

> <PUBCHEM_CACTVS_HBOND_ACCEPTOR>
4

> <PUBCHEM_CACTVS_HBOND_DONOR>
1

> <PUBCHEM_CACTVS_ROTATABLE_BOND>
3

> <PUBCHEM_CACTVS_SUBSKEYS>
AAADceB6MAAAAAAAAAAAAAAAAAAAAYAAAAAwYMAAAAAAAGDBAAAAHgAECAAADwyhmAIyBoAQBACoA6ByAAACCAAgIAAIiAE2CIgMJjKEMRqCOCCkwBEIqAeIyPCPoAABAAAQAADAAAYAACAAAAAACAAAAA==

> <PUBCHEM_IUPAC_OPENEYE_NAME>
(8R,9S,13S,14S,16E)-3-allyloxy-16-hydroxyimino-13-methyl-6,7,8,9,11,12,14,15-octahydrocyclopenta[a]phenanthren-17-one

> <PUBCHEM_IUPAC_CAS_NAME>
(8R,9S,13S,14S,16E)-16-hydroxyimino-13-methyl-3-prop-2-enoxy-6,7,8,9,11,12,14,15-octahydrocyclopenta[a]phenanthren-17-one

> <PUBCHEM_IUPAC_NAME>
(8R,9S,13S,14S,16E)-16-hydroxyimino-13-methyl-3-prop-2-enoxy-6,7,8,9,11,12,14,15-octahydrocyclopenta[a]phenanthren-17-one

> <PUBCHEM_IUPAC_SYSTEMATIC_NAME>
(8R,9S,13S,14S,16E)-16-hydroxyimino-13-methyl-3-prop-2-enoxy-6,7,8,9,11,12,14,15-octahydrocyclopenta[a]phenanthren-17-one

> <PUBCHEM_IUPAC_TRADITIONAL_NAME>
(8R,9S,13S,14S,16E)-3-allyloxy-16-hydroximino-13-methyl-6,7,8,9,11,12,14,15-octahydrocyclopenta[a]phenanthren-17-one

> <PUBCHEM_IUPAC_INCHI>
InChI=1S/C21H25NO3/c1-3-10-25-14-5-7-15-13(11-14)4-6-17-16(15)8-9-21(2)18(17)12-19(22-24)20(21)23/h3,5,7,11,16-18,24H,1,4,6,8-10,12H2,2H3/b22-19+/t16-,17-,18+,21+/m1/s1

> <PUBCHEM_IUPAC_INCHIKEY>
YEDFYMKASYROKP-BODGLHNHSA-N

> <PUBCHEM_XLOGP3_AA>
4.6

> <PUBCHEM_EXACT_MASS>
339.183444

> <PUBCHEM_MOLECULAR_FORMULA>
C21H25NO3

> <PUBCHEM_MOLECULAR_WEIGHT>
339.4281

> <PUBCHEM_OPENEYE_CAN_SMILES>
CC12CCC3C(C1CC(=NO)C2=O)CCC4=C3C=CC(=C4)OCC=C

> <PUBCHEM_OPENEYE_ISO_SMILES>
C[C@]12CC[C@H]3[C@H]([C@@H]1C/C(=N\O)/C2=O)CCC4=C3C=CC(=C4)OCC=C

> <PUBCHEM_CACTVS_TPSA>
58.9

> <PUBCHEM_MONOISOTOPIC_WEIGHT>
339.183444

> <PUBCHEM_TOTAL_CHARGE>
0

> <PUBCHEM_HEAVY_ATOM_COUNT>
25

> <PUBCHEM_ATOM_DEF_STEREO_COUNT>
4

> <PUBCHEM_ATOM_UDEF_STEREO_COUNT>
0

> <PUBCHEM_BOND_DEF_STEREO_COUNT>
1

> <PUBCHEM_BOND_UDEF_STEREO_COUNT>
0

> <PUBCHEM_ISOTOPIC_ATOM_COUNT>
0

> <PUBCHEM_COMPONENT_COUNT>
1

> <PUBCHEM_CACTVS_TAUTO_COUNT>
8

> <PUBCHEM_COORDINATE_TYPE>
1
5
255

> <PUBCHEM_BONDANNOTATIONS>
14  18  8
14  19  8
18  20  8
19  21  8
20  22  8
21  22  8
5  26  6
6  27  5
7  15  5
8  28  6

$$$$

