10346314
  -OEChem-07051213093D

 65 70  0     1  0  0  0  0  0999 V2000
    2.3651   -0.1920    1.4040 O   0  0  0  0  0  0  0  0  0  0  0  0
    3.1032    0.1844   -0.8023 O   0  0  0  0  0  0  0  0  0  0  0  0
    5.1097    0.9357    0.1214 O   0  0  0  0  0  0  0  0  0  0  0  0
   -0.7114   -3.0763    1.5044 O   0  0  0  0  0  0  0  0  0  0  0  0
    4.4929   -1.9568   -2.0239 O   0  0  0  0  0  0  0  0  0  0  0  0
    7.3155   -1.2859   -2.5366 O   0  0  0  0  0  0  0  0  0  0  0  0
    8.5626   -0.2567   -0.1406 O   0  0  0  0  0  0  0  0  0  0  0  0
   -6.3954   -2.3593    0.4889 O   0  0  0  0  0  0  0  0  0  0  0  0
    6.1732    2.2554    2.2856 O   0  0  0  0  0  0  0  0  0  0  0  0
   -2.1591   -1.3909    0.8372 N   0  0  0  0  0  0  0  0  0  0  0  0
   -4.4748    1.1434   -0.3156 N   0  0  0  0  0  0  0  0  0  0  0  0
    0.0409   -0.0330   -0.4001 C   0  0  1  0  0  0  0  0  0  0  0  0
   -2.3465    0.0122    0.4427 C   0  0  1  0  0  0  0  0  0  0  0  0
   -1.4268    0.3232   -0.7313 C   0  0  0  0  0  0  0  0  0  0  0  0
    0.9574    1.1908   -0.1556 C   0  0  2  0  0  0  0  0  0  0  0  0
    0.1988   -1.0162    0.7329 C   0  0  0  0  0  0  0  0  0  0  0  0
   -3.8132    0.0484    0.1542 C   0  0  0  0  0  0  0  0  0  0  0  0
   -3.4149   -2.1288    0.9463 C   0  0  0  0  0  0  0  0  0  0  0  0
    2.3619    0.7209    0.2956 C   0  0  1  0  0  0  0  0  0  0  0  0
   -0.9157   -1.9432    1.0796 C   0  0  0  0  0  0  0  0  0  0  0  0
   -4.3838   -1.1273    0.4431 C   0  0  0  0  0  0  0  0  0  0  0  0
    1.2892   -1.0313    1.5101 C   0  0  0  0  0  0  0  0  0  0  0  0
    4.4183   -0.1970   -0.3996 C   0  0  2  0  0  0  0  0  0  0  0  0
    0.3966    2.1723    0.8366 C   0  0  0  0  0  0  0  0  0  0  0  0
    5.1441   -0.7507   -1.6256 C   0  0  1  0  0  0  0  0  0  0  0  0
   -5.8335   -1.3017    0.2416 C   0  0  0  0  0  0  0  0  0  0  0  0
    6.6123   -1.0448   -1.3170 C   0  0  2  0  0  0  0  0  0  0  0  0
    7.2775    0.1382   -0.6134 C   0  0  1  0  0  0  0  0  0  0  0  0
    6.4286    0.6153    0.5674 C   0  0  1  0  0  0  0  0  0  0  0  0
   -5.8588    1.0846   -0.5420 C   0  0  0  0  0  0  0  0  0  0  0  0
   -6.5695   -0.1097   -0.2797 C   0  0  0  0  0  0  0  0  0  0  0  0
    7.0127    1.8677    1.2133 C   0  0  0  0  0  0  0  0  0  0  0  0
    0.1009    3.4437    0.5462 C   0  0  0  0  0  0  0  0  0  0  0  0
   -6.5554    2.1946   -1.0292 C   0  0  0  0  0  0  0  0  0  0  0  0
   -7.9466   -0.1831   -0.5014 C   0  0  0  0  0  0  0  0  0  0  0  0
   -7.9319    2.1187   -1.2500 C   0  0  0  0  0  0  0  0  0  0  0  0
   -8.6239    0.9352   -0.9872 C   0  0  0  0  0  0  0  0  0  0  0  0
    0.4364   -0.5372   -1.2953 H   0  0  0  0  0  0  0  0  0  0  0  0
   -2.1129    0.6421    1.3094 H   0  0  0  0  0  0  0  0  0  0  0  0
   -1.5301    1.3651   -1.0547 H   0  0  0  0  0  0  0  0  0  0  0  0
   -1.7325   -0.2846   -1.5955 H   0  0  0  0  0  0  0  0  0  0  0  0
    1.0729    1.6999   -1.1236 H   0  0  0  0  0  0  0  0  0  0  0  0
   -3.5835   -2.3972    1.9929 H   0  0  0  0  0  0  0  0  0  0  0  0
   -3.3606   -3.0294    0.3284 H   0  0  0  0  0  0  0  0  0  0  0  0
    2.8971    1.6150    0.6411 H   0  0  0  0  0  0  0  0  0  0  0  0
    1.4255   -1.6920    2.3560 H   0  0  0  0  0  0  0  0  0  0  0  0
    4.3484   -0.9806    0.3663 H   0  0  0  0  0  0  0  0  0  0  0  0
    0.2250    1.8291    1.8538 H   0  0  0  0  0  0  0  0  0  0  0  0
   -3.9628    1.9963   -0.4938 H   0  0  0  0  0  0  0  0  0  0  0  0
    5.0652   -0.0544   -2.4690 H   0  0  0  0  0  0  0  0  0  0  0  0
    6.7078   -1.9588   -0.7178 H   0  0  0  0  0  0  0  0  0  0  0  0
    7.4225    0.9475   -1.3409 H   0  0  0  0  0  0  0  0  0  0  0  0
    6.3577   -0.1630    1.3394 H   0  0  0  0  0  0  0  0  0  0  0  0
    7.0455    2.6965    0.4984 H   0  0  0  0  0  0  0  0  0  0  0  0
    8.0162    1.6908    1.6101 H   0  0  0  0  0  0  0  0  0  0  0  0
   -0.3001    4.1021    1.3091 H   0  0  0  0  0  0  0  0  0  0  0  0
    0.2499    3.8490   -0.4483 H   0  0  0  0  0  0  0  0  0  0  0  0
   -6.0333    3.1245   -1.2398 H   0  0  0  0  0  0  0  0  0  0  0  0
   -8.5037   -1.0943   -0.3033 H   0  0  0  0  0  0  0  0  0  0  0  0
    4.5547   -2.5904   -1.2887 H   0  0  0  0  0  0  0  0  0  0  0  0
    8.2459   -1.4538   -2.3081 H   0  0  0  0  0  0  0  0  0  0  0  0
    9.0615    0.5492    0.0739 H   0  0  0  0  0  0  0  0  0  0  0  0
   -8.4672    2.9850   -1.6285 H   0  0  0  0  0  0  0  0  0  0  0  0
   -9.6949    0.8854   -1.1620 H   0  0  0  0  0  0  0  0  0  0  0  0
    6.5592    3.0572    2.6773 H   0  0  0  0  0  0  0  0  0  0  0  0
  1 19  1  0  0  0  0
  1 22  1  0  0  0  0
  2 19  1  0  0  0  0
  2 23  1  0  0  0  0
  3 23  1  0  0  0  0
  3 29  1  0  0  0  0
  4 20  2  0  0  0  0
  5 25  1  0  0  0  0
  5 60  1  0  0  0  0
  6 27  1  0  0  0  0
  6 61  1  0  0  0  0
  7 28  1  0  0  0  0
  7 62  1  0  0  0  0
  8 26  2  0  0  0  0
  9 32  1  0  0  0  0
  9 65  1  0  0  0  0
 10 13  1  0  0  0  0
 10 18  1  0  0  0  0
 10 20  1  0  0  0  0
 11 17  1  0  0  0  0
 11 30  1  0  0  0  0
 11 49  1  0  0  0  0
 12 14  1  0  0  0  0
 12 15  1  0  0  0  0
 12 16  1  0  0  0  0
 12 38  1  0  0  0  0
 13 14  1  0  0  0  0
 13 17  1  0  0  0  0
 13 39  1  0  0  0  0
 14 40  1  0  0  0  0
 14 41  1  0  0  0  0
 15 19  1  0  0  0  0
 15 24  1  0  0  0  0
 15 42  1  0  0  0  0
 16 20  1  0  0  0  0
 16 22  2  0  0  0  0
 17 21  2  0  0  0  0
 18 21  1  0  0  0  0
 18 43  1  0  0  0  0
 18 44  1  0  0  0  0
 19 45  1  0  0  0  0
 21 26  1  0  0  0  0
 22 46  1  0  0  0  0
 23 25  1  0  0  0  0
 23 47  1  0  0  0  0
 24 33  2  0  0  0  0
 24 48  1  0  0  0  0
 25 27  1  0  0  0  0
 25 50  1  0  0  0  0
 26 31  1  0  0  0  0
 27 28  1  0  0  0  0
 27 51  1  0  0  0  0
 28 29  1  0  0  0  0
 28 52  1  0  0  0  0
 29 32  1  0  0  0  0
 29 53  1  0  0  0  0
 30 31  1  0  0  0  0
 30 34  2  0  0  0  0
 31 35  2  0  0  0  0
 32 54  1  0  0  0  0
 32 55  1  0  0  0  0
 33 56  1  0  0  0  0
 33 57  1  0  0  0  0
 34 36  1  0  0  0  0
 34 58  1  0  0  0  0
 35 37  1  0  0  0  0
 35 59  1  0  0  0  0
 36 37  2  0  0  0  0
 36 63  1  0  0  0  0
 37 64  1  0  0  0  0
M  END
> <PUBCHEM_COMPOUND_CID>
10346314

> <PUBCHEM_CONFORMER_RMSD>
1

> <PUBCHEM_CONFORMER_DIVERSEORDER>
1
3
13
21
5
17
11
22
18
20
2
4
9
8
16
7
15
12
6
10
19
14

> <PUBCHEM_MMFF94_PARTIAL_CHARGES>
49
1 -0.36
10 -0.66
11 -0.6
12 0.14
13 0.44
15 0.14
16 -0.12
17 -0.04
18 0.44
19 0.56
2 -0.56
20 0.62
21 -0.12
22 -0.07
23 0.56
24 -0.29
25 0.28
26 0.47
27 0.28
28 0.28
29 0.28
3 -0.56
30 0.1
31 0.09
32 0.28
33 -0.3
34 -0.15
35 -0.15
36 -0.15
37 -0.15
4 -0.57
46 0.15
48 0.15
49 0.4
5 -0.68
56 0.15
57 0.15
58 0.15
59 0.15
6 -0.68
60 0.4
61 0.4
62 0.4
63 0.15
64 0.15
65 0.4
7 -0.68
8 -0.57
9 -0.68

> <PUBCHEM_EFFECTIVE_ROTOR_COUNT>
6.2

> <PUBCHEM_PHARMACOPHORE_FEATURES>
22
1 1 acceptor
1 11 cation
1 11 donor
1 2 acceptor
1 3 acceptor
1 33 hydrophobe
1 4 acceptor
1 5 acceptor
1 5 donor
1 6 acceptor
1 6 donor
1 7 acceptor
1 7 donor
1 8 acceptor
1 9 acceptor
1 9 donor
5 10 13 17 18 21 rings
6 1 12 15 16 19 22 rings
6 10 12 13 14 16 20 rings
6 11 17 21 26 30 31 rings
6 3 23 25 27 28 29 rings
6 30 31 34 35 36 37 rings

> <PUBCHEM_HEAVY_ATOM_COUNT>
37

> <PUBCHEM_ATOM_DEF_STEREO_COUNT>
9

> <PUBCHEM_ATOM_UDEF_STEREO_COUNT>
0

> <PUBCHEM_BOND_DEF_STEREO_COUNT>
0

> <PUBCHEM_BOND_UDEF_STEREO_COUNT>
0

> <PUBCHEM_ISOTOPIC_ATOM_COUNT>
0

> <PUBCHEM_COMPONENT_COUNT>
1

> <PUBCHEM_CACTVS_TAUTO_COUNT>
10

> <PUBCHEM_CONFORMER_ID>
009DDF4A00000001

> <PUBCHEM_MMFF94_ENERGY>
108.5557

> <PUBCHEM_FEATURE_SELFOVERLAP>
111.973

> <PUBCHEM_SHAPE_FINGERPRINT>
10162869 55 16515409560693415150
10165383 225 17989489649913903437
10190206 1 18339634667501641788
10674148 151 17988928860170887064
10835480 77 18260266313919683096
10951579 204 18198330943848977708
11007060 377 18410568518307424265
11456790 92 12031797933639830684
12082328 90 17313100865762508401
12133447 93 18271805791311095645
12758862 11 18409731742677064633
12838862 33 18058750056221926837
13811026 1 18334857208148356917
14294032 229 17274265074854503828
14856354 85 16271641196717139755
14931854 50 18338804519965721109
150020 25 18334852827587644470
15131766 46 16517959212247820712
15183329 4 18060134349259823007
15198563 99 18264479745172239132
15419008 91 18337123284112158761
1577012 14 16558746797926571670
15849732 13 18113338596047162269
16120349 18 17385730170896733120
18608769 82 18130781215147565955
18681886 176 18341055121145446617
19611394 137 16987699218738862217
21279426 13 18411417302233598649
23559900 14 18336270051084453913
23576562 1 17773585032340793205
24893992 56 18060419076576459137
249057 3 17989484108736458189
3004659 81 18059849533526615052
3009799 131 18335421257312790689
3092352 35 16200430264833163363
3178227 256 11095880475468974253
335352 9 18272654537067438861
3383291 50 18270393885036825275
3633792 109 17749104512868933259
4073 2 17203324538219179827
437815 12 18333446543283197917
508180 173 18341328912420851825
5219985 9 14345796054302687371
5265222 85 18058999575924433111
5937810 71 18187926244589621449
6371380 46 18343587308997990665

> <PUBCHEM_SHAPE_MULTIPOLES>
698.66
25.89
2.66
1.58
1.72
0.47
-0.28
5.54
-9.51
-1.76
0.84
2.86
-0.24
4.3

> <PUBCHEM_SHAPE_SELFOVERLAP>
1537.167

> <PUBCHEM_SHAPE_VOLUME>
367.3

> <PUBCHEM_COORDINATE_TYPE>
2
5
10

$$$$

