442401
  -OEChem-07051212583D

 39 41  0     1  0  0  0  0  0999 V2000
   -0.8123    1.5061    1.8776 O   0  0  0  0  0  0  0  0  0  0  0  0
    2.3557    1.5216   -0.9376 O   0  0  0  0  0  0  0  0  0  0  0  0
   -0.9438   -0.5866    0.5948 C   0  0  1  0  0  0  0  0  0  0  0  0
   -1.0664    1.0023    0.5544 C   0  0  1  0  0  0  0  0  0  0  0  0
   -1.3863   -1.1527   -0.8070 C   0  0  2  0  0  0  0  0  0  0  0  0
    0.5270   -1.0093    0.9723 C   0  0  0  0  0  0  0  0  0  0  0  0
   -2.4935    1.4402    0.1675 C   0  0  0  0  0  0  0  0  0  0  0  0
   -2.8035   -0.6808   -1.1980 C   0  0  0  0  0  0  0  0  0  0  0  0
   -0.0311    1.6951   -0.3947 C   0  0  0  0  0  0  0  0  0  0  0  0
   -2.9760    0.8326   -1.1448 C   0  0  0  0  0  0  0  0  0  0  0  0
   -1.8361   -1.1732    1.7255 C   0  0  0  0  0  0  0  0  0  0  0  0
    1.5455   -0.2262    0.2348 C   0  0  0  0  0  0  0  0  0  0  0  0
    1.2653    0.9897   -0.3359 C   0  0  0  0  0  0  0  0  0  0  0  0
   -1.3324   -2.6819   -0.9331 C   0  0  0  0  0  0  0  0  0  0  0  0
    2.9143   -0.4660   -0.0235 C   0  0  0  0  0  0  0  0  0  0  0  0
    3.3619    0.6246   -0.7395 C   0  0  0  0  0  0  0  0  0  0  0  0
    3.7116   -1.6355    0.3871 C   0  0  0  0  0  0  0  0  0  0  0  0
   -0.6993   -0.7629   -1.5694 H   0  0  0  0  0  0  0  0  0  0  0  0
    0.6844   -2.0811    0.8188 H   0  0  0  0  0  0  0  0  0  0  0  0
    0.6968   -0.8365    2.0440 H   0  0  0  0  0  0  0  0  0  0  0  0
   -2.5409    2.5353    0.1035 H   0  0  0  0  0  0  0  0  0  0  0  0
   -3.1943    1.1809    0.9709 H   0  0  0  0  0  0  0  0  0  0  0  0
   -3.5525   -1.1520   -0.5505 H   0  0  0  0  0  0  0  0  0  0  0  0
   -3.0342   -1.0193   -2.2163 H   0  0  0  0  0  0  0  0  0  0  0  0
    0.1083    2.7423   -0.1008 H   0  0  0  0  0  0  0  0  0  0  0  0
   -0.3672    1.6830   -1.4358 H   0  0  0  0  0  0  0  0  0  0  0  0
   -2.4413    1.2854   -1.9871 H   0  0  0  0  0  0  0  0  0  0  0  0
   -4.0336    1.0821   -1.2919 H   0  0  0  0  0  0  0  0  0  0  0  0
   -1.5810   -0.7432    2.7007 H   0  0  0  0  0  0  0  0  0  0  0  0
   -2.9012   -0.9903    1.5643 H   0  0  0  0  0  0  0  0  0  0  0  0
   -1.6990   -2.2559    1.8181 H   0  0  0  0  0  0  0  0  0  0  0  0
   -1.6340   -2.9899   -1.9410 H   0  0  0  0  0  0  0  0  0  0  0  0
   -0.3223   -3.0690   -0.7781 H   0  0  0  0  0  0  0  0  0  0  0  0
   -2.0074   -3.1765   -0.2286 H   0  0  0  0  0  0  0  0  0  0  0  0
    0.1221    1.3561    2.0961 H   0  0  0  0  0  0  0  0  0  0  0  0
    4.3180    0.9016   -1.1600 H   0  0  0  0  0  0  0  0  0  0  0  0
    3.3321   -2.5449   -0.0899 H   0  0  0  0  0  0  0  0  0  0  0  0
    4.7643   -1.5228    0.1082 H   0  0  0  0  0  0  0  0  0  0  0  0
    3.6649   -1.7722    1.4724 H   0  0  0  0  0  0  0  0  0  0  0  0
  1  4  1  0  0  0  0
  1 35  1  0  0  0  0
  2 13  1  0  0  0  0
  2 16  1  0  0  0  0
  3  4  1  0  0  0  0
  3  5  1  0  0  0  0
  3  6  1  0  0  0  0
  3 11  1  0  0  0  0
  4  7  1  0  0  0  0
  4  9  1  0  0  0  0
  5  8  1  0  0  0  0
  5 14  1  0  0  0  0
  5 18  1  0  0  0  0
  6 12  1  0  0  0  0
  6 19  1  0  0  0  0
  6 20  1  0  0  0  0
  7 10  1  0  0  0  0
  7 21  1  0  0  0  0
  7 22  1  0  0  0  0
  8 10  1  0  0  0  0
  8 23  1  0  0  0  0
  8 24  1  0  0  0  0
  9 13  1  0  0  0  0
  9 25  1  0  0  0  0
  9 26  1  0  0  0  0
 10 27  1  0  0  0  0
 10 28  1  0  0  0  0
 11 29  1  0  0  0  0
 11 30  1  0  0  0  0
 11 31  1  0  0  0  0
 12 13  2  0  0  0  0
 12 15  1  0  0  0  0
 14 32  1  0  0  0  0
 14 33  1  0  0  0  0
 14 34  1  0  0  0  0
 15 16  2  0  0  0  0
 15 17  1  0  0  0  0
 16 36  1  0  0  0  0
 17 37  1  0  0  0  0
 17 38  1  0  0  0  0
 17 39  1  0  0  0  0
M  END
> <PUBCHEM_COMPOUND_CID>
442401

> <PUBCHEM_CONFORMER_RMSD>
0.6

> <PUBCHEM_CONFORMER_DIVERSEORDER>
1
2

> <PUBCHEM_MMFF94_PARTIAL_CHARGES>
12
1 -0.68
12 -0.18
13 -0.04
15 -0.18
16 -0.01
17 0.18
2 -0.28
35 0.4
36 0.15
4 0.28
6 0.18
9 0.18

> <PUBCHEM_EFFECTIVE_ROTOR_COUNT>
1.2

> <PUBCHEM_PHARMACOPHORE_FEATURES>
6
1 1 acceptor
1 1 donor
1 2 acceptor
5 2 12 13 15 16 rings
6 3 4 5 7 8 10 rings
6 3 4 6 9 12 13 rings

> <PUBCHEM_HEAVY_ATOM_COUNT>
17

> <PUBCHEM_ATOM_DEF_STEREO_COUNT>
3

> <PUBCHEM_ATOM_UDEF_STEREO_COUNT>
0

> <PUBCHEM_BOND_DEF_STEREO_COUNT>
0

> <PUBCHEM_BOND_UDEF_STEREO_COUNT>
0

> <PUBCHEM_ISOTOPIC_ATOM_COUNT>
0

> <PUBCHEM_COMPONENT_COUNT>
1

> <PUBCHEM_CACTVS_TAUTO_COUNT>
1

> <PUBCHEM_CONFORMER_ID>
0006C02100000001

> <PUBCHEM_MMFF94_ENERGY>
43.9697

> <PUBCHEM_FEATURE_SELFOVERLAP>
30.602

> <PUBCHEM_SHAPE_FINGERPRINT>
10062212 137 18265347264161684791
10863032 1 18130788932264474871
10948715 1 17987520480096265709
11578080 2 17606969391154040985
12423570 1 11087243683058042289
12491281 212 18410008875009087893
12592029 89 18263356066021028423
12932764 1 18189041032787457552
13024252 1 16056874702632829417
13299463 15 18055638308901455133
13464514 151 16767341982267642245
13764800 53 11527959966593984455
14115302 16 18334304179300188700
144361 1 18412271644142652537
14713566 1 18335146426739871907
14817 1 13809334860934508411
15001771 113 18190743020630926559
15557651 10 15195301840693616101
15775835 57 18272368706445458885
16945 1 18194404394251252205
18186145 218 17561094634505456829
18619055 16 18410860945049351380
19868273 293 18341613736907167028
200 152 18261117361493764742
20645476 183 18271261515891099551
20653085 51 17775007894554681317
21524375 3 18124030393366382145
22802520 49 18057892329355709085
2334 1 18200867371197309816
23402539 116 17823150079764623740
23419403 2 15938985083145768953
23557571 272 17822016359191599834
23559900 14 17967829266604509562
25 1 17417258774007098429
2748010 2 18130776820583346048
296302 2 16081380630413819784
298252 57 18265627639879676389
427121 178 15507941383788817843
528886 8 17989495116642529441
69090 78 18337960085485168861
6992083 37 18265890444464765728
74978 22 18411697677851311694
81228 2 16733249248809415569
90525 40 18335695065788767302
9981440 41 17838345077685555312

> <PUBCHEM_SHAPE_MULTIPOLES>
338.11
5.13
2.18
1.4
3.43
0.58
-0.4
0.39
1.26
-0.41
0.24
-0.8
0.12
-0.61

> <PUBCHEM_SHAPE_SELFOVERLAP>
723.436

> <PUBCHEM_SHAPE_VOLUME>
188.1

> <PUBCHEM_COORDINATE_TYPE>
2
5
10

$$$$

