13095
  -OEChem-06261207452D

 30 30  0     1  0  0  0  0  0999 V2000
    6.3301    4.1550    0.0000 F   0  0  0  0  0  0  0  0  0  0  0  0
    7.3301    3.1550    0.0000 F   0  0  0  0  0  0  0  0  0  0  0  0
    5.3301    3.1550    0.0000 F   0  0  0  0  0  0  0  0  0  0  0  0
    5.4641   -1.3450    0.0000 O   0  0  0  0  0  0  0  0  0  0  0  0
    3.7320   -2.3450    0.0000 O   0  0  0  0  0  0  0  0  0  0  0  0
    2.0000   -2.3450    0.0000 O   0  0  0  0  0  0  0  0  0  0  0  0
    2.8660   -3.8450    0.0000 N   0  0  0  0  0  0  0  0  0  0  0  0
    4.5981    0.1550    0.0000 C   0  0  0  0  0  0  0  0  0  0  0  0
    4.5981   -0.8450    0.0000 C   0  0  3  0  0  0  0  0  0  0  0  0
    5.4641    0.6550    0.0000 C   0  0  0  0  0  0  0  0  0  0  0  0
    3.7320   -1.3450    0.0000 C   0  0  0  0  0  0  0  0  0  0  0  0
    5.4641    1.6550    0.0000 C   0  0  0  0  0  0  0  0  0  0  0  0
    6.3301    0.1550    0.0000 C   0  0  0  0  0  0  0  0  0  0  0  0
    6.3301    2.1550    0.0000 C   0  0  0  0  0  0  0  0  0  0  0  0
    7.1962    0.6550    0.0000 C   0  0  0  0  0  0  0  0  0  0  0  0
    7.1962    1.6550    0.0000 C   0  0  0  0  0  0  0  0  0  0  0  0
    6.3301    3.1550    0.0000 C   0  0  0  0  0  0  0  0  0  0  0  0
    2.8660   -2.8450    0.0000 C   0  0  0  0  0  0  0  0  0  0  0  0
    4.3860    0.7376    0.0000 H   0  0  0  0  0  0  0  0  0  0  0  0
    3.9875    0.0473    0.0000 H   0  0  0  0  0  0  0  0  0  0  0  0
    4.5981   -1.6950    0.0000 H   0  0  0  0  0  0  0  0  0  0  0  0
    3.5200   -0.7624    0.0000 H   0  0  0  0  0  0  0  0  0  0  0  0
    3.1215   -1.4527    0.0000 H   0  0  0  0  0  0  0  0  0  0  0  0
    4.9272    1.9650    0.0000 H   0  0  0  0  0  0  0  0  0  0  0  0
    6.3301   -0.4650    0.0000 H   0  0  0  0  0  0  0  0  0  0  0  0
    7.7331    0.3450    0.0000 H   0  0  0  0  0  0  0  0  0  0  0  0
    7.7331    1.9650    0.0000 H   0  0  0  0  0  0  0  0  0  0  0  0
    5.4641   -1.9650    0.0000 H   0  0  0  0  0  0  0  0  0  0  0  0
    2.3291   -4.1550    0.0000 H   0  0  0  0  0  0  0  0  0  0  0  0
    3.4030   -4.1550    0.0000 H   0  0  0  0  0  0  0  0  0  0  0  0
  1 17  1  0  0  0  0
  2 17  1  0  0  0  0
  3 17  1  0  0  0  0
  4  9  1  0  0  0  0
  4 28  1  0  0  0  0
  5 11  1  0  0  0  0
  5 18  1  0  0  0  0
  6 18  2  0  0  0  0
  7 18  1  0  0  0  0
  7 29  1  0  0  0  0
  7 30  1  0  0  0  0
  8  9  1  0  0  0  0
  8 10  1  0  0  0  0
  8 19  1  0  0  0  0
  8 20  1  0  0  0  0
  9 11  1  0  0  0  0
  9 21  1  0  0  0  0
 10 12  2  0  0  0  0
 10 13  1  0  0  0  0
 11 22  1  0  0  0  0
 11 23  1  0  0  0  0
 12 14  1  0  0  0  0
 12 24  1  0  0  0  0
 13 15  2  0  0  0  0
 13 25  1  0  0  0  0
 14 16  2  0  0  0  0
 14 17  1  0  0  0  0
 15 16  1  0  0  0  0
 15 26  1  0  0  0  0
 16 27  1  0  0  0  0
M  END
> <PUBCHEM_COMPOUND_CID>
13095

> <PUBCHEM_COMPOUND_CANONICALIZED>
1

> <PUBCHEM_CACTVS_COMPLEXITY>
283

> <PUBCHEM_CACTVS_HBOND_ACCEPTOR>
6

> <PUBCHEM_CACTVS_HBOND_DONOR>
2

> <PUBCHEM_CACTVS_ROTATABLE_BOND>
5

> <PUBCHEM_CACTVS_SUBSKEYS>
AAADccByMYAAAAAAAAAAAAAAAAAAAAAAAAAwAAAAAAAAAAABAAAAHwAQCAAADBSgmBIwCIBABgCIAiBCGAACAAAgAAAIiAAAAIkJMCKAERCIYAAkwAELiAeAwPAOAAACAAAAAAAAAAQAAAAAAAAAAAAAAA==

> <PUBCHEM_IUPAC_OPENEYE_NAME>
[2-hydroxy-3-[3-(trifluoromethyl)phenyl]propyl] carbamate

> <PUBCHEM_IUPAC_CAS_NAME>
carbamic acid [2-hydroxy-3-[3-(trifluoromethyl)phenyl]propyl] ester

> <PUBCHEM_IUPAC_NAME>
[2-hydroxy-3-[3-(trifluoromethyl)phenyl]propyl] carbamate

> <PUBCHEM_IUPAC_SYSTEMATIC_NAME>
[2-oxidanyl-3-[3-(trifluoromethyl)phenyl]propyl] carbamate

> <PUBCHEM_IUPAC_TRADITIONAL_NAME>
carbamic acid [2-hydroxy-3-[3-(trifluoromethyl)phenyl]propyl] ester

> <PUBCHEM_IUPAC_INCHI>
InChI=1S/C11H12F3NO3/c12-11(13,14)8-3-1-2-7(4-8)5-9(16)6-18-10(15)17/h1-4,9,16H,5-6H2,(H2,15,17)

> <PUBCHEM_IUPAC_INCHIKEY>
PSEDXXHMVYXIOT-UHFFFAOYSA-N

> <PUBCHEM_XLOGP3_AA>
1.8

> <PUBCHEM_EXACT_MASS>
263.076928

> <PUBCHEM_MOLECULAR_FORMULA>
C11H12F3NO3

> <PUBCHEM_MOLECULAR_WEIGHT>
263.21309

> <PUBCHEM_OPENEYE_CAN_SMILES>
C1=CC(=CC(=C1)C(F)(F)F)CC(COC(=O)N)O

> <PUBCHEM_OPENEYE_ISO_SMILES>
C1=CC(=CC(=C1)C(F)(F)F)CC(COC(=O)N)O

> <PUBCHEM_CACTVS_TPSA>
72.6

> <PUBCHEM_MONOISOTOPIC_WEIGHT>
263.076928

> <PUBCHEM_TOTAL_CHARGE>
0

> <PUBCHEM_HEAVY_ATOM_COUNT>
18

> <PUBCHEM_ATOM_DEF_STEREO_COUNT>
0

> <PUBCHEM_ATOM_UDEF_STEREO_COUNT>
1

> <PUBCHEM_BOND_DEF_STEREO_COUNT>
0

> <PUBCHEM_BOND_UDEF_STEREO_COUNT>
0

> <PUBCHEM_ISOTOPIC_ATOM_COUNT>
0

> <PUBCHEM_COMPONENT_COUNT>
1

> <PUBCHEM_CACTVS_TAUTO_COUNT>
2

> <PUBCHEM_COORDINATE_TYPE>
1
5
255

> <PUBCHEM_BONDANNOTATIONS>
10  12  8
10  13  8
12  14  8
13  15  8
14  16  8
15  16  8
9  21  3

$$$$

