11953926
  -OEChem-07051212563D

 57 61  0     1  0  0  0  0  0999 V2000
    0.6150   -2.0006    2.7772 O   0  0  0  0  0  0  0  0  0  0  0  0
   -0.2831    2.4906   -1.9133 O   0  0  0  0  0  0  0  0  0  0  0  0
    0.6879    3.0969    1.0709 O   0  0  0  0  0  0  0  0  0  0  0  0
   -1.2184    1.8233    1.2246 O   0  0  0  0  0  0  0  0  0  0  0  0
    0.9076   -2.3261   -0.2539 N   0  3  1  0  0  0  0  0  0  0  0  0
   -1.4048   -1.9603    0.6506 N   0  0  0  0  0  0  0  0  0  0  0  0
   -0.0716   -1.3627    0.4834 C   0  0  2  0  0  0  0  0  0  0  0  0
   -0.2653   -0.1746   -0.5750 C   0  0  1  0  0  0  0  0  0  0  0  0
    0.6117    1.0777   -0.2074 C   0  0  1  0  0  0  0  0  0  0  0  0
    0.0984   -0.8087   -1.9511 C   0  0  0  0  0  0  0  0  0  0  0  0
    1.9342    0.6029    0.4899 C   0  0  1  0  0  0  0  0  0  0  0  0
    0.4243   -0.9092    1.8818 C   0  0  2  0  0  0  0  0  0  0  0  0
    0.4159   -2.2680   -1.7042 C   0  0  0  0  0  0  0  0  0  0  0  0
    2.3964   -1.8879   -0.1676 C   0  0  0  0  0  0  0  0  0  0  0  0
    1.6502    0.0057    1.8789 C   0  0  0  0  0  0  0  0  0  0  0  0
   -1.7737   -0.0033   -0.5358 C   0  0  0  0  0  0  0  0  0  0  0  0
    2.7264   -0.4183   -0.3241 C   0  0  0  0  0  0  0  0  0  0  0  0
    0.8233   -3.7856    0.2037 C   0  0  0  0  0  0  0  0  0  0  0  0
   -2.3493   -1.0579    0.1793 C   0  0  0  0  0  0  0  0  0  0  0  0
    0.9368    1.9966   -1.4110 C   0  0  0  0  0  0  0  0  0  0  0  0
   -0.0919    2.0138    0.7664 C   0  0  0  0  0  0  0  0  0  0  0  0
   -2.5694    0.9652   -1.1321 C   0  0  0  0  0  0  0  0  0  0  0  0
    3.7499   -0.0350   -1.1056 C   0  0  0  0  0  0  0  0  0  0  0  0
   -3.7253   -1.1737    0.2948 C   0  0  0  0  0  0  0  0  0  0  0  0
   -3.9559    0.8688   -0.9971 C   0  0  0  0  0  0  0  0  0  0  0  0
   -4.5306   -0.1952   -0.2895 C   0  0  0  0  0  0  0  0  0  0  0  0
    4.1447    1.3845   -1.3169 C   0  0  0  0  0  0  0  0  0  0  0  0
    0.1166    4.0409    1.9834 C   0  0  0  0  0  0  0  0  0  0  0  0
    0.9865   -0.3764   -2.4109 H   0  0  0  0  0  0  0  0  0  0  0  0
   -0.6942   -0.7105   -2.7023 H   0  0  0  0  0  0  0  0  0  0  0  0
    2.5608    1.4696    0.7182 H   0  0  0  0  0  0  0  0  0  0  0  0
   -0.3914   -0.3358    2.3412 H   0  0  0  0  0  0  0  0  0  0  0  0
   -0.4882   -2.8829   -1.7842 H   0  0  0  0  0  0  0  0  0  0  0  0
    1.1872   -2.6706   -2.3688 H   0  0  0  0  0  0  0  0  0  0  0  0
    2.9284   -2.4939   -0.9124 H   0  0  0  0  0  0  0  0  0  0  0  0
    2.7550   -2.2286    0.8112 H   0  0  0  0  0  0  0  0  0  0  0  0
    2.5338   -0.5105    2.2773 H   0  0  0  0  0  0  0  0  0  0  0  0
    1.4742    0.8151    2.6011 H   0  0  0  0  0  0  0  0  0  0  0  0
   -1.6184   -2.6528    1.3545 H   0  0  0  0  0  0  0  0  0  0  0  0
    1.1527   -3.8506    1.2421 H   0  0  0  0  0  0  0  0  0  0  0  0
   -0.2048   -4.1423    0.1024 H   0  0  0  0  0  0  0  0  0  0  0  0
    1.4844   -4.3786   -0.4360 H   0  0  0  0  0  0  0  0  0  0  0  0
    1.4600    1.5018   -2.2280 H   0  0  0  0  0  0  0  0  0  0  0  0
    1.5602    2.8562   -1.1406 H   0  0  0  0  0  0  0  0  0  0  0  0
   -2.2160    1.7658   -1.7516 H   0  0  0  0  0  0  0  0  0  0  0  0
    0.8789   -1.6334    3.6381 H   0  0  0  0  0  0  0  0  0  0  0  0
    4.3199   -0.7808   -1.6535 H   0  0  0  0  0  0  0  0  0  0  0  0
   -4.1753   -2.0045    0.8289 H   0  0  0  0  0  0  0  0  0  0  0  0
   -0.5281    3.2734   -1.3907 H   0  0  0  0  0  0  0  0  0  0  0  0
   -4.5977    1.6113   -1.4640 H   0  0  0  0  0  0  0  0  0  0  0  0
   -5.6117   -0.2641   -0.2055 H   0  0  0  0  0  0  0  0  0  0  0  0
    5.2251    1.4710   -1.1527 H   0  0  0  0  0  0  0  0  0  0  0  0
    3.6853    2.1405   -0.6857 H   0  0  0  0  0  0  0  0  0  0  0  0
    3.9573    1.6614   -2.3598 H   0  0  0  0  0  0  0  0  0  0  0  0
    0.8397    4.8465    2.1353 H   0  0  0  0  0  0  0  0  0  0  0  0
   -0.0836    3.5617    2.9463 H   0  0  0  0  0  0  0  0  0  0  0  0
   -0.8000    4.4655    1.5631 H   0  0  0  0  0  0  0  0  0  0  0  0
  1 12  1  0  0  0  0
  1 46  1  0  0  0  0
  2 20  1  0  0  0  0
  2 49  1  0  0  0  0
  3 21  1  0  0  0  0
  3 28  1  0  0  0  0
  4 21  2  0  0  0  0
  5  7  1  0  0  0  0
  5 13  1  0  0  0  0
  5 14  1  0  0  0  0
  5 18  1  0  0  0  0
  6  7  1  0  0  0  0
  6 19  1  0  0  0  0
  6 39  1  0  0  0  0
  7  8  1  0  0  0  0
  7 12  1  0  0  0  0
  8  9  1  0  0  0  0
  8 10  1  0  0  0  0
  8 16  1  0  0  0  0
  9 11  1  0  0  0  0
  9 20  1  0  0  0  0
  9 21  1  0  0  0  0
 10 13  1  0  0  0  0
 10 29  1  0  0  0  0
 10 30  1  0  0  0  0
 11 15  1  0  0  0  0
 11 17  1  0  0  0  0
 11 31  1  0  0  0  0
 12 15  1  0  0  0  0
 12 32  1  0  0  0  0
 13 33  1  0  0  0  0
 13 34  1  0  0  0  0
 14 17  1  0  0  0  0
 14 35  1  0  0  0  0
 14 36  1  0  0  0  0
 15 37  1  0  0  0  0
 15 38  1  0  0  0  0
 16 19  1  0  0  0  0
 16 22  2  0  0  0  0
 17 23  2  0  0  0  0
 18 40  1  0  0  0  0
 18 41  1  0  0  0  0
 18 42  1  0  0  0  0
 19 24  2  0  0  0  0
 20 43  1  0  0  0  0
 20 44  1  0  0  0  0
 22 25  1  0  0  0  0
 22 45  1  0  0  0  0
 23 27  1  0  0  0  0
 23 47  1  0  0  0  0
 24 26  1  0  0  0  0
 24 48  1  0  0  0  0
 25 26  2  0  0  0  0
 25 50  1  0  0  0  0
 26 51  1  0  0  0  0
 27 52  1  0  0  0  0
 27 53  1  0  0  0  0
 27 54  1  0  0  0  0
 28 55  1  0  0  0  0
 28 56  1  0  0  0  0
 28 57  1  0  0  0  0
M  CHG  1   5   1
M  END
> <PUBCHEM_COMPOUND_CID>
11953926

> <PUBCHEM_CONFORMER_RMSD>
0.8

> <PUBCHEM_CONFORMER_DIVERSEORDER>
1
3
2

> <PUBCHEM_MMFF94_PARTIAL_CHARGES>
34
1 -0.68
11 0.14
12 0.28
13 0.5
14 0.64
16 -0.14
17 -0.28
18 0.5
19 0.1
2 -0.68
20 0.28
21 0.66
22 -0.15
23 -0.29
24 -0.15
25 -0.15
26 -0.15
27 0.14
28 0.28
3 -0.43
39 0.4
4 -0.57
45 0.15
46 0.4
47 0.15
48 0.15
49 0.4
5 -1.01
50 0.15
51 0.15
6 -0.87
7 0.87
8 0.14
9 0.06

> <PUBCHEM_EFFECTIVE_ROTOR_COUNT>
4.4

> <PUBCHEM_PHARMACOPHORE_FEATURES>
13
1 1 acceptor
1 1 donor
1 2 acceptor
1 2 donor
1 27 hydrophobe
1 4 acceptor
1 5 cation
1 6 cation
1 6 donor
5 5 7 8 10 13 rings
5 6 7 8 16 19 rings
6 16 19 22 24 25 26 rings
9 5 7 8 9 11 12 14 15 17 rings

> <PUBCHEM_HEAVY_ATOM_COUNT>
28

> <PUBCHEM_ATOM_DEF_STEREO_COUNT>
5

> <PUBCHEM_ATOM_UDEF_STEREO_COUNT>
1

> <PUBCHEM_BOND_DEF_STEREO_COUNT>
1

> <PUBCHEM_BOND_UDEF_STEREO_COUNT>
0

> <PUBCHEM_ISOTOPIC_ATOM_COUNT>
0

> <PUBCHEM_COMPONENT_COUNT>
1

> <PUBCHEM_CACTVS_TAUTO_COUNT>
1

> <PUBCHEM_CONFORMER_ID>
00B6670600000001

> <PUBCHEM_MMFF94_ENERGY>
144.8657

> <PUBCHEM_FEATURE_SELFOVERLAP>
67.292

> <PUBCHEM_SHAPE_FINGERPRINT>
10165383 225 17401177008039718337
104564 63 17897156034145073896
10863032 1 17346880035472347474
10948715 1 17917426489097336374
11112241 14 16374667485150446752
11578080 2 14565576377038274688
12654903 92 17968945167009861302
12788726 201 18261096488243382516
13134695 92 18260557735702722741
13140716 1 18193567657866494259
13149001 5 17826223004563944388
14787075 74 18271239409303997831
14955137 171 18115569466564380511
15230672 131 17615699428118709696
1601671 61 18411139151566726525
16945 1 18334863804933144075
17492 54 17988631965834244572
20600515 1 16905004149131054011
20691752 17 18192173541109127550
20905425 154 18269566103003952039
229495 10 16628869251552712318
23419403 2 17692781845057880048
23558518 356 17758955213672760544
23559900 14 18054799643396548774
238 59 18048915976825146485
2748010 2 17837775521750301995
3380486 77 17122290728477120379
394222 165 17775570857683051184
5265222 85 16899605023702874796
81228 2 17329722423046258651

> <PUBCHEM_SHAPE_MULTIPOLES>
542.79
5.24
3.71
2.01
2.84
1.17
-0.57
0.17
2.06
-0.99
-1.29
-0.62
0.38
0.04

> <PUBCHEM_SHAPE_SELFOVERLAP>
1202.43

> <PUBCHEM_SHAPE_VOLUME>
285.2

> <PUBCHEM_COORDINATE_TYPE>
2
5
10

$$$$

