10506
  -OEChem-06261204373D

 81 86  0     1  0  0  0  0  0999 V2000
   -3.5027    3.1250   -0.6969 O   0  0  0  0  0  0  0  0  0  0  0  0
    3.7091   -0.4798    0.0348 O   0  0  0  0  0  0  0  0  0  0  0  0
   -6.8760   -2.4574    0.7531 O   0  0  0  0  0  0  0  0  0  0  0  0
    5.1804   -1.4714   -1.5337 O   0  0  0  0  0  0  0  0  0  0  0  0
   -8.3996   -2.5662   -0.9681 O   0  0  0  0  0  0  0  0  0  0  0  0
    4.9182   -1.9568    2.0962 O   0  0  0  0  0  0  0  0  0  0  0  0
    6.0255    0.4953    1.2623 O   0  0  0  0  0  0  0  0  0  0  0  0
    8.1426    0.4926   -0.5655 O   0  0  0  0  0  0  0  0  0  0  0  0
   -2.9217    1.8246   -0.5108 C   0  0  1  0  0  0  0  0  0  0  0  0
   -1.5353    2.0325    0.1793 C   0  0  1  0  0  0  0  0  0  0  0  0
   -0.9342    0.7006    0.7084 C   0  0  1  0  0  0  0  0  0  0  0  0
   -3.9149    0.9267    0.3243 C   0  0  2  0  0  0  0  0  0  0  0  0
    0.5038    0.8700    1.3357 C   0  0  2  0  0  0  0  0  0  0  0  0
    1.4426    1.6023    0.3260 C   0  0  2  0  0  0  0  0  0  0  0  0
   -1.9167   -0.0508    1.6366 C   0  0  0  0  0  0  0  0  0  0  0  0
   -3.3240    0.5346    1.6913 C   0  0  0  0  0  0  0  0  0  0  0  0
   -4.1352   -0.3230   -0.5866 C   0  0  2  0  0  0  0  0  0  0  0  0
   -0.5501    2.7934   -0.7354 C   0  0  0  0  0  0  0  0  0  0  0  0
   -2.8399    1.1565   -1.9071 C   0  0  0  0  0  0  0  0  0  0  0  0
    0.8444    2.9377   -0.1384 C   0  0  0  0  0  0  0  0  0  0  0  0
   -4.0607    0.2528   -1.9965 C   0  0  0  0  0  0  0  0  0  0  0  0
    1.1400   -0.5030    1.7026 C   0  0  0  0  0  0  0  0  0  0  0  0
    1.8213    0.7249   -0.8894 C   0  0  0  0  0  0  0  0  0  0  0  0
   -5.2563    1.6539    0.6077 C   0  0  0  0  0  0  0  0  0  0  0  0
    0.4460    1.6961    2.6505 C   0  0  0  0  0  0  0  0  0  0  0  0
    1.5045   -1.3693    0.4975 C   0  0  0  0  0  0  0  0  0  0  0  0
    2.3956   -0.6348   -0.4983 C   0  0  2  0  0  0  0  0  0  0  0  0
   -5.3711   -1.1267   -0.3449 C   0  0  0  0  0  0  0  0  0  0  0  0
   -5.6069   -1.8210    0.9372 C   0  0  0  0  0  0  0  0  0  0  0  0
   -6.3776   -1.3252   -1.1918 C   0  0  0  0  0  0  0  0  0  0  0  0
    4.5292   -1.6055   -0.2667 C   0  0  1  0  0  0  0  0  0  0  0  0
   -7.3451   -2.1762   -0.4974 C   0  0  0  0  0  0  0  0  0  0  0  0
    5.5667   -1.8400    0.8370 C   0  0  1  0  0  0  0  0  0  0  0  0
    6.6274   -0.7380    0.8672 C   0  0  1  0  0  0  0  0  0  0  0  0
    6.1320   -0.4002   -1.5869 C   0  0  1  0  0  0  0  0  0  0  0  0
    7.2318   -0.5991   -0.5333 C   0  0  1  0  0  0  0  0  0  0  0  0
    6.7071   -0.3751   -3.0002 C   0  0  0  0  0  0  0  0  0  0  0  0
   -1.7105    2.6942    1.0392 H   0  0  0  0  0  0  0  0  0  0  0  0
   -0.8179    0.0539   -0.1694 H   0  0  0  0  0  0  0  0  0  0  0  0
    2.3849    1.8371    0.8422 H   0  0  0  0  0  0  0  0  0  0  0  0
   -1.5522   -0.1007    2.6663 H   0  0  0  0  0  0  0  0  0  0  0  0
   -1.9684   -1.0983    1.3132 H   0  0  0  0  0  0  0  0  0  0  0  0
   -3.9648   -0.1571    2.2406 H   0  0  0  0  0  0  0  0  0  0  0  0
   -3.2798    1.4340    2.3223 H   0  0  0  0  0  0  0  0  0  0  0  0
   -3.2876   -1.0133   -0.4822 H   0  0  0  0  0  0  0  0  0  0  0  0
   -0.9341    3.7995   -0.9408 H   0  0  0  0  0  0  0  0  0  0  0  0
   -0.4661    2.2991   -1.7085 H   0  0  0  0  0  0  0  0  0  0  0  0
   -1.9459    0.5310   -2.0026 H   0  0  0  0  0  0  0  0  0  0  0  0
   -2.8331    1.8774   -2.7313 H   0  0  0  0  0  0  0  0  0  0  0  0
    1.5060    3.4044   -0.8789 H   0  0  0  0  0  0  0  0  0  0  0  0
    0.8029    3.6388    0.7035 H   0  0  0  0  0  0  0  0  0  0  0  0
   -4.9426    0.8494   -2.2583 H   0  0  0  0  0  0  0  0  0  0  0  0
   -3.9279   -0.5186   -2.7626 H   0  0  0  0  0  0  0  0  0  0  0  0
    0.4827   -1.0770    2.3654 H   0  0  0  0  0  0  0  0  0  0  0  0
    2.0587   -0.3273    2.2797 H   0  0  0  0  0  0  0  0  0  0  0  0
    0.9482    0.5594   -1.5298 H   0  0  0  0  0  0  0  0  0  0  0  0
    2.5607    1.2654   -1.4942 H   0  0  0  0  0  0  0  0  0  0  0  0
   -5.7821    1.9188   -0.3159 H   0  0  0  0  0  0  0  0  0  0  0  0
   -5.9377    1.0491    1.2134 H   0  0  0  0  0  0  0  0  0  0  0  0
   -5.0876    2.5795    1.1711 H   0  0  0  0  0  0  0  0  0  0  0  0
    1.4566    1.9358    3.0027 H   0  0  0  0  0  0  0  0  0  0  0  0
   -0.0871    2.6428    2.5333 H   0  0  0  0  0  0  0  0  0  0  0  0
   -0.0418    1.1467    3.4613 H   0  0  0  0  0  0  0  0  0  0  0  0
    1.9976   -2.2757    0.8659 H   0  0  0  0  0  0  0  0  0  0  0  0
    0.5879   -1.6966   -0.0064 H   0  0  0  0  0  0  0  0  0  0  0  0
    2.4529   -1.2238   -1.4243 H   0  0  0  0  0  0  0  0  0  0  0  0
   -3.0051    3.5933   -1.3872 H   0  0  0  0  0  0  0  0  0  0  0  0
   -4.8511   -2.5836    1.1451 H   0  0  0  0  0  0  0  0  0  0  0  0
   -5.7118   -1.1521    1.7910 H   0  0  0  0  0  0  0  0  0  0  0  0
   -6.5087   -0.9620   -2.1961 H   0  0  0  0  0  0  0  0  0  0  0  0
    3.9134   -2.5118   -0.3205 H   0  0  0  0  0  0  0  0  0  0  0  0
    6.0814   -2.7891    0.6386 H   0  0  0  0  0  0  0  0  0  0  0  0
    7.4014   -0.9516    1.6115 H   0  0  0  0  0  0  0  0  0  0  0  0
    5.6109    0.5538   -1.4389 H   0  0  0  0  0  0  0  0  0  0  0  0
    7.7957   -1.5122   -0.7606 H   0  0  0  0  0  0  0  0  0  0  0  0
    4.2674   -2.6759    2.0269 H   0  0  0  0  0  0  0  0  0  0  0  0
    7.4117    0.4508   -3.1358 H   0  0  0  0  0  0  0  0  0  0  0  0
    7.2189   -1.3159   -3.2309 H   0  0  0  0  0  0  0  0  0  0  0  0
    5.9023   -0.2679   -3.7359 H   0  0  0  0  0  0  0  0  0  0  0  0
    5.2573    0.6719    0.6959 H   0  0  0  0  0  0  0  0  0  0  0  0
    7.6477    1.2975   -0.3349 H   0  0  0  0  0  0  0  0  0  0  0  0
  1  9  1  0  0  0  0
  1 67  1  0  0  0  0
  2 27  1  0  0  0  0
  2 31  1  0  0  0  0
  3 29  1  0  0  0  0
  3 32  1  0  0  0  0
  4 31  1  0  0  0  0
  4 35  1  0  0  0  0
  5 32  2  0  0  0  0
  6 33  1  0  0  0  0
  6 76  1  0  0  0  0
  7 34  1  0  0  0  0
  7 80  1  0  0  0  0
  8 36  1  0  0  0  0
  8 81  1  0  0  0  0
  9 10  1  0  0  0  0
  9 12  1  0  0  0  0
  9 19  1  0  0  0  0
 10 11  1  0  0  0  0
 10 18  1  0  0  0  0
 10 38  1  0  0  0  0
 11 13  1  0  0  0  0
 11 15  1  0  0  0  0
 11 39  1  0  0  0  0
 12 16  1  0  0  0  0
 12 17  1  0  0  0  0
 12 24  1  0  0  0  0
 13 14  1  0  0  0  0
 13 22  1  0  0  0  0
 13 25  1  0  0  0  0
 14 20  1  0  0  0  0
 14 23  1  0  0  0  0
 14 40  1  0  0  0  0
 15 16  1  0  0  0  0
 15 41  1  0  0  0  0
 15 42  1  0  0  0  0
 16 43  1  0  0  0  0
 16 44  1  0  0  0  0
 17 21  1  0  0  0  0
 17 28  1  0  0  0  0
 17 45  1  0  0  0  0
 18 20  1  0  0  0  0
 18 46  1  0  0  0  0
 18 47  1  0  0  0  0
 19 21  1  0  0  0  0
 19 48  1  0  0  0  0
 19 49  1  0  0  0  0
 20 50  1  0  0  0  0
 20 51  1  0  0  0  0
 21 52  1  0  0  0  0
 21 53  1  0  0  0  0
 22 26  1  0  0  0  0
 22 54  1  0  0  0  0
 22 55  1  0  0  0  0
 23 27  1  0  0  0  0
 23 56  1  0  0  0  0
 23 57  1  0  0  0  0
 24 58  1  0  0  0  0
 24 59  1  0  0  0  0
 24 60  1  0  0  0  0
 25 61  1  0  0  0  0
 25 62  1  0  0  0  0
 25 63  1  0  0  0  0
 26 27  1  0  0  0  0
 26 64  1  0  0  0  0
 26 65  1  0  0  0  0
 27 66  1  0  0  0  0
 28 29  1  0  0  0  0
 28 30  2  0  0  0  0
 29 68  1  0  0  0  0
 29 69  1  0  0  0  0
 30 32  1  0  0  0  0
 30 70  1  0  0  0  0
 31 33  1  0  0  0  0
 31 71  1  0  0  0  0
 33 34  1  0  0  0  0
 33 72  1  0  0  0  0
 34 36  1  0  0  0  0
 34 73  1  0  0  0  0
 35 36  1  0  0  0  0
 35 37  1  0  0  0  0
 35 74  1  0  0  0  0
 36 75  1  0  0  0  0
 37 77  1  0  0  0  0
 37 78  1  0  0  0  0
 37 79  1  0  0  0  0
M  END
> <PUBCHEM_COMPOUND_CID>
10506

> <PUBCHEM_CONFORMER_RMSD>
1

> <PUBCHEM_CONFORMER_DIVERSEORDER>
2
167
58
98
62
85
120
115
113
63
144
112
37
33
48
119
54
40
152
68
50
82
29
97
52
70
118
154
137
78
28
94
89
12
76
60
18
64
93
132
114
141
80
77
103
140
71
44
135
133
150
104
49
31
105
51
79
128
15
59
53
162
159
146
22
65
164
61
17
66
27
161
42
169
88
4
13
166
107
111
108
168
157
139
67
100
131
21
138
34
124
84
41
69
14
153
102
74
57
75
11
5
109
155
20
38
16
134
46
30
35
163
55
136
147
149
45
121
126
92
1
101
123
130
6
95
165
83
87
143
151
8
39
106
122
26
99
127
110
142
81
116
90
73
36
10
24
158
145
43
96
160
9
56
156
91
23
32
129
3
25
47
148
86
117
72
7
19
125

> <PUBCHEM_MMFF94_PARTIAL_CHARGES>
25
1 -0.68
17 0.14
2 -0.56
27 0.28
28 -0.28
29 0.42
3 -0.43
30 -0.14
31 0.56
32 0.71
33 0.28
34 0.28
35 0.28
36 0.28
4 -0.56
5 -0.57
6 -0.68
67 0.4
7 -0.68
70 0.15
76 0.4
8 -0.68
80 0.4
81 0.4
9 0.28

> <PUBCHEM_EFFECTIVE_ROTOR_COUNT>
6.8

> <PUBCHEM_PHARMACOPHORE_FEATURES>
17
1 1 acceptor
1 1 donor
1 2 acceptor
1 4 acceptor
1 5 acceptor
1 6 acceptor
1 6 donor
1 7 acceptor
1 7 donor
1 8 acceptor
1 8 donor
5 3 28 29 30 32 rings
5 9 12 17 19 21 rings
6 10 11 13 14 18 20 rings
6 13 14 22 23 26 27 rings
6 4 31 33 34 35 36 rings
6 9 10 11 12 15 16 rings

> <PUBCHEM_HEAVY_ATOM_COUNT>
37

> <PUBCHEM_ATOM_DEF_STEREO_COUNT>
8

> <PUBCHEM_ATOM_UDEF_STEREO_COUNT>
5

> <PUBCHEM_BOND_DEF_STEREO_COUNT>
0

> <PUBCHEM_BOND_UDEF_STEREO_COUNT>
0

> <PUBCHEM_ISOTOPIC_ATOM_COUNT>
0

> <PUBCHEM_COMPONENT_COUNT>
1

> <PUBCHEM_CACTVS_TAUTO_COUNT>
1

> <PUBCHEM_CONFORMER_ID>
0000290A00000002

> <PUBCHEM_MMFF94_ENERGY>
128.5929

> <PUBCHEM_FEATURE_SELFOVERLAP>
86.59

> <PUBCHEM_SHAPE_FINGERPRINT>
10076449 9 18343297034023881691
10190108 129 15140951860294389398
117089 54 18194116327392253679
12422481 6 6122500190580450968
12633257 1 15719396075908680805
1361 4 18340770441786399786
13673619 4 18260831475749307817
13690498 29 18202009832993983549
13782708 43 18334866025420712979
13811026 1 18335149678009184873
14068700 675 18412263934840367221
14767858 380 17988639705586857442
15082195 135 17417801808914606452
15183329 4 16487253288051015234
15461852 350 18341045307751999158
15510800 12 18187921725972763471
16110190 28 4750870451045978443
18335252 98 17313100852967491990
19438510 23 11023836084877815671
19841028 212 18191308183416301423
19958102 18 16558746862398716778
20105231 36 15791725305232177892
20511986 3 15841260460210954160
20775438 99 17694236478216190155
21057603 130 18260541195841915571
21223535 225 14117248325001195039
21344244 246 17986667073899382045
21362857 166 18340200891138301270
21859007 373 12319741341346489990
23522609 53 18055605521290936084
23559900 14 17274814706383254253
2747138 104 17313104168265292482
2838139 119 14333133017387082071
3383291 50 18113620054076885343
3552219 110 15791726378984493184
3633792 109 15267349535253952728
4015057 19 17203030955481903724
439807 62 18202284693584109223
4461854 278 17749103344971171863
484989 97 17773588326845096379
5385378 56 8141818178634949004
54039377 194 17894343359089972831
6009941 240 17677327346421609185
6669772 16 18127128568373712748
9896288 288 16516790641391738955
999808 66 17167858673504015495

> <PUBCHEM_SHAPE_MULTIPOLES>
714.49
21.48
2.84
2.09
9.3
0.74
-0.16
-17.25
-6.63
-3.79
-0.05
1.7
0.01
-0.27

> <PUBCHEM_SHAPE_SELFOVERLAP>
1534.919

> <PUBCHEM_SHAPE_VOLUME>
391.4

> <PUBCHEM_COORDINATE_TYPE>
2
5
10

$$$$

