46173854
  -OEChem-07051213093D

 59 63  0     1  0  0  0  0  0999 V2000
    1.3193   -2.7132   -0.6513 O   0  0  0  0  0  0  0  0  0  0  0  0
   -0.0976    2.9044   -0.0859 O   0  0  0  0  0  0  0  0  0  0  0  0
    2.2082    3.4135   -0.1628 O   0  0  0  0  0  0  0  0  0  0  0  0
    3.5958    1.2718    1.2466 O   0  0  0  0  0  0  0  0  0  0  0  0
   -1.9875    1.6360   -1.2803 O   0  0  0  0  0  0  0  0  0  0  0  0
   -4.6900    1.1094   -1.0732 O   0  0  0  0  0  0  0  0  0  0  0  0
    3.2270   -3.5658   -1.5584 O   0  0  0  0  0  0  0  0  0  0  0  0
    1.2507   -0.6263    0.6799 C   0  0  2  0  0  0  0  0  0  0  0  0
    0.1497    0.3553    0.1033 C   0  0  1  0  0  0  0  0  0  0  0  0
   -1.3350    0.0131    0.4541 C   0  0  1  0  0  0  0  0  0  0  0  0
    2.5172   -0.3686   -0.2298 C   0  0  1  0  0  0  0  0  0  0  0  0
    0.8865   -2.1257    0.5899 C   0  0  1  0  0  0  0  0  0  0  0  0
    0.6736    1.7947    0.3663 C   0  0  1  0  0  0  0  0  0  0  0  0
   -1.5811   -1.5113    0.1640 C   0  0  1  0  0  0  0  0  0  0  0  0
    3.1172    1.0599   -0.0743 C   0  0  1  0  0  0  0  0  0  0  0  0
    1.9664    2.0306   -0.4055 C   0  0  2  0  0  0  0  0  0  0  0  0
   -0.5827   -2.4354    0.8726 C   0  0  0  0  0  0  0  0  0  0  0  0
    1.5515   -0.4167    2.1967 C   0  0  0  0  0  0  0  0  0  0  0  0
    3.4333   -1.5893   -0.1772 C   0  0  0  0  0  0  0  0  0  0  0  0
   -3.0509   -1.9306    0.4756 C   0  0  1  0  0  0  0  0  0  0  0  0
   -1.7042    0.4480    1.8834 C   0  0  0  0  0  0  0  0  0  0  0  0
   -2.3126    0.7242   -0.5234 C   0  0  0  0  0  0  0  0  0  0  0  0
    4.3000    1.3089   -1.0161 C   0  0  0  0  0  0  0  0  0  0  0  0
    2.6760   -2.7250   -0.8563 C   0  0  0  0  0  0  0  0  0  0  0  0
    0.8763    3.9662   -0.1647 C   0  0  0  0  0  0  0  0  0  0  0  0
   -4.0477   -0.9332   -0.0601 C   0  0  0  0  0  0  0  0  0  0  0  0
   -3.7329    0.2725   -0.5443 C   0  0  0  0  0  0  0  0  0  0  0  0
   -3.3895   -3.3144   -0.0967 C   0  0  0  0  0  0  0  0  0  0  0  0
   -5.2369    1.9471   -0.0721 C   0  0  0  0  0  0  0  0  0  0  0  0
    0.1657    0.2342   -0.9923 H   0  0  0  0  0  0  0  0  0  0  0  0
    2.1572   -0.3779   -1.2742 H   0  0  0  0  0  0  0  0  0  0  0  0
    1.4408   -2.6905    1.3554 H   0  0  0  0  0  0  0  0  0  0  0  0
    0.8039    1.9786    1.4356 H   0  0  0  0  0  0  0  0  0  0  0  0
   -1.4261   -1.6628   -0.9170 H   0  0  0  0  0  0  0  0  0  0  0  0
    1.7558    1.9502   -1.4843 H   0  0  0  0  0  0  0  0  0  0  0  0
   -0.7630   -3.4738    0.5742 H   0  0  0  0  0  0  0  0  0  0  0  0
   -0.7612   -2.3864    1.9535 H   0  0  0  0  0  0  0  0  0  0  0  0
    0.7597   -0.8262    2.8291 H   0  0  0  0  0  0  0  0  0  0  0  0
    1.6842    0.6172    2.5095 H   0  0  0  0  0  0  0  0  0  0  0  0
    2.4675   -0.9440    2.4880 H   0  0  0  0  0  0  0  0  0  0  0  0
    4.3419   -1.4171   -0.7617 H   0  0  0  0  0  0  0  0  0  0  0  0
    3.7226   -1.8814    0.8350 H   0  0  0  0  0  0  0  0  0  0  0  0
   -3.1923   -1.9812    1.5631 H   0  0  0  0  0  0  0  0  0  0  0  0
   -1.2058   -0.1522    2.6446 H   0  0  0  0  0  0  0  0  0  0  0  0
   -2.7777    0.3711    2.0841 H   0  0  0  0  0  0  0  0  0  0  0  0
   -1.4488    1.4984    2.0573 H   0  0  0  0  0  0  0  0  0  0  0  0
    4.6404    2.3484   -0.9432 H   0  0  0  0  0  0  0  0  0  0  0  0
    4.0375    1.1063   -2.0594 H   0  0  0  0  0  0  0  0  0  0  0  0
    5.1641    0.6924   -0.7465 H   0  0  0  0  0  0  0  0  0  0  0  0
    0.7147    4.5309   -1.0876 H   0  0  0  0  0  0  0  0  0  0  0  0
    0.7642    4.6302    0.6976 H   0  0  0  0  0  0  0  0  0  0  0  0
   -5.0946   -1.2301   -0.0531 H   0  0  0  0  0  0  0  0  0  0  0  0
    4.2756    0.6017    1.4315 H   0  0  0  0  0  0  0  0  0  0  0  0
   -2.8176   -4.1048    0.3977 H   0  0  0  0  0  0  0  0  0  0  0  0
   -4.4486   -3.5560    0.0516 H   0  0  0  0  0  0  0  0  0  0  0  0
   -3.1834   -3.3640   -1.1717 H   0  0  0  0  0  0  0  0  0  0  0  0
   -5.7523    1.3625    0.6980 H   0  0  0  0  0  0  0  0  0  0  0  0
   -4.4643    2.5745    0.3864 H   0  0  0  0  0  0  0  0  0  0  0  0
   -5.9718    2.6067   -0.5431 H   0  0  0  0  0  0  0  0  0  0  0  0
  1 12  1  0  0  0  0
  1 24  1  0  0  0  0
  2 13  1  0  0  0  0
  2 25  1  0  0  0  0
  3 16  1  0  0  0  0
  3 25  1  0  0  0  0
  4 15  1  0  0  0  0
  4 53  1  0  0  0  0
  5 22  2  0  0  0  0
  6 27  1  0  0  0  0
  6 29  1  0  0  0  0
  7 24  2  0  0  0  0
  8  9  1  0  0  0  0
  8 11  1  0  0  0  0
  8 12  1  0  0  0  0
  8 18  1  0  0  0  0
  9 10  1  0  0  0  0
  9 13  1  0  0  0  0
  9 30  1  0  0  0  0
 10 14  1  0  0  0  0
 10 21  1  0  0  0  0
 10 22  1  0  0  0  0
 11 15  1  0  0  0  0
 11 19  1  0  0  0  0
 11 31  1  0  0  0  0
 12 17  1  0  0  0  0
 12 32  1  0  0  0  0
 13 16  1  0  0  0  0
 13 33  1  0  0  0  0
 14 17  1  0  0  0  0
 14 20  1  0  0  0  0
 14 34  1  0  0  0  0
 15 16  1  0  0  0  0
 15 23  1  0  0  0  0
 16 35  1  0  0  0  0
 17 36  1  0  0  0  0
 17 37  1  0  0  0  0
 18 38  1  0  0  0  0
 18 39  1  0  0  0  0
 18 40  1  0  0  0  0
 19 24  1  0  0  0  0
 19 41  1  0  0  0  0
 19 42  1  0  0  0  0
 20 26  1  0  0  0  0
 20 28  1  0  0  0  0
 20 43  1  0  0  0  0
 21 44  1  0  0  0  0
 21 45  1  0  0  0  0
 21 46  1  0  0  0  0
 22 27  1  0  0  0  0
 23 47  1  0  0  0  0
 23 48  1  0  0  0  0
 23 49  1  0  0  0  0
 25 50  1  0  0  0  0
 25 51  1  0  0  0  0
 26 27  2  0  0  0  0
 26 52  1  0  0  0  0
 28 54  1  0  0  0  0
 28 55  1  0  0  0  0
 28 56  1  0  0  0  0
 29 57  1  0  0  0  0
 29 58  1  0  0  0  0
 29 59  1  0  0  0  0
M  END
> <PUBCHEM_COMPOUND_CID>
46173854

> <PUBCHEM_CONFORMER_RMSD>
0.8

> <PUBCHEM_CONFORMER_DIVERSEORDER>
1

> <PUBCHEM_MMFF94_PARTIAL_CHARGES>
22
1 -0.43
10 0.06
12 0.28
13 0.28
15 0.28
16 0.28
19 0.06
2 -0.56
20 0.14
22 0.49
24 0.66
25 0.56
26 -0.29
27 0.09
29 0.28
3 -0.56
4 -0.68
5 -0.57
52 0.15
53 0.4
6 -0.36
7 -0.57

> <PUBCHEM_EFFECTIVE_ROTOR_COUNT>
2.6

> <PUBCHEM_PHARMACOPHORE_FEATURES>
12
1 2 acceptor
1 3 acceptor
1 4 acceptor
1 4 donor
1 5 acceptor
1 6 acceptor
1 7 acceptor
5 2 3 13 16 25 rings
6 1 8 11 12 19 24 rings
6 10 14 20 22 26 27 rings
6 8 9 10 12 14 17 rings
6 8 9 11 13 15 16 rings

> <PUBCHEM_HEAVY_ATOM_COUNT>
29

> <PUBCHEM_ATOM_DEF_STEREO_COUNT>
9

> <PUBCHEM_ATOM_UDEF_STEREO_COUNT>
1

> <PUBCHEM_BOND_DEF_STEREO_COUNT>
0

> <PUBCHEM_BOND_UDEF_STEREO_COUNT>
0

> <PUBCHEM_ISOTOPIC_ATOM_COUNT>
0

> <PUBCHEM_COMPONENT_COUNT>
1

> <PUBCHEM_CACTVS_TAUTO_COUNT>
6

> <PUBCHEM_CONFORMER_ID>
02C08E9E00000001

> <PUBCHEM_MMFF94_ENERGY>
139.6774

> <PUBCHEM_FEATURE_SELFOVERLAP>
61.13

> <PUBCHEM_SHAPE_FINGERPRINT>
10616163 171 18268149756186989719
10764073 3 17684696277397745826
10863032 1 18334855008903555227
10871710 139 15820713554908992636
10906281 52 18342165675139947896
10967382 1 18412547638656846848
1100329 8 18342462594317648315
11370993 70 18194126204877180201
116883 192 18193275419395648156
12156800 1 9790905038346098341
12403260 363 18054241933281447329
12422481 6 18269580298287785528
12553582 1 18122045766203928810
12633257 1 18201737144913860937
12788726 201 17764023962208476498
13140716 1 18340775934975160010
138480 1 18410289220625502222
14022347 108 18125726926875328363
14178342 30 18334294245252057448
14223421 5 18197495117474493683
14790565 3 18123181579217355749
14866123 147 17398946566728715019
15081414 286 18410288155352787113
15210252 30 17987228022524280124
15219462 58 17168148957078933650
15475509 8 17538268928306721165
1601671 61 18413110537287191768
16945 1 18054224328648428994
17093844 170 18337680805627247104
17492 54 17769371621893926854
17980427 23 17978834213271139026
18681886 176 18048038472141562760
19591789 44 17833546799676343727
19930381 70 18266455412683609661
20600515 1 18194427668816154067
20775438 99 18047506475943916111
20905425 154 18202016420914652328
22182313 1 18341598305216779683
22393880 68 18338230449560943564
23227448 37 18412268303133200943
2334 1 18412259519624296242
23419403 2 16956509616563388794
23558518 356 17843122498520296769
23559900 14 18408045121698676178
23566358 2 18410852140319376535
238 59 18052855513680468991
2748010 2 18411132545970458794
335352 9 18340772653561941543
3380486 145 18342160164079449473
3380486 77 17909852146941416875
350125 39 18124872365901563761
3680242 22 18129106782363256585
4280585 95 18193838369740252286
5081480 168 17972285616431714415
5939293 188 18341625801576069168
6287921 2 18127965313748728413
6443956 14 18339921618672015636
9709674 26 18411702063108386047

> <PUBCHEM_SHAPE_MULTIPOLES>
555.72
7.81
4.37
1.27
5.23
0.19
-0.43
0.77
2.05
-1.49
1.06
-0.37
-0.25
0.98

> <PUBCHEM_SHAPE_SELFOVERLAP>
1208.994

> <PUBCHEM_SHAPE_VOLUME>
295.1

> <PUBCHEM_COORDINATE_TYPE>
2
5
10

$$$$

