443390
  -OEChem-07051213022D

 48 51  0     0  0  0  0  0  0999 V2000
    2.0000   -0.2158    0.0000 F   0  0  0  0  0  0  0  0  0  0  0  0
    3.3660    0.1502    0.0000 F   0  0  0  0  0  0  0  0  0  0  0  0
    2.3660   -1.5819    0.0000 F   0  0  0  0  0  0  0  0  0  0  0  0
    6.9851    3.6353    0.0000 F   0  0  0  0  0  0  0  0  0  0  0  0
    2.8660   -2.7158    0.0000 O   0  0  0  0  0  0  0  0  0  0  0  0
    6.0531    0.7837    0.0000 O   0  0  0  0  0  0  0  0  0  0  0  0
    6.4103   -0.9111    0.0000 N   0  0  0  0  0  0  0  0  0  0  0  0
    7.6995    0.2456    0.0000 N   0  0  0  0  0  0  0  0  0  0  0  0
   11.5670    3.7158    0.0000 N   0  0  0  0  0  0  0  0  0  0  0  0
    6.4103   -2.5206    0.0000 C   0  0  0  0  0  0  0  0  0  0  0  0
    6.9939   -1.7158    0.0000 C   0  0  0  0  0  0  0  0  0  0  0  0
    5.4641   -2.2158    0.0000 C   0  0  0  0  0  0  0  0  0  0  0  0
    5.4641   -1.2158    0.0000 C   0  0  0  0  0  0  0  0  0  0  0  0
    4.5981   -0.7158    0.0000 C   0  0  0  0  0  0  0  0  0  0  0  0
    4.5981   -2.7158    0.0000 C   0  0  0  0  0  0  0  0  0  0  0  0
    3.7320   -1.2158    0.0000 C   0  0  0  0  0  0  0  0  0  0  0  0
    3.7320   -2.2158    0.0000 C   0  0  0  0  0  0  0  0  0  0  0  0
    6.7210    0.0394    0.0000 C   0  0  0  0  0  0  0  0  0  0  0  0
    2.8660   -0.7158    0.0000 C   0  0  0  0  0  0  0  0  0  0  0  0
    8.0102    1.1962    0.0000 C   0  0  0  0  0  0  0  0  0  0  0  0
    8.9887    1.4024    0.0000 C   0  0  0  0  0  0  0  0  0  0  0  0
    9.2993    2.3529    0.0000 C   0  0  0  0  0  0  0  0  0  0  0  0
    7.3423    1.9404    0.0000 C   0  0  0  0  0  0  0  0  0  0  0  0
    2.8660   -3.7158    0.0000 C   0  0  0  0  0  0  0  0  0  0  0  0
    8.6315    3.0972    0.0000 C   0  0  0  0  0  0  0  0  0  0  0  0
    7.6530    2.8910    0.0000 C   0  0  0  0  0  0  0  0  0  0  0  0
   10.2778    2.5591    0.0000 C   0  0  0  0  0  0  0  0  0  0  0  0
   10.9457    1.8148    0.0000 C   0  0  0  0  0  0  0  0  0  0  0  0
   10.5885    3.5096    0.0000 C   0  0  0  0  0  0  0  0  0  0  0  0
   11.9242    2.0210    0.0000 C   0  0  0  0  0  0  0  0  0  0  0  0
   12.2348    2.9715    0.0000 C   0  0  0  0  0  0  0  0  0  0  0  0
    6.1593   -3.0875    0.0000 H   0  0  0  0  0  0  0  0  0  0  0  0
    6.9477   -2.8298    0.0000 H   0  0  0  0  0  0  0  0  0  0  0  0
    7.4548   -2.1306    0.0000 H   0  0  0  0  0  0  0  0  0  0  0  0
    7.4548   -1.3011    0.0000 H   0  0  0  0  0  0  0  0  0  0  0  0
    4.5981   -0.0958    0.0000 H   0  0  0  0  0  0  0  0  0  0  0  0
    4.5981   -3.3358    0.0000 H   0  0  0  0  0  0  0  0  0  0  0  0
    8.1136   -0.2158    0.0000 H   0  0  0  0  0  0  0  0  0  0  0  0
    9.4027    0.9409    0.0000 H   0  0  0  0  0  0  0  0  0  0  0  0
    6.7356    1.8126    0.0000 H   0  0  0  0  0  0  0  0  0  0  0  0
    2.2460   -3.7158    0.0000 H   0  0  0  0  0  0  0  0  0  0  0  0
    2.8660   -4.3358    0.0000 H   0  0  0  0  0  0  0  0  0  0  0  0
    3.4860   -3.7158    0.0000 H   0  0  0  0  0  0  0  0  0  0  0  0
    8.8241    3.6865    0.0000 H   0  0  0  0  0  0  0  0  0  0  0  0
   10.7531    1.2255    0.0000 H   0  0  0  0  0  0  0  0  0  0  0  0
   10.1744    3.9711    0.0000 H   0  0  0  0  0  0  0  0  0  0  0  0
   12.3382    1.5596    0.0000 H   0  0  0  0  0  0  0  0  0  0  0  0
   12.8415    3.0994    0.0000 H   0  0  0  0  0  0  0  0  0  0  0  0
  1 19  1  0  0  0  0
  2 19  1  0  0  0  0
  3 19  1  0  0  0  0
  4 26  1  0  0  0  0
  5 17  1  0  0  0  0
  5 24  1  0  0  0  0
  6 18  2  0  0  0  0
  7 11  1  0  0  0  0
  7 13  1  0  0  0  0
  7 18  1  0  0  0  0
  8 18  1  0  0  0  0
  8 20  1  0  0  0  0
  8 38  1  0  0  0  0
  9 29  1  0  0  0  0
  9 31  2  0  0  0  0
 10 11  1  0  0  0  0
 10 12  1  0  0  0  0
 10 32  1  0  0  0  0
 10 33  1  0  0  0  0
 11 34  1  0  0  0  0
 11 35  1  0  0  0  0
 12 13  1  0  0  0  0
 12 15  2  0  0  0  0
 13 14  2  0  0  0  0
 14 16  1  0  0  0  0
 14 36  1  0  0  0  0
 15 17  1  0  0  0  0
 15 37  1  0  0  0  0
 16 17  2  0  0  0  0
 16 19  1  0  0  0  0
 20 21  1  0  0  0  0
 20 23  2  0  0  0  0
 21 22  2  0  0  0  0
 21 39  1  0  0  0  0
 22 25  1  0  0  0  0
 22 27  1  0  0  0  0
 23 26  1  0  0  0  0
 23 40  1  0  0  0  0
 24 41  1  0  0  0  0
 24 42  1  0  0  0  0
 24 43  1  0  0  0  0
 25 26  2  0  0  0  0
 25 44  1  0  0  0  0
 27 28  1  0  0  0  0
 27 29  2  0  0  0  0
 28 30  2  0  0  0  0
 28 45  1  0  0  0  0
 29 46  1  0  0  0  0
 30 31  1  0  0  0  0
 30 47  1  0  0  0  0
 31 48  1  0  0  0  0
M  END
> <PUBCHEM_COMPOUND_CID>
443390

> <PUBCHEM_COMPOUND_CANONICALIZED>
1

> <PUBCHEM_CACTVS_COMPLEXITY>
634

> <PUBCHEM_CACTVS_HBOND_ACCEPTOR>
7

> <PUBCHEM_CACTVS_HBOND_DONOR>
1

> <PUBCHEM_CACTVS_ROTATABLE_BOND>
3

> <PUBCHEM_CACTVS_SUBSKEYS>
AAADceB7McAAAAAAAAAAAAAAAAAAAWAAAAA8YIAAAAAAAFgB0AAAHwAQAAAADAzBmh4/xpPIFACoAjRnVACCiCAxIiAI2CA+bJiMJuLEsZuEMChs1hPI6Cew0PIOwEABQAAKAACAgAKAABQAAAAAAAAAAA==

> <PUBCHEM_IUPAC_OPENEYE_NAME>
N-[3-fluoro-5-(3-pyridyl)phenyl]-5-methoxy-6-(trifluoromethyl)indoline-1-carboxamide

> <PUBCHEM_IUPAC_CAS_NAME>
N-[3-fluoro-5-(3-pyridinyl)phenyl]-5-methoxy-6-(trifluoromethyl)-2,3-dihydroindole-1-carboxamide

> <PUBCHEM_IUPAC_NAME>
N-(3-fluoro-5-pyridin-3-ylphenyl)-5-methoxy-6-(trifluoromethyl)-2,3-dihydroindole-1-carboxamide

> <PUBCHEM_IUPAC_SYSTEMATIC_NAME>
N-(3-fluoranyl-5-pyridin-3-yl-phenyl)-5-methoxy-6-(trifluoromethyl)-2,3-dihydroindole-1-carboxamide

> <PUBCHEM_IUPAC_TRADITIONAL_NAME>
N-[3-fluoro-5-(3-pyridyl)phenyl]-5-methoxy-6-(trifluoromethyl)indoline-1-carboxamide

> <PUBCHEM_IUPAC_INCHI>
InChI=1S/C22H17F4N3O2/c1-31-20-9-13-4-6-29(19(13)11-18(20)22(24,25)26)21(30)28-17-8-15(7-16(23)10-17)14-3-2-5-27-12-14/h2-3,5,7-12H,4,6H2,1H3,(H,28,30)

> <PUBCHEM_IUPAC_INCHIKEY>
RRJLJKRFFRZRAF-UHFFFAOYSA-N

> <PUBCHEM_XLOGP3_AA>
4.2

> <PUBCHEM_EXACT_MASS>
431.12569

> <PUBCHEM_MOLECULAR_FORMULA>
C22H17F4N3O2

> <PUBCHEM_MOLECULAR_WEIGHT>
431.382893

> <PUBCHEM_OPENEYE_CAN_SMILES>
COC1=C(C=C2C(=C1)CCN2C(=O)NC3=CC(=CC(=C3)C4=CN=CC=C4)F)C(F)(F)F

> <PUBCHEM_OPENEYE_ISO_SMILES>
COC1=C(C=C2C(=C1)CCN2C(=O)NC3=CC(=CC(=C3)C4=CN=CC=C4)F)C(F)(F)F

> <PUBCHEM_CACTVS_TPSA>
54.5

> <PUBCHEM_MONOISOTOPIC_WEIGHT>
431.12569

> <PUBCHEM_TOTAL_CHARGE>
0

> <PUBCHEM_HEAVY_ATOM_COUNT>
31

> <PUBCHEM_ATOM_DEF_STEREO_COUNT>
0

> <PUBCHEM_ATOM_UDEF_STEREO_COUNT>
0

> <PUBCHEM_BOND_DEF_STEREO_COUNT>
0

> <PUBCHEM_BOND_UDEF_STEREO_COUNT>
0

> <PUBCHEM_ISOTOPIC_ATOM_COUNT>
0

> <PUBCHEM_COMPONENT_COUNT>
1

> <PUBCHEM_CACTVS_TAUTO_COUNT>
2

> <PUBCHEM_COORDINATE_TYPE>
1
5
255

> <PUBCHEM_BONDANNOTATIONS>
12  13  8
12  15  8
13  14  8
14  16  8
15  17  8
16  17  8
20  21  8
20  23  8
21  22  8
22  25  8
23  26  8
25  26  8
27  28  8
27  29  8
28  30  8
30  31  8
9  29  8
9  31  8

$$$$

