439392
  -OEChem-07051212453D

 21 20  0     1  0  0  0  0  0999 V2000
   -0.3993    1.4605    1.0852 O   0  0  0  0  0  0  0  0  0  0  0  0
    2.1558   -0.9078    1.1865 O   0  0  0  0  0  0  0  0  0  0  0  0
    2.7493    0.7776   -0.2040 O   0  0  0  0  0  0  0  0  0  0  0  0
   -2.5174   -1.2346    0.4245 O   0  0  0  0  0  0  0  0  0  0  0  0
   -2.6052    0.8733   -0.4068 O   0  0  0  0  0  0  0  0  0  0  0  0
    0.5176   -0.2059   -0.4318 C   0  0  0  0  0  0  0  0  0  0  0  0
   -0.5496    0.1095    0.6481 C   0  0  2  0  0  0  0  0  0  0  0  0
    0.3149   -1.6102   -1.0319 C   0  0  0  0  0  0  0  0  0  0  0  0
    0.3938    0.8022   -1.5968 C   0  0  0  0  0  0  0  0  0  0  0  0
    1.9250   -0.0514    0.1606 C   0  0  0  0  0  0  0  0  0  0  0  0
   -1.9849   -0.0133    0.1664 C   0  0  0  0  0  0  0  0  0  0  0  0
   -0.4173   -0.5271    1.5308 H   0  0  0  0  0  0  0  0  0  0  0  0
   -0.6169   -1.6863   -1.6020 H   0  0  0  0  0  0  0  0  0  0  0  0
    1.1404   -1.8685   -1.7055 H   0  0  0  0  0  0  0  0  0  0  0  0
    0.2936   -2.3719   -0.2445 H   0  0  0  0  0  0  0  0  0  0  0  0
    0.5178    1.8378   -1.2606 H   0  0  0  0  0  0  0  0  0  0  0  0
   -0.5733    0.7269   -2.1046 H   0  0  0  0  0  0  0  0  0  0  0  0
    1.1664    0.6203   -2.3544 H   0  0  0  0  0  0  0  0  0  0  0  0
   -0.9776    1.5847    1.8574 H   0  0  0  0  0  0  0  0  0  0  0  0
    3.0491   -0.7845    1.5726 H   0  0  0  0  0  0  0  0  0  0  0  0
   -3.4407   -1.3069    0.1014 H   0  0  0  0  0  0  0  0  0  0  0  0
  1  7  1  0  0  0  0
  1 19  1  0  0  0  0
  2 10  1  0  0  0  0
  2 20  1  0  0  0  0
  3 10  2  0  0  0  0
  4 11  1  0  0  0  0
  4 21  1  0  0  0  0
  5 11  2  0  0  0  0
  6  7  1  0  0  0  0
  6  8  1  0  0  0  0
  6  9  1  0  0  0  0
  6 10  1  0  0  0  0
  7 11  1  0  0  0  0
  7 12  1  0  0  0  0
  8 13  1  0  0  0  0
  8 14  1  0  0  0  0
  8 15  1  0  0  0  0
  9 16  1  0  0  0  0
  9 17  1  0  0  0  0
  9 18  1  0  0  0  0
M  END
> <PUBCHEM_COMPOUND_CID>
439392

> <PUBCHEM_CONFORMER_RMSD>
0.6

> <PUBCHEM_CONFORMER_DIVERSEORDER>
1
6
4
2
3
5

> <PUBCHEM_MMFF94_PARTIAL_CHARGES>
12
1 -0.68
10 0.66
11 0.66
19 0.4
2 -0.65
20 0.5
21 0.5
3 -0.57
4 -0.65
5 -0.57
6 0.06
7 0.34

> <PUBCHEM_EFFECTIVE_ROTOR_COUNT>
3

> <PUBCHEM_PHARMACOPHORE_FEATURES>
9
1 1 acceptor
1 1 donor
1 2 acceptor
1 3 acceptor
1 4 acceptor
1 5 acceptor
3 2 3 10 anion
3 4 5 11 anion
3 6 8 9 hydrophobe

> <PUBCHEM_HEAVY_ATOM_COUNT>
11

> <PUBCHEM_ATOM_DEF_STEREO_COUNT>
1

> <PUBCHEM_ATOM_UDEF_STEREO_COUNT>
0

> <PUBCHEM_BOND_DEF_STEREO_COUNT>
0

> <PUBCHEM_BOND_UDEF_STEREO_COUNT>
0

> <PUBCHEM_ISOTOPIC_ATOM_COUNT>
0

> <PUBCHEM_COMPONENT_COUNT>
1

> <PUBCHEM_CACTVS_TAUTO_COUNT>
1

> <PUBCHEM_CONFORMER_ID>
0006B46000000001

> <PUBCHEM_MMFF94_ENERGY>
19.8427

> <PUBCHEM_FEATURE_SELFOVERLAP>
45.794

> <PUBCHEM_SHAPE_FINGERPRINT>
10857977 72 17821730498742140947
12423570 1 7443871355960081374
12897270 3 17968088754757460245
12932764 1 17988916799290646809
137420 1 16266076559377629836
16945 1 18199476634616115025
20653091 64 13613650996598779756
21040471 1 17749113283376871726
23235685 24 17241035518396020627
29004967 10 17894905235322369955
369184 2 17989489640632885185
5084963 1 18199732696450728876

> <PUBCHEM_SHAPE_MULTIPOLES>
197.03
3.36
1.35
1.23
0.45
0.26
-0.25
-0.1
0.53
0.15
-0.06
-0.29
-0.06
-0.03

> <PUBCHEM_SHAPE_SELFOVERLAP>
385.943

> <PUBCHEM_SHAPE_VOLUME>
118

> <PUBCHEM_COORDINATE_TYPE>
2
5
10

$$$$

