3529
  -OEChem-06251223282D

107109  0     1  0  0  0  0  0999 V2000
    8.3380    2.8582    0.0000 O   0  0  0  0  0  0  0  0  0  0  0  0
    7.9885   -2.1776    0.0000 O   0  0  0  0  0  0  0  0  0  0  0  0
    6.2284    0.8709    0.0000 O   0  0  0  0  0  0  0  0  0  0  0  0
    6.0010   -2.2927    0.0000 O   0  0  0  0  0  0  0  0  0  0  0  0
    4.2690    1.7073    0.0000 O   0  0  0  0  0  0  0  0  0  0  0  0
    2.5369    0.7073    0.0000 O   0  0  0  0  0  0  0  0  0  0  0  0
   11.0205   -1.0010    0.0000 C   0  0  3  0  0  0  0  0  0  0  0  0
    9.3158    0.0437    0.0000 C   0  0  3  0  0  0  0  0  0  0  0  0
   11.7976   -0.3717    0.0000 C   0  0  3  0  0  0  0  0  0  0  0  0
    9.5746    1.0096    0.0000 C   0  0  3  0  0  0  0  0  0  0  0  0
   11.4392    0.5619    0.0000 C   0  0  0  0  0  0  0  0  0  0  0  0
    8.8380    1.9922    0.0000 C   0  0  0  0  0  0  0  0  0  0  0  0
   11.5651   -1.8396    0.0000 C   0  0  0  0  0  0  0  0  0  0  0  0
    9.8334    1.9755    0.0000 C   0  0  0  0  0  0  0  0  0  0  0  0
    9.0569   -0.9223    0.0000 C   0  0  0  0  0  0  0  0  0  0  0  0
   10.5665   -1.8920    0.0000 C   0  0  0  0  0  0  0  0  0  0  0  0
    7.7806   -1.1995    0.0000 C   0  0  0  0  0  0  0  0  0  0  0  0
   12.7635   -0.6305    0.0000 C   0  0  0  0  0  0  0  0  0  0  0  0
    6.9716    0.2018    0.0000 C   0  0  0  0  0  0  0  0  0  0  0  0
    6.8671   -0.7927    0.0000 C   0  0  0  0  0  0  0  0  0  0  0  0
   10.5405    2.6826    0.0000 C   0  0  3  0  0  0  0  0  0  0  0  0
   12.5637   -1.7873    0.0000 C   0  0  0  0  0  0  0  0  0  0  0  0
    9.7640   -1.6294    0.0000 C   0  0  0  0  0  0  0  0  0  0  0  0
   13.4706    0.0766    0.0000 C   0  0  0  0  0  0  0  0  0  0  0  0
   11.5064    2.4238    0.0000 C   0  0  0  0  0  0  0  0  0  0  0  0
    6.0010   -1.2927    0.0000 C   0  0  0  0  0  0  0  0  0  0  0  0
   10.2817    3.6486    0.0000 C   0  0  0  0  0  0  0  0  0  0  0  0
   13.1084   -2.6260    0.0000 C   0  0  0  0  0  0  0  0  0  0  0  0
    9.5052   -2.5953    0.0000 C   0  0  0  0  0  0  0  0  0  0  0  0
   14.4366   -0.1822    0.0000 C   0  0  0  0  0  0  0  0  0  0  0  0
   12.2135    3.1309    0.0000 C   0  0  0  0  0  0  0  0  0  0  0  0
    5.1350   -0.7927    0.0000 C   0  0  0  0  0  0  0  0  0  0  0  0
   10.9888    4.3557    0.0000 C   0  0  0  0  0  0  0  0  0  0  0  0
   12.6544   -3.5170    0.0000 C   0  0  0  0  0  0  0  0  0  0  0  0
    9.3158    3.9074    0.0000 C   0  0  0  0  0  0  0  0  0  0  0  0
   10.2123   -3.3024    0.0000 C   0  0  0  0  0  0  0  0  0  0  0  0
    8.5393   -2.8541    0.0000 C   0  0  0  0  0  0  0  0  0  0  0  0
   15.1437    0.5249    0.0000 C   0  0  0  0  0  0  0  0  0  0  0  0
   14.6954   -1.1481    0.0000 C   0  0  0  0  0  0  0  0  0  0  0  0
   13.1795    2.8721    0.0000 C   0  0  0  0  0  0  0  0  0  0  0  0
    5.1350    0.2073    0.0000 C   0  0  0  0  0  0  0  0  0  0  0  0
    4.2690   -1.2927    0.0000 C   0  0  0  0  0  0  0  0  0  0  0  0
   13.1990   -4.3557    0.0000 C   0  0  0  0  0  0  0  0  0  0  0  0
   11.6557   -3.5693    0.0000 C   0  0  0  0  0  0  0  0  0  0  0  0
   13.8866    3.5792    0.0000 C   0  0  0  0  0  0  0  0  0  0  0  0
    4.2690    0.7073    0.0000 C   0  0  0  0  0  0  0  0  0  0  0  0
    3.4030   -0.7927    0.0000 C   0  0  0  0  0  0  0  0  0  0  0  0
   13.4383    1.9062    0.0000 C   0  0  0  0  0  0  0  0  0  0  0  0
    3.4030    0.2073    0.0000 C   0  0  0  0  0  0  0  0  0  0  0  0
   12.2125    0.0891    0.0000 H   0  0  0  0  0  0  0  0  0  0  0  0
   12.0507    0.6643    0.0000 H   0  0  0  0  0  0  0  0  0  0  0  0
   11.4609    1.1816    0.0000 H   0  0  0  0  0  0  0  0  0  0  0  0
   10.9944   -2.0819    0.0000 H   0  0  0  0  0  0  0  0  0  0  0  0
   11.7046   -2.4438    0.0000 H   0  0  0  0  0  0  0  0  0  0  0  0
    9.5714    2.5374    0.0000 H   0  0  0  0  0  0  0  0  0  0  0  0
   10.3703    1.6655    0.0000 H   0  0  0  0  0  0  0  0  0  0  0  0
    8.4950   -0.6602    0.0000 H   0  0  0  0  0  0  0  0  0  0  0  0
    8.7013   -1.4301    0.0000 H   0  0  0  0  0  0  0  0  0  0  0  0
   10.0140   -1.6105    0.0000 H   0  0  0  0  0  0  0  0  0  0  0  0
   10.2850   -2.4444    0.0000 H   0  0  0  0  0  0  0  0  0  0  0  0
   11.1189   -2.1734    0.0000 H   0  0  0  0  0  0  0  0  0  0  0  0
   12.5015   -1.1924    0.0000 H   0  0  0  0  0  0  0  0  0  0  0  0
   13.2714   -0.9861    0.0000 H   0  0  0  0  0  0  0  0  0  0  0  0
   10.9789    3.1210    0.0000 H   0  0  0  0  0  0  0  0  0  0  0  0
   13.1344   -1.5451    0.0000 H   0  0  0  0  0  0  0  0  0  0  0  0
   12.4243   -1.1832    0.0000 H   0  0  0  0  0  0  0  0  0  0  0  0
   10.3629   -1.4689    0.0000 H   0  0  0  0  0  0  0  0  0  0  0  0
   13.3102    0.6755    0.0000 H   0  0  0  0  0  0  0  0  0  0  0  0
   11.2444    1.8619    0.0000 H   0  0  0  0  0  0  0  0  0  0  0  0
   12.0143    2.0682    0.0000 H   0  0  0  0  0  0  0  0  0  0  0  0
   13.7275   -2.5935    0.0000 H   0  0  0  0  0  0  0  0  0  0  0  0
   12.4756    3.6928    0.0000 H   0  0  0  0  0  0  0  0  0  0  0  0
   11.7057    3.4865    0.0000 H   0  0  0  0  0  0  0  0  0  0  0  0
   11.4272    3.9172    0.0000 H   0  0  0  0  0  0  0  0  0  0  0  0
   11.4272    4.7941    0.0000 H   0  0  0  0  0  0  0  0  0  0  0  0
   10.5504    4.7941    0.0000 H   0  0  0  0  0  0  0  0  0  0  0  0
    9.1553    4.5062    0.0000 H   0  0  0  0  0  0  0  0  0  0  0  0
    8.8774    3.4690    0.0000 H   0  0  0  0  0  0  0  0  0  0  0  0
    5.4641   -2.6027    0.0000 H   0  0  0  0  0  0  0  0  0  0  0  0
    8.3788   -2.2552    0.0000 H   0  0  0  0  0  0  0  0  0  0  0  0
    7.9404   -3.0146    0.0000 H   0  0  0  0  0  0  0  0  0  0  0  0
    8.6998   -3.4530    0.0000 H   0  0  0  0  0  0  0  0  0  0  0  0
    9.7739   -3.7408    0.0000 H   0  0  0  0  0  0  0  0  0  0  0  0
   10.6507   -3.7408    0.0000 H   0  0  0  0  0  0  0  0  0  0  0  0
   10.6507   -2.8640    0.0000 H   0  0  0  0  0  0  0  0  0  0  0  0
   15.5821    0.0865    0.0000 H   0  0  0  0  0  0  0  0  0  0  0  0
   15.5821    0.9633    0.0000 H   0  0  0  0  0  0  0  0  0  0  0  0
   14.7053    0.9633    0.0000 H   0  0  0  0  0  0  0  0  0  0  0  0
   14.0965   -1.3086    0.0000 H   0  0  0  0  0  0  0  0  0  0  0  0
   14.8559   -1.7470    0.0000 H   0  0  0  0  0  0  0  0  0  0  0  0
   15.2943   -0.9876    0.0000 H   0  0  0  0  0  0  0  0  0  0  0  0
    5.6720    0.5173    0.0000 H   0  0  0  0  0  0  0  0  0  0  0  0
    4.2690   -1.9127    0.0000 H   0  0  0  0  0  0  0  0  0  0  0  0
   12.6790   -4.6933    0.0000 H   0  0  0  0  0  0  0  0  0  0  0  0
   13.5367   -4.8756    0.0000 H   0  0  0  0  0  0  0  0  0  0  0  0
   13.7190   -4.0180    0.0000 H   0  0  0  0  0  0  0  0  0  0  0  0
   11.6233   -2.9502    0.0000 H   0  0  0  0  0  0  0  0  0  0  0  0
   11.0366   -3.6018    0.0000 H   0  0  0  0  0  0  0  0  0  0  0  0
   11.6882   -4.1885    0.0000 H   0  0  0  0  0  0  0  0  0  0  0  0
   14.3250    3.1408    0.0000 H   0  0  0  0  0  0  0  0  0  0  0  0
   14.3250    4.0176    0.0000 H   0  0  0  0  0  0  0  0  0  0  0  0
   13.4482    4.0176    0.0000 H   0  0  0  0  0  0  0  0  0  0  0  0
    2.8660   -1.1027    0.0000 H   0  0  0  0  0  0  0  0  0  0  0  0
   12.9999    1.4678    0.0000 H   0  0  0  0  0  0  0  0  0  0  0  0
   14.0372    1.7457    0.0000 H   0  0  0  0  0  0  0  0  0  0  0  0
    3.7320    2.0173    0.0000 H   0  0  0  0  0  0  0  0  0  0  0  0
    2.0000    0.3973    0.0000 H   0  0  0  0  0  0  0  0  0  0  0  0
  1 12  2  0  0  0  0
  2 17  2  0  0  0  0
  3 19  2  0  0  0  0
  4 26  1  0  0  0  0
  4 79  1  0  0  0  0
  5 46  1  0  0  0  0
  5106  1  0  0  0  0
  6 49  1  0  0  0  0
  6107  1  0  0  0  0
  7  8  1  0  0  0  0
  7  9  1  0  0  0  0
  7 13  1  0  0  0  0
  7 16  1  0  0  0  0
  8 12  1  0  0  0  0
  8 15  1  0  0  0  0
  8 17  1  0  0  0  0
  9 11  1  0  0  0  0
  9 18  1  0  0  0  0
  9 50  1  0  0  0  0
 10 11  1  0  0  0  0
 10 12  1  0  0  0  0
 10 14  1  0  0  0  0
 10 19  1  0  0  0  0
 11 51  1  0  0  0  0
 11 52  1  0  0  0  0
 13 22  1  0  0  0  0
 13 53  1  0  0  0  0
 13 54  1  0  0  0  0
 14 21  1  0  0  0  0
 14 55  1  0  0  0  0
 14 56  1  0  0  0  0
 15 23  1  0  0  0  0
 15 57  1  0  0  0  0
 15 58  1  0  0  0  0
 16 59  1  0  0  0  0
 16 60  1  0  0  0  0
 16 61  1  0  0  0  0
 17 20  1  0  0  0  0
 18 24  1  0  0  0  0
 18 62  1  0  0  0  0
 18 63  1  0  0  0  0
 19 20  1  0  0  0  0
 20 26  2  3  0  0  0
 21 25  1  0  0  0  0
 21 27  1  0  0  0  0
 21 64  1  0  0  0  0
 22 28  1  0  0  0  0
 22 65  1  0  0  0  0
 22 66  1  0  0  0  0
 23 29  2  0  0  0  0
 23 67  1  0  0  0  0
 24 30  2  0  0  0  0
 24 68  1  0  0  0  0
 25 31  1  0  0  0  0
 25 69  1  0  0  0  0
 25 70  1  0  0  0  0
 26 32  1  0  0  0  0
 27 33  1  0  0  0  0
 27 35  2  0  0  0  0
 28 34  2  0  0  0  0
 28 71  1  0  0  0  0
 29 36  1  0  0  0  0
 29 37  1  0  0  0  0
 30 38  1  0  0  0  0
 30 39  1  0  0  0  0
 31 40  1  0  0  0  0
 31 72  1  0  0  0  0
 31 73  1  0  0  0  0
 32 41  2  0  0  0  0
 32 42  1  0  0  0  0
 33 74  1  0  0  0  0
 33 75  1  0  0  0  0
 33 76  1  0  0  0  0
 34 43  1  0  0  0  0
 34 44  1  0  0  0  0
 35 77  1  0  0  0  0
 35 78  1  0  0  0  0
 36 83  1  0  0  0  0
 36 84  1  0  0  0  0
 36 85  1  0  0  0  0
 37 80  1  0  0  0  0
 37 81  1  0  0  0  0
 37 82  1  0  0  0  0
 38 86  1  0  0  0  0
 38 87  1  0  0  0  0
 38 88  1  0  0  0  0
 39 89  1  0  0  0  0
 39 90  1  0  0  0  0
 39 91  1  0  0  0  0
 40 45  1  0  0  0  0
 40 48  2  0  0  0  0
 41 46  1  0  0  0  0
 41 92  1  0  0  0  0
 42 47  2  0  0  0  0
 42 93  1  0  0  0  0
 43 94  1  0  0  0  0
 43 95  1  0  0  0  0
 43 96  1  0  0  0  0
 44 97  1  0  0  0  0
 44 98  1  0  0  0  0
 44 99  1  0  0  0  0
 45100  1  0  0  0  0
 45101  1  0  0  0  0
 45102  1  0  0  0  0
 46 49  2  0  0  0  0
 47 49  1  0  0  0  0
 47103  1  0  0  0  0
 48104  1  0  0  0  0
 48105  1  0  0  0  0
M  END
> <PUBCHEM_COMPOUND_CID>
3529

> <PUBCHEM_COMPOUND_CANONICALIZED>
1

> <PUBCHEM_CACTVS_COMPLEXITY>
1440

> <PUBCHEM_CACTVS_HBOND_ACCEPTOR>
6

> <PUBCHEM_CACTVS_HBOND_DONOR>
3

> <PUBCHEM_CACTVS_ROTATABLE_BOND>
14

> <PUBCHEM_CACTVS_SUBSKEYS>
AAADcfB8OAAAAAAAAAAAAAAAAAAAAAAAAAAwYMAAAAAYAAABAAAAGgAACAAADwSAmAAyBoAAAgCIAqBSAAACAAAgIAAIiAEGiMgJJjKKERKAcAEkwBEJmQfI6vSvoAABAAAAQADAAAYAACCAAAAAAAAAAA==

> <PUBCHEM_IUPAC_OPENEYE_NAME>
3-[(3,4-dihydroxyphenyl)-hydroxy-methylene]-1-(2-isopropenyl-5-methyl-hex-5-enyl)-6-methyl-5,7-bis(3-methylbut-2-enyl)-6-(4-methylpent-3-enyl)bicyclo[3.3.1]nonane-2,4,9-trione

> <PUBCHEM_IUPAC_CAS_NAME>
3-[(3,4-dihydroxyphenyl)-hydroxymethylidene]-6-methyl-5,7-bis(3-methylbut-2-enyl)-1-[5-methyl-2-(1-methylethenyl)hex-5-enyl]-6-(4-methylpent-3-enyl)bicyclo[3.3.1]nonane-2,4,9-trione

> <PUBCHEM_IUPAC_NAME>
3-[(3,4-dihydroxyphenyl)-hydroxymethylidene]-6-methyl-5,7-bis(3-methylbut-2-enyl)-6-(4-methylpent-3-enyl)-1-(5-methyl-2-prop-1-en-2-ylhex-5-enyl)bicyclo[3.3.1]nonane-2,4,9-trione

> <PUBCHEM_IUPAC_SYSTEMATIC_NAME>
3-[[3,4-bis(oxidanyl)phenyl]-oxidanyl-methylidene]-6-methyl-5,7-bis(3-methylbut-2-enyl)-6-(4-methylpent-3-enyl)-1-(5-methyl-2-prop-1-en-2-yl-hex-5-enyl)bicyclo[3.3.1]nonane-2,4,9-trione

> <PUBCHEM_IUPAC_TRADITIONAL_NAME>
3-[(3,4-dihydroxyphenyl)-hydroxy-methylene]-1-(2-isopropenyl-5-methyl-hex-5-enyl)-6-methyl-5,7-bis(3-methylbut-2-enyl)-6-(4-methylpent-3-enyl)bicyclo[3.3.1]nonane-2,4,9-trione

> <PUBCHEM_IUPAC_INCHI>
InChI=1S/C43H58O6/c1-26(2)13-12-21-41(11)33(18-15-28(5)6)25-42(24-32(30(9)10)16-14-27(3)4)38(47)36(37(46)31-17-19-34(44)35(45)23-31)39(48)43(41,40(42)49)22-20-29(7)8/h13,15,17,19-20,23,32-33,44-46H,3,9,12,14,16,18,21-22,24-25H2,1-2,4-8,10-11H3

> <PUBCHEM_IUPAC_INCHIKEY>
NFQCORXWZVREFM-UHFFFAOYSA-N

> <PUBCHEM_XLOGP3_AA>
12.6

> <PUBCHEM_EXACT_MASS>
670.42334

> <PUBCHEM_MOLECULAR_FORMULA>
C43H58O6

> <PUBCHEM_MOLECULAR_WEIGHT>
670.91702

> <PUBCHEM_OPENEYE_CAN_SMILES>
CC(=CCCC1(C(CC2(C(=O)C(=C(C3=CC(=C(C=C3)O)O)O)C(=O)C1(C2=O)CC=C(C)C)CC(CCC(=C)C)C(=C)C)CC=C(C)C)C)C

> <PUBCHEM_OPENEYE_ISO_SMILES>
CC(=CCCC1(C(CC2(C(=O)C(=C(C3=CC(=C(C=C3)O)O)O)C(=O)C1(C2=O)CC=C(C)C)CC(CCC(=C)C)C(=C)C)CC=C(C)C)C)C

> <PUBCHEM_CACTVS_TPSA>
112

> <PUBCHEM_MONOISOTOPIC_WEIGHT>
670.42334

> <PUBCHEM_TOTAL_CHARGE>
0

> <PUBCHEM_HEAVY_ATOM_COUNT>
49

> <PUBCHEM_ATOM_DEF_STEREO_COUNT>
0

> <PUBCHEM_ATOM_UDEF_STEREO_COUNT>
5

> <PUBCHEM_BOND_DEF_STEREO_COUNT>
0

> <PUBCHEM_BOND_UDEF_STEREO_COUNT>
1

> <PUBCHEM_ISOTOPIC_ATOM_COUNT>
0

> <PUBCHEM_COMPONENT_COUNT>
1

> <PUBCHEM_CACTVS_TAUTO_COUNT>
46

> <PUBCHEM_COORDINATE_TYPE>
1
5
255

> <PUBCHEM_BONDANNOTATIONS>
10  14  3
20  26  1
21  25  3
32  41  8
32  42  8
41  46  8
42  47  8
46  49  8
47  49  8
7  16  3
8  15  3
9  18  3

$$$$

