10870
  -OEChem-06261205033D

 24 24  0     0  0  0  0  0  0999 V2000
    2.3969    0.0506   -0.1172 C   0  0  0  0  0  0  0  0  0  0  0  0
    1.2720    0.0075   -1.1699 C   0  0  0  0  0  0  0  0  0  0  0  0
   -0.1167   -0.0019   -0.5790 C   0  0  0  0  0  0  0  0  0  0  0  0
    2.2578    1.2508    0.8227 C   0  0  0  0  0  0  0  0  0  0  0  0
    2.3938   -1.2451    0.6978 C   0  0  0  0  0  0  0  0  0  0  0  0
   -0.7222   -1.2138   -0.2852 C   0  0  0  0  0  0  0  0  0  0  0  0
   -0.7622    1.2012   -0.3407 C   0  0  0  0  0  0  0  0  0  0  0  0
   -2.0058   -1.2225    0.2606 C   0  0  0  0  0  0  0  0  0  0  0  0
   -2.0459    1.1925    0.2052 C   0  0  0  0  0  0  0  0  0  0  0  0
   -2.6677   -0.0194    0.5058 C   0  0  0  0  0  0  0  0  0  0  0  0
    3.3542    0.1266   -0.6477 H   0  0  0  0  0  0  0  0  0  0  0  0
    1.4009   -0.8680   -1.8202 H   0  0  0  0  0  0  0  0  0  0  0  0
    1.3704    0.8748   -1.8368 H   0  0  0  0  0  0  0  0  0  0  0  0
    1.3945    1.1670    1.4901 H   0  0  0  0  0  0  0  0  0  0  0  0
    2.1776    2.1849    0.2572 H   0  0  0  0  0  0  0  0  0  0  0  0
    3.1460    1.3301    1.4597 H   0  0  0  0  0  0  0  0  0  0  0  0
    3.2889   -1.2897    1.3288 H   0  0  0  0  0  0  0  0  0  0  0  0
    1.5308   -1.3213    1.3663 H   0  0  0  0  0  0  0  0  0  0  0  0
    2.4118   -2.1245    0.0453 H   0  0  0  0  0  0  0  0  0  0  0  0
   -0.2205   -2.1575   -0.4781 H   0  0  0  0  0  0  0  0  0  0  0  0
   -0.2915    2.1513   -0.5759 H   0  0  0  0  0  0  0  0  0  0  0  0
   -2.4907   -2.1661    0.4931 H   0  0  0  0  0  0  0  0  0  0  0  0
   -2.5619    2.1292    0.3948 H   0  0  0  0  0  0  0  0  0  0  0  0
   -3.6673   -0.0263    0.9301 H   0  0  0  0  0  0  0  0  0  0  0  0
  1  2  1  0  0  0  0
  1  4  1  0  0  0  0
  1  5  1  0  0  0  0
  1 11  1  0  0  0  0
  2  3  1  0  0  0  0
  2 12  1  0  0  0  0
  2 13  1  0  0  0  0
  3  6  2  0  0  0  0
  3  7  1  0  0  0  0
  4 14  1  0  0  0  0
  4 15  1  0  0  0  0
  4 16  1  0  0  0  0
  5 17  1  0  0  0  0
  5 18  1  0  0  0  0
  5 19  1  0  0  0  0
  6  8  1  0  0  0  0
  6 20  1  0  0  0  0
  7  9  2  0  0  0  0
  7 21  1  0  0  0  0
  8 10  2  0  0  0  0
  8 22  1  0  0  0  0
  9 10  1  0  0  0  0
  9 23  1  0  0  0  0
 10 24  1  0  0  0  0
M  END
> <PUBCHEM_COMPOUND_CID>
10870

> <PUBCHEM_CONFORMER_RMSD>
0.4

> <PUBCHEM_CONFORMER_DIVERSEORDER>
1

> <PUBCHEM_MMFF94_PARTIAL_CHARGES>
12
10 -0.15
2 0.14
20 0.15
21 0.15
22 0.15
23 0.15
24 0.15
3 -0.14
6 -0.15
7 -0.15
8 -0.15
9 -0.15

> <PUBCHEM_EFFECTIVE_ROTOR_COUNT>
2

> <PUBCHEM_PHARMACOPHORE_FEATURES>
2
3 1 4 5 hydrophobe
6 3 6 7 8 9 10 rings

> <PUBCHEM_HEAVY_ATOM_COUNT>
10

> <PUBCHEM_ATOM_DEF_STEREO_COUNT>
0

> <PUBCHEM_ATOM_UDEF_STEREO_COUNT>
0

> <PUBCHEM_BOND_DEF_STEREO_COUNT>
0

> <PUBCHEM_BOND_UDEF_STEREO_COUNT>
0

> <PUBCHEM_ISOTOPIC_ATOM_COUNT>
0

> <PUBCHEM_COMPONENT_COUNT>
1

> <PUBCHEM_CACTVS_TAUTO_COUNT>
1

> <PUBCHEM_CONFORMER_ID>
00002A7600000001

> <PUBCHEM_MMFF94_ENERGY>
21.8183

> <PUBCHEM_FEATURE_SELFOVERLAP>
10.148

> <PUBCHEM_SHAPE_FINGERPRINT>
10857977 72 18337948987548073817
12423570 1 9140296803867744796
12696612 119 18335423405123648648
12932764 1 18409725157885135135
15076042 46 18267585882520038240
15775835 57 18411693313874453672
16945 1 18271802367984126989
19973954 147 18113612395859318280
20645464 45 18040433295739652182
20653085 51 7637133588294598479
20871998 184 18116143390228029423
21040471 1 18267287915074704397
22445834 79 18130228262865159698
23552423 10 18058439924505602799
29004967 10 14979954744325026276
369184 2 18409172108021209071
5084963 1 18060132197433721941

> <PUBCHEM_SHAPE_MULTIPOLES>
205.8
4.08
1.51
0.96
0.46
0.02
0.08
0.05
-1.08
-0.08
-0.21
0.34
-0.03
0.04

> <PUBCHEM_SHAPE_SELFOVERLAP>
414.164

> <PUBCHEM_SHAPE_VOLUME>
118.1

> <PUBCHEM_COORDINATE_TYPE>
2
5
10

$$$$

