17395523
  -OEChem-06241222502D

 46 48  0     0  0  0  0  0  0999 V2000
    7.6133    1.5407    0.0000 O   0  0  0  0  0  0  0  0  0  0  0  0
    3.5823   -1.0002    0.0000 O   0  0  0  0  0  0  0  0  0  0  0  0
   10.2114   -0.9593    0.0000 O   0  0  0  0  0  0  0  0  0  0  0  0
    3.7634    0.7223    0.0000 O   0  0  0  0  0  0  0  0  0  0  0  0
    6.6428   -0.9539    0.0000 N   0  0  0  0  0  0  0  0  0  0  0  0
    9.3454    0.5407    0.0000 N   0  0  0  0  0  0  0  0  0  0  0  0
    6.7473    0.0407    0.0000 C   0  0  0  0  0  0  0  0  0  0  0  0
    5.8338    0.4474    0.0000 C   0  0  0  0  0  0  0  0  0  0  0  0
    5.1646   -0.2957    0.0000 C   0  0  0  0  0  0  0  0  0  0  0  0
    5.6646   -1.1618    0.0000 C   0  0  0  0  0  0  0  0  0  0  0  0
    8.4793    0.0407    0.0000 C   0  0  0  0  0  0  0  0  0  0  0  0
    7.6133    0.5407    0.0000 C   0  0  0  0  0  0  0  0  0  0  0  0
    5.6258    1.4255    0.0000 C   0  0  0  0  0  0  0  0  0  0  0  0
   11.0774    0.5407    0.0000 C   0  0  0  0  0  0  0  0  0  0  0  0
   10.2114    0.0407    0.0000 C   0  0  0  0  0  0  0  0  0  0  0  0
    5.2579   -2.0753    0.0000 C   0  0  0  0  0  0  0  0  0  0  0  0
   11.0774    1.5407    0.0000 C   0  0  0  0  0  0  0  0  0  0  0  0
    9.3454    1.5407    0.0000 C   0  0  0  0  0  0  0  0  0  0  0  0
    4.1701   -0.1912    0.0000 C   0  0  0  0  0  0  0  0  0  0  0  0
   10.2114    2.0407    0.0000 C   0  0  0  0  0  0  0  0  0  0  0  0
   11.9714    0.0060    0.0000 C   0  0  0  0  0  0  0  0  0  0  0  0
   11.9714    2.0753    0.0000 C   0  0  0  0  0  0  0  0  0  0  0  0
   12.8774    0.5198    0.0000 C   0  0  0  0  0  0  0  0  0  0  0  0
   12.8774    1.5615    0.0000 C   0  0  0  0  0  0  0  0  0  0  0  0
    2.5878   -0.8957    0.0000 C   0  0  0  0  0  0  0  0  0  0  0  0
    2.0000   -1.7047    0.0000 C   0  0  0  0  0  0  0  0  0  0  0  0
    8.0808   -0.4343    0.0000 H   0  0  0  0  0  0  0  0  0  0  0  0
    8.8779   -0.4343    0.0000 H   0  0  0  0  0  0  0  0  0  0  0  0
    7.1035   -1.3687    0.0000 H   0  0  0  0  0  0  0  0  0  0  0  0
    6.2323    1.5545    0.0000 H   0  0  0  0  0  0  0  0  0  0  0  0
    5.4969    2.0320    0.0000 H   0  0  0  0  0  0  0  0  0  0  0  0
    5.0194    1.2966    0.0000 H   0  0  0  0  0  0  0  0  0  0  0  0
    4.6915   -1.8231    0.0000 H   0  0  0  0  0  0  0  0  0  0  0  0
    5.0057   -2.6417    0.0000 H   0  0  0  0  0  0  0  0  0  0  0  0
    5.8243   -2.3275    0.0000 H   0  0  0  0  0  0  0  0  0  0  0  0
    8.8084    1.8507    0.0000 H   0  0  0  0  0  0  0  0  0  0  0  0
   10.2114    2.6607    0.0000 H   0  0  0  0  0  0  0  0  0  0  0  0
   11.9642   -0.6140    0.0000 H   0  0  0  0  0  0  0  0  0  0  0  0
   11.9642    2.6953    0.0000 H   0  0  0  0  0  0  0  0  0  0  0  0
   13.4132    0.2078    0.0000 H   0  0  0  0  0  0  0  0  0  0  0  0
   13.4132    1.8735    0.0000 H   0  0  0  0  0  0  0  0  0  0  0  0
    2.7587   -0.2997    0.0000 H   0  0  0  0  0  0  0  0  0  0  0  0
    2.0305   -0.6239    0.0000 H   0  0  0  0  0  0  0  0  0  0  0  0
    1.4984   -1.3403    0.0000 H   0  0  0  0  0  0  0  0  0  0  0  0
    1.6356   -2.2063    0.0000 H   0  0  0  0  0  0  0  0  0  0  0  0
    2.5016   -2.0692    0.0000 H   0  0  0  0  0  0  0  0  0  0  0  0
  1 12  2  0  0  0  0
  2 19  1  0  0  0  0
  2 25  1  0  0  0  0
  3 15  2  0  0  0  0
  4 19  2  0  0  0  0
  5  7  1  0  0  0  0
  5 10  1  0  0  0  0
  5 29  1  0  0  0  0
  6 11  1  0  0  0  0
  6 15  1  0  0  0  0
  6 18  1  0  0  0  0
  7  8  2  0  0  0  0
  7 12  1  0  0  0  0
  8  9  1  0  0  0  0
  8 13  1  0  0  0  0
  9 10  2  0  0  0  0
  9 19  1  0  0  0  0
 10 16  1  0  0  0  0
 11 12  1  0  0  0  0
 11 27  1  0  0  0  0
 11 28  1  0  0  0  0
 13 30  1  0  0  0  0
 13 31  1  0  0  0  0
 13 32  1  0  0  0  0
 14 15  1  0  0  0  0
 14 17  1  0  0  0  0
 14 21  2  0  0  0  0
 16 33  1  0  0  0  0
 16 34  1  0  0  0  0
 16 35  1  0  0  0  0
 17 20  1  0  0  0  0
 17 22  2  0  0  0  0
 18 20  2  0  0  0  0
 18 36  1  0  0  0  0
 20 37  1  0  0  0  0
 21 23  1  0  0  0  0
 21 38  1  0  0  0  0
 22 24  1  0  0  0  0
 22 39  1  0  0  0  0
 23 24  2  0  0  0  0
 23 40  1  0  0  0  0
 24 41  1  0  0  0  0
 25 26  1  0  0  0  0
 25 42  1  0  0  0  0
 25 43  1  0  0  0  0
 26 44  1  0  0  0  0
 26 45  1  0  0  0  0
 26 46  1  0  0  0  0
M  END
> <PUBCHEM_COMPOUND_CID>
17395523

> <PUBCHEM_COMPOUND_CANONICALIZED>
1

> <PUBCHEM_CACTVS_COMPLEXITY>
603

> <PUBCHEM_CACTVS_HBOND_ACCEPTOR>
4

> <PUBCHEM_CACTVS_HBOND_DONOR>
1

> <PUBCHEM_CACTVS_ROTATABLE_BOND>
6

> <PUBCHEM_CACTVS_SUBSKEYS>
AAADceB7OAAAAAAAAAAAAAAAAAAAAWAAAAAwQAAAAAAAAACBwAAAHgAQAAAADAzhngYyiJPJlACoA6X2XACCgCAnAiAImSG4TNgIJnrA9bmGMYhm1gHI6ce8z4C+gAAAAAAQAAAAAAAAACAAAAAAAAAAAA==

> <PUBCHEM_IUPAC_OPENEYE_NAME>
ethyl 2,4-dimethyl-5-[2-(1-oxo-2-isoquinolyl)acetyl]-1H-pyrrole-3-carboxylate

> <PUBCHEM_IUPAC_CAS_NAME>
2,4-dimethyl-5-[1-oxo-2-(1-oxo-2-isoquinolinyl)ethyl]-1H-pyrrole-3-carboxylic acid ethyl ester

> <PUBCHEM_IUPAC_NAME>
ethyl 2,4-dimethyl-5-[2-(1-oxoisoquinolin-2-yl)acetyl]-1H-pyrrole-3-carboxylate

> <PUBCHEM_IUPAC_SYSTEMATIC_NAME>
ethyl 2,4-dimethyl-5-[2-(1-oxidanylideneisoquinolin-2-yl)ethanoyl]-1H-pyrrole-3-carboxylate

> <PUBCHEM_IUPAC_TRADITIONAL_NAME>
5-[2-(1-keto-2-isoquinolyl)acetyl]-2,4-dimethyl-1H-pyrrole-3-carboxylic acid ethyl ester

> <PUBCHEM_IUPAC_INCHI>
InChI=1S/C20H20N2O4/c1-4-26-20(25)17-12(2)18(21-13(17)3)16(23)11-22-10-9-14-7-5-6-8-15(14)19(22)24/h5-10,21H,4,11H2,1-3H3

> <PUBCHEM_IUPAC_INCHIKEY>
CNCOETHCIJLHBJ-UHFFFAOYSA-N

> <PUBCHEM_XLOGP3_AA>
3

> <PUBCHEM_EXACT_MASS>
352.142307

> <PUBCHEM_MOLECULAR_FORMULA>
C20H20N2O4

> <PUBCHEM_MOLECULAR_WEIGHT>
352.3838

> <PUBCHEM_OPENEYE_CAN_SMILES>
CCOC(=O)C1=C(NC(=C1C)C(=O)CN2C=CC3=CC=CC=C3C2=O)C

> <PUBCHEM_OPENEYE_ISO_SMILES>
CCOC(=O)C1=C(NC(=C1C)C(=O)CN2C=CC3=CC=CC=C3C2=O)C

> <PUBCHEM_CACTVS_TPSA>
79.5

> <PUBCHEM_MONOISOTOPIC_WEIGHT>
352.142307

> <PUBCHEM_TOTAL_CHARGE>
0

> <PUBCHEM_HEAVY_ATOM_COUNT>
26

> <PUBCHEM_ATOM_DEF_STEREO_COUNT>
0

> <PUBCHEM_ATOM_UDEF_STEREO_COUNT>
0

> <PUBCHEM_BOND_DEF_STEREO_COUNT>
0

> <PUBCHEM_BOND_UDEF_STEREO_COUNT>
0

> <PUBCHEM_ISOTOPIC_ATOM_COUNT>
0

> <PUBCHEM_COMPONENT_COUNT>
1

> <PUBCHEM_CACTVS_TAUTO_COUNT>
33

> <PUBCHEM_COORDINATE_TYPE>
1
5
255

> <PUBCHEM_BONDANNOTATIONS>
14  15  8
14  17  8
14  21  8
17  20  8
17  22  8
18  20  8
21  23  8
22  24  8
23  24  8
5  10  8
5  7  8
6  15  8
6  18  8
7  8  8
8  9  8
9  10  8

$$$$

