442067
  -OEChem-07051212563D

 54 56  0     1  0  0  0  0  0999 V2000
    1.0328   -0.3088   -0.1034 O   0  0  0  0  0  0  0  0  0  0  0  0
    1.7094    3.5715    1.1059 O   0  0  0  0  0  0  0  0  0  0  0  0
    4.4518   -2.1958    1.2574 O   0  0  0  0  0  0  0  0  0  0  0  0
    2.4248   -1.5509    2.0676 O   0  0  0  0  0  0  0  0  0  0  0  0
   -1.2889    0.1769   -0.8607 C   0  0  1  0  0  0  0  0  0  0  0  0
   -1.8631    0.0503    0.6081 C   0  0  2  0  0  0  0  0  0  0  0  0
    0.2280    0.7111   -0.7519 C   0  0  2  0  0  0  0  0  0  0  0  0
   -3.1937   -0.7715    0.8065 C   0  0  0  0  0  0  0  0  0  0  0  0
   -1.3409   -1.2288   -1.5247 C   0  0  0  0  0  0  0  0  0  0  0  0
    0.8926    0.9167   -2.1277 C   0  0  0  0  0  0  0  0  0  0  0  0
   -3.1159   -2.0983    0.0172 C   0  0  0  0  0  0  0  0  0  0  0  0
   -1.8832    1.4219    1.3120 C   0  0  0  0  0  0  0  0  0  0  0  0
   -2.7004   -1.9140   -1.4338 C   0  0  0  0  0  0  0  0  0  0  0  0
   -2.0966    1.1677   -1.7424 C   0  0  0  0  0  0  0  0  0  0  0  0
    0.2910    1.9348    0.1642 C   0  0  0  0  0  0  0  0  0  0  0  0
    2.2556   -0.5497   -0.8233 C   0  0  1  0  0  0  0  0  0  0  0  0
    2.3294    0.4739   -1.9476 C   0  0  0  0  0  0  0  0  0  0  0  0
   -0.6527    2.2394    1.0704 C   0  0  0  0  0  0  0  0  0  0  0  0
   -3.3461   -1.1477    2.3048 C   0  0  0  0  0  0  0  0  0  0  0  0
   -4.4857   -0.0206    0.4244 C   0  0  0  0  0  0  0  0  0  0  0  0
    3.4173   -0.4052    0.1586 C   0  0  0  0  0  0  0  0  0  0  0  0
    2.2225   -1.9785   -1.3712 C   0  0  0  0  0  0  0  0  0  0  0  0
    1.3743    2.9253    0.1233 C   0  0  0  0  0  0  0  0  0  0  0  0
    3.3378   -1.4194    1.2663 C   0  0  0  0  0  0  0  0  0  0  0  0
   -1.1073   -0.5425    1.1496 H   0  0  0  0  0  0  0  0  0  0  0  0
   -0.6130   -1.8928   -1.0462 H   0  0  0  0  0  0  0  0  0  0  0  0
   -1.0633   -1.1722   -2.5825 H   0  0  0  0  0  0  0  0  0  0  0  0
    0.8060    1.9375   -2.5135 H   0  0  0  0  0  0  0  0  0  0  0  0
    0.4508    0.2684   -2.8900 H   0  0  0  0  0  0  0  0  0  0  0  0
   -4.0800   -2.6214    0.0513 H   0  0  0  0  0  0  0  0  0  0  0  0
   -2.3911   -2.7690    0.4991 H   0  0  0  0  0  0  0  0  0  0  0  0
   -1.9804    1.2801    2.3940 H   0  0  0  0  0  0  0  0  0  0  0  0
   -2.7413    2.0200    0.9898 H   0  0  0  0  0  0  0  0  0  0  0  0
   -3.4607   -1.3581   -1.9906 H   0  0  0  0  0  0  0  0  0  0  0  0
   -2.6331   -2.8993   -1.9110 H   0  0  0  0  0  0  0  0  0  0  0  0
   -1.6623    1.2501   -2.7447 H   0  0  0  0  0  0  0  0  0  0  0  0
   -3.1265    0.8528   -1.9000 H   0  0  0  0  0  0  0  0  0  0  0  0
   -2.1263    2.1785   -1.3267 H   0  0  0  0  0  0  0  0  0  0  0  0
    2.7627    0.0755   -2.8713 H   0  0  0  0  0  0  0  0  0  0  0  0
    2.9511    1.3283   -1.6606 H   0  0  0  0  0  0  0  0  0  0  0  0
   -0.5882    3.1382    1.6798 H   0  0  0  0  0  0  0  0  0  0  0  0
   -2.4519   -1.6566    2.6818 H   0  0  0  0  0  0  0  0  0  0  0  0
   -3.5205   -0.2664    2.9303 H   0  0  0  0  0  0  0  0  0  0  0  0
   -4.1957   -1.8243    2.4565 H   0  0  0  0  0  0  0  0  0  0  0  0
   -4.5440    0.2270   -0.6339 H   0  0  0  0  0  0  0  0  0  0  0  0
   -5.3665   -0.6384    0.6408 H   0  0  0  0  0  0  0  0  0  0  0  0
   -4.6087    0.9034    0.9972 H   0  0  0  0  0  0  0  0  0  0  0  0
    4.3758   -0.4992   -0.3665 H   0  0  0  0  0  0  0  0  0  0  0  0
    3.4114    0.5799    0.6408 H   0  0  0  0  0  0  0  0  0  0  0  0
    1.4711   -2.0754   -2.1626 H   0  0  0  0  0  0  0  0  0  0  0  0
    3.1885   -2.2678   -1.7986 H   0  0  0  0  0  0  0  0  0  0  0  0
    1.9425   -2.7064   -0.6021 H   0  0  0  0  0  0  0  0  0  0  0  0
    1.8679    3.0724   -0.8466 H   0  0  0  0  0  0  0  0  0  0  0  0
    4.4322   -2.8713    1.9684 H   0  0  0  0  0  0  0  0  0  0  0  0
  1  7  1  0  0  0  0
  1 16  1  0  0  0  0
  2 23  2  0  0  0  0
  3 24  1  0  0  0  0
  3 54  1  0  0  0  0
  4 24  2  0  0  0  0
  5  6  1  0  0  0  0
  5  7  1  0  0  0  0
  5  9  1  0  0  0  0
  5 14  1  0  0  0  0
  6  8  1  0  0  0  0
  6 12  1  0  0  0  0
  6 25  1  0  0  0  0
  7 10  1  0  0  0  0
  7 15  1  0  0  0  0
  8 11  1  0  0  0  0
  8 19  1  0  0  0  0
  8 20  1  0  0  0  0
  9 13  1  0  0  0  0
  9 26  1  0  0  0  0
  9 27  1  0  0  0  0
 10 17  1  0  0  0  0
 10 28  1  0  0  0  0
 10 29  1  0  0  0  0
 11 13  1  0  0  0  0
 11 30  1  0  0  0  0
 11 31  1  0  0  0  0
 12 18  1  0  0  0  0
 12 32  1  0  0  0  0
 12 33  1  0  0  0  0
 13 34  1  0  0  0  0
 13 35  1  0  0  0  0
 14 36  1  0  0  0  0
 14 37  1  0  0  0  0
 14 38  1  0  0  0  0
 15 18  2  0  0  0  0
 15 23  1  0  0  0  0
 16 17  1  0  0  0  0
 16 21  1  0  0  0  0
 16 22  1  0  0  0  0
 17 39  1  0  0  0  0
 17 40  1  0  0  0  0
 18 41  1  0  0  0  0
 19 42  1  0  0  0  0
 19 43  1  0  0  0  0
 19 44  1  0  0  0  0
 20 45  1  0  0  0  0
 20 46  1  0  0  0  0
 20 47  1  0  0  0  0
 21 24  1  0  0  0  0
 21 48  1  0  0  0  0
 21 49  1  0  0  0  0
 22 50  1  0  0  0  0
 22 51  1  0  0  0  0
 22 52  1  0  0  0  0
 23 53  1  0  0  0  0
M  END
> <PUBCHEM_COMPOUND_CID>
442067

> <PUBCHEM_CONFORMER_RMSD>
0.8

> <PUBCHEM_CONFORMER_DIVERSEORDER>
1
3
2

> <PUBCHEM_MMFF94_PARTIAL_CHARGES>
15
1 -0.56
12 0.14
15 -0.12
16 0.28
18 -0.29
2 -0.57
21 0.06
23 0.5
24 0.66
3 -0.65
4 -0.57
41 0.15
53 0.06
54 0.5
7 0.42

> <PUBCHEM_EFFECTIVE_ROTOR_COUNT>
4.8

> <PUBCHEM_PHARMACOPHORE_FEATURES>
9
1 1 acceptor
1 2 acceptor
1 3 acceptor
1 4 acceptor
3 3 4 24 anion
3 8 19 20 hydrophobe
5 1 7 10 16 17 rings
6 5 6 7 12 15 18 rings
6 5 6 8 9 11 13 rings

> <PUBCHEM_HEAVY_ATOM_COUNT>
24

> <PUBCHEM_ATOM_DEF_STEREO_COUNT>
4

> <PUBCHEM_ATOM_UDEF_STEREO_COUNT>
0

> <PUBCHEM_BOND_DEF_STEREO_COUNT>
0

> <PUBCHEM_BOND_UDEF_STEREO_COUNT>
0

> <PUBCHEM_ISOTOPIC_ATOM_COUNT>
0

> <PUBCHEM_COMPONENT_COUNT>
1

> <PUBCHEM_CACTVS_TAUTO_COUNT>
1

> <PUBCHEM_CONFORMER_ID>
0006BED300000001

> <PUBCHEM_MMFF94_ENERGY>
84.0304

> <PUBCHEM_FEATURE_SELFOVERLAP>
45.748

> <PUBCHEM_SHAPE_FINGERPRINT>
10382601 240 17973148544112969737
10863032 1 17488724706641426317
11578080 2 18202015321229718436
12202030 40 17559955411969017859
12506688 2 18060133249753749554
12539773 59 17120340155789182387
12553582 1 18189036681722011703
12633257 1 17241056482416781698
12714826 92 18130500937448339831
12788726 201 18197200641283670368
12824470 246 17846206782785519955
13083527 12 17970649405801217789
13140716 1 17824240632581029163
133893 2 18047210573596856029
13544653 18 18272101504109302594
13583140 156 18197203764389364105
14178342 30 17676489436513987519
14223421 5 17754163190249347135
14787075 74 18197770012977979892
15375462 189 18340477872707910934
15475509 35 17986653893293428643
16752209 62 18189598609842345125
16945 1 17896573194751908589
17349148 13 17168432567213247173
17980427 23 17023485061177033473
18981168 100 7492733669704203521
19868273 293 9655276147490897494
20600515 1 18041562537020580432
20775530 9 17202184227879765059
21033648 29 16806161206442431755
21421861 104 18263352621130151425
21475661 188 14492696447165971147
21731516 1 18413386527384735727
229495 10 17344032360349371933
23227448 37 5328447203625769675
23419403 2 18128284262035794468
23559900 14 17749654238665562069
2748010 2 17464223378438243797
34934 24 17606101897896902929
35225 105 17616840037411392570
81228 2 17826236473465677756

> <PUBCHEM_SHAPE_MULTIPOLES>
470.43
6.55
2.99
2.15
0.53
1.71
-0.01
-4.2
-2.53
-1.5
-0.79
-0.21
-0.49
-0.74

> <PUBCHEM_SHAPE_SELFOVERLAP>
989.68

> <PUBCHEM_SHAPE_VOLUME>
263.3

> <PUBCHEM_COORDINATE_TYPE>
2
5
10

$$$$

