8259
  -OEChem-07051212533D

  9  8  0     0  0  0  0  0  0999 V2000
    1.8366   -0.0007    1.0124 Cl  0  0  0  0  0  0  0  0  0  0  0  0
    0.3732    1.4580   -1.0330 Cl  0  0  0  0  0  0  0  0  0  0  0  0
    0.3736   -1.4563   -1.0353 Cl  0  0  0  0  0  0  0  0  0  0  0  0
   -2.0700   -0.0002    0.1422 O   0  0  0  0  0  0  0  0  0  0  0  0
   -0.8716   -0.0009    0.9108 C   0  0  0  0  0  0  0  0  0  0  0  0
    0.3582    0.0001    0.0029 C   0  0  0  0  0  0  0  0  0  0  0  0
   -0.8913   -0.8811    1.5637 H   0  0  0  0  0  0  0  0  0  0  0  0
   -0.8923    0.8860    1.5540 H   0  0  0  0  0  0  0  0  0  0  0  0
   -2.0423   -0.7798   -0.4384 H   0  0  0  0  0  0  0  0  0  0  0  0
  1  6  1  0  0  0  0
  2  6  1  0  0  0  0
  3  6  1  0  0  0  0
  4  5  1  0  0  0  0
  4  9  1  0  0  0  0
  5  6  1  0  0  0  0
  5  7  1  0  0  0  0
  5  8  1  0  0  0  0
M  END
> <PUBCHEM_COMPOUND_CID>
8259

> <PUBCHEM_CONFORMER_RMSD>
0.4

> <PUBCHEM_CONFORMER_DIVERSEORDER>
1

> <PUBCHEM_MMFF94_PARTIAL_CHARGES>
7
1 -0.29
2 -0.29
3 -0.29
4 -0.68
5 0.28
6 0.87
9 0.4

> <PUBCHEM_EFFECTIVE_ROTOR_COUNT>
1

> <PUBCHEM_PHARMACOPHORE_FEATURES>
2
1 4 acceptor
1 4 donor

> <PUBCHEM_HEAVY_ATOM_COUNT>
6

> <PUBCHEM_ATOM_DEF_STEREO_COUNT>
0

> <PUBCHEM_ATOM_UDEF_STEREO_COUNT>
0

> <PUBCHEM_BOND_DEF_STEREO_COUNT>
0

> <PUBCHEM_BOND_UDEF_STEREO_COUNT>
0

> <PUBCHEM_ISOTOPIC_ATOM_COUNT>
0

> <PUBCHEM_COMPONENT_COUNT>
1

> <PUBCHEM_CACTVS_TAUTO_COUNT>
1

> <PUBCHEM_CONFORMER_ID>
0000204300000001

> <PUBCHEM_MMFF94_ENERGY>
4.8227

> <PUBCHEM_FEATURE_SELFOVERLAP>
10.148

> <PUBCHEM_SHAPE_FINGERPRINT>
137420 1 10856582129355823918
139733 1 15213024821166081256
20096714 4 17626644034535328989
21040471 1 17822286825671355859
24536 1 18194934470793885689
29004967 10 17560814216212137312
5943 1 14784376021236973302

> <PUBCHEM_SHAPE_MULTIPOLES>
123.22
1.93
1.4
1.34
0.28
0
0.11
0
-0.82
-0.18
0.8
-0.22
0
0

> <PUBCHEM_SHAPE_SELFOVERLAP>
195.994

> <PUBCHEM_SHAPE_VOLUME>
88

> <PUBCHEM_COORDINATE_TYPE>
2
5
10

$$$$

