443461
  -OEChem-07051213023D

 49 53  0     1  0  0  0  0  0999 V2000
   -0.7264   -1.3229    0.9751 O   0  0  0  0  0  0  0  0  0  0  0  0
   -3.6738    0.8468   -1.1763 O   0  0  0  0  0  0  0  0  0  0  0  0
   -3.9588   -1.7919   -1.7002 O   0  0  0  0  0  0  0  0  0  0  0  0
   -1.9867   -0.6984    2.7993 O   0  0  0  0  0  0  0  0  0  0  0  0
    0.6043    3.6813    0.3699 O   0  0  0  0  0  0  0  0  0  0  0  0
    0.7247    2.7141   -1.6907 O   0  0  0  0  0  0  0  0  0  0  0  0
    1.5275    0.3268    0.0434 C   0  0  1  0  0  0  0  0  0  0  0  0
   -0.5689   -0.8227   -0.3648 C   0  0  2  0  0  0  0  0  0  0  0  0
    0.8879   -0.8021   -0.8247 C   0  0  2  0  0  0  0  0  0  0  0  0
   -0.9097    0.6582   -0.2438 C   0  0  2  0  0  0  0  0  0  0  0  0
    0.3825    1.3438    0.2722 C   0  0  2  0  0  0  0  0  0  0  0  0
   -2.1195    0.5478    0.6892 C   0  0  1  0  0  0  0  0  0  0  0  0
    2.0767   -0.2010    1.3836 C   0  0  0  0  0  0  0  0  0  0  0  0
    2.8416    0.8211   -0.6000 C   0  0  0  0  0  0  0  0  0  0  0  0
    1.6282   -2.1493   -0.8159 C   0  0  0  0  0  0  0  0  0  0  0  0
   -1.5759   -1.5217   -1.2894 C   0  0  0  0  0  0  0  0  0  0  0  0
    3.2094   -1.1014    0.9100 C   0  0  1  0  0  0  0  0  0  0  0  0
   -3.3242   -0.0387   -0.1096 C   0  0  2  0  0  0  0  0  0  0  0  0
    2.5829   -2.3872    0.3598 C   0  0  0  0  0  0  0  0  0  0  0  0
   -3.0014   -1.4269   -0.7135 C   0  0  1  0  0  0  0  0  0  0  0  0
    3.8275   -0.2415   -0.1703 C   0  0  0  0  0  0  0  0  0  0  0  0
   -1.6289   -0.5252    1.6460 C   0  0  0  0  0  0  0  0  0  0  0  0
    0.5878    2.6252   -0.4797 C   0  0  0  0  0  0  0  0  0  0  0  0
   -2.4685    1.8526    1.3941 C   0  0  0  0  0  0  0  0  0  0  0  0
    5.0615   -0.3869   -0.6636 C   0  0  0  0  0  0  0  0  0  0  0  0
    0.8746   -0.4596   -1.8713 H   0  0  0  0  0  0  0  0  0  0  0  0
   -1.1910    1.0864   -1.2144 H   0  0  0  0  0  0  0  0  0  0  0  0
    0.3029    1.5751    1.3404 H   0  0  0  0  0  0  0  0  0  0  0  0
    1.3498   -0.7366    1.9984 H   0  0  0  0  0  0  0  0  0  0  0  0
    2.4650    0.6236    1.9980 H   0  0  0  0  0  0  0  0  0  0  0  0
    3.1505    1.7864   -0.1818 H   0  0  0  0  0  0  0  0  0  0  0  0
    2.7766    0.9009   -1.6896 H   0  0  0  0  0  0  0  0  0  0  0  0
    2.2350   -2.1894   -1.7316 H   0  0  0  0  0  0  0  0  0  0  0  0
    0.9311   -2.9900   -0.9010 H   0  0  0  0  0  0  0  0  0  0  0  0
   -1.3269   -2.5833   -1.4047 H   0  0  0  0  0  0  0  0  0  0  0  0
   -1.5427   -1.0899   -2.2976 H   0  0  0  0  0  0  0  0  0  0  0  0
    3.9082   -1.3201    1.7236 H   0  0  0  0  0  0  0  0  0  0  0  0
   -4.2114   -0.1370    0.5282 H   0  0  0  0  0  0  0  0  0  0  0  0
    2.0303   -2.8867    1.1661 H   0  0  0  0  0  0  0  0  0  0  0  0
    3.3684   -3.0869    0.0485 H   0  0  0  0  0  0  0  0  0  0  0  0
   -3.0901   -2.1748    0.0842 H   0  0  0  0  0  0  0  0  0  0  0  0
   -1.7105    2.1382    2.1307 H   0  0  0  0  0  0  0  0  0  0  0  0
   -2.5750    2.6770    0.6816 H   0  0  0  0  0  0  0  0  0  0  0  0
   -3.4123    1.7568    1.9428 H   0  0  0  0  0  0  0  0  0  0  0  0
    5.7182   -1.1714   -0.3037 H   0  0  0  0  0  0  0  0  0  0  0  0
    5.4358    0.2756   -1.4364 H   0  0  0  0  0  0  0  0  0  0  0  0
   -4.0080    1.6688   -0.7799 H   0  0  0  0  0  0  0  0  0  0  0  0
   -3.9308   -1.1166   -2.3994 H   0  0  0  0  0  0  0  0  0  0  0  0
    0.7389    4.5299   -0.1034 H   0  0  0  0  0  0  0  0  0  0  0  0
  1  8  1  0  0  0  0
  1 22  1  0  0  0  0
  2 18  1  0  0  0  0
  2 47  1  0  0  0  0
  3 20  1  0  0  0  0
  3 48  1  0  0  0  0
  4 22  2  0  0  0  0
  5 23  1  0  0  0  0
  5 49  1  0  0  0  0
  6 23  2  0  0  0  0
  7  9  1  0  0  0  0
  7 11  1  0  0  0  0
  7 13  1  0  0  0  0
  7 14  1  0  0  0  0
  8  9  1  0  0  0  0
  8 10  1  0  0  0  0
  8 16  1  0  0  0  0
  9 15  1  0  0  0  0
  9 26  1  0  0  0  0
 10 11  1  0  0  0  0
 10 12  1  0  0  0  0
 10 27  1  0  0  0  0
 11 23  1  0  0  0  0
 11 28  1  0  0  0  0
 12 18  1  0  0  0  0
 12 22  1  0  0  0  0
 12 24  1  0  0  0  0
 13 17  1  0  0  0  0
 13 29  1  0  0  0  0
 13 30  1  0  0  0  0
 14 21  1  0  0  0  0
 14 31  1  0  0  0  0
 14 32  1  0  0  0  0
 15 19  1  0  0  0  0
 15 33  1  0  0  0  0
 15 34  1  0  0  0  0
 16 20  1  0  0  0  0
 16 35  1  0  0  0  0
 16 36  1  0  0  0  0
 17 19  1  0  0  0  0
 17 21  1  0  0  0  0
 17 37  1  0  0  0  0
 18 20  1  0  0  0  0
 18 38  1  0  0  0  0
 19 39  1  0  0  0  0
 19 40  1  0  0  0  0
 20 41  1  0  0  0  0
 21 25  2  0  0  0  0
 24 42  1  0  0  0  0
 24 43  1  0  0  0  0
 24 44  1  0  0  0  0
 25 45  1  0  0  0  0
 25 46  1  0  0  0  0
M  END
> <PUBCHEM_COMPOUND_CID>
443461

> <PUBCHEM_CONFORMER_RMSD>
0.6

> <PUBCHEM_CONFORMER_DIVERSEORDER>
1
2

> <PUBCHEM_MMFF94_PARTIAL_CHARGES>
22
1 -0.43
11 0.06
12 0.06
14 0.14
17 0.14
18 0.28
2 -0.68
20 0.28
21 -0.28
22 0.66
23 0.66
25 -0.3
3 -0.68
4 -0.57
45 0.15
46 0.15
47 0.4
48 0.4
49 0.5
5 -0.65
6 -0.57
8 0.28

> <PUBCHEM_EFFECTIVE_ROTOR_COUNT>
2.8

> <PUBCHEM_PHARMACOPHORE_FEATURES>
11
1 2 acceptor
1 2 donor
1 3 acceptor
1 3 donor
1 4 acceptor
1 5 acceptor
1 6 acceptor
3 5 6 23 anion
5 7 8 9 10 11 rings
8 1 8 10 12 16 18 20 22 rings
8 7 9 13 14 15 17 19 21 rings

> <PUBCHEM_HEAVY_ATOM_COUNT>
25

> <PUBCHEM_ATOM_DEF_STEREO_COUNT>
8

> <PUBCHEM_ATOM_UDEF_STEREO_COUNT>
1

> <PUBCHEM_BOND_DEF_STEREO_COUNT>
0

> <PUBCHEM_BOND_UDEF_STEREO_COUNT>
0

> <PUBCHEM_ISOTOPIC_ATOM_COUNT>
0

> <PUBCHEM_COMPONENT_COUNT>
1

> <PUBCHEM_CACTVS_TAUTO_COUNT>
1

> <PUBCHEM_CONFORMER_ID>
0006C44500000001

> <PUBCHEM_MMFF94_ENERGY>
99.9615

> <PUBCHEM_FEATURE_SELFOVERLAP>
56.059

> <PUBCHEM_SHAPE_FINGERPRINT>
104564 63 18267579285835737724
10863032 1 17459757110207602475
11578080 2 17896910735757591057
11582403 64 16258196196675753221
12553582 1 18413105082815427824
12788726 201 18056486281712541640
13140716 1 17976816484890959947
13224815 77 18411975892963954582
14181834 199 18266460910221033100
14223421 5 17557406696433472651
14955137 171 18047437154939136088
16752209 62 17386016091085500015
16945 1 17822023011800658899
17349148 13 18409170995498501111
18981168 100 16843597163670664357
19868273 325 18410011044157223124
200 152 18335707121798942271
20600515 1 17274812601880642302
21197605 99 17545017760891715673
21267235 1 18334007276785626918
21524375 3 16830650839349946828
22112679 90 18261098656653052636
2334 1 18410008870566414615
23388829 49 18334857177772219556
23402539 116 18343305898714808038
23419403 2 14539252926001807721
23557571 272 16081081568057702407
23559900 14 17240491290590151634
238 59 17984143660406105631
2748010 2 16750989039958034366
296302 2 16200431373203945358
3286 77 17531827855757248234
34934 24 18341047527231946704
5845 1 8857805882576316901
6992083 37 18188765171132575233
7364860 26 18120379761147962308
81228 2 17984417709669503328
9981440 41 17547868351822842185

> <PUBCHEM_SHAPE_MULTIPOLES>
479.27
6.49
2.77
1.64
2.44
1.87
0.63
-2.12
-0.99
0
-0.66
-1.06
-0.17
-0.93

> <PUBCHEM_SHAPE_SELFOVERLAP>
1076.714

> <PUBCHEM_SHAPE_VOLUME>
254.5

> <PUBCHEM_COORDINATE_TYPE>
2
5
10

$$$$

