14371
  -OEChem-07051213052D

 31 33  0     0  0  0  0  0  0999 V2000
    8.0190   -1.4027    0.0000 O   0  0  0  0  0  0  0  0  0  0  0  0
    3.2827   -0.7371    0.0000 O   0  0  0  0  0  0  0  0  0  0  0  0
    3.6493    0.9557    0.0000 N   0  0  0  0  0  0  0  0  0  0  0  0
    7.1540    1.8683    0.0000 C   0  0  0  0  0  0  0  0  0  0  0  0
    6.3450    1.2805    0.0000 C   0  0  0  0  0  0  0  0  0  0  0  0
    6.6540    0.3294    0.0000 C   0  0  0  0  0  0  0  0  0  0  0  0
    7.9630    1.2805    0.0000 C   0  0  0  0  0  0  0  0  0  0  0  0
    7.6540    0.3294    0.0000 C   0  0  0  0  0  0  0  0  0  0  0  0
    5.3296    1.5127    0.0000 C   0  0  0  0  0  0  0  0  0  0  0  0
    5.9691   -0.4553    0.0000 C   0  0  0  0  0  0  0  0  0  0  0  0
    8.3390   -0.4553    0.0000 C   0  0  0  0  0  0  0  0  0  0  0  0
    8.9784    1.5127    0.0000 C   0  0  0  0  0  0  0  0  0  0  0  0
    4.6267    0.7440    0.0000 C   0  0  0  0  0  0  0  0  0  0  0  0
    4.9486   -0.2466    0.0000 C   0  0  0  0  0  0  0  0  0  0  0  0
    9.3595   -0.2466    0.0000 C   0  0  0  0  0  0  0  0  0  0  0  0
    9.6814    0.7440    0.0000 C   0  0  0  0  0  0  0  0  0  0  0  0
    2.9773    0.2152    0.0000 C   0  0  0  0  0  0  0  0  0  0  0  0
    2.0000    0.4268    0.0000 C   0  0  0  0  0  0  0  0  0  0  0  0
    7.5689    2.3290    0.0000 H   0  0  0  0  0  0  0  0  0  0  0  0
    6.7392    2.3290    0.0000 H   0  0  0  0  0  0  0  0  0  0  0  0
    5.1448    2.1046    0.0000 H   0  0  0  0  0  0  0  0  0  0  0  0
    6.1674   -1.0427    0.0000 H   0  0  0  0  0  0  0  0  0  0  0  0
    9.1632    2.1046    0.0000 H   0  0  0  0  0  0  0  0  0  0  0  0
    4.5355   -0.7090    0.0000 H   0  0  0  0  0  0  0  0  0  0  0  0
    9.7726   -0.7090    0.0000 H   0  0  0  0  0  0  0  0  0  0  0  0
   10.2873    0.8753    0.0000 H   0  0  0  0  0  0  0  0  0  0  0  0
    3.4600    1.5461    0.0000 H   0  0  0  0  0  0  0  0  0  0  0  0
    8.4285   -1.8683    0.0000 H   0  0  0  0  0  0  0  0  0  0  0  0
    2.1312    1.0328    0.0000 H   0  0  0  0  0  0  0  0  0  0  0  0
    1.3940    0.5581    0.0000 H   0  0  0  0  0  0  0  0  0  0  0  0
    1.8688   -0.1791    0.0000 H   0  0  0  0  0  0  0  0  0  0  0  0
  1 11  1  0  0  0  0
  1 28  1  0  0  0  0
  2 17  2  0  0  0  0
  3 13  1  0  0  0  0
  3 17  1  0  0  0  0
  3 27  1  0  0  0  0
  4  5  1  0  0  0  0
  4  7  1  0  0  0  0
  4 19  1  0  0  0  0
  4 20  1  0  0  0  0
  5  6  2  0  0  0  0
  5  9  1  0  0  0  0
  6  8  1  0  0  0  0
  6 10  1  0  0  0  0
  7  8  2  0  0  0  0
  7 12  1  0  0  0  0
  8 11  1  0  0  0  0
  9 13  2  0  0  0  0
  9 21  1  0  0  0  0
 10 14  2  0  0  0  0
 10 22  1  0  0  0  0
 11 15  2  0  0  0  0
 12 16  2  0  0  0  0
 12 23  1  0  0  0  0
 13 14  1  0  0  0  0
 14 24  1  0  0  0  0
 15 16  1  0  0  0  0
 15 25  1  0  0  0  0
 16 26  1  0  0  0  0
 17 18  1  0  0  0  0
 18 29  1  0  0  0  0
 18 30  1  0  0  0  0
 18 31  1  0  0  0  0
M  END
> <PUBCHEM_COMPOUND_CID>
14371

> <PUBCHEM_COMPOUND_CANONICALIZED>
1

> <PUBCHEM_CACTVS_COMPLEXITY>
331

> <PUBCHEM_CACTVS_HBOND_ACCEPTOR>
2

> <PUBCHEM_CACTVS_HBOND_DONOR>
2

> <PUBCHEM_CACTVS_ROTATABLE_BOND>
1

> <PUBCHEM_CACTVS_SUBSKEYS>
AAADccByMAAAAAAAAAAAAAAAAAAAAYAAAAAwYAAAAAAAAGABQAAAHgAQCAAADAyBmAAyxoLAAgCIAiVSUACCAAAhIgAIiAAGbIgIJiLCkZOEcAhk1BHI2AeQwPAOiAABQAAYAAAQAAKAADAAAQAACAAAAA==

> <PUBCHEM_IUPAC_OPENEYE_NAME>
N-(5-hydroxy-9H-fluoren-2-yl)acetamide

> <PUBCHEM_IUPAC_CAS_NAME>
N-(5-hydroxy-9H-fluoren-2-yl)acetamide

> <PUBCHEM_IUPAC_NAME>
N-(5-hydroxy-9H-fluoren-2-yl)acetamide

> <PUBCHEM_IUPAC_SYSTEMATIC_NAME>
N-(5-oxidanyl-9H-fluoren-2-yl)ethanamide

> <PUBCHEM_IUPAC_TRADITIONAL_NAME>
N-(5-hydroxy-9H-fluoren-2-yl)acetamide

> <PUBCHEM_IUPAC_INCHI>
InChI=1S/C15H13NO2/c1-9(17)16-12-5-6-13-11(8-12)7-10-3-2-4-14(18)15(10)13/h2-6,8,18H,7H2,1H3,(H,16,17)

> <PUBCHEM_IUPAC_INCHIKEY>
LAMHNIXDQRUHBE-UHFFFAOYSA-N

> <PUBCHEM_XLOGP3_AA>
2.4

> <PUBCHEM_EXACT_MASS>
239.094629

> <PUBCHEM_MOLECULAR_FORMULA>
C15H13NO2

> <PUBCHEM_MOLECULAR_WEIGHT>
239.26922

> <PUBCHEM_OPENEYE_CAN_SMILES>
CC(=O)NC1=CC2=C(C=C1)C3=C(C2)C=CC=C3O

> <PUBCHEM_OPENEYE_ISO_SMILES>
CC(=O)NC1=CC2=C(C=C1)C3=C(C2)C=CC=C3O

> <PUBCHEM_CACTVS_TPSA>
49.3

> <PUBCHEM_MONOISOTOPIC_WEIGHT>
239.094629

> <PUBCHEM_TOTAL_CHARGE>
0

> <PUBCHEM_HEAVY_ATOM_COUNT>
18

> <PUBCHEM_ATOM_DEF_STEREO_COUNT>
0

> <PUBCHEM_ATOM_UDEF_STEREO_COUNT>
0

> <PUBCHEM_BOND_DEF_STEREO_COUNT>
0

> <PUBCHEM_BOND_UDEF_STEREO_COUNT>
0

> <PUBCHEM_ISOTOPIC_ATOM_COUNT>
0

> <PUBCHEM_COMPONENT_COUNT>
1

> <PUBCHEM_CACTVS_TAUTO_COUNT>
42

> <PUBCHEM_COORDINATE_TYPE>
1
5
255

> <PUBCHEM_BONDANNOTATIONS>
10  14  8
11  15  8
12  16  8
13  14  8
15  16  8
5  6  8
5  9  8
6  10  8
7  12  8
7  8  8
8  11  8
9  13  8

$$$$

