442341
  -OEChem-07051212573D

 85 91  0     1  0  0  0  0  0999 V2000
    0.5882    0.7712   -0.7085 O   0  0  0  0  0  0  0  0  0  0  0  0
    1.2893    3.2770   -1.7258 O   0  0  0  0  0  0  0  0  0  0  0  0
    0.9665    2.5598    1.6105 O   0  0  0  0  0  0  0  0  0  0  0  0
    3.8681    4.1995   -1.4337 O   0  0  0  0  0  0  0  0  0  0  0  0
   -1.7961   -4.5116   -0.7157 O   0  0  0  0  0  0  0  0  0  0  0  0
   -0.4424   -6.7301    0.0674 O   0  0  0  0  0  0  0  0  0  0  0  0
    3.4408   -1.5961    1.4028 N   0  0  1  0  0  0  0  0  0  0  0  0
   -5.2010    2.5697   -0.2035 N   0  0  1  0  0  0  0  0  0  0  0  0
    2.5155   -1.0245    0.3965 C   0  0  1  0  0  0  0  0  0  0  0  0
   -4.2399    1.4530   -0.3866 C   0  0  1  0  0  0  0  0  0  0  0  0
    2.8558    0.4022   -0.0206 C   0  0  0  0  0  0  0  0  0  0  0  0
    4.8469   -1.3762    1.0448 C   0  0  0  0  0  0  0  0  0  0  0  0
    4.1671    0.8916    0.1211 C   0  0  0  0  0  0  0  0  0  0  0  0
   -2.8330    1.7984    0.0807 C   0  0  0  0  0  0  0  0  0  0  0  0
    5.2177    0.0949    0.8501 C   0  0  0  0  0  0  0  0  0  0  0  0
    2.4447   -1.9312   -0.8650 C   0  0  0  0  0  0  0  0  0  0  0  0
   -5.1610    3.1061    1.1638 C   0  0  0  0  0  0  0  0  0  0  0  0
   -2.6338    2.7382    1.1043 C   0  0  0  0  0  0  0  0  0  0  0  0
   -3.7762    3.5708    1.6262 C   0  0  0  0  0  0  0  0  0  0  0  0
   -4.8030    0.1919    0.3329 C   0  0  0  0  0  0  0  0  0  0  0  0
    1.8782    1.2417   -0.5898 C   0  0  0  0  0  0  0  0  0  0  0  0
   -1.7170    1.1751   -0.5035 C   0  0  0  0  0  0  0  0  0  0  0  0
    3.1385   -1.1295    2.7563 C   0  0  0  0  0  0  0  0  0  0  0  0
    4.4867    2.1756   -0.3465 C   0  0  0  0  0  0  0  0  0  0  0  0
   -0.4213    1.4480   -0.0531 C   0  0  0  0  0  0  0  0  0  0  0  0
    1.6861   -3.2145   -0.6254 C   0  0  0  0  0  0  0  0  0  0  0  0
   -1.3365    2.9804    1.5763 C   0  0  0  0  0  0  0  0  0  0  0  0
    2.2162    2.5030   -1.0922 C   0  0  0  0  0  0  0  0  0  0  0  0
   -5.0318    3.6186   -1.2094 C   0  0  0  0  0  0  0  0  0  0  0  0
   -4.0425   -1.0871    0.0716 C   0  0  0  0  0  0  0  0  0  0  0  0
   -0.2378    2.3242    1.0180 C   0  0  0  0  0  0  0  0  0  0  0  0
    3.5212    2.9682   -0.9654 C   0  0  0  0  0  0  0  0  0  0  0  0
    0.2956   -3.2407   -0.8009 C   0  0  0  0  0  0  0  0  0  0  0  0
    2.3444   -4.3791   -0.2141 C   0  0  0  0  0  0  0  0  0  0  0  0
   -4.0952   -1.7101   -1.1830 C   0  0  0  0  0  0  0  0  0  0  0  0
   -3.2601   -1.6578    1.0872 C   0  0  0  0  0  0  0  0  0  0  0  0
   -0.4290   -4.4120   -0.5499 C   0  0  0  0  0  0  0  0  0  0  0  0
    1.6237   -5.5531    0.0124 C   0  0  0  0  0  0  0  0  0  0  0  0
   -2.5401   -3.3908   -0.4249 C   0  0  0  0  0  0  0  0  0  0  0  0
   -3.3501   -2.8635   -1.4306 C   0  0  0  0  0  0  0  0  0  0  0  0
   -2.5172   -2.8115    0.8454 C   0  0  0  0  0  0  0  0  0  0  0  0
    0.2395   -5.5728   -0.1594 C   0  0  0  0  0  0  0  0  0  0  0  0
    1.1683    3.1163   -3.1371 C   0  0  0  0  0  0  0  0  0  0  0  0
    1.3243    1.7209    2.7067 C   0  0  0  0  0  0  0  0  0  0  0  0
    3.7417    5.2958   -0.5302 C   0  0  0  0  0  0  0  0  0  0  0  0
    1.5118   -1.0134    0.8428 H   0  0  0  0  0  0  0  0  0  0  0  0
   -4.1970    1.2260   -1.4610 H   0  0  0  0  0  0  0  0  0  0  0  0
    5.0755   -1.9261    0.1241 H   0  0  0  0  0  0  0  0  0  0  0  0
    5.5047   -1.8225    1.8015 H   0  0  0  0  0  0  0  0  0  0  0  0
    6.1659    0.1475    0.3013 H   0  0  0  0  0  0  0  0  0  0  0  0
    5.3799    0.5642    1.8286 H   0  0  0  0  0  0  0  0  0  0  0  0
    3.4402   -2.1594   -1.2651 H   0  0  0  0  0  0  0  0  0  0  0  0
    1.9459   -1.4021   -1.6890 H   0  0  0  0  0  0  0  0  0  0  0  0
   -5.5283    2.3419    1.8591 H   0  0  0  0  0  0  0  0  0  0  0  0
   -5.8776    3.9309    1.2703 H   0  0  0  0  0  0  0  0  0  0  0  0
   -3.7530    3.5814    2.7226 H   0  0  0  0  0  0  0  0  0  0  0  0
   -3.6179    4.6014    1.2830 H   0  0  0  0  0  0  0  0  0  0  0  0
   -5.8433    0.0254    0.0198 H   0  0  0  0  0  0  0  0  0  0  0  0
   -4.8420    0.3489    1.4182 H   0  0  0  0  0  0  0  0  0  0  0  0
   -1.8568    0.4724   -1.3222 H   0  0  0  0  0  0  0  0  0  0  0  0
    3.3634   -0.0744    2.9098 H   0  0  0  0  0  0  0  0  0  0  0  0
    3.7376   -1.6953    3.4795 H   0  0  0  0  0  0  0  0  0  0  0  0
    2.0933   -1.3256    3.0172 H   0  0  0  0  0  0  0  0  0  0  0  0
    5.4987    2.5570   -0.2277 H   0  0  0  0  0  0  0  0  0  0  0  0
   -1.1840    3.6949    2.3830 H   0  0  0  0  0  0  0  0  0  0  0  0
   -5.1720    3.2079   -2.2155 H   0  0  0  0  0  0  0  0  0  0  0  0
   -4.0485    4.0991   -1.1727 H   0  0  0  0  0  0  0  0  0  0  0  0
   -5.7952    4.3945   -1.0842 H   0  0  0  0  0  0  0  0  0  0  0  0
   -0.2079   -2.3375   -1.1372 H   0  0  0  0  0  0  0  0  0  0  0  0
    3.4219   -4.3814   -0.0716 H   0  0  0  0  0  0  0  0  0  0  0  0
   -4.7058   -1.2907   -1.9785 H   0  0  0  0  0  0  0  0  0  0  0  0
   -3.2135   -1.1975    2.0711 H   0  0  0  0  0  0  0  0  0  0  0  0
    2.1495   -6.4516    0.3248 H   0  0  0  0  0  0  0  0  0  0  0  0
   -3.3865   -3.3286   -2.4117 H   0  0  0  0  0  0  0  0  0  0  0  0
   -1.9143   -3.2363    1.6428 H   0  0  0  0  0  0  0  0  0  0  0  0
    0.8898    2.0871   -3.3852 H   0  0  0  0  0  0  0  0  0  0  0  0
    2.1046    3.3829   -3.6374 H   0  0  0  0  0  0  0  0  0  0  0  0
    0.3799    3.7860   -3.4912 H   0  0  0  0  0  0  0  0  0  0  0  0
    2.3952    1.8352    2.8813 H   0  0  0  0  0  0  0  0  0  0  0  0
    1.0681    0.6793    2.5080 H   0  0  0  0  0  0  0  0  0  0  0  0
    0.7960    2.0539    3.6058 H   0  0  0  0  0  0  0  0  0  0  0  0
    2.7041    5.4046   -0.1987 H   0  0  0  0  0  0  0  0  0  0  0  0
    4.0389    6.2080   -1.0545 H   0  0  0  0  0  0  0  0  0  0  0  0
    4.3995    5.1578    0.3338 H   0  0  0  0  0  0  0  0  0  0  0  0
   -1.3876   -6.5642   -0.0936 H   0  0  0  0  0  0  0  0  0  0  0  0
  1 21  1  0  0  0  0
  1 25  1  0  0  0  0
  2 28  1  0  0  0  0
  2 43  1  0  0  0  0
  3 31  1  0  0  0  0
  3 44  1  0  0  0  0
  4 32  1  0  0  0  0
  4 45  1  0  0  0  0
  5 37  1  0  0  0  0
  5 39  1  0  0  0  0
  6 42  1  0  0  0  0
  6 85  1  0  0  0  0
  7  9  1  0  0  0  0
  7 12  1  0  0  0  0
  7 23  1  0  0  0  0
  8 10  1  0  0  0  0
  8 17  1  0  0  0  0
  8 29  1  0  0  0  0
  9 11  1  0  0  0  0
  9 16  1  0  0  0  0
  9 46  1  0  0  0  0
 10 14  1  0  0  0  0
 10 20  1  0  0  0  0
 10 47  1  0  0  0  0
 11 13  1  0  0  0  0
 11 21  2  0  0  0  0
 12 15  1  0  0  0  0
 12 48  1  0  0  0  0
 12 49  1  0  0  0  0
 13 15  1  0  0  0  0
 13 24  2  0  0  0  0
 14 18  1  0  0  0  0
 14 22  2  0  0  0  0
 15 50  1  0  0  0  0
 15 51  1  0  0  0  0
 16 26  1  0  0  0  0
 16 52  1  0  0  0  0
 16 53  1  0  0  0  0
 17 19  1  0  0  0  0
 17 54  1  0  0  0  0
 17 55  1  0  0  0  0
 18 19  1  0  0  0  0
 18 27  2  0  0  0  0
 19 56  1  0  0  0  0
 19 57  1  0  0  0  0
 20 30  1  0  0  0  0
 20 58  1  0  0  0  0
 20 59  1  0  0  0  0
 21 28  1  0  0  0  0
 22 25  1  0  0  0  0
 22 60  1  0  0  0  0
 23 61  1  0  0  0  0
 23 62  1  0  0  0  0
 23 63  1  0  0  0  0
 24 32  1  0  0  0  0
 24 64  1  0  0  0  0
 25 31  2  0  0  0  0
 26 33  2  0  0  0  0
 26 34  1  0  0  0  0
 27 31  1  0  0  0  0
 27 65  1  0  0  0  0
 28 32  2  0  0  0  0
 29 66  1  0  0  0  0
 29 67  1  0  0  0  0
 29 68  1  0  0  0  0
 30 35  2  0  0  0  0
 30 36  1  0  0  0  0
 33 37  1  0  0  0  0
 33 69  1  0  0  0  0
 34 38  2  0  0  0  0
 34 70  1  0  0  0  0
 35 40  1  0  0  0  0
 35 71  1  0  0  0  0
 36 41  2  0  0  0  0
 36 72  1  0  0  0  0
 37 42  2  0  0  0  0
 38 42  1  0  0  0  0
 38 73  1  0  0  0  0
 39 40  2  0  0  0  0
 39 41  1  0  0  0  0
 40 74  1  0  0  0  0
 41 75  1  0  0  0  0
 43 76  1  0  0  0  0
 43 77  1  0  0  0  0
 43 78  1  0  0  0  0
 44 79  1  0  0  0  0
 44 80  1  0  0  0  0
 44 81  1  0  0  0  0
 45 82  1  0  0  0  0
 45 83  1  0  0  0  0
 45 84  1  0  0  0  0
M  END
> <PUBCHEM_COMPOUND_CID>
442341

> <PUBCHEM_CONFORMER_RMSD>
1

> <PUBCHEM_CONFORMER_DIVERSEORDER>
1
3
2

> <PUBCHEM_MMFF94_PARTIAL_CHARGES>
56
1 -0.17
10 0.41
11 -0.14
12 0.27
13 -0.14
14 -0.14
15 0.14
16 0.14
17 0.27
18 -0.14
19 0.14
2 -0.36
20 0.14
21 0.08
22 -0.15
23 0.27
24 -0.15
25 0.08
26 -0.14
27 -0.15
28 0.08
29 0.27
3 -0.36
30 -0.14
31 0.08
32 0.08
33 -0.15
34 -0.15
35 -0.15
36 -0.15
37 0.08
38 -0.15
39 0.08
4 -0.36
40 -0.15
41 -0.15
42 0.08
43 0.28
44 0.28
45 0.28
5 -0.17
6 -0.53
60 0.15
64 0.15
65 0.15
69 0.15
7 -0.81
70 0.15
71 0.15
72 0.15
73 0.15
74 0.15
75 0.15
8 -0.81
85 0.45
9 0.41

> <PUBCHEM_EFFECTIVE_ROTOR_COUNT>
5

> <PUBCHEM_PHARMACOPHORE_FEATURES>
14
1 1 acceptor
1 2 acceptor
1 3 acceptor
1 4 acceptor
1 5 acceptor
1 6 donor
1 7 cation
1 8 cation
6 11 13 21 24 28 32 rings
6 14 18 22 25 27 31 rings
6 26 33 34 37 38 42 rings
6 30 35 36 39 40 41 rings
6 7 9 11 12 13 15 rings
6 8 10 14 17 18 19 rings

> <PUBCHEM_HEAVY_ATOM_COUNT>
45

> <PUBCHEM_ATOM_DEF_STEREO_COUNT>
2

> <PUBCHEM_ATOM_UDEF_STEREO_COUNT>
0

> <PUBCHEM_BOND_DEF_STEREO_COUNT>
0

> <PUBCHEM_BOND_UDEF_STEREO_COUNT>
0

> <PUBCHEM_ISOTOPIC_ATOM_COUNT>
0

> <PUBCHEM_COMPONENT_COUNT>
1

> <PUBCHEM_CACTVS_TAUTO_COUNT>
3

> <PUBCHEM_CONFORMER_ID>
0006BFE500000001

> <PUBCHEM_MMFF94_ENERGY>
192.5117

> <PUBCHEM_FEATURE_SELFOVERLAP>
71.093

> <PUBCHEM_SHAPE_FINGERPRINT>
10439779 11 18337404840735381355
10653451 467 16034625371739027145
11421498 54 17838331878612529840
11513181 2 18113617914998458662
12218070 45 18267049218547561258
12788726 201 18118403942905073367
1361 2 18122060072554914443
14117953 113 18123758822404356278
14394314 77 17761483691702397355
14725015 67 18191035508405704111
14790565 3 18339077077946428790
14918310 93 17552635164230781033
15001296 14 18268710498136856678
15297060 5 18187365462934516090
15320467 1 18337108960754669443
15400415 2 18410851032503170429
19311894 1 17545305394492117558
19319366 153 18261394476905122925
20764821 26 18191590963129393603
21133410 58 17982459497325605693
22121540 332 16814896483208555488
23559900 14 18335983185127565400
354706 35 18048330942007685423
45266715 3 15317483228221927068
463206 1 17690274911539468715
5265222 85 18339633464973719380
5309563 4 17258492778227631031
6036956 94 18053663582103362877

> <PUBCHEM_SHAPE_MULTIPOLES>
880.9
10.14
9.28
1.9
6.93
9.21
0.25
-6.27
1.51
-3.99
-2.71
-0.48
-1.72
-2.18

> <PUBCHEM_SHAPE_SELFOVERLAP>
1944.46

> <PUBCHEM_SHAPE_VOLUME>
472.7

> <PUBCHEM_COORDINATE_TYPE>
2
5
10

$$$$

