17395340
  -OEChem-06241222493D

 35 36  0     1  0  0  0  0  0999 V2000
    6.2601   -2.1084    0.5825 Cl  0  0  0  0  0  0  0  0  0  0  0  0
    1.4596    1.0477   -0.6817 O   0  0  0  0  0  0  0  0  0  0  0  0
   -0.8947    0.0751   -1.4302 O   0  0  0  0  0  0  0  0  0  0  0  0
   -5.1699   -0.7188    0.9515 O   0  0  0  0  0  0  0  0  0  0  0  0
   -1.8460    0.4059    0.6915 N   0  0  0  0  0  0  0  0  0  0  0  0
   -4.0432   -0.1303    1.5132 N   0  0  0  0  0  0  0  0  0  0  0  0
    0.4369    1.0825    0.3002 C   0  0  1  0  0  0  0  0  0  0  0  0
    0.2328    2.5276    0.7659 C   0  0  0  0  0  0  0  0  0  0  0  0
   -0.8412    0.4652   -0.2673 C   0  0  0  0  0  0  0  0  0  0  0  0
   -0.2214    3.4702   -0.3431 C   0  0  0  0  0  0  0  0  0  0  0  0
    2.5793    0.3116   -0.3868 C   0  0  0  0  0  0  0  0  0  0  0  0
   -3.1365   -0.1138    0.5320 C   0  0  0  0  0  0  0  0  0  0  0  0
    2.4683   -1.0554   -0.1322 C   0  0  0  0  0  0  0  0  0  0  0  0
    3.8286    0.9305   -0.3411 C   0  0  0  0  0  0  0  0  0  0  0  0
   -3.6293   -0.6728   -0.6597 C   0  0  0  0  0  0  0  0  0  0  0  0
   -4.9111   -1.0375   -0.3425 C   0  0  0  0  0  0  0  0  0  0  0  0
    3.6065   -1.8036    0.1678 C   0  0  0  0  0  0  0  0  0  0  0  0
    4.9669    0.1822   -0.0411 C   0  0  0  0  0  0  0  0  0  0  0  0
    4.8558   -1.1849    0.2136 C   0  0  0  0  0  0  0  0  0  0  0  0
   -6.0016   -1.6728   -1.0924 C   0  0  0  0  0  0  0  0  0  0  0  0
    0.7148    0.4911    1.1847 H   0  0  0  0  0  0  0  0  0  0  0  0
   -0.4892    2.5773    1.5882 H   0  0  0  0  0  0  0  0  0  0  0  0
    1.1849    2.9082    1.1566 H   0  0  0  0  0  0  0  0  0  0  0  0
   -0.3072    4.4903    0.0452 H   0  0  0  0  0  0  0  0  0  0  0  0
   -1.1998    3.1810   -0.7385 H   0  0  0  0  0  0  0  0  0  0  0  0
    0.4948    3.4863   -1.1705 H   0  0  0  0  0  0  0  0  0  0  0  0
   -1.6565    0.7506    1.6285 H   0  0  0  0  0  0  0  0  0  0  0  0
    1.5033   -1.5531   -0.1734 H   0  0  0  0  0  0  0  0  0  0  0  0
    3.9203    1.9951   -0.5380 H   0  0  0  0  0  0  0  0  0  0  0  0
   -3.1556   -0.8068   -1.6200 H   0  0  0  0  0  0  0  0  0  0  0  0
    3.5053   -2.8684    0.3617 H   0  0  0  0  0  0  0  0  0  0  0  0
    5.9339    0.6777   -0.0090 H   0  0  0  0  0  0  0  0  0  0  0  0
   -6.2965   -2.6145   -0.6191 H   0  0  0  0  0  0  0  0  0  0  0  0
   -6.8769   -1.0170   -1.1286 H   0  0  0  0  0  0  0  0  0  0  0  0
   -5.6991   -1.8910   -2.1213 H   0  0  0  0  0  0  0  0  0  0  0  0
  1 19  1  0  0  0  0
  2  7  1  0  0  0  0
  2 11  1  0  0  0  0
  3  9  2  0  0  0  0
  4  6  1  0  0  0  0
  4 16  1  0  0  0  0
  5  9  1  0  0  0  0
  5 12  1  0  0  0  0
  5 27  1  0  0  0  0
  6 12  2  0  0  0  0
  7  8  1  0  0  0  0
  7  9  1  0  0  0  0
  7 21  1  0  0  0  0
  8 10  1  0  0  0  0
  8 22  1  0  0  0  0
  8 23  1  0  0  0  0
 10 24  1  0  0  0  0
 10 25  1  0  0  0  0
 10 26  1  0  0  0  0
 11 13  2  0  0  0  0
 11 14  1  0  0  0  0
 12 15  1  0  0  0  0
 13 17  1  0  0  0  0
 13 28  1  0  0  0  0
 14 18  2  0  0  0  0
 14 29  1  0  0  0  0
 15 16  2  0  0  0  0
 15 30  1  0  0  0  0
 16 20  1  0  0  0  0
 17 19  2  0  0  0  0
 17 31  1  0  0  0  0
 18 19  1  0  0  0  0
 18 32  1  0  0  0  0
 20 33  1  0  0  0  0
 20 34  1  0  0  0  0
 20 35  1  0  0  0  0
M  END
> <PUBCHEM_COMPOUND_CID>
17395340

> <PUBCHEM_CONFORMER_RMSD>
0.8

> <PUBCHEM_CONFORMER_DIVERSEORDER>
1
13
42
8
49
32
45
40
50
15
52
2
37
35
43
53
28
6
30
36
25
3
20
31
47
22
51
44
48
4
46
34
33
39
21
17
41
26
24
27
5
23
16
14
29
12
7
9
38
11
19
10
18

> <PUBCHEM_MMFF94_PARTIAL_CHARGES>
24
1 -0.18
11 0.08
12 0.35
13 -0.15
14 -0.15
15 -0.15
16 -0.04
17 -0.15
18 -0.15
19 0.18
2 -0.36
20 0.18
27 0.37
28 0.15
29 0.15
3 -0.57
30 0.15
31 0.15
32 0.15
4 -0.02
5 -0.49
6 -0.41
7 0.34
9 0.57

> <PUBCHEM_EFFECTIVE_ROTOR_COUNT>
6

> <PUBCHEM_PHARMACOPHORE_FEATURES>
6
1 10 hydrophobe
1 2 acceptor
1 3 acceptor
1 5 donor
5 4 6 12 15 16 rings
6 11 13 14 17 18 19 rings

> <PUBCHEM_HEAVY_ATOM_COUNT>
20

> <PUBCHEM_ATOM_DEF_STEREO_COUNT>
0

> <PUBCHEM_ATOM_UDEF_STEREO_COUNT>
1

> <PUBCHEM_BOND_DEF_STEREO_COUNT>
0

> <PUBCHEM_BOND_UDEF_STEREO_COUNT>
0

> <PUBCHEM_ISOTOPIC_ATOM_COUNT>
0

> <PUBCHEM_COMPONENT_COUNT>
1

> <PUBCHEM_CACTVS_TAUTO_COUNT>
3

> <PUBCHEM_CONFORMER_ID>
01096E8C00000001

> <PUBCHEM_MMFF94_ENERGY>
42.5203

> <PUBCHEM_FEATURE_SELFOVERLAP>
30.454

> <PUBCHEM_SHAPE_FINGERPRINT>
10447042 23 18342741810521271806
11796584 16 17203332182316272555
12236239 1 17967811630603615495
12293681 160 12679463105448488998
12516196 113 18408605842200145481
12555020 224 18201722825873165515
12596602 18 17312821563227334506
12760667 363 18343020033843820546
12839892 36 17095519574598751143
12892183 10 15574985221429391932
13103583 49 18040707074367083699
13134695 92 18339918200237146925
13544653 18 18343295976791832068
13685833 64 18131063810667570523
13862211 1 18409168809423483502
13911852 28 18336549403545752751
13955234 65 17975692784371714353
1420 369 18408601496089088654
15183329 4 16558760043737470783
15188451 53 17023193691276161687
15885798 251 18410007749648586984
17492 89 18193278722769486698
17539 30 18198910399134947925
17857418 61 18333733494495990439
17870717 6 16415758635360840811
17980427 23 5039653916244180753
1813 80 18334564742060471804
18222031 100 18114455691155003340
193927 3 18271515494471187786
200 152 18272368698219267448
20028762 73 18334861645230297934
21250096 35 18410572872760241803
21267235 1 18410287052184287726
212847 35 10015583896311072494
21315764 119 14979683246605362930
21637258 2 18342465858803964514
22950370 63 18409445881931718893
23402539 116 18408605897997738521
23559900 14 18267593399351116353
23622692 118 18341613780616546860
2871803 45 17846781832104964522
293599 30 8862936187194982218
3004659 81 17988927786260322554
314194 84 18410288077958707139
3411729 13 16806740451929562032
3421961 26 18336830779711880880
34797466 226 16271636785584753359
351380 3 18408605868133908294
46194498 28 17417534588391058549
465052 167 18262233326983425151
5104073 3 17386840605238227731
5283173 99 17987246692805449901
559249 180 18261112985402495239
7164475 11 18271237330993793340
76465 3 18335423452420633557
77188 2 18410857642115025484
7970288 3 18409733971311968710

> <PUBCHEM_SHAPE_MULTIPOLES>
385.89
13.99
2.57
1.03
2.49
2.04
-0.06
-12.3
-0.67
-0.95
0.03
0.98
-0.04
-1.07

> <PUBCHEM_SHAPE_SELFOVERLAP>
799.099

> <PUBCHEM_SHAPE_VOLUME>
221.5

> <PUBCHEM_COORDINATE_TYPE>
2
5
10

$$$$

