114850
  -OEChem-07051213003D

 43 46  0     1  0  0  0  0  0999 V2000
    1.4767    0.1238    1.6041 O   0  5  0  0  0  0  0  0  0  0  0  0
   -3.1390   -2.2410    0.3379 O   0  0  0  0  0  0  0  0  0  0  0  0
    2.1402    0.2701    0.4163 N   0  3  1  0  0  0  0  0  0  0  0  0
   -1.4963   -0.6337   -0.0431 N   0  0  0  0  0  0  0  0  0  0  0  0
    1.2503    0.0443   -0.8233 C   0  0  2  0  0  0  0  0  0  0  0  0
    0.1072    1.0718   -0.9530 C   0  0  1  0  0  0  0  0  0  0  0  0
    0.7117   -1.3881   -0.9300 C   0  0  2  0  0  0  0  0  0  0  0  0
   -1.0727    0.7906    0.0222 C   0  0  1  0  0  0  0  0  0  0  0  0
    0.6881    2.4968   -0.8899 C   0  0  0  0  0  0  0  0  0  0  0  0
   -0.4372   -1.6463    0.0453 C   0  0  0  0  0  0  0  0  0  0  0  0
    2.7018    1.6746    0.3647 C   0  0  0  0  0  0  0  0  0  0  0  0
    1.8389   -2.4217   -0.8028 C   0  0  0  0  0  0  0  0  0  0  0  0
    3.2769   -0.7304    0.3853 C   0  0  0  0  0  0  0  0  0  0  0  0
    1.5915    2.7172    0.3176 C   0  0  0  0  0  0  0  0  0  0  0  0
    2.7590   -2.1636    0.3857 C   0  0  0  0  0  0  0  0  0  0  0  0
   -2.2309    1.7661   -0.2312 C   0  0  0  0  0  0  0  0  0  0  0  0
   -3.4559    1.3470    0.5553 C   0  0  0  0  0  0  0  0  0  0  0  0
   -2.8125   -1.0629    0.1655 C   0  0  0  0  0  0  0  0  0  0  0  0
   -3.8977   -0.0147    0.0736 C   0  0  0  0  0  0  0  0  0  0  0  0
    1.9433    0.2041   -1.6631 H   0  0  0  0  0  0  0  0  0  0  0  0
   -0.3031    0.9521   -1.9675 H   0  0  0  0  0  0  0  0  0  0  0  0
    0.2902   -1.5015   -1.9397 H   0  0  0  0  0  0  0  0  0  0  0  0
   -0.7498    0.9450    1.0578 H   0  0  0  0  0  0  0  0  0  0  0  0
   -0.0968    3.2579   -0.9128 H   0  0  0  0  0  0  0  0  0  0  0  0
    1.2837    2.6646   -1.7977 H   0  0  0  0  0  0  0  0  0  0  0  0
   -0.8589   -2.6367   -0.1630 H   0  0  0  0  0  0  0  0  0  0  0  0
   -0.1056   -1.6752    1.0877 H   0  0  0  0  0  0  0  0  0  0  0  0
    3.3417    1.7318   -0.5232 H   0  0  0  0  0  0  0  0  0  0  0  0
    3.3175    1.7989    1.2626 H   0  0  0  0  0  0  0  0  0  0  0  0
    2.4430   -2.3915   -1.7193 H   0  0  0  0  0  0  0  0  0  0  0  0
    1.4253   -3.4350   -0.7397 H   0  0  0  0  0  0  0  0  0  0  0  0
    3.8882   -0.5360    1.2737 H   0  0  0  0  0  0  0  0  0  0  0  0
    3.8669   -0.5183   -0.5136 H   0  0  0  0  0  0  0  0  0  0  0  0
    2.0361    3.7173    0.2631 H   0  0  0  0  0  0  0  0  0  0  0  0
    0.9955    2.6844    1.2367 H   0  0  0  0  0  0  0  0  0  0  0  0
    2.2230   -2.3729    1.3185 H   0  0  0  0  0  0  0  0  0  0  0  0
    3.6068   -2.8570    0.3475 H   0  0  0  0  0  0  0  0  0  0  0  0
   -2.4751    1.8029   -1.3004 H   0  0  0  0  0  0  0  0  0  0  0  0
   -1.9524    2.7801    0.0742 H   0  0  0  0  0  0  0  0  0  0  0  0
   -4.2627    2.0737    0.4104 H   0  0  0  0  0  0  0  0  0  0  0  0
   -3.2263    1.3195    1.6273 H   0  0  0  0  0  0  0  0  0  0  0  0
   -4.2245    0.0327   -0.9720 H   0  0  0  0  0  0  0  0  0  0  0  0
   -4.7517   -0.3494    0.6735 H   0  0  0  0  0  0  0  0  0  0  0  0
  1  3  1  0  0  0  0
  2 18  2  0  0  0  0
  3  5  1  0  0  0  0
  3 11  1  0  0  0  0
  3 13  1  0  0  0  0
  4  8  1  0  0  0  0
  4 10  1  0  0  0  0
  4 18  1  0  0  0  0
  5  6  1  0  0  0  0
  5  7  1  0  0  0  0
  5 20  1  0  0  0  0
  6  8  1  0  0  0  0
  6  9  1  0  0  0  0
  6 21  1  0  0  0  0
  7 10  1  0  0  0  0
  7 12  1  0  0  0  0
  7 22  1  0  0  0  0
  8 16  1  0  0  0  0
  8 23  1  0  0  0  0
  9 14  1  0  0  0  0
  9 24  1  0  0  0  0
  9 25  1  0  0  0  0
 10 26  1  0  0  0  0
 10 27  1  0  0  0  0
 11 14  1  0  0  0  0
 11 28  1  0  0  0  0
 11 29  1  0  0  0  0
 12 15  1  0  0  0  0
 12 30  1  0  0  0  0
 12 31  1  0  0  0  0
 13 15  1  0  0  0  0
 13 32  1  0  0  0  0
 13 33  1  0  0  0  0
 14 34  1  0  0  0  0
 14 35  1  0  0  0  0
 15 36  1  0  0  0  0
 15 37  1  0  0  0  0
 16 17  1  0  0  0  0
 16 38  1  0  0  0  0
 16 39  1  0  0  0  0
 17 19  1  0  0  0  0
 17 40  1  0  0  0  0
 17 41  1  0  0  0  0
 18 19  1  0  0  0  0
 19 42  1  0  0  0  0
 19 43  1  0  0  0  0
M  CHG  2   1  -1   3   1
M  END
> <PUBCHEM_COMPOUND_CID>
114850

> <PUBCHEM_CONFORMER_RMSD>
0.6

> <PUBCHEM_CONFORMER_DIVERSEORDER>
1
6
3
10
7
2
11
8
9
5
4

> <PUBCHEM_MMFF94_PARTIAL_CHARGES>
11
1 -0.75
10 0.3
11 0.26
13 0.26
18 0.57
19 0.06
2 -0.57
3 -0.02
4 -0.66
5 0.26
8 0.3

> <PUBCHEM_EFFECTIVE_ROTOR_COUNT>
2

> <PUBCHEM_PHARMACOPHORE_FEATURES>
6
1 1 anion
1 2 acceptor
6 3 5 6 9 11 14 rings
6 3 5 7 12 13 15 rings
6 4 5 6 7 8 10 rings
6 4 8 16 17 18 19 rings

> <PUBCHEM_HEAVY_ATOM_COUNT>
19

> <PUBCHEM_ATOM_DEF_STEREO_COUNT>
4

> <PUBCHEM_ATOM_UDEF_STEREO_COUNT>
1

> <PUBCHEM_BOND_DEF_STEREO_COUNT>
0

> <PUBCHEM_BOND_UDEF_STEREO_COUNT>
0

> <PUBCHEM_ISOTOPIC_ATOM_COUNT>
0

> <PUBCHEM_COMPONENT_COUNT>
1

> <PUBCHEM_CACTVS_TAUTO_COUNT>
1

> <PUBCHEM_CONFORMER_ID>
0001C0A200000001

> <PUBCHEM_MMFF94_ENERGY>
42.6512

> <PUBCHEM_FEATURE_SELFOVERLAP>
30.588

> <PUBCHEM_SHAPE_FINGERPRINT>
10608611 8 18409450310380676129
10863032 1 18409448081118628352
10948715 1 18048032974277468416
10967382 1 18410572894324762077
1100329 8 15312097854058975885
11132069 177 18340214093059711320
11680986 33 18410006650389881103
12011746 2 18337393837128635934
12251169 10 18410015463309338105
12382932 28 18266179611321741129
12423570 1 9647044155563160380
12633257 1 18340494477003926995
12696612 119 18410853261120730671
12716301 132 17551814924018769712
13140716 1 18339079409797126883
14178342 30 18410858733167658657
14223421 5 18341334388139708129
15375462 6 18338517413484577211
15442244 35 18410572933111375489
16945 1 18266466412253097254
17492 89 18338798914527471667
17804303 29 18266452281715851847
17990270 104 18412543201892144610
19591789 44 18338795594754433860
20510252 161 17544758292862074886
20559304 39 18340761551060801773
20588541 1 18120374517040002990
20600515 1 18053374680906235588
20645477 70 18199756830368097167
20905425 154 18336817589940654847
21501502 16 18409727357129930213
21524375 3 17755573854777292092
22721475 48 18265613375834402524
23184049 29 18412258433076535599
2334 1 18411134757604127759
23388829 49 18120944897371359519
23463225 33 18412544335821591580
23559900 14 18408610257616475249
2748010 2 18338238283401852406
5104073 3 18410845565415114755
568465 68 17678477448252685338
5939293 188 18409169943442321816
7364860 26 18408881811076365836
74978 22 18412541029108165279
7832392 63 18336824316081018595
81228 2 17616794970219302366
84936 31 16516530073904596086
8809292 202 17978789335253107006
9709674 26 18409164411783219343

> <PUBCHEM_SHAPE_MULTIPOLES>
369.31
5.58
3.04
0.98
3.53
0.41
-0.01
-1.13
-1.22
-1.01
0.22
-0.35
0.07
0.26

> <PUBCHEM_SHAPE_SELFOVERLAP>
783.019

> <PUBCHEM_SHAPE_VOLUME>
200.6

> <PUBCHEM_COORDINATE_TYPE>
2
5
10

$$$$

