439940
  -OEChem-07051212483D

 20 20  0     1  0  0  0  0  0999 V2000
   -1.9314   -1.8243   -0.1485 O   0  0  0  0  0  0  0  0  0  0  0  0
    3.9314    0.3998   -0.3782 O   0  0  0  0  0  0  0  0  0  0  0  0
   -2.2087    1.7000    0.6136 O   0  0  0  0  0  0  0  0  0  0  0  0
   -3.3064    0.3866   -0.8713 O   0  0  0  0  0  0  0  0  0  0  0  0
   -0.1014   -0.3439    0.2641 C   0  0  0  0  0  0  0  0  0  0  0  0
   -1.5501   -0.6108    0.4950 C   0  0  1  0  0  0  0  0  0  0  0  0
    0.7786   -0.2895    1.3449 C   0  0  0  0  0  0  0  0  0  0  0  0
    0.3737   -0.1485   -1.0328 C   0  0  0  0  0  0  0  0  0  0  0  0
    2.1337   -0.0396    1.1288 C   0  0  0  0  0  0  0  0  0  0  0  0
    1.7289    0.1014   -1.2489 C   0  0  0  0  0  0  0  0  0  0  0  0
    2.6090    0.1558   -0.1680 C   0  0  0  0  0  0  0  0  0  0  0  0
   -2.4573    0.5129    0.0014 C   0  0  0  0  0  0  0  0  0  0  0  0
   -1.7604   -0.7450    1.5632 H   0  0  0  0  0  0  0  0  0  0  0  0
    0.4236   -0.4394    2.3610 H   0  0  0  0  0  0  0  0  0  0  0  0
   -0.2990   -0.1898   -1.8856 H   0  0  0  0  0  0  0  0  0  0  0  0
    2.8091    0.0005    1.9792 H   0  0  0  0  0  0  0  0  0  0  0  0
    2.0932    0.2524   -2.2615 H   0  0  0  0  0  0  0  0  0  0  0  0
   -2.8371   -2.0343    0.1369 H   0  0  0  0  0  0  0  0  0  0  0  0
    4.3915    0.4025    0.4788 H   0  0  0  0  0  0  0  0  0  0  0  0
   -2.7897    2.4144    0.2752 H   0  0  0  0  0  0  0  0  0  0  0  0
  1  6  1  0  0  0  0
  1 18  1  0  0  0  0
  2 11  1  0  0  0  0
  2 19  1  0  0  0  0
  3 12  1  0  0  0  0
  3 20  1  0  0  0  0
  4 12  2  0  0  0  0
  5  6  1  0  0  0  0
  5  7  2  0  0  0  0
  5  8  1  0  0  0  0
  6 12  1  0  0  0  0
  6 13  1  0  0  0  0
  7  9  1  0  0  0  0
  7 14  1  0  0  0  0
  8 10  2  0  0  0  0
  8 15  1  0  0  0  0
  9 11  2  0  0  0  0
  9 16  1  0  0  0  0
 10 11  1  0  0  0  0
 10 17  1  0  0  0  0
M  END
> <PUBCHEM_COMPOUND_CID>
439940

> <PUBCHEM_CONFORMER_RMSD>
0.6

> <PUBCHEM_CONFORMER_DIVERSEORDER>
1
4
2
3

> <PUBCHEM_MMFF94_PARTIAL_CHARGES>
19
1 -0.68
10 -0.15
11 0.08
12 0.66
14 0.15
15 0.15
16 0.15
17 0.15
18 0.4
19 0.45
2 -0.53
20 0.5
3 -0.65
4 -0.57
5 -0.14
6 0.48
7 -0.15
8 -0.15
9 -0.15

> <PUBCHEM_EFFECTIVE_ROTOR_COUNT>
2

> <PUBCHEM_PHARMACOPHORE_FEATURES>
7
1 1 acceptor
1 1 donor
1 2 donor
1 3 acceptor
1 4 acceptor
3 3 4 12 anion
6 5 7 8 9 10 11 rings

> <PUBCHEM_HEAVY_ATOM_COUNT>
12

> <PUBCHEM_ATOM_DEF_STEREO_COUNT>
1

> <PUBCHEM_ATOM_UDEF_STEREO_COUNT>
0

> <PUBCHEM_BOND_DEF_STEREO_COUNT>
0

> <PUBCHEM_BOND_UDEF_STEREO_COUNT>
0

> <PUBCHEM_ISOTOPIC_ATOM_COUNT>
0

> <PUBCHEM_COMPONENT_COUNT>
1

> <PUBCHEM_CACTVS_TAUTO_COUNT>
2

> <PUBCHEM_CONFORMER_ID>
0006B68400000001

> <PUBCHEM_MMFF94_ENERGY>
21.7625

> <PUBCHEM_FEATURE_SELFOVERLAP>
35.586

> <PUBCHEM_SHAPE_FINGERPRINT>
10219947 1 16057161713843379576
12138202 97 18187089450924239751
124424 183 17821729463982121998
12491281 212 18272358802467086960
12716758 59 18334007315466459275
12897270 3 15936415571489631257
12932764 1 17385444331937610151
13839132 238 18116428326826827165
15775835 57 17775004604599312973
16945 1 18260830397079429418
17844478 74 17385716955260965459
18534176 82 18187080624776917671
20201158 50 16732980937844072142
21293036 1 16008751294946259748
23402539 116 18261401052705346301
2748010 2 15359121239433464118
5084963 1 15936700280381413523
528886 8 16558754494428669392

> <PUBCHEM_SHAPE_MULTIPOLES>
223.48
5.05
1.23
1.09
0.65
0.05
0.03
-0.9
-0.97
0.44
0.02
-0.97
0.1
-0.06

> <PUBCHEM_SHAPE_SELFOVERLAP>
467.124

> <PUBCHEM_SHAPE_VOLUME>
126.4

> <PUBCHEM_COORDINATE_TYPE>
2
5
10

$$$$

