5804
  -OEChem-06261200532D

 33 34  0     0  0  0  0  0  0999 V2000
    2.0000    1.0000    0.0000 I   0  0  0  0  0  0  0  0  0  0  0  0
    5.4641    1.0000    0.0000 I   0  0  0  0  0  0  0  0  0  0  0  0
    7.1962    2.0000    0.0000 I   0  0  0  0  0  0  0  0  0  0  0  0
    3.7320    2.0000    0.0000 O   0  0  0  0  0  0  0  0  0  0  0  0
    2.0000   -4.0000    0.0000 O   0  0  0  0  0  0  0  0  0  0  0  0
    3.7320   -4.0000    0.0000 O   0  0  0  0  0  0  0  0  0  0  0  0
    7.1962    4.0000    0.0000 O   0  0  0  0  0  0  0  0  0  0  0  0
    3.7320   -2.0000    0.0000 C   0  0  0  0  0  0  0  0  0  0  0  0
    3.7320   -1.0000    0.0000 C   0  0  0  0  0  0  0  0  0  0  0  0
    2.8660   -2.5000    0.0000 C   0  0  0  0  0  0  0  0  0  0  0  0
    4.5981   -0.5000    0.0000 C   0  0  0  0  0  0  0  0  0  0  0  0
    2.8660   -0.5000    0.0000 C   0  0  0  0  0  0  0  0  0  0  0  0
    3.7320    1.0000    0.0000 C   0  0  0  0  0  0  0  0  0  0  0  0
    2.8660    0.5000    0.0000 C   0  0  0  0  0  0  0  0  0  0  0  0
    4.5981    0.5000    0.0000 C   0  0  0  0  0  0  0  0  0  0  0  0
    4.5981    2.5000    0.0000 C   0  0  0  0  0  0  0  0  0  0  0  0
    2.8660   -3.5000    0.0000 C   0  0  0  0  0  0  0  0  0  0  0  0
    5.4641    2.0000    0.0000 C   0  0  0  0  0  0  0  0  0  0  0  0
    4.5981    3.5000    0.0000 C   0  0  0  0  0  0  0  0  0  0  0  0
    6.3301    2.5000    0.0000 C   0  0  0  0  0  0  0  0  0  0  0  0
    5.4641    4.0000    0.0000 C   0  0  0  0  0  0  0  0  0  0  0  0
    6.3301    3.5000    0.0000 C   0  0  0  0  0  0  0  0  0  0  0  0
    3.9441   -2.5826    0.0000 H   0  0  0  0  0  0  0  0  0  0  0  0
    4.3426   -1.8923    0.0000 H   0  0  0  0  0  0  0  0  0  0  0  0
    2.6540   -1.9174    0.0000 H   0  0  0  0  0  0  0  0  0  0  0  0
    2.2554   -2.6077    0.0000 H   0  0  0  0  0  0  0  0  0  0  0  0
    5.1350   -0.8100    0.0000 H   0  0  0  0  0  0  0  0  0  0  0  0
    2.3291   -0.8100    0.0000 H   0  0  0  0  0  0  0  0  0  0  0  0
    5.4641    1.3800    0.0000 H   0  0  0  0  0  0  0  0  0  0  0  0
    4.0611    3.8100    0.0000 H   0  0  0  0  0  0  0  0  0  0  0  0
    5.4641    4.6200    0.0000 H   0  0  0  0  0  0  0  0  0  0  0  0
    2.0000   -4.6200    0.0000 H   0  0  0  0  0  0  0  0  0  0  0  0
    7.1962    4.6200    0.0000 H   0  0  0  0  0  0  0  0  0  0  0  0
  1 14  1  0  0  0  0
  2 15  1  0  0  0  0
  3 20  1  0  0  0  0
  4 13  1  0  0  0  0
  4 16  1  0  0  0  0
  5 17  1  0  0  0  0
  5 32  1  0  0  0  0
  6 17  2  0  0  0  0
  7 22  1  0  0  0  0
  7 33  1  0  0  0  0
  8  9  1  0  0  0  0
  8 10  1  0  0  0  0
  8 23  1  0  0  0  0
  8 24  1  0  0  0  0
  9 11  2  0  0  0  0
  9 12  1  0  0  0  0
 10 17  1  0  0  0  0
 10 25  1  0  0  0  0
 10 26  1  0  0  0  0
 11 15  1  0  0  0  0
 11 27  1  0  0  0  0
 12 14  2  0  0  0  0
 12 28  1  0  0  0  0
 13 14  1  0  0  0  0
 13 15  2  0  0  0  0
 16 18  2  0  0  0  0
 16 19  1  0  0  0  0
 18 20  1  0  0  0  0
 18 29  1  0  0  0  0
 19 21  2  0  0  0  0
 19 30  1  0  0  0  0
 20 22  2  0  0  0  0
 21 22  1  0  0  0  0
 21 31  1  0  0  0  0
M  END
> <PUBCHEM_COMPOUND_CID>
5804

> <PUBCHEM_COMPOUND_CANONICALIZED>
1

> <PUBCHEM_CACTVS_COMPLEXITY>
370

> <PUBCHEM_CACTVS_HBOND_ACCEPTOR>
4

> <PUBCHEM_CACTVS_HBOND_DONOR>
2

> <PUBCHEM_CACTVS_ROTATABLE_BOND>
5

> <PUBCHEM_CACTVS_SUBSKEYS>
AAADccBwOAAAAwAAAAAAAAAAAAAAAAAAAAAwYAAAAAAAAAABQAAAGgAgCAAADASCmAAwDoAABgCIAiDSCAACCAAgIAAIiAEGCIgMJjKGMRqCeCCkwBEIuAfIyKCOIQAAAAAAAABCAAAAAAAAAAAAAAAAAA==

> <PUBCHEM_IUPAC_OPENEYE_NAME>
3-[4-(4-hydroxy-3-iodo-phenoxy)-3,5-diiodo-phenyl]propanoic acid

> <PUBCHEM_IUPAC_CAS_NAME>
3-[4-(4-hydroxy-3-iodophenoxy)-3,5-diiodophenyl]propanoic acid

> <PUBCHEM_IUPAC_NAME>
3-[4-(4-hydroxy-3-iodophenoxy)-3,5-diiodophenyl]propanoic acid

> <PUBCHEM_IUPAC_SYSTEMATIC_NAME>
3-[3,5-bis(iodanyl)-4-(3-iodanyl-4-oxidanyl-phenoxy)phenyl]propanoic acid

> <PUBCHEM_IUPAC_TRADITIONAL_NAME>
3-[4-(4-hydroxy-3-iodo-phenoxy)-3,5-diiodo-phenyl]propionic acid

> <PUBCHEM_IUPAC_INCHI>
InChI=1S/C15H11I3O4/c16-10-7-9(2-3-13(10)19)22-15-11(17)5-8(6-12(15)18)1-4-14(20)21/h2-3,5-7,19H,1,4H2,(H,20,21)

> <PUBCHEM_IUPAC_INCHIKEY>
VRORTNGXAKZJML-UHFFFAOYSA-N

> <PUBCHEM_XLOGP3_AA>
4.8

> <PUBCHEM_EXACT_MASS>
635.779153

> <PUBCHEM_MOLECULAR_FORMULA>
C15H11I3O4

> <PUBCHEM_MOLECULAR_WEIGHT>
635.95885

> <PUBCHEM_OPENEYE_CAN_SMILES>
C1=CC(=C(C=C1OC2=C(C=C(C=C2I)CCC(=O)O)I)I)O

> <PUBCHEM_OPENEYE_ISO_SMILES>
C1=CC(=C(C=C1OC2=C(C=C(C=C2I)CCC(=O)O)I)I)O

> <PUBCHEM_CACTVS_TPSA>
66.8

> <PUBCHEM_MONOISOTOPIC_WEIGHT>
635.779153

> <PUBCHEM_TOTAL_CHARGE>
0

> <PUBCHEM_HEAVY_ATOM_COUNT>
22

> <PUBCHEM_ATOM_DEF_STEREO_COUNT>
0

> <PUBCHEM_ATOM_UDEF_STEREO_COUNT>
0

> <PUBCHEM_BOND_DEF_STEREO_COUNT>
0

> <PUBCHEM_BOND_UDEF_STEREO_COUNT>
0

> <PUBCHEM_ISOTOPIC_ATOM_COUNT>
0

> <PUBCHEM_COMPONENT_COUNT>
1

> <PUBCHEM_CACTVS_TAUTO_COUNT>
3

> <PUBCHEM_COORDINATE_TYPE>
1
5
255

> <PUBCHEM_BONDANNOTATIONS>
11  15  8
12  14  8
13  14  8
13  15  8
16  18  8
16  19  8
18  20  8
19  21  8
20  22  8
21  22  8
9  11  8
9  12  8

$$$$

