9833
  -OEChem-06261204063D

 19 19  0     0  0  0  0  0  0999 V2000
    4.2398    0.5081    0.0015 F   0  0  0  0  0  0  0  0  0  0  0  0
   -4.5980    0.2105    0.0067 F   0  0  0  0  0  0  0  0  0  0  0  0
   -2.2086    1.3308   -0.0034 O   0  0  0  0  0  0  0  0  0  0  0  0
   -1.1355   -0.7680   -0.0010 N   0  0  0  0  0  0  0  0  0  0  0  0
    0.2220   -0.4458   -0.0011 C   0  0  0  0  0  0  0  0  0  0  0  0
    1.1795   -1.4600   -0.0005 C   0  0  0  0  0  0  0  0  0  0  0  0
    0.6215    0.8907   -0.0006 C   0  0  0  0  0  0  0  0  0  0  0  0
    2.5366   -1.1377    0.0007 C   0  0  0  0  0  0  0  0  0  0  0  0
    1.9787    1.2131    0.0005 C   0  0  0  0  0  0  0  0  0  0  0  0
    2.9363    0.1987    0.0012 C   0  0  0  0  0  0  0  0  0  0  0  0
   -2.2320    0.1044   -0.0022 C   0  0  0  0  0  0  0  0  0  0  0  0
   -3.5405   -0.6449   -0.0017 C   0  0  0  0  0  0  0  0  0  0  0  0
    0.8828   -2.5057   -0.0007 H   0  0  0  0  0  0  0  0  0  0  0  0
   -0.0601    1.7298   -0.0008 H   0  0  0  0  0  0  0  0  0  0  0  0
   -1.3451   -1.7642   -0.0006 H   0  0  0  0  0  0  0  0  0  0  0  0
    3.2826   -1.9270    0.0011 H   0  0  0  0  0  0  0  0  0  0  0  0
    2.2915    2.2532    0.0008 H   0  0  0  0  0  0  0  0  0  0  0  0
   -3.6083   -1.2756    0.8890 H   0  0  0  0  0  0  0  0  0  0  0  0
   -3.6140   -1.2657   -0.8989 H   0  0  0  0  0  0  0  0  0  0  0  0
  1 10  1  0  0  0  0
  2 12  1  0  0  0  0
  3 11  2  0  0  0  0
  4  5  1  0  0  0  0
  4 11  1  0  0  0  0
  4 15  1  0  0  0  0
  5  6  2  0  0  0  0
  5  7  1  0  0  0  0
  6  8  1  0  0  0  0
  6 13  1  0  0  0  0
  7  9  2  0  0  0  0
  7 14  1  0  0  0  0
  8 10  2  0  0  0  0
  8 16  1  0  0  0  0
  9 10  1  0  0  0  0
  9 17  1  0  0  0  0
 11 12  1  0  0  0  0
 12 18  1  0  0  0  0
 12 19  1  0  0  0  0
M  END
> <PUBCHEM_COMPOUND_CID>
9833

> <PUBCHEM_CONFORMER_RMSD>
0.6

> <PUBCHEM_CONFORMER_DIVERSEORDER>
1
3
2
4

> <PUBCHEM_MMFF94_PARTIAL_CHARGES>
17
1 -0.19
10 0.19
11 0.57
12 0.4
13 0.15
14 0.15
15 0.37
16 0.15
17 0.15
2 -0.34
3 -0.57
4 -0.55
5 0.12
6 -0.15
7 -0.15
8 -0.15
9 -0.15

> <PUBCHEM_EFFECTIVE_ROTOR_COUNT>
3

> <PUBCHEM_PHARMACOPHORE_FEATURES>
3
1 3 acceptor
1 4 donor
6 5 6 7 8 9 10 rings

> <PUBCHEM_HEAVY_ATOM_COUNT>
12

> <PUBCHEM_ATOM_DEF_STEREO_COUNT>
0

> <PUBCHEM_ATOM_UDEF_STEREO_COUNT>
0

> <PUBCHEM_BOND_DEF_STEREO_COUNT>
0

> <PUBCHEM_BOND_UDEF_STEREO_COUNT>
0

> <PUBCHEM_ISOTOPIC_ATOM_COUNT>
0

> <PUBCHEM_COMPONENT_COUNT>
1

> <PUBCHEM_CACTVS_TAUTO_COUNT>
2

> <PUBCHEM_CONFORMER_ID>
0000266900000001

> <PUBCHEM_MMFF94_ENERGY>
26.673

> <PUBCHEM_FEATURE_SELFOVERLAP>
15.223

> <PUBCHEM_SHAPE_FINGERPRINT>
10219947 1 18413105061161301558
10608611 8 18412831304272827693
11062470 55 18408322181090362331
11471102 20 18410296921122029823
12932764 1 17023480714680315491
13380535 76 18412261714120742130
14144814 61 18410011065405290819
14325111 11 18410855481608286021
15442244 35 18049159161582863282
15775835 57 18259984846947000047
18522853 276 18335422374051753945
200 152 18187090542304595783
20201158 50 18413669114821221251
20279233 1 17918268749469478715
20645477 70 18337676429050681095
20871998 22 18046345507576366254
23402539 116 18411428284543829711
23402655 69 18335989748243411965
3248919 1 14476954644548391555
528886 8 18410016511677094698
53812653 166 18334581200849448712

> <PUBCHEM_SHAPE_MULTIPOLES>
221.56
6.9
1.35
0.58
4.18
0.04
0
-0.5
0.01
-0.43
0
-0.03
0.01
0

> <PUBCHEM_SHAPE_SELFOVERLAP>
459.069

> <PUBCHEM_SHAPE_VOLUME>
126

> <PUBCHEM_COORDINATE_TYPE>
2
5
10

$$$$

