30767
  -OEChem-07051213063D

 19 20  0     0  0  0  0  0  0999 V2000
   -2.4845   -1.8103    0.6870 O   0  0  0  0  0  0  0  0  0  0  0  0
   -2.1129   -1.3068   -0.3808 N   0  0  0  0  0  0  0  0  0  0  0  0
    0.0816   -0.2800   -0.1153 C   0  0  0  0  0  0  0  0  0  0  0  0
    0.8382    0.9038    0.0539 C   0  0  0  0  0  0  0  0  0  0  0  0
   -1.3165   -0.1934   -0.2148 C   0  0  0  0  0  0  0  0  0  0  0  0
    0.1740    2.1396    0.1183 C   0  0  0  0  0  0  0  0  0  0  0  0
    0.7453   -1.5160   -0.1799 C   0  0  0  0  0  0  0  0  0  0  0  0
    2.2363    0.8169    0.1536 C   0  0  0  0  0  0  0  0  0  0  0  0
   -1.9599    1.0427   -0.1484 C   0  0  0  0  0  0  0  0  0  0  0  0
   -1.2159    2.2070    0.0176 C   0  0  0  0  0  0  0  0  0  0  0  0
    2.1351   -1.5838   -0.0788 C   0  0  0  0  0  0  0  0  0  0  0  0
    2.8792   -0.4197    0.0877 C   0  0  0  0  0  0  0  0  0  0  0  0
    0.7352    3.0627    0.2479 H   0  0  0  0  0  0  0  0  0  0  0  0
    0.2077   -2.4524   -0.3108 H   0  0  0  0  0  0  0  0  0  0  0  0
    2.8381    1.7139    0.2840 H   0  0  0  0  0  0  0  0  0  0  0  0
   -3.0426    1.1197   -0.2249 H   0  0  0  0  0  0  0  0  0  0  0  0
   -1.7169    3.1694    0.0690 H   0  0  0  0  0  0  0  0  0  0  0  0
    2.6367   -2.5459   -0.1305 H   0  0  0  0  0  0  0  0  0  0  0  0
    3.9611   -0.4731    0.1662 H   0  0  0  0  0  0  0  0  0  0  0  0
  1  2  2  0  0  0  0
  2  5  1  0  0  0  0
  3  4  1  0  0  0  0
  3  5  1  0  0  0  0
  3  7  2  0  0  0  0
  4  6  1  0  0  0  0
  4  8  2  0  0  0  0
  5  9  2  0  0  0  0
  6 10  2  0  0  0  0
  6 13  1  0  0  0  0
  7 11  1  0  0  0  0
  7 14  1  0  0  0  0
  8 12  1  0  0  0  0
  8 15  1  0  0  0  0
  9 10  1  0  0  0  0
  9 16  1  0  0  0  0
 10 17  1  0  0  0  0
 11 12  2  0  0  0  0
 11 18  1  0  0  0  0
 12 19  1  0  0  0  0
M  END
> <PUBCHEM_COMPOUND_CID>
30767

> <PUBCHEM_CONFORMER_RMSD>
0.4

> <PUBCHEM_CONFORMER_DIVERSEORDER>
1
2

> <PUBCHEM_MMFF94_PARTIAL_CHARGES>
17
1 -0.16
10 -0.15
11 -0.15
12 -0.15
13 0.15
14 0.15
15 0.15
16 0.15
17 0.15
18 0.15
19 0.15
2 -0.14
5 0.3
6 -0.15
7 -0.15
8 -0.15
9 -0.15

> <PUBCHEM_EFFECTIVE_ROTOR_COUNT>
1

> <PUBCHEM_PHARMACOPHORE_FEATURES>
2
6 3 4 5 6 9 10 rings
6 3 4 7 8 11 12 rings

> <PUBCHEM_HEAVY_ATOM_COUNT>
12

> <PUBCHEM_ATOM_DEF_STEREO_COUNT>
0

> <PUBCHEM_ATOM_UDEF_STEREO_COUNT>
0

> <PUBCHEM_BOND_DEF_STEREO_COUNT>
0

> <PUBCHEM_BOND_UDEF_STEREO_COUNT>
0

> <PUBCHEM_ISOTOPIC_ATOM_COUNT>
0

> <PUBCHEM_COMPONENT_COUNT>
1

> <PUBCHEM_CACTVS_TAUTO_COUNT>
1

> <PUBCHEM_CONFORMER_ID>
0000782F00000001

> <PUBCHEM_MMFF94_ENERGY>
37.9935

> <PUBCHEM_FEATURE_SELFOVERLAP>
10.175

> <PUBCHEM_SHAPE_FINGERPRINT>
10967382 1 18049725414376691052
12423570 1 16884720345805590469
12524768 44 18117840129663192910
13380535 21 18191572245835263268
13380535 76 18048044252523711358
16945 1 18194402414471834308
193761 8 18410293596860001853
19973954 147 18410012182254978276
20588541 1 18263925616801061581
20645476 183 17553172795045894590
20645477 70 17692261733800072919
20871998 184 18187648045627731655
21040471 1 17977385267573297948
21501502 16 18338237171226758028
22802520 49 17970896989444443958
2334 1 18410014295294556812
23552423 10 18343580767757432932
23559900 14 17756987084656948806
241688 4 18411139138428591264
2748010 2 18408611339937736436
528886 8 18336836401966021808
66348 1 18337114565438525204
8809292 202 18268707384475718042

> <PUBCHEM_SHAPE_MULTIPOLES>
236.1
3.58
2.38
0.65
1.04
0.13
0.01
-0.84
0.13
-1.02
0.17
-0.06
-0.06
0.22

> <PUBCHEM_SHAPE_SELFOVERLAP>
521.008

> <PUBCHEM_SHAPE_VOLUME>
127.7

> <PUBCHEM_COORDINATE_TYPE>
2
5
10

$$$$

