439781
  -OEChem-07051212473D

 22 22  0     1  0  0  0  0  0999 V2000
   -0.8159   -1.0070   -0.1618 O   0  0  0  0  0  0  0  0  0  0  0  0
   -0.3235    1.7044   -1.2129 O   0  0  0  0  0  0  0  0  0  0  0  0
    2.0559    1.9842    0.2510 O   0  0  0  0  0  0  0  0  0  0  0  0
    2.7433   -0.8252    0.2687 O   0  0  0  0  0  0  0  0  0  0  0  0
   -3.4584   -0.5932    0.3183 O   0  0  0  0  0  0  0  0  0  0  0  0
    0.7768   -2.5999   -0.2420 O   0  0  0  0  0  0  0  0  0  0  0  0
   -0.2599    1.3757    0.1747 C   0  0  2  0  0  0  0  0  0  0  0  0
    1.1459    0.9271    0.5449 C   0  0  1  0  0  0  0  0  0  0  0  0
   -1.2214    0.2314    0.4718 C   0  0  1  0  0  0  0  0  0  0  0  0
    1.5219   -0.3125   -0.2468 C   0  0  2  0  0  0  0  0  0  0  0  0
   -2.6449    0.5247    0.0115 C   0  0  0  0  0  0  0  0  0  0  0  0
    0.4800   -1.4096   -0.1774 C   0  0  0  0  0  0  0  0  0  0  0  0
   -0.5343    2.2803    0.7279 H   0  0  0  0  0  0  0  0  0  0  0  0
    1.2075    0.7382    1.6238 H   0  0  0  0  0  0  0  0  0  0  0  0
   -1.2352    0.0237    1.5496 H   0  0  0  0  0  0  0  0  0  0  0  0
    1.7011   -0.0760   -1.3010 H   0  0  0  0  0  0  0  0  0  0  0  0
   -2.6955    0.6632   -1.0727 H   0  0  0  0  0  0  0  0  0  0  0  0
   -3.0553    1.4138    0.5001 H   0  0  0  0  0  0  0  0  0  0  0  0
   -0.2932    0.8813   -1.7288 H   0  0  0  0  0  0  0  0  0  0  0  0
    2.9496    1.6657    0.4649 H   0  0  0  0  0  0  0  0  0  0  0  0
    2.6189   -1.0093    1.2155 H   0  0  0  0  0  0  0  0  0  0  0  0
   -3.4514   -0.7074    1.2839 H   0  0  0  0  0  0  0  0  0  0  0  0
  1  9  1  0  0  0  0
  1 12  1  0  0  0  0
  2  7  1  0  0  0  0
  2 19  1  0  0  0  0
  3  8  1  0  0  0  0
  3 20  1  0  0  0  0
  4 10  1  0  0  0  0
  4 21  1  0  0  0  0
  5 11  1  0  0  0  0
  5 22  1  0  0  0  0
  6 12  2  0  0  0  0
  7  8  1  0  0  0  0
  7  9  1  0  0  0  0
  7 13  1  0  0  0  0
  8 10  1  0  0  0  0
  8 14  1  0  0  0  0
  9 11  1  0  0  0  0
  9 15  1  0  0  0  0
 10 12  1  0  0  0  0
 10 16  1  0  0  0  0
 11 17  1  0  0  0  0
 11 18  1  0  0  0  0
M  END
> <PUBCHEM_COMPOUND_CID>
439781

> <PUBCHEM_CONFORMER_RMSD>
0.6

> <PUBCHEM_CONFORMER_DIVERSEORDER>
1
4
3
2
5

> <PUBCHEM_MMFF94_PARTIAL_CHARGES>
16
1 -0.43
10 0.34
11 0.28
12 0.66
19 0.4
2 -0.68
20 0.4
21 0.4
22 0.4
3 -0.68
4 -0.68
5 -0.68
6 -0.57
7 0.28
8 0.28
9 0.28

> <PUBCHEM_EFFECTIVE_ROTOR_COUNT>
2

> <PUBCHEM_PHARMACOPHORE_FEATURES>
10
1 2 acceptor
1 2 donor
1 3 acceptor
1 3 donor
1 4 acceptor
1 4 donor
1 5 acceptor
1 5 donor
1 6 acceptor
6 1 7 8 9 10 12 rings

> <PUBCHEM_HEAVY_ATOM_COUNT>
12

> <PUBCHEM_ATOM_DEF_STEREO_COUNT>
4

> <PUBCHEM_ATOM_UDEF_STEREO_COUNT>
0

> <PUBCHEM_BOND_DEF_STEREO_COUNT>
0

> <PUBCHEM_BOND_UDEF_STEREO_COUNT>
0

> <PUBCHEM_ISOTOPIC_ATOM_COUNT>
0

> <PUBCHEM_COMPONENT_COUNT>
1

> <PUBCHEM_CACTVS_TAUTO_COUNT>
1

> <PUBCHEM_CONFORMER_ID>
0006B5E500000001

> <PUBCHEM_MMFF94_ENERGY>
26.7688

> <PUBCHEM_FEATURE_SELFOVERLAP>
50.763

> <PUBCHEM_SHAPE_FINGERPRINT>
10219947 1 18341048528122811561
12423570 1 10394816133571378208
161256 15 18339924912837955029
16945 1 18335697299245256787
193761 8 17472133355050525650
20201158 50 18339927142205484979
20645477 70 18335423470012271487
21040471 1 18120373155424704184
23552423 10 18268418221464953167
241688 4 17689147237647368826
2748010 2 18266456516485059806
5084963 1 18113620100998693552
528862 383 18341056215892718944

> <PUBCHEM_SHAPE_MULTIPOLES>
211.74
3.52
2.15
0.75
2.08
0.42
-0.1
0.33
0.46
-0.97
-0.22
0.03
-0.21
0.21

> <PUBCHEM_SHAPE_SELFOVERLAP>
428.745

> <PUBCHEM_SHAPE_VOLUME>
121.8

> <PUBCHEM_COORDINATE_TYPE>
2
5
10

$$$$

