443097
  -OEChem-07051213013D

 87 91  0     1  0  0  0  0  0999 V2000
   -2.7699    0.1035   -0.9468 O   0  0  0  0  0  0  0  0  0  0  0  0
   -1.8967    5.1117   -1.4368 O   0  0  0  0  0  0  0  0  0  0  0  0
   -3.9004   -1.7574   -0.1091 O   0  0  0  0  0  0  0  0  0  0  0  0
   -5.2018    1.5417   -0.9777 O   0  0  0  0  0  0  0  0  0  0  0  0
   -7.5385   -0.2333   -1.2423 O   0  0  0  0  0  0  0  0  0  0  0  0
    9.3879   -1.8280    0.9804 O   0  0  0  0  0  0  0  0  0  0  0  0
   -7.4070   -2.3371    0.7540 O   0  0  0  0  0  0  0  0  0  0  0  0
    7.4804   -3.0280    0.7014 O   0  0  0  0  0  0  0  0  0  0  0  0
   -4.8666   -4.3207   -0.4891 O   0  5  0  0  0  0  0  0  0  0  0  0
   -4.7474   -4.2710    1.7952 O   0  0  0  0  0  0  0  0  0  0  0  0
    2.1511    0.0501   -0.7353 C   0  0  1  0  0  0  0  0  0  0  0  0
    0.8587    0.3030    0.0487 C   0  0  1  0  0  0  0  0  0  0  0  0
    3.4214    0.2638    0.1160 C   0  0  1  0  0  0  0  0  0  0  0  0
    0.8627    1.7823    0.5550 C   0  0  1  0  0  0  0  0  0  0  0  0
   -0.4595    2.1464    1.3320 C   0  0  2  0  0  0  0  0  0  0  0  0
    4.4906   -0.1191   -0.9362 C   0  0  2  0  0  0  0  0  0  0  0  0
   -1.6979    1.8220    0.4266 C   0  0  2  0  0  0  0  0  0  0  0  0
    3.4487    1.7335    0.5569 C   0  0  0  0  0  0  0  0  0  0  0  0
    2.1696    2.1241    1.3206 C   0  0  0  0  0  0  0  0  0  0  0  0
   -0.3813    0.0081   -0.8030 C   0  0  0  0  0  0  0  0  0  0  0  0
    2.3754   -1.3154   -1.3778 C   0  0  0  0  0  0  0  0  0  0  0  0
   -1.6741    0.3609   -0.0715 C   0  0  2  0  0  0  0  0  0  0  0  0
    3.8943   -1.3689   -1.6255 C   0  0  0  0  0  0  0  0  0  0  0  0
   -0.5169    3.6493    1.7332 C   0  0  0  0  0  0  0  0  0  0  0  0
    3.5118   -0.6539    1.3613 C   0  0  0  0  0  0  0  0  0  0  0  0
   -1.8493    2.8174   -0.7483 C   0  0  0  0  0  0  0  0  0  0  0  0
    5.9047   -0.3453   -0.4209 C   0  0  1  0  0  0  0  0  0  0  0  0
   -0.5640    1.3479    2.6574 C   0  0  0  0  0  0  0  0  0  0  0  0
   -0.6374    4.6021    0.5517 C   0  0  0  0  0  0  0  0  0  0  0  0
   -1.8636    4.2712   -0.2879 C   0  0  1  0  0  0  0  0  0  0  0  0
    6.6999   -1.2159   -1.4154 C   0  0  0  0  0  0  0  0  0  0  0  0
    6.5899    1.0000   -0.1595 C   0  0  0  0  0  0  0  0  0  0  0  0
   -3.9193   -0.3373   -0.2251 C   0  0  2  0  0  0  0  0  0  0  0  0
    8.1592   -1.4360   -1.0119 C   0  0  0  0  0  0  0  0  0  0  0  0
   -5.1609    0.1151   -0.9936 C   0  0  1  0  0  0  0  0  0  0  0  0
   -6.4364   -0.4363   -0.3562 C   0  0  2  0  0  0  0  0  0  0  0  0
    8.2750   -2.1935    0.2916 C   0  0  0  0  0  0  0  0  0  0  0  0
   -5.0106   -2.2562    0.6252 C   0  0  1  0  0  0  0  0  0  0  0  0
   -6.3214   -1.9367   -0.0815 C   0  0  1  0  0  0  0  0  0  0  0  0
   -4.8602   -3.7642    0.6438 C   0  0  0  0  0  0  0  0  0  0  0  0
    2.1616    0.7787   -1.5637 H   0  0  0  0  0  0  0  0  0  0  0  0
    0.8263   -0.3786    0.9044 H   0  0  0  0  0  0  0  0  0  0  0  0
    0.8926    2.4091   -0.3469 H   0  0  0  0  0  0  0  0  0  0  0  0
    4.5252    0.6693   -1.7041 H   0  0  0  0  0  0  0  0  0  0  0  0
   -2.6044    1.9508    1.0352 H   0  0  0  0  0  0  0  0  0  0  0  0
    4.2817    1.9375    1.2322 H   0  0  0  0  0  0  0  0  0  0  0  0
    3.5626    2.3945   -0.3113 H   0  0  0  0  0  0  0  0  0  0  0  0
    2.2202    3.2014    1.5120 H   0  0  0  0  0  0  0  0  0  0  0  0
    2.1745    1.6349    2.2999 H   0  0  0  0  0  0  0  0  0  0  0  0
   -0.4106   -1.0554   -1.0731 H   0  0  0  0  0  0  0  0  0  0  0  0
   -0.3294    0.5422   -1.7600 H   0  0  0  0  0  0  0  0  0  0  0  0
    2.0651   -2.1278   -0.7108 H   0  0  0  0  0  0  0  0  0  0  0  0
    1.8174   -1.4235   -2.3135 H   0  0  0  0  0  0  0  0  0  0  0  0
   -1.7397   -0.3192    0.7882 H   0  0  0  0  0  0  0  0  0  0  0  0
    4.1170   -1.3750   -2.6980 H   0  0  0  0  0  0  0  0  0  0  0  0
    4.2523   -2.3096   -1.1943 H   0  0  0  0  0  0  0  0  0  0  0  0
   -1.3882    3.8118    2.3835 H   0  0  0  0  0  0  0  0  0  0  0  0
    0.3514    3.9295    2.3393 H   0  0  0  0  0  0  0  0  0  0  0  0
    2.6361   -0.5705    2.0101 H   0  0  0  0  0  0  0  0  0  0  0  0
    4.3730   -0.3875    1.9843 H   0  0  0  0  0  0  0  0  0  0  0  0
    3.6092   -1.7119    1.0987 H   0  0  0  0  0  0  0  0  0  0  0  0
   -1.0497    2.6843   -1.4866 H   0  0  0  0  0  0  0  0  0  0  0  0
   -2.7752    2.6190   -1.3003 H   0  0  0  0  0  0  0  0  0  0  0  0
    5.8838   -0.8925    0.5251 H   0  0  0  0  0  0  0  0  0  0  0  0
   -1.5344    1.5189    3.1386 H   0  0  0  0  0  0  0  0  0  0  0  0
    0.2038    1.6592    3.3737 H   0  0  0  0  0  0  0  0  0  0  0  0
   -0.4621    0.2692    2.5199 H   0  0  0  0  0  0  0  0  0  0  0  0
    0.2678    4.5788   -0.0665 H   0  0  0  0  0  0  0  0  0  0  0  0
   -0.7132    5.6350    0.9134 H   0  0  0  0  0  0  0  0  0  0  0  0
   -2.7712    4.4689    0.2950 H   0  0  0  0  0  0  0  0  0  0  0  0
    6.2551   -2.2084   -1.5308 H   0  0  0  0  0  0  0  0  0  0  0  0
    6.6882   -0.7432   -2.4059 H   0  0  0  0  0  0  0  0  0  0  0  0
    6.6475    1.6024   -1.0723 H   0  0  0  0  0  0  0  0  0  0  0  0
    6.0923    1.5862    0.6077 H   0  0  0  0  0  0  0  0  0  0  0  0
    7.6079    0.8677    0.2174 H   0  0  0  0  0  0  0  0  0  0  0  0
   -3.9334    0.1110    0.7781 H   0  0  0  0  0  0  0  0  0  0  0  0
   -2.6999    4.8918   -1.9391 H   0  0  0  0  0  0  0  0  0  0  0  0
    8.7065   -0.4913   -0.9536 H   0  0  0  0  0  0  0  0  0  0  0  0
    8.6587   -2.0419   -1.7772 H   0  0  0  0  0  0  0  0  0  0  0  0
   -5.0938   -0.1884   -2.0450 H   0  0  0  0  0  0  0  0  0  0  0  0
   -6.6803    0.1112    0.5620 H   0  0  0  0  0  0  0  0  0  0  0  0
   -4.9896   -1.8645    1.6504 H   0  0  0  0  0  0  0  0  0  0  0  0
   -6.4270   -2.4805   -1.0277 H   0  0  0  0  0  0  0  0  0  0  0  0
   -5.2445    1.8324   -0.0507 H   0  0  0  0  0  0  0  0  0  0  0  0
   -7.3394   -0.6831   -2.0810 H   0  0  0  0  0  0  0  0  0  0  0  0
    9.4672   -2.3125    1.8297 H   0  0  0  0  0  0  0  0  0  0  0  0
   -7.3355   -1.8531    1.5945 H   0  0  0  0  0  0  0  0  0  0  0  0
  1 22  1  0  0  0  0
  1 33  1  0  0  0  0
  2 30  1  0  0  0  0
  2 77  1  0  0  0  0
  3 33  1  0  0  0  0
  3 38  1  0  0  0  0
  4 35  1  0  0  0  0
  4 84  1  0  0  0  0
  5 36  1  0  0  0  0
  5 85  1  0  0  0  0
  6 37  1  0  0  0  0
  6 86  1  0  0  0  0
  7 39  1  0  0  0  0
  7 87  1  0  0  0  0
  8 37  2  0  0  0  0
  9 40  1  0  0  0  0
 10 40  2  0  0  0  0
 11 12  1  0  0  0  0
 11 13  1  0  0  0  0
 11 21  1  0  0  0  0
 11 41  1  0  0  0  0
 12 14  1  0  0  0  0
 12 20  1  0  0  0  0
 12 42  1  0  0  0  0
 13 16  1  0  0  0  0
 13 18  1  0  0  0  0
 13 25  1  0  0  0  0
 14 15  1  0  0  0  0
 14 19  1  0  0  0  0
 14 43  1  0  0  0  0
 15 17  1  0  0  0  0
 15 24  1  0  0  0  0
 15 28  1  0  0  0  0
 16 23  1  0  0  0  0
 16 27  1  0  0  0  0
 16 44  1  0  0  0  0
 17 22  1  0  0  0  0
 17 26  1  0  0  0  0
 17 45  1  0  0  0  0
 18 19  1  0  0  0  0
 18 46  1  0  0  0  0
 18 47  1  0  0  0  0
 19 48  1  0  0  0  0
 19 49  1  0  0  0  0
 20 22  1  0  0  0  0
 20 50  1  0  0  0  0
 20 51  1  0  0  0  0
 21 23  1  0  0  0  0
 21 52  1  0  0  0  0
 21 53  1  0  0  0  0
 22 54  1  0  0  0  0
 23 55  1  0  0  0  0
 23 56  1  0  0  0  0
 24 29  1  0  0  0  0
 24 57  1  0  0  0  0
 24 58  1  0  0  0  0
 25 59  1  0  0  0  0
 25 60  1  0  0  0  0
 25 61  1  0  0  0  0
 26 30  1  0  0  0  0
 26 62  1  0  0  0  0
 26 63  1  0  0  0  0
 27 31  1  0  0  0  0
 27 32  1  0  0  0  0
 27 64  1  0  0  0  0
 28 65  1  0  0  0  0
 28 66  1  0  0  0  0
 28 67  1  0  0  0  0
 29 30  1  0  0  0  0
 29 68  1  0  0  0  0
 29 69  1  0  0  0  0
 30 70  1  0  0  0  0
 31 34  1  0  0  0  0
 31 71  1  0  0  0  0
 31 72  1  0  0  0  0
 32 73  1  0  0  0  0
 32 74  1  0  0  0  0
 32 75  1  0  0  0  0
 33 35  1  0  0  0  0
 33 76  1  0  0  0  0
 34 37  1  0  0  0  0
 34 78  1  0  0  0  0
 34 79  1  0  0  0  0
 35 36  1  0  0  0  0
 35 80  1  0  0  0  0
 36 39  1  0  0  0  0
 36 81  1  0  0  0  0
 38 39  1  0  0  0  0
 38 40  1  0  0  0  0
 38 82  1  0  0  0  0
 39 83  1  0  0  0  0
M  CHG  1   9  -1
M  END
> <PUBCHEM_COMPOUND_CID>
443097

> <PUBCHEM_CONFORMER_RMSD>
1.2

> <PUBCHEM_CONFORMER_DIVERSEORDER>
1
9
18
17
3
6
16
2
20
4
7
14
10
13
15
19
12
11
5
8

> <PUBCHEM_MMFF94_PARTIAL_CHARGES>
25
1 -0.56
10 -0.9
2 -0.68
22 0.28
3 -0.56
30 0.28
33 0.56
34 0.06
35 0.28
36 0.28
37 0.66
38 0.17
39 0.28
4 -0.68
40 0.91
5 -0.68
6 -0.65
7 -0.68
77 0.4
8 -0.57
84 0.4
85 0.4
86 0.5
87 0.4
9 -0.9

> <PUBCHEM_EFFECTIVE_ROTOR_COUNT>
10.4

> <PUBCHEM_PHARMACOPHORE_FEATURES>
22
1 1 acceptor
1 10 acceptor
1 2 acceptor
1 2 donor
1 3 acceptor
1 32 hydrophobe
1 4 acceptor
1 4 donor
1 5 acceptor
1 5 donor
1 6 acceptor
1 7 acceptor
1 7 donor
1 8 acceptor
1 9 acceptor
3 6 8 37 anion
3 9 10 40 anion
5 11 13 16 21 23 rings
6 11 12 13 14 18 19 rings
6 12 14 15 17 20 22 rings
6 15 17 24 26 29 30 rings
6 3 33 35 36 38 39 rings

> <PUBCHEM_HEAVY_ATOM_COUNT>
40

> <PUBCHEM_ATOM_DEF_STEREO_COUNT>
15

> <PUBCHEM_ATOM_UDEF_STEREO_COUNT>
0

> <PUBCHEM_BOND_DEF_STEREO_COUNT>
0

> <PUBCHEM_BOND_UDEF_STEREO_COUNT>
0

> <PUBCHEM_ISOTOPIC_ATOM_COUNT>
0

> <PUBCHEM_COMPONENT_COUNT>
1

> <PUBCHEM_CACTVS_TAUTO_COUNT>
1

> <PUBCHEM_CONFORMER_ID>
0006C2D900000001

> <PUBCHEM_MMFF94_ENERGY>
134.4553

> <PUBCHEM_FEATURE_SELFOVERLAP>
111.938

> <PUBCHEM_SHAPE_FINGERPRINT>
10864689 126 18411706474171648331
11135609 99 18411703184469611254
11297750 10 18334304162337611168
11456790 92 17605255322053443459
117089 54 18268142063980326995
12120059 9 18189356596455879590
12788726 201 18271528697137359185
13560911 43 18409167723455874376
13673619 4 17894909633495799952
13782708 43 18340769230589401614
13811026 1 18333452053794563854
14068700 675 18272084994128546708
14725015 67 18407762530083638538
15064986 266 18260824929929693468
15131766 46 14998286833313342944
15230672 131 18272377494397426499
15324884 4 17898043258831421968
15361156 5 18195525892745116215
16990366 60 18339079259748234426
17686467 74 18408044001350970264
18608769 82 18408041810305505246
19304152 47 8286212630417499491
19611394 137 18336544932452661794
19841028 212 18129387171969853666
20105231 36 18060412479591823027
20737093 207 17560253522108986706
21033650 10 17632296821947048317
21716022 299 18126265459945837093
22149856 69 16950830506083270842
23559900 14 18266746767166607053
249057 25 17988064695961524724
25025965 108 17823435931493261087
2747138 104 17967810566475456774
3178227 256 17894628133086986710
4144715 1 18197778792223546337
437815 12 18261111847098914293
439807 62 18411979161370802398
4461854 278 17095241419948687686
54583773 228 18340478973469941340
6009941 240 18409165550128654181
6371380 46 18413113845466531511
6376802 90 17976536444955741340

> <PUBCHEM_SHAPE_MULTIPOLES>
764.49
21.73
5.44
1.58
22.61
2.67
0.46
-26.86
-1.93
-6.97
1.1
0.09
0.26
1.91

> <PUBCHEM_SHAPE_SELFOVERLAP>
1611.567

> <PUBCHEM_SHAPE_VOLUME>
425.3

> <PUBCHEM_COORDINATE_TYPE>
2
5
10

$$$$

