439971
  -OEChem-07051212483D

 34 36  0     1  0  0  0  0  0999 V2000
    2.2451    1.5159   -0.0263 O   0  0  0  0  0  0  0  0  0  0  0  0
    3.8542   -0.9515    0.8765 N   0  0  0  0  0  0  0  0  0  0  0  0
    1.0285   -0.4848   -0.3003 N   0  0  0  0  0  0  0  0  0  0  0  0
    3.4201   -0.4969   -0.4443 C   0  0  2  0  0  0  0  0  0  0  0  0
    4.5648    0.3389   -1.0074 C   0  0  0  0  0  0  0  0  0  0  0  0
    5.6161    0.3411    0.0916 C   0  0  0  0  0  0  0  0  0  0  0  0
    5.3138   -0.9260    0.8639 C   0  0  0  0  0  0  0  0  0  0  0  0
    2.1815    0.3084   -0.2328 C   0  0  0  0  0  0  0  0  0  0  0  0
   -0.3008   -0.0868   -0.1532 C   0  0  0  0  0  0  0  0  0  0  0  0
   -1.3256   -1.0283   -0.2523 C   0  0  0  0  0  0  0  0  0  0  0  0
   -2.6686   -0.6440   -0.1069 C   0  0  0  0  0  0  0  0  0  0  0  0
   -2.9763    0.7147    0.1427 C   0  0  0  0  0  0  0  0  0  0  0  0
   -0.6034    1.2492    0.0926 C   0  0  0  0  0  0  0  0  0  0  0  0
   -1.9321    1.6489    0.2398 C   0  0  0  0  0  0  0  0  0  0  0  0
   -3.7129   -1.5780   -0.2037 C   0  0  0  0  0  0  0  0  0  0  0  0
   -4.3191    1.0993    0.2882 C   0  0  0  0  0  0  0  0  0  0  0  0
   -5.0414   -1.1781   -0.0567 C   0  0  0  0  0  0  0  0  0  0  0  0
   -5.3440    0.1580    0.1887 C   0  0  0  0  0  0  0  0  0  0  0  0
    3.2275   -1.3470   -1.1097 H   0  0  0  0  0  0  0  0  0  0  0  0
    4.3035    1.3570   -1.3115 H   0  0  0  0  0  0  0  0  0  0  0  0
    4.9786   -0.1657   -1.8899 H   0  0  0  0  0  0  0  0  0  0  0  0
    6.6343    0.3573   -0.3076 H   0  0  0  0  0  0  0  0  0  0  0  0
    5.4843    1.2213    0.7329 H   0  0  0  0  0  0  0  0  0  0  0  0
    5.7088   -1.8061    0.3433 H   0  0  0  0  0  0  0  0  0  0  0  0
    5.7263   -0.9006    1.8761 H   0  0  0  0  0  0  0  0  0  0  0  0
    3.5046   -1.8870    1.0758 H   0  0  0  0  0  0  0  0  0  0  0  0
    1.1631   -1.4790   -0.4720 H   0  0  0  0  0  0  0  0  0  0  0  0
   -1.0805   -2.0719   -0.4446 H   0  0  0  0  0  0  0  0  0  0  0  0
    0.1342    2.0345    0.1820 H   0  0  0  0  0  0  0  0  0  0  0  0
   -2.1469    2.6984    0.4313 H   0  0  0  0  0  0  0  0  0  0  0  0
   -3.5000   -2.6278   -0.3950 H   0  0  0  0  0  0  0  0  0  0  0  0
   -4.5789    2.1382    0.4807 H   0  0  0  0  0  0  0  0  0  0  0  0
   -5.8397   -1.9105   -0.1339 H   0  0  0  0  0  0  0  0  0  0  0  0
   -6.3785    0.4685    0.3031 H   0  0  0  0  0  0  0  0  0  0  0  0
  1  8  2  0  0  0  0
  2  4  1  0  0  0  0
  2  7  1  0  0  0  0
  2 26  1  0  0  0  0
  3  8  1  0  0  0  0
  3  9  1  0  0  0  0
  3 27  1  0  0  0  0
  4  5  1  0  0  0  0
  4  8  1  0  0  0  0
  4 19  1  0  0  0  0
  5  6  1  0  0  0  0
  5 20  1  0  0  0  0
  5 21  1  0  0  0  0
  6  7  1  0  0  0  0
  6 22  1  0  0  0  0
  6 23  1  0  0  0  0
  7 24  1  0  0  0  0
  7 25  1  0  0  0  0
  9 10  2  0  0  0  0
  9 13  1  0  0  0  0
 10 11  1  0  0  0  0
 10 28  1  0  0  0  0
 11 12  1  0  0  0  0
 11 15  2  0  0  0  0
 12 14  1  0  0  0  0
 12 16  2  0  0  0  0
 13 14  2  0  0  0  0
 13 29  1  0  0  0  0
 14 30  1  0  0  0  0
 15 17  1  0  0  0  0
 15 31  1  0  0  0  0
 16 18  1  0  0  0  0
 16 32  1  0  0  0  0
 17 18  2  0  0  0  0
 17 33  1  0  0  0  0
 18 34  1  0  0  0  0
M  END
> <PUBCHEM_COMPOUND_CID>
439971

> <PUBCHEM_CONFORMER_RMSD>
0.6

> <PUBCHEM_CONFORMER_DIVERSEORDER>
1
15
9
25
17
16
27
2
23
13
20
6
8
18
10
26
22
7
3
11
24
21
19
5
12
4
14

> <PUBCHEM_MMFF94_PARTIAL_CHARGES>
23
1 -0.57
10 -0.15
13 -0.15
14 -0.15
15 -0.15
16 -0.15
17 -0.15
18 -0.15
2 -0.9
26 0.36
27 0.37
28 0.15
29 0.15
3 -0.55
30 0.15
31 0.15
32 0.15
33 0.15
34 0.15
4 0.33
7 0.27
8 0.57
9 0.12

> <PUBCHEM_EFFECTIVE_ROTOR_COUNT>
4

> <PUBCHEM_PHARMACOPHORE_FEATURES>
7
1 1 acceptor
1 2 cation
1 2 donor
1 3 donor
5 2 4 5 6 7 rings
6 11 12 15 16 17 18 rings
6 9 10 11 12 13 14 rings

> <PUBCHEM_HEAVY_ATOM_COUNT>
18

> <PUBCHEM_ATOM_DEF_STEREO_COUNT>
0

> <PUBCHEM_ATOM_UDEF_STEREO_COUNT>
1

> <PUBCHEM_BOND_DEF_STEREO_COUNT>
0

> <PUBCHEM_BOND_UDEF_STEREO_COUNT>
0

> <PUBCHEM_ISOTOPIC_ATOM_COUNT>
0

> <PUBCHEM_COMPONENT_COUNT>
1

> <PUBCHEM_CACTVS_TAUTO_COUNT>
2

> <PUBCHEM_CONFORMER_ID>
0006B6A300000001

> <PUBCHEM_MMFF94_ENERGY>
47.2469

> <PUBCHEM_FEATURE_SELFOVERLAP>
35.547

> <PUBCHEM_SHAPE_FINGERPRINT>
10 15 17967828115721917210
10912923 1 18272647956998232128
10968037 39 18412260614540048948
11315181 36 18408601452706827728
12107183 9 17621887916848392104
12236239 1 18131350821287120850
13167823 11 18272089404859330274
13288520 33 18408884023569858407
13533116 47 17988648527771638738
13675066 3 17458345242830293182
13862211 1 18408608028934916463
14123238 8 18333731321068166462
14251731 8 18410293622829901973
15196674 1 18336546023643724565
17804303 29 18260829276425508257
17834072 33 18272087180356239380
17857418 61 18342744013375277458
17862501 102 18413672426124779978
1813 80 17489297637866962862
18522853 276 18334012804603403608
18785283 64 17242189954519681792
19489759 90 17676205788568050683
200 152 18131353007414879521
20374829 77 18409731746760599469
20645477 70 16153979266441631134
21033648 29 16081663278027437626
21065198 48 18271245019116400648
21267235 1 18337664235917719047
220451 1 18201712968505963354
22646028 1 18272652350565036102
2297311 6 18040704883844325700
23175994 123 16588021307900860609
23366157 5 18054792780091680469
23402539 116 18335707135031666207
23536379 177 17203894075950299077
23557571 272 17749937964179099684
23559900 14 18335708191298611609
26918003 58 18060136526950751483
300161 21 18272375269455874868
3004659 81 18343861143755421766
335352 9 18408604752328355589
34797466 226 17604138239054828812
3545911 37 18260826020513068422
42 15 18413389843241718142
4214541 1 18410292527581768317
474 4 17487607530066961076
5104073 3 18334853866763943745
5374978 207 18408326579674956800
542803 24 17703788119671074540
559249 180 18271814574207602051
573450 72 18341618156549827328
7495541 125 18260551091446500640

> <PUBCHEM_SHAPE_MULTIPOLES>
354.6
13.42
1.49
0.78
7.28
0.14
0.01
-2.15
1.13
-1.04
0.07
0.63
-0.06
-0.69

> <PUBCHEM_SHAPE_SELFOVERLAP>
772.609

> <PUBCHEM_SHAPE_VOLUME>
194.3

> <PUBCHEM_COORDINATE_TYPE>
2
5
10

$$$$

