7864
  -OEChem-07051213133D

  9  8  0     0  0  0  0  0  0999 V2000
    2.0266    0.1771    0.0072 Cl  0  0  0  0  0  0  0  0  0  0  0  0
   -0.5634    0.4620   -0.0096 O   0  0  0  0  0  0  0  0  0  0  0  0
    0.4167   -0.5660   -0.0067 C   0  0  0  0  0  0  0  0  0  0  0  0
   -1.8798   -0.0730    0.0091 C   0  0  0  0  0  0  0  0  0  0  0  0
    0.3217   -1.1879    0.8885 H   0  0  0  0  0  0  0  0  0  0  0  0
    0.3316   -1.1810   -0.9077 H   0  0  0  0  0  0  0  0  0  0  0  0
   -2.5899    0.7583    0.0023 H   0  0  0  0  0  0  0  0  0  0  0  0
   -2.0407   -0.6628    0.9168 H   0  0  0  0  0  0  0  0  0  0  0  0
   -2.0550   -0.6901   -0.8774 H   0  0  0  0  0  0  0  0  0  0  0  0
  1  3  1  0  0  0  0
  2  3  1  0  0  0  0
  2  4  1  0  0  0  0
  3  5  1  0  0  0  0
  3  6  1  0  0  0  0
  4  7  1  0  0  0  0
  4  8  1  0  0  0  0
  4  9  1  0  0  0  0
M  END
> <PUBCHEM_COMPOUND_CID>
7864

> <PUBCHEM_CONFORMER_RMSD>
0.4

> <PUBCHEM_CONFORMER_DIVERSEORDER>
1
2
3

> <PUBCHEM_MMFF94_PARTIAL_CHARGES>
4
1 -0.29
2 -0.56
3 0.57
4 0.28

> <PUBCHEM_EFFECTIVE_ROTOR_COUNT>
1

> <PUBCHEM_PHARMACOPHORE_FEATURES>
1
1 2 acceptor

> <PUBCHEM_HEAVY_ATOM_COUNT>
4

> <PUBCHEM_ATOM_DEF_STEREO_COUNT>
0

> <PUBCHEM_ATOM_UDEF_STEREO_COUNT>
0

> <PUBCHEM_BOND_DEF_STEREO_COUNT>
0

> <PUBCHEM_BOND_UDEF_STEREO_COUNT>
0

> <PUBCHEM_ISOTOPIC_ATOM_COUNT>
0

> <PUBCHEM_COMPONENT_COUNT>
1

> <PUBCHEM_CACTVS_TAUTO_COUNT>
1

> <PUBCHEM_CONFORMER_ID>
00001EB800000001

> <PUBCHEM_MMFF94_ENERGY>
5.9066

> <PUBCHEM_FEATURE_SELFOVERLAP>
5.074

> <PUBCHEM_SHAPE_FINGERPRINT>
139733 1 9079116656888574245
20096714 4 18409449163603309120
21015797 1 9366469622692781467
5460574 1 9295292741800560162

> <PUBCHEM_SHAPE_MULTIPOLES>
78.32
2.81
0.74
0.6
0.14
0.05
0
-0.19
-0.01
0.05
0
0.04
0.01
0

> <PUBCHEM_SHAPE_SELFOVERLAP>
119.204

> <PUBCHEM_SHAPE_VOLUME>
58.6

> <PUBCHEM_COORDINATE_TYPE>
2
5
10

$$$$

