56928102
  -OEChem-07051213152D

 81 85  0     1  0  0  0  0  0999 V2000
    2.5357   -3.5184    0.0000 O   0  0  0  0  0  0  0  0  0  0  0  0
   10.1642    0.9954    0.0000 C   0  0  1  0  0  0  0  0  0  0  0  0
   10.9085    1.6632    0.0000 C   0  0  2  0  0  0  0  0  0  0  0  0
    7.9288   -0.4661    0.0000 C   0  0  2  0  0  0  0  0  0  0  0  0
    8.8750   -0.1614    0.0000 C   0  0  1  0  0  0  0  0  0  0  0  0
    9.1857    0.7892    0.0000 C   0  0  2  0  0  0  0  0  0  0  0  0
   11.1147    0.6847    0.0000 C   0  0  0  0  0  0  0  0  0  0  0  0
    7.9288   -1.4661    0.0000 C   0  0  1  0  0  0  0  0  0  0  0  0
    9.4586   -0.9661    0.0000 C   0  0  0  0  0  0  0  0  0  0  0  0
    6.1968   -1.4661    0.0000 C   0  0  1  0  0  0  0  0  0  0  0  0
    7.0628    0.0339    0.0000 C   0  0  0  0  0  0  0  0  0  0  0  0
    8.8750   -1.7708    0.0000 C   0  0  0  0  0  0  0  0  0  0  0  0
   11.8870    1.8694    0.0000 C   0  0  1  0  0  0  0  0  0  0  0  0
    7.0628   -1.9661    0.0000 C   0  0  0  0  0  0  0  0  0  0  0  0
    5.2868   -1.9729    0.0000 C   0  0  2  0  0  0  0  0  0  0  0  0
    6.1968   -0.4661    0.0000 C   0  0  0  0  0  0  0  0  0  0  0  0
   10.2407    2.4075    0.0000 C   0  0  0  0  0  0  0  0  0  0  0  0
    7.9288    0.5339    0.0000 C   0  0  0  0  0  0  0  0  0  0  0  0
    5.2787   -3.0145    0.0000 C   0  0  1  0  0  0  0  0  0  0  0  0
    8.5179    1.5335    0.0000 C   0  0  0  0  0  0  0  0  0  0  0  0
    4.3599   -1.4089    0.0000 C   0  0  0  0  0  0  0  0  0  0  0  0
   12.1977    2.8200    0.0000 C   0  0  0  0  0  0  0  0  0  0  0  0
    7.0789   -3.0076    0.0000 C   0  0  0  0  0  0  0  0  0  0  0  0
    6.1808   -3.5354    0.0000 C   0  0  0  0  0  0  0  0  0  0  0  0
   12.5549    1.1251    0.0000 C   0  0  0  0  0  0  0  0  0  0  0  0
    4.3433   -3.5643    0.0000 C   0  0  0  0  0  0  0  0  0  0  0  0
    5.2945   -0.9730    0.0000 C   0  0  0  0  0  0  0  0  0  0  0  0
    3.4120   -1.9368    0.0000 C   0  0  0  0  0  0  0  0  0  0  0  0
    3.4037   -3.0218    0.0000 C   0  0  2  0  0  0  0  0  0  0  0  0
   13.1762    3.0262    0.0000 C   0  0  0  0  0  0  0  0  0  0  0  0
   11.5298    3.5643    0.0000 C   0  0  0  0  0  0  0  0  0  0  0  0
   10.1183    0.1466    0.0000 H   0  0  0  0  0  0  0  0  0  0  0  0
    9.7148   -0.0295    0.0000 H   0  0  0  0  0  0  0  0  0  0  0  0
    9.3783    1.3785    0.0000 H   0  0  0  0  0  0  0  0  0  0  0  0
   11.0274    0.0709    0.0000 H   0  0  0  0  0  0  0  0  0  0  0  0
   11.7344    0.7053    0.0000 H   0  0  0  0  0  0  0  0  0  0  0  0
    8.0188   -2.3113    0.0000 H   0  0  0  0  0  0  0  0  0  0  0  0
    9.9195   -1.3808    0.0000 H   0  0  0  0  0  0  0  0  0  0  0  0
    9.9195   -0.5514    0.0000 H   0  0  0  0  0  0  0  0  0  0  0  0
    6.9329   -1.0411    0.0000 H   0  0  0  0  0  0  0  0  0  0  0  0
    7.4613    0.5089    0.0000 H   0  0  0  0  0  0  0  0  0  0  0  0
    6.6643    0.5089    0.0000 H   0  0  0  0  0  0  0  0  0  0  0  0
    8.6240   -2.3377    0.0000 H   0  0  0  0  0  0  0  0  0  0  0  0
    9.4124   -2.0800    0.0000 H   0  0  0  0  0  0  0  0  0  0  0  0
   11.6944    1.2801    0.0000 H   0  0  0  0  0  0  0  0  0  0  0  0
    5.9847    0.1165    0.0000 H   0  0  0  0  0  0  0  0  0  0  0  0
    5.5862   -0.5738    0.0000 H   0  0  0  0  0  0  0  0  0  0  0  0
   10.7021    2.8216    0.0000 H   0  0  0  0  0  0  0  0  0  0  0  0
    9.8266    2.8690    0.0000 H   0  0  0  0  0  0  0  0  0  0  0  0
    9.7792    1.9935    0.0000 H   0  0  0  0  0  0  0  0  0  0  0  0
    8.5488    0.5339    0.0000 H   0  0  0  0  0  0  0  0  0  0  0  0
    7.9288    1.1539    0.0000 H   0  0  0  0  0  0  0  0  0  0  0  0
    7.3088    0.5339    0.0000 H   0  0  0  0  0  0  0  0  0  0  0  0
    5.2820   -3.8645    0.0000 H   0  0  0  0  0  0  0  0  0  0  0  0
    8.9793    1.9475    0.0000 H   0  0  0  0  0  0  0  0  0  0  0  0
    8.1038    1.9949    0.0000 H   0  0  0  0  0  0  0  0  0  0  0  0
    8.0564    1.1194    0.0000 H   0  0  0  0  0  0  0  0  0  0  0  0
    4.7681   -0.9422    0.0000 H   0  0  0  0  0  0  0  0  0  0  0  0
    3.9700   -0.9268    0.0000 H   0  0  0  0  0  0  0  0  0  0  0  0
   11.5910    2.6921    0.0000 H   0  0  0  0  0  0  0  0  0  0  0  0
    7.6193   -3.3114    0.0000 H   0  0  0  0  0  0  0  0  0  0  0  0
    5.7835   -4.0113    0.0000 H   0  0  0  0  0  0  0  0  0  0  0  0
    6.5818   -4.0082    0.0000 H   0  0  0  0  0  0  0  0  0  0  0  0
    3.9460   -4.0402    0.0000 H   0  0  0  0  0  0  0  0  0  0  0  0
    4.7443   -4.0372    0.0000 H   0  0  0  0  0  0  0  0  0  0  0  0
   12.0934    0.7111    0.0000 H   0  0  0  0  0  0  0  0  0  0  0  0
   12.9689    0.6637    0.0000 H   0  0  0  0  0  0  0  0  0  0  0  0
   13.0163    1.5392    0.0000 H   0  0  0  0  0  0  0  0  0  0  0  0
    5.9145   -0.9777    0.0000 H   0  0  0  0  0  0  0  0  0  0  0  0
    5.2993   -0.3530    0.0000 H   0  0  0  0  0  0  0  0  0  0  0  0
    4.6745   -0.9682    0.0000 H   0  0  0  0  0  0  0  0  0  0  0  0
    3.2075   -1.3515    0.0000 H   0  0  0  0  0  0  0  0  0  0  0  0
    2.8004   -2.0382    0.0000 H   0  0  0  0  0  0  0  0  0  0  0  0
    3.4025   -3.6418    0.0000 H   0  0  0  0  0  0  0  0  0  0  0  0
   11.9913    3.9783    0.0000 H   0  0  0  0  0  0  0  0  0  0  0  0
   11.1158    4.0257    0.0000 H   0  0  0  0  0  0  0  0  0  0  0  0
   11.0684    3.1502    0.0000 H   0  0  0  0  0  0  0  0  0  0  0  0
   13.3040    2.4195    0.0000 H   0  0  0  0  0  0  0  0  0  0  0  0
   13.7829    3.1540    0.0000 H   0  0  0  0  0  0  0  0  0  0  0  0
   13.0483    3.6328    0.0000 H   0  0  0  0  0  0  0  0  0  0  0  0
    2.0000   -3.2064    0.0000 H   0  0  0  0  0  0  0  0  0  0  0  0
 29  1  1  1  0  0  0
  1 81  1  0  0  0  0
  2  3  1  0  0  0  0
  2  6  1  0  0  0  0
  2  7  1  0  0  0  0
  2 32  1  1  0  0  0
  3  7  1  0  0  0  0
  3 13  1  0  0  0  0
  3 17  1  6  0  0  0
  4  5  1  0  0  0  0
  4  8  1  0  0  0  0
  4 11  1  0  0  0  0
  4 18  1  1  0  0  0
  5  6  1  0  0  0  0
  5  9  1  0  0  0  0
  5 33  1  6  0  0  0
  6 20  1  6  0  0  0
  6 34  1  0  0  0  0
  7 35  1  0  0  0  0
  7 36  1  0  0  0  0
  8 12  1  0  0  0  0
  8 14  1  0  0  0  0
  8 37  1  6  0  0  0
  9 12  1  0  0  0  0
  9 38  1  0  0  0  0
  9 39  1  0  0  0  0
 10 14  1  0  0  0  0
 10 15  1  0  0  0  0
 10 16  1  0  0  0  0
 10 40  1  6  0  0  0
 11 16  1  0  0  0  0
 11 41  1  0  0  0  0
 11 42  1  0  0  0  0
 12 43  1  0  0  0  0
 12 44  1  0  0  0  0
 13 22  1  0  0  0  0
 13 25  1  1  0  0  0
 13 45  1  0  0  0  0
 14 23  2  0  0  0  0
 15 19  1  0  0  0  0
 15 21  1  0  0  0  0
 15 27  1  1  0  0  0
 16 46  1  0  0  0  0
 16 47  1  0  0  0  0
 17 48  1  0  0  0  0
 17 49  1  0  0  0  0
 17 50  1  0  0  0  0
 18 51  1  0  0  0  0
 18 52  1  0  0  0  0
 18 53  1  0  0  0  0
 19 24  1  0  0  0  0
 19 26  1  0  0  0  0
 19 54  1  6  0  0  0
 20 55  1  0  0  0  0
 20 56  1  0  0  0  0
 20 57  1  0  0  0  0
 21 28  1  0  0  0  0
 21 58  1  0  0  0  0
 21 59  1  0  0  0  0
 22 30  1  0  0  0  0
 22 31  1  0  0  0  0
 22 60  1  0  0  0  0
 23 24  1  0  0  0  0
 23 61  1  0  0  0  0
 24 62  1  0  0  0  0
 24 63  1  0  0  0  0
 25 66  1  0  0  0  0
 25 67  1  0  0  0  0
 25 68  1  0  0  0  0
 26 29  1  0  0  0  0
 26 64  1  0  0  0  0
 26 65  1  0  0  0  0
 27 69  1  0  0  0  0
 27 70  1  0  0  0  0
 27 71  1  0  0  0  0
 28 29  1  0  0  0  0
 28 72  1  0  0  0  0
 28 73  1  0  0  0  0
 29 74  1  0  0  0  0
 30 78  1  0  0  0  0
 30 79  1  0  0  0  0
 30 80  1  0  0  0  0
 31 75  1  0  0  0  0
 31 76  1  0  0  0  0
 31 77  1  0  0  0  0
M  END
> <PUBCHEM_COMPOUND_CID>
56928102

> <PUBCHEM_COMPOUND_CANONICALIZED>
1

> <PUBCHEM_CACTVS_COMPLEXITY>
737

> <PUBCHEM_CACTVS_HBOND_ACCEPTOR>
1

> <PUBCHEM_CACTVS_HBOND_DONOR>
1

> <PUBCHEM_CACTVS_ROTATABLE_BOND>
4

> <PUBCHEM_CACTVS_SUBSKEYS>
AAADcfB4IAAAAAAAAAAAAAAAGAAAAYAAAAAwYIAAAAAAAGCAAAAAGgAACAAADxSggAICAAAAAgCAAiBCAAAAAAAgAAAACAAAAAgAEAIAAQAAQAAEgAAIAAOAwPAPgAAAAAAAAADAAAYAACAAAQAACAAAAA==

> <PUBCHEM_IUPAC_OPENEYE_NAME>
(3S,5S,9R,10S,13R,14R,17R)-17-[(1S)-1-[(1R,2R)-2-[(1R)-1,2-dimethylpropyl]-2-methyl-cyclopropyl]ethyl]-10,13-dimethyl-2,3,4,5,6,9,11,12,14,15,16,17-dodecahydro-1H-cyclopenta[a]phenanthren-3-ol

> <PUBCHEM_IUPAC_CAS_NAME>
(3S,5S,9R,10S,13R,14R,17R)-10,13-dimethyl-17-[(1S)-1-[(1R,2R)-2-methyl-2-[(2R)-3-methylbutan-2-yl]cyclopropyl]ethyl]-2,3,4,5,6,9,11,12,14,15,16,17-dodecahydro-1H-cyclopenta[a]phenanthren-3-ol

> <PUBCHEM_IUPAC_NAME>
(3S,5S,9R,10S,13R,14R,17R)-10,13-dimethyl-17-[(1S)-1-[(1R,2R)-2-methyl-2-[(2R)-3-methylbutan-2-yl]cyclopropyl]ethyl]-2,3,4,5,6,9,11,12,14,15,16,17-dodecahydro-1H-cyclopenta[a]phenanthren-3-ol

> <PUBCHEM_IUPAC_SYSTEMATIC_NAME>
(3S,5S,9R,10S,13R,14R,17R)-10,13-dimethyl-17-[(1S)-1-[(1R,2R)-2-methyl-2-[(2R)-3-methylbutan-2-yl]cyclopropyl]ethyl]-2,3,4,5,6,9,11,12,14,15,16,17-dodecahydro-1H-cyclopenta[a]phenanthren-3-ol

> <PUBCHEM_IUPAC_TRADITIONAL_NAME>
(3S,5S,9R,10S,13R,14R,17R)-17-[(1S)-1-[(1R,2R)-2-[(1R)-1,2-dimethylpropyl]-2-methyl-cyclopropyl]ethyl]-10,13-dimethyl-2,3,4,5,6,9,11,12,14,15,16,17-dodecahydro-1H-cyclopenta[a]phenanthren-3-ol

> <PUBCHEM_IUPAC_INCHI>
InChI=1S/C30H50O/c1-18(2)20(4)30(7)17-27(30)19(3)24-10-11-25-23-9-8-21-16-22(31)12-14-28(21,5)26(23)13-15-29(24,25)6/h9,18-22,24-27,31H,8,10-17H2,1-7H3/t19-,20+,21-,22-,24+,25-,26-,27+,28-,29+,30+/m0/s1

> <PUBCHEM_IUPAC_INCHIKEY>
BCSYINLZVJHZSJ-QZLDXEKESA-N

> <PUBCHEM_XLOGP3_AA>
8.7

> <PUBCHEM_EXACT_MASS>
426.386166

> <PUBCHEM_MOLECULAR_FORMULA>
C30H50O

> <PUBCHEM_MOLECULAR_WEIGHT>
426.7174

> <PUBCHEM_OPENEYE_CAN_SMILES>
CC(C)C(C)C1(CC1C(C)C2CCC3C2(CCC4C3=CCC5C4(CCC(C5)O)C)C)C

> <PUBCHEM_OPENEYE_ISO_SMILES>
C[C@@H]([C@H]1CC[C@@H]2[C@@]1(CC[C@H]3C2=CC[C@@H]4[C@@]3(CC[C@@H](C4)O)C)C)[C@H]5C[C@]5(C)[C@H](C)C(C)C

> <PUBCHEM_CACTVS_TPSA>
20.2

> <PUBCHEM_MONOISOTOPIC_WEIGHT>
426.386166

> <PUBCHEM_TOTAL_CHARGE>
0

> <PUBCHEM_HEAVY_ATOM_COUNT>
31

> <PUBCHEM_ATOM_DEF_STEREO_COUNT>
11

> <PUBCHEM_ATOM_UDEF_STEREO_COUNT>
0

> <PUBCHEM_BOND_DEF_STEREO_COUNT>
0

> <PUBCHEM_BOND_UDEF_STEREO_COUNT>
0

> <PUBCHEM_ISOTOPIC_ATOM_COUNT>
0

> <PUBCHEM_COMPONENT_COUNT>
1

> <PUBCHEM_CACTVS_TAUTO_COUNT>
1

> <PUBCHEM_COORDINATE_TYPE>
1
5
255

> <PUBCHEM_BONDANNOTATIONS>
29  1  5
10  40  6
13  25  5
15  27  5
19  54  6
2  32  5
3  17  6
4  18  5
5  33  6
6  20  6
8  37  6

$$$$

