441743
  -OEChem-07051212563D

 86 92  0     1  0  0  0  0  0999 V2000
   -1.9825    1.5669    2.3296 O   0  0  0  0  0  0  0  0  0  0  0  0
   -2.0931    2.9103    0.0662 O   0  0  0  0  0  0  0  0  0  0  0  0
    2.5224   -0.6052    0.5552 O   0  0  0  0  0  0  0  0  0  0  0  0
   -2.2344   -3.4339    0.1529 O   0  0  0  0  0  0  0  0  0  0  0  0
   -4.7509    2.3378    1.4388 O   0  0  0  0  0  0  0  0  0  0  0  0
   -5.9492    1.0771   -1.1476 O   0  0  0  0  0  0  0  0  0  0  0  0
    3.6644   -2.1536   -0.7085 O   0  0  0  0  0  0  0  0  0  0  0  0
    4.9343    3.7977   -0.7627 O   0  0  0  0  0  0  0  0  0  0  0  0
   -0.2834   -1.3491   -1.7578 N   0  0  2  0  0  0  0  0  0  0  0  0
    4.0410    1.6234   -0.5899 N   0  0  0  0  0  0  0  0  0  0  0  0
   -1.2363   -1.1817    0.5433 C   0  0  1  0  0  0  0  0  0  0  0  0
   -2.4816   -0.6103    1.3460 C   0  0  1  0  0  0  0  0  0  0  0  0
   -1.3151   -0.6939   -0.9257 C   0  0  1  0  0  0  0  0  0  0  0  0
    0.1155   -0.4835    0.9184 C   0  0  2  0  0  0  0  0  0  0  0  0
   -1.1225    0.8392   -0.7062 C   0  0  1  0  0  0  0  0  0  0  0  0
   -2.7277    0.9238    1.2992 C   0  0  2  0  0  0  0  0  0  0  0  0
   -2.3921    1.5092   -0.1019 C   0  0  1  0  0  0  0  0  0  0  0  0
    0.0408    0.9343    0.3039 C   0  0  0  0  0  0  0  0  0  0  0  0
    1.2814   -1.2366    0.2254 C   0  0  1  0  0  0  0  0  0  0  0  0
   -1.1668   -2.7334    0.7862 C   0  0  2  0  0  0  0  0  0  0  0  0
   -3.8629   -1.1903    0.9357 C   0  0  0  0  0  0  0  0  0  0  0  0
   -4.7941    0.0077    0.6921 C   0  0  1  0  0  0  0  0  0  0  0  0
   -4.2177    1.0447    1.6428 C   0  0  2  0  0  0  0  0  0  0  0  0
   -3.5907    1.4639   -1.0875 C   0  0  0  0  0  0  0  0  0  0  0  0
    1.1059   -1.1608   -1.3157 C   0  0  0  0  0  0  0  0  0  0  0  0
   -4.7107    0.4589   -0.7793 C   0  0  2  0  0  0  0  0  0  0  0  0
    1.3571   -2.6767    0.7339 C   0  0  0  0  0  0  0  0  0  0  0  0
    0.1150   -3.4629    0.3878 C   0  0  0  0  0  0  0  0  0  0  0  0
   -0.4347   -1.0456   -3.1771 C   0  0  0  0  0  0  0  0  0  0  0  0
    0.4449   -1.9461   -4.0279 C   0  0  0  0  0  0  0  0  0  0  0  0
   -2.5847   -4.6047    0.8750 C   0  0  0  0  0  0  0  0  0  0  0  0
   -6.0303    2.4850    2.0467 C   0  0  0  0  0  0  0  0  0  0  0  0
    3.6325   -1.1720    0.0174 C   0  0  0  0  0  0  0  0  0  0  0  0
   -6.1658    0.9934   -2.5456 C   0  0  0  0  0  0  0  0  0  0  0  0
    4.8477   -0.4280    0.4346 C   0  0  0  0  0  0  0  0  0  0  0  0
    5.0156    0.9219    0.1255 C   0  0  0  0  0  0  0  0  0  0  0  0
    5.8333   -1.1072    1.1510 C   0  0  0  0  0  0  0  0  0  0  0  0
    6.1691    1.5924    0.5329 C   0  0  0  0  0  0  0  0  0  0  0  0
    6.9867   -0.4366    1.5582 C   0  0  0  0  0  0  0  0  0  0  0  0
    7.1547    0.9131    1.2491 C   0  0  0  0  0  0  0  0  0  0  0  0
    4.0556    2.9686   -0.9761 C   0  0  0  0  0  0  0  0  0  0  0  0
    2.8093    3.3430   -1.7381 C   0  0  0  0  0  0  0  0  0  0  0  0
   -2.3131   -0.8894    2.3972 H   0  0  0  0  0  0  0  0  0  0  0  0
   -2.2913   -0.9266   -1.3572 H   0  0  0  0  0  0  0  0  0  0  0  0
    0.2771   -0.4266    2.0009 H   0  0  0  0  0  0  0  0  0  0  0  0
   -0.8485    1.3603   -1.6310 H   0  0  0  0  0  0  0  0  0  0  0  0
   -0.0877    1.7022    1.0684 H   0  0  0  0  0  0  0  0  0  0  0  0
    0.9625    1.2330   -0.2037 H   0  0  0  0  0  0  0  0  0  0  0  0
   -1.2546   -2.8531    1.8768 H   0  0  0  0  0  0  0  0  0  0  0  0
   -3.8472   -1.8375    0.0591 H   0  0  0  0  0  0  0  0  0  0  0  0
   -4.2510   -1.7913    1.7681 H   0  0  0  0  0  0  0  0  0  0  0  0
   -5.8287   -0.2508    0.9423 H   0  0  0  0  0  0  0  0  0  0  0  0
   -4.3742    0.7520    2.6914 H   0  0  0  0  0  0  0  0  0  0  0  0
   -4.0322    2.4701   -1.1487 H   0  0  0  0  0  0  0  0  0  0  0  0
   -3.2258    1.2876   -2.1085 H   0  0  0  0  0  0  0  0  0  0  0  0
    1.7013   -1.9495   -1.7824 H   0  0  0  0  0  0  0  0  0  0  0  0
    1.5085   -0.2156   -1.7023 H   0  0  0  0  0  0  0  0  0  0  0  0
   -4.5813   -0.4337   -1.4045 H   0  0  0  0  0  0  0  0  0  0  0  0
    1.4802   -2.6555    1.8261 H   0  0  0  0  0  0  0  0  0  0  0  0
    2.2037   -3.2668    0.3829 H   0  0  0  0  0  0  0  0  0  0  0  0
    0.1014   -3.7198   -0.6785 H   0  0  0  0  0  0  0  0  0  0  0  0
    0.1721   -4.4306    0.9011 H   0  0  0  0  0  0  0  0  0  0  0  0
   -2.2188    1.1634    3.1818 H   0  0  0  0  0  0  0  0  0  0  0  0
   -1.8398    3.2685   -0.8019 H   0  0  0  0  0  0  0  0  0  0  0  0
   -1.4741   -1.2230   -3.4796 H   0  0  0  0  0  0  0  0  0  0  0  0
   -0.2099    0.0040   -3.3991 H   0  0  0  0  0  0  0  0  0  0  0  0
    0.1675   -1.8399   -5.0825 H   0  0  0  0  0  0  0  0  0  0  0  0
    0.3201   -3.0013   -3.7613 H   0  0  0  0  0  0  0  0  0  0  0  0
    1.5051   -1.6853   -3.9528 H   0  0  0  0  0  0  0  0  0  0  0  0
   -3.4613   -5.0450    0.3906 H   0  0  0  0  0  0  0  0  0  0  0  0
   -2.8585   -4.3657    1.9076 H   0  0  0  0  0  0  0  0  0  0  0  0
   -1.7866   -5.3506    0.8530 H   0  0  0  0  0  0  0  0  0  0  0  0
   -6.3785    3.5045    1.8593 H   0  0  0  0  0  0  0  0  0  0  0  0
   -5.9620    2.3381    3.1290 H   0  0  0  0  0  0  0  0  0  0  0  0
   -6.7558    1.7904    1.6147 H   0  0  0  0  0  0  0  0  0  0  0  0
   -7.1220    1.4751   -2.7693 H   0  0  0  0  0  0  0  0  0  0  0  0
   -6.2301   -0.0506   -2.8684 H   0  0  0  0  0  0  0  0  0  0  0  0
   -5.3860    1.5156   -3.1070 H   0  0  0  0  0  0  0  0  0  0  0  0
    5.7138   -2.1586    1.3996 H   0  0  0  0  0  0  0  0  0  0  0  0
    6.3776    2.6340    0.3362 H   0  0  0  0  0  0  0  0  0  0  0  0
    7.7538   -0.9653    2.1163 H   0  0  0  0  0  0  0  0  0  0  0  0
    3.2217    1.0868   -0.8604 H   0  0  0  0  0  0  0  0  0  0  0  0
    8.0533    1.4339    1.5670 H   0  0  0  0  0  0  0  0  0  0  0  0
    2.9861    4.2636   -2.3013 H   0  0  0  0  0  0  0  0  0  0  0  0
    1.9895    3.5038   -1.0328 H   0  0  0  0  0  0  0  0  0  0  0  0
    2.5335    2.5533   -2.4430 H   0  0  0  0  0  0  0  0  0  0  0  0
  1 16  1  0  0  0  0
  1 63  1  0  0  0  0
  2 17  1  0  0  0  0
  2 64  1  0  0  0  0
  3 19  1  0  0  0  0
  3 33  1  0  0  0  0
  4 20  1  0  0  0  0
  4 31  1  0  0  0  0
  5 23  1  0  0  0  0
  5 32  1  0  0  0  0
  6 26  1  0  0  0  0
  6 34  1  0  0  0  0
  7 33  2  0  0  0  0
  8 41  2  0  0  0  0
  9 13  1  0  0  0  0
  9 25  1  0  0  0  0
  9 29  1  0  0  0  0
 10 36  1  0  0  0  0
 10 41  1  0  0  0  0
 10 82  1  0  0  0  0
 11 12  1  0  0  0  0
 11 13  1  0  0  0  0
 11 14  1  0  0  0  0
 11 20  1  0  0  0  0
 12 16  1  0  0  0  0
 12 21  1  0  0  0  0
 12 43  1  0  0  0  0
 13 15  1  0  0  0  0
 13 44  1  0  0  0  0
 14 18  1  0  0  0  0
 14 19  1  0  0  0  0
 14 45  1  0  0  0  0
 15 17  1  0  0  0  0
 15 18  1  0  0  0  0
 15 46  1  0  0  0  0
 16 17  1  0  0  0  0
 16 23  1  0  0  0  0
 17 24  1  0  0  0  0
 18 47  1  0  0  0  0
 18 48  1  0  0  0  0
 19 25  1  0  0  0  0
 19 27  1  0  0  0  0
 20 28  1  0  0  0  0
 20 49  1  0  0  0  0
 21 22  1  0  0  0  0
 21 50  1  0  0  0  0
 21 51  1  0  0  0  0
 22 23  1  0  0  0  0
 22 26  1  0  0  0  0
 22 52  1  0  0  0  0
 23 53  1  0  0  0  0
 24 26  1  0  0  0  0
 24 54  1  0  0  0  0
 24 55  1  0  0  0  0
 25 56  1  0  0  0  0
 25 57  1  0  0  0  0
 26 58  1  0  0  0  0
 27 28  1  0  0  0  0
 27 59  1  0  0  0  0
 27 60  1  0  0  0  0
 28 61  1  0  0  0  0
 28 62  1  0  0  0  0
 29 30  1  0  0  0  0
 29 65  1  0  0  0  0
 29 66  1  0  0  0  0
 30 67  1  0  0  0  0
 30 68  1  0  0  0  0
 30 69  1  0  0  0  0
 31 70  1  0  0  0  0
 31 71  1  0  0  0  0
 31 72  1  0  0  0  0
 32 73  1  0  0  0  0
 32 74  1  0  0  0  0
 32 75  1  0  0  0  0
 33 35  1  0  0  0  0
 34 76  1  0  0  0  0
 34 77  1  0  0  0  0
 34 78  1  0  0  0  0
 35 36  1  0  0  0  0
 35 37  2  0  0  0  0
 36 38  2  0  0  0  0
 37 39  1  0  0  0  0
 37 79  1  0  0  0  0
 38 40  1  0  0  0  0
 38 80  1  0  0  0  0
 39 40  2  0  0  0  0
 39 81  1  0  0  0  0
 40 83  1  0  0  0  0
 41 42  1  0  0  0  0
 42 84  1  0  0  0  0
 42 85  1  0  0  0  0
 42 86  1  0  0  0  0
M  END
> <PUBCHEM_COMPOUND_CID>
441743

> <PUBCHEM_CONFORMER_RMSD>
1.2

> <PUBCHEM_CONFORMER_DIVERSEORDER>
1
9
8
4
11
3
10
7
6
5
2

> <PUBCHEM_MMFF94_PARTIAL_CHARGES>
38
1 -0.68
10 -0.55
13 0.27
16 0.28
17 0.28
19 0.28
2 -0.68
20 0.28
23 0.28
25 0.27
26 0.28
29 0.27
3 -0.43
31 0.28
32 0.28
33 0.63
34 0.28
35 0.09
36 0.12
37 -0.15
38 -0.15
39 -0.15
4 -0.56
40 -0.15
41 0.57
42 0.06
5 -0.56
6 -0.56
63 0.4
64 0.4
7 -0.57
79 0.15
8 -0.57
80 0.15
81 0.15
82 0.37
83 0.15
9 -0.81

> <PUBCHEM_EFFECTIVE_ROTOR_COUNT>
11

> <PUBCHEM_PHARMACOPHORE_FEATURES>
16
1 1 acceptor
1 1 donor
1 10 donor
1 2 acceptor
1 2 donor
1 4 acceptor
1 5 acceptor
1 6 acceptor
1 7 acceptor
1 8 acceptor
1 9 cation
6 11 14 19 20 27 28 rings
6 35 36 37 38 39 40 rings
8 11 12 13 14 15 16 17 18 rings
8 12 16 17 21 22 23 24 26 rings
8 9 11 13 14 15 18 19 25 rings

> <PUBCHEM_HEAVY_ATOM_COUNT>
42

> <PUBCHEM_ATOM_DEF_STEREO_COUNT>
11

> <PUBCHEM_ATOM_UDEF_STEREO_COUNT>
1

> <PUBCHEM_BOND_DEF_STEREO_COUNT>
0

> <PUBCHEM_BOND_UDEF_STEREO_COUNT>
0

> <PUBCHEM_ISOTOPIC_ATOM_COUNT>
0

> <PUBCHEM_COMPONENT_COUNT>
1

> <PUBCHEM_CACTVS_TAUTO_COUNT>
3

> <PUBCHEM_CONFORMER_ID>
0006BD8F00000001

> <PUBCHEM_MMFF94_ENERGY>
211.1865

> <PUBCHEM_FEATURE_SELFOVERLAP>
82.729

> <PUBCHEM_SHAPE_FINGERPRINT>
10675989 125 16401710467119123149
10906281 52 17968642900629155929
11135609 187 18268157620957846057
12128747 34 15912221982130300536
12422481 6 16917067745945492630
12633257 1 18202003197232418390
13583140 156 17131841988150076834
13782708 43 12175608552050945939
14068700 675 18047478816375913767
14705955 166 16558482992677861380
14790565 3 18339069475944232641
15001296 14 18340484440578745560
15200665 1 18129948862437216490
15274700 34 17845079685311224163
15513586 35 18048321046625048512
17980427 23 18334009523422794165
19319366 153 18261403273240991378
21033648 29 17417245571604782053
21756936 100 18261120660176796042
21859007 373 17417265345391776396
22121540 332 16556249914673462463
23227448 37 18341047432842912550
23559900 14 18263902463339712430
392239 28 18201997741764324105
44880168 125 13398641545580853312
469060 322 16702032915665365766
6371009 1 18411989078508603584

> <PUBCHEM_SHAPE_MULTIPOLES>
807.42
14.75
4.17
2.44
13.07
1.32
2.3
-9.97
-4.84
-0.1
0.03
-1.76
0.14
-1.21

> <PUBCHEM_SHAPE_SELFOVERLAP>
1777.536

> <PUBCHEM_SHAPE_VOLUME>
428.1

> <PUBCHEM_COORDINATE_TYPE>
2
5
10

$$$$

