150891
  -OEChem-07051212503D

 56 59  0     1  0  0  0  0  0999 V2000
    5.3344    0.1747    1.6639 O   0  0  0  0  0  0  0  0  0  0  0  0
   -5.4732   -0.4483   -0.4178 O   0  0  0  0  0  0  0  0  0  0  0  0
   -6.0014    2.1087    0.4675 O   0  0  0  0  0  0  0  0  0  0  0  0
   -2.0333    0.0083   -0.0778 C   0  0  1  0  0  0  0  0  0  0  0  0
   -1.0935   -1.1381    0.3453 C   0  0  2  0  0  0  0  0  0  0  0  0
    0.3162   -1.0139   -0.2413 C   0  0  1  0  0  0  0  0  0  0  0  0
    0.9418    0.3441    0.1906 C   0  0  1  0  0  0  0  0  0  0  0  0
    2.3865    0.5374   -0.4237 C   0  0  2  0  0  0  0  0  0  0  0  0
   -3.3299   -0.4604    0.6189 C   0  0  2  0  0  0  0  0  0  0  0  0
   -1.4442    1.3143    0.4721 C   0  0  0  0  0  0  0  0  0  0  0  0
   -0.0136    1.5469   -0.0433 C   0  0  0  0  0  0  0  0  0  0  0  0
   -1.9056   -2.3936    0.0470 C   0  0  0  0  0  0  0  0  0  0  0  0
   -3.3473   -1.9885    0.4034 C   0  0  0  0  0  0  0  0  0  0  0  0
    1.2041   -2.1764    0.2268 C   0  0  0  0  0  0  0  0  0  0  0  0
    3.2115   -0.7503   -0.2964 C   0  0  0  0  0  0  0  0  0  0  0  0
   -2.2332    0.1205   -1.6114 C   0  0  0  0  0  0  0  0  0  0  0  0
    3.0995    1.6777    0.3610 C   0  0  0  0  0  0  0  0  0  0  0  0
    2.6639   -1.9403    0.0077 C   0  0  0  0  0  0  0  0  0  0  0  0
    2.3138    0.9130   -1.9233 C   0  0  0  0  0  0  0  0  0  0  0  0
    4.7062   -0.6450   -0.5236 C   0  0  0  0  0  0  0  0  0  0  0  0
   -4.5753    0.2014    0.1159 C   0  0  0  0  0  0  0  0  0  0  0  0
    4.5956    1.8111    0.0622 C   0  0  0  0  0  0  0  0  0  0  0  0
    5.3367    0.4951    0.2739 C   0  0  1  0  0  0  0  0  0  0  0  0
   -4.6597    1.7014    0.3025 C   0  0  0  0  0  0  0  0  0  0  0  0
   -0.9810   -1.1014    1.4423 H   0  0  0  0  0  0  0  0  0  0  0  0
    0.2602   -1.0607   -1.3347 H   0  0  0  0  0  0  0  0  0  0  0  0
    1.0658    0.2816    1.2842 H   0  0  0  0  0  0  0  0  0  0  0  0
   -3.2768   -0.2721    1.7002 H   0  0  0  0  0  0  0  0  0  0  0  0
   -1.4249    1.2916    1.5692 H   0  0  0  0  0  0  0  0  0  0  0  0
   -2.0471    2.1810    0.1869 H   0  0  0  0  0  0  0  0  0  0  0  0
   -0.0690    1.7919   -1.1079 H   0  0  0  0  0  0  0  0  0  0  0  0
    0.3848    2.4375    0.4557 H   0  0  0  0  0  0  0  0  0  0  0  0
   -1.5743   -3.2509    0.6416 H   0  0  0  0  0  0  0  0  0  0  0  0
   -1.8349   -2.6751   -1.0096 H   0  0  0  0  0  0  0  0  0  0  0  0
   -4.0221   -2.3247   -0.3906 H   0  0  0  0  0  0  0  0  0  0  0  0
   -3.6670   -2.4891    1.3249 H   0  0  0  0  0  0  0  0  0  0  0  0
    0.9112   -3.0879   -0.3081 H   0  0  0  0  0  0  0  0  0  0  0  0
    1.0519   -2.3738    1.2952 H   0  0  0  0  0  0  0  0  0  0  0  0
   -2.8321    0.9982   -1.8734 H   0  0  0  0  0  0  0  0  0  0  0  0
   -1.2889    0.2210   -2.1532 H   0  0  0  0  0  0  0  0  0  0  0  0
   -2.7440   -0.7533   -2.0291 H   0  0  0  0  0  0  0  0  0  0  0  0
    2.9806    1.5119    1.4404 H   0  0  0  0  0  0  0  0  0  0  0  0
    2.6239    2.6424    0.1465 H   0  0  0  0  0  0  0  0  0  0  0  0
    3.3021   -2.8153    0.1047 H   0  0  0  0  0  0  0  0  0  0  0  0
    3.3028    0.9517   -2.3919 H   0  0  0  0  0  0  0  0  0  0  0  0
    1.7226    0.1904   -2.4951 H   0  0  0  0  0  0  0  0  0  0  0  0
    1.8700    1.9028   -2.0713 H   0  0  0  0  0  0  0  0  0  0  0  0
    5.2020   -1.5866   -0.2556 H   0  0  0  0  0  0  0  0  0  0  0  0
    4.8903   -0.4875   -1.5929 H   0  0  0  0  0  0  0  0  0  0  0  0
    4.7407    2.1586   -0.9670 H   0  0  0  0  0  0  0  0  0  0  0  0
    5.0123    2.5800    0.7240 H   0  0  0  0  0  0  0  0  0  0  0  0
    6.3837    0.6193   -0.0252 H   0  0  0  0  0  0  0  0  0  0  0  0
   -4.2507    2.2081   -0.5732 H   0  0  0  0  0  0  0  0  0  0  0  0
   -4.1135    2.0053    1.1991 H   0  0  0  0  0  0  0  0  0  0  0  0
    5.8291   -0.6550    1.7746 H   0  0  0  0  0  0  0  0  0  0  0  0
   -6.3261    1.7198    1.2976 H   0  0  0  0  0  0  0  0  0  0  0  0
  1 23  1  0  0  0  0
  1 55  1  0  0  0  0
  2 21  2  0  0  0  0
  3 24  1  0  0  0  0
  3 56  1  0  0  0  0
  4  5  1  0  0  0  0
  4  9  1  0  0  0  0
  4 10  1  0  0  0  0
  4 16  1  0  0  0  0
  5  6  1  0  0  0  0
  5 12  1  0  0  0  0
  5 25  1  0  0  0  0
  6  7  1  0  0  0  0
  6 14  1  0  0  0  0
  6 26  1  0  0  0  0
  7  8  1  0  0  0  0
  7 11  1  0  0  0  0
  7 27  1  0  0  0  0
  8 15  1  0  0  0  0
  8 17  1  0  0  0  0
  8 19  1  0  0  0  0
  9 13  1  0  0  0  0
  9 21  1  0  0  0  0
  9 28  1  0  0  0  0
 10 11  1  0  0  0  0
 10 29  1  0  0  0  0
 10 30  1  0  0  0  0
 11 31  1  0  0  0  0
 11 32  1  0  0  0  0
 12 13  1  0  0  0  0
 12 33  1  0  0  0  0
 12 34  1  0  0  0  0
 13 35  1  0  0  0  0
 13 36  1  0  0  0  0
 14 18  1  0  0  0  0
 14 37  1  0  0  0  0
 14 38  1  0  0  0  0
 15 18  2  0  0  0  0
 15 20  1  0  0  0  0
 16 39  1  0  0  0  0
 16 40  1  0  0  0  0
 16 41  1  0  0  0  0
 17 22  1  0  0  0  0
 17 42  1  0  0  0  0
 17 43  1  0  0  0  0
 18 44  1  0  0  0  0
 19 45  1  0  0  0  0
 19 46  1  0  0  0  0
 19 47  1  0  0  0  0
 20 23  1  0  0  0  0
 20 48  1  0  0  0  0
 20 49  1  0  0  0  0
 21 24  1  0  0  0  0
 22 23  1  0  0  0  0
 22 50  1  0  0  0  0
 22 51  1  0  0  0  0
 23 52  1  0  0  0  0
 24 53  1  0  0  0  0
 24 54  1  0  0  0  0
M  END
> <PUBCHEM_COMPOUND_CID>
150891

> <PUBCHEM_CONFORMER_RMSD>
0.8

> <PUBCHEM_CONFORMER_DIVERSEORDER>
1
2

> <PUBCHEM_MMFF94_PARTIAL_CHARGES>
15
1 -0.68
14 0.14
15 -0.28
18 -0.29
2 -0.57
20 0.14
21 0.45
23 0.28
24 0.34
3 -0.68
44 0.15
55 0.4
56 0.4
8 0.14
9 0.06

> <PUBCHEM_EFFECTIVE_ROTOR_COUNT>
4

> <PUBCHEM_PHARMACOPHORE_FEATURES>
9
1 1 acceptor
1 1 donor
1 2 acceptor
1 3 acceptor
1 3 donor
5 4 5 9 12 13 rings
6 4 5 6 7 10 11 rings
6 6 7 8 14 15 18 rings
6 8 15 17 20 22 23 rings

> <PUBCHEM_HEAVY_ATOM_COUNT>
24

> <PUBCHEM_ATOM_DEF_STEREO_COUNT>
6

> <PUBCHEM_ATOM_UDEF_STEREO_COUNT>
1

> <PUBCHEM_BOND_DEF_STEREO_COUNT>
0

> <PUBCHEM_BOND_UDEF_STEREO_COUNT>
0

> <PUBCHEM_ISOTOPIC_ATOM_COUNT>
0

> <PUBCHEM_COMPONENT_COUNT>
1

> <PUBCHEM_CACTVS_TAUTO_COUNT>
4

> <PUBCHEM_CONFORMER_ID>
00024D6B00000001

> <PUBCHEM_MMFF94_ENERGY>
68.4273

> <PUBCHEM_FEATURE_SELFOVERLAP>
45.77

> <PUBCHEM_SHAPE_FINGERPRINT>
10062212 137 18271811155392678266
10366900 7 5617535202793922086
10411042 1 17329707034110859175
11089746 13 17967820448198120841
11132069 177 18342171137699752415
11405975 8 18273213062719222648
12107183 9 17686895433723209513
12236239 1 17822012025374451647
12403259 415 18189613852776393200
12403814 3 17632581535222962215
12422481 6 17989212572313888292
12633257 1 16845291601119635242
12788726 201 17458901660297161825
13140716 1 18269558243445921728
13224815 77 18341332202101730646
13583140 156 17822292319145692971
13675066 3 18272363140204616818
14790565 3 18192988438608935521
15196674 1 18410571760464166210
15238133 3 18411127061001978780
15375358 24 18261387836611012799
15536298 74 18335134302443113406
15788980 27 18059573551127169592
1601671 61 18412262843723248304
17349148 13 18202285771399022906
17980427 23 18058449812063832572
1813 80 16845569820690484294
19141452 34 18342174445119878647
19784866 9 18412546509333538962
200 152 18113338600473854943
20511986 3 18261125092165924083
20715895 44 18340770463403212725
21033648 29 18114754741775913680
21150785 3 16950575380757470477
21267235 1 18339068329019250115
21279426 13 18336542840972432925
21304253 335 18341604949546653717
21421861 104 17916596465440559226
21452121 103 18335142016135753362
21859007 373 17415856939916668581
22182313 1 17702392929678364383
23402539 116 18261116248648900756
23557571 272 18188480273125348222
23559900 14 18335415760571972022
26918003 58 18410013213084111128
3004659 81 18343861113495452300
335352 9 18410571825279001214
34797466 226 15864349086869498128
34934 24 18409168818029073435
350125 39 18341046436363040108
3545911 37 18412541011575082646
3680242 22 18342741866287145506
4072396 5 18342466945588913586
4073 2 18201995483086501138
4214541 1 18410290302888766921
4340502 62 18411692219095558433
474 4 17917985049388439630
5104073 3 18272370832686113074
5283173 99 18334294309766646625
542803 24 17846494825004654684
633830 44 18335986385278614654
7495541 125 13110956500940994844
9709674 26 18335131020697962686

> <PUBCHEM_SHAPE_MULTIPOLES>
476.3
11.87
2.32
1.06
2.45
0.46
-0.3
-4.24
1.84
0.84
0.25
-0.53
-0.18
-0.09

> <PUBCHEM_SHAPE_SELFOVERLAP>
1014.412

> <PUBCHEM_SHAPE_VOLUME>
263.2

> <PUBCHEM_COORDINATE_TYPE>
2
5
10

$$$$

