169007
  -OEChem-07051212572D

 76 83  0     1  0  0  0  0  0999 V2000
    6.1964   -0.4697    0.0000 O   0  0  0  0  0  0  0  0  0  0  0  0
    4.5808    0.4630    0.0000 O   0  0  0  0  0  0  0  0  0  0  0  0
    2.8698   -0.4358    0.0000 O   0  0  0  0  0  0  0  0  0  0  0  0
   10.5744   -1.8518    0.0000 O   0  0  0  0  0  0  0  0  0  0  0  0
    9.6491   -1.2820    0.0000 O   0  0  0  0  0  0  0  0  0  0  0  0
    7.9446    3.4118    0.0000 N   0  0  3  0  0  0  0  0  0  0  0  0
    6.3071   -3.4051    0.0000 N   0  0  0  0  0  0  0  0  0  0  0  0
    7.9368    2.3998    0.0000 C   0  0  2  0  0  0  0  0  0  0  0  0
    7.0527    1.9074    0.0000 C   0  0  0  0  0  0  0  0  0  0  0  0
    6.2112    2.3932    0.0000 C   0  0  0  0  0  0  0  0  0  0  0  0
    6.2915   -2.3931    0.0000 C   0  0  2  0  0  0  0  0  0  0  0  0
    7.0682    3.9178    0.0000 C   0  0  0  0  0  0  0  0  0  0  0  0
    6.1957    3.4051    0.0000 C   0  0  0  0  0  0  0  0  0  0  0  0
    5.4036   -1.9076    0.0000 C   0  0  0  0  0  0  0  0  0  0  0  0
    8.7392    1.9241    0.0000 C   0  0  0  0  0  0  0  0  0  0  0  0
    4.5660   -2.3998    0.0000 C   0  0  0  0  0  0  0  0  0  0  0  0
    5.3886   -0.9361    0.0000 C   0  0  0  0  0  0  0  0  0  0  0  0
    4.5581   -3.4118    0.0000 C   0  0  0  0  0  0  0  0  0  0  0  0
    7.0452    0.9358    0.0000 C   0  0  0  0  0  0  0  0  0  0  0  0
    5.4346   -3.9178    0.0000 C   0  0  0  0  0  0  0  0  0  0  0  0
    6.1964    0.4630    0.0000 C   0  0  0  0  0  0  0  0  0  0  0  0
    7.0902   -1.9113    0.0000 C   0  0  0  0  0  0  0  0  0  0  0  0
    5.3736    1.9008    0.0000 C   0  0  0  0  0  0  0  0  0  0  0  0
    5.3886    0.9294    0.0000 C   0  0  0  0  0  0  0  0  0  0  0  0
    4.5808   -0.4697    0.0000 C   0  0  0  0  0  0  0  0  0  0  0  0
    8.8107    3.9118    0.0000 C   0  0  0  0  0  0  0  0  0  0  0  0
    8.7282    0.9663    0.0000 C   0  0  0  0  0  0  0  0  0  0  0  0
    3.7245   -1.9140    0.0000 C   0  0  0  0  0  0  0  0  0  0  0  0
    3.7320   -0.9424    0.0000 C   0  0  0  0  0  0  0  0  0  0  0  0
    7.9068   -2.3620    0.0000 C   0  0  0  0  0  0  0  0  0  0  0  0
    9.5521    0.4779    0.0000 C   0  0  0  0  0  0  0  0  0  0  0  0
    7.8932    0.4970    0.0000 C   0  0  0  0  0  0  0  0  0  0  0  0
    7.9247   -3.2946    0.0000 C   0  0  0  0  0  0  0  0  0  0  0  0
    8.7054   -1.8801    0.0000 C   0  0  0  0  0  0  0  0  0  0  0  0
    9.5411   -0.4798    0.0000 C   0  0  0  0  0  0  0  0  0  0  0  0
    7.8822   -0.4608    0.0000 C   0  0  0  0  0  0  0  0  0  0  0  0
    8.7061   -0.9492    0.0000 C   0  0  0  0  0  0  0  0  0  0  0  0
    9.5400   -3.2635    0.0000 C   0  0  0  0  0  0  0  0  0  0  0  0
    8.7413   -3.7452    0.0000 C   0  0  0  0  0  0  0  0  0  0  0  0
    9.5220   -2.3308    0.0000 C   0  0  0  0  0  0  0  0  0  0  0  0
    2.0000   -0.9291    0.0000 C   0  0  0  0  0  0  0  0  0  0  0  0
   10.4089   -0.6317    0.0000 C   0  0  0  0  0  0  0  0  0  0  0  0
    8.6770    2.8176    0.0000 H   0  0  0  0  0  0  0  0  0  0  0  0
    6.2734   -1.5433    0.0000 H   0  0  0  0  0  0  0  0  0  0  0  0
    7.4654    4.3938    0.0000 H   0  0  0  0  0  0  0  0  0  0  0  0
    6.6672    4.3907    0.0000 H   0  0  0  0  0  0  0  0  0  0  0  0
    5.9776    3.9855    0.0000 H   0  0  0  0  0  0  0  0  0  0  0  0
    5.5865    3.2896    0.0000 H   0  0  0  0  0  0  0  0  0  0  0  0
    9.3485    1.8094    0.0000 H   0  0  0  0  0  0  0  0  0  0  0  0
    8.9579    2.5042    0.0000 H   0  0  0  0  0  0  0  0  0  0  0  0
    3.9481   -3.3010    0.0000 H   0  0  0  0  0  0  0  0  0  0  0  0
    4.3446   -3.9939    0.0000 H   0  0  0  0  0  0  0  0  0  0  0  0
    7.5785    0.6196    0.0000 H   0  0  0  0  0  0  0  0  0  0  0  0
    5.0373   -4.3938    0.0000 H   0  0  0  0  0  0  0  0  0  0  0  0
    5.8356   -4.3907    0.0000 H   0  0  0  0  0  0  0  0  0  0  0  0
    6.8464   -3.7110    0.0000 H   0  0  0  0  0  0  0  0  0  0  0  0
    7.4795   -1.4288    0.0000 H   0  0  0  0  0  0  0  0  0  0  0  0
    6.6826   -1.4441    0.0000 H   0  0  0  0  0  0  0  0  0  0  0  0
    4.8331    2.2046    0.0000 H   0  0  0  0  0  0  0  0  0  0  0  0
    9.1207    3.3749    0.0000 H   0  0  0  0  0  0  0  0  0  0  0  0
    9.3476    4.2219    0.0000 H   0  0  0  0  0  0  0  0  0  0  0  0
    8.5006    4.4488    0.0000 H   0  0  0  0  0  0  0  0  0  0  0  0
    3.1864   -2.2219    0.0000 H   0  0  0  0  0  0  0  0  0  0  0  0
   10.0926    0.7818    0.0000 H   0  0  0  0  0  0  0  0  0  0  0  0
    7.3598    0.8131    0.0000 H   0  0  0  0  0  0  0  0  0  0  0  0
    7.3938   -3.6148    0.0000 H   0  0  0  0  0  0  0  0  0  0  0  0
    8.6934   -1.2603    0.0000 H   0  0  0  0  0  0  0  0  0  0  0  0
    7.3417   -0.7646    0.0000 H   0  0  0  0  0  0  0  0  0  0  0  0
    8.7532   -4.3651    0.0000 H   0  0  0  0  0  0  0  0  0  0  0  0
   10.0529   -2.0105    0.0000 H   0  0  0  0  0  0  0  0  0  0  0  0
    1.6941   -0.3898    0.0000 H   0  0  0  0  0  0  0  0  0  0  0  0
    1.4607   -1.2350    0.0000 H   0  0  0  0  0  0  0  0  0  0  0  0
    2.3059   -1.4684    0.0000 H   0  0  0  0  0  0  0  0  0  0  0  0
   10.8120   -1.1028    0.0000 H   0  0  0  0  0  0  0  0  0  0  0  0
   10.8799   -0.2286    0.0000 H   0  0  0  0  0  0  0  0  0  0  0  0
   10.0057   -0.1607    0.0000 H   0  0  0  0  0  0  0  0  0  0  0  0
  1 17  1  0  0  0  0
  1 21  1  0  0  0  0
  2 24  1  0  0  0  0
  2 25  1  0  0  0  0
  3 29  1  0  0  0  0
  3 41  1  0  0  0  0
  4 35  1  0  0  0  0
  4 38  1  0  0  0  0
  5 37  1  0  0  0  0
  5 42  1  0  0  0  0
  6  8  1  0  0  0  0
  6 12  1  0  0  0  0
  6 26  1  0  0  0  0
  7 11  1  0  0  0  0
  7 20  1  0  0  0  0
  7 56  1  0  0  0  0
  8  9  1  0  0  0  0
  8 15  1  0  0  0  0
  8 43  1  6  0  0  0
  9 10  1  0  0  0  0
  9 19  2  0  0  0  0
 10 13  1  0  0  0  0
 10 23  2  0  0  0  0
 11 14  1  0  0  0  0
 11 22  1  0  0  0  0
 11 44  1  1  0  0  0
 12 13  1  0  0  0  0
 12 45  1  0  0  0  0
 12 46  1  0  0  0  0
 13 47  1  0  0  0  0
 13 48  1  0  0  0  0
 14 16  1  0  0  0  0
 14 17  2  0  0  0  0
 15 27  1  0  0  0  0
 15 49  1  0  0  0  0
 15 50  1  0  0  0  0
 16 18  1  0  0  0  0
 16 28  2  0  0  0  0
 17 25  1  0  0  0  0
 18 20  1  0  0  0  0
 18 51  1  0  0  0  0
 18 52  1  0  0  0  0
 19 21  1  0  0  0  0
 19 53  1  0  0  0  0
 20 54  1  0  0  0  0
 20 55  1  0  0  0  0
 21 24  2  0  0  0  0
 22 30  1  0  0  0  0
 22 57  1  0  0  0  0
 22 58  1  0  0  0  0
 23 24  1  0  0  0  0
 23 59  1  0  0  0  0
 25 29  2  0  0  0  0
 26 60  1  0  0  0  0
 26 61  1  0  0  0  0
 26 62  1  0  0  0  0
 27 31  2  0  0  0  0
 27 32  1  0  0  0  0
 28 29  1  0  0  0  0
 28 63  1  0  0  0  0
 30 33  2  0  0  0  0
 30 34  1  0  0  0  0
 31 35  1  0  0  0  0
 31 64  1  0  0  0  0
 32 36  2  0  0  0  0
 32 65  1  0  0  0  0
 33 39  1  0  0  0  0
 33 66  1  0  0  0  0
 34 40  2  0  0  0  0
 34 67  1  0  0  0  0
 35 37  2  0  0  0  0
 36 37  1  0  0  0  0
 36 68  1  0  0  0  0
 38 39  2  0  0  0  0
 38 40  1  0  0  0  0
 39 69  1  0  0  0  0
 40 70  1  0  0  0  0
 41 71  1  0  0  0  0
 41 72  1  0  0  0  0
 41 73  1  0  0  0  0
 42 74  1  0  0  0  0
 42 75  1  0  0  0  0
 42 76  1  0  0  0  0
M  END
> <PUBCHEM_COMPOUND_CID>
169007

> <PUBCHEM_COMPOUND_CANONICALIZED>
1

> <PUBCHEM_CACTVS_COMPLEXITY>
929

> <PUBCHEM_CACTVS_HBOND_ACCEPTOR>
7

> <PUBCHEM_CACTVS_HBOND_DONOR>
1

> <PUBCHEM_CACTVS_ROTATABLE_BOND>
2

> <PUBCHEM_CACTVS_SUBSKEYS>
AAADcfB/OAAAAAAAAAAAAAAAAAAAAAAAAAA8eNGCAAAAAACxVAAAHgAQAAAADCzBmAYyBoPABACAAiBCAACCCAAgIAAIiIAOjIgNJyKEsRuGOCrn0BWKqAew8P8OoAABCAAYQABAAAIQADCAAAAAAAAAAA==

> <PUBCHEM_IUPAC_INCHI>
InChI=1S/C35H34N2O5/c1-37-13-11-22-17-30-31-19-25(22)27(37)15-21-6-9-28(38-2)29(16-21)40-24-7-4-20(5-8-24)14-26-33-23(10-12-36-26)18-32(39-3)34(41-30)35(33)42-31/h4-9,16-19,26-27,36H,10-15H2,1-3H3/t26-,27-/m0/s1

> <PUBCHEM_IUPAC_INCHIKEY>
XZAXGQMTBGFTFE-SVBPBHIXSA-N

> <PUBCHEM_XLOGP3_AA>
5.9

> <PUBCHEM_EXACT_MASS>
562.246772

> <PUBCHEM_MOLECULAR_FORMULA>
C35H34N2O5

> <PUBCHEM_MOLECULAR_WEIGHT>
562.65486

> <PUBCHEM_OPENEYE_CAN_SMILES>
CN1CCC2=CC3=C4C=C2C1CC5=CC(=C(C=C5)OC)OC6=CC=C(CC7C8=C(O4)C(=C(C=C8CCN7)OC)O3)C=C6

> <PUBCHEM_OPENEYE_ISO_SMILES>
CN1CCC2=CC3=C4C=C2[C@@H]1CC5=CC(=C(C=C5)OC)OC6=CC=C(C[C@H]7C8=C(O4)C(=C(C=C8CCN7)OC)O3)C=C6

> <PUBCHEM_CACTVS_TPSA>
61.4

> <PUBCHEM_MONOISOTOPIC_WEIGHT>
562.246772

> <PUBCHEM_TOTAL_CHARGE>
0

> <PUBCHEM_HEAVY_ATOM_COUNT>
42

> <PUBCHEM_ATOM_DEF_STEREO_COUNT>
2

> <PUBCHEM_ATOM_UDEF_STEREO_COUNT>
0

> <PUBCHEM_BOND_DEF_STEREO_COUNT>
0

> <PUBCHEM_BOND_UDEF_STEREO_COUNT>
0

> <PUBCHEM_ISOTOPIC_ATOM_COUNT>
0

> <PUBCHEM_COMPONENT_COUNT>
1

> <PUBCHEM_CACTVS_TAUTO_COUNT>
1

> <PUBCHEM_COORDINATE_TYPE>
1
5
255

> <PUBCHEM_BONDANNOTATIONS>
10  23  8
11  44  5
14  16  8
14  17  8
16  28  8
17  25  8
19  21  8
21  24  8
23  24  8
25  29  8
27  31  8
27  32  8
28  29  8
30  33  8
30  34  8
31  35  8
32  36  8
33  39  8
34  40  8
35  37  8
36  37  8
38  39  8
38  40  8
8  43  6
9  10  8
9  19  8

$$$$

