54691345
  -OEChem-07051213032D

 47 49  0     0  0  0  0  0  0999 V2000
   11.5426    2.5773    0.0000 Cl  0  0  0  0  0  0  0  0  0  0  0  0
    9.7942    1.5427    0.0000 O   0  0  0  0  0  0  0  0  0  0  0  0
    9.7942   -1.4573    0.0000 O   0  0  0  0  0  0  0  0  0  0  0  0
    3.7320   -1.9573    0.0000 O   0  0  0  0  0  0  0  0  0  0  0  0
    7.1962    1.0427    0.0000 O   0  0  0  0  0  0  0  0  0  0  0  0
   13.3244    1.5668    0.0000 O   0  0  0  0  0  0  0  0  0  0  0  0
    8.0622    1.5427    0.0000 O   0  0  0  0  0  0  0  0  0  0  0  0
    8.0622   -0.4573    0.0000 N   0  0  0  0  0  0  0  0  0  0  0  0
    4.5981   -0.4573    0.0000 C   0  0  0  0  0  0  0  0  0  0  0  0
    3.7320    0.0427    0.0000 C   0  0  0  0  0  0  0  0  0  0  0  0
   10.6603    0.0427    0.0000 C   0  0  0  0  0  0  0  0  0  0  0  0
    6.3301   -0.4573    0.0000 C   0  0  0  0  0  0  0  0  0  0  0  0
    5.4641    0.0427    0.0000 C   0  0  0  0  0  0  0  0  0  0  0  0
    8.9282    0.0427    0.0000 C   0  0  0  0  0  0  0  0  0  0  0  0
    9.7942   -0.4573    0.0000 C   0  0  0  0  0  0  0  0  0  0  0  0
   10.6603    1.0427    0.0000 C   0  0  0  0  0  0  0  0  0  0  0  0
    4.5981   -1.4573    0.0000 C   0  0  0  0  0  0  0  0  0  0  0  0
    7.1962    0.0427    0.0000 C   0  0  0  0  0  0  0  0  0  0  0  0
    6.3301   -1.4573    0.0000 C   0  0  0  0  0  0  0  0  0  0  0  0
    3.7320    1.0427    0.0000 C   0  0  0  0  0  0  0  0  0  0  0  0
    5.4641   -1.9573    0.0000 C   0  0  0  0  0  0  0  0  0  0  0  0
   11.5542   -0.4920    0.0000 C   0  0  0  0  0  0  0  0  0  0  0  0
    8.9282    1.0427    0.0000 C   0  0  0  0  0  0  0  0  0  0  0  0
   11.5542    1.5774    0.0000 C   0  0  0  0  0  0  0  0  0  0  0  0
    2.8660    1.5427    0.0000 C   0  0  0  0  0  0  0  0  0  0  0  0
   12.4603    1.0635    0.0000 C   0  0  0  0  0  0  0  0  0  0  0  0
   12.4603    0.0219    0.0000 C   0  0  0  0  0  0  0  0  0  0  0  0
    2.8660    2.5427    0.0000 C   0  0  0  0  0  0  0  0  0  0  0  0
    2.0000    1.0427    0.0000 C   0  0  0  0  0  0  0  0  0  0  0  0
    3.1215    0.1504    0.0000 H   0  0  0  0  0  0  0  0  0  0  0  0
    3.5200   -0.5399    0.0000 H   0  0  0  0  0  0  0  0  0  0  0  0
    5.4641    0.6627    0.0000 H   0  0  0  0  0  0  0  0  0  0  0  0
    8.0622   -1.0773    0.0000 H   0  0  0  0  0  0  0  0  0  0  0  0
    6.8671   -1.7673    0.0000 H   0  0  0  0  0  0  0  0  0  0  0  0
    4.2690    1.3527    0.0000 H   0  0  0  0  0  0  0  0  0  0  0  0
    5.4641   -2.5773    0.0000 H   0  0  0  0  0  0  0  0  0  0  0  0
   11.5470   -1.1119    0.0000 H   0  0  0  0  0  0  0  0  0  0  0  0
   12.9960   -0.2902    0.0000 H   0  0  0  0  0  0  0  0  0  0  0  0
    3.4860    2.5427    0.0000 H   0  0  0  0  0  0  0  0  0  0  0  0
    1.6900    1.5796    0.0000 H   0  0  0  0  0  0  0  0  0  0  0  0
    1.4631    0.7327    0.0000 H   0  0  0  0  0  0  0  0  0  0  0  0
    2.3100    0.5058    0.0000 H   0  0  0  0  0  0  0  0  0  0  0  0
    2.8660    3.1627    0.0000 H   0  0  0  0  0  0  0  0  0  0  0  0
    2.2460    2.5427    0.0000 H   0  0  0  0  0  0  0  0  0  0  0  0
   10.3312   -1.7673    0.0000 H   0  0  0  0  0  0  0  0  0  0  0  0
    3.7320   -2.5773    0.0000 H   0  0  0  0  0  0  0  0  0  0  0  0
   13.8625    1.2589    0.0000 H   0  0  0  0  0  0  0  0  0  0  0  0
  1 24  1  0  0  0  0
  2 16  1  0  0  0  0
  2 23  1  0  0  0  0
  3 15  1  0  0  0  0
  3 45  1  0  0  0  0
  4 17  1  0  0  0  0
  4 46  1  0  0  0  0
  5 18  2  0  0  0  0
  6 26  1  0  0  0  0
  6 47  1  0  0  0  0
  7 23  2  0  0  0  0
  8 14  1  0  0  0  0
  8 18  1  0  0  0  0
  8 33  1  0  0  0  0
  9 10  1  0  0  0  0
  9 13  1  0  0  0  0
  9 17  2  0  0  0  0
 10 20  1  0  0  0  0
 10 30  1  0  0  0  0
 10 31  1  0  0  0  0
 11 15  1  0  0  0  0
 11 16  2  0  0  0  0
 11 22  1  0  0  0  0
 12 13  2  0  0  0  0
 12 18  1  0  0  0  0
 12 19  1  0  0  0  0
 13 32  1  0  0  0  0
 14 15  2  0  0  0  0
 14 23  1  0  0  0  0
 16 24  1  0  0  0  0
 17 21  1  0  0  0  0
 19 21  2  0  0  0  0
 19 34  1  0  0  0  0
 20 25  2  0  0  0  0
 20 35  1  0  0  0  0
 21 36  1  0  0  0  0
 22 27  2  0  0  0  0
 22 37  1  0  0  0  0
 24 26  2  0  0  0  0
 25 28  1  0  0  0  0
 25 29  1  0  0  0  0
 26 27  1  0  0  0  0
 27 38  1  0  0  0  0
 28 39  1  0  0  0  0
 28 43  1  0  0  0  0
 28 44  1  0  0  0  0
 29 40  1  0  0  0  0
 29 41  1  0  0  0  0
 29 42  1  0  0  0  0
M  END
> <PUBCHEM_COMPOUND_CID>
54691345

> <PUBCHEM_COMPOUND_CANONICALIZED>
1

> <PUBCHEM_CACTVS_COMPLEXITY>
716

> <PUBCHEM_CACTVS_HBOND_ACCEPTOR>
6

> <PUBCHEM_CACTVS_HBOND_DONOR>
4

> <PUBCHEM_CACTVS_ROTATABLE_BOND>
4

> <PUBCHEM_CACTVS_SUBSKEYS>
AAADceB6OAAEAAAAAAAAAAAAAAAAAAAAAAAwYIAAAAAAAACBQAAAHgIQCAAADA6BmCAyDoLABgCIAiXSWACCCAAkJEAIiAGGD8gOJzOHtzuHeyjlxBWYuYeY/O7OIAACKAAICABAAARQABAQAAAAAAAAAA==

> <PUBCHEM_IUPAC_OPENEYE_NAME>
N-(8-chloro-4,7-dihydroxy-2-oxo-chromen-3-yl)-4-hydroxy-3-(3-methylbut-2-enyl)benzamide

> <PUBCHEM_IUPAC_CAS_NAME>
N-(8-chloro-4,7-dihydroxy-2-oxo-1-benzopyran-3-yl)-4-hydroxy-3-(3-methylbut-2-enyl)benzamide

> <PUBCHEM_IUPAC_NAME>
N-(8-chloro-4,7-dihydroxy-2-oxochromen-3-yl)-4-hydroxy-3-(3-methylbut-2-enyl)benzamide

> <PUBCHEM_IUPAC_SYSTEMATIC_NAME>
N-[8-chloranyl-4,7-bis(oxidanyl)-2-oxidanylidene-chromen-3-yl]-3-(3-methylbut-2-enyl)-4-oxidanyl-benzamide

> <PUBCHEM_IUPAC_TRADITIONAL_NAME>
N-(8-chloro-4,7-dihydroxy-2-keto-chromen-3-yl)-4-hydroxy-3-(3-methylbut-2-enyl)benzamide

> <PUBCHEM_IUPAC_INCHI>
InChI=1S/C21H18ClNO6/c1-10(2)3-4-11-9-12(5-7-14(11)24)20(27)23-17-18(26)13-6-8-15(25)16(22)19(13)29-21(17)28/h3,5-9,24-26H,4H2,1-2H3,(H,23,27)

> <PUBCHEM_IUPAC_INCHIKEY>
GQENLIMEQYDTDJ-UHFFFAOYSA-N

> <PUBCHEM_XLOGP3_AA>
4.2

> <PUBCHEM_EXACT_MASS>
415.082265

> <PUBCHEM_MOLECULAR_FORMULA>
C21H18ClNO6

> <PUBCHEM_MOLECULAR_WEIGHT>
415.82372

> <PUBCHEM_OPENEYE_CAN_SMILES>
CC(=CCC1=C(C=CC(=C1)C(=O)NC2=C(C3=C(C(=C(C=C3)O)Cl)OC2=O)O)O)C

> <PUBCHEM_OPENEYE_ISO_SMILES>
CC(=CCC1=C(C=CC(=C1)C(=O)NC2=C(C3=C(C(=C(C=C3)O)Cl)OC2=O)O)O)C

> <PUBCHEM_CACTVS_TPSA>
116

> <PUBCHEM_MONOISOTOPIC_WEIGHT>
415.082265

> <PUBCHEM_TOTAL_CHARGE>
0

> <PUBCHEM_HEAVY_ATOM_COUNT>
29

> <PUBCHEM_ATOM_DEF_STEREO_COUNT>
0

> <PUBCHEM_ATOM_UDEF_STEREO_COUNT>
0

> <PUBCHEM_BOND_DEF_STEREO_COUNT>
0

> <PUBCHEM_BOND_UDEF_STEREO_COUNT>
0

> <PUBCHEM_ISOTOPIC_ATOM_COUNT>
0

> <PUBCHEM_COMPONENT_COUNT>
1

> <PUBCHEM_CACTVS_TAUTO_COUNT>
231

> <PUBCHEM_COORDINATE_TYPE>
1
5
255

> <PUBCHEM_BONDANNOTATIONS>
11  15  8
11  16  8
11  22  8
12  13  8
12  19  8
14  15  8
14  23  8
16  24  8
17  21  8
19  21  8
2  16  8
2  23  8
22  27  8
24  26  8
26  27  8
9  13  8
9  17  8

$$$$

