5280437
  -OEChem-07051212453D

 52 53  0     1  0  0  0  0  0999 V2000
   -2.9395   -1.0327   -0.0763 C   0  0  0  0  0  0  0  0  0  0  0  0
   -2.2883    0.2563    0.3559 C   0  0  1  0  0  0  0  0  0  0  0  0
   -1.4751   -0.8244   -0.3215 C   0  0  1  0  0  0  0  0  0  0  0  0
   -2.5653    1.5411   -0.3679 C   0  0  0  0  0  0  0  0  0  0  0  0
   -3.3243   -2.0506    0.9471 C   0  0  0  0  0  0  0  0  0  0  0  0
   -3.9368   -0.9469   -1.1862 C   0  0  0  0  0  0  0  0  0  0  0  0
   -0.4584   -1.4941    0.4929 C   0  0  0  0  0  0  0  0  0  0  0  0
   -1.9051    2.7518    0.3110 C   0  0  0  0  0  0  0  0  0  0  0  0
    0.3916   -2.4693    0.1185 C   0  0  0  0  0  0  0  0  0  0  0  0
   -0.3968    2.9541    0.2308 C   0  0  0  0  0  0  0  0  0  0  0  0
    1.4929   -2.9081    1.0608 C   0  0  0  0  0  0  0  0  0  0  0  0
    0.3617   -3.1401   -1.2253 C   0  0  0  0  0  0  0  0  0  0  0  0
    0.4394    2.2216   -0.5327 C   0  0  0  0  0  0  0  0  0  0  0  0
    0.0754    4.1032    1.0899 C   0  0  0  0  0  0  0  0  0  0  0  0
    2.8436   -2.2563    0.7257 C   0  0  0  0  0  0  0  0  0  0  0  0
    1.9092    2.4685   -0.7590 C   0  0  0  0  0  0  0  0  0  0  0  0
    2.7962   -0.7507    0.8137 C   0  0  0  0  0  0  0  0  0  0  0  0
    2.8521    1.6360    0.1237 C   0  0  0  0  0  0  0  0  0  0  0  0
    2.9257    0.1489   -0.1831 C   0  0  0  0  0  0  0  0  0  0  0  0
    3.2017   -0.2085   -1.6181 C   0  0  0  0  0  0  0  0  0  0  0  0
   -2.2055    0.4043    1.4279 H   0  0  0  0  0  0  0  0  0  0  0  0
   -1.1704   -0.6389   -1.3473 H   0  0  0  0  0  0  0  0  0  0  0  0
   -3.6489    1.7137   -0.3493 H   0  0  0  0  0  0  0  0  0  0  0  0
   -2.2738    1.4943   -1.4234 H   0  0  0  0  0  0  0  0  0  0  0  0
   -3.1944   -3.0638    0.5515 H   0  0  0  0  0  0  0  0  0  0  0  0
   -2.7437   -1.9704    1.8725 H   0  0  0  0  0  0  0  0  0  0  0  0
   -4.3769   -1.9331    1.2291 H   0  0  0  0  0  0  0  0  0  0  0  0
   -4.1725   -1.9474   -1.5663 H   0  0  0  0  0  0  0  0  0  0  0  0
   -4.8700   -0.4921   -0.8368 H   0  0  0  0  0  0  0  0  0  0  0  0
   -3.5720   -0.3673   -2.0404 H   0  0  0  0  0  0  0  0  0  0  0  0
   -0.3240   -1.0859    1.4943 H   0  0  0  0  0  0  0  0  0  0  0  0
   -2.1903    2.7402    1.3718 H   0  0  0  0  0  0  0  0  0  0  0  0
   -2.3650    3.6523   -0.1188 H   0  0  0  0  0  0  0  0  0  0  0  0
    1.2261   -2.6733    2.1000 H   0  0  0  0  0  0  0  0  0  0  0  0
    1.5925   -3.9999    1.0222 H   0  0  0  0  0  0  0  0  0  0  0  0
    1.2651   -2.9015   -1.7945 H   0  0  0  0  0  0  0  0  0  0  0  0
   -0.5010   -2.8423   -1.8281 H   0  0  0  0  0  0  0  0  0  0  0  0
    0.3070   -4.2267   -1.1018 H   0  0  0  0  0  0  0  0  0  0  0  0
    0.0377    1.4108   -1.1311 H   0  0  0  0  0  0  0  0  0  0  0  0
    1.1625    4.1697    1.1747 H   0  0  0  0  0  0  0  0  0  0  0  0
   -0.3063    3.9922    2.1109 H   0  0  0  0  0  0  0  0  0  0  0  0
   -0.2935    5.0514    0.6855 H   0  0  0  0  0  0  0  0  0  0  0  0
    3.1853   -2.6067   -0.2515 H   0  0  0  0  0  0  0  0  0  0  0  0
    3.5912   -2.6111    1.4460 H   0  0  0  0  0  0  0  0  0  0  0  0
    2.1241    2.2949   -1.8207 H   0  0  0  0  0  0  0  0  0  0  0  0
    2.1418    3.5292   -0.6093 H   0  0  0  0  0  0  0  0  0  0  0  0
    2.6232   -0.3743    1.8215 H   0  0  0  0  0  0  0  0  0  0  0  0
    2.5910    1.8039    1.1767 H   0  0  0  0  0  0  0  0  0  0  0  0
    3.8664    2.0392    0.0004 H   0  0  0  0  0  0  0  0  0  0  0  0
    2.3024   -0.0660   -2.2254 H   0  0  0  0  0  0  0  0  0  0  0  0
    3.5348   -1.2388   -1.7556 H   0  0  0  0  0  0  0  0  0  0  0  0
    3.9967    0.4292   -2.0196 H   0  0  0  0  0  0  0  0  0  0  0  0
  1  2  1  0  0  0  0
  1  3  1  0  0  0  0
  1  5  1  0  0  0  0
  1  6  1  0  0  0  0
  2  3  1  0  0  0  0
  2  4  1  0  0  0  0
  2 21  1  0  0  0  0
  3  7  1  0  0  0  0
  3 22  1  0  0  0  0
  4  8  1  0  0  0  0
  4 23  1  0  0  0  0
  4 24  1  0  0  0  0
  5 25  1  0  0  0  0
  5 26  1  0  0  0  0
  5 27  1  0  0  0  0
  6 28  1  0  0  0  0
  6 29  1  0  0  0  0
  6 30  1  0  0  0  0
  7  9  2  0  0  0  0
  7 31  1  0  0  0  0
  8 10  1  0  0  0  0
  8 32  1  0  0  0  0
  8 33  1  0  0  0  0
  9 11  1  0  0  0  0
  9 12  1  0  0  0  0
 10 13  2  0  0  0  0
 10 14  1  0  0  0  0
 11 15  1  0  0  0  0
 11 34  1  0  0  0  0
 11 35  1  0  0  0  0
 12 36  1  0  0  0  0
 12 37  1  0  0  0  0
 12 38  1  0  0  0  0
 13 16  1  0  0  0  0
 13 39  1  0  0  0  0
 14 40  1  0  0  0  0
 14 41  1  0  0  0  0
 14 42  1  0  0  0  0
 15 17  1  0  0  0  0
 15 43  1  0  0  0  0
 15 44  1  0  0  0  0
 16 18  1  0  0  0  0
 16 45  1  0  0  0  0
 16 46  1  0  0  0  0
 17 19  2  0  0  0  0
 17 47  1  0  0  0  0
 18 19  1  0  0  0  0
 18 48  1  0  0  0  0
 18 49  1  0  0  0  0
 19 20  1  0  0  0  0
 20 50  1  0  0  0  0
 20 51  1  0  0  0  0
 20 52  1  0  0  0  0
M  END
> <PUBCHEM_COMPOUND_CID>
5280437

> <PUBCHEM_CONFORMER_RMSD>
0.6

> <PUBCHEM_CONFORMER_DIVERSEORDER>
1
40
52
47
38
31
56
5
25
29
17
21
53
37
55
28
13
45
22
27
8
42
15
54
41
32
2
36
51
11
12
44
6
30
4
43
16
33
39
20
3
9
18
49
23
35
19
7
50
34
48
14
46
26
10
24

> <PUBCHEM_MMFF94_PARTIAL_CHARGES>
25
1 -0.19
10 -0.28
11 0.14
12 0.14
13 -0.29
14 0.14
15 0.14
16 0.14
17 -0.29
18 0.14
19 -0.28
2 -0.19
20 0.14
21 0.1
22 0.1
3 -0.06
31 0.15
39 0.15
4 0.09
47 0.15
5 0.09
6 0.09
7 -0.19
8 0.14
9 -0.28

> <PUBCHEM_EFFECTIVE_ROTOR_COUNT>
1.4

> <PUBCHEM_PHARMACOPHORE_FEATURES>
1
3 1 5 6 hydrophobe

> <PUBCHEM_HEAVY_ATOM_COUNT>
20

> <PUBCHEM_ATOM_DEF_STEREO_COUNT>
0

> <PUBCHEM_ATOM_UDEF_STEREO_COUNT>
2

> <PUBCHEM_BOND_DEF_STEREO_COUNT>
3

> <PUBCHEM_BOND_UDEF_STEREO_COUNT>
0

> <PUBCHEM_ISOTOPIC_ATOM_COUNT>
0

> <PUBCHEM_COMPONENT_COUNT>
1

> <PUBCHEM_CACTVS_TAUTO_COUNT>
1

> <PUBCHEM_CONFORMER_ID>
005092B500000001

> <PUBCHEM_MMFF94_ENERGY>
35.3825

> <PUBCHEM_FEATURE_SELFOVERLAP>
5.074

> <PUBCHEM_SHAPE_FINGERPRINT>
104564 63 18265607865676230722
10616163 171 18267019638500891036
10967382 1 18123750859339797161
1100329 8 17979077085324359920
12156800 1 13675116161987114608
12553582 1 18411412955636881505
13122387 1 16466429958911592424
13140716 1 18410008866298042200
14178342 30 18267031729045287464
1420 336 17691124155206317057
14251745 187 18044641225897958534
14251757 5 17039209482125444502
192875 21 18269294480566504775
19591789 44 17620470212648164923
19930381 70 18124033429855188227
20600515 1 16977644398759450705
20905425 154 18264766730369320446
21141583 151 18192415391108247452
22113638 7 18122356687391615612
2334 1 18338232669879888516
23557571 272 18118975916590467227
23558518 356 17617378828458531927
238 59 17905916706909472679
2818148 4 17543304639479313707
6438718 38 17538585582912277438
7064713 232 17038680621395419216
7471813 234 18194149457846296111
7832392 63 17978794836990168586
81228 2 17834117820406161755
9925002 15 17754772383594119822

> <PUBCHEM_SHAPE_MULTIPOLES>
411.59
5.74
5.04
1.2
1.29
2.64
0.2
-1.8
0.71
-0.54
-1.02
-0.29
-0.31
-0.54

> <PUBCHEM_SHAPE_SELFOVERLAP>
818.462

> <PUBCHEM_SHAPE_VOLUME>
245.3

> <PUBCHEM_COORDINATE_TYPE>
2
5
10

$$$$

