11859
  -OEChem-06261206122D

 13 13  0     0  0  0  0  0  0999 V2000
    3.7320    2.1550    0.0000 Cl  0  0  0  0  0  0  0  0  0  0  0  0
    2.0000    1.1550    0.0000 Cl  0  0  0  0  0  0  0  0  0  0  0  0
    5.4641    1.1550    0.0000 Cl  0  0  0  0  0  0  0  0  0  0  0  0
    3.7320   -1.8450    0.0000 O   0  0  0  0  0  0  0  0  0  0  0  0
    3.7320   -0.8450    0.0000 C   0  0  0  0  0  0  0  0  0  0  0  0
    4.5981   -0.3450    0.0000 C   0  0  0  0  0  0  0  0  0  0  0  0
    2.8660   -0.3450    0.0000 C   0  0  0  0  0  0  0  0  0  0  0  0
    3.7320    1.1550    0.0000 C   0  0  0  0  0  0  0  0  0  0  0  0
    2.8660    0.6550    0.0000 C   0  0  0  0  0  0  0  0  0  0  0  0
    4.5981    0.6550    0.0000 C   0  0  0  0  0  0  0  0  0  0  0  0
    5.1350   -0.6550    0.0000 H   0  0  0  0  0  0  0  0  0  0  0  0
    2.3291   -0.6550    0.0000 H   0  0  0  0  0  0  0  0  0  0  0  0
    3.1951   -2.1550    0.0000 H   0  0  0  0  0  0  0  0  0  0  0  0
  1  8  1  0  0  0  0
  2  9  1  0  0  0  0
  3 10  1  0  0  0  0
  4  5  1  0  0  0  0
  4 13  1  0  0  0  0
  5  6  2  0  0  0  0
  5  7  1  0  0  0  0
  6 10  1  0  0  0  0
  6 11  1  0  0  0  0
  7  9  2  0  0  0  0
  7 12  1  0  0  0  0
  8  9  1  0  0  0  0
  8 10  2  0  0  0  0
M  END
> <PUBCHEM_COMPOUND_CID>
11859

> <PUBCHEM_COMPOUND_CANONICALIZED>
1

> <PUBCHEM_CACTVS_COMPLEXITY>
108

> <PUBCHEM_CACTVS_HBOND_ACCEPTOR>
1

> <PUBCHEM_CACTVS_HBOND_DONOR>
1

> <PUBCHEM_CACTVS_ROTATABLE_BOND>
0

> <PUBCHEM_CACTVS_SUBSKEYS>
AAADcQBgIAAGAAAAAAAAAAAAAAAAAAAAAAAwAAAAAAAAAAABAAAAGgIACAAACAaAkCAwBoAAAgCAACBCAAACAAAgJQAAikAGCogIJiKDExKAcAAkwBEImAeAQAAAACAAAQCAAAQAQAACAQAACAAAAAAAAA==

> <PUBCHEM_IUPAC_OPENEYE_NAME>
3,4,5-trichlorophenol

> <PUBCHEM_IUPAC_CAS_NAME>
3,4,5-trichlorophenol

> <PUBCHEM_IUPAC_NAME>
3,4,5-trichlorophenol

> <PUBCHEM_IUPAC_SYSTEMATIC_NAME>
3,4,5-tris(chloranyl)phenol

> <PUBCHEM_IUPAC_TRADITIONAL_NAME>
3,4,5-trichlorophenol

> <PUBCHEM_IUPAC_INCHI>
InChI=1S/C6H3Cl3O/c7-4-1-3(10)2-5(8)6(4)9/h1-2,10H

> <PUBCHEM_IUPAC_INCHIKEY>
GBNHEBQXJVDXSW-UHFFFAOYSA-N

> <PUBCHEM_XLOGP3>
4

> <PUBCHEM_EXACT_MASS>
195.924948

> <PUBCHEM_MOLECULAR_FORMULA>
C6H3Cl3O

> <PUBCHEM_MOLECULAR_WEIGHT>
197.44642

> <PUBCHEM_OPENEYE_CAN_SMILES>
C1=C(C=C(C(=C1Cl)Cl)Cl)O

> <PUBCHEM_OPENEYE_ISO_SMILES>
C1=C(C=C(C(=C1Cl)Cl)Cl)O

> <PUBCHEM_CACTVS_TPSA>
20.2

> <PUBCHEM_MONOISOTOPIC_WEIGHT>
195.924948

> <PUBCHEM_TOTAL_CHARGE>
0

> <PUBCHEM_HEAVY_ATOM_COUNT>
10

> <PUBCHEM_ATOM_DEF_STEREO_COUNT>
0

> <PUBCHEM_ATOM_UDEF_STEREO_COUNT>
0

> <PUBCHEM_BOND_DEF_STEREO_COUNT>
0

> <PUBCHEM_BOND_UDEF_STEREO_COUNT>
0

> <PUBCHEM_ISOTOPIC_ATOM_COUNT>
0

> <PUBCHEM_COMPONENT_COUNT>
1

> <PUBCHEM_CACTVS_TAUTO_COUNT>
2

> <PUBCHEM_COORDINATE_TYPE>
1
5
255

> <PUBCHEM_BONDANNOTATIONS>
5  6  8
5  7  8
6  10  8
7  9  8
8  10  8
8  9  8

$$$$

