21820757
  -OEChem-07051213093D

 41 43  0     1  0  0  0  0  0999 V2000
   -4.4222    2.8676   -0.3860 S   0  0  0  0  0  0  0  0  0  0  0  0
    4.8838    1.8064    0.1262 P   0  0  0  0  0  0  0  0  0  0  0  0
    1.5395   -0.7711    1.0209 O   0  0  0  0  0  0  0  0  0  0  0  0
   -0.1012   -2.9152   -1.3522 O   0  0  0  0  0  0  0  0  0  0  0  0
    1.9314   -3.7007    0.2716 O   0  0  0  0  0  0  0  0  0  0  0  0
    3.9701    0.5777    0.6526 O   0  0  0  0  0  0  0  0  0  0  0  0
    6.0929    1.0550   -0.6410 O   0  0  0  0  0  0  0  0  0  0  0  0
    4.0148    2.4410   -1.0810 O   0  0  0  0  0  0  0  0  0  0  0  0
    5.3126    2.7772    1.1873 O   0  0  0  0  0  0  0  0  0  0  0  0
   -0.5896   -0.1632    0.1680 N   0  0  0  0  0  0  0  0  0  0  0  0
   -1.3227    1.9052   -0.2247 N   0  0  0  0  0  0  0  0  0  0  0  0
   -2.7124   -1.3191    0.4091 N   0  0  0  0  0  0  0  0  0  0  0  0
   -4.5921    0.2121    0.1290 N   0  0  0  0  0  0  0  0  0  0  0  0
   -4.9247   -2.0637    0.5728 N   0  0  0  0  0  0  0  0  0  0  0  0
    0.8128   -1.9319   -0.9113 C   0  0  2  0  0  0  0  0  0  0  0  0
    2.1481   -2.5105   -0.4863 C   0  0  1  0  0  0  0  0  0  0  0  0
    0.3500   -1.2629    0.3740 C   0  0  1  0  0  0  0  0  0  0  0  0
    2.6906   -1.4284    0.4420 C   0  0  1  0  0  0  0  0  0  0  0  0
    3.5235   -0.3836   -0.2875 C   0  0  0  0  0  0  0  0  0  0  0  0
   -1.9534   -0.2341    0.1931 C   0  0  0  0  0  0  0  0  0  0  0  0
   -0.2590    1.1417   -0.0858 C   0  0  0  0  0  0  0  0  0  0  0  0
   -2.3886    1.0582   -0.0529 C   0  0  0  0  0  0  0  0  0  0  0  0
   -3.7643    1.2639   -0.0814 C   0  0  0  0  0  0  0  0  0  0  0  0
   -4.0231   -0.9961    0.3578 C   0  0  0  0  0  0  0  0  0  0  0  0
   -6.2168    2.5744   -0.3145 C   0  0  0  0  0  0  0  0  0  0  0  0
    0.9601   -1.1999   -1.7145 H   0  0  0  0  0  0  0  0  0  0  0  0
    2.7999   -2.7630   -1.3274 H   0  0  0  0  0  0  0  0  0  0  0  0
   -0.1344   -1.9715    1.0572 H   0  0  0  0  0  0  0  0  0  0  0  0
    3.2654   -1.8456    1.2766 H   0  0  0  0  0  0  0  0  0  0  0  0
    2.9255    0.1262   -1.0491 H   0  0  0  0  0  0  0  0  0  0  0  0
    4.3860   -0.8568   -0.7667 H   0  0  0  0  0  0  0  0  0  0  0  0
   -0.9450   -2.4700   -1.5390 H   0  0  0  0  0  0  0  0  0  0  0  0
    2.8017   -4.0185    0.5673 H   0  0  0  0  0  0  0  0  0  0  0  0
    0.7650    1.4809   -0.1640 H   0  0  0  0  0  0  0  0  0  0  0  0
    6.8437    1.5876   -0.9797 H   0  0  0  0  0  0  0  0  0  0  0  0
    4.3375    3.2565   -1.5204 H   0  0  0  0  0  0  0  0  0  0  0  0
   -5.9193   -1.8863    0.5470 H   0  0  0  0  0  0  0  0  0  0  0  0
   -4.5633   -2.9909    0.7491 H   0  0  0  0  0  0  0  0  0  0  0  0
   -6.7386    3.5184   -0.4928 H   0  0  0  0  0  0  0  0  0  0  0  0
   -6.5044    2.1988    0.6712 H   0  0  0  0  0  0  0  0  0  0  0  0
   -6.5188    1.8593   -1.0845 H   0  0  0  0  0  0  0  0  0  0  0  0
  1 23  1  0  0  0  0
  1 25  1  0  0  0  0
  2  6  1  0  0  0  0
  2  7  1  0  0  0  0
  2  8  1  0  0  0  0
  2  9  2  0  0  0  0
  3 17  1  0  0  0  0
  3 18  1  0  0  0  0
  4 15  1  0  0  0  0
  4 32  1  0  0  0  0
  5 16  1  0  0  0  0
  5 33  1  0  0  0  0
  6 19  1  0  0  0  0
  7 35  1  0  0  0  0
  8 36  1  0  0  0  0
 10 17  1  0  0  0  0
 10 20  1  0  0  0  0
 10 21  1  0  0  0  0
 11 21  2  0  0  0  0
 11 22  1  0  0  0  0
 12 20  1  0  0  0  0
 12 24  2  0  0  0  0
 13 23  2  0  0  0  0
 13 24  1  0  0  0  0
 14 24  1  0  0  0  0
 14 37  1  0  0  0  0
 14 38  1  0  0  0  0
 15 16  1  0  0  0  0
 15 17  1  0  0  0  0
 15 26  1  0  0  0  0
 16 18  1  0  0  0  0
 16 27  1  0  0  0  0
 17 28  1  0  0  0  0
 18 19  1  0  0  0  0
 18 29  1  0  0  0  0
 19 30  1  0  0  0  0
 19 31  1  0  0  0  0
 20 22  2  0  0  0  0
 21 34  1  0  0  0  0
 22 23  1  0  0  0  0
 25 39  1  0  0  0  0
 25 40  1  0  0  0  0
 25 41  1  0  0  0  0
M  END
> <PUBCHEM_COMPOUND_CID>
21820757

> <PUBCHEM_CONFORMER_RMSD>
0.8

> <PUBCHEM_CONFORMER_DIVERSEORDER>
1
95
50
36
22
117
32
97
122
107
108
71
89
35
74
12
94
43
33
25
47
111
15
90
30
109
75
54
4
23
24
86
91
65
105
28
76
119
2
79
11
56
103
116
123
104
55
92
26
60
102
3
87
18
115
40
14
114
84
6
93
88
17
59
42
118
21
5
120
106
98
61
113
53
51
48
19
68
99
39
46
31
72
20
67
81
70
57
73
83
16
10
80
63
52
9
13
58
85
82
29
37
96
110
64
62
66
44
101
41
45
27
78
69
8
34
77
7
112
49
38
121
100

> <PUBCHEM_MMFF94_PARTIAL_CHARGES>
32
1 -0.33
10 0.05
11 -0.57
12 -0.57
13 -0.62
14 -0.9
15 0.28
16 0.28
17 0.54
18 0.28
19 0.28
2 1.51
20 0.11
21 0.04
22 0.23
23 0.41
24 0.72
25 0.23
3 -0.56
32 0.4
33 0.4
34 0.15
35 0.5
36 0.5
37 0.4
38 0.4
4 -0.68
5 -0.68
6 -0.55
7 -0.77
8 -0.77
9 -0.7

> <PUBCHEM_EFFECTIVE_ROTOR_COUNT>
6

> <PUBCHEM_PHARMACOPHORE_FEATURES>
17
1 13 acceptor
1 14 donor
1 25 hydrophobe
1 3 acceptor
1 4 acceptor
1 4 donor
1 5 acceptor
1 5 donor
1 7 acceptor
1 8 acceptor
1 9 acceptor
3 10 11 21 cation
4 12 13 14 24 cation
4 2 7 8 9 anion
5 10 11 20 21 22 rings
5 3 15 16 17 18 rings
6 12 13 20 22 23 24 rings

> <PUBCHEM_HEAVY_ATOM_COUNT>
25

> <PUBCHEM_ATOM_DEF_STEREO_COUNT>
4

> <PUBCHEM_ATOM_UDEF_STEREO_COUNT>
0

> <PUBCHEM_BOND_DEF_STEREO_COUNT>
0

> <PUBCHEM_BOND_UDEF_STEREO_COUNT>
0

> <PUBCHEM_ISOTOPIC_ATOM_COUNT>
0

> <PUBCHEM_COMPONENT_COUNT>
1

> <PUBCHEM_CACTVS_TAUTO_COUNT>
3

> <PUBCHEM_CONFORMER_ID>
014CF55500000001

> <PUBCHEM_MMFF94_ENERGY>
23.2377

> <PUBCHEM_FEATURE_SELFOVERLAP>
86.447

> <PUBCHEM_SHAPE_FINGERPRINT>
10090160 65 18272374114004690306
10411042 1 17184753490146829270
10498660 4 18408318904373473256
10906281 52 18270382924696256683
11578080 2 16700920329908520079
12403259 118 18341345434916867658
12925494 130 18409452526743063745
14341114 328 17417817206061392368
14528608 73 18334580161003470669
1454969 45 18263926536531107847
14787075 74 18271244894008915963
14790565 3 18338232644284307456
15196674 1 18412262852223239362
15375358 24 18265054824544878631
15961568 22 18202562912322001988
17980427 23 17774997964574469349
19591789 44 18049159964847359521
21033648 144 18270689778239444741
21033648 29 18261967241175593392
21065198 57 18195246839491890491
21304253 335 18200868577983296509
21859007 373 16986041369441240909
23227448 37 18044941165023593828
23558518 356 17248637812927740057
23559900 14 18193560201234036722
245318 6 17343765016253013020
2838139 119 18335709291406123788
3298306 158 18334859394271126668
34797466 226 17967527995696413117
34934 24 18412266177034322071
474 4 18131627864269201116
5104073 3 18272086149511263689
550186 72 18266742377198802069
7808743 9 18192718830837756456
9709674 26 18046625891694622415
9981440 41 18343299232588273554

> <PUBCHEM_SHAPE_MULTIPOLES>
456.2
12.79
3.87
0.89
0.71
0.55
-0.07
-11
0.27
-1.29
-0.4
-0.52
0.06
1.05

> <PUBCHEM_SHAPE_SELFOVERLAP>
945.769

> <PUBCHEM_SHAPE_VOLUME>
264.8

> <PUBCHEM_COORDINATE_TYPE>
2
5
10

$$$$

