5283833
  -OEChem-07051213103D

 68 71  0     1  0  0  0  0  0999 V2000
    0.6779    1.6825   -1.0304 O   0  0  0  0  0  0  0  0  0  0  0  0
   -5.8695    0.2884   -2.4189 O   0  0  0  0  0  0  0  0  0  0  0  0
    6.6279   -0.0555   -2.7064 O   0  0  0  0  0  0  0  0  0  0  0  0
    7.3479   -0.6855   -0.6470 O   0  0  0  0  0  0  0  0  0  0  0  0
    1.0559    0.2178    0.9092 C   0  0  1  0  0  0  0  0  0  0  0  0
    0.3329   -0.9777    0.2432 C   0  0  2  0  0  0  0  0  0  0  0  0
   -1.1696   -1.0169    0.5497 C   0  0  1  0  0  0  0  0  0  0  0  0
   -1.8229    0.3091    0.0414 C   0  0  1  0  0  0  0  0  0  0  0  0
   -3.3814    0.3216    0.2712 C   0  0  2  0  0  0  0  0  0  0  0  0
    2.5063   -0.1054    0.4603 C   0  0  2  0  0  0  0  0  0  0  0  0
    0.4432    1.5282    0.3691 C   0  0  2  0  0  0  0  0  0  0  0  0
   -1.0844    1.5635    0.5863 C   0  0  0  0  0  0  0  0  0  0  0  0
   -3.9667   -0.9426   -0.4366 C   0  0  1  0  0  0  0  0  0  0  0  0
    1.1885   -2.1825    0.6307 C   0  0  0  0  0  0  0  0  0  0  0  0
   -1.8375   -2.2465   -0.0834 C   0  0  0  0  0  0  0  0  0  0  0  0
    2.6254   -1.6327    0.6687 C   0  0  0  0  0  0  0  0  0  0  0  0
   -3.3542   -2.2441    0.0932 C   0  0  0  0  0  0  0  0  0  0  0  0
   -4.0235    1.5728   -0.3931 C   0  0  0  0  0  0  0  0  0  0  0  0
    0.9515    0.2203    2.4590 C   0  0  0  0  0  0  0  0  0  0  0  0
    3.6164    0.6768    1.1471 C   0  0  1  0  0  0  0  0  0  0  0  0
   -5.5036   -0.9928   -0.4011 C   0  0  0  0  0  0  0  0  0  0  0  0
   -3.7143    0.3477    1.7852 C   0  0  0  0  0  0  0  0  0  0  0  0
   -5.5576    1.5452   -0.4040 C   0  0  0  0  0  0  0  0  0  0  0  0
   -6.1221    0.2652   -1.0140 C   0  0  1  0  0  0  0  0  0  0  0  0
    4.9929    0.2147    0.6266 C   0  0  0  0  0  0  0  0  0  0  0  0
    3.4014    2.1807    0.9459 C   0  0  0  0  0  0  0  0  0  0  0  0
    5.1529    0.3412   -0.8897 C   0  0  0  0  0  0  0  0  0  0  0  0
    6.4862   -0.1935   -1.3620 C   0  0  0  0  0  0  0  0  0  0  0  0
    0.4269   -0.8825   -0.8511 H   0  0  0  0  0  0  0  0  0  0  0  0
   -1.3048   -1.1023    1.6325 H   0  0  0  0  0  0  0  0  0  0  0  0
   -1.6740    0.3298   -1.0499 H   0  0  0  0  0  0  0  0  0  0  0  0
    2.5514    0.0697   -0.6206 H   0  0  0  0  0  0  0  0  0  0  0  0
    0.8341    2.4192    0.8604 H   0  0  0  0  0  0  0  0  0  0  0  0
   -1.4753    2.4527    0.0781 H   0  0  0  0  0  0  0  0  0  0  0  0
   -1.2923    1.6908    1.6529 H   0  0  0  0  0  0  0  0  0  0  0  0
   -3.6755   -0.8904   -1.4961 H   0  0  0  0  0  0  0  0  0  0  0  0
    1.0954   -2.9980   -0.0939 H   0  0  0  0  0  0  0  0  0  0  0  0
    0.9049   -2.5784    1.6123 H   0  0  0  0  0  0  0  0  0  0  0  0
   -1.4333   -3.1645    0.3589 H   0  0  0  0  0  0  0  0  0  0  0  0
   -1.6028   -2.2845   -1.1551 H   0  0  0  0  0  0  0  0  0  0  0  0
    3.0880   -1.8866    1.6292 H   0  0  0  0  0  0  0  0  0  0  0  0
    3.2339   -2.0888   -0.1199 H   0  0  0  0  0  0  0  0  0  0  0  0
   -3.7714   -3.1002   -0.4510 H   0  0  0  0  0  0  0  0  0  0  0  0
   -3.6095   -2.3947    1.1482 H   0  0  0  0  0  0  0  0  0  0  0  0
   -3.6556    1.6750   -1.4217 H   0  0  0  0  0  0  0  0  0  0  0  0
   -3.7114    2.4844    0.1307 H   0  0  0  0  0  0  0  0  0  0  0  0
    1.4263    1.1080    2.8890 H   0  0  0  0  0  0  0  0  0  0  0  0
   -0.0831    0.2263    2.8120 H   0  0  0  0  0  0  0  0  0  0  0  0
    1.4303   -0.6521    2.9144 H   0  0  0  0  0  0  0  0  0  0  0  0
    3.6154    0.4807    2.2265 H   0  0  0  0  0  0  0  0  0  0  0  0
   -5.8405   -1.8676   -0.9717 H   0  0  0  0  0  0  0  0  0  0  0  0
   -5.8630   -1.1255    0.6252 H   0  0  0  0  0  0  0  0  0  0  0  0
   -3.3906    1.2867    2.2463 H   0  0  0  0  0  0  0  0  0  0  0  0
   -4.7875    0.2649    1.9776 H   0  0  0  0  0  0  0  0  0  0  0  0
   -3.2377   -0.4660    2.3371 H   0  0  0  0  0  0  0  0  0  0  0  0
   -5.9370    1.6626    0.6173 H   0  0  0  0  0  0  0  0  0  0  0  0
   -5.9115    2.4128   -0.9745 H   0  0  0  0  0  0  0  0  0  0  0  0
   -7.2094    0.2411   -0.8872 H   0  0  0  0  0  0  0  0  0  0  0  0
    1.6146    1.8850   -1.1722 H   0  0  0  0  0  0  0  0  0  0  0  0
    5.7781    0.8023    1.1207 H   0  0  0  0  0  0  0  0  0  0  0  0
    5.1762   -0.8235    0.9304 H   0  0  0  0  0  0  0  0  0  0  0  0
    3.1743    2.4525   -0.0856 H   0  0  0  0  0  0  0  0  0  0  0  0
    2.6526    2.5834    1.6282 H   0  0  0  0  0  0  0  0  0  0  0  0
    4.3242    2.7156    1.2043 H   0  0  0  0  0  0  0  0  0  0  0  0
   -4.9175    0.3874   -2.5763 H   0  0  0  0  0  0  0  0  0  0  0  0
    4.3991   -0.2410   -1.4254 H   0  0  0  0  0  0  0  0  0  0  0  0
    5.0839    1.3908   -1.1928 H   0  0  0  0  0  0  0  0  0  0  0  0
    7.4924   -0.3973   -3.0196 H   0  0  0  0  0  0  0  0  0  0  0  0
  1 11  1  0  0  0  0
  1 59  1  0  0  0  0
  2 24  1  0  0  0  0
  2 65  1  0  0  0  0
  3 28  1  0  0  0  0
  3 68  1  0  0  0  0
  4 28  2  0  0  0  0
  5  6  1  0  0  0  0
  5 10  1  0  0  0  0
  5 11  1  0  0  0  0
  5 19  1  0  0  0  0
  6  7  1  0  0  0  0
  6 14  1  0  0  0  0
  6 29  1  0  0  0  0
  7  8  1  0  0  0  0
  7 15  1  0  0  0  0
  7 30  1  0  0  0  0
  8  9  1  0  0  0  0
  8 12  1  0  0  0  0
  8 31  1  0  0  0  0
  9 13  1  0  0  0  0
  9 18  1  0  0  0  0
  9 22  1  0  0  0  0
 10 16  1  0  0  0  0
 10 20  1  0  0  0  0
 10 32  1  0  0  0  0
 11 12  1  0  0  0  0
 11 33  1  0  0  0  0
 12 34  1  0  0  0  0
 12 35  1  0  0  0  0
 13 17  1  0  0  0  0
 13 21  1  0  0  0  0
 13 36  1  0  0  0  0
 14 16  1  0  0  0  0
 14 37  1  0  0  0  0
 14 38  1  0  0  0  0
 15 17  1  0  0  0  0
 15 39  1  0  0  0  0
 15 40  1  0  0  0  0
 16 41  1  0  0  0  0
 16 42  1  0  0  0  0
 17 43  1  0  0  0  0
 17 44  1  0  0  0  0
 18 23  1  0  0  0  0
 18 45  1  0  0  0  0
 18 46  1  0  0  0  0
 19 47  1  0  0  0  0
 19 48  1  0  0  0  0
 19 49  1  0  0  0  0
 20 25  1  0  0  0  0
 20 26  1  0  0  0  0
 20 50  1  0  0  0  0
 21 24  1  0  0  0  0
 21 51  1  0  0  0  0
 21 52  1  0  0  0  0
 22 53  1  0  0  0  0
 22 54  1  0  0  0  0
 22 55  1  0  0  0  0
 23 24  1  0  0  0  0
 23 56  1  0  0  0  0
 23 57  1  0  0  0  0
 24 58  1  0  0  0  0
 25 27  1  0  0  0  0
 25 60  1  0  0  0  0
 25 61  1  0  0  0  0
 26 62  1  0  0  0  0
 26 63  1  0  0  0  0
 26 64  1  0  0  0  0
 27 28  1  0  0  0  0
 27 66  1  0  0  0  0
 27 67  1  0  0  0  0
M  END
> <PUBCHEM_COMPOUND_CID>
5283833

> <PUBCHEM_CONFORMER_RMSD>
0.8

> <PUBCHEM_CONFORMER_DIVERSEORDER>
3
5
1
4
2

> <PUBCHEM_MMFF94_PARTIAL_CHARGES>
11
1 -0.68
11 0.28
2 -0.68
24 0.28
27 0.06
28 0.66
3 -0.65
4 -0.57
59 0.4
65 0.4
68 0.5

> <PUBCHEM_EFFECTIVE_ROTOR_COUNT>
6.2

> <PUBCHEM_PHARMACOPHORE_FEATURES>
12
1 1 acceptor
1 1 donor
1 2 acceptor
1 2 donor
1 26 hydrophobe
1 3 acceptor
1 4 acceptor
3 3 4 28 anion
5 5 6 10 14 16 rings
6 5 6 7 8 11 12 rings
6 7 8 9 13 15 17 rings
6 9 13 18 21 23 24 rings

> <PUBCHEM_HEAVY_ATOM_COUNT>
28

> <PUBCHEM_ATOM_DEF_STEREO_COUNT>
10

> <PUBCHEM_ATOM_UDEF_STEREO_COUNT>
0

> <PUBCHEM_BOND_DEF_STEREO_COUNT>
0

> <PUBCHEM_BOND_UDEF_STEREO_COUNT>
0

> <PUBCHEM_ISOTOPIC_ATOM_COUNT>
0

> <PUBCHEM_COMPONENT_COUNT>
1

> <PUBCHEM_CACTVS_TAUTO_COUNT>
1

> <PUBCHEM_CONFORMER_ID>
00509FF900000003

> <PUBCHEM_MMFF94_ENERGY>
97.6657

> <PUBCHEM_FEATURE_SELFOVERLAP>
61.038

> <PUBCHEM_SHAPE_FINGERPRINT>
10366900 7 17822020804546165411
10554248 39 17702688650956808406
10670039 82 18341613754193070308
10693767 8 17822575023005784078
10906281 52 17774995838623796481
11315181 36 17603585214095264153
11578080 2 17416137306527741399
12011746 2 18333736814305035727
12236239 1 17418099818718977267
12788726 201 17677336142635873145
12954195 1 17968648436641897736
13540713 4 18119815703029331451
13668630 136 16081085987373309206
13690498 29 18195804068639142199
13782708 43 16225765207528752950
14528608 73 18410863139582577617
14840074 17 17275101721666862510
14931854 50 18262250992690088333
14955137 171 18198041617397379153
15183329 4 18334852840646573762
15196674 1 18410303531746806419
1601671 61 18271816717274833505
17349148 13 18113629984530772891
18681886 176 18337962190077322352
2026 5 16733258045182364142
20567600 247 16081086004664169190
21267235 1 18336824200412586771
21279426 13 18335985277018828848
21304303 64 15339113520526209014
21307412 95 17968641775501303310
21637258 2 15574433236970731918
21682296 61 16588290727220778508
22122407 14 15841539786944791060
2215653 11 18113053835836902414
22393880 68 18335708195567120562
23559900 14 18188779340129906552
23569914 152 16957599292125207277
23569943 247 17024296634156078878
29717793 49 17530685394261398160
3004659 81 18410858750806567656
335352 9 18410300211056383492
34797466 226 17967817094060829928
34934 24 18201729469891588891
3545911 37 18411986845378304035
4058900 60 17845935233573552891
437815 12 17458338650657172944
465052 167 14634873024443170260
5104073 3 18341059583690457307
6328613 192 18131066022211757100
7495541 125 5400791812963499899

> <PUBCHEM_SHAPE_MULTIPOLES>
552.75
15.73
2.07
1.69
10.17
0.36
0.4
-0.39
10.2
-0.85
-0.26
1.09
-0.19
0.64

> <PUBCHEM_SHAPE_SELFOVERLAP>
1158.581

> <PUBCHEM_SHAPE_VOLUME>
308.7

> <PUBCHEM_COORDINATE_TYPE>
2
5
10

$$$$

