6018
  -OEChem-07051213013D

 50 52  0     1  0  0  0  0  0999 V2000
    2.1525   -2.0472    0.2632 O   0  0  0  0  0  0  0  0  0  0  0  0
   -3.4368   -2.2015   -0.4921 O   0  0  0  0  0  0  0  0  0  0  0  0
   -4.7281   -0.2002    0.9361 O   0  0  0  0  0  0  0  0  0  0  0  0
    1.2149    1.8266   -0.5154 N   0  0  2  0  0  0  0  0  0  0  0  0
    0.4822    0.7351   -1.2050 C   0  0  1  0  0  0  0  0  0  0  0  0
    2.7194    0.2454    0.7137 C   0  0  1  0  0  0  0  0  0  0  0  0
    1.7447    1.4253    0.7992 C   0  0  0  0  0  0  0  0  0  0  0  0
    1.4269   -0.4663   -1.3891 C   0  0  0  0  0  0  0  0  0  0  0  0
    0.3675    3.0215   -0.4315 C   0  0  0  0  0  0  0  0  0  0  0  0
   -0.8914    0.4454   -0.5995 C   0  0  0  0  0  0  0  0  0  0  0  0
    2.0757   -0.8704   -0.0854 C   0  0  0  0  0  0  0  0  0  0  0  0
    4.0600    0.6276    0.0937 C   0  0  0  0  0  0  0  0  0  0  0  0
   -0.9195    2.8016    0.3665 C   0  0  0  0  0  0  0  0  0  0  0  0
   -1.5702    1.4655    0.1031 C   0  0  0  0  0  0  0  0  0  0  0  0
    5.0926   -0.5110    0.1182 C   0  0  0  0  0  0  0  0  0  0  0  0
   -1.5533   -0.7763   -0.8013 C   0  0  0  0  0  0  0  0  0  0  0  0
   -2.8528    1.2304    0.6233 C   0  0  0  0  0  0  0  0  0  0  0  0
    5.3656   -1.0212    1.5338 C   0  0  0  0  0  0  0  0  0  0  0  0
    4.6099   -1.6652   -0.7635 C   0  0  0  0  0  0  0  0  0  0  0  0
   -2.8323   -0.9973   -0.2844 C   0  0  0  0  0  0  0  0  0  0  0  0
   -3.4803    0.0032    0.4306 C   0  0  0  0  0  0  0  0  0  0  0  0
   -3.2163   -3.2148    0.4867 C   0  0  0  0  0  0  0  0  0  0  0  0
   -5.8310    0.1436    0.0992 C   0  0  0  0  0  0  0  0  0  0  0  0
    0.2649    1.0889   -2.2240 H   0  0  0  0  0  0  0  0  0  0  0  0
    2.8612   -0.1137    1.7392 H   0  0  0  0  0  0  0  0  0  0  0  0
    0.9341    1.1472    1.4843 H   0  0  0  0  0  0  0  0  0  0  0  0
    2.2625    2.2759    1.2605 H   0  0  0  0  0  0  0  0  0  0  0  0
    2.2229   -0.1875   -2.0893 H   0  0  0  0  0  0  0  0  0  0  0  0
    0.9319   -1.3358   -1.8286 H   0  0  0  0  0  0  0  0  0  0  0  0
    0.1098    3.3376   -1.4515 H   0  0  0  0  0  0  0  0  0  0  0  0
    0.9303    3.8607   -0.0042 H   0  0  0  0  0  0  0  0  0  0  0  0
    3.9341    0.9750   -0.9393 H   0  0  0  0  0  0  0  0  0  0  0  0
    4.4767    1.4785    0.6487 H   0  0  0  0  0  0  0  0  0  0  0  0
   -1.6244    3.6063    0.1239 H   0  0  0  0  0  0  0  0  0  0  0  0
   -0.7012    2.8692    1.4397 H   0  0  0  0  0  0  0  0  0  0  0  0
    6.0280   -0.1156   -0.2977 H   0  0  0  0  0  0  0  0  0  0  0  0
   -1.0918   -1.5742   -1.3750 H   0  0  0  0  0  0  0  0  0  0  0  0
   -3.3615    2.0128    1.1824 H   0  0  0  0  0  0  0  0  0  0  0  0
    5.6301   -0.1942    2.2008 H   0  0  0  0  0  0  0  0  0  0  0  0
    6.2088   -1.7210    1.5237 H   0  0  0  0  0  0  0  0  0  0  0  0
    4.5124   -1.5525    1.9662 H   0  0  0  0  0  0  0  0  0  0  0  0
    4.1950   -2.5116   -0.2162 H   0  0  0  0  0  0  0  0  0  0  0  0
    5.5111   -2.1056   -1.2168 H   0  0  0  0  0  0  0  0  0  0  0  0
    4.0135   -1.3662   -1.6254 H   0  0  0  0  0  0  0  0  0  0  0  0
   -2.1516   -3.4612    0.5503 H   0  0  0  0  0  0  0  0  0  0  0  0
   -3.7649   -4.1103    0.1825 H   0  0  0  0  0  0  0  0  0  0  0  0
   -3.5867   -2.8928    1.4651 H   0  0  0  0  0  0  0  0  0  0  0  0
   -5.8164    1.2130   -0.1340 H   0  0  0  0  0  0  0  0  0  0  0  0
   -6.7542   -0.0843    0.6388 H   0  0  0  0  0  0  0  0  0  0  0  0
   -5.8116   -0.4432   -0.8246 H   0  0  0  0  0  0  0  0  0  0  0  0
  1 11  2  0  0  0  0
  2 20  1  0  0  0  0
  2 22  1  0  0  0  0
  3 21  1  0  0  0  0
  3 23  1  0  0  0  0
  4  5  1  0  0  0  0
  4  7  1  0  0  0  0
  4  9  1  0  0  0  0
  5  8  1  0  0  0  0
  5 10  1  0  0  0  0
  5 24  1  0  0  0  0
  6  7  1  0  0  0  0
  6 11  1  0  0  0  0
  6 12  1  0  0  0  0
  6 25  1  0  0  0  0
  7 26  1  0  0  0  0
  7 27  1  0  0  0  0
  8 11  1  0  0  0  0
  8 28  1  0  0  0  0
  8 29  1  0  0  0  0
  9 13  1  0  0  0  0
  9 30  1  0  0  0  0
  9 31  1  0  0  0  0
 10 14  1  0  0  0  0
 10 16  2  0  0  0  0
 12 15  1  0  0  0  0
 12 32  1  0  0  0  0
 12 33  1  0  0  0  0
 13 14  1  0  0  0  0
 13 34  1  0  0  0  0
 13 35  1  0  0  0  0
 14 17  2  0  0  0  0
 15 18  1  0  0  0  0
 15 19  1  0  0  0  0
 15 36  1  0  0  0  0
 16 20  1  0  0  0  0
 16 37  1  0  0  0  0
 17 21  1  0  0  0  0
 17 38  1  0  0  0  0
 18 39  1  0  0  0  0
 18 40  1  0  0  0  0
 18 41  1  0  0  0  0
 19 42  1  0  0  0  0
 19 43  1  0  0  0  0
 19 44  1  0  0  0  0
 20 21  2  0  0  0  0
 22 45  1  0  0  0  0
 22 46  1  0  0  0  0
 22 47  1  0  0  0  0
 23 48  1  0  0  0  0
 23 49  1  0  0  0  0
 23 50  1  0  0  0  0
M  END
> <PUBCHEM_COMPOUND_CID>
6018

> <PUBCHEM_CONFORMER_RMSD>
0.8

> <PUBCHEM_CONFORMER_DIVERSEORDER>
1
5
7
3
4
6
2

> <PUBCHEM_MMFF94_PARTIAL_CHARGES>
21
1 -0.57
10 -0.14
11 0.45
13 0.14
14 -0.14
16 -0.15
17 -0.15
2 -0.36
20 0.08
21 0.08
22 0.28
23 0.28
3 -0.36
37 0.15
38 0.15
4 -0.81
5 0.41
6 0.06
7 0.27
8 0.06
9 0.27

> <PUBCHEM_EFFECTIVE_ROTOR_COUNT>
5

> <PUBCHEM_PHARMACOPHORE_FEATURES>
8
1 1 acceptor
1 2 acceptor
1 3 acceptor
1 4 cation
3 15 18 19 hydrophobe
6 10 14 16 17 20 21 rings
6 4 5 6 7 8 11 rings
6 4 5 9 10 13 14 rings

> <PUBCHEM_HEAVY_ATOM_COUNT>
23

> <PUBCHEM_ATOM_DEF_STEREO_COUNT>
0

> <PUBCHEM_ATOM_UDEF_STEREO_COUNT>
2

> <PUBCHEM_BOND_DEF_STEREO_COUNT>
0

> <PUBCHEM_BOND_UDEF_STEREO_COUNT>
0

> <PUBCHEM_ISOTOPIC_ATOM_COUNT>
0

> <PUBCHEM_COMPONENT_COUNT>
1

> <PUBCHEM_CACTVS_TAUTO_COUNT>
3

> <PUBCHEM_CONFORMER_ID>
0000178200000001

> <PUBCHEM_MMFF94_ENERGY>
90.7739

> <PUBCHEM_FEATURE_SELFOVERLAP>
40.696

> <PUBCHEM_SHAPE_FINGERPRINT>
10366900 7 17822300097267954691
1100329 8 18340201899916758819
11370993 144 17313660581030711834
11552529 35 17604155839166279991
11796584 16 17418089914967355219
12011746 2 18335140933519054381
12236239 1 17846213375533945221
12251169 10 18261109677591764629
12553582 1 18341059583020608251
12633257 1 18113897160764900545
12670546 177 12247676062994384153
12714826 92 17846505858802051269
12788726 201 18272089464862486777
12916748 109 8862942792316476837
13140716 1 18263358106088075169
13544653 18 18201722829771883044
13583140 156 4750864957846188878
13675066 3 17749399204272266712
13911987 19 14763473064570285150
14081887 123 18336272352733003546
14341114 176 18334288773484548050
14341114 328 18410008836681183064
14787075 74 18201155439312881644
14790565 3 17546161905407972884
15196674 1 18337673001270587571
15209289 33 18272368689560988786
15375462 189 18201723959306058034
15527383 91 18334860506635793520
16945 1 18263939872251483516
17349148 13 17489582407442239618
17492 89 18051129194927148675
1813 80 17846210094616826972
19141452 34 18334012783402821751
200 152 16271927146943751188
20600515 1 18261380174648280861
21267235 1 18410283735561842535
22122407 14 15647052646721808347
22950370 63 18412540994816998782
23366157 5 17984133756386133781
23402539 116 18335991912463862838
23557571 272 18115578378795456748
23559900 14 18337677408160526833
23622692 118 18117003170088257399
23622692 88 18335419075975520781
335352 9 18410291407201693101
4340502 62 13912319075815423389
5104073 3 18262519178267670467
5486654 36 18201151041039920451
9709674 26 18125157135229116179

> <PUBCHEM_SHAPE_MULTIPOLES>
450.74
10.53
2.88
1.09
1.26
0.1
-0.02
-5.51
2.9
-1.34
0.11
0.61
-0.1
-0.11

> <PUBCHEM_SHAPE_SELFOVERLAP>
950.6

> <PUBCHEM_SHAPE_VOLUME>
253.3

> <PUBCHEM_COORDINATE_TYPE>
2
5
10

$$$$

