6450191
  -OEChem-07051213103D

 34 36  0     1  0  0  0  0  0999 V2000
   -0.0764   -1.8302   -0.6396 O   0  0  0  0  0  0  0  0  0  0  0  0
    2.6945    1.6371   -0.1226 O   0  0  0  0  0  0  0  0  0  0  0  0
   -2.1998   -1.9654   -1.5137 O   0  0  0  0  0  0  0  0  0  0  0  0
    0.4980   -1.3227    0.5791 C   0  0  1  0  0  0  0  0  0  0  0  0
    1.5244   -0.2563    0.2945 C   0  0  0  0  0  0  0  0  0  0  0  0
    1.4513    1.1343    0.1573 C   0  0  0  0  0  0  0  0  0  0  0  0
   -1.8028   -1.0231    0.6492 C   0  0  0  0  0  0  0  0  0  0  0  0
   -0.6799   -0.8978    1.3603 C   0  0  0  0  0  0  0  0  0  0  0  0
   -3.1384   -0.4141    0.9293 C   0  0  0  0  0  0  0  0  0  0  0  0
    0.4038    2.2107    0.2591 C   0  0  0  0  0  0  0  0  0  0  0  0
    2.9030   -0.5761    0.0675 C   0  0  0  0  0  0  0  0  0  0  0  0
   -3.2643    0.9819    0.2667 C   0  0  0  0  0  0  0  0  0  0  0  0
   -0.9608    1.8967   -0.3130 C   0  0  0  0  0  0  0  0  0  0  0  0
   -1.4315   -1.6614   -0.6180 C   0  0  0  0  0  0  0  0  0  0  0  0
   -2.0069    1.7729    0.5310 C   0  0  0  0  0  0  0  0  0  0  0  0
    3.5588    0.6010   -0.1767 C   0  0  0  0  0  0  0  0  0  0  0  0
    3.5249   -1.9159    0.0818 C   0  0  0  0  0  0  0  0  0  0  0  0
   -0.9979    1.6284   -1.7924 C   0  0  0  0  0  0  0  0  0  0  0  0
    0.9687   -2.1680    1.0949 H   0  0  0  0  0  0  0  0  0  0  0  0
   -0.6194   -0.4104    2.3240 H   0  0  0  0  0  0  0  0  0  0  0  0
   -3.9432   -1.0693    0.5777 H   0  0  0  0  0  0  0  0  0  0  0  0
   -3.2731   -0.3108    2.0139 H   0  0  0  0  0  0  0  0  0  0  0  0
    0.3273    2.4791    1.3214 H   0  0  0  0  0  0  0  0  0  0  0  0
    0.7709    3.1177   -0.2406 H   0  0  0  0  0  0  0  0  0  0  0  0
   -4.1267    1.5145    0.6826 H   0  0  0  0  0  0  0  0  0  0  0  0
   -3.4605    0.8590   -0.8022 H   0  0  0  0  0  0  0  0  0  0  0  0
   -1.8619    2.0302    1.5800 H   0  0  0  0  0  0  0  0  0  0  0  0
    4.5851    0.8572   -0.3963 H   0  0  0  0  0  0  0  0  0  0  0  0
    3.4995   -2.3405    1.0905 H   0  0  0  0  0  0  0  0  0  0  0  0
    2.9967   -2.5963   -0.5941 H   0  0  0  0  0  0  0  0  0  0  0  0
    4.5714   -1.8763   -0.2385 H   0  0  0  0  0  0  0  0  0  0  0  0
   -0.5539    2.4730   -2.3311 H   0  0  0  0  0  0  0  0  0  0  0  0
   -2.0113    1.5102   -2.1822 H   0  0  0  0  0  0  0  0  0  0  0  0
   -0.4302    0.7290   -2.0465 H   0  0  0  0  0  0  0  0  0  0  0  0
  1  4  1  0  0  0  0
  1 14  1  0  0  0  0
  2  6  1  0  0  0  0
  2 16  1  0  0  0  0
  3 14  2  0  0  0  0
  4  5  1  0  0  0  0
  4  8  1  0  0  0  0
  4 19  1  0  0  0  0
  5  6  2  0  0  0  0
  5 11  1  0  0  0  0
  6 10  1  0  0  0  0
  7  8  2  0  0  0  0
  7  9  1  0  0  0  0
  7 14  1  0  0  0  0
  8 20  1  0  0  0  0
  9 12  1  0  0  0  0
  9 21  1  0  0  0  0
  9 22  1  0  0  0  0
 10 13  1  0  0  0  0
 10 23  1  0  0  0  0
 10 24  1  0  0  0  0
 11 16  2  0  0  0  0
 11 17  1  0  0  0  0
 12 15  1  0  0  0  0
 12 25  1  0  0  0  0
 12 26  1  0  0  0  0
 13 15  2  0  0  0  0
 13 18  1  0  0  0  0
 15 27  1  0  0  0  0
 16 28  1  0  0  0  0
 17 29  1  0  0  0  0
 17 30  1  0  0  0  0
 17 31  1  0  0  0  0
 18 32  1  0  0  0  0
 18 33  1  0  0  0  0
 18 34  1  0  0  0  0
M  END
> <PUBCHEM_COMPOUND_CID>
6450191

> <PUBCHEM_CONFORMER_RMSD>
0.6

> <PUBCHEM_CONFORMER_DIVERSEORDER>
1
3
2

> <PUBCHEM_MMFF94_PARTIAL_CHARGES>
21
1 -0.43
10 0.32
11 -0.18
12 0.14
13 -0.28
14 0.71
15 -0.29
16 -0.01
17 0.18
18 0.14
2 -0.28
20 0.15
27 0.15
28 0.15
3 -0.57
4 0.6
5 -0.18
6 -0.04
7 -0.12
8 -0.29
9 0.14

> <PUBCHEM_EFFECTIVE_ROTOR_COUNT>
0.8

> <PUBCHEM_PHARMACOPHORE_FEATURES>
4
1 2 acceptor
1 3 acceptor
5 1 4 7 8 14 rings
5 2 5 6 11 16 rings

> <PUBCHEM_HEAVY_ATOM_COUNT>
18

> <PUBCHEM_ATOM_DEF_STEREO_COUNT>
1

> <PUBCHEM_ATOM_UDEF_STEREO_COUNT>
0

> <PUBCHEM_BOND_DEF_STEREO_COUNT>
1

> <PUBCHEM_BOND_UDEF_STEREO_COUNT>
0

> <PUBCHEM_ISOTOPIC_ATOM_COUNT>
0

> <PUBCHEM_COMPONENT_COUNT>
1

> <PUBCHEM_CACTVS_TAUTO_COUNT>
1

> <PUBCHEM_CONFORMER_ID>
00626C0F00000001

> <PUBCHEM_MMFF94_ENERGY>
26.2384

> <PUBCHEM_FEATURE_SELFOVERLAP>
20.297

> <PUBCHEM_SHAPE_FINGERPRINT>
10863032 1 18409163307575372817
10922523 26 18336261348995519186
10948715 1 18194681690589073097
10967382 1 18411414003656212160
11132069 177 18412547634330309248
11578080 2 17459206087378246057
12011746 2 18268989959174858397
12715332 25 18117001185338274630
13140716 1 18339928224616345872
13221675 6 18342737446407055882
144361 1 18198366020909484957
14817 1 8929342012087357573
15196674 1 18412821417236851073
15775835 57 18409158896538393368
15881359 60 18059032630251238285
16945 1 18048879593671780882
17357779 13 18199764561134890671
21501502 16 18410014317048942156
22802520 49 18341604928140271874
2334 1 18412263904791011240
23419403 2 14461020436018140073
23463225 33 18341043094788702656
23559900 14 18334859472429402864
238 59 17265572456332161965
2748010 2 18412548738416498360
3286 77 17604161392690323465
598444 67 18059852913117140139
69090 78 18335423503749309609
7832392 63 18334854965937895793
81228 2 18271253720182461984
8272917 22 17399234643466707861
84936 31 16590547040760554207
90525 40 18261387879650304487

> <PUBCHEM_SHAPE_MULTIPOLES>
352.82
5.23
2.61
1.16
2.6
0.28
-0.34
-0.46
0.36
-0.24
-0.46
-0.72
-0.14
-0.14

> <PUBCHEM_SHAPE_SELFOVERLAP>
765.072

> <PUBCHEM_SHAPE_VOLUME>
195.2

> <PUBCHEM_COORDINATE_TYPE>
2
5
10

$$$$

