193429
  -OEChem-07051213103D

 70 73  0     1  0  0  0  0  0999 V2000
   -0.1785   -1.9135   -0.6865 O   0  0  0  0  0  0  0  0  0  0  0  0
    2.4182    1.9173   -1.7657 O   0  0  0  0  0  0  0  0  0  0  0  0
    5.8561   -1.5836   -2.4465 O   0  0  0  0  0  0  0  0  0  0  0  0
   -6.1476    0.1185    1.3659 O   0  0  0  0  0  0  0  0  0  0  0  0
   -6.8965   -1.0140   -1.9544 O   0  0  0  0  0  0  0  0  0  0  0  0
   -7.9939    0.3862   -0.5451 O   0  0  0  0  0  0  0  0  0  0  0  0
   -0.7359    0.1005    0.6190 C   0  0  1  0  0  0  0  0  0  0  0  0
    0.1840    1.0440   -0.1910 C   0  0  2  0  0  0  0  0  0  0  0  0
    1.5979    1.1614    0.3995 C   0  0  1  0  0  0  0  0  0  0  0  0
    2.2529   -0.2606    0.4346 C   0  0  1  0  0  0  0  0  0  0  0  0
    3.7120   -0.2156    1.0337 C   0  0  2  0  0  0  0  0  0  0  0  0
   -2.0453    0.2883   -0.1916 C   0  0  2  0  0  0  0  0  0  0  0  0
   -0.1299   -1.3175    0.6095 C   0  0  2  0  0  0  0  0  0  0  0  0
    1.3286   -1.3144    1.1147 C   0  0  0  0  0  0  0  0  0  0  0  0
    4.5772    0.7977    0.2124 C   0  0  2  0  0  0  0  0  0  0  0  0
   -0.6485    2.3161   -0.3446 C   0  0  0  0  0  0  0  0  0  0  0  0
    2.4673    2.1778   -0.3661 C   0  0  1  0  0  0  0  0  0  0  0  0
   -2.0973    1.8099   -0.4603 C   0  0  0  0  0  0  0  0  0  0  0  0
    3.9198    2.1894    0.1183 C   0  0  0  0  0  0  0  0  0  0  0  0
    4.4141   -1.6058    1.0079 C   0  0  0  0  0  0  0  0  0  0  0  0
   -0.9330    0.5464    2.0940 C   0  0  0  0  0  0  0  0  0  0  0  0
   -3.3197   -0.2447    0.4473 C   0  0  1  0  0  0  0  0  0  0  0  0
    4.9597    0.2664   -1.1854 C   0  0  0  0  0  0  0  0  0  0  0  0
    3.6945    0.2197    2.5238 C   0  0  0  0  0  0  0  0  0  0  0  0
    4.7501   -2.1068   -0.3900 C   0  0  0  0  0  0  0  0  0  0  0  0
    5.6278   -1.1037   -1.1257 C   0  0  1  0  0  0  0  0  0  0  0  0
   -4.5654   -0.0239   -0.4398 C   0  0  0  0  0  0  0  0  0  0  0  0
   -3.1703   -1.7408    0.7488 C   0  0  0  0  0  0  0  0  0  0  0  0
   -5.8684   -0.5676    0.1539 C   0  0  2  0  0  0  0  0  0  0  0  0
   -7.0299   -0.3272   -0.7905 C   0  0  0  0  0  0  0  0  0  0  0  0
    0.2847    0.6229   -1.2036 H   0  0  0  0  0  0  0  0  0  0  0  0
    1.5134    1.5387    1.4234 H   0  0  0  0  0  0  0  0  0  0  0  0
    2.3371   -0.6011   -0.6049 H   0  0  0  0  0  0  0  0  0  0  0  0
   -1.9298   -0.1985   -1.1716 H   0  0  0  0  0  0  0  0  0  0  0  0
   -0.6613   -1.9954    1.2766 H   0  0  0  0  0  0  0  0  0  0  0  0
    1.7453   -2.3137    0.9455 H   0  0  0  0  0  0  0  0  0  0  0  0
    1.3215   -1.1547    2.1972 H   0  0  0  0  0  0  0  0  0  0  0  0
    5.5278    0.9391    0.7482 H   0  0  0  0  0  0  0  0  0  0  0  0
   -0.3577    2.8898   -1.2305 H   0  0  0  0  0  0  0  0  0  0  0  0
   -0.5417    2.9745    0.5247 H   0  0  0  0  0  0  0  0  0  0  0  0
    2.0568    3.1848   -0.2301 H   0  0  0  0  0  0  0  0  0  0  0  0
   -2.7302    2.3383    0.2618 H   0  0  0  0  0  0  0  0  0  0  0  0
   -2.5001    2.0115   -1.4593 H   0  0  0  0  0  0  0  0  0  0  0  0
    3.9527    2.6620    1.1075 H   0  0  0  0  0  0  0  0  0  0  0  0
    4.5201    2.8240   -0.5459 H   0  0  0  0  0  0  0  0  0  0  0  0
    3.8189   -2.3598    1.5337 H   0  0  0  0  0  0  0  0  0  0  0  0
    5.3561   -1.5397    1.5709 H   0  0  0  0  0  0  0  0  0  0  0  0
   -1.5553   -0.1625    2.6489 H   0  0  0  0  0  0  0  0  0  0  0  0
    0.0103    0.6143    2.6424 H   0  0  0  0  0  0  0  0  0  0  0  0
   -1.4137    1.5262    2.1760 H   0  0  0  0  0  0  0  0  0  0  0  0
   -3.5058    0.2742    1.3956 H   0  0  0  0  0  0  0  0  0  0  0  0
    4.1000    0.1884   -1.8531 H   0  0  0  0  0  0  0  0  0  0  0  0
    5.6404    0.9726   -1.6784 H   0  0  0  0  0  0  0  0  0  0  0  0
    4.7160    0.3278    2.9084 H   0  0  0  0  0  0  0  0  0  0  0  0
    3.1949    1.1773    2.6867 H   0  0  0  0  0  0  0  0  0  0  0  0
    3.1977   -0.5239    3.1553 H   0  0  0  0  0  0  0  0  0  0  0  0
    5.2721   -3.0693   -0.3210 H   0  0  0  0  0  0  0  0  0  0  0  0
    3.8379   -2.3119   -0.9629 H   0  0  0  0  0  0  0  0  0  0  0  0
    6.6016   -1.0155   -0.6295 H   0  0  0  0  0  0  0  0  0  0  0  0
    0.1954   -2.8081   -0.6157 H   0  0  0  0  0  0  0  0  0  0  0  0
   -4.6863    1.0517   -0.6222 H   0  0  0  0  0  0  0  0  0  0  0  0
   -4.3897   -0.4839   -1.4209 H   0  0  0  0  0  0  0  0  0  0  0  0
    2.2513    0.9764   -1.9251 H   0  0  0  0  0  0  0  0  0  0  0  0
   -2.5568   -1.9056    1.6340 H   0  0  0  0  0  0  0  0  0  0  0  0
   -4.1096   -2.2231    1.0217 H   0  0  0  0  0  0  0  0  0  0  0  0
   -2.7663   -2.2951   -0.1034 H   0  0  0  0  0  0  0  0  0  0  0  0
   -5.8640   -1.6391    0.3604 H   0  0  0  0  0  0  0  0  0  0  0  0
    6.2970   -2.4472   -2.3734 H   0  0  0  0  0  0  0  0  0  0  0  0
   -6.1295    1.0741    1.1856 H   0  0  0  0  0  0  0  0  0  0  0  0
   -7.6541   -0.8608   -2.5583 H   0  0  0  0  0  0  0  0  0  0  0  0
  1 13  1  0  0  0  0
  1 60  1  0  0  0  0
  2 17  1  0  0  0  0
  2 63  1  0  0  0  0
  3 26  1  0  0  0  0
  3 68  1  0  0  0  0
  4 29  1  0  0  0  0
  4 69  1  0  0  0  0
  5 30  1  0  0  0  0
  5 70  1  0  0  0  0
  6 30  2  0  0  0  0
  7  8  1  0  0  0  0
  7 12  1  0  0  0  0
  7 13  1  0  0  0  0
  7 21  1  0  0  0  0
  8  9  1  0  0  0  0
  8 16  1  0  0  0  0
  8 31  1  0  0  0  0
  9 10  1  0  0  0  0
  9 17  1  0  0  0  0
  9 32  1  0  0  0  0
 10 11  1  0  0  0  0
 10 14  1  0  0  0  0
 10 33  1  0  0  0  0
 11 15  1  0  0  0  0
 11 20  1  0  0  0  0
 11 24  1  0  0  0  0
 12 18  1  0  0  0  0
 12 22  1  0  0  0  0
 12 34  1  0  0  0  0
 13 14  1  0  0  0  0
 13 35  1  0  0  0  0
 14 36  1  0  0  0  0
 14 37  1  0  0  0  0
 15 19  1  0  0  0  0
 15 23  1  0  0  0  0
 15 38  1  0  0  0  0
 16 18  1  0  0  0  0
 16 39  1  0  0  0  0
 16 40  1  0  0  0  0
 17 19  1  0  0  0  0
 17 41  1  0  0  0  0
 18 42  1  0  0  0  0
 18 43  1  0  0  0  0
 19 44  1  0  0  0  0
 19 45  1  0  0  0  0
 20 25  1  0  0  0  0
 20 46  1  0  0  0  0
 20 47  1  0  0  0  0
 21 48  1  0  0  0  0
 21 49  1  0  0  0  0
 21 50  1  0  0  0  0
 22 27  1  0  0  0  0
 22 28  1  0  0  0  0
 22 51  1  0  0  0  0
 23 26  1  0  0  0  0
 23 52  1  0  0  0  0
 23 53  1  0  0  0  0
 24 54  1  0  0  0  0
 24 55  1  0  0  0  0
 24 56  1  0  0  0  0
 25 26  1  0  0  0  0
 25 57  1  0  0  0  0
 25 58  1  0  0  0  0
 26 59  1  0  0  0  0
 27 29  1  0  0  0  0
 27 61  1  0  0  0  0
 27 62  1  0  0  0  0
 28 64  1  0  0  0  0
 28 65  1  0  0  0  0
 28 66  1  0  0  0  0
 29 30  1  0  0  0  0
 29 67  1  0  0  0  0
M  END
> <PUBCHEM_COMPOUND_CID>
193429

> <PUBCHEM_CONFORMER_RMSD>
0.8

> <PUBCHEM_CONFORMER_DIVERSEORDER>
1
2
3

> <PUBCHEM_MMFF94_PARTIAL_CHARGES>
16
1 -0.68
13 0.28
17 0.28
2 -0.68
26 0.28
29 0.34
3 -0.68
30 0.66
4 -0.68
5 -0.65
6 -0.57
60 0.4
63 0.4
68 0.4
69 0.4
70 0.5

> <PUBCHEM_EFFECTIVE_ROTOR_COUNT>
6.2

> <PUBCHEM_PHARMACOPHORE_FEATURES>
16
1 1 acceptor
1 1 donor
1 2 acceptor
1 2 donor
1 28 hydrophobe
1 3 acceptor
1 3 donor
1 4 acceptor
1 4 donor
1 5 acceptor
1 6 acceptor
3 5 6 30 anion
5 7 8 12 16 18 rings
6 11 15 20 23 25 26 rings
6 7 8 9 10 13 14 rings
6 9 10 11 15 17 19 rings

> <PUBCHEM_HEAVY_ATOM_COUNT>
30

> <PUBCHEM_ATOM_DEF_STEREO_COUNT>
12

> <PUBCHEM_ATOM_UDEF_STEREO_COUNT>
0

> <PUBCHEM_BOND_DEF_STEREO_COUNT>
0

> <PUBCHEM_BOND_UDEF_STEREO_COUNT>
0

> <PUBCHEM_ISOTOPIC_ATOM_COUNT>
0

> <PUBCHEM_COMPONENT_COUNT>
1

> <PUBCHEM_CACTVS_TAUTO_COUNT>
1

> <PUBCHEM_CONFORMER_ID>
0002F39500000001

> <PUBCHEM_MMFF94_ENERGY>
107.5284

> <PUBCHEM_FEATURE_SELFOVERLAP>
81.378

> <PUBCHEM_SHAPE_FINGERPRINT>
10693767 8 18337396036316350470
10906281 52 18272077328096752017
11578080 2 12534759614211451932
11796584 16 18270402685271300987
12011746 2 17917705807910637506
12166972 35 18114178644252866160
12236239 1 17967250888906969257
12422481 6 17458343026822698839
12788726 201 17988646336705535953
12838862 33 18128832862946851060
13533116 47 17821726126776669984
13782708 43 17313104155285639695
14251757 52 14333128576765626239
14294032 229 18124027095275305449
14347332 77 18336266863416821316
14931854 50 17846204601686133478
15183329 4 18343586244315456457
15475509 35 16226047842637653302
16994733 274 13758358882209651951
17349148 13 18040426707259807216
17492 54 17560500877595743998
1813 80 15647049343823080257
18222031 100 18411420617742304808
20028762 73 18187087277513052239
21267235 1 18342735243057145539
21279426 13 18272650104661377667
21521239 73 18335988592913215399
21641784 216 17560518512072553437
221357 26 18413106182353682588
2215653 11 18413669106131079247
23081809 10 17458338620576369849
23522609 53 18193245650793710233
23559900 14 18342172220426961680
23569914 152 17404050474462881039
23569943 247 17896593088825217775
255183 451 18047471407330734854
29717793 49 18334013882597854013
3004659 81 18273216387171732453
335352 9 18272091577975515078
34797466 226 18408323263643965868
350125 39 18272369806284367749
3633792 109 18334855017520000296
3886686 26 14134639420455044830
4340502 62 15698009513084550456
8988823 20 17313392192708660608

> <PUBCHEM_SHAPE_MULTIPOLES>
582.17
16.46
2.19
1.7
26.01
0.52
-0.04
-4.56
6.46
-2.09
0.39
-1.37
-0.34
0.35

> <PUBCHEM_SHAPE_SELFOVERLAP>
1222.904

> <PUBCHEM_SHAPE_VOLUME>
324.5

> <PUBCHEM_COORDINATE_TYPE>
2
5
10

$$$$

