17396155
  -OEChem-06241222542D

 47 50  0     0  0  0  0  0  0999 V2000
    2.0000   -3.5173    0.0000 Br  0  0  0  0  0  0  0  0  0  0  0  0
    3.7320   -0.5173    0.0000 Cl  0  0  0  0  0  0  0  0  0  0  0  0
    5.4641   -1.5173    0.0000 S   0  0  0  0  0  0  0  0  0  0  0  0
    5.9641   -2.3834    0.0000 O   0  0  0  0  0  0  0  0  0  0  0  0
    4.9641   -0.6513    0.0000 O   0  0  0  0  0  0  0  0  0  0  0  0
    8.0622   -0.0173    0.0000 N   0  0  0  0  0  0  0  0  0  0  0  0
    6.3301   -1.0173    0.0000 N   0  0  0  0  0  0  0  0  0  0  0  0
   10.6882    1.4480    0.0000 N   0  0  0  0  0  0  0  0  0  0  0  0
    8.0622   -1.0173    0.0000 C   0  0  0  0  0  0  0  0  0  0  0  0
    7.1962    0.4827    0.0000 C   0  0  0  0  0  0  0  0  0  0  0  0
    7.1962   -1.5173    0.0000 C   0  0  0  0  0  0  0  0  0  0  0  0
    6.3301   -0.0173    0.0000 C   0  0  0  0  0  0  0  0  0  0  0  0
    8.9282    0.4827    0.0000 C   0  0  0  0  0  0  0  0  0  0  0  0
    8.9282    1.4827    0.0000 C   0  0  0  0  0  0  0  0  0  0  0  0
    4.5981   -2.0173    0.0000 C   0  0  0  0  0  0  0  0  0  0  0  0
    9.7942    1.9827    0.0000 C   0  0  0  0  0  0  0  0  0  0  0  0
    8.0622    1.9827    0.0000 C   0  0  0  0  0  0  0  0  0  0  0  0
    9.7942    2.9827    0.0000 C   0  0  0  0  0  0  0  0  0  0  0  0
    3.7320   -1.5173    0.0000 C   0  0  0  0  0  0  0  0  0  0  0  0
    4.5981   -3.0173    0.0000 C   0  0  0  0  0  0  0  0  0  0  0  0
    8.0622    2.9827    0.0000 C   0  0  0  0  0  0  0  0  0  0  0  0
    8.9282    3.4827    0.0000 C   0  0  0  0  0  0  0  0  0  0  0  0
    2.8660   -2.0173    0.0000 C   0  0  0  0  0  0  0  0  0  0  0  0
    3.7320   -3.5173    0.0000 C   0  0  0  0  0  0  0  0  0  0  0  0
   10.6882    3.5173    0.0000 C   0  0  0  0  0  0  0  0  0  0  0  0
    2.8660   -3.0173    0.0000 C   0  0  0  0  0  0  0  0  0  0  0  0
   11.5942    1.9618    0.0000 C   0  0  0  0  0  0  0  0  0  0  0  0
   11.5942    3.0035    0.0000 C   0  0  0  0  0  0  0  0  0  0  0  0
    8.2742   -1.5999    0.0000 H   0  0  0  0  0  0  0  0  0  0  0  0
    8.6728   -0.9097    0.0000 H   0  0  0  0  0  0  0  0  0  0  0  0
    7.5947    0.9576    0.0000 H   0  0  0  0  0  0  0  0  0  0  0  0
    6.7976    0.9576    0.0000 H   0  0  0  0  0  0  0  0  0  0  0  0
    6.1181    0.5653    0.0000 H   0  0  0  0  0  0  0  0  0  0  0  0
    6.7976   -1.9923    0.0000 H   0  0  0  0  0  0  0  0  0  0  0  0
    7.5947   -1.9923    0.0000 H   0  0  0  0  0  0  0  0  0  0  0  0
    5.7196   -0.1250    0.0000 H   0  0  0  0  0  0  0  0  0  0  0  0
    9.1403   -0.0999    0.0000 H   0  0  0  0  0  0  0  0  0  0  0  0
    9.5388    0.5903    0.0000 H   0  0  0  0  0  0  0  0  0  0  0  0
    7.5252    1.6727    0.0000 H   0  0  0  0  0  0  0  0  0  0  0  0
    5.1350   -3.3273    0.0000 H   0  0  0  0  0  0  0  0  0  0  0  0
    7.5252    3.2927    0.0000 H   0  0  0  0  0  0  0  0  0  0  0  0
    8.9282    4.1027    0.0000 H   0  0  0  0  0  0  0  0  0  0  0  0
    2.3291   -1.7073    0.0000 H   0  0  0  0  0  0  0  0  0  0  0  0
    3.7320   -4.1373    0.0000 H   0  0  0  0  0  0  0  0  0  0  0  0
   10.6810    4.1373    0.0000 H   0  0  0  0  0  0  0  0  0  0  0  0
   12.1300    1.6498    0.0000 H   0  0  0  0  0  0  0  0  0  0  0  0
   12.1300    3.3156    0.0000 H   0  0  0  0  0  0  0  0  0  0  0  0
  1 26  1  0  0  0  0
  2 19  1  0  0  0  0
  3  4  2  0  0  0  0
  3  5  2  0  0  0  0
  3  7  1  0  0  0  0
  3 15  1  0  0  0  0
  6  9  1  0  0  0  0
  6 10  1  0  0  0  0
  6 13  1  0  0  0  0
  7 11  1  0  0  0  0
  7 12  1  0  0  0  0
  8 16  1  0  0  0  0
  8 27  2  0  0  0  0
  9 11  1  0  0  0  0
  9 29  1  0  0  0  0
  9 30  1  0  0  0  0
 10 12  1  0  0  0  0
 10 31  1  0  0  0  0
 10 32  1  0  0  0  0
 11 34  1  0  0  0  0
 11 35  1  0  0  0  0
 12 33  1  0  0  0  0
 12 36  1  0  0  0  0
 13 14  1  0  0  0  0
 13 37  1  0  0  0  0
 13 38  1  0  0  0  0
 14 16  1  0  0  0  0
 14 17  2  0  0  0  0
 15 19  2  0  0  0  0
 15 20  1  0  0  0  0
 16 18  2  0  0  0  0
 17 21  1  0  0  0  0
 17 39  1  0  0  0  0
 18 22  1  0  0  0  0
 18 25  1  0  0  0  0
 19 23  1  0  0  0  0
 20 24  2  0  0  0  0
 20 40  1  0  0  0  0
 21 22  2  0  0  0  0
 21 41  1  0  0  0  0
 22 42  1  0  0  0  0
 23 26  2  0  0  0  0
 23 43  1  0  0  0  0
 24 26  1  0  0  0  0
 24 44  1  0  0  0  0
 25 28  2  0  0  0  0
 25 45  1  0  0  0  0
 27 28  1  0  0  0  0
 27 46  1  0  0  0  0
 28 47  1  0  0  0  0
M  END
> <PUBCHEM_COMPOUND_CID>
17396155

> <PUBCHEM_COMPOUND_CANONICALIZED>
1

> <PUBCHEM_CACTVS_COMPLEXITY>
623

> <PUBCHEM_CACTVS_HBOND_ACCEPTOR>
5

> <PUBCHEM_CACTVS_HBOND_DONOR>
0

> <PUBCHEM_CACTVS_ROTATABLE_BOND>
4

> <PUBCHEM_CACTVS_SUBSKEYS>
AAADceB7MABEEAAAAAAAAAAAAAAAAAAAAAA8eIEAAAAAAACx9AAAHAZAQAABrArBXiQ8wfMIEAKgAzRnRHDCgDAxByQI2Dg4ZrgIYOLB05GUIAhggADIyhcQgMAOAAECAABCAIAAAgQAAIQBAAAAAAAAAA==

> <PUBCHEM_IUPAC_OPENEYE_NAME>
8-[[4-(4-bromo-2-chloro-phenyl)sulfonylpiperazin-1-yl]methyl]quinoline

> <PUBCHEM_IUPAC_CAS_NAME>
8-[[4-(4-bromo-2-chlorophenyl)sulfonyl-1-piperazinyl]methyl]quinoline

> <PUBCHEM_IUPAC_NAME>
8-[[4-(4-bromo-2-chlorophenyl)sulfonylpiperazin-1-yl]methyl]quinoline

> <PUBCHEM_IUPAC_SYSTEMATIC_NAME>
8-[[4-(4-bromanyl-2-chloranyl-phenyl)sulfonylpiperazin-1-yl]methyl]quinoline

> <PUBCHEM_IUPAC_TRADITIONAL_NAME>
8-[[4-(4-bromo-2-chloro-phenyl)sulfonylpiperazino]methyl]quinoline

> <PUBCHEM_IUPAC_INCHI>
InChI=1S/C20H19BrClN3O2S/c21-17-6-7-19(18(22)13-17)28(26,27)25-11-9-24(10-12-25)14-16-4-1-3-15-5-2-8-23-20(15)16/h1-8,13H,9-12,14H2

> <PUBCHEM_IUPAC_INCHIKEY>
UCGCNXYYENCUCI-UHFFFAOYSA-N

> <PUBCHEM_XLOGP3_AA>
4

> <PUBCHEM_EXACT_MASS>
479.006988

> <PUBCHEM_MOLECULAR_FORMULA>
C20H19BrClN3O2S

> <PUBCHEM_MOLECULAR_WEIGHT>
480.80576

> <PUBCHEM_OPENEYE_CAN_SMILES>
C1CN(CCN1CC2=CC=CC3=C2N=CC=C3)S(=O)(=O)C4=C(C=C(C=C4)Br)Cl

> <PUBCHEM_OPENEYE_ISO_SMILES>
C1CN(CCN1CC2=CC=CC3=C2N=CC=C3)S(=O)(=O)C4=C(C=C(C=C4)Br)Cl

> <PUBCHEM_CACTVS_TPSA>
61.9

> <PUBCHEM_MONOISOTOPIC_WEIGHT>
479.006988

> <PUBCHEM_TOTAL_CHARGE>
0

> <PUBCHEM_HEAVY_ATOM_COUNT>
28

> <PUBCHEM_ATOM_DEF_STEREO_COUNT>
0

> <PUBCHEM_ATOM_UDEF_STEREO_COUNT>
0

> <PUBCHEM_BOND_DEF_STEREO_COUNT>
0

> <PUBCHEM_BOND_UDEF_STEREO_COUNT>
0

> <PUBCHEM_ISOTOPIC_ATOM_COUNT>
0

> <PUBCHEM_COMPONENT_COUNT>
1

> <PUBCHEM_CACTVS_TAUTO_COUNT>
1

> <PUBCHEM_COORDINATE_TYPE>
1
5
255

> <PUBCHEM_BONDANNOTATIONS>
14  16  8
14  17  8
15  19  8
15  20  8
16  18  8
17  21  8
18  22  8
18  25  8
19  23  8
20  24  8
21  22  8
23  26  8
24  26  8
25  28  8
27  28  8
8  16  8
8  27  8

$$$$

