46173770
  -OEChem-07051212533D

 58 65  0     1  0  0  0  0  0999 V2000
   -0.8071   -2.1673   -1.6706 O   0  0  0  0  0  0  0  0  0  0  0  0
   -3.5903   -2.2991    0.7942 O   0  0  0  0  0  0  0  0  0  0  0  0
    3.9067    3.1565    0.2606 O   0  0  0  0  0  0  0  0  0  0  0  0
   -1.7081   -0.3157   -0.5191 N   0  0  0  0  0  0  0  0  0  0  0  0
    1.0646   -1.4642   -0.4983 N   0  0  0  0  0  0  0  0  0  0  0  0
   -1.0339   -2.0700    2.0736 N   0  0  0  0  0  0  0  0  0  0  0  0
    1.9491    4.4318    0.3871 N   0  0  0  0  0  0  0  0  0  0  0  0
   -1.9694   -1.6746   -0.9984 C   0  0  2  0  0  0  0  0  0  0  0  0
    0.2596   -2.6010   -0.8584 C   0  0  1  0  0  0  0  0  0  0  0  0
   -2.4261   -2.6939    0.0836 C   0  0  1  0  0  0  0  0  0  0  0  0
   -1.3400   -3.1015    1.0839 C   0  0  1  0  0  0  0  0  0  0  0  0
   -0.1098   -3.5370    0.2958 C   0  0  0  0  0  0  0  0  0  0  0  0
   -0.5386    0.4035   -0.3626 C   0  0  0  0  0  0  0  0  0  0  0  0
    0.7799   -0.1388   -0.3615 C   0  0  0  0  0  0  0  0  0  0  0  0
   -0.5830    1.8276   -0.1113 C   0  0  0  0  0  0  0  0  0  0  0  0
    1.8545    0.8159   -0.1454 C   0  0  0  0  0  0  0  0  0  0  0  0
   -2.6682    0.6862   -0.2534 C   0  0  0  0  0  0  0  0  0  0  0  0
   -2.9869   -1.6658   -2.1660 C   0  0  0  0  0  0  0  0  0  0  0  0
    2.4532   -1.4832   -0.3512 C   0  0  0  0  0  0  0  0  0  0  0  0
    0.4601    2.7355    0.0503 C   0  0  0  0  0  0  0  0  0  0  0  0
   -2.0305    1.9501   -0.0599 C   0  0  0  0  0  0  0  0  0  0  0  0
    1.7331    2.1914    0.0226 C   0  0  0  0  0  0  0  0  0  0  0  0
    2.9498   -0.1608   -0.1561 C   0  0  0  0  0  0  0  0  0  0  0  0
    0.5220    4.2063    0.2962 C   0  0  0  0  0  0  0  0  0  0  0  0
   -4.0776    0.6180   -0.1740 C   0  0  0  0  0  0  0  0  0  0  0  0
    2.6970    3.2688    0.2334 C   0  0  0  0  0  0  0  0  0  0  0  0
    3.3280   -2.5900   -0.3853 C   0  0  0  0  0  0  0  0  0  0  0  0
   -2.8389    3.0928    0.1770 C   0  0  0  0  0  0  0  0  0  0  0  0
    4.3513   -0.0129    0.0043 C   0  0  0  0  0  0  0  0  0  0  0  0
   -0.4416   -2.6593    3.2637 C   0  0  0  0  0  0  0  0  0  0  0  0
   -4.8369    1.7663    0.0669 C   0  0  0  0  0  0  0  0  0  0  0  0
   -4.2267    2.9943    0.2351 C   0  0  0  0  0  0  0  0  0  0  0  0
    4.6984   -2.3914   -0.2246 C   0  0  0  0  0  0  0  0  0  0  0  0
    5.2062   -1.1182   -0.0323 C   0  0  0  0  0  0  0  0  0  0  0  0
    0.8877   -3.1863   -1.5413 H   0  0  0  0  0  0  0  0  0  0  0  0
   -2.7046   -3.6139   -0.4516 H   0  0  0  0  0  0  0  0  0  0  0  0
   -1.7343   -3.9741    1.6245 H   0  0  0  0  0  0  0  0  0  0  0  0
    0.7528   -3.7281    0.9428 H   0  0  0  0  0  0  0  0  0  0  0  0
   -0.3581   -4.5101   -0.1525 H   0  0  0  0  0  0  0  0  0  0  0  0
   -2.7471   -0.8803   -2.8934 H   0  0  0  0  0  0  0  0  0  0  0  0
   -4.0217   -1.5360   -1.8473 H   0  0  0  0  0  0  0  0  0  0  0  0
   -2.9475   -2.6141   -2.7178 H   0  0  0  0  0  0  0  0  0  0  0  0
   -1.8958   -1.5947    2.3411 H   0  0  0  0  0  0  0  0  0  0  0  0
    0.1217    4.7861   -0.5389 H   0  0  0  0  0  0  0  0  0  0  0  0
    0.0576    4.4914    1.2433 H   0  0  0  0  0  0  0  0  0  0  0  0
   -3.8322   -3.0218    1.3980 H   0  0  0  0  0  0  0  0  0  0  0  0
   -4.6094   -0.3191   -0.2852 H   0  0  0  0  0  0  0  0  0  0  0  0
    2.9503   -3.5979   -0.5319 H   0  0  0  0  0  0  0  0  0  0  0  0
   -2.3778    4.0659    0.3267 H   0  0  0  0  0  0  0  0  0  0  0  0
    2.3635    5.3443    0.5480 H   0  0  0  0  0  0  0  0  0  0  0  0
    4.7939    0.9639    0.1625 H   0  0  0  0  0  0  0  0  0  0  0  0
   -0.2433   -1.8662    3.9921 H   0  0  0  0  0  0  0  0  0  0  0  0
   -1.1142   -3.3798    3.7412 H   0  0  0  0  0  0  0  0  0  0  0  0
    0.5165   -3.1444    3.0569 H   0  0  0  0  0  0  0  0  0  0  0  0
   -5.9195    1.6890    0.1228 H   0  0  0  0  0  0  0  0  0  0  0  0
   -4.8255    3.8809    0.4213 H   0  0  0  0  0  0  0  0  0  0  0  0
    5.3712   -3.2442   -0.2499 H   0  0  0  0  0  0  0  0  0  0  0  0
    6.2758   -0.9744    0.0934 H   0  0  0  0  0  0  0  0  0  0  0  0
  1  8  1  0  0  0  0
  1  9  1  0  0  0  0
  2 10  1  0  0  0  0
  2 46  1  0  0  0  0
  3 26  2  0  0  0  0
  4  8  1  0  0  0  0
  4 13  1  0  0  0  0
  4 17  1  0  0  0  0
  5  9  1  0  0  0  0
  5 14  1  0  0  0  0
  5 19  1  0  0  0  0
  6 11  1  0  0  0  0
  6 30  1  0  0  0  0
  6 43  1  0  0  0  0
  7 24  1  0  0  0  0
  7 26  1  0  0  0  0
  7 50  1  0  0  0  0
  8 10  1  0  0  0  0
  8 18  1  0  0  0  0
  9 12  1  0  0  0  0
  9 35  1  0  0  0  0
 10 11  1  0  0  0  0
 10 36  1  0  0  0  0
 11 12  1  0  0  0  0
 11 37  1  0  0  0  0
 12 38  1  0  0  0  0
 12 39  1  0  0  0  0
 13 14  2  0  0  0  0
 13 15  1  0  0  0  0
 14 16  1  0  0  0  0
 15 20  2  0  0  0  0
 15 21  1  0  0  0  0
 16 22  2  0  0  0  0
 16 23  1  0  0  0  0
 17 21  1  0  0  0  0
 17 25  2  0  0  0  0
 18 40  1  0  0  0  0
 18 41  1  0  0  0  0
 18 42  1  0  0  0  0
 19 23  1  0  0  0  0
 19 27  2  0  0  0  0
 20 22  1  0  0  0  0
 20 24  1  0  0  0  0
 21 28  2  0  0  0  0
 22 26  1  0  0  0  0
 23 29  2  0  0  0  0
 24 44  1  0  0  0  0
 24 45  1  0  0  0  0
 25 31  1  0  0  0  0
 25 47  1  0  0  0  0
 27 33  1  0  0  0  0
 27 48  1  0  0  0  0
 28 32  1  0  0  0  0
 28 49  1  0  0  0  0
 29 34  1  0  0  0  0
 29 51  1  0  0  0  0
 30 52  1  0  0  0  0
 30 53  1  0  0  0  0
 30 54  1  0  0  0  0
 31 32  2  0  0  0  0
 31 55  1  0  0  0  0
 32 56  1  0  0  0  0
 33 34  2  0  0  0  0
 33 57  1  0  0  0  0
 34 58  1  0  0  0  0
M  END
> <PUBCHEM_COMPOUND_CID>
46173770

> <PUBCHEM_CONFORMER_RMSD>
0.8

> <PUBCHEM_CONFORMER_DIVERSEORDER>
1
2

> <PUBCHEM_MMFF94_PARTIAL_CHARGES>
41
1 -0.56
10 0.28
11 0.27
13 -0.05
14 -0.05
15 -0.01
16 -0.01
17 -0.15
19 -0.15
2 -0.68
20 -0.14
22 0.09
24 0.44
25 -0.15
26 0.54
27 -0.15
28 -0.15
29 -0.15
3 -0.57
30 0.27
31 -0.15
32 -0.15
33 -0.15
34 -0.15
4 -0.04
43 0.36
46 0.4
47 0.15
48 0.15
49 0.15
5 -0.04
50 0.37
51 0.15
55 0.15
56 0.15
57 0.15
58 0.15
6 -0.9
7 -0.73
8 0.54
9 0.54

> <PUBCHEM_EFFECTIVE_ROTOR_COUNT>
2.2

> <PUBCHEM_PHARMACOPHORE_FEATURES>
17
1 1 acceptor
1 2 acceptor
1 2 donor
1 3 acceptor
1 4 cation
1 5 cation
1 6 cation
1 6 donor
1 7 donor
5 4 13 15 17 21 rings
5 5 14 16 19 23 rings
5 7 20 22 24 26 rings
6 1 8 9 10 11 12 rings
6 13 14 15 16 20 22 rings
6 17 21 25 28 31 32 rings
6 19 23 27 29 33 34 rings
7 1 4 5 8 9 13 14 rings

> <PUBCHEM_HEAVY_ATOM_COUNT>
34

> <PUBCHEM_ATOM_DEF_STEREO_COUNT>
3

> <PUBCHEM_ATOM_UDEF_STEREO_COUNT>
1

> <PUBCHEM_BOND_DEF_STEREO_COUNT>
0

> <PUBCHEM_BOND_UDEF_STEREO_COUNT>
0

> <PUBCHEM_ISOTOPIC_ATOM_COUNT>
0

> <PUBCHEM_COMPONENT_COUNT>
1

> <PUBCHEM_CACTVS_TAUTO_COUNT>
2

> <PUBCHEM_CONFORMER_ID>
02C08E4A00000001

> <PUBCHEM_MMFF94_ENERGY>
141.128

> <PUBCHEM_FEATURE_SELFOVERLAP>
87.389

> <PUBCHEM_SHAPE_FINGERPRINT>
10190108 129 17550068525907505289
10675989 125 18049190812025640797
10906281 52 18191847128100803044
10967382 1 18192150618768565268
1100329 8 18409730702767308364
11227688 84 17471012480509082494
11513181 2 18040999475872452014
11578080 2 14472114551793622828
11607047 403 15943782102338723311
12107698 1 18409170974382549303
12156800 1 18201173104033394867
12422481 6 18192687035157987011
12553582 1 18193571175159860044
13140716 1 18409447002950117556
14020679 6 18273206517157428434
140371 6 18263353862792664868
14223421 5 18050846620011009636
14394314 77 18122631810375680160
14787075 74 18056470884006514687
14790565 3 18192705876742098996
14955137 171 18265886033179925015
15420108 30 17464824854501946189
15439362 3 18411141324721036404
15927050 60 18262519161658097716
16112460 7 18261658342574085601
16728300 4 17053037988512401194
18681886 176 18043827574572383005
19319366 153 17916296328609595786
19591789 44 17904483257279581780
21197605 99 18335970984227738331
22113638 7 18262806301068709989
23558518 356 18199186196127164121
23559900 14 18335427872263890472
3178227 256 18267289015051121233
335352 9 18335985388508916836
34934 24 18049164672542901293
350125 39 18409443648844384085
392239 28 17906445885229103067
5081480 168 17099140317738363868
5171179 24 18261673650121780072
6004065 56 18263656202593873005
9981440 41 17760385296206995120

> <PUBCHEM_SHAPE_MULTIPOLES>
662.17
7.93
5.84
1.39
2.28
3.27
0.86
1.27
-0.66
0.22
1.38
-0.62
-1.81
0.14

> <PUBCHEM_SHAPE_SELFOVERLAP>
1533.419

> <PUBCHEM_SHAPE_VOLUME>
335.5

> <PUBCHEM_COORDINATE_TYPE>
2
5
10

$$$$

