442060
  -OEChem-07051212562D

 88 93  0     1  0  0  0  0  0999 V2000
   11.9254    3.1668    0.0000 O   0  0  0  0  0  0  0  0  0  0  0  0
   11.5835    1.3780    0.0000 O   0  0  0  0  0  0  0  0  0  0  0  0
   10.6973    0.8935    0.0000 O   0  0  0  0  0  0  0  0  0  0  0  0
   10.8033   -0.6830    0.0000 O   0  0  0  0  0  0  0  0  0  0  0  0
   14.7607    3.2106    0.0000 O   0  0  0  0  0  0  0  0  0  0  0  0
   14.3485    3.9184    0.0000 O   0  0  0  0  0  0  0  0  0  0  0  0
   13.1728    4.7302    0.0000 O   0  0  0  0  0  0  0  0  0  0  0  0
   16.0428    3.1798    0.0000 O   0  0  0  0  0  0  0  0  0  0  0  0
   12.5137    1.2607    0.0000 C   0  0  1  0  0  0  0  0  0  0  0  0
   13.4147    0.8268    0.0000 C   0  0  2  0  0  0  0  0  0  0  0  0
   12.2912    2.2356    0.0000 C   0  0  1  0  0  0  0  0  0  0  0  0
   12.9147    3.0175    0.0000 C   0  0  1  0  0  0  0  0  0  0  0  0
   11.6441    0.6873    0.0000 C   0  0  2  0  0  0  0  0  0  0  0  0
   14.3156    1.2607    0.0000 C   0  0  1  0  0  0  0  0  0  0  0  0
   13.5085   -0.2106    0.0000 C   0  0  1  0  0  0  0  0  0  0  0  0
   11.7139   -0.3520    0.0000 C   0  0  2  0  0  0  0  0  0  0  0  0
   14.5381    2.2356    0.0000 C   0  0  1  0  0  0  0  0  0  0  0  0
   13.9147    3.0175    0.0000 C   0  0  2  0  0  0  0  0  0  0  0  0
   12.6524   -0.8039    0.0000 C   0  0  0  0  0  0  0  0  0  0  0  0
   10.1906    0.0676    0.0000 C   0  0  3  0  0  0  0  0  0  0  0  0
   13.5381    3.7993    0.0000 C   0  0  0  0  0  0  0  0  0  0  0  0
   15.1703    0.7531    0.0000 C   0  0  0  0  0  0  0  0  0  0  0  0
   14.4144   -0.6340    0.0000 C   0  0  0  0  0  0  0  0  0  0  0  0
   15.5285    2.3222    0.0000 C   0  0  0  0  0  0  0  0  0  0  0  0
   11.6639   -1.3507    0.0000 C   0  0  0  0  0  0  0  0  0  0  0  0
    9.1928    0.0006    0.0000 C   0  0  0  0  0  0  0  0  0  0  0  0
   15.9184    1.4078    0.0000 C   0  0  0  0  0  0  0  0  0  0  0  0
    8.7520   -0.8970    0.0000 C   0  0  0  0  0  0  0  0  0  0  0  0
   10.7739   -1.8068    0.0000 C   0  0  0  0  0  0  0  0  0  0  0  0
   12.5038   -1.8935    0.0000 C   0  0  0  0  0  0  0  0  0  0  0  0
   16.8933    1.1852    0.0000 C   0  0  0  0  0  0  0  0  0  0  0  0
    7.7543   -0.9640    0.0000 C   0  0  0  0  0  0  0  0  0  0  0  0
    7.3134   -1.8616    0.0000 C   0  0  0  0  0  0  0  0  0  0  0  0
    6.3157   -1.9287    0.0000 C   0  0  0  0  0  0  0  0  0  0  0  0
    5.8749   -2.8263    0.0000 C   0  0  0  0  0  0  0  0  0  0  0  0
    4.8771   -2.8933    0.0000 C   0  0  0  0  0  0  0  0  0  0  0  0
    4.4363   -3.7909    0.0000 C   0  0  0  0  0  0  0  0  0  0  0  0
    3.4386   -3.8580    0.0000 C   0  0  0  0  0  0  0  0  0  0  0  0
    2.9978   -4.7556    0.0000 C   0  0  0  0  0  0  0  0  0  0  0  0
    2.0000   -4.8226    0.0000 C   0  0  0  0  0  0  0  0  0  0  0  0
   11.9889    1.9294    0.0000 H   0  0  0  0  0  0  0  0  0  0  0  0
   11.4790    1.9850    0.0000 H   0  0  0  0  0  0  0  0  0  0  0  0
   10.9578    1.1888    0.0000 H   0  0  0  0  0  0  0  0  0  0  0  0
   14.2786    0.4115    0.0000 H   0  0  0  0  0  0  0  0  0  0  0  0
   14.0160    0.1456    0.0000 H   0  0  0  0  0  0  0  0  0  0  0  0
   13.5848    3.5424    0.0000 H   0  0  0  0  0  0  0  0  0  0  0  0
   12.2918   -1.3083    0.0000 H   0  0  0  0  0  0  0  0  0  0  0  0
   13.0876   -1.2456    0.0000 H   0  0  0  0  0  0  0  0  0  0  0  0
   13.9484    3.3344    0.0000 H   0  0  0  0  0  0  0  0  0  0  0  0
   14.0672    4.1226    0.0000 H   0  0  0  0  0  0  0  0  0  0  0  0
   15.2270    0.1357    0.0000 H   0  0  0  0  0  0  0  0  0  0  0  0
   14.1519   -1.1957    0.0000 H   0  0  0  0  0  0  0  0  0  0  0  0
   14.9761   -0.8965    0.0000 H   0  0  0  0  0  0  0  0  0  0  0  0
   14.6770   -0.0723    0.0000 H   0  0  0  0  0  0  0  0  0  0  0  0
    9.2593    0.6170    0.0000 H   0  0  0  0  0  0  0  0  0  0  0  0
    8.5973    0.1731    0.0000 H   0  0  0  0  0  0  0  0  0  0  0  0
   15.3531    3.3933    0.0000 H   0  0  0  0  0  0  0  0  0  0  0  0
   13.9993    4.4307    0.0000 H   0  0  0  0  0  0  0  0  0  0  0  0
    8.6855   -1.5134    0.0000 H   0  0  0  0  0  0  0  0  0  0  0  0
    9.3475   -1.0695    0.0000 H   0  0  0  0  0  0  0  0  0  0  0  0
   10.4912   -1.2550    0.0000 H   0  0  0  0  0  0  0  0  0  0  0  0
   10.2221   -2.0895    0.0000 H   0  0  0  0  0  0  0  0  0  0  0  0
   11.0567   -2.3586    0.0000 H   0  0  0  0  0  0  0  0  0  0  0  0
   12.5597    4.8226    0.0000 H   0  0  0  0  0  0  0  0  0  0  0  0
   12.4728   -2.5127    0.0000 H   0  0  0  0  0  0  0  0  0  0  0  0
   13.0556   -1.6107    0.0000 H   0  0  0  0  0  0  0  0  0  0  0  0
   16.7553    0.5808    0.0000 H   0  0  0  0  0  0  0  0  0  0  0  0
   17.4977    1.0473    0.0000 H   0  0  0  0  0  0  0  0  0  0  0  0
   17.0313    1.7897    0.0000 H   0  0  0  0  0  0  0  0  0  0  0  0
    7.8208   -0.3476    0.0000 H   0  0  0  0  0  0  0  0  0  0  0  0
    7.1588   -0.7915    0.0000 H   0  0  0  0  0  0  0  0  0  0  0  0
    7.2470   -2.4781    0.0000 H   0  0  0  0  0  0  0  0  0  0  0  0
    7.9090   -2.0342    0.0000 H   0  0  0  0  0  0  0  0  0  0  0  0
    6.3822   -1.3123    0.0000 H   0  0  0  0  0  0  0  0  0  0  0  0
    5.7202   -1.7562    0.0000 H   0  0  0  0  0  0  0  0  0  0  0  0
    5.8084   -3.4427    0.0000 H   0  0  0  0  0  0  0  0  0  0  0  0
    6.4704   -2.9988    0.0000 H   0  0  0  0  0  0  0  0  0  0  0  0
    4.9436   -2.2769    0.0000 H   0  0  0  0  0  0  0  0  0  0  0  0
    4.2816   -2.7208    0.0000 H   0  0  0  0  0  0  0  0  0  0  0  0
    4.3698   -4.4073    0.0000 H   0  0  0  0  0  0  0  0  0  0  0  0
    5.0318   -3.9634    0.0000 H   0  0  0  0  0  0  0  0  0  0  0  0
    3.5050   -3.2415    0.0000 H   0  0  0  0  0  0  0  0  0  0  0  0
    2.8430   -3.6854    0.0000 H   0  0  0  0  0  0  0  0  0  0  0  0
    2.9313   -5.3720    0.0000 H   0  0  0  0  0  0  0  0  0  0  0  0
    3.5933   -4.9281    0.0000 H   0  0  0  0  0  0  0  0  0  0  0  0
    1.9584   -4.2040    0.0000 H   0  0  0  0  0  0  0  0  0  0  0  0
    1.3814   -4.8642    0.0000 H   0  0  0  0  0  0  0  0  0  0  0  0
    2.0416   -5.4412    0.0000 H   0  0  0  0  0  0  0  0  0  0  0  0
  1 11  1  0  0  0  0
  1 12  1  0  0  0  0
 10  2  1  6  0  0  0
  2 20  1  0  0  0  0
  3 13  1  0  0  0  0
  3 20  1  0  0  0  0
  4 16  1  0  0  0  0
  4 20  1  0  0  0  0
 17  5  1  1  0  0  0
  5 57  1  0  0  0  0
 18  6  1  1  0  0  0
  6 58  1  0  0  0  0
  7 21  1  0  0  0  0
  7 64  1  0  0  0  0
  8 24  2  0  0  0  0
  9 10  1  0  0  0  0
  9 11  1  0  0  0  0
  9 13  1  0  0  0  0
  9 41  1  1  0  0  0
 10 14  1  0  0  0  0
 10 15  1  0  0  0  0
 11 12  1  0  0  0  0
 11 42  1  1  0  0  0
 12 18  1  0  0  0  0
 12 21  1  1  0  0  0
 13 16  1  0  0  0  0
 13 43  1  1  0  0  0
 14 17  1  0  0  0  0
 14 22  1  0  0  0  0
 14 44  1  6  0  0  0
 15 19  1  0  0  0  0
 15 23  1  6  0  0  0
 15 45  1  0  0  0  0
 16 19  1  0  0  0  0
 16 25  1  1  0  0  0
 17 18  1  0  0  0  0
 17 24  1  0  0  0  0
 18 46  1  0  0  0  0
 19 47  1  0  0  0  0
 19 48  1  0  0  0  0
 20 26  1  0  0  0  0
 21 49  1  0  0  0  0
 21 50  1  0  0  0  0
 22 27  2  0  0  0  0
 22 51  1  0  0  0  0
 23 52  1  0  0  0  0
 23 53  1  0  0  0  0
 23 54  1  0  0  0  0
 24 27  1  0  0  0  0
 25 29  1  0  0  0  0
 25 30  2  0  0  0  0
 26 28  1  0  0  0  0
 26 55  1  0  0  0  0
 26 56  1  0  0  0  0
 27 31  1  0  0  0  0
 28 32  1  0  0  0  0
 28 59  1  0  0  0  0
 28 60  1  0  0  0  0
 29 61  1  0  0  0  0
 29 62  1  0  0  0  0
 29 63  1  0  0  0  0
 30 65  1  0  0  0  0
 30 66  1  0  0  0  0
 31 67  1  0  0  0  0
 31 68  1  0  0  0  0
 31 69  1  0  0  0  0
 32 33  1  0  0  0  0
 32 70  1  0  0  0  0
 32 71  1  0  0  0  0
 33 34  1  0  0  0  0
 33 72  1  0  0  0  0
 33 73  1  0  0  0  0
 34 35  1  0  0  0  0
 34 74  1  0  0  0  0
 34 75  1  0  0  0  0
 35 36  1  0  0  0  0
 35 76  1  0  0  0  0
 35 77  1  0  0  0  0
 36 37  1  0  0  0  0
 36 78  1  0  0  0  0
 36 79  1  0  0  0  0
 37 38  1  0  0  0  0
 37 80  1  0  0  0  0
 37 81  1  0  0  0  0
 38 39  1  0  0  0  0
 38 82  1  0  0  0  0
 38 83  1  0  0  0  0
 39 40  1  0  0  0  0
 39 84  1  0  0  0  0
 39 85  1  0  0  0  0
 40 86  1  0  0  0  0
 40 87  1  0  0  0  0
 40 88  1  0  0  0  0
M  END
> <PUBCHEM_COMPOUND_CID>
442060

> <PUBCHEM_COMPOUND_CANONICALIZED>
1

> <PUBCHEM_CACTVS_COMPLEXITY>
1090

> <PUBCHEM_CACTVS_HBOND_ACCEPTOR>
8

> <PUBCHEM_CACTVS_HBOND_DONOR>
3

> <PUBCHEM_CACTVS_ROTATABLE_BOND>
12

> <PUBCHEM_CACTVS_SUBSKEYS>
AAADcfB8PAAAAAAAAAAAAAAAEgAAASIAAAA0QAAABogSAACAAAAAGgAACAAADVSggAICCAAABgCIAqBSAAIAAAAgAAAACAFAAEgRFBYAIQAiQAAF4AAPIYPK7PzOgAAAAAAAAADCAAYQADCAAAAAAAAAAA==

> <PUBCHEM_IUPAC_INCHI>
InChI=1S/C32H48O8/c1-6-7-8-9-10-11-12-13-14-15-30-38-25-23-26-29(18-33,37-26)27(35)31(36)22(16-20(4)24(31)34)32(23,40-30)21(5)17-28(25,39-30)19(2)3/h16,21-23,25-27,33,35-36H,2,6-15,17-18H2,1,3-5H3/t21-,22-,23-,25-,26+,27-,28-,29+,30?,31-,32+/m1/s1

> <PUBCHEM_IUPAC_INCHIKEY>
SNFRINMTRPQQLE-JQWAAABSSA-N

> <PUBCHEM_XLOGP3_AA>
5.6

> <PUBCHEM_EXACT_MASS>
560.334918

> <PUBCHEM_MOLECULAR_FORMULA>
C32H48O8

> <PUBCHEM_MOLECULAR_WEIGHT>
560.71872

> <PUBCHEM_OPENEYE_CAN_SMILES>
CCCCCCCCCCCC12OC3C4C5C(O5)(C(C6(C(C4(O1)C(CC3(O2)C(=C)C)C)C=C(C6=O)C)O)O)CO

> <PUBCHEM_OPENEYE_ISO_SMILES>
CCCCCCCCCCCC12O[C@@H]3[C@@H]4[C@H]5[C@](O5)([C@H]([C@]6([C@H]([C@@]4(O1)[C@@H](C[C@@]3(O2)C(=C)C)C)C=C(C6=O)C)O)O)CO

> <PUBCHEM_CACTVS_TPSA>
118

> <PUBCHEM_MONOISOTOPIC_WEIGHT>
560.334918

> <PUBCHEM_TOTAL_CHARGE>
0

> <PUBCHEM_HEAVY_ATOM_COUNT>
40

> <PUBCHEM_ATOM_DEF_STEREO_COUNT>
10

> <PUBCHEM_ATOM_UDEF_STEREO_COUNT>
1

> <PUBCHEM_BOND_DEF_STEREO_COUNT>
0

> <PUBCHEM_BOND_UDEF_STEREO_COUNT>
0

> <PUBCHEM_ISOTOPIC_ATOM_COUNT>
0

> <PUBCHEM_COMPONENT_COUNT>
1

> <PUBCHEM_CACTVS_TAUTO_COUNT>
3

> <PUBCHEM_COORDINATE_TYPE>
1
5
255

> <PUBCHEM_BONDANNOTATIONS>
11  42  5
12  21  5
13  43  5
14  44  6
15  23  6
16  25  5
10  2  6
20  26  3
17  5  5
18  6  5
9  41  5

$$$$

