3613
  -OEChem-06251223322D

 28 29  0     0  0  0  0  0  0999 V2000
    7.7331   -0.6550    0.0000 O   0  0  0  0  0  0  0  0  0  0  0  0
    4.2690    3.3450    0.0000 O   0  0  0  0  0  0  0  0  0  0  0  0
    2.5369    2.3450    0.0000 O   0  0  0  0  0  0  0  0  0  0  0  0
    9.4651   -0.6550    0.0000 O   0  0  0  0  0  0  0  0  0  0  0  0
    7.7331   -3.6550    0.0000 O   0  0  0  0  0  0  0  0  0  0  0  0
    5.1350    0.8450    0.0000 C   0  0  0  0  0  0  0  0  0  0  0  0
    6.0010    0.3450    0.0000 C   0  0  0  0  0  0  0  0  0  0  0  0
    5.1350    1.8450    0.0000 C   0  0  0  0  0  0  0  0  0  0  0  0
    4.2690    0.3450    0.0000 C   0  0  0  0  0  0  0  0  0  0  0  0
    6.8671   -1.1550    0.0000 C   0  0  0  0  0  0  0  0  0  0  0  0
    6.0010   -0.6550    0.0000 C   0  0  0  0  0  0  0  0  0  0  0  0
    4.2690    2.3450    0.0000 C   0  0  0  0  0  0  0  0  0  0  0  0
    3.4030    1.8450    0.0000 C   0  0  0  0  0  0  0  0  0  0  0  0
    3.4030    0.8450    0.0000 C   0  0  0  0  0  0  0  0  0  0  0  0
    6.8671   -2.1550    0.0000 C   0  0  0  0  0  0  0  0  0  0  0  0
    7.7331   -2.6550    0.0000 C   0  0  0  0  0  0  0  0  0  0  0  0
    8.5991   -1.1550    0.0000 C   0  0  0  0  0  0  0  0  0  0  0  0
    8.5991   -2.1550    0.0000 C   0  0  0  0  0  0  0  0  0  0  0  0
    6.5380    0.6550    0.0000 H   0  0  0  0  0  0  0  0  0  0  0  0
    5.6720    2.1550    0.0000 H   0  0  0  0  0  0  0  0  0  0  0  0
    4.2690   -0.2750    0.0000 H   0  0  0  0  0  0  0  0  0  0  0  0
    5.4641   -0.9650    0.0000 H   0  0  0  0  0  0  0  0  0  0  0  0
    2.8660    0.5350    0.0000 H   0  0  0  0  0  0  0  0  0  0  0  0
    6.3301   -2.4650    0.0000 H   0  0  0  0  0  0  0  0  0  0  0  0
    9.1360   -2.4650    0.0000 H   0  0  0  0  0  0  0  0  0  0  0  0
    4.8059    3.6550    0.0000 H   0  0  0  0  0  0  0  0  0  0  0  0
    2.0000    2.0350    0.0000 H   0  0  0  0  0  0  0  0  0  0  0  0
   10.0021   -0.9650    0.0000 H   0  0  0  0  0  0  0  0  0  0  0  0
  1 10  1  0  0  0  0
  1 17  1  0  0  0  0
  2 12  1  0  0  0  0
  2 26  1  0  0  0  0
  3 13  1  0  0  0  0
  3 27  1  0  0  0  0
  4 17  1  0  0  0  0
  4 28  1  0  0  0  0
  5 16  2  0  0  0  0
  6  7  1  0  0  0  0
  6  8  2  0  0  0  0
  6  9  1  0  0  0  0
  7 11  2  3  0  0  0
  7 19  1  0  0  0  0
  8 12  1  0  0  0  0
  8 20  1  0  0  0  0
  9 14  2  0  0  0  0
  9 21  1  0  0  0  0
 10 11  1  0  0  0  0
 10 15  2  0  0  0  0
 11 22  1  0  0  0  0
 12 13  2  0  0  0  0
 13 14  1  0  0  0  0
 14 23  1  0  0  0  0
 15 16  1  0  0  0  0
 15 24  1  0  0  0  0
 16 18  1  0  0  0  0
 17 18  2  0  0  0  0
 18 25  1  0  0  0  0
M  END
> <PUBCHEM_COMPOUND_CID>
3613

> <PUBCHEM_COMPOUND_CANONICALIZED>
1

> <PUBCHEM_CACTVS_COMPLEXITY>
421

> <PUBCHEM_CACTVS_HBOND_ACCEPTOR>
5

> <PUBCHEM_CACTVS_HBOND_DONOR>
3

> <PUBCHEM_CACTVS_ROTATABLE_BOND>
2

> <PUBCHEM_CACTVS_SUBSKEYS>
AAADccBwOAAAAAAAAAAAAAAAAAAAAAAAAAAwQAAAAAAAAAABAAAAGgAACAAADASAmAAwDoAABgCIAqBSAAACCAAgIAAIiAAGiMgZJiKCMRKAcAEkwBENuQeAwBAOIAABAAAAQABAAAIAAACAAAAAAAAAAA==

> <PUBCHEM_IUPAC_OPENEYE_NAME>
2-[2-(3,4-dihydroxyphenyl)vinyl]-6-hydroxy-pyran-4-one

> <PUBCHEM_IUPAC_CAS_NAME>
2-[2-(3,4-dihydroxyphenyl)ethenyl]-6-hydroxy-4-pyranone

> <PUBCHEM_IUPAC_NAME>
2-[2-(3,4-dihydroxyphenyl)ethenyl]-6-hydroxypyran-4-one

> <PUBCHEM_IUPAC_SYSTEMATIC_NAME>
2-[2-[3,4-bis(oxidanyl)phenyl]ethenyl]-6-oxidanyl-pyran-4-one

> <PUBCHEM_IUPAC_TRADITIONAL_NAME>
2-[2-(3,4-dihydroxyphenyl)vinyl]-6-hydroxy-pyran-4-one

> <PUBCHEM_IUPAC_INCHI>
InChI=1S/C13H10O5/c14-9-6-10(18-13(17)7-9)3-1-8-2-4-11(15)12(16)5-8/h1-7,15-17H

> <PUBCHEM_IUPAC_INCHIKEY>
QISBNGLMCHHHFG-UHFFFAOYSA-N

> <PUBCHEM_XLOGP3_AA>
1.5

> <PUBCHEM_EXACT_MASS>
246.052823

> <PUBCHEM_MOLECULAR_FORMULA>
C13H10O5

> <PUBCHEM_MOLECULAR_WEIGHT>
246.2155

> <PUBCHEM_OPENEYE_CAN_SMILES>
C1=CC(=C(C=C1C=CC2=CC(=O)C=C(O2)O)O)O

> <PUBCHEM_OPENEYE_ISO_SMILES>
C1=CC(=C(C=C1C=CC2=CC(=O)C=C(O2)O)O)O

> <PUBCHEM_CACTVS_TPSA>
87

> <PUBCHEM_MONOISOTOPIC_WEIGHT>
246.052823

> <PUBCHEM_TOTAL_CHARGE>
0

> <PUBCHEM_HEAVY_ATOM_COUNT>
18

> <PUBCHEM_ATOM_DEF_STEREO_COUNT>
0

> <PUBCHEM_ATOM_UDEF_STEREO_COUNT>
0

> <PUBCHEM_BOND_DEF_STEREO_COUNT>
0

> <PUBCHEM_BOND_UDEF_STEREO_COUNT>
1

> <PUBCHEM_ISOTOPIC_ATOM_COUNT>
0

> <PUBCHEM_COMPONENT_COUNT>
1

> <PUBCHEM_CACTVS_TAUTO_COUNT>
54

> <PUBCHEM_COORDINATE_TYPE>
1
5
255

> <PUBCHEM_BONDANNOTATIONS>
1  10  8
1  17  8
10  15  8
12  13  8
13  14  8
15  16  8
16  18  8
17  18  8
6  8  8
6  9  8
7  11  1
8  12  8
9  14  8

$$$$

