11315692
  -OEChem-07051213153D

 74 73  0     0  0  0  0  0  0999 V2000
    9.2269    1.3160   -0.1443 C   0  0  0  0  0  0  0  0  0  0  0  0
   -9.4181    0.7642    0.0285 C   0  0  0  0  0  0  0  0  0  0  0  0
   10.1368    0.2553    0.4893 C   0  0  0  0  0  0  0  0  0  0  0  0
   -9.9050   -0.5170    0.7191 C   0  0  0  0  0  0  0  0  0  0  0  0
    7.9639    0.7667   -0.7781 C   0  0  0  0  0  0  0  0  0  0  0  0
   -8.0684    1.2454    0.5248 C   0  0  0  0  0  0  0  0  0  0  0  0
    9.4486   -0.5864    1.5271 C   0  0  0  0  0  0  0  0  0  0  0  0
   -8.9689   -1.6755    0.5113 C   0  0  0  0  0  0  0  0  0  0  0  0
    9.2331   -1.9149    1.4907 C   0  0  0  0  0  0  0  0  0  0  0  0
   -9.0439   -2.6476   -0.4173 C   0  0  0  0  0  0  0  0  0  0  0  0
    8.1783   -0.1145   -1.9825 C   0  0  0  0  0  0  0  0  0  0  0  0
   -8.1253    2.1731    1.7129 C   0  0  0  0  0  0  0  0  0  0  0  0
    6.7115    1.0461   -0.3639 C   0  0  0  0  0  0  0  0  0  0  0  0
   -6.8745    0.8981    0.0038 C   0  0  0  0  0  0  0  0  0  0  0  0
    9.7143   -2.7360    0.3247 C   0  0  0  0  0  0  0  0  0  0  0  0
    8.5361   -2.7020    2.5639 C   0  0  0  0  0  0  0  0  0  0  0  0
  -10.1831   -2.6729   -1.4013 C   0  0  0  0  0  0  0  0  0  0  0  0
   -8.0691   -3.7803   -0.5682 C   0  0  0  0  0  0  0  0  0  0  0  0
    5.4776    0.5793   -0.9652 C   0  0  0  0  0  0  0  0  0  0  0  0
   -5.5660    1.3225    0.4607 C   0  0  0  0  0  0  0  0  0  0  0  0
    4.2662    0.9081   -0.4849 C   0  0  0  0  0  0  0  0  0  0  0  0
   -4.4266    0.9197   -0.1275 C   0  0  0  0  0  0  0  0  0  0  0  0
    2.9662    0.4923   -1.0233 C   0  0  0  0  0  0  0  0  0  0  0  0
   -3.0680    1.2840    0.2748 C   0  0  0  0  0  0  0  0  0  0  0  0
    1.8488    0.9263   -0.4011 C   0  0  0  0  0  0  0  0  0  0  0  0
   -1.9592    0.8455   -0.3587 C   0  0  0  0  0  0  0  0  0  0  0  0
    2.9763   -0.3938   -2.2443 C   0  0  0  0  0  0  0  0  0  0  0  0
   -2.9104    2.2246    1.4456 C   0  0  0  0  0  0  0  0  0  0  0  0
    0.4721    0.6435   -0.7548 C   0  0  0  0  0  0  0  0  0  0  0  0
   -0.5702    1.1302   -0.0619 C   0  0  0  0  0  0  0  0  0  0  0  0
    9.7936    1.8728   -0.9012 H   0  0  0  0  0  0  0  0  0  0  0  0
    8.9581    2.0516    0.6258 H   0  0  0  0  0  0  0  0  0  0  0  0
   -9.3555    0.5855   -1.0537 H   0  0  0  0  0  0  0  0  0  0  0  0
  -10.1683    1.5550    0.1480 H   0  0  0  0  0  0  0  0  0  0  0  0
   10.9614    0.7782    0.9920 H   0  0  0  0  0  0  0  0  0  0  0  0
   10.6210   -0.3292   -0.2956 H   0  0  0  0  0  0  0  0  0  0  0  0
  -10.9204   -0.7516    0.3843 H   0  0  0  0  0  0  0  0  0  0  0  0
   -9.9939   -0.3421    1.7993 H   0  0  0  0  0  0  0  0  0  0  0  0
    9.0896   -0.0387    2.3973 H   0  0  0  0  0  0  0  0  0  0  0  0
   -8.1298   -1.7135    1.2052 H   0  0  0  0  0  0  0  0  0  0  0  0
    7.5966    0.2321   -2.8432 H   0  0  0  0  0  0  0  0  0  0  0  0
    9.2261   -0.1037   -2.3017 H   0  0  0  0  0  0  0  0  0  0  0  0
    7.9126   -1.1522   -1.7573 H   0  0  0  0  0  0  0  0  0  0  0  0
   -9.1032    2.6624    1.7818 H   0  0  0  0  0  0  0  0  0  0  0  0
   -7.3963    2.9865    1.6527 H   0  0  0  0  0  0  0  0  0  0  0  0
   -7.9716    1.6124    2.6406 H   0  0  0  0  0  0  0  0  0  0  0  0
    6.5992    1.6959    0.5027 H   0  0  0  0  0  0  0  0  0  0  0  0
   -6.8778    0.2262   -0.8535 H   0  0  0  0  0  0  0  0  0  0  0  0
    8.9402   -3.4574    0.0379 H   0  0  0  0  0  0  0  0  0  0  0  0
   10.6079   -3.3006    0.6106 H   0  0  0  0  0  0  0  0  0  0  0  0
    9.9397   -2.1738   -0.5814 H   0  0  0  0  0  0  0  0  0  0  0  0
    7.6364   -3.1805    2.1639 H   0  0  0  0  0  0  0  0  0  0  0  0
    9.1996   -3.4773    2.9601 H   0  0  0  0  0  0  0  0  0  0  0  0
    8.2316   -2.0630    3.3993 H   0  0  0  0  0  0  0  0  0  0  0  0
  -10.7450   -1.7387   -1.4662 H   0  0  0  0  0  0  0  0  0  0  0  0
  -10.8809   -3.4772   -1.1464 H   0  0  0  0  0  0  0  0  0  0  0  0
   -9.7987   -2.8645   -2.4097 H   0  0  0  0  0  0  0  0  0  0  0  0
   -8.5800   -4.7416   -0.4540 H   0  0  0  0  0  0  0  0  0  0  0  0
   -7.2756   -3.7313    0.1848 H   0  0  0  0  0  0  0  0  0  0  0  0
   -7.5959   -3.7488   -1.5547 H   0  0  0  0  0  0  0  0  0  0  0  0
    5.5593   -0.0651   -1.8336 H   0  0  0  0  0  0  0  0  0  0  0  0
   -5.5239    1.9724    1.3269 H   0  0  0  0  0  0  0  0  0  0  0  0
    4.2242    1.5535    0.3928 H   0  0  0  0  0  0  0  0  0  0  0  0
   -4.4887    0.2556   -0.9890 H   0  0  0  0  0  0  0  0  0  0  0  0
    1.9614    1.5666    0.4747 H   0  0  0  0  0  0  0  0  0  0  0  0
   -2.1023    0.1788   -1.2103 H   0  0  0  0  0  0  0  0  0  0  0  0
    3.4969   -1.3342   -2.0312 H   0  0  0  0  0  0  0  0  0  0  0  0
    1.9808   -0.6634   -2.6025 H   0  0  0  0  0  0  0  0  0  0  0  0
    3.4815    0.1073   -3.0777 H   0  0  0  0  0  0  0  0  0  0  0  0
   -3.4654    3.1521    1.2595 H   0  0  0  0  0  0  0  0  0  0  0  0
   -3.3122    1.7609    2.3543 H   0  0  0  0  0  0  0  0  0  0  0  0
   -1.8952    2.5379    1.6853 H   0  0  0  0  0  0  0  0  0  0  0  0
    0.2780    0.0018   -1.6075 H   0  0  0  0  0  0  0  0  0  0  0  0
   -0.3439    1.7620    0.7892 H   0  0  0  0  0  0  0  0  0  0  0  0
  1  3  1  0  0  0  0
  1  5  1  0  0  0  0
  1 31  1  0  0  0  0
  1 32  1  0  0  0  0
  2  4  1  0  0  0  0
  2  6  1  0  0  0  0
  2 33  1  0  0  0  0
  2 34  1  0  0  0  0
  3  7  1  0  0  0  0
  3 35  1  0  0  0  0
  3 36  1  0  0  0  0
  4  8  1  0  0  0  0
  4 37  1  0  0  0  0
  4 38  1  0  0  0  0
  5 11  1  0  0  0  0
  5 13  2  0  0  0  0
  6 12  1  0  0  0  0
  6 14  2  0  0  0  0
  7  9  2  0  0  0  0
  7 39  1  0  0  0  0
  8 10  2  0  0  0  0
  8 40  1  0  0  0  0
  9 15  1  0  0  0  0
  9 16  1  0  0  0  0
 10 17  1  0  0  0  0
 10 18  1  0  0  0  0
 11 41  1  0  0  0  0
 11 42  1  0  0  0  0
 11 43  1  0  0  0  0
 12 44  1  0  0  0  0
 12 45  1  0  0  0  0
 12 46  1  0  0  0  0
 13 19  1  0  0  0  0
 13 47  1  0  0  0  0
 14 20  1  0  0  0  0
 14 48  1  0  0  0  0
 15 49  1  0  0  0  0
 15 50  1  0  0  0  0
 15 51  1  0  0  0  0
 16 52  1  0  0  0  0
 16 53  1  0  0  0  0
 16 54  1  0  0  0  0
 17 55  1  0  0  0  0
 17 56  1  0  0  0  0
 17 57  1  0  0  0  0
 18 58  1  0  0  0  0
 18 59  1  0  0  0  0
 18 60  1  0  0  0  0
 19 21  2  0  0  0  0
 19 61  1  0  0  0  0
 20 22  2  0  0  0  0
 20 62  1  0  0  0  0
 21 23  1  0  0  0  0
 21 63  1  0  0  0  0
 22 24  1  0  0  0  0
 22 64  1  0  0  0  0
 23 25  2  0  0  0  0
 23 27  1  0  0  0  0
 24 26  2  0  0  0  0
 24 28  1  0  0  0  0
 25 29  1  0  0  0  0
 25 65  1  0  0  0  0
 26 30  1  0  0  0  0
 26 66  1  0  0  0  0
 27 67  1  0  0  0  0
 27 68  1  0  0  0  0
 27 69  1  0  0  0  0
 28 70  1  0  0  0  0
 28 71  1  0  0  0  0
 28 72  1  0  0  0  0
 29 30  2  0  0  0  0
 29 73  1  0  0  0  0
 30 74  1  0  0  0  0
M  END
> <PUBCHEM_COMPOUND_CID>
11315692

> <PUBCHEM_CONFORMER_RMSD>
1.4

> <PUBCHEM_CONFORMER_DIVERSEORDER>
2
57
11
73
24
47
45
68
26
3
69
27
70
25
35
63
23
13
76
37
38
50
66
10
75
28
40
16
32
74
5
54
33
77
58
62
53
71
4
12
41
55
39
56
15
64
1
34
42
21
19
59
60
51
9
46
29
20
14
61
52
22
65
43
30
48
72
78
36
8
67
17
44
49
7
31
18
6

> <PUBCHEM_MMFF94_PARTIAL_CHARGES>
42
1 0.14
10 -0.28
11 0.14
12 0.14
13 -0.15
14 -0.15
15 0.14
16 0.14
17 0.14
18 0.14
19 -0.15
2 0.14
20 -0.15
21 -0.15
22 -0.15
23 -0.14
24 -0.14
25 -0.15
26 -0.15
27 0.14
28 0.14
29 -0.15
3 0.14
30 -0.15
39 0.15
4 0.14
40 0.15
47 0.15
48 0.15
5 -0.28
6 -0.28
61 0.15
62 0.15
63 0.15
64 0.15
65 0.15
66 0.15
7 -0.29
73 0.15
74 0.15
8 -0.29
9 -0.28

> <PUBCHEM_EFFECTIVE_ROTOR_COUNT>
12

> <PUBCHEM_PHARMACOPHORE_FEATURES>
8
1 11 hydrophobe
1 12 hydrophobe
1 27 hydrophobe
1 28 hydrophobe
3 10 17 18 hydrophobe
3 9 15 16 hydrophobe
4 1 3 5 7 hydrophobe
4 2 4 6 8 hydrophobe

> <PUBCHEM_HEAVY_ATOM_COUNT>
30

> <PUBCHEM_ATOM_DEF_STEREO_COUNT>
0

> <PUBCHEM_ATOM_UDEF_STEREO_COUNT>
0

> <PUBCHEM_BOND_DEF_STEREO_COUNT>
7

> <PUBCHEM_BOND_UDEF_STEREO_COUNT>
0

> <PUBCHEM_ISOTOPIC_ATOM_COUNT>
0

> <PUBCHEM_COMPONENT_COUNT>
1

> <PUBCHEM_CACTVS_TAUTO_COUNT>
1

> <PUBCHEM_CONFORMER_ID>
00ACA9EC00000002

> <PUBCHEM_MMFF94_ENERGY>
51.3545

> <PUBCHEM_FEATURE_SELFOVERLAP>
40.619

> <PUBCHEM_SHAPE_FINGERPRINT>
11211813 74 7709445127676756146
11638347 137 18130785694539946832
12089408 11 18343015597074337332
12498461 61 18410577275408117035
13740195 50 17603585210280454741
14040221 8 10087642611272316918
14117953 113 14548732911431146328
14202775 3 17060328622535288161
14251764 46 18113051649836322476
14279260 333 18272087151183785203
14344974 52 5256390700425600109
15145343 6 16660639631921690777
15145344 10 14835855023028057266
15392192 104 18186799189515144910
15510794 2 17895183411774708439
21102433 48 18413393133092455563
21362267 2 4894973484992323882
21362267 20 18410575059448488371
21362267 313 18265329693830603520
21895431 317 18343866636607351010
232437 2 18201717357793936168
4173938 188 17749108863892713731
437795 160 18186238428987624817
67123 10 18333726910242852877

> <PUBCHEM_SHAPE_MULTIPOLES>
617.39
52.06
3.13
1.72
3.17
3.55
-0.25
30.11
-10.76
-5.57
-0.72
3.31
0.65
-7.19

> <PUBCHEM_SHAPE_SELFOVERLAP>
1195.365

> <PUBCHEM_SHAPE_VOLUME>
373.6

> <PUBCHEM_COORDINATE_TYPE>
2
5
10

$$$$

