247837
  -OEChem-07051213063D

 50 53  0     1  0  0  0  0  0999 V2000
    5.8308   -0.0592    0.2001 F   0  0  0  0  0  0  0  0  0  0  0  0
   -5.2342    1.0336    0.1274 O   0  0  0  0  0  0  0  0  0  0  0  0
   -2.0559   -0.7433    0.3417 C   0  0  2  0  0  0  0  0  0  0  0  0
   -2.8100    0.5481   -0.0210 C   0  0  2  0  0  0  0  0  0  0  0  0
   -0.6282   -0.7806   -0.2114 C   0  0  1  0  0  0  0  0  0  0  0  0
    0.1694    0.4438    0.3260 C   0  0  1  0  0  0  0  0  0  0  0  0
    1.6426    0.4714   -0.2476 C   0  0  2  0  0  0  0  0  0  0  0  0
   -2.0655    1.7220    0.6280 C   0  0  0  0  0  0  0  0  0  0  0  0
   -0.6011    1.7832    0.1601 C   0  0  0  0  0  0  0  0  0  0  0  0
   -4.1787    0.2251    0.6101 C   0  0  2  0  0  0  0  0  0  0  0  0
   -3.0289   -1.8506   -0.0540 C   0  0  0  0  0  0  0  0  0  0  0  0
    0.0751   -2.0867    0.1868 C   0  0  0  0  0  0  0  0  0  0  0  0
   -4.4145   -1.2559    0.2558 C   0  0  0  0  0  0  0  0  0  0  0  0
    2.2754   -0.9268   -0.1945 C   0  0  0  0  0  0  0  0  0  0  0  0
    2.4877    1.4488    0.6241 C   0  0  0  0  0  0  0  0  0  0  0  0
   -2.9632    0.8004   -1.5419 C   0  0  0  0  0  0  0  0  0  0  0  0
    1.5594   -2.0455    0.0133 C   0  0  0  0  0  0  0  0  0  0  0  0
    1.6646    0.9494   -1.7197 C   0  0  0  0  0  0  0  0  0  0  0  0
    3.7727   -1.0142   -0.3793 C   0  0  0  0  0  0  0  0  0  0  0  0
    3.9924    1.3787    0.3674 C   0  0  0  0  0  0  0  0  0  0  0  0
    4.5099   -0.0417    0.5287 C   0  0  2  0  0  0  0  0  0  0  0  0
   -1.9697   -0.7933    1.4406 H   0  0  0  0  0  0  0  0  0  0  0  0
   -0.6639   -0.7420   -1.3063 H   0  0  0  0  0  0  0  0  0  0  0  0
    0.2535    0.2913    1.4145 H   0  0  0  0  0  0  0  0  0  0  0  0
   -2.0793    1.6211    1.7210 H   0  0  0  0  0  0  0  0  0  0  0  0
   -2.5661    2.6705    0.3993 H   0  0  0  0  0  0  0  0  0  0  0  0
   -0.5887    2.1072   -0.8844 H   0  0  0  0  0  0  0  0  0  0  0  0
   -0.0975    2.5718    0.7305 H   0  0  0  0  0  0  0  0  0  0  0  0
   -4.1419    0.3395    1.7003 H   0  0  0  0  0  0  0  0  0  0  0  0
   -2.8547   -2.7721    0.5107 H   0  0  0  0  0  0  0  0  0  0  0  0
   -2.9476   -2.0939   -1.1193 H   0  0  0  0  0  0  0  0  0  0  0  0
   -0.3271   -2.9082   -0.4184 H   0  0  0  0  0  0  0  0  0  0  0  0
   -0.1340   -2.3343    1.2350 H   0  0  0  0  0  0  0  0  0  0  0  0
   -5.0904   -1.3851   -0.5968 H   0  0  0  0  0  0  0  0  0  0  0  0
   -4.8760   -1.7728    1.1048 H   0  0  0  0  0  0  0  0  0  0  0  0
    2.3177    1.2321    1.6876 H   0  0  0  0  0  0  0  0  0  0  0  0
    2.1610    2.4832    0.4641 H   0  0  0  0  0  0  0  0  0  0  0  0
   -3.4768    1.7511   -1.7262 H   0  0  0  0  0  0  0  0  0  0  0  0
   -2.0015    0.8552   -2.0591 H   0  0  0  0  0  0  0  0  0  0  0  0
   -3.5426    0.0167   -2.0404 H   0  0  0  0  0  0  0  0  0  0  0  0
    2.0671   -3.0058    0.0618 H   0  0  0  0  0  0  0  0  0  0  0  0
    1.3675    1.9994   -1.8086 H   0  0  0  0  0  0  0  0  0  0  0  0
    2.6622    0.8782   -2.1660 H   0  0  0  0  0  0  0  0  0  0  0  0
    0.9946    0.3557   -2.3501 H   0  0  0  0  0  0  0  0  0  0  0  0
    4.1481   -2.0267   -0.1850 H   0  0  0  0  0  0  0  0  0  0  0  0
    4.0292   -0.8084   -1.4255 H   0  0  0  0  0  0  0  0  0  0  0  0
    4.2333    1.7530   -0.6344 H   0  0  0  0  0  0  0  0  0  0  0  0
    4.5205    2.0392    1.0652 H   0  0  0  0  0  0  0  0  0  0  0  0
    4.4287   -0.3585    1.5749 H   0  0  0  0  0  0  0  0  0  0  0  0
   -5.4180    0.7944   -0.7961 H   0  0  0  0  0  0  0  0  0  0  0  0
  1 21  1  0  0  0  0
  2 10  1  0  0  0  0
  2 50  1  0  0  0  0
  3  4  1  0  0  0  0
  3  5  1  0  0  0  0
  3 11  1  0  0  0  0
  3 22  1  0  0  0  0
  4  8  1  0  0  0  0
  4 10  1  0  0  0  0
  4 16  1  0  0  0  0
  5  6  1  0  0  0  0
  5 12  1  0  0  0  0
  5 23  1  0  0  0  0
  6  7  1  0  0  0  0
  6  9  1  0  0  0  0
  6 24  1  0  0  0  0
  7 14  1  0  0  0  0
  7 15  1  0  0  0  0
  7 18  1  0  0  0  0
  8  9  1  0  0  0  0
  8 25  1  0  0  0  0
  8 26  1  0  0  0  0
  9 27  1  0  0  0  0
  9 28  1  0  0  0  0
 10 13  1  0  0  0  0
 10 29  1  0  0  0  0
 11 13  1  0  0  0  0
 11 30  1  0  0  0  0
 11 31  1  0  0  0  0
 12 17  1  0  0  0  0
 12 32  1  0  0  0  0
 12 33  1  0  0  0  0
 13 34  1  0  0  0  0
 13 35  1  0  0  0  0
 14 17  2  0  0  0  0
 14 19  1  0  0  0  0
 15 20  1  0  0  0  0
 15 36  1  0  0  0  0
 15 37  1  0  0  0  0
 16 38  1  0  0  0  0
 16 39  1  0  0  0  0
 16 40  1  0  0  0  0
 17 41  1  0  0  0  0
 18 42  1  0  0  0  0
 18 43  1  0  0  0  0
 18 44  1  0  0  0  0
 19 21  1  0  0  0  0
 19 45  1  0  0  0  0
 19 46  1  0  0  0  0
 20 21  1  0  0  0  0
 20 47  1  0  0  0  0
 20 48  1  0  0  0  0
 21 49  1  0  0  0  0
M  END
> <PUBCHEM_COMPOUND_CID>
247837

> <PUBCHEM_CONFORMER_RMSD>
0.6

> <PUBCHEM_CONFORMER_DIVERSEORDER>
1

> <PUBCHEM_MMFF94_PARTIAL_CHARGES>
11
1 -0.34
10 0.28
12 0.14
14 -0.28
17 -0.29
19 0.14
2 -0.68
21 0.34
41 0.15
50 0.4
7 0.14

> <PUBCHEM_EFFECTIVE_ROTOR_COUNT>
2

> <PUBCHEM_PHARMACOPHORE_FEATURES>
6
1 2 acceptor
1 2 donor
5 3 4 10 11 13 rings
6 3 4 5 6 8 9 rings
6 5 6 7 12 14 17 rings
6 7 14 15 19 20 21 rings

> <PUBCHEM_HEAVY_ATOM_COUNT>
21

> <PUBCHEM_ATOM_DEF_STEREO_COUNT>
7

> <PUBCHEM_ATOM_UDEF_STEREO_COUNT>
0

> <PUBCHEM_BOND_DEF_STEREO_COUNT>
0

> <PUBCHEM_BOND_UDEF_STEREO_COUNT>
0

> <PUBCHEM_ISOTOPIC_ATOM_COUNT>
0

> <PUBCHEM_COMPONENT_COUNT>
1

> <PUBCHEM_CACTVS_TAUTO_COUNT>
1

> <PUBCHEM_CONFORMER_ID>
0003C81D00000001

> <PUBCHEM_MMFF94_ENERGY>
66.4251

> <PUBCHEM_FEATURE_SELFOVERLAP>
30.542

> <PUBCHEM_SHAPE_FINGERPRINT>
10062212 137 18341335504926475491
10646746 165 18408604773164745360
10967382 1 18409447015834844058
11132069 177 18341609304907060147
11806522 49 18411135840220677258
12011746 2 18408600375482088356
12236239 1 17917710193357135320
12403259 226 18410299111930338848
12403259 415 18412833473300020364
12403814 3 17846498128314378021
12788726 201 17023742467589509001
128620 24 18341892991496529191
13140716 1 18339077064771207714
13214271 11 18259985964181803015
13224815 77 18410292505900904691
13675066 3 18342736291092553595
14115302 16 18342729698222815285
14223421 5 18336826514829980678
14341114 176 18335696165722056826
14787075 74 18336550391456438810
15196674 1 18409448055179896042
15536298 74 18333728035370926622
15788980 27 17632297869443782033
16945 1 18266182927036643115
17349148 13 18201721738844824226
1813 80 17346598591092976436
18186145 218 18411419522625909966
18522853 276 18408882953600814225
200 152 18114186328434193687
21033648 29 18341068362139937928
21267235 1 18410002217635855226
21279426 13 18193274311663624006
21421861 104 18058171819804549554
22854114 111 18412259532239977711
23402539 116 18260272927483139780
23557571 272 18114457868830159143
23559900 14 18334295379592733010
26918003 58 18407761438766072545
2748010 2 18410851036354291879
296302 2 16370725924167093198
335352 9 18409448106761649836
34934 24 18409171047549571275
350125 39 18410853248827133536
351380 180 18333733507285648056
3545911 37 18411135857326595979
4214541 1 18409729556121641265
474 4 18060131024902368811
5104073 3 18410011009428292011
542803 24 17917709093418291572
69090 78 18260269624737996894
7364860 26 18189612911783176150
9709674 26 18408597059061116582

> <PUBCHEM_SHAPE_MULTIPOLES>
419.03
9.62
2.07
0.98
1.82
0.42
0.38
-0.44
-1.09
-0.29
-0.13
-0.06
-0.29
0.22

> <PUBCHEM_SHAPE_SELFOVERLAP>
896.016

> <PUBCHEM_SHAPE_VOLUME>
234.5

> <PUBCHEM_COORDINATE_TYPE>
2
5
10

$$$$

