23690429
  -OEChem-07051212542D

 16 15  0     0  0  0  0  0  0999 V2000
    2.5369   -0.2500    0.0000 S   0  0  0  0  0  0  0  0  0  0  0  0
    5.1350    2.2500    0.0000 Na  0  3  0  0  0  0  0  0  0  0  0  0
    5.1350    1.2500    0.0000 O   0  5  0  0  0  0  0  0  0  0  0  0
    3.4030    1.2500    0.0000 O   0  0  0  0  0  0  0  0  0  0  0  0
    4.2690   -0.2500    0.0000 C   0  0  0  0  0  0  0  0  0  0  0  0
    3.4030   -0.7500    0.0000 C   0  0  0  0  0  0  0  0  0  0  0  0
    5.1350   -0.7500    0.0000 C   0  0  0  0  0  0  0  0  0  0  0  0
    3.4030   -1.7500    0.0000 C   0  0  0  0  0  0  0  0  0  0  0  0
    5.1350   -1.7500    0.0000 C   0  0  0  0  0  0  0  0  0  0  0  0
    4.2690   -2.2500    0.0000 C   0  0  0  0  0  0  0  0  0  0  0  0
    4.2690    0.7500    0.0000 C   0  0  0  0  0  0  0  0  0  0  0  0
    5.6720   -0.4400    0.0000 H   0  0  0  0  0  0  0  0  0  0  0  0
    2.8660   -2.0600    0.0000 H   0  0  0  0  0  0  0  0  0  0  0  0
    5.6720   -2.0600    0.0000 H   0  0  0  0  0  0  0  0  0  0  0  0
    4.2690   -2.8700    0.0000 H   0  0  0  0  0  0  0  0  0  0  0  0
    2.0000   -0.5600    0.0000 H   0  0  0  0  0  0  0  0  0  0  0  0
  1  6  1  0  0  0  0
  1 16  1  0  0  0  0
  3 11  1  0  0  0  0
  4 11  2  0  0  0  0
  5  6  1  0  0  0  0
  5  7  2  0  0  0  0
  5 11  1  0  0  0  0
  6  8  2  0  0  0  0
  7  9  1  0  0  0  0
  7 12  1  0  0  0  0
  8 10  1  0  0  0  0
  8 13  1  0  0  0  0
  9 10  2  0  0  0  0
  9 14  1  0  0  0  0
 10 15  1  0  0  0  0
M  CHG  2   2   1   3  -1
M  END
> <PUBCHEM_COMPOUND_CID>
23690429

> <PUBCHEM_COMPOUND_CANONICALIZED>
1

> <PUBCHEM_CACTVS_COMPLEXITY>
140

> <PUBCHEM_CACTVS_HBOND_ACCEPTOR>
3

> <PUBCHEM_CACTVS_HBOND_DONOR>
1

> <PUBCHEM_CACTVS_ROTATABLE_BOND>
1

> <PUBCHEM_CACTVS_SUBSKEYS>
AAADcYBgMCBAAAAAAAAAAAAAAAAAAAAAAAAwAAAAAAAAAAABAAAAGgQAAAAADACA2AAwCYAAAASIAiDSCAACAAAkAAAIiBkACMgIJjKAFRCAMQAkwAEIiYeIyCCOAAAAAAAEAAAAAAAAAAgAAAAAAAAAAA==

> <PUBCHEM_IUPAC_OPENEYE_NAME>
sodium 2-sulfanylbenzoate

> <PUBCHEM_IUPAC_CAS_NAME>
sodium 2-mercaptobenzoate

> <PUBCHEM_IUPAC_NAME>
sodium 2-sulfanylbenzoate

> <PUBCHEM_IUPAC_SYSTEMATIC_NAME>
sodium 2-sulfanylbenzoate

> <PUBCHEM_IUPAC_TRADITIONAL_NAME>
sodium 2-mercaptobenzoate

> <PUBCHEM_IUPAC_INCHI>
InChI=1S/C7H6O2S.Na/c8-7(9)5-3-1-2-4-6(5)10;/h1-4,10H,(H,8,9);/q;+1/p-1

> <PUBCHEM_IUPAC_INCHIKEY>
HBAIZOJDXAXWHS-UHFFFAOYSA-M

> <PUBCHEM_EXACT_MASS>
175.990795

> <PUBCHEM_MOLECULAR_FORMULA>
C7H5NaO2S

> <PUBCHEM_MOLECULAR_WEIGHT>
176.168169

> <PUBCHEM_OPENEYE_CAN_SMILES>
C1=CC=C(C(=C1)C(=O)[O-])S.[Na+]

> <PUBCHEM_OPENEYE_ISO_SMILES>
C1=CC=C(C(=C1)C(=O)[O-])S.[Na+]

> <PUBCHEM_CACTVS_TPSA>
41.1

> <PUBCHEM_MONOISOTOPIC_WEIGHT>
175.990795

> <PUBCHEM_TOTAL_CHARGE>
0

> <PUBCHEM_HEAVY_ATOM_COUNT>
11

> <PUBCHEM_ATOM_DEF_STEREO_COUNT>
0

> <PUBCHEM_ATOM_UDEF_STEREO_COUNT>
0

> <PUBCHEM_BOND_DEF_STEREO_COUNT>
0

> <PUBCHEM_BOND_UDEF_STEREO_COUNT>
0

> <PUBCHEM_ISOTOPIC_ATOM_COUNT>
0

> <PUBCHEM_COMPONENT_COUNT>
2

> <PUBCHEM_CACTVS_TAUTO_COUNT>
4

> <PUBCHEM_NONSTANDARDBOND>
2  3  7

> <PUBCHEM_COORDINATE_TYPE>
1
5
255

> <PUBCHEM_BONDANNOTATIONS>
5  6  8
5  7  8
6  8  8
7  9  8
8  10  8
9  10  8

$$$$

