5460436
  -OEChem-07051212573D

 71 75  0     1  0  0  0  0  0999 V2000
   -6.3489   -0.5708    0.4289 O   0  0  0  0  0  0  0  0  0  0  0  0
   -3.5001    3.2497    0.2740 O   0  0  0  0  0  0  0  0  0  0  0  0
   -6.0379    2.1518    0.3215 O   0  0  0  0  0  0  0  0  0  0  0  0
    6.1979   -0.5825    1.3183 O   0  0  0  0  0  0  0  0  0  0  0  0
    6.5927    2.1823    1.2250 O   0  0  0  0  0  0  0  0  0  0  0  0
   -1.7739   -2.6615    0.1187 N   0  0  1  0  0  0  0  0  0  0  0  0
    1.5007    1.0607   -2.1825 N   0  0  0  0  0  0  0  0  0  0  0  0
    0.9041   -1.6957   -0.5284 C   0  0  2  0  0  0  0  0  0  0  0  0
    0.5209   -3.1845   -0.6542 C   0  0  2  0  0  0  0  0  0  0  0  0
   -1.4433   -1.2401    0.3844 C   0  0  1  0  0  0  0  0  0  0  0  0
   -0.3540   -0.8135   -0.6237 C   0  0  0  0  0  0  0  0  0  0  0  0
   -0.6094   -3.5297    0.3306 C   0  0  0  0  0  0  0  0  0  0  0  0
    1.9220   -1.2582   -1.5847 C   0  0  0  0  0  0  0  0  0  0  0  0
   -2.9031   -3.0991    0.9437 C   0  0  0  0  0  0  0  0  0  0  0  0
   -2.6707   -0.3288    0.3426 C   0  0  0  0  0  0  0  0  0  0  0  0
    1.7118   -4.1168   -0.4139 C   0  0  0  0  0  0  0  0  0  0  0  0
   -4.1639   -2.3687    0.4884 C   0  0  0  0  0  0  0  0  0  0  0  0
   -3.9660   -0.8781    0.4194 C   0  0  0  0  0  0  0  0  0  0  0  0
    2.2885    0.1980   -1.4334 C   0  0  0  0  0  0  0  0  0  0  0  0
   -2.5415    1.0702    0.3190 C   0  0  0  0  0  0  0  0  0  0  0  0
    1.3314   -5.5644   -0.6477 C   0  0  0  0  0  0  0  0  0  0  0  0
   -5.0912   -0.0399    0.3958 C   0  0  0  0  0  0  0  0  0  0  0  0
    3.3059    0.6605   -0.6581 C   0  0  0  0  0  0  0  0  0  0  0  0
   -3.6665    1.8976    0.3087 C   0  0  0  0  0  0  0  0  0  0  0  0
   -4.9409    1.3430    0.3386 C   0  0  0  0  0  0  0  0  0  0  0  0
    1.8253    2.4567   -2.3823 C   0  0  0  0  0  0  0  0  0  0  0  0
    3.4916    2.1193   -0.5355 C   0  0  0  0  0  0  0  0  0  0  0  0
    2.4144    3.0201   -1.0938 C   0  0  0  0  0  0  0  0  0  0  0  0
    4.2325   -0.2193    0.0469 C   0  0  0  0  0  0  0  0  0  0  0  0
    4.5727    2.6201    0.0829 C   0  0  0  0  0  0  0  0  0  0  0  0
    5.3121    0.2594    0.6810 C   0  0  0  0  0  0  0  0  0  0  0  0
    5.5829    1.7237    0.7010 C   0  0  0  0  0  0  0  0  0  0  0  0
   -3.4046    3.9230    1.5274 C   0  0  0  0  0  0  0  0  0  0  0  0
   -6.5702    2.4938   -0.9563 C   0  0  0  0  0  0  0  0  0  0  0  0
    6.2788   -0.2781    2.6978 C   0  0  0  0  0  0  0  0  0  0  0  0
    1.3446   -1.5433    0.4677 H   0  0  0  0  0  0  0  0  0  0  0  0
    0.1496   -3.3549   -1.6755 H   0  0  0  0  0  0  0  0  0  0  0  0
   -1.0364   -1.1505    1.4029 H   0  0  0  0  0  0  0  0  0  0  0  0
   -0.0787    0.2198   -0.4015 H   0  0  0  0  0  0  0  0  0  0  0  0
   -0.7621   -0.8341   -1.6437 H   0  0  0  0  0  0  0  0  0  0  0  0
   -0.9320   -4.5622    0.1610 H   0  0  0  0  0  0  0  0  0  0  0  0
   -0.2541   -3.4634    1.3677 H   0  0  0  0  0  0  0  0  0  0  0  0
    1.5136   -1.4353   -2.5897 H   0  0  0  0  0  0  0  0  0  0  0  0
    2.8251   -1.8724   -1.5550 H   0  0  0  0  0  0  0  0  0  0  0  0
   -3.0789   -4.1756    0.8269 H   0  0  0  0  0  0  0  0  0  0  0  0
   -2.7082   -2.9151    2.0088 H   0  0  0  0  0  0  0  0  0  0  0  0
    2.1074   -3.9941    0.6011 H   0  0  0  0  0  0  0  0  0  0  0  0
    2.5273   -3.8842   -1.1047 H   0  0  0  0  0  0  0  0  0  0  0  0
   -4.9704   -2.6137    1.1898 H   0  0  0  0  0  0  0  0  0  0  0  0
   -4.4628   -2.7250   -0.5057 H   0  0  0  0  0  0  0  0  0  0  0  0
   -1.5605    1.5372    0.3196 H   0  0  0  0  0  0  0  0  0  0  0  0
    0.7039   -5.9615    0.1554 H   0  0  0  0  0  0  0  0  0  0  0  0
    0.8127   -5.6988   -1.6023 H   0  0  0  0  0  0  0  0  0  0  0  0
    2.2351   -6.1835   -0.6724 H   0  0  0  0  0  0  0  0  0  0  0  0
    0.7848    0.6482   -2.7714 H   0  0  0  0  0  0  0  0  0  0  0  0
    0.9252    3.0125   -2.6643 H   0  0  0  0  0  0  0  0  0  0  0  0
    2.5448    2.5482   -3.2046 H   0  0  0  0  0  0  0  0  0  0  0  0
    2.7924    4.0327   -1.2775 H   0  0  0  0  0  0  0  0  0  0  0  0
    1.6179    3.1049   -0.3423 H   0  0  0  0  0  0  0  0  0  0  0  0
    4.0583   -1.2894    0.0595 H   0  0  0  0  0  0  0  0  0  0  0  0
   -6.9948    0.1556    0.4571 H   0  0  0  0  0  0  0  0  0  0  0  0
    4.7326    3.6883    0.1827 H   0  0  0  0  0  0  0  0  0  0  0  0
   -2.5337    3.5684    2.0877 H   0  0  0  0  0  0  0  0  0  0  0  0
   -4.3159    3.7747    2.1154 H   0  0  0  0  0  0  0  0  0  0  0  0
   -3.2839    4.9922    1.3335 H   0  0  0  0  0  0  0  0  0  0  0  0
   -7.4646    3.1036   -0.8023 H   0  0  0  0  0  0  0  0  0  0  0  0
   -5.8436    3.0781   -1.5295 H   0  0  0  0  0  0  0  0  0  0  0  0
   -6.8517    1.5953   -1.5145 H   0  0  0  0  0  0  0  0  0  0  0  0
    7.0396    0.4836    2.8909 H   0  0  0  0  0  0  0  0  0  0  0  0
    5.3149    0.0234    3.1255 H   0  0  0  0  0  0  0  0  0  0  0  0
    6.5971   -1.1863    3.2199 H   0  0  0  0  0  0  0  0  0  0  0  0
  1 22  1  0  0  0  0
  1 61  1  0  0  0  0
  2 24  1  0  0  0  0
  2 33  1  0  0  0  0
  3 25  1  0  0  0  0
  3 34  1  0  0  0  0
  4 31  1  0  0  0  0
  4 35  1  0  0  0  0
  5 32  2  0  0  0  0
  6 10  1  0  0  0  0
  6 12  1  0  0  0  0
  6 14  1  0  0  0  0
  7 19  1  0  0  0  0
  7 26  1  0  0  0  0
  7 55  1  0  0  0  0
  8  9  1  0  0  0  0
  8 11  1  0  0  0  0
  8 13  1  0  0  0  0
  8 36  1  0  0  0  0
  9 12  1  0  0  0  0
  9 16  1  0  0  0  0
  9 37  1  0  0  0  0
 10 11  1  0  0  0  0
 10 15  1  0  0  0  0
 10 38  1  0  0  0  0
 11 39  1  0  0  0  0
 11 40  1  0  0  0  0
 12 41  1  0  0  0  0
 12 42  1  0  0  0  0
 13 19  1  0  0  0  0
 13 43  1  0  0  0  0
 13 44  1  0  0  0  0
 14 17  1  0  0  0  0
 14 45  1  0  0  0  0
 14 46  1  0  0  0  0
 15 18  1  0  0  0  0
 15 20  2  0  0  0  0
 16 21  1  0  0  0  0
 16 47  1  0  0  0  0
 16 48  1  0  0  0  0
 17 18  1  0  0  0  0
 17 49  1  0  0  0  0
 17 50  1  0  0  0  0
 18 22  2  0  0  0  0
 19 23  2  0  0  0  0
 20 24  1  0  0  0  0
 20 51  1  0  0  0  0
 21 52  1  0  0  0  0
 21 53  1  0  0  0  0
 21 54  1  0  0  0  0
 22 25  1  0  0  0  0
 23 27  1  0  0  0  0
 23 29  1  0  0  0  0
 24 25  2  0  0  0  0
 26 28  1  0  0  0  0
 26 56  1  0  0  0  0
 26 57  1  0  0  0  0
 27 28  1  0  0  0  0
 27 30  2  0  0  0  0
 28 58  1  0  0  0  0
 28 59  1  0  0  0  0
 29 31  2  0  0  0  0
 29 60  1  0  0  0  0
 30 32  1  0  0  0  0
 30 62  1  0  0  0  0
 31 32  1  0  0  0  0
 33 63  1  0  0  0  0
 33 64  1  0  0  0  0
 33 65  1  0  0  0  0
 34 66  1  0  0  0  0
 34 67  1  0  0  0  0
 34 68  1  0  0  0  0
 35 69  1  0  0  0  0
 35 70  1  0  0  0  0
 35 71  1  0  0  0  0
M  END
> <PUBCHEM_COMPOUND_CID>
5460436

> <PUBCHEM_CONFORMER_RMSD>
1

> <PUBCHEM_CONFORMER_DIVERSEORDER>
1
15
13
12
14
10
8
9
2
5
11
3
4
6
7

> <PUBCHEM_MMFF94_PARTIAL_CHARGES>
34
1 -0.53
10 0.41
12 0.27
13 0.14
14 0.27
15 -0.14
17 0.14
18 -0.14
19 -0.04
2 -0.36
20 -0.15
22 0.08
24 0.08
25 0.08
26 0.37
27 -0.14
28 0.14
29 -0.15
3 -0.36
30 -0.14
31 0.09
32 0.54
33 0.28
34 0.28
35 0.28
4 -0.36
5 -0.57
51 0.15
55 0.4
6 -0.81
60 0.15
61 0.45
62 0.15
7 -0.87

> <PUBCHEM_EFFECTIVE_ROTOR_COUNT>
7.8

> <PUBCHEM_PHARMACOPHORE_FEATURES>
14
1 1 donor
1 2 acceptor
1 21 hydrophobe
1 3 acceptor
1 4 acceptor
1 5 acceptor
1 6 cation
1 7 cation
1 7 donor
6 15 18 20 22 24 25 rings
6 23 27 29 30 31 32 rings
6 6 10 14 15 17 18 rings
6 6 8 9 10 11 12 rings
6 7 19 23 26 27 28 rings

> <PUBCHEM_HEAVY_ATOM_COUNT>
35

> <PUBCHEM_ATOM_DEF_STEREO_COUNT>
3

> <PUBCHEM_ATOM_UDEF_STEREO_COUNT>
0

> <PUBCHEM_BOND_DEF_STEREO_COUNT>
0

> <PUBCHEM_BOND_UDEF_STEREO_COUNT>
0

> <PUBCHEM_ISOTOPIC_ATOM_COUNT>
0

> <PUBCHEM_COMPONENT_COUNT>
1

> <PUBCHEM_CACTVS_TAUTO_COUNT>
33

> <PUBCHEM_CONFORMER_ID>
005351D400000001

> <PUBCHEM_MMFF94_ENERGY>
119.1025

> <PUBCHEM_FEATURE_SELFOVERLAP>
71.118

> <PUBCHEM_SHAPE_FINGERPRINT>
10305334 12 17703799101871498019
10439779 11 18339079405692336512
10939801 23 18268991982564027168
11049842 53 18126254563871503638
12107183 9 18342184367064090418
12422481 6 18131072640597805646
12788726 201 17478874001295296262
12925494 130 17979904232161009001
14295345 954 18341890843992250266
14466204 15 18410011035483081024
14747282 125 18042986293146570322
15064986 96 17967814990492498438
15274700 34 17843946084880928315
15420108 30 18336559278193076750
15776043 110 18059861636654622570
17818456 19 18196370312963588206
19246450 95 17915481560322771160
20715895 44 18412260666454521077
21033648 29 18187656752217284016
21133410 230 17981046633532597902
21859007 373 17344638273472117501
22149856 69 18121185815879502859
229767 44 18342464716342618168
23522609 53 17629757874143145492
23559900 14 18265323087791269511
3117164 225 18270965648652591826
3493558 16 18191301778717593874
3886686 26 18131355219614097474
4366758 6 18339377330610081773
508180 173 17615373267283158406
5085150 59 18409738339514436481
513202 73 16486428697216331902
5171179 24 17762905767588812998
6371009 1 18411140203986798949
6371380 46 18335974347081948198
9961470 85 17905045107796001553
9981440 41 18340198605714188635

> <PUBCHEM_SHAPE_MULTIPOLES>
680.97
15.32
5.81
1.62
0.29
4.91
0.04
-12
-7.1
-1.31
0.53
2.32
-0.71
0.07

> <PUBCHEM_SHAPE_SELFOVERLAP>
1466.788

> <PUBCHEM_SHAPE_VOLUME>
373.3

> <PUBCHEM_COORDINATE_TYPE>
2
5
10

$$$$

