145929
  -OEChem-07051213103D

 31 34  0     0  0  0  0  0  0999 V2000
   -6.0265    0.0733    0.0500 Br  0  0  0  0  0  0  0  0  0  0  0  0
   -0.1166   -1.0182   -0.0278 N   0  0  0  0  0  0  0  0  0  0  0  0
    2.7530   -1.5358   -0.0852 N   0  0  0  0  0  0  0  0  0  0  0  0
    1.9919    2.0081   -0.0271 N   0  0  0  0  0  0  0  0  0  0  0  0
    4.3005    0.2731   -0.0689 C   0  0  0  0  0  0  0  0  0  0  0  0
    0.4080    0.2512   -0.0229 C   0  0  0  0  0  0  0  0  0  0  0  0
    2.8859   -0.2421   -0.0569 C   0  0  0  0  0  0  0  0  0  0  0  0
    5.0223   -0.9765    0.3774 C   0  0  0  0  0  0  0  0  0  0  0  0
    1.7285    0.6811   -0.0346 C   0  0  0  0  0  0  0  0  0  0  0  0
   -0.6629    1.1442   -0.0035 C   0  0  0  0  0  0  0  0  0  0  0  0
    4.1227   -2.0810   -0.1404 C   0  0  0  0  0  0  0  0  0  0  0  0
   -1.8645    0.3673    0.0043 C   0  0  0  0  0  0  0  0  0  0  0  0
   -1.4912   -0.9772   -0.0110 C   0  0  0  0  0  0  0  0  0  0  0  0
   -0.3853    2.5201    0.0043 C   0  0  0  0  0  0  0  0  0  0  0  0
   -3.2387    0.6855    0.0232 C   0  0  0  0  0  0  0  0  0  0  0  0
   -2.4231   -2.0216   -0.0087 C   0  0  0  0  0  0  0  0  0  0  0  0
    0.9563    2.8774   -0.0084 C   0  0  0  0  0  0  0  0  0  0  0  0
   -4.1822   -0.3480    0.0259 C   0  0  0  0  0  0  0  0  0  0  0  0
   -3.7782   -1.6808    0.0103 C   0  0  0  0  0  0  0  0  0  0  0  0
    4.5707    0.5606   -1.0895 H   0  0  0  0  0  0  0  0  0  0  0  0
    4.4532    1.1094    0.6165 H   0  0  0  0  0  0  0  0  0  0  0  0
    6.0444   -1.0435   -0.0053 H   0  0  0  0  0  0  0  0  0  0  0  0
    5.0657   -1.0124    1.4730 H   0  0  0  0  0  0  0  0  0  0  0  0
    4.3664   -2.3487   -1.1747 H   0  0  0  0  0  0  0  0  0  0  0  0
    4.2033   -2.9790    0.4796 H   0  0  0  0  0  0  0  0  0  0  0  0
    0.4305   -1.8678   -0.0413 H   0  0  0  0  0  0  0  0  0  0  0  0
   -1.1686    3.2693    0.0193 H   0  0  0  0  0  0  0  0  0  0  0  0
   -3.5523    1.7261    0.0353 H   0  0  0  0  0  0  0  0  0  0  0  0
   -2.1088   -3.0599   -0.0211 H   0  0  0  0  0  0  0  0  0  0  0  0
    1.2425    3.9250   -0.0034 H   0  0  0  0  0  0  0  0  0  0  0  0
   -4.5142   -2.4819    0.0123 H   0  0  0  0  0  0  0  0  0  0  0  0
  1 18  1  0  0  0  0
  2  6  1  0  0  0  0
  2 13  1  0  0  0  0
  2 26  1  0  0  0  0
  3  7  2  0  0  0  0
  3 11  1  0  0  0  0
  4  9  2  0  0  0  0
  4 17  1  0  0  0  0
  5  7  1  0  0  0  0
  5  8  1  0  0  0  0
  5 20  1  0  0  0  0
  5 21  1  0  0  0  0
  6  9  1  0  0  0  0
  6 10  2  0  0  0  0
  7  9  1  0  0  0  0
  8 11  1  0  0  0  0
  8 22  1  0  0  0  0
  8 23  1  0  0  0  0
 10 12  1  0  0  0  0
 10 14  1  0  0  0  0
 11 24  1  0  0  0  0
 11 25  1  0  0  0  0
 12 13  2  0  0  0  0
 12 15  1  0  0  0  0
 13 16  1  0  0  0  0
 14 17  2  0  0  0  0
 14 27  1  0  0  0  0
 15 18  2  0  0  0  0
 15 28  1  0  0  0  0
 16 19  2  0  0  0  0
 16 29  1  0  0  0  0
 17 30  1  0  0  0  0
 18 19  1  0  0  0  0
 19 31  1  0  0  0  0
M  END
> <PUBCHEM_COMPOUND_CID>
145929

> <PUBCHEM_CONFORMER_RMSD>
0.6

> <PUBCHEM_CONFORMER_DIVERSEORDER>
1
3
2

> <PUBCHEM_MMFF94_PARTIAL_CHARGES>
22
1 -0.11
11 0.25
13 -0.15
14 -0.15
15 -0.15
16 -0.15
17 0.16
18 0.11
19 -0.15
2 0.03
26 0.27
27 0.15
28 0.15
29 0.15
3 -0.7
30 0.15
31 0.15
4 -0.62
5 0.06
6 -0.15
7 0.3
9 0.4

> <PUBCHEM_EFFECTIVE_ROTOR_COUNT>
1.6

> <PUBCHEM_PHARMACOPHORE_FEATURES>
9
1 1 hydrophobe
1 2 cation
1 2 donor
1 3 acceptor
1 4 acceptor
5 2 6 10 12 13 rings
5 3 5 7 8 11 rings
6 12 13 15 16 18 19 rings
6 4 6 9 10 14 17 rings

> <PUBCHEM_HEAVY_ATOM_COUNT>
19

> <PUBCHEM_ATOM_DEF_STEREO_COUNT>
0

> <PUBCHEM_ATOM_UDEF_STEREO_COUNT>
0

> <PUBCHEM_BOND_DEF_STEREO_COUNT>
0

> <PUBCHEM_BOND_UDEF_STEREO_COUNT>
0

> <PUBCHEM_ISOTOPIC_ATOM_COUNT>
0

> <PUBCHEM_COMPONENT_COUNT>
1

> <PUBCHEM_CACTVS_TAUTO_COUNT>
3

> <PUBCHEM_CONFORMER_ID>
00023A0900000001

> <PUBCHEM_MMFF94_ENERGY>
39.5535

> <PUBCHEM_FEATURE_SELFOVERLAP>
45.855

> <PUBCHEM_SHAPE_FINGERPRINT>
10062212 137 18113621140971889279
10906281 52 18265312010748106022
10967382 1 18410292484505202494
11405975 8 18336542712577088251
116883 192 18336259145466137564
12032990 46 18411417314886021651
12403259 226 18339929208485947429
12507560 14 18260266347909909253
12553582 1 18340781415284948554
12788726 201 18270963573888112856
12841375 25 18411983567896367752
13004483 165 18338808913152483082
13134695 92 17968104071012277761
13140716 1 18337104567018378473
13288520 33 18410009961635735918
13583140 156 14273746191226724327
138480 1 14663579537904416396
13862211 1 18410578413579601719
14115302 16 17775275050173938446
14790565 3 17617092954935248153
14866123 147 17831574653868038595
15042514 8 18122626317048996864
15099037 51 18411702093315166223
15196674 1 18338797802203794595
15352361 1 18410575097838390982
15442244 35 18409163286316944041
15536298 74 18262800653307943792
15885798 251 18412263956066946056
17349148 13 17967249793621671911
17492 89 18122345679670718699
17804303 29 18411978040426178877
1813 80 17632859724259755548
18186145 218 17632026238859109419
19141452 34 18260550009136035759
200 152 18040438776550607439
20028762 73 18114747032347586535
204376 136 9007053578124772276
20510252 161 18117843420025061552
20645477 70 18269278975940034759
20832881 197 18343584053317737459
21029758 11 18408888446969734161
21250096 35 18409450288784565850
21267235 1 18410847785069401426
21279426 13 18196376046702496757
21296965 67 18410576210229600440
21478907 32 18267585903973762648
221490 88 18198054772908404675
22182313 1 18198367137190207637
2297311 6 18262789783431409654
23366157 5 17986675857444949484
23402539 116 18259992595605981461
23463225 33 18409445860456824094
23557571 272 18115864264977770004
23558518 356 17697318412975949251
23559900 14 18336832974434745000
23622692 118 17898020036069333399
2871803 45 18342458183834712370
3004659 81 18202562904338124118
3091708 16 9426564547701725336
314173 41 18413103961734251702
335352 9 18410856568978817333
3421961 26 18337111176894263448
34934 24 18337114466939250398
350125 39 18411416241973002785
465052 167 18335696139652014551
5104073 3 18263921051920694299
633830 44 17346041056977400257
7364860 26 18192432970187817864
8863177 126 17844229745553420483
9709674 26 18126003759019031955
9981440 41 17401774016878335473

> <PUBCHEM_SHAPE_MULTIPOLES>
382.01
10.45
2.56
0.62
3.15
1.08
-0.01
-4.74
-0.39
-1.04
0.03
0.02
-0.01
-0.03

> <PUBCHEM_SHAPE_SELFOVERLAP>
846.692

> <PUBCHEM_SHAPE_VOLUME>
210.3

> <PUBCHEM_COORDINATE_TYPE>
2
5
10

$$$$

