11954066
  -OEChem-07051213063D

 50 50  0     1  0  0  0  0  0999 V2000
    3.0860    4.9170   -1.4702 Br  0  0  0  0  0  0  0  0  0  0  0  0
   -0.8156    0.9872   -0.2150 S   0  0  0  0  0  0  0  0  0  0  0  0
    1.2720    2.7512    2.5885 O   0  0  0  0  0  0  0  0  0  0  0  0
    0.8795   -3.1748    1.5566 O   0  0  0  0  0  0  0  0  0  0  0  0
   -2.8206   -2.0583   -1.2349 O   0  0  0  0  0  0  0  0  0  0  0  0
    3.8593   -2.4294    1.2528 O   0  0  0  0  0  0  0  0  0  0  0  0
    5.2958   -2.1093   -0.4722 O   0  0  0  0  0  0  0  0  0  0  0  0
   -4.4104    1.0403   -0.4430 O   0  0  0  0  0  0  0  0  0  0  0  0
   -6.5498    0.4415   -0.9034 O   0  0  0  0  0  0  0  0  0  0  0  0
   -0.3629   -2.2167   -0.1561 N   0  0  0  0  0  0  0  0  0  0  0  0
   -3.7722   -1.2168    0.7064 N   0  0  0  0  0  0  0  0  0  0  0  0
    3.5568   -0.2466   -1.5227 N   0  0  0  0  0  0  0  0  0  0  0  0
   -1.3854   -1.6208    0.6725 C   0  0  1  0  0  0  0  0  0  0  0  0
   -0.3013    2.4330    0.7890 C   0  0  1  0  0  0  0  0  0  0  0  0
   -1.0076   -0.2139    1.1426 C   0  0  0  0  0  0  0  0  0  0  0  0
    1.1702    2.2722    1.2423 C   0  0  1  0  0  0  0  0  0  0  0  0
    1.6197   -3.4491   -0.7323 C   0  0  0  0  0  0  0  0  0  0  0  0
    2.2318   -2.3056   -1.5441 C   0  0  0  0  0  0  0  0  0  0  0  0
   -0.5531    3.6729   -0.0296 C   0  0  0  0  0  0  0  0  0  0  0  0
    0.6932   -2.9506    0.3638 C   0  0  0  0  0  0  0  0  0  0  0  0
   -2.7179   -1.6732   -0.0720 C   0  0  0  0  0  0  0  0  0  0  0  0
    3.0036   -1.3059   -0.6756 C   0  0  1  0  0  0  0  0  0  0  0  0
    2.1734    3.0224    0.4051 C   0  0  0  0  0  0  0  0  0  0  0  0
    0.4348    4.3832   -0.5935 C   0  0  0  0  0  0  0  0  0  0  0  0
    1.8197    3.9906   -0.4557 C   0  0  0  0  0  0  0  0  0  0  0  0
    4.1811   -1.9697    0.0155 C   0  0  0  0  0  0  0  0  0  0  0  0
   -5.1290   -1.1466    0.2163 C   0  0  0  0  0  0  0  0  0  0  0  0
   -5.4512    0.1756   -0.4313 C   0  0  0  0  0  0  0  0  0  0  0  0
   -1.4993   -2.2547    1.5620 H   0  0  0  0  0  0  0  0  0  0  0  0
   -0.9583    2.4860    1.6657 H   0  0  0  0  0  0  0  0  0  0  0  0
   -0.0663   -0.2755    1.6971 H   0  0  0  0  0  0  0  0  0  0  0  0
   -1.7633    0.1776    1.8305 H   0  0  0  0  0  0  0  0  0  0  0  0
    1.4728    1.2210    1.2747 H   0  0  0  0  0  0  0  0  0  0  0  0
   -0.4426   -2.0980   -1.1614 H   0  0  0  0  0  0  0  0  0  0  0  0
    1.0405   -4.1011   -1.3975 H   0  0  0  0  0  0  0  0  0  0  0  0
    2.3964   -4.0742   -0.2793 H   0  0  0  0  0  0  0  0  0  0  0  0
    1.4520   -1.7787   -2.1074 H   0  0  0  0  0  0  0  0  0  0  0  0
    2.9037   -2.7484   -2.2917 H   0  0  0  0  0  0  0  0  0  0  0  0
   -1.5814    4.0001   -0.1614 H   0  0  0  0  0  0  0  0  0  0  0  0
    2.3609   -0.8356    0.0753 H   0  0  0  0  0  0  0  0  0  0  0  0
    3.2188    2.7521    0.5316 H   0  0  0  0  0  0  0  0  0  0  0  0
    0.1923    5.2690   -1.1722 H   0  0  0  0  0  0  0  0  0  0  0  0
   -3.6048   -0.9344    1.6670 H   0  0  0  0  0  0  0  0  0  0  0  0
    2.1883    2.6134    2.8846 H   0  0  0  0  0  0  0  0  0  0  0  0
    2.7989    0.2306   -2.0099 H   0  0  0  0  0  0  0  0  0  0  0  0
    4.0040    0.4592   -0.9382 H   0  0  0  0  0  0  0  0  0  0  0  0
   -5.7909   -1.2844    1.0758 H   0  0  0  0  0  0  0  0  0  0  0  0
   -5.2909   -1.9426   -0.5165 H   0  0  0  0  0  0  0  0  0  0  0  0
    4.6202   -2.8691    1.6886 H   0  0  0  0  0  0  0  0  0  0  0  0
   -4.6443    1.8919   -0.8699 H   0  0  0  0  0  0  0  0  0  0  0  0
  1 25  1  0  0  0  0
  2 14  1  0  0  0  0
  2 15  1  0  0  0  0
  3 16  1  0  0  0  0
  3 44  1  0  0  0  0
  4 20  2  0  0  0  0
  5 21  2  0  0  0  0
  6 26  1  0  0  0  0
  6 49  1  0  0  0  0
  7 26  2  0  0  0  0
  8 28  1  0  0  0  0
  8 50  1  0  0  0  0
  9 28  2  0  0  0  0
 10 13  1  0  0  0  0
 10 20  1  0  0  0  0
 10 34  1  0  0  0  0
 11 21  1  0  0  0  0
 11 27  1  0  0  0  0
 11 43  1  0  0  0  0
 12 22  1  0  0  0  0
 12 45  1  0  0  0  0
 12 46  1  0  0  0  0
 13 15  1  0  0  0  0
 13 21  1  0  0  0  0
 13 29  1  0  0  0  0
 14 16  1  0  0  0  0
 14 19  1  0  0  0  0
 14 30  1  0  0  0  0
 15 31  1  0  0  0  0
 15 32  1  0  0  0  0
 16 23  1  0  0  0  0
 16 33  1  0  0  0  0
 17 18  1  0  0  0  0
 17 20  1  0  0  0  0
 17 35  1  0  0  0  0
 17 36  1  0  0  0  0
 18 22  1  0  0  0  0
 18 37  1  0  0  0  0
 18 38  1  0  0  0  0
 19 24  2  0  0  0  0
 19 39  1  0  0  0  0
 22 26  1  0  0  0  0
 22 40  1  0  0  0  0
 23 25  2  0  0  0  0
 23 41  1  0  0  0  0
 24 25  1  0  0  0  0
 24 42  1  0  0  0  0
 27 28  1  0  0  0  0
 27 47  1  0  0  0  0
 27 48  1  0  0  0  0
M  END
> <PUBCHEM_COMPOUND_CID>
11954066

> <PUBCHEM_CONFORMER_RMSD>
1.2

> <PUBCHEM_CONFORMER_DIVERSEORDER>
1
168
169
151
160
60
105
120
86
92
85
125
152
174
26
157
35
50
37
130
110
49
137
44
107
131
150
54
101
115
113
149
88
12
7
56
135
171
133
82
98
39
167
87
126
123
13
70
62
103
119
158
36
73
165
69
162
22
118
18
80
173
156
34
177
46
78
47
143
153
176
97
27
76
121
91
141
64
96
67
117
93
136
31
147
128
81
74
172
134
71
28
11
146
94
139
51
142
16
30
42
20
17
129
84
170
163
161
106
145
122
10
55
52
114
40
33
111
108
58
19
100
102
45
138
164
95
68
109
155
79
89
38
29
159
104
15
66
116
8
124
65
148
90
140
154
32
43
166
53
59
23
77
41
9
178
21
25
48
63
6
57
3
83
61
144
24
112
72
2
127
175
75
99
5
132
4
14

> <PUBCHEM_MMFF94_PARTIAL_CHARGES>
37
1 -0.11
10 -0.73
11 -0.73
12 -0.99
13 0.36
14 0.37
15 0.23
16 0.42
17 0.06
19 -0.29
2 -0.46
20 0.57
21 0.57
22 0.33
23 -0.29
24 -0.15
25 0.11
26 0.66
27 0.36
28 0.66
3 -0.68
34 0.37
39 0.15
4 -0.57
41 0.15
42 0.15
43 0.37
44 0.4
45 0.36
46 0.36
49 0.5
5 -0.57
50 0.5
6 -0.65
7 -0.57
8 -0.65
9 -0.57

> <PUBCHEM_EFFECTIVE_ROTOR_COUNT>
13.4

> <PUBCHEM_PHARMACOPHORE_FEATURES>
16
1 1 hydrophobe
1 10 donor
1 11 donor
1 12 cation
1 12 donor
1 3 acceptor
1 3 donor
1 4 acceptor
1 5 acceptor
1 6 acceptor
1 7 acceptor
1 8 acceptor
1 9 acceptor
3 6 7 26 anion
3 8 9 28 anion
6 14 16 19 23 24 25 rings

> <PUBCHEM_HEAVY_ATOM_COUNT>
28

> <PUBCHEM_ATOM_DEF_STEREO_COUNT>
2

> <PUBCHEM_ATOM_UDEF_STEREO_COUNT>
2

> <PUBCHEM_BOND_DEF_STEREO_COUNT>
0

> <PUBCHEM_BOND_UDEF_STEREO_COUNT>
0

> <PUBCHEM_ISOTOPIC_ATOM_COUNT>
0

> <PUBCHEM_COMPONENT_COUNT>
1

> <PUBCHEM_CACTVS_TAUTO_COUNT>
4

> <PUBCHEM_CONFORMER_ID>
00B6679200000001

> <PUBCHEM_MMFF94_ENERGY>
41.0833

> <PUBCHEM_FEATURE_SELFOVERLAP>
81.309

> <PUBCHEM_SHAPE_FINGERPRINT>
10675989 125 18337664231291137481
12156800 1 16627747852961227364
12788726 201 18197774612371314098
15210252 30 18411414046669181962
15439362 3 18267586806080977221
15927050 60 17905037058673458199
167882 2 18267018354031239501
18785283 64 18339634526347521755
20642791 239 18269535188108832502
23559900 14 18409172074057486497
24771750 20 18268982103848252085
3298306 158 17975968769931353276
469060 322 18194390319986302296
508706 21 17038084132247864972
5265222 85 17476909161158367964
532947 4 18337669694446410993
6443956 14 18410853261189406413
7164475 11 17833831947003696831

> <PUBCHEM_SHAPE_MULTIPOLES>
529.99
9.46
7.05
1.48
13.43
3.53
-0.42
0.13
3.1
-9.48
0.92
-0.86
0.28
-0.03

> <PUBCHEM_SHAPE_SELFOVERLAP>
1041.559

> <PUBCHEM_SHAPE_VOLUME>
318.9

> <PUBCHEM_COORDINATE_TYPE>
2
5
10

$$$$

