5388906
  -OEChem-07051213042D

 68 72  0     1  0  0  0  0  0999 V2000
   11.1282   -0.5588    0.0000 Br  0  0  0  0  0  0  0  0  0  0  0  0
    5.5000    0.8314    0.0000 O   0  0  0  0  0  0  0  0  0  0  0  0
    5.8660    1.4654    0.0000 O   0  0  0  0  0  0  0  0  0  0  0  0
    3.0000   -1.7667    0.0000 N   0  0  0  0  0  0  0  0  0  0  0  0
    7.5981    1.4654    0.0000 N   0  0  0  0  0  0  0  0  0  0  0  0
    5.0000   -0.0346    0.0000 C   0  0  2  0  0  0  0  0  0  0  0  0
    5.8660   -0.5346    0.0000 C   0  0  1  0  0  0  0  0  0  0  0  0
    4.5000   -0.9007    0.0000 C   0  0  0  0  0  0  0  0  0  0  0  0
    4.1340    0.4654    0.0000 C   0  0  0  0  0  0  0  0  0  0  0  0
    6.7320   -0.0346    0.0000 C   0  0  0  0  0  0  0  0  0  0  0  0
    3.5000   -0.9007    0.0000 C   0  0  0  0  0  0  0  0  0  0  0  0
    5.8660   -1.5346    0.0000 C   0  0  0  0  0  0  0  0  0  0  0  0
    4.1340    1.4654    0.0000 C   0  0  0  0  0  0  0  0  0  0  0  0
    3.2680   -0.0346    0.0000 C   0  0  0  0  0  0  0  0  0  0  0  0
    7.5981   -0.5346    0.0000 C   0  0  0  0  0  0  0  0  0  0  0  0
    3.2680    1.9654    0.0000 C   0  0  0  0  0  0  0  0  0  0  0  0
    6.7320    0.9654    0.0000 C   0  0  0  0  0  0  0  0  0  0  0  0
    5.0000   -2.0346    0.0000 C   0  0  0  0  0  0  0  0  0  0  0  0
    6.7320   -2.0346    0.0000 C   0  0  0  0  0  0  0  0  0  0  0  0
    2.4019    0.4654    0.0000 C   0  0  0  0  0  0  0  0  0  0  0  0
    5.0440    1.9722    0.0000 C   0  0  0  0  0  0  0  0  0  0  0  0
    8.4641   -0.0346    0.0000 C   0  0  0  0  0  0  0  0  0  0  0  0
    2.4019    1.4654    0.0000 C   0  0  0  0  0  0  0  0  0  0  0  0
    8.4641    0.9654    0.0000 C   0  0  0  0  0  0  0  0  0  0  0  0
    3.5000   -2.6327    0.0000 C   0  0  0  0  0  0  0  0  0  0  0  0
    2.0000   -1.7667    0.0000 C   0  0  0  0  0  0  0  0  0  0  0  0
    3.2519    3.0069    0.0000 C   0  0  0  0  0  0  0  0  0  0  0  0
    5.0000   -3.0346    0.0000 C   0  0  0  0  0  0  0  0  0  0  0  0
    6.7320   -3.0346    0.0000 C   0  0  0  0  0  0  0  0  0  0  0  0
    5.0520    3.0138    0.0000 C   0  0  0  0  0  0  0  0  0  0  0  0
    5.8660   -3.5346    0.0000 C   0  0  0  0  0  0  0  0  0  0  0  0
    4.1499    3.5346    0.0000 C   0  0  0  0  0  0  0  0  0  0  0  0
    9.3580   -0.5693    0.0000 C   0  0  0  0  0  0  0  0  0  0  0  0
    9.3580    1.5000    0.0000 C   0  0  0  0  0  0  0  0  0  0  0  0
   10.2641   -0.0554    0.0000 C   0  0  0  0  0  0  0  0  0  0  0  0
   10.2641    0.9862    0.0000 C   0  0  0  0  0  0  0  0  0  0  0  0
    5.8660    2.4654    0.0000 C   0  0  0  0  0  0  0  0  0  0  0  0
    5.3291   -0.8446    0.0000 H   0  0  0  0  0  0  0  0  0  0  0  0
    4.3923   -1.5112    0.0000 H   0  0  0  0  0  0  0  0  0  0  0  0
    5.0826   -1.1127    0.0000 H   0  0  0  0  0  0  0  0  0  0  0  0
    3.6077   -0.2901    0.0000 H   0  0  0  0  0  0  0  0  0  0  0  0
    2.9174   -0.6886    0.0000 H   0  0  0  0  0  0  0  0  0  0  0  0
    5.1900    1.3683    0.0000 H   0  0  0  0  0  0  0  0  0  0  0  0
    3.2680   -0.6546    0.0000 H   0  0  0  0  0  0  0  0  0  0  0  0
    7.5981   -1.1546    0.0000 H   0  0  0  0  0  0  0  0  0  0  0  0
    4.4631   -1.7246    0.0000 H   0  0  0  0  0  0  0  0  0  0  0  0
    7.2690   -1.7246    0.0000 H   0  0  0  0  0  0  0  0  0  0  0  0
    1.8650    0.1554    0.0000 H   0  0  0  0  0  0  0  0  0  0  0  0
    5.5773    1.6560    0.0000 H   0  0  0  0  0  0  0  0  0  0  0  0
    1.8650    1.7754    0.0000 H   0  0  0  0  0  0  0  0  0  0  0  0
    2.9631   -2.9427    0.0000 H   0  0  0  0  0  0  0  0  0  0  0  0
    3.8100   -3.1696    0.0000 H   0  0  0  0  0  0  0  0  0  0  0  0
    4.0369   -2.3227    0.0000 H   0  0  0  0  0  0  0  0  0  0  0  0
    2.0000   -1.1467    0.0000 H   0  0  0  0  0  0  0  0  0  0  0  0
    1.3800   -1.7667    0.0000 H   0  0  0  0  0  0  0  0  0  0  0  0
    2.0000   -2.3867    0.0000 H   0  0  0  0  0  0  0  0  0  0  0  0
    2.7114    3.3106    0.0000 H   0  0  0  0  0  0  0  0  0  0  0  0
    4.4631   -3.3446    0.0000 H   0  0  0  0  0  0  0  0  0  0  0  0
    7.2690   -3.3446    0.0000 H   0  0  0  0  0  0  0  0  0  0  0  0
    5.5901    3.3217    0.0000 H   0  0  0  0  0  0  0  0  0  0  0  0
    5.8660   -4.1546    0.0000 H   0  0  0  0  0  0  0  0  0  0  0  0
    4.1475    4.1546    0.0000 H   0  0  0  0  0  0  0  0  0  0  0  0
    9.3509   -1.1892    0.0000 H   0  0  0  0  0  0  0  0  0  0  0  0
    9.3509    2.1200    0.0000 H   0  0  0  0  0  0  0  0  0  0  0  0
   10.7998    1.2982    0.0000 H   0  0  0  0  0  0  0  0  0  0  0  0
    6.4860    2.4654    0.0000 H   0  0  0  0  0  0  0  0  0  0  0  0
    5.8660    3.0854    0.0000 H   0  0  0  0  0  0  0  0  0  0  0  0
    5.2460    2.4654    0.0000 H   0  0  0  0  0  0  0  0  0  0  0  0
  1 35  1  0  0  0  0
  6  2  1  6  0  0  0
  2 43  1  0  0  0  0
  3 17  1  0  0  0  0
  3 37  1  0  0  0  0
  4 11  1  0  0  0  0
  4 25  1  0  0  0  0
  4 26  1  0  0  0  0
  5 17  1  0  0  0  0
  5 24  2  0  0  0  0
  6  7  1  0  0  0  0
  6  8  1  0  0  0  0
  6  9  1  0  0  0  0
  7 10  1  0  0  0  0
  7 12  1  1  0  0  0
  7 38  1  0  0  0  0
  8 11  1  0  0  0  0
  8 39  1  0  0  0  0
  8 40  1  0  0  0  0
  9 13  1  0  0  0  0
  9 14  2  0  0  0  0
 10 15  1  0  0  0  0
 10 17  2  0  0  0  0
 11 41  1  0  0  0  0
 11 42  1  0  0  0  0
 12 18  2  0  0  0  0
 12 19  1  0  0  0  0
 13 16  1  0  0  0  0
 13 21  2  0  0  0  0
 14 20  1  0  0  0  0
 14 44  1  0  0  0  0
 15 22  2  0  0  0  0
 15 45  1  0  0  0  0
 16 23  1  0  0  0  0
 16 27  2  0  0  0  0
 18 28  1  0  0  0  0
 18 46  1  0  0  0  0
 19 29  2  0  0  0  0
 19 47  1  0  0  0  0
 20 23  2  0  0  0  0
 20 48  1  0  0  0  0
 21 30  1  0  0  0  0
 21 49  1  0  0  0  0
 22 24  1  0  0  0  0
 22 33  1  0  0  0  0
 23 50  1  0  0  0  0
 24 34  1  0  0  0  0
 25 51  1  0  0  0  0
 25 52  1  0  0  0  0
 25 53  1  0  0  0  0
 26 54  1  0  0  0  0
 26 55  1  0  0  0  0
 26 56  1  0  0  0  0
 27 32  1  0  0  0  0
 27 57  1  0  0  0  0
 28 31  2  0  0  0  0
 28 58  1  0  0  0  0
 29 31  1  0  0  0  0
 29 59  1  0  0  0  0
 30 32  2  0  0  0  0
 30 60  1  0  0  0  0
 31 61  1  0  0  0  0
 32 62  1  0  0  0  0
 33 35  2  0  0  0  0
 33 63  1  0  0  0  0
 34 36  2  0  0  0  0
 34 64  1  0  0  0  0
 35 36  1  0  0  0  0
 36 65  1  0  0  0  0
 37 66  1  0  0  0  0
 37 67  1  0  0  0  0
 37 68  1  0  0  0  0
M  END
> <PUBCHEM_COMPOUND_CID>
5388906

> <PUBCHEM_COMPOUND_CANONICALIZED>
1

> <PUBCHEM_CACTVS_COMPLEXITY>
715

> <PUBCHEM_CACTVS_HBOND_ACCEPTOR>
4

> <PUBCHEM_CACTVS_HBOND_DONOR>
1

> <PUBCHEM_CACTVS_ROTATABLE_BOND>
8

> <PUBCHEM_CACTVS_SUBSKEYS>
AAADceB/MAAAEAAAAAAAAAAAAAAAAAAAAAA8YMGCAAAAAADx9AAAHgBACAABrUzBngYyxPMIFgCgAyRiRACCiCAhIiQImCA8bLgMJuLEsZuEcChmwBHI+hfw0PEOgAAiEAASAAAAAEQgACQAAAAAAAAAAA==

> <PUBCHEM_IUPAC_OPENEYE_NAME>
(1R,2S)-1-(6-bromo-2-methoxy-3-quinolyl)-4-(dimethylamino)-2-(1-naphthyl)-1-phenyl-butan-2-ol

> <PUBCHEM_IUPAC_CAS_NAME>
(1R,2S)-1-(6-bromo-2-methoxy-3-quinolinyl)-4-(dimethylamino)-2-(1-naphthalenyl)-1-phenyl-2-butanol

> <PUBCHEM_IUPAC_NAME>
(1R,2S)-1-(6-bromo-2-methoxyquinolin-3-yl)-4-(dimethylamino)-2-naphthalen-1-yl-1-phenylbutan-2-ol

> <PUBCHEM_IUPAC_SYSTEMATIC_NAME>
(1R,2S)-1-(6-bromanyl-2-methoxy-quinolin-3-yl)-4-(dimethylamino)-2-naphthalen-1-yl-1-phenyl-butan-2-ol

> <PUBCHEM_IUPAC_TRADITIONAL_NAME>
(1R,2S)-1-(6-bromo-2-methoxy-3-quinolyl)-4-(dimethylamino)-2-(1-naphthyl)-1-phenyl-butan-2-ol

> <PUBCHEM_IUPAC_INCHI>
InChI=1S/C32H31BrN2O2/c1-35(2)19-18-32(36,28-15-9-13-22-10-7-8-14-26(22)28)30(23-11-5-4-6-12-23)27-21-24-20-25(33)16-17-29(24)34-31(27)37-3/h4-17,20-21,30,36H,18-19H2,1-3H3/t30-,32-/m1/s1

> <PUBCHEM_IUPAC_INCHIKEY>
QUIJNHUBAXPXFS-XLJNKUFUSA-N

> <PUBCHEM_XLOGP3_AA>
7.2

> <PUBCHEM_EXACT_MASS>
554.15689

> <PUBCHEM_MOLECULAR_FORMULA>
C32H31BrN2O2

> <PUBCHEM_MOLECULAR_WEIGHT>
555.50474

> <PUBCHEM_OPENEYE_CAN_SMILES>
CN(C)CCC(C1=CC=CC2=CC=CC=C21)(C(C3=CC=CC=C3)C4=C(N=C5C=CC(=CC5=C4)Br)OC)O

> <PUBCHEM_OPENEYE_ISO_SMILES>
CN(C)CC[C@@](C1=CC=CC2=CC=CC=C21)([C@H](C3=CC=CC=C3)C4=C(N=C5C=CC(=CC5=C4)Br)OC)O

> <PUBCHEM_CACTVS_TPSA>
45.6

> <PUBCHEM_MONOISOTOPIC_WEIGHT>
554.15689

> <PUBCHEM_TOTAL_CHARGE>
0

> <PUBCHEM_HEAVY_ATOM_COUNT>
37

> <PUBCHEM_ATOM_DEF_STEREO_COUNT>
2

> <PUBCHEM_ATOM_UDEF_STEREO_COUNT>
0

> <PUBCHEM_BOND_DEF_STEREO_COUNT>
0

> <PUBCHEM_BOND_UDEF_STEREO_COUNT>
0

> <PUBCHEM_ISOTOPIC_ATOM_COUNT>
0

> <PUBCHEM_COMPONENT_COUNT>
1

> <PUBCHEM_CACTVS_TAUTO_COUNT>
1

> <PUBCHEM_COORDINATE_TYPE>
1
5
255

> <PUBCHEM_BONDANNOTATIONS>
10  15  8
10  17  8
12  18  8
12  19  8
13  16  8
13  21  8
14  20  8
15  22  8
16  23  8
16  27  8
18  28  8
19  29  8
6  2  6
20  23  8
21  30  8
22  24  8
22  33  8
24  34  8
27  32  8
28  31  8
29  31  8
30  32  8
33  35  8
34  36  8
35  36  8
5  17  8
5  24  8
7  12  5
9  13  8
9  14  8

$$$$

