656711
  -OEChem-07051213042D

 58 57  0     0  0  0  0  0  0999 V2000
    2.5000    8.0000    0.0000 Cl  0  5  0  0  0  0  0  0  0  0  0  0
    0.0000    8.0000    0.0000 Cl  0  5  0  0  0  0  0  0  0  0  0  0
    6.7320   12.5000    0.0000 N   0  3  0  0  0  0  0  0  0  0  0  0
   11.0622    4.0000    0.0000 N   0  3  0  0  0  0  0  0  0  0  0  0
    5.0000   14.5000    0.0000 N   0  0  0  0  0  0  0  0  0  0  0  0
    9.3301    2.0000    0.0000 N   0  0  0  0  0  0  0  0  0  0  0  0
    5.0000   15.5000    0.0000 N   0  3  0  0  0  0  0  0  0  0  0  0
    9.3301    1.0000    0.0000 N   0  3  0  0  0  0  0  0  0  0  0  0
    9.3301    0.0000    0.0000 N   0  5  0  0  0  0  0  0  0  0  0  0
    5.0000   16.5000    0.0000 N   0  5  0  0  0  0  0  0  0  0  0  0
    9.3301    8.0000    0.0000 C   0  0  0  0  0  0  0  0  0  0  0  0
    8.4641    8.5000    0.0000 C   0  0  0  0  0  0  0  0  0  0  0  0
    9.3301    7.0000    0.0000 C   0  0  0  0  0  0  0  0  0  0  0  0
    8.4641    9.5000    0.0000 C   0  0  0  0  0  0  0  0  0  0  0  0
   10.1962    6.5000    0.0000 C   0  0  0  0  0  0  0  0  0  0  0  0
    7.5981   10.0000    0.0000 C   0  0  0  0  0  0  0  0  0  0  0  0
   10.1962    5.5000    0.0000 C   0  0  0  0  0  0  0  0  0  0  0  0
    7.5981   11.0000    0.0000 C   0  0  0  0  0  0  0  0  0  0  0  0
   11.0622    5.0000    0.0000 C   0  0  0  0  0  0  0  0  0  0  0  0
    6.7320   11.5000    0.0000 C   0  0  0  0  0  0  0  0  0  0  0  0
    5.8660   13.0000    0.0000 C   0  0  0  0  0  0  0  0  0  0  0  0
   10.1962    3.5000    0.0000 C   0  0  0  0  0  0  0  0  0  0  0  0
    7.5981   13.0000    0.0000 C   0  0  0  0  0  0  0  0  0  0  0  0
   11.9282    3.5000    0.0000 C   0  0  0  0  0  0  0  0  0  0  0  0
   10.1962    2.5000    0.0000 C   0  0  0  0  0  0  0  0  0  0  0  0
    5.8660   14.0000    0.0000 C   0  0  0  0  0  0  0  0  0  0  0  0
    7.5981   14.0000    0.0000 C   0  0  0  0  0  0  0  0  0  0  0  0
   11.9282    2.5000    0.0000 C   0  0  0  0  0  0  0  0  0  0  0  0
    6.7320   14.5000    0.0000 C   0  0  0  0  0  0  0  0  0  0  0  0
   11.0622    2.0000    0.0000 C   0  0  0  0  0  0  0  0  0  0  0  0
    9.9407    7.8923    0.0000 H   0  0  0  0  0  0  0  0  0  0  0  0
    9.5422    8.5826    0.0000 H   0  0  0  0  0  0  0  0  0  0  0  0
    7.8535    8.6077    0.0000 H   0  0  0  0  0  0  0  0  0  0  0  0
    8.2520    7.9174    0.0000 H   0  0  0  0  0  0  0  0  0  0  0  0
    8.7196    7.1077    0.0000 H   0  0  0  0  0  0  0  0  0  0  0  0
    9.1181    6.4174    0.0000 H   0  0  0  0  0  0  0  0  0  0  0  0
    9.0747    9.3923    0.0000 H   0  0  0  0  0  0  0  0  0  0  0  0
    8.6762   10.0826    0.0000 H   0  0  0  0  0  0  0  0  0  0  0  0
   10.8067    6.3923    0.0000 H   0  0  0  0  0  0  0  0  0  0  0  0
   10.4082    7.0826    0.0000 H   0  0  0  0  0  0  0  0  0  0  0  0
    6.9875   10.1077    0.0000 H   0  0  0  0  0  0  0  0  0  0  0  0
    7.3860    9.4174    0.0000 H   0  0  0  0  0  0  0  0  0  0  0  0
    9.5856    5.6077    0.0000 H   0  0  0  0  0  0  0  0  0  0  0  0
    9.9841    4.9174    0.0000 H   0  0  0  0  0  0  0  0  0  0  0  0
    8.2087   10.8923    0.0000 H   0  0  0  0  0  0  0  0  0  0  0  0
    7.8101   11.5826    0.0000 H   0  0  0  0  0  0  0  0  0  0  0  0
    6.1215   11.6077    0.0000 H   0  0  0  0  0  0  0  0  0  0  0  0
    6.5200   10.9174    0.0000 H   0  0  0  0  0  0  0  0  0  0  0  0
   11.6728    4.8923    0.0000 H   0  0  0  0  0  0  0  0  0  0  0  0
   11.2742    5.5826    0.0000 H   0  0  0  0  0  0  0  0  0  0  0  0
    9.6592    3.8100    0.0000 H   0  0  0  0  0  0  0  0  0  0  0  0
    5.3291   12.6900    0.0000 H   0  0  0  0  0  0  0  0  0  0  0  0
    8.1350   12.6900    0.0000 H   0  0  0  0  0  0  0  0  0  0  0  0
   12.4651    3.8100    0.0000 H   0  0  0  0  0  0  0  0  0  0  0  0
    8.1350   14.3100    0.0000 H   0  0  0  0  0  0  0  0  0  0  0  0
   12.4651    2.1900    0.0000 H   0  0  0  0  0  0  0  0  0  0  0  0
    6.7320   15.1200    0.0000 H   0  0  0  0  0  0  0  0  0  0  0  0
   11.0622    1.3800    0.0000 H   0  0  0  0  0  0  0  0  0  0  0  0
  3 20  1  0  0  0  0
  3 21  1  0  0  0  0
  3 23  2  0  0  0  0
  4 19  1  0  0  0  0
  4 22  1  0  0  0  0
  4 24  2  0  0  0  0
  5  7  2  0  0  0  0
  5 26  1  0  0  0  0
  6  8  2  0  0  0  0
  6 25  1  0  0  0  0
  7 10  2  0  0  0  0
  8  9  2  0  0  0  0
 11 12  1  0  0  0  0
 11 13  1  0  0  0  0
 11 31  1  0  0  0  0
 11 32  1  0  0  0  0
 12 14  1  0  0  0  0
 12 33  1  0  0  0  0
 12 34  1  0  0  0  0
 13 15  1  0  0  0  0
 13 35  1  0  0  0  0
 13 36  1  0  0  0  0
 14 16  1  0  0  0  0
 14 37  1  0  0  0  0
 14 38  1  0  0  0  0
 15 17  1  0  0  0  0
 15 39  1  0  0  0  0
 15 40  1  0  0  0  0
 16 18  1  0  0  0  0
 16 41  1  0  0  0  0
 16 42  1  0  0  0  0
 17 19  1  0  0  0  0
 17 43  1  0  0  0  0
 17 44  1  0  0  0  0
 18 20  1  0  0  0  0
 18 45  1  0  0  0  0
 18 46  1  0  0  0  0
 19 49  1  0  0  0  0
 19 50  1  0  0  0  0
 20 47  1  0  0  0  0
 20 48  1  0  0  0  0
 21 26  2  0  0  0  0
 21 52  1  0  0  0  0
 22 25  2  0  0  0  0
 22 51  1  0  0  0  0
 23 27  1  0  0  0  0
 23 53  1  0  0  0  0
 24 28  1  0  0  0  0
 24 54  1  0  0  0  0
 25 30  1  0  0  0  0
 26 29  1  0  0  0  0
 27 29  2  0  0  0  0
 27 55  1  0  0  0  0
 28 30  2  0  0  0  0
 28 56  1  0  0  0  0
 29 57  1  0  0  0  0
 30 58  1  0  0  0  0
M  CHG  8   1  -1   2  -1   3   1   4   1   7   1   8   1   9  -1  10  -1
M  END
> <PUBCHEM_COMPOUND_CID>
656711

> <PUBCHEM_COMPOUND_CANONICALIZED>
1

> <PUBCHEM_CACTVS_COMPLEXITY>
466

> <PUBCHEM_CACTVS_HBOND_ACCEPTOR>
6

> <PUBCHEM_CACTVS_HBOND_DONOR>
0

> <PUBCHEM_CACTVS_ROTATABLE_BOND>
13

> <PUBCHEM_CACTVS_SUBSKEYS>
AAADceB7wAAGAAAAAAAAAAAAAAAAAAAAAAAsWAAAAAAAAAAB4AAAHAAIAAAACAjBEgQ8wJMMEACiADRnRACCgCAxEiAI2CA4dJgIYOLAkZGUIAhggADIyAcQgIAAAAAAAAAAAAAAAAAAAAAAAAAAAAAAAA==

> <PUBCHEM_IUPAC_OPENEYE_NAME>
3-azido-1-[10-(3-azidopyridin-1-ium-1-yl)decyl]pyridin-1-ium dichloride

> <PUBCHEM_IUPAC_CAS_NAME>
3-azido-1-[10-(3-azido-1-pyridin-1-iumyl)decyl]pyridin-1-ium dichloride

> <PUBCHEM_IUPAC_NAME>
3-azido-1-[10-(3-azidopyridin-1-ium-1-yl)decyl]pyridin-1-ium dichloride

> <PUBCHEM_IUPAC_SYSTEMATIC_NAME>
3-azido-1-[10-(3-azidopyridin-1-ium-1-yl)decyl]pyridin-1-ium dichloride

> <PUBCHEM_IUPAC_TRADITIONAL_NAME>
3-azido-1-[10-(3-azidopyridin-1-ium-1-yl)decyl]pyridin-1-ium dichloride

> <PUBCHEM_IUPAC_INCHI>
InChI=1S/C20H28N8.2ClH/c21-25-23-19-11-9-15-27(17-19)13-7-5-3-1-2-4-6-8-14-28-16-10-12-20(18-28)24-26-22;;/h9-12,15-18H,1-8,13-14H2;2*1H/q+2;;/p-2

> <PUBCHEM_IUPAC_INCHIKEY>
KVRMFYJZXMVCOK-UHFFFAOYSA-L

> <PUBCHEM_EXACT_MASS>
450.181398

> <PUBCHEM_MOLECULAR_FORMULA>
C20H28Cl2N8

> <PUBCHEM_MOLECULAR_WEIGHT>
451.39592

> <PUBCHEM_OPENEYE_CAN_SMILES>
C1=CC(=C[N+](=C1)CCCCCCCCCC[N+]2=CC=CC(=C2)N=[N+]=[N-])N=[N+]=[N-].[Cl-].[Cl-]

> <PUBCHEM_OPENEYE_ISO_SMILES>
C1=CC(=C[N+](=C1)CCCCCCCCCC[N+]2=CC=CC(=C2)N=[N+]=[N-])N=[N+]=[N-].[Cl-].[Cl-]

> <PUBCHEM_CACTVS_TPSA>
36.5

> <PUBCHEM_MONOISOTOPIC_WEIGHT>
450.181398

> <PUBCHEM_TOTAL_CHARGE>
0

> <PUBCHEM_HEAVY_ATOM_COUNT>
30

> <PUBCHEM_ATOM_DEF_STEREO_COUNT>
0

> <PUBCHEM_ATOM_UDEF_STEREO_COUNT>
0

> <PUBCHEM_BOND_DEF_STEREO_COUNT>
0

> <PUBCHEM_BOND_UDEF_STEREO_COUNT>
0

> <PUBCHEM_ISOTOPIC_ATOM_COUNT>
0

> <PUBCHEM_COMPONENT_COUNT>
3

> <PUBCHEM_CACTVS_TAUTO_COUNT>
1

> <PUBCHEM_COORDINATE_TYPE>
1
5
255

> <PUBCHEM_BONDANNOTATIONS>
21  26  8
22  25  8
23  27  8
24  28  8
25  30  8
26  29  8
27  29  8
28  30  8
3  21  8
3  23  8
4  22  8
4  24  8

$$$$

