46174042
  -OEChem-07051213113D

 35 37  0     1  0  0  0  0  0999 V2000
   -0.7714   -1.7401   -0.3696 O   0  0  0  0  0  0  0  0  0  0  0  0
   -2.5280   -2.1657    1.0453 O   0  0  0  0  0  0  0  0  0  0  0  0
   -3.6668    1.8827    0.2462 O   0  0  0  0  0  0  0  0  0  0  0  0
    2.2112   -0.7488   -0.0339 C   0  0  0  0  0  0  0  0  0  0  0  0
    0.9412   -0.0108   -0.3982 C   0  0  0  0  0  0  0  0  0  0  0  0
   -0.2453   -0.6201   -1.0882 C   0  0  2  0  0  0  0  0  0  0  0  0
   -1.3042    0.4826   -1.0679 C   0  0  2  0  0  0  0  0  0  0  0  0
    0.7526    1.3016   -0.1988 C   0  0  0  0  0  0  0  0  0  0  0  0
   -0.5651    1.7811   -0.7163 C   0  0  0  0  0  0  0  0  0  0  0  0
    3.3524    0.2780    0.2328 C   0  0  0  0  0  0  0  0  0  0  0  0
    1.7403    2.2236    0.4308 C   0  0  0  0  0  0  0  0  0  0  0  0
    2.8993    1.4671    1.0859 C   0  0  0  0  0  0  0  0  0  0  0  0
   -2.2570   -0.0329   -0.0458 C   0  0  0  0  0  0  0  0  0  0  0  0
    1.9776   -1.5973    1.2310 C   0  0  0  0  0  0  0  0  0  0  0  0
    2.6644   -1.6765   -1.1756 C   0  0  0  0  0  0  0  0  0  0  0  0
   -1.9121   -1.4222    0.3027 C   0  0  0  0  0  0  0  0  0  0  0  0
   -3.2892    0.5980    0.5199 C   0  0  0  0  0  0  0  0  0  0  0  0
    0.0022   -0.9258   -2.1105 H   0  0  0  0  0  0  0  0  0  0  0  0
   -1.8140    0.5635   -2.0353 H   0  0  0  0  0  0  0  0  0  0  0  0
   -0.4077    2.3908   -1.6131 H   0  0  0  0  0  0  0  0  0  0  0  0
   -1.0882    2.3878    0.0281 H   0  0  0  0  0  0  0  0  0  0  0  0
    4.2020   -0.2160    0.7209 H   0  0  0  0  0  0  0  0  0  0  0  0
    3.7323    0.6677   -0.7221 H   0  0  0  0  0  0  0  0  0  0  0  0
    1.2493    2.8471    1.1865 H   0  0  0  0  0  0  0  0  0  0  0  0
    2.1333    2.8967   -0.3407 H   0  0  0  0  0  0  0  0  0  0  0  0
    2.5953    1.1161    2.0793 H   0  0  0  0  0  0  0  0  0  0  0  0
    3.7394    2.1535    1.2434 H   0  0  0  0  0  0  0  0  0  0  0  0
    1.5666   -1.0013    2.0533 H   0  0  0  0  0  0  0  0  0  0  0  0
    1.2803   -2.4211    1.0442 H   0  0  0  0  0  0  0  0  0  0  0  0
    2.9144   -2.0458    1.5818 H   0  0  0  0  0  0  0  0  0  0  0  0
    1.9353   -2.4726   -1.3650 H   0  0  0  0  0  0  0  0  0  0  0  0
    2.7997   -1.1217   -2.1114 H   0  0  0  0  0  0  0  0  0  0  0  0
    3.6186   -2.1590   -0.9340 H   0  0  0  0  0  0  0  0  0  0  0  0
   -3.9356    0.1463    1.2611 H   0  0  0  0  0  0  0  0  0  0  0  0
   -4.4418    2.0772    0.8016 H   0  0  0  0  0  0  0  0  0  0  0  0
  1  6  1  0  0  0  0
  1 16  1  0  0  0  0
  2 16  2  0  0  0  0
  3 17  1  0  0  0  0
  3 35  1  0  0  0  0
  4  5  1  0  0  0  0
  4 10  1  0  0  0  0
  4 14  1  0  0  0  0
  4 15  1  0  0  0  0
  5  6  1  0  0  0  0
  5  8  2  0  0  0  0
  6  7  1  0  0  0  0
  6 18  1  0  0  0  0
  7  9  1  0  0  0  0
  7 13  1  0  0  0  0
  7 19  1  0  0  0  0
  8  9  1  0  0  0  0
  8 11  1  0  0  0  0
  9 20  1  0  0  0  0
  9 21  1  0  0  0  0
 10 12  1  0  0  0  0
 10 22  1  0  0  0  0
 10 23  1  0  0  0  0
 11 12  1  0  0  0  0
 11 24  1  0  0  0  0
 11 25  1  0  0  0  0
 12 26  1  0  0  0  0
 12 27  1  0  0  0  0
 13 16  1  0  0  0  0
 13 17  2  0  0  0  0
 14 28  1  0  0  0  0
 14 29  1  0  0  0  0
 14 30  1  0  0  0  0
 15 31  1  0  0  0  0
 15 32  1  0  0  0  0
 15 33  1  0  0  0  0
 17 34  1  0  0  0  0
M  END
> <PUBCHEM_COMPOUND_CID>
46174042

> <PUBCHEM_CONFORMER_RMSD>
0.6

> <PUBCHEM_CONFORMER_DIVERSEORDER>
1
2

> <PUBCHEM_MMFF94_PARTIAL_CHARGES>
15
1 -0.43
11 0.14
13 -0.12
16 0.71
17 -0.07
2 -0.57
3 -0.53
34 0.15
35 0.45
4 0.14
5 -0.28
6 0.42
7 0.14
8 -0.28
9 0.14

> <PUBCHEM_EFFECTIVE_ROTOR_COUNT>
1.2

> <PUBCHEM_PHARMACOPHORE_FEATURES>
6
1 2 acceptor
1 3 donor
3 4 14 15 hydrophobe
5 1 6 7 13 16 rings
5 5 6 7 8 9 rings
6 4 5 8 10 11 12 rings

> <PUBCHEM_HEAVY_ATOM_COUNT>
17

> <PUBCHEM_ATOM_DEF_STEREO_COUNT>
2

> <PUBCHEM_ATOM_UDEF_STEREO_COUNT>
0

> <PUBCHEM_BOND_DEF_STEREO_COUNT>
1

> <PUBCHEM_BOND_UDEF_STEREO_COUNT>
0

> <PUBCHEM_ISOTOPIC_ATOM_COUNT>
0

> <PUBCHEM_COMPONENT_COUNT>
1

> <PUBCHEM_CACTVS_TAUTO_COUNT>
3

> <PUBCHEM_CONFORMER_ID>
02C08F5A00000001

> <PUBCHEM_MMFF94_ENERGY>
31.2338

> <PUBCHEM_FEATURE_SELFOVERLAP>
30.965

> <PUBCHEM_SHAPE_FINGERPRINT>
10980938 120 18333453123104289720
1100329 8 16248559543708292857
11471102 22 18196652882892987946
11680986 33 18408035208534413885
12011746 2 18266455584609051645
12251169 10 18413105039797364889
12382932 28 18411143497915322616
12423570 1 8357671058767696694
12524768 44 18336275608170650878
12633257 1 18271544055845353936
12696612 119 18268996388614280268
13140716 1 18411704295995157162
13380535 21 18411132515842215300
14178342 30 18271814462411572762
14223421 5 18265328400533263667
14648413 74 18333728009595633790
15219456 202 18334010571410125406
15375462 189 18060142084770347042
16945 1 17988928902461008012
17804303 29 18339915038639576335
18981168 100 16662071118234516490
19049666 15 18338801246298132724
20344682 10 17546443384588856345
20361792 2 15698007284133445975
20511035 2 18335977601791003949
21501502 16 18338803316456590604
22721475 48 18412267237669841148
2334 1 18268431239400103247
23388829 49 17832715569107297991
23419403 2 5178208642042465068
2748010 2 18411700954536935823
53812653 166 18411703188194164504
576247 118 17462252997787904054
598444 67 18197779018901719023
7364860 26 18187081737415943132
8809292 202 18342738546214271010

> <PUBCHEM_SHAPE_MULTIPOLES>
332.24
5.31
2.4
1.13
1.41
0.09
0.01
0.57
-1.33
-0.06
-0.33
-0.25
-0.26
0.69

> <PUBCHEM_SHAPE_SELFOVERLAP>
720.235

> <PUBCHEM_SHAPE_VOLUME>
184.6

> <PUBCHEM_COORDINATE_TYPE>
2
5
10

$$$$

