161937
  -OEChem-07051212572D

 41 42  0     1  0  0  0  0  0999 V2000
    2.5369   -1.1429    0.0000 O   0  0  0  0  0  0  0  0  0  0  0  0
    4.2690    1.8571    0.0000 O   0  0  0  0  0  0  0  0  0  0  0  0
    5.1350   -0.6429    0.0000 C   0  0  1  0  0  0  0  0  0  0  0  0
    4.2690   -1.1429    0.0000 C   0  0  1  0  0  0  0  0  0  0  0  0
    6.0290   -1.1776    0.0000 C   0  0  0  0  0  0  0  0  0  0  0  0
    5.1350    0.3571    0.0000 C   0  0  0  0  0  0  0  0  0  0  0  0
    3.4030   -0.6429    0.0000 C   0  0  1  0  0  0  0  0  0  0  0  0
    6.9350   -0.6637    0.0000 C   0  0  1  0  0  0  0  0  0  0  0  0
    4.2690    0.8571    0.0000 C   0  0  1  0  0  0  0  0  0  0  0  0
    3.4030    0.3571    0.0000 C   0  0  0  0  0  0  0  0  0  0  0  0
    5.1350   -1.6429    0.0000 C   0  0  0  0  0  0  0  0  0  0  0  0
    6.9350    0.3779    0.0000 C   0  0  0  0  0  0  0  0  0  0  0  0
    6.0290    0.8917    0.0000 C   0  0  0  0  0  0  0  0  0  0  0  0
    4.2690   -2.1429    0.0000 C   0  0  0  0  0  0  0  0  0  0  0  0
    7.7991   -1.1671    0.0000 C   0  0  0  0  0  0  0  0  0  0  0  0
    8.6671   -0.6704    0.0000 C   0  0  0  0  0  0  0  0  0  0  0  0
    7.7953   -2.1671    0.0000 C   0  0  0  0  0  0  0  0  0  0  0  0
    4.8059   -1.4529    0.0000 H   0  0  0  0  0  0  0  0  0  0  0  0
    5.6244   -1.6474    0.0000 H   0  0  0  0  0  0  0  0  0  0  0  0
    6.4226   -1.6566    0.0000 H   0  0  0  0  0  0  0  0  0  0  0  0
    3.4030   -1.2629    0.0000 H   0  0  0  0  0  0  0  0  0  0  0  0
    7.4726   -0.3548    0.0000 H   0  0  0  0  0  0  0  0  0  0  0  0
    4.8059    1.1671    0.0000 H   0  0  0  0  0  0  0  0  0  0  0  0
    3.1909    0.9397    0.0000 H   0  0  0  0  0  0  0  0  0  0  0  0
    2.7924    0.2494    0.0000 H   0  0  0  0  0  0  0  0  0  0  0  0
    4.5150   -1.6429    0.0000 H   0  0  0  0  0  0  0  0  0  0  0  0
    5.1350   -2.2629    0.0000 H   0  0  0  0  0  0  0  0  0  0  0  0
    5.7550   -1.6429    0.0000 H   0  0  0  0  0  0  0  0  0  0  0  0
    7.5459    0.2718    0.0000 H   0  0  0  0  0  0  0  0  0  0  0  0
    7.1441    0.9616    0.0000 H   0  0  0  0  0  0  0  0  0  0  0  0
    6.0218    1.5117    0.0000 H   0  0  0  0  0  0  0  0  0  0  0  0
    3.6490   -2.1429    0.0000 H   0  0  0  0  0  0  0  0  0  0  0  0
    4.2690   -2.7629    0.0000 H   0  0  0  0  0  0  0  0  0  0  0  0
    4.8890   -2.1429    0.0000 H   0  0  0  0  0  0  0  0  0  0  0  0
    2.0000   -0.8329    0.0000 H   0  0  0  0  0  0  0  0  0  0  0  0
    3.7320    2.1671    0.0000 H   0  0  0  0  0  0  0  0  0  0  0  0
    8.9750   -1.2086    0.0000 H   0  0  0  0  0  0  0  0  0  0  0  0
    9.2052   -0.3625    0.0000 H   0  0  0  0  0  0  0  0  0  0  0  0
    8.3591   -0.1323    0.0000 H   0  0  0  0  0  0  0  0  0  0  0  0
    7.2571   -2.4750    0.0000 H   0  0  0  0  0  0  0  0  0  0  0  0
    8.3310   -2.4791    0.0000 H   0  0  0  0  0  0  0  0  0  0  0  0
  7  1  1  6  0  0  0
  1 35  1  0  0  0  0
  9  2  1  1  0  0  0
  2 36  1  0  0  0  0
  3  4  1  0  0  0  0
  3  5  1  0  0  0  0
  3  6  1  0  0  0  0
  3 11  1  1  0  0  0
  4  7  1  0  0  0  0
  4 14  1  6  0  0  0
  4 18  1  0  0  0  0
  5  8  1  0  0  0  0
  5 19  1  0  0  0  0
  5 20  1  0  0  0  0
  6  9  1  0  0  0  0
  6 13  2  0  0  0  0
  7 10  1  0  0  0  0
  7 21  1  0  0  0  0
  8 12  1  0  0  0  0
  8 15  1  1  0  0  0
  8 22  1  0  0  0  0
  9 10  1  0  0  0  0
  9 23  1  0  0  0  0
 10 24  1  0  0  0  0
 10 25  1  0  0  0  0
 11 26  1  0  0  0  0
 11 27  1  0  0  0  0
 11 28  1  0  0  0  0
 12 13  1  0  0  0  0
 12 29  1  0  0  0  0
 12 30  1  0  0  0  0
 13 31  1  0  0  0  0
 14 32  1  0  0  0  0
 14 33  1  0  0  0  0
 14 34  1  0  0  0  0
 15 16  1  0  0  0  0
 15 17  2  0  0  0  0
 16 37  1  0  0  0  0
 16 38  1  0  0  0  0
 16 39  1  0  0  0  0
 17 40  1  0  0  0  0
 17 41  1  0  0  0  0
M  END
> <PUBCHEM_COMPOUND_CID>
161937

> <PUBCHEM_COMPOUND_CANONICALIZED>
1

> <PUBCHEM_CACTVS_COMPLEXITY>
358

> <PUBCHEM_CACTVS_HBOND_ACCEPTOR>
2

> <PUBCHEM_CACTVS_HBOND_DONOR>
2

> <PUBCHEM_CACTVS_ROTATABLE_BOND>
1

> <PUBCHEM_CACTVS_SUBSKEYS>
AAADceBwMAAAAAAAAAAAAAAAAAAAAAAAAAAwQAAAAAAAAACAAAAAGgAACAAADxSggAICAAAAAgCAAiBCAAAAAAAgAAAACAAAAAgAFAIAAQAAUAAFgAAIEAOA4PQPgAAAAAAAAABAAAIQADAAAAAAAAAAAA==

> <PUBCHEM_IUPAC_OPENEYE_NAME>
(1R,3R,4S,4aR,6R)-6-isopropenyl-4,4a-dimethyl-2,3,4,5,6,7-hexahydro-1H-naphthalene-1,3-diol

> <PUBCHEM_IUPAC_CAS_NAME>
(1R,3R,4S,4aR,6R)-4,4a-dimethyl-6-(1-methylethenyl)-2,3,4,5,6,7-hexahydro-1H-naphthalene-1,3-diol

> <PUBCHEM_IUPAC_NAME>
(1R,3R,4S,4aR,6R)-4,4a-dimethyl-6-prop-1-en-2-yl-2,3,4,5,6,7-hexahydro-1H-naphthalene-1,3-diol

> <PUBCHEM_IUPAC_SYSTEMATIC_NAME>
(1R,3R,4S,4aR,6R)-4,4a-dimethyl-6-prop-1-en-2-yl-2,3,4,5,6,7-hexahydro-1H-naphthalene-1,3-diol

> <PUBCHEM_IUPAC_TRADITIONAL_NAME>
(1R,3R,4S,4aR,6R)-6-isopropenyl-4,4a-dimethyl-2,3,4,5,6,7-hexahydro-1H-naphthalene-1,3-diol

> <PUBCHEM_IUPAC_INCHI>
InChI=1S/C15H24O2/c1-9(2)11-5-6-12-14(17)7-13(16)10(3)15(12,4)8-11/h6,10-11,13-14,16-17H,1,5,7-8H2,2-4H3/t10-,11-,13-,14-,15-/m1/s1

> <PUBCHEM_IUPAC_INCHIKEY>
BXXSHQYDJWZXPB-OKNSCYNVSA-N

> <PUBCHEM_XLOGP3_AA>
2.8

> <PUBCHEM_EXACT_MASS>
236.17763

> <PUBCHEM_MOLECULAR_FORMULA>
C15H24O2

> <PUBCHEM_MOLECULAR_WEIGHT>
236.34986

> <PUBCHEM_OPENEYE_CAN_SMILES>
CC1C(CC(C2=CCC(CC12C)C(=C)C)O)O

> <PUBCHEM_OPENEYE_ISO_SMILES>
C[C@@H]1[C@@H](C[C@H](C2=CC[C@H](C[C@]12C)C(=C)C)O)O

> <PUBCHEM_CACTVS_TPSA>
40.5

> <PUBCHEM_MONOISOTOPIC_WEIGHT>
236.17763

> <PUBCHEM_TOTAL_CHARGE>
0

> <PUBCHEM_HEAVY_ATOM_COUNT>
17

> <PUBCHEM_ATOM_DEF_STEREO_COUNT>
5

> <PUBCHEM_ATOM_UDEF_STEREO_COUNT>
0

> <PUBCHEM_BOND_DEF_STEREO_COUNT>
0

> <PUBCHEM_BOND_UDEF_STEREO_COUNT>
0

> <PUBCHEM_ISOTOPIC_ATOM_COUNT>
0

> <PUBCHEM_COMPONENT_COUNT>
1

> <PUBCHEM_CACTVS_TAUTO_COUNT>
1

> <PUBCHEM_COORDINATE_TYPE>
1
5
255

> <PUBCHEM_BONDANNOTATIONS>
7  1  6
9  2  5
3  11  5
4  14  6
8  15  5

$$$$

