442793
  -OEChem-07051212593D

 47 47  0     1  0  0  0  0  0999 V2000
    3.6966    1.8593   -0.2515 O   0  0  0  0  0  0  0  0  0  0  0  0
    1.0161    1.1038   -1.6014 O   0  0  0  0  0  0  0  0  0  0  0  0
   -5.5607   -2.0581   -0.1330 O   0  0  0  0  0  0  0  0  0  0  0  0
   -6.8933   -0.0103    1.1927 O   0  0  0  0  0  0  0  0  0  0  0  0
    4.4402   -0.3104    0.5010 C   0  0  0  0  0  0  0  0  0  0  0  0
    3.3340    0.4810   -0.2080 C   0  0  1  0  0  0  0  0  0  0  0  0
    5.8090   -0.1047   -0.1586 C   0  0  0  0  0  0  0  0  0  0  0  0
    1.9651    0.3258    0.4593 C   0  0  0  0  0  0  0  0  0  0  0  0
    6.9416   -0.8553    0.5495 C   0  0  0  0  0  0  0  0  0  0  0  0
    0.8114    0.7074   -0.4543 C   0  0  0  0  0  0  0  0  0  0  0  0
    8.3194   -0.6018   -0.0624 C   0  0  0  0  0  0  0  0  0  0  0  0
   -0.5912    0.5285    0.1085 C   0  0  0  0  0  0  0  0  0  0  0  0
   -1.7011    0.8597   -0.8910 C   0  0  0  0  0  0  0  0  0  0  0  0
   -3.0859    0.6243   -0.3368 C   0  0  0  0  0  0  0  0  0  0  0  0
    9.4122   -1.3128    0.7213 C   0  0  0  0  0  0  0  0  0  0  0  0
   -3.6962   -0.6205   -0.4898 C   0  0  0  0  0  0  0  0  0  0  0  0
   -3.7546    1.6519    0.3284 C   0  0  0  0  0  0  0  0  0  0  0  0
   -4.9752   -0.8380    0.0226 C   0  0  0  0  0  0  0  0  0  0  0  0
   -5.0337    1.4345    0.8405 C   0  0  0  0  0  0  0  0  0  0  0  0
   -5.6440    0.1896    0.6877 C   0  0  0  0  0  0  0  0  0  0  0  0
   -4.8098   -3.0539   -0.8248 C   0  0  0  0  0  0  0  0  0  0  0  0
    4.1891   -1.3776    0.5069 H   0  0  0  0  0  0  0  0  0  0  0  0
    4.5064    0.0170    1.5462 H   0  0  0  0  0  0  0  0  0  0  0  0
    3.2854    0.1346   -1.2470 H   0  0  0  0  0  0  0  0  0  0  0  0
    5.7607   -0.4312   -1.2047 H   0  0  0  0  0  0  0  0  0  0  0  0
    6.0576    0.9633   -0.1707 H   0  0  0  0  0  0  0  0  0  0  0  0
    1.9000    0.9534    1.3550 H   0  0  0  0  0  0  0  0  0  0  0  0
    1.8084   -0.7210    0.7432 H   0  0  0  0  0  0  0  0  0  0  0  0
    6.7269   -1.9310    0.5296 H   0  0  0  0  0  0  0  0  0  0  0  0
    6.9579   -0.5564    1.6052 H   0  0  0  0  0  0  0  0  0  0  0  0
    8.5285    0.4741   -0.0745 H   0  0  0  0  0  0  0  0  0  0  0  0
    8.3324   -0.9473   -1.1024 H   0  0  0  0  0  0  0  0  0  0  0  0
   -0.6859   -0.5139    0.4350 H   0  0  0  0  0  0  0  0  0  0  0  0
   -0.6800    1.1692    0.9936 H   0  0  0  0  0  0  0  0  0  0  0  0
   -1.6111    1.9054   -1.2139 H   0  0  0  0  0  0  0  0  0  0  0  0
   -1.5707    0.2665   -1.8059 H   0  0  0  0  0  0  0  0  0  0  0  0
    3.7766    2.1751    0.6648 H   0  0  0  0  0  0  0  0  0  0  0  0
    9.2472   -2.3949    0.7305 H   0  0  0  0  0  0  0  0  0  0  0  0
   10.3893   -1.1219    0.2667 H   0  0  0  0  0  0  0  0  0  0  0  0
    9.4451   -0.9607    1.7573 H   0  0  0  0  0  0  0  0  0  0  0  0
   -3.1265   -1.3809   -1.0134 H   0  0  0  0  0  0  0  0  0  0  0  0
   -3.2884    2.6254    0.4554 H   0  0  0  0  0  0  0  0  0  0  0  0
   -5.5431    2.2437    1.3570 H   0  0  0  0  0  0  0  0  0  0  0  0
   -7.1979    0.8096    1.6182 H   0  0  0  0  0  0  0  0  0  0  0  0
   -5.4268   -3.9580   -0.8565 H   0  0  0  0  0  0  0  0  0  0  0  0
   -3.8924   -3.3149   -0.2863 H   0  0  0  0  0  0  0  0  0  0  0  0
   -4.6169   -2.7654   -1.8637 H   0  0  0  0  0  0  0  0  0  0  0  0
  1  6  1  0  0  0  0
  1 37  1  0  0  0  0
  2 10  2  0  0  0  0
  3 18  1  0  0  0  0
  3 21  1  0  0  0  0
  4 20  1  0  0  0  0
  4 44  1  0  0  0  0
  5  6  1  0  0  0  0
  5  7  1  0  0  0  0
  5 22  1  0  0  0  0
  5 23  1  0  0  0  0
  6  8  1  0  0  0  0
  6 24  1  0  0  0  0
  7  9  1  0  0  0  0
  7 25  1  0  0  0  0
  7 26  1  0  0  0  0
  8 10  1  0  0  0  0
  8 27  1  0  0  0  0
  8 28  1  0  0  0  0
  9 11  1  0  0  0  0
  9 29  1  0  0  0  0
  9 30  1  0  0  0  0
 10 12  1  0  0  0  0
 11 15  1  0  0  0  0
 11 31  1  0  0  0  0
 11 32  1  0  0  0  0
 12 13  1  0  0  0  0
 12 33  1  0  0  0  0
 12 34  1  0  0  0  0
 13 14  1  0  0  0  0
 13 35  1  0  0  0  0
 13 36  1  0  0  0  0
 14 16  2  0  0  0  0
 14 17  1  0  0  0  0
 15 38  1  0  0  0  0
 15 39  1  0  0  0  0
 15 40  1  0  0  0  0
 16 18  1  0  0  0  0
 16 41  1  0  0  0  0
 17 19  2  0  0  0  0
 17 42  1  0  0  0  0
 18 20  2  0  0  0  0
 19 20  1  0  0  0  0
 19 43  1  0  0  0  0
 21 45  1  0  0  0  0
 21 46  1  0  0  0  0
 21 47  1  0  0  0  0
M  END
> <PUBCHEM_COMPOUND_CID>
442793

> <PUBCHEM_CONFORMER_RMSD>
1.2

> <PUBCHEM_CONFORMER_DIVERSEORDER>
1
47
92
57
50
118
75
110
38
102
15
46
55
4
32
23
13
86
98
91
42
89
21
28
121
79
53
80
68
94
125
3
44
81
59
27
76
49
78
33
84
106
56
14
54
127
104
63
99
17
131
34
74
123
71
60
126
67
43
119
105
124
10
45
77
6
107
30
11
51
73
61
62
132
113
90
66
93
36
130
109
16
25
112
39
72
2
26
5
24
82
100
19
41
22
129
122
96
114
128
18
29
69
35
8
31
7
95
12
116
120
87
88
85
64
115
101
37
133
111
117
97
103
9
52
58
83
48
108
40
20
65
70

> <PUBCHEM_MMFF94_PARTIAL_CHARGES>
21
1 -0.68
10 0.45
12 0.06
13 0.14
14 -0.14
16 -0.15
17 -0.15
18 0.08
19 -0.15
2 -0.57
20 0.08
21 0.28
3 -0.36
37 0.4
4 -0.53
41 0.15
42 0.15
43 0.15
44 0.45
6 0.28
8 0.06

> <PUBCHEM_EFFECTIVE_ROTOR_COUNT>
10

> <PUBCHEM_PHARMACOPHORE_FEATURES>
8
1 1 acceptor
1 1 donor
1 15 hydrophobe
1 2 acceptor
1 3 acceptor
1 4 donor
4 5 7 9 11 hydrophobe
6 14 16 17 18 19 20 rings

> <PUBCHEM_HEAVY_ATOM_COUNT>
21

> <PUBCHEM_ATOM_DEF_STEREO_COUNT>
1

> <PUBCHEM_ATOM_UDEF_STEREO_COUNT>
0

> <PUBCHEM_BOND_DEF_STEREO_COUNT>
0

> <PUBCHEM_BOND_UDEF_STEREO_COUNT>
0

> <PUBCHEM_ISOTOPIC_ATOM_COUNT>
0

> <PUBCHEM_COMPONENT_COUNT>
1

> <PUBCHEM_CACTVS_TAUTO_COUNT>
9

> <PUBCHEM_CONFORMER_ID>
0006C1A900000001

> <PUBCHEM_MMFF94_ENERGY>
41.166

> <PUBCHEM_FEATURE_SELFOVERLAP>
40.595

> <PUBCHEM_SHAPE_FINGERPRINT>
10 15 16950285074831919032
10066227 49 14117249416518857192
10299344 5 18343017796772228270
11089746 13 8142078767543914426
11315181 36 18410575080769369617
11524674 6 17385445410017003134
12091667 2 17203327840130930341
12498461 61 18114184108511907287
125118 31 8430302560228842274
12596602 18 18186804651816805200
13288520 33 18343866619453719221
13668630 136 16271921593561632785
13968360 50 12751242523984047640
14123256 10 15841549691508178648
14251764 18 18342174458563826324
14251764 46 18409448111067367817
14344974 204 17968660389362706454
14556957 393 15338829923941617350
14617042 71 15647637554103852178
14729087 3 7493283340061850682
14849402 71 18262520274350520296
15183329 4 17632583747316080506
15348495 7 17749395814714921578
155225 1 6411300109808497859
15716309 27 18272367568384535620
17093844 174 16587746447368879577
1754908 1 18187094958011453442
17780758 139 18260548935578522609
1818759 1 18334574699208595918
195137 175 7060371553448325786
21150785 3 13614237088220899480
21267235 1 17632573855426038092
21315759 40 18272647970410596172
23035841 295 18342455950277229392
23522609 53 18056731374137807156
23559900 14 18191877726065199633
246663 6 17988921198112533618
300161 21 7420947564839073068
33532 11 18271810177205855842
397830 11 17677064421371343482
445580 204 8718831993955965886
5104073 3 17896313624261518681
559249 180 18413389822589886023
5937810 71 12535354531728420126
5969126 39 16845579746623773172
6327066 14 9078025929498528379
7495541 125 17968377836169076049
9953998 17 18113620092714694611
9980921 7 6843934858732910403

> <PUBCHEM_SHAPE_MULTIPOLES>
408.69
25.13
1.94
0.98
46.51
1.32
0.08
11.61
-6.9
-3.21
0.34
-0.42
-0.09
-1.59

> <PUBCHEM_SHAPE_SELFOVERLAP>
811.551

> <PUBCHEM_SHAPE_VOLUME>
242.8

> <PUBCHEM_COORDINATE_TYPE>
2
5
10

$$$$

