442042
  -OEChem-07051212563D

 53 56  0     1  0  0  0  0  0999 V2000
    0.5014    0.2558   -2.0147 O   0  0  0  0  0  0  0  0  0  0  0  0
   -0.2620   -0.1173    2.4027 O   0  0  0  0  0  0  0  0  0  0  0  0
    2.2669   -1.8418   -1.6098 O   0  0  0  0  0  0  0  0  0  0  0  0
    2.3824    2.1427   -1.8052 O   0  0  0  0  0  0  0  0  0  0  0  0
    2.2763   -3.7830    1.0176 O   0  0  0  0  0  0  0  0  0  0  0  0
   -2.6396   -0.4290    0.6640 C   0  0  1  0  0  0  0  0  0  0  0  0
   -2.8959    1.0156    0.2479 C   0  0  2  0  0  0  0  0  0  0  0  0
   -3.6896   -0.1118   -0.3654 C   0  0  0  0  0  0  0  0  0  0  0  0
   -1.2602   -0.8531    0.3313 C   0  0  1  0  0  0  0  0  0  0  0  0
   -1.9177    1.7837   -0.6405 C   0  0  0  0  0  0  0  0  0  0  0  0
    0.4593    0.9913    0.3768 C   0  0  2  0  0  0  0  0  0  0  0  0
   -0.5359    2.1662   -0.0082 C   0  0  2  0  0  0  0  0  0  0  0  0
    1.2099    0.2050   -0.7803 C   0  0  1  0  0  0  0  0  0  0  0  0
   -0.3248   -0.0108    1.1798 C   0  0  0  0  0  0  0  0  0  0  0  0
   -3.3706   -0.4585   -1.7821 C   0  0  0  0  0  0  0  0  0  0  0  0
   -5.1269   -0.3330   -0.0331 C   0  0  0  0  0  0  0  0  0  0  0  0
   -0.6911   -2.2117    0.3999 C   0  0  0  0  0  0  0  0  0  0  0  0
    1.6520    1.4833    1.1672 C   0  0  0  0  0  0  0  0  0  0  0  0
    1.5922   -1.3253   -0.4476 C   0  0  1  0  0  0  0  0  0  0  0  0
    2.5335    1.0162   -0.9512 C   0  0  2  0  0  0  0  0  0  0  0  0
   -0.8065    3.1194    1.1755 C   0  0  0  0  0  0  0  0  0  0  0  0
    0.5931   -2.4152    0.0264 C   0  0  0  0  0  0  0  0  0  0  0  0
    2.7738    1.5168    0.4374 C   0  0  0  0  0  0  0  0  0  0  0  0
    1.1709   -3.8055    0.1391 C   0  0  0  0  0  0  0  0  0  0  0  0
    4.1092    2.0002    0.8725 C   0  0  0  0  0  0  0  0  0  0  0  0
   -2.9572   -0.7312    1.6549 H   0  0  0  0  0  0  0  0  0  0  0  0
   -3.3824    1.6567    0.9736 H   0  0  0  0  0  0  0  0  0  0  0  0
   -1.1019   -0.6069   -0.7065 H   0  0  0  0  0  0  0  0  0  0  0  0
   -1.7231    1.3155   -1.6039 H   0  0  0  0  0  0  0  0  0  0  0  0
   -2.4306    2.7176   -0.9114 H   0  0  0  0  0  0  0  0  0  0  0  0
   -0.0340    2.7812   -0.7657 H   0  0  0  0  0  0  0  0  0  0  0  0
   -2.3349   -0.5471   -2.1029 H   0  0  0  0  0  0  0  0  0  0  0  0
   -3.8179   -1.4318   -2.0227 H   0  0  0  0  0  0  0  0  0  0  0  0
   -3.8440    0.2719   -2.4501 H   0  0  0  0  0  0  0  0  0  0  0  0
   -5.7723    0.2581   -0.6914 H   0  0  0  0  0  0  0  0  0  0  0  0
   -5.3954   -1.3889   -0.1440 H   0  0  0  0  0  0  0  0  0  0  0  0
   -5.3511   -0.0404    0.9986 H   0  0  0  0  0  0  0  0  0  0  0  0
   -1.3189   -3.0295    0.7381 H   0  0  0  0  0  0  0  0  0  0  0  0
    1.5988    1.8195    2.1946 H   0  0  0  0  0  0  0  0  0  0  0  0
    2.3444   -1.2868    0.3534 H   0  0  0  0  0  0  0  0  0  0  0  0
    3.3630    0.4142   -1.3280 H   0  0  0  0  0  0  0  0  0  0  0  0
   -1.2179    2.5874    2.0391 H   0  0  0  0  0  0  0  0  0  0  0  0
    0.1068    3.6327    1.4924 H   0  0  0  0  0  0  0  0  0  0  0  0
   -1.5195    3.9017    0.8922 H   0  0  0  0  0  0  0  0  0  0  0  0
    0.4942    1.1768   -2.3245 H   0  0  0  0  0  0  0  0  0  0  0  0
    1.5051   -4.1669   -0.8384 H   0  0  0  0  0  0  0  0  0  0  0  0
    0.4456   -4.5324    0.5205 H   0  0  0  0  0  0  0  0  0  0  0  0
    4.0955    2.3402    1.9131 H   0  0  0  0  0  0  0  0  0  0  0  0
    4.4346    2.8385    0.2487 H   0  0  0  0  0  0  0  0  0  0  0  0
    4.8492    1.1981    0.7902 H   0  0  0  0  0  0  0  0  0  0  0  0
    3.2199   -1.6923   -1.4908 H   0  0  0  0  0  0  0  0  0  0  0  0
    2.0068    2.8875   -1.3077 H   0  0  0  0  0  0  0  0  0  0  0  0
    1.9564   -3.5028    1.8924 H   0  0  0  0  0  0  0  0  0  0  0  0
  1 13  1  0  0  0  0
  1 45  1  0  0  0  0
  2 14  2  0  0  0  0
  3 19  1  0  0  0  0
  3 51  1  0  0  0  0
  4 20  1  0  0  0  0
  4 52  1  0  0  0  0
  5 24  1  0  0  0  0
  5 53  1  0  0  0  0
  6  7  1  0  0  0  0
  6  8  1  0  0  0  0
  6  9  1  0  0  0  0
  6 26  1  0  0  0  0
  7  8  1  0  0  0  0
  7 10  1  0  0  0  0
  7 27  1  0  0  0  0
  8 15  1  0  0  0  0
  8 16  1  0  0  0  0
  9 14  1  0  0  0  0
  9 17  1  0  0  0  0
  9 28  1  0  0  0  0
 10 12  1  0  0  0  0
 10 29  1  0  0  0  0
 10 30  1  0  0  0  0
 11 12  1  0  0  0  0
 11 13  1  0  0  0  0
 11 14  1  0  0  0  0
 11 18  1  0  0  0  0
 12 21  1  0  0  0  0
 12 31  1  0  0  0  0
 13 19  1  0  0  0  0
 13 20  1  0  0  0  0
 15 32  1  0  0  0  0
 15 33  1  0  0  0  0
 15 34  1  0  0  0  0
 16 35  1  0  0  0  0
 16 36  1  0  0  0  0
 16 37  1  0  0  0  0
 17 22  2  0  0  0  0
 17 38  1  0  0  0  0
 18 23  2  0  0  0  0
 18 39  1  0  0  0  0
 19 22  1  0  0  0  0
 19 40  1  0  0  0  0
 20 23  1  0  0  0  0
 20 41  1  0  0  0  0
 21 42  1  0  0  0  0
 21 43  1  0  0  0  0
 21 44  1  0  0  0  0
 22 24  1  0  0  0  0
 23 25  1  0  0  0  0
 24 46  1  0  0  0  0
 24 47  1  0  0  0  0
 25 48  1  0  0  0  0
 25 49  1  0  0  0  0
 25 50  1  0  0  0  0
M  END
> <PUBCHEM_COMPOUND_CID>
442042

> <PUBCHEM_CONFORMER_RMSD>
0.6

> <PUBCHEM_CONFORMER_DIVERSEORDER>
1
2
3

> <PUBCHEM_MMFF94_PARTIAL_CHARGES>
31
1 -0.68
10 0.09
11 0.2
13 0.28
14 0.45
15 0.09
16 0.09
17 -0.29
18 -0.29
19 0.42
2 -0.57
20 0.42
22 -0.28
23 -0.28
24 0.42
25 0.14
26 0.1
27 0.1
3 -0.68
38 0.15
39 0.15
4 -0.68
45 0.4
5 -0.68
51 0.4
52 0.4
53 0.4
6 -0.19
7 -0.19
8 -0.19
9 0.29

> <PUBCHEM_EFFECTIVE_ROTOR_COUNT>
2

> <PUBCHEM_PHARMACOPHORE_FEATURES>
13
1 1 acceptor
1 1 donor
1 2 acceptor
1 3 acceptor
1 3 donor
1 4 acceptor
1 4 donor
1 5 acceptor
1 5 donor
3 8 15 16 hydrophobe
5 11 13 18 20 23 rings
7 6 7 9 10 11 12 14 rings
7 9 11 13 14 17 19 22 rings

> <PUBCHEM_HEAVY_ATOM_COUNT>
25

> <PUBCHEM_ATOM_DEF_STEREO_COUNT>
8

> <PUBCHEM_ATOM_UDEF_STEREO_COUNT>
0

> <PUBCHEM_BOND_DEF_STEREO_COUNT>
0

> <PUBCHEM_BOND_UDEF_STEREO_COUNT>
0

> <PUBCHEM_ISOTOPIC_ATOM_COUNT>
0

> <PUBCHEM_COMPONENT_COUNT>
1

> <PUBCHEM_CACTVS_TAUTO_COUNT>
1

> <PUBCHEM_CONFORMER_ID>
0006BEBA00000001

> <PUBCHEM_MMFF94_ENERGY>
110.8462

> <PUBCHEM_FEATURE_SELFOVERLAP>
66.139

> <PUBCHEM_SHAPE_FINGERPRINT>
10863032 1 18334858268730855471
10906281 52 18117824517600308857
10948715 1 18263369105040637712
11370993 70 18338241453383024674
11578080 2 17628082500972059820
12035758 1 18046349621732718577
12592029 89 18411144636329654290
13004483 165 17186452776365756771
13083527 12 18265353861036422210
13132413 78 17688308305959198674
13140716 1 18338789040122988202
133893 2 17915443098858889218
13544592 271 18267302036863831185
14181834 199 18337398239518041446
14787075 74 18187091654674836026
15852999 172 18189608342058876654
16728300 4 17770538427438569048
16945 1 18200299056508079747
20028762 73 17684644330054071759
20567600 347 18338240366614328827
20600515 1 18191302672129391376
20691752 17 17774993652754532841
20905425 154 18188768469446010037
21421861 104 18263638640187367265
21452121 199 18194419993894413371
21452121 71 17907013229171724166
22149856 69 18198037259281986019
22182313 1 18194944288884006507
23184049 29 18118687866224138901
2334 1 18194105327157478186
23402539 116 18189627050731027461
23419403 2 17770812261415673886
23559900 14 18118389663183936100
2748010 2 18194939890832168530
298252 57 18199192780396367059
3052486 1 17977964383900075279
3060560 45 18192730963882639781
34934 24 18040438776645845437
350125 39 18051967319192855577
404807 78 16691094832781226255
4340502 62 18334853862632629347
5845 1 12317782969007639958
7364860 26 18338240482441139931
7471813 234 18118986907812607135
81228 2 17399509022750841690

> <PUBCHEM_SHAPE_MULTIPOLES>
485.14
5.89
3.71
1.59
4.11
2.99
-0.25
-1.58
-0.76
-2.71
0.81
-0.35
-0.19
-0.08

> <PUBCHEM_SHAPE_SELFOVERLAP>
1050.762

> <PUBCHEM_SHAPE_VOLUME>
264.9

> <PUBCHEM_COORDINATE_TYPE>
2
5
10

$$$$

