13429
  -OEChem-06261214102D

 27 26  0     1  0  0  0  0  0999 V2000
    2.5000    2.6200    0.0000 Br  0  0  0  0  0  0  0  0  0  0  0  0
    0.0000    3.3700    0.0000 Cl  0  5  0  0  0  0  0  0  0  0  0  0
    5.0981    4.1200    0.0000 N   0  3  3  0  0  0  0  0  0  0  0  0
    4.2320    3.6200    0.0000 C   0  0  0  0  0  0  0  0  0  0  0  0
    5.9641    4.6200    0.0000 C   0  0  0  0  0  0  0  0  0  0  0  0
    4.2320    2.6200    0.0000 C   0  0  0  0  0  0  0  0  0  0  0  0
    4.5981    4.9860    0.0000 C   0  0  0  0  0  0  0  0  0  0  0  0
    3.3660    2.1200    0.0000 C   0  0  0  0  0  0  0  0  0  0  0  0
    5.0981    2.1200    0.0000 C   0  0  0  0  0  0  0  0  0  0  0  0
    3.3660    1.1200    0.0000 C   0  0  0  0  0  0  0  0  0  0  0  0
    5.0981    1.1200    0.0000 C   0  0  0  0  0  0  0  0  0  0  0  0
    5.9641    5.6200    0.0000 C   0  0  0  0  0  0  0  0  0  0  0  0
    4.2320    0.6200    0.0000 C   0  0  0  0  0  0  0  0  0  0  0  0
    5.9641    6.6200    0.0000 C   0  0  0  0  0  0  0  0  0  0  0  0
    5.4081    3.5831    0.0000 H   0  0  0  0  0  0  0  0  0  0  0  0
    4.0200    4.2026    0.0000 H   0  0  0  0  0  0  0  0  0  0  0  0
    3.6215    3.5123    0.0000 H   0  0  0  0  0  0  0  0  0  0  0  0
    6.1762    4.0374    0.0000 H   0  0  0  0  0  0  0  0  0  0  0  0
    6.5747    4.7277    0.0000 H   0  0  0  0  0  0  0  0  0  0  0  0
    5.1350    5.2960    0.0000 H   0  0  0  0  0  0  0  0  0  0  0  0
    4.2881    5.5230    0.0000 H   0  0  0  0  0  0  0  0  0  0  0  0
    4.0611    4.6760    0.0000 H   0  0  0  0  0  0  0  0  0  0  0  0
    5.6350    2.4300    0.0000 H   0  0  0  0  0  0  0  0  0  0  0  0
    2.8291    0.8100    0.0000 H   0  0  0  0  0  0  0  0  0  0  0  0
    5.6350    0.8100    0.0000 H   0  0  0  0  0  0  0  0  0  0  0  0
    4.2320    0.0000    0.0000 H   0  0  0  0  0  0  0  0  0  0  0  0
    5.9641    7.2400    0.0000 H   0  0  0  0  0  0  0  0  0  0  0  0
  1  8  1  0  0  0  0
  3  4  1  0  0  0  0
  3  5  1  0  0  0  0
  3  7  1  0  0  0  0
  3 15  1  0  0  0  0
  4  6  1  0  0  0  0
  4 16  1  0  0  0  0
  4 17  1  0  0  0  0
  5 12  1  0  0  0  0
  5 18  1  0  0  0  0
  5 19  1  0  0  0  0
  6  8  1  0  0  0  0
  6  9  2  0  0  0  0
  7 20  1  0  0  0  0
  7 21  1  0  0  0  0
  7 22  1  0  0  0  0
  8 10  2  0  0  0  0
  9 11  1  0  0  0  0
  9 23  1  0  0  0  0
 10 13  1  0  0  0  0
 10 24  1  0  0  0  0
 11 13  2  0  0  0  0
 11 25  1  0  0  0  0
 12 14  3  0  0  0  0
 13 26  1  0  0  0  0
 14 27  1  0  0  0  0
M  CHG  2   2  -1   3   1
M  END
> <PUBCHEM_COMPOUND_CID>
13429

> <PUBCHEM_COMPOUND_CANONICALIZED>
1

> <PUBCHEM_CACTVS_COMPLEXITY>
194

> <PUBCHEM_CACTVS_HBOND_ACCEPTOR>
1

> <PUBCHEM_CACTVS_HBOND_DONOR>
1

> <PUBCHEM_CACTVS_ROTATABLE_BOND>
3

> <PUBCHEM_CACTVS_SUBSKEYS>
AAADccByAAAEEAAAAAAAAAAAAAAAAAAAAAAwAAAAAAAAAAABAAAAHABQAAABrADBGAQyAIPAAADAGiBCAACCAAAgAAQIiIAIBKgIICKAkRGEIAhggACIihcQgAAOAAAAAAAAgAAAAAAAAAEAAAAAAAAAAA==

> <PUBCHEM_IUPAC_OPENEYE_NAME>
(2-bromophenyl)methyl-methyl-prop-2-ynyl-ammonium chloride

> <PUBCHEM_IUPAC_CAS_NAME>
(2-bromophenyl)methyl-methyl-prop-2-ynylammonium chloride

> <PUBCHEM_IUPAC_NAME>
(2-bromophenyl)methyl-methyl-prop-2-ynylazanium chloride

> <PUBCHEM_IUPAC_SYSTEMATIC_NAME>
(2-bromophenyl)methyl-methyl-prop-2-ynyl-azanium chloride

> <PUBCHEM_IUPAC_TRADITIONAL_NAME>
(2-bromobenzyl)-methyl-propargyl-ammonium chloride

> <PUBCHEM_IUPAC_INCHI>
InChI=1S/C11H12BrN.ClH/c1-3-8-13(2)9-10-6-4-5-7-11(10)12;/h1,4-7H,8-9H2,2H3;1H

> <PUBCHEM_IUPAC_INCHIKEY>
LUTNYVBBRFDJTM-UHFFFAOYSA-N

> <PUBCHEM_EXACT_MASS>
272.991989

> <PUBCHEM_MOLECULAR_FORMULA>
C11H13BrClN

> <PUBCHEM_MOLECULAR_WEIGHT>
274.58462

> <PUBCHEM_OPENEYE_CAN_SMILES>
C[NH+](CC#C)CC1=CC=CC=C1Br.[Cl-]

> <PUBCHEM_OPENEYE_ISO_SMILES>
C[NH+](CC#C)CC1=CC=CC=C1Br.[Cl-]

> <PUBCHEM_CACTVS_TPSA>
4.4

> <PUBCHEM_MONOISOTOPIC_WEIGHT>
272.991989

> <PUBCHEM_TOTAL_CHARGE>
0

> <PUBCHEM_HEAVY_ATOM_COUNT>
14

> <PUBCHEM_ATOM_DEF_STEREO_COUNT>
0

> <PUBCHEM_ATOM_UDEF_STEREO_COUNT>
0

> <PUBCHEM_BOND_DEF_STEREO_COUNT>
0

> <PUBCHEM_BOND_UDEF_STEREO_COUNT>
0

> <PUBCHEM_ISOTOPIC_ATOM_COUNT>
0

> <PUBCHEM_COMPONENT_COUNT>
2

> <PUBCHEM_CACTVS_TAUTO_COUNT>
1

> <PUBCHEM_COORDINATE_TYPE>
1
5
255

> <PUBCHEM_BONDANNOTATIONS>
10  13  8
11  13  8
6  8  8
6  9  8
8  10  8
9  11  8

$$$$

