47205571
  -OEChem-06241222592D

 34 36  0     1  0  0  0  0  0999 V2000
    5.3147    0.9827    0.0000 O   0  0  0  0  0  0  0  0  0  0  0  0
    3.5827   -0.0173    0.0000 N   0  0  0  0  0  0  0  0  0  0  0  0
    6.1808   -0.5173    0.0000 N   0  0  0  0  0  0  0  0  0  0  0  0
    2.5000    1.1851    0.0000 N   0  0  0  0  0  0  0  0  0  0  0  0
    7.9128    1.4827    0.0000 N   0  0  0  0  0  0  0  0  0  0  0  0
    4.4487   -0.5173    0.0000 C   0  0  3  0  0  0  0  0  0  0  0  0
    5.3147   -0.0173    0.0000 C   0  0  0  0  0  0  0  0  0  0  0  0
    4.4487   -1.5173    0.0000 C   0  0  0  0  0  0  0  0  0  0  0  0
    7.0468   -0.0173    0.0000 C   0  0  0  0  0  0  0  0  0  0  0  0
    2.6691   -0.4241    0.0000 C   0  0  0  0  0  0  0  0  0  0  0  0
    8.7788   -0.0173    0.0000 C   0  0  0  0  0  0  0  0  0  0  0  0
    3.4782    0.9772    0.0000 C   0  0  0  0  0  0  0  0  0  0  0  0
    7.9128   -0.5173    0.0000 C   0  0  0  0  0  0  0  0  0  0  0  0
    8.7788    0.9827    0.0000 C   0  0  0  0  0  0  0  0  0  0  0  0
    7.0468    0.9827    0.0000 C   0  0  0  0  0  0  0  0  0  0  0  0
    2.0000    0.3191    0.0000 C   0  0  0  0  0  0  0  0  0  0  0  0
    9.6728   -0.5520    0.0000 C   0  0  0  0  0  0  0  0  0  0  0  0
    9.6728    1.5173    0.0000 C   0  0  0  0  0  0  0  0  0  0  0  0
   10.5788   -0.0381    0.0000 C   0  0  0  0  0  0  0  0  0  0  0  0
   10.5788    1.0035    0.0000 C   0  0  0  0  0  0  0  0  0  0  0  0
    3.9118   -0.8273    0.0000 H   0  0  0  0  0  0  0  0  0  0  0  0
    3.8287   -1.5173    0.0000 H   0  0  0  0  0  0  0  0  0  0  0  0
    4.4487   -2.1373    0.0000 H   0  0  0  0  0  0  0  0  0  0  0  0
    5.0687   -1.5173    0.0000 H   0  0  0  0  0  0  0  0  0  0  0  0
    6.1808   -1.1373    0.0000 H   0  0  0  0  0  0  0  0  0  0  0  0
    2.5402   -1.0305    0.0000 H   0  0  0  0  0  0  0  0  0  0  0  0
    3.9389    1.3920    0.0000 H   0  0  0  0  0  0  0  0  0  0  0  0
    7.9128   -1.1373    0.0000 H   0  0  0  0  0  0  0  0  0  0  0  0
    6.5098    1.2927    0.0000 H   0  0  0  0  0  0  0  0  0  0  0  0
    1.3834    0.2543    0.0000 H   0  0  0  0  0  0  0  0  0  0  0  0
    9.6656   -1.1720    0.0000 H   0  0  0  0  0  0  0  0  0  0  0  0
    9.6656    2.1373    0.0000 H   0  0  0  0  0  0  0  0  0  0  0  0
   11.1146   -0.3502    0.0000 H   0  0  0  0  0  0  0  0  0  0  0  0
   11.1146    1.3156    0.0000 H   0  0  0  0  0  0  0  0  0  0  0  0
  1  7  2  0  0  0  0
  2  6  1  0  0  0  0
  2 10  1  0  0  0  0
  2 12  1  0  0  0  0
  3  7  1  0  0  0  0
  3  9  1  0  0  0  0
  3 25  1  0  0  0  0
  4 12  2  0  0  0  0
  4 16  1  0  0  0  0
  5 14  1  0  0  0  0
  5 15  2  0  0  0  0
  6  7  1  0  0  0  0
  6  8  1  0  0  0  0
  6 21  1  0  0  0  0
  8 22  1  0  0  0  0
  8 23  1  0  0  0  0
  8 24  1  0  0  0  0
  9 13  2  0  0  0  0
  9 15  1  0  0  0  0
 10 16  2  0  0  0  0
 10 26  1  0  0  0  0
 11 13  1  0  0  0  0
 11 14  1  0  0  0  0
 11 17  2  0  0  0  0
 12 27  1  0  0  0  0
 13 28  1  0  0  0  0
 14 18  2  0  0  0  0
 15 29  1  0  0  0  0
 16 30  1  0  0  0  0
 17 19  1  0  0  0  0
 17 31  1  0  0  0  0
 18 20  1  0  0  0  0
 18 32  1  0  0  0  0
 19 20  2  0  0  0  0
 19 33  1  0  0  0  0
 20 34  1  0  0  0  0
M  END
> <PUBCHEM_COMPOUND_CID>
47205571

> <PUBCHEM_COMPOUND_CANONICALIZED>
1

> <PUBCHEM_CACTVS_COMPLEXITY>
349

> <PUBCHEM_CACTVS_HBOND_ACCEPTOR>
3

> <PUBCHEM_CACTVS_HBOND_DONOR>
1

> <PUBCHEM_CACTVS_ROTATABLE_BOND>
3

> <PUBCHEM_CACTVS_SUBSKEYS>
AAADccBzoAAAAAAAAAAAAAAAAAAAAWAAAAA8QAAAAAAAAACx/AAAHgAQAAAADCjBngQ/0PfMEACoAzV3dACCgC0xEqAJ2CG4dJiIaOLAmbGUIAholALIyCcQgIAOAAAAAAACAAAAAAAAAAQAAAAAAAAAAA==

> <PUBCHEM_IUPAC_OPENEYE_NAME>
2-imidazol-1-yl-N-(3-quinolyl)propanamide

> <PUBCHEM_IUPAC_CAS_NAME>
2-(1-imidazolyl)-N-(3-quinolinyl)propanamide

> <PUBCHEM_IUPAC_NAME>
2-imidazol-1-yl-N-quinolin-3-ylpropanamide

> <PUBCHEM_IUPAC_SYSTEMATIC_NAME>
2-imidazol-1-yl-N-quinolin-3-yl-propanamide

> <PUBCHEM_IUPAC_TRADITIONAL_NAME>
2-imidazol-1-yl-N-(3-quinolyl)propionamide

> <PUBCHEM_IUPAC_INCHI>
InChI=1S/C15H14N4O/c1-11(19-7-6-16-10-19)15(20)18-13-8-12-4-2-3-5-14(12)17-9-13/h2-11H,1H3,(H,18,20)

> <PUBCHEM_IUPAC_INCHIKEY>
HQUXMHJZPSUPHU-UHFFFAOYSA-N

> <PUBCHEM_XLOGP3>
2.2

> <PUBCHEM_EXACT_MASS>
266.116761

> <PUBCHEM_MOLECULAR_FORMULA>
C15H14N4O

> <PUBCHEM_MOLECULAR_WEIGHT>
266.29786

> <PUBCHEM_OPENEYE_CAN_SMILES>
CC(C(=O)NC1=CC2=CC=CC=C2N=C1)N3C=CN=C3

> <PUBCHEM_OPENEYE_ISO_SMILES>
CC(C(=O)NC1=CC2=CC=CC=C2N=C1)N3C=CN=C3

> <PUBCHEM_CACTVS_TPSA>
59.8

> <PUBCHEM_MONOISOTOPIC_WEIGHT>
266.116761

> <PUBCHEM_TOTAL_CHARGE>
0

> <PUBCHEM_HEAVY_ATOM_COUNT>
20

> <PUBCHEM_ATOM_DEF_STEREO_COUNT>
0

> <PUBCHEM_ATOM_UDEF_STEREO_COUNT>
1

> <PUBCHEM_BOND_DEF_STEREO_COUNT>
0

> <PUBCHEM_BOND_UDEF_STEREO_COUNT>
0

> <PUBCHEM_ISOTOPIC_ATOM_COUNT>
0

> <PUBCHEM_COMPONENT_COUNT>
1

> <PUBCHEM_CACTVS_TAUTO_COUNT>
3

> <PUBCHEM_COORDINATE_TYPE>
1
5
255

> <PUBCHEM_BONDANNOTATIONS>
10  16  8
11  13  8
11  14  8
11  17  8
14  18  8
17  19  8
18  20  8
19  20  8
2  10  8
2  12  8
4  12  8
4  16  8
5  14  8
5  15  8
6  8  3
9  13  8
9  15  8

$$$$

