18055
  -OEChem-07051213133D

 25 24  0     0  0  0  0  0  0999 V2000
   -1.4954   -0.5723   -0.3036 S   0  0  0  0  0  0  0  0  0  0  0  0
   -0.3720    1.5763    0.6659 O   0  0  0  0  0  0  0  0  0  0  0  0
    1.1413   -0.0684    0.0223 N   0  0  0  0  0  0  0  0  0  0  0  0
    1.3737   -1.3963   -0.5483 C   0  0  0  0  0  0  0  0  0  0  0  0
    2.3466    0.6583    0.4033 C   0  0  0  0  0  0  0  0  0  0  0  0
   -0.1463    0.4657    0.1903 C   0  0  0  0  0  0  0  0  0  0  0  0
    1.3941   -2.4628    0.5335 C   0  0  0  0  0  0  0  0  0  0  0  0
    2.8673    1.5004   -0.7490 C   0  0  0  0  0  0  0  0  0  0  0  0
   -2.9040    0.4909    0.0809 C   0  0  0  0  0  0  0  0  0  0  0  0
   -4.2052   -0.1919   -0.2953 C   0  0  0  0  0  0  0  0  0  0  0  0
    0.6352   -1.6431   -1.3151 H   0  0  0  0  0  0  0  0  0  0  0  0
    2.3394   -1.3885   -1.0682 H   0  0  0  0  0  0  0  0  0  0  0  0
    2.1013    1.3216    1.2404 H   0  0  0  0  0  0  0  0  0  0  0  0
    3.1106   -0.0439    0.7534 H   0  0  0  0  0  0  0  0  0  0  0  0
    2.1872   -2.2704    1.2634 H   0  0  0  0  0  0  0  0  0  0  0  0
    0.4478   -2.5071    1.0807 H   0  0  0  0  0  0  0  0  0  0  0  0
    1.5761   -3.4468    0.0901 H   0  0  0  0  0  0  0  0  0  0  0  0
    3.1342    0.8767   -1.6082 H   0  0  0  0  0  0  0  0  0  0  0  0
    2.1130    2.2210   -1.0825 H   0  0  0  0  0  0  0  0  0  0  0  0
    3.7582    2.0563   -0.4412 H   0  0  0  0  0  0  0  0  0  0  0  0
   -2.9062    0.7200    1.1514 H   0  0  0  0  0  0  0  0  0  0  0  0
   -2.8131    1.4315   -0.4720 H   0  0  0  0  0  0  0  0  0  0  0  0
   -4.2488   -0.4126   -1.3673 H   0  0  0  0  0  0  0  0  0  0  0  0
   -4.3443   -1.1265    0.2589 H   0  0  0  0  0  0  0  0  0  0  0  0
   -5.0512    0.4618   -0.0579 H   0  0  0  0  0  0  0  0  0  0  0  0
  1  6  1  0  0  0  0
  1  9  1  0  0  0  0
  2  6  2  0  0  0  0
  3  4  1  0  0  0  0
  3  5  1  0  0  0  0
  3  6  1  0  0  0  0
  4  7  1  0  0  0  0
  4 11  1  0  0  0  0
  4 12  1  0  0  0  0
  5  8  1  0  0  0  0
  5 13  1  0  0  0  0
  5 14  1  0  0  0  0
  7 15  1  0  0  0  0
  7 16  1  0  0  0  0
  7 17  1  0  0  0  0
  8 18  1  0  0  0  0
  8 19  1  0  0  0  0
  8 20  1  0  0  0  0
  9 10  1  0  0  0  0
  9 21  1  0  0  0  0
  9 22  1  0  0  0  0
 10 23  1  0  0  0  0
 10 24  1  0  0  0  0
 10 25  1  0  0  0  0
M  END
> <PUBCHEM_COMPOUND_CID>
18055

> <PUBCHEM_CONFORMER_RMSD>
0.6

> <PUBCHEM_CONFORMER_DIVERSEORDER>
1
31
32
35
19
3
5
24
33
22
20
11
10
36
21
13
9
23
27
29
12
34
17
37
14
2
28
18
25
6
16
4
26
30
15
7
8

> <PUBCHEM_MMFF94_PARTIAL_CHARGES>
7
1 -0.37
2 -0.57
3 -0.66
4 0.3
5 0.3
6 0.77
9 0.23

> <PUBCHEM_EFFECTIVE_ROTOR_COUNT>
5

> <PUBCHEM_PHARMACOPHORE_FEATURES>
1
1 10 hydrophobe

> <PUBCHEM_HEAVY_ATOM_COUNT>
10

> <PUBCHEM_ATOM_DEF_STEREO_COUNT>
0

> <PUBCHEM_ATOM_UDEF_STEREO_COUNT>
0

> <PUBCHEM_BOND_DEF_STEREO_COUNT>
0

> <PUBCHEM_BOND_UDEF_STEREO_COUNT>
0

> <PUBCHEM_ISOTOPIC_ATOM_COUNT>
0

> <PUBCHEM_COMPONENT_COUNT>
1

> <PUBCHEM_CACTVS_TAUTO_COUNT>
1

> <PUBCHEM_CONFORMER_ID>
0000468700000001

> <PUBCHEM_MMFF94_ENERGY>
9.595

> <PUBCHEM_FEATURE_SELFOVERLAP>
5.074

> <PUBCHEM_SHAPE_FINGERPRINT>
12932764 1 17531258253120966185
13380535 76 18342177730479904643
14251717 144 18409736166261153471
170605 34 18201721730101902323
18342897 55 18338521811378354661
19021347 11 18410856551060404500
20201158 50 18342176674234324523
20645477 70 18336551620418764759
20653091 64 18193837269890364762
20671657 53 18124031496998897414
20711978 1 18266179619922394203
20871998 22 17900260002863060814
21040471 1 18193559969800992776
21499 59 18270400469020534436
23235685 24 18340489967388602876
23402655 69 18333739022525011141
23532345 1 18272368668344478405
23532345 88 18269286801317765919
23552333 60 18187646950411084122
23552423 10 18267300009507359403
3248919 1 17346307220342855725
528862 383 18411707611752282895
581208 293 18411143528164683839
81539 233 18201441354584182518

> <PUBCHEM_SHAPE_MULTIPOLES>
198.79
5.52
1.99
0.8
5.56
1.05
-0.03
-1.17
-0.79
-1.75
0.18
-0.19
-0.03
-0.4

> <PUBCHEM_SHAPE_SELFOVERLAP>
348.1

> <PUBCHEM_SHAPE_VOLUME>
132.4

> <PUBCHEM_COORDINATE_TYPE>
2
5
10

$$$$

