14403
  -OEChem-07051212523D

 35 39  0     1  0  0  0  0  0999 V2000
    3.4307    1.1275    0.4159 O   0  0  0  0  0  0  0  0  0  0  0  0
    4.7688   -0.6280   -0.4979 O   0  0  0  0  0  0  0  0  0  0  0  0
   -0.3028   -1.7411    0.3145 O   0  0  0  0  0  0  0  0  0  0  0  0
   -0.8908    3.0816   -0.1691 O   0  0  0  0  0  0  0  0  0  0  0  0
   -4.7198   -1.7756   -0.1100 O   0  0  0  0  0  0  0  0  0  0  0  0
   -2.0967   -3.1733    0.2663 O   0  0  0  0  0  0  0  0  0  0  0  0
    2.6504   -1.1972    0.5522 C   0  0  2  0  0  0  0  0  0  0  0  0
    1.5559   -0.2227    0.3531 C   0  0  0  0  0  0  0  0  0  0  0  0
    3.8685   -0.2458    0.5692 C   0  0  2  0  0  0  0  0  0  0  0  0
    0.1907   -0.4200    0.2410 C   0  0  0  0  0  0  0  0  0  0  0  0
   -0.6696    0.6711    0.0621 C   0  0  0  0  0  0  0  0  0  0  0  0
    2.0686    1.0610    0.2935 C   0  0  0  0  0  0  0  0  0  0  0  0
   -2.0939    0.3941   -0.0501 C   0  0  0  0  0  0  0  0  0  0  0  0
   -3.1572    1.4247   -0.2431 C   0  0  0  0  0  0  0  0  0  0  0  0
    2.9676   -2.0597   -0.6054 C   0  0  0  0  0  0  0  0  0  0  0  0
   -2.5260   -0.8656    0.0206 C   0  0  0  0  0  0  0  0  0  0  0  0
   -0.1245    1.9661    0.0014 C   0  0  0  0  0  0  0  0  0  0  0  0
   -4.4553    0.6207   -0.2952 C   0  0  0  0  0  0  0  0  0  0  0  0
    1.2555    2.1669    0.1183 C   0  0  0  0  0  0  0  0  0  0  0  0
   -3.9873   -0.7980   -0.1254 C   0  0  0  0  0  0  0  0  0  0  0  0
    4.1394   -1.6897   -1.1068 C   0  0  0  0  0  0  0  0  0  0  0  0
   -1.6626   -2.0301    0.2079 C   0  0  0  0  0  0  0  0  0  0  0  0
   -0.2097    4.3331   -0.2129 C   0  0  0  0  0  0  0  0  0  0  0  0
    2.5540   -1.7518    1.4903 H   0  0  0  0  0  0  0  0  0  0  0  0
    4.4190   -0.3206    1.5154 H   0  0  0  0  0  0  0  0  0  0  0  0
   -3.0235    1.9788   -1.1784 H   0  0  0  0  0  0  0  0  0  0  0  0
   -3.1921    2.1361    0.5889 H   0  0  0  0  0  0  0  0  0  0  0  0
    2.3594   -2.8721   -0.9727 H   0  0  0  0  0  0  0  0  0  0  0  0
   -4.9599    0.7363   -1.2585 H   0  0  0  0  0  0  0  0  0  0  0  0
   -5.1287    0.8935    0.5222 H   0  0  0  0  0  0  0  0  0  0  0  0
    1.7583    3.1253    0.0834 H   0  0  0  0  0  0  0  0  0  0  0  0
    4.6690   -2.1113   -1.9423 H   0  0  0  0  0  0  0  0  0  0  0  0
   -0.9747    5.1044   -0.3545 H   0  0  0  0  0  0  0  0  0  0  0  0
    0.2869    4.5625    0.7363 H   0  0  0  0  0  0  0  0  0  0  0  0
    0.4619    4.4038   -1.0757 H   0  0  0  0  0  0  0  0  0  0  0  0
  1  9  1  0  0  0  0
  1 12  1  0  0  0  0
  2  9  1  0  0  0  0
  2 21  1  0  0  0  0
  3 10  1  0  0  0  0
  3 22  1  0  0  0  0
  4 17  1  0  0  0  0
  4 23  1  0  0  0  0
  5 20  2  0  0  0  0
  6 22  2  0  0  0  0
  7  8  1  0  0  0  0
  7  9  1  0  0  0  0
  7 15  1  0  0  0  0
  7 24  1  0  0  0  0
  8 10  2  0  0  0  0
  8 12  1  0  0  0  0
  9 25  1  0  0  0  0
 10 11  1  0  0  0  0
 11 13  1  0  0  0  0
 11 17  2  0  0  0  0
 12 19  2  0  0  0  0
 13 14  1  0  0  0  0
 13 16  2  0  0  0  0
 14 18  1  0  0  0  0
 14 26  1  0  0  0  0
 14 27  1  0  0  0  0
 15 21  2  0  0  0  0
 15 28  1  0  0  0  0
 16 20  1  0  0  0  0
 16 22  1  0  0  0  0
 17 19  1  0  0  0  0
 18 20  1  0  0  0  0
 18 29  1  0  0  0  0
 18 30  1  0  0  0  0
 19 31  1  0  0  0  0
 21 32  1  0  0  0  0
 23 33  1  0  0  0  0
 23 34  1  0  0  0  0
 23 35  1  0  0  0  0
M  END
> <PUBCHEM_COMPOUND_CID>
14403

> <PUBCHEM_CONFORMER_RMSD>
0.6

> <PUBCHEM_CONFORMER_DIVERSEORDER>
1
2

> <PUBCHEM_MMFF94_PARTIAL_CHARGES>
26
1 -0.36
10 0.08
11 0.03
12 0.08
13 -0.17
14 0.14
15 -0.29
16 0.03
17 0.08
18 0.06
19 -0.15
2 -0.36
20 0.49
21 -0.07
22 0.71
23 0.28
28 0.15
3 -0.23
31 0.15
32 0.15
4 -0.36
5 -0.57
6 -0.57
7 0.28
8 -0.14
9 0.56

> <PUBCHEM_EFFECTIVE_ROTOR_COUNT>
1.8

> <PUBCHEM_PHARMACOPHORE_FEATURES>
11
1 1 acceptor
1 16 anion
1 2 acceptor
1 4 acceptor
1 5 acceptor
1 6 acceptor
5 1 7 8 9 12 rings
5 13 14 16 18 20 rings
5 2 7 9 15 21 rings
6 3 10 11 13 16 22 rings
6 8 10 11 12 17 19 rings

> <PUBCHEM_HEAVY_ATOM_COUNT>
23

> <PUBCHEM_ATOM_DEF_STEREO_COUNT>
0

> <PUBCHEM_ATOM_UDEF_STEREO_COUNT>
2

> <PUBCHEM_BOND_DEF_STEREO_COUNT>
0

> <PUBCHEM_BOND_UDEF_STEREO_COUNT>
0

> <PUBCHEM_ISOTOPIC_ATOM_COUNT>
0

> <PUBCHEM_COMPONENT_COUNT>
1

> <PUBCHEM_CACTVS_TAUTO_COUNT>
10

> <PUBCHEM_CONFORMER_ID>
0000384300000001

> <PUBCHEM_MMFF94_ENERGY>
81.2166

> <PUBCHEM_FEATURE_SELFOVERLAP>
56.564

> <PUBCHEM_SHAPE_FINGERPRINT>
10319926 262 18049189901829840330
10411042 1 18411136914089374675
10498660 4 18341899652827255470
10693767 8 18043837444491892583
10967382 1 18339646629069353121
11578080 2 17169864199545061945
11680986 33 18266179418338350449
116883 192 18337106860610191524
12173636 292 17979921841025535412
12236239 1 17561083640064762970
12403259 226 18334862765793826992
12553582 1 18411708694094337706
12788726 201 18269837678218312576
12954195 1 18046899665741600140
13140716 1 18340496573259268674
13583140 156 14346649352439911002
138480 1 15095927279416607033
14022347 108 18272089422044234210
14790565 3 17977655734512724257
14866123 147 17830165071376589387
14955137 171 18268970099530924937
15196674 1 18410577279454677305
15536298 74 18335143068080727666
16752209 62 18196659724675780480
16945 1 18339929336970573240
17357779 13 18337686302789844836
17492 89 18120656825388945583
17804303 29 18412261723026687583
19141452 34 18186239524436497975
19591789 44 17545033170579199361
200 152 17603307063444527626
20028762 73 18187929414027780511
20510252 161 18191029104155454112
20775438 99 17034210643262912631
20905425 154 17975414929598525959
21029758 11 18410017628442490005
21267235 1 18411131424693902555
21285901 2 18187924057374367622
221357 26 18411426098811619015
221490 88 18197492918282413635
2334 1 18268150859597803034
23366157 5 17699579030193897609
23402539 116 18335148613010282791
23557571 272 18408601483372719086
23559900 14 18335706022893911048
2748010 2 18338524040481939016
314173 41 18341048506357902738
335352 9 18411139156341514621
34934 24 18339370677626242058
5104073 3 18409451383800630859
7364860 26 18122345670621458529
81228 2 18341888649459069328
9709674 26 18267023856196088771
9981440 41 17114391338585294049

> <PUBCHEM_SHAPE_MULTIPOLES>
438.11
8.13
3.65
0.74
0.51
2.83
-0.06
-4.17
-1.19
-1.17
-0.24
0.42
-0.12
0.71

> <PUBCHEM_SHAPE_SELFOVERLAP>
1008.486

> <PUBCHEM_SHAPE_VOLUME>
227

> <PUBCHEM_COORDINATE_TYPE>
2
5
10

$$$$

