94244
  -OEChem-07051213012D

 41 40  0     1  0  0  0  0  0999 V2000
    6.0010   -1.2500    0.0000 O   0  0  0  0  0  0  0  0  0  0  0  0
    2.5369   -0.2500    0.0000 O   0  0  0  0  0  0  0  0  0  0  0  0
    3.4030    1.2500    0.0000 O   0  0  0  0  0  0  0  0  0  0  0  0
    5.1350    0.2500    0.0000 N   0  0  0  0  0  0  0  0  0  0  0  0
    7.7331   -0.2500    0.0000 N   0  0  0  0  0  0  0  0  0  0  0  0
    4.2690   -1.2500    0.0000 C   0  0  0  0  0  0  0  0  0  0  0  0
    4.2690   -0.2500    0.0000 C   0  0  3  0  0  0  0  0  0  0  0  0
    6.8671    1.2500    0.0000 C   0  0  0  0  0  0  0  0  0  0  0  0
    3.4030   -1.7500    0.0000 C   0  0  0  0  0  0  0  0  0  0  0  0
    6.8671    0.2500    0.0000 C   0  0  3  0  0  0  0  0  0  0  0  0
    7.7331    1.7500    0.0000 C   0  0  0  0  0  0  0  0  0  0  0  0
    6.0010   -0.2500    0.0000 C   0  0  0  0  0  0  0  0  0  0  0  0
    3.4030   -2.7500    0.0000 C   0  0  0  0  0  0  0  0  0  0  0  0
    2.5369   -1.2500    0.0000 C   0  0  0  0  0  0  0  0  0  0  0  0
    7.7331    2.7500    0.0000 C   0  0  0  0  0  0  0  0  0  0  0  0
    8.5991    1.2500    0.0000 C   0  0  0  0  0  0  0  0  0  0  0  0
    3.4030    0.2500    0.0000 C   0  0  0  0  0  0  0  0  0  0  0  0
    4.4810   -1.8326    0.0000 H   0  0  0  0  0  0  0  0  0  0  0  0
    4.8796   -1.1423    0.0000 H   0  0  0  0  0  0  0  0  0  0  0  0
    4.2690    0.3700    0.0000 H   0  0  0  0  0  0  0  0  0  0  0  0
    6.6550    1.8326    0.0000 H   0  0  0  0  0  0  0  0  0  0  0  0
    6.2565    1.1423    0.0000 H   0  0  0  0  0  0  0  0  0  0  0  0
    3.4030   -1.1300    0.0000 H   0  0  0  0  0  0  0  0  0  0  0  0
    7.4040    0.5600    0.0000 H   0  0  0  0  0  0  0  0  0  0  0  0
    7.7331    1.1300    0.0000 H   0  0  0  0  0  0  0  0  0  0  0  0
    5.1350    0.8700    0.0000 H   0  0  0  0  0  0  0  0  0  0  0  0
    2.8469   -0.7131    0.0000 H   0  0  0  0  0  0  0  0  0  0  0  0
    2.0000   -0.9400    0.0000 H   0  0  0  0  0  0  0  0  0  0  0  0
    2.2269   -1.7869    0.0000 H   0  0  0  0  0  0  0  0  0  0  0  0
    2.7830   -2.7500    0.0000 H   0  0  0  0  0  0  0  0  0  0  0  0
    3.4030   -3.3700    0.0000 H   0  0  0  0  0  0  0  0  0  0  0  0
    4.0230   -2.7500    0.0000 H   0  0  0  0  0  0  0  0  0  0  0  0
    8.3531    2.7500    0.0000 H   0  0  0  0  0  0  0  0  0  0  0  0
    7.7331    3.3700    0.0000 H   0  0  0  0  0  0  0  0  0  0  0  0
    7.1131    2.7500    0.0000 H   0  0  0  0  0  0  0  0  0  0  0  0
    8.2891    0.7131    0.0000 H   0  0  0  0  0  0  0  0  0  0  0  0
    9.1360    0.9400    0.0000 H   0  0  0  0  0  0  0  0  0  0  0  0
    8.9091    1.7869    0.0000 H   0  0  0  0  0  0  0  0  0  0  0  0
    8.2700    0.0600    0.0000 H   0  0  0  0  0  0  0  0  0  0  0  0
    7.7331   -0.8700    0.0000 H   0  0  0  0  0  0  0  0  0  0  0  0
    2.0000    0.0600    0.0000 H   0  0  0  0  0  0  0  0  0  0  0  0
  1 12  2  0  0  0  0
  2 17  1  0  0  0  0
  2 41  1  0  0  0  0
  3 17  2  0  0  0  0
  4  7  1  0  0  0  0
  4 12  1  0  0  0  0
  4 26  1  0  0  0  0
  5 10  1  0  0  0  0
  5 39  1  0  0  0  0
  5 40  1  0  0  0  0
  6  7  1  0  0  0  0
  6  9  1  0  0  0  0
  6 18  1  0  0  0  0
  6 19  1  0  0  0  0
  7 17  1  0  0  0  0
  7 20  1  0  0  0  0
  8 10  1  0  0  0  0
  8 11  1  0  0  0  0
  8 21  1  0  0  0  0
  8 22  1  0  0  0  0
  9 13  1  0  0  0  0
  9 14  1  0  0  0  0
  9 23  1  0  0  0  0
 10 12  1  0  0  0  0
 10 24  1  0  0  0  0
 11 15  1  0  0  0  0
 11 16  1  0  0  0  0
 11 25  1  0  0  0  0
 13 30  1  0  0  0  0
 13 31  1  0  0  0  0
 13 32  1  0  0  0  0
 14 27  1  0  0  0  0
 14 28  1  0  0  0  0
 14 29  1  0  0  0  0
 15 33  1  0  0  0  0
 15 34  1  0  0  0  0
 15 35  1  0  0  0  0
 16 36  1  0  0  0  0
 16 37  1  0  0  0  0
 16 38  1  0  0  0  0
M  END
> <PUBCHEM_COMPOUND_CID>
94244

> <PUBCHEM_COMPOUND_CANONICALIZED>
1

> <PUBCHEM_CACTVS_COMPLEXITY>
265

> <PUBCHEM_CACTVS_HBOND_ACCEPTOR>
4

> <PUBCHEM_CACTVS_HBOND_DONOR>
3

> <PUBCHEM_CACTVS_ROTATABLE_BOND>
7

> <PUBCHEM_CACTVS_SUBSKEYS>
AAADceBzMAAAAAAAAAAAAAAAAAAAAAAAAAAAAAAAAAAAAAAAAAAAHgAQCAAADSjBgAQCCALAAgAIAAGQGAAAAAAAAAAAAIGIAAACQBIAgCAUQAAEFgCQAACYAAAMAAAAAAAAAAAAAAAAAAAAAAAAAAAAAA==

> <PUBCHEM_IUPAC_OPENEYE_NAME>
2-[(2-amino-4-methyl-pentanoyl)amino]-4-methyl-pentanoic acid

> <PUBCHEM_IUPAC_CAS_NAME>
2-[(2-amino-4-methyl-1-oxopentyl)amino]-4-methylpentanoic acid

> <PUBCHEM_IUPAC_NAME>
2-[(2-amino-4-methylpentanoyl)amino]-4-methylpentanoic acid

> <PUBCHEM_IUPAC_SYSTEMATIC_NAME>
2-[(2-azanyl-4-methyl-pentanoyl)amino]-4-methyl-pentanoic acid

> <PUBCHEM_IUPAC_TRADITIONAL_NAME>
2-[(2-amino-4-methyl-pentanoyl)amino]-4-methyl-valeric acid

> <PUBCHEM_IUPAC_INCHI>
InChI=1S/C12H24N2O3/c1-7(2)5-9(13)11(15)14-10(12(16)17)6-8(3)4/h7-10H,5-6,13H2,1-4H3,(H,14,15)(H,16,17)

> <PUBCHEM_IUPAC_INCHIKEY>
LCPYQJIKPJDLLB-UHFFFAOYSA-N

> <PUBCHEM_XLOGP3>
-1.5

> <PUBCHEM_EXACT_MASS>
244.178693

> <PUBCHEM_MOLECULAR_FORMULA>
C12H24N2O3

> <PUBCHEM_MOLECULAR_WEIGHT>
244.33056

> <PUBCHEM_OPENEYE_CAN_SMILES>
CC(C)CC(C(=O)NC(CC(C)C)C(=O)O)N

> <PUBCHEM_OPENEYE_ISO_SMILES>
CC(C)CC(C(=O)NC(CC(C)C)C(=O)O)N

> <PUBCHEM_CACTVS_TPSA>
92.4

> <PUBCHEM_MONOISOTOPIC_WEIGHT>
244.178693

> <PUBCHEM_TOTAL_CHARGE>
0

> <PUBCHEM_HEAVY_ATOM_COUNT>
17

> <PUBCHEM_ATOM_DEF_STEREO_COUNT>
0

> <PUBCHEM_ATOM_UDEF_STEREO_COUNT>
2

> <PUBCHEM_BOND_DEF_STEREO_COUNT>
0

> <PUBCHEM_BOND_UDEF_STEREO_COUNT>
0

> <PUBCHEM_ISOTOPIC_ATOM_COUNT>
0

> <PUBCHEM_COMPONENT_COUNT>
1

> <PUBCHEM_CACTVS_TAUTO_COUNT>
2

> <PUBCHEM_COORDINATE_TYPE>
1
5
255

> <PUBCHEM_BONDANNOTATIONS>
10  5  3
7  6  3

$$$$

