6948
  -OEChem-06261201373D

 15 15  0     0  0  0  0  0  0999 V2000
    1.7011   -2.5068   -0.0255 I   0  0  0  0  0  0  0  0  0  0  0  0
   -1.9800   -3.1779    0.0196 I   0  0  0  0  0  0  0  0  0  0  0  0
   -2.9922    2.6830   -0.0028 I   0  0  0  0  0  0  0  0  0  0  0  0
    2.5944    0.8774    1.2023 O   0  0  0  0  0  0  0  0  0  0  0  0
    2.7569    0.9147   -1.0645 O   0  0  0  0  0  0  0  0  0  0  0  0
    0.6732    0.3559   -0.0301 C   0  0  0  0  0  0  0  0  0  0  0  0
    0.2296   -0.9665   -0.0177 C   0  0  0  0  0  0  0  0  0  0  0  0
   -0.2502    1.4014   -0.0258 C   0  0  0  0  0  0  0  0  0  0  0  0
   -1.1374   -1.2434   -0.0009 C   0  0  0  0  0  0  0  0  0  0  0  0
   -1.6173    1.1245   -0.0091 C   0  0  0  0  0  0  0  0  0  0  0  0
   -2.0608   -0.1979    0.0034 C   0  0  0  0  0  0  0  0  0  0  0  0
    2.0826    0.7355   -0.0488 C   0  0  0  0  0  0  0  0  0  0  0  0
    0.1018    2.4311   -0.0359 H   0  0  0  0  0  0  0  0  0  0  0  0
   -3.1292   -0.4040    0.0164 H   0  0  0  0  0  0  0  0  0  0  0  0
    3.5414    1.1329    1.1830 H   0  0  0  0  0  0  0  0  0  0  0  0
  1  7  1  0  0  0  0
  2  9  1  0  0  0  0
  3 10  1  0  0  0  0
  4 12  1  0  0  0  0
  4 15  1  0  0  0  0
  5 12  2  0  0  0  0
  6  7  2  0  0  0  0
  6  8  1  0  0  0  0
  6 12  1  0  0  0  0
  7  9  1  0  0  0  0
  8 10  2  0  0  0  0
  8 13  1  0  0  0  0
  9 11  2  0  0  0  0
 10 11  1  0  0  0  0
 11 14  1  0  0  0  0
M  END
> <PUBCHEM_COMPOUND_CID>
6948

> <PUBCHEM_CONFORMER_RMSD>
0.4

> <PUBCHEM_CONFORMER_DIVERSEORDER>
1

> <PUBCHEM_MMFF94_PARTIAL_CHARGES>
15
1 -0.08
10 0.08
11 -0.15
12 0.63
13 0.15
14 0.15
15 0.5
2 -0.08
3 -0.08
4 -0.65
5 -0.57
6 0.09
7 0.08
8 -0.15
9 0.08

> <PUBCHEM_EFFECTIVE_ROTOR_COUNT>
1

> <PUBCHEM_PHARMACOPHORE_FEATURES>
7
1 1 hydrophobe
1 2 hydrophobe
1 3 hydrophobe
1 4 acceptor
1 5 acceptor
3 4 5 12 anion
6 6 7 8 9 10 11 rings

> <PUBCHEM_HEAVY_ATOM_COUNT>
12

> <PUBCHEM_ATOM_DEF_STEREO_COUNT>
0

> <PUBCHEM_ATOM_UDEF_STEREO_COUNT>
0

> <PUBCHEM_BOND_DEF_STEREO_COUNT>
0

> <PUBCHEM_BOND_UDEF_STEREO_COUNT>
0

> <PUBCHEM_ISOTOPIC_ATOM_COUNT>
0

> <PUBCHEM_COMPONENT_COUNT>
1

> <PUBCHEM_CACTVS_TAUTO_COUNT>
1

> <PUBCHEM_CONFORMER_ID>
00001B2400000001

> <PUBCHEM_MMFF94_ENERGY>
38.8909

> <PUBCHEM_FEATURE_SELFOVERLAP>
35.578

> <PUBCHEM_SHAPE_FINGERPRINT>
1 1 17906175401474648885
10967382 1 17474106978517601887
12423570 1 8536471908678396916
13140716 1 18050006584885419257
13380535 21 18339066198630601049
13380535 76 18337118972111933103
13380536 305 17978504566009775255
14817 1 14760978443915516797
16945 1 18338517439359888997
193761 8 18410855494688860439
20510252 161 18118681015661865240
20511035 2 18262525912845273566
20645476 183 18127950087572712455
20645477 70 17910113848294962557
20871998 184 18117840992962298750
21040471 1 18410575123333888173
21501502 16 18338799021568558751
21524375 3 18268713986067175329
2334 1 18338797922367907381
23402539 116 17756997701003032358
23526114 1 18195525020223053117
23552423 10 18342735256095326854
23558518 356 18341618156819443699
23559900 14 18188482580424379332
2748010 2 18268422611169430103
3071541 158 17549819335999491869
589210 1 18411139155629968371
7364860 26 17901956562051827730
81228 2 18338799988305238185

> <PUBCHEM_SHAPE_MULTIPOLES>
271.02
4.59
3.74
0.82
4.1
2.59
0.03
-1.22
-0.03
-2.12
0.02
-0.2
-0.24
0

> <PUBCHEM_SHAPE_SELFOVERLAP>
502.281

> <PUBCHEM_SHAPE_VOLUME>
178.5

> <PUBCHEM_COORDINATE_TYPE>
2
5
10

$$$$

