441740
  -OEChem-07051212552D

 92 98  0     1  0  0  0  0  0999 V2000
    5.6693   -0.7929    0.0000 O   0  0  0  0  0  0  0  0  0  0  0  0
    7.1869   -1.9617    0.0000 O   0  0  0  0  0  0  0  0  0  0  0  0
    9.0096    1.8001    0.0000 O   0  0  0  0  0  0  0  0  0  0  0  0
    5.2931    1.5486    0.0000 O   0  0  0  0  0  0  0  0  0  0  0  0
    6.8844    3.1120    0.0000 O   0  0  0  0  0  0  0  0  0  0  0  0
    4.8919    2.2581    0.0000 O   0  0  0  0  0  0  0  0  0  0  0  0
   10.7604   -0.4700    0.0000 O   0  0  0  0  0  0  0  0  0  0  0  0
    9.8756   -2.4350    0.0000 O   0  0  0  0  0  0  0  0  0  0  0  0
    3.9851   -0.3886    0.0000 O   0  0  0  0  0  0  0  0  0  0  0  0
    4.2961    0.1323    0.0000 O   0  0  0  0  0  0  0  0  0  0  0  0
   10.2049   -0.0289    0.0000 N   0  0  3  0  0  0  0  0  0  0  0  0
    8.2582    0.3663    0.0000 C   0  0  1  0  0  0  0  0  0  0  0  0
    8.2582   -0.5013    0.0000 C   0  0  2  0  0  0  0  0  0  0  0  0
    7.5799    0.9073    0.0000 C   0  0  1  0  0  0  0  0  0  0  0  0
    9.2602    0.2603    0.0000 C   0  0  3  0  0  0  0  0  0  0  0  0
    6.7341   -0.8491    0.0000 C   0  0  1  0  0  0  0  0  0  0  0  0
    6.7341    0.7142    0.0000 C   0  0  1  0  0  0  0  0  0  0  0  0
    6.3577   -0.0675    0.0000 C   0  0  1  0  0  0  0  0  0  0  0  0
    7.5799   -1.0422    0.0000 C   0  0  2  0  0  0  0  0  0  0  0  0
    9.0096   -0.9350    0.0000 C   0  0  2  0  0  0  0  0  0  0  0  0
    9.0096    0.8001    0.0000 C   0  0  2  0  0  0  0  0  0  0  0  0
    7.6577    1.7713    0.0000 C   0  0  0  0  0  0  0  0  0  0  0  0
    6.8599    2.1123    0.0000 C   0  0  2  0  0  0  0  0  0  0  0  0
    6.2891    1.4590    0.0000 C   0  0  2  0  0  0  0  0  0  0  0  0
    5.7128    0.2025    0.0000 C   0  0  0  0  0  0  0  0  0  0  0  0
   10.2049   -0.7808    0.0000 C   0  0  0  0  0  0  0  0  0  0  0  0
    9.7609   -0.5013    0.0000 C   0  0  1  0  0  0  0  0  0  0  0  0
    5.7128    1.6870    0.0000 C   0  0  2  0  0  0  0  0  0  0  0  0
    9.7609    0.3663    0.0000 C   0  0  0  0  0  0  0  0  0  0  0  0
    9.0096   -1.9350    0.0000 C   0  0  0  0  0  0  0  0  0  0  0  0
   11.0089    0.5658    0.0000 C   0  0  0  0  0  0  0  0  0  0  0  0
    7.7867   -2.7618    0.0000 C   0  0  0  0  0  0  0  0  0  0  0  0
    4.7105   -1.0769    0.0000 C   0  0  0  0  0  0  0  0  0  0  0  0
   11.9258    0.1669    0.0000 C   0  0  0  0  0  0  0  0  0  0  0  0
    9.8756    2.3001    0.0000 C   0  0  0  0  0  0  0  0  0  0  0  0
    4.3858    1.1282    0.0000 C   0  0  0  0  0  0  0  0  0  0  0  0
    4.9761    3.2545    0.0000 C   0  0  0  0  0  0  0  0  0  0  0  0
    9.8756   -3.4350    0.0000 C   0  0  0  0  0  0  0  0  0  0  0  0
    4.4771   -2.0493    0.0000 C   0  0  0  0  0  0  0  0  0  0  0  0
    3.5681    1.7039    0.0000 C   0  0  0  0  0  0  0  0  0  0  0  0
    2.6607    1.2835    0.0000 C   0  0  0  0  0  0  0  0  0  0  0  0
    3.6577    2.6998    0.0000 C   0  0  0  0  0  0  0  0  0  0  0  0
    1.8430    1.8591    0.0000 C   0  0  0  0  0  0  0  0  0  0  0  0
    2.8400    3.2755    0.0000 C   0  0  0  0  0  0  0  0  0  0  0  0
    1.9326    2.8551    0.0000 C   0  0  0  0  0  0  0  0  0  0  0  0
    8.3217   -1.3489    0.0000 H   0  0  0  0  0  0  0  0  0  0  0  0
    8.3615    1.2413    0.0000 H   0  0  0  0  0  0  0  0  0  0  0  0
    9.4301    1.0931    0.0000 H   0  0  0  0  0  0  0  0  0  0  0  0
    6.2041   -1.5137    0.0000 H   0  0  0  0  0  0  0  0  0  0  0  0
    5.8850    0.6761    0.0000 H   0  0  0  0  0  0  0  0  0  0  0  0
    7.7803   -1.6289    0.0000 H   0  0  0  0  0  0  0  0  0  0  0  0
    8.4726    1.1101    0.0000 H   0  0  0  0  0  0  0  0  0  0  0  0
    7.8404    2.3638    0.0000 H   0  0  0  0  0  0  0  0  0  0  0  0
    8.2660    1.6515    0.0000 H   0  0  0  0  0  0  0  0  0  0  0  0
    6.0583    2.0344    0.0000 H   0  0  0  0  0  0  0  0  0  0  0  0
    5.5508   -0.3960    0.0000 H   0  0  0  0  0  0  0  0  0  0  0  0
    5.0982    0.2841    0.0000 H   0  0  0  0  0  0  0  0  0  0  0  0
   10.8243   -0.7543    0.0000 H   0  0  0  0  0  0  0  0  0  0  0  0
   10.2579   -1.3985    0.0000 H   0  0  0  0  0  0  0  0  0  0  0  0
    9.9307   -1.0976    0.0000 H   0  0  0  0  0  0  0  0  0  0  0  0
    5.7909    2.3020    0.0000 H   0  0  0  0  0  0  0  0  0  0  0  0
    9.9730    0.9489    0.0000 H   0  0  0  0  0  0  0  0  0  0  0  0
   10.3715    0.2587    0.0000 H   0  0  0  0  0  0  0  0  0  0  0  0
    8.7975   -2.5176    0.0000 H   0  0  0  0  0  0  0  0  0  0  0  0
    8.3990   -1.8274    0.0000 H   0  0  0  0  0  0  0  0  0  0  0  0
   10.5592    0.9926    0.0000 H   0  0  0  0  0  0  0  0  0  0  0  0
   11.3512    1.0827    0.0000 H   0  0  0  0  0  0  0  0  0  0  0  0
    6.3552    3.4350    0.0000 H   0  0  0  0  0  0  0  0  0  0  0  0
   11.0870   -0.9970    0.0000 H   0  0  0  0  0  0  0  0  0  0  0  0
    8.2828   -2.3899    0.0000 H   0  0  0  0  0  0  0  0  0  0  0  0
    8.1586   -3.2579    0.0000 H   0  0  0  0  0  0  0  0  0  0  0  0
    7.2906   -3.1337    0.0000 H   0  0  0  0  0  0  0  0  0  0  0  0
   12.1732    0.7354    0.0000 H   0  0  0  0  0  0  0  0  0  0  0  0
   12.4944   -0.0805    0.0000 H   0  0  0  0  0  0  0  0  0  0  0  0
   11.6785   -0.4017    0.0000 H   0  0  0  0  0  0  0  0  0  0  0  0
    9.5656    2.8370    0.0000 H   0  0  0  0  0  0  0  0  0  0  0  0
   10.4125    2.6101    0.0000 H   0  0  0  0  0  0  0  0  0  0  0  0
   10.1856    1.7632    0.0000 H   0  0  0  0  0  0  0  0  0  0  0  0
    4.3583    3.3067    0.0000 H   0  0  0  0  0  0  0  0  0  0  0  0
    5.0282    3.8723    0.0000 H   0  0  0  0  0  0  0  0  0  0  0  0
    5.5939    3.2024    0.0000 H   0  0  0  0  0  0  0  0  0  0  0  0
   10.4956   -3.4350    0.0000 H   0  0  0  0  0  0  0  0  0  0  0  0
    9.8756   -4.0550    0.0000 H   0  0  0  0  0  0  0  0  0  0  0  0
    9.2556   -3.4350    0.0000 H   0  0  0  0  0  0  0  0  0  0  0  0
    5.0800   -2.1940    0.0000 H   0  0  0  0  0  0  0  0  0  0  0  0
    4.3324   -2.6521    0.0000 H   0  0  0  0  0  0  0  0  0  0  0  0
    3.8742   -1.9046    0.0000 H   0  0  0  0  0  0  0  0  0  0  0  0
    2.6051    0.6660    0.0000 H   0  0  0  0  0  0  0  0  0  0  0  0
    4.2203    2.9605    0.0000 H   0  0  0  0  0  0  0  0  0  0  0  0
    1.2804    1.5985    0.0000 H   0  0  0  0  0  0  0  0  0  0  0  0
    2.8956    3.8930    0.0000 H   0  0  0  0  0  0  0  0  0  0  0  0
    1.4256    3.2120    0.0000 H   0  0  0  0  0  0  0  0  0  0  0  0
 18  1  1  6  0  0  0
  1 33  1  0  0  0  0
 19  2  1  1  0  0  0
  2 32  1  0  0  0  0
 21  3  1  1  0  0  0
  3 35  1  0  0  0  0
 24  4  1  1  0  0  0
  4 36  1  0  0  0  0
 23  5  1  6  0  0  0
  5 68  1  0  0  0  0
 28  6  1  6  0  0  0
  6 37  1  0  0  0  0
 27  7  1  1  0  0  0
  7 69  1  0  0  0  0
  8 30  1  0  0  0  0
  8 38  1  0  0  0  0
  9 33  2  0  0  0  0
 10 36  2  0  0  0  0
 11 15  1  0  0  0  0
 11 26  1  0  0  0  0
 11 31  1  0  0  0  0
 12 13  1  0  0  0  0
 12 14  1  0  0  0  0
 12 15  1  0  0  0  0
 12 21  1  6  0  0  0
 13 19  1  0  0  0  0
 13 20  1  0  0  0  0
 13 46  1  6  0  0  0
 14 17  1  0  0  0  0
 14 22  1  0  0  0  0
 14 47  1  6  0  0  0
 15 16  1  0  0  0  0
 15 48  1  0  0  0  0
 16 18  1  0  0  0  0
 16 19  1  0  0  0  0
 16 49  1  1  0  0  0
 17 18  1  0  0  0  0
 17 24  1  0  0  0  0
 17 50  1  6  0  0  0
 18 25  1  0  0  0  0
 19 51  1  0  0  0  0
 20 26  1  0  0  0  0
 20 27  1  0  0  0  0
 20 30  1  6  0  0  0
 21 29  1  0  0  0  0
 21 52  1  0  0  0  0
 22 23  1  0  0  0  0
 22 53  1  0  0  0  0
 22 54  1  0  0  0  0
 23 24  1  0  0  0  0
 23 28  1  0  0  0  0
 24 55  1  0  0  0  0
 25 28  1  0  0  0  0
 25 56  1  0  0  0  0
 25 57  1  0  0  0  0
 26 58  1  0  0  0  0
 26 59  1  0  0  0  0
 27 29  1  0  0  0  0
 27 60  1  0  0  0  0
 28 61  1  0  0  0  0
 29 62  1  0  0  0  0
 29 63  1  0  0  0  0
 30 64  1  0  0  0  0
 30 65  1  0  0  0  0
 31 34  1  0  0  0  0
 31 66  1  0  0  0  0
 31 67  1  0  0  0  0
 32 70  1  0  0  0  0
 32 71  1  0  0  0  0
 32 72  1  0  0  0  0
 33 39  1  0  0  0  0
 34 73  1  0  0  0  0
 34 74  1  0  0  0  0
 34 75  1  0  0  0  0
 35 76  1  0  0  0  0
 35 77  1  0  0  0  0
 35 78  1  0  0  0  0
 36 40  1  0  0  0  0
 37 79  1  0  0  0  0
 37 80  1  0  0  0  0
 37 81  1  0  0  0  0
 38 82  1  0  0  0  0
 38 83  1  0  0  0  0
 38 84  1  0  0  0  0
 39 85  1  0  0  0  0
 39 86  1  0  0  0  0
 39 87  1  0  0  0  0
 40 41  2  0  0  0  0
 40 42  1  0  0  0  0
 41 43  1  0  0  0  0
 41 88  1  0  0  0  0
 42 44  2  0  0  0  0
 42 89  1  0  0  0  0
 43 45  2  0  0  0  0
 43 90  1  0  0  0  0
 44 45  1  0  0  0  0
 44 91  1  0  0  0  0
 45 92  1  0  0  0  0
M  END
> <PUBCHEM_COMPOUND_CID>
441740

> <PUBCHEM_COMPOUND_CANONICALIZED>
1

> <PUBCHEM_CACTVS_COMPLEXITY>
1180

> <PUBCHEM_CACTVS_HBOND_ACCEPTOR>
11

> <PUBCHEM_CACTVS_HBOND_DONOR>
2

> <PUBCHEM_CACTVS_ROTATABLE_BOND>
11

> <PUBCHEM_CACTVS_SUBSKEYS>
AAADcfB+PAAAAAAAAAAAAAAAAAAAAYMAAAA8YMGCB4gWAGABAAAAHgAACAAAD3zhmAYyCIMABgCIAiDSCAACAAAkAAAIiAEICMgJNjKAtRiGcQAnwAGLqYf4+P+PgAAAAAAAAADSAAaUADSAAaEADSAAAA==

> <PUBCHEM_IUPAC_INCHI>
InChI=1S/C34H47NO10/c1-7-35-16-31(17-40-3)21(37)13-22(41-4)34-20-14-32(39)23(42-5)15-33(45-18(2)36,25(28(34)35)26(43-6)27(31)34)24(20)29(32)44-30(38)19-11-9-8-10-12-19/h8-12,20-29,37,39H,7,13-17H2,1-6H3/t20-,21-,22+,23+,24-,25+,26+,27-,28?,29-,31+,32+,33-,34+/m1/s1

> <PUBCHEM_IUPAC_INCHIKEY>
PHDZNMWTZQPAEW-ZIVNFORMSA-N

> <PUBCHEM_XLOGP3_AA>
1.3

> <PUBCHEM_EXACT_MASS>
629.319997

> <PUBCHEM_MOLECULAR_FORMULA>
C34H47NO10

> <PUBCHEM_MOLECULAR_WEIGHT>
629.73768

> <PUBCHEM_OPENEYE_CAN_SMILES>
CCN1CC2(C(CC(C34C2C(C(C31)C5(CC(C6(CC4C5C6OC(=O)C7=CC=CC=C7)O)OC)OC(=O)C)OC)OC)O)COC

> <PUBCHEM_OPENEYE_ISO_SMILES>
CCN1C[C@@]2([C@@H](C[C@@H]([C@@]34[C@@H]2[C@H]([C@@H](C31)[C@]5(C[C@@H]([C@]6(C[C@@H]4[C@@H]5[C@H]6OC(=O)C7=CC=CC=C7)O)OC)OC(=O)C)OC)OC)O)COC

> <PUBCHEM_CACTVS_TPSA>
133

> <PUBCHEM_MONOISOTOPIC_WEIGHT>
629.319997

> <PUBCHEM_TOTAL_CHARGE>
0

> <PUBCHEM_HEAVY_ATOM_COUNT>
45

> <PUBCHEM_ATOM_DEF_STEREO_COUNT>
13

> <PUBCHEM_ATOM_UDEF_STEREO_COUNT>
1

> <PUBCHEM_BOND_DEF_STEREO_COUNT>
0

> <PUBCHEM_BOND_UDEF_STEREO_COUNT>
0

> <PUBCHEM_ISOTOPIC_ATOM_COUNT>
0

> <PUBCHEM_COMPONENT_COUNT>
1

> <PUBCHEM_CACTVS_TAUTO_COUNT>
1

> <PUBCHEM_COORDINATE_TYPE>
1
5
255

> <PUBCHEM_BONDANNOTATIONS>
18  1  6
12  21  6
13  46  6
14  47  6
15  48  3
16  49  5
17  50  6
19  2  5
20  30  6
21  3  5
24  4  5
40  41  8
40  42  8
41  43  8
42  44  8
43  45  8
44  45  8
23  5  6
28  6  6
27  7  5

$$$$

