442003
  -OEChem-07051212562D

 65 68  0     1  0  0  0  0  0999 V2000
    7.3832    0.7568    0.0000 O   0  0  0  0  0  0  0  0  0  0  0  0
    8.0616   -2.2389    0.0000 O   0  0  0  0  0  0  0  0  0  0  0  0
    3.6718   -1.2624    0.0000 O   0  0  0  0  0  0  0  0  0  0  0  0
    4.5559   -2.2404    0.0000 O   0  0  0  0  0  0  0  0  0  0  0  0
    2.0502    1.1551    0.0000 O   0  0  0  0  0  0  0  0  0  0  0  0
    9.1029    0.5500    0.0000 O   0  0  0  0  0  0  0  0  0  0  0  0
    6.2530   -0.8480    0.0000 C   0  0  1  0  0  0  0  0  0  0  0  0
    6.2480    0.1520    0.0000 C   0  0  1  0  0  0  0  0  0  0  0  0
    7.2638   -0.2361    0.0000 C   0  0  1  0  0  0  0  0  0  0  0  0
    8.4411   -0.3370    0.0000 C   0  0  2  0  0  0  0  0  0  0  0  0
    7.0379   -1.4676    0.0000 C   0  0  0  0  0  0  0  0  0  0  0  0
    8.0117   -1.2402    0.0000 C   0  0  1  0  0  0  0  0  0  0  0  0
    4.0999   -0.3587    0.0000 C   0  0  1  0  0  0  0  0  0  0  0  0
    5.4851   -1.4581    0.0000 C   0  0  0  0  0  0  0  0  0  0  0  0
    4.5199    0.5276    0.0000 C   0  0  2  0  0  0  0  0  0  0  0  0
    4.5287   -1.2408    0.0000 C   0  0  1  0  0  0  0  0  0  0  0  0
    7.0267    0.7794    0.0000 C   0  0  0  0  0  0  0  0  0  0  0  0
    8.0027    0.5617    0.0000 C   0  0  0  0  0  0  0  0  0  0  0  0
    3.1333   -0.2314    0.0000 C   0  0  0  0  0  0  0  0  0  0  0  0
    5.4741    0.7545    0.0000 C   0  0  0  0  0  0  0  0  0  0  0  0
    3.8092    1.1951    0.0000 C   0  0  0  0  0  0  0  0  0  0  0  0
    2.9539    0.7269    0.0000 C   0  0  2  0  0  0  0  0  0  0  0  0
    8.9770   -1.5014    0.0000 C   0  0  0  0  0  0  0  0  0  0  0  0
    2.1502   -0.4145    0.0000 C   0  0  0  0  0  0  0  0  0  0  0  0
    3.0036   -1.2230    0.0000 C   0  0  0  0  0  0  0  0  0  0  0  0
    5.6865    1.7317    0.0000 C   0  0  0  0  0  0  0  0  0  0  0  0
    8.3027    1.1498    0.0000 C   0  0  0  0  0  0  0  0  0  0  0  0
    8.4221    2.1426    0.0000 C   0  0  0  0  0  0  0  0  0  0  0  0
    9.3416    2.5357    0.0000 C   0  0  0  0  0  0  0  0  0  0  0  0
    6.2438    1.0020    0.0000 H   0  0  0  0  0  0  0  0  0  0  0  0
    6.7429    0.1001    0.0000 H   0  0  0  0  0  0  0  0  0  0  0  0
    9.2688   -0.1438    0.0000 H   0  0  0  0  0  0  0  0  0  0  0  0
    6.5551   -1.8565    0.0000 H   0  0  0  0  0  0  0  0  0  0  0  0
    7.3097   -2.0248    0.0000 H   0  0  0  0  0  0  0  0  0  0  0  0
    5.2161   -2.0168    0.0000 H   0  0  0  0  0  0  0  0  0  0  0  0
    5.9695   -1.8451    0.0000 H   0  0  0  0  0  0  0  0  0  0  0  0
    4.7386    1.3490    0.0000 H   0  0  0  0  0  0  0  0  0  0  0  0
    3.9264   -1.3881    0.0000 H   0  0  0  0  0  0  0  0  0  0  0  0
    7.2929    1.3393    0.0000 H   0  0  0  0  0  0  0  0  0  0  0  0
    6.5400    1.1635    0.0000 H   0  0  0  0  0  0  0  0  0  0  0  0
    8.6065    0.7027    0.0000 H   0  0  0  0  0  0  0  0  0  0  0  0
    7.9996    1.1817    0.0000 H   0  0  0  0  0  0  0  0  0  0  0  0
    4.2788    1.5999    0.0000 H   0  0  0  0  0  0  0  0  0  0  0  0
    3.4559    1.7046    0.0000 H   0  0  0  0  0  0  0  0  0  0  0  0
    2.4629    0.3484    0.0000 H   0  0  0  0  0  0  0  0  0  0  0  0
    8.8150   -2.0999    0.0000 H   0  0  0  0  0  0  0  0  0  0  0  0
    9.5755   -1.6634    0.0000 H   0  0  0  0  0  0  0  0  0  0  0  0
    9.1390   -0.9029    0.0000 H   0  0  0  0  0  0  0  0  0  0  0  0
    2.3888   -1.1426    0.0000 H   0  0  0  0  0  0  0  0  0  0  0  0
    2.9232   -1.8378    0.0000 H   0  0  0  0  0  0  0  0  0  0  0  0
    2.0367    0.1950    0.0000 H   0  0  0  0  0  0  0  0  0  0  0  0
    1.5407   -0.5280    0.0000 H   0  0  0  0  0  0  0  0  0  0  0  0
    2.2637   -1.0240    0.0000 H   0  0  0  0  0  0  0  0  0  0  0  0
    3.6184   -1.3034    0.0000 H   0  0  0  0  0  0  0  0  0  0  0  0
    8.6133   -2.5218    0.0000 H   0  0  0  0  0  0  0  0  0  0  0  0
    3.6139   -1.8797    0.0000 H   0  0  0  0  0  0  0  0  0  0  0  0
    6.2770    1.9206    0.0000 H   0  0  0  0  0  0  0  0  0  0  0  0
    5.2276    2.1487    0.0000 H   0  0  0  0  0  0  0  0  0  0  0  0
    5.1011   -2.5357    0.0000 H   0  0  0  0  0  0  0  0  0  0  0  0
    2.0000    1.7730    0.0000 H   0  0  0  0  0  0  0  0  0  0  0  0
    8.2812    2.7464    0.0000 H   0  0  0  0  0  0  0  0  0  0  0  0
    7.8031    2.1087    0.0000 H   0  0  0  0  0  0  0  0  0  0  0  0
    9.5853    1.9656    0.0000 H   0  0  0  0  0  0  0  0  0  0  0  0
    9.9118    2.7794    0.0000 H   0  0  0  0  0  0  0  0  0  0  0  0
    9.0980    3.1058    0.0000 H   0  0  0  0  0  0  0  0  0  0  0  0
  9  1  1  6  0  0  0
  1 27  1  0  0  0  0
 12  2  1  6  0  0  0
  2 55  1  0  0  0  0
 13  3  1  1  0  0  0
  3 56  1  0  0  0  0
 16  4  1  1  0  0  0
  4 59  1  0  0  0  0
 22  5  1  1  0  0  0
  5 60  1  0  0  0  0
  6 27  2  0  0  0  0
  7  8  1  0  0  0  0
  7  9  1  0  0  0  0
  7 11  1  0  0  0  0
  7 14  1  6  0  0  0
  8 17  1  0  0  0  0
  8 20  1  0  0  0  0
  8 30  1  1  0  0  0
  9 10  1  0  0  0  0
  9 31  1  0  0  0  0
 10 12  1  0  0  0  0
 10 18  1  0  0  0  0
 10 32  1  6  0  0  0
 11 12  1  0  0  0  0
 11 33  1  0  0  0  0
 11 34  1  0  0  0  0
 12 23  1  0  0  0  0
 13 15  1  0  0  0  0
 13 16  1  0  0  0  0
 13 19  1  0  0  0  0
 14 16  1  0  0  0  0
 14 35  1  0  0  0  0
 14 36  1  0  0  0  0
 15 20  1  0  0  0  0
 15 21  1  0  0  0  0
 15 37  1  6  0  0  0
 16 38  1  0  0  0  0
 17 18  1  0  0  0  0
 17 39  1  0  0  0  0
 17 40  1  0  0  0  0
 18 41  1  0  0  0  0
 18 42  1  0  0  0  0
 19 22  1  0  0  0  0
 19 24  1  0  0  0  0
 19 25  1  0  0  0  0
 20 26  2  0  0  0  0
 21 22  1  0  0  0  0
 21 43  1  0  0  0  0
 21 44  1  0  0  0  0
 22 45  1  0  0  0  0
 23 46  1  0  0  0  0
 23 47  1  0  0  0  0
 23 48  1  0  0  0  0
 24 51  1  0  0  0  0
 24 52  1  0  0  0  0
 24 53  1  0  0  0  0
 25 49  1  0  0  0  0
 25 50  1  0  0  0  0
 25 54  1  0  0  0  0
 26 57  1  0  0  0  0
 26 58  1  0  0  0  0
 27 28  1  0  0  0  0
 28 29  1  0  0  0  0
 28 61  1  0  0  0  0
 28 62  1  0  0  0  0
 29 63  1  0  0  0  0
 29 64  1  0  0  0  0
 29 65  1  0  0  0  0
M  END
> <PUBCHEM_COMPOUND_CID>
442003

> <PUBCHEM_COMPOUND_CANONICALIZED>
1

> <PUBCHEM_CACTVS_COMPLEXITY>
733

> <PUBCHEM_CACTVS_HBOND_ACCEPTOR>
6

> <PUBCHEM_CACTVS_HBOND_DONOR>
4

> <PUBCHEM_CACTVS_ROTATABLE_BOND>
3

> <PUBCHEM_CACTVS_SUBSKEYS>
AAADcfB4OAAAAAAAAAAAAAAAAAAAAYMAAAAwAAAABgwAAADAAAAAGgAACAAAD1SggAICCAAABgCIAgDSCAAAAAAgAAAAAAEAAAgBEAIAAQACQAAFwAABAAHA4PwPgAAAAAAAAACAAAYAADAAAYQADAAAAA==

> <PUBCHEM_IUPAC_INCHI>
InChI=1S/C23H36O6/c1-6-18(26)29-19-14-8-7-13-12(2)15-9-16(24)20(3,4)23(15,28)17(25)10-22(13,19)11-21(14,5)27/h13-17,19,24-25,27-28H,2,6-11H2,1,3-5H3/t13-,14+,15-,16-,17+,19+,21+,22-,23-/m0/s1

> <PUBCHEM_IUPAC_INCHIKEY>
VVXZWGWGAMWPOU-GTPZWBMOSA-N

> <PUBCHEM_XLOGP3_AA>
1.4

> <PUBCHEM_EXACT_MASS>
408.251189

> <PUBCHEM_MOLECULAR_FORMULA>
C23H36O6

> <PUBCHEM_MOLECULAR_WEIGHT>
408.52834

> <PUBCHEM_OPENEYE_CAN_SMILES>
CCC(=O)OC1C2CCC3C1(CC(C4(C(C3=C)CC(C4(C)C)O)O)O)CC2(C)O

> <PUBCHEM_OPENEYE_ISO_SMILES>
CCC(=O)O[C@@H]1[C@H]2CC[C@@H]3[C@]1(C[C@H]([C@]4([C@H](C3=C)C[C@@H](C4(C)C)O)O)O)C[C@@]2(C)O

> <PUBCHEM_CACTVS_TPSA>
107

> <PUBCHEM_MONOISOTOPIC_WEIGHT>
408.251189

> <PUBCHEM_TOTAL_CHARGE>
0

> <PUBCHEM_HEAVY_ATOM_COUNT>
29

> <PUBCHEM_ATOM_DEF_STEREO_COUNT>
9

> <PUBCHEM_ATOM_UDEF_STEREO_COUNT>
0

> <PUBCHEM_BOND_DEF_STEREO_COUNT>
0

> <PUBCHEM_BOND_UDEF_STEREO_COUNT>
0

> <PUBCHEM_ISOTOPIC_ATOM_COUNT>
0

> <PUBCHEM_COMPONENT_COUNT>
1

> <PUBCHEM_CACTVS_TAUTO_COUNT>
1

> <PUBCHEM_COORDINATE_TYPE>
1
5
255

> <PUBCHEM_BONDANNOTATIONS>
9  1  6
10  32  6
15  37  6
12  2  6
13  3  5
16  4  5
22  5  5
7  14  6
8  30  5

$$$$

