13755
  -OEChem-06241222402D

 34 35  0     0  0  0  0  0  0999 V2000
    3.0000   -0.0950    0.0000 S   0  0  0  0  0  0  0  0  0  0  0  0
    4.0000   -0.0950    0.0000 O   0  0  0  0  0  0  0  0  0  0  0  0
    2.0000   -0.0950    0.0000 O   0  0  0  0  0  0  0  0  0  0  0  0
    6.4641    2.9050    0.0000 O   0  0  0  0  0  0  0  0  0  0  0  0
    3.0000    0.9050    0.0000 N   0  0  0  0  0  0  0  0  0  0  0  0
    4.7320    0.9050    0.0000 N   0  0  0  0  0  0  0  0  0  0  0  0
    3.0000   -4.0950    0.0000 N   0  0  0  0  0  0  0  0  0  0  0  0
    5.5981    1.4050    0.0000 N   0  0  0  0  0  0  0  0  0  0  0  0
    3.0000   -1.0950    0.0000 C   0  0  0  0  0  0  0  0  0  0  0  0
    2.1340   -1.5950    0.0000 C   0  0  0  0  0  0  0  0  0  0  0  0
    3.8660   -1.5950    0.0000 C   0  0  0  0  0  0  0  0  0  0  0  0
    3.8660    1.4050    0.0000 C   0  0  0  0  0  0  0  0  0  0  0  0
    3.0000   -3.0950    0.0000 C   0  0  0  0  0  0  0  0  0  0  0  0
    2.1340   -2.5950    0.0000 C   0  0  0  0  0  0  0  0  0  0  0  0
    3.8660   -2.5950    0.0000 C   0  0  0  0  0  0  0  0  0  0  0  0
    3.8660    2.4050    0.0000 C   0  0  0  0  0  0  0  0  0  0  0  0
    4.7320    2.9050    0.0000 C   0  0  0  0  0  0  0  0  0  0  0  0
    5.5981    2.4050    0.0000 C   0  0  0  0  0  0  0  0  0  0  0  0
    6.4641    3.9050    0.0000 C   0  0  0  0  0  0  0  0  0  0  0  0
    7.3301    4.4050    0.0000 C   0  0  0  0  0  0  0  0  0  0  0  0
    2.4631    1.2150    0.0000 H   0  0  0  0  0  0  0  0  0  0  0  0
    1.5970   -1.2850    0.0000 H   0  0  0  0  0  0  0  0  0  0  0  0
    4.4030   -1.2850    0.0000 H   0  0  0  0  0  0  0  0  0  0  0  0
    1.5970   -2.9050    0.0000 H   0  0  0  0  0  0  0  0  0  0  0  0
    4.4030   -2.9050    0.0000 H   0  0  0  0  0  0  0  0  0  0  0  0
    3.3291    2.7150    0.0000 H   0  0  0  0  0  0  0  0  0  0  0  0
    4.7320    3.5250    0.0000 H   0  0  0  0  0  0  0  0  0  0  0  0
    2.4631   -4.4050    0.0000 H   0  0  0  0  0  0  0  0  0  0  0  0
    3.5369   -4.4050    0.0000 H   0  0  0  0  0  0  0  0  0  0  0  0
    6.2520    4.4876    0.0000 H   0  0  0  0  0  0  0  0  0  0  0  0
    5.8535    3.7973    0.0000 H   0  0  0  0  0  0  0  0  0  0  0  0
    7.6401    3.8681    0.0000 H   0  0  0  0  0  0  0  0  0  0  0  0
    7.8671    4.7150    0.0000 H   0  0  0  0  0  0  0  0  0  0  0  0
    7.0201    4.9419    0.0000 H   0  0  0  0  0  0  0  0  0  0  0  0
  1  2  2  0  0  0  0
  1  3  2  0  0  0  0
  1  5  1  0  0  0  0
  1  9  1  0  0  0  0
  4 18  1  0  0  0  0
  4 19  1  0  0  0  0
  5 12  1  0  0  0  0
  5 21  1  0  0  0  0
  6  8  1  0  0  0  0
  6 12  2  0  0  0  0
  7 13  1  0  0  0  0
  7 28  1  0  0  0  0
  7 29  1  0  0  0  0
  8 18  2  0  0  0  0
  9 10  2  0  0  0  0
  9 11  1  0  0  0  0
 10 14  1  0  0  0  0
 10 22  1  0  0  0  0
 11 15  2  0  0  0  0
 11 23  1  0  0  0  0
 12 16  1  0  0  0  0
 13 14  2  0  0  0  0
 13 15  1  0  0  0  0
 14 24  1  0  0  0  0
 15 25  1  0  0  0  0
 16 17  2  0  0  0  0
 16 26  1  0  0  0  0
 17 18  1  0  0  0  0
 17 27  1  0  0  0  0
 19 20  1  0  0  0  0
 19 30  1  0  0  0  0
 19 31  1  0  0  0  0
 20 32  1  0  0  0  0
 20 33  1  0  0  0  0
 20 34  1  0  0  0  0
M  END
> <PUBCHEM_COMPOUND_CID>
13755

> <PUBCHEM_COMPOUND_CANONICALIZED>
1

> <PUBCHEM_CACTVS_COMPLEXITY>
390

> <PUBCHEM_CACTVS_HBOND_ACCEPTOR>
7

> <PUBCHEM_CACTVS_HBOND_DONOR>
2

> <PUBCHEM_CACTVS_ROTATABLE_BOND>
5

> <PUBCHEM_CACTVS_SUBSKEYS>
AAADccBzsABAAAAAAAAAAAAAAAAAAAAAAAA8QAAAAAAAAAABwAAAHgQYQAAACAih0gIz9ZBABAKiACZiYHDSDBIgIgAcmDg2bJgMJqKEsZuKuCD02BEI6AcwAAAAAAQAAAAAAAAACAAAAAAAAAAAAAAAAA==

> <PUBCHEM_IUPAC_OPENEYE_NAME>
4-amino-N-(6-ethoxypyridazin-3-yl)benzenesulfonamide

> <PUBCHEM_IUPAC_CAS_NAME>
4-amino-N-(6-ethoxy-3-pyridazinyl)benzenesulfonamide

> <PUBCHEM_IUPAC_NAME>
4-amino-N-(6-ethoxypyridazin-3-yl)benzenesulfonamide

> <PUBCHEM_IUPAC_SYSTEMATIC_NAME>
4-azanyl-N-(6-ethoxypyridazin-3-yl)benzenesulfonamide

> <PUBCHEM_IUPAC_TRADITIONAL_NAME>
4-amino-N-(6-ethoxypyridazin-3-yl)benzenesulfonamide

> <PUBCHEM_IUPAC_INCHI>
InChI=1S/C12H14N4O3S/c1-2-19-12-8-7-11(14-15-12)16-20(17,18)10-5-3-9(13)4-6-10/h3-8H,2,13H2,1H3,(H,14,16)

> <PUBCHEM_IUPAC_INCHIKEY>
FFJIWWBSBCOKLS-UHFFFAOYSA-N

> <PUBCHEM_XLOGP3>
0.7

> <PUBCHEM_EXACT_MASS>
294.078661

> <PUBCHEM_MOLECULAR_FORMULA>
C12H14N4O3S

> <PUBCHEM_MOLECULAR_WEIGHT>
294.32956

> <PUBCHEM_OPENEYE_CAN_SMILES>
CCOC1=NN=C(C=C1)NS(=O)(=O)C2=CC=C(C=C2)N

> <PUBCHEM_OPENEYE_ISO_SMILES>
CCOC1=NN=C(C=C1)NS(=O)(=O)C2=CC=C(C=C2)N

> <PUBCHEM_CACTVS_TPSA>
116

> <PUBCHEM_MONOISOTOPIC_WEIGHT>
294.078661

> <PUBCHEM_TOTAL_CHARGE>
0

> <PUBCHEM_HEAVY_ATOM_COUNT>
20

> <PUBCHEM_ATOM_DEF_STEREO_COUNT>
0

> <PUBCHEM_ATOM_UDEF_STEREO_COUNT>
0

> <PUBCHEM_BOND_DEF_STEREO_COUNT>
0

> <PUBCHEM_BOND_UDEF_STEREO_COUNT>
0

> <PUBCHEM_ISOTOPIC_ATOM_COUNT>
0

> <PUBCHEM_COMPONENT_COUNT>
1

> <PUBCHEM_CACTVS_TAUTO_COUNT>
2

> <PUBCHEM_COORDINATE_TYPE>
1
5
255

> <PUBCHEM_BONDANNOTATIONS>
10  14  8
11  15  8
12  16  8
13  14  8
13  15  8
16  17  8
17  18  8
6  12  8
6  8  8
8  18  8
9  10  8
9  11  8

$$$$

