5380
  -OEChem-06261200392D

 36 37  0     0  0  0  0  0  0999 V2000
    3.7320   -2.2702    0.0000 O   0  0  0  0  0  0  0  0  0  0  0  0
    2.8660   -0.7702    0.0000 O   0  0  0  0  0  0  0  0  0  0  0  0
    5.4641   -1.2702    0.0000 O   0  0  0  0  0  0  0  0  0  0  0  0
    4.5981    0.2298    0.0000 N   0  0  0  0  0  0  0  0  0  0  0  0
    7.1391    3.8176    0.0000 N   0  0  0  0  0  0  0  0  0  0  0  0
    5.5211    3.8176    0.0000 N   0  0  0  0  0  0  0  0  0  0  0  0
    6.8301    4.7686    0.0000 N   0  0  0  0  0  0  0  0  0  0  0  0
    5.8301    4.7686    0.0000 N   0  0  0  0  0  0  0  0  0  0  0  0
    2.8660   -3.7702    0.0000 C   0  0  0  0  0  0  0  0  0  0  0  0
    2.0000   -4.2702    0.0000 C   0  0  0  0  0  0  0  0  0  0  0  0
    2.8660   -2.7702    0.0000 C   0  0  0  0  0  0  0  0  0  0  0  0
    2.0000   -5.2702    0.0000 C   0  0  0  0  0  0  0  0  0  0  0  0
    5.4641    0.7298    0.0000 C   0  0  0  0  0  0  0  0  0  0  0  0
    6.3301    2.2298    0.0000 C   0  0  0  0  0  0  0  0  0  0  0  0
    5.4641    1.7298    0.0000 C   0  0  0  0  0  0  0  0  0  0  0  0
    6.3301    0.2298    0.0000 C   0  0  0  0  0  0  0  0  0  0  0  0
    7.1962    1.7298    0.0000 C   0  0  0  0  0  0  0  0  0  0  0  0
    7.1962    0.7298    0.0000 C   0  0  0  0  0  0  0  0  0  0  0  0
    3.7320   -1.2702    0.0000 C   0  0  0  0  0  0  0  0  0  0  0  0
    4.5981   -0.7702    0.0000 C   0  0  0  0  0  0  0  0  0  0  0  0
    6.3301    3.2298    0.0000 C   0  0  0  0  0  0  0  0  0  0  0  0
    3.0781   -4.3528    0.0000 H   0  0  0  0  0  0  0  0  0  0  0  0
    3.4766   -3.6626    0.0000 H   0  0  0  0  0  0  0  0  0  0  0  0
    1.7880   -3.6876    0.0000 H   0  0  0  0  0  0  0  0  0  0  0  0
    1.3894   -4.3779    0.0000 H   0  0  0  0  0  0  0  0  0  0  0  0
    2.6540   -2.1876    0.0000 H   0  0  0  0  0  0  0  0  0  0  0  0
    2.2554   -2.8779    0.0000 H   0  0  0  0  0  0  0  0  0  0  0  0
    1.3800   -5.2702    0.0000 H   0  0  0  0  0  0  0  0  0  0  0  0
    2.0000   -5.8902    0.0000 H   0  0  0  0  0  0  0  0  0  0  0  0
    2.6200   -5.2702    0.0000 H   0  0  0  0  0  0  0  0  0  0  0  0
    4.9272    2.0398    0.0000 H   0  0  0  0  0  0  0  0  0  0  0  0
    6.3301   -0.3902    0.0000 H   0  0  0  0  0  0  0  0  0  0  0  0
    7.7331    2.0398    0.0000 H   0  0  0  0  0  0  0  0  0  0  0  0
    4.0611    0.5398    0.0000 H   0  0  0  0  0  0  0  0  0  0  0  0
    7.7331    0.4198    0.0000 H   0  0  0  0  0  0  0  0  0  0  0  0
    7.1946    5.2702    0.0000 H   0  0  0  0  0  0  0  0  0  0  0  0
  1 11  1  0  0  0  0
  1 19  1  0  0  0  0
  2 19  2  0  0  0  0
  3 20  2  0  0  0  0
  4 13  1  0  0  0  0
  4 20  1  0  0  0  0
  4 34  1  0  0  0  0
  5  7  1  0  0  0  0
  5 21  2  0  0  0  0
  6  8  2  0  0  0  0
  6 21  1  0  0  0  0
  7  8  1  0  0  0  0
  7 36  1  0  0  0  0
  9 10  1  0  0  0  0
  9 11  1  0  0  0  0
  9 22  1  0  0  0  0
  9 23  1  0  0  0  0
 10 12  1  0  0  0  0
 10 24  1  0  0  0  0
 10 25  1  0  0  0  0
 11 26  1  0  0  0  0
 11 27  1  0  0  0  0
 12 28  1  0  0  0  0
 12 29  1  0  0  0  0
 12 30  1  0  0  0  0
 13 15  1  0  0  0  0
 13 16  2  0  0  0  0
 14 15  2  0  0  0  0
 14 17  1  0  0  0  0
 14 21  1  0  0  0  0
 15 31  1  0  0  0  0
 16 18  1  0  0  0  0
 16 32  1  0  0  0  0
 17 18  2  0  0  0  0
 17 33  1  0  0  0  0
 18 35  1  0  0  0  0
 19 20  1  0  0  0  0
M  END
> <PUBCHEM_COMPOUND_CID>
5380

> <PUBCHEM_COMPOUND_CANONICALIZED>
1

> <PUBCHEM_CACTVS_COMPLEXITY>
366

> <PUBCHEM_CACTVS_HBOND_ACCEPTOR>
6

> <PUBCHEM_CACTVS_HBOND_DONOR>
2

> <PUBCHEM_CACTVS_ROTATABLE_BOND>
7

> <PUBCHEM_CACTVS_SUBSKEYS>
AAADccBzsAAAAAAAAAAAAAAAAAAAAWAAAAAwAAAAAAAAAAABwAAAHgAYAAAADAihmwIz2IbCBACqAifyeAKCAAIhAgAcqCDgZJgKIKLAkbWHIAhklADYyAcQgAAOAAAAQAAAAAAAAACAAAAAAAAAAAAAAA==

> <PUBCHEM_IUPAC_OPENEYE_NAME>
butyl 2-oxo-2-[3-(2H-tetrazol-5-yl)anilino]acetate

> <PUBCHEM_IUPAC_CAS_NAME>
2-oxo-2-[3-(2H-tetrazol-5-yl)anilino]acetic acid butyl ester

> <PUBCHEM_IUPAC_NAME>
butyl 2-oxo-2-[3-(2H-tetrazol-5-yl)anilino]acetate

> <PUBCHEM_IUPAC_SYSTEMATIC_NAME>
butyl 2-oxidanylidene-2-[[3-(2H-1,2,3,4-tetrazol-5-yl)phenyl]amino]ethanoate

> <PUBCHEM_IUPAC_TRADITIONAL_NAME>
2-keto-2-[3-(2H-tetrazol-5-yl)anilino]acetic acid butyl ester

> <PUBCHEM_IUPAC_INCHI>
InChI=1S/C13H15N5O3/c1-2-3-7-21-13(20)12(19)14-10-6-4-5-9(8-10)11-15-17-18-16-11/h4-6,8H,2-3,7H2,1H3,(H,14,19)(H,15,16,17,18)

> <PUBCHEM_IUPAC_INCHIKEY>
XQTARQNQIVVBRX-UHFFFAOYSA-N

> <PUBCHEM_XLOGP3_AA>
1.8

> <PUBCHEM_EXACT_MASS>
289.117489

> <PUBCHEM_MOLECULAR_FORMULA>
C13H15N5O3

> <PUBCHEM_MOLECULAR_WEIGHT>
289.2899

> <PUBCHEM_OPENEYE_CAN_SMILES>
CCCCOC(=O)C(=O)NC1=CC=CC(=C1)C2=NNN=N2

> <PUBCHEM_OPENEYE_ISO_SMILES>
CCCCOC(=O)C(=O)NC1=CC=CC(=C1)C2=NNN=N2

> <PUBCHEM_CACTVS_TPSA>
110

> <PUBCHEM_MONOISOTOPIC_WEIGHT>
289.117489

> <PUBCHEM_TOTAL_CHARGE>
0

> <PUBCHEM_HEAVY_ATOM_COUNT>
21

> <PUBCHEM_ATOM_DEF_STEREO_COUNT>
0

> <PUBCHEM_ATOM_UDEF_STEREO_COUNT>
0

> <PUBCHEM_BOND_DEF_STEREO_COUNT>
0

> <PUBCHEM_BOND_UDEF_STEREO_COUNT>
0

> <PUBCHEM_ISOTOPIC_ATOM_COUNT>
0

> <PUBCHEM_COMPONENT_COUNT>
1

> <PUBCHEM_CACTVS_TAUTO_COUNT>
4

> <PUBCHEM_COORDINATE_TYPE>
1
5
255

> <PUBCHEM_BONDANNOTATIONS>
13  15  8
13  16  8
14  15  8
14  17  8
16  18  8
17  18  8
5  21  8
5  7  8
6  21  8
6  8  8
7  8  8

$$$$

