442103
  -OEChem-07051212573D

 88 97  0     1  0  0  0  0  0999 V2000
   -3.2359    1.9841    0.8128 O   0  0  0  0  0  0  0  0  0  0  0  0
   -1.9224    3.4351   -0.3899 O   0  0  0  0  0  0  0  0  0  0  0  0
   -0.4832   -3.7098   -1.2801 O   0  0  0  0  0  0  0  0  0  0  0  0
    1.7379   -2.1456   -0.9680 O   0  0  0  0  0  0  0  0  0  0  0  0
    1.5919    0.8090   -2.1356 O   0  0  0  0  0  0  0  0  0  0  0  0
    6.8075   -0.0836   -0.5862 O   0  0  0  0  0  0  0  0  0  0  0  0
    6.3889   -0.7638    1.5439 O   0  0  0  0  0  0  0  0  0  0  0  0
   -5.2065    0.6821    1.4380 N   0  0  1  0  0  0  0  0  0  0  0  0
   -3.0608   -2.6509   -0.3054 N   0  0  3  0  0  0  0  0  0  0  0  0
    4.5331    0.5906   -0.3072 N   0  0  0  0  0  0  0  0  0  0  0  0
    3.3927    2.7913   -0.3674 N   0  0  1  0  0  0  0  0  0  0  0  0
   -4.0912    0.8694    0.4955 C   0  0  2  0  0  0  0  0  0  0  0  0
   -3.3692   -0.4823    0.7421 C   0  0  2  0  0  0  0  0  0  0  0  0
   -4.5718    1.1719   -0.9294 C   0  0  1  0  0  0  0  0  0  0  0  0
   -4.1134   -1.6834    0.0179 C   0  0  1  0  0  0  0  0  0  0  0  0
   -3.4652   -0.6307    2.2860 C   0  0  0  0  0  0  0  0  0  0  0  0
   -4.6339    0.2611    2.7061 C   0  0  0  0  0  0  0  0  0  0  0  0
   -1.9412   -0.7283    0.3060 C   0  0  0  0  0  0  0  0  0  0  0  0
   -5.7186    2.2310   -0.9237 C   0  0  0  0  0  0  0  0  0  0  0  0
   -3.3274    1.8213   -1.5354 C   0  0  0  0  0  0  0  0  0  0  0  0
   -4.9882   -0.0492   -1.6987 C   0  0  0  0  0  0  0  0  0  0  0  0
   -6.1495    1.7788    1.5120 C   0  0  0  0  0  0  0  0  0  0  0  0
   -6.7841    1.9563    0.1351 C   0  0  0  0  0  0  0  0  0  0  0  0
   -4.8117   -1.3037   -1.2671 C   0  0  0  0  0  0  0  0  0  0  0  0
   -1.8409   -2.0028   -0.2723 C   0  0  0  0  0  0  0  0  0  0  0  0
   -2.7399    2.5291   -0.3447 C   0  0  0  0  0  0  0  0  0  0  0  0
   -0.8066    0.0490    0.5026 C   0  0  0  0  0  0  0  0  0  0  0  0
    0.4274   -0.4301    0.0612 C   0  0  0  0  0  0  0  0  0  0  0  0
   -0.6106   -2.4840   -0.7024 C   0  0  0  0  0  0  0  0  0  0  0  0
   -3.2929   -3.9737   -0.8278 C   0  0  0  0  0  0  0  0  0  0  0  0
    1.6799    0.4382    0.2645 C   0  0  2  0  0  0  0  0  0  0  0  0
    0.5243   -1.6874   -0.5433 C   0  0  0  0  0  0  0  0  0  0  0  0
    3.6263    1.4818   -1.0278 C   0  0  2  0  0  0  0  0  0  0  0  0
    1.4224    1.8397    0.8875 C   0  0  0  0  0  0  0  0  0  0  0  0
    2.2591    0.8229   -1.1011 C   0  0  0  0  0  0  0  0  0  0  0  0
    2.7377   -0.2654    1.1299 C   0  0  0  0  0  0  0  0  0  0  0  0
    2.6902    2.7181    0.9265 C   0  0  0  0  0  0  0  0  0  0  0  0
    4.2712    1.5735   -2.4146 C   0  0  0  0  0  0  0  0  0  0  0  0
    4.1128   -0.1835    0.8140 C   0  0  0  0  0  0  0  0  0  0  0  0
    5.7579    1.3809   -2.1635 C   0  0  0  0  0  0  0  0  0  0  0  0
    5.8021    0.5280   -0.9190 C   0  0  0  0  0  0  0  0  0  0  0  0
    2.3393   -0.9666    2.2878 C   0  0  0  0  0  0  0  0  0  0  0  0
    4.5551    3.6676   -0.2528 C   0  0  0  0  0  0  0  0  0  0  0  0
    5.0337   -0.8565    1.6339 C   0  0  0  0  0  0  0  0  0  0  0  0
   -0.6194   -3.7762   -2.6988 C   0  0  0  0  0  0  0  0  0  0  0  0
    3.2692   -1.6218    3.0892 C   0  0  0  0  0  0  0  0  0  0  0  0
    2.2090   -3.3588   -0.3873 C   0  0  0  0  0  0  0  0  0  0  0  0
    4.6146   -1.5725    2.7572 C   0  0  0  0  0  0  0  0  0  0  0  0
   -4.8549   -2.1473    0.6805 H   0  0  0  0  0  0  0  0  0  0  0  0
   -2.5550   -0.2832    2.7905 H   0  0  0  0  0  0  0  0  0  0  0  0
   -3.6268   -1.6715    2.5899 H   0  0  0  0  0  0  0  0  0  0  0  0
   -5.3581   -0.2931    3.3115 H   0  0  0  0  0  0  0  0  0  0  0  0
   -4.2662    1.1107    3.2942 H   0  0  0  0  0  0  0  0  0  0  0  0
   -6.1929    2.2941   -1.9116 H   0  0  0  0  0  0  0  0  0  0  0  0
   -5.3127    3.2328   -0.7273 H   0  0  0  0  0  0  0  0  0  0  0  0
   -3.5712    2.5400   -2.3237 H   0  0  0  0  0  0  0  0  0  0  0  0
   -2.5991    1.0962   -1.9120 H   0  0  0  0  0  0  0  0  0  0  0  0
   -5.4732    0.0996   -2.6606 H   0  0  0  0  0  0  0  0  0  0  0  0
   -5.6669    2.7082    1.8378 H   0  0  0  0  0  0  0  0  0  0  0  0
   -6.9418    1.5493    2.2339 H   0  0  0  0  0  0  0  0  0  0  0  0
   -7.4965    2.7888    0.1630 H   0  0  0  0  0  0  0  0  0  0  0  0
   -7.3553    1.0592   -0.1354 H   0  0  0  0  0  0  0  0  0  0  0  0
   -5.1890   -2.1117   -1.8900 H   0  0  0  0  0  0  0  0  0  0  0  0
   -0.9078    0.9885    1.0277 H   0  0  0  0  0  0  0  0  0  0  0  0
   -4.2990   -4.3131   -0.5561 H   0  0  0  0  0  0  0  0  0  0  0  0
   -2.5986   -4.7059   -0.4041 H   0  0  0  0  0  0  0  0  0  0  0  0
   -3.2347   -3.9899   -1.9191 H   0  0  0  0  0  0  0  0  0  0  0  0
    1.0331    1.7562    1.9107 H   0  0  0  0  0  0  0  0  0  0  0  0
    0.6711    2.3844    0.2984 H   0  0  0  0  0  0  0  0  0  0  0  0
    2.3749    3.7272    1.2221 H   0  0  0  0  0  0  0  0  0  0  0  0
    3.3652    2.3683    1.7173 H   0  0  0  0  0  0  0  0  0  0  0  0
    4.0528    2.5080   -2.9423 H   0  0  0  0  0  0  0  0  0  0  0  0
    3.9227    0.7616   -3.0673 H   0  0  0  0  0  0  0  0  0  0  0  0
    6.2858    2.3189   -1.9770 H   0  0  0  0  0  0  0  0  0  0  0  0
    6.2359    0.8613   -2.9986 H   0  0  0  0  0  0  0  0  0  0  0  0
    1.2925   -1.0092    2.5789 H   0  0  0  0  0  0  0  0  0  0  0  0
    4.2799    4.6148    0.2265 H   0  0  0  0  0  0  0  0  0  0  0  0
    4.9422    3.9482   -1.2361 H   0  0  0  0  0  0  0  0  0  0  0  0
    5.3593    3.2178    0.3388 H   0  0  0  0  0  0  0  0  0  0  0  0
   -1.3850   -3.0868   -3.0699 H   0  0  0  0  0  0  0  0  0  0  0  0
   -0.8989   -4.7976   -2.9709 H   0  0  0  0  0  0  0  0  0  0  0  0
    0.3400   -3.5399   -3.1688 H   0  0  0  0  0  0  0  0  0  0  0  0
    2.9429   -2.1611    3.9731 H   0  0  0  0  0  0  0  0  0  0  0  0
    2.0307   -4.1925   -1.0723 H   0  0  0  0  0  0  0  0  0  0  0  0
    1.7524   -3.5661    0.5868 H   0  0  0  0  0  0  0  0  0  0  0  0
    3.2901   -3.2688   -0.2461 H   0  0  0  0  0  0  0  0  0  0  0  0
    5.3267   -2.0729    3.4091 H   0  0  0  0  0  0  0  0  0  0  0  0
    6.8223   -1.3150    2.2171 H   0  0  0  0  0  0  0  0  0  0  0  0
  1 12  1  0  0  0  0
  1 26  1  0  0  0  0
  2 26  2  0  0  0  0
  3 29  1  0  0  0  0
  3 45  1  0  0  0  0
  4 32  1  0  0  0  0
  4 47  1  0  0  0  0
  5 35  2  0  0  0  0
  6 41  2  0  0  0  0
  7 44  1  0  0  0  0
  7 88  1  0  0  0  0
  8 12  1  0  0  0  0
  8 17  1  0  0  0  0
  8 22  1  0  0  0  0
  9 15  1  0  0  0  0
  9 25  1  0  0  0  0
  9 30  1  0  0  0  0
 10 33  1  0  0  0  0
 10 39  1  0  0  0  0
 10 41  1  0  0  0  0
 11 33  1  0  0  0  0
 11 37  1  0  0  0  0
 11 43  1  0  0  0  0
 12 13  1  0  0  0  0
 12 14  1  0  0  0  0
 13 15  1  0  0  0  0
 13 16  1  0  0  0  0
 13 18  1  0  0  0  0
 14 19  1  0  0  0  0
 14 20  1  0  0  0  0
 14 21  1  0  0  0  0
 15 24  1  0  0  0  0
 15 49  1  0  0  0  0
 16 17  1  0  0  0  0
 16 50  1  0  0  0  0
 16 51  1  0  0  0  0
 17 52  1  0  0  0  0
 17 53  1  0  0  0  0
 18 25  1  0  0  0  0
 18 27  2  0  0  0  0
 19 23  1  0  0  0  0
 19 54  1  0  0  0  0
 19 55  1  0  0  0  0
 20 26  1  0  0  0  0
 20 56  1  0  0  0  0
 20 57  1  0  0  0  0
 21 24  2  0  0  0  0
 21 58  1  0  0  0  0
 22 23  1  0  0  0  0
 22 59  1  0  0  0  0
 22 60  1  0  0  0  0
 23 61  1  0  0  0  0
 23 62  1  0  0  0  0
 24 63  1  0  0  0  0
 25 29  2  0  0  0  0
 27 28  1  0  0  0  0
 27 64  1  0  0  0  0
 28 31  1  0  0  0  0
 28 32  2  0  0  0  0
 29 32  1  0  0  0  0
 30 65  1  0  0  0  0
 30 66  1  0  0  0  0
 30 67  1  0  0  0  0
 31 34  1  0  0  0  0
 31 35  1  0  0  0  0
 31 36  1  0  0  0  0
 33 35  1  0  0  0  0
 33 38  1  0  0  0  0
 34 37  1  0  0  0  0
 34 68  1  0  0  0  0
 34 69  1  0  0  0  0
 36 39  2  0  0  0  0
 36 42  1  0  0  0  0
 37 70  1  0  0  0  0
 37 71  1  0  0  0  0
 38 40  1  0  0  0  0
 38 72  1  0  0  0  0
 38 73  1  0  0  0  0
 39 44  1  0  0  0  0
 40 41  1  0  0  0  0
 40 74  1  0  0  0  0
 40 75  1  0  0  0  0
 42 46  2  0  0  0  0
 42 76  1  0  0  0  0
 43 77  1  0  0  0  0
 43 78  1  0  0  0  0
 43 79  1  0  0  0  0
 44 48  2  0  0  0  0
 45 80  1  0  0  0  0
 45 81  1  0  0  0  0
 45 82  1  0  0  0  0
 46 48  1  0  0  0  0
 46 83  1  0  0  0  0
 47 84  1  0  0  0  0
 47 85  1  0  0  0  0
 47 86  1  0  0  0  0
 48 87  1  0  0  0  0
M  END
> <PUBCHEM_COMPOUND_CID>
442103

> <PUBCHEM_CONFORMER_RMSD>
1

> <PUBCHEM_CONFORMER_DIVERSEORDER>
1
6
4
5
2
3

> <PUBCHEM_MMFF94_PARTIAL_CHARGES>
50
1 -0.43
10 -0.48
11 -0.81
12 0.55
13 0.14
14 0.14
15 0.51
17 0.27
18 -0.14
2 -0.57
20 0.06
21 -0.29
22 0.27
24 -0.29
25 0.1
26 0.66
27 -0.15
28 -0.14
29 0.08
3 -0.36
30 0.37
31 0.35
32 0.08
33 0.63
35 0.45
36 -0.14
37 0.27
39 0.12
4 -0.36
40 0.06
41 0.57
42 -0.15
43 0.27
44 0.08
45 0.28
46 -0.15
47 0.28
48 -0.15
5 -0.57
58 0.15
6 -0.57
63 0.15
64 0.15
7 -0.53
76 0.15
8 -0.81
83 0.15
87 0.15
88 0.45
9 -0.84

> <PUBCHEM_EFFECTIVE_ROTOR_COUNT>
5.6

> <PUBCHEM_PHARMACOPHORE_FEATURES>
19
1 11 cation
1 2 acceptor
1 3 acceptor
1 4 acceptor
1 5 acceptor
1 6 acceptor
1 7 donor
1 8 cation
1 9 cation
5 1 12 14 20 26 rings
5 10 33 38 40 41 rings
5 8 12 13 16 17 rings
5 9 13 15 18 25 rings
6 10 31 33 35 36 39 rings
6 11 31 33 34 35 37 rings
6 12 13 14 15 21 24 rings
6 18 25 27 28 29 32 rings
6 36 39 42 44 46 48 rings
6 8 12 14 19 22 23 rings

> <PUBCHEM_HEAVY_ATOM_COUNT>
48

> <PUBCHEM_ATOM_DEF_STEREO_COUNT>
6

> <PUBCHEM_ATOM_UDEF_STEREO_COUNT>
0

> <PUBCHEM_BOND_DEF_STEREO_COUNT>
0

> <PUBCHEM_BOND_UDEF_STEREO_COUNT>
0

> <PUBCHEM_ISOTOPIC_ATOM_COUNT>
0

> <PUBCHEM_COMPONENT_COUNT>
1

> <PUBCHEM_CACTVS_TAUTO_COUNT>
12

> <PUBCHEM_CONFORMER_ID>
0006BEF700000001

> <PUBCHEM_MMFF94_ENERGY>
209.6282

> <PUBCHEM_FEATURE_SELFOVERLAP>
99.153

> <PUBCHEM_SHAPE_FINGERPRINT>
11331351 85 18126304149732925610
12107698 1 17917715742402440017
12128747 34 17131274687157427347
12160290 23 17824552867934958415
12422481 6 18272378619572888878
12633257 1 18335424581997325041
13583140 156 17489313018229076491
13726171 33 18190163599520805560
13782708 43 16153703185648782670
14118638 360 18122065304083407366
14294032 229 18333444327902895631
14904385 31 18338230583137784057
15001296 14 18340210674461266720
15082195 135 18260839206574649759
15183329 4 18409724041758303300
15297060 5 18113889477342636041
15392192 104 18190435270199789003
19319366 153 17988926673969041672
20511986 3 18272381845309540664
20764821 26 18335711515766796469
21033648 29 17386307436044795850
22122407 14 18131635590451052353
22149856 69 18115295809556777193
23559900 14 17967526900363883294
24771293 8 18059585621204349920
469060 322 18053931876226160499
508706 21 17967531246860035863
513532 50 16588311626468479822
6086070 43 18337684026473177341
6523845 18 17604413129693973347

> <PUBCHEM_SHAPE_MULTIPOLES>
926.81
15.23
4.15
2.49
0.56
1.44
-0.78
-7.28
-1.3
-0.92
1.81
1.31
0.92
-2.71

> <PUBCHEM_SHAPE_SELFOVERLAP>
2123.388

> <PUBCHEM_SHAPE_VOLUME>
474.1

> <PUBCHEM_COORDINATE_TYPE>
2
5
10

$$$$

