9679
  -OEChem-07051212492D

 15 15  0     0  0  0  0  0  0999 V2000
    5.3122    0.0479    0.0000 O   0  0  0  0  0  0  0  0  0  0  0  0
    2.8090   -0.9000    0.0000 N   0  0  0  0  0  0  0  0  0  0  0  0
    2.3090    0.6388    0.0000 N   0  0  0  0  0  0  0  0  0  0  0  0
    3.8968    1.4478    0.0000 N   0  0  0  0  0  0  0  0  0  0  0  0
    4.7770   -1.5994    0.0000 N   0  0  0  0  0  0  0  0  0  0  0  0
    3.6180   -0.3122    0.0000 C   0  0  0  0  0  0  0  0  0  0  0  0
    3.3090    0.6388    0.0000 C   0  0  0  0  0  0  0  0  0  0  0  0
    2.0000   -0.3122    0.0000 C   0  0  0  0  0  0  0  0  0  0  0  0
    4.5691   -0.6212    0.0000 C   0  0  0  0  0  0  0  0  0  0  0  0
    2.8090   -1.5200    0.0000 H   0  0  0  0  0  0  0  0  0  0  0  0
    1.4103   -0.5038    0.0000 H   0  0  0  0  0  0  0  0  0  0  0  0
    3.6446    2.0142    0.0000 H   0  0  0  0  0  0  0  0  0  0  0  0
    4.5134    1.3830    0.0000 H   0  0  0  0  0  0  0  0  0  0  0  0
    5.3667   -1.7910    0.0000 H   0  0  0  0  0  0  0  0  0  0  0  0
    4.3162   -2.0142    0.0000 H   0  0  0  0  0  0  0  0  0  0  0  0
  1  9  2  0  0  0  0
  2  6  1  0  0  0  0
  2  8  1  0  0  0  0
  2 10  1  0  0  0  0
  3  7  1  0  0  0  0
  3  8  2  0  0  0  0
  4  7  1  0  0  0  0
  4 12  1  0  0  0  0
  4 13  1  0  0  0  0
  5  9  1  0  0  0  0
  5 14  1  0  0  0  0
  5 15  1  0  0  0  0
  6  7  2  0  0  0  0
  6  9  1  0  0  0  0
  8 11  1  0  0  0  0
M  END
> <PUBCHEM_COMPOUND_CID>
9679

> <PUBCHEM_COMPOUND_CANONICALIZED>
1

> <PUBCHEM_CACTVS_COMPLEXITY>
126

> <PUBCHEM_CACTVS_HBOND_ACCEPTOR>
3

> <PUBCHEM_CACTVS_HBOND_DONOR>
3

> <PUBCHEM_CACTVS_ROTATABLE_BOND>
1

> <PUBCHEM_CACTVS_SUBSKEYS>
AAADcYBjoAAAAAAAAAAAAAAAAAAAAWAAAAAAAAAAAAAAAAABgAAAHgAQAAAACAgBlgQFsBbJkACoAQdxdACAgC2XEKABUYGoVECASAhASCAUAIAIAAJAAGAAAAAAAAAAAAAAAAAAAAAAAAAAAAAAAAAAAA==

> <PUBCHEM_IUPAC_OPENEYE_NAME>
4-amino-1H-imidazole-5-carboxamide

> <PUBCHEM_IUPAC_CAS_NAME>
4-amino-1H-imidazole-5-carboxamide

> <PUBCHEM_IUPAC_NAME>
4-amino-1H-imidazole-5-carboxamide

> <PUBCHEM_IUPAC_SYSTEMATIC_NAME>
4-azanyl-1H-imidazole-5-carboxamide

> <PUBCHEM_IUPAC_TRADITIONAL_NAME>
4-amino-1H-imidazole-5-carboxamide

> <PUBCHEM_IUPAC_INCHI>
InChI=1S/C4H6N4O/c5-3-2(4(6)9)7-1-8-3/h1H,5H2,(H2,6,9)(H,7,8)

> <PUBCHEM_IUPAC_INCHIKEY>
DVNYTAVYBRSTGK-UHFFFAOYSA-N

> <PUBCHEM_XLOGP3_AA>
-0.5

> <PUBCHEM_EXACT_MASS>
126.054161

> <PUBCHEM_MOLECULAR_FORMULA>
C4H6N4O

> <PUBCHEM_MOLECULAR_WEIGHT>
126.11664

> <PUBCHEM_OPENEYE_CAN_SMILES>
C1=NC(=C(N1)C(=O)N)N

> <PUBCHEM_OPENEYE_ISO_SMILES>
C1=NC(=C(N1)C(=O)N)N

> <PUBCHEM_CACTVS_TPSA>
97.8

> <PUBCHEM_MONOISOTOPIC_WEIGHT>
126.054161

> <PUBCHEM_TOTAL_CHARGE>
0

> <PUBCHEM_HEAVY_ATOM_COUNT>
9

> <PUBCHEM_ATOM_DEF_STEREO_COUNT>
0

> <PUBCHEM_ATOM_UDEF_STEREO_COUNT>
0

> <PUBCHEM_BOND_DEF_STEREO_COUNT>
0

> <PUBCHEM_BOND_UDEF_STEREO_COUNT>
0

> <PUBCHEM_ISOTOPIC_ATOM_COUNT>
0

> <PUBCHEM_COMPONENT_COUNT>
1

> <PUBCHEM_CACTVS_TAUTO_COUNT>
13

> <PUBCHEM_COORDINATE_TYPE>
1
5
255

> <PUBCHEM_BONDANNOTATIONS>
2  6  8
2  8  8
3  7  8
3  8  8
6  7  8

$$$$

