442520
  -OEChem-07051212583D

 34 36  0     1  0  0  0  0  0999 V2000
   -0.5135   -0.8293   -0.1179 O   0  0  0  0  0  0  0  0  0  0  0  0
    1.0360    2.9656   -0.2876 O   0  0  0  0  0  0  0  0  0  0  0  0
    3.4220    2.0046   -0.0250 O   0  0  0  0  0  0  0  0  0  0  0  0
    3.8036   -2.7450    0.1870 O   0  0  0  0  0  0  0  0  0  0  0  0
   -1.2757    0.2961    0.3461 C   0  0  1  0  0  0  0  0  0  0  0  0
   -0.9056    1.5629   -0.4228 C   0  0  0  0  0  0  0  0  0  0  0  0
    1.4277    0.6464   -0.0811 C   0  0  0  0  0  0  0  0  0  0  0  0
    0.8400   -0.6217   -0.0499 C   0  0  0  0  0  0  0  0  0  0  0  0
    0.5653    1.8351   -0.2434 C   0  0  0  0  0  0  0  0  0  0  0  0
   -2.7471   -0.0260    0.1918 C   0  0  0  0  0  0  0  0  0  0  0  0
    2.8159    0.7831   -0.0033 C   0  0  0  0  0  0  0  0  0  0  0  0
    3.6158   -0.3563    0.0925 C   0  0  0  0  0  0  0  0  0  0  0  0
    1.6463   -1.7582    0.0253 C   0  0  0  0  0  0  0  0  0  0  0  0
    3.0330   -1.6241    0.1018 C   0  0  0  0  0  0  0  0  0  0  0  0
   -3.6724    0.4912    1.0981 C   0  0  0  0  0  0  0  0  0  0  0  0
   -3.1766   -0.8397   -0.8562 C   0  0  0  0  0  0  0  0  0  0  0  0
    5.1034   -0.2241    0.1786 C   0  0  0  0  0  0  0  0  0  0  0  0
   -5.0280    0.1946    0.9562 C   0  0  0  0  0  0  0  0  0  0  0  0
   -4.5322   -1.1362   -0.9982 C   0  0  0  0  0  0  0  0  0  0  0  0
   -5.4579   -0.6191   -0.0920 C   0  0  0  0  0  0  0  0  0  0  0  0
   -1.0602    0.4168    1.4182 H   0  0  0  0  0  0  0  0  0  0  0  0
   -1.4725    2.4210   -0.0451 H   0  0  0  0  0  0  0  0  0  0  0  0
   -1.0956    1.4575   -1.4974 H   0  0  0  0  0  0  0  0  0  0  0  0
    1.1955   -2.7476    0.0352 H   0  0  0  0  0  0  0  0  0  0  0  0
   -3.3500    1.1279    1.9176 H   0  0  0  0  0  0  0  0  0  0  0  0
   -2.4781   -1.2443   -1.5835 H   0  0  0  0  0  0  0  0  0  0  0  0
    5.4106    0.6991    0.6815 H   0  0  0  0  0  0  0  0  0  0  0  0
    5.5530   -1.0178    0.7847 H   0  0  0  0  0  0  0  0  0  0  0  0
    5.5446   -0.2471   -0.8227 H   0  0  0  0  0  0  0  0  0  0  0  0
   -5.7489    0.5979    1.6613 H   0  0  0  0  0  0  0  0  0  0  0  0
   -4.8676   -1.7672   -1.8161 H   0  0  0  0  0  0  0  0  0  0  0  0
   -6.5135   -0.8493   -0.2030 H   0  0  0  0  0  0  0  0  0  0  0  0
    4.2881    1.9376   -0.4589 H   0  0  0  0  0  0  0  0  0  0  0  0
    4.6935   -2.5667   -0.1569 H   0  0  0  0  0  0  0  0  0  0  0  0
  1  5  1  0  0  0  0
  1  8  1  0  0  0  0
  2  9  2  0  0  0  0
  3 11  1  0  0  0  0
  3 33  1  0  0  0  0
  4 14  1  0  0  0  0
  4 34  1  0  0  0  0
  5  6  1  0  0  0  0
  5 10  1  0  0  0  0
  5 21  1  0  0  0  0
  6  9  1  0  0  0  0
  6 22  1  0  0  0  0
  6 23  1  0  0  0  0
  7  8  2  0  0  0  0
  7  9  1  0  0  0  0
  7 11  1  0  0  0  0
  8 13  1  0  0  0  0
 10 15  2  0  0  0  0
 10 16  1  0  0  0  0
 11 12  2  0  0  0  0
 12 14  1  0  0  0  0
 12 17  1  0  0  0  0
 13 14  2  0  0  0  0
 13 24  1  0  0  0  0
 15 18  1  0  0  0  0
 15 25  1  0  0  0  0
 16 19  2  0  0  0  0
 16 26  1  0  0  0  0
 17 27  1  0  0  0  0
 17 28  1  0  0  0  0
 17 29  1  0  0  0  0
 18 20  2  0  0  0  0
 18 30  1  0  0  0  0
 19 20  1  0  0  0  0
 19 31  1  0  0  0  0
 20 32  1  0  0  0  0
M  END
> <PUBCHEM_COMPOUND_CID>
442520

> <PUBCHEM_CONFORMER_RMSD>
0.6

> <PUBCHEM_CONFORMER_DIVERSEORDER>
1
2
3

> <PUBCHEM_MMFF94_PARTIAL_CHARGES>
28
1 -0.36
10 -0.14
11 0.08
12 -0.14
13 -0.15
14 0.08
15 -0.15
16 -0.15
17 0.14
18 -0.15
19 -0.15
2 -0.57
20 -0.15
24 0.15
25 0.15
26 0.15
3 -0.53
30 0.15
31 0.15
32 0.15
33 0.45
34 0.45
4 -0.53
5 0.42
6 0.06
7 0.09
8 0.08
9 0.42

> <PUBCHEM_EFFECTIVE_ROTOR_COUNT>
1.6

> <PUBCHEM_PHARMACOPHORE_FEATURES>
7
1 1 acceptor
1 2 acceptor
1 3 donor
1 4 donor
6 1 5 6 7 8 9 rings
6 10 15 16 18 19 20 rings
6 7 8 11 12 13 14 rings

> <PUBCHEM_HEAVY_ATOM_COUNT>
20

> <PUBCHEM_ATOM_DEF_STEREO_COUNT>
1

> <PUBCHEM_ATOM_UDEF_STEREO_COUNT>
0

> <PUBCHEM_BOND_DEF_STEREO_COUNT>
0

> <PUBCHEM_BOND_UDEF_STEREO_COUNT>
0

> <PUBCHEM_ISOTOPIC_ATOM_COUNT>
0

> <PUBCHEM_COMPONENT_COUNT>
1

> <PUBCHEM_CACTVS_TAUTO_COUNT>
21

> <PUBCHEM_CONFORMER_ID>
0006C09800000001

> <PUBCHEM_MMFF94_ENERGY>
64.0273

> <PUBCHEM_FEATURE_SELFOVERLAP>
35.55

> <PUBCHEM_SHAPE_FINGERPRINT>
10062212 137 18040718039729963023
10411042 1 18195809794078110034
10622 236 17970093109333453071
10906281 52 18270665494921276112
10967382 1 18411982434335997638
11471102 20 18341332201748322341
11806522 49 18411138038911487031
12107183 9 17684357739443212035
12236239 1 17967250892685049635
12553582 1 18339929323806667938
12596602 18 17240484684624638530
12670546 56 17894634729935044769
13140716 1 18123471579424022168
13167823 11 18259703389498577983
13533116 47 18334577893988465723
13544653 18 18272647986841320719
13760787 5 18271803493128642477
13862211 1 18412830205162035610
14251717 144 18411421682867885183
14386348 63 17632854218275010859
14576447 43 18335427824312641590
14790565 3 17908697341884241932
14863182 85 18411130351643259894
15196674 1 18339643454988223016
15375462 189 18261110764213144457
15442244 35 18336542811050294337
15536298 74 18333449828669000001
15788980 27 18272934929638427255
15848700 24 18413390947143330268
15848702 151 18335419101555673687
17357779 13 17988938768512804629
1813 80 18339910614960243085
18186145 218 17346598586560696931
200 152 18334299768817116467
20028762 73 18187652379229466086
20281475 54 18334299772922348631
20511986 3 18041857155040113785
20612939 158 18341895139175674581
20645477 70 18272654528050236131
21033648 29 17560817497984045373
21065198 48 18187359935522491585
21267235 1 18409440397337863078
21641784 216 17845637262028443988
221490 88 18198619930781140059
22182313 1 18200052718875505228
2255824 54 18338231540366786869
22646028 1 18187083936571054315
23402539 116 18409172137970039599
23559900 14 18339928103929934984
26918003 58 18131630080298142411
2871803 45 18130791199891344378
33824 294 18413110533176444666
345986 75 18262525921339977520
34797466 226 16009304293091496625
474 4 18195246620237633209
5104073 3 18337954609449242617
573450 72 17676205780241899075
602551 16 15358268065475576957
7064713 232 17603588577413657971
7495541 125 16844996927798101289
84936 182 17754174185123766129
9971528 1 18410295795935842552
9981440 41 17327188645650303145

> <PUBCHEM_SHAPE_MULTIPOLES>
388.11
10.7
2.24
0.83
6.14
0.49
-0.03
-3.45
-0.9
-2.32
0.23
0.83
-0.02
-0.76

> <PUBCHEM_SHAPE_SELFOVERLAP>
859.146

> <PUBCHEM_SHAPE_VOLUME>
207.6

> <PUBCHEM_COORDINATE_TYPE>
2
5
10

$$$$

