9576412
  -OEChem-07051213013D

 58 60  0     0  0  0  0  0  0999 V2000
   -6.1939    0.3508   -0.7552 O   0  0  0  0  0  0  0  0  0  0  0  0
    4.8644    0.9642   -1.1731 O   0  0  0  0  0  0  0  0  0  0  0  0
    0.3821   -1.1897    0.1212 O   0  0  0  0  0  0  0  0  0  0  0  0
   -6.5499    0.0590    1.5003 O   0  0  0  0  0  0  0  0  0  0  0  0
    6.0612   -0.9913   -0.6556 N   0  0  0  0  0  0  0  0  0  0  0  0
    5.9058   -2.2484   -0.2063 N   0  0  0  0  0  0  0  0  0  0  0  0
    1.6684   -1.7440    0.1500 N   0  0  0  0  0  0  0  0  0  0  0  0
   -7.5019    0.9050   -0.9019 C   0  0  0  0  0  0  0  0  0  0  0  0
   -7.6843    1.2707   -2.3732 C   0  0  0  0  0  0  0  0  0  0  0  0
   -7.6039    2.1499   -0.0217 C   0  0  0  0  0  0  0  0  0  0  0  0
   -8.5262   -0.1469   -0.4786 C   0  0  0  0  0  0  0  0  0  0  0  0
   -5.8503   -0.0300    0.5032 C   0  0  0  0  0  0  0  0  0  0  0  0
   -4.4736   -0.5855    0.5212 C   0  0  0  0  0  0  0  0  0  0  0  0
    3.9267   -1.1543   -0.3331 C   0  0  0  0  0  0  0  0  0  0  0  0
    4.8944   -0.2911   -0.7488 C   0  0  0  0  0  0  0  0  0  0  0  0
    4.5877   -2.3395   -0.0103 C   0  0  0  0  0  0  0  0  0  0  0  0
   -1.9161   -1.6213    0.5548 C   0  0  0  0  0  0  0  0  0  0  0  0
   -3.9971   -1.2229   -0.6063 C   0  0  0  0  0  0  0  0  0  0  0  0
   -3.7137   -0.4490    1.6648 C   0  0  0  0  0  0  0  0  0  0  0  0
   -2.7043   -1.7465   -0.5891 C   0  0  0  0  0  0  0  0  0  0  0  0
   -2.4209   -0.9725    1.6818 C   0  0  0  0  0  0  0  0  0  0  0  0
   -0.5334   -2.1799    0.5732 C   0  0  0  0  0  0  0  0  0  0  0  0
    4.0153   -3.6010    0.4919 C   0  0  0  0  0  0  0  0  0  0  0  0
    2.5080   -0.8517   -0.2592 C   0  0  0  0  0  0  0  0  0  0  0  0
    7.3853   -0.5164   -0.9840 C   0  0  0  0  0  0  0  0  0  0  0  0
    4.3866    2.0014   -0.3893 C   0  0  0  0  0  0  0  0  0  0  0  0
    4.7750    2.0781    0.9359 C   0  0  0  0  0  0  0  0  0  0  0  0
    3.5330    2.9327   -0.9519 C   0  0  0  0  0  0  0  0  0  0  0  0
    4.2930    3.1221    1.7256 C   0  0  0  0  0  0  0  0  0  0  0  0
    3.0512    3.9768   -0.1624 C   0  0  0  0  0  0  0  0  0  0  0  0
    3.4312    4.0714    1.1764 C   0  0  0  0  0  0  0  0  0  0  0  0
   -8.6710    1.7040   -2.5668 H   0  0  0  0  0  0  0  0  0  0  0  0
   -6.9212    1.9901   -2.6920 H   0  0  0  0  0  0  0  0  0  0  0  0
   -7.5624    0.3876   -3.0108 H   0  0  0  0  0  0  0  0  0  0  0  0
   -6.7138    2.7807   -0.1292 H   0  0  0  0  0  0  0  0  0  0  0  0
   -8.4765    2.7496   -0.3072 H   0  0  0  0  0  0  0  0  0  0  0  0
   -7.7251    1.9428    1.0445 H   0  0  0  0  0  0  0  0  0  0  0  0
   -8.2894   -1.1228   -0.9185 H   0  0  0  0  0  0  0  0  0  0  0  0
   -9.5299    0.1387   -0.8152 H   0  0  0  0  0  0  0  0  0  0  0  0
   -8.6060   -0.2931    0.6014 H   0  0  0  0  0  0  0  0  0  0  0  0
   -4.5948   -1.3456   -1.5045 H   0  0  0  0  0  0  0  0  0  0  0  0
   -4.0943    0.0571    2.5470 H   0  0  0  0  0  0  0  0  0  0  0  0
   -2.3226   -2.2507   -1.4731 H   0  0  0  0  0  0  0  0  0  0  0  0
   -1.8156   -0.8660    2.5782 H   0  0  0  0  0  0  0  0  0  0  0  0
   -0.4705   -3.0645   -0.0734 H   0  0  0  0  0  0  0  0  0  0  0  0
   -0.2634   -2.4972    1.5886 H   0  0  0  0  0  0  0  0  0  0  0  0
    4.7890   -4.3595    0.6547 H   0  0  0  0  0  0  0  0  0  0  0  0
    3.5055   -3.4434    1.4478 H   0  0  0  0  0  0  0  0  0  0  0  0
    3.2974   -4.0145   -0.2239 H   0  0  0  0  0  0  0  0  0  0  0  0
    2.1744    0.1531   -0.5704 H   0  0  0  0  0  0  0  0  0  0  0  0
    7.8619   -0.1797   -0.0601 H   0  0  0  0  0  0  0  0  0  0  0  0
    7.3146    0.3070   -1.6984 H   0  0  0  0  0  0  0  0  0  0  0  0
    7.9539   -1.3364   -1.4305 H   0  0  0  0  0  0  0  0  0  0  0  0
    5.4547    1.3558    1.3778 H   0  0  0  0  0  0  0  0  0  0  0  0
    3.2356    2.8594   -1.9936 H   0  0  0  0  0  0  0  0  0  0  0  0
    4.5909    3.1975    2.7673 H   0  0  0  0  0  0  0  0  0  0  0  0
    2.3799    4.7158   -0.5899 H   0  0  0  0  0  0  0  0  0  0  0  0
    3.0565    4.8846    1.7911 H   0  0  0  0  0  0  0  0  0  0  0  0
  1  8  1  0  0  0  0
  1 12  1  0  0  0  0
  2 15  1  0  0  0  0
  2 26  1  0  0  0  0
  3  7  1  0  0  0  0
  3 22  1  0  0  0  0
  4 12  2  0  0  0  0
  5  6  1  0  0  0  0
  5 15  1  0  0  0  0
  5 25  1  0  0  0  0
  6 16  2  0  0  0  0
  7 24  2  0  0  0  0
  8  9  1  0  0  0  0
  8 10  1  0  0  0  0
  8 11  1  0  0  0  0
  9 32  1  0  0  0  0
  9 33  1  0  0  0  0
  9 34  1  0  0  0  0
 10 35  1  0  0  0  0
 10 36  1  0  0  0  0
 10 37  1  0  0  0  0
 11 38  1  0  0  0  0
 11 39  1  0  0  0  0
 11 40  1  0  0  0  0
 12 13  1  0  0  0  0
 13 18  2  0  0  0  0
 13 19  1  0  0  0  0
 14 15  2  0  0  0  0
 14 16  1  0  0  0  0
 14 24  1  0  0  0  0
 16 23  1  0  0  0  0
 17 20  2  0  0  0  0
 17 21  1  0  0  0  0
 17 22  1  0  0  0  0
 18 20  1  0  0  0  0
 18 41  1  0  0  0  0
 19 21  2  0  0  0  0
 19 42  1  0  0  0  0
 20 43  1  0  0  0  0
 21 44  1  0  0  0  0
 22 45  1  0  0  0  0
 22 46  1  0  0  0  0
 23 47  1  0  0  0  0
 23 48  1  0  0  0  0
 23 49  1  0  0  0  0
 24 50  1  0  0  0  0
 25 51  1  0  0  0  0
 25 52  1  0  0  0  0
 25 53  1  0  0  0  0
 26 27  2  0  0  0  0
 26 28  1  0  0  0  0
 27 29  1  0  0  0  0
 27 54  1  0  0  0  0
 28 30  2  0  0  0  0
 28 55  1  0  0  0  0
 29 31  2  0  0  0  0
 29 56  1  0  0  0  0
 30 31  1  0  0  0  0
 30 57  1  0  0  0  0
 31 58  1  0  0  0  0
M  END
> <PUBCHEM_COMPOUND_CID>
9576412

> <PUBCHEM_CONFORMER_RMSD>
1

> <PUBCHEM_CONFORMER_DIVERSEORDER>
1
78
73
94
117
79
60
66
85
67
134
49
76
22
92
25
55
90
53
110
15
48
125
131
27
130
86
136
74
108
129
81
121
77
102
83
100
72
44
118
13
99
64
59
7
114
95
36
80
14
47
96
98
112
127
113
29
69
21
3
68
107
34
101
58
70
97
46
11
45
61
82
4
32
137
54
104
50
18
35
42
16
84
37
116
88
39
41
111
57
38
20
105
109
103
51
12
123
26
128
62
28
2
122
87
24
30
115
17
23
56
65
138
126
43
132
89
106
40
19
120
75
93
119
31
71
133
135
91
52
5
124
33
9
6
8
63
10

> <PUBCHEM_MMFF94_PARTIAL_CHARGES>
38
1 -0.43
12 0.63
13 0.09
14 -0.09
15 -0.09
16 0.11
17 -0.14
18 -0.15
19 -0.15
2 -0.15
20 -0.15
21 -0.15
22 0.42
23 0.18
24 0.48
25 0.26
26 0.08
27 -0.15
28 -0.15
29 -0.15
3 -0.22
30 -0.15
31 -0.15
4 -0.57
41 0.15
42 0.15
43 0.15
44 0.15
5 0.31
50 0.06
54 0.15
55 0.15
56 0.15
57 0.15
58 0.15
6 -0.71
7 -0.51
8 0.28

> <PUBCHEM_EFFECTIVE_ROTOR_COUNT>
9

> <PUBCHEM_PHARMACOPHORE_FEATURES>
8
1 2 acceptor
1 4 acceptor
1 6 acceptor
1 7 acceptor
4 8 9 10 11 hydrophobe
5 5 6 14 15 16 rings
6 13 17 18 19 20 21 rings
6 26 27 28 29 30 31 rings

> <PUBCHEM_HEAVY_ATOM_COUNT>
31

> <PUBCHEM_ATOM_DEF_STEREO_COUNT>
0

> <PUBCHEM_ATOM_UDEF_STEREO_COUNT>
0

> <PUBCHEM_BOND_DEF_STEREO_COUNT>
1

> <PUBCHEM_BOND_UDEF_STEREO_COUNT>
0

> <PUBCHEM_ISOTOPIC_ATOM_COUNT>
0

> <PUBCHEM_COMPONENT_COUNT>
1

> <PUBCHEM_CACTVS_TAUTO_COUNT>
1

> <PUBCHEM_CONFORMER_ID>
00921FDC00000001

> <PUBCHEM_MMFF94_ENERGY>
84.003

> <PUBCHEM_FEATURE_SELFOVERLAP>
40.595

> <PUBCHEM_SHAPE_FINGERPRINT>
10319926 262 16773792564027299363
11007060 377 18270399387760239331
11386260 185 18333728022823784772
11456790 92 18131071584294476706
11991303 11 17894638020234046063
12664476 115 17988928876696531253
12925494 130 18340205176597153563
13165054 189 9655276139861403334
13878862 14 18411147921932078284
14117953 113 18261103111283576222
14556957 393 17240473724580528889
15064981 194 18264189349843021859
15183329 4 18040433317568202347
15320295 198 18273208695133316509
15439362 3 18120653536250670136
18335252 114 18408604794676862718
19053607 189 18051698733360655544
20511986 3 17822859663019157798
21033648 29 17846221012165256006
21133410 127 17623005699220767724
21133410 230 18337123354424091784
21344244 78 18197230350617423738
22122407 14 18336813265135395947
23559900 14 18409165477140902370
23569914 2 17697644010753423149
249057 3 18261107470327052646
2838139 119 18409729604136512293
4066623 53 18187368752437165088
44317340 157 18335417920445124019
44555599 121 18261666069536528193
6371009 1 18114457950270592225
6898599 12 17969788467186544079

> <PUBCHEM_SHAPE_MULTIPOLES>
599.55
24.96
4.34
1.48
38.25
3.4
-0.06
6.83
7.53
-8.84
-0.92
1.38
0.65
2.37

> <PUBCHEM_SHAPE_SELFOVERLAP>
1281.898

> <PUBCHEM_SHAPE_VOLUME>
334.9

> <PUBCHEM_COORDINATE_TYPE>
2
5
10

$$$$

