47205181
  -OEChem-06241222583D

 40 41  0     1  0  0  0  0  0999 V2000
    5.3673   -0.1506    0.4509 S   0  0  0  0  0  0  0  0  0  0  0  0
    6.6138   -0.8372    0.1826 O   0  0  0  0  0  0  0  0  0  0  0  0
    5.2946    1.0123    1.3111 O   0  0  0  0  0  0  0  0  0  0  0  0
    0.3263   -0.1082   -1.4943 O   0  0  0  0  0  0  0  0  0  0  0  0
   -1.9404    0.0517    1.3287 O   0  0  0  0  0  0  0  0  0  0  0  0
    2.2582    0.5661   -0.3914 N   0  0  0  0  0  0  0  0  0  0  0  0
   -1.2059    1.6631   -0.1787 N   0  0  0  0  0  0  0  0  0  0  0  0
    3.1724   -0.3544   -1.0200 C   0  0  1  0  0  0  0  0  0  0  0  0
    4.5802    0.2355   -1.1089 C   0  0  0  0  0  0  0  0  0  0  0  0
    3.3094   -1.6576   -0.2248 C   0  0  0  0  0  0  0  0  0  0  0  0
    4.1601   -1.3448    1.0036 C   0  0  0  0  0  0  0  0  0  0  0  0
   -4.6095    0.2091    0.4980 C   0  0  1  0  0  0  0  0  0  0  0  0
   -4.3644   -1.2792    0.2083 C   0  0  0  0  0  0  0  0  0  0  0  0
   -3.5535    1.1025   -0.1355 C   0  0  0  0  0  0  0  0  0  0  0  0
   -5.7474   -1.9075    0.0345 C   0  0  0  0  0  0  0  0  0  0  0  0
    0.9014    0.6129   -0.6830 C   0  0  0  0  0  0  0  0  0  0  0  0
   -5.9795    0.4225   -0.0681 C   0  0  0  0  0  0  0  0  0  0  0  0
   -6.5996   -0.7349   -0.3162 C   0  0  0  0  0  0  0  0  0  0  0  0
    0.1839    1.6377    0.1696 C   0  0  0  0  0  0  0  0  0  0  0  0
   -2.1674    0.8611    0.4335 C   0  0  0  0  0  0  0  0  0  0  0  0
    2.7940   -0.5665   -2.0263 H   0  0  0  0  0  0  0  0  0  0  0  0
    4.5961    1.3164   -1.2683 H   0  0  0  0  0  0  0  0  0  0  0  0
    5.1588   -0.2655   -1.8914 H   0  0  0  0  0  0  0  0  0  0  0  0
    2.3414   -2.0793    0.0648 H   0  0  0  0  0  0  0  0  0  0  0  0
    3.8270   -2.4031   -0.8415 H   0  0  0  0  0  0  0  0  0  0  0  0
    4.6669   -2.2290    1.3956 H   0  0  0  0  0  0  0  0  0  0  0  0
    3.5611   -0.8785    1.7911 H   0  0  0  0  0  0  0  0  0  0  0  0
    2.6194    1.1697    0.3421 H   0  0  0  0  0  0  0  0  0  0  0  0
   -4.6453    0.3798    1.5818 H   0  0  0  0  0  0  0  0  0  0  0  0
   -3.8093   -1.7723    1.0135 H   0  0  0  0  0  0  0  0  0  0  0  0
   -3.7851   -1.4164   -0.7146 H   0  0  0  0  0  0  0  0  0  0  0  0
   -3.5121    0.9499   -1.2217 H   0  0  0  0  0  0  0  0  0  0  0  0
   -3.8066    2.1567    0.0350 H   0  0  0  0  0  0  0  0  0  0  0  0
   -6.1005   -2.3715    0.9611 H   0  0  0  0  0  0  0  0  0  0  0  0
   -5.7414   -2.6591   -0.7601 H   0  0  0  0  0  0  0  0  0  0  0  0
   -6.4307    1.3940   -0.2122 H   0  0  0  0  0  0  0  0  0  0  0  0
   -7.6094   -0.8158   -0.6915 H   0  0  0  0  0  0  0  0  0  0  0  0
    0.3023    1.3814    1.2271 H   0  0  0  0  0  0  0  0  0  0  0  0
    0.6019    2.6308   -0.0195 H   0  0  0  0  0  0  0  0  0  0  0  0
   -1.4942    2.2911   -0.9235 H   0  0  0  0  0  0  0  0  0  0  0  0
  1  2  2  0  0  0  0
  1  3  2  0  0  0  0
  1  9  1  0  0  0  0
  1 11  1  0  0  0  0
  4 16  2  0  0  0  0
  5 20  2  0  0  0  0
  6  8  1  0  0  0  0
  6 16  1  0  0  0  0
  6 28  1  0  0  0  0
  7 19  1  0  0  0  0
  7 20  1  0  0  0  0
  7 40  1  0  0  0  0
  8  9  1  0  0  0  0
  8 10  1  0  0  0  0
  8 21  1  0  0  0  0
  9 22  1  0  0  0  0
  9 23  1  0  0  0  0
 10 11  1  0  0  0  0
 10 24  1  0  0  0  0
 10 25  1  0  0  0  0
 11 26  1  0  0  0  0
 11 27  1  0  0  0  0
 12 13  1  0  0  0  0
 12 14  1  0  0  0  0
 12 17  1  0  0  0  0
 12 29  1  0  0  0  0
 13 15  1  0  0  0  0
 13 30  1  0  0  0  0
 13 31  1  0  0  0  0
 14 20  1  0  0  0  0
 14 32  1  0  0  0  0
 14 33  1  0  0  0  0
 15 18  1  0  0  0  0
 15 34  1  0  0  0  0
 15 35  1  0  0  0  0
 16 19  1  0  0  0  0
 17 18  2  0  0  0  0
 17 36  1  0  0  0  0
 18 37  1  0  0  0  0
 19 38  1  0  0  0  0
 19 39  1  0  0  0  0
M  END
> <PUBCHEM_COMPOUND_CID>
47205181

> <PUBCHEM_CONFORMER_RMSD>
1.2

> <PUBCHEM_CONFORMER_DIVERSEORDER>
1
73
78
70
14
8
37
13
54
9
33
27
51
24
62
23
18
53
26
15
22
82
58
11
67
3
29
35
80
55
76
34
75
30
66
79
40
4
45
61
60
71
44
16
50
46
19
72
69
5
48
59
12
74
42
63
7
36
56
10
64
81
17
49
68
57
6
41
31
20
21
2
39
47
25
65
52
77
43
28
38
32

> <PUBCHEM_MMFF94_PARTIAL_CHARGES>
22
1 1.09
11 0.11
12 0.14
14 0.06
15 0.14
16 0.57
17 -0.29
18 -0.29
19 0.36
2 -0.65
20 0.57
28 0.37
3 -0.65
36 0.15
37 0.15
4 -0.57
40 0.37
5 -0.57
6 -0.73
7 -0.73
8 0.3
9 0.11

> <PUBCHEM_EFFECTIVE_ROTOR_COUNT>
8.4

> <PUBCHEM_PHARMACOPHORE_FEATURES>
8
1 2 acceptor
1 3 acceptor
1 4 acceptor
1 5 acceptor
1 6 donor
1 7 donor
5 1 8 9 10 11 rings
5 12 13 15 17 18 rings

> <PUBCHEM_HEAVY_ATOM_COUNT>
20

> <PUBCHEM_ATOM_DEF_STEREO_COUNT>
0

> <PUBCHEM_ATOM_UDEF_STEREO_COUNT>
2

> <PUBCHEM_BOND_DEF_STEREO_COUNT>
0

> <PUBCHEM_BOND_UDEF_STEREO_COUNT>
0

> <PUBCHEM_ISOTOPIC_ATOM_COUNT>
0

> <PUBCHEM_COMPONENT_COUNT>
1

> <PUBCHEM_CACTVS_TAUTO_COUNT>
4

> <PUBCHEM_CONFORMER_ID>
02D04B3D00000001

> <PUBCHEM_MMFF94_ENERGY>
28.4711

> <PUBCHEM_FEATURE_SELFOVERLAP>
40.611

> <PUBCHEM_SHAPE_FINGERPRINT>
10 15 17749396945019229536
100836 57 8862943874938411765
10354089 29 4967609473342949386
10378564 45 11887682779522863648
10447042 23 18202004339140201566
10613725 11 12823297900868660562
106641 1 17894636929074033072
10670039 82 11095896968402464471
10803635 8 17989211447755052367
11045977 3 15430326806264802783
11724838 91 17895483531616238228
11796584 16 18342454850966406019
12516196 113 18407760335059801673
12555020 224 17060616685933885931
12596602 18 17894347791343072722
12670543 26 12823302303178652829
13167372 99 8214151741485429918
13177829 20 15357984430357234023
13288520 33 18412262835871655645
13533116 47 18060142076475850610
13668630 136 17346596382836636666
13685833 64 18411133607317608067
13899415 154 16660362550527998120
1420 363 17676201381483192596
14251732 16 18261676986831561512
14251751 18 18409730621606008979
14251752 14 15410905062983680087
14251764 75 14275741663314022298
14341114 176 14779541305390471844
14848160 23 18409450293000288445
14933364 13 9079115570457020701
15048467 5 8502657000086634901
15183329 4 15410899569625647225
15188451 53 18131359635124398016
15716309 27 17603587422093374557
15880784 105 18187640366453222186
17834072 33 18272929414526106812
17834072 8 13183019622633305596
17857418 61 18343584044875534467
18222031 100 18340475734178435116
19489759 90 18201718474933670129
20028762 73 18271532017443329298
20281389 69 7709462701743837111
20374829 77 18342737408374952605
20621476 66 9295282846349124902
21315763 178 18273214235640939931
21623969 137 17603302656797311854
22061861 79 14979959185257971883
22079108 93 15647058165796526020
22224240 67 16298391257852701111
23198884 109 15195286418014623893
23402539 116 17489586779655786661
23559900 14 17988075565711743501
26918003 58 17966966128375352433
293599 30 10303814272288671789
29717793 49 16917065577282211990
3004659 81 17846495928805799636
3009799 131 14405182859457310028
3014965 18 12247413297154158632
32948 21 11239996754767151444
339767 52 18411699876822248347
347723 3 15339120147682039701
4325135 7 18273494564119793364
439807 62 18057880257010554347
465052 167 18260263049343202244
5104073 3 17314498425701811250
542803 24 6627749972361263077
559249 180 18413389844075226399
7495541 125 18260266321834410297
8988823 20 17346881131195514372

> <PUBCHEM_SHAPE_MULTIPOLES>
382
18
1.64
1.07
4.28
0.26
-0.02
6.4
1.54
0.73
0.12
-0.97
-0.02
-0.16

> <PUBCHEM_SHAPE_SELFOVERLAP>
768.314

> <PUBCHEM_SHAPE_VOLUME>
224

> <PUBCHEM_COORDINATE_TYPE>
2
5
10

$$$$

