439910
  -OEChem-07051212483D

 21 20  0     1  0  0  0  0  0999 V2000
   -2.7122    0.2786    0.1099 P   0  0  0  0  0  0  0  0  0  0  0  0
   -1.1625    0.0968    0.5282 O   0  0  0  0  0  0  0  0  0  0  0  0
    1.8094   -1.8583   -0.2709 O   0  0  0  0  0  0  0  0  0  0  0  0
    1.7412    0.8753   -1.1402 O   0  0  0  0  0  0  0  0  0  0  0  0
   -3.3081   -1.2232    0.1750 O   0  0  0  0  0  0  0  0  0  0  0  0
   -2.6192    0.5734   -1.4774 O   0  0  0  0  0  0  0  0  0  0  0  0
   -3.4695    1.3043    0.9017 O   0  0  0  0  0  0  0  0  0  0  0  0
    4.1522    0.6859    0.0140 O   0  0  0  0  0  0  0  0  0  0  0  0
    1.0354   -0.8517    0.3870 C   0  0  2  0  0  0  0  0  0  0  0  0
   -0.3804   -0.8599   -0.1805 C   0  0  0  0  0  0  0  0  0  0  0  0
    1.7408    0.4968    0.2282 C   0  0  1  0  0  0  0  0  0  0  0  0
    3.1730    0.4819    0.7250 C   0  0  0  0  0  0  0  0  0  0  0  0
    0.9978   -1.1105    1.4524 H   0  0  0  0  0  0  0  0  0  0  0  0
   -0.8183   -1.8567   -0.0598 H   0  0  0  0  0  0  0  0  0  0  0  0
   -0.3779   -0.6338   -1.2519 H   0  0  0  0  0  0  0  0  0  0  0  0
    1.2075    1.2709    0.7912 H   0  0  0  0  0  0  0  0  0  0  0  0
    3.2943    0.2769    1.8027 H   0  0  0  0  0  0  0  0  0  0  0  0
    2.6411   -1.9641    0.2209 H   0  0  0  0  0  0  0  0  0  0  0  0
    2.0736    1.7878   -1.1921 H   0  0  0  0  0  0  0  0  0  0  0  0
   -4.2663   -1.3609    0.0163 H   0  0  0  0  0  0  0  0  0  0  0  0
   -3.4360    0.8142   -1.9641 H   0  0  0  0  0  0  0  0  0  0  0  0
  1  2  1  0  0  0  0
  1  5  1  0  0  0  0
  1  6  1  0  0  0  0
  1  7  2  0  0  0  0
  2 10  1  0  0  0  0
  3  9  1  0  0  0  0
  3 18  1  0  0  0  0
  4 11  1  0  0  0  0
  4 19  1  0  0  0  0
  5 20  1  0  0  0  0
  6 21  1  0  0  0  0
  8 12  2  0  0  0  0
  9 10  1  0  0  0  0
  9 11  1  0  0  0  0
  9 13  1  0  0  0  0
 10 14  1  0  0  0  0
 10 15  1  0  0  0  0
 11 12  1  0  0  0  0
 11 16  1  0  0  0  0
 12 17  1  0  0  0  0
M  END
> <PUBCHEM_COMPOUND_CID>
439910

> <PUBCHEM_CONFORMER_RMSD>
0.6

> <PUBCHEM_CONFORMER_DIVERSEORDER>
4
29
22
25
16
23
6
28
17
27
20
8
7
31
14
12
2
32
10
15
11
21
24
13
26
19
3
5
1
30
18
9

> <PUBCHEM_MMFF94_PARTIAL_CHARGES>
17
1 1.51
10 0.28
11 0.34
12 0.45
17 0.06
18 0.4
19 0.4
2 -0.55
20 0.5
21 0.5
3 -0.68
4 -0.68
5 -0.77
6 -0.77
7 -0.7
8 -0.57
9 0.28

> <PUBCHEM_EFFECTIVE_ROTOR_COUNT>
5

> <PUBCHEM_PHARMACOPHORE_FEATURES>
9
1 3 acceptor
1 3 donor
1 4 acceptor
1 4 donor
1 5 acceptor
1 6 acceptor
1 7 acceptor
1 8 acceptor
4 1 5 6 7 anion

> <PUBCHEM_HEAVY_ATOM_COUNT>
12

> <PUBCHEM_ATOM_DEF_STEREO_COUNT>
2

> <PUBCHEM_ATOM_UDEF_STEREO_COUNT>
0

> <PUBCHEM_BOND_DEF_STEREO_COUNT>
0

> <PUBCHEM_BOND_UDEF_STEREO_COUNT>
0

> <PUBCHEM_ISOTOPIC_ATOM_COUNT>
0

> <PUBCHEM_COMPONENT_COUNT>
1

> <PUBCHEM_CACTVS_TAUTO_COUNT>
6

> <PUBCHEM_CONFORMER_ID>
0006B66600000004

> <PUBCHEM_MMFF94_ENERGY>
-18.2358

> <PUBCHEM_FEATURE_SELFOVERLAP>
45.718

> <PUBCHEM_SHAPE_FINGERPRINT>
10219947 1 17989211438785166440
124424 183 16271663242272092620
12932764 1 17702943772377700363
14325111 11 18335138699993661515
14390081 3 18259985976676392801
15775835 57 18113617914960767993
170605 34 18412826880535458890
18186145 218 18341330097319926722
20281407 28 11167952372038135024
20645464 45 17489586779439138235
20871999 31 15647064750488104709
21028194 46 18270683065110121242
22485316 2 10231765474243565296
23402539 116 17240206534337749344
3248919 1 18262531389160600035
8030462 33 17822304504125933339

> <PUBCHEM_SHAPE_MULTIPOLES>
209.72
6.67
1.34
0.97
0.1
0.42
-0.24
-1.85
0.59
0.06
0.01
0.31
-0.24
-0.09

> <PUBCHEM_SHAPE_SELFOVERLAP>
385.58

> <PUBCHEM_SHAPE_VOLUME>
132.7

> <PUBCHEM_COORDINATE_TYPE>
2
5
10

$$$$

