17395789
  -OEChem-06241222522D

 44 46  0     1  0  0  0  0  0999 V2000
    2.0000   -2.3912    0.0000 S   0  0  0  0  0  0  0  0  0  0  0  0
    9.0840    0.1624    0.0000 O   0  0  0  0  0  0  0  0  0  0  0  0
   10.3732    1.3192    0.0000 O   0  0  0  0  0  0  0  0  0  0  0  0
    7.1270   -0.2500    0.0000 N   0  0  3  0  0  0  0  0  0  0  0  0
    8.7268    1.8572    0.0000 N   0  0  0  0  0  0  0  0  0  0  0  0
    3.4782   -3.0493    0.0000 N   0  0  0  0  0  0  0  0  0  0  0  0
   10.0160    3.0140    0.0000 N   0  0  0  0  0  0  0  0  0  0  0  0
    7.7106   -1.0548    0.0000 C   0  0  0  0  0  0  0  0  0  0  0  0
    7.1270   -1.8595    0.0000 C   0  0  0  0  0  0  0  0  0  0  0  0
    6.1808   -1.5548    0.0000 C   0  0  0  0  0  0  0  0  0  0  0  0
    6.1808   -0.5547    0.0000 C   0  0  0  0  0  0  0  0  0  0  0  0
    7.4376    0.7005    0.0000 C   0  0  0  0  0  0  0  0  0  0  0  0
    5.3147   -2.0548    0.0000 C   0  0  0  0  0  0  0  0  0  0  0  0
    5.3147   -0.0547    0.0000 C   0  0  0  0  0  0  0  0  0  0  0  0
    4.4487   -1.5548    0.0000 C   0  0  0  0  0  0  0  0  0  0  0  0
    4.4487   -0.5547    0.0000 C   0  0  0  0  0  0  0  0  0  0  0  0
    8.4161    0.9067    0.0000 C   0  0  0  0  0  0  0  0  0  0  0  0
    3.5827   -2.0548    0.0000 C   0  0  0  0  0  0  0  0  0  0  0  0
    2.6691   -1.6480    0.0000 C   0  0  0  0  0  0  0  0  0  0  0  0
    2.5000   -3.2572    0.0000 C   0  0  0  0  0  0  0  0  0  0  0  0
    9.7053    2.0635    0.0000 C   0  0  0  0  0  0  0  0  0  0  0  0
    2.0933   -4.1707    0.0000 C   0  0  0  0  0  0  0  0  0  0  0  0
   10.9945    3.2202    0.0000 C   0  0  0  0  0  0  0  0  0  0  0  0
   11.3051    4.1707    0.0000 C   0  0  0  0  0  0  0  0  0  0  0  0
    8.1714   -1.4695    0.0000 H   0  0  0  0  0  0  0  0  0  0  0  0
    8.1714   -0.6400    0.0000 H   0  0  0  0  0  0  0  0  0  0  0  0
    6.8759   -2.4264    0.0000 H   0  0  0  0  0  0  0  0  0  0  0  0
    7.6644   -2.1687    0.0000 H   0  0  0  0  0  0  0  0  0  0  0  0
    7.4171    1.3202    0.0000 H   0  0  0  0  0  0  0  0  0  0  0  0
    6.8238    0.7879    0.0000 H   0  0  0  0  0  0  0  0  0  0  0  0
    5.3147   -2.6748    0.0000 H   0  0  0  0  0  0  0  0  0  0  0  0
    5.3147    0.5653    0.0000 H   0  0  0  0  0  0  0  0  0  0  0  0
    3.9118   -0.2447    0.0000 H   0  0  0  0  0  0  0  0  0  0  0  0
    8.3127    2.3187    0.0000 H   0  0  0  0  0  0  0  0  0  0  0  0
    2.5402   -1.0416    0.0000 H   0  0  0  0  0  0  0  0  0  0  0  0
    9.6019    3.4754    0.0000 H   0  0  0  0  0  0  0  0  0  0  0  0
    1.5269   -3.9186    0.0000 H   0  0  0  0  0  0  0  0  0  0  0  0
    1.8411   -4.7371    0.0000 H   0  0  0  0  0  0  0  0  0  0  0  0
    2.6597   -4.4229    0.0000 H   0  0  0  0  0  0  0  0  0  0  0  0
   11.0150    2.6006    0.0000 H   0  0  0  0  0  0  0  0  0  0  0  0
   11.6083    3.1328    0.0000 H   0  0  0  0  0  0  0  0  0  0  0  0
   11.8945    3.9781    0.0000 H   0  0  0  0  0  0  0  0  0  0  0  0
   11.4978    4.7600    0.0000 H   0  0  0  0  0  0  0  0  0  0  0  0
   10.7158    4.3633    0.0000 H   0  0  0  0  0  0  0  0  0  0  0  0
  1 19  1  0  0  0  0
  1 20  1  0  0  0  0
  2 17  2  0  0  0  0
  3 21  2  0  0  0  0
  4  8  1  0  0  0  0
  4 11  1  0  0  0  0
  4 12  1  0  0  0  0
  5 17  1  0  0  0  0
  5 21  1  0  0  0  0
  5 34  1  0  0  0  0
  6 18  1  0  0  0  0
  6 20  2  0  0  0  0
  7 21  1  0  0  0  0
  7 23  1  0  0  0  0
  7 36  1  0  0  0  0
  8  9  1  0  0  0  0
  8 25  1  0  0  0  0
  8 26  1  0  0  0  0
  9 10  1  0  0  0  0
  9 27  1  0  0  0  0
  9 28  1  0  0  0  0
 10 11  2  0  0  0  0
 10 13  1  0  0  0  0
 11 14  1  0  0  0  0
 12 17  1  0  0  0  0
 12 29  1  0  0  0  0
 12 30  1  0  0  0  0
 13 15  2  0  0  0  0
 13 31  1  0  0  0  0
 14 16  2  0  0  0  0
 14 32  1  0  0  0  0
 15 16  1  0  0  0  0
 15 18  1  0  0  0  0
 16 33  1  0  0  0  0
 18 19  2  0  0  0  0
 19 35  1  0  0  0  0
 20 22  1  0  0  0  0
 22 37  1  0  0  0  0
 22 38  1  0  0  0  0
 22 39  1  0  0  0  0
 23 24  1  0  0  0  0
 23 40  1  0  0  0  0
 23 41  1  0  0  0  0
 24 42  1  0  0  0  0
 24 43  1  0  0  0  0
 24 44  1  0  0  0  0
M  END
> <PUBCHEM_COMPOUND_CID>
17395789

> <PUBCHEM_COMPOUND_CANONICALIZED>
1

> <PUBCHEM_CACTVS_COMPLEXITY>
476

> <PUBCHEM_CACTVS_HBOND_ACCEPTOR>
5

> <PUBCHEM_CACTVS_HBOND_DONOR>
2

> <PUBCHEM_CACTVS_ROTATABLE_BOND>
4

> <PUBCHEM_CACTVS_SUBSKEYS>
AAADceB7sABAAAAAAAAAAAAAAAAAAWLAAAAwAAAAAAAAAFgBwAAAHgQQAAAADAjF3gSzwZPIEAisAyVyVACC8KBhCjgIiLS4ZJiIYKLgkbGUIAholyLoyAcQgMAOCAACAAACAAAQAAQAAAQAAAAAAAAAAA==

> <PUBCHEM_IUPAC_OPENEYE_NAME>
N-(ethylcarbamoyl)-2-[5-(2-methylthiazol-4-yl)indolin-1-yl]acetamide

> <PUBCHEM_IUPAC_CAS_NAME>
N-(ethylcarbamoyl)-2-[5-(2-methyl-4-thiazolyl)-2,3-dihydroindol-1-yl]acetamide

> <PUBCHEM_IUPAC_NAME>
N-(ethylcarbamoyl)-2-[5-(2-methyl-1,3-thiazol-4-yl)-2,3-dihydroindol-1-yl]acetamide

> <PUBCHEM_IUPAC_SYSTEMATIC_NAME>
N-(ethylcarbamoyl)-2-[5-(2-methyl-1,3-thiazol-4-yl)-2,3-dihydroindol-1-yl]ethanamide

> <PUBCHEM_IUPAC_TRADITIONAL_NAME>
N-(ethylcarbamoyl)-2-[5-(2-methylthiazol-4-yl)indolin-1-yl]acetamide

> <PUBCHEM_IUPAC_INCHI>
InChI=1S/C17H20N4O2S/c1-3-18-17(23)20-16(22)9-21-7-6-13-8-12(4-5-15(13)21)14-10-24-11(2)19-14/h4-5,8,10H,3,6-7,9H2,1-2H3,(H2,18,20,22,23)

> <PUBCHEM_IUPAC_INCHIKEY>
FJGOFBCYRBNTKF-UHFFFAOYSA-N

> <PUBCHEM_XLOGP3_AA>
3

> <PUBCHEM_EXACT_MASS>
344.130697

> <PUBCHEM_MOLECULAR_FORMULA>
C17H20N4O2S

> <PUBCHEM_MOLECULAR_WEIGHT>
344.4313

> <PUBCHEM_OPENEYE_CAN_SMILES>
CCNC(=O)NC(=O)CN1CCC2=C1C=CC(=C2)C3=CSC(=N3)C

> <PUBCHEM_OPENEYE_ISO_SMILES>
CCNC(=O)NC(=O)CN1CCC2=C1C=CC(=C2)C3=CSC(=N3)C

> <PUBCHEM_CACTVS_TPSA>
103

> <PUBCHEM_MONOISOTOPIC_WEIGHT>
344.130697

> <PUBCHEM_TOTAL_CHARGE>
0

> <PUBCHEM_HEAVY_ATOM_COUNT>
24

> <PUBCHEM_ATOM_DEF_STEREO_COUNT>
0

> <PUBCHEM_ATOM_UDEF_STEREO_COUNT>
0

> <PUBCHEM_BOND_DEF_STEREO_COUNT>
0

> <PUBCHEM_BOND_UDEF_STEREO_COUNT>
0

> <PUBCHEM_ISOTOPIC_ATOM_COUNT>
0

> <PUBCHEM_COMPONENT_COUNT>
1

> <PUBCHEM_CACTVS_TAUTO_COUNT>
5

> <PUBCHEM_COORDINATE_TYPE>
1
5
255

> <PUBCHEM_BONDANNOTATIONS>
1  19  8
1  20  8
10  11  8
10  13  8
11  14  8
13  15  8
14  16  8
15  16  8
18  19  8
6  18  8
6  20  8

$$$$

