442849
  -OEChem-07051212593D

 25 26  0     0  0  0  0  0  0999 V2000
   -1.5374    2.0040   -0.3174 O   0  0  0  0  0  0  0  0  0  0  0  0
   -1.8577   -2.7725    0.1394 O   0  0  0  0  0  0  0  0  0  0  0  0
    3.2869   -1.2981    0.1394 O   0  0  0  0  0  0  0  0  0  0  0  0
    2.6920    0.9661   -0.0976 N   0  0  0  0  0  0  0  0  0  0  0  0
    0.4239    0.6691   -0.1324 C   0  0  0  0  0  0  0  0  0  0  0  0
    1.0196   -0.5855    0.0063 C   0  0  0  0  0  0  0  0  0  0  0  0
    1.4647    1.7321   -0.2063 C   0  0  0  0  0  0  0  0  0  0  0  0
   -0.9521    0.7856   -0.1821 C   0  0  0  0  0  0  0  0  0  0  0  0
   -1.7164   -0.3826   -0.0897 C   0  0  0  0  0  0  0  0  0  0  0  0
    2.4736   -0.4000    0.0293 C   0  0  0  0  0  0  0  0  0  0  0  0
    0.2892   -1.7537    0.0996 C   0  0  0  0  0  0  0  0  0  0  0  0
   -1.1010   -1.6406    0.0498 C   0  0  0  0  0  0  0  0  0  0  0  0
   -3.2096   -0.2939   -0.1398 C   0  0  0  0  0  0  0  0  0  0  0  0
   -1.2758    2.9697    0.7015 C   0  0  0  0  0  0  0  0  0  0  0  0
    1.4622    2.2597   -1.1632 H   0  0  0  0  0  0  0  0  0  0  0  0
    1.4347    2.4239    0.6378 H   0  0  0  0  0  0  0  0  0  0  0  0
    3.6167    1.3846   -0.1126 H   0  0  0  0  0  0  0  0  0  0  0  0
    0.7722   -2.7184    0.2072 H   0  0  0  0  0  0  0  0  0  0  0  0
   -3.5978   -0.8623   -0.9919 H   0  0  0  0  0  0  0  0  0  0  0  0
   -3.6463   -0.6790    0.7880 H   0  0  0  0  0  0  0  0  0  0  0  0
   -3.5733    0.7318   -0.2560 H   0  0  0  0  0  0  0  0  0  0  0  0
   -2.8045   -2.5694    0.0990 H   0  0  0  0  0  0  0  0  0  0  0  0
   -0.9639    2.5095    1.6456 H   0  0  0  0  0  0  0  0  0  0  0  0
   -2.2011    3.5244    0.8831 H   0  0  0  0  0  0  0  0  0  0  0  0
   -0.5209    3.6788    0.3512 H   0  0  0  0  0  0  0  0  0  0  0  0
  1  8  1  0  0  0  0
  1 14  1  0  0  0  0
  2 12  1  0  0  0  0
  2 22  1  0  0  0  0
  3 10  2  0  0  0  0
  4  7  1  0  0  0  0
  4 10  1  0  0  0  0
  4 17  1  0  0  0  0
  5  6  1  0  0  0  0
  5  7  1  0  0  0  0
  5  8  2  0  0  0  0
  6 10  1  0  0  0  0
  6 11  2  0  0  0  0
  7 15  1  0  0  0  0
  7 16  1  0  0  0  0
  8  9  1  0  0  0  0
  9 12  2  0  0  0  0
  9 13  1  0  0  0  0
 11 12  1  0  0  0  0
 11 18  1  0  0  0  0
 13 19  1  0  0  0  0
 13 20  1  0  0  0  0
 13 21  1  0  0  0  0
 14 23  1  0  0  0  0
 14 24  1  0  0  0  0
 14 25  1  0  0  0  0
M  END
> <PUBCHEM_COMPOUND_CID>
442849

> <PUBCHEM_CONFORMER_RMSD>
0.6

> <PUBCHEM_CONFORMER_DIVERSEORDER>
1

> <PUBCHEM_MMFF94_PARTIAL_CHARGES>
17
1 -0.36
10 0.54
11 -0.15
12 0.08
13 0.14
14 0.28
17 0.37
18 0.15
2 -0.53
22 0.45
3 -0.57
4 -0.73
5 -0.14
6 0.09
7 0.44
8 0.08
9 -0.14

> <PUBCHEM_EFFECTIVE_ROTOR_COUNT>
1.4

> <PUBCHEM_PHARMACOPHORE_FEATURES>
6
1 1 acceptor
1 2 donor
1 3 acceptor
1 4 donor
5 4 5 6 7 10 rings
6 5 6 8 9 11 12 rings

> <PUBCHEM_HEAVY_ATOM_COUNT>
14

> <PUBCHEM_ATOM_DEF_STEREO_COUNT>
0

> <PUBCHEM_ATOM_UDEF_STEREO_COUNT>
0

> <PUBCHEM_BOND_DEF_STEREO_COUNT>
0

> <PUBCHEM_BOND_UDEF_STEREO_COUNT>
0

> <PUBCHEM_ISOTOPIC_ATOM_COUNT>
0

> <PUBCHEM_COMPONENT_COUNT>
1

> <PUBCHEM_CACTVS_TAUTO_COUNT>
6

> <PUBCHEM_CONFORMER_ID>
0006C1E100000001

> <PUBCHEM_MMFF94_ENERGY>
49.7825

> <PUBCHEM_FEATURE_SELFOVERLAP>
30.534

> <PUBCHEM_SHAPE_FINGERPRINT>
10967382 1 18339080376243746663
11206711 2 18340769354990044197
12382932 28 18193562164065239552
13140716 1 18339642230928176131
13380535 76 18050853517891913389
15076042 46 18409448102540613212
16945 1 18410571803382112726
193761 8 17762056949149833799
19591789 44 17040061616299566118
20510252 161 18261678172200363344
21501502 16 18267866086239404126
2334 1 18123187896554572223
23402539 116 18262815050138410631
23419403 2 16756692821035884956
23463225 33 18340767022775504623
23552423 10 18057323886075962126
23559900 14 18335988584792727088
2748010 2 18194402182359023095
3312278 4 18268988679068693676
353137 74 18341621433668013089
5084963 1 18187086190885539930
528886 8 18338521815778712859
7364860 26 17399230850782738345
81228 2 18411419505372194313

> <PUBCHEM_SHAPE_MULTIPOLES>
265.52
3.99
2.89
0.65
1.22
0.76
0.02
-0.72
-0.04
-1.3
0.43
-0.07
0.12
-0.19

> <PUBCHEM_SHAPE_SELFOVERLAP>
578.297

> <PUBCHEM_SHAPE_VOLUME>
148.4

> <PUBCHEM_COORDINATE_TYPE>
2
5
10

$$$$

