3429
  -OEChem-06251223243D

 25 24  0     1  0  0  0  0  0999 V2000
    0.0945   -1.7005    0.8957 O   0  0  0  0  0  0  0  0  0  0  0  0
   -0.9029   -0.7869   -1.5961 O   0  0  0  0  0  0  0  0  0  0  0  0
    2.6818   -0.9454    0.5718 O   0  0  0  0  0  0  0  0  0  0  0  0
   -3.2168    0.4030   -0.6551 O   0  0  0  0  0  0  0  0  0  0  0  0
    2.3887    1.8273    0.2683 O   0  0  0  0  0  0  0  0  0  0  0  0
    0.3616   -0.3789    0.4100 C   0  0  2  0  0  0  0  0  0  0  0  0
   -0.8330    0.0702   -0.4508 C   0  0  2  0  0  0  0  0  0  0  0  0
    1.7084   -0.4154   -0.3367 C   0  0  1  0  0  0  0  0  0  0  0  0
   -2.1937    0.0179    0.2681 C   0  0  1  0  0  0  0  0  0  0  0  0
    2.2054    0.9423   -0.8300 C   0  0  0  0  0  0  0  0  0  0  0  0
   -2.2940    0.9664    1.4548 C   0  0  0  0  0  0  0  0  0  0  0  0
    0.4490    0.2627    1.2938 H   0  0  0  0  0  0  0  0  0  0  0  0
   -0.6698    1.0830   -0.8343 H   0  0  0  0  0  0  0  0  0  0  0  0
    1.6584   -1.1197   -1.1740 H   0  0  0  0  0  0  0  0  0  0  0  0
   -2.4304   -1.0036    0.5860 H   0  0  0  0  0  0  0  0  0  0  0  0
    1.5095    1.3940   -1.5422 H   0  0  0  0  0  0  0  0  0  0  0  0
    3.1794    0.8252   -1.3168 H   0  0  0  0  0  0  0  0  0  0  0  0
   -2.0719    1.9957    1.1528 H   0  0  0  0  0  0  0  0  0  0  0  0
   -3.3136    0.9702    1.8556 H   0  0  0  0  0  0  0  0  0  0  0  0
   -1.6118    0.6815    2.2604 H   0  0  0  0  0  0  0  0  0  0  0  0
    0.8473   -1.9635    1.4524 H   0  0  0  0  0  0  0  0  0  0  0  0
   -1.0356   -1.6958   -1.2761 H   0  0  0  0  0  0  0  0  0  0  0  0
    2.7744   -0.3148    1.3065 H   0  0  0  0  0  0  0  0  0  0  0  0
   -3.1583   -0.1960   -1.4190 H   0  0  0  0  0  0  0  0  0  0  0  0
    2.7126    2.6692   -0.0949 H   0  0  0  0  0  0  0  0  0  0  0  0
  1  6  1  0  0  0  0
  1 21  1  0  0  0  0
  2  7  1  0  0  0  0
  2 22  1  0  0  0  0
  3  8  1  0  0  0  0
  3 23  1  0  0  0  0
  4  9  1  0  0  0  0
  4 24  1  0  0  0  0
  5 10  1  0  0  0  0
  5 25  1  0  0  0  0
  6  7  1  0  0  0  0
  6  8  1  0  0  0  0
  6 12  1  0  0  0  0
  7  9  1  0  0  0  0
  7 13  1  0  0  0  0
  8 10  1  0  0  0  0
  8 14  1  0  0  0  0
  9 11  1  0  0  0  0
  9 15  1  0  0  0  0
 10 16  1  0  0  0  0
 10 17  1  0  0  0  0
 11 18  1  0  0  0  0
 11 19  1  0  0  0  0
 11 20  1  0  0  0  0
M  END
> <PUBCHEM_COMPOUND_CID>
3429

> <PUBCHEM_CONFORMER_RMSD>
0.6

> <PUBCHEM_CONFORMER_DIVERSEORDER>
20
217
113
188
141
66
115
197
87
46
213
11
222
129
209
135
173
61
216
79
176
187
91
161
208
195
179
182
44
210
57
15
190
224
74
193
177
84
158
126
127
49
118
174
155
3
227
123
181
26
202
63
186
192
159
144
160
226
125
1
90
17
136
175
105
180
220
59
40
119
64
134
67
200
2
204
143
14
165
219
33
51
196
112
108
138
82
205
31
52
121
18
218
35
101
194
104
4
100
6
75
28
150
203
145
184
65
89
30
162
189
128
163
13
212
131
151
71
169
70
114
7
147
148
152
102
47
139
185
16
122
81
60
164
183
215
55
12
86
69
156
109
198
9
132
29
191
95
25
43
133
116
199
62
120
225
56
130
80
201
137
172
98
5
27
73
45
171
22
21
178
124
142
34
36
206
211
149
58
41
48
221
214
77
37
50
167
53
83
42
23
85
72
92
8
32
107
78
207
68
103
39
10
170
153
96
168
76
110
24
157
94
140
166
117
223
146
111
93
106
88
54
154
38
97
19
99

> <PUBCHEM_MMFF94_PARTIAL_CHARGES>
15
1 -0.68
10 0.28
2 -0.68
21 0.4
22 0.4
23 0.4
24 0.4
25 0.4
3 -0.68
4 -0.68
5 -0.68
6 0.28
7 0.28
8 0.28
9 0.28

> <PUBCHEM_EFFECTIVE_ROTOR_COUNT>
4

> <PUBCHEM_PHARMACOPHORE_FEATURES>
10
1 1 acceptor
1 1 donor
1 2 acceptor
1 2 donor
1 3 acceptor
1 3 donor
1 4 acceptor
1 4 donor
1 5 acceptor
1 5 donor

> <PUBCHEM_HEAVY_ATOM_COUNT>
11

> <PUBCHEM_ATOM_DEF_STEREO_COUNT>
0

> <PUBCHEM_ATOM_UDEF_STEREO_COUNT>
4

> <PUBCHEM_BOND_DEF_STEREO_COUNT>
0

> <PUBCHEM_BOND_UDEF_STEREO_COUNT>
0

> <PUBCHEM_ISOTOPIC_ATOM_COUNT>
0

> <PUBCHEM_COMPONENT_COUNT>
1

> <PUBCHEM_CACTVS_TAUTO_COUNT>
1

> <PUBCHEM_CONFORMER_ID>
00000D6500000014

> <PUBCHEM_MMFF94_ENERGY>
23.5874

> <PUBCHEM_FEATURE_SELFOVERLAP>
50.78

> <PUBCHEM_SHAPE_FINGERPRINT>
10857977 72 15841258277607918737
12932764 1 18059844078316749067
14390081 3 18335978683996323945
15775835 57 18334565850220120865
16945 1 18264760124678015831
17357990 137 17896022394839059032
17834069 17 17986649546221599449
18175812 5 16917342649743572015
20653085 51 17604685838098489968
20711985 344 6121132354817535050
20715346 28 17060044939544459617
21028194 46 18341889667017736220
21040471 1 17987791908975451390
21061003 4 17771912898298436370
23235685 24 17988360360887695068
23552423 10 17314214747696904895
3248919 1 18113333137185809663
369184 2 18273215279091054717
5084963 1 18335425711293843489

> <PUBCHEM_SHAPE_MULTIPOLES>
197.03
4.33
1.38
1.22
0.61
0.22
0.08
1.35
-0.05
-0.66
-0.27
0.41
-0.12
-0.58

> <PUBCHEM_SHAPE_SELFOVERLAP>
367.689

> <PUBCHEM_SHAPE_VOLUME>
123.2

> <PUBCHEM_COORDINATE_TYPE>
2
5
10

$$$$

