46173814
  -OEChem-07051213093D

 52 55  0     1  0  0  0  0  0999 V2000
    1.6823    0.8619   -1.7086 O   0  0  0  0  0  0  0  0  0  0  0  0
   -1.8742    3.6750   -0.4153 O   0  0  0  0  0  0  0  0  0  0  0  0
   -3.6651    2.4540    1.3434 O   0  0  0  0  0  0  0  0  0  0  0  0
    4.0884    0.5510   -0.6212 O   0  0  0  0  0  0  0  0  0  0  0  0
    4.3981   -0.7796    1.7774 O   0  0  0  0  0  0  0  0  0  0  0  0
   -2.1975   -2.5842   -1.0664 N   0  0  1  0  0  0  0  0  0  0  0  0
   -0.8203    0.0108   -0.5307 C   0  0  2  0  0  0  0  0  0  0  0  0
   -2.1651   -2.0261    0.3014 C   0  0  2  0  0  0  0  0  0  0  0  0
   -2.0261   -0.5144    0.2441 C   0  0  0  0  0  0  0  0  0  0  0  0
   -0.8966   -0.6726   -1.9307 C   0  0  0  0  0  0  0  0  0  0  0  0
   -1.0252   -2.2027   -1.8602 C   0  0  0  0  0  0  0  0  0  0  0  0
    0.5549   -0.2819    0.1418 C   0  0  0  0  0  0  0  0  0  0  0  0
   -1.1309   -2.6751    1.2502 C   0  0  0  0  0  0  0  0  0  0  0  0
   -0.3609   -1.6842    2.1242 C   0  0  0  0  0  0  0  0  0  0  0  0
    0.7446   -0.9997    1.3490 C   0  0  0  0  0  0  0  0  0  0  0  0
   -0.9489    1.5218   -0.7500 C   0  0  0  0  0  0  0  0  0  0  0  0
   -2.9499    0.2726    0.8209 C   0  0  0  0  0  0  0  0  0  0  0  0
    1.7190    0.2138   -0.5020 C   0  0  0  0  0  0  0  0  0  0  0  0
   -2.4308   -4.0243   -1.1036 C   0  0  0  0  0  0  0  0  0  0  0  0
   -1.8580    2.3182   -0.1755 C   0  0  0  0  0  0  0  0  0  0  0  0
   -2.8798    1.7439    0.7246 C   0  0  0  0  0  0  0  0  0  0  0  0
    2.0482   -1.1364    1.8798 C   0  0  0  0  0  0  0  0  0  0  0  0
    2.9985    0.0541    0.0312 C   0  0  0  0  0  0  0  0  0  0  0  0
    3.1625   -0.6143    1.2311 C   0  0  0  0  0  0  0  0  0  0  0  0
    2.4181    0.2727   -2.7743 C   0  0  0  0  0  0  0  0  0  0  0  0
   -1.0658    4.3615    0.5213 C   0  0  0  0  0  0  0  0  0  0  0  0
    4.4806    1.8839   -0.3020 C   0  0  0  0  0  0  0  0  0  0  0  0
   -3.1523   -2.2460    0.7340 H   0  0  0  0  0  0  0  0  0  0  0  0
   -1.7826   -0.2927   -2.4647 H   0  0  0  0  0  0  0  0  0  0  0  0
   -0.0618   -0.4337   -2.5871 H   0  0  0  0  0  0  0  0  0  0  0  0
   -1.1424   -2.5747   -2.8857 H   0  0  0  0  0  0  0  0  0  0  0  0
   -0.1024   -2.6451   -1.4669 H   0  0  0  0  0  0  0  0  0  0  0  0
   -1.6720   -3.3716    1.9053 H   0  0  0  0  0  0  0  0  0  0  0  0
   -0.4094   -3.2967    0.7061 H   0  0  0  0  0  0  0  0  0  0  0  0
   -1.0081   -0.9425    2.6047 H   0  0  0  0  0  0  0  0  0  0  0  0
    0.0735   -2.2602    2.9520 H   0  0  0  0  0  0  0  0  0  0  0  0
   -0.2711    2.0090   -1.4451 H   0  0  0  0  0  0  0  0  0  0  0  0
   -3.7886   -0.1395    1.3720 H   0  0  0  0  0  0  0  0  0  0  0  0
   -3.3252   -4.2875   -0.5282 H   0  0  0  0  0  0  0  0  0  0  0  0
   -1.5871   -4.6043   -0.7160 H   0  0  0  0  0  0  0  0  0  0  0  0
   -2.6169   -4.3508   -2.1330 H   0  0  0  0  0  0  0  0  0  0  0  0
    2.1912   -1.6776    2.8140 H   0  0  0  0  0  0  0  0  0  0  0  0
    3.3548    0.8137   -2.9358 H   0  0  0  0  0  0  0  0  0  0  0  0
    2.6096   -0.7957   -2.6225 H   0  0  0  0  0  0  0  0  0  0  0  0
    1.8284    0.3796   -3.6903 H   0  0  0  0  0  0  0  0  0  0  0  0
    4.3142   -1.2705    2.6128 H   0  0  0  0  0  0  0  0  0  0  0  0
   -1.4196    4.2051    1.5463 H   0  0  0  0  0  0  0  0  0  0  0  0
   -0.0158    4.0599    0.4366 H   0  0  0  0  0  0  0  0  0  0  0  0
   -1.1267    5.4321    0.3038 H   0  0  0  0  0  0  0  0  0  0  0  0
    3.6718    2.5887   -0.5197 H   0  0  0  0  0  0  0  0  0  0  0  0
    4.7687    1.9582    0.7513 H   0  0  0  0  0  0  0  0  0  0  0  0
    5.3448    2.1433   -0.9195 H   0  0  0  0  0  0  0  0  0  0  0  0
  1 18  1  0  0  0  0
  1 25  1  0  0  0  0
  2 20  1  0  0  0  0
  2 26  1  0  0  0  0
  3 21  2  0  0  0  0
  4 23  1  0  0  0  0
  4 27  1  0  0  0  0
  5 24  1  0  0  0  0
  5 46  1  0  0  0  0
  6  8  1  0  0  0  0
  6 11  1  0  0  0  0
  6 19  1  0  0  0  0
  7  9  1  0  0  0  0
  7 10  1  0  0  0  0
  7 12  1  0  0  0  0
  7 16  1  0  0  0  0
  8  9  1  0  0  0  0
  8 13  1  0  0  0  0
  8 28  1  0  0  0  0
  9 17  2  0  0  0  0
 10 11  1  0  0  0  0
 10 29  1  0  0  0  0
 10 30  1  0  0  0  0
 11 31  1  0  0  0  0
 11 32  1  0  0  0  0
 12 15  1  0  0  0  0
 12 18  2  0  0  0  0
 13 14  1  0  0  0  0
 13 33  1  0  0  0  0
 13 34  1  0  0  0  0
 14 15  1  0  0  0  0
 14 35  1  0  0  0  0
 14 36  1  0  0  0  0
 15 22  2  0  0  0  0
 16 20  2  0  0  0  0
 16 37  1  0  0  0  0
 17 21  1  0  0  0  0
 17 38  1  0  0  0  0
 18 23  1  0  0  0  0
 19 39  1  0  0  0  0
 19 40  1  0  0  0  0
 19 41  1  0  0  0  0
 20 21  1  0  0  0  0
 22 24  1  0  0  0  0
 22 42  1  0  0  0  0
 23 24  2  0  0  0  0
 25 43  1  0  0  0  0
 25 44  1  0  0  0  0
 25 45  1  0  0  0  0
 26 47  1  0  0  0  0
 26 48  1  0  0  0  0
 26 49  1  0  0  0  0
 27 50  1  0  0  0  0
 27 51  1  0  0  0  0
 27 52  1  0  0  0  0
M  END
> <PUBCHEM_COMPOUND_CID>
46173814

> <PUBCHEM_CONFORMER_RMSD>
0.8

> <PUBCHEM_CONFORMER_DIVERSEORDER>
1
2

> <PUBCHEM_MMFF94_PARTIAL_CHARGES>
29
1 -0.36
11 0.27
12 -0.14
14 0.14
15 -0.14
16 -0.29
17 -0.14
18 0.08
19 0.27
2 -0.36
20 0.09
21 0.54
22 -0.15
23 0.08
24 0.08
25 0.28
26 0.28
27 0.28
3 -0.57
37 0.15
38 0.15
4 -0.36
42 0.15
46 0.45
5 -0.53
6 -0.81
7 0.42
8 0.41
9 -0.28

> <PUBCHEM_EFFECTIVE_ROTOR_COUNT>
4

> <PUBCHEM_PHARMACOPHORE_FEATURES>
10
1 1 acceptor
1 2 acceptor
1 3 acceptor
1 4 acceptor
1 5 donor
1 6 cation
6 12 15 18 22 23 24 rings
6 6 7 8 9 10 11 rings
6 7 9 16 17 20 21 rings
7 7 8 9 12 13 14 15 rings

> <PUBCHEM_HEAVY_ATOM_COUNT>
27

> <PUBCHEM_ATOM_DEF_STEREO_COUNT>
2

> <PUBCHEM_ATOM_UDEF_STEREO_COUNT>
0

> <PUBCHEM_BOND_DEF_STEREO_COUNT>
0

> <PUBCHEM_BOND_UDEF_STEREO_COUNT>
0

> <PUBCHEM_ISOTOPIC_ATOM_COUNT>
0

> <PUBCHEM_COMPONENT_COUNT>
1

> <PUBCHEM_CACTVS_TAUTO_COUNT>
9

> <PUBCHEM_CONFORMER_ID>
02C08E7600000001

> <PUBCHEM_MMFF94_ENERGY>
116.1696

> <PUBCHEM_FEATURE_SELFOVERLAP>
51.377

> <PUBCHEM_SHAPE_FINGERPRINT>
10165383 225 17532351210312118185
10948715 1 18263916795165056531
1100329 8 18197486330277361345
11578080 2 17460285859748006276
12156800 1 14031849209341919928
12714826 92 17459191776721794770
12788726 201 18413389813029208565
13009979 54 18129404655852859218
13681431 1 17325245860253795583
14787075 74 17623292672034334372
15420108 30 17330586613009529752
15664445 248 17829884339403483959
16945 1 18337660975689180551
1813 80 17464550706196188919
18393751 57 16961846221114256880
19930381 70 16826145543226370936
20600515 1 17611227825400341327
21731228 192 18122908891373772745
21756936 100 18271799138722946028
21860390 5 16609155343010847341
22112679 90 18339922593830058099
23419403 2 17247280654880458371
23559900 14 18040989709570721726
23598288 3 18341898480607554667
2748010 2 15825270618505385722
35225 105 18410296951245167689
392239 28 17841695332153501344
6438718 38 18408597050386376923
81228 2 18115042813653715399

> <PUBCHEM_SHAPE_MULTIPOLES>
521.32
6.04
4.23
2.13
6.55
2.78
-0.52
0.74
0.74
-4.83
0.12
0.84
-1.05
-1.86

> <PUBCHEM_SHAPE_SELFOVERLAP>
1137.485

> <PUBCHEM_SHAPE_VOLUME>
281.4

> <PUBCHEM_COORDINATE_TYPE>
2
5
10

$$$$

