3843
  -OEChem-06251223433D

 62 69  0     1  0  0  0  0  0999 V2000
    1.8590   -0.9409    1.3714 O   0  0  0  0  0  0  0  0  0  0  0  0
    3.2223    0.7748   -1.4883 O   0  0  0  0  0  0  0  0  0  0  0  0
    4.4412   -1.9381    0.2986 O   0  0  0  0  0  0  0  0  0  0  0  0
    5.4672    0.0676   -0.2121 O   0  0  0  0  0  0  0  0  0  0  0  0
   -5.2611   -0.8582   -0.1320 O   0  0  0  0  0  0  0  0  0  0  0  0
    1.0688    1.0425    0.3995 N   0  0  0  0  0  0  0  0  0  0  0  0
    0.1126   -1.7715    0.1802 N   0  0  0  0  0  0  0  0  0  0  0  0
   -4.9528    1.4738   -0.1331 N   0  0  0  0  0  0  0  0  0  0  0  0
    2.2792    0.2907    0.7597 C   0  0  2  0  0  0  0  0  0  0  0  0
    3.0780   -0.1875   -0.4664 C   0  0  1  0  0  0  0  0  0  0  0  0
    1.5399   -1.8343    0.3085 C   0  0  1  0  0  0  0  0  0  0  0  0
    2.2720   -1.3780   -0.9513 C   0  0  0  0  0  0  0  0  0  0  0  0
   -0.2502    0.6561    0.2621 C   0  0  0  0  0  0  0  0  0  0  0  0
   -0.7149   -0.6889    0.1850 C   0  0  0  0  0  0  0  0  0  0  0  0
   -1.2957    1.6447    0.1428 C   0  0  0  0  0  0  0  0  0  0  0  0
   -2.1471   -0.8627    0.0675 C   0  0  0  0  0  0  0  0  0  0  0  0
    3.1117    0.9809    1.8515 C   0  0  0  0  0  0  0  0  0  0  0  0
    0.9556    2.4321    0.2146 C   0  0  0  0  0  0  0  0  0  0  0  0
   -0.7786   -2.8281    0.0565 C   0  0  0  0  0  0  0  0  0  0  0  0
   -2.6743    1.4637    0.0517 C   0  0  0  0  0  0  0  0  0  0  0  0
   -0.4206    2.8103    0.1238 C   0  0  0  0  0  0  0  0  0  0  0  0
   -3.1071    0.1448    0.0264 C   0  0  0  0  0  0  0  0  0  0  0  0
   -2.1199   -2.3332    0.0005 C   0  0  0  0  0  0  0  0  0  0  0  0
    4.4741   -0.6411   -0.1206 C   0  0  0  0  0  0  0  0  0  0  0  0
   -3.8324    2.4001   -0.0583 C   0  0  0  0  0  0  0  0  0  0  0  0
   -4.5641    0.1370   -0.0888 C   0  0  0  0  0  0  0  0  0  0  0  0
    1.9542    3.4253    0.1220 C   0  0  0  0  0  0  0  0  0  0  0  0
   -0.5078   -4.2091   -0.0134 C   0  0  0  0  0  0  0  0  0  0  0  0
   -0.7353    4.1875   -0.0064 C   0  0  0  0  0  0  0  0  0  0  0  0
   -3.1569   -3.2926   -0.1225 C   0  0  0  0  0  0  0  0  0  0  0  0
    3.8596    0.2338   -2.6423 C   0  0  0  0  0  0  0  0  0  0  0  0
    1.5997    4.7699   -0.0148 C   0  0  0  0  0  0  0  0  0  0  0  0
    0.2706    5.1505   -0.0688 C   0  0  0  0  0  0  0  0  0  0  0  0
   -1.5650   -5.1106   -0.1326 C   0  0  0  0  0  0  0  0  0  0  0  0
   -2.8737   -4.6601   -0.1851 C   0  0  0  0  0  0  0  0  0  0  0  0
   -6.3152    1.9483   -0.2460 C   0  0  0  0  0  0  0  0  0  0  0  0
    5.7068   -2.4996    0.6607 C   0  0  0  0  0  0  0  0  0  0  0  0
    1.8357   -2.8411    0.6139 H   0  0  0  0  0  0  0  0  0  0  0  0
    2.8526   -2.1957   -1.3947 H   0  0  0  0  0  0  0  0  0  0  0  0
    1.5560   -1.0882   -1.7327 H   0  0  0  0  0  0  0  0  0  0  0  0
    3.7541    0.2607    2.3733 H   0  0  0  0  0  0  0  0  0  0  0  0
    3.7609    1.7672    1.4627 H   0  0  0  0  0  0  0  0  0  0  0  0
    2.4653    1.4152    2.6236 H   0  0  0  0  0  0  0  0  0  0  0  0
   -3.9371    3.0282    0.8303 H   0  0  0  0  0  0  0  0  0  0  0  0
   -3.7926    2.9958   -0.9742 H   0  0  0  0  0  0  0  0  0  0  0  0
    3.0075    3.1693    0.1288 H   0  0  0  0  0  0  0  0  0  0  0  0
    0.5110   -4.5837    0.0221 H   0  0  0  0  0  0  0  0  0  0  0  0
   -1.7724    4.5068   -0.0742 H   0  0  0  0  0  0  0  0  0  0  0  0
   -4.1956   -2.9862   -0.1731 H   0  0  0  0  0  0  0  0  0  0  0  0
    3.9875    1.0620   -3.3474 H   0  0  0  0  0  0  0  0  0  0  0  0
    3.2277   -0.5033   -3.1460 H   0  0  0  0  0  0  0  0  0  0  0  0
    4.8543   -0.1821   -2.4709 H   0  0  0  0  0  0  0  0  0  0  0  0
    2.3798    5.5236   -0.0839 H   0  0  0  0  0  0  0  0  0  0  0  0
    0.0086    6.1992   -0.1752 H   0  0  0  0  0  0  0  0  0  0  0  0
   -1.3578   -6.1760   -0.1857 H   0  0  0  0  0  0  0  0  0  0  0  0
   -3.6883   -5.3731   -0.2792 H   0  0  0  0  0  0  0  0  0  0  0  0
   -6.5455    2.5682    0.6243 H   0  0  0  0  0  0  0  0  0  0  0  0
   -7.0094    1.1052   -0.2885 H   0  0  0  0  0  0  0  0  0  0  0  0
   -6.4064    2.5433   -1.1585 H   0  0  0  0  0  0  0  0  0  0  0  0
    6.3825   -2.4957   -0.1998 H   0  0  0  0  0  0  0  0  0  0  0  0
    5.5423   -3.5340    0.9736 H   0  0  0  0  0  0  0  0  0  0  0  0
    6.1414   -1.9441    1.4972 H   0  0  0  0  0  0  0  0  0  0  0  0
  1  9  1  0  0  0  0
  1 11  1  0  0  0  0
  2 10  1  0  0  0  0
  2 31  1  0  0  0  0
  3 24  1  0  0  0  0
  3 37  1  0  0  0  0
  4 24  2  0  0  0  0
  5 26  2  0  0  0  0
  6  9  1  0  0  0  0
  6 13  1  0  0  0  0
  6 18  1  0  0  0  0
  7 11  1  0  0  0  0
  7 14  1  0  0  0  0
  7 19  1  0  0  0  0
  8 25  1  0  0  0  0
  8 26  1  0  0  0  0
  8 36  1  0  0  0  0
  9 10  1  0  0  0  0
  9 17  1  0  0  0  0
 10 12  1  0  0  0  0
 10 24  1  0  0  0  0
 11 12  1  0  0  0  0
 11 38  1  0  0  0  0
 12 39  1  0  0  0  0
 12 40  1  0  0  0  0
 13 14  2  0  0  0  0
 13 15  1  0  0  0  0
 14 16  1  0  0  0  0
 15 20  2  0  0  0  0
 15 21  1  0  0  0  0
 16 22  2  0  0  0  0
 16 23  1  0  0  0  0
 17 41  1  0  0  0  0
 17 42  1  0  0  0  0
 17 43  1  0  0  0  0
 18 21  1  0  0  0  0
 18 27  2  0  0  0  0
 19 23  1  0  0  0  0
 19 28  2  0  0  0  0
 20 22  1  0  0  0  0
 20 25  1  0  0  0  0
 21 29  2  0  0  0  0
 22 26  1  0  0  0  0
 23 30  2  0  0  0  0
 25 44  1  0  0  0  0
 25 45  1  0  0  0  0
 27 32  1  0  0  0  0
 27 46  1  0  0  0  0
 28 34  1  0  0  0  0
 28 47  1  0  0  0  0
 29 33  1  0  0  0  0
 29 48  1  0  0  0  0
 30 35  1  0  0  0  0
 30 49  1  0  0  0  0
 31 50  1  0  0  0  0
 31 51  1  0  0  0  0
 31 52  1  0  0  0  0
 32 33  2  0  0  0  0
 32 53  1  0  0  0  0
 33 54  1  0  0  0  0
 34 35  2  0  0  0  0
 34 55  1  0  0  0  0
 35 56  1  0  0  0  0
 36 57  1  0  0  0  0
 36 58  1  0  0  0  0
 36 59  1  0  0  0  0
 37 60  1  0  0  0  0
 37 61  1  0  0  0  0
 37 62  1  0  0  0  0
M  END
> <PUBCHEM_COMPOUND_CID>
3843

> <PUBCHEM_CONFORMER_RMSD>
0.8

> <PUBCHEM_CONFORMER_DIVERSEORDER>
2
5
3
1
4

> <PUBCHEM_MMFF94_PARTIAL_CHARGES>
41
1 -0.56
10 0.34
11 0.54
13 -0.05
14 -0.05
15 -0.01
16 -0.01
18 -0.15
19 -0.15
2 -0.56
20 -0.14
22 0.09
24 0.66
25 0.44
26 0.54
27 -0.15
28 -0.15
29 -0.15
3 -0.43
30 -0.15
31 0.28
32 -0.15
33 -0.15
34 -0.15
35 -0.15
36 0.3
37 0.28
4 -0.57
46 0.15
47 0.15
48 0.15
49 0.15
5 -0.57
53 0.15
54 0.15
55 0.15
56 0.15
6 -0.04
7 -0.04
8 -0.66
9 0.54

> <PUBCHEM_EFFECTIVE_ROTOR_COUNT>
4

> <PUBCHEM_PHARMACOPHORE_FEATURES>
14
1 1 acceptor
1 2 acceptor
1 4 acceptor
1 5 acceptor
1 6 cation
1 7 cation
5 1 9 10 11 12 rings
5 6 13 15 18 21 rings
5 7 14 16 19 23 rings
5 8 20 22 25 26 rings
6 13 14 15 16 20 22 rings
6 18 21 27 29 32 33 rings
6 19 23 28 30 34 35 rings
7 1 6 7 9 11 13 14 rings

> <PUBCHEM_HEAVY_ATOM_COUNT>
37

> <PUBCHEM_ATOM_DEF_STEREO_COUNT>
0

> <PUBCHEM_ATOM_UDEF_STEREO_COUNT>
3

> <PUBCHEM_BOND_DEF_STEREO_COUNT>
0

> <PUBCHEM_BOND_UDEF_STEREO_COUNT>
0

> <PUBCHEM_ISOTOPIC_ATOM_COUNT>
0

> <PUBCHEM_COMPONENT_COUNT>
1

> <PUBCHEM_CACTVS_TAUTO_COUNT>
1

> <PUBCHEM_CONFORMER_ID>
00000F0300000002

> <PUBCHEM_MMFF94_ENERGY>
159.1105

> <PUBCHEM_FEATURE_SELFOVERLAP>
72.859

> <PUBCHEM_SHAPE_FINGERPRINT>
10190108 129 17830705988760264585
10675989 125 17333093526151116533
10930396 42 18120970367075947946
1100329 8 18410573955434969713
11285246 1 17107581426976063431
11513181 2 17754733827862237951
11578080 2 17024887952077904715
12058002 1 17460562975227377417
12166972 35 17846211224203853188
12788726 201 18268130124139568604
13140716 1 18265628584213923416
13642711 20 18123210127822398525
138480 1 15744444496608268938
13911987 19 18270126854187559589
140371 6 18187915179677329992
14117953 113 18265901448324160725
14394314 77 18338236067299577960
14725015 67 18119820354726786914
14790565 3 18337946926085727697
15297060 5 17974567201970613736
15320467 1 18266461082119548523
15324884 4 17822845365237027854
15439362 3 18339084774608003157
15484559 13 18264218074900893711
15927050 60 18122058698387393341
16112460 7 18190725459221719425
16728300 4 17197159738987425914
17818456 19 18269837670082421846
18681886 176 18410865381782372827
19311894 1 18410015459162966747
19319366 153 17775285001454999370
19591789 44 18265897037123903923
20028762 73 18260272924164658031
20600515 1 18333452049499752352
20642791 105 17908993445661467688
20775438 99 18115888303598607015
20905425 154 17759795949231253717
21033648 29 18114759182635117033
21781051 124 18128514098837126171
22113638 7 18410860966492578173
22440779 20 16624008177270382850
23558518 356 17983299218718078065
23559900 14 18262802843830942056
24771293 8 18187942680506219305
283562 15 18046346610897567464
3178227 256 18339065078430361321
335352 9 18410295847406599247
3380486 77 18337659927717517416
350125 39 18051133889067232434
3882209 13 17687227155380761006
4280585 95 18336820889129919236
463206 1 18413386548785530774
469060 322 18120927575673939857
9709674 26 18120377558114218751

> <PUBCHEM_SHAPE_MULTIPOLES>
717.15
9.7
6.92
1.06
1.29
0.24
0.37
-1.55
0.94
2.78
0.01
-1.5
0.03
-0.22

> <PUBCHEM_SHAPE_SELFOVERLAP>
1662.2

> <PUBCHEM_SHAPE_VOLUME>
367.2

> <PUBCHEM_COORDINATE_TYPE>
2
5
10

$$$$

