3038097
  -OEChem-07051213113D

 72 73  0     0  0  0  0  0  0999 V2000
   -1.2142   -2.5413    0.0153 S   0  0  0  0  0  0  0  0  0  0  0  0
    0.7588   -3.0936    0.0930 S   0  0  0  0  0  0  0  0  0  0  0  0
   -2.5621   -2.9723    3.1086 O   0  0  0  0  0  0  0  0  0  0  0  0
    1.5882   -4.5757   -2.8326 O   0  0  0  0  0  0  0  0  0  0  0  0
   -1.5849    1.5029   -2.4932 O   0  0  0  0  0  0  0  0  0  0  0  0
    4.0901   -2.1334    2.0716 O   0  0  0  0  0  0  0  0  0  0  0  0
   -1.9634    0.3086   -0.5107 N   0  0  0  0  0  0  0  0  0  0  0  0
    2.9104   -1.0629    0.3506 N   0  0  0  0  0  0  0  0  0  0  0  0
   -6.2421    1.0921    0.7240 N   0  0  0  0  0  0  0  0  0  0  0  0
    4.7519    3.3144    0.0346 N   0  0  0  0  0  0  0  0  0  0  0  0
   -5.9755    2.1076   -1.4450 N   0  0  0  0  0  0  0  0  0  0  0  0
    6.2793    1.4794    0.3618 N   0  0  0  0  0  0  0  0  0  0  0  0
   -4.6983   -0.5440    1.4753 N   0  0  0  0  0  0  0  0  0  0  0  0
    2.4214    2.9982    0.3393 N   0  0  0  0  0  0  0  0  0  0  0  0
   -1.5122    0.0500    0.7609 C   0  0  0  0  0  0  0  0  0  0  0  0
    2.3641   -1.1962   -0.9028 C   0  0  0  0  0  0  0  0  0  0  0  0
   -1.1675   -1.1994    1.1550 C   0  0  0  0  0  0  0  0  0  0  0  0
    1.3974   -2.1077   -1.1663 C   0  0  0  0  0  0  0  0  0  0  0  0
   -3.1719   -0.3665   -0.9608 C   0  0  0  0  0  0  0  0  0  0  0  0
    2.7857    0.2235    1.0204 C   0  0  0  0  0  0  0  0  0  0  0  0
   -0.6815   -1.5340    2.5560 C   0  0  0  0  0  0  0  0  0  0  0  0
    0.7783   -2.3020   -2.5409 C   0  0  0  0  0  0  0  0  0  0  0  0
   -4.4040    0.4477   -0.6904 C   0  0  0  0  0  0  0  0  0  0  0  0
    3.9152    1.1496    0.6731 C   0  0  0  0  0  0  0  0  0  0  0  0
   -1.4667    1.2737    1.6355 C   0  0  0  0  0  0  0  0  0  0  0  0
    2.9606   -0.2547   -1.9141 C   0  0  0  0  0  0  0  0  0  0  0  0
   -1.8226   -1.8329    3.5269 C   0  0  0  0  0  0  0  0  0  0  0  0
    1.5626   -3.2794   -3.4148 C   0  0  0  0  0  0  0  0  0  0  0  0
   -5.1345    0.3619    0.4772 C   0  0  0  0  0  0  0  0  0  0  0  0
    3.7395    2.4788    0.3470 C   0  0  0  0  0  0  0  0  0  0  0  0
   -1.2882    1.1885   -1.3453 C   0  0  0  0  0  0  0  0  0  0  0  0
    3.5634   -2.1232    0.9640 C   0  0  0  0  0  0  0  0  0  0  0  0
   -4.8763    1.3463   -1.6253 C   0  0  0  0  0  0  0  0  0  0  0  0
    5.2201    0.7002    0.6641 C   0  0  0  0  0  0  0  0  0  0  0  0
   -6.6007    1.9324   -0.2653 C   0  0  0  0  0  0  0  0  0  0  0  0
    5.9775    2.7569    0.0612 C   0  0  0  0  0  0  0  0  0  0  0  0
   -7.8206    2.7568   -0.0292 C   0  0  0  0  0  0  0  0  0  0  0  0
    7.1226    3.6495   -0.2785 C   0  0  0  0  0  0  0  0  0  0  0  0
   -3.3315   -1.3656   -0.5634 H   0  0  0  0  0  0  0  0  0  0  0  0
   -3.0875   -0.5162   -2.0464 H   0  0  0  0  0  0  0  0  0  0  0  0
    2.8098    0.0617    2.1058 H   0  0  0  0  0  0  0  0  0  0  0  0
    1.7919    0.6199    0.7963 H   0  0  0  0  0  0  0  0  0  0  0  0
   -0.0823   -0.7040    2.9501 H   0  0  0  0  0  0  0  0  0  0  0  0
   -0.0074   -2.3950    2.5677 H   0  0  0  0  0  0  0  0  0  0  0  0
    0.7021   -1.3372   -3.0570 H   0  0  0  0  0  0  0  0  0  0  0  0
   -0.2515   -2.6673   -2.4872 H   0  0  0  0  0  0  0  0  0  0  0  0
   -1.5034    1.0324    2.7010 H   0  0  0  0  0  0  0  0  0  0  0  0
   -2.3246    1.9278    1.4414 H   0  0  0  0  0  0  0  0  0  0  0  0
   -0.5511    1.8457    1.4541 H   0  0  0  0  0  0  0  0  0  0  0  0
    2.7589   -0.5649   -2.9432 H   0  0  0  0  0  0  0  0  0  0  0  0
    4.0518   -0.2219   -1.8326 H   0  0  0  0  0  0  0  0  0  0  0  0
    2.5521    0.7536   -1.8030 H   0  0  0  0  0  0  0  0  0  0  0  0
   -2.5101   -0.9847    3.6052 H   0  0  0  0  0  0  0  0  0  0  0  0
   -1.4161   -2.0369    4.5229 H   0  0  0  0  0  0  0  0  0  0  0  0
    2.5956   -2.9444   -3.5544 H   0  0  0  0  0  0  0  0  0  0  0  0
    1.0904   -3.3562   -4.3997 H   0  0  0  0  0  0  0  0  0  0  0  0
   -0.3823    1.6039   -0.8741 H   0  0  0  0  0  0  0  0  0  0  0  0
    3.6343   -3.0131    0.3153 H   0  0  0  0  0  0  0  0  0  0  0  0
   -4.3808    1.4903   -2.5799 H   0  0  0  0  0  0  0  0  0  0  0  0
    5.4969   -0.3161    0.9127 H   0  0  0  0  0  0  0  0  0  0  0  0
   -4.2775   -1.4206    1.1986 H   0  0  0  0  0  0  0  0  0  0  0  0
   -5.2455   -0.5562    2.3282 H   0  0  0  0  0  0  0  0  0  0  0  0
    1.6746    2.4150   -0.0143 H   0  0  0  0  0  0  0  0  0  0  0  0
    2.3457    3.9877    0.1317 H   0  0  0  0  0  0  0  0  0  0  0  0
   -3.2666   -3.1117    3.7641 H   0  0  0  0  0  0  0  0  0  0  0  0
    2.0915   -5.1493   -3.4352 H   0  0  0  0  0  0  0  0  0  0  0  0
   -7.7518    3.7132   -0.5568 H   0  0  0  0  0  0  0  0  0  0  0  0
   -7.9476    2.9667    1.0375 H   0  0  0  0  0  0  0  0  0  0  0  0
   -8.7037    2.2206   -0.3887 H   0  0  0  0  0  0  0  0  0  0  0  0
    8.0297    3.3356    0.2472 H   0  0  0  0  0  0  0  0  0  0  0  0
    6.9069    4.6841    0.0061 H   0  0  0  0  0  0  0  0  0  0  0  0
    7.3112    3.6141   -1.3556 H   0  0  0  0  0  0  0  0  0  0  0  0
  1  2  1  0  0  0  0
  1 17  1  0  0  0  0
  2 18  1  0  0  0  0
  3 27  1  0  0  0  0
  3 65  1  0  0  0  0
  4 28  1  0  0  0  0
  4 66  1  0  0  0  0
  5 31  2  0  0  0  0
  6 32  2  0  0  0  0
  7 15  1  0  0  0  0
  7 19  1  0  0  0  0
  7 31  1  0  0  0  0
  8 16  1  0  0  0  0
  8 20  1  0  0  0  0
  8 32  1  0  0  0  0
  9 29  2  0  0  0  0
  9 35  1  0  0  0  0
 10 30  2  0  0  0  0
 10 36  1  0  0  0  0
 11 33  1  0  0  0  0
 11 35  2  0  0  0  0
 12 34  1  0  0  0  0
 12 36  2  0  0  0  0
 13 29  1  0  0  0  0
 13 61  1  0  0  0  0
 13 62  1  0  0  0  0
 14 30  1  0  0  0  0
 14 63  1  0  0  0  0
 14 64  1  0  0  0  0
 15 17  2  0  0  0  0
 15 25  1  0  0  0  0
 16 18  2  0  0  0  0
 16 26  1  0  0  0  0
 17 21  1  0  0  0  0
 18 22  1  0  0  0  0
 19 23  1  0  0  0  0
 19 39  1  0  0  0  0
 19 40  1  0  0  0  0
 20 24  1  0  0  0  0
 20 41  1  0  0  0  0
 20 42  1  0  0  0  0
 21 27  1  0  0  0  0
 21 43  1  0  0  0  0
 21 44  1  0  0  0  0
 22 28  1  0  0  0  0
 22 45  1  0  0  0  0
 22 46  1  0  0  0  0
 23 29  1  0  0  0  0
 23 33  2  0  0  0  0
 24 30  1  0  0  0  0
 24 34  2  0  0  0  0
 25 47  1  0  0  0  0
 25 48  1  0  0  0  0
 25 49  1  0  0  0  0
 26 50  1  0  0  0  0
 26 51  1  0  0  0  0
 26 52  1  0  0  0  0
 27 53  1  0  0  0  0
 27 54  1  0  0  0  0
 28 55  1  0  0  0  0
 28 56  1  0  0  0  0
 31 57  1  0  0  0  0
 32 58  1  0  0  0  0
 33 59  1  0  0  0  0
 34 60  1  0  0  0  0
 35 37  1  0  0  0  0
 36 38  1  0  0  0  0
 37 67  1  0  0  0  0
 37 68  1  0  0  0  0
 37 69  1  0  0  0  0
 38 70  1  0  0  0  0
 38 71  1  0  0  0  0
 38 72  1  0  0  0  0
M  END
> <PUBCHEM_COMPOUND_CID>
3038097

> <PUBCHEM_CONFORMER_RMSD>
1.2

> <PUBCHEM_CONFORMER_DIVERSEORDER>
2
196
315
21
316
57
33
92
84
291
20
269
293
205
171
56
64
180
96
191
321
277
284
139
166
279
41
268
101
66
306
295
71
137
185
302
299
118
251
271
238
234
266
244
195
265
215
170
255
134
82
76
322
125
132
150
323
227
162
122
127
280
152
292
224
319
278
236
307
154
60
116
226
128
18
216
308
28
106
210
242
138
326
175
331
68
222
212
259
161
61
300
202
239
213
85
146
120
313
275
240
168
153
246
1
330
140
34
55
192
230
183
258
225
94
223
221
231
233
7
303
249
78
27
110
314
207
145
290
267
311
199
217
151
135
237
188
148
113
44
320
69
157
218
22
142
200
198
228
288
186
108
15
187
90
9
121
197
305
264
193
262
309
211
304
38
209
298
143
24
4
50
36
310
329
123
160
176
285
179
165
40
173
47
281
136
119
274
253
203
164
248
81
133
190
333
178
296
104
263
182
67
93
86
177
23
53
65
8
13
156
42
17
328
254
282
100
204
107
98
287
75
318
130
99
115
201
273
31
208
294
301
30
111
252
112
58
317
97
194
272
245
219
74
141
250
88
289
149
283
220
184
229
49
243
232
26
189
181
129
105
247
327
172
241
155
35
147
312
114
174
131
59
163
73
89
235
95
276
45
70
87
5
52
37
270
256
117
206
257
79
297
159
48
261
214
286
126
103
91
324
169
109
39
51
19
124
80
25
72
46
32
260
77
325
158
3
11
144
167
62
43
102
10
16
63
14
54
332
6
29
12
83

> <PUBCHEM_MMFF94_PARTIAL_CHARGES>
48
1 -0.1
10 -0.62
11 -0.62
12 -0.62
13 -0.9
14 -0.9
15 -0.03
16 -0.03
17 -0.04
18 -0.04
19 0.44
2 -0.1
20 0.44
21 0.14
22 0.14
23 -0.14
24 -0.14
25 0.14
26 0.14
27 0.28
28 0.28
29 0.41
3 -0.68
30 0.41
31 0.57
32 0.57
33 0.16
34 0.16
35 0.48
36 0.48
37 0.14
38 0.14
4 -0.68
5 -0.57
57 0.06
58 0.06
59 0.15
6 -0.57
60 0.15
61 0.4
62 0.4
63 0.4
64 0.4
65 0.4
66 0.4
7 -0.47
8 -0.47
9 -0.62

> <PUBCHEM_EFFECTIVE_ROTOR_COUNT>
15

> <PUBCHEM_PHARMACOPHORE_FEATURES>
16
1 13 donor
1 14 donor
1 3 acceptor
1 3 donor
1 4 acceptor
1 4 donor
1 5 acceptor
1 6 acceptor
3 1 17 21 hydrophobe
3 10 12 36 cation
3 10 14 30 cation
3 2 18 22 hydrophobe
3 9 11 35 cation
3 9 13 29 cation
6 10 12 24 30 34 36 rings
6 9 11 23 29 33 35 rings

> <PUBCHEM_HEAVY_ATOM_COUNT>
38

> <PUBCHEM_ATOM_DEF_STEREO_COUNT>
0

> <PUBCHEM_ATOM_UDEF_STEREO_COUNT>
0

> <PUBCHEM_BOND_DEF_STEREO_COUNT>
2

> <PUBCHEM_BOND_UDEF_STEREO_COUNT>
0

> <PUBCHEM_ISOTOPIC_ATOM_COUNT>
0

> <PUBCHEM_COMPONENT_COUNT>
1

> <PUBCHEM_CACTVS_TAUTO_COUNT>
6

> <PUBCHEM_CONFORMER_ID>
002E5B9100000002

> <PUBCHEM_MMFF94_ENERGY>
139.1294

> <PUBCHEM_FEATURE_SELFOVERLAP>
81.462

> <PUBCHEM_SHAPE_FINGERPRINT>
10673678 19 18186522098776831335
10906281 52 18411411808743905056
11578080 2 18201996595335064954
14747281 78 18340476880486154020
15082195 135 17896873455356519604
15324884 4 18053627435537708771
15840311 113 18263637541499366909
21033648 29 16773532043489332535
34797466 226 18189054360624845637
394071 54 18335135444989115765
4058900 60 18040991851772952151
4093350 32 18187928434716382705
5951187 136 18339360897701093235
6669772 16 18060148638642469091

> <PUBCHEM_SHAPE_MULTIPOLES>
726.4
15.76
4.75
2.89
8.7
1.15
0.22
-21.42
-0.07
-4.88
-1.69
0.94
3.45
2.55

> <PUBCHEM_SHAPE_SELFOVERLAP>
1478.782

> <PUBCHEM_SHAPE_VOLUME>
424.1

> <PUBCHEM_COORDINATE_TYPE>
2
5
10

$$$$

