441746
  -OEChem-07051212563D

 74 79  0     1  0  0  0  0  0999 V2000
   -0.1440   -0.6640    2.5790 O   0  0  0  0  0  0  0  0  0  0  0  0
   -2.1555   -2.0084    1.2869 O   0  0  0  0  0  0  0  0  0  0  0  0
    0.0972   -2.9419    0.1523 O   0  0  0  0  0  0  0  0  0  0  0  0
    1.6272    2.5103   -1.2455 O   0  0  0  0  0  0  0  0  0  0  0  0
   -4.2181   -1.0119   -0.7508 O   0  0  0  0  0  0  0  0  0  0  0  0
   -4.3235    1.8428    0.5973 O   0  0  0  0  0  0  0  0  0  0  0  0
    5.0717   -1.4907    0.5394 O   0  0  0  0  0  0  0  0  0  0  0  0
    1.7547    1.1139    1.1702 N   0  0  2  0  0  0  0  0  0  0  0  0
    0.6645    0.2347   -0.8827 C   0  0  2  0  0  0  0  0  0  0  0  0
    1.4822   -1.0843   -0.6013 C   0  0  2  0  0  0  0  0  0  0  0  0
    0.4627    0.6718    0.5968 C   0  0  1  0  0  0  0  0  0  0  0  0
   -0.7344   -0.0257   -1.5592 C   0  0  1  0  0  0  0  0  0  0  0  0
   -0.1782   -0.6431    1.1565 C   0  0  2  0  0  0  0  0  0  0  0  0
   -1.7449   -0.9397   -0.8361 C   0  0  1  0  0  0  0  0  0  0  0  0
   -1.6638   -0.7852    0.6986 C   0  0  1  0  0  0  0  0  0  0  0  0
    0.7475   -1.7606    0.5914 C   0  0  1  0  0  0  0  0  0  0  0  0
    2.9310   -0.6790   -0.1448 C   0  0  2  0  0  0  0  0  0  0  0  0
    1.4353    1.2232   -1.8246 C   0  0  2  0  0  0  0  0  0  0  0  0
   -1.5534    1.2725   -1.8175 C   0  0  0  0  0  0  0  0  0  0  0  0
   -2.9494    1.0316   -1.2240 C   0  0  1  0  0  0  0  0  0  0  0  0
   -3.0907   -0.4731   -1.4062 C   0  0  2  0  0  0  0  0  0  0  0  0
   -2.5881    0.3346    1.2511 C   0  0  0  0  0  0  0  0  0  0  0  0
    2.8227    0.1122    1.1973 C   0  0  0  0  0  0  0  0  0  0  0  0
    3.6559    0.1910   -1.2100 C   0  0  0  0  0  0  0  0  0  0  0  0
   -2.9905    1.4407    0.2614 C   0  0  2  0  0  0  0  0  0  0  0  0
    2.7584    0.6730   -2.3335 C   0  0  0  0  0  0  0  0  0  0  0  0
    3.8095   -1.9289    0.0894 C   0  0  0  0  0  0  0  0  0  0  0  0
    1.6269    1.8120    2.4429 C   0  0  0  0  0  0  0  0  0  0  0  0
    1.0202   -3.8803   -0.3876 C   0  0  0  0  0  0  0  0  0  0  0  0
    2.9243    2.5063    2.8208 C   0  0  0  0  0  0  0  0  0  0  0  0
    2.1531    3.4292   -2.1908 C   0  0  0  0  0  0  0  0  0  0  0  0
   -4.3211   -2.4201   -0.9410 C   0  0  0  0  0  0  0  0  0  0  0  0
   -4.3894    2.3371    1.9241 C   0  0  0  0  0  0  0  0  0  0  0  0
    1.5218   -1.6710   -1.5204 H   0  0  0  0  0  0  0  0  0  0  0  0
   -0.2274    1.5159    0.6590 H   0  0  0  0  0  0  0  0  0  0  0  0
   -0.5358   -0.4833   -2.5405 H   0  0  0  0  0  0  0  0  0  0  0  0
   -1.5835   -1.9778   -1.1407 H   0  0  0  0  0  0  0  0  0  0  0  0
    1.4232   -2.0964    1.3814 H   0  0  0  0  0  0  0  0  0  0  0  0
    0.8338    1.3763   -2.7299 H   0  0  0  0  0  0  0  0  0  0  0  0
   -1.0906    2.1801   -1.4201 H   0  0  0  0  0  0  0  0  0  0  0  0
   -1.6440    1.4178   -2.9021 H   0  0  0  0  0  0  0  0  0  0  0  0
   -3.7185    1.5773   -1.7819 H   0  0  0  0  0  0  0  0  0  0  0  0
   -3.1577   -0.7047   -2.4789 H   0  0  0  0  0  0  0  0  0  0  0  0
   -3.4961   -0.1547    1.6328 H   0  0  0  0  0  0  0  0  0  0  0  0
   -2.1418    0.7934    2.1427 H   0  0  0  0  0  0  0  0  0  0  0  0
    3.7892    0.5998    1.3695 H   0  0  0  0  0  0  0  0  0  0  0  0
    2.6952   -0.5686    2.0465 H   0  0  0  0  0  0  0  0  0  0  0  0
    4.1316    1.0622   -0.7421 H   0  0  0  0  0  0  0  0  0  0  0  0
    4.4776   -0.3639   -1.6813 H   0  0  0  0  0  0  0  0  0  0  0  0
   -2.3481    2.3190    0.4005 H   0  0  0  0  0  0  0  0  0  0  0  0
    2.5452   -0.1816   -2.9906 H   0  0  0  0  0  0  0  0  0  0  0  0
    3.3154    1.3719   -2.9634 H   0  0  0  0  0  0  0  0  0  0  0  0
    3.9343   -2.5065   -0.8330 H   0  0  0  0  0  0  0  0  0  0  0  0
    3.4083   -2.5883    0.8607 H   0  0  0  0  0  0  0  0  0  0  0  0
    0.7612   -0.8434    2.8778 H   0  0  0  0  0  0  0  0  0  0  0  0
   -1.6221   -2.7498    0.9574 H   0  0  0  0  0  0  0  0  0  0  0  0
    1.3304    1.1555    3.2652 H   0  0  0  0  0  0  0  0  0  0  0  0
    0.8548    2.5863    2.3564 H   0  0  0  0  0  0  0  0  0  0  0  0
    0.4827   -4.8288   -0.4903 H   0  0  0  0  0  0  0  0  0  0  0  0
    1.3653   -3.6190   -1.3889 H   0  0  0  0  0  0  0  0  0  0  0  0
    1.8562   -4.0641    0.2912 H   0  0  0  0  0  0  0  0  0  0  0  0
    2.7414    3.1979    3.6509 H   0  0  0  0  0  0  0  0  0  0  0  0
    3.3261    3.0949    1.9888 H   0  0  0  0  0  0  0  0  0  0  0  0
    3.6903    1.8030    3.1615 H   0  0  0  0  0  0  0  0  0  0  0  0
    5.6223   -2.2811    0.6712 H   0  0  0  0  0  0  0  0  0  0  0  0
    3.2422    3.3502   -2.2475 H   0  0  0  0  0  0  0  0  0  0  0  0
    1.6969    3.3269   -3.1807 H   0  0  0  0  0  0  0  0  0  0  0  0
    1.9302    4.4370   -1.8265 H   0  0  0  0  0  0  0  0  0  0  0  0
   -3.4807   -2.9718   -0.5196 H   0  0  0  0  0  0  0  0  0  0  0  0
   -4.4176   -2.6515   -2.0066 H   0  0  0  0  0  0  0  0  0  0  0  0
   -5.2311   -2.7588   -0.4374 H   0  0  0  0  0  0  0  0  0  0  0  0
   -5.3374    2.8741    2.0289 H   0  0  0  0  0  0  0  0  0  0  0  0
   -4.3989    1.5314    2.6630 H   0  0  0  0  0  0  0  0  0  0  0  0
   -3.5823    3.0459    2.1370 H   0  0  0  0  0  0  0  0  0  0  0  0
  1 13  1  0  0  0  0
  1 55  1  0  0  0  0
  2 15  1  0  0  0  0
  2 56  1  0  0  0  0
  3 16  1  0  0  0  0
  3 29  1  0  0  0  0
  4 18  1  0  0  0  0
  4 31  1  0  0  0  0
  5 21  1  0  0  0  0
  5 32  1  0  0  0  0
  6 25  1  0  0  0  0
  6 33  1  0  0  0  0
  7 27  1  0  0  0  0
  7 65  1  0  0  0  0
  8 11  1  0  0  0  0
  8 23  1  0  0  0  0
  8 28  1  0  0  0  0
  9 10  1  0  0  0  0
  9 11  1  0  0  0  0
  9 12  1  0  0  0  0
  9 18  1  0  0  0  0
 10 16  1  0  0  0  0
 10 17  1  0  0  0  0
 10 34  1  0  0  0  0
 11 13  1  0  0  0  0
 11 35  1  0  0  0  0
 12 14  1  0  0  0  0
 12 19  1  0  0  0  0
 12 36  1  0  0  0  0
 13 15  1  0  0  0  0
 13 16  1  0  0  0  0
 14 15  1  0  0  0  0
 14 21  1  0  0  0  0
 14 37  1  0  0  0  0
 15 22  1  0  0  0  0
 16 38  1  0  0  0  0
 17 23  1  0  0  0  0
 17 24  1  0  0  0  0
 17 27  1  0  0  0  0
 18 26  1  0  0  0  0
 18 39  1  0  0  0  0
 19 20  1  0  0  0  0
 19 40  1  0  0  0  0
 19 41  1  0  0  0  0
 20 21  1  0  0  0  0
 20 25  1  0  0  0  0
 20 42  1  0  0  0  0
 21 43  1  0  0  0  0
 22 25  1  0  0  0  0
 22 44  1  0  0  0  0
 22 45  1  0  0  0  0
 23 46  1  0  0  0  0
 23 47  1  0  0  0  0
 24 26  1  0  0  0  0
 24 48  1  0  0  0  0
 24 49  1  0  0  0  0
 25 50  1  0  0  0  0
 26 51  1  0  0  0  0
 26 52  1  0  0  0  0
 27 53  1  0  0  0  0
 27 54  1  0  0  0  0
 28 30  1  0  0  0  0
 28 57  1  0  0  0  0
 28 58  1  0  0  0  0
 29 59  1  0  0  0  0
 29 60  1  0  0  0  0
 29 61  1  0  0  0  0
 30 62  1  0  0  0  0
 30 63  1  0  0  0  0
 30 64  1  0  0  0  0
 31 66  1  0  0  0  0
 31 67  1  0  0  0  0
 31 68  1  0  0  0  0
 32 69  1  0  0  0  0
 32 70  1  0  0  0  0
 32 71  1  0  0  0  0
 33 72  1  0  0  0  0
 33 73  1  0  0  0  0
 33 74  1  0  0  0  0
M  END
> <PUBCHEM_COMPOUND_CID>
441746

> <PUBCHEM_CONFORMER_RMSD>
1

> <PUBCHEM_CONFORMER_DIVERSEORDER>
1

> <PUBCHEM_MMFF94_PARTIAL_CHARGES>
25
1 -0.68
11 0.27
13 0.28
15 0.28
16 0.28
18 0.28
2 -0.68
21 0.28
23 0.27
25 0.28
27 0.28
28 0.27
29 0.28
3 -0.56
31 0.28
32 0.28
33 0.28
4 -0.56
5 -0.56
55 0.4
56 0.4
6 -0.56
65 0.4
7 -0.68
8 -0.81

> <PUBCHEM_EFFECTIVE_ROTOR_COUNT>
8

> <PUBCHEM_PHARMACOPHORE_FEATURES>
15
1 1 acceptor
1 1 donor
1 2 acceptor
1 2 donor
1 3 acceptor
1 4 acceptor
1 5 acceptor
1 6 acceptor
1 7 acceptor
1 7 donor
1 8 cation
6 9 10 17 18 24 26 rings
8 12 14 15 19 20 21 22 25 rings
8 8 9 10 11 13 16 17 23 rings
8 9 10 11 12 13 14 15 16 rings

> <PUBCHEM_HEAVY_ATOM_COUNT>
33

> <PUBCHEM_ATOM_DEF_STEREO_COUNT>
12

> <PUBCHEM_ATOM_UDEF_STEREO_COUNT>
1

> <PUBCHEM_BOND_DEF_STEREO_COUNT>
0

> <PUBCHEM_BOND_UDEF_STEREO_COUNT>
0

> <PUBCHEM_ISOTOPIC_ATOM_COUNT>
0

> <PUBCHEM_COMPONENT_COUNT>
1

> <PUBCHEM_CACTVS_TAUTO_COUNT>
1

> <PUBCHEM_CONFORMER_ID>
0006BD9200000001

> <PUBCHEM_MMFF94_ENERGY>
196.7884

> <PUBCHEM_FEATURE_SELFOVERLAP>
77.511

> <PUBCHEM_SHAPE_FINGERPRINT>
10863032 1 18187087307920110095
11578080 2 18266165155095391104
12156800 1 6611457851537325700
12293681 4 17677048074457062489
12422481 6 17693396824725491226
12633257 1 17846206800086623739
12788726 201 18046049477065798279
13140716 1 17916852556743571557
13224815 77 16271924887690674813
13583140 156 18040724700981425151
14955137 171 17915161623829469700
15219462 58 17970896774331946090
15238133 3 17897433111070336753
15664445 248 16740043973656854925
16945 1 17489598873724347087
17349148 13 17916884434196817615
18981168 100 18194958543933072872
20600515 1 18261107517697871004
20691752 17 17989209226471288429
21033648 29 18192457228247463184
22149856 69 18339641149989003803
23419403 2 18045535056043053060
23559900 14 18342750580353912511
238 59 18129945568112377951
3286 77 18261402117393219654
350125 39 18411134697691038623
6287921 2 18411420583614674999
9981440 41 17624131594884883348

> <PUBCHEM_SHAPE_MULTIPOLES>
633.06
7.32
3.37
2.52
2.94
0.68
0.32
-0.34
0.35
-0.5
0.26
-1.02
-2
-0.89

> <PUBCHEM_SHAPE_SELFOVERLAP>
1383.331

> <PUBCHEM_SHAPE_VOLUME>
338.8

> <PUBCHEM_COORDINATE_TYPE>
2
5
10

$$$$

