56928175
  -OEChem-07051213153D

 52 54  0     1  0  0  0  0  0999 V2000
   -4.5543   -0.2765   -0.6991 O   0  0  0  0  0  0  0  0  0  0  0  0
   -3.6588    1.8188   -0.7569 O   0  0  0  0  0  0  0  0  0  0  0  0
   -0.7053   -0.7123   -0.5629 C   0  0  1  0  0  0  0  0  0  0  0  0
   -1.2738    0.3245    0.4663 C   0  0  2  0  0  0  0  0  0  0  0  0
    0.8737   -0.5907   -0.6178 C   0  0  1  0  0  0  0  0  0  0  0  0
   -2.7948    0.1740    0.8066 C   0  0  1  0  0  0  0  0  0  0  0  0
   -1.1457   -2.1395   -0.1496 C   0  0  0  0  0  0  0  0  0  0  0  0
    1.3627    0.8476   -0.6083 C   0  0  0  0  0  0  0  0  0  0  0  0
   -0.8627    1.7677    0.0910 C   0  0  0  0  0  0  0  0  0  0  0  0
    1.6577   -1.3409    0.4803 C   0  0  0  0  0  0  0  0  0  0  0  0
   -3.1561   -1.2972    1.1044 C   0  0  0  0  0  0  0  0  0  0  0  0
   -2.6503   -2.2799    0.0528 C   0  0  0  0  0  0  0  0  0  0  0  0
   -1.2203   -0.4437   -2.0067 C   0  0  0  0  0  0  0  0  0  0  0  0
    3.6765    0.2558    0.1800 C   0  0  2  0  0  0  0  0  0  0  0  0
    2.8372    1.0130   -0.8768 C   0  0  0  0  0  0  0  0  0  0  0  0
    3.1802   -1.2060    0.2943 C   0  0  0  0  0  0  0  0  0  0  0  0
    0.5746    1.8927   -0.3116 C   0  0  0  0  0  0  0  0  0  0  0  0
   -3.1604    1.0104    2.0518 C   0  0  0  0  0  0  0  0  0  0  0  0
   -3.6940    0.6888   -0.2930 C   0  0  0  0  0  0  0  0  0  0  0  0
    3.5981    0.9583    1.5490 C   0  0  0  0  0  0  0  0  0  0  0  0
    5.1240    0.2536   -0.2476 C   0  0  0  0  0  0  0  0  0  0  0  0
    5.9918   -0.7183    0.0536 C   0  0  0  0  0  0  0  0  0  0  0  0
   -0.7526    0.1058    1.4128 H   0  0  0  0  0  0  0  0  0  0  0  0
    1.1903   -1.0350   -1.5736 H   0  0  0  0  0  0  0  0  0  0  0  0
   -0.6782   -2.4184    0.8019 H   0  0  0  0  0  0  0  0  0  0  0  0
   -0.8070   -2.8722   -0.8924 H   0  0  0  0  0  0  0  0  0  0  0  0
   -1.0268    2.4292    0.9487 H   0  0  0  0  0  0  0  0  0  0  0  0
   -1.4400    2.1692   -0.7429 H   0  0  0  0  0  0  0  0  0  0  0  0
    1.4304   -2.4120    0.4463 H   0  0  0  0  0  0  0  0  0  0  0  0
    1.3701   -0.9835    1.4760 H   0  0  0  0  0  0  0  0  0  0  0  0
   -4.2315   -1.4443    1.2697 H   0  0  0  0  0  0  0  0  0  0  0  0
   -2.6899   -1.5771    2.0607 H   0  0  0  0  0  0  0  0  0  0  0  0
   -2.8615   -3.2990    0.4006 H   0  0  0  0  0  0  0  0  0  0  0  0
   -3.1750   -2.1841   -0.9008 H   0  0  0  0  0  0  0  0  0  0  0  0
   -0.9212    0.5391   -2.3830 H   0  0  0  0  0  0  0  0  0  0  0  0
   -2.3050   -0.5073   -2.0955 H   0  0  0  0  0  0  0  0  0  0  0  0
   -0.8114   -1.1868   -2.7023 H   0  0  0  0  0  0  0  0  0  0  0  0
    3.0490    0.6277   -1.8839 H   0  0  0  0  0  0  0  0  0  0  0  0
    3.1179    2.0747   -0.8935 H   0  0  0  0  0  0  0  0  0  0  0  0
    3.4517   -1.7684   -0.6106 H   0  0  0  0  0  0  0  0  0  0  0  0
    3.6495   -1.7195    1.1432 H   0  0  0  0  0  0  0  0  0  0  0  0
    0.9879    2.8980   -0.3192 H   0  0  0  0  0  0  0  0  0  0  0  0
   -3.0483    2.0859    1.8781 H   0  0  0  0  0  0  0  0  0  0  0  0
   -4.2063    0.8487    2.3408 H   0  0  0  0  0  0  0  0  0  0  0  0
   -2.5339    0.7402    2.9091 H   0  0  0  0  0  0  0  0  0  0  0  0
    2.5743    1.0034    1.9340 H   0  0  0  0  0  0  0  0  0  0  0  0
    3.9678    1.9890    1.4870 H   0  0  0  0  0  0  0  0  0  0  0  0
    4.2023    0.4378    2.3018 H   0  0  0  0  0  0  0  0  0  0  0  0
    5.4947    1.1176   -0.7947 H   0  0  0  0  0  0  0  0  0  0  0  0
   -5.1464    0.0379   -1.4151 H   0  0  0  0  0  0  0  0  0  0  0  0
    7.0232   -0.6315   -0.2747 H   0  0  0  0  0  0  0  0  0  0  0  0
    5.7423   -1.6009    0.6276 H   0  0  0  0  0  0  0  0  0  0  0  0
  1 19  1  0  0  0  0
  1 50  1  0  0  0  0
  2 19  2  0  0  0  0
  3  4  1  0  0  0  0
  3  5  1  0  0  0  0
  3  7  1  0  0  0  0
  3 13  1  0  0  0  0
  4  6  1  0  0  0  0
  4  9  1  0  0  0  0
  4 23  1  0  0  0  0
  5  8  1  0  0  0  0
  5 10  1  0  0  0  0
  5 24  1  0  0  0  0
  6 11  1  0  0  0  0
  6 18  1  0  0  0  0
  6 19  1  0  0  0  0
  7 12  1  0  0  0  0
  7 25  1  0  0  0  0
  7 26  1  0  0  0  0
  8 15  1  0  0  0  0
  8 17  2  0  0  0  0
  9 17  1  0  0  0  0
  9 27  1  0  0  0  0
  9 28  1  0  0  0  0
 10 16  1  0  0  0  0
 10 29  1  0  0  0  0
 10 30  1  0  0  0  0
 11 12  1  0  0  0  0
 11 31  1  0  0  0  0
 11 32  1  0  0  0  0
 12 33  1  0  0  0  0
 12 34  1  0  0  0  0
 13 35  1  0  0  0  0
 13 36  1  0  0  0  0
 13 37  1  0  0  0  0
 14 15  1  0  0  0  0
 14 16  1  0  0  0  0
 14 20  1  0  0  0  0
 14 21  1  0  0  0  0
 15 38  1  0  0  0  0
 15 39  1  0  0  0  0
 16 40  1  0  0  0  0
 16 41  1  0  0  0  0
 17 42  1  0  0  0  0
 18 43  1  0  0  0  0
 18 44  1  0  0  0  0
 18 45  1  0  0  0  0
 20 46  1  0  0  0  0
 20 47  1  0  0  0  0
 20 48  1  0  0  0  0
 21 22  2  0  0  0  0
 21 49  1  0  0  0  0
 22 51  1  0  0  0  0
 22 52  1  0  0  0  0
M  END
> <PUBCHEM_COMPOUND_CID>
56928175

> <PUBCHEM_CONFORMER_RMSD>
0.6

> <PUBCHEM_CONFORMER_DIVERSEORDER>
1
6
2
3
4
5

> <PUBCHEM_MMFF94_PARTIAL_CHARGES>
17
1 -0.65
14 0.14
15 0.14
17 -0.29
19 0.66
2 -0.57
21 -0.29
22 -0.3
42 0.15
49 0.15
5 0.14
50 0.5
51 0.15
52 0.15
6 0.06
8 -0.28
9 0.14

> <PUBCHEM_EFFECTIVE_ROTOR_COUNT>
3.8

> <PUBCHEM_PHARMACOPHORE_FEATURES>
7
1 1 acceptor
1 2 acceptor
1 22 hydrophobe
3 1 2 19 anion
6 3 4 5 8 9 17 rings
6 3 4 6 7 11 12 rings
6 5 8 10 14 15 16 rings

> <PUBCHEM_HEAVY_ATOM_COUNT>
22

> <PUBCHEM_ATOM_DEF_STEREO_COUNT>
4

> <PUBCHEM_ATOM_UDEF_STEREO_COUNT>
1

> <PUBCHEM_BOND_DEF_STEREO_COUNT>
0

> <PUBCHEM_BOND_UDEF_STEREO_COUNT>
0

> <PUBCHEM_ISOTOPIC_ATOM_COUNT>
0

> <PUBCHEM_COMPONENT_COUNT>
1

> <PUBCHEM_CACTVS_TAUTO_COUNT>
1

> <PUBCHEM_CONFORMER_ID>
0364A7AF00000001

> <PUBCHEM_MMFF94_ENERGY>
73.1564

> <PUBCHEM_FEATURE_SELFOVERLAP>
35.623

> <PUBCHEM_SHAPE_FINGERPRINT>
10366900 7 18040720281322908226
10863032 1 18410012147784671683
11089746 13 17895203211806109344
11132069 177 18412263926223571674
11315181 36 17749109989564178184
11578080 2 17914634777213760804
12011746 2 18336269015137420877
12077114 3 18272089418028971405
121448 382 15864072057405381575
12236239 1 18259705596736929540
12251169 10 18411411795837235018
12403814 3 17203615890797322183
12633257 1 18342162354887277705
12670546 177 11671778243902427618
12714826 92 17346609572928732796
128620 24 10015865383982533896
13140716 1 18264479598884056481
13214271 11 18408887330109347870
13224815 77 18408322159910924992
13533116 47 18187649162472670275
13583140 156 18261396624124662898
13675066 3 18335702711331369556
14142880 1 17968366962002927217
14178342 30 18189312667962542211
14223421 5 18050848823249968393
14289901 80 18059852852803033728
14790565 3 18199458884345021284
15196674 1 18341329994715166468
15209289 33 18201715129222855138
15788980 27 17775563130963006256
16945 1 18337375106961107877
17349148 13 18186806863534980157
17980427 23 17749380464866458457
1813 80 17560791148496828118
200 152 18341617005329819295
20600515 1 18041825277688017024
21033648 29 18262252095737567592
21267235 1 18341603794047690738
2306618 200 18409161100563543553
23402539 116 18259990387360009493
23559900 14 18407761448052157272
26918003 58 17846499236057192168
2748010 2 18052245495180651709
296302 2 16559029385310108040
335352 9 18412825802229597028
34934 24 18201161043511869578
3545911 37 18409728469384320858
4340502 62 17971445590660930345
5104073 3 18409730621837825962

> <PUBCHEM_SHAPE_MULTIPOLES>
441.01
9.51
2
1.35
8.63
0.29
-0.14
0.19
-1.23
-1.09
-0.05
-0.72
-0.22
-0.05

> <PUBCHEM_SHAPE_SELFOVERLAP>
930.786

> <PUBCHEM_SHAPE_VOLUME>
242.5

> <PUBCHEM_COORDINATE_TYPE>
2
5
10

$$$$

