13944
  -OEChem-06241222413D

 42 43  0     1  0  0  0  0  0999 V2000
   -3.6243   -2.4683    0.4084 O   0  0  0  0  0  0  0  0  0  0  0  0
   -0.0121   -1.2096    0.6896 O   0  0  0  0  0  0  0  0  0  0  0  0
   -0.8457    3.0679   -0.9342 O   0  0  0  0  0  0  0  0  0  0  0  0
    3.4366    1.8339    0.1184 O   0  0  0  0  0  0  0  0  0  0  0  0
   -0.5302    0.9630    0.0254 N   0  0  0  0  0  0  0  0  0  0  0  0
    1.2741    2.4460   -0.3490 N   0  0  0  0  0  0  0  0  0  0  0  0
   -1.9140    0.6224   -0.2004 C   0  0  0  0  0  0  0  0  0  0  0  0
   -2.6043    0.2574    1.1162 C   0  0  0  0  0  0  0  0  0  0  0  0
   -2.0272   -0.5107   -1.2227 C   0  0  0  0  0  0  0  0  0  0  0  0
   -4.0595   -0.1568    0.8933 C   0  0  0  0  0  0  0  0  0  0  0  0
   -3.4825   -0.9231   -1.4466 C   0  0  0  0  0  0  0  0  0  0  0  0
   -4.1886   -1.2779   -0.1374 C   0  0  0  0  0  0  0  0  0  0  0  0
    1.6516    0.4922    1.0389 C   0  0  1  0  0  0  0  0  0  0  0  0
    0.3097   -0.0282    0.5570 C   0  0  0  0  0  0  0  0  0  0  0  0
    2.6631   -0.6427    1.1929 C   0  0  0  0  0  0  0  0  0  0  0  0
   -0.0982    2.2219   -0.4359 C   0  0  0  0  0  0  0  0  0  0  0  0
    2.2299    1.6203    0.2177 C   0  0  0  0  0  0  0  0  0  0  0  0
    3.0958   -1.1854   -0.1658 C   0  0  0  0  0  0  0  0  0  0  0  0
    4.1314   -2.2986   -0.0082 C   0  0  0  0  0  0  0  0  0  0  0  0
    4.5946   -2.8236   -1.3578 C   0  0  0  0  0  0  0  0  0  0  0  0
   -2.4513    1.4851   -0.6133 H   0  0  0  0  0  0  0  0  0  0  0  0
   -2.5765    1.1181    1.7966 H   0  0  0  0  0  0  0  0  0  0  0  0
   -2.0952   -0.5561    1.6432 H   0  0  0  0  0  0  0  0  0  0  0  0
   -1.4772   -1.4128   -0.9477 H   0  0  0  0  0  0  0  0  0  0  0  0
   -1.5989   -0.1834   -2.1790 H   0  0  0  0  0  0  0  0  0  0  0  0
   -4.4829   -0.4797    1.8519 H   0  0  0  0  0  0  0  0  0  0  0  0
   -4.6348    0.7146    0.5574 H   0  0  0  0  0  0  0  0  0  0  0  0
   -4.0185   -0.1011   -1.9368 H   0  0  0  0  0  0  0  0  0  0  0  0
   -3.5043   -1.7801   -2.1302 H   0  0  0  0  0  0  0  0  0  0  0  0
   -5.2489   -1.4771   -0.3279 H   0  0  0  0  0  0  0  0  0  0  0  0
    1.4614    0.9114    2.0371 H   0  0  0  0  0  0  0  0  0  0  0  0
    2.2458   -1.4526    1.8039 H   0  0  0  0  0  0  0  0  0  0  0  0
    3.5460   -0.2739    1.7309 H   0  0  0  0  0  0  0  0  0  0  0  0
    2.2309   -1.5820   -0.7104 H   0  0  0  0  0  0  0  0  0  0  0  0
    3.5307   -0.4049   -0.7971 H   0  0  0  0  0  0  0  0  0  0  0  0
    1.6177    3.2914   -0.7964 H   0  0  0  0  0  0  0  0  0  0  0  0
   -3.7259   -3.1717   -0.2551 H   0  0  0  0  0  0  0  0  0  0  0  0
    3.7052   -3.1245    0.5730 H   0  0  0  0  0  0  0  0  0  0  0  0
    4.9998   -1.9247    0.5465 H   0  0  0  0  0  0  0  0  0  0  0  0
    5.0595   -2.0290   -1.9501 H   0  0  0  0  0  0  0  0  0  0  0  0
    3.7547   -3.2319   -1.9291 H   0  0  0  0  0  0  0  0  0  0  0  0
    5.3320   -3.6207   -1.2213 H   0  0  0  0  0  0  0  0  0  0  0  0
  1 12  1  0  0  0  0
  1 37  1  0  0  0  0
  2 14  2  0  0  0  0
  3 16  2  0  0  0  0
  4 17  2  0  0  0  0
  5  7  1  0  0  0  0
  5 14  1  0  0  0  0
  5 16  1  0  0  0  0
  6 16  1  0  0  0  0
  6 17  1  0  0  0  0
  6 36  1  0  0  0  0
  7  8  1  0  0  0  0
  7  9  1  0  0  0  0
  7 21  1  0  0  0  0
  8 10  1  0  0  0  0
  8 22  1  0  0  0  0
  8 23  1  0  0  0  0
  9 11  1  0  0  0  0
  9 24  1  0  0  0  0
  9 25  1  0  0  0  0
 10 12  1  0  0  0  0
 10 26  1  0  0  0  0
 10 27  1  0  0  0  0
 11 12  1  0  0  0  0
 11 28  1  0  0  0  0
 11 29  1  0  0  0  0
 12 30  1  0  0  0  0
 13 14  1  0  0  0  0
 13 15  1  0  0  0  0
 13 17  1  0  0  0  0
 13 31  1  0  0  0  0
 15 18  1  0  0  0  0
 15 32  1  0  0  0  0
 15 33  1  0  0  0  0
 18 19  1  0  0  0  0
 18 34  1  0  0  0  0
 18 35  1  0  0  0  0
 19 20  1  0  0  0  0
 19 38  1  0  0  0  0
 19 39  1  0  0  0  0
 20 40  1  0  0  0  0
 20 41  1  0  0  0  0
 20 42  1  0  0  0  0
M  END
> <PUBCHEM_COMPOUND_CID>
13944

> <PUBCHEM_CONFORMER_RMSD>
0.8

> <PUBCHEM_CONFORMER_DIVERSEORDER>
1
3
22
20
24
4
23
21
13
5
18
10
6
12
17
8
16
9
7
11
15
19
14
2

> <PUBCHEM_MMFF94_PARTIAL_CHARGES>
14
1 -0.68
12 0.28
13 0.12
14 0.57
16 0.69
17 0.57
2 -0.57
3 -0.57
36 0.37
37 0.4
4 -0.57
5 -0.42
6 -0.49
7 0.3

> <PUBCHEM_EFFECTIVE_ROTOR_COUNT>
5.8

> <PUBCHEM_PHARMACOPHORE_FEATURES>
10
1 1 acceptor
1 1 donor
1 13 anion
1 2 acceptor
1 20 hydrophobe
1 3 acceptor
1 4 acceptor
1 6 donor
6 5 6 13 14 16 17 rings
6 7 8 9 10 11 12 rings

> <PUBCHEM_HEAVY_ATOM_COUNT>
20

> <PUBCHEM_ATOM_DEF_STEREO_COUNT>
0

> <PUBCHEM_ATOM_UDEF_STEREO_COUNT>
1

> <PUBCHEM_BOND_DEF_STEREO_COUNT>
0

> <PUBCHEM_BOND_UDEF_STEREO_COUNT>
0

> <PUBCHEM_ISOTOPIC_ATOM_COUNT>
0

> <PUBCHEM_COMPONENT_COUNT>
1

> <PUBCHEM_CACTVS_TAUTO_COUNT>
3

> <PUBCHEM_CONFORMER_ID>
0000367800000001

> <PUBCHEM_MMFF94_ENERGY>
36.4574

> <PUBCHEM_FEATURE_SELFOVERLAP>
50.743

> <PUBCHEM_SHAPE_FINGERPRINT>
10968037 57 18188489189245261663
11543360 7 14692564446533460410
116883 192 18339651125942420428
12236239 1 18115024074901371841
12403259 327 15864079736559401931
12553582 1 18270686492399597971
12596599 1 18412830161927630459
12633257 1 15574711361873244123
13140716 1 18197794395112187312
13296908 3 18130239189456905329
13533116 47 18115029602582596435
13583140 156 15141548920250717890
14252887 29 18340208488117035672
14790565 3 17040633367105778808
15848702 151 18410012117772589555
16945 1 18128271157805451937
17357779 13 18270975629644969644
17492 89 18264767671416330499
1813 80 18337382833475281358
18186145 218 17989496212101731147
19141452 34 18041562571570079583
19422 9 18260266330745779979
20645477 70 18340785753338866319
20693207 138 18060137622104504495
20871998 22 18411703179393532128
20871999 31 18197773521823712398
221490 88 18341608170666935858
22182313 1 18269573761273921644
22950370 63 18337379539330615918
23379529 103 18335695066158591166
23557571 272 18192171475699376104
23559900 14 18410862061524622418
23566358 27 18337663131731160100
23598291 2 18333732416284930867
2748010 2 18198925749627384916
3286 77 17313680290282322443
4463277 69 18187374241573374974
77492 1 18042967576011591057
9709674 26 18199749133496858027

> <PUBCHEM_SHAPE_MULTIPOLES>
378.15
8.39
3.07
1.23
1.47
0.64
-0.11
-7.48
-0.7
2.11
-1
-0.24
-0.25
0.75

> <PUBCHEM_SHAPE_SELFOVERLAP>
776.708

> <PUBCHEM_SHAPE_VOLUME>
213.5

> <PUBCHEM_COORDINATE_TYPE>
2
5
10

$$$$

