3025746
  -OEChem-07051213093D

 26 26  0     1  0  0  0  0  0999 V2000
    1.7072    0.3914   -0.1539 O   0  0  0  0  0  0  0  0  0  0  0  0
   -0.8765   -2.9651   -0.2103 O   0  0  0  0  0  0  0  0  0  0  0  0
    1.2724   -2.3835   -0.6297 O   0  0  0  0  0  0  0  0  0  0  0  0
    3.5687    1.2477    0.8955 O   0  0  0  0  0  0  0  0  0  0  0  0
    3.1777    1.6221   -1.3392 N   0  0  0  0  0  0  0  0  0  0  0  0
   -0.0434   -0.9669    0.8692 C   0  0  2  0  0  0  0  0  0  0  0  0
   -1.1559   -0.0953    0.3920 C   0  0  0  0  0  0  0  0  0  0  0  0
    1.2869   -0.2038    1.0700 C   0  0  0  0  0  0  0  0  0  0  0  0
   -1.9361    0.6058    1.3114 C   0  0  0  0  0  0  0  0  0  0  0  0
   -1.4162    0.0183   -0.9737 C   0  0  0  0  0  0  0  0  0  0  0  0
    0.2078   -2.1573   -0.0693 C   0  0  0  0  0  0  0  0  0  0  0  0
   -2.9765    1.4207    0.8650 C   0  0  0  0  0  0  0  0  0  0  0  0
   -2.4565    0.8334   -1.4200 C   0  0  0  0  0  0  0  0  0  0  0  0
   -3.2367    1.5346   -0.5007 C   0  0  0  0  0  0  0  0  0  0  0  0
    2.8772    1.0980   -0.1064 C   0  0  0  0  0  0  0  0  0  0  0  0
   -0.3142   -1.4141    1.8358 H   0  0  0  0  0  0  0  0  0  0  0  0
    2.0645   -0.8915    1.4256 H   0  0  0  0  0  0  0  0  0  0  0  0
    1.1475    0.5844    1.8205 H   0  0  0  0  0  0  0  0  0  0  0  0
   -1.7424    0.5270    2.3779 H   0  0  0  0  0  0  0  0  0  0  0  0
   -0.8163   -0.4963   -1.7188 H   0  0  0  0  0  0  0  0  0  0  0  0
   -3.5836    1.9673    1.5807 H   0  0  0  0  0  0  0  0  0  0  0  0
   -2.6562    0.9261   -2.4835 H   0  0  0  0  0  0  0  0  0  0  0  0
   -4.0458    2.1703   -0.8482 H   0  0  0  0  0  0  0  0  0  0  0  0
   -0.6931   -3.7214   -0.8074 H   0  0  0  0  0  0  0  0  0  0  0  0
    2.5726    1.4705   -2.1392 H   0  0  0  0  0  0  0  0  0  0  0  0
    4.0135    2.1772   -1.4881 H   0  0  0  0  0  0  0  0  0  0  0  0
  1  8  1  0  0  0  0
  1 15  1  0  0  0  0
  2 11  1  0  0  0  0
  2 24  1  0  0  0  0
  3 11  2  0  0  0  0
  4 15  2  0  0  0  0
  5 15  1  0  0  0  0
  5 25  1  0  0  0  0
  5 26  1  0  0  0  0
  6  7  1  0  0  0  0
  6  8  1  0  0  0  0
  6 11  1  0  0  0  0
  6 16  1  0  0  0  0
  7  9  2  0  0  0  0
  7 10  1  0  0  0  0
  8 17  1  0  0  0  0
  8 18  1  0  0  0  0
  9 12  1  0  0  0  0
  9 19  1  0  0  0  0
 10 13  2  0  0  0  0
 10 20  1  0  0  0  0
 12 14  2  0  0  0  0
 12 21  1  0  0  0  0
 13 14  1  0  0  0  0
 13 22  1  0  0  0  0
 14 23  1  0  0  0  0
M  END
> <PUBCHEM_COMPOUND_CID>
3025746

> <PUBCHEM_CONFORMER_RMSD>
0.6

> <PUBCHEM_CONFORMER_DIVERSEORDER>
1
21
22
90
77
89
81
43
75
19
87
54
83
30
80
49
50
79
36
86
58
73
74
57
72
68
76
35
69
26
70
71
46
60
93
40
85
62
17
66
61
14
64
91
28
16
13
67
23
82
29
59
92
24
42
45
78
55
11
34
48
25
38
63
53
51
20
8
32
3
31
39
88
15
52
27
84
7
56
18
6
4
65
33
44
9
37
10
47
2
41
12
5

> <PUBCHEM_MMFF94_PARTIAL_CHARGES>
23
1 -0.43
10 -0.15
11 0.66
12 -0.15
13 -0.15
14 -0.15
15 0.78
19 0.15
2 -0.65
20 0.15
21 0.15
22 0.15
23 0.15
24 0.5
25 0.37
26 0.37
3 -0.57
4 -0.57
5 -0.8
6 0.2
7 -0.14
8 0.28
9 -0.15

> <PUBCHEM_EFFECTIVE_ROTOR_COUNT>
5

> <PUBCHEM_PHARMACOPHORE_FEATURES>
6
1 2 acceptor
1 3 acceptor
1 4 acceptor
1 5 donor
3 2 3 11 anion
6 7 9 10 12 13 14 rings

> <PUBCHEM_HEAVY_ATOM_COUNT>
15

> <PUBCHEM_ATOM_DEF_STEREO_COUNT>
0

> <PUBCHEM_ATOM_UDEF_STEREO_COUNT>
1

> <PUBCHEM_BOND_DEF_STEREO_COUNT>
0

> <PUBCHEM_BOND_UDEF_STEREO_COUNT>
0

> <PUBCHEM_ISOTOPIC_ATOM_COUNT>
0

> <PUBCHEM_COMPONENT_COUNT>
1

> <PUBCHEM_CACTVS_TAUTO_COUNT>
2

> <PUBCHEM_CONFORMER_ID>
002E2B5200000001

> <PUBCHEM_MMFF94_ENERGY>
32.9917

> <PUBCHEM_FEATURE_SELFOVERLAP>
30.506

> <PUBCHEM_SHAPE_FINGERPRINT>
11031198 65 18334575793285364297
11221954 11 17415018020839431845
12326174 3 17911811476340262707
14648413 74 17838338841107808069
15775835 57 18272378550616099892
16945 1 18193279594035560971
1741750 31 18336270033482578608
1813 80 17103672706094390255
18186145 218 18260541238754625960
19786989 88 18270967967745086105
19837323 101 18261675848591296938
20645477 56 18191855726894452464
21296965 12 18202567263160022333
21524375 3 18343588429710063816
21731516 1 9439404648584880832
23419403 2 17406495641866937226
23552423 10 17827373368915741191
23557571 272 17686341963010945544
25 1 18334848467810684360
2748010 2 18340188774185582747
430814 3 18408605885244685993
81228 2 17907012872583891842

> <PUBCHEM_SHAPE_MULTIPOLES>
280.23
5.19
2.47
1.32
1.36
1.99
0.04
-4.54
0.36
0.93
0.5
-0.3
-0.34
-0.14

> <PUBCHEM_SHAPE_SELFOVERLAP>
580.503

> <PUBCHEM_SHAPE_VOLUME>
158.4

> <PUBCHEM_COORDINATE_TYPE>
2
5
10

$$$$

