656521
  -OEChem-07051212553D

 60 62  0     1  0  0  0  0  0999 V2000
    2.6267    0.5899    0.3488 O   0  0  0  0  0  0  0  0  0  0  0  0
   -3.8392   -0.7422    0.5062 O   0  0  0  0  0  0  0  0  0  0  0  0
    3.7355   -1.3584   -0.2980 O   0  0  0  0  0  0  0  0  0  0  0  0
   -2.4689   -1.4305   -1.2524 O   0  0  0  0  0  0  0  0  0  0  0  0
    5.6114    2.9542   -1.1900 O   0  0  0  0  0  0  0  0  0  0  0  0
    3.7163    4.0702    0.6859 O   0  0  0  0  0  0  0  0  0  0  0  0
    6.1322    0.1217   -0.5686 O   0  0  0  0  0  0  0  0  0  0  0  0
   -6.2075    1.4564   -2.0286 O   0  0  0  0  0  0  0  0  0  0  0  0
   -6.3165    1.9371    0.8197 O   0  0  0  0  0  0  0  0  0  0  0  0
   -3.4835    0.6807   -2.8403 O   0  0  0  0  0  0  0  0  0  0  0  0
    0.5560    1.5288    1.8938 O   0  0  0  0  0  0  0  0  0  0  0  0
   -4.0173   -0.6560    3.2478 O   0  0  0  0  0  0  0  0  0  0  0  0
    3.6021   -4.6842    0.3805 N   0  0  0  0  0  0  0  0  0  0  0  0
    4.9525    2.1904   -0.1788 C   0  0  1  0  0  0  0  0  0  0  0  0
    3.5706    2.8025    0.0511 C   0  0  1  0  0  0  0  0  0  0  0  0
    4.8442    0.7339   -0.6304 C   0  0  2  0  0  0  0  0  0  0  0  0
   -5.1073    1.2372   -1.1442 C   0  0  1  0  0  0  0  0  0  0  0  0
   -5.6692    0.8205    0.2152 C   0  0  1  0  0  0  0  0  0  0  0  0
    2.7125    1.8913    0.9319 C   0  0  1  0  0  0  0  0  0  0  0  0
   -4.1975    0.1531   -1.7227 C   0  0  2  0  0  0  0  0  0  0  0  0
   -4.5518    0.3242    1.1358 C   0  0  1  0  0  0  0  0  0  0  0  0
    3.8941   -0.0578    0.2680 C   0  0  1  0  0  0  0  0  0  0  0  0
   -3.1801   -0.3290   -0.6886 C   0  0  1  0  0  0  0  0  0  0  0  0
    1.2908    2.4241    1.0792 C   0  0  0  0  0  0  0  0  0  0  0  0
   -5.1016   -0.2065    2.4559 C   0  0  0  0  0  0  0  0  0  0  0  0
    2.8467   -2.1595    0.4923 C   0  0  1  0  0  0  0  0  0  0  0  0
   -1.1799   -1.6077   -0.8301 C   0  0  0  0  0  0  0  0  0  0  0  0
    1.4418   -1.9665    0.0313 C   0  0  0  0  0  0  0  0  0  0  0  0
   -0.9204   -1.8304    0.5187 C   0  0  0  0  0  0  0  0  0  0  0  0
   -0.1382   -1.5630   -1.7514 C   0  0  0  0  0  0  0  0  0  0  0  0
    0.3937   -2.0102    0.9505 C   0  0  0  0  0  0  0  0  0  0  0  0
    1.1759   -1.7429   -1.3197 C   0  0  0  0  0  0  0  0  0  0  0  0
    3.2757   -3.5717    0.4312 C   0  0  0  0  0  0  0  0  0  0  0  0
    5.5726    2.2698    0.7226 H   0  0  0  0  0  0  0  0  0  0  0  0
    3.0828    2.9744   -0.9163 H   0  0  0  0  0  0  0  0  0  0  0  0
    4.5190    0.6835   -1.6763 H   0  0  0  0  0  0  0  0  0  0  0  0
   -4.5722    2.1922   -1.0728 H   0  0  0  0  0  0  0  0  0  0  0  0
   -6.4266    0.0400    0.0726 H   0  0  0  0  0  0  0  0  0  0  0  0
    3.1440    1.7942    1.9375 H   0  0  0  0  0  0  0  0  0  0  0  0
   -4.7966   -0.6857   -2.0964 H   0  0  0  0  0  0  0  0  0  0  0  0
   -3.8413    1.1303    1.3644 H   0  0  0  0  0  0  0  0  0  0  0  0
    4.3263   -0.1680    1.2723 H   0  0  0  0  0  0  0  0  0  0  0  0
   -2.4722    0.4812   -0.4578 H   0  0  0  0  0  0  0  0  0  0  0  0
    0.7911    2.4743    0.1059 H   0  0  0  0  0  0  0  0  0  0  0  0
    1.2779    3.4141    1.5446 H   0  0  0  0  0  0  0  0  0  0  0  0
   -5.7749   -1.0557    2.2979 H   0  0  0  0  0  0  0  0  0  0  0  0
   -5.6364    0.5685    3.0123 H   0  0  0  0  0  0  0  0  0  0  0  0
    5.6519    3.8749   -0.8793 H   0  0  0  0  0  0  0  0  0  0  0  0
    4.1417    3.9269    1.5486 H   0  0  0  0  0  0  0  0  0  0  0  0
    6.4397    0.1583    0.3533 H   0  0  0  0  0  0  0  0  0  0  0  0
    2.9321   -1.8556    1.5455 H   0  0  0  0  0  0  0  0  0  0  0  0
   -6.7721    2.1389   -1.6270 H   0  0  0  0  0  0  0  0  0  0  0  0
   -5.6504    2.6323    0.9569 H   0  0  0  0  0  0  0  0  0  0  0  0
   -2.9425    1.4261   -2.5282 H   0  0  0  0  0  0  0  0  0  0  0  0
   -0.3502    1.8756    1.9574 H   0  0  0  0  0  0  0  0  0  0  0  0
   -3.5600   -1.3551    2.7502 H   0  0  0  0  0  0  0  0  0  0  0  0
   -1.7201   -1.8872    1.2495 H   0  0  0  0  0  0  0  0  0  0  0  0
   -0.3412   -1.3905   -2.8046 H   0  0  0  0  0  0  0  0  0  0  0  0
    0.5861   -2.1877    2.0053 H   0  0  0  0  0  0  0  0  0  0  0  0
    1.9736   -1.7145   -2.0571 H   0  0  0  0  0  0  0  0  0  0  0  0
  1 19  1  0  0  0  0
  1 22  1  0  0  0  0
  2 21  1  0  0  0  0
  2 23  1  0  0  0  0
  3 22  1  0  0  0  0
  3 26  1  0  0  0  0
  4 23  1  0  0  0  0
  4 27  1  0  0  0  0
  5 14  1  0  0  0  0
  5 48  1  0  0  0  0
  6 15  1  0  0  0  0
  6 49  1  0  0  0  0
  7 16  1  0  0  0  0
  7 50  1  0  0  0  0
  8 17  1  0  0  0  0
  8 52  1  0  0  0  0
  9 18  1  0  0  0  0
  9 53  1  0  0  0  0
 10 20  1  0  0  0  0
 10 54  1  0  0  0  0
 11 24  1  0  0  0  0
 11 55  1  0  0  0  0
 12 25  1  0  0  0  0
 12 56  1  0  0  0  0
 13 33  3  0  0  0  0
 14 15  1  0  0  0  0
 14 16  1  0  0  0  0
 14 34  1  0  0  0  0
 15 19  1  0  0  0  0
 15 35  1  0  0  0  0
 16 22  1  0  0  0  0
 16 36  1  0  0  0  0
 17 18  1  0  0  0  0
 17 20  1  0  0  0  0
 17 37  1  0  0  0  0
 18 21  1  0  0  0  0
 18 38  1  0  0  0  0
 19 24  1  0  0  0  0
 19 39  1  0  0  0  0
 20 23  1  0  0  0  0
 20 40  1  0  0  0  0
 21 25  1  0  0  0  0
 21 41  1  0  0  0  0
 22 42  1  0  0  0  0
 23 43  1  0  0  0  0
 24 44  1  0  0  0  0
 24 45  1  0  0  0  0
 25 46  1  0  0  0  0
 25 47  1  0  0  0  0
 26 28  1  0  0  0  0
 26 33  1  0  0  0  0
 26 51  1  0  0  0  0
 27 29  2  0  0  0  0
 27 30  1  0  0  0  0
 28 31  2  0  0  0  0
 28 32  1  0  0  0  0
 29 31  1  0  0  0  0
 29 57  1  0  0  0  0
 30 32  2  0  0  0  0
 30 58  1  0  0  0  0
 31 59  1  0  0  0  0
 32 60  1  0  0  0  0
M  END
> <PUBCHEM_COMPOUND_CID>
656521

> <PUBCHEM_CONFORMER_RMSD>
1

> <PUBCHEM_CONFORMER_DIVERSEORDER>
1
429
176
272
335
441
104
162
217
152
355
468
307
161
208
480
185
60
9
5
143
304
8
299
171
467
491
209
449
61
486
244
26
426
440
492
458
95
473
498
11
71
130
52
317
197
188
204
376
366
278
196
140
353
481
241
212
239
350
497
19
122
49
484
221
62
361
4
356
202
149
349
358
187
132
338
72
383
414
74
369
327
77
405
144
128
178
13
135
463
150
320
255
477
225
485
57
421
15
100
96
273
154
65
326
312
487
146
300
330
394
442
131
153
483
94
348
192
347
422
79
282
29
191
240
489
136
261
81
45
246
385
169
488
341
17
382
280
396
85
252
120
22
269
490
415
207
166
38
500
410
101
318
259
342
83
23
450
43
420
121
139
28
395
413
93
92
232
253
55
113
137
316
289
66
203
238
476
296
223
36
97
33
379
293
309
10
398
68
245
234
201
249
3
305
373
198
218
90
471
172
337
390
181
6
112
436
380
88
456
37
478
86
54
174
285
78
364
75
12
14
155
391
205
69
256
40
427
416
180
445
91
134
190
331
7
306
266
294
339
295
220
260
457
281
210
148
126
297
336
291
495
257
39
431
452
24
435
404
451
466
123
118
50
211
368
194
448
334
114
34
151
482
141
189
177
219
156
41
407
437
2
360
460
372
371
389
406
184
108
27
233
76
276
428
117
102
98
333
354
32
247
423
465
264
287
80
399
46
214
367
216
479
424
493
175
323
127
20
82
408
302
268
461
109
165
53
199
63
370
262
254
434
284
99
147
439
87
365
277
48
402
464
31
425
438
164
332
105
384
231
67
454
378
21
138
313
106
496
433
230
470
44
328
324
224
56
411
344
84
213
340
393
279
47
242
459
159
400
111
409
329
183
248
18
375
432
443
298
374
179
107
357
193
168
322
392
472
170
116
308
215
283
229
89
419
145
343
453
59
42
311
346
292
226
267
235
417
345
401
173
377
129
16
73
157
124
301
314
462
119
403
447
270
228
35
359
30
70
125
475
250
455
25
388
251
271
446
310
160
222
290
195
258
64
115
499
469
58
386
474
494
351
163
237
200
325
387
51
133
381
352
275
319
142
363
265
444
418
243
430
315
303
263
274
362
227
397
182
288
167
186
206
321
158
236
103
110
286
412

> <PUBCHEM_MMFF94_PARTIAL_CHARGES>
45
1 -0.56
10 -0.68
11 -0.68
12 -0.68
13 -0.56
14 0.28
15 0.28
16 0.28
17 0.28
18 0.28
19 0.28
2 -0.56
20 0.28
21 0.28
22 0.56
23 0.56
24 0.28
25 0.28
26 0.62
27 0.08
28 -0.14
29 -0.15
3 -0.56
30 -0.15
31 -0.15
32 -0.15
33 0.36
4 -0.36
48 0.4
49 0.4
5 -0.68
50 0.4
52 0.4
53 0.4
54 0.4
55 0.4
56 0.4
57 0.15
58 0.15
59 0.15
6 -0.68
60 0.15
7 -0.68
8 -0.68
9 -0.68

> <PUBCHEM_EFFECTIVE_ROTOR_COUNT>
9.4

> <PUBCHEM_PHARMACOPHORE_FEATURES>
24
1 1 acceptor
1 10 acceptor
1 10 donor
1 11 acceptor
1 11 donor
1 12 acceptor
1 12 donor
1 13 acceptor
1 2 acceptor
1 3 acceptor
1 4 acceptor
1 5 acceptor
1 5 donor
1 6 acceptor
1 6 donor
1 7 acceptor
1 7 donor
1 8 acceptor
1 8 donor
1 9 acceptor
1 9 donor
6 1 14 15 16 19 22 rings
6 2 17 18 20 21 23 rings
6 27 28 29 30 31 32 rings

> <PUBCHEM_HEAVY_ATOM_COUNT>
33

> <PUBCHEM_ATOM_DEF_STEREO_COUNT>
11

> <PUBCHEM_ATOM_UDEF_STEREO_COUNT>
0

> <PUBCHEM_BOND_DEF_STEREO_COUNT>
0

> <PUBCHEM_BOND_UDEF_STEREO_COUNT>
0

> <PUBCHEM_ISOTOPIC_ATOM_COUNT>
0

> <PUBCHEM_COMPONENT_COUNT>
1

> <PUBCHEM_CACTVS_TAUTO_COUNT>
1

> <PUBCHEM_CONFORMER_ID>
000A048900000001

> <PUBCHEM_MMFF94_ENERGY>
97.7902

> <PUBCHEM_FEATURE_SELFOVERLAP>
121.909

> <PUBCHEM_SHAPE_FINGERPRINT>
10670039 82 16443059534584403331
10675989 125 18334858282455157680
11399939 17 5244657575326919346
11578080 2 18130774651577740043
12655364 74 15759048630872024244
12769317 202 18411428293350210774
12788726 201 17313652841130802384
13583140 156 18342454859435450139
13590594 115 18049165763338143290
13878862 14 18126311802494144135
13947920 75 16588013611367107728
14790565 3 18194397797667100532
14848178 96 18336555906215721188
14910302 57 5328449407270890669
15183329 4 17749383737488911780
19302320 297 17830722511504811441
21033648 29 17846781819140882715
22122407 14 18264199391708727369
2838139 119 18259704480008775676
3459 110 18269826528863338619
3459 83 17749097907583862732
6608658 132 16877937287381998889

> <PUBCHEM_SHAPE_MULTIPOLES>
603.71
14.82
4.21
2.08
10.33
0.82
0.29
-9.19
-1
-7.83
0.62
3.89
-0.17
0.19

> <PUBCHEM_SHAPE_SELFOVERLAP>
1266.439

> <PUBCHEM_SHAPE_VOLUME>
331.7

> <PUBCHEM_COORDINATE_TYPE>
2
5
10

$$$$

