586156
  -OEChem-06241222452D

 17 17  0     0  0  0  0  0  0999 V2000
    3.4030    0.0600    0.0000 N   0  0  0  0  0  0  0  0  0  0  0  0
    5.1350    0.0600    0.0000 N   0  0  0  0  0  0  0  0  0  0  0  0
    4.2690   -1.4400    0.0000 N   0  0  0  0  0  0  0  0  0  0  0  0
    2.5369   -1.4400    0.0000 N   0  0  0  0  0  0  0  0  0  0  0  0
    6.0010   -1.4400    0.0000 N   0  0  0  0  0  0  0  0  0  0  0  0
    4.2690    0.5600    0.0000 C   0  0  0  0  0  0  0  0  0  0  0  0
    3.4030   -0.9400    0.0000 C   0  0  0  0  0  0  0  0  0  0  0  0
    5.1350   -0.9400    0.0000 C   0  0  0  0  0  0  0  0  0  0  0  0
    4.2690    1.5600    0.0000 C   0  0  0  0  0  0  0  0  0  0  0  0
    5.1350    2.0600    0.0000 C   0  0  0  0  0  0  0  0  0  0  0  0
    3.7320    1.8700    0.0000 H   0  0  0  0  0  0  0  0  0  0  0  0
    2.0000   -1.1300    0.0000 H   0  0  0  0  0  0  0  0  0  0  0  0
    2.5369   -2.0600    0.0000 H   0  0  0  0  0  0  0  0  0  0  0  0
    6.5380   -1.1300    0.0000 H   0  0  0  0  0  0  0  0  0  0  0  0
    6.0010   -2.0600    0.0000 H   0  0  0  0  0  0  0  0  0  0  0  0
    5.6720    1.7500    0.0000 H   0  0  0  0  0  0  0  0  0  0  0  0
    5.1350    2.6800    0.0000 H   0  0  0  0  0  0  0  0  0  0  0  0
  1  6  2  0  0  0  0
  1  7  1  0  0  0  0
  2  6  1  0  0  0  0
  2  8  2  0  0  0  0
  3  7  2  0  0  0  0
  3  8  1  0  0  0  0
  4  7  1  0  0  0  0
  4 12  1  0  0  0  0
  4 13  1  0  0  0  0
  5  8  1  0  0  0  0
  5 14  1  0  0  0  0
  5 15  1  0  0  0  0
  6  9  1  0  0  0  0
  9 10  2  0  0  0  0
  9 11  1  0  0  0  0
 10 16  1  0  0  0  0
 10 17  1  0  0  0  0
M  END
> <PUBCHEM_COMPOUND_CID>
586156

> <PUBCHEM_COMPOUND_CANONICALIZED>
1

> <PUBCHEM_CACTVS_COMPLEXITY>
115

> <PUBCHEM_CACTVS_HBOND_ACCEPTOR>
5

> <PUBCHEM_CACTVS_HBOND_DONOR>
2

> <PUBCHEM_CACTVS_ROTATABLE_BOND>
1

> <PUBCHEM_CACTVS_SUBSKEYS>
AAADcYBjgAAAAAAAAAAAAAAAAAAAAAAAAAAsAAAAAAAAAAABgAAAHAAQAAAACACBAwABEAZIEACgACJiJACAgAkAAKAJAAAQABCACAAACAAAAAAIAAIAAAAAAAAAAAAAAAAAAAAAAAAAAAAAAAAAAAAAAA==

> <PUBCHEM_IUPAC_OPENEYE_NAME>
6-vinyl-1,3,5-triazine-2,4-diamine

> <PUBCHEM_IUPAC_CAS_NAME>
6-ethenyl-1,3,5-triazine-2,4-diamine

> <PUBCHEM_IUPAC_NAME>
6-ethenyl-1,3,5-triazine-2,4-diamine

> <PUBCHEM_IUPAC_SYSTEMATIC_NAME>
6-ethenyl-1,3,5-triazine-2,4-diamine

> <PUBCHEM_IUPAC_TRADITIONAL_NAME>
(4-amino-6-vinyl-s-triazin-2-yl)amine

> <PUBCHEM_IUPAC_INCHI>
InChI=1S/C5H7N5/c1-2-3-8-4(6)10-5(7)9-3/h2H,1H2,(H4,6,7,8,9,10)

> <PUBCHEM_IUPAC_INCHIKEY>
ZXLYUNPVVODNRE-UHFFFAOYSA-N

> <PUBCHEM_XLOGP3_AA>
0.1

> <PUBCHEM_EXACT_MASS>
137.070145

> <PUBCHEM_MOLECULAR_FORMULA>
C5H7N5

> <PUBCHEM_MOLECULAR_WEIGHT>
137.14258

> <PUBCHEM_OPENEYE_CAN_SMILES>
C=CC1=NC(=NC(=N1)N)N

> <PUBCHEM_OPENEYE_ISO_SMILES>
C=CC1=NC(=NC(=N1)N)N

> <PUBCHEM_CACTVS_TPSA>
90.7

> <PUBCHEM_MONOISOTOPIC_WEIGHT>
137.070145

> <PUBCHEM_TOTAL_CHARGE>
0

> <PUBCHEM_HEAVY_ATOM_COUNT>
10

> <PUBCHEM_ATOM_DEF_STEREO_COUNT>
0

> <PUBCHEM_ATOM_UDEF_STEREO_COUNT>
0

> <PUBCHEM_BOND_DEF_STEREO_COUNT>
0

> <PUBCHEM_BOND_UDEF_STEREO_COUNT>
0

> <PUBCHEM_ISOTOPIC_ATOM_COUNT>
0

> <PUBCHEM_COMPONENT_COUNT>
1

> <PUBCHEM_CACTVS_TAUTO_COUNT>
5

> <PUBCHEM_COORDINATE_TYPE>
1
5
255

> <PUBCHEM_BONDANNOTATIONS>
1  6  8
1  7  8
2  6  8
2  8  8
3  7  8
3  8  8

$$$$

