23335
  -OEChem-07051212572D

 37 40  0     1  0  0  0  0  0999 V2000
    3.7782    1.3036    0.0000 O   0  0  0  0  0  0  0  0  0  0  0  0
    5.5442    2.3414    0.0000 O   0  0  0  0  0  0  0  0  0  0  0  0
    6.3903   -2.2248    0.0000 N   0  0  0  0  0  0  0  0  0  0  0  0
    5.5321   -1.7278    0.0000 C   0  0  1  0  0  0  0  0  0  0  0  0
    5.5321   -0.7278    0.0000 C   0  0  0  0  0  0  0  0  0  0  0  0
    4.6660   -2.2278    0.0000 C   0  0  0  0  0  0  0  0  0  0  0  0
    6.4421   -0.2210    0.0000 C   0  0  0  0  0  0  0  0  0  0  0  0
    4.6660   -0.2278    0.0000 C   0  0  0  0  0  0  0  0  0  0  0  0
    7.2814   -0.7492    0.0000 C   0  0  0  0  0  0  0  0  0  0  0  0
    7.2558   -1.7406    0.0000 C   0  0  0  0  0  0  0  0  0  0  0  0
    3.8000   -1.7278    0.0000 C   0  0  0  0  0  0  0  0  0  0  0  0
    3.8000   -0.7278    0.0000 C   0  0  0  0  0  0  0  0  0  0  0  0
    4.6500    0.8137    0.0000 C   0  0  0  0  0  0  0  0  0  0  0  0
    6.4501    0.8206    0.0000 C   0  0  0  0  0  0  0  0  0  0  0  0
    5.5480    1.3414    0.0000 C   0  0  0  0  0  0  0  0  0  0  0  0
    2.9061   -2.2625    0.0000 C   0  0  0  0  0  0  0  0  0  0  0  0
    2.9061   -0.1932    0.0000 C   0  0  0  0  0  0  0  0  0  0  0  0
    2.0000   -1.7486    0.0000 C   0  0  0  0  0  0  0  0  0  0  0  0
    2.0000   -0.7070    0.0000 C   0  0  0  0  0  0  0  0  0  0  0  0
    6.4082    2.8448    0.0000 C   0  0  0  0  0  0  0  0  0  0  0  0
    5.5315   -2.5778    0.0000 H   0  0  0  0  0  0  0  0  0  0  0  0
    4.2675   -2.7028    0.0000 H   0  0  0  0  0  0  0  0  0  0  0  0
    5.0646   -2.7028    0.0000 H   0  0  0  0  0  0  0  0  0  0  0  0
    7.8885   -0.8751    0.0000 H   0  0  0  0  0  0  0  0  0  0  0  0
    7.5131   -0.1742    0.0000 H   0  0  0  0  0  0  0  0  0  0  0  0
    6.3857   -2.8448    0.0000 H   0  0  0  0  0  0  0  0  0  0  0  0
    7.4575   -2.3268    0.0000 H   0  0  0  0  0  0  0  0  0  0  0  0
    7.8685   -1.6462    0.0000 H   0  0  0  0  0  0  0  0  0  0  0  0
    6.9882    1.1285    0.0000 H   0  0  0  0  0  0  0  0  0  0  0  0
    2.9132   -2.8825    0.0000 H   0  0  0  0  0  0  0  0  0  0  0  0
    2.9132    0.4268    0.0000 H   0  0  0  0  0  0  0  0  0  0  0  0
    1.4643   -2.0607    0.0000 H   0  0  0  0  0  0  0  0  0  0  0  0
    1.4643   -0.3950    0.0000 H   0  0  0  0  0  0  0  0  0  0  0  0
    3.7711    1.9236    0.0000 H   0  0  0  0  0  0  0  0  0  0  0  0
    6.7203    2.3090    0.0000 H   0  0  0  0  0  0  0  0  0  0  0  0
    6.9440    3.1568    0.0000 H   0  0  0  0  0  0  0  0  0  0  0  0
    6.0962    3.3805    0.0000 H   0  0  0  0  0  0  0  0  0  0  0  0
  1 13  1  0  0  0  0
  1 34  1  0  0  0  0
  2 15  1  0  0  0  0
  2 20  1  0  0  0  0
  3  4  1  0  0  0  0
  3 10  1  0  0  0  0
  3 26  1  0  0  0  0
  4  5  1  0  0  0  0
  4  6  1  0  0  0  0
  4 21  1  1  0  0  0
  5  7  1  0  0  0  0
  5  8  2  0  0  0  0
  6 11  1  0  0  0  0
  6 22  1  0  0  0  0
  6 23  1  0  0  0  0
  7  9  1  0  0  0  0
  7 14  2  0  0  0  0
  8 12  1  0  0  0  0
  8 13  1  0  0  0  0
  9 10  1  0  0  0  0
  9 24  1  0  0  0  0
  9 25  1  0  0  0  0
 10 27  1  0  0  0  0
 10 28  1  0  0  0  0
 11 12  1  0  0  0  0
 11 16  2  0  0  0  0
 12 17  2  0  0  0  0
 13 15  2  0  0  0  0
 14 15  1  0  0  0  0
 14 29  1  0  0  0  0
 16 18  1  0  0  0  0
 16 30  1  0  0  0  0
 17 19  1  0  0  0  0
 17 31  1  0  0  0  0
 18 19  2  0  0  0  0
 18 32  1  0  0  0  0
 19 33  1  0  0  0  0
 20 35  1  0  0  0  0
 20 36  1  0  0  0  0
 20 37  1  0  0  0  0
M  END
> <PUBCHEM_COMPOUND_CID>
23335

> <PUBCHEM_COMPOUND_CANONICALIZED>
1

> <PUBCHEM_CACTVS_COMPLEXITY>
361

> <PUBCHEM_CACTVS_HBOND_ACCEPTOR>
3

> <PUBCHEM_CACTVS_HBOND_DONOR>
2

> <PUBCHEM_CACTVS_ROTATABLE_BOND>
1

> <PUBCHEM_CACTVS_SUBSKEYS>
AAADceB6MAAAAAAAAAAAAAAAAAAAAAAAAAA8YMEAAAAAAADxQAAAHgAQCAAADCzBmAYyBoLABgCAAiBCAACCCAAgIAAIiIAOjIgNJiKGsRuEcCtk0BGLuAew0PMOoAADAAAYQADQAAaAADSAAAAAAAAAAA==

> <PUBCHEM_IUPAC_OPENEYE_NAME>
(8R)-2-methoxy-5,6,6a,7-tetrahydro-4H-dibenzo[de,g]quinoline-1-ol

> <PUBCHEM_IUPAC_CAS_NAME>
(8R)-2-methoxy-5,6,6a,7-tetrahydro-4H-dibenzo[de,g]quinoline-1-ol

> <PUBCHEM_IUPAC_NAME>
(8R)-2-methoxy-5,6,6a,7-tetrahydro-4H-dibenzo[de,g]quinoline-1-ol

> <PUBCHEM_IUPAC_SYSTEMATIC_NAME>
(8R)-2-methoxy-5,6,6a,7-tetrahydro-4H-dibenzo[de,g]quinoline-1-ol

> <PUBCHEM_IUPAC_TRADITIONAL_NAME>
(8R)-2-methoxy-5,6,6a,7-tetrahydro-4H-dibenzo[de,g]quinoline-1-ol

> <PUBCHEM_IUPAC_INCHI>
InChI=1S/C17H17NO2/c1-20-14-9-11-6-7-18-13-8-10-4-2-3-5-12(10)16(15(11)13)17(14)19/h2-5,9,13,18-19H,6-8H2,1H3/t13-/m1/s1

> <PUBCHEM_IUPAC_INCHIKEY>
DUSFBAYEYGRYOT-CYBMUJFWSA-N

> <PUBCHEM_XLOGP3_AA>
2.6

> <PUBCHEM_EXACT_MASS>
267.125929

> <PUBCHEM_MOLECULAR_FORMULA>
C17H17NO2

> <PUBCHEM_MOLECULAR_WEIGHT>
267.32238

> <PUBCHEM_OPENEYE_CAN_SMILES>
COC1=C(C2=C3C(CC4=CC=CC=C42)NCCC3=C1)O

> <PUBCHEM_OPENEYE_ISO_SMILES>
COC1=C(C2=C3[C@@H](CC4=CC=CC=C42)NCCC3=C1)O

> <PUBCHEM_CACTVS_TPSA>
41.5

> <PUBCHEM_MONOISOTOPIC_WEIGHT>
267.125929

> <PUBCHEM_TOTAL_CHARGE>
0

> <PUBCHEM_HEAVY_ATOM_COUNT>
20

> <PUBCHEM_ATOM_DEF_STEREO_COUNT>
1

> <PUBCHEM_ATOM_UDEF_STEREO_COUNT>
0

> <PUBCHEM_BOND_DEF_STEREO_COUNT>
0

> <PUBCHEM_BOND_UDEF_STEREO_COUNT>
0

> <PUBCHEM_ISOTOPIC_ATOM_COUNT>
0

> <PUBCHEM_COMPONENT_COUNT>
1

> <PUBCHEM_CACTVS_TAUTO_COUNT>
2

> <PUBCHEM_COORDINATE_TYPE>
1
5
255

> <PUBCHEM_BONDANNOTATIONS>
11  12  8
11  16  8
12  17  8
13  15  8
14  15  8
16  18  8
17  19  8
18  19  8
4  21  5
5  7  8
5  8  8
7  14  8
8  13  8

$$$$

