5390
  -OEChem-06261200393D

 73 77  0     0  0  0  0  0  0999 V2000
   -6.4568    1.6843    0.1765 O   0  0  0  0  0  0  0  0  0  0  0  0
    6.4569    1.6844   -0.1758 O   0  0  0  0  0  0  0  0  0  0  0  0
   -9.4795   -1.2747    0.2443 N   0  0  0  0  0  0  0  0  0  0  0  0
    9.4795   -1.2746   -0.2442 N   0  0  0  0  0  0  0  0  0  0  0  0
   -4.7885    0.0252    0.1299 N   0  0  0  0  0  0  0  0  0  0  0  0
    4.7885    0.0255   -0.1304 N   0  0  0  0  0  0  0  0  0  0  0  0
    0.0001    0.1170   -0.0005 N   0  0  0  0  0  0  0  0  0  0  0  0
   -9.6295   -1.8293   -1.1084 C   0  0  0  0  0  0  0  0  0  0  0  0
  -10.7789   -0.8723    0.8006 C   0  0  0  0  0  0  0  0  0  0  0  0
    9.6292   -1.8299    1.1083 C   0  0  0  0  0  0  0  0  0  0  0  0
   10.7791   -0.8720   -0.7999 C   0  0  0  0  0  0  0  0  0  0  0  0
  -10.5556   -3.0466   -1.1063 C   0  0  0  0  0  0  0  0  0  0  0  0
  -11.7426   -2.0581    0.8650 C   0  0  0  0  0  0  0  0  0  0  0  0
   10.5552   -3.0473    1.1059 C   0  0  0  0  0  0  0  0  0  0  0  0
   11.7427   -2.0579   -0.8646 C   0  0  0  0  0  0  0  0  0  0  0  0
  -11.9141   -2.7085   -0.5031 C   0  0  0  0  0  0  0  0  0  0  0  0
   11.9138   -2.7090    0.5032 C   0  0  0  0  0  0  0  0  0  0  0  0
   -8.5548   -0.1416    0.2331 C   0  0  0  0  0  0  0  0  0  0  0  0
    8.5549   -0.1415   -0.2326 C   0  0  0  0  0  0  0  0  0  0  0  0
   -7.1119   -0.6347    0.1934 C   0  0  0  0  0  0  0  0  0  0  0  0
    7.1119   -0.6345   -0.1936 C   0  0  0  0  0  0  0  0  0  0  0  0
   -6.1064    0.5089    0.1661 C   0  0  0  0  0  0  0  0  0  0  0  0
    6.1065    0.5090   -0.1660 C   0  0  0  0  0  0  0  0  0  0  0  0
   -3.6012    0.7571    0.0975 C   0  0  0  0  0  0  0  0  0  0  0  0
    3.6012    0.7575   -0.0980 C   0  0  0  0  0  0  0  0  0  0  0  0
   -1.1666    0.7896    0.0314 C   0  0  0  0  0  0  0  0  0  0  0  0
    1.1667    0.7897   -0.0320 C   0  0  0  0  0  0  0  0  0  0  0  0
   -1.2141    2.1939    0.0330 C   0  0  0  0  0  0  0  0  0  0  0  0
    1.2142    2.1940   -0.0330 C   0  0  0  0  0  0  0  0  0  0  0  0
   -2.3722    0.0937    0.0639 C   0  0  0  0  0  0  0  0  0  0  0  0
    2.3723    0.0939   -0.0648 C   0  0  0  0  0  0  0  0  0  0  0  0
   -3.6401    2.1457    0.0990 C   0  0  0  0  0  0  0  0  0  0  0  0
    3.6402    2.1460   -0.0987 C   0  0  0  0  0  0  0  0  0  0  0  0
   -0.0001    2.8872    0.0002 C   0  0  0  0  0  0  0  0  0  0  0  0
   -2.4491    2.8649    0.0669 C   0  0  0  0  0  0  0  0  0  0  0  0
    2.4490    2.8650   -0.0664 C   0  0  0  0  0  0  0  0  0  0  0  0
  -10.0259   -1.0728   -1.7990 H   0  0  0  0  0  0  0  0  0  0  0  0
   -8.6658   -2.1586   -1.5098 H   0  0  0  0  0  0  0  0  0  0  0  0
  -10.6472   -0.4907    1.8205 H   0  0  0  0  0  0  0  0  0  0  0  0
  -11.2250   -0.0652    0.2046 H   0  0  0  0  0  0  0  0  0  0  0  0
   10.0253   -1.0737    1.7994 H   0  0  0  0  0  0  0  0  0  0  0  0
    8.6653   -2.1594    1.5092 H   0  0  0  0  0  0  0  0  0  0  0  0
   10.6479   -0.4898   -1.8196 H   0  0  0  0  0  0  0  0  0  0  0  0
   11.2251   -0.0652   -0.2032 H   0  0  0  0  0  0  0  0  0  0  0  0
  -10.6879   -3.4133   -2.1305 H   0  0  0  0  0  0  0  0  0  0  0  0
  -10.0927   -3.8597   -0.5326 H   0  0  0  0  0  0  0  0  0  0  0  0
  -11.3635   -2.8014    1.5779 H   0  0  0  0  0  0  0  0  0  0  0  0
  -12.7166   -1.7237    1.2397 H   0  0  0  0  0  0  0  0  0  0  0  0
   10.0924   -3.8600    0.5318 H   0  0  0  0  0  0  0  0  0  0  0  0
   10.6872   -3.4144    2.1300 H   0  0  0  0  0  0  0  0  0  0  0  0
   12.7168   -1.7234   -1.2389 H   0  0  0  0  0  0  0  0  0  0  0  0
   11.3638   -2.8007   -1.5780 H   0  0  0  0  0  0  0  0  0  0  0  0
  -12.5232   -3.6148   -0.4154 H   0  0  0  0  0  0  0  0  0  0  0  0
  -12.4503   -2.0223   -1.1700 H   0  0  0  0  0  0  0  0  0  0  0  0
   12.4500   -2.0233    1.1706 H   0  0  0  0  0  0  0  0  0  0  0  0
   12.5228   -3.6154    0.4151 H   0  0  0  0  0  0  0  0  0  0  0  0
   -8.7652    0.5472   -0.5957 H   0  0  0  0  0  0  0  0  0  0  0  0
   -8.6690    0.4463    1.1541 H   0  0  0  0  0  0  0  0  0  0  0  0
    8.7651    0.5468    0.5966 H   0  0  0  0  0  0  0  0  0  0  0  0
    8.6694    0.4469   -1.1533 H   0  0  0  0  0  0  0  0  0  0  0  0
   -6.9001   -1.2526    1.0752 H   0  0  0  0  0  0  0  0  0  0  0  0
   -6.9197   -1.2443   -0.6961 H   0  0  0  0  0  0  0  0  0  0  0  0
    6.9004   -1.2518   -1.0758 H   0  0  0  0  0  0  0  0  0  0  0  0
    6.9195   -1.2446    0.6956 H   0  0  0  0  0  0  0  0  0  0  0  0
   -4.6740   -0.9863    0.1269 H   0  0  0  0  0  0  0  0  0  0  0  0
    4.6739   -0.9859   -0.1279 H   0  0  0  0  0  0  0  0  0  0  0  0
   -2.3522   -0.9957    0.0631 H   0  0  0  0  0  0  0  0  0  0  0  0
    2.3526   -0.9955   -0.0645 H   0  0  0  0  0  0  0  0  0  0  0  0
   -4.5461    2.7340    0.1237 H   0  0  0  0  0  0  0  0  0  0  0  0
    4.5461    2.7343   -0.1231 H   0  0  0  0  0  0  0  0  0  0  0  0
   -0.0001    3.9765    0.0005 H   0  0  0  0  0  0  0  0  0  0  0  0
   -2.4876    3.9521    0.0683 H   0  0  0  0  0  0  0  0  0  0  0  0
    2.4874    3.9522   -0.0672 H   0  0  0  0  0  0  0  0  0  0  0  0
  1 22  2  0  0  0  0
  2 23  2  0  0  0  0
  3  8  1  0  0  0  0
  3  9  1  0  0  0  0
  3 18  1  0  0  0  0
  4 10  1  0  0  0  0
  4 11  1  0  0  0  0
  4 19  1  0  0  0  0
  5 22  1  0  0  0  0
  5 24  1  0  0  0  0
  5 65  1  0  0  0  0
  6 23  1  0  0  0  0
  6 25  1  0  0  0  0
  6 66  1  0  0  0  0
  7 26  2  0  0  0  0
  7 27  1  0  0  0  0
  8 12  1  0  0  0  0
  8 37  1  0  0  0  0
  8 38  1  0  0  0  0
  9 13  1  0  0  0  0
  9 39  1  0  0  0  0
  9 40  1  0  0  0  0
 10 14  1  0  0  0  0
 10 41  1  0  0  0  0
 10 42  1  0  0  0  0
 11 15  1  0  0  0  0
 11 43  1  0  0  0  0
 11 44  1  0  0  0  0
 12 16  1  0  0  0  0
 12 45  1  0  0  0  0
 12 46  1  0  0  0  0
 13 16  1  0  0  0  0
 13 47  1  0  0  0  0
 13 48  1  0  0  0  0
 14 17  1  0  0  0  0
 14 49  1  0  0  0  0
 14 50  1  0  0  0  0
 15 17  1  0  0  0  0
 15 51  1  0  0  0  0
 15 52  1  0  0  0  0
 16 53  1  0  0  0  0
 16 54  1  0  0  0  0
 17 55  1  0  0  0  0
 17 56  1  0  0  0  0
 18 20  1  0  0  0  0
 18 57  1  0  0  0  0
 18 58  1  0  0  0  0
 19 21  1  0  0  0  0
 19 59  1  0  0  0  0
 19 60  1  0  0  0  0
 20 22  1  0  0  0  0
 20 61  1  0  0  0  0
 20 62  1  0  0  0  0
 21 23  1  0  0  0  0
 21 63  1  0  0  0  0
 21 64  1  0  0  0  0
 24 30  2  0  0  0  0
 24 32  1  0  0  0  0
 25 31  2  0  0  0  0
 25 33  1  0  0  0  0
 26 28  1  0  0  0  0
 26 30  1  0  0  0  0
 27 29  2  0  0  0  0
 27 31  1  0  0  0  0
 28 34  2  0  0  0  0
 28 35  1  0  0  0  0
 29 34  1  0  0  0  0
 29 36  1  0  0  0  0
 30 67  1  0  0  0  0
 31 68  1  0  0  0  0
 32 35  2  0  0  0  0
 32 69  1  0  0  0  0
 33 36  2  0  0  0  0
 33 70  1  0  0  0  0
 34 71  1  0  0  0  0
 35 72  1  0  0  0  0
 36 73  1  0  0  0  0
M  END
> <PUBCHEM_COMPOUND_CID>
5390

> <PUBCHEM_CONFORMER_RMSD>
1.4

> <PUBCHEM_CONFORMER_DIVERSEORDER>
1
27
11
2
6
28
21
26
18
8
13
24
12
7
19
5
17
23
29
22
3
30
25
14
9
20
16
4
10
15

> <PUBCHEM_MMFF94_PARTIAL_CHARGES>
37
1 -0.57
10 0.27
11 0.27
18 0.27
19 0.27
2 -0.57
20 0.06
21 0.06
22 0.57
23 0.57
24 0.12
25 0.12
26 0.31
27 0.31
3 -0.81
30 -0.15
31 -0.15
32 -0.15
33 -0.15
34 -0.15
35 -0.15
36 -0.15
4 -0.81
5 -0.55
6 -0.55
65 0.37
66 0.37
67 0.15
68 0.15
69 0.15
7 -0.62
70 0.15
71 0.15
72 0.15
73 0.15
8 0.27
9 0.27

> <PUBCHEM_EFFECTIVE_ROTOR_COUNT>
12.4

> <PUBCHEM_PHARMACOPHORE_FEATURES>
12
1 1 acceptor
1 2 acceptor
1 3 cation
1 4 cation
1 5 donor
1 6 donor
1 7 acceptor
6 24 26 28 30 32 35 rings
6 25 27 29 31 33 36 rings
6 3 8 9 12 13 16 rings
6 4 10 11 14 15 17 rings
6 7 26 27 28 29 34 rings

> <PUBCHEM_HEAVY_ATOM_COUNT>
36

> <PUBCHEM_ATOM_DEF_STEREO_COUNT>
0

> <PUBCHEM_ATOM_UDEF_STEREO_COUNT>
0

> <PUBCHEM_BOND_DEF_STEREO_COUNT>
0

> <PUBCHEM_BOND_UDEF_STEREO_COUNT>
0

> <PUBCHEM_ISOTOPIC_ATOM_COUNT>
0

> <PUBCHEM_COMPONENT_COUNT>
1

> <PUBCHEM_CACTVS_TAUTO_COUNT>
10

> <PUBCHEM_CONFORMER_ID>
0000150E00000001

> <PUBCHEM_MMFF94_ENERGY>
76.6086

> <PUBCHEM_FEATURE_SELFOVERLAP>
60.953

> <PUBCHEM_SHAPE_FINGERPRINT>
10100884 174 18334575703750687443
10168742 298 17775559814990291199
10533779 47 15719663338559015260
11061554 47 8935011356429587443
11463208 3 18410571790434433454
11672396 167 18412827979719804949
12013929 94 18410009958036906002
12498461 61 18113339692044888663
12522641 33 13110966431079931336
12539745 222 18114742736752465256
12741549 16 17022902358801323129
13165054 27 9006791861248585059
13383668 1 18202286940068639958
13553643 46 7204781380602626275
14202775 3 18410851066382743722
15065858 18 18410864256221924544
15145343 6 17095244718261374960
15198563 99 16056606490341440276
15219723 13 18342451531959364219
15247644 1 18409728469516962742
15890870 6 18060418023445231186
20105231 36 18410572885639920802
20721686 146 10592049063703908609
20771845 65 18334293141483470240
21102433 48 18409450297580995334
21267235 1 18410572889935563680
21360443 89 18410295830959972528
21792961 116 18411141347244886093
21895431 317 18339644542354317306
232437 2 18410572889934816643
23528940 14 18335703871015263802
2835820 83 18410856559639789571
2851757 41 18410855460138932183
3991529 128 5833986179479033322
4339292 15 18343020003636494605
4353968 344 18410578397365168421
44389302 135 17967530165008760815
4516262 110 10159705706662665349
5381727 24 18333450949740269711
54039377 194 18411981368646324165

> <PUBCHEM_SHAPE_MULTIPOLES>
704.22
54.21
3.63
0.85
0
0.2
0
74.11
0
0
0
0
0.51
-2.43

> <PUBCHEM_SHAPE_SELFOVERLAP>
1505.332

> <PUBCHEM_SHAPE_VOLUME>
389.1

> <PUBCHEM_COORDINATE_TYPE>
2
5
10

$$$$

