17396440
  -OEChem-06241222563D

 47 50  0     0  0  0  0  0  0999 V2000
    7.8505   -0.0368    1.1593 S   0  0  0  0  0  0  0  0  0  0  0  0
   -4.6288    0.9897    0.4775 O   0  0  0  0  0  0  0  0  0  0  0  0
    2.4023    1.2812   -1.6279 O   0  0  0  0  0  0  0  0  0  0  0  0
    0.6573    1.4659   -0.1054 N   0  0  0  0  0  0  0  0  0  0  0  0
   -3.6763   -0.8960   -0.3430 N   0  0  0  0  0  0  0  0  0  0  0  0
   -2.2048    1.1252    0.1817 C   0  0  0  0  0  0  0  0  0  0  0  0
   -1.5479    1.3366   -1.1952 C   0  0  0  0  0  0  0  0  0  0  0  0
   -1.2102    0.4773    1.1630 C   0  0  0  0  0  0  0  0  0  0  0  0
   -0.2398    2.1149   -1.0633 C   0  0  0  0  0  0  0  0  0  0  0  0
    0.0903    1.2773    1.2354 C   0  0  0  0  0  0  0  0  0  0  0  0
   -3.5011    0.3366    0.0801 C   0  0  0  0  0  0  0  0  0  0  0  0
    1.9436    1.0973   -0.4975 C   0  0  0  0  0  0  0  0  0  0  0  0
    2.8036    0.4318    0.5470 C   0  0  0  0  0  0  0  0  0  0  0  0
    4.1692    0.0913   -0.0275 C   0  0  0  0  0  0  0  0  0  0  0  0
   -5.6180    0.0683    0.2843 C   0  0  0  0  0  0  0  0  0  0  0  0
   -5.0315   -1.0839   -0.2179 C   0  0  0  0  0  0  0  0  0  0  0  0
    5.1126   -0.5205    1.0154 C   0  0  0  0  0  0  0  0  0  0  0  0
   -6.9762    0.2214    0.5336 C   0  0  0  0  0  0  0  0  0  0  0  0
   -5.8454   -2.1895   -0.5036 C   0  0  0  0  0  0  0  0  0  0  0  0
    6.4832   -0.7732    0.4379 C   0  0  0  0  0  0  0  0  0  0  0  0
   -7.7742   -0.8904    0.2433 C   0  0  0  0  0  0  0  0  0  0  0  0
   -7.2224   -2.0729   -0.2650 C   0  0  0  0  0  0  0  0  0  0  0  0
    6.8265   -1.5509   -0.6461 C   0  0  0  0  0  0  0  0  0  0  0  0
    8.2307   -1.5423   -0.8874 C   0  0  0  0  0  0  0  0  0  0  0  0
    8.9070   -0.7583    0.0212 C   0  0  0  0  0  0  0  0  0  0  0  0
   -2.4610    2.1177    0.5801 H   0  0  0  0  0  0  0  0  0  0  0  0
   -2.2318    1.8736   -1.8634 H   0  0  0  0  0  0  0  0  0  0  0  0
   -1.3463    0.3632   -1.6616 H   0  0  0  0  0  0  0  0  0  0  0  0
   -0.9878   -0.5485    0.8408 H   0  0  0  0  0  0  0  0  0  0  0  0
   -1.6563    0.4066    2.1624 H   0  0  0  0  0  0  0  0  0  0  0  0
   -0.4318    3.1306   -0.6979 H   0  0  0  0  0  0  0  0  0  0  0  0
    0.2358    2.2045   -2.0449 H   0  0  0  0  0  0  0  0  0  0  0  0
    0.7848    0.7752    1.9107 H   0  0  0  0  0  0  0  0  0  0  0  0
   -0.0983    2.2747    1.6504 H   0  0  0  0  0  0  0  0  0  0  0  0
    2.3109   -0.4850    0.8885 H   0  0  0  0  0  0  0  0  0  0  0  0
    2.9229    1.1158    1.3946 H   0  0  0  0  0  0  0  0  0  0  0  0
    4.6352    0.9978   -0.4377 H   0  0  0  0  0  0  0  0  0  0  0  0
    4.0503   -0.6020   -0.8706 H   0  0  0  0  0  0  0  0  0  0  0  0
    4.7007   -1.4732    1.3710 H   0  0  0  0  0  0  0  0  0  0  0  0
    5.1727    0.1429    1.8869 H   0  0  0  0  0  0  0  0  0  0  0  0
   -7.3929    1.1403    0.9267 H   0  0  0  0  0  0  0  0  0  0  0  0
   -5.4288   -3.1105   -0.8977 H   0  0  0  0  0  0  0  0  0  0  0  0
   -8.8464   -0.8349    0.4162 H   0  0  0  0  0  0  0  0  0  0  0  0
   -7.8734   -2.9171   -0.4790 H   0  0  0  0  0  0  0  0  0  0  0  0
    6.1101   -2.1044   -1.2398 H   0  0  0  0  0  0  0  0  0  0  0  0
    8.7200   -2.0841   -1.6862 H   0  0  0  0  0  0  0  0  0  0  0  0
    9.9711   -0.5748    0.0711 H   0  0  0  0  0  0  0  0  0  0  0  0
  1 20  1  0  0  0  0
  1 25  1  0  0  0  0
  2 11  1  0  0  0  0
  2 15  1  0  0  0  0
  3 12  2  0  0  0  0
  4  9  1  0  0  0  0
  4 10  1  0  0  0  0
  4 12  1  0  0  0  0
  5 11  2  0  0  0  0
  5 16  1  0  0  0  0
  6  7  1  0  0  0  0
  6  8  1  0  0  0  0
  6 11  1  0  0  0  0
  6 26  1  0  0  0  0
  7  9  1  0  0  0  0
  7 27  1  0  0  0  0
  7 28  1  0  0  0  0
  8 10  1  0  0  0  0
  8 29  1  0  0  0  0
  8 30  1  0  0  0  0
  9 31  1  0  0  0  0
  9 32  1  0  0  0  0
 10 33  1  0  0  0  0
 10 34  1  0  0  0  0
 12 13  1  0  0  0  0
 13 14  1  0  0  0  0
 13 35  1  0  0  0  0
 13 36  1  0  0  0  0
 14 17  1  0  0  0  0
 14 37  1  0  0  0  0
 14 38  1  0  0  0  0
 15 16  1  0  0  0  0
 15 18  2  0  0  0  0
 16 19  2  0  0  0  0
 17 20  1  0  0  0  0
 17 39  1  0  0  0  0
 17 40  1  0  0  0  0
 18 21  1  0  0  0  0
 18 41  1  0  0  0  0
 19 22  1  0  0  0  0
 19 42  1  0  0  0  0
 20 23  2  0  0  0  0
 21 22  2  0  0  0  0
 21 43  1  0  0  0  0
 22 44  1  0  0  0  0
 23 24  1  0  0  0  0
 23 45  1  0  0  0  0
 24 25  2  0  0  0  0
 24 46  1  0  0  0  0
 25 47  1  0  0  0  0
M  END
> <PUBCHEM_COMPOUND_CID>
17396440

> <PUBCHEM_CONFORMER_RMSD>
1.2

> <PUBCHEM_CONFORMER_DIVERSEORDER>
1
27
66
8
9
20
22
62
47
51
57
43
28
64
21
23
17
29
53
65
35
5
50
38
12
10
41
56
42
2
36
4
33
15
30
48
7
34
25
19
52
26
40
45
46
6
16
55
13
54
24
31
39
49
18
37
3
11
44
63
58
59
68
60
14
32
67
61

> <PUBCHEM_MMFF94_PARTIAL_CHARGES>
29
1 -0.08
10 0.3
11 0.3
12 0.57
13 0.06
15 0.14
16 0.23
17 0.18
18 -0.15
19 -0.15
2 -0.28
20 -0.14
21 -0.15
22 -0.15
23 -0.15
24 -0.15
25 -0.11
3 -0.57
4 -0.66
41 0.15
42 0.15
43 0.15
44 0.15
45 0.15
46 0.15
47 0.15
5 -0.57
6 0.18
9 0.3

> <PUBCHEM_EFFECTIVE_ROTOR_COUNT>
7.2

> <PUBCHEM_PHARMACOPHORE_FEATURES>
5
1 3 acceptor
5 1 20 23 24 25 rings
5 2 5 11 15 16 rings
6 15 16 18 19 21 22 rings
6 4 6 7 8 9 10 rings

> <PUBCHEM_HEAVY_ATOM_COUNT>
25

> <PUBCHEM_ATOM_DEF_STEREO_COUNT>
0

> <PUBCHEM_ATOM_UDEF_STEREO_COUNT>
0

> <PUBCHEM_BOND_DEF_STEREO_COUNT>
0

> <PUBCHEM_BOND_UDEF_STEREO_COUNT>
0

> <PUBCHEM_ISOTOPIC_ATOM_COUNT>
0

> <PUBCHEM_COMPONENT_COUNT>
1

> <PUBCHEM_CACTVS_TAUTO_COUNT>
1

> <PUBCHEM_CONFORMER_ID>
010972D800000001

> <PUBCHEM_MMFF94_ENERGY>
36.2954

> <PUBCHEM_FEATURE_SELFOVERLAP>
25.49

> <PUBCHEM_SHAPE_FINGERPRINT>
10 15 15791734092334474544
10299344 5 18411416211411735992
106641 1 13912325664474284757
10670039 82 14261361270940292935
10674148 151 18060702801678728825
11135609 99 18334575694817718614
11524674 6 17095245812824245423
11823591 26 7781517001394435260
12236239 1 18272087142424499429
12539745 222 17967530212026463593
13540713 4 15070002672282239032
13540713 5 16054653839163369536
13668630 136 18410293631804886914
13673619 4 18413674612564456988
13685833 64 18334858329561933240
13885169 127 18334012830542246553
14068700 675 18272931639831421364
14178184 131 17822859662883171383
14344974 52 11959721652146527443
14428016 86 9079121067936083916
14556957 393 16056307444843100686
14767858 380 16988846098806233680
14931854 50 16487259910805962738
15183329 4 14548741720361519836
15198563 99 16343714265163007495
15301273 46 16225757532844388964
15419008 91 18264510480190168248
15510800 12 18339627976032434475
15690457 1 18334860502156222814
15706992 2 9006779838996189087
15716309 27 17676491648716919832
16992779 147 16445056110926461952
1818759 1 18341606014519474226
18335252 98 18187366546141986538
18603816 31 18041288660711792775
18643901 69 18342455958519160559
20554085 129 11527944514177840804
21150785 3 14620792708649887304
21267235 1 18201717345357199969
21403212 168 5978387205289756152
21591340 7 7276825766824243060
21756936 100 8934993763837113985
21792938 703 17916021244776233307
22224240 67 4751155220210078692
23389318 12 17988920051546131156
23522609 53 18055603287913392508
23524908 199 11815630700771648576
23559900 14 18057040216635155633
23576562 1 13757774968020250267
246663 6 18341892995680804794
2838139 119 9943515315208861042
3004659 81 17989490701352806696
3178227 256 16153430541609856130
3383291 50 18411136901036343811
3627633 1 18340487884510014468
4066623 53 15482669079238749150
445580 204 9439407938403365678
484989 97 16844714327803665267
5104073 3 14274326660947903242
5219985 9 17989488532774539892
5385378 56 6266907849060694284
54039377 194 18201716237203091347
543368 44 9151181948452246135
5470011 282 16272204189778326730
559249 180 18410576172397626255
5758199 1 7060379223484410764
5937810 71 13038919858445186071
5969126 39 17775290490418156180
6058803 2 16411565256895080448
6138700 20 18341894087172528363
9689198 14 10159698006059785122
999808 66 18113620083882420182

> <PUBCHEM_SHAPE_MULTIPOLES>
496.64
28.25
1.95
1.14
24.31
0.31
0.06
19.86
-1.81
-1.43
0.56
0.96
-0.3
0.04

> <PUBCHEM_SHAPE_SELFOVERLAP>
1052.886

> <PUBCHEM_SHAPE_VOLUME>
278.3

> <PUBCHEM_COORDINATE_TYPE>
2
5
10

$$$$

