443350
  -OEChem-07051213022D

 71 74  0     1  0  0  0  0  0999 V2000
    3.7562    0.6433    0.0000 O   0  0  0  0  0  0  0  0  0  0  0  0
    3.5823    3.3983    0.0000 O   0  0  0  0  0  0  0  0  0  0  0  0
    7.1974    2.1747    0.0000 O   0  0  0  0  0  0  0  0  0  0  0  0
    6.7925    0.4514    0.0000 O   0  0  0  0  0  0  0  0  0  0  0  0
    8.0662   -0.7224    0.0000 O   0  0  0  0  0  0  0  0  0  0  0  0
    8.1479    1.9221    0.0000 O   0  0  0  0  0  0  0  0  0  0  0  0
    2.1810    2.3802    0.0000 O   0  0  0  0  0  0  0  0  0  0  0  0
   10.0992    1.4837    0.0000 O   0  0  0  0  0  0  0  0  0  0  0  0
   10.6952   -0.4254    0.0000 O   0  0  0  0  0  0  0  0  0  0  0  0
    8.6622   -2.6315    0.0000 O   0  0  0  0  0  0  0  0  0  0  0  0
    9.8012    2.4383    0.0000 O   0  0  0  0  0  0  0  0  0  0  0  0
   11.3729    0.3099    0.0000 O   0  0  0  0  0  0  0  0  0  0  0  0
   10.3155   -2.1154    0.0000 O   0  0  0  0  0  0  0  0  0  0  0  0
    9.9359   -3.8053    0.0000 O   0  0  0  0  0  0  0  0  0  0  0  0
    4.6701    1.0504    0.0000 C   0  0  1  0  0  0  0  0  0  0  0  0
    3.8611    1.6382    0.0000 C   0  0  2  0  0  0  0  0  0  0  0  0
    5.4791    1.6382    0.0000 C   0  0  2  0  0  0  0  0  0  0  0  0
    5.1701    2.5893    0.0000 C   0  0  2  0  0  0  0  0  0  0  0  0
    4.1701    2.5893    0.0000 C   0  0  2  0  0  0  0  0  0  0  0  0
    6.4945    1.4060    0.0000 C   0  0  1  0  0  0  0  0  0  0  0  0
    5.8551    3.3740    0.0000 C   0  0  0  0  0  0  0  0  0  0  0  0
    6.8756    3.1653    0.0000 C   0  0  0  0  0  0  0  0  0  0  0  0
    5.5351    4.3214    0.0000 C   0  0  0  0  0  0  0  0  0  0  0  0
    7.7682    0.2322    0.0000 C   0  0  2  0  0  0  0  0  0  0  0  0
    2.5878    3.2938    0.0000 C   0  0  0  0  0  0  0  0  0  0  0  0
    8.4459    0.9676    0.0000 C   0  0  1  0  0  0  0  0  0  0  0  0
    9.4216    0.7483    0.0000 C   0  0  2  0  0  0  0  0  0  0  0  0
    9.0419   -0.9416    0.0000 C   0  0  1  0  0  0  0  0  0  0  0  0
    9.7196   -0.2062    0.0000 C   0  0  1  0  0  0  0  0  0  0  0  0
    2.0000    4.1028    0.0000 C   0  0  0  0  0  0  0  0  0  0  0  0
    9.3399   -1.8962    0.0000 C   0  0  0  0  0  0  0  0  0  0  0  0
    8.8256    2.6575    0.0000 C   0  0  0  0  0  0  0  0  0  0  0  0
   11.0749    1.2645    0.0000 C   0  0  0  0  0  0  0  0  0  0  0  0
   10.9932   -1.3800    0.0000 C   0  0  0  0  0  0  0  0  0  0  0  0
    8.5276    3.6120    0.0000 C   0  0  0  0  0  0  0  0  0  0  0  0
   11.7526    1.9998    0.0000 C   0  0  0  0  0  0  0  0  0  0  0  0
    8.9602   -3.5861    0.0000 C   0  0  0  0  0  0  0  0  0  0  0  0
   11.9689   -1.5992    0.0000 C   0  0  0  0  0  0  0  0  0  0  0  0
    8.2825   -4.3214    0.0000 C   0  0  0  0  0  0  0  0  0  0  0  0
    4.9802    0.5135    0.0000 H   0  0  0  0  0  0  0  0  0  0  0  0
    3.2546    1.7672    0.0000 H   0  0  0  0  0  0  0  0  0  0  0  0
    5.6494    0.8055    0.0000 H   0  0  0  0  0  0  0  0  0  0  0  0
    4.8184    3.3631    0.0000 H   0  0  0  0  0  0  0  0  0  0  0  0
    4.4516    3.1417    0.0000 H   0  0  0  0  0  0  0  0  0  0  0  0
    6.0735    0.9509    0.0000 H   0  0  0  0  0  0  0  0  0  0  0  0
    7.2886    3.6276    0.0000 H   0  0  0  0  0  0  0  0  0  0  0  0
    6.1225    4.5198    0.0000 H   0  0  0  0  0  0  0  0  0  0  0  0
    5.3367    4.9088    0.0000 H   0  0  0  0  0  0  0  0  0  0  0  0
    4.9477    4.1230    0.0000 H   0  0  0  0  0  0  0  0  0  0  0  0
    7.3480   -0.2237    0.0000 H   0  0  0  0  0  0  0  0  0  0  0  0
    8.8660    1.4235    0.0000 H   0  0  0  0  0  0  0  0  0  0  0  0
   10.0265    0.6124    0.0000 H   0  0  0  0  0  0  0  0  0  0  0  0
    9.9043   -0.7981    0.0000 H   0  0  0  0  0  0  0  0  0  0  0  0
    8.6217   -1.3975    0.0000 H   0  0  0  0  0  0  0  0  0  0  0  0
    2.5016    4.4672    0.0000 H   0  0  0  0  0  0  0  0  0  0  0  0
    1.6356    4.6044    0.0000 H   0  0  0  0  0  0  0  0  0  0  0  0
    1.4984    3.7384    0.0000 H   0  0  0  0  0  0  0  0  0  0  0  0
    9.7159   -2.3891    0.0000 H   0  0  0  0  0  0  0  0  0  0  0  0
    9.8906   -1.6114    0.0000 H   0  0  0  0  0  0  0  0  0  0  0  0
    9.1194    3.7968    0.0000 H   0  0  0  0  0  0  0  0  0  0  0  0
    8.3428    4.2039    0.0000 H   0  0  0  0  0  0  0  0  0  0  0  0
    7.9357    3.4273    0.0000 H   0  0  0  0  0  0  0  0  0  0  0  0
   12.2085    1.5797    0.0000 H   0  0  0  0  0  0  0  0  0  0  0  0
   12.1727    2.4558    0.0000 H   0  0  0  0  0  0  0  0  0  0  0  0
   11.2967    2.4200    0.0000 H   0  0  0  0  0  0  0  0  0  0  0  0
   11.8330   -2.2041    0.0000 H   0  0  0  0  0  0  0  0  0  0  0  0
   12.5738   -1.7351    0.0000 H   0  0  0  0  0  0  0  0  0  0  0  0
   12.1048   -0.9943    0.0000 H   0  0  0  0  0  0  0  0  0  0  0  0
    7.8266   -3.9013    0.0000 H   0  0  0  0  0  0  0  0  0  0  0  0
    7.8624   -4.7774    0.0000 H   0  0  0  0  0  0  0  0  0  0  0  0
    8.7384   -4.7416    0.0000 H   0  0  0  0  0  0  0  0  0  0  0  0
 15  1  1  1  0  0  0
 16  1  1  1  0  0  0
 19  2  1  1  0  0  0
  2 25  1  0  0  0  0
  3 20  1  0  0  0  0
  3 22  1  0  0  0  0
 20  4  1  1  0  0  0
 24  4  1  1  0  0  0
  5 24  1  0  0  0  0
  5 28  1  0  0  0  0
 26  6  1  6  0  0  0
  6 32  1  0  0  0  0
  7 25  2  0  0  0  0
 27  8  1  1  0  0  0
  8 33  1  0  0  0  0
 29  9  1  6  0  0  0
  9 34  1  0  0  0  0
 10 31  1  0  0  0  0
 10 37  1  0  0  0  0
 11 32  2  0  0  0  0
 12 33  2  0  0  0  0
 13 34  2  0  0  0  0
 14 37  2  0  0  0  0
 15 16  1  0  0  0  0
 15 17  1  0  0  0  0
 15 40  1  0  0  0  0
 16 19  1  0  0  0  0
 16 41  1  0  0  0  0
 17 18  1  0  0  0  0
 17 20  1  0  0  0  0
 17 42  1  1  0  0  0
 18 19  1  0  0  0  0
 18 21  1  0  0  0  0
 18 43  1  1  0  0  0
 19 44  1  0  0  0  0
 20 45  1  0  0  0  0
 21 22  2  0  0  0  0
 21 23  1  0  0  0  0
 22 46  1  0  0  0  0
 23 47  1  0  0  0  0
 23 48  1  0  0  0  0
 23 49  1  0  0  0  0
 24 26  1  0  0  0  0
 24 50  1  0  0  0  0
 25 30  1  0  0  0  0
 26 27  1  0  0  0  0
 26 51  1  0  0  0  0
 27 29  1  0  0  0  0
 27 52  1  0  0  0  0
 28 29  1  0  0  0  0
 28 31  1  1  0  0  0
 28 54  1  0  0  0  0
 29 53  1  0  0  0  0
 30 55  1  0  0  0  0
 30 56  1  0  0  0  0
 30 57  1  0  0  0  0
 31 58  1  0  0  0  0
 31 59  1  0  0  0  0
 32 35  1  0  0  0  0
 33 36  1  0  0  0  0
 34 38  1  0  0  0  0
 35 60  1  0  0  0  0
 35 61  1  0  0  0  0
 35 62  1  0  0  0  0
 36 63  1  0  0  0  0
 36 64  1  0  0  0  0
 36 65  1  0  0  0  0
 37 39  1  0  0  0  0
 38 66  1  0  0  0  0
 38 67  1  0  0  0  0
 38 68  1  0  0  0  0
 39 69  1  0  0  0  0
 39 70  1  0  0  0  0
 39 71  1  0  0  0  0
M  END
> <PUBCHEM_COMPOUND_CID>
443350

> <PUBCHEM_COMPOUND_CANONICALIZED>
1

> <PUBCHEM_CACTVS_COMPLEXITY>
1040

> <PUBCHEM_CACTVS_HBOND_ACCEPTOR>
14

> <PUBCHEM_CACTVS_HBOND_DONOR>
0

> <PUBCHEM_CACTVS_ROTATABLE_BOND>
13

> <PUBCHEM_CACTVS_SUBSKEYS>
AAADcfB4PAAAAAAAAAAAAAAAEgAAAYAAAAAkSIAAAAAAAEAAAAAAGgAAAAAADRSwgAMCCAAABACIAgDSCAAACAAgIAAAAAAAAAgRAAIAAQAiAAAFwAAGAAHA4KwOgAAAAAAAAAAAAAAAAAAAAIQADCAAAA==

> <PUBCHEM_IUPAC_OPENEYE_NAME>
[(2R,3R,4S,5R,6S)-6-[[(1aR,1bS,2S,5aS,6S,6aR)-6-acetoxy-5-methyl-1a,1b,2,5a,6,6a-hexahydrooxireno[3,4]cyclopenta[1,3-d]pyran-2-yl]oxy]-3,4,5-triacetoxy-tetrahydropyran-2-yl]methyl acetate

> <PUBCHEM_IUPAC_CAS_NAME>
acetic acid [(2R,3R,4S,5R,6S)-6-[[(1aR,1bS,2S,5aS,6S,6aR)-6-acetyloxy-5-methyl-1a,1b,2,5a,6,6a-hexahydrooxireno[3,4]cyclopenta[1,3-d]pyran-2-yl]oxy]-3,4,5-triacetyloxy-2-oxanyl]methyl ester

> <PUBCHEM_IUPAC_NAME>
[(2R,3R,4S,5R,6S)-6-[[(1aR,1bS,2S,5aS,6S,6aR)-6-acetyloxy-5-methyl-1a,1b,2,5a,6,6a-hexahydrooxireno[3,4]cyclopenta[1,3-d]pyran-2-yl]oxy]-3,4,5-triacetyloxyoxan-2-yl]methyl acetate

> <PUBCHEM_IUPAC_SYSTEMATIC_NAME>
[(2R,3R,4S,5R,6S)-6-[[(1aR,1bS,2S,5aS,6S,6aR)-6-acetyloxy-5-methyl-1a,1b,2,5a,6,6a-hexahydrooxireno[3,4]cyclopenta[1,3-d]pyran-2-yl]oxy]-3,4,5-triacetyloxy-oxan-2-yl]methyl ethanoate

> <PUBCHEM_IUPAC_TRADITIONAL_NAME>
acetic acid [(2R,3R,4S,5R,6S)-6-[[(1aR,1bS,2S,5aS,6S,6aR)-6-acetoxy-5-methyl-1a,1b,2,5a,6,6a-hexahydrooxireno[3,4]cyclopenta[1,3-d]pyran-2-yl]oxy]-3,4,5-triacetoxy-tetrahydropyran-2-yl]methyl ester

> <PUBCHEM_IUPAC_INCHI>
InChI=1S/C25H32O14/c1-9-7-32-24(17-16(9)19(34-12(4)28)22-20(17)38-22)39-25-23(36-14(6)30)21(35-13(5)29)18(33-11(3)27)15(37-25)8-31-10(2)26/h7,15-25H,8H2,1-6H3/t15-,16-,17+,18-,19+,20-,21+,22+,23-,24+,25+/m1/s1

> <PUBCHEM_IUPAC_INCHIKEY>
CZTGVICQDJFDKK-OIQLKJBESA-N

> <PUBCHEM_XLOGP3_AA>
-0.1

> <PUBCHEM_EXACT_MASS>
556.179206

> <PUBCHEM_MOLECULAR_FORMULA>
C25H32O14

> <PUBCHEM_MOLECULAR_WEIGHT>
556.51318

> <PUBCHEM_OPENEYE_CAN_SMILES>
CC1=COC(C2C1C(C3C2O3)OC(=O)C)OC4C(C(C(C(O4)COC(=O)C)OC(=O)C)OC(=O)C)OC(=O)C

> <PUBCHEM_OPENEYE_ISO_SMILES>
CC1=CO[C@H]([C@H]2[C@@H]1[C@@H]([C@H]3[C@@H]2O3)OC(=O)C)O[C@H]4[C@@H]([C@H]([C@@H]([C@H](O4)COC(=O)C)OC(=O)C)OC(=O)C)OC(=O)C

> <PUBCHEM_CACTVS_TPSA>
172

> <PUBCHEM_MONOISOTOPIC_WEIGHT>
556.179206

> <PUBCHEM_TOTAL_CHARGE>
0

> <PUBCHEM_HEAVY_ATOM_COUNT>
39

> <PUBCHEM_ATOM_DEF_STEREO_COUNT>
11

> <PUBCHEM_ATOM_UDEF_STEREO_COUNT>
0

> <PUBCHEM_BOND_DEF_STEREO_COUNT>
0

> <PUBCHEM_BOND_UDEF_STEREO_COUNT>
0

> <PUBCHEM_ISOTOPIC_ATOM_COUNT>
0

> <PUBCHEM_COMPONENT_COUNT>
1

> <PUBCHEM_CACTVS_TAUTO_COUNT>
1

> <PUBCHEM_COORDINATE_TYPE>
1
5
255

> <PUBCHEM_BONDANNOTATIONS>
15  1  5
16  1  5
17  42  5
18  43  5
19  2  5
28  31  5
20  4  5
24  4  5
26  6  6
27  8  5
29  9  6

$$$$

