259035
  -OEChem-07051213063D

 59 61  0     0  0  0  0  0  0999 V2000
    0.4936   -1.0077   -0.7508 O   0  0  0  0  0  0  0  0  0  0  0  0
    4.5019    1.5151   -0.5993 O   0  0  0  0  0  0  0  0  0  0  0  0
    3.5765   -1.6165    0.2914 O   0  0  0  0  0  0  0  0  0  0  0  0
   -7.2730   -0.5750    0.0460 O   0  0  0  0  0  0  0  0  0  0  0  0
    4.6088    1.1434    1.7094 O   0  0  0  0  0  0  0  0  0  0  0  0
    4.6519   -3.3225   -0.8355 O   0  0  0  0  0  0  0  0  0  0  0  0
   -0.8336   -1.1986   -0.2079 C   0  0  0  0  0  0  0  0  0  0  0  0
   -1.6941    0.0674   -0.2508 C   0  0  0  0  0  0  0  0  0  0  0  0
   -1.1494    1.3025   -0.3203 C   0  0  0  0  0  0  0  0  0  0  0  0
    0.3274    1.3813   -0.3552 C   0  0  0  0  0  0  0  0  0  0  0  0
    1.0703    0.2170   -0.5734 C   0  0  0  0  0  0  0  0  0  0  0  0
   -0.6580   -1.7033    1.2358 C   0  0  0  0  0  0  0  0  0  0  0  0
   -1.4075   -2.3435   -1.0637 C   0  0  0  0  0  0  0  0  0  0  0  0
   -1.9241    2.5963   -0.3435 C   0  0  0  0  0  0  0  0  0  0  0  0
   -3.1613   -0.1013   -0.1734 C   0  0  0  0  0  0  0  0  0  0  0  0
    2.4656    0.2537   -0.6702 C   0  0  0  0  0  0  0  0  0  0  0  0
    1.0305    2.5889   -0.2087 C   0  0  0  0  0  0  0  0  0  0  0  0
    3.1437    1.4591   -0.5213 C   0  0  0  0  0  0  0  0  0  0  0  0
    2.4260    2.6266   -0.2869 C   0  0  0  0  0  0  0  0  0  0  0  0
   -2.1563    3.1271    1.0548 C   0  0  0  0  0  0  0  0  0  0  0  0
    3.2380   -0.9990   -0.9424 C   0  0  0  0  0  0  0  0  0  0  0  0
   -3.7876   -0.1384    1.0692 C   0  0  0  0  0  0  0  0  0  0  0  0
   -3.9069   -0.2222   -1.3424 C   0  0  0  0  0  0  0  0  0  0  0  0
   -5.1714   -0.2976    1.1433 C   0  0  0  0  0  0  0  0  0  0  0  0
   -5.2907   -0.3814   -1.2684 C   0  0  0  0  0  0  0  0  0  0  0  0
   -5.9230   -0.4193   -0.0256 C   0  0  0  0  0  0  0  0  0  0  0  0
    5.1548    1.3351    0.6309 C   0  0  0  0  0  0  0  0  0  0  0  0
    4.2893   -2.7805    0.1998 C   0  0  0  0  0  0  0  0  0  0  0  0
    6.6404    1.4137    0.4398 C   0  0  0  0  0  0  0  0  0  0  0  0
   -7.8552   -0.6053    1.3483 C   0  0  0  0  0  0  0  0  0  0  0  0
    4.5734   -3.3148    1.5710 C   0  0  0  0  0  0  0  0  0  0  0  0
    0.0550   -2.5358    1.2719 H   0  0  0  0  0  0  0  0  0  0  0  0
   -1.6020   -2.0457    1.6715 H   0  0  0  0  0  0  0  0  0  0  0  0
   -0.2473   -0.9199    1.8835 H   0  0  0  0  0  0  0  0  0  0  0  0
   -2.3691   -2.7095   -0.6894 H   0  0  0  0  0  0  0  0  0  0  0  0
   -1.5302   -2.0291   -2.1069 H   0  0  0  0  0  0  0  0  0  0  0  0
   -0.7154   -3.1947   -1.0843 H   0  0  0  0  0  0  0  0  0  0  0  0
   -2.8986    2.4557   -0.8259 H   0  0  0  0  0  0  0  0  0  0  0  0
   -1.4333    3.3502   -0.9693 H   0  0  0  0  0  0  0  0  0  0  0  0
    0.5242    3.5323   -0.0277 H   0  0  0  0  0  0  0  0  0  0  0  0
    2.9426    3.5754   -0.1681 H   0  0  0  0  0  0  0  0  0  0  0  0
   -2.7493    2.4400    1.6641 H   0  0  0  0  0  0  0  0  0  0  0  0
   -1.2190    3.3173    1.5869 H   0  0  0  0  0  0  0  0  0  0  0  0
   -2.7042    4.0742    1.0063 H   0  0  0  0  0  0  0  0  0  0  0  0
    2.6586   -1.6943   -1.5623 H   0  0  0  0  0  0  0  0  0  0  0  0
    4.1515   -0.7764   -1.5084 H   0  0  0  0  0  0  0  0  0  0  0  0
   -3.2161   -0.0449    1.9891 H   0  0  0  0  0  0  0  0  0  0  0  0
   -3.4291   -0.1911   -2.3183 H   0  0  0  0  0  0  0  0  0  0  0  0
   -5.5979   -0.3183    2.1404 H   0  0  0  0  0  0  0  0  0  0  0  0
   -5.8709   -0.4746   -2.1824 H   0  0  0  0  0  0  0  0  0  0  0  0
    6.9106    2.3972    0.0481 H   0  0  0  0  0  0  0  0  0  0  0  0
    7.1382    1.2713    1.4032 H   0  0  0  0  0  0  0  0  0  0  0  0
    6.9661    0.6239   -0.2417 H   0  0  0  0  0  0  0  0  0  0  0  0
   -7.7092    0.3431    1.8764 H   0  0  0  0  0  0  0  0  0  0  0  0
   -7.4982   -1.4629    1.9288 H   0  0  0  0  0  0  0  0  0  0  0  0
   -8.9345   -0.7353    1.2170 H   0  0  0  0  0  0  0  0  0  0  0  0
    5.1452   -4.2434    1.4875 H   0  0  0  0  0  0  0  0  0  0  0  0
    5.1661   -2.5899    2.1347 H   0  0  0  0  0  0  0  0  0  0  0  0
    3.6339   -3.5286    2.0866 H   0  0  0  0  0  0  0  0  0  0  0  0
  1  7  1  0  0  0  0
  1 11  1  0  0  0  0
  2 18  1  0  0  0  0
  2 27  1  0  0  0  0
  3 21  1  0  0  0  0
  3 28  1  0  0  0  0
  4 26  1  0  0  0  0
  4 30  1  0  0  0  0
  5 27  2  0  0  0  0
  6 28  2  0  0  0  0
  7  8  1  0  0  0  0
  7 12  1  0  0  0  0
  7 13  1  0  0  0  0
  8  9  2  0  0  0  0
  8 15  1  0  0  0  0
  9 10  1  0  0  0  0
  9 14  1  0  0  0  0
 10 11  2  0  0  0  0
 10 17  1  0  0  0  0
 11 16  1  0  0  0  0
 12 32  1  0  0  0  0
 12 33  1  0  0  0  0
 12 34  1  0  0  0  0
 13 35  1  0  0  0  0
 13 36  1  0  0  0  0
 13 37  1  0  0  0  0
 14 20  1  0  0  0  0
 14 38  1  0  0  0  0
 14 39  1  0  0  0  0
 15 22  2  0  0  0  0
 15 23  1  0  0  0  0
 16 18  2  0  0  0  0
 16 21  1  0  0  0  0
 17 19  2  0  0  0  0
 17 40  1  0  0  0  0
 18 19  1  0  0  0  0
 19 41  1  0  0  0  0
 20 42  1  0  0  0  0
 20 43  1  0  0  0  0
 20 44  1  0  0  0  0
 21 45  1  0  0  0  0
 21 46  1  0  0  0  0
 22 24  1  0  0  0  0
 22 47  1  0  0  0  0
 23 25  2  0  0  0  0
 23 48  1  0  0  0  0
 24 26  2  0  0  0  0
 24 49  1  0  0  0  0
 25 26  1  0  0  0  0
 25 50  1  0  0  0  0
 27 29  1  0  0  0  0
 28 31  1  0  0  0  0
 29 51  1  0  0  0  0
 29 52  1  0  0  0  0
 29 53  1  0  0  0  0
 30 54  1  0  0  0  0
 30 55  1  0  0  0  0
 30 56  1  0  0  0  0
 31 57  1  0  0  0  0
 31 58  1  0  0  0  0
 31 59  1  0  0  0  0
M  END
> <PUBCHEM_COMPOUND_CID>
259035

> <PUBCHEM_CONFORMER_RMSD>
1

> <PUBCHEM_CONFORMER_DIVERSEORDER>
1
5
4
12
9
7
6
11
8
3
2
10

> <PUBCHEM_MMFF94_PARTIAL_CHARGES>
34
1 -0.36
10 0.03
11 0.08
14 0.14
15 0.03
16 -0.14
17 -0.15
18 0.08
19 -0.15
2 -0.23
21 0.42
22 -0.15
23 -0.15
24 -0.15
25 -0.15
26 0.08
27 0.66
28 0.66
29 0.06
3 -0.43
30 0.28
31 0.06
4 -0.36
40 0.15
41 0.15
47 0.15
48 0.15
49 0.15
5 -0.57
50 0.15
6 -0.57
7 0.42
8 -0.17
9 -0.17

> <PUBCHEM_EFFECTIVE_ROTOR_COUNT>
8.4

> <PUBCHEM_PHARMACOPHORE_FEATURES>
9
1 1 acceptor
1 20 hydrophobe
1 4 acceptor
1 5 acceptor
1 6 acceptor
3 7 12 13 hydrophobe
6 1 7 8 9 10 11 rings
6 10 11 16 17 18 19 rings
6 15 22 23 24 25 26 rings

> <PUBCHEM_HEAVY_ATOM_COUNT>
31

> <PUBCHEM_ATOM_DEF_STEREO_COUNT>
0

> <PUBCHEM_ATOM_UDEF_STEREO_COUNT>
0

> <PUBCHEM_BOND_DEF_STEREO_COUNT>
0

> <PUBCHEM_BOND_UDEF_STEREO_COUNT>
0

> <PUBCHEM_ISOTOPIC_ATOM_COUNT>
0

> <PUBCHEM_COMPONENT_COUNT>
1

> <PUBCHEM_CACTVS_TAUTO_COUNT>
1

> <PUBCHEM_CONFORMER_ID>
0003F3DB00000001

> <PUBCHEM_MMFF94_ENERGY>
107.6331

> <PUBCHEM_FEATURE_SELFOVERLAP>
45.698

> <PUBCHEM_SHAPE_FINGERPRINT>
10050765 1 18339643468153336548
10411042 1 18267862964083114174
10906281 52 18265037047153358612
11796584 16 17060338492211917321
11963148 33 18270688554200638882
12236239 1 17676479537484028295
12422481 6 17970059148778037855
12788726 201 18040990760999231385
13073987 5 18411136969818428469
13140716 1 18048878485834534080
13533116 47 18408605872539366122
13540713 4 18196666292250871892
13540713 5 18194662964468722988
13782708 43 17632577158973612523
14394314 77 18186517684041672649
15131766 46 14346940539023884016
1577012 14 17894629249994475679
17492 89 18264771145923086046
19377110 9 18113621196247119536
21130935 74 18410005551443418659
21267235 1 18410288142968493302
21279426 13 18201162173658117341
21421861 104 18343030982327322858
21792934 111 18337399339525307649
22311459 1 18339079285786959436
23559900 14 17846487128391689870
23576562 1 8502361274440299832
335352 9 18337106748614378004
3383291 50 18271525398455640530
345986 75 18040997383748943040
34797466 226 16271634608210459847
34934 24 18335424504735198182
350125 39 18336542836493076548
3680242 22 18408599271417179739
4073 2 18199461057218411411
4093350 32 17821719550802230495
4340502 62 17775006751993238210
460360 51 18200875196527931764
5104073 3 18263080066700554185

> <PUBCHEM_SHAPE_MULTIPOLES>
602.75
15.74
3.45
1.29
12.08
0.68
0.24
4.09
4.35
-5.14
0.49
0.4
0.37
-0.28

> <PUBCHEM_SHAPE_SELFOVERLAP>
1292.209

> <PUBCHEM_SHAPE_VOLUME>
333.4

> <PUBCHEM_COORDINATE_TYPE>
2
5
10

$$$$

