17396639
  -OEChem-06241222572D

 38 39  0     1  0  0  0  0  0999 V2000
    3.7320   -5.2500    0.0000 Cl  0  0  0  0  0  0  0  0  0  0  0  0
    2.0000   -2.2500    0.0000 F   0  0  0  0  0  0  0  0  0  0  0  0
    5.4641    0.7500    0.0000 O   0  0  0  0  0  0  0  0  0  0  0  0
    5.4641   -1.2500    0.0000 O   0  0  0  0  0  0  0  0  0  0  0  0
    4.5981    5.2500    0.0000 O   0  0  0  0  0  0  0  0  0  0  0  0
    3.7320   -1.2500    0.0000 N   0  0  0  0  0  0  0  0  0  0  0  0
    4.5981    0.2500    0.0000 C   0  0  3  0  0  0  0  0  0  0  0  0
    4.5981   -0.7500    0.0000 C   0  0  0  0  0  0  0  0  0  0  0  0
    5.4641    1.7500    0.0000 C   0  0  0  0  0  0  0  0  0  0  0  0
    3.7320    0.7500    0.0000 C   0  0  0  0  0  0  0  0  0  0  0  0
    3.7320   -2.2500    0.0000 C   0  0  0  0  0  0  0  0  0  0  0  0
    5.4641    3.7500    0.0000 C   0  0  0  0  0  0  0  0  0  0  0  0
    6.3301    2.2500    0.0000 C   0  0  0  0  0  0  0  0  0  0  0  0
    4.5981    2.2500    0.0000 C   0  0  0  0  0  0  0  0  0  0  0  0
    6.3301    3.2500    0.0000 C   0  0  0  0  0  0  0  0  0  0  0  0
    4.5981    3.2500    0.0000 C   0  0  0  0  0  0  0  0  0  0  0  0
    2.8660   -2.7500    0.0000 C   0  0  0  0  0  0  0  0  0  0  0  0
    4.5981   -2.7500    0.0000 C   0  0  0  0  0  0  0  0  0  0  0  0
    5.4641    4.7500    0.0000 C   0  0  0  0  0  0  0  0  0  0  0  0
    2.8660   -3.7500    0.0000 C   0  0  0  0  0  0  0  0  0  0  0  0
    4.5981   -3.7500    0.0000 C   0  0  0  0  0  0  0  0  0  0  0  0
    3.7320   -4.2500    0.0000 C   0  0  0  0  0  0  0  0  0  0  0  0
    6.3301    5.2500    0.0000 C   0  0  0  0  0  0  0  0  0  0  0  0
    4.5981    0.8700    0.0000 H   0  0  0  0  0  0  0  0  0  0  0  0
    4.0420    1.2869    0.0000 H   0  0  0  0  0  0  0  0  0  0  0  0
    3.1951    1.0600    0.0000 H   0  0  0  0  0  0  0  0  0  0  0  0
    3.4220    0.2131    0.0000 H   0  0  0  0  0  0  0  0  0  0  0  0
    3.1951   -0.9400    0.0000 H   0  0  0  0  0  0  0  0  0  0  0  0
    6.8671    1.9400    0.0000 H   0  0  0  0  0  0  0  0  0  0  0  0
    4.0611    1.9400    0.0000 H   0  0  0  0  0  0  0  0  0  0  0  0
    6.8671    3.5600    0.0000 H   0  0  0  0  0  0  0  0  0  0  0  0
    4.0611    3.5600    0.0000 H   0  0  0  0  0  0  0  0  0  0  0  0
    5.1350   -2.4400    0.0000 H   0  0  0  0  0  0  0  0  0  0  0  0
    2.3291   -4.0600    0.0000 H   0  0  0  0  0  0  0  0  0  0  0  0
    5.1350   -4.0600    0.0000 H   0  0  0  0  0  0  0  0  0  0  0  0
    6.6401    4.7131    0.0000 H   0  0  0  0  0  0  0  0  0  0  0  0
    6.8671    5.5600    0.0000 H   0  0  0  0  0  0  0  0  0  0  0  0
    6.0201    5.7869    0.0000 H   0  0  0  0  0  0  0  0  0  0  0  0
  1 22  1  0  0  0  0
  2 17  1  0  0  0  0
  3  7  1  0  0  0  0
  3  9  1  0  0  0  0
  4  8  2  0  0  0  0
  5 19  2  0  0  0  0
  6  8  1  0  0  0  0
  6 11  1  0  0  0  0
  6 28  1  0  0  0  0
  7  8  1  0  0  0  0
  7 10  1  0  0  0  0
  7 24  1  0  0  0  0
  9 13  2  0  0  0  0
  9 14  1  0  0  0  0
 10 25  1  0  0  0  0
 10 26  1  0  0  0  0
 10 27  1  0  0  0  0
 11 17  2  0  0  0  0
 11 18  1  0  0  0  0
 12 15  2  0  0  0  0
 12 16  1  0  0  0  0
 12 19  1  0  0  0  0
 13 15  1  0  0  0  0
 13 29  1  0  0  0  0
 14 16  2  0  0  0  0
 14 30  1  0  0  0  0
 15 31  1  0  0  0  0
 16 32  1  0  0  0  0
 17 20  1  0  0  0  0
 18 21  2  0  0  0  0
 18 33  1  0  0  0  0
 19 23  1  0  0  0  0
 20 22  2  0  0  0  0
 20 34  1  0  0  0  0
 21 22  1  0  0  0  0
 21 35  1  0  0  0  0
 23 36  1  0  0  0  0
 23 37  1  0  0  0  0
 23 38  1  0  0  0  0
M  END
> <PUBCHEM_COMPOUND_CID>
17396639

> <PUBCHEM_COMPOUND_CANONICALIZED>
1

> <PUBCHEM_CACTVS_COMPLEXITY>
426

> <PUBCHEM_CACTVS_HBOND_ACCEPTOR>
4

> <PUBCHEM_CACTVS_HBOND_DONOR>
1

> <PUBCHEM_CACTVS_ROTATABLE_BOND>
5

> <PUBCHEM_CACTVS_SUBSKEYS>
AAADccB6MQAEAAAAAAAAAAAAAAAAAAAAAAAwYAAAAAAAAAABQAAAHwIQAAAADB6hmCoyxoLABACIAqVSUAKCCAAlJwAIiAFGbsgOJjLFt5+HOSjk1BHY6YeYzIDOIABAAAAAAABAAIAAAAAAAAAAAAAAAA==

> <PUBCHEM_IUPAC_OPENEYE_NAME>
2-(4-acetylphenoxy)-N-(4-chloro-2-fluoro-phenyl)propanamide

> <PUBCHEM_IUPAC_CAS_NAME>
2-(4-acetylphenoxy)-N-(4-chloro-2-fluorophenyl)propanamide

> <PUBCHEM_IUPAC_NAME>
2-(4-acetylphenoxy)-N-(4-chloro-2-fluorophenyl)propanamide

> <PUBCHEM_IUPAC_SYSTEMATIC_NAME>
N-(4-chloranyl-2-fluoranyl-phenyl)-2-(4-ethanoylphenoxy)propanamide

> <PUBCHEM_IUPAC_TRADITIONAL_NAME>
2-(4-acetylphenoxy)-N-(4-chloro-2-fluoro-phenyl)propionamide

> <PUBCHEM_IUPAC_INCHI>
InChI=1S/C17H15ClFNO3/c1-10(21)12-3-6-14(7-4-12)23-11(2)17(22)20-16-8-5-13(18)9-15(16)19/h3-9,11H,1-2H3,(H,20,22)

> <PUBCHEM_IUPAC_INCHIKEY>
QSESDNPICINVLW-UHFFFAOYSA-N

> <PUBCHEM_XLOGP3>
3.7

> <PUBCHEM_EXACT_MASS>
335.072449

> <PUBCHEM_MOLECULAR_FORMULA>
C17H15ClFNO3

> <PUBCHEM_MOLECULAR_WEIGHT>
335.757303

> <PUBCHEM_OPENEYE_CAN_SMILES>
CC(C(=O)NC1=C(C=C(C=C1)Cl)F)OC2=CC=C(C=C2)C(=O)C

> <PUBCHEM_OPENEYE_ISO_SMILES>
CC(C(=O)NC1=C(C=C(C=C1)Cl)F)OC2=CC=C(C=C2)C(=O)C

> <PUBCHEM_CACTVS_TPSA>
55.4

> <PUBCHEM_MONOISOTOPIC_WEIGHT>
335.072449

> <PUBCHEM_TOTAL_CHARGE>
0

> <PUBCHEM_HEAVY_ATOM_COUNT>
23

> <PUBCHEM_ATOM_DEF_STEREO_COUNT>
0

> <PUBCHEM_ATOM_UDEF_STEREO_COUNT>
1

> <PUBCHEM_BOND_DEF_STEREO_COUNT>
0

> <PUBCHEM_BOND_UDEF_STEREO_COUNT>
0

> <PUBCHEM_ISOTOPIC_ATOM_COUNT>
0

> <PUBCHEM_COMPONENT_COUNT>
1

> <PUBCHEM_CACTVS_TAUTO_COUNT>
6

> <PUBCHEM_COORDINATE_TYPE>
1
5
255

> <PUBCHEM_BONDANNOTATIONS>
11  17  8
11  18  8
12  15  8
12  16  8
13  15  8
14  16  8
17  20  8
18  21  8
20  22  8
21  22  8
7  10  3
9  13  8
9  14  8

$$$$

