53297366
  -OEChem-07051213083D

 75 78  0     1  0  0  0  0  0999 V2000
    7.7688    0.8647   -1.1181 O   0  0  0  0  0  0  0  0  0  0  0  0
   -0.6152   -0.9552    0.5590 C   0  0  1  0  0  0  0  0  0  0  0  0
    0.0219    0.4324    0.7724 C   0  0  2  0  0  0  0  0  0  0  0  0
    1.5425    0.3801    0.9503 C   0  0  1  0  0  0  0  0  0  0  0  0
    2.1891   -0.2908   -0.2967 C   0  0  1  0  0  0  0  0  0  0  0  0
   -2.1036   -0.5358    0.4836 C   0  0  2  0  0  0  0  0  0  0  0  0
   -0.0425   -1.5300   -0.7441 C   0  0  0  0  0  0  0  0  0  0  0  0
    3.7589   -0.4041   -0.1440 C   0  0  2  0  0  0  0  0  0  0  0  0
   -0.8265    1.0545    1.8772 C   0  0  0  0  0  0  0  0  0  0  0  0
    1.4924   -1.6219   -0.6921 C   0  0  0  0  0  0  0  0  0  0  0  0
   -2.2445    0.5179    1.6074 C   0  0  0  0  0  0  0  0  0  0  0  0
    2.1159    1.7913    1.1479 C   0  0  0  0  0  0  0  0  0  0  0  0
   -3.1317   -1.6531    0.5872 C   0  0  1  0  0  0  0  0  0  0  0  0
   -0.3725   -1.9463    1.7242 C   0  0  0  0  0  0  0  0  0  0  0  0
    4.3495    0.9023    0.4048 C   0  0  0  0  0  0  0  0  0  0  0  0
    4.3668   -0.6871   -1.5504 C   0  0  0  0  0  0  0  0  0  0  0  0
    3.5972    1.8675    0.9610 C   0  0  0  0  0  0  0  0  0  0  0  0
    4.1495   -1.5481    0.8223 C   0  0  0  0  0  0  0  0  0  0  0  0
    5.8457    1.0834    0.2928 C   0  0  0  0  0  0  0  0  0  0  0  0
    5.8877   -0.5548   -1.6180 C   0  0  0  0  0  0  0  0  0  0  0  0
   -4.5595   -1.0678    0.5398 C   0  0  0  0  0  0  0  0  0  0  0  0
    6.3457    0.8133   -1.1228 C   0  0  2  0  0  0  0  0  0  0  0  0
   -2.8976   -2.6866   -0.5196 C   0  0  0  0  0  0  0  0  0  0  0  0
   -4.8748   -0.3205   -0.7627 C   0  0  0  0  0  0  0  0  0  0  0  0
   -6.2926    0.2198   -0.7848 C   0  0  0  0  0  0  0  0  0  0  0  0
   -6.4437    1.7361   -0.8448 C   0  0  0  0  0  0  0  0  0  0  0  0
   -7.3295   -0.6345   -0.7373 C   0  0  0  0  0  0  0  0  0  0  0  0
   -5.8508    2.2852   -2.1460 C   0  0  0  0  0  0  0  0  0  0  0  0
   -5.8464    2.4881    0.3516 C   0  0  0  0  0  0  0  0  0  0  0  0
   -0.1651    1.0384   -0.1305 H   0  0  0  0  0  0  0  0  0  0  0  0
    1.7830   -0.2031    1.8463 H   0  0  0  0  0  0  0  0  0  0  0  0
    1.9991    0.3961   -1.1378 H   0  0  0  0  0  0  0  0  0  0  0  0
   -2.2286   -0.0137   -0.4743 H   0  0  0  0  0  0  0  0  0  0  0  0
   -0.3280   -0.9009   -1.5969 H   0  0  0  0  0  0  0  0  0  0  0  0
   -0.4039   -2.5355   -0.9610 H   0  0  0  0  0  0  0  0  0  0  0  0
   -0.4828    0.7441    2.8702 H   0  0  0  0  0  0  0  0  0  0  0  0
   -0.8024    2.1486    1.8455 H   0  0  0  0  0  0  0  0  0  0  0  0
    1.7646   -2.4196    0.0051 H   0  0  0  0  0  0  0  0  0  0  0  0
    1.8455   -1.9438   -1.6784 H   0  0  0  0  0  0  0  0  0  0  0  0
   -2.9079    1.3305    1.2969 H   0  0  0  0  0  0  0  0  0  0  0  0
   -2.6528    0.0913    2.5306 H   0  0  0  0  0  0  0  0  0  0  0  0
    1.8707    2.1385    2.1589 H   0  0  0  0  0  0  0  0  0  0  0  0
    1.6520    2.4987    0.4492 H   0  0  0  0  0  0  0  0  0  0  0  0
   -3.0437   -2.1673    1.5524 H   0  0  0  0  0  0  0  0  0  0  0  0
    0.6898   -2.0862    1.9419 H   0  0  0  0  0  0  0  0  0  0  0  0
   -0.7718   -2.9396    1.4976 H   0  0  0  0  0  0  0  0  0  0  0  0
   -0.8403   -1.6155    2.6570 H   0  0  0  0  0  0  0  0  0  0  0  0
    3.9366    0.0095   -2.2830 H   0  0  0  0  0  0  0  0  0  0  0  0
    4.0960   -1.6947   -1.8876 H   0  0  0  0  0  0  0  0  0  0  0  0
    4.0709    2.7809    1.3129 H   0  0  0  0  0  0  0  0  0  0  0  0
    3.8894   -2.5297    0.4134 H   0  0  0  0  0  0  0  0  0  0  0  0
    3.6546   -1.4466    1.7937 H   0  0  0  0  0  0  0  0  0  0  0  0
    5.2264   -1.5780    1.0190 H   0  0  0  0  0  0  0  0  0  0  0  0
    6.1542    2.0946    0.5886 H   0  0  0  0  0  0  0  0  0  0  0  0
    6.3518    0.4168    1.0025 H   0  0  0  0  0  0  0  0  0  0  0  0
    6.3719   -1.3493   -1.0369 H   0  0  0  0  0  0  0  0  0  0  0  0
    6.2258   -0.7040   -2.6509 H   0  0  0  0  0  0  0  0  0  0  0  0
   -4.7276   -0.4042    1.3967 H   0  0  0  0  0  0  0  0  0  0  0  0
   -5.2633   -1.8997    0.6722 H   0  0  0  0  0  0  0  0  0  0  0  0
    5.9850    1.5978   -1.7993 H   0  0  0  0  0  0  0  0  0  0  0  0
   -2.1119   -3.3957   -0.2516 H   0  0  0  0  0  0  0  0  0  0  0  0
   -3.7980   -3.2972   -0.6587 H   0  0  0  0  0  0  0  0  0  0  0  0
   -2.6718   -2.2263   -1.4864 H   0  0  0  0  0  0  0  0  0  0  0  0
   -4.1717    0.5018   -0.9044 H   0  0  0  0  0  0  0  0  0  0  0  0
   -4.7463   -0.9818   -1.6283 H   0  0  0  0  0  0  0  0  0  0  0  0
    8.0710    0.6947   -2.0266 H   0  0  0  0  0  0  0  0  0  0  0  0
   -7.5176    1.9681   -0.8589 H   0  0  0  0  0  0  0  0  0  0  0  0
   -8.3520   -0.2718   -0.7447 H   0  0  0  0  0  0  0  0  0  0  0  0
   -7.1847   -1.7088   -0.7028 H   0  0  0  0  0  0  0  0  0  0  0  0
   -4.7589    2.2127   -2.1748 H   0  0  0  0  0  0  0  0  0  0  0  0
   -6.1086    3.3440   -2.2627 H   0  0  0  0  0  0  0  0  0  0  0  0
   -6.2495    1.7527   -3.0168 H   0  0  0  0  0  0  0  0  0  0  0  0
   -4.7548    2.4226    0.3699 H   0  0  0  0  0  0  0  0  0  0  0  0
   -6.2279    2.0835    1.2950 H   0  0  0  0  0  0  0  0  0  0  0  0
   -6.1134    3.5497    0.3092 H   0  0  0  0  0  0  0  0  0  0  0  0
  1 22  1  0  0  0  0
  1 66  1  0  0  0  0
  2  3  1  0  0  0  0
  2  6  1  0  0  0  0
  2  7  1  0  0  0  0
  2 14  1  0  0  0  0
  3  4  1  0  0  0  0
  3  9  1  0  0  0  0
  3 30  1  0  0  0  0
  4  5  1  0  0  0  0
  4 12  1  0  0  0  0
  4 31  1  0  0  0  0
  5  8  1  0  0  0  0
  5 10  1  0  0  0  0
  5 32  1  0  0  0  0
  6 11  1  0  0  0  0
  6 13  1  0  0  0  0
  6 33  1  0  0  0  0
  7 10  1  0  0  0  0
  7 34  1  0  0  0  0
  7 35  1  0  0  0  0
  8 15  1  0  0  0  0
  8 16  1  0  0  0  0
  8 18  1  0  0  0  0
  9 11  1  0  0  0  0
  9 36  1  0  0  0  0
  9 37  1  0  0  0  0
 10 38  1  0  0  0  0
 10 39  1  0  0  0  0
 11 40  1  0  0  0  0
 11 41  1  0  0  0  0
 12 17  1  0  0  0  0
 12 42  1  0  0  0  0
 12 43  1  0  0  0  0
 13 21  1  0  0  0  0
 13 23  1  0  0  0  0
 13 44  1  0  0  0  0
 14 45  1  0  0  0  0
 14 46  1  0  0  0  0
 14 47  1  0  0  0  0
 15 17  2  0  0  0  0
 15 19  1  0  0  0  0
 16 20  1  0  0  0  0
 16 48  1  0  0  0  0
 16 49  1  0  0  0  0
 17 50  1  0  0  0  0
 18 51  1  0  0  0  0
 18 52  1  0  0  0  0
 18 53  1  0  0  0  0
 19 22  1  0  0  0  0
 19 54  1  0  0  0  0
 19 55  1  0  0  0  0
 20 22  1  0  0  0  0
 20 56  1  0  0  0  0
 20 57  1  0  0  0  0
 21 24  1  0  0  0  0
 21 58  1  0  0  0  0
 21 59  1  0  0  0  0
 22 60  1  0  0  0  0
 23 61  1  0  0  0  0
 23 62  1  0  0  0  0
 23 63  1  0  0  0  0
 24 25  1  0  0  0  0
 24 64  1  0  0  0  0
 24 65  1  0  0  0  0
 25 26  1  0  0  0  0
 25 27  2  0  0  0  0
 26 28  1  0  0  0  0
 26 29  1  0  0  0  0
 26 67  1  0  0  0  0
 27 68  1  0  0  0  0
 27 69  1  0  0  0  0
 28 70  1  0  0  0  0
 28 71  1  0  0  0  0
 28 72  1  0  0  0  0
 29 73  1  0  0  0  0
 29 74  1  0  0  0  0
 29 75  1  0  0  0  0
M  END
> <PUBCHEM_COMPOUND_CID>
53297366

> <PUBCHEM_CONFORMER_RMSD>
0.8

> <PUBCHEM_CONFORMER_DIVERSEORDER>
8
50
56
74
36
41
59
34
71
64
37
32
75
57
43
54
45
38
69
33
22
47
26
48
51
70
23
72
61
58
60
30
15
31
20
42
24
46
40
65
49
12
25
5
63
53
67
16
55
17
1
13
66
19
10
73
44
62
52
14
29
39
7
68
18
2
35
27
6
9
21
4
28
3
11

> <PUBCHEM_MMFF94_PARTIAL_CHARGES>
15
1 -0.68
12 0.14
15 -0.28
17 -0.29
19 0.14
22 0.28
24 0.14
25 -0.28
26 0.14
27 -0.3
50 0.15
66 0.4
68 0.15
69 0.15
8 0.14

> <PUBCHEM_EFFECTIVE_ROTOR_COUNT>
7

> <PUBCHEM_PHARMACOPHORE_FEATURES>
10
1 1 acceptor
1 1 donor
1 23 hydrophobe
1 27 hydrophobe
3 26 28 29 hydrophobe
5 13 21 24 25 26 hydrophobe
5 2 3 6 9 11 rings
6 2 3 4 5 7 10 rings
6 4 5 8 12 15 17 rings
6 8 15 16 19 20 22 rings

> <PUBCHEM_HEAVY_ATOM_COUNT>
29

> <PUBCHEM_ATOM_DEF_STEREO_COUNT>
7

> <PUBCHEM_ATOM_UDEF_STEREO_COUNT>
1

> <PUBCHEM_BOND_DEF_STEREO_COUNT>
0

> <PUBCHEM_BOND_UDEF_STEREO_COUNT>
0

> <PUBCHEM_ISOTOPIC_ATOM_COUNT>
0

> <PUBCHEM_COMPONENT_COUNT>
1

> <PUBCHEM_CACTVS_TAUTO_COUNT>
1

> <PUBCHEM_CONFORMER_ID>
032D40D600000008

> <PUBCHEM_MMFF94_ENERGY>
88.0746

> <PUBCHEM_FEATURE_SELFOVERLAP>
50.888

> <PUBCHEM_SHAPE_MULTIPOLES>
590.94
18.89
2.39
1.68
4.44
0.13
0.11
7.99
10.5
2.29
-0.01
-0.01
0.33
1.35

> <PUBCHEM_SHAPE_SELFOVERLAP>
1228.193

> <PUBCHEM_SHAPE_VOLUME>
336.6

> <PUBCHEM_COORDINATE_TYPE>
2
5
10

$$$$

