2583
  -OEChem-07051212522D

 45 46  0     1  0  0  0  0  0999 V2000
    5.4804    0.3677    0.0000 O   0  0  0  0  0  0  0  0  0  0  0  0
    5.4573   -1.6322    0.0000 O   0  0  0  0  0  0  0  0  0  0  0  0
    2.0000    3.4023    0.0000 O   0  0  0  0  0  0  0  0  0  0  0  0
    7.1777   -2.6521    0.0000 N   0  0  0  0  0  0  0  0  0  0  0  0
    3.7320    3.4023    0.0000 N   0  0  0  0  0  0  0  0  0  0  0  0
    8.0379   -3.1621    0.0000 C   0  0  0  0  0  0  0  0  0  0  0  0
    7.1893   -1.6522    0.0000 C   0  0  0  0  0  0  0  0  0  0  0  0
    6.3291   -1.1422    0.0000 C   0  0  3  0  0  0  0  0  0  0  0  0
    8.8981   -3.6721    0.0000 C   0  0  0  0  0  0  0  0  0  0  0  0
    7.5279   -4.0223    0.0000 C   0  0  0  0  0  0  0  0  0  0  0  0
    8.5479   -2.3019    0.0000 C   0  0  0  0  0  0  0  0  0  0  0  0
    4.5981    1.9023    0.0000 C   0  0  0  0  0  0  0  0  0  0  0  0
    6.3406   -0.1423    0.0000 C   0  0  0  0  0  0  0  0  0  0  0  0
    3.7320    1.4023    0.0000 C   0  0  0  0  0  0  0  0  0  0  0  0
    5.4920    1.3676    0.0000 C   0  0  0  0  0  0  0  0  0  0  0  0
    4.5981    2.9023    0.0000 C   0  0  0  0  0  0  0  0  0  0  0  0
    2.8660    1.9023    0.0000 C   0  0  0  0  0  0  0  0  0  0  0  0
    2.8660    2.9023    0.0000 C   0  0  0  0  0  0  0  0  0  0  0  0
    6.3981    1.8815    0.0000 C   0  0  0  0  0  0  0  0  0  0  0  0
    5.4920    3.4370    0.0000 C   0  0  0  0  0  0  0  0  0  0  0  0
    6.3981    2.9231    0.0000 C   0  0  0  0  0  0  0  0  0  0  0  0
    7.7986   -1.7669    0.0000 H   0  0  0  0  0  0  0  0  0  0  0  0
    7.4080   -1.0721    0.0000 H   0  0  0  0  0  0  0  0  0  0  0  0
    6.6372   -2.9559    0.0000 H   0  0  0  0  0  0  0  0  0  0  0  0
    5.7958   -0.8260    0.0000 H   0  0  0  0  0  0  0  0  0  0  0  0
    8.5819   -4.2054    0.0000 H   0  0  0  0  0  0  0  0  0  0  0  0
    9.0812   -2.6181    0.0000 H   0  0  0  0  0  0  0  0  0  0  0  0
    8.8640   -1.7686    0.0000 H   0  0  0  0  0  0  0  0  0  0  0  0
    8.0146   -1.9857    0.0000 H   0  0  0  0  0  0  0  0  0  0  0  0
    6.9946   -3.7061    0.0000 H   0  0  0  0  0  0  0  0  0  0  0  0
    7.2117   -4.5556    0.0000 H   0  0  0  0  0  0  0  0  0  0  0  0
    8.0612   -4.3385    0.0000 H   0  0  0  0  0  0  0  0  0  0  0  0
    9.4314   -3.9883    0.0000 H   0  0  0  0  0  0  0  0  0  0  0  0
    9.2143   -3.1388    0.0000 H   0  0  0  0  0  0  0  0  0  0  0  0
    6.9499   -0.2570    0.0000 H   0  0  0  0  0  0  0  0  0  0  0  0
    6.5594    0.4378    0.0000 H   0  0  0  0  0  0  0  0  0  0  0  0
    3.3335    0.9273    0.0000 H   0  0  0  0  0  0  0  0  0  0  0  0
    4.1306    0.9273    0.0000 H   0  0  0  0  0  0  0  0  0  0  0  0
    2.2554    2.0100    0.0000 H   0  0  0  0  0  0  0  0  0  0  0  0
    2.6540    1.3197    0.0000 H   0  0  0  0  0  0  0  0  0  0  0  0
    3.7320    4.0223    0.0000 H   0  0  0  0  0  0  0  0  0  0  0  0
    6.9338    1.5694    0.0000 H   0  0  0  0  0  0  0  0  0  0  0  0
    5.4848    4.0569    0.0000 H   0  0  0  0  0  0  0  0  0  0  0  0
    6.9338    3.2352    0.0000 H   0  0  0  0  0  0  0  0  0  0  0  0
    5.4502   -2.2521    0.0000 H   0  0  0  0  0  0  0  0  0  0  0  0
  1 13  1  0  0  0  0
  1 15  1  0  0  0  0
  2  8  1  0  0  0  0
  2 45  1  0  0  0  0
  3 18  2  0  0  0  0
  4  6  1  0  0  0  0
  4  7  1  0  0  0  0
  4 24  1  0  0  0  0
  5 16  1  0  0  0  0
  5 18  1  0  0  0  0
  5 41  1  0  0  0  0
  6  9  1  0  0  0  0
  6 10  1  0  0  0  0
  6 11  1  0  0  0  0
  7  8  1  0  0  0  0
  7 22  1  0  0  0  0
  7 23  1  0  0  0  0
  8 13  1  0  0  0  0
  8 25  1  0  0  0  0
  9 26  1  0  0  0  0
  9 33  1  0  0  0  0
  9 34  1  0  0  0  0
 10 30  1  0  0  0  0
 10 31  1  0  0  0  0
 10 32  1  0  0  0  0
 11 27  1  0  0  0  0
 11 28  1  0  0  0  0
 11 29  1  0  0  0  0
 12 14  1  0  0  0  0
 12 15  1  0  0  0  0
 12 16  2  0  0  0  0
 13 35  1  0  0  0  0
 13 36  1  0  0  0  0
 14 17  1  0  0  0  0
 14 37  1  0  0  0  0
 14 38  1  0  0  0  0
 15 19  2  0  0  0  0
 16 20  1  0  0  0  0
 17 18  1  0  0  0  0
 17 39  1  0  0  0  0
 17 40  1  0  0  0  0
 19 21  1  0  0  0  0
 19 42  1  0  0  0  0
 20 21  2  0  0  0  0
 20 43  1  0  0  0  0
 21 44  1  0  0  0  0
M  END
> <PUBCHEM_COMPOUND_CID>
2583

> <PUBCHEM_COMPOUND_CANONICALIZED>
1

> <PUBCHEM_CACTVS_COMPLEXITY>
354

> <PUBCHEM_CACTVS_HBOND_ACCEPTOR>
4

> <PUBCHEM_CACTVS_HBOND_DONOR>
3

> <PUBCHEM_CACTVS_ROTATABLE_BOND>
6

> <PUBCHEM_CACTVS_SUBSKEYS>
AAADceB7MAAAAAAAAAAAAAAAAAAAAAAAAAA8QAAAAAAAAACxAAAAHgAQCAAADJzhmAYyxoLABgCIAiVSUACCCAAhIgAIiIEObIgPNjLEsZuGOCjm1Bnb6AeY3aPeAAAAAgAKAAAAAAAEABQAAAAAAAAAAA==

> <PUBCHEM_IUPAC_OPENEYE_NAME>
5-[3-(tert-butylamino)-2-hydroxy-propoxy]-3,4-dihydro-1H-quinolin-2-one

> <PUBCHEM_IUPAC_CAS_NAME>
5-[3-(tert-butylamino)-2-hydroxypropoxy]-3,4-dihydro-1H-quinolin-2-one

> <PUBCHEM_IUPAC_NAME>
5-[3-(tert-butylamino)-2-hydroxypropoxy]-3,4-dihydro-1H-quinolin-2-one

> <PUBCHEM_IUPAC_SYSTEMATIC_NAME>
5-[3-(tert-butylamino)-2-oxidanyl-propoxy]-3,4-dihydro-1H-quinolin-2-one

> <PUBCHEM_IUPAC_TRADITIONAL_NAME>
5-[3-(tert-butylamino)-2-hydroxy-propoxy]-3,4-dihydrocarbostyril

> <PUBCHEM_IUPAC_INCHI>
InChI=1S/C16H24N2O3/c1-16(2,3)17-9-11(19)10-21-14-6-4-5-13-12(14)7-8-15(20)18-13/h4-6,11,17,19H,7-10H2,1-3H3,(H,18,20)

> <PUBCHEM_IUPAC_INCHIKEY>
LWAFSWPYPHEXKX-UHFFFAOYSA-N

> <PUBCHEM_XLOGP3_AA>
1

> <PUBCHEM_EXACT_MASS>
292.178693

> <PUBCHEM_MOLECULAR_FORMULA>
C16H24N2O3

> <PUBCHEM_MOLECULAR_WEIGHT>
292.37336

> <PUBCHEM_OPENEYE_CAN_SMILES>
CC(C)(C)NCC(COC1=CC=CC2=C1CCC(=O)N2)O

> <PUBCHEM_OPENEYE_ISO_SMILES>
CC(C)(C)NCC(COC1=CC=CC2=C1CCC(=O)N2)O

> <PUBCHEM_CACTVS_TPSA>
70.6

> <PUBCHEM_MONOISOTOPIC_WEIGHT>
292.178693

> <PUBCHEM_TOTAL_CHARGE>
0

> <PUBCHEM_HEAVY_ATOM_COUNT>
21

> <PUBCHEM_ATOM_DEF_STEREO_COUNT>
0

> <PUBCHEM_ATOM_UDEF_STEREO_COUNT>
1

> <PUBCHEM_BOND_DEF_STEREO_COUNT>
0

> <PUBCHEM_BOND_UDEF_STEREO_COUNT>
0

> <PUBCHEM_ISOTOPIC_ATOM_COUNT>
0

> <PUBCHEM_COMPONENT_COUNT>
1

> <PUBCHEM_CACTVS_TAUTO_COUNT>
3

> <PUBCHEM_COORDINATE_TYPE>
1
5
255

> <PUBCHEM_BONDANNOTATIONS>
12  15  8
12  16  8
15  19  8
16  20  8
19  21  8
8  2  3
20  21  8

$$$$

