19090
  -OEChem-07051212523D

 55 58  0     1  0  0  0  0  0999 V2000
   -3.5071    0.0277    1.9266 O   0  0  0  0  0  0  0  0  0  0  0  0
   -5.7966    0.0117   -0.3950 O   0  0  0  0  0  0  0  0  0  0  0  0
    6.1640    0.6776    0.8326 O   0  0  0  0  0  0  0  0  0  0  0  0
   -2.3031    0.3025   -0.1935 C   0  0  1  0  0  0  0  0  0  0  0  0
   -1.3808   -0.8995    0.1426 C   0  0  2  0  0  0  0  0  0  0  0  0
    0.0054   -0.7742   -0.5062 C   0  0  1  0  0  0  0  0  0  0  0  0
    0.6812    0.5110    0.0536 C   0  0  1  0  0  0  0  0  0  0  0  0
   -3.5991   -0.1636    0.5178 C   0  0  1  0  0  0  0  0  0  0  0  0
   -1.6375    1.5770    0.3536 C   0  0  0  0  0  0  0  0  0  0  0  0
   -2.2520   -2.1100   -0.1877 C   0  0  0  0  0  0  0  0  0  0  0  0
    2.1696    0.6311   -0.4295 C   0  0  2  0  0  0  0  0  0  0  0  0
   -0.2048    1.7588   -0.1867 C   0  0  0  0  0  0  0  0  0  0  0  0
   -3.6784   -1.6749    0.2074 C   0  0  0  0  0  0  0  0  0  0  0  0
   -2.5632    0.4751   -1.7172 C   0  0  0  0  0  0  0  0  0  0  0  0
    0.8845   -1.9732   -0.2814 C   0  0  0  0  0  0  0  0  0  0  0  0
    2.9383   -0.6340    0.0137 C   0  0  0  0  0  0  0  0  0  0  0  0
    2.8095    1.8875    0.2233 C   0  0  0  0  0  0  0  0  0  0  0  0
    2.2073   -1.9168   -0.0338 C   0  0  0  0  0  0  0  0  0  0  0  0
   -4.8368    0.5824    0.1207 C   0  0  0  0  0  0  0  0  0  0  0  0
    2.2662    0.7596   -1.9686 C   0  0  0  0  0  0  0  0  0  0  0  0
    4.3166    1.9666    0.0398 C   0  0  0  0  0  0  0  0  0  0  0  0
    4.2155   -0.5731    0.4383 C   0  0  0  0  0  0  0  0  0  0  0  0
    4.9849    0.6943    0.4820 C   0  0  0  0  0  0  0  0  0  0  0  0
    2.9649   -3.2071    0.1614 C   0  0  0  0  0  0  0  0  0  0  0  0
   -4.8486    2.0635    0.3862 C   0  0  0  0  0  0  0  0  0  0  0  0
   -1.2191   -0.9296    1.2330 H   0  0  0  0  0  0  0  0  0  0  0  0
   -0.1226   -0.6961   -1.5908 H   0  0  0  0  0  0  0  0  0  0  0  0
    0.7254    0.3976    1.1504 H   0  0  0  0  0  0  0  0  0  0  0  0
   -1.5847    1.5450    1.4487 H   0  0  0  0  0  0  0  0  0  0  0  0
   -2.2112    2.4717    0.0956 H   0  0  0  0  0  0  0  0  0  0  0  0
   -1.9453   -3.0004    0.3708 H   0  0  0  0  0  0  0  0  0  0  0  0
   -2.2080   -2.3581   -1.2541 H   0  0  0  0  0  0  0  0  0  0  0  0
   -0.2383    2.0041   -1.2530 H   0  0  0  0  0  0  0  0  0  0  0  0
    0.2241    2.6307    0.3186 H   0  0  0  0  0  0  0  0  0  0  0  0
   -4.3534   -1.9150   -0.6212 H   0  0  0  0  0  0  0  0  0  0  0  0
   -4.0127   -2.2482    1.0797 H   0  0  0  0  0  0  0  0  0  0  0  0
   -1.6436    0.6100   -2.2920 H   0  0  0  0  0  0  0  0  0  0  0  0
   -3.0849   -0.3823   -2.1538 H   0  0  0  0  0  0  0  0  0  0  0  0
   -3.1780    1.3583   -1.9174 H   0  0  0  0  0  0  0  0  0  0  0  0
    0.4064   -2.9468   -0.3591 H   0  0  0  0  0  0  0  0  0  0  0  0
    2.5913    1.8897    1.3005 H   0  0  0  0  0  0  0  0  0  0  0  0
    2.3709    2.8046   -0.1875 H   0  0  0  0  0  0  0  0  0  0  0  0
    3.3075    0.7904   -2.3083 H   0  0  0  0  0  0  0  0  0  0  0  0
    1.8026   -0.0831   -2.4906 H   0  0  0  0  0  0  0  0  0  0  0  0
    1.7830    1.6759   -2.3232 H   0  0  0  0  0  0  0  0  0  0  0  0
   -4.2614   -0.4210    2.3457 H   0  0  0  0  0  0  0  0  0  0  0  0
    4.7062    2.7908    0.6479 H   0  0  0  0  0  0  0  0  0  0  0  0
    4.5878    2.1593   -1.0027 H   0  0  0  0  0  0  0  0  0  0  0  0
    4.7687   -1.4474    0.7642 H   0  0  0  0  0  0  0  0  0  0  0  0
    3.3645   -3.2732    1.1791 H   0  0  0  0  0  0  0  0  0  0  0  0
    3.7907   -3.2858   -0.5541 H   0  0  0  0  0  0  0  0  0  0  0  0
    2.3296   -4.0874    0.0106 H   0  0  0  0  0  0  0  0  0  0  0  0
   -4.3359    2.3106    1.3181 H   0  0  0  0  0  0  0  0  0  0  0  0
   -4.4056    2.6052   -0.4505 H   0  0  0  0  0  0  0  0  0  0  0  0
   -5.8882    2.3894    0.4944 H   0  0  0  0  0  0  0  0  0  0  0  0
  1  8  1  0  0  0  0
  1 46  1  0  0  0  0
  2 19  2  0  0  0  0
  3 23  2  0  0  0  0
  4  5  1  0  0  0  0
  4  8  1  0  0  0  0
  4  9  1  0  0  0  0
  4 14  1  0  0  0  0
  5  6  1  0  0  0  0
  5 10  1  0  0  0  0
  5 26  1  0  0  0  0
  6  7  1  0  0  0  0
  6 15  1  0  0  0  0
  6 27  1  0  0  0  0
  7 11  1  0  0  0  0
  7 12  1  0  0  0  0
  7 28  1  0  0  0  0
  8 13  1  0  0  0  0
  8 19  1  0  0  0  0
  9 12  1  0  0  0  0
  9 29  1  0  0  0  0
  9 30  1  0  0  0  0
 10 13  1  0  0  0  0
 10 31  1  0  0  0  0
 10 32  1  0  0  0  0
 11 16  1  0  0  0  0
 11 17  1  0  0  0  0
 11 20  1  0  0  0  0
 12 33  1  0  0  0  0
 12 34  1  0  0  0  0
 13 35  1  0  0  0  0
 13 36  1  0  0  0  0
 14 37  1  0  0  0  0
 14 38  1  0  0  0  0
 14 39  1  0  0  0  0
 15 18  2  0  0  0  0
 15 40  1  0  0  0  0
 16 18  1  0  0  0  0
 16 22  2  0  0  0  0
 17 21  1  0  0  0  0
 17 41  1  0  0  0  0
 17 42  1  0  0  0  0
 18 24  1  0  0  0  0
 19 25  1  0  0  0  0
 20 43  1  0  0  0  0
 20 44  1  0  0  0  0
 20 45  1  0  0  0  0
 21 23  1  0  0  0  0
 21 47  1  0  0  0  0
 21 48  1  0  0  0  0
 22 23  1  0  0  0  0
 22 49  1  0  0  0  0
 24 50  1  0  0  0  0
 24 51  1  0  0  0  0
 24 52  1  0  0  0  0
 25 53  1  0  0  0  0
 25 54  1  0  0  0  0
 25 55  1  0  0  0  0
M  END
> <PUBCHEM_COMPOUND_CID>
19090

> <PUBCHEM_CONFORMER_RMSD>
0.6

> <PUBCHEM_CONFORMER_DIVERSEORDER>
1
2

> <PUBCHEM_MMFF94_PARTIAL_CHARGES>
18
1 -0.68
11 0.14
15 -0.29
16 -0.14
18 -0.14
19 0.45
2 -0.57
21 0.06
22 -0.14
23 0.49
24 0.14
25 0.06
3 -0.57
40 0.15
46 0.4
49 0.15
6 0.14
8 0.34

> <PUBCHEM_EFFECTIVE_ROTOR_COUNT>
2.4

> <PUBCHEM_PHARMACOPHORE_FEATURES>
8
1 1 acceptor
1 1 donor
1 2 acceptor
1 3 acceptor
5 4 5 8 10 13 rings
6 11 16 17 21 22 23 rings
6 4 5 6 7 9 12 rings
6 6 7 11 15 16 18 rings

> <PUBCHEM_HEAVY_ATOM_COUNT>
25

> <PUBCHEM_ATOM_DEF_STEREO_COUNT>
6

> <PUBCHEM_ATOM_UDEF_STEREO_COUNT>
0

> <PUBCHEM_BOND_DEF_STEREO_COUNT>
0

> <PUBCHEM_BOND_UDEF_STEREO_COUNT>
0

> <PUBCHEM_ISOTOPIC_ATOM_COUNT>
0

> <PUBCHEM_COMPONENT_COUNT>
1

> <PUBCHEM_CACTVS_TAUTO_COUNT>
4

> <PUBCHEM_CONFORMER_ID>
00004A9200000001

> <PUBCHEM_MMFF94_ENERGY>
81.1071

> <PUBCHEM_FEATURE_SELFOVERLAP>
40.688

> <PUBCHEM_SHAPE_FINGERPRINT>
10 15 18272654507050400560
10366900 7 16515686645480541019
10411042 1 17689153830692245598
10616163 171 18337388245044760583
10906281 52 18059276709248207556
11089746 13 17749114369850818232
11578080 2 17058667380762083110
12107183 9 17758673743244167001
12236239 1 17676490566263803063
12403814 3 17846501413774468549
12422481 6 18201164329541821356
12633257 1 16988562364381371226
12788726 201 17241041127766170145
13073987 5 18336542811493211289
13140716 1 18193276295484872848
13224815 77 18410853248241220358
13533116 47 18261396688934372147
13583140 156 18114182991207662107
13675066 3 18131626790226501907
14178342 30 18268708320678244763
14223421 5 18340208608702920550
14341114 176 18410570717177315170
14790565 3 18124025742185988404
15163728 17 15142343936594099041
15196674 1 18410292488742309906
15375358 24 18413105065524847267
15788980 27 17775005656708116224
1601671 61 18411982455932224900
16945 1 18410294756822620022
17349148 13 17988644065026077128
1813 80 16988838419061986110
19591789 44 18121502345571855618
19784866 9 18409449176641042666
200 152 18259708887167194367
20157964 124 18409732902423391367
20511986 3 18188225272363499027
20715895 44 18195249051721996065
21033648 29 18200615642864145052
21267235 1 18410565197701500839
21421861 104 18058176188250493626
21452121 103 18410293648668297090
21859007 373 17344079717196562357
22182313 1 17917158323907589998
23402539 116 18187090507517803996
23559900 14 18335984289234847166
26918003 58 17846498118991304841
296302 2 18186238437387583871
335352 9 18410012144080522262
34797466 226 15502653745922636345
34934 24 18408608067156942935
350125 39 18412260675329136484
3545911 37 18411981364340534238
3633792 109 18337116778117010949
3680242 22 18341051921157395562
392239 28 18260547775805640464
4340502 62 18411976953831354787
474 4 18409729530525800432
5104073 3 18341042025806083299
633830 44 18187363173917601908
7364860 26 18335980965172649422
9709674 26 18412257354808083915

> <PUBCHEM_SHAPE_MULTIPOLES>
496.88
11.27
2.56
1.09
0.68
1.15
-0.27
-3.13
2.41
-1.17
0.12
0.23
-0.21
-0.08

> <PUBCHEM_SHAPE_SELFOVERLAP>
1073.998

> <PUBCHEM_SHAPE_VOLUME>
271.6

> <PUBCHEM_COORDINATE_TYPE>
2
5
10

$$$$

