11599
  -OEChem-06261205523D

 16 15  0     0  0  0  0  0  0999 V2000
   -0.7095    0.7926    0.3224 C   0  0  0  0  0  0  0  0  0  0  0  0
    0.6289    0.4684   -0.2748 C   0  0  0  0  0  0  0  0  0  0  0  0
    1.6197   -0.1337    0.3995 C   0  0  0  0  0  0  0  0  0  0  0  0
   -1.8234    0.1048   -0.4099 C   0  0  0  0  0  0  0  0  0  0  0  0
    2.9486   -0.4645   -0.1946 C   0  0  0  0  0  0  0  0  0  0  0  0
   -2.6643   -0.7676    0.1573 C   0  0  0  0  0  0  0  0  0  0  0  0
   -0.7318    0.5401    1.3897 H   0  0  0  0  0  0  0  0  0  0  0  0
   -0.8663    1.8758    0.2567 H   0  0  0  0  0  0  0  0  0  0  0  0
    0.7887    0.7540   -1.3122 H   0  0  0  0  0  0  0  0  0  0  0  0
    1.4683   -0.4161    1.4380 H   0  0  0  0  0  0  0  0  0  0  0  0
   -1.9600    0.3477   -1.4610 H   0  0  0  0  0  0  0  0  0  0  0  0
    3.7426    0.0383    0.3659 H   0  0  0  0  0  0  0  0  0  0  0  0
    3.0234   -0.1568   -1.2424 H   0  0  0  0  0  0  0  0  0  0  0  0
    3.1215   -1.5437   -0.1430 H   0  0  0  0  0  0  0  0  0  0  0  0
   -3.4562   -1.2254   -0.4254 H   0  0  0  0  0  0  0  0  0  0  0  0
   -2.5793   -1.0400    1.2035 H   0  0  0  0  0  0  0  0  0  0  0  0
  1  2  1  0  0  0  0
  1  4  1  0  0  0  0
  1  7  1  0  0  0  0
  1  8  1  0  0  0  0
  2  3  2  0  0  0  0
  2  9  1  0  0  0  0
  3  5  1  0  0  0  0
  3 10  1  0  0  0  0
  4  6  2  0  0  0  0
  4 11  1  0  0  0  0
  5 12  1  0  0  0  0
  5 13  1  0  0  0  0
  5 14  1  0  0  0  0
  6 15  1  0  0  0  0
  6 16  1  0  0  0  0
M  END
> <PUBCHEM_COMPOUND_CID>
11599

> <PUBCHEM_CONFORMER_RMSD>
0.4

> <PUBCHEM_CONFORMER_DIVERSEORDER>
2
3
1

> <PUBCHEM_MMFF94_PARTIAL_CHARGES>
11
1 0.28
10 0.15
11 0.15
15 0.15
16 0.15
2 -0.29
3 -0.29
4 -0.29
5 0.14
6 -0.3
9 0.15

> <PUBCHEM_EFFECTIVE_ROTOR_COUNT>
2

> <PUBCHEM_PHARMACOPHORE_FEATURES>
2
1 5 hydrophobe
1 6 hydrophobe

> <PUBCHEM_HEAVY_ATOM_COUNT>
6

> <PUBCHEM_ATOM_DEF_STEREO_COUNT>
0

> <PUBCHEM_ATOM_UDEF_STEREO_COUNT>
0

> <PUBCHEM_BOND_DEF_STEREO_COUNT>
0

> <PUBCHEM_BOND_UDEF_STEREO_COUNT>
1

> <PUBCHEM_ISOTOPIC_ATOM_COUNT>
0

> <PUBCHEM_COMPONENT_COUNT>
1

> <PUBCHEM_CACTVS_TAUTO_COUNT>
1

> <PUBCHEM_CONFORMER_ID>
00002D4F00000002

> <PUBCHEM_MMFF94_ENERGY>
0.3277

> <PUBCHEM_FEATURE_SELFOVERLAP>
10.149

> <PUBCHEM_SHAPE_FINGERPRINT>
12897270 3 16630528418645579783
139733 1 9655579621153078105
14390081 3 10159701287198709871
20096714 4 8934998183073105129
29004967 10 18113901550179259056
5460574 1 8142085368555149004

> <PUBCHEM_SHAPE_MULTIPOLES>
123.48
4.39
0.9
0.71
0.8
0.01
0
-1.48
-0.14
-0.21
0.03
0
0.01
0.05

> <PUBCHEM_SHAPE_SELFOVERLAP>
216.315

> <PUBCHEM_SHAPE_VOLUME>
81.5

> <PUBCHEM_COORDINATE_TYPE>
2
5
10

$$$$

