25201520
  -OEChem-07051213133D

 29 29  0     1  0  0  0  0  0999 V2000
    1.7836    0.8476    0.2253 O   0  0  0  0  0  0  0  0  0  0  0  0
    1.8072   -0.9431   -1.3715 O   0  0  0  0  0  0  0  0  0  0  0  0
    0.6937    2.8052    0.0972 O   0  0  0  0  0  0  0  0  0  0  0  0
   -1.1550   -0.0580    0.3323 C   0  0  1  0  0  0  0  0  0  0  0  0
   -0.4700   -1.4263    0.3816 C   0  0  0  0  0  0  0  0  0  0  0  0
    0.9783   -1.3862    0.8723 C   0  0  0  0  0  0  0  0  0  0  0  0
    1.9474   -0.5771   -0.0019 C   0  0  2  0  0  0  0  0  0  0  0  0
   -0.4922    0.8840   -0.6712 C   0  0  0  0  0  0  0  0  0  0  0  0
   -2.6012   -0.2509   -0.0228 C   0  0  0  0  0  0  0  0  0  0  0  0
    0.7011    1.5896   -0.0881 C   0  0  0  0  0  0  0  0  0  0  0  0
    3.3854   -0.8876    0.4329 C   0  0  0  0  0  0  0  0  0  0  0  0
   -3.5992    0.1881    1.0074 C   0  0  0  0  0  0  0  0  0  0  0  0
   -2.9789   -0.7852   -1.1935 C   0  0  0  0  0  0  0  0  0  0  0  0
   -1.0902    0.3882    1.3343 H   0  0  0  0  0  0  0  0  0  0  0  0
   -0.4922   -1.9173   -0.5997 H   0  0  0  0  0  0  0  0  0  0  0  0
   -1.0296   -2.0855    1.0600 H   0  0  0  0  0  0  0  0  0  0  0  0
    0.9947   -1.0010    1.8997 H   0  0  0  0  0  0  0  0  0  0  0  0
    1.3198   -2.4291    0.9118 H   0  0  0  0  0  0  0  0  0  0  0  0
   -1.1963    1.6803   -0.9536 H   0  0  0  0  0  0  0  0  0  0  0  0
   -0.2174    0.3996   -1.6132 H   0  0  0  0  0  0  0  0  0  0  0  0
    4.0991   -0.2873   -0.1439 H   0  0  0  0  0  0  0  0  0  0  0  0
    3.6366   -1.9400    0.2629 H   0  0  0  0  0  0  0  0  0  0  0  0
    3.5438   -0.6449    1.4892 H   0  0  0  0  0  0  0  0  0  0  0  0
   -3.4504   -0.3648    1.9407 H   0  0  0  0  0  0  0  0  0  0  0  0
   -3.4874    1.2576    1.2133 H   0  0  0  0  0  0  0  0  0  0  0  0
   -4.6306    0.0182    0.6809 H   0  0  0  0  0  0  0  0  0  0  0  0
    2.6507   -0.7762   -1.8240 H   0  0  0  0  0  0  0  0  0  0  0  0
   -4.0284   -0.9188   -1.4355 H   0  0  0  0  0  0  0  0  0  0  0  0
   -2.2605   -1.0978   -1.9434 H   0  0  0  0  0  0  0  0  0  0  0  0
  1  7  1  0  0  0  0
  1 10  1  0  0  0  0
  2  7  1  0  0  0  0
  2 27  1  0  0  0  0
  3 10  2  0  0  0  0
  4  5  1  0  0  0  0
  4  8  1  0  0  0  0
  4  9  1  0  0  0  0
  4 14  1  0  0  0  0
  5  6  1  0  0  0  0
  5 15  1  0  0  0  0
  5 16  1  0  0  0  0
  6  7  1  0  0  0  0
  6 17  1  0  0  0  0
  6 18  1  0  0  0  0
  7 11  1  0  0  0  0
  8 10  1  0  0  0  0
  8 19  1  0  0  0  0
  8 20  1  0  0  0  0
  9 12  1  0  0  0  0
  9 13  2  0  0  0  0
 11 21  1  0  0  0  0
 11 22  1  0  0  0  0
 11 23  1  0  0  0  0
 12 24  1  0  0  0  0
 12 25  1  0  0  0  0
 12 26  1  0  0  0  0
 13 28  1  0  0  0  0
 13 29  1  0  0  0  0
M  END
> <PUBCHEM_COMPOUND_CID>
25201520

> <PUBCHEM_CONFORMER_RMSD>
0.6

> <PUBCHEM_CONFORMER_DIVERSEORDER>
1
6
10
7
8
13
3
2
9
12
14
11
5
4

> <PUBCHEM_MMFF94_PARTIAL_CHARGES>
13
1 -0.43
10 0.66
12 0.14
13 -0.3
2 -0.68
27 0.4
28 0.15
29 0.15
3 -0.57
4 0.14
7 0.56
8 0.06
9 -0.28

> <PUBCHEM_EFFECTIVE_ROTOR_COUNT>
2.2

> <PUBCHEM_PHARMACOPHORE_FEATURES>
4
1 2 acceptor
1 2 donor
1 3 acceptor
7 1 4 5 6 7 8 10 rings

> <PUBCHEM_HEAVY_ATOM_COUNT>
13

> <PUBCHEM_ATOM_DEF_STEREO_COUNT>
1

> <PUBCHEM_ATOM_UDEF_STEREO_COUNT>
1

> <PUBCHEM_BOND_DEF_STEREO_COUNT>
0

> <PUBCHEM_BOND_UDEF_STEREO_COUNT>
0

> <PUBCHEM_ISOTOPIC_ATOM_COUNT>
0

> <PUBCHEM_COMPONENT_COUNT>
1

> <PUBCHEM_CACTVS_TAUTO_COUNT>
1

> <PUBCHEM_CONFORMER_ID>
01808B7000000001

> <PUBCHEM_MMFF94_ENERGY>
29.7843

> <PUBCHEM_FEATURE_SELFOVERLAP>
20.297

> <PUBCHEM_SHAPE_FINGERPRINT>
10130415 120 18202001049031495346
10219947 1 18335425672713179146
10353120 184 18269821159562887239
12654215 9 18130804372582285149
12932764 1 17846786182928031731
13380535 76 17908150879987652384
14993402 34 18335146379426997799
15775835 57 18201717327787064039
16945 1 18342744000495565827
17844478 74 17489299807004521781
18511873 20 18259978301812570921
193761 8 17836926698710310082
20201158 50 18272376394426401371
20645477 70 18265062349338332615
20711985 327 18335708247016680402
20871998 22 18262792003270072998
21061003 4 18341336668603890009
21501502 16 18124593080967809835
21524375 3 17688314486380824916
23380061 330 18409458002403450194
23402539 116 18262811764668017270
23419403 2 15255606814739596154
2748010 2 18196383729982322468
3286 77 18130500843407562443
449060 23 18114742736793883198
7364860 26 18116434743328729873
81228 2 18051122889519259520

> <PUBCHEM_SHAPE_MULTIPOLES>
249.93
4.87
1.9
1.04
1.73
1.32
0.19
-1.37
-0.35
-0.83
-0.13
0.39
-0.23
-0.21

> <PUBCHEM_SHAPE_SELFOVERLAP>
498.459

> <PUBCHEM_SHAPE_VOLUME>
146.2

> <PUBCHEM_COORDINATE_TYPE>
2
5
10

$$$$

