46173892
  -OEChem-07051213102D

 43 44  0     1  0  0  0  0  0999 V2000
    4.6650   -0.0570    0.0000 O   0  0  0  0  0  0  0  0  0  0  0  0
    6.7528   -1.7320    0.0000 O   0  0  0  0  0  0  0  0  0  0  0  0
    2.0000   -2.0787    0.0000 O   0  0  0  0  0  0  0  0  0  0  0  0
    6.7528    1.7320    0.0000 O   0  0  0  0  0  0  0  0  0  0  0  0
    5.2528    0.8660    0.0000 O   0  0  0  0  0  0  0  0  0  0  0  0
    7.7528    1.7320    0.0000 O   0  0  0  0  0  0  0  0  0  0  0  0
    3.7139   -1.3660    0.0000 N   0  0  0  0  0  0  0  0  0  0  0  0
    7.7528    0.0000    0.0000 N   0  0  0  0  0  0  0  0  0  0  0  0
    9.7528    1.7320    0.0000 N   0  0  0  0  0  0  0  0  0  0  0  0
    3.7139   -0.3660    0.0000 C   0  0  2  0  0  0  0  0  0  0  0  0
    5.2528   -0.8660    0.0000 C   0  0  2  0  0  0  0  0  0  0  0  0
    4.6650   -1.6750    0.0000 C   0  0  0  0  0  0  0  0  0  0  0  0
    2.7056   -0.3619    0.0000 C   0  0  0  0  0  0  0  0  0  0  0  0
    6.2528   -0.8660    0.0000 C   0  0  3  0  0  0  0  0  0  0  0  0
    2.7056   -1.3702    0.0000 C   0  0  0  0  0  0  0  0  0  0  0  0
    6.7528    0.0000    0.0000 C   0  0  1  0  0  0  0  0  0  0  0  0
    6.2528    0.8660    0.0000 C   0  0  0  0  0  0  0  0  0  0  0  0
    9.2528    0.8660    0.0000 C   0  0  2  0  0  0  0  0  0  0  0  0
    8.2528    0.8660    0.0000 C   0  0  0  0  0  0  0  0  0  0  0  0
    9.7528    0.0000    0.0000 C   0  0  0  0  0  0  0  0  0  0  0  0
   10.7528    0.0000    0.0000 C   0  0  0  0  0  0  0  0  0  0  0  0
    9.2528   -0.8660    0.0000 C   0  0  0  0  0  0  0  0  0  0  0  0
    3.5827    0.4738    0.0000 H   0  0  0  0  0  0  0  0  0  0  0  0
    5.5342   -0.3136    0.0000 H   0  0  0  0  0  0  0  0  0  0  0  0
    4.4128   -2.2414    0.0000 H   0  0  0  0  0  0  0  0  0  0  0  0
    5.2019   -1.9850    0.0000 H   0  0  0  0  0  0  0  0  0  0  0  0
    2.7074    0.2581    0.0000 H   0  0  0  0  0  0  0  0  0  0  0  0
    2.0856   -0.3610    0.0000 H   0  0  0  0  0  0  0  0  0  0  0  0
    5.9428   -1.4030    0.0000 H   0  0  0  0  0  0  0  0  0  0  0  0
    7.0628   -0.5369    0.0000 H   0  0  0  0  0  0  0  0  0  0  0  0
    8.0628   -0.5369    0.0000 H   0  0  0  0  0  0  0  0  0  0  0  0
    6.4428   -2.2690    0.0000 H   0  0  0  0  0  0  0  0  0  0  0  0
    8.9428    1.4030    0.0000 H   0  0  0  0  0  0  0  0  0  0  0  0
   10.0628    0.5369    0.0000 H   0  0  0  0  0  0  0  0  0  0  0  0
   10.7528   -0.6200    0.0000 H   0  0  0  0  0  0  0  0  0  0  0  0
   11.3728    0.0000    0.0000 H   0  0  0  0  0  0  0  0  0  0  0  0
   10.7528    0.6200    0.0000 H   0  0  0  0  0  0  0  0  0  0  0  0
    8.7158   -0.5560    0.0000 H   0  0  0  0  0  0  0  0  0  0  0  0
    8.9428   -1.4030    0.0000 H   0  0  0  0  0  0  0  0  0  0  0  0
    9.7897   -1.1760    0.0000 H   0  0  0  0  0  0  0  0  0  0  0  0
   10.3728    1.7320    0.0000 H   0  0  0  0  0  0  0  0  0  0  0  0
    9.4428    2.2690    0.0000 H   0  0  0  0  0  0  0  0  0  0  0  0
    6.4428    2.2690    0.0000 H   0  0  0  0  0  0  0  0  0  0  0  0
  1 10  1  0  0  0  0
  1 11  1  0  0  0  0
  2 14  1  0  0  0  0
  2 32  1  0  0  0  0
  3 15  2  0  0  0  0
  4 17  1  0  0  0  0
  4 43  1  0  0  0  0
  5 17  2  0  0  0  0
  6 19  2  0  0  0  0
  7 10  1  0  0  0  0
  7 12  1  0  0  0  0
  7 15  1  0  0  0  0
 16  8  1  1  0  0  0
  8 19  1  0  0  0  0
  8 31  1  0  0  0  0
 18  9  1  1  0  0  0
  9 41  1  0  0  0  0
  9 42  1  0  0  0  0
 10 13  1  0  0  0  0
 10 23  1  1  0  0  0
 11 12  1  0  0  0  0
 11 14  1  1  0  0  0
 11 24  1  0  0  0  0
 12 25  1  0  0  0  0
 12 26  1  0  0  0  0
 13 15  1  0  0  0  0
 13 27  1  0  0  0  0
 13 28  1  0  0  0  0
 14 16  1  0  0  0  0
 14 29  1  0  0  0  0
 16 17  1  0  0  0  0
 16 30  1  0  0  0  0
 18 19  1  0  0  0  0
 18 20  1  0  0  0  0
 18 33  1  0  0  0  0
 20 21  1  0  0  0  0
 20 22  1  0  0  0  0
 20 34  1  0  0  0  0
 21 35  1  0  0  0  0
 21 36  1  0  0  0  0
 21 37  1  0  0  0  0
 22 38  1  0  0  0  0
 22 39  1  0  0  0  0
 22 40  1  0  0  0  0
M  END
> <PUBCHEM_COMPOUND_CID>
46173892

> <PUBCHEM_COMPOUND_CANONICALIZED>
1

> <PUBCHEM_CACTVS_COMPLEXITY>
482

> <PUBCHEM_CACTVS_HBOND_ACCEPTOR>
7

> <PUBCHEM_CACTVS_HBOND_DONOR>
4

> <PUBCHEM_CACTVS_ROTATABLE_BOND>
6

> <PUBCHEM_CACTVS_SUBSKEYS>
AAADceBzOAAAAAAAAAAAAAAAAABYAWAAAAAAAAAABYAAAAAAAAAAHgAQCAAADTzhgAYCCAPABgAIAAGQGAAAAAAAAAAAAIGIAAADUB4AgCAfQAAHNgCTAADaEQIIAAAAAAAAAAAAAAAAAAAAAAAAAAAAAA==

> <PUBCHEM_IUPAC_OPENEYE_NAME>
(2S)-2-[[(2S)-2-amino-3-methyl-butanoyl]amino]-3-hydroxy-3-[(3R,5S)-7-oxo-4-oxa-1-azabicyclo[3.2.0]heptan-3-yl]propanoic acid

> <PUBCHEM_IUPAC_CAS_NAME>
(2S)-2-[[(2S)-2-amino-3-methyl-1-oxobutyl]amino]-3-hydroxy-3-[(3R,5S)-7-oxo-4-oxa-1-azabicyclo[3.2.0]heptan-3-yl]propanoic acid

> <PUBCHEM_IUPAC_NAME>
(2S)-2-[[(2S)-2-amino-3-methylbutanoyl]amino]-3-hydroxy-3-[(3R,5S)-7-oxo-4-oxa-1-azabicyclo[3.2.0]heptan-3-yl]propanoic acid

> <PUBCHEM_IUPAC_SYSTEMATIC_NAME>
(2S)-2-[[(2S)-2-azanyl-3-methyl-butanoyl]amino]-3-oxidanyl-3-[(3R,5S)-7-oxidanylidene-4-oxa-1-azabicyclo[3.2.0]heptan-3-yl]propanoic acid

> <PUBCHEM_IUPAC_TRADITIONAL_NAME>
(2S)-2-[[(2S)-2-amino-3-methyl-butanoyl]amino]-3-hydroxy-3-[(3R,5S)-7-keto-4-oxa-1-azabicyclo[3.2.0]heptan-3-yl]propionic acid

> <PUBCHEM_IUPAC_INCHI>
InChI=1S/C13H21N3O6/c1-5(2)9(14)12(19)15-10(13(20)21)11(18)6-4-16-7(17)3-8(16)22-6/h5-6,8-11,18H,3-4,14H2,1-2H3,(H,15,19)(H,20,21)/t6-,8+,9+,10+,11?/m1/s1

> <PUBCHEM_IUPAC_INCHIKEY>
KGXPMPMWKPHJBD-BIWGYIBDSA-N

> <PUBCHEM_XLOGP3_AA>
-4.2

> <PUBCHEM_EXACT_MASS>
315.143035

> <PUBCHEM_MOLECULAR_FORMULA>
C13H21N3O6

> <PUBCHEM_MOLECULAR_WEIGHT>
315.32234

> <PUBCHEM_OPENEYE_CAN_SMILES>
CC(C)C(C(=O)NC(C(C1CN2C(O1)CC2=O)O)C(=O)O)N

> <PUBCHEM_OPENEYE_ISO_SMILES>
CC(C)[C@@H](C(=O)N[C@@H](C([C@H]1CN2[C@@H](O1)CC2=O)O)C(=O)O)N

> <PUBCHEM_CACTVS_TPSA>
142

> <PUBCHEM_MONOISOTOPIC_WEIGHT>
315.143035

> <PUBCHEM_TOTAL_CHARGE>
0

> <PUBCHEM_HEAVY_ATOM_COUNT>
22

> <PUBCHEM_ATOM_DEF_STEREO_COUNT>
4

> <PUBCHEM_ATOM_UDEF_STEREO_COUNT>
1

> <PUBCHEM_BOND_DEF_STEREO_COUNT>
0

> <PUBCHEM_BOND_UDEF_STEREO_COUNT>
0

> <PUBCHEM_ISOTOPIC_ATOM_COUNT>
0

> <PUBCHEM_COMPONENT_COUNT>
1

> <PUBCHEM_CACTVS_TAUTO_COUNT>
4

> <PUBCHEM_COORDINATE_TYPE>
1
5
255

> <PUBCHEM_BONDANNOTATIONS>
10  23  5
11  14  5
14  2  3
16  8  5
18  9  5

$$$$

