11532
  -OEChem-06261205472D

 23 22  0     0  0  0  0  0  0999 V2000
    6.3301    0.4400    0.0000 O   0  0  0  0  0  0  0  0  0  0  0  0
    7.1962   -1.0600    0.0000 O   0  0  0  0  0  0  0  0  0  0  0  0
    8.9282   -0.0600    0.0000 O   0  0  0  0  0  0  0  0  0  0  0  0
    8.0622    0.4400    0.0000 N   0  0  0  0  0  0  0  0  0  0  0  0
    3.7320   -0.0600    0.0000 C   0  0  0  0  0  0  0  0  0  0  0  0
    4.5981    0.4400    0.0000 C   0  0  0  0  0  0  0  0  0  0  0  0
    2.8660    0.4400    0.0000 C   0  0  0  0  0  0  0  0  0  0  0  0
    5.4641   -0.0600    0.0000 C   0  0  0  0  0  0  0  0  0  0  0  0
    2.0000   -0.0600    0.0000 C   0  0  0  0  0  0  0  0  0  0  0  0
    7.1962   -0.0600    0.0000 C   0  0  0  0  0  0  0  0  0  0  0  0
    3.3335   -0.5349    0.0000 H   0  0  0  0  0  0  0  0  0  0  0  0
    4.1306   -0.5349    0.0000 H   0  0  0  0  0  0  0  0  0  0  0  0
    4.9966    0.9149    0.0000 H   0  0  0  0  0  0  0  0  0  0  0  0
    4.1996    0.9149    0.0000 H   0  0  0  0  0  0  0  0  0  0  0  0
    3.2646    0.9149    0.0000 H   0  0  0  0  0  0  0  0  0  0  0  0
    2.4675    0.9149    0.0000 H   0  0  0  0  0  0  0  0  0  0  0  0
    5.0656   -0.5349    0.0000 H   0  0  0  0  0  0  0  0  0  0  0  0
    5.8626   -0.5349    0.0000 H   0  0  0  0  0  0  0  0  0  0  0  0
    1.6900    0.4769    0.0000 H   0  0  0  0  0  0  0  0  0  0  0  0
    1.4631   -0.3700    0.0000 H   0  0  0  0  0  0  0  0  0  0  0  0
    2.3100   -0.5969    0.0000 H   0  0  0  0  0  0  0  0  0  0  0  0
    8.0622    1.0600    0.0000 H   0  0  0  0  0  0  0  0  0  0  0  0
    9.4651    0.2500    0.0000 H   0  0  0  0  0  0  0  0  0  0  0  0
  1  8  1  0  0  0  0
  1 10  1  0  0  0  0
  2 10  2  0  0  0  0
  3  4  1  0  0  0  0
  3 23  1  0  0  0  0
  4 10  1  0  0  0  0
  4 22  1  0  0  0  0
  5  6  1  0  0  0  0
  5  7  1  0  0  0  0
  5 11  1  0  0  0  0
  5 12  1  0  0  0  0
  6  8  1  0  0  0  0
  6 13  1  0  0  0  0
  6 14  1  0  0  0  0
  7  9  1  0  0  0  0
  7 15  1  0  0  0  0
  7 16  1  0  0  0  0
  8 17  1  0  0  0  0
  8 18  1  0  0  0  0
  9 19  1  0  0  0  0
  9 20  1  0  0  0  0
  9 21  1  0  0  0  0
M  END
> <PUBCHEM_COMPOUND_CID>
11532

> <PUBCHEM_COMPOUND_CANONICALIZED>
1

> <PUBCHEM_CACTVS_COMPLEXITY>
95

> <PUBCHEM_CACTVS_HBOND_ACCEPTOR>
3

> <PUBCHEM_CACTVS_HBOND_DONOR>
2

> <PUBCHEM_CACTVS_ROTATABLE_BOND>
5

> <PUBCHEM_CACTVS_SUBSKEYS>
AAADccBiMAAAAAAAAAAAAAAAAAAAAAAAAAAAAAAAAAAAAAAAAAAAHgAUCAAACACggAICCABQBAAIAAAAGAAAAAAAAAAAAAAAAAEAAAIAAAAIAAAEAAAAAACAAAAAAAAAAAAAAAAAAAAAAAAAAAAAAAAAAA==

> <PUBCHEM_IUPAC_OPENEYE_NAME>
pentyl N-hydroxycarbamate

> <PUBCHEM_IUPAC_CAS_NAME>
N-hydroxycarbamic acid pentyl ester

> <PUBCHEM_IUPAC_NAME>
pentyl N-hydroxycarbamate

> <PUBCHEM_IUPAC_SYSTEMATIC_NAME>
pentyl N-oxidanylcarbamate

> <PUBCHEM_IUPAC_TRADITIONAL_NAME>
N-hydroxycarbamic acid amyl ester

> <PUBCHEM_IUPAC_INCHI>
InChI=1S/C6H13NO3/c1-2-3-4-5-10-6(8)7-9/h9H,2-5H2,1H3,(H,7,8)

> <PUBCHEM_IUPAC_INCHIKEY>
LVBGJOZIFXLCKK-UHFFFAOYSA-N

> <PUBCHEM_XLOGP3>
1.5

> <PUBCHEM_EXACT_MASS>
147.089543

> <PUBCHEM_MOLECULAR_FORMULA>
C6H13NO3

> <PUBCHEM_MOLECULAR_WEIGHT>
147.17232

> <PUBCHEM_OPENEYE_CAN_SMILES>
CCCCCOC(=O)NO

> <PUBCHEM_OPENEYE_ISO_SMILES>
CCCCCOC(=O)NO

> <PUBCHEM_CACTVS_TPSA>
58.6

> <PUBCHEM_MONOISOTOPIC_WEIGHT>
147.089543

> <PUBCHEM_TOTAL_CHARGE>
0

> <PUBCHEM_HEAVY_ATOM_COUNT>
10

> <PUBCHEM_ATOM_DEF_STEREO_COUNT>
0

> <PUBCHEM_ATOM_UDEF_STEREO_COUNT>
0

> <PUBCHEM_BOND_DEF_STEREO_COUNT>
0

> <PUBCHEM_BOND_UDEF_STEREO_COUNT>
0

> <PUBCHEM_ISOTOPIC_ATOM_COUNT>
0

> <PUBCHEM_COMPONENT_COUNT>
1

> <PUBCHEM_CACTVS_TAUTO_COUNT>
3

> <PUBCHEM_COORDINATE_TYPE>
1
5
255

$$$$

