5690
  -OEChem-06261200492D

 58 63  0     1  0  0  0  0  0999 V2000
    8.5002   -2.6969    0.0000 O   0  0  0  0  0  0  0  0  0  0  0  0
   12.8304   -2.1969    0.0000 O   0  0  0  0  0  0  0  0  0  0  0  0
    7.0650    1.9773    0.0000 O   0  0  0  0  0  0  0  0  0  0  0  0
    8.5002   -0.6969    0.0000 N   0  0  0  0  0  0  0  0  0  0  0  0
   11.0983   -1.1969    0.0000 N   0  0  0  0  0  0  0  0  0  0  0  0
    9.3663   -1.1969    0.0000 C   0  0  3  0  0  0  0  0  0  0  0  0
   10.2323   -0.6969    0.0000 C   0  0  0  0  0  0  0  0  0  0  0  0
    7.6342   -1.1969    0.0000 C   0  0  0  0  0  0  0  0  0  0  0  0
    9.3663   -2.1969    0.0000 C   0  0  0  0  0  0  0  0  0  0  0  0
    8.1351    0.2274    0.0000 C   0  0  0  0  0  0  0  0  0  0  0  0
    6.7403   -0.6623    0.0000 C   0  0  0  0  0  0  0  0  0  0  0  0
    7.1415    0.2469    0.0000 C   0  0  0  0  0  0  0  0  0  0  0  0
    7.6342   -2.1969    0.0000 C   0  0  0  0  0  0  0  0  0  0  0  0
   11.9643   -0.6969    0.0000 C   0  0  0  0  0  0  0  0  0  0  0  0
   11.0983   -2.1969    0.0000 C   0  0  0  0  0  0  0  0  0  0  0  0
   12.8304   -1.1969    0.0000 C   0  0  0  0  0  0  0  0  0  0  0  0
   11.9643   -2.6969    0.0000 C   0  0  0  0  0  0  0  0  0  0  0  0
    8.7056    1.0487    0.0000 C   0  0  0  0  0  0  0  0  0  0  0  0
    5.8342   -1.1761    0.0000 C   0  0  0  0  0  0  0  0  0  0  0  0
    6.7403   -2.7316    0.0000 C   0  0  0  0  0  0  0  0  0  0  0  0
    6.6037    1.0900    0.0000 C   0  0  0  0  0  0  0  0  0  0  0  0
    5.8342   -2.2178    0.0000 C   0  0  0  0  0  0  0  0  0  0  0  0
    5.6047    1.0459    0.0000 C   0  0  0  0  0  0  0  0  0  0  0  0
    5.0670    1.8890    0.0000 C   0  0  0  0  0  0  0  0  0  0  0  0
    5.1434    0.1587    0.0000 C   0  0  0  0  0  0  0  0  0  0  0  0
    4.0680    1.8449    0.0000 C   0  0  0  0  0  0  0  0  0  0  0  0
    3.6067    0.9576    0.0000 C   0  0  0  0  0  0  0  0  0  0  0  0
    4.1444    0.1145    0.0000 C   0  0  0  0  0  0  0  0  0  0  0  0
    3.5214    2.7316    0.0000 C   0  0  0  0  0  0  0  0  0  0  0  0
    2.5669    0.8956    0.0000 C   0  0  0  0  0  0  0  0  0  0  0  0
    2.4805    2.6936    0.0000 C   0  0  0  0  0  0  0  0  0  0  0  0
    2.0000    1.7694    0.0000 C   0  0  0  0  0  0  0  0  0  0  0  0
    9.3663   -0.5769    0.0000 H   0  0  0  0  0  0  0  0  0  0  0  0
   10.6308   -0.2220    0.0000 H   0  0  0  0  0  0  0  0  0  0  0  0
    9.8338   -0.2220    0.0000 H   0  0  0  0  0  0  0  0  0  0  0  0
    9.5783   -2.7796    0.0000 H   0  0  0  0  0  0  0  0  0  0  0  0
    9.9768   -2.0893    0.0000 H   0  0  0  0  0  0  0  0  0  0  0  0
   12.3629   -0.2220    0.0000 H   0  0  0  0  0  0  0  0  0  0  0  0
   11.5658   -0.2220    0.0000 H   0  0  0  0  0  0  0  0  0  0  0  0
   10.4877   -2.0893    0.0000 H   0  0  0  0  0  0  0  0  0  0  0  0
   10.8863   -2.7796    0.0000 H   0  0  0  0  0  0  0  0  0  0  0  0
   13.4409   -1.3046    0.0000 H   0  0  0  0  0  0  0  0  0  0  0  0
   13.0424   -0.6143    0.0000 H   0  0  0  0  0  0  0  0  0  0  0  0
   11.5658   -3.1719    0.0000 H   0  0  0  0  0  0  0  0  0  0  0  0
   12.3629   -3.1719    0.0000 H   0  0  0  0  0  0  0  0  0  0  0  0
    9.2148    0.6949    0.0000 H   0  0  0  0  0  0  0  0  0  0  0  0
    9.0594    1.5578    0.0000 H   0  0  0  0  0  0  0  0  0  0  0  0
    8.1964    1.4024    0.0000 H   0  0  0  0  0  0  0  0  0  0  0  0
    5.2985   -0.8641    0.0000 H   0  0  0  0  0  0  0  0  0  0  0  0
    6.7474   -3.3516    0.0000 H   0  0  0  0  0  0  0  0  0  0  0  0
    5.2985   -2.5298    0.0000 H   0  0  0  0  0  0  0  0  0  0  0  0
    5.3530    2.4391    0.0000 H   0  0  0  0  0  0  0  0  0  0  0  0
    5.4768   -0.3641    0.0000 H   0  0  0  0  0  0  0  0  0  0  0  0
    3.8584   -0.4356    0.0000 H   0  0  0  0  0  0  0  0  0  0  0  0
    3.8138    3.2784    0.0000 H   0  0  0  0  0  0  0  0  0  0  0  0
    2.2873    0.3422    0.0000 H   0  0  0  0  0  0  0  0  0  0  0  0
    2.1491    3.2176    0.0000 H   0  0  0  0  0  0  0  0  0  0  0  0
    1.3807    1.7397    0.0000 H   0  0  0  0  0  0  0  0  0  0  0  0
  1  9  1  0  0  0  0
  1 13  1  0  0  0  0
  2 16  1  0  0  0  0
  2 17  1  0  0  0  0
  3 21  2  0  0  0  0
  4  6  1  0  0  0  0
  4  8  1  0  0  0  0
  4 10  1  0  0  0  0
  5  7  1  0  0  0  0
  5 14  1  0  0  0  0
  5 15  1  0  0  0  0
  6  7  1  0  0  0  0
  6  9  1  0  0  0  0
  6 33  1  0  0  0  0
  7 34  1  0  0  0  0
  7 35  1  0  0  0  0
  8 11  2  0  0  0  0
  8 13  1  0  0  0  0
  9 36  1  0  0  0  0
  9 37  1  0  0  0  0
 10 12  2  0  0  0  0
 10 18  1  0  0  0  0
 11 12  1  0  0  0  0
 11 19  1  0  0  0  0
 12 21  1  0  0  0  0
 13 20  2  0  0  0  0
 14 16  1  0  0  0  0
 14 38  1  0  0  0  0
 14 39  1  0  0  0  0
 15 17  1  0  0  0  0
 15 40  1  0  0  0  0
 15 41  1  0  0  0  0
 16 42  1  0  0  0  0
 16 43  1  0  0  0  0
 17 44  1  0  0  0  0
 17 45  1  0  0  0  0
 18 46  1  0  0  0  0
 18 47  1  0  0  0  0
 18 48  1  0  0  0  0
 19 22  2  0  0  0  0
 19 49  1  0  0  0  0
 20 22  1  0  0  0  0
 20 50  1  0  0  0  0
 21 23  1  0  0  0  0
 22 51  1  0  0  0  0
 23 24  2  0  0  0  0
 23 25  1  0  0  0  0
 24 26  1  0  0  0  0
 24 52  1  0  0  0  0
 25 28  2  0  0  0  0
 25 53  1  0  0  0  0
 26 27  1  0  0  0  0
 26 29  2  0  0  0  0
 27 28  1  0  0  0  0
 27 30  2  0  0  0  0
 28 54  1  0  0  0  0
 29 31  1  0  0  0  0
 29 55  1  0  0  0  0
 30 32  1  0  0  0  0
 30 56  1  0  0  0  0
 31 32  2  0  0  0  0
 31 57  1  0  0  0  0
 32 58  1  0  0  0  0
M  END
> <PUBCHEM_COMPOUND_CID>
5690

> <PUBCHEM_COMPOUND_CANONICALIZED>
1

> <PUBCHEM_CACTVS_COMPLEXITY>
680

> <PUBCHEM_CACTVS_HBOND_ACCEPTOR>
4

> <PUBCHEM_CACTVS_HBOND_DONOR>
0

> <PUBCHEM_CACTVS_ROTATABLE_BOND>
4

> <PUBCHEM_CACTVS_SUBSKEYS>
AAADceB7MAAAAAAAAAAAAAAAAAAAAWAAAAA8eMECAAAAAFjx9AAAHgAAAAAADCzhngYyxvMMFACoA6RyRASCiCAlYCAI2CE/TNgOZvrEtZuXOajmwBHY6cec3PPOwAADAAASEACAAAYAACQgAAAAAAAAAA==

> <PUBCHEM_IUPAC_INCHI>
InChI=1S/C27H26N2O3/c1-18-25(27(30)21-10-9-19-5-2-3-6-20(19)15-21)23-7-4-8-24-26(23)29(18)22(17-32-24)16-28-11-13-31-14-12-28/h2-10,15,22H,11-14,16-17H2,1H3

> <PUBCHEM_IUPAC_INCHIKEY>
YIZIGGXNFRIVFS-UHFFFAOYSA-N

> <PUBCHEM_XLOGP3_AA>
4.4

> <PUBCHEM_EXACT_MASS>
426.194343

> <PUBCHEM_MOLECULAR_FORMULA>
C27H26N2O3

> <PUBCHEM_MOLECULAR_WEIGHT>
426.50694

> <PUBCHEM_OPENEYE_CAN_SMILES>
CC1=C(C2=C3N1C(COC3=CC=C2)CN4CCOCC4)C(=O)C5=CC6=CC=CC=C6C=C5

> <PUBCHEM_OPENEYE_ISO_SMILES>
CC1=C(C2=C3N1C(COC3=CC=C2)CN4CCOCC4)C(=O)C5=CC6=CC=CC=C6C=C5

> <PUBCHEM_CACTVS_TPSA>
43.7

> <PUBCHEM_MONOISOTOPIC_WEIGHT>
426.194343

> <PUBCHEM_TOTAL_CHARGE>
0

> <PUBCHEM_HEAVY_ATOM_COUNT>
32

> <PUBCHEM_ATOM_DEF_STEREO_COUNT>
0

> <PUBCHEM_ATOM_UDEF_STEREO_COUNT>
1

> <PUBCHEM_BOND_DEF_STEREO_COUNT>
0

> <PUBCHEM_BOND_UDEF_STEREO_COUNT>
0

> <PUBCHEM_ISOTOPIC_ATOM_COUNT>
0

> <PUBCHEM_COMPONENT_COUNT>
1

> <PUBCHEM_CACTVS_TAUTO_COUNT>
1

> <PUBCHEM_COORDINATE_TYPE>
1
5
255

> <PUBCHEM_BONDANNOTATIONS>
10  12  8
11  12  8
11  19  8
13  20  8
19  22  8
20  22  8
23  24  8
23  25  8
24  26  8
25  28  8
26  27  8
26  29  8
27  28  8
27  30  8
29  31  8
30  32  8
31  32  8
4  10  8
4  8  8
6  7  3
8  11  8
8  13  8

$$$$

