16126819
  -OEChem-07051213113D

 42 43  0     1  0  0  0  0  0999 V2000
   -2.7211    1.6402    1.0521 P   0  0  2  0  0  0  0  0  0  0  0  0
   -3.8581   -0.6391   -0.4275 P   0  0  1  0  0  0  0  0  0  0  0  0
    1.5933    1.6120    1.0332 O   0  0  0  0  0  0  0  0  0  0  0  0
    2.9259    3.7125   -0.6406 O   0  0  0  0  0  0  0  0  0  0  0  0
    3.5788    1.4086   -1.9460 O   0  0  0  0  0  0  0  0  0  0  0  0
   -1.1687    2.0911    1.1295 O   0  0  0  0  0  0  0  0  0  0  0  0
    4.6573   -0.9590    0.1319 O   0  0  0  0  0  0  0  0  0  0  0  0
   -2.6727    0.2861    0.1726 O   0  0  0  0  0  0  0  0  0  0  0  0
   -3.3769    2.7134    0.0347 O   0  0  0  0  0  0  0  0  0  0  0  0
   -3.4190    1.5147    2.3748 O   0  0  0  0  0  0  0  0  0  0  0  0
   -4.5079   -1.2712    0.9160 O   0  0  0  0  0  0  0  0  0  0  0  0
   -4.8505    0.1285   -1.2556 O   0  0  0  0  0  0  0  0  0  0  0  0
   -1.9359   -1.7362   -1.9785 O   0  0  0  0  0  0  0  0  0  0  0  0
   -3.6273   -3.0725   -1.2481 O   0  0  0  0  0  0  0  0  0  0  0  0
    2.4134   -0.4727    0.3652 N   0  0  0  0  0  0  0  0  0  0  0  0
    3.2686   -2.7280    0.4381 N   0  0  0  0  0  0  0  0  0  0  0  0
    1.8402   -4.5365    0.7502 N   0  0  0  0  0  0  0  0  0  0  0  0
    1.8574    2.8297   -0.9815 C   0  0  1  0  0  0  0  0  0  0  0  0
    2.3835    1.4257   -1.1930 C   0  0  2  0  0  0  0  0  0  0  0  0
    0.9789    2.6589    0.2503 C   0  0  1  0  0  0  0  0  0  0  0  0
    2.5848    0.9462    0.2341 C   0  0  1  0  0  0  0  0  0  0  0  0
   -0.4446    2.2306   -0.0803 C   0  0  0  0  0  0  0  0  0  0  0  0
    1.1352   -0.9740    0.5570 C   0  0  0  0  0  0  0  0  0  0  0  0
    3.5087   -1.3712    0.3032 C   0  0  0  0  0  0  0  0  0  0  0  0
    0.8835   -2.2752    0.6877 C   0  0  0  0  0  0  0  0  0  0  0  0
    2.0570   -3.1844    0.6186 C   0  0  0  0  0  0  0  0  0  0  0  0
   -3.0839   -1.9784   -1.2980 C   0  0  0  0  0  0  0  0  0  0  0  0
    1.3461    3.2466   -1.8530 H   0  0  0  0  0  0  0  0  0  0  0  0
    1.6331    0.8254   -1.7215 H   0  0  0  0  0  0  0  0  0  0  0  0
    0.9627    3.5560    0.8796 H   0  0  0  0  0  0  0  0  0  0  0  0
    3.5750    1.2237    0.6145 H   0  0  0  0  0  0  0  0  0  0  0  0
   -0.9223    3.0016   -0.6938 H   0  0  0  0  0  0  0  0  0  0  0  0
   -0.4734    1.2903   -0.6356 H   0  0  0  0  0  0  0  0  0  0  0  0
    3.3270    3.4175    0.1938 H   0  0  0  0  0  0  0  0  0  0  0  0
    3.8991    0.4908   -1.9639 H   0  0  0  0  0  0  0  0  0  0  0  0
    0.3066   -0.2853    0.6052 H   0  0  0  0  0  0  0  0  0  0  0  0
   -0.1114   -2.6729    0.8374 H   0  0  0  0  0  0  0  0  0  0  0  0
   -4.3454    2.6905   -0.1187 H   0  0  0  0  0  0  0  0  0  0  0  0
    0.9119   -4.9212    0.8907 H   0  0  0  0  0  0  0  0  0  0  0  0
    2.6116   -5.1938    0.7090 H   0  0  0  0  0  0  0  0  0  0  0  0
   -5.0534   -0.6951    1.4929 H   0  0  0  0  0  0  0  0  0  0  0  0
   -1.5948   -2.5429   -2.4202 H   0  0  0  0  0  0  0  0  0  0  0  0
  1  6  1  0  0  0  0
  1  8  1  0  0  0  0
  1  9  1  0  0  0  0
  1 10  2  0  0  0  0
  2  8  1  0  0  0  0
  2 11  1  0  0  0  0
  2 12  2  0  0  0  0
  2 27  1  0  0  0  0
  3 20  1  0  0  0  0
  3 21  1  0  0  0  0
  4 18  1  0  0  0  0
  4 34  1  0  0  0  0
  5 19  1  0  0  0  0
  5 35  1  0  0  0  0
  6 22  1  0  0  0  0
  7 24  2  0  0  0  0
  9 38  1  0  0  0  0
 11 41  1  0  0  0  0
 13 27  1  0  0  0  0
 13 42  1  0  0  0  0
 14 27  2  0  0  0  0
 15 21  1  0  0  0  0
 15 23  1  0  0  0  0
 15 24  1  0  0  0  0
 16 24  1  0  0  0  0
 16 26  2  0  0  0  0
 17 26  1  0  0  0  0
 17 39  1  0  0  0  0
 17 40  1  0  0  0  0
 18 19  1  0  0  0  0
 18 20  1  0  0  0  0
 18 28  1  0  0  0  0
 19 21  1  0  0  0  0
 19 29  1  0  0  0  0
 20 22  1  0  0  0  0
 20 30  1  0  0  0  0
 21 31  1  0  0  0  0
 22 32  1  0  0  0  0
 22 33  1  0  0  0  0
 23 25  2  0  0  0  0
 23 36  1  0  0  0  0
 25 26  1  0  0  0  0
 25 37  1  0  0  0  0
M  END
> <PUBCHEM_COMPOUND_CID>
16126819

> <PUBCHEM_CONFORMER_RMSD>
1

> <PUBCHEM_CONFORMER_DIVERSEORDER>
1
150
199
331
218
79
341
348
361
307
332
107
279
169
410
234
318
333
411
262
413
247
157
129
248
36
246
315
40
265
236
271
189
283
60
310
18
193
336
242
269
330
393
225
59
176
138
127
314
298
291
15
379
167
151
382
73
133
66
93
161
328
159
145
360
6
357
203
268
372
216
416
183
139
190
295
119
170
398
322
405
8
49
394
402
235
131
146
104
111
80
47
185
221
100
188
272
407
206
215
249
12
81
58
301
76
355
292
261
240
340
386
39
395
158
204
86
373
219
308
255
237
270
99
63
299
252
144
207
371
156
390
263
84
280
267
83
259
347
123
195
243
346
91
222
77
55
253
350
335
24
294
399
130
87
338
118
177
275
197
65
287
214
90
17
95
113
147
266
16
121
75
296
414
211
392
196
278
141
387
46
239
110
43
238
50
369
349
88
327
106
356
375
244
362
198
250
228
28
325
78
64
342
124
317
142
297
256
35
166
97
254
22
316
377
68
187
116
5
184
274
245
220
368
223
210
345
323
54
148
227
56
182
9
208
406
165
288
229
89
120
33
383
134
69
212
180
164
109
290
32
53
51
334
10
61
98
126
213
351
125
162
179
337
44
14
192
321
71
205
319
400
381
397
45
320
200
284
380
231
194
329
163
412
281
105
11
408
4
391
353
67
230
70
178
285
384
171
201
143
21
306
251
27
374
153
300
26
305
160
233
168
358
326
96
34
128
191
258
309
132
385
101
181
232
404
173
42
23
102
48
154
418
103
117
313
152
276
359
52
352
226
94
217
175
13
92
186
74
112
363
354
365
293
257
7
37
378
41
30
174
135
136
417
172
282
137
25
302
415
343
370
85
344
367
209
2
57
409
31
366
108
364
19
277
303
273
396
286
115
403
388
224
140
202
3
122
312
82
264
260
389
149
38
376
289
62
324
155
20
339
114
29
311
241
304
401
72

> <PUBCHEM_MMFF94_PARTIAL_CHARGES>
36
1 1.51
10 -0.7
11 -0.77
12 -0.7
13 -0.65
14 -0.57
15 -0.47
16 -0.66
17 -0.85
18 0.28
19 0.28
2 1.35
20 0.28
21 0.58
22 0.28
23 -0.04
24 0.84
25 -0.14
26 0.49
27 0.61
3 -0.56
34 0.4
35 0.4
36 0.15
37 0.15
38 0.5
39 0.4
4 -0.68
40 0.4
41 0.5
42 0.5
5 -0.68
6 -0.55
7 -0.57
8 -0.54
9 -0.77

> <PUBCHEM_EFFECTIVE_ROTOR_COUNT>
8

> <PUBCHEM_PHARMACOPHORE_FEATURES>
17
1 10 acceptor
1 11 acceptor
1 12 acceptor
1 13 acceptor
1 14 acceptor
1 16 donor
1 17 donor
1 3 acceptor
1 4 acceptor
1 4 donor
1 5 acceptor
1 5 donor
1 7 acceptor
1 9 acceptor
3 13 14 27 anion
5 3 18 19 20 21 rings
6 15 16 23 24 25 26 rings

> <PUBCHEM_HEAVY_ATOM_COUNT>
27

> <PUBCHEM_ATOM_DEF_STEREO_COUNT>
4

> <PUBCHEM_ATOM_UDEF_STEREO_COUNT>
0

> <PUBCHEM_BOND_DEF_STEREO_COUNT>
0

> <PUBCHEM_BOND_UDEF_STEREO_COUNT>
0

> <PUBCHEM_ISOTOPIC_ATOM_COUNT>
0

> <PUBCHEM_COMPONENT_COUNT>
1

> <PUBCHEM_CACTVS_TAUTO_COUNT>
3

> <PUBCHEM_CONFORMER_ID>
00F6136300000001

> <PUBCHEM_MMFF94_ENERGY>
26.8191

> <PUBCHEM_FEATURE_SELFOVERLAP>
86.404

> <PUBCHEM_SHAPE_FINGERPRINT>
108634 29 17400358949760329028
12553582 1 18197772413315909842
12788726 201 17676479541673929569
13004483 165 17479460483411143952
13122387 1 17616254019220636175
13257819 101 15050590597563084132
14117953 113 17399522715433310893
14931854 50 17976263430789764903
15537594 2 18191011323338468783
19026451 147 17029693857468699815
20764821 26 16321762133310289775
21315764 21 17981367535817859111
21634736 98 18410011031114130586
238 59 18200586986883849328
46194498 28 17632579366101220677
463206 1 18409449172193153097
7097593 13 18336829813507600527

> <PUBCHEM_SHAPE_MULTIPOLES>
477.97
8.54
5.05
1.52
5.71
1.87
-0.17
2.12
-1.08
-2.67
0.06
1.01
-0.18
-2.98

> <PUBCHEM_SHAPE_SELFOVERLAP>
965.198

> <PUBCHEM_SHAPE_VOLUME>
280.2

> <PUBCHEM_COORDINATE_TYPE>
2
5
10

$$$$

