586121
  -OEChem-06241222452D

 46 50  0     1  0  0  0  0  0999 V2000
    6.4680   -2.0988    0.0000 O   0  0  0  0  0  0  0  0  0  0  0  0
    2.0000    0.2980    0.0000 N   0  0  3  0  0  0  0  0  0  0  0  0
    5.4409   -0.1599    0.0000 N   0  0  0  0  0  0  0  0  0  0  0  0
    3.8378    0.0072    0.0000 C   0  0  3  0  0  0  0  0  0  0  0  0
    2.9718    0.5072    0.0000 C   0  0  3  0  0  0  0  0  0  0  0  0
    4.7039    0.5072    0.0000 C   0  0  3  0  0  0  0  0  0  0  0  0
    3.1708   -0.7298    0.0000 C   0  0  0  0  0  0  0  0  0  0  0  0
    3.8378    2.0072    0.0000 C   0  0  3  0  0  0  0  0  0  0  0  0
    4.7039    1.5072    0.0000 C   0  0  0  0  0  0  0  0  0  0  0  0
    2.9718    1.5072    0.0000 C   0  0  0  0  0  0  0  0  0  0  0  0
    2.0800   -0.5077    0.0000 C   0  0  0  0  0  0  0  0  0  0  0  0
    4.0470   -0.9646    0.0000 C   0  0  0  0  0  0  0  0  0  0  0  0
    2.8386    1.9730    0.0000 C   0  0  0  0  0  0  0  0  0  0  0  0
    2.1065    1.2921    0.0000 C   0  0  0  0  0  0  0  0  0  0  0  0
    5.0358   -1.0677    0.0000 C   0  0  0  0  0  0  0  0  0  0  0  0
    2.1058    2.0072    0.0000 C   0  0  0  0  0  0  0  0  0  0  0  0
    3.4263   -1.7934    0.0000 C   0  0  0  0  0  0  0  0  0  0  0  0
    5.4723   -2.0066    0.0000 C   0  0  0  0  0  0  0  0  0  0  0  0
    3.8410   -2.7422    0.0000 C   0  0  0  0  0  0  0  0  0  0  0  0
    2.1058    3.0072    0.0000 C   0  0  0  0  0  0  0  0  0  0  0  0
    4.8709   -2.8495    0.0000 C   0  0  0  0  0  0  0  0  0  0  0  0
    6.8861   -3.0072    0.0000 C   0  0  0  0  0  0  0  0  0  0  0  0
    2.8756   -0.1053    0.0000 H   0  0  0  0  0  0  0  0  0  0  0  0
    5.2706    0.7586    0.0000 H   0  0  0  0  0  0  0  0  0  0  0  0
    2.9413   -1.3058    0.0000 H   0  0  0  0  0  0  0  0  0  0  0  0
    3.6969   -1.0578    0.0000 H   0  0  0  0  0  0  0  0  0  0  0  0
    3.9880    2.6087    0.0000 H   0  0  0  0  0  0  0  0  0  0  0  0
    5.3144    1.3995    0.0000 H   0  0  0  0  0  0  0  0  0  0  0  0
    4.9159    2.0898    0.0000 H   0  0  0  0  0  0  0  0  0  0  0  0
    1.4600   -0.5071    0.0000 H   0  0  0  0  0  0  0  0  0  0  0  0
    2.0175   -1.1246    0.0000 H   0  0  0  0  0  0  0  0  0  0  0  0
    2.9927    2.5735    0.0000 H   0  0  0  0  0  0  0  0  0  0  0  0
    2.3057    2.2898    0.0000 H   0  0  0  0  0  0  0  0  0  0  0  0
    1.8291    1.8466    0.0000 H   0  0  0  0  0  0  0  0  0  0  0  0
    1.4964    1.1820    0.0000 H   0  0  0  0  0  0  0  0  0  0  0  0
    6.0476   -0.0320    0.0000 H   0  0  0  0  0  0  0  0  0  0  0  0
    1.5689    1.6972    0.0000 H   0  0  0  0  0  0  0  0  0  0  0  0
    2.8104   -1.7220    0.0000 H   0  0  0  0  0  0  0  0  0  0  0  0
    3.4750   -3.2427    0.0000 H   0  0  0  0  0  0  0  0  0  0  0  0
    2.7258    3.0072    0.0000 H   0  0  0  0  0  0  0  0  0  0  0  0
    2.1058    3.6272    0.0000 H   0  0  0  0  0  0  0  0  0  0  0  0
    1.4858    3.0072    0.0000 H   0  0  0  0  0  0  0  0  0  0  0  0
    5.1257   -3.4147    0.0000 H   0  0  0  0  0  0  0  0  0  0  0  0
    6.3229   -3.2664    0.0000 H   0  0  0  0  0  0  0  0  0  0  0  0
    7.1453   -3.5704    0.0000 H   0  0  0  0  0  0  0  0  0  0  0  0
    7.4493   -2.7480    0.0000 H   0  0  0  0  0  0  0  0  0  0  0  0
  1 18  1  0  0  0  0
  1 22  1  0  0  0  0
  2  5  1  0  0  0  0
  2 11  1  0  0  0  0
  2 14  1  0  0  0  0
  3  6  1  0  0  0  0
  3 15  1  0  0  0  0
  3 36  1  0  0  0  0
  4  5  1  0  0  0  0
  4  6  1  0  0  0  0
  4  7  1  0  0  0  0
  4 12  1  0  0  0  0
  5 10  1  0  0  0  0
  5 23  1  0  0  0  0
  6  9  1  0  0  0  0
  6 24  1  0  0  0  0
  7 11  1  0  0  0  0
  7 25  1  0  0  0  0
  7 26  1  0  0  0  0
  8  9  1  0  0  0  0
  8 10  1  0  0  0  0
  8 13  1  0  0  0  0
  8 27  1  0  0  0  0
  9 28  1  0  0  0  0
  9 29  1  0  0  0  0
 10 16  2  3  0  0  0
 11 30  1  0  0  0  0
 11 31  1  0  0  0  0
 12 15  2  0  0  0  0
 12 17  1  0  0  0  0
 13 14  1  0  0  0  0
 13 32  1  0  0  0  0
 13 33  1  0  0  0  0
 14 34  1  0  0  0  0
 14 35  1  0  0  0  0
 15 18  1  0  0  0  0
 16 20  1  0  0  0  0
 16 37  1  0  0  0  0
 17 19  2  0  0  0  0
 17 38  1  0  0  0  0
 18 21  2  0  0  0  0
 19 21  1  0  0  0  0
 19 39  1  0  0  0  0
 20 40  1  0  0  0  0
 20 41  1  0  0  0  0
 20 42  1  0  0  0  0
 21 43  1  0  0  0  0
 22 44  1  0  0  0  0
 22 45  1  0  0  0  0
 22 46  1  0  0  0  0
M  END
> <PUBCHEM_COMPOUND_CID>
586121

> <PUBCHEM_COMPOUND_CANONICALIZED>
1

> <PUBCHEM_CACTVS_COMPLEXITY>
504

> <PUBCHEM_CACTVS_HBOND_ACCEPTOR>
3

> <PUBCHEM_CACTVS_HBOND_DONOR>
1

> <PUBCHEM_CACTVS_ROTATABLE_BOND>
1

> <PUBCHEM_CACTVS_SUBSKEYS>
AAADceB7IAAAAAAAAAAAAAAAAAAAAWLAAAA8YIAAAAAWAFgBAAAAHgAQAAAADyzBmAYyxoPABACAAiRCQACCCAAhIAAIiIAPTIgOJiLE8ZuFMChk0BHY6AeQ0PMPgAABAAACEACAAAKACAQgAAAAAAAAAA==

> <PUBCHEM_IUPAC_INCHI>
InChI=1S/C19H24N2O/c1-3-13-12-7-9-21-10-8-19(18(13)21)14-5-4-6-15(22-2)17(14)20-16(19)11-12/h3-6,12,16,18,20H,7-11H2,1-2H3

> <PUBCHEM_IUPAC_INCHIKEY>
ZBICFWPIJJTIEN-UHFFFAOYSA-N

> <PUBCHEM_XLOGP3_AA>
2.8

> <PUBCHEM_EXACT_MASS>
296.188863

> <PUBCHEM_MOLECULAR_FORMULA>
C19H24N2O

> <PUBCHEM_MOLECULAR_WEIGHT>
296.40666

> <PUBCHEM_OPENEYE_CAN_SMILES>
CC=C1C2CCN3C1C4(CC3)C(C2)NC5=C4C=CC=C5OC

> <PUBCHEM_OPENEYE_ISO_SMILES>
CC=C1C2CCN3C1C4(CC3)C(C2)NC5=C4C=CC=C5OC

> <PUBCHEM_CACTVS_TPSA>
24.5

> <PUBCHEM_MONOISOTOPIC_WEIGHT>
296.188863

> <PUBCHEM_TOTAL_CHARGE>
0

> <PUBCHEM_HEAVY_ATOM_COUNT>
22

> <PUBCHEM_ATOM_DEF_STEREO_COUNT>
0

> <PUBCHEM_ATOM_UDEF_STEREO_COUNT>
4

> <PUBCHEM_BOND_DEF_STEREO_COUNT>
0

> <PUBCHEM_BOND_UDEF_STEREO_COUNT>
1

> <PUBCHEM_ISOTOPIC_ATOM_COUNT>
0

> <PUBCHEM_COMPONENT_COUNT>
1

> <PUBCHEM_CACTVS_TAUTO_COUNT>
1

> <PUBCHEM_COORDINATE_TYPE>
1
5
255

> <PUBCHEM_BONDANNOTATIONS>
10  16  1
12  15  8
12  17  8
15  18  8
17  19  8
18  21  8
19  21  8
4  7  3
5  23  3
6  24  3
8  27  3

$$$$

