53297440
  -OEChem-07051213153D

 31 31  0     1  0  0  0  0  0999 V2000
   -1.2646   -2.6212   -0.7319 O   0  0  0  0  0  0  0  0  0  0  0  0
    2.3104    2.2896    0.2457 O   0  0  0  0  0  0  0  0  0  0  0  0
    4.3282   -1.2493    0.9060 O   0  0  0  0  0  0  0  0  0  0  0  0
    3.2674    0.1130   -0.3047 N   0  0  0  0  0  0  0  0  0  0  0  0
    3.4580   -0.3705    0.9067 N   0  0  0  0  0  0  0  0  0  0  0  0
   -3.7958    0.6057    1.3237 N   0  0  0  0  0  0  0  0  0  0  0  0
    0.3825   -0.8667   -0.5439 C   0  0  0  0  0  0  0  0  0  0  0  0
    0.8108    0.4215    0.1668 C   0  0  0  0  0  0  0  0  0  0  0  0
   -0.8993   -1.4782    0.0438 C   0  0  1  0  0  0  0  0  0  0  0  0
    2.1098    1.0290   -0.4043 C   0  0  1  0  0  0  0  0  0  0  0  0
   -2.0767   -0.5310    0.0598 C   0  0  0  0  0  0  0  0  0  0  0  0
   -2.5317    0.0663   -1.1105 C   0  0  0  0  0  0  0  0  0  0  0  0
   -2.7372   -0.2311    1.2404 C   0  0  0  0  0  0  0  0  0  0  0  0
    4.4659    0.7224   -0.8984 C   0  0  0  0  0  0  0  0  0  0  0  0
   -3.6180    0.9331   -1.0650 C   0  0  0  0  0  0  0  0  0  0  0  0
   -4.2097    1.1674    0.1657 C   0  0  0  0  0  0  0  0  0  0  0  0
    1.1728   -1.6251   -0.4875 H   0  0  0  0  0  0  0  0  0  0  0  0
    0.2522   -0.6698   -1.6159 H   0  0  0  0  0  0  0  0  0  0  0  0
    0.0226    1.1789    0.0703 H   0  0  0  0  0  0  0  0  0  0  0  0
    0.9024    0.2502    1.2473 H   0  0  0  0  0  0  0  0  0  0  0  0
   -0.6870   -1.8338    1.0593 H   0  0  0  0  0  0  0  0  0  0  0  0
    1.9382    1.2471   -1.4665 H   0  0  0  0  0  0  0  0  0  0  0  0
   -2.0568   -0.1372   -2.0659 H   0  0  0  0  0  0  0  0  0  0  0  0
   -2.1351   -2.9294   -0.4266 H   0  0  0  0  0  0  0  0  0  0  0  0
   -2.4301   -0.6647    2.1870 H   0  0  0  0  0  0  0  0  0  0  0  0
    4.8355    1.5717   -0.3109 H   0  0  0  0  0  0  0  0  0  0  0  0
    4.2524    1.0774   -1.9136 H   0  0  0  0  0  0  0  0  0  0  0  0
    5.2820   -0.0034   -1.0012 H   0  0  0  0  0  0  0  0  0  0  0  0
    1.5426    2.8510    0.0436 H   0  0  0  0  0  0  0  0  0  0  0  0
   -3.9908    1.4090   -1.9648 H   0  0  0  0  0  0  0  0  0  0  0  0
   -5.0603    1.8350    0.2548 H   0  0  0  0  0  0  0  0  0  0  0  0
  1  9  1  0  0  0  0
  1 24  1  0  0  0  0
  2 10  1  0  0  0  0
  2 29  1  0  0  0  0
  3  5  2  0  0  0  0
  4  5  1  0  0  0  0
  4 10  1  0  0  0  0
  4 14  1  0  0  0  0
  6 13  1  0  0  0  0
  6 16  2  0  0  0  0
  7  8  1  0  0  0  0
  7  9  1  0  0  0  0
  7 17  1  0  0  0  0
  7 18  1  0  0  0  0
  8 10  1  0  0  0  0
  8 19  1  0  0  0  0
  8 20  1  0  0  0  0
  9 11  1  0  0  0  0
  9 21  1  0  0  0  0
 10 22  1  0  0  0  0
 11 12  1  0  0  0  0
 11 13  2  0  0  0  0
 12 15  2  0  0  0  0
 12 23  1  0  0  0  0
 13 25  1  0  0  0  0
 14 26  1  0  0  0  0
 14 27  1  0  0  0  0
 14 28  1  0  0  0  0
 15 16  1  0  0  0  0
 15 30  1  0  0  0  0
 16 31  1  0  0  0  0
M  END
> <PUBCHEM_COMPOUND_CID>
53297440

> <PUBCHEM_CONFORMER_RMSD>
1

> <PUBCHEM_CONFORMER_DIVERSEORDER>
1
33
16
100
54
47
42
105
24
27
84
96
51
52
82
21
30
56
20
28
97
112
110
134
4
116
78
65
19
60
123
77
53
50
68
131
73
12
40
35
29
15
132
46
109
41
133
86
71
111
69
115
117
25
83
10
108
57
102
64
45
13
9
49
34
104
106
87
66
6
94
88
59
107
98
55
89
14
136
80
85
103
63
70
2
122
101
58
137
90
127
114
75
120
5
23
39
126
36
74
121
8
3
32
43
72
113
7
125
128
81
31
91
95
79
76
37
26
22
129
124
48
92
11
118
67
62
61
17
38
18
44
130
99
135
93
119

> <PUBCHEM_MMFF94_PARTIAL_CHARGES>
20
1 -0.68
10 0.55
11 -0.14
12 -0.15
13 0.16
14 0.27
15 -0.15
16 0.16
2 -0.68
23 0.15
24 0.4
25 0.15
29 0.4
3 -0.16
30 0.15
31 0.15
4 -0.36
5 -0.01
6 -0.62
9 0.42

> <PUBCHEM_EFFECTIVE_ROTOR_COUNT>
6

> <PUBCHEM_PHARMACOPHORE_FEATURES>
6
1 1 acceptor
1 1 donor
1 2 acceptor
1 2 donor
1 6 acceptor
6 6 11 12 13 15 16 rings

> <PUBCHEM_HEAVY_ATOM_COUNT>
16

> <PUBCHEM_ATOM_DEF_STEREO_COUNT>
0

> <PUBCHEM_ATOM_UDEF_STEREO_COUNT>
2

> <PUBCHEM_BOND_DEF_STEREO_COUNT>
0

> <PUBCHEM_BOND_UDEF_STEREO_COUNT>
0

> <PUBCHEM_ISOTOPIC_ATOM_COUNT>
0

> <PUBCHEM_COMPONENT_COUNT>
1

> <PUBCHEM_CACTVS_TAUTO_COUNT>
1

> <PUBCHEM_CONFORMER_ID>
032D412000000001

> <PUBCHEM_MMFF94_ENERGY>
39.033

> <PUBCHEM_FEATURE_SELFOVERLAP>
30.446

> <PUBCHEM_SHAPE_FINGERPRINT>
11370993 70 14634871971933668164
11543360 7 14201405983834736075
12119455 92 18343025527571020855
12346177 29 17967821496254667446
124424 183 18201725075791787544
128620 24 8790882995192428256
12932764 1 18271806753256486500
13675066 3 17917714599877452064
13931106 250 16589164709673295519
14004511 7 18260551129700058435
15653759 3 17489867128913104909
17834072 14 14057004927130781320
18186145 218 18260827068622420472
18511873 20 18411142432958540514
19107657 47 18271812332382308041
192875 21 17676489449319579673
200 152 8142086442117637933
20361792 2 11095877147402238499
21524375 3 18409168814140359599
23402539 116 17822015332404518781
23559900 14 17822004290824179660
25610 137 8934998195968757942
6430166 295 18412267258891482948
74978 22 18262802852431211632
83771 10 9367341540146418679
9882013 296 12463572871974182552
9971528 1 17676204697931401804

> <PUBCHEM_SHAPE_MULTIPOLES>
296.72
8.98
1.79
1.15
4.59
0.43
-0.08
-2.57
-0.78
0.19
0.19
-0.56
0.02
-0.45

> <PUBCHEM_SHAPE_SELFOVERLAP>
596.545

> <PUBCHEM_SHAPE_VOLUME>
172.1

> <PUBCHEM_COORDINATE_TYPE>
2
5
10

$$$$

