182145
  -OEChem-07051212562D

 64 67  0     1  0  0  0  0  0999 V2000
    7.7925   -2.0159    0.0000 O   0  0  0  0  0  0  0  0  0  0  0  0
    5.1804    1.5125    0.0000 O   0  0  0  0  0  0  0  0  0  0  0  0
    6.9464    2.5503    0.0000 O   0  0  0  0  0  0  0  0  0  0  0  0
    4.3198    1.0156    0.0000 O   0  0  0  0  0  0  0  0  0  0  0  0
    2.5381    0.0052    0.0000 O   0  0  0  0  0  0  0  0  0  0  0  0
    9.5140   -2.0487    0.0000 O   0  0  0  0  0  0  0  0  0  0  0  0
    6.0291    3.0224    0.0000 O   0  0  0  0  0  0  0  0  0  0  0  0
    6.9343   -0.5190    0.0000 C   0  0  2  0  0  0  0  0  0  0  0  0
    6.0682   -0.0190    0.0000 C   0  0  1  0  0  0  0  0  0  0  0  0
    5.2022   -0.5190    0.0000 C   0  0  2  0  0  0  0  0  0  0  0  0
    7.8443   -0.0122    0.0000 C   0  0  2  0  0  0  0  0  0  0  0  0
    5.2022   -1.5190    0.0000 C   0  0  1  0  0  0  0  0  0  0  0  0
    6.9343   -1.5190    0.0000 C   0  0  1  0  0  0  0  0  0  0  0  0
    6.0522    1.0225    0.0000 C   0  0  1  0  0  0  0  0  0  0  0  0
    6.0682   -2.0190    0.0000 C   0  0  0  0  0  0  0  0  0  0  0  0
    7.8523    1.0294    0.0000 C   0  0  2  0  0  0  0  0  0  0  0  0
    6.9502    1.5503    0.0000 C   0  0  2  0  0  0  0  0  0  0  0  0
    4.3083   -2.0537    0.0000 C   0  0  1  0  0  0  0  0  0  0  0  0
    6.9343    0.4810    0.0000 C   0  0  0  0  0  0  0  0  0  0  0  0
    4.3083    0.0157    0.0000 C   0  0  0  0  0  0  0  0  0  0  0  0
    8.6836   -0.5404    0.0000 C   0  0  0  0  0  0  0  0  0  0  0  0
    5.2022    0.4810    0.0000 C   0  0  0  0  0  0  0  0  0  0  0  0
    3.4022   -1.5398    0.0000 C   0  0  0  0  0  0  0  0  0  0  0  0
    3.4022   -0.4982    0.0000 C   0  0  2  0  0  0  0  0  0  0  0  0
    8.7202    1.5261    0.0000 C   0  0  0  0  0  0  0  0  0  0  0  0
    8.6580   -1.5318    0.0000 C   0  0  0  0  0  0  0  0  0  0  0  0
    4.3198   -3.0536    0.0000 C   0  0  0  0  0  0  0  0  0  0  0  0
    5.1689    2.5124    0.0000 C   0  0  0  0  0  0  0  0  0  0  0  0
    7.8105    3.0536    0.0000 C   0  0  0  0  0  0  0  0  0  0  0  0
    4.2971    3.0024    0.0000 C   0  0  0  0  0  0  0  0  0  0  0  0
    6.8011    0.4117    0.0000 H   0  0  0  0  0  0  0  0  0  0  0  0
    8.5900    0.3959    0.0000 H   0  0  0  0  0  0  0  0  0  0  0  0
    5.2088   -2.3690    0.0000 H   0  0  0  0  0  0  0  0  0  0  0  0
    6.9337   -2.3690    0.0000 H   0  0  0  0  0  0  0  0  0  0  0  0
    5.5195    0.7053    0.0000 H   0  0  0  0  0  0  0  0  0  0  0  0
    5.6697   -2.4939    0.0000 H   0  0  0  0  0  0  0  0  0  0  0  0
    6.4668   -2.4939    0.0000 H   0  0  0  0  0  0  0  0  0  0  0  0
    8.3874    0.7164    0.0000 H   0  0  0  0  0  0  0  0  0  0  0  0
    6.4115    1.8572    0.0000 H   0  0  0  0  0  0  0  0  0  0  0  0
    3.7744   -2.3688    0.0000 H   0  0  0  0  0  0  0  0  0  0  0  0
    7.5543    0.4810    0.0000 H   0  0  0  0  0  0  0  0  0  0  0  0
    6.9343    1.1010    0.0000 H   0  0  0  0  0  0  0  0  0  0  0  0
    6.3143    0.4810    0.0000 H   0  0  0  0  0  0  0  0  0  0  0  0
    9.2907   -0.6663    0.0000 H   0  0  0  0  0  0  0  0  0  0  0  0
    8.9154    0.0347    0.0000 H   0  0  0  0  0  0  0  0  0  0  0  0
    5.8222    0.4810    0.0000 H   0  0  0  0  0  0  0  0  0  0  0  0
    5.2022    1.1010    0.0000 H   0  0  0  0  0  0  0  0  0  0  0  0
    4.5822    0.4810    0.0000 H   0  0  0  0  0  0  0  0  0  0  0  0
    2.7914   -1.4337    0.0000 H   0  0  0  0  0  0  0  0  0  0  0  0
    3.1932   -2.1235    0.0000 H   0  0  0  0  0  0  0  0  0  0  0  0
    2.8647   -0.8071    0.0000 H   0  0  0  0  0  0  0  0  0  0  0  0
    9.0282    0.9880    0.0000 H   0  0  0  0  0  0  0  0  0  0  0  0
    9.2584    1.8340    0.0000 H   0  0  0  0  0  0  0  0  0  0  0  0
    8.4123    2.0642    0.0000 H   0  0  0  0  0  0  0  0  0  0  0  0
    3.6999   -3.0608    0.0000 H   0  0  0  0  0  0  0  0  0  0  0  0
    4.3270   -3.6736    0.0000 H   0  0  0  0  0  0  0  0  0  0  0  0
    4.9398   -3.0464    0.0000 H   0  0  0  0  0  0  0  0  0  0  0  0
    2.0000   -0.3028    0.0000 H   0  0  0  0  0  0  0  0  0  0  0  0
    8.1225    2.5178    0.0000 H   0  0  0  0  0  0  0  0  0  0  0  0
    8.3462    3.3657    0.0000 H   0  0  0  0  0  0  0  0  0  0  0  0
    7.4984    3.5893    0.0000 H   0  0  0  0  0  0  0  0  0  0  0  0
    4.6009    3.5428    0.0000 H   0  0  0  0  0  0  0  0  0  0  0  0
    3.7566    3.3061    0.0000 H   0  0  0  0  0  0  0  0  0  0  0  0
    3.9934    2.4619    0.0000 H   0  0  0  0  0  0  0  0  0  0  0  0
  1 13  1  0  0  0  0
  1 26  1  0  0  0  0
 14  2  1  6  0  0  0
  2 28  1  0  0  0  0
 17  3  1  1  0  0  0
  3 29  1  0  0  0  0
  4 20  2  0  0  0  0
 24  5  1  6  0  0  0
  5 58  1  0  0  0  0
  6 26  2  0  0  0  0
  7 28  2  0  0  0  0
  8  9  1  0  0  0  0
  8 11  1  0  0  0  0
  8 13  1  0  0  0  0
  8 19  1  1  0  0  0
  9 10  1  0  0  0  0
  9 14  1  0  0  0  0
  9 31  1  6  0  0  0
 10 12  1  0  0  0  0
 10 20  1  0  0  0  0
 10 22  1  1  0  0  0
 11 16  1  0  0  0  0
 11 21  1  0  0  0  0
 11 32  1  1  0  0  0
 12 15  1  0  0  0  0
 12 18  1  0  0  0  0
 12 33  1  6  0  0  0
 13 15  1  0  0  0  0
 13 34  1  1  0  0  0
 14 17  1  0  0  0  0
 14 35  1  0  0  0  0
 15 36  1  0  0  0  0
 15 37  1  0  0  0  0
 16 17  1  0  0  0  0
 16 25  1  6  0  0  0
 16 38  1  0  0  0  0
 17 39  1  0  0  0  0
 18 23  1  0  0  0  0
 18 27  1  6  0  0  0
 18 40  1  0  0  0  0
 19 41  1  0  0  0  0
 19 42  1  0  0  0  0
 19 43  1  0  0  0  0
 20 24  1  0  0  0  0
 21 26  1  0  0  0  0
 21 44  1  0  0  0  0
 21 45  1  0  0  0  0
 22 46  1  0  0  0  0
 22 47  1  0  0  0  0
 22 48  1  0  0  0  0
 23 24  1  0  0  0  0
 23 49  1  0  0  0  0
 23 50  1  0  0  0  0
 24 51  1  0  0  0  0
 25 52  1  0  0  0  0
 25 53  1  0  0  0  0
 25 54  1  0  0  0  0
 27 55  1  0  0  0  0
 27 56  1  0  0  0  0
 27 57  1  0  0  0  0
 28 30  1  0  0  0  0
 29 59  1  0  0  0  0
 29 60  1  0  0  0  0
 29 61  1  0  0  0  0
 30 62  1  0  0  0  0
 30 63  1  0  0  0  0
 30 64  1  0  0  0  0
M  END
> <PUBCHEM_COMPOUND_CID>
182145

> <PUBCHEM_COMPOUND_CANONICALIZED>
1

> <PUBCHEM_CACTVS_COMPLEXITY>
765

> <PUBCHEM_CACTVS_HBOND_ACCEPTOR>
7

> <PUBCHEM_CACTVS_HBOND_DONOR>
1

> <PUBCHEM_CACTVS_ROTATABLE_BOND>
3

> <PUBCHEM_CACTVS_SUBSKEYS>
AAADcfB4OAAAAAAAAAAAAAAAAAAAAAAAAAA0YMEAAAAAAADQAAAAGgAACAAADxSggAICCAAABgAIAICQCAIAAAAAAAAAAAFAAAABEBIAAAACQAAEAAACAAHK7PzPgAAAAAAAAADAAAYAADCAAAAAAAAAAA==

> <PUBCHEM_IUPAC_INCHI>
InChI=1S/C23H34O7/c1-10-7-15(25)21(27)23(5)13(10)8-16-22(4)14(9-17(26)30-16)11(2)18(28-6)19(20(22)23)29-12(3)24/h10-11,13-16,18-20,25H,7-9H2,1-6H3/t10-,11-,13+,14+,15+,16-,18+,19-,20+,22-,23+/m1/s1

> <PUBCHEM_IUPAC_INCHIKEY>
XTAVFXFXCFHNNF-SEMNJSAISA-N

> <PUBCHEM_XLOGP3_AA>
2.3

> <PUBCHEM_EXACT_MASS>
422.230453

> <PUBCHEM_MOLECULAR_FORMULA>
C23H34O7

> <PUBCHEM_MOLECULAR_WEIGHT>
422.51186

> <PUBCHEM_OPENEYE_CAN_SMILES>
CC1CC(C(=O)C2(C1CC3C4(C2C(C(C(C4CC(=O)O3)C)OC)OC(=O)C)C)C)O

> <PUBCHEM_OPENEYE_ISO_SMILES>
C[C@@H]1C[C@@H](C(=O)[C@]2([C@H]1C[C@@H]3[C@@]4([C@@H]2[C@@H]([C@H]([C@@H]([C@@H]4CC(=O)O3)C)OC)OC(=O)C)C)C)O

> <PUBCHEM_CACTVS_TPSA>
99.1

> <PUBCHEM_MONOISOTOPIC_WEIGHT>
422.230453

> <PUBCHEM_TOTAL_CHARGE>
0

> <PUBCHEM_HEAVY_ATOM_COUNT>
30

> <PUBCHEM_ATOM_DEF_STEREO_COUNT>
11

> <PUBCHEM_ATOM_UDEF_STEREO_COUNT>
0

> <PUBCHEM_BOND_DEF_STEREO_COUNT>
0

> <PUBCHEM_BOND_UDEF_STEREO_COUNT>
0

> <PUBCHEM_ISOTOPIC_ATOM_COUNT>
0

> <PUBCHEM_COMPONENT_COUNT>
1

> <PUBCHEM_CACTVS_TAUTO_COUNT>
8

> <PUBCHEM_COORDINATE_TYPE>
1
5
255

> <PUBCHEM_BONDANNOTATIONS>
10  22  5
11  32  5
12  33  6
13  34  5
16  25  6
18  27  6
14  2  6
17  3  5
24  5  6
8  19  5
9  31  6

$$$$

