100780
  -OEChem-07051212582D

 28 29  0     0  0  0  0  0  0999 V2000
    4.5981   -1.3419    0.0000 O   0  0  0  0  0  0  0  0  0  0  0  0
    6.3465   -1.3765    0.0000 O   0  0  0  0  0  0  0  0  0  0  0  0
    2.8660   -1.3419    0.0000 O   0  0  0  0  0  0  0  0  0  0  0  0
    5.4641    0.1581    0.0000 C   0  0  0  0  0  0  0  0  0  0  0  0
    5.4641    1.1581    0.0000 C   0  0  0  0  0  0  0  0  0  0  0  0
    3.7320    0.1581    0.0000 C   0  0  0  0  0  0  0  0  0  0  0  0
    3.7320    1.1581    0.0000 C   0  0  0  0  0  0  0  0  0  0  0  0
    4.5981   -0.3419    0.0000 C   0  0  0  0  0  0  0  0  0  0  0  0
    4.5981    1.6581    0.0000 C   0  0  0  0  0  0  0  0  0  0  0  0
    6.3580   -0.3766    0.0000 C   0  0  0  0  0  0  0  0  0  0  0  0
    6.3580    1.6927    0.0000 C   0  0  0  0  0  0  0  0  0  0  0  0
    2.8660    1.6581    0.0000 C   0  0  0  0  0  0  0  0  0  0  0  0
    2.8660   -0.3419    0.0000 C   0  0  0  0  0  0  0  0  0  0  0  0
    7.2641    0.1372    0.0000 C   0  0  0  0  0  0  0  0  0  0  0  0
    7.2641    1.1789    0.0000 C   0  0  0  0  0  0  0  0  0  0  0  0
    2.0000    0.1581    0.0000 C   0  0  0  0  0  0  0  0  0  0  0  0
    4.5981    2.2781    0.0000 H   0  0  0  0  0  0  0  0  0  0  0  0
    6.3509    2.3127    0.0000 H   0  0  0  0  0  0  0  0  0  0  0  0
    3.1760    2.1950    0.0000 H   0  0  0  0  0  0  0  0  0  0  0  0
    2.3291    1.9681    0.0000 H   0  0  0  0  0  0  0  0  0  0  0  0
    2.5560    1.1211    0.0000 H   0  0  0  0  0  0  0  0  0  0  0  0
    7.7998   -0.1748    0.0000 H   0  0  0  0  0  0  0  0  0  0  0  0
    7.7998    1.4909    0.0000 H   0  0  0  0  0  0  0  0  0  0  0  0
    2.3100    0.6950    0.0000 H   0  0  0  0  0  0  0  0  0  0  0  0
    1.4631    0.4681    0.0000 H   0  0  0  0  0  0  0  0  0  0  0  0
    1.6900   -0.3789    0.0000 H   0  0  0  0  0  0  0  0  0  0  0  0
    4.0611   -1.6519    0.0000 H   0  0  0  0  0  0  0  0  0  0  0  0
    6.8798   -1.6927    0.0000 H   0  0  0  0  0  0  0  0  0  0  0  0
  1  8  1  0  0  0  0
  1 27  1  0  0  0  0
  2 10  1  0  0  0  0
  2 28  1  0  0  0  0
  3 13  2  0  0  0  0
  4  5  2  0  0  0  0
  4  8  1  0  0  0  0
  4 10  1  0  0  0  0
  5  9  1  0  0  0  0
  5 11  1  0  0  0  0
  6  7  1  0  0  0  0
  6  8  2  0  0  0  0
  6 13  1  0  0  0  0
  7  9  2  0  0  0  0
  7 12  1  0  0  0  0
  9 17  1  0  0  0  0
 10 14  2  0  0  0  0
 11 15  2  0  0  0  0
 11 18  1  0  0  0  0
 12 19  1  0  0  0  0
 12 20  1  0  0  0  0
 12 21  1  0  0  0  0
 13 16  1  0  0  0  0
 14 15  1  0  0  0  0
 14 22  1  0  0  0  0
 15 23  1  0  0  0  0
 16 24  1  0  0  0  0
 16 25  1  0  0  0  0
 16 26  1  0  0  0  0
M  END
> <PUBCHEM_COMPOUND_CID>
100780

> <PUBCHEM_COMPOUND_CANONICALIZED>
1

> <PUBCHEM_CACTVS_COMPLEXITY>
276

> <PUBCHEM_CACTVS_HBOND_ACCEPTOR>
3

> <PUBCHEM_CACTVS_HBOND_DONOR>
2

> <PUBCHEM_CACTVS_ROTATABLE_BOND>
1

> <PUBCHEM_CACTVS_SUBSKEYS>
AAADccBwMAAAAAAAAAAAAAAAAAAAAAAAAAAwYAAAAAAAAADBUAAAGgAACAAADASAmAAyBsAAAgCIAqBSAAACAAAkIAAIiAEGCMgIJzaCFRKAcUAl4BUImQeIzPDOwAADAAAYAACAAAYAADAAAAAAAAAAAA==

> <PUBCHEM_IUPAC_OPENEYE_NAME>
1-(1,8-dihydroxy-3-methyl-2-naphthyl)ethanone

> <PUBCHEM_IUPAC_CAS_NAME>
1-(1,8-dihydroxy-3-methyl-2-naphthalenyl)ethanone

> <PUBCHEM_IUPAC_NAME>
1-(1,8-dihydroxy-3-methylnaphthalen-2-yl)ethanone

> <PUBCHEM_IUPAC_SYSTEMATIC_NAME>
1-[3-methyl-1,8-bis(oxidanyl)naphthalen-2-yl]ethanone

> <PUBCHEM_IUPAC_TRADITIONAL_NAME>
1-(1,8-dihydroxy-3-methyl-2-naphthyl)ethanone

> <PUBCHEM_IUPAC_INCHI>
InChI=1S/C13H12O3/c1-7-6-9-4-3-5-10(15)12(9)13(16)11(7)8(2)14/h3-6,15-16H,1-2H3

> <PUBCHEM_IUPAC_INCHIKEY>
DMLHPCALHMPJHS-UHFFFAOYSA-N

> <PUBCHEM_XLOGP3_AA>
3.1

> <PUBCHEM_EXACT_MASS>
216.078644

> <PUBCHEM_MOLECULAR_FORMULA>
C13H12O3

> <PUBCHEM_MOLECULAR_WEIGHT>
216.23258

> <PUBCHEM_OPENEYE_CAN_SMILES>
CC1=C(C(=C2C(=C1)C=CC=C2O)O)C(=O)C

> <PUBCHEM_OPENEYE_ISO_SMILES>
CC1=C(C(=C2C(=C1)C=CC=C2O)O)C(=O)C

> <PUBCHEM_CACTVS_TPSA>
57.5

> <PUBCHEM_MONOISOTOPIC_WEIGHT>
216.078644

> <PUBCHEM_TOTAL_CHARGE>
0

> <PUBCHEM_HEAVY_ATOM_COUNT>
16

> <PUBCHEM_ATOM_DEF_STEREO_COUNT>
0

> <PUBCHEM_ATOM_UDEF_STEREO_COUNT>
0

> <PUBCHEM_BOND_DEF_STEREO_COUNT>
0

> <PUBCHEM_BOND_UDEF_STEREO_COUNT>
0

> <PUBCHEM_ISOTOPIC_ATOM_COUNT>
0

> <PUBCHEM_COMPONENT_COUNT>
1

> <PUBCHEM_CACTVS_TAUTO_COUNT>
100

> <PUBCHEM_COORDINATE_TYPE>
1
5
255

> <PUBCHEM_BONDANNOTATIONS>
10  14  8
11  15  8
14  15  8
4  10  8
4  5  8
4  8  8
5  11  8
5  9  8
6  7  8
6  8  8
7  9  8

$$$$

