17396268
  -OEChem-06241222553D

 41 42  0     1  0  0  0  0  0999 V2000
    6.4269    2.4208    0.8899 F   0  0  0  0  0  0  0  0  0  0  0  0
    2.7609   -1.5421   -0.1668 O   0  0  0  0  0  0  0  0  0  0  0  0
   -4.8010    1.8523   -1.0237 O   0  0  0  0  0  0  0  0  0  0  0  0
   -5.7949    0.2627    1.0283 O   0  0  0  0  0  0  0  0  0  0  0  0
    0.2167   -2.1849    0.5843 O   0  0  0  0  0  0  0  0  0  0  0  0
   -0.5664   -0.4241   -0.7568 N   0  0  0  0  0  0  0  0  0  0  0  0
    1.6953   -1.2129   -1.0438 C   0  0  2  0  0  0  0  0  0  0  0  0
   -1.8963   -0.2477   -0.3057 C   0  0  0  0  0  0  0  0  0  0  0  0
    0.3712   -1.3423   -0.2950 C   0  0  0  0  0  0  0  0  0  0  0  0
    1.7448   -2.1270   -2.2590 C   0  0  0  0  0  0  0  0  0  0  0  0
   -2.7079    0.7246   -0.8904 C   0  0  0  0  0  0  0  0  0  0  0  0
   -2.3952   -1.0453    0.7241 C   0  0  0  0  0  0  0  0  0  0  0  0
   -4.0182    0.8992   -0.4454 C   0  0  0  0  0  0  0  0  0  0  0  0
   -4.5171    0.1016    0.5846 C   0  0  0  0  0  0  0  0  0  0  0  0
    3.6752   -0.5543    0.0971 C   0  0  0  0  0  0  0  0  0  0  0  0
   -3.7054   -0.8705    1.1694 C   0  0  0  0  0  0  0  0  0  0  0  0
    3.2609    0.6396    0.6875 C   0  0  0  0  0  0  0  0  0  0  0  0
    5.0192   -0.7432   -0.2251 C   0  0  0  0  0  0  0  0  0  0  0  0
    4.1905    1.6444    0.9558 C   0  0  0  0  0  0  0  0  0  0  0  0
    5.9488    0.2617    0.0428 C   0  0  0  0  0  0  0  0  0  0  0  0
    5.5344    1.4556    0.6332 C   0  0  0  0  0  0  0  0  0  0  0  0
   -4.2154    2.6248   -2.0699 C   0  0  0  0  0  0  0  0  0  0  0  0
   -6.2269   -0.5929    2.0845 C   0  0  0  0  0  0  0  0  0  0  0  0
    1.7979   -0.1822   -1.4107 H   0  0  0  0  0  0  0  0  0  0  0  0
   -0.2849    0.1983   -1.5109 H   0  0  0  0  0  0  0  0  0  0  0  0
    0.9328   -1.9058   -2.9586 H   0  0  0  0  0  0  0  0  0  0  0  0
    2.7013   -2.0227   -2.7819 H   0  0  0  0  0  0  0  0  0  0  0  0
    1.6580   -3.1773   -1.9586 H   0  0  0  0  0  0  0  0  0  0  0  0
   -2.2663    1.3151   -1.6865 H   0  0  0  0  0  0  0  0  0  0  0  0
   -1.8274   -1.8156    1.2266 H   0  0  0  0  0  0  0  0  0  0  0  0
   -4.0261   -1.5244    1.9733 H   0  0  0  0  0  0  0  0  0  0  0  0
    2.2191    0.7976    0.9528 H   0  0  0  0  0  0  0  0  0  0  0  0
    5.3473   -1.6709   -0.6859 H   0  0  0  0  0  0  0  0  0  0  0  0
    3.8686    2.5733    1.4173 H   0  0  0  0  0  0  0  0  0  0  0  0
    6.9950    0.1150   -0.2085 H   0  0  0  0  0  0  0  0  0  0  0  0
   -3.3709    3.2210   -1.7076 H   0  0  0  0  0  0  0  0  0  0  0  0
   -3.9492    2.0026   -2.9311 H   0  0  0  0  0  0  0  0  0  0  0  0
   -4.9780    3.3317   -2.4133 H   0  0  0  0  0  0  0  0  0  0  0  0
   -7.2650   -0.3272    2.3102 H   0  0  0  0  0  0  0  0  0  0  0  0
   -5.6501   -0.4262    3.0006 H   0  0  0  0  0  0  0  0  0  0  0  0
   -6.2278   -1.6444    1.7775 H   0  0  0  0  0  0  0  0  0  0  0  0
  1 21  1  0  0  0  0
  2  7  1  0  0  0  0
  2 15  1  0  0  0  0
  3 13  1  0  0  0  0
  3 22  1  0  0  0  0
  4 14  1  0  0  0  0
  4 23  1  0  0  0  0
  5  9  2  0  0  0  0
  6  8  1  0  0  0  0
  6  9  1  0  0  0  0
  6 25  1  0  0  0  0
  7  9  1  0  0  0  0
  7 10  1  0  0  0  0
  7 24  1  0  0  0  0
  8 11  2  0  0  0  0
  8 12  1  0  0  0  0
 10 26  1  0  0  0  0
 10 27  1  0  0  0  0
 10 28  1  0  0  0  0
 11 13  1  0  0  0  0
 11 29  1  0  0  0  0
 12 16  2  0  0  0  0
 12 30  1  0  0  0  0
 13 14  2  0  0  0  0
 14 16  1  0  0  0  0
 15 17  2  0  0  0  0
 15 18  1  0  0  0  0
 16 31  1  0  0  0  0
 17 19  1  0  0  0  0
 17 32  1  0  0  0  0
 18 20  2  0  0  0  0
 18 33  1  0  0  0  0
 19 21  2  0  0  0  0
 19 34  1  0  0  0  0
 20 21  1  0  0  0  0
 20 35  1  0  0  0  0
 22 36  1  0  0  0  0
 22 37  1  0  0  0  0
 22 38  1  0  0  0  0
 23 39  1  0  0  0  0
 23 40  1  0  0  0  0
 23 41  1  0  0  0  0
M  END
> <PUBCHEM_COMPOUND_CID>
17396268

> <PUBCHEM_CONFORMER_RMSD>
0.8

> <PUBCHEM_CONFORMER_DIVERSEORDER>
2
29
171
40
157
182
46
124
146
109
37
111
153
116
145
35
48
96
22
6
3
70
129
110
99
80
161
159
4
91
84
104
156
150
32
97
90
169
128
167
118
43
42
135
14
105
44
148
50
86
181
71
31
165
77
132
39
45
143
94
85
170
21
101
41
7
36
33
72
15
137
67
79
180
100
107
88
130
76
121
23
25
12
83
16
172
179
123
51
117
138
93
152
147
92
62
144
175
149
131
114
82
63
57
134
115
173
58
68
53
160
8
75
127
178
13
81
24
174
18
59
5
126
108
125
95
17
55
162
54
87
49
154
64
176
136
19
69
78
112
166
52
11
98
73
177
168
141
89
66
38
30
122
1
151
158
28
120
102
34
65
139
47
142
163
9
20
103
60
133
26
61
164
74
140
10
119
113
155
106
27
56

> <PUBCHEM_MMFF94_PARTIAL_CHARGES>
30
1 -0.19
11 -0.15
12 -0.15
13 0.08
14 0.08
15 0.08
16 -0.15
17 -0.15
18 -0.15
19 -0.15
2 -0.36
20 -0.15
21 0.19
22 0.28
23 0.28
25 0.37
29 0.15
3 -0.36
30 0.15
31 0.15
32 0.15
33 0.15
34 0.15
35 0.15
4 -0.36
5 -0.57
6 -0.55
7 0.34
8 0.12
9 0.57

> <PUBCHEM_EFFECTIVE_ROTOR_COUNT>
7

> <PUBCHEM_PHARMACOPHORE_FEATURES>
7
1 2 acceptor
1 3 acceptor
1 4 acceptor
1 5 acceptor
1 6 donor
6 15 17 18 19 20 21 rings
6 8 11 12 13 14 16 rings

> <PUBCHEM_HEAVY_ATOM_COUNT>
23

> <PUBCHEM_ATOM_DEF_STEREO_COUNT>
0

> <PUBCHEM_ATOM_UDEF_STEREO_COUNT>
1

> <PUBCHEM_BOND_DEF_STEREO_COUNT>
0

> <PUBCHEM_BOND_UDEF_STEREO_COUNT>
0

> <PUBCHEM_ISOTOPIC_ATOM_COUNT>
0

> <PUBCHEM_COMPONENT_COUNT>
1

> <PUBCHEM_CACTVS_TAUTO_COUNT>
2

> <PUBCHEM_CONFORMER_ID>
0109722C00000002

> <PUBCHEM_MMFF94_ENERGY>
88.5433

> <PUBCHEM_FEATURE_SELFOVERLAP>
35.53

> <PUBCHEM_SHAPE_FINGERPRINT>
10 15 18202002092961892304
10319926 262 17846505884650943746
10763959 59 18410576202204246676
12236239 1 16008745840158595223
12403259 118 17274818078074513181
12403259 415 18341047501377773078
12516196 113 13254800114330179822
12596602 18 16343984697921587180
12616971 3 16878225371806916695
12633257 1 14476953502071500730
12730499 353 18335693966778565534
12892183 10 17561092435746250538
13103583 49 14908177577233707892
13402501 40 18411705399897171796
13685833 64 10519983772883761633
14251764 75 17970065535658775176
14341114 176 18342735222041205866
14840074 17 17530682108791031089
15081414 286 18260545619917050320
15183329 4 6483365399652229702
15188451 53 16343703193006413995
17492 89 12174251811328662152
17857418 61 13686294664894393947
1813 80 13830131736880147054
193927 3 11095892617890003168
20028762 73 12966864424844425376
20645477 56 18409726283731406975
21033648 144 18114473262224796748
21033648 29 18341625814661437552
21792934 111 17775276159277827049
22393880 68 6266892450784929109
23557571 272 17988070192691293055
23559900 14 17773025586675172239
2838139 119 18334869307387702020
2916195 48 18341897397980032971
3004659 81 13840532026135959644
312425 54 16701750448661506016
351380 3 14046025195789969978
4325135 7 17894631414531639143
465052 167 13038901123306703922
474 4 17821725044286960974
497634 4 17386013841107790357
5104073 3 17916304016742987091
633830 44 17314216951347787831
9849439 229 17054448636546792653

> <PUBCHEM_SHAPE_MULTIPOLES>
437.6
16.36
2.28
1.66
3.4
0.75
-0.45
8.26
6.02
0.76
-0.81
-1.87
0.03
3.77

> <PUBCHEM_SHAPE_SELFOVERLAP>
924.049

> <PUBCHEM_SHAPE_VOLUME>
247.2

> <PUBCHEM_COORDINATE_TYPE>
2
5
10

$$$$

