3028956
  -OEChem-07051213093D

 30 31  0     0  0  0  0  0  0999 V2000
   -3.0892    2.5917    0.2282 Br  0  0  0  0  0  0  0  0  0  0  0  0
    3.1011   -2.8764    0.3096 Br  0  0  0  0  0  0  0  0  0  0  0  0
    4.7143    0.1090   -0.3200 Br  0  0  0  0  0  0  0  0  0  0  0  0
   -0.2165    2.1303   -0.0440 N   0  0  0  0  0  0  0  0  0  0  0  0
   -2.3123   -1.9322   -0.1679 N   0  0  0  0  0  0  0  0  0  0  0  0
   -1.3330    0.2560    0.3649 C   0  0  0  0  0  0  0  0  0  0  0  0
    0.0486   -0.0651    0.2502 C   0  0  0  0  0  0  0  0  0  0  0  0
    0.7269    1.1284   -0.0061 C   0  0  0  0  0  0  0  0  0  0  0  0
   -2.4214   -0.7084    0.6367 C   0  0  0  0  0  0  0  0  0  0  0  0
   -1.4643    1.6129    0.1789 C   0  0  0  0  0  0  0  0  0  0  0  0
    0.7894   -1.2603    0.3404 C   0  0  0  0  0  0  0  0  0  0  0  0
    2.1146    1.1866   -0.1774 C   0  0  0  0  0  0  0  0  0  0  0  0
    0.0757    3.5297   -0.2772 C   0  0  0  0  0  0  0  0  0  0  0  0
    2.1781   -1.2172    0.1713 C   0  0  0  0  0  0  0  0  0  0  0  0
    2.8285   -0.0115   -0.0837 C   0  0  0  0  0  0  0  0  0  0  0  0
   -2.3635   -1.6071   -1.5907 C   0  0  0  0  0  0  0  0  0  0  0  0
   -3.3771   -2.8664    0.1868 C   0  0  0  0  0  0  0  0  0  0  0  0
   -2.3632   -0.9740    1.7010 H   0  0  0  0  0  0  0  0  0  0  0  0
   -3.4087   -0.2565    0.4866 H   0  0  0  0  0  0  0  0  0  0  0  0
    0.2895   -2.2013    0.5513 H   0  0  0  0  0  0  0  0  0  0  0  0
    2.6171    2.1266   -0.3808 H   0  0  0  0  0  0  0  0  0  0  0  0
   -0.1331    3.7485   -1.3273 H   0  0  0  0  0  0  0  0  0  0  0  0
   -0.5488    4.1432    0.3765 H   0  0  0  0  0  0  0  0  0  0  0  0
    1.1206    3.7442   -0.0461 H   0  0  0  0  0  0  0  0  0  0  0  0
   -2.3335   -2.5263   -2.1881 H   0  0  0  0  0  0  0  0  0  0  0  0
   -1.5037   -1.0178   -1.9240 H   0  0  0  0  0  0  0  0  0  0  0  0
   -3.2789   -1.0664   -1.8595 H   0  0  0  0  0  0  0  0  0  0  0  0
   -3.2726   -3.8004   -0.3765 H   0  0  0  0  0  0  0  0  0  0  0  0
   -4.3743   -2.4562   -0.0103 H   0  0  0  0  0  0  0  0  0  0  0  0
   -3.3180   -3.1346    1.2477 H   0  0  0  0  0  0  0  0  0  0  0  0
  1 10  1  0  0  0  0
  2 14  1  0  0  0  0
  3 15  1  0  0  0  0
  4  8  1  0  0  0  0
  4 10  1  0  0  0  0
  4 13  1  0  0  0  0
  5  9  1  0  0  0  0
  5 16  1  0  0  0  0
  5 17  1  0  0  0  0
  6  7  1  0  0  0  0
  6  9  1  0  0  0  0
  6 10  2  0  0  0  0
  7  8  1  0  0  0  0
  7 11  2  0  0  0  0
  8 12  2  0  0  0  0
  9 18  1  0  0  0  0
  9 19  1  0  0  0  0
 11 14  1  0  0  0  0
 11 20  1  0  0  0  0
 12 15  1  0  0  0  0
 12 21  1  0  0  0  0
 13 22  1  0  0  0  0
 13 23  1  0  0  0  0
 13 24  1  0  0  0  0
 14 15  2  0  0  0  0
 16 25  1  0  0  0  0
 16 26  1  0  0  0  0
 16 27  1  0  0  0  0
 17 28  1  0  0  0  0
 17 29  1  0  0  0  0
 17 30  1  0  0  0  0
M  END
> <PUBCHEM_COMPOUND_CID>
3028956

> <PUBCHEM_CONFORMER_RMSD>
0.6

> <PUBCHEM_CONFORMER_DIVERSEORDER>
2
3
4
1

> <PUBCHEM_MMFF94_PARTIAL_CHARGES>
18
1 -0.06
10 -0.09
11 -0.15
12 -0.15
13 0.26
14 0.11
15 0.11
16 0.27
17 0.27
2 -0.11
20 0.15
21 0.15
3 -0.11
4 0.05
5 -0.81
6 -0.18
8 -0.15
9 0.45

> <PUBCHEM_EFFECTIVE_ROTOR_COUNT>
2

> <PUBCHEM_PHARMACOPHORE_FEATURES>
7
1 1 hydrophobe
1 2 hydrophobe
1 3 hydrophobe
1 4 cation
1 5 cation
5 4 6 7 8 10 rings
6 7 8 11 12 14 15 rings

> <PUBCHEM_HEAVY_ATOM_COUNT>
17

> <PUBCHEM_ATOM_DEF_STEREO_COUNT>
0

> <PUBCHEM_ATOM_UDEF_STEREO_COUNT>
0

> <PUBCHEM_BOND_DEF_STEREO_COUNT>
0

> <PUBCHEM_BOND_UDEF_STEREO_COUNT>
0

> <PUBCHEM_ISOTOPIC_ATOM_COUNT>
0

> <PUBCHEM_COMPONENT_COUNT>
1

> <PUBCHEM_CACTVS_TAUTO_COUNT>
1

> <PUBCHEM_CONFORMER_ID>
002E37DC00000002

> <PUBCHEM_MMFF94_ENERGY>
38.5879

> <PUBCHEM_FEATURE_SELFOVERLAP>
35.612

> <PUBCHEM_SHAPE_FINGERPRINT>
10062212 137 18272091625747565722
10616163 171 18409163346509906686
10967382 1 18195806495047003800
11578080 2 17459204979915162529
12403259 327 14346617325064542207
12553582 1 18338239249791112443
12715332 25 17974858568382912129
13140716 1 18339083816707996346
14178342 30 18338811069173390032
15042514 8 18195806490936724491
15309172 13 17904475564982891169
16945 1 18196088841748886888
19591789 44 17762615496529551313
20510252 161 17757839205340001272
20645477 70 17764883394403557399
20871998 184 18261668280964221549
21041028 32 18193831549246977963
21501502 16 18340207504938757306
21524375 3 17551225607092300144
21634736 98 17685495347441816582
221490 88 17621314637261980643
2255824 54 17978789004408483447
2334 1 18411699876573873850
23388829 49 18337672992844313172
23402539 116 18412263918118862414
23419403 2 16393893746608498545
23557571 272 18259977202285073372
23559900 14 18263364858277765930
23728640 28 17835530688067954075
238 59 16824788793465285919
2748010 2 18409453565792001592
34934 24 18341049717575648976
352729 6 18049159170383722883
54173680 148 18339079409876235083
6338986 31 18263945283561986943
69090 78 18122629623830981929
7364860 26 17903916647660680809
7832392 63 18410571824899225240
81228 2 18265636397186241361
9709674 26 18191586569704592150

> <PUBCHEM_SHAPE_MULTIPOLES>
357.72
6.56
3.92
0.85
4.63
0.11
0.21
1.69
0.17
-2.7
0.2
-0.31
0.3
-0.71

> <PUBCHEM_SHAPE_SELFOVERLAP>
716.074

> <PUBCHEM_SHAPE_VOLUME>
221.5

> <PUBCHEM_COORDINATE_TYPE>
2
5
10

$$$$

