230019
  -OEChem-07051213062D

 41 42  0     1  0  0  0  0  0999 V2000
    3.7320   -3.5950    0.0000 O   0  0  0  0  0  0  0  0  0  0  0  0
    3.7320    0.4050    0.0000 C   0  0  3  0  0  0  0  0  0  0  0  0
    4.5981    0.9050    0.0000 C   0  0  3  0  0  0  0  0  0  0  0  0
    2.8660    0.9050    0.0000 C   0  0  0  0  0  0  0  0  0  0  0  0
    5.4641    0.4050    0.0000 C   0  0  0  0  0  0  0  0  0  0  0  0
    3.7320   -0.5950    0.0000 C   0  0  0  0  0  0  0  0  0  0  0  0
    4.5981    1.9050    0.0000 C   0  0  0  0  0  0  0  0  0  0  0  0
    2.0000    0.4050    0.0000 C   0  0  0  0  0  0  0  0  0  0  0  0
    6.3301    0.9050    0.0000 C   0  0  0  0  0  0  0  0  0  0  0  0
    2.8660   -1.0950    0.0000 C   0  0  0  0  0  0  0  0  0  0  0  0
    4.5981   -1.0950    0.0000 C   0  0  0  0  0  0  0  0  0  0  0  0
    5.4641    2.4050    0.0000 C   0  0  0  0  0  0  0  0  0  0  0  0
    3.7320    2.4050    0.0000 C   0  0  0  0  0  0  0  0  0  0  0  0
    2.8660   -2.0950    0.0000 C   0  0  0  0  0  0  0  0  0  0  0  0
    4.5981   -2.0950    0.0000 C   0  0  0  0  0  0  0  0  0  0  0  0
    5.4641    3.4050    0.0000 C   0  0  0  0  0  0  0  0  0  0  0  0
    3.7320    3.4050    0.0000 C   0  0  0  0  0  0  0  0  0  0  0  0
    3.7320   -2.5950    0.0000 C   0  0  0  0  0  0  0  0  0  0  0  0
    4.5981    3.9050    0.0000 C   0  0  0  0  0  0  0  0  0  0  0  0
    3.7320    1.2550    0.0000 H   0  0  0  0  0  0  0  0  0  0  0  0
    4.5981    0.0550    0.0000 H   0  0  0  0  0  0  0  0  0  0  0  0
    3.2646    1.3800    0.0000 H   0  0  0  0  0  0  0  0  0  0  0  0
    2.4675    1.3800    0.0000 H   0  0  0  0  0  0  0  0  0  0  0  0
    5.0656   -0.0699    0.0000 H   0  0  0  0  0  0  0  0  0  0  0  0
    5.8626   -0.0699    0.0000 H   0  0  0  0  0  0  0  0  0  0  0  0
    1.6900    0.9419    0.0000 H   0  0  0  0  0  0  0  0  0  0  0  0
    1.4631    0.0950    0.0000 H   0  0  0  0  0  0  0  0  0  0  0  0
    2.3100   -0.1319    0.0000 H   0  0  0  0  0  0  0  0  0  0  0  0
    6.6401    0.3681    0.0000 H   0  0  0  0  0  0  0  0  0  0  0  0
    6.8671    1.2150    0.0000 H   0  0  0  0  0  0  0  0  0  0  0  0
    6.0201    1.4419    0.0000 H   0  0  0  0  0  0  0  0  0  0  0  0
    2.3291   -0.7850    0.0000 H   0  0  0  0  0  0  0  0  0  0  0  0
    5.1350   -0.7850    0.0000 H   0  0  0  0  0  0  0  0  0  0  0  0
    6.0010    2.0950    0.0000 H   0  0  0  0  0  0  0  0  0  0  0  0
    3.1951    2.0950    0.0000 H   0  0  0  0  0  0  0  0  0  0  0  0
    2.3291   -2.4050    0.0000 H   0  0  0  0  0  0  0  0  0  0  0  0
    5.1350   -2.4050    0.0000 H   0  0  0  0  0  0  0  0  0  0  0  0
    6.0010    3.7150    0.0000 H   0  0  0  0  0  0  0  0  0  0  0  0
    3.1951    3.7150    0.0000 H   0  0  0  0  0  0  0  0  0  0  0  0
    4.5981    4.5250    0.0000 H   0  0  0  0  0  0  0  0  0  0  0  0
    3.1951   -3.9050    0.0000 H   0  0  0  0  0  0  0  0  0  0  0  0
  1 18  1  0  0  0  0
  1 41  1  0  0  0  0
  2  3  1  0  0  0  0
  2  4  1  0  0  0  0
  2  6  1  0  0  0  0
  2 20  1  0  0  0  0
  3  5  1  0  0  0  0
  3  7  1  0  0  0  0
  3 21  1  0  0  0  0
  4  8  1  0  0  0  0
  4 22  1  0  0  0  0
  4 23  1  0  0  0  0
  5  9  1  0  0  0  0
  5 24  1  0  0  0  0
  5 25  1  0  0  0  0
  6 10  2  0  0  0  0
  6 11  1  0  0  0  0
  7 12  2  0  0  0  0
  7 13  1  0  0  0  0
  8 26  1  0  0  0  0
  8 27  1  0  0  0  0
  8 28  1  0  0  0  0
  9 29  1  0  0  0  0
  9 30  1  0  0  0  0
  9 31  1  0  0  0  0
 10 14  1  0  0  0  0
 10 32  1  0  0  0  0
 11 15  2  0  0  0  0
 11 33  1  0  0  0  0
 12 16  1  0  0  0  0
 12 34  1  0  0  0  0
 13 17  2  0  0  0  0
 13 35  1  0  0  0  0
 14 18  2  0  0  0  0
 14 36  1  0  0  0  0
 15 18  1  0  0  0  0
 15 37  1  0  0  0  0
 16 19  2  0  0  0  0
 16 38  1  0  0  0  0
 17 19  1  0  0  0  0
 17 39  1  0  0  0  0
 19 40  1  0  0  0  0
M  END
> <PUBCHEM_COMPOUND_CID>
230019

> <PUBCHEM_COMPOUND_CANONICALIZED>
1

> <PUBCHEM_CACTVS_COMPLEXITY>
236

> <PUBCHEM_CACTVS_HBOND_ACCEPTOR>
1

> <PUBCHEM_CACTVS_HBOND_DONOR>
1

> <PUBCHEM_CACTVS_ROTATABLE_BOND>
5

> <PUBCHEM_CACTVS_SUBSKEYS>
AAADceB4IAAAAAAAAAAAAAAAAAAAAAAAAAAwYAAAAAAAAAABQAAAGgAACAAADQSAmAAyBoAAAgCAAiBCAAACAAAgIAAIiAAGCIgIJiKCERKAcAAkwBEImAeAwPAOoAAAAAAAAABAAAAAAAAAAAAAAAAAAA==

> <PUBCHEM_IUPAC_OPENEYE_NAME>
4-(1-ethyl-2-phenyl-butyl)phenol

> <PUBCHEM_IUPAC_CAS_NAME>
4-(4-phenylhexan-3-yl)phenol

> <PUBCHEM_IUPAC_NAME>
4-(4-phenylhexan-3-yl)phenol

> <PUBCHEM_IUPAC_SYSTEMATIC_NAME>
4-(4-phenylhexan-3-yl)phenol

> <PUBCHEM_IUPAC_TRADITIONAL_NAME>
4-(1-ethyl-2-phenyl-butyl)phenol

> <PUBCHEM_IUPAC_INCHI>
InChI=1S/C18H22O/c1-3-17(14-8-6-5-7-9-14)18(4-2)15-10-12-16(19)13-11-15/h5-13,17-19H,3-4H2,1-2H3

> <PUBCHEM_IUPAC_INCHIKEY>
DCPFFPJQACSWPX-UHFFFAOYSA-N

> <PUBCHEM_XLOGP3_AA>
5.5

> <PUBCHEM_EXACT_MASS>
254.167065

> <PUBCHEM_MOLECULAR_FORMULA>
C18H22O

> <PUBCHEM_MOLECULAR_WEIGHT>
254.36668

> <PUBCHEM_OPENEYE_CAN_SMILES>
CCC(C1=CC=CC=C1)C(CC)C2=CC=C(C=C2)O

> <PUBCHEM_OPENEYE_ISO_SMILES>
CCC(C1=CC=CC=C1)C(CC)C2=CC=C(C=C2)O

> <PUBCHEM_CACTVS_TPSA>
20.2

> <PUBCHEM_MONOISOTOPIC_WEIGHT>
254.167065

> <PUBCHEM_TOTAL_CHARGE>
0

> <PUBCHEM_HEAVY_ATOM_COUNT>
19

> <PUBCHEM_ATOM_DEF_STEREO_COUNT>
0

> <PUBCHEM_ATOM_UDEF_STEREO_COUNT>
2

> <PUBCHEM_BOND_DEF_STEREO_COUNT>
0

> <PUBCHEM_BOND_UDEF_STEREO_COUNT>
0

> <PUBCHEM_ISOTOPIC_ATOM_COUNT>
0

> <PUBCHEM_COMPONENT_COUNT>
1

> <PUBCHEM_CACTVS_TAUTO_COUNT>
2

> <PUBCHEM_COORDINATE_TYPE>
1
5
255

> <PUBCHEM_BONDANNOTATIONS>
10  14  8
11  15  8
12  16  8
13  17  8
14  18  8
15  18  8
16  19  8
17  19  8
2  20  3
3  21  3
6  10  8
6  11  8
7  12  8
7  13  8

$$$$

