5281382
  -OEChem-07051212563D

 86 93  0     1  0  0  0  0  0999 V2000
    1.8711    2.2893   -1.8503 O   0  0  0  0  0  0  0  0  0  0  0  0
    3.0407    0.4688    0.5022 O   0  0  0  0  0  0  0  0  0  0  0  0
    3.3028   -0.6411   -1.5780 O   0  0  0  0  0  0  0  0  0  0  0  0
    3.3898   -1.8717    0.3228 O   0  0  0  0  0  0  0  0  0  0  0  0
   -0.2088   -2.4055    0.1678 O   0  0  0  0  0  0  0  0  0  0  0  0
   -1.2002    1.2135    0.4105 O   0  0  0  0  0  0  0  0  0  0  0  0
   -1.6021    3.3756   -1.2551 O   0  0  0  0  0  0  0  0  0  0  0  0
   -0.7013    2.2099   -4.0962 O   0  0  0  0  0  0  0  0  0  0  0  0
   -1.7660    3.7705    1.6798 O   0  0  0  0  0  0  0  0  0  0  0  0
   -1.2520   -2.6506    2.2147 O   0  0  0  0  0  0  0  0  0  0  0  0
    1.1163    0.0467   -0.9860 C   0  0  1  0  0  0  0  0  0  0  0  0
    1.5822    0.4197    0.4671 C   0  0  2  0  0  0  0  0  0  0  0  0
    1.1370    1.0917   -2.0757 C   0  0  1  0  0  0  0  0  0  0  0  0
    0.4440    2.4400   -2.0255 C   0  0  1  0  0  0  0  0  0  0  0  0
    1.9734   -1.1610   -1.4337 C   0  0  2  0  0  0  0  0  0  0  0  0
    1.1427    1.8594    0.8835 C   0  0  1  0  0  0  0  0  0  0  0  0
    1.0595   -0.7330    1.4443 C   0  0  1  0  0  0  0  0  0  0  0  0
    2.1509   -2.2225   -0.3270 C   0  0  2  0  0  0  0  0  0  0  0  0
   -0.2741    2.2880    0.4489 C   0  0  1  0  0  0  0  0  0  0  0  0
   -0.2577    3.0798   -0.8610 C   0  0  2  0  0  0  0  0  0  0  0  0
    1.0676   -2.1411    0.7533 C   0  0  2  0  0  0  0  0  0  0  0  0
    3.7164   -0.5870   -0.2095 C   0  0  2  0  0  0  0  0  0  0  0  0
    0.1426    3.0717   -3.3518 C   0  0  0  0  0  0  0  0  0  0  0  0
    1.2047    2.2469    2.3353 C   0  0  0  0  0  0  0  0  0  0  0  0
    1.8188   -0.8457    2.7804 C   0  0  0  0  0  0  0  0  0  0  0  0
   -0.7407    3.1054    1.6376 C   0  0  0  0  0  0  0  0  0  0  0  0
    2.3058   -3.6032   -0.8842 C   0  0  0  0  0  0  0  0  0  0  0  0
    0.1714    2.9625    2.7847 C   0  0  0  0  0  0  0  0  0  0  0  0
    5.2010   -0.3140   -0.1180 C   0  0  0  0  0  0  0  0  0  0  0  0
    3.5847   -4.3119   -0.5497 C   0  0  0  0  0  0  0  0  0  0  0  0
    1.3552   -4.1740   -1.6389 C   0  0  0  0  0  0  0  0  0  0  0  0
   -0.0624    3.5670    4.1127 C   0  0  0  0  0  0  0  0  0  0  0  0
    5.9434   -0.8081    0.9593 C   0  0  0  0  0  0  0  0  0  0  0  0
    5.8421    0.4353   -1.1097 C   0  0  0  0  0  0  0  0  0  0  0  0
   -1.2652   -2.3739    1.0258 C   0  0  0  0  0  0  0  0  0  0  0  0
    7.3127   -0.5559    1.0437 C   0  0  0  0  0  0  0  0  0  0  0  0
    7.2113    0.6874   -1.0253 C   0  0  0  0  0  0  0  0  0  0  0  0
   -2.4542   -1.9406    0.2591 C   0  0  0  0  0  0  0  0  0  0  0  0
    7.9466    0.1919    0.0513 C   0  0  0  0  0  0  0  0  0  0  0  0
   -3.6384   -1.8260    0.8753 C   0  0  0  0  0  0  0  0  0  0  0  0
   -4.8412   -1.4077    0.1866 C   0  0  0  0  0  0  0  0  0  0  0  0
   -6.0286   -1.2923    0.8025 C   0  0  0  0  0  0  0  0  0  0  0  0
   -7.2829   -0.8793    0.1493 C   0  0  0  0  0  0  0  0  0  0  0  0
   -7.2276   -0.1904   -1.0517 C   0  0  0  0  0  0  0  0  0  0  0  0
   -8.4937   -1.1875    0.7483 C   0  0  0  0  0  0  0  0  0  0  0  0
   -8.4150    0.2010   -1.6701 C   0  0  0  0  0  0  0  0  0  0  0  0
   -9.6811   -0.7962    0.1297 C   0  0  0  0  0  0  0  0  0  0  0  0
   -9.6416   -0.1019   -1.0795 C   0  0  0  0  0  0  0  0  0  0  0  0
    0.0733   -0.2824   -0.9586 H   0  0  0  0  0  0  0  0  0  0  0  0
    1.2091    0.6353   -3.0585 H   0  0  0  0  0  0  0  0  0  0  0  0
    1.6317   -1.5497   -2.3984 H   0  0  0  0  0  0  0  0  0  0  0  0
    1.8757    2.5583    0.4540 H   0  0  0  0  0  0  0  0  0  0  0  0
    0.0335   -0.4693    1.7134 H   0  0  0  0  0  0  0  0  0  0  0  0
    0.2293    4.0466   -0.6702 H   0  0  0  0  0  0  0  0  0  0  0  0
    1.2535   -2.9255    1.5003 H   0  0  0  0  0  0  0  0  0  0  0  0
   -0.3288    4.0556   -3.2698 H   0  0  0  0  0  0  0  0  0  0  0  0
    1.0610    3.2141   -3.9342 H   0  0  0  0  0  0  0  0  0  0  0  0
    2.0799    2.0513    2.9417 H   0  0  0  0  0  0  0  0  0  0  0  0
    2.9012   -0.9164    2.6496 H   0  0  0  0  0  0  0  0  0  0  0  0
    1.4956   -1.7354    3.3335 H   0  0  0  0  0  0  0  0  0  0  0  0
    1.6117   -0.0071    3.4446 H   0  0  0  0  0  0  0  0  0  0  0  0
   -2.0465    1.5572    0.0766 H   0  0  0  0  0  0  0  0  0  0  0  0
   -1.6236    4.2915   -1.5805 H   0  0  0  0  0  0  0  0  0  0  0  0
    4.4481   -3.7814   -0.9648 H   0  0  0  0  0  0  0  0  0  0  0  0
    3.7067   -4.4080    0.5344 H   0  0  0  0  0  0  0  0  0  0  0  0
    3.6037   -5.3262   -0.9642 H   0  0  0  0  0  0  0  0  0  0  0  0
   -0.8612    2.6363   -4.9554 H   0  0  0  0  0  0  0  0  0  0  0  0
    0.4354   -3.6651   -1.9027 H   0  0  0  0  0  0  0  0  0  0  0  0
    1.4840   -5.1769   -2.0333 H   0  0  0  0  0  0  0  0  0  0  0  0
    0.7674    3.3623    4.7969 H   0  0  0  0  0  0  0  0  0  0  0  0
   -0.9758    3.1638    4.5609 H   0  0  0  0  0  0  0  0  0  0  0  0
   -0.1691    4.6528    4.0278 H   0  0  0  0  0  0  0  0  0  0  0  0
    5.4681   -1.3857    1.7477 H   0  0  0  0  0  0  0  0  0  0  0  0
    5.2894    0.8424   -1.9522 H   0  0  0  0  0  0  0  0  0  0  0  0
    7.8851   -0.9398    1.8830 H   0  0  0  0  0  0  0  0  0  0  0  0
    7.7047    1.2721   -1.7963 H   0  0  0  0  0  0  0  0  0  0  0  0
   -2.3337   -1.7228   -0.7974 H   0  0  0  0  0  0  0  0  0  0  0  0
    9.0125    0.3893    0.1177 H   0  0  0  0  0  0  0  0  0  0  0  0
   -3.7316   -2.0479    1.9355 H   0  0  0  0  0  0  0  0  0  0  0  0
   -4.7288   -1.2112   -0.8754 H   0  0  0  0  0  0  0  0  0  0  0  0
   -6.1075   -1.5238    1.8632 H   0  0  0  0  0  0  0  0  0  0  0  0
   -6.2968    0.0869   -1.5362 H   0  0  0  0  0  0  0  0  0  0  0  0
   -8.5409   -1.7288    1.6894 H   0  0  0  0  0  0  0  0  0  0  0  0
   -8.3850    0.7463   -2.6090 H   0  0  0  0  0  0  0  0  0  0  0  0
  -10.6364   -1.0319    0.5894 H   0  0  0  0  0  0  0  0  0  0  0  0
  -10.5661    0.2040   -1.5605 H   0  0  0  0  0  0  0  0  0  0  0  0
  1 13  1  0  0  0  0
  1 14  1  0  0  0  0
  2 12  1  0  0  0  0
  2 22  1  0  0  0  0
  3 15  1  0  0  0  0
  3 22  1  0  0  0  0
  4 18  1  0  0  0  0
  4 22  1  0  0  0  0
  5 21  1  0  0  0  0
  5 35  1  0  0  0  0
  6 19  1  0  0  0  0
  6 62  1  0  0  0  0
  7 20  1  0  0  0  0
  7 63  1  0  0  0  0
  8 23  1  0  0  0  0
  8 67  1  0  0  0  0
  9 26  2  0  0  0  0
 10 35  2  0  0  0  0
 11 12  1  0  0  0  0
 11 13  1  0  0  0  0
 11 15  1  0  0  0  0
 11 49  1  0  0  0  0
 12 16  1  0  0  0  0
 12 17  1  0  0  0  0
 13 14  1  0  0  0  0
 13 50  1  0  0  0  0
 14 20  1  0  0  0  0
 14 23  1  0  0  0  0
 15 18  1  0  0  0  0
 15 51  1  0  0  0  0
 16 19  1  0  0  0  0
 16 24  1  0  0  0  0
 16 52  1  0  0  0  0
 17 21  1  0  0  0  0
 17 25  1  0  0  0  0
 17 53  1  0  0  0  0
 18 21  1  0  0  0  0
 18 27  1  0  0  0  0
 19 20  1  0  0  0  0
 19 26  1  0  0  0  0
 20 54  1  0  0  0  0
 21 55  1  0  0  0  0
 22 29  1  0  0  0  0
 23 56  1  0  0  0  0
 23 57  1  0  0  0  0
 24 28  2  0  0  0  0
 24 58  1  0  0  0  0
 25 59  1  0  0  0  0
 25 60  1  0  0  0  0
 25 61  1  0  0  0  0
 26 28  1  0  0  0  0
 27 30  1  0  0  0  0
 27 31  2  0  0  0  0
 28 32  1  0  0  0  0
 29 33  2  0  0  0  0
 29 34  1  0  0  0  0
 30 64  1  0  0  0  0
 30 65  1  0  0  0  0
 30 66  1  0  0  0  0
 31 68  1  0  0  0  0
 31 69  1  0  0  0  0
 32 70  1  0  0  0  0
 32 71  1  0  0  0  0
 32 72  1  0  0  0  0
 33 36  1  0  0  0  0
 33 73  1  0  0  0  0
 34 37  2  0  0  0  0
 34 74  1  0  0  0  0
 35 38  1  0  0  0  0
 36 39  2  0  0  0  0
 36 75  1  0  0  0  0
 37 39  1  0  0  0  0
 37 76  1  0  0  0  0
 38 40  2  0  0  0  0
 38 77  1  0  0  0  0
 39 78  1  0  0  0  0
 40 41  1  0  0  0  0
 40 79  1  0  0  0  0
 41 42  2  0  0  0  0
 41 80  1  0  0  0  0
 42 43  1  0  0  0  0
 42 81  1  0  0  0  0
 43 44  2  0  0  0  0
 43 45  1  0  0  0  0
 44 46  1  0  0  0  0
 44 82  1  0  0  0  0
 45 47  2  0  0  0  0
 45 83  1  0  0  0  0
 46 48  2  0  0  0  0
 46 84  1  0  0  0  0
 47 48  1  0  0  0  0
 47 85  1  0  0  0  0
 48 86  1  0  0  0  0
M  END
> <PUBCHEM_COMPOUND_CID>
5281382

> <PUBCHEM_CONFORMER_RMSD>
1.2

> <PUBCHEM_CONFORMER_DIVERSEORDER>
1
4
6
3
5
7
2

> <PUBCHEM_MMFF94_PARTIAL_CHARGES>
67
1 -0.3
10 -0.57
11 0.09
12 0.28
13 -0.05
14 -0.04
15 0.28
16 0.14
18 0.42
19 0.34
2 -0.56
20 0.38
21 0.28
22 0.98
23 0.38
24 -0.29
26 0.49
27 -0.28
28 -0.12
29 -0.14
3 -0.56
30 0.14
31 -0.3
32 0.14
33 -0.15
34 -0.15
35 0.71
36 -0.15
37 -0.15
38 -0.14
39 -0.15
4 -0.56
40 -0.15
41 -0.15
42 -0.18
43 0.03
44 -0.15
45 -0.15
46 -0.15
47 -0.15
48 -0.15
5 -0.43
50 0.1
58 0.15
6 -0.68
62 0.4
63 0.4
67 0.4
68 0.15
69 0.15
7 -0.68
73 0.15
74 0.15
75 0.15
76 0.15
77 0.15
78 0.15
79 0.15
8 -0.68
80 0.15
81 0.15
82 0.15
83 0.15
84 0.15
85 0.15
86 0.15
9 -0.57

> <PUBCHEM_EFFECTIVE_ROTOR_COUNT>
9.4

> <PUBCHEM_PHARMACOPHORE_FEATURES>
17
1 1 acceptor
1 10 acceptor
1 2 acceptor
1 3 acceptor
1 4 acceptor
1 6 acceptor
1 6 donor
1 7 acceptor
1 7 donor
1 8 acceptor
1 8 donor
1 9 acceptor
10 2 3 4 11 12 15 17 18 21 22 rings
5 16 19 24 26 28 rings
6 29 33 34 36 37 39 rings
6 43 44 45 46 47 48 rings
7 11 12 13 14 16 19 20 rings

> <PUBCHEM_HEAVY_ATOM_COUNT>
48

> <PUBCHEM_ATOM_DEF_STEREO_COUNT>
11

> <PUBCHEM_ATOM_UDEF_STEREO_COUNT>
1

> <PUBCHEM_BOND_DEF_STEREO_COUNT>
2

> <PUBCHEM_BOND_UDEF_STEREO_COUNT>
0

> <PUBCHEM_ISOTOPIC_ATOM_COUNT>
0

> <PUBCHEM_COMPONENT_COUNT>
1

> <PUBCHEM_CACTVS_TAUTO_COUNT>
3

> <PUBCHEM_CONFORMER_ID>
0050966600000001

> <PUBCHEM_MMFF94_ENERGY>
170.8567

> <PUBCHEM_FEATURE_SELFOVERLAP>
86.444

> <PUBCHEM_SHAPE_FINGERPRINT>
10930396 42 18043269963848666330
11115154 58 17967522494275544795
12156800 1 17272047278803302064
12664476 115 18272654537885142151
13636023 20 17987522675019777989
13811026 1 18410575132077057039
13835254 42 17823409573441339081
14068700 675 18410568453508380688
15351339 4 18337675334160776603
15439362 3 17754744818657401944
15975801 100 15194743323689718663
21057603 308 17679572351471328752
21987440 362 17622164568910197317
24893992 56 17989205898900516403
249057 3 17968097478722787975
335507 130 18337669704118852191
4066623 53 18198060472668149175
469060 322 17988349451945089172
6081469 158 18259982686890121634
6086070 43 18041559118928635707

> <PUBCHEM_SHAPE_MULTIPOLES>
929.12
19.85
4.86
2.97
45.82
0.54
0.32
-8.84
3.59
-1.67
-0.69
-0.2
3.5
0.78

> <PUBCHEM_SHAPE_SELFOVERLAP>
2068.601

> <PUBCHEM_SHAPE_VOLUME>
484.6

> <PUBCHEM_COORDINATE_TYPE>
2
5
10

$$$$

