25163995
  -OEChem-07051212483D

 30 29  0     1  0  0  0  0  0999 V2000
   -2.3630    1.1804    0.1091 P   0  0  0  0  0  0  0  0  0  0  0  0
   -1.8248   -0.1605   -0.6089 O   0  0  0  0  0  0  0  0  0  0  0  0
    2.2295    2.0860   -0.7364 O   0  0  0  0  0  0  0  0  0  0  0  0
   -3.5353    0.6507    1.0889 O   0  0  0  0  0  0  0  0  0  0  0  0
   -3.1760    1.9137   -1.0810 O   0  0  0  0  0  0  0  0  0  0  0  0
    3.2530    1.2869    1.1245 O   0  0  0  0  0  0  0  0  0  0  0  0
   -1.3075    2.0204    0.7668 O   0  0  0  0  0  0  0  0  0  0  0  0
    3.1824   -1.2504    0.2820 N   0  0  0  0  0  0  0  0  0  0  0  0
   -0.7390   -3.5822    0.3728 N   0  0  0  0  0  0  0  0  0  0  0  0
    0.3004   -0.6751    0.4078 C   0  0  0  0  0  0  0  0  0  0  0  0
   -1.1504   -1.1305    0.1949 C   0  0  2  0  0  0  0  0  0  0  0  0
    1.1216   -0.6366   -0.8862 C   0  0  0  0  0  0  0  0  0  0  0  0
    2.5915   -0.2727   -0.6287 C   0  0  1  0  0  0  0  0  0  0  0  0
   -1.3290   -2.5179   -0.4334 C   0  0  0  0  0  0  0  0  0  0  0  0
    2.7465    1.0880    0.0278 C   0  0  0  0  0  0  0  0  0  0  0  0
    0.3224    0.3105    0.8766 H   0  0  0  0  0  0  0  0  0  0  0  0
    0.7643   -1.3560    1.1305 H   0  0  0  0  0  0  0  0  0  0  0  0
   -1.6385   -1.1493    1.1782 H   0  0  0  0  0  0  0  0  0  0  0  0
    1.0917   -1.6099   -1.3887 H   0  0  0  0  0  0  0  0  0  0  0  0
    0.6783    0.0902   -1.5775 H   0  0  0  0  0  0  0  0  0  0  0  0
    3.1553   -0.2681   -1.5679 H   0  0  0  0  0  0  0  0  0  0  0  0
   -0.9265   -2.5446   -1.4518 H   0  0  0  0  0  0  0  0  0  0  0  0
   -2.4024   -2.7157   -0.5421 H   0  0  0  0  0  0  0  0  0  0  0  0
    4.1807   -1.0684    0.3800 H   0  0  0  0  0  0  0  0  0  0  0  0
    3.1035   -2.1842   -0.1192 H   0  0  0  0  0  0  0  0  0  0  0  0
    0.2730   -3.4684    0.4051 H   0  0  0  0  0  0  0  0  0  0  0  0
   -0.9062   -4.4793   -0.0815 H   0  0  0  0  0  0  0  0  0  0  0  0
    2.3198    2.9616   -0.3035 H   0  0  0  0  0  0  0  0  0  0  0  0
   -3.9811    1.2901    1.6844 H   0  0  0  0  0  0  0  0  0  0  0  0
   -3.5327    2.8143   -0.9270 H   0  0  0  0  0  0  0  0  0  0  0  0
  1  2  1  0  0  0  0
  1  4  1  0  0  0  0
  1  5  1  0  0  0  0
  1  7  2  0  0  0  0
  2 11  1  0  0  0  0
  3 15  1  0  0  0  0
  3 28  1  0  0  0  0
  4 29  1  0  0  0  0
  5 30  1  0  0  0  0
  6 15  2  0  0  0  0
  8 13  1  0  0  0  0
  8 24  1  0  0  0  0
  8 25  1  0  0  0  0
  9 14  1  0  0  0  0
  9 26  1  0  0  0  0
  9 27  1  0  0  0  0
 10 11  1  0  0  0  0
 10 12  1  0  0  0  0
 10 16  1  0  0  0  0
 10 17  1  0  0  0  0
 11 14  1  0  0  0  0
 11 18  1  0  0  0  0
 12 13  1  0  0  0  0
 12 19  1  0  0  0  0
 12 20  1  0  0  0  0
 13 15  1  0  0  0  0
 13 21  1  0  0  0  0
 14 22  1  0  0  0  0
 14 23  1  0  0  0  0
M  END
> <PUBCHEM_COMPOUND_CID>
25163995

> <PUBCHEM_CONFORMER_RMSD>
0.8

> <PUBCHEM_CONFORMER_DIVERSEORDER>
1
57
29
46
16
26
68
59
43
67
76
69
36
23
4
62
49
37
50
20
47
51
79
53
19
31
39
45
75
44
32
66
55
41
12
10
58
9
71
56
5
78
11
35
82
72
74
42
70
73
60
33
24
38
34
13
81
54
6
8
28
30
17
64
15
63
21
52
77
80
65
3
25
61
2
48
40
14
18
27
7
22

> <PUBCHEM_MMFF94_PARTIAL_CHARGES>
20
1 1.51
11 0.28
13 0.33
14 0.27
15 0.66
2 -0.55
24 0.36
25 0.36
26 0.36
27 0.36
28 0.5
29 0.5
3 -0.65
30 0.5
4 -0.77
5 -0.77
6 -0.57
7 -0.7
8 -0.99
9 -0.99

> <PUBCHEM_EFFECTIVE_ROTOR_COUNT>
7

> <PUBCHEM_PHARMACOPHORE_FEATURES>
11
1 3 acceptor
1 4 acceptor
1 5 acceptor
1 6 acceptor
1 7 acceptor
1 8 cation
1 8 donor
1 9 cation
1 9 donor
3 3 6 15 anion
4 1 4 5 7 anion

> <PUBCHEM_HEAVY_ATOM_COUNT>
15

> <PUBCHEM_ATOM_DEF_STEREO_COUNT>
2

> <PUBCHEM_ATOM_UDEF_STEREO_COUNT>
0

> <PUBCHEM_BOND_DEF_STEREO_COUNT>
0

> <PUBCHEM_BOND_UDEF_STEREO_COUNT>
0

> <PUBCHEM_ISOTOPIC_ATOM_COUNT>
0

> <PUBCHEM_COMPONENT_COUNT>
1

> <PUBCHEM_CACTVS_TAUTO_COUNT>
1

> <PUBCHEM_CONFORMER_ID>
017FF8DB00000001

> <PUBCHEM_MMFF94_ENERGY>
-17.0833

> <PUBCHEM_FEATURE_SELFOVERLAP>
55.912

> <PUBCHEM_SHAPE_FINGERPRINT>
1 1 18195807603233072743
12500047 106 18411423908209668158
12932764 1 18337658720947719350
13764800 53 18336252445185118145
15775835 57 18130783511936820892
18186145 218 18262512701504505685
19973954 147 18338231549293902812
20671657 1 18341599417977059396
21028194 46 18200302350948293479
21041028 32 16680328925478318283
21501502 16 18336826381881368150
21524375 3 18335700606607763447
23402539 116 18261122901695719135
23557571 272 17970058951114499224
23598294 1 18268140955540784466
2748010 2 18339911714550978679
305870 269 18124031492577024143
7364860 26 17761774366082272671
74978 22 18411697677920045862
81228 2 18195240014778379123

> <PUBCHEM_SHAPE_MULTIPOLES>
267.36
5.52
3.06
0.99
1.09
1.99
0.01
-2.97
-0.45
-1.32
-0.09
-0.09
-0.26
0.17

> <PUBCHEM_SHAPE_SELFOVERLAP>
497.134

> <PUBCHEM_SHAPE_VOLUME>
167.6

> <PUBCHEM_COORDINATE_TYPE>
2
5
10

$$$$

