235859
  -OEChem-07051213063D

 55 58  0     1  0  0  0  0  0999 V2000
   -1.1004    0.0910   -1.2354 F   0  0  0  0  0  0  0  0  0  0  0  0
   -0.3915    2.6647    0.7387 O   0  0  0  0  0  0  0  0  0  0  0  0
    5.3399    0.5181    0.5533 O   0  0  0  0  0  0  0  0  0  0  0  0
   -5.7521   -0.2339   -1.6323 O   0  0  0  0  0  0  0  0  0  0  0  0
    1.2452   -0.9332   -0.0373 C   0  0  2  0  0  0  0  0  0  0  0  0
    2.0990    0.3426    0.1545 C   0  0  1  0  0  0  0  0  0  0  0  0
   -0.1085   -0.8575    0.6853 C   0  0  1  0  0  0  0  0  0  0  0  0
   -0.9203    0.3530    0.1029 C   0  0  2  0  0  0  0  0  0  0  0  0
    3.3584   -0.0887   -0.6289 C   0  0  2  0  0  0  0  0  0  0  0  0
    2.2080   -2.0663    0.3101 C   0  0  0  0  0  0  0  0  0  0  0  0
    3.5793   -1.5646   -0.2041 C   0  0  1  0  0  0  0  0  0  0  0  0
   -2.3516    0.4639    0.7345 C   0  0  2  0  0  0  0  0  0  0  0  0
    1.3389    1.5252   -0.4528 C   0  0  0  0  0  0  0  0  0  0  0  0
   -0.8887   -2.1775    0.5558 C   0  0  0  0  0  0  0  0  0  0  0  0
   -0.0369    1.6193    0.1986 C   0  0  0  0  0  0  0  0  0  0  0  0
    2.4334    0.6609    1.6362 C   0  0  0  0  0  0  0  0  0  0  0  0
   -3.0174   -0.9088    0.5378 C   0  0  0  0  0  0  0  0  0  0  0  0
   -2.2916   -2.0795    1.1552 C   0  0  0  0  0  0  0  0  0  0  0  0
   -3.2236    1.5819    0.0868 C   0  0  0  0  0  0  0  0  0  0  0  0
    4.5612    0.7654   -0.3662 C   0  0  0  0  0  0  0  0  0  0  0  0
    4.1035   -2.4108   -1.3601 C   0  0  0  0  0  0  0  0  0  0  0  0
   -2.2937    0.7883    2.2507 C   0  0  0  0  0  0  0  0  0  0  0  0
   -3.8718    1.1969   -1.2313 C   0  0  0  0  0  0  0  0  0  0  0  0
   -4.1045   -1.1334   -0.2184 C   0  0  0  0  0  0  0  0  0  0  0  0
   -4.6853   -0.0561   -1.0493 C   0  0  0  0  0  0  0  0  0  0  0  0
    4.7713    1.9391   -1.2842 C   0  0  0  0  0  0  0  0  0  0  0  0
    1.0253   -1.0453   -1.1121 H   0  0  0  0  0  0  0  0  0  0  0  0
    0.0764   -0.6975    1.7527 H   0  0  0  0  0  0  0  0  0  0  0  0
    3.1553   -0.0577   -1.7085 H   0  0  0  0  0  0  0  0  0  0  0  0
    2.2472   -2.2292    1.3934 H   0  0  0  0  0  0  0  0  0  0  0  0
    1.9045   -3.0116   -0.1518 H   0  0  0  0  0  0  0  0  0  0  0  0
    4.3003   -1.6533    0.6175 H   0  0  0  0  0  0  0  0  0  0  0  0
    1.1946    1.4121   -1.5331 H   0  0  0  0  0  0  0  0  0  0  0  0
    1.8688    2.4688   -0.2870 H   0  0  0  0  0  0  0  0  0  0  0  0
   -0.3461   -2.9854    1.0606 H   0  0  0  0  0  0  0  0  0  0  0  0
   -0.9639   -2.4619   -0.5022 H   0  0  0  0  0  0  0  0  0  0  0  0
    3.0375    1.5725    1.7118 H   0  0  0  0  0  0  0  0  0  0  0  0
    1.5369    0.8386    2.2378 H   0  0  0  0  0  0  0  0  0  0  0  0
    2.9929   -0.1425    2.1247 H   0  0  0  0  0  0  0  0  0  0  0  0
   -2.2399   -1.9681    2.2435 H   0  0  0  0  0  0  0  0  0  0  0  0
   -2.8202   -3.0230    0.9720 H   0  0  0  0  0  0  0  0  0  0  0  0
   -2.6534    2.5040   -0.0579 H   0  0  0  0  0  0  0  0  0  0  0  0
   -4.0357    1.8467    0.7804 H   0  0  0  0  0  0  0  0  0  0  0  0
    3.4027   -2.4163   -2.2019 H   0  0  0  0  0  0  0  0  0  0  0  0
    5.0636   -2.0257   -1.7185 H   0  0  0  0  0  0  0  0  0  0  0  0
    4.2536   -3.4476   -1.0413 H   0  0  0  0  0  0  0  0  0  0  0  0
   -1.9796    1.8209    2.4328 H   0  0  0  0  0  0  0  0  0  0  0  0
   -3.2827    0.6723    2.7119 H   0  0  0  0  0  0  0  0  0  0  0  0
   -1.6088    0.1429    2.8063 H   0  0  0  0  0  0  0  0  0  0  0  0
   -3.1352    1.0336   -2.0232 H   0  0  0  0  0  0  0  0  0  0  0  0
   -4.5413    2.0026   -1.5528 H   0  0  0  0  0  0  0  0  0  0  0  0
   -4.5365   -2.1222   -0.3285 H   0  0  0  0  0  0  0  0  0  0  0  0
    4.7887    1.5990   -2.3228 H   0  0  0  0  0  0  0  0  0  0  0  0
    3.9821    2.6784   -1.1416 H   0  0  0  0  0  0  0  0  0  0  0  0
    5.7339    2.4078   -1.0597 H   0  0  0  0  0  0  0  0  0  0  0  0
  1  8  1  0  0  0  0
  2 15  2  0  0  0  0
  3 20  2  0  0  0  0
  4 25  2  0  0  0  0
  5  6  1  0  0  0  0
  5  7  1  0  0  0  0
  5 10  1  0  0  0  0
  5 27  1  0  0  0  0
  6  9  1  0  0  0  0
  6 13  1  0  0  0  0
  6 16  1  0  0  0  0
  7  8  1  0  0  0  0
  7 14  1  0  0  0  0
  7 28  1  0  0  0  0
  8 12  1  0  0  0  0
  8 15  1  0  0  0  0
  9 11  1  0  0  0  0
  9 20  1  0  0  0  0
  9 29  1  0  0  0  0
 10 11  1  0  0  0  0
 10 30  1  0  0  0  0
 10 31  1  0  0  0  0
 11 21  1  0  0  0  0
 11 32  1  0  0  0  0
 12 17  1  0  0  0  0
 12 19  1  0  0  0  0
 12 22  1  0  0  0  0
 13 15  1  0  0  0  0
 13 33  1  0  0  0  0
 13 34  1  0  0  0  0
 14 18  1  0  0  0  0
 14 35  1  0  0  0  0
 14 36  1  0  0  0  0
 16 37  1  0  0  0  0
 16 38  1  0  0  0  0
 16 39  1  0  0  0  0
 17 18  1  0  0  0  0
 17 24  2  0  0  0  0
 18 40  1  0  0  0  0
 18 41  1  0  0  0  0
 19 23  1  0  0  0  0
 19 42  1  0  0  0  0
 19 43  1  0  0  0  0
 20 26  1  0  0  0  0
 21 44  1  0  0  0  0
 21 45  1  0  0  0  0
 21 46  1  0  0  0  0
 22 47  1  0  0  0  0
 22 48  1  0  0  0  0
 22 49  1  0  0  0  0
 23 25  1  0  0  0  0
 23 50  1  0  0  0  0
 23 51  1  0  0  0  0
 24 25  1  0  0  0  0
 24 52  1  0  0  0  0
 26 53  1  0  0  0  0
 26 54  1  0  0  0  0
 26 55  1  0  0  0  0
M  END
> <PUBCHEM_COMPOUND_CID>
235859

> <PUBCHEM_CONFORMER_RMSD>
0.6

> <PUBCHEM_CONFORMER_DIVERSEORDER>
1
2

> <PUBCHEM_MMFF94_PARTIAL_CHARGES>
17
1 -0.34
12 0.14
13 0.06
15 0.45
17 -0.28
18 0.14
2 -0.57
20 0.45
23 0.06
24 -0.14
25 0.49
26 0.06
3 -0.57
4 -0.57
52 0.15
8 0.4
9 0.06

> <PUBCHEM_EFFECTIVE_ROTOR_COUNT>
2.6

> <PUBCHEM_PHARMACOPHORE_FEATURES>
7
1 2 acceptor
1 3 acceptor
1 4 acceptor
5 5 6 9 10 11 rings
6 12 17 19 23 24 25 rings
6 5 6 7 8 13 15 rings
6 7 8 12 14 17 18 rings

> <PUBCHEM_HEAVY_ATOM_COUNT>
26

> <PUBCHEM_ATOM_DEF_STEREO_COUNT>
7

> <PUBCHEM_ATOM_UDEF_STEREO_COUNT>
0

> <PUBCHEM_BOND_DEF_STEREO_COUNT>
0

> <PUBCHEM_BOND_UDEF_STEREO_COUNT>
0

> <PUBCHEM_ISOTOPIC_ATOM_COUNT>
0

> <PUBCHEM_COMPONENT_COUNT>
1

> <PUBCHEM_CACTVS_TAUTO_COUNT>
30

> <PUBCHEM_CONFORMER_ID>
0003995300000001

> <PUBCHEM_MMFF94_ENERGY>
83.0977

> <PUBCHEM_FEATURE_SELFOVERLAP>
35.636

> <PUBCHEM_SHAPE_FINGERPRINT>
10366900 7 18040996211496878816
10498660 4 18272364270049975974
10863032 1 18334004017221479546
10906281 52 18335685157837038473
11961588 58 17560811996035694455
12011746 2 18409169887338507286
12236239 1 17822291314561130721
12403259 415 18060134401390215965
12403814 3 17346882230079167268
12553582 1 18339342133221027240
12788726 201 18338807809293621577
13140716 1 18123457289888292240
13224815 77 18260828215547279282
13533116 47 18040435520628157207
13911987 19 18268699533476039428
14790565 3 17978783833796211401
15196674 1 18411695517155902466
15238133 3 14836409154764714478
15375358 24 18201999928197959658
15788980 27 16773796983147784856
16752209 62 18129103501061067457
16945 1 18338233735564144971
17349148 13 18409456868500344768
18608769 82 18130222645902556755
19862831 5 18343302595589675235
200 152 17894634747183232175
20645477 70 18261393394721012142
20691752 17 17988069123450099536
20715895 44 17917158289585093029
20775438 99 17248689108002108455
21029758 11 18408043996354155625
21033650 10 17345469469306910852
21285901 2 18059586831392941837
221357 26 18410584998312794309
22182313 1 18341316821534128842
22393880 68 18268157620293194967
23493267 7 16773219803704020163
23558518 356 18119801667356237176
23559900 14 18339639040563968858
2838139 119 16844749615513399391
296302 2 17632578240539882249
3004659 81 18272374213200199918
3286 77 17313394477652341442
34934 24 18413111632582863146
350125 39 18199457784695671665
4280585 95 17251732955203409134
4340502 62 15698000755920377905
46194498 28 17845648128242305093
5104073 3 18410004472905026266
5283173 99 18201164354900461237
9709674 26 18337662109713819694

> <PUBCHEM_SHAPE_MULTIPOLES>
510.19
10.24
2.43
1.46
1.04
0.38
-0.2
-0.46
4.32
1.12
0.03
-0.75
-0.16
0.37

> <PUBCHEM_SHAPE_SELFOVERLAP>
1104.647

> <PUBCHEM_SHAPE_VOLUME>
281.4

> <PUBCHEM_COORDINATE_TYPE>
2
5
10

$$$$

