23724590
  -OEChem-07051213082D

 80 83  0     1  0  0  0  0  0999 V2000
    2.5357   -3.6598    0.0000 O   0  0  0  0  0  0  0  0  0  0  0  0
   10.8321    0.1097    0.0000 O   0  0  0  0  0  0  0  0  0  0  0  0
    7.9288   -0.6074    0.0000 C   0  0  1  0  0  0  0  0  0  0  0  0
    7.9288   -1.6074    0.0000 C   0  0  3  0  0  0  0  0  0  0  0  0
    7.0628   -2.1074    0.0000 C   0  0  1  0  0  0  0  0  0  0  0  0
    6.1968   -1.6074    0.0000 C   0  0  1  0  0  0  0  0  0  0  0  0
    5.2868   -2.1143    0.0000 C   0  0  2  0  0  0  0  0  0  0  0  0
    8.8750   -0.3027    0.0000 C   0  0  2  0  0  0  0  0  0  0  0  0
    7.0628   -0.1074    0.0000 C   0  0  0  0  0  0  0  0  0  0  0  0
    5.2787   -3.1559    0.0000 C   0  0  1  0  0  0  0  0  0  0  0  0
    6.1968   -0.6074    0.0000 C   0  0  0  0  0  0  0  0  0  0  0  0
    8.8750   -1.9122    0.0000 C   0  0  0  0  0  0  0  0  0  0  0  0
    7.0789   -3.1489    0.0000 C   0  0  0  0  0  0  0  0  0  0  0  0
    9.4586   -1.1074    0.0000 C   0  0  0  0  0  0  0  0  0  0  0  0
    6.1808   -3.6767    0.0000 C   0  0  0  0  0  0  0  0  0  0  0  0
    4.3599   -1.5502    0.0000 C   0  0  0  0  0  0  0  0  0  0  0  0
    7.9288    0.3926    0.0000 C   0  0  0  0  0  0  0  0  0  0  0  0
    9.1857    0.6478    0.0000 C   0  0  1  0  0  0  0  0  0  0  0  0
    4.3433   -3.7056    0.0000 C   0  0  0  0  0  0  0  0  0  0  0  0
    5.2945   -1.1143    0.0000 C   0  0  0  0  0  0  0  0  0  0  0  0
    3.4120   -2.0781    0.0000 C   0  0  0  0  0  0  0  0  0  0  0  0
    3.4037   -3.1631    0.0000 C   0  0  2  0  0  0  0  0  0  0  0  0
   10.1642    0.8540    0.0000 C   0  0  2  0  0  0  0  0  0  0  0  0
    8.5179    1.3921    0.0000 C   0  0  0  0  0  0  0  0  0  0  0  0
   10.4749    1.8046    0.0000 C   0  0  0  0  0  0  0  0  0  0  0  0
   11.4534    2.0108    0.0000 C   0  0  2  0  0  0  0  0  0  0  0  0
   11.7640    2.9613    0.0000 C   0  0  0  0  0  0  0  0  0  0  0  0
   12.1212    1.2665    0.0000 C   0  0  0  0  0  0  0  0  0  0  0  0
   12.7425    3.1675    0.0000 C   0  0  0  0  0  0  0  0  0  0  0  0
   11.0962    3.7056    0.0000 C   0  0  0  0  0  0  0  0  0  0  0  0
    7.9944   -2.2240    0.0000 H   0  0  0  0  0  0  0  0  0  0  0  0
    7.8022   -2.5267    0.0000 H   0  0  0  0  0  0  0  0  0  0  0  0
    6.9329   -1.1824    0.0000 H   0  0  0  0  0  0  0  0  0  0  0  0
    9.7148   -0.1708    0.0000 H   0  0  0  0  0  0  0  0  0  0  0  0
    7.4613    0.3675    0.0000 H   0  0  0  0  0  0  0  0  0  0  0  0
    6.6643    0.3675    0.0000 H   0  0  0  0  0  0  0  0  0  0  0  0
    5.2820   -4.0059    0.0000 H   0  0  0  0  0  0  0  0  0  0  0  0
    5.9847   -0.0248    0.0000 H   0  0  0  0  0  0  0  0  0  0  0  0
    5.5862   -0.7151    0.0000 H   0  0  0  0  0  0  0  0  0  0  0  0
    8.6240   -2.4791    0.0000 H   0  0  0  0  0  0  0  0  0  0  0  0
    9.4124   -2.2214    0.0000 H   0  0  0  0  0  0  0  0  0  0  0  0
    7.2969   -3.7293    0.0000 H   0  0  0  0  0  0  0  0  0  0  0  0
    7.6880   -3.0334    0.0000 H   0  0  0  0  0  0  0  0  0  0  0  0
    9.9195   -1.5222    0.0000 H   0  0  0  0  0  0  0  0  0  0  0  0
    9.9195   -0.6927    0.0000 H   0  0  0  0  0  0  0  0  0  0  0  0
    5.7835   -4.1527    0.0000 H   0  0  0  0  0  0  0  0  0  0  0  0
    6.5818   -4.1496    0.0000 H   0  0  0  0  0  0  0  0  0  0  0  0
    4.7681   -1.0835    0.0000 H   0  0  0  0  0  0  0  0  0  0  0  0
    3.9700   -1.0682    0.0000 H   0  0  0  0  0  0  0  0  0  0  0  0
    8.5488    0.3926    0.0000 H   0  0  0  0  0  0  0  0  0  0  0  0
    7.9288    1.0126    0.0000 H   0  0  0  0  0  0  0  0  0  0  0  0
    7.3088    0.3926    0.0000 H   0  0  0  0  0  0  0  0  0  0  0  0
    9.3783    1.2371    0.0000 H   0  0  0  0  0  0  0  0  0  0  0  0
    3.9460   -4.1816    0.0000 H   0  0  0  0  0  0  0  0  0  0  0  0
    4.7443   -4.1785    0.0000 H   0  0  0  0  0  0  0  0  0  0  0  0
    5.9145   -1.1191    0.0000 H   0  0  0  0  0  0  0  0  0  0  0  0
    5.2993   -0.4943    0.0000 H   0  0  0  0  0  0  0  0  0  0  0  0
    4.6745   -1.1095    0.0000 H   0  0  0  0  0  0  0  0  0  0  0  0
    3.2075   -1.4929    0.0000 H   0  0  0  0  0  0  0  0  0  0  0  0
    2.8004   -2.1795    0.0000 H   0  0  0  0  0  0  0  0  0  0  0  0
    3.4025   -3.7831    0.0000 H   0  0  0  0  0  0  0  0  0  0  0  0
    9.9716    0.2647    0.0000 H   0  0  0  0  0  0  0  0  0  0  0  0
    8.9793    1.8062    0.0000 H   0  0  0  0  0  0  0  0  0  0  0  0
    8.1038    1.8536    0.0000 H   0  0  0  0  0  0  0  0  0  0  0  0
    8.0564    0.9781    0.0000 H   0  0  0  0  0  0  0  0  0  0  0  0
   10.4543    2.4242    0.0000 H   0  0  0  0  0  0  0  0  0  0  0  0
    9.8611    1.8919    0.0000 H   0  0  0  0  0  0  0  0  0  0  0  0
    2.0000   -3.3477    0.0000 H   0  0  0  0  0  0  0  0  0  0  0  0
   11.4387    0.2376    0.0000 H   0  0  0  0  0  0  0  0  0  0  0  0
   12.0601    2.1386    0.0000 H   0  0  0  0  0  0  0  0  0  0  0  0
   12.1781    2.4998    0.0000 H   0  0  0  0  0  0  0  0  0  0  0  0
   11.6598    0.8524    0.0000 H   0  0  0  0  0  0  0  0  0  0  0  0
   12.5353    0.8050    0.0000 H   0  0  0  0  0  0  0  0  0  0  0  0
   12.5827    1.6805    0.0000 H   0  0  0  0  0  0  0  0  0  0  0  0
   12.8704    2.5608    0.0000 H   0  0  0  0  0  0  0  0  0  0  0  0
   13.3492    3.2954    0.0000 H   0  0  0  0  0  0  0  0  0  0  0  0
   11.5577    4.1197    0.0000 H   0  0  0  0  0  0  0  0  0  0  0  0
   12.6147    3.7742    0.0000 H   0  0  0  0  0  0  0  0  0  0  0  0
   10.6821    4.1671    0.0000 H   0  0  0  0  0  0  0  0  0  0  0  0
   10.6347    3.2915    0.0000 H   0  0  0  0  0  0  0  0  0  0  0  0
 22  1  1  1  0  0  0
  1 68  1  0  0  0  0
 23  2  1  6  0  0  0
  2 69  1  0  0  0  0
  3  4  1  0  0  0  0
  3  8  1  0  0  0  0
  3  9  1  0  0  0  0
  3 17  1  1  0  0  0
  4  5  1  0  0  0  0
  4 12  1  0  0  0  0
  4 31  1  0  0  0  0
  5  6  1  0  0  0  0
  5 13  1  0  0  0  0
  5 32  1  1  0  0  0
  6  7  1  0  0  0  0
  6 11  1  0  0  0  0
  6 33  1  6  0  0  0
  7 10  1  0  0  0  0
  7 16  1  0  0  0  0
  7 20  1  1  0  0  0
  8 14  1  0  0  0  0
  8 18  1  0  0  0  0
  8 34  1  6  0  0  0
  9 11  1  0  0  0  0
  9 35  1  0  0  0  0
  9 36  1  0  0  0  0
 10 15  1  0  0  0  0
 10 19  1  0  0  0  0
 10 37  1  6  0  0  0
 11 38  1  0  0  0  0
 11 39  1  0  0  0  0
 12 14  1  0  0  0  0
 12 40  1  0  0  0  0
 12 41  1  0  0  0  0
 13 15  1  0  0  0  0
 13 42  1  0  0  0  0
 13 43  1  0  0  0  0
 14 44  1  0  0  0  0
 14 45  1  0  0  0  0
 15 46  1  0  0  0  0
 15 47  1  0  0  0  0
 16 21  1  0  0  0  0
 16 48  1  0  0  0  0
 16 49  1  0  0  0  0
 17 50  1  0  0  0  0
 17 51  1  0  0  0  0
 17 52  1  0  0  0  0
 18 23  1  0  0  0  0
 18 24  1  6  0  0  0
 18 53  1  0  0  0  0
 19 22  1  0  0  0  0
 19 54  1  0  0  0  0
 19 55  1  0  0  0  0
 20 56  1  0  0  0  0
 20 57  1  0  0  0  0
 20 58  1  0  0  0  0
 21 22  1  0  0  0  0
 21 59  1  0  0  0  0
 21 60  1  0  0  0  0
 22 61  1  0  0  0  0
 23 25  1  0  0  0  0
 23 62  1  0  0  0  0
 24 63  1  0  0  0  0
 24 64  1  0  0  0  0
 24 65  1  0  0  0  0
 25 26  1  0  0  0  0
 25 66  1  0  0  0  0
 25 67  1  0  0  0  0
 26 27  1  0  0  0  0
 26 28  1  6  0  0  0
 26 70  1  0  0  0  0
 27 29  1  0  0  0  0
 27 30  1  0  0  0  0
 27 71  1  0  0  0  0
 28 72  1  0  0  0  0
 28 73  1  0  0  0  0
 28 74  1  0  0  0  0
 29 75  1  0  0  0  0
 29 76  1  0  0  0  0
 29 78  1  0  0  0  0
 30 77  1  0  0  0  0
 30 79  1  0  0  0  0
 30 80  1  0  0  0  0
M  END
> <PUBCHEM_COMPOUND_CID>
23724590

> <PUBCHEM_COMPOUND_CANONICALIZED>
1

> <PUBCHEM_CACTVS_COMPLEXITY>
601

> <PUBCHEM_CACTVS_HBOND_ACCEPTOR>
2

> <PUBCHEM_CACTVS_HBOND_DONOR>
2

> <PUBCHEM_CACTVS_ROTATABLE_BOND>
5

> <PUBCHEM_CACTVS_SUBSKEYS>
AAADcfB4MAAAAAAAAAAAAAAAAAAAAYAAAAAwYMAAAAAAAGDAAAAAGgAACAAADxSggAICAAAAAgAAAAAAAAAAAAAAAAAAAAAAAAAAEAIAAAAAQAAEAAAAAAGAwPAPgAAAAAAAAADAAAYAACAAAQAACAAAAA==

> <PUBCHEM_IUPAC_OPENEYE_NAME>
(3S,5S,8R,9S,10S,13S,17R)-17-[(1S,2S,4R)-2-hydroxy-1,4,5-trimethyl-hexyl]-10,13-dimethyl-2,3,4,5,6,7,8,9,11,12,14,15,16,17-tetradecahydro-1H-cyclopenta[a]phenanthren-3-ol

> <PUBCHEM_IUPAC_CAS_NAME>
(3S,5S,8R,9S,10S,13S,17R)-17-[(2S,3S,5R)-3-hydroxy-5,6-dimethylheptan-2-yl]-10,13-dimethyl-2,3,4,5,6,7,8,9,11,12,14,15,16,17-tetradecahydro-1H-cyclopenta[a]phenanthren-3-ol

> <PUBCHEM_IUPAC_NAME>
(3S,5S,8R,9S,10S,13S,17R)-17-[(2S,3S,5R)-3-hydroxy-5,6-dimethylheptan-2-yl]-10,13-dimethyl-2,3,4,5,6,7,8,9,11,12,14,15,16,17-tetradecahydro-1H-cyclopenta[a]phenanthren-3-ol

> <PUBCHEM_IUPAC_SYSTEMATIC_NAME>
(3S,5S,8R,9S,10S,13S,17R)-17-[(2S,3S,5R)-5,6-dimethyl-3-oxidanyl-heptan-2-yl]-10,13-dimethyl-2,3,4,5,6,7,8,9,11,12,14,15,16,17-tetradecahydro-1H-cyclopenta[a]phenanthren-3-ol

> <PUBCHEM_IUPAC_TRADITIONAL_NAME>
(3S,5S,8R,9S,10S,13S,17R)-17-[(1S,2S,4R)-2-hydroxy-1,4,5-trimethyl-hexyl]-10,13-dimethyl-2,3,4,5,6,7,8,9,11,12,14,15,16,17-tetradecahydro-1H-cyclopenta[a]phenanthren-3-ol

> <PUBCHEM_IUPAC_INCHI>
InChI=1S/C28H50O2/c1-17(2)18(3)15-26(30)19(4)23-9-10-24-22-8-7-20-16-21(29)11-13-27(20,5)25(22)12-14-28(23,24)6/h17-26,29-30H,7-16H2,1-6H3/t18-,19+,20+,21+,22+,23-,24?,25+,26+,27+,28-/m1/s1

> <PUBCHEM_IUPAC_INCHIKEY>
ZHZKWZJLUNXOSN-XMGFXUDASA-N

> <PUBCHEM_XLOGP3_AA>
8.3

> <PUBCHEM_EXACT_MASS>
418.381081

> <PUBCHEM_MOLECULAR_FORMULA>
C28H50O2

> <PUBCHEM_MOLECULAR_WEIGHT>
418.6954

> <PUBCHEM_OPENEYE_CAN_SMILES>
CC(C)C(C)CC(C(C)C1CCC2C1(CCC3C2CCC4C3(CCC(C4)O)C)C)O

> <PUBCHEM_OPENEYE_ISO_SMILES>
C[C@H](C[C@@H]([C@@H](C)[C@H]1CCC2[C@@]1(CC[C@H]3[C@H]2CC[C@@H]4[C@@]3(CC[C@@H](C4)O)C)C)O)C(C)C

> <PUBCHEM_CACTVS_TPSA>
40.5

> <PUBCHEM_MONOISOTOPIC_WEIGHT>
418.381081

> <PUBCHEM_TOTAL_CHARGE>
0

> <PUBCHEM_HEAVY_ATOM_COUNT>
30

> <PUBCHEM_ATOM_DEF_STEREO_COUNT>
10

> <PUBCHEM_ATOM_UDEF_STEREO_COUNT>
1

> <PUBCHEM_BOND_DEF_STEREO_COUNT>
0

> <PUBCHEM_BOND_UDEF_STEREO_COUNT>
0

> <PUBCHEM_ISOTOPIC_ATOM_COUNT>
0

> <PUBCHEM_COMPONENT_COUNT>
1

> <PUBCHEM_CACTVS_TAUTO_COUNT>
1

> <PUBCHEM_COORDINATE_TYPE>
1
5
255

> <PUBCHEM_BONDANNOTATIONS>
22  1  5
10  37  6
18  24  6
23  2  6
26  28  6
3  17  5
4  12  3
5  32  5
6  33  6
7  20  5
8  34  6

$$$$

