49787018
  -OEChem-07051213022D

 47 52  0     1  0  0  0  0  0999 V2000
    3.8076    1.8817    0.0000 O   0  0  0  0  0  0  0  0  0  0  0  0
    6.1798   -0.2724    0.0000 N   0  0  3  0  0  0  0  0  0  0  0  0
    4.0899   -1.2279    0.0000 N   0  0  3  0  0  0  0  0  0  0  0  0
    4.5153    0.0814    0.0000 C   0  0  1  0  0  0  0  0  0  0  0  0
    6.4862    1.1691    0.0000 C   0  0  3  0  0  0  0  0  0  0  0  0
    5.9169    0.5368    0.0000 C   0  0  2  0  0  0  0  0  0  0  0  0
    4.7782   -0.7278    0.0000 C   0  0  2  0  0  0  0  0  0  0  0  0
    5.6105   -0.9047    0.0000 C   0  0  2  0  0  0  0  0  0  0  0  0
    4.5142    1.1740    0.0000 C   0  0  1  0  0  0  0  0  0  0  0  0
    5.0846    0.7137    0.0000 C   0  0  0  0  0  0  0  0  0  0  0  0
    6.7056   -1.8908    0.0000 C   0  0  1  0  0  0  0  0  0  0  0  0
    5.8734   -1.7139    0.0000 C   0  0  0  0  0  0  0  0  0  0  0  0
    3.6645    0.0814    0.0000 C   0  0  0  0  0  0  0  0  0  0  0  0
    7.0121   -0.4493    0.0000 C   0  0  0  0  0  0  0  0  0  0  0  0
    7.2750   -1.2585    0.0000 C   0  0  0  0  0  0  0  0  0  0  0  0
    3.4016   -0.7278    0.0000 C   0  0  0  0  0  0  0  0  0  0  0  0
    3.0952    0.7137    0.0000 C   0  0  0  0  0  0  0  0  0  0  0  0
    4.0983   -2.2278    0.0000 C   0  0  0  0  0  0  0  0  0  0  0  0
    8.2531   -1.4664    0.0000 C   0  0  0  0  0  0  0  0  0  0  0  0
    2.5693   -0.9047    0.0000 C   0  0  0  0  0  0  0  0  0  0  0  0
    2.2629    0.5368    0.0000 C   0  0  0  0  0  0  0  0  0  0  0  0
    2.0000   -0.2724    0.0000 C   0  0  0  0  0  0  0  0  0  0  0  0
    8.5621   -2.4174    0.0000 C   0  0  0  0  0  0  0  0  0  0  0  0
    6.9092    1.6224    0.0000 H   0  0  0  0  0  0  0  0  0  0  0  0
    5.7347    1.3671    0.0000 H   0  0  0  0  0  0  0  0  0  0  0  0
    4.6312   -1.5650    0.0000 H   0  0  0  0  0  0  0  0  0  0  0  0
    5.1601   -1.6255    0.0000 H   0  0  0  0  0  0  0  0  0  0  0  0
    4.7523    1.7465    0.0000 H   0  0  0  0  0  0  0  0  0  0  0  0
    5.3169    1.2886    0.0000 H   0  0  0  0  0  0  0  0  0  0  0  0
    4.5588    1.0423    0.0000 H   0  0  0  0  0  0  0  0  0  0  0  0
    6.9683   -2.6992    0.0000 H   0  0  0  0  0  0  0  0  0  0  0  0
    5.2594   -1.8002    0.0000 H   0  0  0  0  0  0  0  0  0  0  0  0
    5.8518   -2.3335    0.0000 H   0  0  0  0  0  0  0  0  0  0  0  0
    7.6260   -0.3630    0.0000 H   0  0  0  0  0  0  0  0  0  0  0  0
    7.0337    0.1704    0.0000 H   0  0  0  0  0  0  0  0  0  0  0  0
    3.9684    2.4804    0.0000 H   0  0  0  0  0  0  0  0  0  0  0  0
    3.2868    1.3034    0.0000 H   0  0  0  0  0  0  0  0  0  0  0  0
    3.4784   -2.2331    0.0000 H   0  0  0  0  0  0  0  0  0  0  0  0
    4.1036   -2.8478    0.0000 H   0  0  0  0  0  0  0  0  0  0  0  0
    4.7183   -2.2226    0.0000 H   0  0  0  0  0  0  0  0  0  0  0  0
    8.6680   -1.0056    0.0000 H   0  0  0  0  0  0  0  0  0  0  0  0
    2.3777   -1.4943    0.0000 H   0  0  0  0  0  0  0  0  0  0  0  0
    1.8481    0.9976    0.0000 H   0  0  0  0  0  0  0  0  0  0  0  0
    1.3936   -0.4013    0.0000 H   0  0  0  0  0  0  0  0  0  0  0  0
    7.9725   -2.6090    0.0000 H   0  0  0  0  0  0  0  0  0  0  0  0
    8.7537   -3.0071    0.0000 H   0  0  0  0  0  0  0  0  0  0  0  0
    9.1518   -2.2259    0.0000 H   0  0  0  0  0  0  0  0  0  0  0  0
  1  9  1  0  0  0  0
  1 36  1  0  0  0  0
  2  6  1  0  0  0  0
  2  8  1  0  0  0  0
  2 14  1  0  0  0  0
  3  7  1  0  0  0  0
  3 16  1  0  0  0  0
  3 18  1  0  0  0  0
  4  7  1  0  0  0  0
  4  9  1  0  0  0  0
  4 10  1  0  0  0  0
  4 13  1  6  0  0  0
  5  6  1  0  0  0  0
  5  9  1  0  0  0  0
  5 11  1  0  0  0  0
  5 24  1  0  0  0  0
  6 10  1  0  0  0  0
  6 25  1  6  0  0  0
  7  8  1  0  0  0  0
  7 26  1  1  0  0  0
  8 12  1  0  0  0  0
  8 27  1  6  0  0  0
  9 28  1  0  0  0  0
 10 29  1  0  0  0  0
 10 30  1  0  0  0  0
 11 12  1  0  0  0  0
 11 15  1  0  0  0  0
 11 31  1  1  0  0  0
 12 32  1  0  0  0  0
 12 33  1  0  0  0  0
 13 16  1  0  0  0  0
 13 17  2  0  0  0  0
 14 15  1  0  0  0  0
 14 34  1  0  0  0  0
 14 35  1  0  0  0  0
 15 19  2  0  0  0  0
 16 20  2  0  0  0  0
 17 21  1  0  0  0  0
 17 37  1  0  0  0  0
 18 38  1  0  0  0  0
 18 39  1  0  0  0  0
 18 40  1  0  0  0  0
 19 23  1  0  0  0  0
 19 41  1  0  0  0  0
 20 22  1  0  0  0  0
 20 42  1  0  0  0  0
 21 22  2  0  0  0  0
 21 43  1  0  0  0  0
 22 44  1  0  0  0  0
 23 45  1  0  0  0  0
 23 46  1  0  0  0  0
 23 47  1  0  0  0  0
M  END
> <PUBCHEM_COMPOUND_CID>
49787018

> <PUBCHEM_COMPOUND_CANONICALIZED>
1

> <PUBCHEM_CACTVS_COMPLEXITY>
588

> <PUBCHEM_CACTVS_HBOND_ACCEPTOR>
3

> <PUBCHEM_CACTVS_HBOND_DONOR>
1

> <PUBCHEM_CACTVS_ROTATABLE_BOND>
0

> <PUBCHEM_CACTVS_SUBSKEYS>
AAADceB7IAAAAAAAAAAAAAAAAAAAAeIAAAA8WLFiBgAAAFixAAAAHgAACAAADzzhmAYywIMAAgCAAiRCQACCAAAhAgAIiAAIZIgIcCLAkZGUYAhmwAHIyAew0PMPgAAAAAACAAAAAAAAAAQAASEABQAAAA==

> <PUBCHEM_IUPAC_INCHI>
InChI=1S/C20H24N2O/c1-3-11-10-22-15-8-12(11)17-16(22)9-20(19(17)23)13-6-4-5-7-14(13)21(2)18(15)20/h3-7,12,15-19,23H,8-10H2,1-2H3/b11-3-/t12-,15-,16-,17?,18-,19+,20+/m0/s1

> <PUBCHEM_IUPAC_INCHIKEY>
VBEQZFNVRMPLSM-DTIPLSSUSA-N

> <PUBCHEM_XLOGP3>
1.5

> <PUBCHEM_EXACT_MASS>
308.188863

> <PUBCHEM_MOLECULAR_FORMULA>
C20H24N2O

> <PUBCHEM_MOLECULAR_WEIGHT>
308.41736

> <PUBCHEM_OPENEYE_CAN_SMILES>
CC=C1CN2C3CC1C4C2CC5(C3N(C6=CC=CC=C65)C)C4O

> <PUBCHEM_OPENEYE_ISO_SMILES>
C/C=C\1/CN2[C@H]3C[C@@H]1C4[C@@H]2C[C@@]5([C@H]3N(C6=CC=CC=C65)C)[C@@H]4O

> <PUBCHEM_CACTVS_TPSA>
26.7

> <PUBCHEM_MONOISOTOPIC_WEIGHT>
308.188863

> <PUBCHEM_TOTAL_CHARGE>
0

> <PUBCHEM_HEAVY_ATOM_COUNT>
23

> <PUBCHEM_ATOM_DEF_STEREO_COUNT>
6

> <PUBCHEM_ATOM_UDEF_STEREO_COUNT>
1

> <PUBCHEM_BOND_DEF_STEREO_COUNT>
1

> <PUBCHEM_BOND_UDEF_STEREO_COUNT>
0

> <PUBCHEM_ISOTOPIC_ATOM_COUNT>
0

> <PUBCHEM_COMPONENT_COUNT>
1

> <PUBCHEM_CACTVS_TAUTO_COUNT>
1

> <PUBCHEM_COORDINATE_TYPE>
1
5
255

> <PUBCHEM_BONDANNOTATIONS>
11  31  5
13  16  8
13  17  8
16  20  8
17  21  8
20  22  8
21  22  8
4  13  6
5  9  3
6  25  6
7  26  5
8  27  6

$$$$

