441580
  -OEChem-07051212553D

 29 29  0     1  0  0  0  0  0999 V2000
    0.3150   -1.0799    2.0282 O   0  0  0  0  0  0  0  0  0  0  0  0
    1.4414    2.1747   -1.1821 O   0  0  0  0  0  0  0  0  0  0  0  0
    1.7645   -0.9204   -1.5025 O   0  0  0  0  0  0  0  0  0  0  0  0
   -0.4939    1.6018   -0.0009 N   0  0  0  0  0  0  0  0  0  0  0  0
   -0.9919    0.6732    0.9936 C   0  0  1  0  0  0  0  0  0  0  0  0
   -2.1147   -0.1880    0.4559 C   0  0  2  0  0  0  0  0  0  0  0  0
    1.4350    0.3829    0.4600 C   0  0  2  0  0  0  0  0  0  0  0  0
    0.2611   -0.1298    1.2569 C   0  0  0  0  0  0  0  0  0  0  0  0
   -1.6810   -0.8853   -0.8522 C   0  0  0  0  0  0  0  0  0  0  0  0
    0.8445    1.4969   -0.3598 C   0  0  0  0  0  0  0  0  0  0  0  0
   -3.3837    0.6520    0.2558 C   0  0  0  0  0  0  0  0  0  0  0  0
    2.1171   -0.6646   -0.3522 C   0  0  0  0  0  0  0  0  0  0  0  0
   -2.7730   -1.7215   -1.5041 C   0  0  0  0  0  0  0  0  0  0  0  0
    3.2596   -1.3920    0.3034 C   0  0  0  0  0  0  0  0  0  0  0  0
   -1.2612    1.2398    1.8898 H   0  0  0  0  0  0  0  0  0  0  0  0
   -2.3481   -0.9654    1.1956 H   0  0  0  0  0  0  0  0  0  0  0  0
    2.1464    0.8468    1.1525 H   0  0  0  0  0  0  0  0  0  0  0  0
   -0.8373   -1.5546   -0.6505 H   0  0  0  0  0  0  0  0  0  0  0  0
   -1.3427   -0.1571   -1.5982 H   0  0  0  0  0  0  0  0  0  0  0  0
   -1.0886    2.3188   -0.4045 H   0  0  0  0  0  0  0  0  0  0  0  0
   -3.6151    1.2263    1.1595 H   0  0  0  0  0  0  0  0  0  0  0  0
   -4.2501    0.0147    0.0519 H   0  0  0  0  0  0  0  0  0  0  0  0
   -3.2772    1.3556   -0.5765 H   0  0  0  0  0  0  0  0  0  0  0  0
   -2.3607   -2.2832   -2.3488 H   0  0  0  0  0  0  0  0  0  0  0  0
   -3.5828   -1.0962   -1.8914 H   0  0  0  0  0  0  0  0  0  0  0  0
   -3.1942   -2.4400   -0.7940 H   0  0  0  0  0  0  0  0  0  0  0  0
    3.6585   -2.1435   -0.3837 H   0  0  0  0  0  0  0  0  0  0  0  0
    4.0540   -0.6827    0.5487 H   0  0  0  0  0  0  0  0  0  0  0  0
    2.9099   -1.8950    1.2079 H   0  0  0  0  0  0  0  0  0  0  0  0
  1  8  2  0  0  0  0
  2 10  2  0  0  0  0
  3 12  2  0  0  0  0
  4  5  1  0  0  0  0
  4 10  1  0  0  0  0
  4 20  1  0  0  0  0
  5  6  1  0  0  0  0
  5  8  1  0  0  0  0
  5 15  1  0  0  0  0
  6  9  1  0  0  0  0
  6 11  1  0  0  0  0
  6 16  1  0  0  0  0
  7  8  1  0  0  0  0
  7 10  1  0  0  0  0
  7 12  1  0  0  0  0
  7 17  1  0  0  0  0
  9 13  1  0  0  0  0
  9 18  1  0  0  0  0
  9 19  1  0  0  0  0
 11 21  1  0  0  0  0
 11 22  1  0  0  0  0
 11 23  1  0  0  0  0
 12 14  1  0  0  0  0
 13 24  1  0  0  0  0
 13 25  1  0  0  0  0
 13 26  1  0  0  0  0
 14 27  1  0  0  0  0
 14 28  1  0  0  0  0
 14 29  1  0  0  0  0
M  END
> <PUBCHEM_COMPOUND_CID>
441580

> <PUBCHEM_CONFORMER_RMSD>
0.6

> <PUBCHEM_CONFORMER_DIVERSEORDER>
1
26
20
6
12
24
18
15
5
22
19
4
21
23
7
16
14
25
2
8
11
3
17
9
10
13

> <PUBCHEM_MMFF94_PARTIAL_CHARGES>
11
1 -0.57
10 0.57
12 0.45
14 0.06
2 -0.57
20 0.37
3 -0.57
4 -0.73
5 0.36
7 0.18
8 0.45

> <PUBCHEM_EFFECTIVE_ROTOR_COUNT>
3.6

> <PUBCHEM_PHARMACOPHORE_FEATURES>
8
1 1 acceptor
1 11 hydrophobe
1 13 hydrophobe
1 2 acceptor
1 3 acceptor
1 4 donor
1 7 anion
5 4 5 7 8 10 rings

> <PUBCHEM_HEAVY_ATOM_COUNT>
14

> <PUBCHEM_ATOM_DEF_STEREO_COUNT>
2

> <PUBCHEM_ATOM_UDEF_STEREO_COUNT>
1

> <PUBCHEM_BOND_DEF_STEREO_COUNT>
0

> <PUBCHEM_BOND_UDEF_STEREO_COUNT>
0

> <PUBCHEM_ISOTOPIC_ATOM_COUNT>
0

> <PUBCHEM_COMPONENT_COUNT>
1

> <PUBCHEM_CACTVS_TAUTO_COUNT>
20

> <PUBCHEM_CONFORMER_ID>
0006BCEC00000001

> <PUBCHEM_MMFF94_ENERGY>
18.1687

> <PUBCHEM_FEATURE_SELFOVERLAP>
40.596

> <PUBCHEM_SHAPE_FINGERPRINT>
10353120 184 18059568139537149689
11471102 22 4895552965631125386
12423570 1 8976483100391752450
14115302 16 17821723949064564533
14128692 85 18040994016610380086
15852999 172 17483410620488508136
16945 1 18053354842262397529
20361792 2 18271810163276033070
230 275 13540536841012230879
232386 152 17385445384172942975
23402539 116 18201162147893666002
23419403 2 17393095812070351496
23552423 10 18336548218377118775
23559900 14 17095803334624617582
2748010 2 17416391074633566921
3286 77 17560788910407293003
4175511 376 17914907434890702156
568465 68 16009045972478819714

> <PUBCHEM_SHAPE_MULTIPOLES>
265.52
4.41
1.86
1.5
1
0.06
0.27
1.86
-0.45
0.12
-0.8
-0.28
0.07
-0.89

> <PUBCHEM_SHAPE_SELFOVERLAP>
537.576

> <PUBCHEM_SHAPE_VOLUME>
157

> <PUBCHEM_COORDINATE_TYPE>
2
5
10

$$$$

