24798689
  -OEChem-07051213113D

 52 55  0     1  0  0  0  0  0999 V2000
    0.8579   -0.1328   -0.2819 C   0  0  1  0  0  0  0  0  0  0  0  0
   -0.6813   -0.5566   -0.4485 C   0  0  2  0  0  0  0  0  0  0  0  0
    1.1368    1.3580   -0.6783 C   0  0  2  0  0  0  0  0  0  0  0  0
   -1.6178    0.5458    0.1759 C   0  0  2  0  0  0  0  0  0  0  0  0
    1.3879   -0.1294    1.1742 C   0  0  0  0  0  0  0  0  0  0  0  0
    2.7399    0.5775    1.0248 C   0  0  2  0  0  0  0  0  0  0  0  0
    2.4350    1.7525    0.0808 C   0  0  0  0  0  0  0  0  0  0  0  0
    1.8031   -1.1058   -1.0951 C   0  0  0  0  0  0  0  0  0  0  0  0
    0.0396    2.3651   -0.2883 C   0  0  0  0  0  0  0  0  0  0  0  0
   -3.1401    0.1848    0.3817 C   0  0  0  0  0  0  0  0  0  0  0  0
   -1.3831    1.8900   -0.5319 C   0  0  0  0  0  0  0  0  0  0  0  0
   -0.9643   -1.9060    0.2678 C   0  0  0  0  0  0  0  0  0  0  0  0
   -0.9674   -0.7489   -1.9654 C   0  0  0  0  0  0  0  0  0  0  0  0
    3.3123   -0.8388   -0.9961 C   0  0  0  0  0  0  0  0  0  0  0  0
   -3.2691   -1.2276    1.0011 C   0  0  0  0  0  0  0  0  0  0  0  0
   -2.4414   -2.2878    0.2889 C   0  0  0  0  0  0  0  0  0  0  0  0
    3.7090   -0.3832    0.3784 C   0  0  0  0  0  0  0  0  0  0  0  0
   -4.0158    0.2799   -0.8840 C   0  0  0  0  0  0  0  0  0  0  0  0
   -3.7629    1.1755    1.4055 C   0  0  0  0  0  0  0  0  0  0  0  0
    4.8217   -0.8122    0.9905 C   0  0  0  0  0  0  0  0  0  0  0  0
    1.2971    1.4330   -1.7609 H   0  0  0  0  0  0  0  0  0  0  0  0
   -1.2562    0.6793    1.2053 H   0  0  0  0  0  0  0  0  0  0  0  0
    1.4966   -1.1374    1.5906 H   0  0  0  0  0  0  0  0  0  0  0  0
    0.7475    0.4430    1.8527 H   0  0  0  0  0  0  0  0  0  0  0  0
    3.1151    0.9312    1.9912 H   0  0  0  0  0  0  0  0  0  0  0  0
    2.3023    2.6697    0.6672 H   0  0  0  0  0  0  0  0  0  0  0  0
    3.2537    1.9612   -0.6179 H   0  0  0  0  0  0  0  0  0  0  0  0
    1.6315   -2.1341   -0.7549 H   0  0  0  0  0  0  0  0  0  0  0  0
    1.5566   -1.0821   -2.1617 H   0  0  0  0  0  0  0  0  0  0  0  0
    0.2072    3.3047   -0.8299 H   0  0  0  0  0  0  0  0  0  0  0  0
    0.1202    2.6179    0.7777 H   0  0  0  0  0  0  0  0  0  0  0  0
   -1.5792    1.8236   -1.6066 H   0  0  0  0  0  0  0  0  0  0  0  0
   -2.0588    2.6603   -0.1476 H   0  0  0  0  0  0  0  0  0  0  0  0
   -0.6204   -1.8598    1.3075 H   0  0  0  0  0  0  0  0  0  0  0  0
   -0.4074   -2.7222   -0.2056 H   0  0  0  0  0  0  0  0  0  0  0  0
   -0.5742    0.0759   -2.5677 H   0  0  0  0  0  0  0  0  0  0  0  0
   -2.0242   -0.8343   -2.1986 H   0  0  0  0  0  0  0  0  0  0  0  0
   -0.5150   -1.6729   -2.3431 H   0  0  0  0  0  0  0  0  0  0  0  0
    3.8578   -1.7426   -1.2932 H   0  0  0  0  0  0  0  0  0  0  0  0
    3.5882   -0.0645   -1.7226 H   0  0  0  0  0  0  0  0  0  0  0  0
   -4.3205   -1.5421    1.0157 H   0  0  0  0  0  0  0  0  0  0  0  0
   -2.9481   -1.1964    2.0515 H   0  0  0  0  0  0  0  0  0  0  0  0
   -2.5541   -3.2413    0.8190 H   0  0  0  0  0  0  0  0  0  0  0  0
   -2.8153   -2.4573   -0.7258 H   0  0  0  0  0  0  0  0  0  0  0  0
   -3.8729   -0.5553   -1.5698 H   0  0  0  0  0  0  0  0  0  0  0  0
   -5.0805    0.2573   -0.6184 H   0  0  0  0  0  0  0  0  0  0  0  0
   -3.8476    1.2120   -1.4310 H   0  0  0  0  0  0  0  0  0  0  0  0
   -4.7773    0.8661    1.6852 H   0  0  0  0  0  0  0  0  0  0  0  0
   -3.1726    1.2225    2.3276 H   0  0  0  0  0  0  0  0  0  0  0  0
   -3.8377    2.1899    1.0016 H   0  0  0  0  0  0  0  0  0  0  0  0
    5.0813   -0.4753    1.9883 H   0  0  0  0  0  0  0  0  0  0  0  0
    5.4973   -1.5091    0.5059 H   0  0  0  0  0  0  0  0  0  0  0  0
  1  2  1  0  0  0  0
  1  3  1  0  0  0  0
  1  5  1  0  0  0  0
  1  8  1  0  0  0  0
  2  4  1  0  0  0  0
  2 12  1  0  0  0  0
  2 13  1  0  0  0  0
  3  7  1  0  0  0  0
  3  9  1  0  0  0  0
  3 21  1  0  0  0  0
  4 10  1  0  0  0  0
  4 11  1  0  0  0  0
  4 22  1  0  0  0  0
  5  6  1  0  0  0  0
  5 23  1  0  0  0  0
  5 24  1  0  0  0  0
  6  7  1  0  0  0  0
  6 17  1  0  0  0  0
  6 25  1  0  0  0  0
  7 26  1  0  0  0  0
  7 27  1  0  0  0  0
  8 14  1  0  0  0  0
  8 28  1  0  0  0  0
  8 29  1  0  0  0  0
  9 11  1  0  0  0  0
  9 30  1  0  0  0  0
  9 31  1  0  0  0  0
 10 15  1  0  0  0  0
 10 18  1  0  0  0  0
 10 19  1  0  0  0  0
 11 32  1  0  0  0  0
 11 33  1  0  0  0  0
 12 16  1  0  0  0  0
 12 34  1  0  0  0  0
 12 35  1  0  0  0  0
 13 36  1  0  0  0  0
 13 37  1  0  0  0  0
 13 38  1  0  0  0  0
 14 17  1  0  0  0  0
 14 39  1  0  0  0  0
 14 40  1  0  0  0  0
 15 16  1  0  0  0  0
 15 41  1  0  0  0  0
 15 42  1  0  0  0  0
 16 43  1  0  0  0  0
 16 44  1  0  0  0  0
 17 20  2  0  0  0  0
 18 45  1  0  0  0  0
 18 46  1  0  0  0  0
 18 47  1  0  0  0  0
 19 48  1  0  0  0  0
 19 49  1  0  0  0  0
 19 50  1  0  0  0  0
 20 51  1  0  0  0  0
 20 52  1  0  0  0  0
M  END
> <PUBCHEM_COMPOUND_CID>
24798689

> <PUBCHEM_CONFORMER_RMSD>
0.6

> <PUBCHEM_CONFORMER_DIVERSEORDER>
1

> <PUBCHEM_MMFF94_PARTIAL_CHARGES>
6
14 0.14
17 -0.28
20 -0.3
51 0.15
52 0.15
6 0.14

> <PUBCHEM_EFFECTIVE_ROTOR_COUNT>
2

> <PUBCHEM_PHARMACOPHORE_FEATURES>
4
3 10 18 19 hydrophobe
6 1 2 3 4 9 11 rings
6 2 4 10 12 15 16 rings
8 1 3 5 6 7 8 14 17 rings

> <PUBCHEM_HEAVY_ATOM_COUNT>
20

> <PUBCHEM_ATOM_DEF_STEREO_COUNT>
5

> <PUBCHEM_ATOM_UDEF_STEREO_COUNT>
0

> <PUBCHEM_BOND_DEF_STEREO_COUNT>
0

> <PUBCHEM_BOND_UDEF_STEREO_COUNT>
0

> <PUBCHEM_ISOTOPIC_ATOM_COUNT>
0

> <PUBCHEM_COMPONENT_COUNT>
1

> <PUBCHEM_CACTVS_TAUTO_COUNT>
1

> <PUBCHEM_CONFORMER_ID>
017A65E100000001

> <PUBCHEM_MMFF94_ENERGY>
87.9921

> <PUBCHEM_FEATURE_SELFOVERLAP>
20.323

> <PUBCHEM_SHAPE_FINGERPRINT>
10366900 7 18040720255416058160
10863032 1 18338230440876063152
10948715 1 6771867376808983620
11132069 177 18408318917131417233
11370993 70 16732990833454257030
11640471 11 4750866061916391280
12011746 2 18341901835045201373
12119455 92 17676493877567498367
12251169 10 18409165506471865473
12382932 28 18339080393523972681
12403814 3 18260840310048701172
12553582 1 18342166804130231964
12596599 1 18339350899085715803
12633257 1 18411414033568002601
12714826 92 17203620297338737679
12716301 132 18124333845606220680
128620 24 7853574625459736891
13140716 1 18340482275033474305
13172582 1 18410851062377251177
13221675 6 18413672422014448434
13224815 77 18041277651823817375
13296908 3 18201157650603737233
13538477 17 18131628976322670646
13581323 91 18411141363643455068
13675066 3 17894349977866534826
14115302 16 17704070711450136478
14178342 30 18335406977137388307
15209289 33 17775003483813419746
15209294 21 17823411768111929721
15309172 13 18342455967425658155
15375462 189 17704075105317731658
15653759 3 18412260631883617282
15848702 151 17749387130365058023
16752209 62 18059025002399857133
16945 1 18340763835909589181
17349148 13 18334303024455250015
17804303 29 18410288116729145322
1813 80 17203323468540070782
19049666 15 18045214101273049630
192875 21 18261680281614854741
200 152 17531540823224471983
20028762 73 18189889830375267839
20600515 1 18411691106214238964
21267235 1 18342168947361507131
21501502 16 18267860584259457094
22892500 29 17022627480930606376
23184049 29 18054782884666073331
23184049 59 18259981595656776421
2334 1 18196367013964286215
23402539 116 18336841865000866205
23419403 2 15374958596071675733
23559900 14 18337377345087637926
2748010 2 18338509738446701727
296302 2 16153712028949280962
3286 77 17988082171181222443
335352 9 18341898527762199509
465052 167 17917413312501526475
5104073 3 18411416168145669792
69090 78 17821738242515467231
6992083 37 18113905913987357933
7364860 26 18121210983380326780
74978 22 18270963436290883711
84936 31 16443894098116630462
90316 7 18272373091696978849

> <PUBCHEM_SHAPE_MULTIPOLES>
411.59
7.23
2.13
1.36
1.88
0.3
-0.18
-1.11
2.13
-0.7
-0.04
-0.14
-0.16
0.08

> <PUBCHEM_SHAPE_SELFOVERLAP>
876.273

> <PUBCHEM_SHAPE_VOLUME>
225.7

> <PUBCHEM_COORDINATE_TYPE>
2
5
10

$$$$

