441887
  -OEChem-07051212563D

 75 80  0     1  0  0  0  0  0999 V2000
   -3.6075   -0.8831   -0.2831 O   0  0  0  0  0  0  0  0  0  0  0  0
   -5.0311    0.4167    1.1313 O   0  0  0  0  0  0  0  0  0  0  0  0
    6.9321    1.8475    0.8802 O   0  0  0  0  0  0  0  0  0  0  0  0
    7.9116   -0.7948    0.0887 O   0  0  0  0  0  0  0  0  0  0  0  0
   -0.6758    0.8484   -0.1988 C   0  0  1  0  0  0  0  0  0  0  0  0
   -0.0913   -0.5052    0.2774 C   0  0  2  0  0  0  0  0  0  0  0  0
    1.3117   -0.7823   -0.2719 C   0  0  1  0  0  0  0  0  0  0  0  0
   -2.0808    0.7917    0.4721 C   0  0  2  0  0  0  0  0  0  0  0  0
    2.2652    0.3601    0.2106 C   0  0  1  0  0  0  0  0  0  0  0  0
   -2.4335   -0.7110    0.5043 C   0  0  2  0  0  0  0  0  0  0  0  0
    3.7461    0.1296   -0.2709 C   0  0  2  0  0  0  0  0  0  0  0  0
   -1.2221   -1.4846   -0.0174 C   0  0  0  0  0  0  0  0  0  0  0  0
    0.2362    1.9592    0.3440 C   0  0  0  0  0  0  0  0  0  0  0  0
    1.6977    1.7702   -0.1050 C   0  0  0  0  0  0  0  0  0  0  0  0
   -3.2844    1.4350   -0.2262 C   0  0  1  0  0  0  0  0  0  0  0  0
    4.1908   -1.2766    0.2446 C   0  0  1  0  0  0  0  0  0  0  0  0
    1.8281   -2.1589    0.1700 C   0  0  0  0  0  0  0  0  0  0  0  0
   -4.3660    0.3387   -0.1381 C   0  0  1  0  0  0  0  0  0  0  0  0
    3.2751   -2.4003   -0.2538 C   0  0  0  0  0  0  0  0  0  0  0  0
   -0.7592    0.9680   -1.7421 C   0  0  0  0  0  0  0  0  0  0  0  0
    4.6983    1.1793    0.3630 C   0  0  0  0  0  0  0  0  0  0  0  0
    5.6626   -1.5811   -0.0572 C   0  0  0  0  0  0  0  0  0  0  0  0
    3.8486    0.2451   -1.8131 C   0  0  0  0  0  0  0  0  0  0  0  0
    6.1852    0.8984    0.1168 C   0  0  2  0  0  0  0  0  0  0  0  0
   -3.6615    2.7792    0.3849 C   0  0  0  0  0  0  0  0  0  0  0  0
   -5.3860    0.4487   -1.2770 C   0  0  0  0  0  0  0  0  0  0  0  0
    6.5852   -0.5172    0.5351 C   0  0  2  0  0  0  0  0  0  0  0  0
   -6.4952   -0.5906   -1.1309 C   0  0  0  0  0  0  0  0  0  0  0  0
   -6.0131   -0.6003    1.3266 C   0  0  0  0  0  0  0  0  0  0  0  0
   -7.1125   -0.5173    0.2678 C   0  0  2  0  0  0  0  0  0  0  0  0
   -8.1542   -1.6126    0.4683 C   0  0  0  0  0  0  0  0  0  0  0  0
    0.0072   -0.4725    1.3762 H   0  0  0  0  0  0  0  0  0  0  0  0
    1.2702   -0.7954   -1.3651 H   0  0  0  0  0  0  0  0  0  0  0  0
   -2.0000    1.1399    1.5111 H   0  0  0  0  0  0  0  0  0  0  0  0
    2.2861    0.2994    1.3107 H   0  0  0  0  0  0  0  0  0  0  0  0
   -2.6610   -1.0210    1.5326 H   0  0  0  0  0  0  0  0  0  0  0  0
   -1.3116   -1.7250   -1.0817 H   0  0  0  0  0  0  0  0  0  0  0  0
   -1.1006   -2.4292    0.5225 H   0  0  0  0  0  0  0  0  0  0  0  0
    0.2096    1.9662    1.4415 H   0  0  0  0  0  0  0  0  0  0  0  0
   -0.1234    2.9435    0.0211 H   0  0  0  0  0  0  0  0  0  0  0  0
    1.7726    1.9827   -1.1757 H   0  0  0  0  0  0  0  0  0  0  0  0
    2.2986    2.5337    0.4015 H   0  0  0  0  0  0  0  0  0  0  0  0
   -3.0739    1.6072   -1.2844 H   0  0  0  0  0  0  0  0  0  0  0  0
    4.1010   -1.2673    1.3423 H   0  0  0  0  0  0  0  0  0  0  0  0
    1.2001   -2.9506   -0.2548 H   0  0  0  0  0  0  0  0  0  0  0  0
    1.7548   -2.2503    1.2613 H   0  0  0  0  0  0  0  0  0  0  0  0
    3.6060   -3.3606    0.1604 H   0  0  0  0  0  0  0  0  0  0  0  0
    3.3350   -2.4970   -1.3438 H   0  0  0  0  0  0  0  0  0  0  0  0
   -1.0858    1.9726   -2.0351 H   0  0  0  0  0  0  0  0  0  0  0  0
    0.2016    0.8091   -2.2378 H   0  0  0  0  0  0  0  0  0  0  0  0
   -1.4593    0.2487   -2.1788 H   0  0  0  0  0  0  0  0  0  0  0  0
    4.5184    1.2310    1.4460 H   0  0  0  0  0  0  0  0  0  0  0  0
    4.4759    2.1861   -0.0123 H   0  0  0  0  0  0  0  0  0  0  0  0
    5.9352   -2.5582    0.3631 H   0  0  0  0  0  0  0  0  0  0  0  0
    5.8361   -1.6803   -1.1356 H   0  0  0  0  0  0  0  0  0  0  0  0
    3.6257    1.2628   -2.1501 H   0  0  0  0  0  0  0  0  0  0  0  0
    4.8513    0.0127   -2.1824 H   0  0  0  0  0  0  0  0  0  0  0  0
    3.1628   -0.4275   -2.3337 H   0  0  0  0  0  0  0  0  0  0  0  0
    6.4477    1.0745   -0.9316 H   0  0  0  0  0  0  0  0  0  0  0  0
   -2.8460    3.4984    0.2544 H   0  0  0  0  0  0  0  0  0  0  0  0
   -4.5529    3.1915   -0.0980 H   0  0  0  0  0  0  0  0  0  0  0  0
   -3.8640    2.6994    1.4579 H   0  0  0  0  0  0  0  0  0  0  0  0
   -4.8981    0.3098   -2.2489 H   0  0  0  0  0  0  0  0  0  0  0  0
   -5.8463    1.4442   -1.2696 H   0  0  0  0  0  0  0  0  0  0  0  0
    6.5941   -0.5931    1.6294 H   0  0  0  0  0  0  0  0  0  0  0  0
   -7.2630   -0.4194   -1.8946 H   0  0  0  0  0  0  0  0  0  0  0  0
   -6.0848   -1.5923   -1.3107 H   0  0  0  0  0  0  0  0  0  0  0  0
   -6.4410   -0.4506    2.3237 H   0  0  0  0  0  0  0  0  0  0  0  0
   -5.5257   -1.5826    1.3293 H   0  0  0  0  0  0  0  0  0  0  0  0
   -7.6078    0.4582    0.3635 H   0  0  0  0  0  0  0  0  0  0  0  0
    6.7367    1.6990    1.8212 H   0  0  0  0  0  0  0  0  0  0  0  0
    8.1449   -1.6874    0.3963 H   0  0  0  0  0  0  0  0  0  0  0  0
   -8.9505   -1.5324   -0.2792 H   0  0  0  0  0  0  0  0  0  0  0  0
   -7.7072   -2.6087    0.3813 H   0  0  0  0  0  0  0  0  0  0  0  0
   -8.6145   -1.5337    1.4587 H   0  0  0  0  0  0  0  0  0  0  0  0
  1 10  1  0  0  0  0
  1 18  1  0  0  0  0
  2 18  1  0  0  0  0
  2 29  1  0  0  0  0
  3 24  1  0  0  0  0
  3 71  1  0  0  0  0
  4 27  1  0  0  0  0
  4 72  1  0  0  0  0
  5  6  1  0  0  0  0
  5  8  1  0  0  0  0
  5 13  1  0  0  0  0
  5 20  1  0  0  0  0
  6  7  1  0  0  0  0
  6 12  1  0  0  0  0
  6 32  1  0  0  0  0
  7  9  1  0  0  0  0
  7 17  1  0  0  0  0
  7 33  1  0  0  0  0
  8 10  1  0  0  0  0
  8 15  1  0  0  0  0
  8 34  1  0  0  0  0
  9 11  1  0  0  0  0
  9 14  1  0  0  0  0
  9 35  1  0  0  0  0
 10 12  1  0  0  0  0
 10 36  1  0  0  0  0
 11 16  1  0  0  0  0
 11 21  1  0  0  0  0
 11 23  1  0  0  0  0
 12 37  1  0  0  0  0
 12 38  1  0  0  0  0
 13 14  1  0  0  0  0
 13 39  1  0  0  0  0
 13 40  1  0  0  0  0
 14 41  1  0  0  0  0
 14 42  1  0  0  0  0
 15 18  1  0  0  0  0
 15 25  1  0  0  0  0
 15 43  1  0  0  0  0
 16 19  1  0  0  0  0
 16 22  1  0  0  0  0
 16 44  1  0  0  0  0
 17 19  1  0  0  0  0
 17 45  1  0  0  0  0
 17 46  1  0  0  0  0
 18 26  1  0  0  0  0
 19 47  1  0  0  0  0
 19 48  1  0  0  0  0
 20 49  1  0  0  0  0
 20 50  1  0  0  0  0
 20 51  1  0  0  0  0
 21 24  1  0  0  0  0
 21 52  1  0  0  0  0
 21 53  1  0  0  0  0
 22 27  1  0  0  0  0
 22 54  1  0  0  0  0
 22 55  1  0  0  0  0
 23 56  1  0  0  0  0
 23 57  1  0  0  0  0
 23 58  1  0  0  0  0
 24 27  1  0  0  0  0
 24 59  1  0  0  0  0
 25 60  1  0  0  0  0
 25 61  1  0  0  0  0
 25 62  1  0  0  0  0
 26 28  1  0  0  0  0
 26 63  1  0  0  0  0
 26 64  1  0  0  0  0
 27 65  1  0  0  0  0
 28 30  1  0  0  0  0
 28 66  1  0  0  0  0
 28 67  1  0  0  0  0
 29 30  1  0  0  0  0
 29 68  1  0  0  0  0
 29 69  1  0  0  0  0
 30 31  1  0  0  0  0
 30 70  1  0  0  0  0
 31 73  1  0  0  0  0
 31 74  1  0  0  0  0
 31 75  1  0  0  0  0
M  END
> <PUBCHEM_COMPOUND_CID>
441887

> <PUBCHEM_CONFORMER_RMSD>
0.8

> <PUBCHEM_CONFORMER_DIVERSEORDER>
1

> <PUBCHEM_MMFF94_PARTIAL_CHARGES>
11
1 -0.56
10 0.28
18 0.56
2 -0.56
24 0.28
27 0.28
29 0.28
3 -0.68
4 -0.68
71 0.4
72 0.4

> <PUBCHEM_EFFECTIVE_ROTOR_COUNT>
3.2

> <PUBCHEM_PHARMACOPHORE_FEATURES>
12
1 1 acceptor
1 2 acceptor
1 3 acceptor
1 3 donor
1 4 acceptor
1 4 donor
5 1 8 10 15 18 rings
5 5 6 8 10 12 rings
6 11 16 21 22 24 27 rings
6 2 18 26 28 29 30 rings
6 5 6 7 9 13 14 rings
6 7 9 11 16 17 19 rings

> <PUBCHEM_HEAVY_ATOM_COUNT>
31

> <PUBCHEM_ATOM_DEF_STEREO_COUNT>
13

> <PUBCHEM_ATOM_UDEF_STEREO_COUNT>
0

> <PUBCHEM_BOND_DEF_STEREO_COUNT>
0

> <PUBCHEM_BOND_UDEF_STEREO_COUNT>
0

> <PUBCHEM_ISOTOPIC_ATOM_COUNT>
0

> <PUBCHEM_COMPONENT_COUNT>
1

> <PUBCHEM_CACTVS_TAUTO_COUNT>
1

> <PUBCHEM_CONFORMER_ID>
0006BE1F00000001

> <PUBCHEM_MMFF94_ENERGY>
114.8812

> <PUBCHEM_FEATURE_SELFOVERLAP>
61.305

> <PUBCHEM_SHAPE_FINGERPRINT>
10 15 18201723917000164888
10050765 1 18122063366699754811
10299344 5 17748545939608726407
11135609 99 18338795590702611831
11315181 36 17918269862029616301
11646440 116 18259698995435707456
11719270 70 18273216404684333546
11963148 33 18272657822375698595
12166972 35 18408040710683543056
12236239 1 17603585244138812360
12516196 113 18260267451405384929
12596602 18 17749384901224134617
13073987 5 18337109067875352025
13402501 40 18342176674466309650
13533116 47 18113337539812384594
13685833 64 18411980256518592297
13782708 43 18057885934197436726
13811026 1 18272093807073967676
13862211 1 18410572886198960073
13914758 101 15267351742402957949
14170010 4 18413108338379733864
14251764 18 18040997323724693913
14394314 77 18261948652567861393
14849402 71 17895194337898054089
14856354 85 15502378894719036485
15183329 4 18408044021865405458
15196674 1 18338234984961979256
15840311 113 17560794400435716660
15849732 13 17989208127254923647
17492 89 18050005790485975770
1813 80 17275096262621212269
18608769 82 18339080393925256739
19319366 153 18341618118117511966
19377110 9 17894908563900925635
19489759 90 15410894081042428613
19841028 212 17774448298897613122
20511986 3 18270975629539500454
21130935 74 18334853965390429195
21236236 1 18337673122115650025
21267235 1 18409163328992186918
21521721 280 18186802440093140424
21623969 137 18412260648884287759
22149856 69 18337376232464014657
22224240 67 18410295779146129866
23516275 137 16879043348482324639
23522609 53 18118932916058888633
23559900 14 18337961069381300697
23569917 315 18272082816528179106
24771750 20 17840855292184849925
3004659 81 18060701706414107876
3178227 256 18409443661549619785
335352 9 18410572891201056286
3383291 50 18272084977112513467
34797466 226 17458338633350527812
350125 39 18408322207556823321
3545911 37 18411138030348075658
3633792 109 18342748450751825221
4073 2 18130503042489178402
4093350 32 16732982008398860448
4325135 7 18335141998533845671
4340502 62 18411698786137776070
5104073 3 18268988863536107777

> <PUBCHEM_SHAPE_MULTIPOLES>
614.49
20.46
2.19
1.09
4.02
0.24
0.33
-4.65
-2.57
-0.57
-0.21
0.6
0.15
0.52

> <PUBCHEM_SHAPE_SELFOVERLAP>
1318.528

> <PUBCHEM_SHAPE_VOLUME>
338.8

> <PUBCHEM_COORDINATE_TYPE>
2
5
10

$$$$

