45101966
  -OEChem-07051213113D

 68 70  0     1  0  0  0  0  0999 V2000
   -1.2548    0.1614   -0.0969 O   0  0  0  0  0  0  0  0  0  0  0  0
    1.4978    0.8814   -0.3263 O   0  0  0  0  0  0  0  0  0  0  0  0
   -0.4383    3.2099    1.7056 O   0  0  0  0  0  0  0  0  0  0  0  0
   -3.0181   -0.5132    1.3297 O   0  0  0  0  0  0  0  0  0  0  0  0
    3.6203    0.6077    0.6941 O   0  0  0  0  0  0  0  0  0  0  0  0
   -2.3385   -3.9738   -0.8263 O   0  0  0  0  0  0  0  0  0  0  0  0
    2.5808    0.0991   -2.7941 O   0  0  0  0  0  0  0  0  0  0  0  0
   -4.6780   -2.3935   -1.3692 O   0  0  0  0  0  0  0  0  0  0  0  0
    3.8405   -2.4151   -2.1103 O   0  0  0  0  0  0  0  0  0  0  0  0
    3.5010   -3.0765    0.6644 O   0  0  0  0  0  0  0  0  0  0  0  0
   -5.3445    0.9134    1.2629 O   0  0  0  0  0  0  0  0  0  0  0  0
    3.6926    0.2108    3.3940 O   0  0  0  0  0  0  0  0  0  0  0  0
   -2.3030    3.6685   -0.5898 N   0  0  0  0  0  0  0  0  0  0  0  0
    0.6388    4.4350   -0.8323 N   0  0  0  0  0  0  0  0  0  0  0  0
   -0.0686   -2.4260    0.1295 N   0  0  0  0  0  0  0  0  0  0  0  0
   -1.4296    1.5268    0.2881 C   0  0  1  0  0  0  0  0  0  0  0  0
    1.0445    2.1743    0.0816 C   0  0  2  0  0  0  0  0  0  0  0  0
   -0.1605    1.9925    1.0210 C   0  0  1  0  0  0  0  0  0  0  0  0
   -1.7659    2.3599   -0.9635 C   0  0  2  0  0  0  0  0  0  0  0  0
    0.7340    3.0143   -1.1719 C   0  0  1  0  0  0  0  0  0  0  0  0
   -0.5377    2.5090   -1.8796 C   0  0  0  0  0  0  0  0  0  0  0  0
   -1.6556   -0.7240    0.9467 C   0  0  1  0  0  0  0  0  0  0  0  0
    2.9111    0.8674   -0.5191 C   0  0  1  0  0  0  0  0  0  0  0  0
   -1.4558   -2.1860    0.5289 C   0  0  1  0  0  0  0  0  0  0  0  0
   -2.4153   -2.5644   -0.6047 C   0  0  2  0  0  0  0  0  0  0  0  0
    3.3451   -0.1106   -1.6120 C   0  0  1  0  0  0  0  0  0  0  0  0
   -3.8551   -2.2056   -0.2204 C   0  0  1  0  0  0  0  0  0  0  0  0
   -3.9529   -0.7570    0.2730 C   0  0  1  0  0  0  0  0  0  0  0  0
    3.1938   -1.5625   -1.1625 C   0  0  2  0  0  0  0  0  0  0  0  0
    3.8530   -1.7748    0.2018 C   0  0  1  0  0  0  0  0  0  0  0  0
    3.3984   -0.7101    1.2094 C   0  0  1  0  0  0  0  0  0  0  0  0
   -5.3399   -0.4313    0.8202 C   0  0  0  0  0  0  0  0  0  0  0  0
    4.1606   -0.8068    2.5282 C   0  0  0  0  0  0  0  0  0  0  0  0
   -2.2840    1.6280    0.9695 H   0  0  0  0  0  0  0  0  0  0  0  0
    1.8335    2.6702    0.6664 H   0  0  0  0  0  0  0  0  0  0  0  0
    0.1255    1.2612    1.7847 H   0  0  0  0  0  0  0  0  0  0  0  0
   -2.5397    1.8369   -1.5393 H   0  0  0  0  0  0  0  0  0  0  0  0
    1.5533    2.9161   -1.8936 H   0  0  0  0  0  0  0  0  0  0  0  0
   -0.7788    3.1610   -2.7300 H   0  0  0  0  0  0  0  0  0  0  0  0
   -0.3174    1.5270   -2.3206 H   0  0  0  0  0  0  0  0  0  0  0  0
   -1.0439   -0.5378    1.8365 H   0  0  0  0  0  0  0  0  0  0  0  0
    3.2383    1.8584   -0.8579 H   0  0  0  0  0  0  0  0  0  0  0  0
   -1.6726   -2.8296    1.3921 H   0  0  0  0  0  0  0  0  0  0  0  0
   -2.1362   -2.0758   -1.5463 H   0  0  0  0  0  0  0  0  0  0  0  0
    4.3979    0.0690   -1.8655 H   0  0  0  0  0  0  0  0  0  0  0  0
   -4.2116   -2.8970    0.5528 H   0  0  0  0  0  0  0  0  0  0  0  0
   -3.7518   -0.0580   -0.5481 H   0  0  0  0  0  0  0  0  0  0  0  0
    2.1434   -1.8607   -1.1604 H   0  0  0  0  0  0  0  0  0  0  0  0
   -2.5607    4.1863   -1.4288 H   0  0  0  0  0  0  0  0  0  0  0  0
   -3.1598    3.5476   -0.0513 H   0  0  0  0  0  0  0  0  0  0  0  0
    1.5264    4.7566   -0.4486 H   0  0  0  0  0  0  0  0  0  0  0  0
    0.4753    4.9797   -1.6779 H   0  0  0  0  0  0  0  0  0  0  0  0
    4.9440   -1.7516    0.0915 H   0  0  0  0  0  0  0  0  0  0  0  0
    2.3298   -0.8165    1.4352 H   0  0  0  0  0  0  0  0  0  0  0  0
   -1.1571    3.0364    2.3370 H   0  0  0  0  0  0  0  0  0  0  0  0
   -5.5785   -1.0664    1.6799 H   0  0  0  0  0  0  0  0  0  0  0  0
   -6.1111   -0.5550    0.0539 H   0  0  0  0  0  0  0  0  0  0  0  0
    0.5468   -2.2339    0.9180 H   0  0  0  0  0  0  0  0  0  0  0  0
    0.0554   -3.4109   -0.1012 H   0  0  0  0  0  0  0  0  0  0  0  0
    4.0072   -1.7783    3.0077 H   0  0  0  0  0  0  0  0  0  0  0  0
    5.2324   -0.6452    2.3716 H   0  0  0  0  0  0  0  0  0  0  0  0
   -2.5793   -4.4238    0.0013 H   0  0  0  0  0  0  0  0  0  0  0  0
    2.7005    1.0267   -3.0599 H   0  0  0  0  0  0  0  0  0  0  0  0
   -4.3917   -1.7613   -2.0505 H   0  0  0  0  0  0  0  0  0  0  0  0
    4.7793   -2.1654   -2.1519 H   0  0  0  0  0  0  0  0  0  0  0  0
    2.5379   -3.1007    0.7930 H   0  0  0  0  0  0  0  0  0  0  0  0
   -6.2340    1.0986    1.6093 H   0  0  0  0  0  0  0  0  0  0  0  0
    4.1917    0.1328    4.2249 H   0  0  0  0  0  0  0  0  0  0  0  0
  1 16  1  0  0  0  0
  1 22  1  0  0  0  0
  2 17  1  0  0  0  0
  2 23  1  0  0  0  0
  3 18  1  0  0  0  0
  3 55  1  0  0  0  0
  4 22  1  0  0  0  0
  4 28  1  0  0  0  0
  5 23  1  0  0  0  0
  5 31  1  0  0  0  0
  6 25  1  0  0  0  0
  6 62  1  0  0  0  0
  7 26  1  0  0  0  0
  7 63  1  0  0  0  0
  8 27  1  0  0  0  0
  8 64  1  0  0  0  0
  9 29  1  0  0  0  0
  9 65  1  0  0  0  0
 10 30  1  0  0  0  0
 10 66  1  0  0  0  0
 11 32  1  0  0  0  0
 11 67  1  0  0  0  0
 12 33  1  0  0  0  0
 12 68  1  0  0  0  0
 13 19  1  0  0  0  0
 13 49  1  0  0  0  0
 13 50  1  0  0  0  0
 14 20  1  0  0  0  0
 14 51  1  0  0  0  0
 14 52  1  0  0  0  0
 15 24  1  0  0  0  0
 15 58  1  0  0  0  0
 15 59  1  0  0  0  0
 16 18  1  0  0  0  0
 16 19  1  0  0  0  0
 16 34  1  0  0  0  0
 17 18  1  0  0  0  0
 17 20  1  0  0  0  0
 17 35  1  0  0  0  0
 18 36  1  0  0  0  0
 19 21  1  0  0  0  0
 19 37  1  0  0  0  0
 20 21  1  0  0  0  0
 20 38  1  0  0  0  0
 21 39  1  0  0  0  0
 21 40  1  0  0  0  0
 22 24  1  0  0  0  0
 22 41  1  0  0  0  0
 23 26  1  0  0  0  0
 23 42  1  0  0  0  0
 24 25  1  0  0  0  0
 24 43  1  0  0  0  0
 25 27  1  0  0  0  0
 25 44  1  0  0  0  0
 26 29  1  0  0  0  0
 26 45  1  0  0  0  0
 27 28  1  0  0  0  0
 27 46  1  0  0  0  0
 28 32  1  0  0  0  0
 28 47  1  0  0  0  0
 29 30  1  0  0  0  0
 29 48  1  0  0  0  0
 30 31  1  0  0  0  0
 30 53  1  0  0  0  0
 31 33  1  0  0  0  0
 31 54  1  0  0  0  0
 32 56  1  0  0  0  0
 32 57  1  0  0  0  0
 33 60  1  0  0  0  0
 33 61  1  0  0  0  0
M  END
> <PUBCHEM_COMPOUND_CID>
45101966

> <PUBCHEM_CONFORMER_RMSD>
1

> <PUBCHEM_CONFORMER_DIVERSEORDER>
1
84
40
77
86
89
27
88
94
87
15
53
98
28
64
76
50
52
75
2
56
70
29
78
57
42
45
100
51
91
43
97
10
95
103
79
58
25
90
104
105
35
33
14
80
73
61
18
32
49
92
31
12
72
3
5
93
26
11
34
39
85
68
71
102
20
67
4
81
7
38
47
99
19
101
46
55
74
59
21
60
24
54
17
48
23
22
30
82
9
16
37
65
41
36
69
96
63
62
8
13
83
66
44
6

> <PUBCHEM_MMFF94_PARTIAL_CHARGES>
46
1 -0.56
10 -0.68
11 -0.68
12 -0.68
13 -0.99
14 -0.99
15 -0.99
16 0.28
17 0.28
18 0.28
19 0.27
2 -0.56
20 0.27
22 0.56
23 0.56
24 0.27
25 0.28
26 0.28
27 0.28
28 0.28
29 0.28
3 -0.68
30 0.28
31 0.28
32 0.28
33 0.28
4 -0.56
49 0.36
5 -0.56
50 0.36
51 0.36
52 0.36
55 0.4
58 0.36
59 0.36
6 -0.68
62 0.4
63 0.4
64 0.4
65 0.4
66 0.4
67 0.4
68 0.4
7 -0.68
8 -0.68
9 -0.68

> <PUBCHEM_EFFECTIVE_ROTOR_COUNT>
9.6

> <PUBCHEM_PHARMACOPHORE_FEATURES>
29
1 1 acceptor
1 10 acceptor
1 10 donor
1 11 acceptor
1 11 donor
1 12 acceptor
1 12 donor
1 13 cation
1 13 donor
1 14 cation
1 14 donor
1 15 cation
1 15 donor
1 2 acceptor
1 3 acceptor
1 3 donor
1 4 acceptor
1 5 acceptor
1 6 acceptor
1 6 donor
1 7 acceptor
1 7 donor
1 8 acceptor
1 8 donor
1 9 acceptor
1 9 donor
6 16 17 18 19 20 21 rings
6 4 22 24 25 27 28 rings
6 5 23 26 29 30 31 rings

> <PUBCHEM_HEAVY_ATOM_COUNT>
33

> <PUBCHEM_ATOM_DEF_STEREO_COUNT>
15

> <PUBCHEM_ATOM_UDEF_STEREO_COUNT>
0

> <PUBCHEM_BOND_DEF_STEREO_COUNT>
0

> <PUBCHEM_BOND_UDEF_STEREO_COUNT>
0

> <PUBCHEM_ISOTOPIC_ATOM_COUNT>
0

> <PUBCHEM_COMPONENT_COUNT>
1

> <PUBCHEM_CACTVS_TAUTO_COUNT>
1

> <PUBCHEM_CONFORMER_ID>
02B0338E00000001

> <PUBCHEM_MMFF94_ENERGY>
81.3051

> <PUBCHEM_FEATURE_SELFOVERLAP>
147.274

> <PUBCHEM_SHAPE_FINGERPRINT>
11763715 3 13679760421662457005
12156800 1 15188039592262134246
12160290 23 18198336449716936409
12422481 6 18125987507274156609
12553582 1 18270673173763703594
12788726 201 18272922847610957236
13004483 165 18343306993451628536
13583140 156 15719388425959821603
13692114 37 18050862310292082589
14955137 171 18264745750229858147
15420108 30 17394744877849168616
15664445 248 18198607870639820588
16752209 62 18270956963580028858
1813 80 18202001014898655657
20600515 1 18409454652318208747
20764821 26 18341333400144327799
21421861 104 18272370841413463568
23419403 2 17829931712897994353
23557571 272 18335707182376715058
23559900 14 17676753301997494892
238 59 17114653022046281154
3052486 1 18129664248113211458
35225 105 18054791947120655182
463206 1 18272366430297746098

> <PUBCHEM_SHAPE_MULTIPOLES>
593.75
9.14
4.8
2.17
3.71
2.21
-0.54
-6.63
-1.99
1.52
1.56
-2.62
-0.01
-0.64

> <PUBCHEM_SHAPE_SELFOVERLAP>
1223.941

> <PUBCHEM_SHAPE_VOLUME>
333.9

> <PUBCHEM_COORDINATE_TYPE>
2
5
10

$$$$

