441824
  -OEChem-07051212563D

 82 86  0     1  0  0  0  0  0999 V2000
   -3.9552   -0.0637   -0.0043 O   0  0  0  0  0  0  0  0  0  0  0  0
    0.9306   -3.0443   -0.1951 O   0  0  0  0  0  0  0  0  0  0  0  0
    6.6881    0.0475   -2.0351 O   0  0  0  0  0  0  0  0  0  0  0  0
   -6.2950   -1.5960   -0.2875 O   0  0  0  0  0  0  0  0  0  0  0  0
    0.1401    0.9981    0.4742 C   0  0  2  0  0  0  0  0  0  0  0  0
   -0.9078   -0.0384   -0.0706 C   0  0  1  0  0  0  0  0  0  0  0  0
    1.1049    0.2667    1.4587 C   0  0  1  0  0  0  0  0  0  0  0  0
   -1.8952    0.8972   -0.8107 C   0  0  2  0  0  0  0  0  0  0  0  0
    1.8028   -1.0155    0.8528 C   0  0  2  0  0  0  0  0  0  0  0  0
   -0.8083    2.0401    1.1109 C   0  0  0  0  0  0  0  0  0  0  0  0
   -2.0233    2.1036    0.1545 C   0  0  0  0  0  0  0  0  0  0  0  0
   -0.1803   -1.0698   -0.9277 C   0  0  0  0  0  0  0  0  0  0  0  0
   -3.2504    0.3169   -1.2040 C   0  0  2  0  0  0  0  0  0  0  0  0
    3.0838   -0.6687    0.0030 C   0  0  1  0  0  0  0  0  0  0  0  0
    0.8387   -1.8188   -0.0747 C   0  0  0  0  0  0  0  0  0  0  0  0
    2.1184    1.1855    2.1671 C   0  0  0  0  0  0  0  0  0  0  0  0
    0.9220    1.7780   -0.6282 C   0  0  0  0  0  0  0  0  0  0  0  0
   -1.6940   -0.8235    1.0329 C   0  0  0  0  0  0  0  0  0  0  0  0
    3.9087    0.5072    0.5217 C   0  0  0  0  0  0  0  0  0  0  0  0
    2.1601   -1.9353    2.0547 C   0  0  0  0  0  0  0  0  0  0  0  0
   -4.1311    1.3488   -1.9101 C   0  0  0  0  0  0  0  0  0  0  0  0
    4.0276   -1.8762   -0.1993 C   0  0  0  0  0  0  0  0  0  0  0  0
    3.4544    1.2987    1.5102 C   0  0  0  0  0  0  0  0  0  0  0  0
    5.2812    0.7504   -0.1433 C   0  0  0  0  0  0  0  0  0  0  0  0
   -3.0609   -0.9457   -2.0478 C   0  0  0  0  0  0  0  0  0  0  0  0
   -5.5180    0.9703   -1.4475 C   0  0  0  0  0  0  0  0  0  0  0  0
    5.1480   -1.5963   -1.2011 C   0  0  0  0  0  0  0  0  0  0  0  0
   -5.2547    0.5502   -0.0131 C   0  0  1  0  0  0  0  0  0  0  0  0
    5.4017   -0.1064   -1.4358 C   0  0  2  0  0  0  0  0  0  0  0  0
    6.4115    0.4008    0.8512 C   0  0  0  0  0  0  0  0  0  0  0  0
    5.4480    2.2370   -0.5479 C   0  0  0  0  0  0  0  0  0  0  0  0
   -6.2839   -0.4212    0.5310 C   0  0  0  0  0  0  0  0  0  0  0  0
   -7.6898    0.1878    0.5095 C   0  0  0  0  0  0  0  0  0  0  0  0
   -5.9228   -0.8649    1.9514 C   0  0  0  0  0  0  0  0  0  0  0  0
    0.4620   -0.0699    2.2830 H   0  0  0  0  0  0  0  0  0  0  0  0
   -1.4243    1.2443   -1.7404 H   0  0  0  0  0  0  0  0  0  0  0  0
   -0.3482    3.0274    1.2286 H   0  0  0  0  0  0  0  0  0  0  0  0
   -1.1353    1.7253    2.1087 H   0  0  0  0  0  0  0  0  0  0  0  0
   -2.9411    2.1072    0.7485 H   0  0  0  0  0  0  0  0  0  0  0  0
   -2.0037    3.0416   -0.4127 H   0  0  0  0  0  0  0  0  0  0  0  0
    0.3338   -0.6304   -1.7864 H   0  0  0  0  0  0  0  0  0  0  0  0
   -0.8435   -1.8378   -1.3249 H   0  0  0  0  0  0  0  0  0  0  0  0
    2.7418   -0.3981   -1.0021 H   0  0  0  0  0  0  0  0  0  0  0  0
    2.2899    0.8125    3.1854 H   0  0  0  0  0  0  0  0  0  0  0  0
    1.6971    2.1894    2.2910 H   0  0  0  0  0  0  0  0  0  0  0  0
    0.2738    2.4066   -1.2473 H   0  0  0  0  0  0  0  0  0  0  0  0
    1.6413    2.4739   -0.1859 H   0  0  0  0  0  0  0  0  0  0  0  0
    1.4600    1.1346   -1.3204 H   0  0  0  0  0  0  0  0  0  0  0  0
   -2.2834   -0.1773    1.6899 H   0  0  0  0  0  0  0  0  0  0  0  0
   -2.3389   -1.6035    0.6200 H   0  0  0  0  0  0  0  0  0  0  0  0
   -1.0244   -1.3763    1.6990 H   0  0  0  0  0  0  0  0  0  0  0  0
    1.2741   -2.1391    2.6677 H   0  0  0  0  0  0  0  0  0  0  0  0
    2.5347   -2.9145    1.7383 H   0  0  0  0  0  0  0  0  0  0  0  0
    2.9196   -1.4851    2.7018 H   0  0  0  0  0  0  0  0  0  0  0  0
   -4.0270    1.3320   -2.9997 H   0  0  0  0  0  0  0  0  0  0  0  0
   -3.9234    2.3732   -1.5837 H   0  0  0  0  0  0  0  0  0  0  0  0
    3.4762   -2.7587   -0.5407 H   0  0  0  0  0  0  0  0  0  0  0  0
    4.4916   -2.1520    0.7563 H   0  0  0  0  0  0  0  0  0  0  0  0
    4.0777    2.1059    1.8852 H   0  0  0  0  0  0  0  0  0  0  0  0
   -3.9932   -1.1902   -2.5729 H   0  0  0  0  0  0  0  0  0  0  0  0
   -2.3001   -0.8152   -2.8237 H   0  0  0  0  0  0  0  0  0  0  0  0
   -2.8639   -1.8380   -1.4510 H   0  0  0  0  0  0  0  0  0  0  0  0
   -6.2274    1.7997   -1.5238 H   0  0  0  0  0  0  0  0  0  0  0  0
   -5.8968    0.1460   -2.0618 H   0  0  0  0  0  0  0  0  0  0  0  0
    6.0615   -2.1113   -0.8778 H   0  0  0  0  0  0  0  0  0  0  0  0
    4.8982   -2.0555   -2.1666 H   0  0  0  0  0  0  0  0  0  0  0  0
   -5.1972    1.4398    0.6270 H   0  0  0  0  0  0  0  0  0  0  0  0
    4.6770    0.2577   -2.1759 H   0  0  0  0  0  0  0  0  0  0  0  0
    6.3359    0.9980    1.7677 H   0  0  0  0  0  0  0  0  0  0  0  0
    6.3852   -0.6519    1.1506 H   0  0  0  0  0  0  0  0  0  0  0  0
    7.4013    0.6032    0.4277 H   0  0  0  0  0  0  0  0  0  0  0  0
    5.4660    2.9039    0.3208 H   0  0  0  0  0  0  0  0  0  0  0  0
    6.3876    2.4034   -1.0868 H   0  0  0  0  0  0  0  0  0  0  0  0
    4.6292    2.5616   -1.2008 H   0  0  0  0  0  0  0  0  0  0  0  0
    7.3410   -0.4266   -1.4939 H   0  0  0  0  0  0  0  0  0  0  0  0
   -8.4211   -0.5081    0.9373 H   0  0  0  0  0  0  0  0  0  0  0  0
   -7.7322    1.1214    1.0799 H   0  0  0  0  0  0  0  0  0  0  0  0
   -8.0277    0.3843   -0.5137 H   0  0  0  0  0  0  0  0  0  0  0  0
   -4.9680   -1.4022    1.9722 H   0  0  0  0  0  0  0  0  0  0  0  0
   -6.6708   -1.5634    2.3447 H   0  0  0  0  0  0  0  0  0  0  0  0
   -5.8584   -0.0118    2.6347 H   0  0  0  0  0  0  0  0  0  0  0  0
   -6.9675   -2.2032    0.0656 H   0  0  0  0  0  0  0  0  0  0  0  0
  1 13  1  0  0  0  0
  1 28  1  0  0  0  0
  2 15  2  0  0  0  0
  3 29  1  0  0  0  0
  3 75  1  0  0  0  0
  4 32  1  0  0  0  0
  4 82  1  0  0  0  0
  5  6  1  0  0  0  0
  5  7  1  0  0  0  0
  5 10  1  0  0  0  0
  5 17  1  0  0  0  0
  6  8  1  0  0  0  0
  6 12  1  0  0  0  0
  6 18  1  0  0  0  0
  7  9  1  0  0  0  0
  7 16  1  0  0  0  0
  7 35  1  0  0  0  0
  8 11  1  0  0  0  0
  8 13  1  0  0  0  0
  8 36  1  0  0  0  0
  9 14  1  0  0  0  0
  9 15  1  0  0  0  0
  9 20  1  0  0  0  0
 10 11  1  0  0  0  0
 10 37  1  0  0  0  0
 10 38  1  0  0  0  0
 11 39  1  0  0  0  0
 11 40  1  0  0  0  0
 12 15  1  0  0  0  0
 12 41  1  0  0  0  0
 12 42  1  0  0  0  0
 13 21  1  0  0  0  0
 13 25  1  0  0  0  0
 14 19  1  0  0  0  0
 14 22  1  0  0  0  0
 14 43  1  0  0  0  0
 16 23  1  0  0  0  0
 16 44  1  0  0  0  0
 16 45  1  0  0  0  0
 17 46  1  0  0  0  0
 17 47  1  0  0  0  0
 17 48  1  0  0  0  0
 18 49  1  0  0  0  0
 18 50  1  0  0  0  0
 18 51  1  0  0  0  0
 19 23  2  0  0  0  0
 19 24  1  0  0  0  0
 20 52  1  0  0  0  0
 20 53  1  0  0  0  0
 20 54  1  0  0  0  0
 21 26  1  0  0  0  0
 21 55  1  0  0  0  0
 21 56  1  0  0  0  0
 22 27  1  0  0  0  0
 22 57  1  0  0  0  0
 22 58  1  0  0  0  0
 23 59  1  0  0  0  0
 24 29  1  0  0  0  0
 24 30  1  0  0  0  0
 24 31  1  0  0  0  0
 25 60  1  0  0  0  0
 25 61  1  0  0  0  0
 25 62  1  0  0  0  0
 26 28  1  0  0  0  0
 26 63  1  0  0  0  0
 26 64  1  0  0  0  0
 27 29  1  0  0  0  0
 27 65  1  0  0  0  0
 27 66  1  0  0  0  0
 28 32  1  0  0  0  0
 28 67  1  0  0  0  0
 29 68  1  0  0  0  0
 30 69  1  0  0  0  0
 30 70  1  0  0  0  0
 30 71  1  0  0  0  0
 31 72  1  0  0  0  0
 31 73  1  0  0  0  0
 31 74  1  0  0  0  0
 32 33  1  0  0  0  0
 32 34  1  0  0  0  0
 33 76  1  0  0  0  0
 33 77  1  0  0  0  0
 33 78  1  0  0  0  0
 34 79  1  0  0  0  0
 34 80  1  0  0  0  0
 34 81  1  0  0  0  0
M  END
> <PUBCHEM_COMPOUND_CID>
441824

> <PUBCHEM_CONFORMER_RMSD>
0.8

> <PUBCHEM_CONFORMER_DIVERSEORDER>
1

> <PUBCHEM_MMFF94_PARTIAL_CHARGES>
19
1 -0.56
12 0.06
13 0.28
14 0.14
15 0.45
16 0.14
19 -0.28
2 -0.57
23 -0.29
24 0.14
28 0.28
29 0.28
3 -0.68
32 0.28
4 -0.68
59 0.15
75 0.4
82 0.4
9 0.06

> <PUBCHEM_EFFECTIVE_ROTOR_COUNT>
4.8

> <PUBCHEM_PHARMACOPHORE_FEATURES>
13
1 1 acceptor
1 2 acceptor
1 3 acceptor
1 3 donor
1 4 acceptor
1 4 donor
3 24 30 31 hydrophobe
3 32 33 34 hydrophobe
5 1 13 21 26 28 rings
5 5 6 8 10 11 rings
6 14 19 22 24 27 29 rings
6 5 6 7 9 12 15 rings
6 7 9 14 16 19 23 rings

> <PUBCHEM_HEAVY_ATOM_COUNT>
34

> <PUBCHEM_ATOM_DEF_STEREO_COUNT>
9

> <PUBCHEM_ATOM_UDEF_STEREO_COUNT>
0

> <PUBCHEM_BOND_DEF_STEREO_COUNT>
0

> <PUBCHEM_BOND_UDEF_STEREO_COUNT>
0

> <PUBCHEM_ISOTOPIC_ATOM_COUNT>
0

> <PUBCHEM_COMPONENT_COUNT>
1

> <PUBCHEM_CACTVS_TAUTO_COUNT>
2

> <PUBCHEM_CONFORMER_ID>
0006BDE000000001

> <PUBCHEM_MMFF94_ENERGY>
155.2618

> <PUBCHEM_FEATURE_SELFOVERLAP>
66.081

> <PUBCHEM_SHAPE_FINGERPRINT>
10190108 129 18188192282978434897
10290309 65 18271812384349904587
10674148 151 16805315600897400768
10930396 42 10159136040065494758
11796584 16 14273741711750155236
11963148 33 17704079451836062451
12166972 35 17418093239319774924
12236239 1 16298389046023599585
12553582 1 18042140863373366625
12730499 353 18411418419178303338
12788726 201 18187936135033751361
13782708 43 18269833280256723118
13914758 101 8862953766570023551
14790565 3 18260265269736292857
14840074 17 18113900464027339125
14856354 85 17846775188122944731
14955137 171 18334854975045243241
15142383 8 4823216091587297106
15183329 4 16298106492767705845
15475509 8 16732972137556471664
15537594 2 18261119569012262775
15788980 27 7637393056296669401
15799311 1 17313098636020575583
15840311 113 17531249418711336337
17980427 23 14548730733872158511
18608769 82 18339362967954470675
19319366 153 18336274521687155326
19377110 9 15267347327192388641
20105231 36 18187074053640881807
20567600 234 13686293565456586820
21033650 10 15696027265528852317
21344244 181 17894900846346517638
21521721 280 18336261263006255936
21781051 124 18343577430884901234
221357 26 17894911858515589040
23522609 53 16951388962826252761
23559900 14 17096102298275439600
23569914 152 16888371871361715805
23569917 315 17917147299545167538
23569943 247 17459186455278778783
24771750 20 17981879744854539652
3004659 81 17822291319193416036
3178227 256 18411142420179303200
34797466 226 17988636398082166788
350125 39 17968095360770875577
4073 2 17024325032552821778
4258327 124 17273676686595239004
4325135 7 17060338522376830061
4340502 62 17418379094978537170
437795 51 18409443653001902619
44317340 157 18410293610161154828
46194498 28 18334010618997949932
474113 269 8934459366715753428
484989 97 18410282610898401418
5104073 3 17987527077250376753
53794403 172 17915451702175106884
5381727 24 16845290519821715352
54039377 194 17896032316926169854
6086070 43 16443644496804905897
8509985 295 8070020095226537202

> <PUBCHEM_SHAPE_MULTIPOLES>
676.23
16.9
2.2
1.89
10.17
0.37
0.06
-0.27
-2.55
-1.2
0.07
-0.12
0.02
1

> <PUBCHEM_SHAPE_SELFOVERLAP>
1449.841

> <PUBCHEM_SHAPE_VOLUME>
372.8

> <PUBCHEM_COORDINATE_TYPE>
2
5
10

$$$$

