119339
  -OEChem-07051212502D

 85 88  0     1  0  0  0  0  0999 V2000
    8.3100    2.1853    0.0000 O   0  0  0  0  0  0  0  0  0  0  0  0
   11.7951    2.9900    0.0000 O   0  0  0  0  0  0  0  0  0  0  0  0
    9.5888    0.4252    0.0000 O   0  0  0  0  0  0  0  0  0  0  0  0
    8.3100    0.4532    0.0000 O   0  0  0  0  0  0  0  0  0  0  0  0
    6.3100   -1.2788    0.0000 O   0  0  0  0  0  0  0  0  0  0  0  0
    8.6106    4.1533    0.0000 O   0  0  0  0  0  0  0  0  0  0  0  0
    5.3100    0.4532    0.0000 O   0  0  0  0  0  0  0  0  0  0  0  0
    4.8100   -0.4128    0.0000 O   0  0  0  0  0  0  0  0  0  0  0  0
    7.8100   -2.1448    0.0000 O   0  0  0  0  0  0  0  0  0  0  0  0
    3.3100   -3.0109    0.0000 O   0  0  0  0  0  0  0  0  0  0  0  0
    2.3100   -1.2788    0.0000 O   0  0  0  0  0  0  0  0  0  0  0  0
    2.3100    0.4532    0.0000 O   0  0  0  0  0  0  0  0  0  0  0  0
    7.8100    3.0513    0.0000 O   0  0  0  0  0  0  0  0  0  0  0  0
    3.8100   -3.8769    0.0000 O   0  0  0  0  0  0  0  0  0  0  0  0
   11.7951    1.3806    0.0000 N   0  0  0  0  0  0  0  0  0  0  0  0
    6.3100    2.1853    0.0000 N   0  0  0  0  0  0  0  0  0  0  0  0
   13.3787    2.1853    0.0000 N   0  0  0  0  0  0  0  0  0  0  0  0
    5.3100   -3.0109    0.0000 N   0  0  0  0  0  0  0  0  0  0  0  0
    9.8978    2.9943    0.0000 C   0  0  2  0  0  0  0  0  0  0  0  0
    9.3100    2.1853    0.0000 C   0  0  2  0  0  0  0  0  0  0  0  0
   10.8488    2.6853    0.0000 C   0  0  1  0  0  0  0  0  0  0  0  0
   10.8488    1.6853    0.0000 C   0  0  1  0  0  0  0  0  0  0  0  0
    9.8978    1.3763    0.0000 C   0  0  1  0  0  0  0  0  0  0  0  0
    7.8100    1.3193    0.0000 C   0  0  2  0  0  0  0  0  0  0  0  0
    9.5888    3.9454    0.0000 C   0  0  0  0  0  0  0  0  0  0  0  0
    6.8100    1.3193    0.0000 C   0  0  1  0  0  0  0  0  0  0  0  0
    6.3100    0.4532    0.0000 C   0  0  1  0  0  0  0  0  0  0  0  0
    6.8100   -0.4128    0.0000 C   0  0  1  0  0  0  0  0  0  0  0  0
    7.8100   -0.4128    0.0000 C   0  0  1  0  0  0  0  0  0  0  0  0
   12.3787    2.1853    0.0000 C   0  0  0  0  0  0  0  0  0  0  0  0
    5.3100   -1.2788    0.0000 C   0  0  2  0  0  0  0  0  0  0  0  0
    4.8100   -2.1448    0.0000 C   0  0  1  0  0  0  0  0  0  0  0  0
    8.3100   -1.2788    0.0000 C   0  0  0  0  0  0  0  0  0  0  0  0
    3.8100   -2.1448    0.0000 C   0  0  1  0  0  0  0  0  0  0  0  0
    3.3100   -1.2788    0.0000 C   0  0  1  0  0  0  0  0  0  0  0  0
    3.8100   -0.4128    0.0000 C   0  0  1  0  0  0  0  0  0  0  0  0
    6.8100    3.0513    0.0000 C   0  0  0  0  0  0  0  0  0  0  0  0
   13.8787    1.3193    0.0000 C   0  0  0  0  0  0  0  0  0  0  0  0
   13.8787    3.0513    0.0000 C   0  0  0  0  0  0  0  0  0  0  0  0
    3.3100    0.4532    0.0000 C   0  0  0  0  0  0  0  0  0  0  0  0
    6.3100    3.9173    0.0000 C   0  0  0  0  0  0  0  0  0  0  0  0
    4.8100   -3.8769    0.0000 C   0  0  0  0  0  0  0  0  0  0  0  0
    5.3100   -4.7429    0.0000 C   0  0  0  0  0  0  0  0  0  0  0  0
    9.2854    3.0913    0.0000 H   0  0  0  0  0  0  0  0  0  0  0  0
    9.0285    2.7377    0.0000 H   0  0  0  0  0  0  0  0  0  0  0  0
   10.8499    3.5353    0.0000 H   0  0  0  0  0  0  0  0  0  0  0  0
   10.8499    0.8353    0.0000 H   0  0  0  0  0  0  0  0  0  0  0  0
   10.3362    0.9379    0.0000 H   0  0  0  0  0  0  0  0  0  0  0  0
    7.5000    1.8562    0.0000 H   0  0  0  0  0  0  0  0  0  0  0  0
   10.2027    4.0316    0.0000 H   0  0  0  0  0  0  0  0  0  0  0  0
    9.6104    4.5650    0.0000 H   0  0  0  0  0  0  0  0  0  0  0  0
    6.1900    1.3193    0.0000 H   0  0  0  0  0  0  0  0  0  0  0  0
    6.0000   -0.0837    0.0000 H   0  0  0  0  0  0  0  0  0  0  0  0
    6.1900   -0.4128    0.0000 H   0  0  0  0  0  0  0  0  0  0  0  0
    8.4300   -0.4128    0.0000 H   0  0  0  0  0  0  0  0  0  0  0  0
   10.0036   -0.0355    0.0000 H   0  0  0  0  0  0  0  0  0  0  0  0
    5.6200   -1.8158    0.0000 H   0  0  0  0  0  0  0  0  0  0  0  0
    5.4300   -2.1448    0.0000 H   0  0  0  0  0  0  0  0  0  0  0  0
    5.6900    2.1853    0.0000 H   0  0  0  0  0  0  0  0  0  0  0  0
    8.7850   -1.6774    0.0000 H   0  0  0  0  0  0  0  0  0  0  0  0
    8.7850   -0.8803    0.0000 H   0  0  0  0  0  0  0  0  0  0  0  0
    3.1900   -2.1448    0.0000 H   0  0  0  0  0  0  0  0  0  0  0  0
    3.0000   -1.8158    0.0000 H   0  0  0  0  0  0  0  0  0  0  0  0
    8.4190    4.7429    0.0000 H   0  0  0  0  0  0  0  0  0  0  0  0
    4.1200    0.1241    0.0000 H   0  0  0  0  0  0  0  0  0  0  0  0
    5.0000    0.9902    0.0000 H   0  0  0  0  0  0  0  0  0  0  0  0
    5.9300   -3.0109    0.0000 H   0  0  0  0  0  0  0  0  0  0  0  0
    3.8926    0.6653    0.0000 H   0  0  0  0  0  0  0  0  0  0  0  0
    3.2023    1.0638    0.0000 H   0  0  0  0  0  0  0  0  0  0  0  0
   13.3417    1.0093    0.0000 H   0  0  0  0  0  0  0  0  0  0  0  0
   14.1887    0.7823    0.0000 H   0  0  0  0  0  0  0  0  0  0  0  0
   14.4156    1.6293    0.0000 H   0  0  0  0  0  0  0  0  0  0  0  0
   14.4156    2.7413    0.0000 H   0  0  0  0  0  0  0  0  0  0  0  0
   14.1887    3.5882    0.0000 H   0  0  0  0  0  0  0  0  0  0  0  0
   13.3417    3.3613    0.0000 H   0  0  0  0  0  0  0  0  0  0  0  0
    8.1200   -2.6818    0.0000 H   0  0  0  0  0  0  0  0  0  0  0  0
    2.6900   -3.0109    0.0000 H   0  0  0  0  0  0  0  0  0  0  0  0
    2.0000   -1.8158    0.0000 H   0  0  0  0  0  0  0  0  0  0  0  0
    6.8469    4.2273    0.0000 H   0  0  0  0  0  0  0  0  0  0  0  0
    6.0000    4.4543    0.0000 H   0  0  0  0  0  0  0  0  0  0  0  0
    5.7731    3.6073    0.0000 H   0  0  0  0  0  0  0  0  0  0  0  0
    2.0000    0.9902    0.0000 H   0  0  0  0  0  0  0  0  0  0  0  0
    4.7731   -5.0529    0.0000 H   0  0  0  0  0  0  0  0  0  0  0  0
    5.6200   -5.2799    0.0000 H   0  0  0  0  0  0  0  0  0  0  0  0
    5.8469   -4.4329    0.0000 H   0  0  0  0  0  0  0  0  0  0  0  0
 20  1  1  6  0  0  0
 24  1  1  6  0  0  0
  2 21  1  0  0  0  0
  2 30  1  0  0  0  0
 23  3  1  1  0  0  0
  3 56  1  0  0  0  0
  4 24  1  0  0  0  0
  4 29  1  0  0  0  0
 28  5  1  1  0  0  0
 31  5  1  1  0  0  0
  6 25  1  0  0  0  0
  6 64  1  0  0  0  0
 27  7  1  1  0  0  0
  7 66  1  0  0  0  0
  8 31  1  0  0  0  0
  8 36  1  0  0  0  0
  9 33  1  0  0  0  0
  9 76  1  0  0  0  0
 34 10  1  6  0  0  0
 10 77  1  0  0  0  0
 35 11  1  6  0  0  0
 11 78  1  0  0  0  0
 12 40  1  0  0  0  0
 12 82  1  0  0  0  0
 13 37  2  0  0  0  0
 14 42  2  0  0  0  0
 15 22  1  0  0  0  0
 15 30  2  0  0  0  0
 26 16  1  1  0  0  0
 16 37  1  0  0  0  0
 16 59  1  0  0  0  0
 17 30  1  0  0  0  0
 17 38  1  0  0  0  0
 17 39  1  0  0  0  0
 32 18  1  6  0  0  0
 18 42  1  0  0  0  0
 18 67  1  0  0  0  0
 19 20  1  0  0  0  0
 19 21  1  0  0  0  0
 19 25  1  1  0  0  0
 19 44  1  0  0  0  0
 20 23  1  0  0  0  0
 20 45  1  0  0  0  0
 21 22  1  0  0  0  0
 21 46  1  1  0  0  0
 22 23  1  0  0  0  0
 22 47  1  1  0  0  0
 23 48  1  0  0  0  0
 24 26  1  0  0  0  0
 24 49  1  0  0  0  0
 25 50  1  0  0  0  0
 25 51  1  0  0  0  0
 26 27  1  0  0  0  0
 26 52  1  0  0  0  0
 27 28  1  0  0  0  0
 27 53  1  0  0  0  0
 28 29  1  0  0  0  0
 28 54  1  0  0  0  0
 29 33  1  6  0  0  0
 29 55  1  0  0  0  0
 31 32  1  0  0  0  0
 31 57  1  0  0  0  0
 32 34  1  0  0  0  0
 32 58  1  0  0  0  0
 33 60  1  0  0  0  0
 33 61  1  0  0  0  0
 34 35  1  0  0  0  0
 34 62  1  0  0  0  0
 35 36  1  0  0  0  0
 35 63  1  0  0  0  0
 36 40  1  1  0  0  0
 36 65  1  0  0  0  0
 37 41  1  0  0  0  0
 38 70  1  0  0  0  0
 38 71  1  0  0  0  0
 38 72  1  0  0  0  0
 39 73  1  0  0  0  0
 39 74  1  0  0  0  0
 39 75  1  0  0  0  0
 40 68  1  0  0  0  0
 40 69  1  0  0  0  0
 41 79  1  0  0  0  0
 41 80  1  0  0  0  0
 41 81  1  0  0  0  0
 42 43  1  0  0  0  0
 43 83  1  0  0  0  0
 43 84  1  0  0  0  0
 43 85  1  0  0  0  0
M  END
> <PUBCHEM_COMPOUND_CID>
119339

> <PUBCHEM_COMPOUND_CANONICALIZED>
1

> <PUBCHEM_CACTVS_COMPLEXITY>
1020

> <PUBCHEM_CACTVS_HBOND_ACCEPTOR>
15

> <PUBCHEM_CACTVS_HBOND_DONOR>
9

> <PUBCHEM_CACTVS_ROTATABLE_BOND>
10

> <PUBCHEM_CACTVS_SUBSKEYS>
AAADcfB7vAAAAAAAAAAAAAAAAAAAAYIAAAAkSAAAAAAQAAAAAAAAHgAQCAAADTzxgAcDCAPABgAoAAEQNAAAAAEAAAABAIAIAAATEAIAgAAvQAAHFgCXAAHwcA8OAAAAAAAAAAAAAAAAAAAAAKUABCgAAA==

> <PUBCHEM_IUPAC_OPENEYE_NAME>
N-[(2S,3R,4S,5S,6R)-2-[(2R,3S,4S,5R,6R)-6-[[(3aR,4R,5R,6S,6aS)-2-(dimethylamino)-4-hydroxy-6-(hydroxymethyl)-4,5,6,6a-tetrahydro-3aH-cyclopenta[d]oxazol-5-yl]oxy]-5-acetamido-4-hydroxy-2-(hydroxymethyl)tetrahydropyran-3-yl]oxy-4,5-dihydroxy-6-(hydroxymethyl)tetrahydropyran-3-yl]acetamide

> <PUBCHEM_IUPAC_CAS_NAME>
N-[(2S,3R,4S,5S,6R)-2-[[(2R,3S,4S,5R,6R)-6-[[(3aR,4R,5R,6S,6aS)-2-(dimethylamino)-4-hydroxy-6-(hydroxymethyl)-4,5,6,6a-tetrahydro-3aH-cyclopenta[d]oxazol-5-yl]oxy]-5-acetamido-4-hydroxy-2-(hydroxymethyl)-3-oxanyl]oxy]-4,5-dihydroxy-6-(hydroxymethyl)-3-oxanyl]acetamide

> <PUBCHEM_IUPAC_NAME>
N-[(2S,3R,4S,5S,6R)-2-[(2R,3S,4S,5R,6R)-6-[[(3aR,4R,5R,6S,6aS)-2-(dimethylamino)-4-hydroxy-6-(hydroxymethyl)-4,5,6,6a-tetrahydro-3aH-cyclopenta[d][1,3]oxazol-5-yl]oxy]-5-acetamido-4-hydroxy-2-(hydroxymethyl)oxan-3-yl]oxy-4,5-dihydroxy-6-(hydroxymethyl)oxan-3-yl]acetamide

> <PUBCHEM_IUPAC_SYSTEMATIC_NAME>
N-[(2S,3R,4S,5S,6R)-2-[(2R,3S,4S,5R,6R)-6-[[(3aR,4R,5R,6S,6aS)-2-(dimethylamino)-6-(hydroxymethyl)-4-oxidanyl-4,5,6,6a-tetrahydro-3aH-cyclopenta[d][1,3]oxazol-5-yl]oxy]-5-acetamido-2-(hydroxymethyl)-4-oxidanyl-oxan-3-yl]oxy-6-(hydroxymethyl)-4,5-bis(oxidanyl)oxan-3-yl]ethanamide

> <PUBCHEM_IUPAC_TRADITIONAL_NAME>
N-[(2S,3R,4S,5S,6R)-2-[(2R,3S,4S,5R,6R)-6-[[(3aR,4R,5R,6S,6aS)-2-(dimethylamino)-4-hydroxy-6-methylol-4,5,6,6a-tetrahydro-3aH-cyclopenta[d]oxazol-5-yl]oxy]-5-acetamido-4-hydroxy-2-methylol-tetrahydropyran-3-yl]oxy-4,5-dihydroxy-6-methylol-tetrahydropyran-3-yl]acetamide

> <PUBCHEM_IUPAC_INCHI>
InChI=1S/C25H42N4O14/c1-8(33)26-14-17(36)16(35)11(6-31)39-23(14)42-22-12(7-32)40-24(15(19(22)38)27-9(2)34)41-21-10(5-30)20-13(18(21)37)28-25(43-20)29(3)4/h10-24,30-32,35-38H,5-7H2,1-4H3,(H,26,33)(H,27,34)/t10-,11+,12+,13+,14+,15+,16+,17-,18+,19-,20-,21+,22+,23-,24-/m0/s1

> <PUBCHEM_IUPAC_INCHIKEY>
MDWNFWDBQGOKNZ-XYUDZHFQSA-N

> <PUBCHEM_XLOGP3_AA>
-5.7

> <PUBCHEM_EXACT_MASS>
622.269752

> <PUBCHEM_MOLECULAR_FORMULA>
C25H42N4O14

> <PUBCHEM_MOLECULAR_WEIGHT>
622.61938

> <PUBCHEM_OPENEYE_CAN_SMILES>
CC(=O)NC1C(C(C(OC1OC2C(OC(C(C2O)NC(=O)C)OC3C(C4C(C3O)N=C(O4)N(C)C)CO)CO)CO)O)O

> <PUBCHEM_OPENEYE_ISO_SMILES>
CC(=O)N[C@@H]1[C@@H]([C@@H]([C@H](O[C@H]1O[C@@H]2[C@H](O[C@H]([C@@H]([C@@H]2O)NC(=O)C)O[C@@H]3[C@H]([C@H]4[C@@H]([C@H]3O)N=C(O4)N(C)C)CO)CO)CO)O)O

> <PUBCHEM_CACTVS_TPSA>
262

> <PUBCHEM_MONOISOTOPIC_WEIGHT>
622.269752

> <PUBCHEM_TOTAL_CHARGE>
0

> <PUBCHEM_HEAVY_ATOM_COUNT>
43

> <PUBCHEM_ATOM_DEF_STEREO_COUNT>
15

> <PUBCHEM_ATOM_UDEF_STEREO_COUNT>
0

> <PUBCHEM_BOND_DEF_STEREO_COUNT>
0

> <PUBCHEM_BOND_UDEF_STEREO_COUNT>
0

> <PUBCHEM_ISOTOPIC_ATOM_COUNT>
0

> <PUBCHEM_COMPONENT_COUNT>
1

> <PUBCHEM_CACTVS_TAUTO_COUNT>
4

> <PUBCHEM_COORDINATE_TYPE>
1
5
255

> <PUBCHEM_BONDANNOTATIONS>
20  1  6
24  1  6
34  10  6
35  11  6
26  16  5
32  18  6
19  25  5
21  46  5
22  47  5
29  33  6
23  3  5
36  40  5
28  5  5
31  5  5
27  7  5

$$$$

