14477879
  -OEChem-07051213103D

 44 44  0     1  0  0  0  0  0999 V2000
    3.4007    1.8304    0.1647 O   0  0  0  0  0  0  0  0  0  0  0  0
    0.7580    1.3286   -1.3657 O   0  0  0  0  0  0  0  0  0  0  0  0
   -5.7241   -2.2826   -0.7725 O   0  0  0  0  0  0  0  0  0  0  0  0
   -7.1342   -0.6383    0.9697 O   0  0  0  0  0  0  0  0  0  0  0  0
    4.2086   -0.4314    0.4065 C   0  0  0  0  0  0  0  0  0  0  0  0
    3.0831    0.4694   -0.1176 C   0  0  1  0  0  0  0  0  0  0  0  0
    5.5755   -0.0377   -0.1659 C   0  0  0  0  0  0  0  0  0  0  0  0
    1.7145    0.1230    0.4739 C   0  0  0  0  0  0  0  0  0  0  0  0
    6.7259   -0.8977    0.3672 C   0  0  0  0  0  0  0  0  0  0  0  0
    0.5567    0.6712   -0.3447 C   0  0  0  0  0  0  0  0  0  0  0  0
    8.0999   -0.4683   -0.1476 C   0  0  0  0  0  0  0  0  0  0  0  0
   -0.8440    0.3250    0.1392 C   0  0  0  0  0  0  0  0  0  0  0  0
   -1.9557    0.8455   -0.7740 C   0  0  0  0  0  0  0  0  0  0  0  0
   -3.3366    0.4468   -0.3112 C   0  0  0  0  0  0  0  0  0  0  0  0
    9.2087   -1.3086    0.4675 C   0  0  0  0  0  0  0  0  0  0  0  0
   -3.9046   -0.7464   -0.7577 C   0  0  0  0  0  0  0  0  0  0  0  0
   -4.0443    1.2718    0.5630 C   0  0  0  0  0  0  0  0  0  0  0  0
   -5.1801   -1.1147   -0.3297 C   0  0  0  0  0  0  0  0  0  0  0  0
   -5.3199    0.9037    0.9906 C   0  0  0  0  0  0  0  0  0  0  0  0
   -5.8879   -0.2897    0.5445 C   0  0  0  0  0  0  0  0  0  0  0  0
    3.9925   -1.4779    0.1614 H   0  0  0  0  0  0  0  0  0  0  0  0
    4.2552   -0.3533    1.5001 H   0  0  0  0  0  0  0  0  0  0  0  0
    3.0546    0.3719   -1.2093 H   0  0  0  0  0  0  0  0  0  0  0  0
    5.5467   -0.1142   -1.2598 H   0  0  0  0  0  0  0  0  0  0  0  0
    5.7891    1.0110    0.0731 H   0  0  0  0  0  0  0  0  0  0  0  0
    1.5896   -0.9653    0.5055 H   0  0  0  0  0  0  0  0  0  0  0  0
    1.6212    0.5238    1.4893 H   0  0  0  0  0  0  0  0  0  0  0  0
    6.5468   -1.9454    0.0957 H   0  0  0  0  0  0  0  0  0  0  0  0
    6.7234   -0.8512    1.4635 H   0  0  0  0  0  0  0  0  0  0  0  0
    8.2739    0.5868    0.0928 H   0  0  0  0  0  0  0  0  0  0  0  0
    8.1329   -0.5630   -1.2391 H   0  0  0  0  0  0  0  0  0  0  0  0
   -0.9075   -0.7670    0.2144 H   0  0  0  0  0  0  0  0  0  0  0  0
   -0.9613    0.7404    1.1469 H   0  0  0  0  0  0  0  0  0  0  0  0
   -1.7991    0.4821   -1.7984 H   0  0  0  0  0  0  0  0  0  0  0  0
   -1.8970    1.9396   -0.8464 H   0  0  0  0  0  0  0  0  0  0  0  0
    3.4626    1.9276    1.1303 H   0  0  0  0  0  0  0  0  0  0  0  0
    9.0792   -2.3679    0.2237 H   0  0  0  0  0  0  0  0  0  0  0  0
   10.1829   -0.9885    0.0849 H   0  0  0  0  0  0  0  0  0  0  0  0
    9.2213   -1.2054    1.5572 H   0  0  0  0  0  0  0  0  0  0  0  0
   -3.3507   -1.3892   -1.4376 H   0  0  0  0  0  0  0  0  0  0  0  0
   -3.6113    2.2029    0.9189 H   0  0  0  0  0  0  0  0  0  0  0  0
   -5.8599    1.5557    1.6721 H   0  0  0  0  0  0  0  0  0  0  0  0
   -5.0925   -2.7208   -1.3683 H   0  0  0  0  0  0  0  0  0  0  0  0
   -7.4691    0.0513    1.5683 H   0  0  0  0  0  0  0  0  0  0  0  0
  1  6  1  0  0  0  0
  1 36  1  0  0  0  0
  2 10  2  0  0  0  0
  3 18  1  0  0  0  0
  3 43  1  0  0  0  0
  4 20  1  0  0  0  0
  4 44  1  0  0  0  0
  5  6  1  0  0  0  0
  5  7  1  0  0  0  0
  5 21  1  0  0  0  0
  5 22  1  0  0  0  0
  6  8  1  0  0  0  0
  6 23  1  0  0  0  0
  7  9  1  0  0  0  0
  7 24  1  0  0  0  0
  7 25  1  0  0  0  0
  8 10  1  0  0  0  0
  8 26  1  0  0  0  0
  8 27  1  0  0  0  0
  9 11  1  0  0  0  0
  9 28  1  0  0  0  0
  9 29  1  0  0  0  0
 10 12  1  0  0  0  0
 11 15  1  0  0  0  0
 11 30  1  0  0  0  0
 11 31  1  0  0  0  0
 12 13  1  0  0  0  0
 12 32  1  0  0  0  0
 12 33  1  0  0  0  0
 13 14  1  0  0  0  0
 13 34  1  0  0  0  0
 13 35  1  0  0  0  0
 14 16  2  0  0  0  0
 14 17  1  0  0  0  0
 15 37  1  0  0  0  0
 15 38  1  0  0  0  0
 15 39  1  0  0  0  0
 16 18  1  0  0  0  0
 16 40  1  0  0  0  0
 17 19  2  0  0  0  0
 17 41  1  0  0  0  0
 18 20  2  0  0  0  0
 19 20  1  0  0  0  0
 19 42  1  0  0  0  0
M  END
> <PUBCHEM_COMPOUND_CID>
14477879

> <PUBCHEM_CONFORMER_RMSD>
1

> <PUBCHEM_CONFORMER_DIVERSEORDER>
1
147
53
230
107
5
130
405
184
11
154
387
75
109
232
8
205
356
391
168
79
76
116
210
400
227
131
294
142
415
187
275
129
296
244
148
371
113
401
92
167
18
57
421
36
180
100
412
220
124
126
137
428
226
248
117
404
260
306
191
48
96
430
32
17
97
425
183
392
2
340
134
111
282
23
45
208
146
343
43
25
42
145
349
346
157
206
9
16
50
115
254
101
83
420
263
372
56
104
406
300
6
311
214
10
281
267
44
122
26
330
407
155
269
413
218
178
221
125
424
423
374
353
377
236
156
334
98
78
84
200
82
417
211
27
88
316
367
159
182
325
293
170
327
15
181
307
231
250
7
385
12
66
247
383
375
253
54
171
19
382
138
324
339
169
63
435
198
279
120
46
94
321
264
431
29
141
365
422
323
14
225
337
21
284
174
403
245
360
348
418
67
292
190
287
313
213
326
303
240
158
110
309
161
366
99
289
368
150
37
114
64
419
310
176
345
80
72
85
207
338
432
314
274
71
70
398
217
329
433
394
22
195
203
55
172
266
239
112
216
344
152
332
408
322
370
315
212
3
271
305
90
258
312
242
136
277
28
233
35
149
59
135
20
358
164
246
68
30
128
243
62
77
259
229
261
40
333
153
286
24
399
257
74
106
4
297
204
65
362
434
373
86
87
335
165
34
427
143
223
127
133
222
52
378
342
317
390
429
409
416
341
179
273
308
144
393
61
298
319
199
241
118
302
81
151
58
320
380
73
89
350
384
379
278
119
163
173
189
395
361
238
215
93
291
51
197
201
363
224
196
102
376
364
140
301
194
352
33
91
13
185
166
132
235
328
290
31
121
188
347
381
41
60
386
177
209
304
186
39
219
234
295
397
228
410
139
285
252
192
95
402
108
283
272
331
162
369
355
268
47
103
249
359
160
105
411
256
237
262
396
69
414
255
351
193
175
276
265
336
38
123
354
202
49
389
270
288
426
251
357
280
388
299
318

> <PUBCHEM_MMFF94_PARTIAL_CHARGES>
21
1 -0.68
10 0.45
12 0.06
13 0.14
14 -0.14
16 -0.15
17 -0.15
18 0.08
19 -0.15
2 -0.57
20 0.08
3 -0.53
36 0.4
4 -0.53
40 0.15
41 0.15
42 0.15
43 0.45
44 0.45
6 0.28
8 0.06

> <PUBCHEM_EFFECTIVE_ROTOR_COUNT>
9

> <PUBCHEM_PHARMACOPHORE_FEATURES>
8
1 1 acceptor
1 1 donor
1 15 hydrophobe
1 2 acceptor
1 3 donor
1 4 donor
4 5 7 9 11 hydrophobe
6 14 16 17 18 19 20 rings

> <PUBCHEM_HEAVY_ATOM_COUNT>
20

> <PUBCHEM_ATOM_DEF_STEREO_COUNT>
0

> <PUBCHEM_ATOM_UDEF_STEREO_COUNT>
1

> <PUBCHEM_BOND_DEF_STEREO_COUNT>
0

> <PUBCHEM_BOND_UDEF_STEREO_COUNT>
0

> <PUBCHEM_ISOTOPIC_ATOM_COUNT>
0

> <PUBCHEM_COMPONENT_COUNT>
1

> <PUBCHEM_CACTVS_TAUTO_COUNT>
88

> <PUBCHEM_CONFORMER_ID>
00DCEA3700000001

> <PUBCHEM_MMFF94_ENERGY>
28.4536

> <PUBCHEM_FEATURE_SELFOVERLAP>
40.6

> <PUBCHEM_SHAPE_FINGERPRINT>
10 15 16298107553481982336
10066227 49 14979407274409647784
10087517 78 8502382130548878643
10299344 5 18411416211749411118
10968037 39 11239997850374221521
11315181 36 18335139787158522481
11524674 6 17095526179688961222
12091667 2 17632577179799251533
12236239 1 18410008814800567461
125118 31 8790591625534928582
12596602 18 18040438767549125904
12616971 3 16443354130554782364
13288520 33 18413390934538081293
13668630 136 16988840554045697923
13673619 4 18201722860280253436
13685833 64 18413389843822005800
13968360 50 13542469782976400096
14123256 10 16415479363617710074
1420 363 17704353260036867169
14251764 18 18409729543769463420
14251764 46 18410292527359884435
14344974 204 17677335978715810903
14350574 20 18201722860195493324
14617042 71 14996868511718812074
14729087 3 8070026666705984434
14849402 71 18041846087237336832
15048467 5 8502655909080565172
15183329 4 17917716803454566962
15348495 7 16660656098298938130
15461852 350 11095870580133531696
155225 1 7420954158468525539
15716309 27 18411417301980118204
17093844 174 15936412251870080667
17780758 139 18186521021077767209
1818759 1 18187081807080308838
195137 175 7997963596980588162
20281389 69 5617540678998517642
21150785 3 14620793799566344698
21267235 1 18060416910847591164
22224240 67 14490196016222264444
23035841 295 18412261740138004430
23522609 53 18126255684647743804
23559900 14 16772943701563098301
246663 6 18273212015417180162
2767999 5 6988318330869167506
300161 21 8502658103498019829
33532 11 18340490067154493858
5104073 3 17751071424108858025
5969126 39 17275109457119545972
67123 10 18410292511467100248

> <PUBCHEM_SHAPE_MULTIPOLES>
388.11
25.12
1.47
0.94
37.15
0.24
0.04
12.07
-4.83
-1.11
0.18
-0.75
-0.06
-1.04

> <PUBCHEM_SHAPE_SELFOVERLAP>
772.51

> <PUBCHEM_SHAPE_VOLUME>
229.7

> <PUBCHEM_COORDINATE_TYPE>
2
5
10

$$$$

