16421
  -OEChem-07051213052D

 35 36  0     1  0  0  0  0  0999 V2000
    4.5000    0.6340    0.0000 S   0  0  0  0  0  0  0  0  0  0  0  0
    4.0000    1.5000    0.0000 P   0  0  3  0  0  0  0  0  0  0  0  0
    3.1340    1.0000    0.0000 O   0  0  0  0  0  0  0  0  0  0  0  0
    3.5000    2.3660    0.0000 O   0  0  0  0  0  0  0  0  0  0  0  0
    2.2680   -3.5000    0.0000 O   0  5  0  0  0  0  0  0  0  0  0  0
    4.0000   -3.5000    0.0000 O   0  0  0  0  0  0  0  0  0  0  0  0
    3.1340   -3.0000    0.0000 N   0  3  0  0  0  0  0  0  0  0  0  0
    4.8660    2.0000    0.0000 C   0  0  0  0  0  0  0  0  0  0  0  0
    3.1340    0.0000    0.0000 C   0  0  0  0  0  0  0  0  0  0  0  0
    5.7320    1.5000    0.0000 C   0  0  0  0  0  0  0  0  0  0  0  0
    4.8660    3.0000    0.0000 C   0  0  0  0  0  0  0  0  0  0  0  0
    2.5000    2.3660    0.0000 C   0  0  0  0  0  0  0  0  0  0  0  0
    6.5981    2.0000    0.0000 C   0  0  0  0  0  0  0  0  0  0  0  0
    5.7320    3.5000    0.0000 C   0  0  0  0  0  0  0  0  0  0  0  0
    2.2680   -0.5000    0.0000 C   0  0  0  0  0  0  0  0  0  0  0  0
    4.0000   -0.5000    0.0000 C   0  0  0  0  0  0  0  0  0  0  0  0
    6.5981    3.0000    0.0000 C   0  0  0  0  0  0  0  0  0  0  0  0
    3.1340   -2.0000    0.0000 C   0  0  0  0  0  0  0  0  0  0  0  0
    2.2680   -1.5000    0.0000 C   0  0  0  0  0  0  0  0  0  0  0  0
    4.0000   -1.5000    0.0000 C   0  0  0  0  0  0  0  0  0  0  0  0
    2.0000    3.2320    0.0000 C   0  0  0  0  0  0  0  0  0  0  0  0
    5.7320    0.8800    0.0000 H   0  0  0  0  0  0  0  0  0  0  0  0
    4.3291    3.3100    0.0000 H   0  0  0  0  0  0  0  0  0  0  0  0
    1.9174    2.1540    0.0000 H   0  0  0  0  0  0  0  0  0  0  0  0
    2.6077    1.7554    0.0000 H   0  0  0  0  0  0  0  0  0  0  0  0
    7.1350    1.6900    0.0000 H   0  0  0  0  0  0  0  0  0  0  0  0
    5.7320    4.1200    0.0000 H   0  0  0  0  0  0  0  0  0  0  0  0
    1.7310   -0.1900    0.0000 H   0  0  0  0  0  0  0  0  0  0  0  0
    4.5369   -0.1900    0.0000 H   0  0  0  0  0  0  0  0  0  0  0  0
    7.1350    3.3100    0.0000 H   0  0  0  0  0  0  0  0  0  0  0  0
    1.7310   -1.8100    0.0000 H   0  0  0  0  0  0  0  0  0  0  0  0
    4.5369   -1.8100    0.0000 H   0  0  0  0  0  0  0  0  0  0  0  0
    2.5369    3.5420    0.0000 H   0  0  0  0  0  0  0  0  0  0  0  0
    1.6900    3.7690    0.0000 H   0  0  0  0  0  0  0  0  0  0  0  0
    1.4631    2.9220    0.0000 H   0  0  0  0  0  0  0  0  0  0  0  0
  1  2  2  0  0  0  0
  2  3  1  0  0  0  0
  2  4  1  0  0  0  0
  2  8  1  0  0  0  0
  3  9  1  0  0  0  0
  4 12  1  0  0  0  0
  5  7  1  0  0  0  0
  6  7  2  0  0  0  0
  7 18  1  0  0  0  0
  8 10  2  0  0  0  0
  8 11  1  0  0  0  0
  9 15  2  0  0  0  0
  9 16  1  0  0  0  0
 10 13  1  0  0  0  0
 10 22  1  0  0  0  0
 11 14  2  0  0  0  0
 11 23  1  0  0  0  0
 12 21  1  0  0  0  0
 12 24  1  0  0  0  0
 12 25  1  0  0  0  0
 13 17  2  0  0  0  0
 13 26  1  0  0  0  0
 14 17  1  0  0  0  0
 14 27  1  0  0  0  0
 15 19  1  0  0  0  0
 15 28  1  0  0  0  0
 16 20  2  0  0  0  0
 16 29  1  0  0  0  0
 17 30  1  0  0  0  0
 18 19  2  0  0  0  0
 18 20  1  0  0  0  0
 19 31  1  0  0  0  0
 20 32  1  0  0  0  0
 21 33  1  0  0  0  0
 21 34  1  0  0  0  0
 21 35  1  0  0  0  0
M  CHG  2   5  -1   7   1
M  END
> <PUBCHEM_COMPOUND_CID>
16421

> <PUBCHEM_COMPOUND_CANONICALIZED>
1

> <PUBCHEM_CACTVS_COMPLEXITY>
387

> <PUBCHEM_CACTVS_HBOND_ACCEPTOR>
5

> <PUBCHEM_CACTVS_HBOND_DONOR>
0

> <PUBCHEM_CACTVS_ROTATABLE_BOND>
5

> <PUBCHEM_CACTVS_SUBSKEYS>
AAADccByOAJAAAAAAAAAAAAAAAAAAAAAAAAwYAAAAAAAAAABQAAAHggEACAACAyhkAIyxoAQQRCBACRCQwCCAAAgIgAoiAAGbIoIJiKAkZOAMABkwBEIyAewQAAAAEAAAAAAAAAAgAAAAAAAAAAAAAAAAA==

> <PUBCHEM_IUPAC_OPENEYE_NAME>
ethoxy-(4-nitrophenoxy)-phenyl-thioxo-$l^{5}-phosphane

> <PUBCHEM_IUPAC_CAS_NAME>
ethoxy-(4-nitrophenoxy)-phenyl-sulfanylidenephosphorane

> <PUBCHEM_IUPAC_NAME>
ethoxy-(4-nitrophenoxy)-phenyl-sulfanylidene-$l^{5}-phosphane

> <PUBCHEM_IUPAC_SYSTEMATIC_NAME>
ethoxy-(4-nitrophenoxy)-phenyl-sulfanylidene-$l^{5}-phosphane

> <PUBCHEM_IUPAC_TRADITIONAL_NAME>
ethoxy-(4-nitrophenoxy)-phenyl-thioxo-phosphorane

> <PUBCHEM_IUPAC_INCHI>
InChI=1S/C14H14NO4PS/c1-2-18-20(21,14-6-4-3-5-7-14)19-13-10-8-12(9-11-13)15(16)17/h3-11H,2H2,1H3

> <PUBCHEM_IUPAC_INCHIKEY>
AIGRXSNSLVJMEA-UHFFFAOYSA-N

> <PUBCHEM_XLOGP3>
4.4

> <PUBCHEM_EXACT_MASS>
323.038116

> <PUBCHEM_MOLECULAR_FORMULA>
C14H14NO4PS

> <PUBCHEM_MOLECULAR_WEIGHT>
323.304022

> <PUBCHEM_OPENEYE_CAN_SMILES>
CCOP(=S)(C1=CC=CC=C1)OC2=CC=C(C=C2)[N+](=O)[O-]

> <PUBCHEM_OPENEYE_ISO_SMILES>
CCOP(=S)(C1=CC=CC=C1)OC2=CC=C(C=C2)[N+](=O)[O-]

> <PUBCHEM_CACTVS_TPSA>
96.4

> <PUBCHEM_MONOISOTOPIC_WEIGHT>
323.038116

> <PUBCHEM_TOTAL_CHARGE>
0

> <PUBCHEM_HEAVY_ATOM_COUNT>
21

> <PUBCHEM_ATOM_DEF_STEREO_COUNT>
0

> <PUBCHEM_ATOM_UDEF_STEREO_COUNT>
1

> <PUBCHEM_BOND_DEF_STEREO_COUNT>
0

> <PUBCHEM_BOND_UDEF_STEREO_COUNT>
0

> <PUBCHEM_ISOTOPIC_ATOM_COUNT>
0

> <PUBCHEM_COMPONENT_COUNT>
1

> <PUBCHEM_CACTVS_TAUTO_COUNT>
1

> <PUBCHEM_COORDINATE_TYPE>
1
5
255

> <PUBCHEM_BONDANNOTATIONS>
10  13  8
11  14  8
13  17  8
14  17  8
15  19  8
16  20  8
18  19  8
18  20  8
2  4  3
8  10  8
8  11  8
9  15  8
9  16  8

$$$$

