440969
  -OEChem-07051212513D

 31 30  0     1  0  0  0  0  0999 V2000
   -4.2993   -0.0584    0.1527 P   0  0  0  0  0  0  0  0  0  0  0  0
    0.8403   -1.1747   -1.1549 O   0  0  0  0  0  0  0  0  0  0  0  0
    2.2102    1.3791    1.0697 O   0  0  0  0  0  0  0  0  0  0  0  0
   -0.4460    1.3601   -1.1475 O   0  0  0  0  0  0  0  0  0  0  0  0
    3.4945   -1.1559    1.0268 O   0  0  0  0  0  0  0  0  0  0  0  0
   -2.8228    0.5953    0.1249 O   0  0  0  0  0  0  0  0  0  0  0  0
    5.8504   -0.4008   -0.1787 O   0  0  0  0  0  0  0  0  0  0  0  0
   -4.2218   -1.1365    1.3555 O   0  0  0  0  0  0  0  0  0  0  0  0
   -4.3024   -0.9818   -1.1749 O   0  0  0  0  0  0  0  0  0  0  0  0
   -5.4297    0.9245    0.2437 O   0  0  0  0  0  0  0  0  0  0  0  0
    0.8766   -0.3102   -0.0200 C   0  0  1  0  0  0  0  0  0  0  0  0
    2.1659    0.5266   -0.0743 C   0  0  2  0  0  0  0  0  0  0  0  0
   -0.4096    0.5391    0.0267 C   0  0  2  0  0  0  0  0  0  0  0  0
    3.4516   -0.3221   -0.1383 C   0  0  1  0  0  0  0  0  0  0  0  0
   -1.7000   -0.2792    0.0393 C   0  0  0  0  0  0  0  0  0  0  0  0
    4.7419    0.4948   -0.1508 C   0  0  0  0  0  0  0  0  0  0  0  0
    0.8785   -0.9419    0.8757 H   0  0  0  0  0  0  0  0  0  0  0  0
    2.1513    1.1707   -0.9614 H   0  0  0  0  0  0  0  0  0  0  0  0
   -0.3928    1.2142    0.8898 H   0  0  0  0  0  0  0  0  0  0  0  0
    3.4430   -0.9863   -1.0104 H   0  0  0  0  0  0  0  0  0  0  0  0
   -1.7036   -0.9586    0.8970 H   0  0  0  0  0  0  0  0  0  0  0  0
   -1.7888   -0.8627   -0.8826 H   0  0  0  0  0  0  0  0  0  0  0  0
    4.8435    1.1117    0.7477 H   0  0  0  0  0  0  0  0  0  0  0  0
    4.7938    1.1396   -1.0327 H   0  0  0  0  0  0  0  0  0  0  0  0
    0.7890   -0.6155   -1.9489 H   0  0  0  0  0  0  0  0  0  0  0  0
    2.2689    0.8115    1.8573 H   0  0  0  0  0  0  0  0  0  0  0  0
   -1.2518    1.9025   -1.0985 H   0  0  0  0  0  0  0  0  0  0  0  0
    2.8525   -1.8744    0.8989 H   0  0  0  0  0  0  0  0  0  0  0  0
    5.7838   -0.9708    0.6065 H   0  0  0  0  0  0  0  0  0  0  0  0
   -5.0333   -1.6273    1.6057 H   0  0  0  0  0  0  0  0  0  0  0  0
   -5.1351   -1.4263   -1.4417 H   0  0  0  0  0  0  0  0  0  0  0  0
  1  6  1  0  0  0  0
  1  8  1  0  0  0  0
  1  9  1  0  0  0  0
  1 10  2  0  0  0  0
  2 11  1  0  0  0  0
  2 25  1  0  0  0  0
  3 12  1  0  0  0  0
  3 26  1  0  0  0  0
  4 13  1  0  0  0  0
  4 27  1  0  0  0  0
  5 14  1  0  0  0  0
  5 28  1  0  0  0  0
  6 15  1  0  0  0  0
  7 16  1  0  0  0  0
  7 29  1  0  0  0  0
  8 30  1  0  0  0  0
  9 31  1  0  0  0  0
 11 12  1  0  0  0  0
 11 13  1  0  0  0  0
 11 17  1  0  0  0  0
 12 14  1  0  0  0  0
 12 18  1  0  0  0  0
 13 15  1  0  0  0  0
 13 19  1  0  0  0  0
 14 16  1  0  0  0  0
 14 20  1  0  0  0  0
 15 21  1  0  0  0  0
 15 22  1  0  0  0  0
 16 23  1  0  0  0  0
 16 24  1  0  0  0  0
M  END
> <PUBCHEM_COMPOUND_CID>
440969

> <PUBCHEM_CONFORMER_RMSD>
0.8

> <PUBCHEM_CONFORMER_DIVERSEORDER>
2
66
27
68
45
19
62
32
18
34
25
49
41
13
42
38
4
37
14
70
58
8
43
63
16
72
64
40
55
15
24
21
65
61
31
60
30
23
47
26
51
9
22
57
20
7
71
3
69
36
50
67
56
1
39
29
28
46
17
48
11
54
5
33
52
53
12
10
6
35
59
44

> <PUBCHEM_MMFF94_PARTIAL_CHARGES>
23
1 1.51
10 -0.7
11 0.28
12 0.28
13 0.28
14 0.28
15 0.28
16 0.28
2 -0.68
25 0.4
26 0.4
27 0.4
28 0.4
29 0.4
3 -0.68
30 0.5
31 0.5
4 -0.68
5 -0.68
6 -0.55
7 -0.68
8 -0.77
9 -0.77

> <PUBCHEM_EFFECTIVE_ROTOR_COUNT>
7

> <PUBCHEM_PHARMACOPHORE_FEATURES>
14
1 10 acceptor
1 2 acceptor
1 2 donor
1 3 acceptor
1 3 donor
1 4 acceptor
1 4 donor
1 5 acceptor
1 5 donor
1 7 acceptor
1 7 donor
1 8 acceptor
1 9 acceptor
4 1 8 9 10 anion

> <PUBCHEM_HEAVY_ATOM_COUNT>
16

> <PUBCHEM_ATOM_DEF_STEREO_COUNT>
4

> <PUBCHEM_ATOM_UDEF_STEREO_COUNT>
0

> <PUBCHEM_BOND_DEF_STEREO_COUNT>
0

> <PUBCHEM_BOND_UDEF_STEREO_COUNT>
0

> <PUBCHEM_ISOTOPIC_ATOM_COUNT>
0

> <PUBCHEM_COMPONENT_COUNT>
1

> <PUBCHEM_CACTVS_TAUTO_COUNT>
1

> <PUBCHEM_CONFORMER_ID>
0006BA8900000002

> <PUBCHEM_MMFF94_ENERGY>
0.4015

> <PUBCHEM_FEATURE_SELFOVERLAP>
71.1

> <PUBCHEM_SHAPE_FINGERPRINT>
114248 4 12103843458192005809
12251169 10 18333452032108529174
12507557 5 16805324375362651585
12815109 37 17989768908149379917
14123238 8 18410575084694746918
14251718 22 16415476030322168210
14252887 29 17968089854917902110
17834072 33 18114181895917388772
17834076 25 17846497036970671885
187816 3 15698277819702093280
20279233 1 18335693954172783791
20645477 56 5617244919298145090
220451 1 16558747923191977906
22485316 2 17775567541694082755
23035841 295 17418373605624963978
23402539 116 18413110558814321181
23557571 272 18201156662682606117
23559900 14 17632294541234511320
26918003 58 18410290311626271401
2916195 48 7276825758207993018
42788 4 18409165515104114825
4463277 17 18335137588198693752

> <PUBCHEM_SHAPE_MULTIPOLES>
280.3
11.94
1.17
1
1.47
0.04
0
-1.06
-0.98
0.14
-0.03
0.37
-0.15
0.05

> <PUBCHEM_SHAPE_SELFOVERLAP>
522.331

> <PUBCHEM_SHAPE_VOLUME>
175.7

> <PUBCHEM_COORDINATE_TYPE>
2
5
10

$$$$

