114909
  -OEChem-07051212592D

 52 56  0     1  0  0  0  0  0999 V2000
    2.9180    0.8177    0.0000 O   0  0  0  0  0  0  0  0  0  0  0  0
    2.0000   -1.7308    0.0000 O   0  0  0  0  0  0  0  0  0  0  0  0
    4.7689   -0.8560    0.0000 O   0  0  0  0  0  0  0  0  0  0  0  0
    4.6744    3.9719    0.0000 O   0  0  0  0  0  0  0  0  0  0  0  0
    5.5161   -0.6823    0.0000 O   0  0  0  0  0  0  0  0  0  0  0  0
    5.6405   -3.8193    0.0000 O   0  0  0  0  0  0  0  0  0  0  0  0
    3.8372   -4.8790    0.0000 O   0  0  0  0  0  0  0  0  0  0  0  0
    3.7841   -0.6823    0.0000 C   0  0  1  0  0  0  0  0  0  0  0  0
    2.9180   -0.1823    0.0000 C   0  0  1  0  0  0  0  0  0  0  0  0
    3.8001   -1.7238    0.0000 C   0  0  0  0  0  0  0  0  0  0  0  0
    2.0080   -0.6892    0.0000 C   0  0  0  0  0  0  0  0  0  0  0  0
    4.6501   -0.1823    0.0000 C   0  0  0  0  0  0  0  0  0  0  0  0
    4.6501    0.8177    0.0000 C   0  0  0  0  0  0  0  0  0  0  0  0
    3.7841    1.3177    0.0000 C   0  0  0  0  0  0  0  0  0  0  0  0
    2.9021   -2.2516    0.0000 C   0  0  0  0  0  0  0  0  0  0  0  0
    3.7680    2.3592    0.0000 C   0  0  0  0  0  0  0  0  0  0  0  0
    4.7520   -2.2444    0.0000 C   0  0  0  0  0  0  0  0  0  0  0  0
    4.6660    2.8870    0.0000 C   0  0  0  0  0  0  0  0  0  0  0  0
    3.7348    4.5144    0.0000 C   0  0  0  0  0  0  0  0  0  0  0  0
    5.5601    1.3245    0.0000 C   0  0  0  0  0  0  0  0  0  0  0  0
    2.8937   -3.3365    0.0000 C   0  0  0  0  0  0  0  0  0  0  0  0
    5.5681    2.3661    0.0000 C   0  0  0  0  0  0  0  0  0  0  0  0
    2.8161    2.8798    0.0000 C   0  0  0  0  0  0  0  0  0  0  0  0
    4.7688   -3.3293    0.0000 C   0  0  0  0  0  0  0  0  0  0  0  0
    2.7993    3.9647    0.0000 C   0  0  0  0  0  0  0  0  0  0  0  0
    3.8334   -3.8790    0.0000 C   0  0  0  0  0  0  0  0  0  0  0  0
    3.2314    5.3785    0.0000 C   0  0  0  0  0  0  0  0  0  0  0  0
    4.2314    5.3824    0.0000 C   0  0  0  0  0  0  0  0  0  0  0  0
    5.6521   -4.8192    0.0000 C   0  0  0  0  0  0  0  0  0  0  0  0
    2.9731   -5.3824    0.0000 C   0  0  0  0  0  0  0  0  0  0  0  0
    2.1852    0.2484    0.0000 H   0  0  0  0  0  0  0  0  0  0  0  0
    1.8035   -0.1039    0.0000 H   0  0  0  0  0  0  0  0  0  0  0  0
    1.3964   -0.7905    0.0000 H   0  0  0  0  0  0  0  0  0  0  0  0
    5.2829   -1.9242    0.0000 H   0  0  0  0  0  0  0  0  0  0  0  0
    4.9809   -1.4386    0.0000 H   0  0  0  0  0  0  0  0  0  0  0  0
    6.0934    1.0084    0.0000 H   0  0  0  0  0  0  0  0  0  0  0  0
    2.3556   -3.6445    0.0000 H   0  0  0  0  0  0  0  0  0  0  0  0
    6.1062    2.6741    0.0000 H   0  0  0  0  0  0  0  0  0  0  0  0
    2.2852    2.5595    0.0000 H   0  0  0  0  0  0  0  0  0  0  0  0
    2.2589    4.2685    0.0000 H   0  0  0  0  0  0  0  0  0  0  0  0
    3.7672    5.6906    0.0000 H   0  0  0  0  0  0  0  0  0  0  0  0
    4.7696    5.0744    0.0000 H   0  0  0  0  0  0  0  0  0  0  0  0
    4.5394    5.9205    0.0000 H   0  0  0  0  0  0  0  0  0  0  0  0
    3.6933    5.6903    0.0000 H   0  0  0  0  0  0  0  0  0  0  0  0
    2.9194    5.9142    0.0000 H   0  0  0  0  0  0  0  0  0  0  0  0
    2.6957    5.0664    0.0000 H   0  0  0  0  0  0  0  0  0  0  0  0
    5.0321   -4.8264    0.0000 H   0  0  0  0  0  0  0  0  0  0  0  0
    5.6592   -5.4392    0.0000 H   0  0  0  0  0  0  0  0  0  0  0  0
    6.2720   -4.8120    0.0000 H   0  0  0  0  0  0  0  0  0  0  0  0
    2.6610   -4.8466    0.0000 H   0  0  0  0  0  0  0  0  0  0  0  0
    2.4374   -5.6944    0.0000 H   0  0  0  0  0  0  0  0  0  0  0  0
    3.2852   -5.9181    0.0000 H   0  0  0  0  0  0  0  0  0  0  0  0
  1  9  1  0  0  0  0
  1 14  1  0  0  0  0
  2 11  1  0  0  0  0
  2 15  1  0  0  0  0
  8  3  1  6  0  0  0
  3 35  1  0  0  0  0
  4 18  1  0  0  0  0
  4 19  1  0  0  0  0
  5 12  2  0  0  0  0
  6 24  1  0  0  0  0
  6 29  1  0  0  0  0
  7 26  1  0  0  0  0
  7 30  1  0  0  0  0
  8  9  1  0  0  0  0
  8 10  1  0  0  0  0
  8 12  1  0  0  0  0
  9 11  1  0  0  0  0
  9 31  1  6  0  0  0
 10 15  1  0  0  0  0
 10 17  2  0  0  0  0
 11 32  1  0  0  0  0
 11 33  1  0  0  0  0
 12 13  1  0  0  0  0
 13 14  2  0  0  0  0
 13 20  1  0  0  0  0
 14 16  1  0  0  0  0
 15 21  2  0  0  0  0
 16 18  2  0  0  0  0
 16 23  1  0  0  0  0
 17 24  1  0  0  0  0
 17 34  1  0  0  0  0
 18 22  1  0  0  0  0
 19 25  1  0  0  0  0
 19 27  1  0  0  0  0
 19 28  1  0  0  0  0
 20 22  2  0  0  0  0
 20 36  1  0  0  0  0
 21 26  1  0  0  0  0
 21 37  1  0  0  0  0
 22 38  1  0  0  0  0
 23 25  2  0  0  0  0
 23 39  1  0  0  0  0
 24 26  2  0  0  0  0
 25 40  1  0  0  0  0
 27 41  1  0  0  0  0
 27 45  1  0  0  0  0
 27 46  1  0  0  0  0
 28 42  1  0  0  0  0
 28 43  1  0  0  0  0
 28 44  1  0  0  0  0
 29 47  1  0  0  0  0
 29 48  1  0  0  0  0
 29 49  1  0  0  0  0
 30 50  1  0  0  0  0
 30 51  1  0  0  0  0
 30 52  1  0  0  0  0
M  END
> <PUBCHEM_COMPOUND_CID>
114909

> <PUBCHEM_COMPOUND_CANONICALIZED>
1

> <PUBCHEM_CACTVS_COMPLEXITY>
720

> <PUBCHEM_CACTVS_HBOND_ACCEPTOR>
7

> <PUBCHEM_CACTVS_HBOND_DONOR>
1

> <PUBCHEM_CACTVS_ROTATABLE_BOND>
2

> <PUBCHEM_CACTVS_SUBSKEYS>
AAADceB4OAAAAAAAAAAAAAAAAAAAAAAAAAA0aIECAAAAAACRQAAAGgAACAAADFSgmAIyBoAABgCIAqBSAAICCAAkIAAIiAFGiMgNJzaENBqCeWKl4BULuYfK7PzOoQADCAAIQABCAAYQABCAAAAAAAAAAA==

> <PUBCHEM_IUPAC_INCHI>
InChI=1S/C23H22O7/c1-22(2)8-7-12-15(30-22)6-5-13-20(12)29-19-11-28-16-10-18(27-4)17(26-3)9-14(16)23(19,25)21(13)24/h5-10,19,25H,11H2,1-4H3/t19-,23-/m1/s1

> <PUBCHEM_IUPAC_INCHIKEY>
AQBZCCQCDWNNJQ-AUSIDOKSSA-N

> <PUBCHEM_XLOGP3_AA>
3

> <PUBCHEM_EXACT_MASS>
410.136553

> <PUBCHEM_MOLECULAR_FORMULA>
C23H22O7

> <PUBCHEM_MOLECULAR_WEIGHT>
410.41658

> <PUBCHEM_OPENEYE_CAN_SMILES>
CC1(C=CC2=C(O1)C=CC3=C2OC4COC5=CC(=C(C=C5C4(C3=O)O)OC)OC)C

> <PUBCHEM_OPENEYE_ISO_SMILES>
CC1(C=CC2=C(O1)C=CC3=C2O[C@@H]4COC5=CC(=C(C=C5[C@@]4(C3=O)O)OC)OC)C

> <PUBCHEM_CACTVS_TPSA>
83.4

> <PUBCHEM_MONOISOTOPIC_WEIGHT>
410.136553

> <PUBCHEM_TOTAL_CHARGE>
0

> <PUBCHEM_HEAVY_ATOM_COUNT>
30

> <PUBCHEM_ATOM_DEF_STEREO_COUNT>
2

> <PUBCHEM_ATOM_UDEF_STEREO_COUNT>
0

> <PUBCHEM_BOND_DEF_STEREO_COUNT>
0

> <PUBCHEM_BOND_UDEF_STEREO_COUNT>
0

> <PUBCHEM_ISOTOPIC_ATOM_COUNT>
0

> <PUBCHEM_COMPONENT_COUNT>
1

> <PUBCHEM_CACTVS_TAUTO_COUNT>
1

> <PUBCHEM_COORDINATE_TYPE>
1
5
255

> <PUBCHEM_BONDANNOTATIONS>
10  15  8
10  17  8
13  14  8
13  20  8
14  16  8
15  21  8
16  18  8
17  24  8
18  22  8
20  22  8
21  26  8
24  26  8
8  3  6
9  31  6

$$$$

