440179
  -OEChem-07051212492D

 21 21  0     1  0  0  0  0  0999 V2000
    2.5369    0.0000    0.0000 O   0  0  0  0  0  0  0  0  0  0  0  0
    3.4030   -1.5000    0.0000 O   0  0  0  0  0  0  0  0  0  0  0  0
    7.7331    0.0000    0.0000 O   0  0  0  0  0  0  0  0  0  0  0  0
    6.8671   -1.5000    0.0000 O   0  0  0  0  0  0  0  0  0  0  0  0
    5.1350   -0.5000    0.0000 N   0  0  0  0  0  0  0  0  0  0  0  0
    4.2690    1.0000    0.0000 C   0  0  0  0  0  0  0  0  0  0  0  0
    5.1350    1.5000    0.0000 C   0  0  0  0  0  0  0  0  0  0  0  0
    4.2690    0.0000    0.0000 C   0  0  1  0  0  0  0  0  0  0  0  0
    6.0010    1.0000    0.0000 C   0  0  0  0  0  0  0  0  0  0  0  0
    6.0010    0.0000    0.0000 C   0  0  0  0  0  0  0  0  0  0  0  0
    3.4030   -0.5000    0.0000 C   0  0  0  0  0  0  0  0  0  0  0  0
    6.8671   -0.5000    0.0000 C   0  0  0  0  0  0  0  0  0  0  0  0
    4.0569    1.5826    0.0000 H   0  0  0  0  0  0  0  0  0  0  0  0
    3.6584    0.8923    0.0000 H   0  0  0  0  0  0  0  0  0  0  0  0
    5.5335    1.9750    0.0000 H   0  0  0  0  0  0  0  0  0  0  0  0
    4.7365    1.9750    0.0000 H   0  0  0  0  0  0  0  0  0  0  0  0
    4.2690   -0.6200    0.0000 H   0  0  0  0  0  0  0  0  0  0  0  0
    6.6116    0.8923    0.0000 H   0  0  0  0  0  0  0  0  0  0  0  0
    6.2131    1.5826    0.0000 H   0  0  0  0  0  0  0  0  0  0  0  0
    2.0000   -0.3100    0.0000 H   0  0  0  0  0  0  0  0  0  0  0  0
    8.2700   -0.3100    0.0000 H   0  0  0  0  0  0  0  0  0  0  0  0
  1 11  1  0  0  0  0
  1 20  1  0  0  0  0
  2 11  2  0  0  0  0
  3 12  1  0  0  0  0
  3 21  1  0  0  0  0
  4 12  2  0  0  0  0
  5  8  1  0  0  0  0
  5 10  2  0  0  0  0
  6  7  1  0  0  0  0
  6  8  1  0  0  0  0
  6 13  1  0  0  0  0
  6 14  1  0  0  0  0
  7  9  1  0  0  0  0
  7 15  1  0  0  0  0
  7 16  1  0  0  0  0
  8 11  1  6  0  0  0
  8 17  1  0  0  0  0
  9 10  1  0  0  0  0
  9 18  1  0  0  0  0
  9 19  1  0  0  0  0
 10 12  1  0  0  0  0
M  END
> <PUBCHEM_COMPOUND_CID>
440179

> <PUBCHEM_COMPOUND_CANONICALIZED>
1

> <PUBCHEM_CACTVS_COMPLEXITY>
246

> <PUBCHEM_CACTVS_HBOND_ACCEPTOR>
5

> <PUBCHEM_CACTVS_HBOND_DONOR>
2

> <PUBCHEM_CACTVS_ROTATABLE_BOND>
2

> <PUBCHEM_CACTVS_SUBSKEYS>
AAADccBiOAAAAAAAAAAAAAAAAAAAAAAAAAAgAAAAAAAAAAAAAAAAHgAACAAACCjBgAQACAIAAgAoAQCwDAQAAAAAAAAAAAGwAAACABIAgAAAQAAEAAAAAAGYyCCAAAAAAAAAAAAAAAAAAAAAAAAAAAAAAA==

> <PUBCHEM_IUPAC_OPENEYE_NAME>
(2S)-2,3,4,5-tetrahydropyridine-2,6-dicarboxylic acid

> <PUBCHEM_IUPAC_CAS_NAME>
(2S)-2,3,4,5-tetrahydropyridine-2,6-dicarboxylic acid

> <PUBCHEM_IUPAC_NAME>
(2S)-2,3,4,5-tetrahydropyridine-2,6-dicarboxylic acid

> <PUBCHEM_IUPAC_SYSTEMATIC_NAME>
(2S)-2,3,4,5-tetrahydropyridine-2,6-dicarboxylic acid

> <PUBCHEM_IUPAC_TRADITIONAL_NAME>
(2S)-2,3,4,5-tetrahydropyridine-2,6-dicarboxylic acid

> <PUBCHEM_IUPAC_INCHI>
InChI=1S/C7H9NO4/c9-6(10)4-2-1-3-5(8-4)7(11)12/h4H,1-3H2,(H,9,10)(H,11,12)/t4-/m0/s1

> <PUBCHEM_IUPAC_INCHIKEY>
CXMBCXQHOXUCEO-BYPYZUCNSA-N

> <PUBCHEM_XLOGP3_AA>
-0.2

> <PUBCHEM_EXACT_MASS>
171.053158

> <PUBCHEM_MOLECULAR_FORMULA>
C7H9NO4

> <PUBCHEM_MOLECULAR_WEIGHT>
171.15066

> <PUBCHEM_OPENEYE_CAN_SMILES>
C1CC(N=C(C1)C(=O)O)C(=O)O

> <PUBCHEM_OPENEYE_ISO_SMILES>
C1C[C@H](N=C(C1)C(=O)O)C(=O)O

> <PUBCHEM_CACTVS_TPSA>
87

> <PUBCHEM_MONOISOTOPIC_WEIGHT>
171.053158

> <PUBCHEM_TOTAL_CHARGE>
0

> <PUBCHEM_HEAVY_ATOM_COUNT>
12

> <PUBCHEM_ATOM_DEF_STEREO_COUNT>
1

> <PUBCHEM_ATOM_UDEF_STEREO_COUNT>
0

> <PUBCHEM_BOND_DEF_STEREO_COUNT>
0

> <PUBCHEM_BOND_UDEF_STEREO_COUNT>
0

> <PUBCHEM_ISOTOPIC_ATOM_COUNT>
0

> <PUBCHEM_COMPONENT_COUNT>
1

> <PUBCHEM_CACTVS_TAUTO_COUNT>
1

> <PUBCHEM_COORDINATE_TYPE>
1
5
255

> <PUBCHEM_BONDANNOTATIONS>
8  11  6

$$$$

