11954081
  -OEChem-07051213063D

 63 66  0     1  0  0  0  0  0999 V2000
   -7.6036    0.6389   -0.7954 Cl  0  0  0  0  0  0  0  0  0  0  0  0
    5.1309    3.8389   -0.0571 Cl  0  0  0  0  0  0  0  0  0  0  0  0
    6.6688   -1.4998   -2.0175 Cl  0  0  0  0  0  0  0  0  0  0  0  0
    3.9131    0.0359    0.4913 N   0  0  0  0  0  0  0  0  0  0  0  0
    1.3762   -0.1113    0.4909 C   0  0  1  0  0  0  0  0  0  0  0  0
    0.4715   -1.2861    0.0706 C   0  0  2  0  0  0  0  0  0  0  0  0
   -0.9983   -1.0816    0.4505 C   0  0  1  0  0  0  0  0  0  0  0  0
   -1.5261    0.2298   -0.2014 C   0  0  1  0  0  0  0  0  0  0  0  0
    2.7367   -0.6792    0.0246 C   0  0  2  0  0  0  0  0  0  0  0  0
   -3.0331    0.5056    0.1925 C   0  0  2  0  0  0  0  0  0  0  0  0
    0.9018    1.1390   -0.2614 C   0  0  0  0  0  0  0  0  0  0  0  0
   -0.5791    1.4405    0.0281 C   0  0  0  0  0  0  0  0  0  0  0  0
    1.2049   -2.5198    0.5960 C   0  0  0  0  0  0  0  0  0  0  0  0
    2.6982   -2.1497    0.4925 C   0  0  0  0  0  0  0  0  0  0  0  0
   -1.8481   -2.2775   -0.0040 C   0  0  0  0  0  0  0  0  0  0  0  0
    1.3827    0.1622    2.0179 C   0  0  0  0  0  0  0  0  0  0  0  0
   -3.8678   -0.7788    0.0900 C   0  0  0  0  0  0  0  0  0  0  0  0
   -3.6075    1.5675   -0.7920 C   0  0  0  0  0  0  0  0  0  0  0  0
   -3.3172   -2.0013   -0.0100 C   0  0  0  0  0  0  0  0  0  0  0  0
   -3.1472    1.0358    1.6421 C   0  0  0  0  0  0  0  0  0  0  0  0
   -5.3743   -0.6281    0.0996 C   0  0  0  0  0  0  0  0  0  0  0  0
   -5.1260    1.7441   -0.7180 C   0  0  0  0  0  0  0  0  0  0  0  0
   -5.8358    0.4087   -0.9218 C   0  0  2  0  0  0  0  0  0  0  0  0
    3.8991    1.4235    0.0197 C   0  0  0  0  0  0  0  0  0  0  0  0
    5.1387   -0.6346    0.0483 C   0  0  0  0  0  0  0  0  0  0  0  0
    5.1494    2.1471    0.4951 C   0  0  0  0  0  0  0  0  0  0  0  0
    5.1923   -0.6697   -1.4712 C   0  0  0  0  0  0  0  0  0  0  0  0
    0.4991   -1.3644   -1.0296 H   0  0  0  0  0  0  0  0  0  0  0  0
   -1.0837   -1.0091    1.5407 H   0  0  0  0  0  0  0  0  0  0  0  0
   -1.5083    0.0510   -1.2891 H   0  0  0  0  0  0  0  0  0  0  0  0
    2.6909   -0.6771   -1.0723 H   0  0  0  0  0  0  0  0  0  0  0  0
    1.0257    1.0005   -1.3431 H   0  0  0  0  0  0  0  0  0  0  0  0
    1.4150    2.0616   -0.0047 H   0  0  0  0  0  0  0  0  0  0  0  0
   -0.6613    1.8022    1.0571 H   0  0  0  0  0  0  0  0  0  0  0  0
   -0.8867    2.2734   -0.6145 H   0  0  0  0  0  0  0  0  0  0  0  0
    0.9745   -3.4113    0.0037 H   0  0  0  0  0  0  0  0  0  0  0  0
    0.9362   -2.7344    1.6363 H   0  0  0  0  0  0  0  0  0  0  0  0
    3.1664   -2.2901    1.4744 H   0  0  0  0  0  0  0  0  0  0  0  0
    3.2118   -2.8088   -0.2163 H   0  0  0  0  0  0  0  0  0  0  0  0
   -1.6527   -3.1280    0.6603 H   0  0  0  0  0  0  0  0  0  0  0  0
   -1.5617   -2.5936   -1.0149 H   0  0  0  0  0  0  0  0  0  0  0  0
    1.7675   -0.6852    2.5939 H   0  0  0  0  0  0  0  0  0  0  0  0
    2.0049    1.0272    2.2688 H   0  0  0  0  0  0  0  0  0  0  0  0
    0.3845    0.3753    2.4096 H   0  0  0  0  0  0  0  0  0  0  0  0
   -3.3522    1.2878   -1.8233 H   0  0  0  0  0  0  0  0  0  0  0  0
   -3.1417    2.5442   -0.6138 H   0  0  0  0  0  0  0  0  0  0  0  0
   -3.9603   -2.8735   -0.1000 H   0  0  0  0  0  0  0  0  0  0  0  0
   -2.6565    0.3693    2.3587 H   0  0  0  0  0  0  0  0  0  0  0  0
   -2.6998    2.0295    1.7460 H   0  0  0  0  0  0  0  0  0  0  0  0
   -4.1877    1.1374    1.9683 H   0  0  0  0  0  0  0  0  0  0  0  0
   -5.8645   -1.5870   -0.1133 H   0  0  0  0  0  0  0  0  0  0  0  0
   -5.6944   -0.3413    1.1091 H   0  0  0  0  0  0  0  0  0  0  0  0
   -5.4023    2.1873    0.2464 H   0  0  0  0  0  0  0  0  0  0  0  0
   -5.4389    2.4572   -1.4907 H   0  0  0  0  0  0  0  0  0  0  0  0
   -5.6433    0.0411   -1.9366 H   0  0  0  0  0  0  0  0  0  0  0  0
    3.1273    1.9643    0.5569 H   0  0  0  0  0  0  0  0  0  0  0  0
    3.7304    1.5390   -1.0563 H   0  0  0  0  0  0  0  0  0  0  0  0
    5.1724   -1.6588    0.4402 H   0  0  0  0  0  0  0  0  0  0  0  0
    6.0408   -0.1920    0.4820 H   0  0  0  0  0  0  0  0  0  0  0  0
    5.2321    2.1518    1.5869 H   0  0  0  0  0  0  0  0  0  0  0  0
    6.0734    1.7520    0.0715 H   0  0  0  0  0  0  0  0  0  0  0  0
    4.3841   -1.2377   -1.9327 H   0  0  0  0  0  0  0  0  0  0  0  0
    5.2353    0.3203   -1.9291 H   0  0  0  0  0  0  0  0  0  0  0  0
  1 23  1  0  0  0  0
  2 26  1  0  0  0  0
  3 27  1  0  0  0  0
  4  9  1  0  0  0  0
  4 24  1  0  0  0  0
  4 25  1  0  0  0  0
  5  6  1  0  0  0  0
  5  9  1  0  0  0  0
  5 11  1  0  0  0  0
  5 16  1  0  0  0  0
  6  7  1  0  0  0  0
  6 13  1  0  0  0  0
  6 28  1  0  0  0  0
  7  8  1  0  0  0  0
  7 15  1  0  0  0  0
  7 29  1  0  0  0  0
  8 10  1  0  0  0  0
  8 12  1  0  0  0  0
  8 30  1  0  0  0  0
  9 14  1  0  0  0  0
  9 31  1  0  0  0  0
 10 17  1  0  0  0  0
 10 18  1  0  0  0  0
 10 20  1  0  0  0  0
 11 12  1  0  0  0  0
 11 32  1  0  0  0  0
 11 33  1  0  0  0  0
 12 34  1  0  0  0  0
 12 35  1  0  0  0  0
 13 14  1  0  0  0  0
 13 36  1  0  0  0  0
 13 37  1  0  0  0  0
 14 38  1  0  0  0  0
 14 39  1  0  0  0  0
 15 19  1  0  0  0  0
 15 40  1  0  0  0  0
 15 41  1  0  0  0  0
 16 42  1  0  0  0  0
 16 43  1  0  0  0  0
 16 44  1  0  0  0  0
 17 19  2  0  0  0  0
 17 21  1  0  0  0  0
 18 22  1  0  0  0  0
 18 45  1  0  0  0  0
 18 46  1  0  0  0  0
 19 47  1  0  0  0  0
 20 48  1  0  0  0  0
 20 49  1  0  0  0  0
 20 50  1  0  0  0  0
 21 23  1  0  0  0  0
 21 51  1  0  0  0  0
 21 52  1  0  0  0  0
 22 23  1  0  0  0  0
 22 53  1  0  0  0  0
 22 54  1  0  0  0  0
 23 55  1  0  0  0  0
 24 26  1  0  0  0  0
 24 56  1  0  0  0  0
 24 57  1  0  0  0  0
 25 27  1  0  0  0  0
 25 58  1  0  0  0  0
 25 59  1  0  0  0  0
 26 60  1  0  0  0  0
 26 61  1  0  0  0  0
 27 62  1  0  0  0  0
 27 63  1  0  0  0  0
M  END
> <PUBCHEM_COMPOUND_CID>
11954081

> <PUBCHEM_CONFORMER_RMSD>
0.8

> <PUBCHEM_CONFORMER_DIVERSEORDER>
1
2

> <PUBCHEM_MMFF94_PARTIAL_CHARGES>
16
1 -0.29
10 0.14
15 0.14
17 -0.28
19 -0.29
2 -0.29
21 0.14
23 0.29
24 0.27
25 0.27
26 0.29
27 0.29
3 -0.29
4 -0.81
47 0.15
9 0.27

> <PUBCHEM_EFFECTIVE_ROTOR_COUNT>
7

> <PUBCHEM_PHARMACOPHORE_FEATURES>
5
1 4 cation
5 5 6 9 13 14 rings
6 10 17 18 21 22 23 rings
6 5 6 7 8 11 12 rings
6 7 8 10 15 17 19 rings

> <PUBCHEM_HEAVY_ATOM_COUNT>
27

> <PUBCHEM_ATOM_DEF_STEREO_COUNT>
7

> <PUBCHEM_ATOM_UDEF_STEREO_COUNT>
0

> <PUBCHEM_BOND_DEF_STEREO_COUNT>
0

> <PUBCHEM_BOND_UDEF_STEREO_COUNT>
0

> <PUBCHEM_ISOTOPIC_ATOM_COUNT>
0

> <PUBCHEM_COMPONENT_COUNT>
1

> <PUBCHEM_CACTVS_TAUTO_COUNT>
1

> <PUBCHEM_CONFORMER_ID>
00B667A100000001

> <PUBCHEM_MMFF94_ENERGY>
86.0373

> <PUBCHEM_FEATURE_SELFOVERLAP>
25.467

> <PUBCHEM_SHAPE_FINGERPRINT>
10 15 18060141985669925833
10411042 1 17116352862792023458
10498660 4 18412829100722229944
10670039 82 18340761663020374876
10693767 8 18042404819427397926
12011746 2 18335422391632491215
12236239 1 17967817154617496789
12403259 415 18342170047131279320
12788726 201 17749674116391503681
13782708 43 5111998461568864605
14528608 73 18412546509185748244
14790565 3 18411700997645058873
14931854 50 18262525900566727885
15183329 4 18336255856138659662
15196674 1 18412266099276699834
17844677 252 18409725179713912592
18222031 100 13984654828993541632
18608769 82 18341333289440860227
20715895 44 18341055116961619224
21267235 1 18410566280571349163
21279426 13 18410009927370871694
221357 26 17967816075889576841
22393880 68 18411418406182715982
23559900 14 18260272919020013816
239999 70 18334011709935298078
2838139 119 18271820054865310381
29717793 49 17822008731039577188
3004659 81 18411136957196913386
335352 9 18412265060643849998
34797466 226 18260264135695926820
34934 24 18341621390802866259
350125 39 18411420592800779825
3545911 37 18413109481020350179
3633792 109 18336834177911876029
4073 2 17989205893507816106
5104073 3 18202284740532993787
633830 44 18410300177366889718

> <PUBCHEM_SHAPE_MULTIPOLES>
556.28
16.25
2.89
1.27
4.28
1.24
0.02
4.77
7.16
-3.58
-0.01
-0.91
-0.11
1.47

> <PUBCHEM_SHAPE_SELFOVERLAP>
1133.957

> <PUBCHEM_SHAPE_VOLUME>
321.8

> <PUBCHEM_COORDINATE_TYPE>
2
5
10

$$$$

