442345
  -OEChem-07051212573D

 88 94  0     1  0  0  0  0  0999 V2000
    1.5394   -0.6654    1.1002 O   0  0  0  0  0  0  0  0  0  0  0  0
    3.3571   -2.7512    0.7477 O   0  0  0  0  0  0  0  0  0  0  0  0
    1.7585   -1.2149   -1.7893 O   0  0  0  0  0  0  0  0  0  0  0  0
    5.9013   -2.2210   -0.1498 O   0  0  0  0  0  0  0  0  0  0  0  0
   -3.7470    4.2415   -0.1830 O   0  0  0  0  0  0  0  0  0  0  0  0
   -4.8472    2.2329   -1.6296 O   0  0  0  0  0  0  0  0  0  0  0  0
    2.8466    3.3795    0.9097 N   0  0  2  0  0  0  0  0  0  0  0  0
   -3.7287   -3.8199    0.4067 N   0  0  1  0  0  0  0  0  0  0  0  0
    2.2336    2.0961    0.4874 C   0  0  2  0  0  0  0  0  0  0  0  0
   -2.7122   -3.1026    1.2278 C   0  0  1  0  0  0  0  0  0  0  0  0
    3.1973    0.9161    0.3762 C   0  0  0  0  0  0  0  0  0  0  0  0
    4.3134    3.4113    0.9504 C   0  0  0  0  0  0  0  0  0  0  0  0
   -1.4634   -2.6550    0.4513 C   0  0  0  0  0  0  0  0  0  0  0  0
    4.5247    1.1653   -0.0154 C   0  0  0  0  0  0  0  0  0  0  0  0
    4.9561    2.5956   -0.1728 C   0  0  0  0  0  0  0  0  0  0  0  0
    1.5594    2.3488   -0.8912 C   0  0  0  0  0  0  0  0  0  0  0  0
   -3.1248   -4.6334   -0.6541 C   0  0  0  0  0  0  0  0  0  0  0  0
   -1.3230   -2.9398   -0.9166 C   0  0  0  0  0  0  0  0  0  0  0  0
   -2.3792   -3.7313   -1.6304 C   0  0  0  0  0  0  0  0  0  0  0  0
   -3.3937   -1.9086    1.9746 C   0  0  0  0  0  0  0  0  0  0  0  0
    2.7990   -0.4149    0.6037 C   0  0  0  0  0  0  0  0  0  0  0  0
   -0.4268   -1.9544    1.0944 C   0  0  0  0  0  0  0  0  0  0  0  0
    0.1477    2.8703   -0.7640 C   0  0  0  0  0  0  0  0  0  0  0  0
    2.2821    3.8827    2.1604 C   0  0  0  0  0  0  0  0  0  0  0  0
    5.4170    0.1067   -0.2150 C   0  0  0  0  0  0  0  0  0  0  0  0
    0.6753   -1.4637    0.3785 C   0  0  0  0  0  0  0  0  0  0  0  0
   -3.8312   -0.7623    1.0877 C   0  0  0  0  0  0  0  0  0  0  0  0
   -0.2169   -2.4552   -1.6295 C   0  0  0  0  0  0  0  0  0  0  0  0
   -4.5959   -4.6710    1.2300 C   0  0  0  0  0  0  0  0  0  0  0  0
    3.7097   -1.4671    0.4497 C   0  0  0  0  0  0  0  0  0  0  0  0
    0.7719   -1.7084   -0.9906 C   0  0  0  0  0  0  0  0  0  0  0  0
    5.0089   -1.2050    0.0196 C   0  0  0  0  0  0  0  0  0  0  0  0
   -0.8895    1.9612   -0.5247 C   0  0  0  0  0  0  0  0  0  0  0  0
   -2.2240    2.3657   -0.3349 C   0  0  0  0  0  0  0  0  0  0  0  0
   -2.9633    0.3177    0.8773 C   0  0  0  0  0  0  0  0  0  0  0  0
   -3.2511    1.3510   -0.0342 C   0  0  0  0  0  0  0  0  0  0  0  0
   -0.1593    4.2279   -0.8448 C   0  0  0  0  0  0  0  0  0  0  0  0
   -5.0622   -0.7648    0.4299 C   0  0  0  0  0  0  0  0  0  0  0  0
   -2.5043    3.7338   -0.4324 C   0  0  0  0  0  0  0  0  0  0  0  0
   -1.4804    4.6549   -0.6865 C   0  0  0  0  0  0  0  0  0  0  0  0
   -4.4970    1.3239   -0.6730 C   0  0  0  0  0  0  0  0  0  0  0  0
   -5.3975    0.2799   -0.4342 C   0  0  0  0  0  0  0  0  0  0  0  0
    3.5869   -3.1906    2.0838 C   0  0  0  0  0  0  0  0  0  0  0  0
    1.7085   -1.5628   -3.1718 C   0  0  0  0  0  0  0  0  0  0  0  0
    5.9514   -2.8308   -1.4379 C   0  0  0  0  0  0  0  0  0  0  0  0
   -4.0273    4.6314    1.1585 C   0  0  0  0  0  0  0  0  0  0  0  0
    1.4675    1.8105    1.2203 H   0  0  0  0  0  0  0  0  0  0  0  0
   -2.3353   -3.8040    1.9867 H   0  0  0  0  0  0  0  0  0  0  0  0
    4.6770    3.0301    1.9154 H   0  0  0  0  0  0  0  0  0  0  0  0
    4.6495    4.4519    0.8690 H   0  0  0  0  0  0  0  0  0  0  0  0
    6.0463    2.6794   -0.0956 H   0  0  0  0  0  0  0  0  0  0  0  0
    4.6613    2.9687   -1.1604 H   0  0  0  0  0  0  0  0  0  0  0  0
    1.5183    1.4263   -1.4840 H   0  0  0  0  0  0  0  0  0  0  0  0
    2.1541    3.0382   -1.5065 H   0  0  0  0  0  0  0  0  0  0  0  0
   -3.9039   -5.1631   -1.2163 H   0  0  0  0  0  0  0  0  0  0  0  0
   -2.4514   -5.3925   -0.2332 H   0  0  0  0  0  0  0  0  0  0  0  0
   -3.0728   -3.0389   -2.1235 H   0  0  0  0  0  0  0  0  0  0  0  0
   -1.9228   -4.3580   -2.4060 H   0  0  0  0  0  0  0  0  0  0  0  0
   -2.7091   -1.5175    2.7393 H   0  0  0  0  0  0  0  0  0  0  0  0
   -4.2594   -2.2481    2.5554 H   0  0  0  0  0  0  0  0  0  0  0  0
   -0.4956   -1.7456    2.1600 H   0  0  0  0  0  0  0  0  0  0  0  0
    2.6813    4.8762    2.3931 H   0  0  0  0  0  0  0  0  0  0  0  0
    2.4994    3.2163    3.0028 H   0  0  0  0  0  0  0  0  0  0  0  0
    1.1954    3.9949    2.0806 H   0  0  0  0  0  0  0  0  0  0  0  0
    6.4392    0.3070   -0.5270 H   0  0  0  0  0  0  0  0  0  0  0  0
   -0.2168   -2.7005   -2.6858 H   0  0  0  0  0  0  0  0  0  0  0  0
   -5.1503   -4.0911    1.9730 H   0  0  0  0  0  0  0  0  0  0  0  0
   -4.0297   -5.4507    1.7522 H   0  0  0  0  0  0  0  0  0  0  0  0
   -5.3543   -5.1599    0.6076 H   0  0  0  0  0  0  0  0  0  0  0  0
   -0.6416    0.9041   -0.4826 H   0  0  0  0  0  0  0  0  0  0  0  0
   -2.0186    0.3369    1.4186 H   0  0  0  0  0  0  0  0  0  0  0  0
    0.6219    4.9616   -1.0232 H   0  0  0  0  0  0  0  0  0  0  0  0
   -5.7648   -1.5809    0.5752 H   0  0  0  0  0  0  0  0  0  0  0  0
   -1.7028    5.7180   -0.7398 H   0  0  0  0  0  0  0  0  0  0  0  0
   -6.3566    0.2462   -0.9457 H   0  0  0  0  0  0  0  0  0  0  0  0
    3.2330   -4.2214    2.1704 H   0  0  0  0  0  0  0  0  0  0  0  0
    3.0324   -2.5706    2.7954 H   0  0  0  0  0  0  0  0  0  0  0  0
    4.6555   -3.1673    2.3193 H   0  0  0  0  0  0  0  0  0  0  0  0
    1.8126   -2.6422   -3.3285 H   0  0  0  0  0  0  0  0  0  0  0  0
    2.5838   -1.1010   -3.6420 H   0  0  0  0  0  0  0  0  0  0  0  0
    0.8326   -1.1341   -3.6712 H   0  0  0  0  0  0  0  0  0  0  0  0
    4.9809   -3.2664   -1.6963 H   0  0  0  0  0  0  0  0  0  0  0  0
    6.6975   -3.6295   -1.4104 H   0  0  0  0  0  0  0  0  0  0  0  0
    6.2482   -2.0994   -2.1962 H   0  0  0  0  0  0  0  0  0  0  0  0
   -5.7388    2.0308   -1.9610 H   0  0  0  0  0  0  0  0  0  0  0  0
   -3.3926    5.4727    1.4540 H   0  0  0  0  0  0  0  0  0  0  0  0
   -3.8828    3.7929    1.8472 H   0  0  0  0  0  0  0  0  0  0  0  0
   -5.0724    4.9485    1.2111 H   0  0  0  0  0  0  0  0  0  0  0  0
  1 21  1  0  0  0  0
  1 26  1  0  0  0  0
  2 30  1  0  0  0  0
  2 43  1  0  0  0  0
  3 31  1  0  0  0  0
  3 44  1  0  0  0  0
  4 32  1  0  0  0  0
  4 45  1  0  0  0  0
  5 39  1  0  0  0  0
  5 46  1  0  0  0  0
  6 41  1  0  0  0  0
  6 85  1  0  0  0  0
  7  9  1  0  0  0  0
  7 12  1  0  0  0  0
  7 24  1  0  0  0  0
  8 10  1  0  0  0  0
  8 17  1  0  0  0  0
  8 29  1  0  0  0  0
  9 11  1  0  0  0  0
  9 16  1  0  0  0  0
  9 47  1  0  0  0  0
 10 13  1  0  0  0  0
 10 20  1  0  0  0  0
 10 48  1  0  0  0  0
 11 14  1  0  0  0  0
 11 21  2  0  0  0  0
 12 15  1  0  0  0  0
 12 49  1  0  0  0  0
 12 50  1  0  0  0  0
 13 18  1  0  0  0  0
 13 22  2  0  0  0  0
 14 15  1  0  0  0  0
 14 25  2  0  0  0  0
 15 51  1  0  0  0  0
 15 52  1  0  0  0  0
 16 23  1  0  0  0  0
 16 53  1  0  0  0  0
 16 54  1  0  0  0  0
 17 19  1  0  0  0  0
 17 55  1  0  0  0  0
 17 56  1  0  0  0  0
 18 19  1  0  0  0  0
 18 28  2  0  0  0  0
 19 57  1  0  0  0  0
 19 58  1  0  0  0  0
 20 27  1  0  0  0  0
 20 59  1  0  0  0  0
 20 60  1  0  0  0  0
 21 30  1  0  0  0  0
 22 26  1  0  0  0  0
 22 61  1  0  0  0  0
 23 33  2  0  0  0  0
 23 37  1  0  0  0  0
 24 62  1  0  0  0  0
 24 63  1  0  0  0  0
 24 64  1  0  0  0  0
 25 32  1  0  0  0  0
 25 65  1  0  0  0  0
 26 31  2  0  0  0  0
 27 35  2  0  0  0  0
 27 38  1  0  0  0  0
 28 31  1  0  0  0  0
 28 66  1  0  0  0  0
 29 67  1  0  0  0  0
 29 68  1  0  0  0  0
 29 69  1  0  0  0  0
 30 32  2  0  0  0  0
 33 34  1  0  0  0  0
 33 70  1  0  0  0  0
 34 36  1  0  0  0  0
 34 39  2  0  0  0  0
 35 36  1  0  0  0  0
 35 71  1  0  0  0  0
 36 41  2  0  0  0  0
 37 40  2  0  0  0  0
 37 72  1  0  0  0  0
 38 42  2  0  0  0  0
 38 73  1  0  0  0  0
 39 40  1  0  0  0  0
 40 74  1  0  0  0  0
 41 42  1  0  0  0  0
 42 75  1  0  0  0  0
 43 76  1  0  0  0  0
 43 77  1  0  0  0  0
 43 78  1  0  0  0  0
 44 79  1  0  0  0  0
 44 80  1  0  0  0  0
 44 81  1  0  0  0  0
 45 82  1  0  0  0  0
 45 83  1  0  0  0  0
 45 84  1  0  0  0  0
 46 86  1  0  0  0  0
 46 87  1  0  0  0  0
 46 88  1  0  0  0  0
M  END
> <PUBCHEM_COMPOUND_CID>
442345

> <PUBCHEM_CONFORMER_RMSD>
1

> <PUBCHEM_CONFORMER_DIVERSEORDER>
1
3
5
6
2
7
4

> <PUBCHEM_MMFF94_PARTIAL_CHARGES>
54
1 -0.17
10 0.41
11 -0.14
12 0.27
13 -0.14
14 -0.14
15 0.14
16 0.14
17 0.27
18 -0.14
19 0.14
2 -0.36
20 0.14
21 0.08
22 -0.15
23 -0.14
24 0.27
25 -0.15
26 0.08
27 -0.14
28 -0.15
29 0.27
3 -0.36
30 0.08
31 0.08
32 0.08
33 -0.15
35 -0.15
37 -0.15
38 -0.15
39 0.08
4 -0.36
40 -0.15
41 0.08
42 -0.15
43 0.28
44 0.28
45 0.28
46 0.28
5 -0.36
6 -0.53
61 0.15
65 0.15
66 0.15
7 -0.81
70 0.15
71 0.15
72 0.15
73 0.15
74 0.15
75 0.15
8 -0.81
85 0.45
9 0.41

> <PUBCHEM_EFFECTIVE_ROTOR_COUNT>
5.8

> <PUBCHEM_PHARMACOPHORE_FEATURES>
14
1 1 acceptor
1 2 acceptor
1 3 acceptor
1 4 acceptor
1 5 acceptor
1 6 donor
1 7 cation
1 8 cation
6 11 14 21 25 30 32 rings
6 13 18 22 26 28 31 rings
6 23 33 34 37 39 40 rings
6 27 35 36 38 41 42 rings
6 7 9 11 12 14 15 rings
6 8 10 13 17 18 19 rings

> <PUBCHEM_HEAVY_ATOM_COUNT>
46

> <PUBCHEM_ATOM_DEF_STEREO_COUNT>
2

> <PUBCHEM_ATOM_UDEF_STEREO_COUNT>
0

> <PUBCHEM_BOND_DEF_STEREO_COUNT>
0

> <PUBCHEM_BOND_UDEF_STEREO_COUNT>
0

> <PUBCHEM_ISOTOPIC_ATOM_COUNT>
0

> <PUBCHEM_COMPONENT_COUNT>
1

> <PUBCHEM_CACTVS_TAUTO_COUNT>
3

> <PUBCHEM_CONFORMER_ID>
0006BFE900000001

> <PUBCHEM_MMFF94_ENERGY>
209.885

> <PUBCHEM_FEATURE_SELFOVERLAP>
71.097

> <PUBCHEM_SHAPE_FINGERPRINT>
10462674 296 17614005088682657438
10675989 125 16678111687630701415
11513181 2 18048040962605786479
11763715 3 18127396874416445182
12128747 34 18272366473490161378
12422481 6 18116137892384891339
13165053 137 16611397251805312474
14040221 299 17834114526108269326
14725015 67 18197228155440273985
15200665 1 18408609183959898407
15264996 154 17695611966787817094
15320467 1 18268995452089694849
15444296 121 18197222670862197282
15968369 153 18116166492719769280
16112460 7 17975971278551509297
20764821 26 17981320089103545629
21033648 144 18261395490269212064
21133410 90 17314508115923413841
354706 109 18193863602177185761
4144715 1 18269545040485183507
463206 1 18267027155295260421
508706 21 18265888232245424205
5776283 40 17329407954047001927

> <PUBCHEM_SHAPE_MULTIPOLES>
901.48
11.89
7.78
1.8
5.23
3.27
-0.38
-3.14
1.15
-4.94
0.27
0.23
-0.93
1.9

> <PUBCHEM_SHAPE_SELFOVERLAP>
1987.579

> <PUBCHEM_SHAPE_VOLUME>
484.1

> <PUBCHEM_COORDINATE_TYPE>
2
5
10

$$$$

