257862
  -OEChem-07051213063D

 62 66  0     1  0  0  0  0  0999 V2000
   -2.0733    1.9180   -1.6628 O   0  0  0  0  0  0  0  0  0  0  0  0
    8.3282   -0.3526    1.0501 O   0  0  0  0  0  0  0  0  0  0  0  0
   -3.5648    0.2950   -0.0113 N   0  0  0  0  0  0  0  0  0  0  0  0
    0.1264    1.0308   -0.9320 C   0  0  1  0  0  0  0  0  0  0  0  0
    0.6136   -0.4292   -0.7981 C   0  0  2  0  0  0  0  0  0  0  0  0
    2.1405   -0.5397   -0.7687 C   0  0  1  0  0  0  0  0  0  0  0  0
   -1.4127    0.8091   -1.0569 C   0  0  2  0  0  0  0  0  0  0  0  0
   -0.1507   -1.1611   -1.8960 C   0  0  0  0  0  0  0  0  0  0  0  0
    0.6253    1.8066    0.2980 C   0  0  0  0  0  0  0  0  0  0  0  0
    2.6813    0.2502    0.4608 C   0  0  2  0  0  0  0  0  0  0  0  0
   -1.5160   -0.4510   -1.9582 C   0  0  0  0  0  0  0  0  0  0  0  0
    2.1543    1.7095    0.4660 C   0  0  0  0  0  0  0  0  0  0  0  0
    2.6212   -1.9900   -0.6760 C   0  0  0  0  0  0  0  0  0  0  0  0
    0.6593    1.7459   -2.2089 C   0  0  0  0  0  0  0  0  0  0  0  0
   -2.1486    0.5767    0.2688 C   0  0  0  0  0  0  0  0  0  0  0  0
    4.1958    0.1085    0.5872 C   0  0  0  0  0  0  0  0  0  0  0  0
    4.1411   -2.0417   -0.8003 C   0  0  0  0  0  0  0  0  0  0  0  0
    4.8612   -1.0018    0.0226 C   0  0  0  0  0  0  0  0  0  0  0  0
    4.9528    1.0246    1.3392 C   0  0  0  0  0  0  0  0  0  0  0  0
    6.2521   -1.1378    0.1768 C   0  0  0  0  0  0  0  0  0  0  0  0
   -4.2889    0.0594    1.2246 C   0  0  0  0  0  0  0  0  0  0  0  0
    6.3327    0.8728    1.4917 C   0  0  0  0  0  0  0  0  0  0  0  0
    6.9836   -0.2056    0.9068 C   0  0  0  0  0  0  0  0  0  0  0  0
   -5.7466   -0.2233    0.9754 C   0  0  0  0  0  0  0  0  0  0  0  0
   -6.6512    0.8289    0.9444 C   0  0  0  0  0  0  0  0  0  0  0  0
   -6.1653   -1.5320    0.7797 C   0  0  0  0  0  0  0  0  0  0  0  0
   -8.0017    0.5672    0.7134 C   0  0  0  0  0  0  0  0  0  0  0  0
   -7.5158   -1.7937    0.5485 C   0  0  0  0  0  0  0  0  0  0  0  0
   -8.4339   -0.7439    0.5154 C   0  0  0  0  0  0  0  0  0  0  0  0
    0.2577   -0.8438    0.1568 H   0  0  0  0  0  0  0  0  0  0  0  0
    2.5575   -0.1168   -1.6915 H   0  0  0  0  0  0  0  0  0  0  0  0
   -0.2695   -2.2254   -1.6678 H   0  0  0  0  0  0  0  0  0  0  0  0
    0.3622   -1.0870   -2.8614 H   0  0  0  0  0  0  0  0  0  0  0  0
    0.1738    1.4086    1.2145 H   0  0  0  0  0  0  0  0  0  0  0  0
    0.3267    2.8599    0.2366 H   0  0  0  0  0  0  0  0  0  0  0  0
    2.2754   -0.2271    1.3664 H   0  0  0  0  0  0  0  0  0  0  0  0
   -1.7425   -0.1810   -2.9969 H   0  0  0  0  0  0  0  0  0  0  0  0
   -2.3011   -1.1475   -1.6461 H   0  0  0  0  0  0  0  0  0  0  0  0
    2.6600    2.2935   -0.3118 H   0  0  0  0  0  0  0  0  0  0  0  0
    2.4009    2.1961    1.4169 H   0  0  0  0  0  0  0  0  0  0  0  0
    2.1816   -2.6065   -1.4679 H   0  0  0  0  0  0  0  0  0  0  0  0
    2.3094   -2.4292    0.2805 H   0  0  0  0  0  0  0  0  0  0  0  0
    0.3211    1.2602   -3.1297 H   0  0  0  0  0  0  0  0  0  0  0  0
    0.3021    2.7820   -2.2432 H   0  0  0  0  0  0  0  0  0  0  0  0
    1.7499    1.7897   -2.2569 H   0  0  0  0  0  0  0  0  0  0  0  0
   -2.0928    1.4803    0.8880 H   0  0  0  0  0  0  0  0  0  0  0  0
   -1.7128   -0.2566    0.8289 H   0  0  0  0  0  0  0  0  0  0  0  0
    4.4182   -1.8890   -1.8514 H   0  0  0  0  0  0  0  0  0  0  0  0
    4.4817   -3.0440   -0.5132 H   0  0  0  0  0  0  0  0  0  0  0  0
   -2.8972    1.6001   -2.0685 H   0  0  0  0  0  0  0  0  0  0  0  0
   -3.9760    1.0945   -0.4921 H   0  0  0  0  0  0  0  0  0  0  0  0
    4.4844    1.8726    1.8295 H   0  0  0  0  0  0  0  0  0  0  0  0
    6.7664   -1.9822   -0.2778 H   0  0  0  0  0  0  0  0  0  0  0  0
   -4.2036    0.9243    1.8960 H   0  0  0  0  0  0  0  0  0  0  0  0
   -3.8528   -0.7896    1.7673 H   0  0  0  0  0  0  0  0  0  0  0  0
    6.8849    1.6052    2.0748 H   0  0  0  0  0  0  0  0  0  0  0  0
    8.6707    0.3836    1.5857 H   0  0  0  0  0  0  0  0  0  0  0  0
   -6.3248    1.8541    1.0955 H   0  0  0  0  0  0  0  0  0  0  0  0
   -5.4584   -2.3566    0.8015 H   0  0  0  0  0  0  0  0  0  0  0  0
   -8.7166    1.3845    0.6870 H   0  0  0  0  0  0  0  0  0  0  0  0
   -7.8525   -2.8146    0.3938 H   0  0  0  0  0  0  0  0  0  0  0  0
   -9.4854   -0.9478    0.3351 H   0  0  0  0  0  0  0  0  0  0  0  0
  1  7  1  0  0  0  0
  1 50  1  0  0  0  0
  2 23  1  0  0  0  0
  2 57  1  0  0  0  0
  3 15  1  0  0  0  0
  3 21  1  0  0  0  0
  3 51  1  0  0  0  0
  4  5  1  0  0  0  0
  4  7  1  0  0  0  0
  4  9  1  0  0  0  0
  4 14  1  0  0  0  0
  5  6  1  0  0  0  0
  5  8  1  0  0  0  0
  5 30  1  0  0  0  0
  6 10  1  0  0  0  0
  6 13  1  0  0  0  0
  6 31  1  0  0  0  0
  7 11  1  0  0  0  0
  7 15  1  0  0  0  0
  8 11  1  0  0  0  0
  8 32  1  0  0  0  0
  8 33  1  0  0  0  0
  9 12  1  0  0  0  0
  9 34  1  0  0  0  0
  9 35  1  0  0  0  0
 10 12  1  0  0  0  0
 10 16  1  0  0  0  0
 10 36  1  0  0  0  0
 11 37  1  0  0  0  0
 11 38  1  0  0  0  0
 12 39  1  0  0  0  0
 12 40  1  0  0  0  0
 13 17  1  0  0  0  0
 13 41  1  0  0  0  0
 13 42  1  0  0  0  0
 14 43  1  0  0  0  0
 14 44  1  0  0  0  0
 14 45  1  0  0  0  0
 15 46  1  0  0  0  0
 15 47  1  0  0  0  0
 16 18  2  0  0  0  0
 16 19  1  0  0  0  0
 17 18  1  0  0  0  0
 17 48  1  0  0  0  0
 17 49  1  0  0  0  0
 18 20  1  0  0  0  0
 19 22  2  0  0  0  0
 19 52  1  0  0  0  0
 20 23  2  0  0  0  0
 20 53  1  0  0  0  0
 21 24  1  0  0  0  0
 21 54  1  0  0  0  0
 21 55  1  0  0  0  0
 22 23  1  0  0  0  0
 22 56  1  0  0  0  0
 24 25  2  0  0  0  0
 24 26  1  0  0  0  0
 25 27  1  0  0  0  0
 25 58  1  0  0  0  0
 26 28  2  0  0  0  0
 26 59  1  0  0  0  0
 27 29  2  0  0  0  0
 27 60  1  0  0  0  0
 28 29  1  0  0  0  0
 28 61  1  0  0  0  0
 29 62  1  0  0  0  0
M  END
> <PUBCHEM_COMPOUND_CID>
257862

> <PUBCHEM_CONFORMER_RMSD>
0.8

> <PUBCHEM_CONFORMER_DIVERSEORDER>
1
2
5
3
6
4

> <PUBCHEM_MMFF94_PARTIAL_CHARGES>
31
1 -0.68
10 0.14
15 0.27
16 -0.14
17 0.14
18 -0.14
19 -0.15
2 -0.53
20 -0.15
21 0.41
22 -0.15
23 0.08
24 -0.14
25 -0.15
26 -0.15
27 -0.15
28 -0.15
29 -0.15
3 -0.9
50 0.4
51 0.36
52 0.15
53 0.15
56 0.15
57 0.45
58 0.15
59 0.15
60 0.15
61 0.15
62 0.15
7 0.28

> <PUBCHEM_EFFECTIVE_ROTOR_COUNT>
5.4

> <PUBCHEM_PHARMACOPHORE_FEATURES>
10
1 1 acceptor
1 1 donor
1 2 donor
1 3 cation
1 3 donor
5 4 5 7 8 11 rings
6 16 18 19 20 22 23 rings
6 24 25 26 27 28 29 rings
6 4 5 6 9 10 12 rings
6 6 10 13 16 17 18 rings

> <PUBCHEM_HEAVY_ATOM_COUNT>
29

> <PUBCHEM_ATOM_DEF_STEREO_COUNT>
5

> <PUBCHEM_ATOM_UDEF_STEREO_COUNT>
0

> <PUBCHEM_BOND_DEF_STEREO_COUNT>
0

> <PUBCHEM_BOND_UDEF_STEREO_COUNT>
0

> <PUBCHEM_ISOTOPIC_ATOM_COUNT>
0

> <PUBCHEM_COMPONENT_COUNT>
1

> <PUBCHEM_CACTVS_TAUTO_COUNT>
9

> <PUBCHEM_CONFORMER_ID>
0003EF4600000001

> <PUBCHEM_MMFF94_ENERGY>
99.6459

> <PUBCHEM_FEATURE_SELFOVERLAP>
50.843

> <PUBCHEM_SHAPE_FINGERPRINT>
10 15 17458343040018550379
10162869 55 17530975666233100861
106641 1 18040435482068098363
10670039 82 13182749139401578679
10693767 8 12535358891462986824
11115154 58 13686305694766348639
11135609 99 18199743649229932643
11297750 10 16487264239806496157
11724838 91 17313106332965713047
12236239 1 16370733630018865284
12596602 18 17894906369399815747
13177829 20 17894630340488972283
13540713 4 18047471407087154908
13540713 5 17679878002406698884
13673619 4 16917072148503443717
14068700 675 17203607082299712485
14150022 121 18336263543798407929
14251752 14 13758359960214936851
14251764 18 17822013094810680837
14294032 229 14978853150339674437
14849402 71 17313673633178232657
15064986 96 16805314527150946094
15082195 135 11311758593326874078
15131766 46 17903923253727570968
15183329 4 12175627274230236983
15188451 53 16343707647061533930
15301273 46 18408603686105392373
15439362 3 12534186755716452678
15475509 35 18130231579097247538
1577012 14 15864078679875647509
15840311 113 17240484680952449320
15849732 13 17676204671517967945
16992727 255 11239993451911369441
16994733 274 6194573177929140011
17980427 23 16226339127092996229
18335252 98 17988926695892426610
20028762 73 18273209781771189483
20105231 36 18261387897964953758
20505436 4 15574721308895780558
20554085 129 5689592775663059700
21267235 1 18187643652841434766
21304304 249 18131067109007404723
21403212 168 17167864179214199833
21521239 73 12319739176487403848
21637258 2 17132116835749643253
221357 26 11024110940688028206
22224240 67 18113618988876912127
23559900 14 15697421219140979893
23576562 1 10735292283683117283
249057 3 12391507572817452809
2838139 119 13912327910177672081
3004659 81 12607406568193950553
3009799 131 10807934864645019028
3178227 256 18259991470672696720
3383291 50 17988069003835458579
397830 11 18335138730417317141
4340502 62 18187080659073534414
5104073 3 18193843862854860474
5219985 9 16917350333487680837
5283156 175 14836405847581587891
5385378 56 13840253819212941388
5758199 1 5545202723050185029
9663363 56 17346604062580754089

> <PUBCHEM_SHAPE_MULTIPOLES>
580.09
23.03
1.88
1.67
23
0.32
-0.89
4.13
15.56
-0.67
-0.27
0.06
-0.32
1.12

> <PUBCHEM_SHAPE_SELFOVERLAP>
1261.032

> <PUBCHEM_SHAPE_VOLUME>
315.6

> <PUBCHEM_COORDINATE_TYPE>
2
5
10

$$$$

