11157896
  -OEChem-07051213083D

 72 76  0     1  0  0  0  0  0999 V2000
    1.9801    1.5757    0.1545 O   0  0  0  0  0  0  0  0  0  0  0  0
    2.8104   -0.0459    1.6122 O   0  0  0  0  0  0  0  0  0  0  0  0
    2.4993    5.1930   -0.0895 O   0  0  0  0  0  0  0  0  0  0  0  0
    4.8554    4.2715    1.3088 O   0  0  0  0  0  0  0  0  0  0  0  0
    4.2002    1.9712    3.0293 O   0  0  0  0  0  0  0  0  0  0  0  0
   -0.1677    2.1996   -1.4436 O   0  0  0  0  0  0  0  0  0  0  0  0
    0.5984   -2.5411    0.0099 O   0  3  0  0  0  0  0  0  0  0  0  0
   -1.5043    3.9255   -0.6865 O   0  0  0  0  0  0  0  0  0  0  0  0
   -1.8101   -0.6167    3.7646 O   0  0  0  0  0  0  0  0  0  0  0  0
   -3.8972   -3.8747    0.9967 O   0  0  0  0  0  0  0  0  0  0  0  0
    5.9203   -3.9556   -0.6110 O   0  0  0  0  0  0  0  0  0  0  0  0
    4.3051   -0.5429   -3.5579 O   0  0  0  0  0  0  0  0  0  0  0  0
    6.2528   -2.3890   -2.8707 O   0  0  0  0  0  0  0  0  0  0  0  0
   -8.4449    1.2635   -0.9939 O   0  0  0  0  0  0  0  0  0  0  0  0
   -8.0047   -1.4810   -0.9904 O   0  0  0  0  0  0  0  0  0  0  0  0
    2.8769    3.8246    0.0383 C   0  0  1  0  0  0  0  0  0  0  0  0
    3.5865    3.6189    1.3767 C   0  0  1  0  0  0  0  0  0  0  0  0
    1.6283    2.9444   -0.0554 C   0  0  1  0  0  0  0  0  0  0  0  0
    3.7933    2.1331    1.6708 C   0  0  2  0  0  0  0  0  0  0  0  0
    2.5039    1.3397    1.4593 C   0  0  1  0  0  0  0  0  0  0  0  0
    0.9684    3.0445   -1.4271 C   0  0  0  0  0  0  0  0  0  0  0  0
    1.6971   -0.8336    1.4295 C   0  0  0  0  0  0  0  0  0  0  0  0
    1.6460   -1.8243    0.3079 C   0  0  0  0  0  0  0  0  0  0  0  0
    0.5990   -0.7305    2.1890 C   0  0  0  0  0  0  0  0  0  0  0  0
   -0.5791   -1.5438    1.9104 C   0  0  0  0  0  0  0  0  0  0  0  0
   -1.3455    2.7702   -1.0477 C   0  0  0  0  0  0  0  0  0  0  0  0
   -0.5470   -2.4177    0.8187 C   0  0  0  0  0  0  0  0  0  0  0  0
    2.8601   -1.9722   -0.5284 C   0  0  0  0  0  0  0  0  0  0  0  0
   -1.7341   -1.4573    2.6934 C   0  0  0  0  0  0  0  0  0  0  0  0
   -1.6608   -3.2001    0.5118 C   0  0  0  0  0  0  0  0  0  0  0  0
    3.0160   -1.1803   -1.6603 C   0  0  0  0  0  0  0  0  0  0  0  0
    3.8306   -2.9024   -0.1745 C   0  0  0  0  0  0  0  0  0  0  0  0
   -2.4076    1.7419   -1.1295 C   0  0  0  0  0  0  0  0  0  0  0  0
   -2.8467   -2.2419    2.3849 C   0  0  0  0  0  0  0  0  0  0  0  0
   -2.8103   -3.1117    1.2952 C   0  0  0  0  0  0  0  0  0  0  0  0
    4.9726   -3.0426   -0.9632 C   0  0  0  0  0  0  0  0  0  0  0  0
    4.1579   -1.3207   -2.4490 C   0  0  0  0  0  0  0  0  0  0  0  0
    5.1362   -2.2518   -2.1005 C   0  0  0  0  0  0  0  0  0  0  0  0
   -3.6664    2.0648   -0.8003 C   0  0  0  0  0  0  0  0  0  0  0  0
   -4.8090    1.1357   -0.8504 C   0  0  0  0  0  0  0  0  0  0  0  0
   -6.0963    1.6452   -0.8989 C   0  0  0  0  0  0  0  0  0  0  0  0
   -4.5735   -0.2297   -0.8477 C   0  0  0  0  0  0  0  0  0  0  0  0
   -7.1778    0.7656   -0.9461 C   0  0  0  0  0  0  0  0  0  0  0  0
   -5.6548   -1.1094   -0.8949 C   0  0  0  0  0  0  0  0  0  0  0  0
   -6.9570   -0.6117   -0.9442 C   0  0  0  0  0  0  0  0  0  0  0  0
    3.5743    3.5924   -0.7772 H   0  0  0  0  0  0  0  0  0  0  0  0
    3.0348    4.1051    2.1898 H   0  0  0  0  0  0  0  0  0  0  0  0
    0.8934    3.2375    0.7062 H   0  0  0  0  0  0  0  0  0  0  0  0
    4.5997    1.7318    1.0444 H   0  0  0  0  0  0  0  0  0  0  0  0
    1.7735    1.6458    2.2208 H   0  0  0  0  0  0  0  0  0  0  0  0
    1.6477    2.6686   -2.2007 H   0  0  0  0  0  0  0  0  0  0  0  0
    0.7037    4.0720   -1.6987 H   0  0  0  0  0  0  0  0  0  0  0  0
    2.2984    5.3606   -1.0254 H   0  0  0  0  0  0  0  0  0  0  0  0
    5.3767    3.8476    0.6059 H   0  0  0  0  0  0  0  0  0  0  0  0
    4.3071    1.0178    3.1895 H   0  0  0  0  0  0  0  0  0  0  0  0
    0.5943   -0.0478    3.0290 H   0  0  0  0  0  0  0  0  0  0  0  0
   -1.6187   -3.8744   -0.3392 H   0  0  0  0  0  0  0  0  0  0  0  0
    2.2536   -0.4561   -1.9364 H   0  0  0  0  0  0  0  0  0  0  0  0
    3.6979   -3.5170    0.7125 H   0  0  0  0  0  0  0  0  0  0  0  0
   -2.1127    0.7598   -1.4799 H   0  0  0  0  0  0  0  0  0  0  0  0
   -3.7452   -2.1739    2.9936 H   0  0  0  0  0  0  0  0  0  0  0  0
   -3.9040    3.0767   -0.4795 H   0  0  0  0  0  0  0  0  0  0  0  0
   -1.2213    0.1435    3.6410 H   0  0  0  0  0  0  0  0  0  0  0  0
   -3.6995   -4.4105    0.2094 H   0  0  0  0  0  0  0  0  0  0  0  0
    5.6375   -4.4092    0.2015 H   0  0  0  0  0  0  0  0  0  0  0  0
    5.1501   -0.7724   -3.9824 H   0  0  0  0  0  0  0  0  0  0  0  0
    6.8153   -3.0779   -2.4761 H   0  0  0  0  0  0  0  0  0  0  0  0
   -6.2777    2.7173   -0.9023 H   0  0  0  0  0  0  0  0  0  0  0  0
   -3.5791   -0.6604   -0.7910 H   0  0  0  0  0  0  0  0  0  0  0  0
   -5.4698   -2.1802   -0.8906 H   0  0  0  0  0  0  0  0  0  0  0  0
   -9.0665    0.5156   -1.0223 H   0  0  0  0  0  0  0  0  0  0  0  0
   -7.6619   -2.3911   -0.9811 H   0  0  0  0  0  0  0  0  0  0  0  0
  1 18  1  0  0  0  0
  1 20  1  0  0  0  0
  2 20  1  0  0  0  0
  2 22  1  0  0  0  0
  3 16  1  0  0  0  0
  3 53  1  0  0  0  0
  4 17  1  0  0  0  0
  4 54  1  0  0  0  0
  5 19  1  0  0  0  0
  5 55  1  0  0  0  0
  6 21  1  0  0  0  0
  6 26  1  0  0  0  0
  7 23  2  0  0  0  0
  7 27  1  0  0  0  0
  8 26  2  0  0  0  0
  9 29  1  0  0  0  0
  9 63  1  0  0  0  0
 10 35  1  0  0  0  0
 10 64  1  0  0  0  0
 11 36  1  0  0  0  0
 11 65  1  0  0  0  0
 12 37  1  0  0  0  0
 12 66  1  0  0  0  0
 13 38  1  0  0  0  0
 13 67  1  0  0  0  0
 14 43  1  0  0  0  0
 14 71  1  0  0  0  0
 15 45  1  0  0  0  0
 15 72  1  0  0  0  0
 16 17  1  0  0  0  0
 16 18  1  0  0  0  0
 16 46  1  0  0  0  0
 17 19  1  0  0  0  0
 17 47  1  0  0  0  0
 18 21  1  0  0  0  0
 18 48  1  0  0  0  0
 19 20  1  0  0  0  0
 19 49  1  0  0  0  0
 20 50  1  0  0  0  0
 21 51  1  0  0  0  0
 21 52  1  0  0  0  0
 22 23  1  0  0  0  0
 22 24  2  0  0  0  0
 23 28  1  0  0  0  0
 24 25  1  0  0  0  0
 24 56  1  0  0  0  0
 25 27  1  0  0  0  0
 25 29  2  0  0  0  0
 26 33  1  0  0  0  0
 27 30  2  0  0  0  0
 28 31  2  0  0  0  0
 28 32  1  0  0  0  0
 29 34  1  0  0  0  0
 30 35  1  0  0  0  0
 30 57  1  0  0  0  0
 31 37  1  0  0  0  0
 31 58  1  0  0  0  0
 32 36  2  0  0  0  0
 32 59  1  0  0  0  0
 33 39  2  0  0  0  0
 33 60  1  0  0  0  0
 34 35  2  0  0  0  0
 34 61  1  0  0  0  0
 36 38  1  0  0  0  0
 37 38  2  0  0  0  0
 39 40  1  0  0  0  0
 39 62  1  0  0  0  0
 40 41  2  0  0  0  0
 40 42  1  0  0  0  0
 41 43  1  0  0  0  0
 41 68  1  0  0  0  0
 42 44  2  0  0  0  0
 42 69  1  0  0  0  0
 43 45  2  0  0  0  0
 44 45  1  0  0  0  0
 44 70  1  0  0  0  0
M  CHG  1   7   1
M  END
> <PUBCHEM_COMPOUND_CID>
11157896

> <PUBCHEM_CONFORMER_RMSD>
1.2

> <PUBCHEM_CONFORMER_DIVERSEORDER>
1
9
311
164
34
192
132
363
265
366
117
153
250
381
120
54
407
305
203
10
355
167
126
232
224
376
318
65
141
108
391
32
378
213
21
52
395
394
152
388
200
12
349
209
246
208
294
173
18
115
95
329
174
268
11
3
296
113
370
210
403
350
325
331
365
33
334
333
149
84
171
258
373
412
145
385
129
301
290
322
82
377
53
398
408
137
260
14
236
263
23
160
6
404
15
287
386
276
323
68
110
161
346
100
228
241
69
98
211
47
25
86
70
187
245
243
96
312
46
383
364
85
288
273
266
389
92
170
35
293
116
175
341
264
302
280
122
352
61
277
30
369
155
90
216
259
326
83
205
353
306
242
2
347
102
5
237
307
128
217
240
204
247
81
227
372
105
169
103
183
337
320
41
40
336
101
274
298
36
393
184
253
58
112
219
49
144
405
303
19
106
135
125
338
239
154
292
57
134
339
196
4
382
64
380
73
189
193
121
401
358
255
359
283
215
284
229
248
410
254
130
27
182
257
63
220
109
251
111
62
271
327
198
299
234
221
357
411
51
206
88
180
279
147
138
267
384
7
24
190
29
131
374
91
163
300
390
261
282
235
16
158
360
136
43
223
304
72
165
194
146
249
26
124
166
31
340
289
321
172
409
56
177
50
39
157
244
123
295
140
118
78
97
324
379
143
201
67
80
348
214
94
222
286
317
22
281
218
392
285
66
93
176
314
76
119
330
332
256
87
361
367
197
99
328
55
148
396
150
344
185
225
202
42
354
71
142
345
272
387
399
162
335
151
233
342
8
275
168
38
238
75
343
44
79
400
188
191
127
45
207
17
77
375
181
291
178
114
28
316
139
199
308
179
278
13
231
262
212
60
310
195
37
319
368
107
226
397
156
252
133
20
362
315
270
313
356
309
351
89
48
406
371
186
269
230
159
402
74
104
297
59

> <PUBCHEM_MMFF94_PARTIAL_CHARGES>
65
1 -0.56
10 -0.53
11 -0.53
12 -0.53
13 -0.53
14 -0.53
15 -0.53
16 0.28
17 0.28
18 0.28
19 0.28
2 -0.36
20 0.56
21 0.28
22 0.09
23 0.85
24 -0.18
25 0.03
26 0.71
27 0.92
28 0.09
29 0.08
3 -0.68
30 -0.15
31 -0.15
32 -0.15
33 -0.14
34 -0.15
35 0.08
36 0.08
37 0.08
38 0.08
39 -0.18
4 -0.68
40 0.03
41 -0.15
42 -0.15
43 0.08
44 -0.15
45 0.08
5 -0.68
53 0.4
54 0.4
55 0.4
56 0.15
57 0.15
58 0.15
59 0.15
6 -0.43
60 0.15
61 0.15
62 0.15
63 0.45
64 0.45
65 0.45
66 0.45
67 0.45
68 0.15
69 0.15
7 -0.87
70 0.15
71 0.45
72 0.45
8 -0.57
9 -0.53

> <PUBCHEM_EFFECTIVE_ROTOR_COUNT>
9.2

> <PUBCHEM_PHARMACOPHORE_FEATURES>
21
1 1 acceptor
1 10 donor
1 11 donor
1 12 donor
1 13 donor
1 14 donor
1 15 donor
1 2 acceptor
1 3 acceptor
1 3 donor
1 4 acceptor
1 4 donor
1 5 acceptor
1 5 donor
1 8 acceptor
1 9 donor
6 1 16 17 18 19 20 rings
6 25 27 29 30 34 35 rings
6 28 31 32 36 37 38 rings
6 40 41 42 43 44 45 rings
6 7 22 23 24 25 27 rings

> <PUBCHEM_HEAVY_ATOM_COUNT>
45

> <PUBCHEM_ATOM_DEF_STEREO_COUNT>
5

> <PUBCHEM_ATOM_UDEF_STEREO_COUNT>
0

> <PUBCHEM_BOND_DEF_STEREO_COUNT>
1

> <PUBCHEM_BOND_UDEF_STEREO_COUNT>
0

> <PUBCHEM_ISOTOPIC_ATOM_COUNT>
0

> <PUBCHEM_COMPONENT_COUNT>
1

> <PUBCHEM_CACTVS_TAUTO_COUNT>
996

> <PUBCHEM_CONFORMER_ID>
00AA418800000001

> <PUBCHEM_MMFF94_ENERGY>
137.9674

> <PUBCHEM_FEATURE_SELFOVERLAP>
106.662

> <PUBCHEM_SHAPE_FINGERPRINT>
10032420 55 17843686801098435501
10864689 126 18200039589798213055
11411753 29 18200015241328919443
11513181 2 18192436268707039959
11578080 2 18338517430802122610
12156800 1 17703503303969813716
12758862 65 18114174276724625374
13751561 76 18413393124844749784
14068700 675 18041841855992156801
15001296 14 18272102565546454093
15219648 60 17988925599763942835
15721738 202 17312826012829023700
15968369 153 18200029513963458243
20775438 99 18265913379574978367
21197605 99 18127985109368994577
244849 19 18270670961718708171
24941158 1 17968365742010623096
437795 70 18341044224492130863
469060 322 17316187327829358526
5081480 168 18191280780527433622
508180 173 18268421498482977691
513532 50 18409453565812957908
5171179 24 18339349782447076446
5776283 40 18341887502465288134
6086070 43 18410565202155230642
6823239 73 18192445262104663661

> <PUBCHEM_SHAPE_MULTIPOLES>
838.04
16.02
6.18
2.94
25.15
4.11
-0.8
-3.39
10.25
-6.62
-0.57
-3.03
-1
6.2

> <PUBCHEM_SHAPE_SELFOVERLAP>
1841.653

> <PUBCHEM_SHAPE_VOLUME>
447.3

> <PUBCHEM_COORDINATE_TYPE>
2
5
10

$$$$

