54691338
  -OEChem-07051213032D

 62 63  0     1  0  0  0  0  0999 V2000
    4.5981   -2.4400    0.0000 O   0  0  0  0  0  0  0  0  0  0  0  0
    5.4641   -0.9400    0.0000 O   0  0  0  0  0  0  0  0  0  0  0  0
    8.0622   -2.4400    0.0000 O   0  0  0  0  0  0  0  0  0  0  0  0
    2.0000   -5.9400    0.0000 O   0  0  0  0  0  0  0  0  0  0  0  0
    7.1962   -3.9400    0.0000 N   0  0  0  0  0  0  0  0  0  0  0  0
   10.6603    5.0600    0.0000 C   0  0  1  0  0  0  0  0  0  0  0  0
    9.7942    4.5600    0.0000 C   0  0  0  0  0  0  0  0  0  0  0  0
    9.7942    3.5600    0.0000 C   0  0  1  0  0  0  0  0  0  0  0  0
   10.6603    6.0600    0.0000 C   0  0  0  0  0  0  0  0  0  0  0  0
   11.5263    4.5600    0.0000 C   0  0  0  0  0  0  0  0  0  0  0  0
   10.6603    3.0600    0.0000 C   0  0  0  0  0  0  0  0  0  0  0  0
    8.9282    3.0600    0.0000 C   0  0  0  0  0  0  0  0  0  0  0  0
   11.5263    6.5600    0.0000 C   0  0  0  0  0  0  0  0  0  0  0  0
    8.9282    2.0600    0.0000 C   0  0  0  0  0  0  0  0  0  0  0  0
    9.7942    1.5600    0.0000 C   0  0  0  0  0  0  0  0  0  0  0  0
    8.0622    1.5600    0.0000 C   0  0  0  0  0  0  0  0  0  0  0  0
    8.0622    0.5600    0.0000 C   0  0  0  0  0  0  0  0  0  0  0  0
    5.4641   -3.9400    0.0000 C   0  0  0  0  0  0  0  0  0  0  0  0
    7.1962    0.0600    0.0000 C   0  0  0  0  0  0  0  0  0  0  0  0
    6.3301   -2.4400    0.0000 C   0  0  0  0  0  0  0  0  0  0  0  0
    5.4641   -2.9400    0.0000 C   0  0  0  0  0  0  0  0  0  0  0  0
    4.5981   -4.4400    0.0000 C   0  0  0  0  0  0  0  0  0  0  0  0
    6.3301   -4.4400    0.0000 C   0  0  0  0  0  0  0  0  0  0  0  0
    7.1962   -0.9400    0.0000 C   0  0  0  0  0  0  0  0  0  0  0  0
    6.3301   -1.4400    0.0000 C   0  0  0  0  0  0  0  0  0  0  0  0
    7.1962   -2.9400    0.0000 C   0  0  0  0  0  0  0  0  0  0  0  0
    4.5981   -5.4400    0.0000 C   0  0  0  0  0  0  0  0  0  0  0  0
    3.7320   -3.9400    0.0000 C   0  0  0  0  0  0  0  0  0  0  0  0
    3.7320   -5.9400    0.0000 C   0  0  0  0  0  0  0  0  0  0  0  0
    2.8660   -4.4400    0.0000 C   0  0  0  0  0  0  0  0  0  0  0  0
    2.8660   -5.4400    0.0000 C   0  0  0  0  0  0  0  0  0  0  0  0
   11.1972    5.3700    0.0000 H   0  0  0  0  0  0  0  0  0  0  0  0
    9.5822    5.1426    0.0000 H   0  0  0  0  0  0  0  0  0  0  0  0
    9.1836    4.4523    0.0000 H   0  0  0  0  0  0  0  0  0  0  0  0
    9.7942    2.9400    0.0000 H   0  0  0  0  0  0  0  0  0  0  0  0
   10.4482    6.6426    0.0000 H   0  0  0  0  0  0  0  0  0  0  0  0
   10.0497    5.9523    0.0000 H   0  0  0  0  0  0  0  0  0  0  0  0
   11.2163    4.0231    0.0000 H   0  0  0  0  0  0  0  0  0  0  0  0
   12.0632    4.2500    0.0000 H   0  0  0  0  0  0  0  0  0  0  0  0
   11.8363    5.0969    0.0000 H   0  0  0  0  0  0  0  0  0  0  0  0
   10.3503    2.5231    0.0000 H   0  0  0  0  0  0  0  0  0  0  0  0
   11.1972    2.7500    0.0000 H   0  0  0  0  0  0  0  0  0  0  0  0
   10.9703    3.5969    0.0000 H   0  0  0  0  0  0  0  0  0  0  0  0
    8.3913    3.3700    0.0000 H   0  0  0  0  0  0  0  0  0  0  0  0
   11.8363    6.0231    0.0000 H   0  0  0  0  0  0  0  0  0  0  0  0
   12.0632    6.8700    0.0000 H   0  0  0  0  0  0  0  0  0  0  0  0
   11.2163    7.0969    0.0000 H   0  0  0  0  0  0  0  0  0  0  0  0
    9.4842    1.0231    0.0000 H   0  0  0  0  0  0  0  0  0  0  0  0
   10.3312    1.2500    0.0000 H   0  0  0  0  0  0  0  0  0  0  0  0
   10.1042    2.0969    0.0000 H   0  0  0  0  0  0  0  0  0  0  0  0
    7.5252    1.8700    0.0000 H   0  0  0  0  0  0  0  0  0  0  0  0
    8.5991    0.2500    0.0000 H   0  0  0  0  0  0  0  0  0  0  0  0
    6.6592    0.3700    0.0000 H   0  0  0  0  0  0  0  0  0  0  0  0
    6.3301   -5.0600    0.0000 H   0  0  0  0  0  0  0  0  0  0  0  0
    7.7331   -1.2500    0.0000 H   0  0  0  0  0  0  0  0  0  0  0  0
    7.7331   -4.2500    0.0000 H   0  0  0  0  0  0  0  0  0  0  0  0
    5.1350   -5.7500    0.0000 H   0  0  0  0  0  0  0  0  0  0  0  0
    3.7320   -3.3200    0.0000 H   0  0  0  0  0  0  0  0  0  0  0  0
    3.7320   -6.5600    0.0000 H   0  0  0  0  0  0  0  0  0  0  0  0
    2.3291   -4.1300    0.0000 H   0  0  0  0  0  0  0  0  0  0  0  0
    4.5981   -1.8200    0.0000 H   0  0  0  0  0  0  0  0  0  0  0  0
    2.0000   -6.5600    0.0000 H   0  0  0  0  0  0  0  0  0  0  0  0
  1 21  1  0  0  0  0
  1 61  1  0  0  0  0
  2 25  2  0  0  0  0
  3 26  2  0  0  0  0
  4 31  1  0  0  0  0
  4 62  1  0  0  0  0
  5 23  1  0  0  0  0
  5 26  1  0  0  0  0
  5 56  1  0  0  0  0
  6  7  1  0  0  0  0
  6  9  1  0  0  0  0
  6 10  1  1  0  0  0
  6 32  1  0  0  0  0
  7  8  1  0  0  0  0
  7 33  1  0  0  0  0
  7 34  1  0  0  0  0
  8 11  1  1  0  0  0
  8 12  1  0  0  0  0
  8 35  1  0  0  0  0
  9 13  1  0  0  0  0
  9 36  1  0  0  0  0
  9 37  1  0  0  0  0
 10 38  1  0  0  0  0
 10 39  1  0  0  0  0
 10 40  1  0  0  0  0
 11 41  1  0  0  0  0
 11 42  1  0  0  0  0
 11 43  1  0  0  0  0
 12 14  2  0  0  0  0
 12 44  1  0  0  0  0
 13 45  1  0  0  0  0
 13 46  1  0  0  0  0
 13 47  1  0  0  0  0
 14 15  1  0  0  0  0
 14 16  1  0  0  0  0
 15 48  1  0  0  0  0
 15 49  1  0  0  0  0
 15 50  1  0  0  0  0
 16 17  2  0  0  0  0
 16 51  1  0  0  0  0
 17 19  1  0  0  0  0
 17 52  1  0  0  0  0
 18 21  1  0  0  0  0
 18 22  1  0  0  0  0
 18 23  2  0  0  0  0
 19 24  2  0  0  0  0
 19 53  1  0  0  0  0
 20 21  2  0  0  0  0
 20 25  1  0  0  0  0
 20 26  1  0  0  0  0
 22 27  2  0  0  0  0
 22 28  1  0  0  0  0
 23 54  1  0  0  0  0
 24 25  1  0  0  0  0
 24 55  1  0  0  0  0
 27 29  1  0  0  0  0
 27 57  1  0  0  0  0
 28 30  2  0  0  0  0
 28 58  1  0  0  0  0
 29 31  2  0  0  0  0
 29 59  1  0  0  0  0
 30 31  1  0  0  0  0
 30 60  1  0  0  0  0
M  END
> <PUBCHEM_COMPOUND_CID>
54691338

> <PUBCHEM_COMPOUND_CANONICALIZED>
1

> <PUBCHEM_CACTVS_COMPLEXITY>
807

> <PUBCHEM_CACTVS_HBOND_ACCEPTOR>
4

> <PUBCHEM_CACTVS_HBOND_DONOR>
3

> <PUBCHEM_CACTVS_ROTATABLE_BOND>
9

> <PUBCHEM_CACTVS_SUBSKEYS>
AAADceB6OAAAAAAAAAAAAAAAAAAAAAAAAAAwQAAAAAAAAAABAAAAHgAQCAAADQTBmAQyBoLAAgCIAqFWUACCAAAgIAAIiIEOCMgIJjqKkRKEcAAkwhEImYeAwKAOIAAAAAAAAABAAAAAAAAAAAAAAAAAAA==

> <PUBCHEM_IUPAC_OPENEYE_NAME>
4-hydroxy-5-(4-hydroxyphenyl)-3-[(2E,4E,6E,8R,10R)-6,8,10-trimethyldodeca-2,4,6-trienoyl]-1H-pyridin-2-one

> <PUBCHEM_IUPAC_CAS_NAME>
4-hydroxy-5-(4-hydroxyphenyl)-3-[(2E,4E,6E,8R,10R)-6,8,10-trimethyl-1-oxododeca-2,4,6-trienyl]-1H-pyridin-2-one

> <PUBCHEM_IUPAC_NAME>
4-hydroxy-5-(4-hydroxyphenyl)-3-[(2E,4E,6E,8R,10R)-6,8,10-trimethyldodeca-2,4,6-trienoyl]-1H-pyridin-2-one

> <PUBCHEM_IUPAC_SYSTEMATIC_NAME>
5-(4-hydroxyphenyl)-4-oxidanyl-3-[(2E,4E,6E,8R,10R)-6,8,10-trimethyldodeca-2,4,6-trienoyl]-1H-pyridin-2-one

> <PUBCHEM_IUPAC_TRADITIONAL_NAME>
4-hydroxy-5-(4-hydroxyphenyl)-3-[(2E,4E,6E,8R,10R)-6,8,10-trimethyldodeca-2,4,6-trienoyl]-2-pyridone

> <PUBCHEM_IUPAC_INCHI>
InChI=1S/C26H31NO4/c1-5-17(2)14-19(4)15-18(3)8-6-7-9-23(29)24-25(30)22(16-27-26(24)31)20-10-12-21(28)13-11-20/h6-13,15-17,19,28H,5,14H2,1-4H3,(H2,27,30,31)/b8-6+,9-7+,18-15+/t17-,19-/m1/s1

> <PUBCHEM_IUPAC_INCHIKEY>
GBZJQQUISHXMFL-YNFQZBBQSA-N

> <PUBCHEM_XLOGP3_AA>
6.2

> <PUBCHEM_EXACT_MASS>
421.225308

> <PUBCHEM_MOLECULAR_FORMULA>
C26H31NO4

> <PUBCHEM_MOLECULAR_WEIGHT>
421.52864

> <PUBCHEM_OPENEYE_CAN_SMILES>
CCC(C)CC(C)C=C(C)C=CC=CC(=O)C1=C(C(=CNC1=O)C2=CC=C(C=C2)O)O

> <PUBCHEM_OPENEYE_ISO_SMILES>
CC[C@@H](C)C[C@@H](C)/C=C(\C)/C=C/C=C/C(=O)C1=C(C(=CNC1=O)C2=CC=C(C=C2)O)O

> <PUBCHEM_CACTVS_TPSA>
86.6

> <PUBCHEM_MONOISOTOPIC_WEIGHT>
421.225308

> <PUBCHEM_TOTAL_CHARGE>
0

> <PUBCHEM_HEAVY_ATOM_COUNT>
31

> <PUBCHEM_ATOM_DEF_STEREO_COUNT>
2

> <PUBCHEM_ATOM_UDEF_STEREO_COUNT>
0

> <PUBCHEM_BOND_DEF_STEREO_COUNT>
3

> <PUBCHEM_BOND_UDEF_STEREO_COUNT>
0

> <PUBCHEM_ISOTOPIC_ATOM_COUNT>
0

> <PUBCHEM_COMPONENT_COUNT>
1

> <PUBCHEM_CACTVS_TAUTO_COUNT>
34

> <PUBCHEM_COORDINATE_TYPE>
1
5
255

> <PUBCHEM_BONDANNOTATIONS>
18  21  8
18  23  8
20  21  8
20  26  8
22  27  8
22  28  8
27  29  8
28  30  8
29  31  8
30  31  8
5  23  8
5  26  8
6  10  5
8  11  5

$$$$

