442955
  -OEChem-07051213003D

 44 46  0     1  0  0  0  0  0999 V2000
   -3.2672    2.6553   -0.6444 O   0  0  0  0  0  0  0  0  0  0  0  0
    1.8898   -0.5891    0.0776 N   0  0  2  0  0  0  0  0  0  0  0  0
   -2.3826    0.5103   -0.3102 N   0  0  0  0  0  0  0  0  0  0  0  0
   -0.4202   -0.2634    0.9788 C   0  0  1  0  0  0  0  0  0  0  0  0
    2.2928    0.7657    0.5083 C   0  0  2  0  0  0  0  0  0  0  0  0
   -1.1646   -0.3121   -0.3575 C   0  0  1  0  0  0  0  0  0  0  0  0
    0.8438   -1.1381    0.9562 C   0  0  0  0  0  0  0  0  0  0  0  0
   -0.0577    1.1718    1.3747 C   0  0  0  0  0  0  0  0  0  0  0  0
    1.0863    1.7204    0.5266 C   0  0  0  0  0  0  0  0  0  0  0  0
    3.3736    1.3367   -0.4267 C   0  0  0  0  0  0  0  0  0  0  0  0
    3.0406   -1.5047    0.0364 C   0  0  0  0  0  0  0  0  0  0  0  0
   -1.4860   -1.7480   -0.7950 C   0  0  0  0  0  0  0  0  0  0  0  0
    4.5764    0.4064   -0.5277 C   0  0  0  0  0  0  0  0  0  0  0  0
    4.1272   -0.9972   -0.9100 C   0  0  0  0  0  0  0  0  0  0  0  0
   -2.6519   -2.3547   -0.0164 C   0  0  0  0  0  0  0  0  0  0  0  0
   -3.5516   -0.0362    0.3777 C   0  0  0  0  0  0  0  0  0  0  0  0
   -3.8768   -1.4479   -0.0946 C   0  0  0  0  0  0  0  0  0  0  0  0
   -2.3720    1.8248   -0.7539 C   0  0  0  0  0  0  0  0  0  0  0  0
   -1.0746   -0.6558    1.7679 H   0  0  0  0  0  0  0  0  0  0  0  0
    2.7086    0.7162    1.5252 H   0  0  0  0  0  0  0  0  0  0  0  0
   -0.5193    0.1111   -1.1373 H   0  0  0  0  0  0  0  0  0  0  0  0
    1.2338   -1.1892    1.9840 H   0  0  0  0  0  0  0  0  0  0  0  0
    0.6181   -2.1764    0.7021 H   0  0  0  0  0  0  0  0  0  0  0  0
    0.2780    1.1590    2.4213 H   0  0  0  0  0  0  0  0  0  0  0  0
   -0.9129    1.8518    1.3628 H   0  0  0  0  0  0  0  0  0  0  0  0
    0.7417    1.9112   -0.4957 H   0  0  0  0  0  0  0  0  0  0  0  0
    1.3942    2.6917    0.9332 H   0  0  0  0  0  0  0  0  0  0  0  0
    3.7044    2.3168   -0.0627 H   0  0  0  0  0  0  0  0  0  0  0  0
    2.9573    1.4947   -1.4306 H   0  0  0  0  0  0  0  0  0  0  0  0
    2.7163   -2.4904   -0.3191 H   0  0  0  0  0  0  0  0  0  0  0  0
    3.4637   -1.6437    1.0401 H   0  0  0  0  0  0  0  0  0  0  0  0
   -0.6271   -2.4207   -0.7964 H   0  0  0  0  0  0  0  0  0  0  0  0
   -1.7960   -1.7034   -1.8496 H   0  0  0  0  0  0  0  0  0  0  0  0
    5.0998    0.3762    0.4358 H   0  0  0  0  0  0  0  0  0  0  0  0
    5.2866    0.7891   -1.2688 H   0  0  0  0  0  0  0  0  0  0  0  0
    3.7473   -0.9937   -1.9395 H   0  0  0  0  0  0  0  0  0  0  0  0
    4.9851   -1.6787   -0.8882 H   0  0  0  0  0  0  0  0  0  0  0  0
   -2.3671   -2.5132    1.0299 H   0  0  0  0  0  0  0  0  0  0  0  0
   -2.8991   -3.3381   -0.4322 H   0  0  0  0  0  0  0  0  0  0  0  0
   -4.4166    0.6170    0.2210 H   0  0  0  0  0  0  0  0  0  0  0  0
   -3.3353   -0.0305    1.4520 H   0  0  0  0  0  0  0  0  0  0  0  0
   -4.2314   -1.4113   -1.1323 H   0  0  0  0  0  0  0  0  0  0  0  0
   -4.6899   -1.8649    0.5096 H   0  0  0  0  0  0  0  0  0  0  0  0
   -1.4316    2.0836   -1.2643 H   0  0  0  0  0  0  0  0  0  0  0  0
  1 18  2  0  0  0  0
  2  5  1  0  0  0  0
  2  7  1  0  0  0  0
  2 11  1  0  0  0  0
  3  6  1  0  0  0  0
  3 16  1  0  0  0  0
  3 18  1  0  0  0  0
  4  6  1  0  0  0  0
  4  7  1  0  0  0  0
  4  8  1  0  0  0  0
  4 19  1  0  0  0  0
  5  9  1  0  0  0  0
  5 10  1  0  0  0  0
  5 20  1  0  0  0  0
  6 12  1  0  0  0  0
  6 21  1  0  0  0  0
  7 22  1  0  0  0  0
  7 23  1  0  0  0  0
  8  9  1  0  0  0  0
  8 24  1  0  0  0  0
  8 25  1  0  0  0  0
  9 26  1  0  0  0  0
  9 27  1  0  0  0  0
 10 13  1  0  0  0  0
 10 28  1  0  0  0  0
 10 29  1  0  0  0  0
 11 14  1  0  0  0  0
 11 30  1  0  0  0  0
 11 31  1  0  0  0  0
 12 15  1  0  0  0  0
 12 32  1  0  0  0  0
 12 33  1  0  0  0  0
 13 14  1  0  0  0  0
 13 34  1  0  0  0  0
 13 35  1  0  0  0  0
 14 36  1  0  0  0  0
 14 37  1  0  0  0  0
 15 17  1  0  0  0  0
 15 38  1  0  0  0  0
 15 39  1  0  0  0  0
 16 17  1  0  0  0  0
 16 40  1  0  0  0  0
 16 41  1  0  0  0  0
 17 42  1  0  0  0  0
 17 43  1  0  0  0  0
 18 44  1  0  0  0  0
M  END
> <PUBCHEM_COMPOUND_CID>
442955

> <PUBCHEM_CONFORMER_RMSD>
0.6

> <PUBCHEM_CONFORMER_DIVERSEORDER>
1
12
8
2
11
5
3
7
4
6
9
10

> <PUBCHEM_MMFF94_PARTIAL_CHARGES>
10
1 -0.57
11 0.27
16 0.3
18 0.57
2 -0.81
3 -0.66
44 0.06
5 0.27
6 0.3
7 0.27

> <PUBCHEM_EFFECTIVE_ROTOR_COUNT>
4.8

> <PUBCHEM_PHARMACOPHORE_FEATURES>
5
1 1 acceptor
1 2 cation
6 2 4 5 7 8 9 rings
6 2 5 10 11 13 14 rings
6 3 6 12 15 16 17 rings

> <PUBCHEM_HEAVY_ATOM_COUNT>
18

> <PUBCHEM_ATOM_DEF_STEREO_COUNT>
3

> <PUBCHEM_ATOM_UDEF_STEREO_COUNT>
0

> <PUBCHEM_BOND_DEF_STEREO_COUNT>
0

> <PUBCHEM_BOND_UDEF_STEREO_COUNT>
0

> <PUBCHEM_ISOTOPIC_ATOM_COUNT>
0

> <PUBCHEM_COMPONENT_COUNT>
1

> <PUBCHEM_CACTVS_TAUTO_COUNT>
1

> <PUBCHEM_CONFORMER_ID>
0006C24B00000001

> <PUBCHEM_MMFF94_ENERGY>
18.8877

> <PUBCHEM_FEATURE_SELFOVERLAP>
25.392

> <PUBCHEM_SHAPE_FINGERPRINT>
10062212 137 18201170952376234522
10498660 4 17703804646874457445
10756046 5 18339643442330330414
10922523 26 18334580118127319252
11715629 250 18337401435020961568
12011746 2 18410298012929881525
12173636 292 18412833499000914943
12186901 62 18342742931528588351
12403814 3 18413101750047458523
12670546 177 18338224973841527612
13221675 6 18338239271381603659
13296908 3 17676491605572029282
13705890 14 18186518787636523570
14251751 93 18413392059318197039
14790565 3 17903348552585248961
16752209 62 18263945344102862247
16945 1 18266476329274535531
17834074 16 18336264535549964475
18186145 218 18408039632609120232
200 152 18113893841261705778
20361792 2 15502375612588315456
20645476 183 18269280243045018863
20645477 70 17458337533970645582
20871999 31 18409168822334382471
21069387 34 14635453583714928597
21267235 1 18261943073141124822
21501502 16 18202013160754887011
22094290 60 18341611490823965207
221357 26 18408042892441890119
221490 88 18192706744367203714
22802520 49 18265057933615755009
23402539 116 17846788381988041676
23402655 69 18341327881559803372
23493267 7 18337111288410256931
23557571 272 18408879637828215020
23559900 14 18188494704853662258
23598291 2 17845106236033819258
25 1 17987797548336095912
2748010 2 18115324292450529328
2871803 45 18340776931402271495
3323516 105 18335981952635072546
4028521 119 18059866060196649767
474 4 16916216664153772404
559249 180 18269278035759357194
6049 1 18115037311436748993
633830 44 15913045486295877776
7832392 63 18342744060736150772
9709674 26 18339355275974083038

> <PUBCHEM_SHAPE_MULTIPOLES>
354.6
7.83
2.4
1.03
3.16
0.43
0.14
-0.81
-2.13
-1.65
-0.36
0.08
0.13
0.46

> <PUBCHEM_SHAPE_SELFOVERLAP>
726.597

> <PUBCHEM_SHAPE_VOLUME>
200.4

> <PUBCHEM_COORDINATE_TYPE>
2
5
10

$$$$

