86222
  -OEChem-07051213013D

 40 41  0     1  0  0  0  0  0999 V2000
    5.5178   -1.2502   -0.7299 Cl  0  0  0  0  0  0  0  0  0  0  0  0
    4.0479    2.9251   -0.0638 Cl  0  0  0  0  0  0  0  0  0  0  0  0
   -0.8754    3.3367    0.9837 F   0  0  0  0  0  0  0  0  0  0  0  0
   -5.0951   -1.1287   -1.5643 F   0  0  0  0  0  0  0  0  0  0  0  0
   -4.7534   -2.0352    0.3889 F   0  0  0  0  0  0  0  0  0  0  0  0
    2.2187   -1.8546    1.0711 O   0  0  0  0  0  0  0  0  0  0  0  0
   -1.1721   -1.2656   -1.0933 O   0  0  0  0  0  0  0  0  0  0  0  0
    3.1682   -3.0307   -0.6699 O   0  0  0  0  0  0  0  0  0  0  0  0
   -1.4829    0.8395   -0.0660 N   0  0  0  0  0  0  0  0  0  0  0  0
   -3.2524   -0.4610   -0.3598 N   0  0  0  0  0  0  0  0  0  0  0  0
   -2.5742    1.5098    0.4340 N   0  0  0  0  0  0  0  0  0  0  0  0
    2.1615    1.0352   -0.6098 C   0  0  0  0  0  0  0  0  0  0  0  0
    3.2349    0.1747   -1.1947 C   0  0  0  0  0  0  0  0  0  0  0  0
   -0.1869    1.3215   -0.0690 C   0  0  0  0  0  0  0  0  0  0  0  0
    0.8531    0.5516   -0.6061 C   0  0  0  0  0  0  0  0  0  0  0  0
    3.8916   -0.7603   -0.1680 C   0  0  1  0  0  0  0  0  0  0  0  0
   -1.8839   -0.4159   -0.5766 C   0  0  0  0  0  0  0  0  0  0  0  0
    2.4416    2.2934   -0.0764 C   0  0  0  0  0  0  0  0  0  0  0  0
   -3.5739    0.7037    0.2366 C   0  0  0  0  0  0  0  0  0  0  0  0
    0.1049    2.5839    0.4645 C   0  0  0  0  0  0  0  0  0  0  0  0
    1.4132    3.0677    0.4608 C   0  0  0  0  0  0  0  0  0  0  0  0
   -4.1305   -1.5594   -0.7161 C   0  0  0  0  0  0  0  0  0  0  0  0
   -4.9784    1.0201    0.6268 C   0  0  0  0  0  0  0  0  0  0  0  0
    3.0823   -2.0272    0.0261 C   0  0  0  0  0  0  0  0  0  0  0  0
    1.3552   -2.9615    1.3477 C   0  0  0  0  0  0  0  0  0  0  0  0
    0.4681   -2.6128    2.5239 C   0  0  0  0  0  0  0  0  0  0  0  0
    3.9863    0.8035   -1.6874 H   0  0  0  0  0  0  0  0  0  0  0  0
    2.8132   -0.4178   -2.0196 H   0  0  0  0  0  0  0  0  0  0  0  0
    0.7221   -0.4266   -1.0412 H   0  0  0  0  0  0  0  0  0  0  0  0
    4.0516   -0.2714    0.7986 H   0  0  0  0  0  0  0  0  0  0  0  0
    1.6144    4.0500    0.8804 H   0  0  0  0  0  0  0  0  0  0  0  0
   -3.5718   -2.3710   -1.1904 H   0  0  0  0  0  0  0  0  0  0  0  0
   -5.0289    2.0049    1.0988 H   0  0  0  0  0  0  0  0  0  0  0  0
   -5.3461    0.2673    1.3291 H   0  0  0  0  0  0  0  0  0  0  0  0
   -5.6184    1.0148   -0.2596 H   0  0  0  0  0  0  0  0  0  0  0  0
    0.7371   -3.1707    0.4675 H   0  0  0  0  0  0  0  0  0  0  0  0
    1.9581   -3.8443    1.5875 H   0  0  0  0  0  0  0  0  0  0  0  0
   -0.2068   -3.4392    2.7635 H   0  0  0  0  0  0  0  0  0  0  0  0
    1.0721   -2.3808    3.4072 H   0  0  0  0  0  0  0  0  0  0  0  0
   -0.1289   -1.7212    2.3040 H   0  0  0  0  0  0  0  0  0  0  0  0
  1 16  1  0  0  0  0
  2 18  1  0  0  0  0
  3 20  1  0  0  0  0
  4 22  1  0  0  0  0
  5 22  1  0  0  0  0
  6 24  1  0  0  0  0
  6 25  1  0  0  0  0
  7 17  2  0  0  0  0
  8 24  2  0  0  0  0
  9 11  1  0  0  0  0
  9 14  1  0  0  0  0
  9 17  1  0  0  0  0
 10 17  1  0  0  0  0
 10 19  1  0  0  0  0
 10 22  1  0  0  0  0
 11 19  2  0  0  0  0
 12 13  1  0  0  0  0
 12 15  2  0  0  0  0
 12 18  1  0  0  0  0
 13 16  1  0  0  0  0
 13 27  1  0  0  0  0
 13 28  1  0  0  0  0
 14 15  1  0  0  0  0
 14 20  2  0  0  0  0
 15 29  1  0  0  0  0
 16 24  1  0  0  0  0
 16 30  1  0  0  0  0
 18 21  2  0  0  0  0
 19 23  1  0  0  0  0
 20 21  1  0  0  0  0
 21 31  1  0  0  0  0
 22 32  1  0  0  0  0
 23 33  1  0  0  0  0
 23 34  1  0  0  0  0
 23 35  1  0  0  0  0
 25 26  1  0  0  0  0
 25 36  1  0  0  0  0
 25 37  1  0  0  0  0
 26 38  1  0  0  0  0
 26 39  1  0  0  0  0
 26 40  1  0  0  0  0
M  END
> <PUBCHEM_COMPOUND_CID>
86222

> <PUBCHEM_CONFORMER_RMSD>
0.8

> <PUBCHEM_CONFORMER_DIVERSEORDER>
1
77
116
2
90
54
84
64
38
88
31
57
117
74
60
121
61
96
122
39
113
98
50
24
27
95
29
48
73
94
35
123
107
65
111
85
33
115
120
119
68
99
87
92
125
9
106
82
86
70
25
63
45
103
55
118
104
53
102
49
12
47
89
34
109
6
17
59
36
11
28
101
15
124
83
126
91
66
72
105
19
97
8
100
10
23
40
67
52
108
69
37
22
41
79
75
21
62
58
114
80
93
26
51
71
20
44
110
78
30
32
81
14
7
4
56
3
76
16
43
46
13
18
42
112
5

> <PUBCHEM_MMFF94_PARTIAL_CHARGES>
27
1 -0.29
10 -0.42
11 -0.51
12 -0.14
13 0.14
14 0.12
15 -0.15
16 0.35
17 0.69
18 0.18
19 0.45
2 -0.18
20 0.19
21 -0.15
22 0.98
23 0.06
24 0.66
25 0.28
29 0.15
3 -0.19
31 0.15
4 -0.34
5 -0.34
6 -0.43
7 -0.57
8 -0.57
9 -0.11

> <PUBCHEM_EFFECTIVE_ROTOR_COUNT>
7

> <PUBCHEM_PHARMACOPHORE_FEATURES>
4
1 7 acceptor
1 8 acceptor
5 9 10 11 17 19 rings
6 12 14 15 18 20 21 rings

> <PUBCHEM_HEAVY_ATOM_COUNT>
26

> <PUBCHEM_ATOM_DEF_STEREO_COUNT>
0

> <PUBCHEM_ATOM_UDEF_STEREO_COUNT>
1

> <PUBCHEM_BOND_DEF_STEREO_COUNT>
0

> <PUBCHEM_BOND_UDEF_STEREO_COUNT>
0

> <PUBCHEM_ISOTOPIC_ATOM_COUNT>
0

> <PUBCHEM_COMPONENT_COUNT>
1

> <PUBCHEM_CACTVS_TAUTO_COUNT>
1

> <PUBCHEM_CONFORMER_ID>
000150CE00000001

> <PUBCHEM_MMFF94_ENERGY>
63.9103

> <PUBCHEM_FEATURE_SELFOVERLAP>
20.297

> <PUBCHEM_SHAPE_FINGERPRINT>
1100329 8 18412262827039277402
11578080 2 18059024998210983420
12107183 9 18116983597790479233
12553582 1 18338806739603580130
12788726 201 18122057869252607048
13140716 1 18260260876111498881
13533116 47 18263085427468247911
13583140 156 18201426030932427673
14787075 74 18343295994662771830
14790565 3 17904197036444182548
14931854 50 18343862242750475118
15196674 1 18261388914869701085
15375462 189 18341610472726740528
20291156 8 18266459991366679934
20567600 347 18126294047241799106
20645477 70 18410017597971420581
20691752 17 18202004308911932512
21421861 104 18412547647516177544
2255824 54 18340483349123951724
23559900 14 18335989709140735308
238 59 18272084933745718842
335352 9 18261950847401319557
4283 87 18411705408608113803
463206 1 18413383233150081667
5104073 3 18113891629190142065
9981440 41 17325221627922211512

> <PUBCHEM_SHAPE_MULTIPOLES>
484.44
9.8
4.12
1.31
6.04
0.41
-0.48
-3.14
2.7
-2.93
-1.66
0.13
-1
-0.74

> <PUBCHEM_SHAPE_SELFOVERLAP>
1005.451

> <PUBCHEM_SHAPE_VOLUME>
278.9

> <PUBCHEM_COORDINATE_TYPE>
2
5
10

$$$$

