5376058
  -OEChem-07051212463D

 23 25  0     0  0  0  0  0  0999 V2000
   -2.0749   -2.6013   -0.0002 O   0  0  0  0  0  0  0  0  0  0  0  0
   -4.2218    1.4791   -0.0012 O   0  0  0  0  0  0  0  0  0  0  0  0
   -1.9278    1.4374    0.0001 N   0  0  0  0  0  0  0  0  0  0  0  0
    0.4351    1.4378    0.0002 N   0  0  0  0  0  0  0  0  0  0  0  0
   -3.1562   -0.5607    0.0007 N   0  0  0  0  0  0  0  0  0  0  0  0
   -0.7426   -0.6584    0.0002 C   0  0  0  0  0  0  0  0  0  0  0  0
    1.6711   -0.6314   -0.0003 C   0  0  0  0  0  0  0  0  0  0  0  0
   -0.7169    0.7260    0.0003 C   0  0  0  0  0  0  0  0  0  0  0  0
    1.6086    0.7770    0.0000 C   0  0  0  0  0  0  0  0  0  0  0  0
    0.4666   -1.3458   -0.0001 C   0  0  0  0  0  0  0  0  0  0  0  0
   -2.0307   -1.3760    0.0005 C   0  0  0  0  0  0  0  0  0  0  0  0
    2.9147   -1.2862   -0.0005 C   0  0  0  0  0  0  0  0  0  0  0  0
    2.8065    1.4860    0.0003 C   0  0  0  0  0  0  0  0  0  0  0  0
   -3.1722    0.8332    0.0001 C   0  0  0  0  0  0  0  0  0  0  0  0
    4.0975   -0.5525   -0.0003 C   0  0  0  0  0  0  0  0  0  0  0  0
    4.0429    0.8357    0.0002 C   0  0  0  0  0  0  0  0  0  0  0  0
    0.4820   -2.4334   -0.0002 H   0  0  0  0  0  0  0  0  0  0  0  0
   -1.8695    2.4512   -0.0003 H   0  0  0  0  0  0  0  0  0  0  0  0
    2.9688   -2.3727   -0.0007 H   0  0  0  0  0  0  0  0  0  0  0  0
    2.7908    2.5744    0.0006 H   0  0  0  0  0  0  0  0  0  0  0  0
   -4.0588   -1.0274    0.0004 H   0  0  0  0  0  0  0  0  0  0  0  0
    5.0562   -1.0619   -0.0005 H   0  0  0  0  0  0  0  0  0  0  0  0
    4.9606    1.4165    0.0004 H   0  0  0  0  0  0  0  0  0  0  0  0
  1 11  2  0  0  0  0
  2 14  2  0  0  0  0
  3  8  1  0  0  0  0
  3 14  1  0  0  0  0
  3 18  1  0  0  0  0
  4  8  2  0  0  0  0
  4  9  1  0  0  0  0
  5 11  1  0  0  0  0
  5 14  1  0  0  0  0
  5 21  1  0  0  0  0
  6  8  1  0  0  0  0
  6 10  2  0  0  0  0
  6 11  1  0  0  0  0
  7  9  1  0  0  0  0
  7 10  1  0  0  0  0
  7 12  2  0  0  0  0
  9 13  2  0  0  0  0
 10 17  1  0  0  0  0
 12 15  1  0  0  0  0
 12 19  1  0  0  0  0
 13 16  1  0  0  0  0
 13 20  1  0  0  0  0
 15 16  2  0  0  0  0
 15 22  1  0  0  0  0
 16 23  1  0  0  0  0
M  END
> <PUBCHEM_COMPOUND_CID>
5376058

> <PUBCHEM_CONFORMER_RMSD>
0.4

> <PUBCHEM_CONFORMER_DIVERSEORDER>
1

> <PUBCHEM_MMFF94_PARTIAL_CHARGES>
22
1 -0.57
10 -0.15
11 0.54
12 -0.15
13 -0.15
14 0.69
15 -0.15
16 -0.15
17 0.15
18 0.37
19 0.15
2 -0.57
20 0.15
21 0.37
22 0.15
23 0.15
3 -0.55
4 -0.62
5 -0.49
6 0.09
8 0.43
9 0.31

> <PUBCHEM_EFFECTIVE_ROTOR_COUNT>
0

> <PUBCHEM_PHARMACOPHORE_FEATURES>
7
1 1 acceptor
1 2 acceptor
1 3 donor
1 5 donor
6 3 5 6 8 11 14 rings
6 4 6 7 8 9 10 rings
6 7 9 12 13 15 16 rings

> <PUBCHEM_HEAVY_ATOM_COUNT>
16

> <PUBCHEM_ATOM_DEF_STEREO_COUNT>
0

> <PUBCHEM_ATOM_UDEF_STEREO_COUNT>
0

> <PUBCHEM_BOND_DEF_STEREO_COUNT>
0

> <PUBCHEM_BOND_UDEF_STEREO_COUNT>
0

> <PUBCHEM_ISOTOPIC_ATOM_COUNT>
0

> <PUBCHEM_COMPONENT_COUNT>
1

> <PUBCHEM_CACTVS_TAUTO_COUNT>
9

> <PUBCHEM_CONFORMER_ID>
0052083A00000001

> <PUBCHEM_MMFF94_ENERGY>
44.527

> <PUBCHEM_FEATURE_SELFOVERLAP>
35.623

> <PUBCHEM_SHAPE_FINGERPRINT>
10062212 137 18411992342583307298
10608611 8 18409451349652180432
10616163 171 18337388240929238926
10967382 1 18338517559566264738
11132069 177 18410579478725982664
11471102 20 18410015476505599796
12251169 10 18412265064426815344
12500047 106 18409454678146157865
13140716 1 18411425003215163450
13221675 6 18411982489695883802
13380535 76 18335421304720941751
13760787 19 18272366465042092830
14115302 16 18341321267062293348
14144814 61 18411138043401639762
14325111 11 18410573963908892128
14897335 6 18410014346638927077
15196674 1 18410573985177844390
15219456 202 18408037407731788174
15375358 24 18260550043258046454
15442244 35 18266459991556681530
15536298 74 18334858316545110408
15775835 57 18342736342542438280
16945 1 18338516468676207074
17804303 29 18409163320634250524
18186145 218 18059861674992985230
200 152 17749114386972301325
20510252 161 18260826038067692161
20645477 70 18335140954841111519
21267235 1 18411128117584941258
21501502 16 18340207393016231030
221490 88 18339634530663503418
2334 1 18338516318315467426
23402539 116 18260839227996634597
23402655 69 18335142020103770572
23463225 33 18413108364181043300
23559900 14 18334296492200239786
2748010 2 18409728422281923630
3312278 4 18336261262874283040
335352 9 18338517576872799870
34934 24 18411426119933007866
474 4 17202195219212323012
5104073 3 18411419492745665048
528886 8 18409735070901769434
53812653 166 18335144185067844688
69090 78 18409733984375263743
7364860 26 18264771150260426550
7832392 63 18410858750331690340
8809292 202 18342172245970191498
9709674 26 18335415759918455070

> <PUBCHEM_SHAPE_MULTIPOLES>
302.59
7.12
2.02
0.59
0.42
0.51
0
-1.35
0
-0.84
0
0.07
0.01
0

> <PUBCHEM_SHAPE_SELFOVERLAP>
683.139

> <PUBCHEM_SHAPE_VOLUME>
156.1

> <PUBCHEM_COORDINATE_TYPE>
2
5
10

$$$$

