10419304
  -OEChem-07051213142D

 18 18  0     1  0  0  0  0  0999 V2000
    2.5896   -0.9285    0.0000 O   0  0  0  0  0  0  0  0  0  0  0  0
    3.1249    0.7188    0.0000 O   0  0  0  0  0  0  0  0  0  0  0  0
    5.9589    1.5194    0.0000 O   0  0  0  0  0  0  0  0  0  0  0  0
    5.0929    0.0194    0.0000 N   0  0  0  0  0  0  0  0  0  0  0  0
    5.0929    1.0194    0.0000 N   0  0  0  0  0  0  0  0  0  0  0  0
    4.2839   -0.5684    0.0000 C   0  0  1  0  0  0  0  0  0  0  0  0
    4.5929   -1.5194    0.0000 C   0  0  0  0  0  0  0  0  0  0  0  0
    5.5929   -1.5194    0.0000 C   0  0  0  0  0  0  0  0  0  0  0  0
    5.9019   -0.5684    0.0000 C   0  0  0  0  0  0  0  0  0  0  0  0
    3.3328   -0.2593    0.0000 C   0  0  0  0  0  0  0  0  0  0  0  0
    4.1869    0.0440    0.0000 H   0  0  0  0  0  0  0  0  0  0  0  0
    3.9864   -1.6483    0.0000 H   0  0  0  0  0  0  0  0  0  0  0  0
    4.6577   -2.1360    0.0000 H   0  0  0  0  0  0  0  0  0  0  0  0
    5.5281   -2.1360    0.0000 H   0  0  0  0  0  0  0  0  0  0  0  0
    6.1993   -1.6483    0.0000 H   0  0  0  0  0  0  0  0  0  0  0  0
    6.4683   -0.8205    0.0000 H   0  0  0  0  0  0  0  0  0  0  0  0
    6.2119   -0.0314    0.0000 H   0  0  0  0  0  0  0  0  0  0  0  0
    2.0000   -0.7369    0.0000 H   0  0  0  0  0  0  0  0  0  0  0  0
  1 10  1  0  0  0  0
  1 18  1  0  0  0  0
  2 10  2  0  0  0  0
  3  5  2  0  0  0  0
  4  5  1  0  0  0  0
  4  6  1  0  0  0  0
  4  9  1  0  0  0  0
  6  7  1  0  0  0  0
  6 10  1  1  0  0  0
  6 11  1  0  0  0  0
  7  8  1  0  0  0  0
  7 12  1  0  0  0  0
  7 13  1  0  0  0  0
  8  9  1  0  0  0  0
  8 14  1  0  0  0  0
  8 15  1  0  0  0  0
  9 16  1  0  0  0  0
  9 17  1  0  0  0  0
M  END
> <PUBCHEM_COMPOUND_CID>
10419304

> <PUBCHEM_COMPOUND_CANONICALIZED>
1

> <PUBCHEM_CACTVS_COMPLEXITY>
159

> <PUBCHEM_CACTVS_HBOND_ACCEPTOR>
5

> <PUBCHEM_CACTVS_HBOND_DONOR>
1

> <PUBCHEM_CACTVS_ROTATABLE_BOND>
1

> <PUBCHEM_CACTVS_SUBSKEYS>
AAADccBjMAAAAAAAAAAAAAAAAAAAAWAAAAAAAAAAAAAAAAAAAAAAHgAMCAAACCjBgAQACAIAAgAJAACQCAAAAAAAAAAQAAGIAAACABIAgCAEQAAEAACQAACYEQAAAAAAAAAAAAAAAAAAAAAAAAAAAAAAAA==

> <PUBCHEM_IUPAC_OPENEYE_NAME>
(2S)-1-nitrosopyrrolidine-2-carboxylic acid

> <PUBCHEM_IUPAC_CAS_NAME>
(2S)-1-nitroso-2-pyrrolidinecarboxylic acid

> <PUBCHEM_IUPAC_NAME>
(2S)-1-nitrosopyrrolidine-2-carboxylic acid

> <PUBCHEM_IUPAC_SYSTEMATIC_NAME>
(2S)-1-nitrosopyrrolidine-2-carboxylic acid

> <PUBCHEM_IUPAC_TRADITIONAL_NAME>
(2S)-1-nitrosoproline

> <PUBCHEM_IUPAC_INCHI>
InChI=1S/C5H8N2O3/c8-5(9)4-2-1-3-7(4)6-10/h4H,1-3H2,(H,8,9)/t4-/m0/s1

> <PUBCHEM_IUPAC_INCHIKEY>
WLKPHJWEIIAIFW-BYPYZUCNSA-N

> <PUBCHEM_XLOGP3_AA>
0.3

> <PUBCHEM_EXACT_MASS>
144.053492

> <PUBCHEM_MOLECULAR_FORMULA>
C5H8N2O3

> <PUBCHEM_MOLECULAR_WEIGHT>
144.12862

> <PUBCHEM_OPENEYE_CAN_SMILES>
C1CC(N(C1)N=O)C(=O)O

> <PUBCHEM_OPENEYE_ISO_SMILES>
C1C[C@H](N(C1)N=O)C(=O)O

> <PUBCHEM_CACTVS_TPSA>
70

> <PUBCHEM_MONOISOTOPIC_WEIGHT>
144.053492

> <PUBCHEM_TOTAL_CHARGE>
0

> <PUBCHEM_HEAVY_ATOM_COUNT>
10

> <PUBCHEM_ATOM_DEF_STEREO_COUNT>
1

> <PUBCHEM_ATOM_UDEF_STEREO_COUNT>
0

> <PUBCHEM_BOND_DEF_STEREO_COUNT>
0

> <PUBCHEM_BOND_UDEF_STEREO_COUNT>
0

> <PUBCHEM_ISOTOPIC_ATOM_COUNT>
0

> <PUBCHEM_COMPONENT_COUNT>
1

> <PUBCHEM_CACTVS_TAUTO_COUNT>
1

> <PUBCHEM_COORDINATE_TYPE>
1
5
255

> <PUBCHEM_BONDANNOTATIONS>
6  10  5

$$$$

