5281836
  -OEChem-07051213002D

 46 48  0     1  0  0  0  0  0999 V2000
    7.2764   -0.3833    0.0000 O   0  0  0  0  0  0  0  0  0  0  0  0
    5.4641   -1.5786    0.0000 O   0  0  0  0  0  0  0  0  0  0  0  0
   10.8600   -1.3106    0.0000 O   0  0  0  0  0  0  0  0  0  0  0  0
   11.8600    0.4214    0.0000 O   0  0  0  0  0  0  0  0  0  0  0  0
    7.2764    1.2261    0.0000 C   0  0  2  0  0  0  0  0  0  0  0  0
    7.8600    0.4214    0.0000 C   0  0  1  0  0  0  0  0  0  0  0  0
    6.3301    0.9214    0.0000 C   0  0  0  0  0  0  0  0  0  0  0  0
    6.3301   -0.0786    0.0000 C   0  0  0  0  0  0  0  0  0  0  0  0
    8.8600    0.4214    0.0000 C   0  0  0  0  0  0  0  0  0  0  0  0
    7.5870    2.1767    0.0000 C   0  0  0  0  0  0  0  0  0  0  0  0
    5.4641    1.4214    0.0000 C   0  0  0  0  0  0  0  0  0  0  0  0
    5.4641   -0.5786    0.0000 C   0  0  0  0  0  0  0  0  0  0  0  0
    4.5981    0.9214    0.0000 C   0  0  0  0  0  0  0  0  0  0  0  0
    9.3600   -0.4446    0.0000 C   0  0  0  0  0  0  0  0  0  0  0  0
    4.5981   -0.0786    0.0000 C   0  0  0  0  0  0  0  0  0  0  0  0
    9.3600    1.2874    0.0000 C   0  0  0  0  0  0  0  0  0  0  0  0
   10.3600   -0.4446    0.0000 C   0  0  0  0  0  0  0  0  0  0  0  0
   10.3600    1.2874    0.0000 C   0  0  0  0  0  0  0  0  0  0  0  0
    3.7320    1.4214    0.0000 C   0  0  0  0  0  0  0  0  0  0  0  0
   10.8600    0.4214    0.0000 C   0  0  0  0  0  0  0  0  0  0  0  0
    4.5981   -2.0786    0.0000 C   0  0  0  0  0  0  0  0  0  0  0  0
    2.8660    0.9214    0.0000 C   0  0  0  0  0  0  0  0  0  0  0  0
    2.0000    1.4214    0.0000 C   0  0  0  0  0  0  0  0  0  0  0  0
   10.3600   -2.1767    0.0000 C   0  0  0  0  0  0  0  0  0  0  0  0
    6.8389    1.6655    0.0000 H   0  0  0  0  0  0  0  0  0  0  0  0
    8.1417   -0.1309    0.0000 H   0  0  0  0  0  0  0  0  0  0  0  0
    8.1763    1.9840    0.0000 H   0  0  0  0  0  0  0  0  0  0  0  0
    7.7796    2.7660    0.0000 H   0  0  0  0  0  0  0  0  0  0  0  0
    6.9977    2.3693    0.0000 H   0  0  0  0  0  0  0  0  0  0  0  0
    5.4641    2.0414    0.0000 H   0  0  0  0  0  0  0  0  0  0  0  0
    9.0500   -0.9815    0.0000 H   0  0  0  0  0  0  0  0  0  0  0  0
    4.0611   -0.3886    0.0000 H   0  0  0  0  0  0  0  0  0  0  0  0
    9.0500    1.8244    0.0000 H   0  0  0  0  0  0  0  0  0  0  0  0
   10.6700    1.8244    0.0000 H   0  0  0  0  0  0  0  0  0  0  0  0
    3.7320    2.0414    0.0000 H   0  0  0  0  0  0  0  0  0  0  0  0
    4.2881   -1.5416    0.0000 H   0  0  0  0  0  0  0  0  0  0  0  0
    4.0611   -2.3886    0.0000 H   0  0  0  0  0  0  0  0  0  0  0  0
    4.9081   -2.6155    0.0000 H   0  0  0  0  0  0  0  0  0  0  0  0
    2.8660    0.3014    0.0000 H   0  0  0  0  0  0  0  0  0  0  0  0
   12.1700    0.9583    0.0000 H   0  0  0  0  0  0  0  0  0  0  0  0
    2.3100    1.9584    0.0000 H   0  0  0  0  0  0  0  0  0  0  0  0
    1.4631    1.7314    0.0000 H   0  0  0  0  0  0  0  0  0  0  0  0
    1.6900    0.8845    0.0000 H   0  0  0  0  0  0  0  0  0  0  0  0
    9.8230   -1.8667    0.0000 H   0  0  0  0  0  0  0  0  0  0  0  0
   10.0500   -2.7136    0.0000 H   0  0  0  0  0  0  0  0  0  0  0  0
   10.8969   -2.4867    0.0000 H   0  0  0  0  0  0  0  0  0  0  0  0
  1  6  1  0  0  0  0
  1  8  1  0  0  0  0
  2 12  1  0  0  0  0
  2 21  1  0  0  0  0
  3 17  1  0  0  0  0
  3 24  1  0  0  0  0
  4 20  1  0  0  0  0
  4 40  1  0  0  0  0
  5  6  1  0  0  0  0
  5  7  1  0  0  0  0
  5 10  1  6  0  0  0
  5 25  1  0  0  0  0
  6  9  1  1  0  0  0
  6 26  1  0  0  0  0
  7  8  2  0  0  0  0
  7 11  1  0  0  0  0
  8 12  1  0  0  0  0
  9 14  2  0  0  0  0
  9 16  1  0  0  0  0
 10 27  1  0  0  0  0
 10 28  1  0  0  0  0
 10 29  1  0  0  0  0
 11 13  2  0  0  0  0
 11 30  1  0  0  0  0
 12 15  2  0  0  0  0
 13 15  1  0  0  0  0
 13 19  1  0  0  0  0
 14 17  1  0  0  0  0
 14 31  1  0  0  0  0
 15 32  1  0  0  0  0
 16 18  2  0  0  0  0
 16 33  1  0  0  0  0
 17 20  2  0  0  0  0
 18 20  1  0  0  0  0
 18 34  1  0  0  0  0
 19 22  2  0  0  0  0
 19 35  1  0  0  0  0
 21 36  1  0  0  0  0
 21 37  1  0  0  0  0
 21 38  1  0  0  0  0
 22 23  1  0  0  0  0
 22 39  1  0  0  0  0
 23 41  1  0  0  0  0
 23 42  1  0  0  0  0
 23 43  1  0  0  0  0
 24 44  1  0  0  0  0
 24 45  1  0  0  0  0
 24 46  1  0  0  0  0
M  END
> <PUBCHEM_COMPOUND_CID>
5281836

> <PUBCHEM_COMPOUND_CANONICALIZED>
1

> <PUBCHEM_CACTVS_COMPLEXITY>
437

> <PUBCHEM_CACTVS_HBOND_ACCEPTOR>
4

> <PUBCHEM_CACTVS_HBOND_DONOR>
1

> <PUBCHEM_CACTVS_ROTATABLE_BOND>
4

> <PUBCHEM_CACTVS_SUBSKEYS>
AAADceB4OAAAAAAAAAAAAAAAAAAAASAAAAAwYAAAAAAAAEgBQAAAGgAACAAADRSgmAIyBoAABgCAAiBCAAACCAAgIAAIiAAGiIgNJiKGMRqCeCOkwBELuAfA4PwOoAADAAAIQABAAAYAABCAAAAAAAAAAA==

> <PUBCHEM_IUPAC_OPENEYE_NAME>
2-methoxy-4-[(2S,3S)-7-methoxy-3-methyl-5-[(E)-prop-1-enyl]-2,3-dihydrobenzofuran-2-yl]phenol

> <PUBCHEM_IUPAC_CAS_NAME>
2-methoxy-4-[(2S,3S)-7-methoxy-3-methyl-5-[(E)-prop-1-enyl]-2,3-dihydrobenzofuran-2-yl]phenol

> <PUBCHEM_IUPAC_NAME>
2-methoxy-4-[(2S,3S)-7-methoxy-3-methyl-5-[(E)-prop-1-enyl]-2,3-dihydro-1-benzofuran-2-yl]phenol

> <PUBCHEM_IUPAC_SYSTEMATIC_NAME>
2-methoxy-4-[(2S,3S)-7-methoxy-3-methyl-5-[(E)-prop-1-enyl]-2,3-dihydro-1-benzofuran-2-yl]phenol

> <PUBCHEM_IUPAC_TRADITIONAL_NAME>
2-methoxy-4-[(2S,3S)-7-methoxy-3-methyl-5-[(E)-prop-1-enyl]coumaran-2-yl]phenol

> <PUBCHEM_IUPAC_INCHI>
InChI=1S/C20H22O4/c1-5-6-13-9-15-12(2)19(24-20(15)18(10-13)23-4)14-7-8-16(21)17(11-14)22-3/h5-12,19,21H,1-4H3/b6-5+/t12-,19-/m0/s1

> <PUBCHEM_IUPAC_INCHIKEY>
ITDOFWOJEDZPCF-FNINDUDTSA-N

> <PUBCHEM_XLOGP3_AA>
4.4

> <PUBCHEM_EXACT_MASS>
326.151809

> <PUBCHEM_MOLECULAR_FORMULA>
C20H22O4

> <PUBCHEM_MOLECULAR_WEIGHT>
326.38628

> <PUBCHEM_OPENEYE_CAN_SMILES>
CC=CC1=CC2=C(C(=C1)OC)OC(C2C)C3=CC(=C(C=C3)O)OC

> <PUBCHEM_OPENEYE_ISO_SMILES>
C/C=C/C1=CC2=C(C(=C1)OC)O[C@@H]([C@H]2C)C3=CC(=C(C=C3)O)OC

> <PUBCHEM_CACTVS_TPSA>
47.9

> <PUBCHEM_MONOISOTOPIC_WEIGHT>
326.151809

> <PUBCHEM_TOTAL_CHARGE>
0

> <PUBCHEM_HEAVY_ATOM_COUNT>
24

> <PUBCHEM_ATOM_DEF_STEREO_COUNT>
2

> <PUBCHEM_ATOM_UDEF_STEREO_COUNT>
0

> <PUBCHEM_BOND_DEF_STEREO_COUNT>
1

> <PUBCHEM_BOND_UDEF_STEREO_COUNT>
0

> <PUBCHEM_ISOTOPIC_ATOM_COUNT>
0

> <PUBCHEM_COMPONENT_COUNT>
1

> <PUBCHEM_CACTVS_TAUTO_COUNT>
3

> <PUBCHEM_COORDINATE_TYPE>
1
5
255

> <PUBCHEM_BONDANNOTATIONS>
11  13  8
12  15  8
13  15  8
14  17  8
16  18  8
17  20  8
18  20  8
5  10  6
6  9  5
7  11  8
7  8  8
8  12  8
9  14  8
9  16  8

$$$$

