3766
  -OEChem-06251223393D

 30 29  0     1  0  0  0  0  0999 V2000
    3.4481   -2.0984    0.1497 Br  0  0  0  0  0  0  0  0  0  0  0  0
   -2.2731   -2.4901    1.1644 Br  0  0  0  0  0  0  0  0  0  0  0  0
    1.9332    2.1751    0.6564 Cl  0  0  0  0  0  0  0  0  0  0  0  0
   -1.7555    0.6768   -2.0384 Cl  0  0  0  0  0  0  0  0  0  0  0  0
   -4.6754    0.2045   -0.5028 Cl  0  0  0  0  0  0  0  0  0  0  0  0
    0.7485   -0.1312   -0.2041 C   0  0  0  0  0  0  0  0  0  0  0  0
    1.9978    0.3719    0.5559 C   0  0  1  0  0  0  0  0  0  0  0  0
   -0.5781    0.3829    0.3968 C   0  0  0  0  0  0  0  0  0  0  0  0
    3.3457   -0.1118   -0.0585 C   0  0  0  0  0  0  0  0  0  0  0  0
   -1.8878   -0.0283   -0.3539 C   0  0  2  0  0  0  0  0  0  0  0  0
    4.5612    0.4296    0.7117 C   0  0  0  0  0  0  0  0  0  0  0  0
    3.5082    0.1882   -1.5525 C   0  0  0  0  0  0  0  0  0  0  0  0
   -2.0133   -1.5556   -0.5304 C   0  0  0  0  0  0  0  0  0  0  0  0
   -3.1518    0.5883    0.2687 C   0  0  0  0  0  0  0  0  0  0  0  0
   -3.2077    1.3985    1.3370 C   0  0  0  0  0  0  0  0  0  0  0  0
    0.8128    0.1821   -1.2498 H   0  0  0  0  0  0  0  0  0  0  0  0
    0.7374   -1.2238   -0.1950 H   0  0  0  0  0  0  0  0  0  0  0  0
    1.9300    0.0290    1.5954 H   0  0  0  0  0  0  0  0  0  0  0  0
   -0.6264    0.0468    1.4406 H   0  0  0  0  0  0  0  0  0  0  0  0
   -0.5578    1.4778    0.4290 H   0  0  0  0  0  0  0  0  0  0  0  0
    5.4948   -0.0349    0.3719 H   0  0  0  0  0  0  0  0  0  0  0  0
    4.6792    1.5098    0.5764 H   0  0  0  0  0  0  0  0  0  0  0  0
    4.4724    0.2331    1.7865 H   0  0  0  0  0  0  0  0  0  0  0  0
    3.4254    1.2608   -1.7559 H   0  0  0  0  0  0  0  0  0  0  0  0
    2.7637   -0.3314   -2.1646 H   0  0  0  0  0  0  0  0  0  0  0  0
    4.4907   -0.1361   -1.9168 H   0  0  0  0  0  0  0  0  0  0  0  0
   -1.1281   -2.0047   -0.9890 H   0  0  0  0  0  0  0  0  0  0  0  0
   -2.8700   -1.8433   -1.1485 H   0  0  0  0  0  0  0  0  0  0  0  0
   -4.1526    1.7896    1.7026 H   0  0  0  0  0  0  0  0  0  0  0  0
   -2.3252    1.6991    1.8885 H   0  0  0  0  0  0  0  0  0  0  0  0
  1  9  1  0  0  0  0
  2 13  1  0  0  0  0
  3  7  1  0  0  0  0
  4 10  1  0  0  0  0
  5 14  1  0  0  0  0
  6  7  1  0  0  0  0
  6  8  1  0  0  0  0
  6 16  1  0  0  0  0
  6 17  1  0  0  0  0
  7  9  1  0  0  0  0
  7 18  1  0  0  0  0
  8 10  1  0  0  0  0
  8 19  1  0  0  0  0
  8 20  1  0  0  0  0
  9 11  1  0  0  0  0
  9 12  1  0  0  0  0
 10 13  1  0  0  0  0
 10 14  1  0  0  0  0
 11 21  1  0  0  0  0
 11 22  1  0  0  0  0
 11 23  1  0  0  0  0
 12 24  1  0  0  0  0
 12 25  1  0  0  0  0
 12 26  1  0  0  0  0
 13 27  1  0  0  0  0
 13 28  1  0  0  0  0
 14 15  2  0  0  0  0
 15 29  1  0  0  0  0
 15 30  1  0  0  0  0
M  END
> <PUBCHEM_COMPOUND_CID>
3766

> <PUBCHEM_CONFORMER_RMSD>
0.6

> <PUBCHEM_CONFORMER_DIVERSEORDER>
2
210
99
185
83
199
228
108
116
123
179
149
238
127
124
227
220
237
67
221
13
194
105
126
92
223
156
234
181
55
201
69
191
48
27
135
62
211
16
151
200
30
222
175
212
213
86
137
206
196
226
154
225
17
153
183
65
33
104
147
229
28
26
215
56
51
166
164
216
81
20
224
214
189
168
169
38
236
120
128
165
202
4
91
75
114
79
44
117
82
155
205
78
98
152
150
64
193
107
219
11
122
204
35
198
203
41
66
80
18
85
45
146
207
160
131
84
235
139
197
133
10
25
9
90
61
192
230
111
159
195
24
208
6
100
40
46
178
52
60
115
119
186
184
143
22
132
112
180
158
141
187
72
110
102
53
174
47
217
121
59
145
74
12
49
232
177
161
129
71
43
231
7
138
173
87
109
96
42
163
23
106
167
142
148
176
76
50
94
209
70
190
182
88
95
32
31
136
157
171
188
101
15
125
162
29
134
144
57
1
130
172
58
113
140
97
89
14
63
77
233
8
54
170
37
39
103
118
93
3
36
19
218
34
5
21
68
73

> <PUBCHEM_MMFF94_PARTIAL_CHARGES>
12
1 -0.23
10 0.43
13 0.23
15 -0.3
2 -0.23
29 0.15
3 -0.29
30 0.15
4 -0.29
5 -0.14
7 0.29
9 0.23

> <PUBCHEM_EFFECTIVE_ROTOR_COUNT>
6

> <PUBCHEM_PHARMACOPHORE_FEATURES>
3
1 1 hydrophobe
1 2 hydrophobe
4 1 9 11 12 hydrophobe

> <PUBCHEM_HEAVY_ATOM_COUNT>
15

> <PUBCHEM_ATOM_DEF_STEREO_COUNT>
0

> <PUBCHEM_ATOM_UDEF_STEREO_COUNT>
2

> <PUBCHEM_BOND_DEF_STEREO_COUNT>
0

> <PUBCHEM_BOND_UDEF_STEREO_COUNT>
0

> <PUBCHEM_ISOTOPIC_ATOM_COUNT>
0

> <PUBCHEM_COMPONENT_COUNT>
1

> <PUBCHEM_CACTVS_TAUTO_COUNT>
1

> <PUBCHEM_CONFORMER_ID>
00000EB600000002

> <PUBCHEM_MMFF94_ENERGY>
35.8838

> <PUBCHEM_FEATURE_SELFOVERLAP>
15.691

> <PUBCHEM_SHAPE_FINGERPRINT>
11132069 177 18060137634957381114
12500047 106 18343869900502732659
12592029 89 17095518543643128063
12932764 1 17846792792481669736
13296908 3 18040992917373097846
13533116 47 18334861657808620923
14115302 16 18272644653909782332
14144814 61 18260547861335467384
15375358 24 17821730533307529486
17834074 16 18341327816660754682
18186145 218 18271806869442526398
20279233 1 17675920984917923518
20281475 54 18343015588816289634
20645477 56 18059864964616167756
20645477 70 17313098700787859382
23402539 116 17749117699167819493
23557571 272 18131360725925109788
23559900 14 18336552620512901576
74978 22 18334576815250041392
81228 2 17629478588555049427
90127 26 17604137186476247640
93112 12 18334012757168735840
9709674 26 18335137566154405039

> <PUBCHEM_SHAPE_MULTIPOLES>
326.19
8.86
2.2
1.44
2.17
1.3
0.45
-0.04
-0.16
-0.1
-0.74
-0.42
-0.35
0.4

> <PUBCHEM_SHAPE_SELFOVERLAP>
565.174

> <PUBCHEM_SHAPE_VOLUME>
218.9

> <PUBCHEM_COORDINATE_TYPE>
2
5
10

$$$$

