11631
  -OEChem-06261205553D

 27 26  0     0  0  0  0  0  0999 V2000
    5.0648   -1.6282   -0.2224 Cl  0  0  0  0  0  0  0  0  0  0  0  0
   -4.8949   -1.3969   -0.2094 F   0  0  0  0  0  0  0  0  0  0  0  0
   -0.0202    0.1174    0.1834 O   0  0  0  0  0  0  0  0  0  0  0  0
    2.3740    0.0498    0.2435 C   0  0  0  0  0  0  0  0  0  0  0  0
   -2.4107   -0.0091    0.2470 C   0  0  0  0  0  0  0  0  0  0  0  0
    1.1463    0.8058   -0.2471 C   0  0  0  0  0  0  0  0  0  0  0  0
   -1.2036    0.7768   -0.2453 C   0  0  0  0  0  0  0  0  0  0  0  0
    3.6676    0.7333   -0.2010 C   0  0  0  0  0  0  0  0  0  0  0  0
   -3.7221    0.6374   -0.1941 C   0  0  0  0  0  0  0  0  0  0  0  0
    4.9239    0.0548    0.3354 C   0  0  0  0  0  0  0  0  0  0  0  0
   -4.9252   -0.1411    0.3099 C   0  0  0  0  0  0  0  0  0  0  0  0
    2.3411   -0.0236    1.3377 H   0  0  0  0  0  0  0  0  0  0  0  0
    2.3218   -0.9797   -0.1290 H   0  0  0  0  0  0  0  0  0  0  0  0
   -2.3731   -0.0836    1.3410 H   0  0  0  0  0  0  0  0  0  0  0  0
   -2.3490   -1.0393   -0.1255 H   0  0  0  0  0  0  0  0  0  0  0  0
    1.1542    0.8639   -1.3419 H   0  0  0  0  0  0  0  0  0  0  0  0
    1.1436    1.8232    0.1613 H   0  0  0  0  0  0  0  0  0  0  0  0
   -1.2145    0.8348   -1.3401 H   0  0  0  0  0  0  0  0  0  0  0  0
   -1.2258    1.7940    0.1629 H   0  0  0  0  0  0  0  0  0  0  0  0
    3.7076    0.7655   -1.2969 H   0  0  0  0  0  0  0  0  0  0  0  0
    3.6640    1.7744    0.1445 H   0  0  0  0  0  0  0  0  0  0  0  0
   -3.7538    0.6734   -1.2892 H   0  0  0  0  0  0  0  0  0  0  0  0
   -3.7755    1.6676    0.1756 H   0  0  0  0  0  0  0  0  0  0  0  0
    4.9241    0.0435    1.4296 H   0  0  0  0  0  0  0  0  0  0  0  0
    5.8168    0.5897   -0.0016 H   0  0  0  0  0  0  0  0  0  0  0  0
   -5.8576    0.3325   -0.0101 H   0  0  0  0  0  0  0  0  0  0  0  0
   -4.9266   -0.2231    1.4008 H   0  0  0  0  0  0  0  0  0  0  0  0
  1 10  1  0  0  0  0
  2 11  1  0  0  0  0
  3  6  1  0  0  0  0
  3  7  1  0  0  0  0
  4  6  1  0  0  0  0
  4  8  1  0  0  0  0
  4 12  1  0  0  0  0
  4 13  1  0  0  0  0
  5  7  1  0  0  0  0
  5  9  1  0  0  0  0
  5 14  1  0  0  0  0
  5 15  1  0  0  0  0
  6 16  1  0  0  0  0
  6 17  1  0  0  0  0
  7 18  1  0  0  0  0
  7 19  1  0  0  0  0
  8 10  1  0  0  0  0
  8 20  1  0  0  0  0
  8 21  1  0  0  0  0
  9 11  1  0  0  0  0
  9 22  1  0  0  0  0
  9 23  1  0  0  0  0
 10 24  1  0  0  0  0
 10 25  1  0  0  0  0
 11 26  1  0  0  0  0
 11 27  1  0  0  0  0
M  END
> <PUBCHEM_COMPOUND_CID>
11631

> <PUBCHEM_CONFORMER_RMSD>
0.8

> <PUBCHEM_CONFORMER_DIVERSEORDER>
1
216
132
177
26
223
49
179
139
222
111
81
78
92
203
159
167
235
146
240
10
157
188
150
196
56
171
231
166
15
183
130
147
202
7
176
182
143
33
8
207
160
29
79
211
236
237
162
16
208
70
213
101
233
187
161
131
180
116
108
193
154
31
212
59
189
69
195
200
91
137
12
169
209
173
45
170
3
197
228
134
21
184
241
6
239
141
19
199
113
220
5
63
17
58
98
217
123
149
36
105
219
107
68
148
97
206
186
84
205
75
100
185
190
229
76
226
55
2
191
133
126
152
22
124
72
142
227
214
50
67
34
52
93
204
158
38
89
54
117
145
215
153
90
127
221
60
174
85
112
194
164
40
20
94
224
9
218
106
62
181
121
77
192
42
163
210
66
138
57
28
118
238
178
74
71
39
136
35
155
86
140
201
61
232
96
88
125
82
102
172
37
165
99
73
43
135
64
144
47
46
24
168
115
41
11
230
95
119
103
129
14
80
234
128
65
198
120
104
109
175
110
225
4
151
87
32
114
13
51
122
30
156
27
53
25
18
44
48
83
23

> <PUBCHEM_MMFF94_PARTIAL_CHARGES>
7
1 -0.29
10 0.29
11 0.34
2 -0.34
3 -0.56
6 0.28
7 0.28

> <PUBCHEM_EFFECTIVE_ROTOR_COUNT>
8

> <PUBCHEM_PHARMACOPHORE_FEATURES>
1
1 3 acceptor

> <PUBCHEM_HEAVY_ATOM_COUNT>
11

> <PUBCHEM_ATOM_DEF_STEREO_COUNT>
0

> <PUBCHEM_ATOM_UDEF_STEREO_COUNT>
0

> <PUBCHEM_BOND_DEF_STEREO_COUNT>
0

> <PUBCHEM_BOND_UDEF_STEREO_COUNT>
0

> <PUBCHEM_ISOTOPIC_ATOM_COUNT>
0

> <PUBCHEM_COMPONENT_COUNT>
1

> <PUBCHEM_CACTVS_TAUTO_COUNT>
1

> <PUBCHEM_CONFORMER_ID>
00002D6F00000001

> <PUBCHEM_MMFF94_ENERGY>
5.3884

> <PUBCHEM_FEATURE_SELFOVERLAP>
5.074

> <PUBCHEM_SHAPE_FINGERPRINT>
117890 112 9295290538524782222
13167823 11 18409732858782894606
13690532 89 18411981364488292228
14123238 8 18411136922325634548
1420 363 17632290173110086937
14455015 7 18341324561038432634
17834072 33 18411980226432871652
17834076 25 9007059067198497576
18342897 14 8358258146268535450
20621476 30 18271804567166638787
20645477 70 18411698820708556550
20719005 15 18342176665475493768
20767249 213 9439407926293676699
20828058 44 18113336392997697967
212847 35 10159696885484888214
22485316 2 18334579035980176940
23402539 116 18411705387486647037
23402655 69 11312057642807683528
23532345 1 9295287257744768140
23590187 198 18410008849360499443
42 15 18259702319745564756
42788 4 18411982459562716320
49783359 22 18114184120757947023

> <PUBCHEM_SHAPE_MULTIPOLES>
215.1
13.34
1.2
0.66
1.45
0.44
0
4.94
0.21
-0.57
-0.13
-0.08
-0.01
0.13

> <PUBCHEM_SHAPE_SELFOVERLAP>
376.066

> <PUBCHEM_SHAPE_VOLUME>
141.7

> <PUBCHEM_COORDINATE_TYPE>
2
5
10

$$$$

