44237241
  -OEChem-07051213102D

 37 36  0     1  0  0  0  0  0999 V2000
    4.0981    3.2996    0.0000 S   0  0  0  0  0  0  0  0  0  0  0  0
    5.0981   -3.6286    0.0000 O   0  0  0  0  0  0  0  0  0  0  0  0
    6.3301   -2.7626    0.0000 O   0  0  0  0  0  0  0  0  0  0  0  0
    5.4641   -1.2626    0.0000 O   0  0  0  0  0  0  0  0  0  0  0  0
    2.0000   -3.2626    0.0000 O   0  0  0  0  0  0  0  0  0  0  0  0
    2.8660   -1.7626    0.0000 O   0  0  0  0  0  0  0  0  0  0  0  0
    4.0981   -1.8966    0.0000 C   0  0  0  0  0  0  0  0  0  0  0  0
    4.5981   -1.0306    0.0000 C   0  0  0  0  0  0  0  0  0  0  0  0
    4.5981   -2.7626    0.0000 C   0  0  3  0  0  0  0  0  0  0  0  0
    4.0981   -0.1645    0.0000 C   0  0  0  0  0  0  0  0  0  0  0  0
    4.5981    0.7015    0.0000 C   0  0  0  0  0  0  0  0  0  0  0  0
    3.7320   -3.2626    0.0000 C   0  0  0  0  0  0  0  0  0  0  0  0
    4.0981    1.5675    0.0000 C   0  0  0  0  0  0  0  0  0  0  0  0
    5.4641   -2.2626    0.0000 C   0  0  0  0  0  0  0  0  0  0  0  0
    4.5981    2.4335    0.0000 C   0  0  0  0  0  0  0  0  0  0  0  0
    2.8660   -2.7626    0.0000 C   0  0  0  0  0  0  0  0  0  0  0  0
    4.5981    4.1656    0.0000 C   0  0  0  0  0  0  0  0  0  0  0  0
    3.6231   -1.4981    0.0000 H   0  0  0  0  0  0  0  0  0  0  0  0
    3.6231   -2.2951    0.0000 H   0  0  0  0  0  0  0  0  0  0  0  0
    5.0730   -1.4291    0.0000 H   0  0  0  0  0  0  0  0  0  0  0  0
    5.0730   -0.6320    0.0000 H   0  0  0  0  0  0  0  0  0  0  0  0
    3.6231    0.2340    0.0000 H   0  0  0  0  0  0  0  0  0  0  0  0
    3.6231   -0.5631    0.0000 H   0  0  0  0  0  0  0  0  0  0  0  0
    5.0730    0.3030    0.0000 H   0  0  0  0  0  0  0  0  0  0  0  0
    5.0730    1.1000    0.0000 H   0  0  0  0  0  0  0  0  0  0  0  0
    3.3335   -3.7376    0.0000 H   0  0  0  0  0  0  0  0  0  0  0  0
    4.1306   -3.7376    0.0000 H   0  0  0  0  0  0  0  0  0  0  0  0
    3.6231    1.9660    0.0000 H   0  0  0  0  0  0  0  0  0  0  0  0
    3.6231    1.1690    0.0000 H   0  0  0  0  0  0  0  0  0  0  0  0
    5.0730    2.0350    0.0000 H   0  0  0  0  0  0  0  0  0  0  0  0
    5.0730    2.8321    0.0000 H   0  0  0  0  0  0  0  0  0  0  0  0
    4.7881   -4.1656    0.0000 H   0  0  0  0  0  0  0  0  0  0  0  0
    6.8671   -2.4526    0.0000 H   0  0  0  0  0  0  0  0  0  0  0  0
    2.0000   -3.8826    0.0000 H   0  0  0  0  0  0  0  0  0  0  0  0
    5.1350    3.8556    0.0000 H   0  0  0  0  0  0  0  0  0  0  0  0
    4.9081    4.7025    0.0000 H   0  0  0  0  0  0  0  0  0  0  0  0
    4.0611    4.4756    0.0000 H   0  0  0  0  0  0  0  0  0  0  0  0
  1 15  1  0  0  0  0
  1 17  1  0  0  0  0
  2  9  1  0  0  0  0
  2 32  1  0  0  0  0
  3 14  1  0  0  0  0
  3 33  1  0  0  0  0
  4 14  2  0  0  0  0
  5 16  1  0  0  0  0
  5 34  1  0  0  0  0
  6 16  2  0  0  0  0
  7  8  1  0  0  0  0
  7  9  1  0  0  0  0
  7 18  1  0  0  0  0
  7 19  1  0  0  0  0
  8 10  1  0  0  0  0
  8 20  1  0  0  0  0
  8 21  1  0  0  0  0
  9 12  1  0  0  0  0
  9 14  1  0  0  0  0
 10 11  1  0  0  0  0
 10 22  1  0  0  0  0
 10 23  1  0  0  0  0
 11 13  1  0  0  0  0
 11 24  1  0  0  0  0
 11 25  1  0  0  0  0
 12 16  1  0  0  0  0
 12 26  1  0  0  0  0
 12 27  1  0  0  0  0
 13 15  1  0  0  0  0
 13 28  1  0  0  0  0
 13 29  1  0  0  0  0
 15 30  1  0  0  0  0
 15 31  1  0  0  0  0
 17 35  1  0  0  0  0
 17 36  1  0  0  0  0
 17 37  1  0  0  0  0
M  END
> <PUBCHEM_COMPOUND_CID>
44237241

> <PUBCHEM_COMPOUND_CANONICALIZED>
1

> <PUBCHEM_CACTVS_COMPLEXITY>
256

> <PUBCHEM_CACTVS_HBOND_ACCEPTOR>
6

> <PUBCHEM_CACTVS_HBOND_DONOR>
3

> <PUBCHEM_CACTVS_ROTATABLE_BOND>
10

> <PUBCHEM_CACTVS_SUBSKEYS>
AAADceBwOABAAAAAAAAAAAAAAAAAAAAAAAAAAAAAAAAAAAAAAAAAGgQACAAADESEwACCCAAAAggIAACQCAIAAAAAABAAAAFAAAABABYgAAAAQAAFIAABAAHLyOCOAAAAAAAAAAAAAAAAAAAAAAAAAAAAAA==

> <PUBCHEM_IUPAC_OPENEYE_NAME>
2-hydroxy-2-(6-methylsulfanylhexyl)butanedioic acid

> <PUBCHEM_IUPAC_CAS_NAME>
2-hydroxy-2-[6-(methylthio)hexyl]butanedioic acid

> <PUBCHEM_IUPAC_NAME>
2-hydroxy-2-(6-methylsulfanylhexyl)butanedioic acid

> <PUBCHEM_IUPAC_SYSTEMATIC_NAME>
2-(6-methylsulfanylhexyl)-2-oxidanyl-butanedioic acid

> <PUBCHEM_IUPAC_TRADITIONAL_NAME>
2-hydroxy-2-[6-(methylthio)hexyl]succinic acid

> <PUBCHEM_IUPAC_INCHI>
InChI=1S/C11H20O5S/c1-17-7-5-3-2-4-6-11(16,10(14)15)8-9(12)13/h16H,2-8H2,1H3,(H,12,13)(H,14,15)

> <PUBCHEM_IUPAC_INCHIKEY>
FEKMFSGDBKSRNR-UHFFFAOYSA-N

> <PUBCHEM_XLOGP3_AA>
1.1

> <PUBCHEM_EXACT_MASS>
264.103145

> <PUBCHEM_MOLECULAR_FORMULA>
C11H20O5S

> <PUBCHEM_MOLECULAR_WEIGHT>
264.3385

> <PUBCHEM_OPENEYE_CAN_SMILES>
CSCCCCCCC(CC(=O)O)(C(=O)O)O

> <PUBCHEM_OPENEYE_ISO_SMILES>
CSCCCCCCC(CC(=O)O)(C(=O)O)O

> <PUBCHEM_CACTVS_TPSA>
120

> <PUBCHEM_MONOISOTOPIC_WEIGHT>
264.103145

> <PUBCHEM_TOTAL_CHARGE>
0

> <PUBCHEM_HEAVY_ATOM_COUNT>
17

> <PUBCHEM_ATOM_DEF_STEREO_COUNT>
0

> <PUBCHEM_ATOM_UDEF_STEREO_COUNT>
1

> <PUBCHEM_BOND_DEF_STEREO_COUNT>
0

> <PUBCHEM_BOND_UDEF_STEREO_COUNT>
0

> <PUBCHEM_ISOTOPIC_ATOM_COUNT>
0

> <PUBCHEM_COMPONENT_COUNT>
1

> <PUBCHEM_CACTVS_TAUTO_COUNT>
1

> <PUBCHEM_COORDINATE_TYPE>
1
5
255

> <PUBCHEM_BONDANNOTATIONS>
9  2  3

$$$$

