17395706
  -OEChem-06241222513D

 39 41  0     1  0  0  0  0  0999 V2000
   -2.6603    2.5318   -0.3872 S   0  0  0  0  0  0  0  0  0  0  0  0
   -0.9432   -3.2186   -1.6386 S   0  0  0  0  0  0  0  0  0  0  0  0
   -3.3929   -0.2372   -0.9877 O   0  0  0  0  0  0  0  0  0  0  0  0
   -2.5727   -1.1133    0.9986 N   0  0  0  0  0  0  0  0  0  0  0  0
    1.1665    2.6993   -1.2449 N   0  0  0  0  0  0  0  0  0  0  0  0
   -0.1722    1.4698    0.1441 N   0  0  0  0  0  0  0  0  0  0  0  0
   -0.1207    3.0624   -1.3514 N   0  0  0  0  0  0  0  0  0  0  0  0
   -3.0165    1.2624    0.8720 C   0  0  2  0  0  0  0  0  0  0  0  0
   -2.4760   -2.4846    0.5556 C   0  0  0  0  0  0  0  0  0  0  0  0
   -3.0294   -0.0917    0.1778 C   0  0  0  0  0  0  0  0  0  0  0  0
   -4.3500    1.5638    1.5433 C   0  0  0  0  0  0  0  0  0  0  0  0
   -1.1090   -2.7357   -0.0040 C   0  0  0  0  0  0  0  0  0  0  0  0
    1.0819    1.7328   -0.3282 C   0  0  0  0  0  0  0  0  0  0  0  0
   -0.9097    2.3268   -0.5230 C   0  0  0  0  0  0  0  0  0  0  0  0
    2.2656    1.0294    0.1167 C   0  0  0  0  0  0  0  0  0  0  0  0
    0.1093   -2.6330    0.6307 C   0  0  0  0  0  0  0  0  0  0  0  0
    2.3282    0.5221    1.4147 C   0  0  0  0  0  0  0  0  0  0  0  0
    3.3442    0.8588   -0.7514 C   0  0  0  0  0  0  0  0  0  0  0  0
    1.1931   -2.9546   -0.2364 C   0  0  0  0  0  0  0  0  0  0  0  0
    0.7620   -3.2912   -1.5007 C   0  0  0  0  0  0  0  0  0  0  0  0
    3.4693   -0.1551    1.8447 C   0  0  0  0  0  0  0  0  0  0  0  0
    4.4851    0.1814   -0.3213 C   0  0  0  0  0  0  0  0  0  0  0  0
    4.5476   -0.3256    0.9768 C   0  0  0  0  0  0  0  0  0  0  0  0
   -2.2379    1.2884    1.6424 H   0  0  0  0  0  0  0  0  0  0  0  0
   -3.2694   -2.6885   -0.1715 H   0  0  0  0  0  0  0  0  0  0  0  0
   -2.6432   -3.1242    1.4289 H   0  0  0  0  0  0  0  0  0  0  0  0
   -2.2827   -0.8999    1.9486 H   0  0  0  0  0  0  0  0  0  0  0  0
   -5.1804    1.5385    0.8281 H   0  0  0  0  0  0  0  0  0  0  0  0
   -4.5682    0.8108    2.3092 H   0  0  0  0  0  0  0  0  0  0  0  0
   -4.3414    2.5429    2.0345 H   0  0  0  0  0  0  0  0  0  0  0  0
    0.2232   -2.3416    1.6671 H   0  0  0  0  0  0  0  0  0  0  0  0
    1.9072    3.1425   -1.7819 H   0  0  0  0  0  0  0  0  0  0  0  0
    1.5003    0.6451    2.1087 H   0  0  0  0  0  0  0  0  0  0  0  0
    3.3235    1.2303   -1.7729 H   0  0  0  0  0  0  0  0  0  0  0  0
    2.2359   -2.9399    0.0521 H   0  0  0  0  0  0  0  0  0  0  0  0
    1.3670   -3.5757   -2.3500 H   0  0  0  0  0  0  0  0  0  0  0  0
    3.5178   -0.5504    2.8551 H   0  0  0  0  0  0  0  0  0  0  0  0
    5.3239    0.0455   -0.9978 H   0  0  0  0  0  0  0  0  0  0  0  0
    5.4355   -0.8542    1.3111 H   0  0  0  0  0  0  0  0  0  0  0  0
  1  8  1  0  0  0  0
  1 14  1  0  0  0  0
  2 12  1  0  0  0  0
  2 20  1  0  0  0  0
  3 10  2  0  0  0  0
  4  9  1  0  0  0  0
  4 10  1  0  0  0  0
  4 27  1  0  0  0  0
  5  7  1  0  0  0  0
  5 13  1  0  0  0  0
  5 32  1  0  0  0  0
  6 13  2  0  0  0  0
  6 14  1  0  0  0  0
  7 14  2  0  0  0  0
  8 10  1  0  0  0  0
  8 11  1  0  0  0  0
  8 24  1  0  0  0  0
  9 12  1  0  0  0  0
  9 25  1  0  0  0  0
  9 26  1  0  0  0  0
 11 28  1  0  0  0  0
 11 29  1  0  0  0  0
 11 30  1  0  0  0  0
 12 16  2  0  0  0  0
 13 15  1  0  0  0  0
 15 17  2  0  0  0  0
 15 18  1  0  0  0  0
 16 19  1  0  0  0  0
 16 31  1  0  0  0  0
 17 21  1  0  0  0  0
 17 33  1  0  0  0  0
 18 22  2  0  0  0  0
 18 34  1  0  0  0  0
 19 20  2  0  0  0  0
 19 35  1  0  0  0  0
 20 36  1  0  0  0  0
 21 23  2  0  0  0  0
 21 37  1  0  0  0  0
 22 23  1  0  0  0  0
 22 38  1  0  0  0  0
 23 39  1  0  0  0  0
M  END
> <PUBCHEM_COMPOUND_CID>
17395706

> <PUBCHEM_CONFORMER_RMSD>
1

> <PUBCHEM_CONFORMER_DIVERSEORDER>
1
88
297
91
117
167
31
62
119
270
71
186
261
80
165
121
181
169
24
174
278
138
184
230
2
283
46
44
65
214
133
29
45
123
125
141
20
253
218
289
249
42
271
129
18
93
179
22
64
40
32
127
286
36
264
246
95
120
43
14
7
16
279
10
104
84
156
250
87
209
41
116
207
90
17
215
144
228
99
291
97
101
53
3
107
75
231
49
152
197
103
92
275
170
227
109
61
269
256
30
267
136
266
203
194
219
128
245
142
288
110
252
187
212
69
223
259
287
35
185
296
195
96
85
208
155
171
79
225
5
242
280
273
67
177
188
146
94
166
63
276
239
233
193
235
247
178
12
298
27
196
72
8
163
140
182
89
201
113
285
238
202
210
81
220
180
100
281
4
15
105
292
159
26
25
78
191
265
240
38
132
158
198
21
189
108
222
33
260
282
192
9
149
237
34
82
293
176
241
86
52
6
143
204
255
19
216
73
135
74
244
47
13
28
76
213
236
106
229
254
251
175
56
50
274
60
58
172
161
139
153
199
11
48
126
262
164
102
57
224
114
145
151
148
147
157
162
243
137
131
263
183
160
68
98
168
150
111
294
206
205
134
70
39
272
290
115
77
59
277
234
37
295
221
268
130
284
232
217
248
23
190
66
51
258
54
200
112
122
226
83
173
55
257
211
124
118
154

> <PUBCHEM_MMFF94_PARTIAL_CHARGES>
32
1 -0.28
10 0.57
12 -0.14
13 0.13
14 0.57
15 0.05
16 -0.15
17 -0.15
18 -0.15
19 -0.15
2 -0.08
20 -0.11
21 -0.15
22 -0.15
23 -0.15
27 0.37
3 -0.57
31 0.15
32 0.27
33 0.15
34 0.15
35 0.15
36 0.15
37 0.15
38 0.15
39 0.15
4 -0.73
5 0.3
6 -0.57
7 -0.71
8 0.29
9 0.48

> <PUBCHEM_EFFECTIVE_ROTOR_COUNT>
7

> <PUBCHEM_PHARMACOPHORE_FEATURES>
9
1 11 hydrophobe
1 3 acceptor
1 4 donor
1 5 donor
3 5 6 13 cation
3 6 7 14 cation
5 2 12 16 19 20 rings
5 5 6 7 13 14 rings
6 15 17 18 21 22 23 rings

> <PUBCHEM_HEAVY_ATOM_COUNT>
23

> <PUBCHEM_ATOM_DEF_STEREO_COUNT>
0

> <PUBCHEM_ATOM_UDEF_STEREO_COUNT>
1

> <PUBCHEM_BOND_DEF_STEREO_COUNT>
0

> <PUBCHEM_BOND_UDEF_STEREO_COUNT>
0

> <PUBCHEM_ISOTOPIC_ATOM_COUNT>
0

> <PUBCHEM_COMPONENT_COUNT>
1

> <PUBCHEM_CACTVS_TAUTO_COUNT>
6

> <PUBCHEM_CONFORMER_ID>
01096FFA00000001

> <PUBCHEM_MMFF94_ENERGY>
47.0755

> <PUBCHEM_FEATURE_SELFOVERLAP>
48.418

> <PUBCHEM_SHAPE_FINGERPRINT>
10382601 240 18196079161003592883
10616163 171 18342174487937611376
10675989 125 15378816512239885127
11014199 57 17545322974141503782
11524674 6 17896052090876069566
12156800 1 15330889078961124810
12422481 6 18194966476774436786
12553582 1 18273215308987631464
12788726 201 17829595168335254807
13122387 1 18411417267694252430
13140716 1 18340199670770814009
13402501 40 18049436251677929238
14178342 30 18335128817796191809
15006816 218 18266738176245486997
15403338 16 17274558623342810579
17093844 170 18266169716133848684
19026451 147 16461379241055676558
192875 21 18047484330833860103
20261772 1 18343298176010299368
20905425 154 18195530517649686826
21315764 21 17265574290325200495
21634736 98 17984417439118160148
22113638 7 18266188223132187575
22182313 1 17912076463460029341
238 59 17403204953788184103
238918 7 18261401108572128118
2748010 2 17910390924792437461
3027735 51 18265356039133331445
3052486 1 18340753863338569030
35225 105 17898038817633770570
445580 8 18341614844961191594
465052 167 17845918672675362873
532947 4 18050849120230920525
602551 16 18335145280595722072
6287921 2 17898288561650931335
6437827 68 18266454507422086518
6438718 38 18262520290959949262
7064713 232 18334861648949349736
81228 2 18051440408203961474
90525 40 18340200778750790499
9862522 239 18337687389569564266

> <PUBCHEM_SHAPE_MULTIPOLES>
455.23
7.25
4.67
1.55
2.42
2.98
-0.09
-2.86
-2.85
-1.87
2.1
0.21
0.07
-0.28

> <PUBCHEM_SHAPE_SELFOVERLAP>
947.176

> <PUBCHEM_SHAPE_VOLUME>
260.7

> <PUBCHEM_COORDINATE_TYPE>
2
5
10

$$$$

