23724549
  -OEChem-07051213072D

111116  0     1  0  0  0  0  0999 V2000
   10.9223    3.6606    0.0000 O   0  0  0  0  0  0  0  0  0  0  0  0
   11.9283    5.0705    0.0000 O   0  0  0  0  0  0  0  0  0  0  0  0
    7.7588   -2.2502    0.0000 O   0  0  0  0  0  0  0  0  0  0  0  0
    8.0000   -3.8824    0.0000 O   0  0  0  0  0  0  0  0  0  0  0  0
    5.0000   -2.1503    0.0000 O   0  0  0  0  0  0  0  0  0  0  0  0
   12.5503    2.4989    0.0000 O   0  0  0  0  0  0  0  0  0  0  0  0
    9.5074   -4.1496    0.0000 O   0  0  0  0  0  0  0  0  0  0  0  0
   14.3704    3.3280    0.0000 O   0  0  0  0  0  0  0  0  0  0  0  0
   14.5624    5.3188    0.0000 O   0  0  0  0  0  0  0  0  0  0  0  0
    3.5000   -1.2843    0.0000 O   0  0  0  0  0  0  0  0  0  0  0  0
    3.0000    1.3138    0.0000 N   0  0  0  0  0  0  0  0  0  0  0  0
   10.1589    1.1381    0.0000 C   0  0  1  0  0  0  0  0  0  0  0  0
    9.5640    0.2906    0.0000 C   0  0  1  0  0  0  0  0  0  0  0  0
   11.1895    1.0387    0.0000 C   0  0  1  0  0  0  0  0  0  0  0  0
    9.9691   -0.6172    0.0000 C   0  0  2  0  0  0  0  0  0  0  0  0
    9.9388    2.1436    0.0000 C   0  0  0  0  0  0  0  0  0  0  0  0
   11.5977    1.9837    0.0000 C   0  0  0  0  0  0  0  0  0  0  0  0
   10.8263    2.6652    0.0000 C   0  0  1  0  0  0  0  0  0  0  0  0
    9.2320   -1.2843    0.0000 C   0  0  1  0  0  0  0  0  0  0  0  0
    8.5752    0.1875    0.0000 C   0  0  0  0  0  0  0  0  0  0  0  0
   11.6115    0.0931    0.0000 C   0  0  0  0  0  0  0  0  0  0  0  0
   10.9972   -0.7404    0.0000 C   0  0  0  0  0  0  0  0  0  0  0  0
    8.3660   -0.7843    0.0000 C   0  0  0  0  0  0  0  0  0  0  0  0
    9.2320   -2.2843    0.0000 C   0  0  0  0  0  0  0  0  0  0  0  0
    7.5000   -1.2843    0.0000 C   0  0  0  0  0  0  0  0  0  0  0  0
   11.8323    4.0751    0.0000 C   0  0  2  0  0  0  0  0  0  0  0  0
    6.5000   -1.2843    0.0000 C   0  0  1  0  0  0  0  0  0  0  0  0
    8.8660   -3.3824    0.0000 C   0  0  0  0  0  0  0  0  0  0  0  0
   12.6463    3.4943    0.0000 C   0  0  1  0  0  0  0  0  0  0  0  0
    6.0000   -2.1503    0.0000 C   0  0  2  0  0  0  0  0  0  0  0  0
   13.5563    3.9088    0.0000 C   0  0  1  0  0  0  0  0  0  0  0  0
    6.0000   -0.4182    0.0000 C   0  0  0  0  0  0  0  0  0  0  0  0
   12.8383    5.4850    0.0000 C   0  0  2  0  0  0  0  0  0  0  0  0
   13.6523    4.9042    0.0000 C   0  0  2  0  0  0  0  0  0  0  0  0
    6.5000   -3.0163    0.0000 C   0  0  0  0  0  0  0  0  0  0  0  0
    7.5000   -4.7484    0.0000 C   0  0  2  0  0  0  0  0  0  0  0  0
    6.0000   -3.8824    0.0000 C   0  0  0  0  0  0  0  0  0  0  0  0
    6.5000   -4.7484    0.0000 C   0  0  0  0  0  0  0  0  0  0  0  0
    4.5000   -1.2843    0.0000 C   0  0  2  0  0  0  0  0  0  0  0  0
   12.9343    6.4804    0.0000 C   0  0  0  0  0  0  0  0  0  0  0  0
    8.0000   -5.6144    0.0000 C   0  0  0  0  0  0  0  0  0  0  0  0
    5.0000   -0.4182    0.0000 C   0  0  0  0  0  0  0  0  0  0  0  0
    3.5000    0.4478    0.0000 C   0  0  1  0  0  0  0  0  0  0  0  0
    4.5000    0.4478    0.0000 C   0  0  0  0  0  0  0  0  0  0  0  0
   13.3643    1.9181    0.0000 C   0  0  0  0  0  0  0  0  0  0  0  0
    3.0000   -0.4182    0.0000 C   0  0  1  0  0  0  0  0  0  0  0  0
    7.5000   -6.4804    0.0000 C   0  0  0  0  0  0  0  0  0  0  0  0
    2.0000   -0.4182    0.0000 C   0  0  0  0  0  0  0  0  0  0  0  0
    3.5000    2.1798    0.0000 C   0  0  0  0  0  0  0  0  0  0  0  0
    2.0000    1.3138    0.0000 C   0  0  0  0  0  0  0  0  0  0  0  0
    9.3255    1.3056    0.0000 H   0  0  0  0  0  0  0  0  0  0  0  0
    9.1333    1.0234    0.0000 H   0  0  0  0  0  0  0  0  0  0  0  0
   12.0395    1.0438    0.0000 H   0  0  0  0  0  0  0  0  0  0  0  0
   10.2269   -1.4271    0.0000 H   0  0  0  0  0  0  0  0  0  0  0  0
    9.6826    2.7082    0.0000 H   0  0  0  0  0  0  0  0  0  0  0  0
    9.3504    1.9482    0.0000 H   0  0  0  0  0  0  0  0  0  0  0  0
   12.1379    1.6794    0.0000 H   0  0  0  0  0  0  0  0  0  0  0  0
   11.9571    2.4889    0.0000 H   0  0  0  0  0  0  0  0  0  0  0  0
   11.4031    2.8926    0.0000 H   0  0  0  0  0  0  0  0  0  0  0  0
   10.0090   -1.6290    0.0000 H   0  0  0  0  0  0  0  0  0  0  0  0
    8.1612    0.6490    0.0000 H   0  0  0  0  0  0  0  0  0  0  0  0
   12.2279    0.0265    0.0000 H   0  0  0  0  0  0  0  0  0  0  0  0
   11.2433   -1.3095    0.0000 H   0  0  0  0  0  0  0  0  0  0  0  0
    9.6907   -2.7015    0.0000 H   0  0  0  0  0  0  0  0  0  0  0  0
    8.6201   -2.1850    0.0000 H   0  0  0  0  0  0  0  0  0  0  0  0
   11.7728    3.4580    0.0000 H   0  0  0  0  0  0  0  0  0  0  0  0
    6.8100   -0.7473    0.0000 H   0  0  0  0  0  0  0  0  0  0  0  0
   12.0821    3.2373    0.0000 H   0  0  0  0  0  0  0  0  0  0  0  0
    5.6900   -1.6134    0.0000 H   0  0  0  0  0  0  0  0  0  0  0  0
   13.4968    3.2917    0.0000 H   0  0  0  0  0  0  0  0  0  0  0  0
    6.5369   -0.1082    0.0000 H   0  0  0  0  0  0  0  0  0  0  0  0
    5.6900    0.1187    0.0000 H   0  0  0  0  0  0  0  0  0  0  0  0
    5.4631   -0.7282    0.0000 H   0  0  0  0  0  0  0  0  0  0  0  0
   12.3336    5.8452    0.0000 H   0  0  0  0  0  0  0  0  0  0  0  0
   14.1570    4.5441    0.0000 H   0  0  0  0  0  0  0  0  0  0  0  0
    6.9750   -3.4148    0.0000 H   0  0  0  0  0  0  0  0  0  0  0  0
    6.9750   -2.6178    0.0000 H   0  0  0  0  0  0  0  0  0  0  0  0
    8.1200   -4.7484    0.0000 H   0  0  0  0  0  0  0  0  0  0  0  0
    5.5250   -3.4838    0.0000 H   0  0  0  0  0  0  0  0  0  0  0  0
    5.5250   -4.2809    0.0000 H   0  0  0  0  0  0  0  0  0  0  0  0
    5.9174   -4.9604    0.0000 H   0  0  0  0  0  0  0  0  0  0  0  0
    6.6077   -5.3590    0.0000 H   0  0  0  0  0  0  0  0  0  0  0  0
    4.1900   -1.8212    0.0000 H   0  0  0  0  0  0  0  0  0  0  0  0
   13.5514    6.4209    0.0000 H   0  0  0  0  0  0  0  0  0  0  0  0
   12.9938    7.0976    0.0000 H   0  0  0  0  0  0  0  0  0  0  0  0
   12.3172    6.5399    0.0000 H   0  0  0  0  0  0  0  0  0  0  0  0
    8.4750   -6.0129    0.0000 H   0  0  0  0  0  0  0  0  0  0  0  0
    8.4750   -5.2159    0.0000 H   0  0  0  0  0  0  0  0  0  0  0  0
   14.9346    3.5850    0.0000 H   0  0  0  0  0  0  0  0  0  0  0  0
    5.4750   -0.8168    0.0000 H   0  0  0  0  0  0  0  0  0  0  0  0
    5.4750   -0.0197    0.0000 H   0  0  0  0  0  0  0  0  0  0  0  0
   14.6219    5.9359    0.0000 H   0  0  0  0  0  0  0  0  0  0  0  0
    2.8800    0.4478    0.0000 H   0  0  0  0  0  0  0  0  0  0  0  0
    5.0826    0.6598    0.0000 H   0  0  0  0  0  0  0  0  0  0  0  0
    4.3923    1.0584    0.0000 H   0  0  0  0  0  0  0  0  0  0  0  0
    2.6900   -0.9552    0.0000 H   0  0  0  0  0  0  0  0  0  0  0  0
   13.0042    1.4134    0.0000 H   0  0  0  0  0  0  0  0  0  0  0  0
   13.8690    1.5580    0.0000 H   0  0  0  0  0  0  0  0  0  0  0  0
   13.7245    2.4228    0.0000 H   0  0  0  0  0  0  0  0  0  0  0  0
    6.9631   -6.1704    0.0000 H   0  0  0  0  0  0  0  0  0  0  0  0
    7.1900   -7.0174    0.0000 H   0  0  0  0  0  0  0  0  0  0  0  0
    8.0369   -6.7904    0.0000 H   0  0  0  0  0  0  0  0  0  0  0  0
    2.0000    0.2018    0.0000 H   0  0  0  0  0  0  0  0  0  0  0  0
    1.3800   -0.4182    0.0000 H   0  0  0  0  0  0  0  0  0  0  0  0
    2.0000   -1.0382    0.0000 H   0  0  0  0  0  0  0  0  0  0  0  0
    2.0000    1.9338    0.0000 H   0  0  0  0  0  0  0  0  0  0  0  0
    1.3800    1.3138    0.0000 H   0  0  0  0  0  0  0  0  0  0  0  0
    2.0000    0.6938    0.0000 H   0  0  0  0  0  0  0  0  0  0  0  0
    4.0369    1.8698    0.0000 H   0  0  0  0  0  0  0  0  0  0  0  0
    3.8100    2.7168    0.0000 H   0  0  0  0  0  0  0  0  0  0  0  0
    2.9631    2.4898    0.0000 H   0  0  0  0  0  0  0  0  0  0  0  0
 18  1  1  6  0  0  0
 26  1  1  6  0  0  0
  2 26  1  0  0  0  0
  2 33  1  0  0  0  0
  3 25  2  0  0  0  0
  4 28  1  0  0  0  0
  4 36  1  0  0  0  0
 30  5  1  6  0  0  0
 39  5  1  6  0  0  0
 29  6  1  1  0  0  0
  6 45  1  0  0  0  0
  7 28  2  0  0  0  0
 31  8  1  1  0  0  0
  8 89  1  0  0  0  0
 34  9  1  6  0  0  0
  9 92  1  0  0  0  0
 10 39  1  0  0  0  0
 10 46  1  0  0  0  0
 43 11  1  1  0  0  0
 11 49  1  0  0  0  0
 11 50  1  0  0  0  0
 12 13  1  0  0  0  0
 12 14  1  0  0  0  0
 12 16  1  0  0  0  0
 12 51  1  1  0  0  0
 13 15  1  0  0  0  0
 13 20  1  0  0  0  0
 13 52  1  6  0  0  0
 14 17  1  0  0  0  0
 14 21  1  0  0  0  0
 14 53  1  6  0  0  0
 15 19  1  0  0  0  0
 15 22  1  0  0  0  0
 15 54  1  6  0  0  0
 16 18  1  0  0  0  0
 16 55  1  0  0  0  0
 16 56  1  0  0  0  0
 17 18  1  0  0  0  0
 17 57  1  0  0  0  0
 17 58  1  0  0  0  0
 18 59  1  0  0  0  0
 19 23  1  0  0  0  0
 19 24  1  0  0  0  0
 19 60  1  1  0  0  0
 20 23  2  0  0  0  0
 20 61  1  0  0  0  0
 21 22  2  0  0  0  0
 21 62  1  0  0  0  0
 22 63  1  0  0  0  0
 23 25  1  0  0  0  0
 24 28  1  0  0  0  0
 24 64  1  0  0  0  0
 24 65  1  0  0  0  0
 25 27  1  0  0  0  0
 26 29  1  0  0  0  0
 26 66  1  0  0  0  0
 27 30  1  0  0  0  0
 27 32  1  1  0  0  0
 27 67  1  0  0  0  0
 29 31  1  0  0  0  0
 29 68  1  0  0  0  0
 30 35  1  0  0  0  0
 30 69  1  0  0  0  0
 31 34  1  0  0  0  0
 31 70  1  0  0  0  0
 32 71  1  0  0  0  0
 32 72  1  0  0  0  0
 32 73  1  0  0  0  0
 33 34  1  0  0  0  0
 33 40  1  1  0  0  0
 33 74  1  0  0  0  0
 34 75  1  0  0  0  0
 35 37  1  0  0  0  0
 35 76  1  0  0  0  0
 35 77  1  0  0  0  0
 36 38  1  0  0  0  0
 36 41  1  1  0  0  0
 36 78  1  0  0  0  0
 37 38  1  0  0  0  0
 37 79  1  0  0  0  0
 37 80  1  0  0  0  0
 38 81  1  0  0  0  0
 38 82  1  0  0  0  0
 39 42  1  0  0  0  0
 39 83  1  0  0  0  0
 40 84  1  0  0  0  0
 40 85  1  0  0  0  0
 40 86  1  0  0  0  0
 41 47  1  0  0  0  0
 41 87  1  0  0  0  0
 41 88  1  0  0  0  0
 42 44  1  0  0  0  0
 42 90  1  0  0  0  0
 42 91  1  0  0  0  0
 43 44  1  0  0  0  0
 43 46  1  0  0  0  0
 43 93  1  0  0  0  0
 44 94  1  0  0  0  0
 44 95  1  0  0  0  0
 45 97  1  0  0  0  0
 45 98  1  0  0  0  0
 45 99  1  0  0  0  0
 46 48  1  6  0  0  0
 46 96  1  0  0  0  0
 47100  1  0  0  0  0
 47101  1  0  0  0  0
 47102  1  0  0  0  0
 48103  1  0  0  0  0
 48104  1  0  0  0  0
 48105  1  0  0  0  0
 49109  1  0  0  0  0
 49110  1  0  0  0  0
 49111  1  0  0  0  0
 50106  1  0  0  0  0
 50107  1  0  0  0  0
 50108  1  0  0  0  0
M  END
> <PUBCHEM_COMPOUND_CID>
23724549

> <PUBCHEM_COMPOUND_CANONICALIZED>
1

> <PUBCHEM_CACTVS_COMPLEXITY>
1260

> <PUBCHEM_CACTVS_HBOND_ACCEPTOR>
11

> <PUBCHEM_CACTVS_HBOND_DONOR>
2

> <PUBCHEM_CACTVS_ROTATABLE_BOND>
7

> <PUBCHEM_CACTVS_SUBSKEYS>
AAADcfB+PAAAAAAAAAAAAAAAAAAAAYIAAAAkSIAAAAAAAEAAAAAAHgAACAAADTzxgAcCCAMABgCIAqDSCAAAAAAgAAAICAEIAEgTEBYAgQAnQAAFoAAfAYPo7vyugAAAAAAAAAAAAAAAAAAAAIAACAAAAA==

> <PUBCHEM_IUPAC_INCHI>
InChI=1S/C39H61NO10/c1-8-24-10-9-11-32(50-34-15-14-31(40(5)6)21(3)46-34)20(2)35(42)30-18-28-26(29(30)19-33(41)48-24)13-12-23-16-25(17-27(23)28)49-39-38(45-7)37(44)36(43)22(4)47-39/h12-13,18,20-29,31-32,34,36-39,43-44H,8-11,14-17,19H2,1-7H3/t20-,21-,22+,23-,24+,25-,26-,27-,28-,29+,31+,32+,34+,36+,37-,38-,39+/m1/s1

> <PUBCHEM_IUPAC_INCHIKEY>
GWXUECNDJTYZFN-PNXRJMMDSA-N

> <PUBCHEM_XLOGP3_AA>
3.9

> <PUBCHEM_EXACT_MASS>
703.429547

> <PUBCHEM_MOLECULAR_FORMULA>
C39H61NO10

> <PUBCHEM_MOLECULAR_WEIGHT>
703.90234

> <PUBCHEM_OPENEYE_CAN_SMILES>
CCC1CCCC(C(C(=O)C2=CC3C4CC(CC4C=CC3C2CC(=O)O1)OC5C(C(C(C(O5)C)O)O)OC)C)OC6CCC(C(O6)C)N(C)C

> <PUBCHEM_OPENEYE_ISO_SMILES>
CC[C@H]1CCC[C@@H]([C@H](C(=O)C2=C[C@H]3[C@@H]4C[C@@H](C[C@H]4C=C[C@H]3[C@@H]2CC(=O)O1)O[C@H]5[C@@H]([C@@H]([C@H]([C@@H](O5)C)O)O)OC)C)O[C@H]6CC[C@@H]([C@H](O6)C)N(C)C

> <PUBCHEM_CACTVS_TPSA>
133

> <PUBCHEM_MONOISOTOPIC_WEIGHT>
703.429547

> <PUBCHEM_TOTAL_CHARGE>
0

> <PUBCHEM_HEAVY_ATOM_COUNT>
50

> <PUBCHEM_ATOM_DEF_STEREO_COUNT>
17

> <PUBCHEM_ATOM_UDEF_STEREO_COUNT>
0

> <PUBCHEM_BOND_DEF_STEREO_COUNT>
0

> <PUBCHEM_BOND_UDEF_STEREO_COUNT>
0

> <PUBCHEM_ISOTOPIC_ATOM_COUNT>
0

> <PUBCHEM_COMPONENT_COUNT>
1

> <PUBCHEM_CACTVS_TAUTO_COUNT>
10

> <PUBCHEM_COORDINATE_TYPE>
1
5
255

> <PUBCHEM_BONDANNOTATIONS>
18  1  6
26  1  6
43  11  5
12  51  5
13  52  6
14  53  6
15  54  6
19  60  5
27  32  5
33  40  5
36  41  5
46  48  6
30  5  6
39  5  6
29  6  5
31  8  5
34  9  6

$$$$

