5470308
  -OEChem-07051213153D

 48 49  0     1  0  0  0  0  0999 V2000
   -2.2265   -0.7903   -1.8858 O   0  0  0  0  0  0  0  0  0  0  0  0
   -0.5694   -2.2750    1.0376 O   0  0  0  0  0  0  0  0  0  0  0  0
   -1.9267    1.0164    0.4003 N   0  0  1  0  0  0  0  0  0  0  0  0
   -2.7343   -0.2122    0.4347 C   0  0  2  0  0  0  0  0  0  0  0  0
   -2.1607   -1.2674   -0.5357 C   0  0  2  0  0  0  0  0  0  0  0  0
   -4.1144    0.3494    0.1148 C   0  0  0  0  0  0  0  0  0  0  0  0
   -0.6725   -1.5546   -0.1902 C   0  0  1  0  0  0  0  0  0  0  0  0
   -2.6714    1.9912    1.1891 C   0  0  0  0  0  0  0  0  0  0  0  0
   -4.1224    1.7197    0.7964 C   0  0  0  0  0  0  0  0  0  0  0  0
   -0.5575    0.7855    0.8550 C   0  0  0  0  0  0  0  0  0  0  0  0
    0.1042   -0.2632   -0.0132 C   0  0  0  0  0  0  0  0  0  0  0  0
   -3.0075   -2.5441   -0.4998 C   0  0  0  0  0  0  0  0  0  0  0  0
    1.2810   -0.0495   -0.6209 C   0  0  0  0  0  0  0  0  0  0  0  0
    2.0627    1.2335   -0.5097 C   0  0  1  0  0  0  0  0  0  0  0  0
    3.5787    0.9951   -0.6588 C   0  0  0  0  0  0  0  0  0  0  0  0
    1.5836    2.2122   -1.5864 C   0  0  0  0  0  0  0  0  0  0  0  0
    4.1963    0.0187    0.3514 C   0  0  0  0  0  0  0  0  0  0  0  0
    5.6863   -0.2345    0.1199 C   0  0  0  0  0  0  0  0  0  0  0  0
    6.2704   -1.1308    1.2014 C   0  0  0  0  0  0  0  0  0  0  0  0
   -2.7499   -0.6232    1.4557 H   0  0  0  0  0  0  0  0  0  0  0  0
   -4.9172   -0.2912    0.4936 H   0  0  0  0  0  0  0  0  0  0  0  0
   -4.2681    0.4769   -0.9632 H   0  0  0  0  0  0  0  0  0  0  0  0
   -0.2131   -2.1651   -0.9778 H   0  0  0  0  0  0  0  0  0  0  0  0
   -2.3768    3.0190    0.9555 H   0  0  0  0  0  0  0  0  0  0  0  0
   -2.5429    1.8280    2.2664 H   0  0  0  0  0  0  0  0  0  0  0  0
   -4.4992    2.4818    0.1052 H   0  0  0  0  0  0  0  0  0  0  0  0
   -4.7686    1.7165    1.6808 H   0  0  0  0  0  0  0  0  0  0  0  0
   -0.5435    0.4384    1.8968 H   0  0  0  0  0  0  0  0  0  0  0  0
   -0.0444    1.7484    0.8432 H   0  0  0  0  0  0  0  0  0  0  0  0
   -4.0129   -2.3600   -0.8954 H   0  0  0  0  0  0  0  0  0  0  0  0
   -2.5663   -3.3212   -1.1347 H   0  0  0  0  0  0  0  0  0  0  0  0
   -3.1080   -2.9435    0.5143 H   0  0  0  0  0  0  0  0  0  0  0  0
    1.6861   -0.8225   -1.2704 H   0  0  0  0  0  0  0  0  0  0  0  0
   -1.8430   -1.4707   -2.4652 H   0  0  0  0  0  0  0  0  0  0  0  0
    1.9325    1.6920    0.4762 H   0  0  0  0  0  0  0  0  0  0  0  0
   -0.8446   -3.1913    0.8653 H   0  0  0  0  0  0  0  0  0  0  0  0
    4.0988    1.9584   -0.5735 H   0  0  0  0  0  0  0  0  0  0  0  0
    3.7889    0.6248   -1.6717 H   0  0  0  0  0  0  0  0  0  0  0  0
    0.5179    2.4409   -1.4785 H   0  0  0  0  0  0  0  0  0  0  0  0
    2.1311    3.1586   -1.5175 H   0  0  0  0  0  0  0  0  0  0  0  0
    1.7390    1.8086   -2.5936 H   0  0  0  0  0  0  0  0  0  0  0  0
    3.6725   -0.9435    0.3128 H   0  0  0  0  0  0  0  0  0  0  0  0
    4.0462    0.4190    1.3618 H   0  0  0  0  0  0  0  0  0  0  0  0
    6.2279    0.7184    0.1132 H   0  0  0  0  0  0  0  0  0  0  0  0
    5.8358   -0.7007   -0.8607 H   0  0  0  0  0  0  0  0  0  0  0  0
    5.7682   -2.1034    1.2183 H   0  0  0  0  0  0  0  0  0  0  0  0
    7.3357   -1.3016    1.0170 H   0  0  0  0  0  0  0  0  0  0  0  0
    6.1662   -0.6726    2.1900 H   0  0  0  0  0  0  0  0  0  0  0  0
  1  5  1  0  0  0  0
  1 34  1  0  0  0  0
  2  7  1  0  0  0  0
  2 36  1  0  0  0  0
  3  4  1  0  0  0  0
  3  8  1  0  0  0  0
  3 10  1  0  0  0  0
  4  5  1  0  0  0  0
  4  6  1  0  0  0  0
  4 20  1  0  0  0  0
  5  7  1  0  0  0  0
  5 12  1  0  0  0  0
  6  9  1  0  0  0  0
  6 21  1  0  0  0  0
  6 22  1  0  0  0  0
  7 11  1  0  0  0  0
  7 23  1  0  0  0  0
  8  9  1  0  0  0  0
  8 24  1  0  0  0  0
  8 25  1  0  0  0  0
  9 26  1  0  0  0  0
  9 27  1  0  0  0  0
 10 11  1  0  0  0  0
 10 28  1  0  0  0  0
 10 29  1  0  0  0  0
 11 13  2  0  0  0  0
 12 30  1  0  0  0  0
 12 31  1  0  0  0  0
 12 32  1  0  0  0  0
 13 14  1  0  0  0  0
 13 33  1  0  0  0  0
 14 15  1  0  0  0  0
 14 16  1  0  0  0  0
 14 35  1  0  0  0  0
 15 17  1  0  0  0  0
 15 37  1  0  0  0  0
 15 38  1  0  0  0  0
 16 39  1  0  0  0  0
 16 40  1  0  0  0  0
 16 41  1  0  0  0  0
 17 18  1  0  0  0  0
 17 42  1  0  0  0  0
 17 43  1  0  0  0  0
 18 19  1  0  0  0  0
 18 44  1  0  0  0  0
 18 45  1  0  0  0  0
 19 46  1  0  0  0  0
 19 47  1  0  0  0  0
 19 48  1  0  0  0  0
M  END
> <PUBCHEM_COMPOUND_CID>
5470308

> <PUBCHEM_CONFORMER_RMSD>
0.8

> <PUBCHEM_CONFORMER_DIVERSEORDER>
1
11
25
19
17
18
2
9
15
12
10
20
4
8
13
16
22
7
23
14
21
24
5
3
6

> <PUBCHEM_MMFF94_PARTIAL_CHARGES>
14
1 -0.68
10 0.41
11 -0.28
13 -0.29
14 0.14
2 -0.68
3 -0.81
33 0.15
34 0.4
36 0.4
4 0.27
5 0.28
7 0.42
8 0.27

> <PUBCHEM_EFFECTIVE_ROTOR_COUNT>
5.2

> <PUBCHEM_PHARMACOPHORE_FEATURES>
10
1 1 acceptor
1 1 donor
1 16 hydrophobe
1 19 hydrophobe
1 2 acceptor
1 2 donor
1 3 cation
5 13 14 15 17 18 hydrophobe
5 3 4 6 8 9 rings
6 3 4 5 7 10 11 rings

> <PUBCHEM_HEAVY_ATOM_COUNT>
19

> <PUBCHEM_ATOM_DEF_STEREO_COUNT>
4

> <PUBCHEM_ATOM_UDEF_STEREO_COUNT>
0

> <PUBCHEM_BOND_DEF_STEREO_COUNT>
1

> <PUBCHEM_BOND_UDEF_STEREO_COUNT>
0

> <PUBCHEM_ISOTOPIC_ATOM_COUNT>
0

> <PUBCHEM_COMPONENT_COUNT>
1

> <PUBCHEM_CACTVS_TAUTO_COUNT>
1

> <PUBCHEM_CONFORMER_ID>
0053786400000001

> <PUBCHEM_MMFF94_ENERGY>
32.4879

> <PUBCHEM_FEATURE_SELFOVERLAP>
50.823

> <PUBCHEM_SHAPE_FINGERPRINT>
10062212 137 18335703810442278662
10291535 26 16009021821645223506
11036077 51 18413385419531600323
11315181 36 18410860924249657002
12011746 2 12823298970700639211
12107183 9 18266740371617581376
12236239 1 18343019995436904824
12553582 1 17775295988846037680
12633257 1 18272369780893930686
12916754 54 17773879696782482055
12969540 37 16465026312292800399
13073987 5 18341048498268946192
13403585 85 17894920607384953552
13583140 156 17489583472562493721
14004511 7 18411695487254577204
14251764 38 16805044008545922528
14420673 8 18264202694639155054
15375358 24 16226040111089696084
15442244 35 18342172220585516100
15537594 2 17704074032330619546
16945 1 18114167615488473329
17349148 13 18410292472000264830
17492 89 18197494018052757522
17980427 23 18187086118304327476
1813 80 17489015068211395462
19141452 34 18410856590348301318
19489759 90 17749112209872255736
20279233 1 16298378054970420988
20600515 1 17822280310602380344
21524375 3 18337661001659613169
21728266 224 18187374190155346366
2306618 200 18272379650438743685
23402539 116 18260553328765843485
23557571 272 17531237340355340460
23558518 356 18055904407916351778
23559900 14 17677033746994503300
23598291 2 18201153235630707732
23728640 28 18260545593551030639
2838139 119 17845662559655076389
312423 11 18057593274945961318
345986 75 17702120242912116872
5104073 3 18337387141633493328
559249 180 18411422834214759954
5706482 22 18408597072293638995
573450 72 18408325471515287650
7226269 152 18113617928130799296
7615 1 18268701710903132540
9862522 239 18126852817955366109
9981440 41 17261872153302753776

> <PUBCHEM_SHAPE_MULTIPOLES>
374.29
10.5
2.36
1.27
16.36
0.42
0.24
0.79
-3.15
-1.79
0.1
0.1
-0.21
-2.05

> <PUBCHEM_SHAPE_SELFOVERLAP>
752.14

> <PUBCHEM_SHAPE_VOLUME>
222.2

> <PUBCHEM_COORDINATE_TYPE>
2
5
10

$$$$

