637796
  -OEChem-07051212592D

 22 23  0     0  0  0  0  0  0999 V2000
    7.2764    0.4947    0.0000 O   0  0  0  0  0  0  0  0  0  0  0  0
    7.2764   -1.1147    0.0000 O   0  0  0  0  0  0  0  0  0  0  0  0
    6.3301    0.1900    0.0000 C   0  0  0  0  0  0  0  0  0  0  0  0
    6.3301   -0.8100    0.0000 C   0  0  0  0  0  0  0  0  0  0  0  0
    4.5981    0.1900    0.0000 C   0  0  0  0  0  0  0  0  0  0  0  0
    5.4641    0.6900    0.0000 C   0  0  0  0  0  0  0  0  0  0  0  0
    5.4641   -1.3100    0.0000 C   0  0  0  0  0  0  0  0  0  0  0  0
    4.5981   -0.8100    0.0000 C   0  0  0  0  0  0  0  0  0  0  0  0
    7.8600   -0.3100    0.0000 C   0  0  0  0  0  0  0  0  0  0  0  0
    3.7320    0.6900    0.0000 C   0  0  0  0  0  0  0  0  0  0  0  0
    2.8660    0.1900    0.0000 C   0  0  0  0  0  0  0  0  0  0  0  0
    2.0000    0.6900    0.0000 C   0  0  0  0  0  0  0  0  0  0  0  0
    5.4641    1.3100    0.0000 H   0  0  0  0  0  0  0  0  0  0  0  0
    5.4641   -1.9300    0.0000 H   0  0  0  0  0  0  0  0  0  0  0  0
    4.0611   -1.1200    0.0000 H   0  0  0  0  0  0  0  0  0  0  0  0
    8.3208   -0.7247    0.0000 H   0  0  0  0  0  0  0  0  0  0  0  0
    8.3208    0.1047    0.0000 H   0  0  0  0  0  0  0  0  0  0  0  0
    3.7320    1.3100    0.0000 H   0  0  0  0  0  0  0  0  0  0  0  0
    2.8660   -0.4300    0.0000 H   0  0  0  0  0  0  0  0  0  0  0  0
    2.3100    1.2269    0.0000 H   0  0  0  0  0  0  0  0  0  0  0  0
    1.4631    1.0000    0.0000 H   0  0  0  0  0  0  0  0  0  0  0  0
    1.6900    0.1531    0.0000 H   0  0  0  0  0  0  0  0  0  0  0  0
  1  3  1  0  0  0  0
  1  9  1  0  0  0  0
  2  4  1  0  0  0  0
  2  9  1  0  0  0  0
  3  4  2  0  0  0  0
  3  6  1  0  0  0  0
  4  7  1  0  0  0  0
  5  6  2  0  0  0  0
  5  8  1  0  0  0  0
  5 10  1  0  0  0  0
  6 13  1  0  0  0  0
  7  8  2  0  0  0  0
  7 14  1  0  0  0  0
  8 15  1  0  0  0  0
  9 16  1  0  0  0  0
  9 17  1  0  0  0  0
 10 11  2  0  0  0  0
 10 18  1  0  0  0  0
 11 12  1  0  0  0  0
 11 19  1  0  0  0  0
 12 20  1  0  0  0  0
 12 21  1  0  0  0  0
 12 22  1  0  0  0  0
M  END
> <PUBCHEM_COMPOUND_CID>
637796

> <PUBCHEM_COMPOUND_CANONICALIZED>
1

> <PUBCHEM_CACTVS_COMPLEXITY>
177

> <PUBCHEM_CACTVS_HBOND_ACCEPTOR>
2

> <PUBCHEM_CACTVS_HBOND_DONOR>
0

> <PUBCHEM_CACTVS_ROTATABLE_BOND>
1

> <PUBCHEM_CACTVS_SUBSKEYS>
AAADccBwMAAAAAAAAAAAAAAAAAAAASAAAAAwAAAAAAAAAEgBAAAAGgAAAAAADASAmAMyDoAABACAAiBCAAACCAAgIAAIiAAGiIgdJiKEMRqgMCIkwBEOqAeAwBAOIAABAAAAQABAAAIAAACAAAAAAAAAAA==

> <PUBCHEM_IUPAC_OPENEYE_NAME>
5-[(E)-prop-1-enyl]-1,3-benzodioxole

> <PUBCHEM_IUPAC_CAS_NAME>
5-[(E)-prop-1-enyl]-1,3-benzodioxole

> <PUBCHEM_IUPAC_NAME>
5-[(E)-prop-1-enyl]-1,3-benzodioxole

> <PUBCHEM_IUPAC_SYSTEMATIC_NAME>
5-[(E)-prop-1-enyl]-1,3-benzodioxole

> <PUBCHEM_IUPAC_TRADITIONAL_NAME>
5-[(E)-prop-1-enyl]-1,3-benzodioxole

> <PUBCHEM_IUPAC_INCHI>
InChI=1S/C10H10O2/c1-2-3-8-4-5-9-10(6-8)12-7-11-9/h2-6H,7H2,1H3/b3-2+

> <PUBCHEM_IUPAC_INCHIKEY>
VHVOLFRBFDOUSH-NSCUHMNNSA-N

> <PUBCHEM_XLOGP3>
3.1

> <PUBCHEM_EXACT_MASS>
162.06808

> <PUBCHEM_MOLECULAR_FORMULA>
C10H10O2

> <PUBCHEM_MOLECULAR_WEIGHT>
162.1852

> <PUBCHEM_OPENEYE_CAN_SMILES>
CC=CC1=CC2=C(C=C1)OCO2

> <PUBCHEM_OPENEYE_ISO_SMILES>
C/C=C/C1=CC2=C(C=C1)OCO2

> <PUBCHEM_CACTVS_TPSA>
18.5

> <PUBCHEM_MONOISOTOPIC_WEIGHT>
162.06808

> <PUBCHEM_TOTAL_CHARGE>
0

> <PUBCHEM_HEAVY_ATOM_COUNT>
12

> <PUBCHEM_ATOM_DEF_STEREO_COUNT>
0

> <PUBCHEM_ATOM_UDEF_STEREO_COUNT>
0

> <PUBCHEM_BOND_DEF_STEREO_COUNT>
1

> <PUBCHEM_BOND_UDEF_STEREO_COUNT>
0

> <PUBCHEM_ISOTOPIC_ATOM_COUNT>
0

> <PUBCHEM_COMPONENT_COUNT>
1

> <PUBCHEM_CACTVS_TAUTO_COUNT>
1

> <PUBCHEM_COORDINATE_TYPE>
1
5
255

> <PUBCHEM_BONDANNOTATIONS>
3  4  8
3  6  8
4  7  8
5  6  8
5  8  8
7  8  8

$$$$

