10706137
  -OEChem-07051213103D

 44 45  0     1  0  0  0  0  0999 V2000
    0.3849    0.4302   -1.7733 O   0  0  0  0  0  0  0  0  0  0  0  0
   -1.1116    1.1428    1.4971 O   0  0  0  0  0  0  0  0  0  0  0  0
    2.9341   -2.3344    0.0821 O   0  0  0  0  0  0  0  0  0  0  0  0
    0.9718   -0.8156    0.2341 C   0  0  1  0  0  0  0  0  0  0  0  0
    0.4481    0.5638   -0.3300 C   0  0  2  0  0  0  0  0  0  0  0  0
   -1.0196    0.8586    0.1045 C   0  0  1  0  0  0  0  0  0  0  0  0
   -1.9689   -0.2958   -0.3065 C   0  0  1  0  0  0  0  0  0  0  0  0
   -0.0270   -1.9447   -0.1546 C   0  0  0  0  0  0  0  0  0  0  0  0
    2.3672   -1.1239   -0.4167 C   0  0  1  0  0  0  0  0  0  0  0  0
   -1.4827   -1.6523    0.2231 C   0  0  0  0  0  0  0  0  0  0  0  0
    1.4863    1.6620   -0.0776 C   0  0  0  0  0  0  0  0  0  0  0  0
    3.3836   -0.0034   -0.1688 C   0  0  0  0  0  0  0  0  0  0  0  0
    1.1332   -0.8211    1.7793 C   0  0  0  0  0  0  0  0  0  0  0  0
   -3.4135   -0.0384    0.1314 C   0  0  0  0  0  0  0  0  0  0  0  0
    2.8705    1.3608   -0.6179 C   0  0  0  0  0  0  0  0  0  0  0  0
   -3.8845    1.3246   -0.3651 C   0  0  0  0  0  0  0  0  0  0  0  0
   -4.3291   -1.1465   -0.3788 C   0  0  0  0  0  0  0  0  0  0  0  0
    1.2571    2.8333    0.5380 C   0  0  0  0  0  0  0  0  0  0  0  0
   -1.3327    1.7673   -0.4231 H   0  0  0  0  0  0  0  0  0  0  0  0
   -1.9577   -0.3573   -1.4043 H   0  0  0  0  0  0  0  0  0  0  0  0
    0.2663   -2.8913    0.3163 H   0  0  0  0  0  0  0  0  0  0  0  0
    0.0182   -2.1189   -1.2378 H   0  0  0  0  0  0  0  0  0  0  0  0
    2.2572   -1.2544   -1.5007 H   0  0  0  0  0  0  0  0  0  0  0  0
   -2.0819   -2.4702   -0.1910 H   0  0  0  0  0  0  0  0  0  0  0  0
   -1.6034   -1.6998    1.3114 H   0  0  0  0  0  0  0  0  0  0  0  0
    4.3160   -0.2365   -0.6989 H   0  0  0  0  0  0  0  0  0  0  0  0
    3.6638    0.0279    0.8916 H   0  0  0  0  0  0  0  0  0  0  0  0
    0.1759   -0.7724    2.3033 H   0  0  0  0  0  0  0  0  0  0  0  0
    1.6128   -1.7444    2.1235 H   0  0  0  0  0  0  0  0  0  0  0  0
    1.7418    0.0139    2.1383 H   0  0  0  0  0  0  0  0  0  0  0  0
   -3.4792   -0.0345    1.2272 H   0  0  0  0  0  0  0  0  0  0  0  0
    2.8351    1.3912   -1.7143 H   0  0  0  0  0  0  0  0  0  0  0  0
    3.5948    2.1267   -0.3147 H   0  0  0  0  0  0  0  0  0  0  0  0
    0.0815    1.2784   -2.1408 H   0  0  0  0  0  0  0  0  0  0  0  0
   -0.2432    1.3685    1.8603 H   0  0  0  0  0  0  0  0  0  0  0  0
    2.3884   -3.0717   -0.2382 H   0  0  0  0  0  0  0  0  0  0  0  0
   -3.7110    1.4449   -1.4400 H   0  0  0  0  0  0  0  0  0  0  0  0
   -4.9593    1.4478   -0.1895 H   0  0  0  0  0  0  0  0  0  0  0  0
   -3.3940    2.1475    0.1632 H   0  0  0  0  0  0  0  0  0  0  0  0
   -4.2034   -1.3129   -1.4541 H   0  0  0  0  0  0  0  0  0  0  0  0
   -5.3801   -0.8874   -0.2066 H   0  0  0  0  0  0  0  0  0  0  0  0
   -4.1600   -2.0927    0.1436 H   0  0  0  0  0  0  0  0  0  0  0  0
    0.2848    3.1382    0.9018 H   0  0  0  0  0  0  0  0  0  0  0  0
    2.0553    3.5584    0.6661 H   0  0  0  0  0  0  0  0  0  0  0  0
  1  5  1  0  0  0  0
  1 34  1  0  0  0  0
  2  6  1  0  0  0  0
  2 35  1  0  0  0  0
  3  9  1  0  0  0  0
  3 36  1  0  0  0  0
  4  5  1  0  0  0  0
  4  8  1  0  0  0  0
  4  9  1  0  0  0  0
  4 13  1  0  0  0  0
  5  6  1  0  0  0  0
  5 11  1  0  0  0  0
  6  7  1  0  0  0  0
  6 19  1  0  0  0  0
  7 10  1  0  0  0  0
  7 14  1  0  0  0  0
  7 20  1  0  0  0  0
  8 10  1  0  0  0  0
  8 21  1  0  0  0  0
  8 22  1  0  0  0  0
  9 12  1  0  0  0  0
  9 23  1  0  0  0  0
 10 24  1  0  0  0  0
 10 25  1  0  0  0  0
 11 15  1  0  0  0  0
 11 18  2  0  0  0  0
 12 15  1  0  0  0  0
 12 26  1  0  0  0  0
 12 27  1  0  0  0  0
 13 28  1  0  0  0  0
 13 29  1  0  0  0  0
 13 30  1  0  0  0  0
 14 16  1  0  0  0  0
 14 17  1  0  0  0  0
 14 31  1  0  0  0  0
 15 32  1  0  0  0  0
 15 33  1  0  0  0  0
 16 37  1  0  0  0  0
 16 38  1  0  0  0  0
 16 39  1  0  0  0  0
 17 40  1  0  0  0  0
 17 41  1  0  0  0  0
 17 42  1  0  0  0  0
 18 43  1  0  0  0  0
 18 44  1  0  0  0  0
M  END
> <PUBCHEM_COMPOUND_CID>
10706137

> <PUBCHEM_CONFORMER_RMSD>
0.6

> <PUBCHEM_CONFORMER_DIVERSEORDER>
1

> <PUBCHEM_MMFF94_PARTIAL_CHARGES>
14
1 -0.68
11 -0.28
15 0.14
18 -0.3
2 -0.68
3 -0.68
34 0.4
35 0.4
36 0.4
43 0.15
44 0.15
5 0.42
6 0.28
9 0.28

> <PUBCHEM_EFFECTIVE_ROTOR_COUNT>
2.4

> <PUBCHEM_PHARMACOPHORE_FEATURES>
9
1 1 acceptor
1 1 donor
1 2 acceptor
1 2 donor
1 3 acceptor
1 3 donor
3 14 16 17 hydrophobe
6 4 5 6 7 8 10 rings
6 4 5 9 11 12 15 rings

> <PUBCHEM_HEAVY_ATOM_COUNT>
18

> <PUBCHEM_ATOM_DEF_STEREO_COUNT>
5

> <PUBCHEM_ATOM_UDEF_STEREO_COUNT>
0

> <PUBCHEM_BOND_DEF_STEREO_COUNT>
0

> <PUBCHEM_BOND_UDEF_STEREO_COUNT>
0

> <PUBCHEM_ISOTOPIC_ATOM_COUNT>
0

> <PUBCHEM_COMPONENT_COUNT>
1

> <PUBCHEM_CACTVS_TAUTO_COUNT>
1

> <PUBCHEM_CONFORMER_ID>
00A35CD900000001

> <PUBCHEM_MMFF94_ENERGY>
60.6303

> <PUBCHEM_FEATURE_SELFOVERLAP>
45.682

> <PUBCHEM_SHAPE_FINGERPRINT>
10062212 137 18260837029078958407
10608611 8 18340207384563602453
10863032 1 18410853226787424391
10948715 1 18200312096129101724
10967382 1 18410291380693313222
10980938 120 18412826867481556772
11471102 20 18410857624796999423
11680986 33 18340761542587243026
116883 192 17901380422480798014
12423570 1 16401993544270608644
12491281 212 18337654348433349584
13132413 78 18335138747375659597
13140716 1 18049445842318490656
13571099 22 18334298707859948199
14817 1 16519057928699445696
14993402 34 18410006675948818238
15196674 1 18411418427367090367
15442244 35 18337952410552625647
15536298 74 18408604755663181318
15775835 57 18272365339185713396
16945 1 18337668599203344296
18186145 218 18333724711314185437
19010151 120 18336545035705950442
20233049 118 18271246126595737221
20645477 70 18341338833879583935
21267235 1 18410282606012317735
21501502 16 18268151950709582158
22112679 90 18043796791882279456
221490 88 18340480084795754195
22344851 262 17916304926885793269
22344851 341 18127138467681980018
2334 1 17616530657974162904
23402539 116 18188500176019466270
23419403 2 16172091391882968283
23557571 272 15791725343586254529
23559900 14 18334298712207987706
25 1 18342737369245473876
2748010 2 17762329219879623872
296302 2 18202843240473183596
3286 77 18343025484257370695
335352 9 18195246848086833895
34934 24 18408610253479770044
5104073 3 18411981373389373129
528886 8 18409168788143526986
53812653 166 18339643326350330644
69090 78 18337110047370540631
7364860 26 18335986367755847200
7832392 63 18409169878796175462
9709674 26 18339074900361463119

> <PUBCHEM_SHAPE_MULTIPOLES>
352.82
5.93
2.4
1.1
4.82
0.35
-0.21
-0.24
0.94
-1.09
-0.24
-0.21
0.07
-0.13

> <PUBCHEM_SHAPE_SELFOVERLAP>
725.653

> <PUBCHEM_SHAPE_VOLUME>
199.4

> <PUBCHEM_COORDINATE_TYPE>
2
5
10

$$$$

