12515
  -OEChem-06261207022D

 19 18  0     0  0  0  0  0  0999 V2000
    1.5860    0.0000    0.0000 Cl  0  5  0  0  0  0  0  0  0  0  0  0
    2.2690    6.1200    0.0000 N   0  3  0  0  0  0  0  0  0  0  0  0
    2.2690    5.1200    0.0000 C   0  0  0  0  0  0  0  0  0  0  0  0
    1.4030    3.6200    0.0000 C   0  0  0  0  0  0  0  0  0  0  0  0
    1.4030    4.6200    0.0000 C   0  0  0  0  0  0  0  0  0  0  0  0
    3.1350    4.6200    0.0000 C   0  0  0  0  0  0  0  0  0  0  0  0
    2.2690    3.1200    0.0000 C   0  0  0  0  0  0  0  0  0  0  0  0
    3.1350    3.6200    0.0000 C   0  0  0  0  0  0  0  0  0  0  0  0
    0.5369    3.1200    0.0000 C   0  0  0  0  0  0  0  0  0  0  0  0
    0.8660    4.9300    0.0000 H   0  0  0  0  0  0  0  0  0  0  0  0
    3.6720    4.9300    0.0000 H   0  0  0  0  0  0  0  0  0  0  0  0
    2.2690    2.5000    0.0000 H   0  0  0  0  0  0  0  0  0  0  0  0
    3.6720    3.3100    0.0000 H   0  0  0  0  0  0  0  0  0  0  0  0
    2.2690    6.7400    0.0000 H   0  0  0  0  0  0  0  0  0  0  0  0
    2.8890    6.1200    0.0000 H   0  0  0  0  0  0  0  0  0  0  0  0
    1.6490    6.1200    0.0000 H   0  0  0  0  0  0  0  0  0  0  0  0
    0.2269    3.6569    0.0000 H   0  0  0  0  0  0  0  0  0  0  0  0
    0.0000    2.8100    0.0000 H   0  0  0  0  0  0  0  0  0  0  0  0
    0.8469    2.5831    0.0000 H   0  0  0  0  0  0  0  0  0  0  0  0
  2  3  1  0  0  0  0
  2 14  1  0  0  0  0
  2 15  1  0  0  0  0
  2 16  1  0  0  0  0
  3  5  1  0  0  0  0
  3  6  2  0  0  0  0
  4  5  2  0  0  0  0
  4  7  1  0  0  0  0
  4  9  1  0  0  0  0
  5 10  1  0  0  0  0
  6  8  1  0  0  0  0
  6 11  1  0  0  0  0
  7  8  2  0  0  0  0
  7 12  1  0  0  0  0
  8 13  1  0  0  0  0
  9 17  1  0  0  0  0
  9 18  1  0  0  0  0
  9 19  1  0  0  0  0
M  CHG  2   1  -1   2   1
M  END
> <PUBCHEM_COMPOUND_CID>
12515

> <PUBCHEM_COMPOUND_CANONICALIZED>
1

> <PUBCHEM_CACTVS_COMPLEXITY>
70.8

> <PUBCHEM_CACTVS_HBOND_ACCEPTOR>
1

> <PUBCHEM_CACTVS_HBOND_DONOR>
1

> <PUBCHEM_CACTVS_ROTATABLE_BOND>
0

> <PUBCHEM_CACTVS_SUBSKEYS>
AAADccBiAAAEAAAAAAAAAAAAAAAAAAAAAAAwAAAAAAAAAAABAAAAHAAQAAAADAiBGAAywIBAAACAAiRCQACCAAAgAgAIiAAAZIgIICKAkZGAIABgkAAIyAcQgAAOAAAAQAAAAAAAAACAAAAAAAAAAAAAAA==

> <PUBCHEM_IUPAC_OPENEYE_NAME>
m-tolylammonium chloride

> <PUBCHEM_IUPAC_CAS_NAME>
(3-methylphenyl)ammonium chloride

> <PUBCHEM_IUPAC_NAME>
(3-methylphenyl)azanium chloride

> <PUBCHEM_IUPAC_SYSTEMATIC_NAME>
(3-methylphenyl)azanium chloride

> <PUBCHEM_IUPAC_TRADITIONAL_NAME>
m-tolylammonium chloride

> <PUBCHEM_IUPAC_INCHI>
InChI=1S/C7H9N.ClH/c1-6-3-2-4-7(8)5-6;/h2-5H,8H2,1H3;1H

> <PUBCHEM_IUPAC_INCHIKEY>
VDXZPXIEEVOGLV-UHFFFAOYSA-N

> <PUBCHEM_EXACT_MASS>
143.050177

> <PUBCHEM_MOLECULAR_FORMULA>
C7H10ClN

> <PUBCHEM_MOLECULAR_WEIGHT>
143.614

> <PUBCHEM_OPENEYE_CAN_SMILES>
CC1=CC(=CC=C1)[NH3+].[Cl-]

> <PUBCHEM_OPENEYE_ISO_SMILES>
CC1=CC(=CC=C1)[NH3+].[Cl-]

> <PUBCHEM_CACTVS_TPSA>
27.6

> <PUBCHEM_MONOISOTOPIC_WEIGHT>
143.050177

> <PUBCHEM_TOTAL_CHARGE>
0

> <PUBCHEM_HEAVY_ATOM_COUNT>
9

> <PUBCHEM_ATOM_DEF_STEREO_COUNT>
0

> <PUBCHEM_ATOM_UDEF_STEREO_COUNT>
0

> <PUBCHEM_BOND_DEF_STEREO_COUNT>
0

> <PUBCHEM_BOND_UDEF_STEREO_COUNT>
0

> <PUBCHEM_ISOTOPIC_ATOM_COUNT>
0

> <PUBCHEM_COMPONENT_COUNT>
2

> <PUBCHEM_CACTVS_TAUTO_COUNT>
1

> <PUBCHEM_COORDINATE_TYPE>
1
5
255

> <PUBCHEM_BONDANNOTATIONS>
3  5  8
3  6  8
4  5  8
4  7  8
6  8  8
7  8  8

$$$$

