10474509
  -OEChem-07051213093D

 55 57  0     1  0  0  0  0  0999 V2000
   -3.4622    2.6930    1.0629 O   0  0  0  0  0  0  0  0  0  0  0  0
    3.7633   -1.6549   -0.6288 O   0  0  0  0  0  0  0  0  0  0  0  0
    6.9913   -0.5822    0.7861 N   0  0  0  0  0  0  0  0  0  0  0  0
   -2.0029    1.0041    0.1156 C   0  0  0  0  0  0  0  0  0  0  0  0
   -1.6366   -0.3052    0.0312 C   0  0  0  0  0  0  0  0  0  0  0  0
   -3.4387    1.4993    0.2785 C   0  0  2  0  0  0  0  0  0  0  0  0
   -0.2084   -0.6625   -0.1440 C   0  0  0  0  0  0  0  0  0  0  0  0
   -0.9788    2.0792    0.0459 C   0  0  0  0  0  0  0  0  0  0  0  0
   -2.6546   -1.3861    0.1001 C   0  0  0  0  0  0  0  0  0  0  0  0
   -4.1298    1.7738   -1.0549 C   0  0  0  0  0  0  0  0  0  0  0  0
    0.5702   -0.8736    0.9770 C   0  0  0  0  0  0  0  0  0  0  0  0
    0.3026   -0.7736   -1.4220 C   0  0  0  0  0  0  0  0  0  0  0  0
   -0.6463    2.6027   -1.1860 C   0  0  0  0  0  0  0  0  0  0  0  0
   -0.3943    2.5186    1.2154 C   0  0  0  0  0  0  0  0  0  0  0  0
   -2.9758   -1.9204    1.3304 C   0  0  0  0  0  0  0  0  0  0  0  0
   -3.2450   -1.8199   -1.0685 C   0  0  0  0  0  0  0  0  0  0  0  0
    2.4522   -1.3275   -0.4682 C   0  0  0  0  0  0  0  0  0  0  0  0
    1.9141   -1.2095    0.8133 C   0  0  0  0  0  0  0  0  0  0  0  0
    1.6464   -1.1097   -1.5858 C   0  0  0  0  0  0  0  0  0  0  0  0
    0.3149    3.6113   -1.2516 C   0  0  0  0  0  0  0  0  0  0  0  0
    0.5669    3.5273    1.1497 C   0  0  0  0  0  0  0  0  0  0  0  0
   -3.9308   -2.9351    1.3951 C   0  0  0  0  0  0  0  0  0  0  0  0
   -4.2001   -2.8344   -1.0037 C   0  0  0  0  0  0  0  0  0  0  0  0
    0.9214    4.0737   -0.0839 C   0  0  0  0  0  0  0  0  0  0  0  0
   -4.5429   -3.3920    0.2282 C   0  0  0  0  0  0  0  0  0  0  0  0
    4.6663   -1.2409    0.3955 C   0  0  0  0  0  0  0  0  0  0  0  0
    6.0387   -1.0236   -0.2217 C   0  0  0  0  0  0  0  0  0  0  0  0
    8.2990   -0.3318    0.1943 C   0  0  0  0  0  0  0  0  0  0  0  0
   -4.0295    0.7659    0.8369 H   0  0  0  0  0  0  0  0  0  0  0  0
   -4.1163    0.9034   -1.7157 H   0  0  0  0  0  0  0  0  0  0  0  0
   -5.1743    2.0587   -0.8857 H   0  0  0  0  0  0  0  0  0  0  0  0
   -3.6648    2.6166   -1.5777 H   0  0  0  0  0  0  0  0  0  0  0  0
    0.1611   -0.7903    1.9801 H   0  0  0  0  0  0  0  0  0  0  0  0
   -0.3144   -0.6067   -2.3006 H   0  0  0  0  0  0  0  0  0  0  0  0
   -1.1104    2.2498   -2.1026 H   0  0  0  0  0  0  0  0  0  0  0  0
   -0.6630    2.1004    2.1814 H   0  0  0  0  0  0  0  0  0  0  0  0
   -2.5071   -1.5710    2.2459 H   0  0  0  0  0  0  0  0  0  0  0  0
   -2.9845   -1.3954   -2.0339 H   0  0  0  0  0  0  0  0  0  0  0  0
    2.4990   -1.3974    1.7088 H   0  0  0  0  0  0  0  0  0  0  0  0
    2.0602   -1.1996   -2.5865 H   0  0  0  0  0  0  0  0  0  0  0  0
   -4.3917    2.9599    1.1650 H   0  0  0  0  0  0  0  0  0  0  0  0
    0.5915    4.0362   -2.2120 H   0  0  0  0  0  0  0  0  0  0  0  0
    1.0394    3.8871    2.0589 H   0  0  0  0  0  0  0  0  0  0  0  0
   -4.1982   -3.3688    2.3543 H   0  0  0  0  0  0  0  0  0  0  0  0
   -4.6766   -3.1906   -1.9123 H   0  0  0  0  0  0  0  0  0  0  0  0
    1.6701    4.8588   -0.1350 H   0  0  0  0  0  0  0  0  0  0  0  0
   -5.2866   -4.1818    0.2786 H   0  0  0  0  0  0  0  0  0  0  0  0
    4.7129   -2.0214    1.1644 H   0  0  0  0  0  0  0  0  0  0  0  0
    4.3459   -0.2955    0.8541 H   0  0  0  0  0  0  0  0  0  0  0  0
    5.9515   -0.2791   -1.0232 H   0  0  0  0  0  0  0  0  0  0  0  0
    6.3735   -1.9549   -0.6957 H   0  0  0  0  0  0  0  0  0  0  0  0
    7.0779   -1.2934    1.5116 H   0  0  0  0  0  0  0  0  0  0  0  0
    8.9921    0.0043    0.9718 H   0  0  0  0  0  0  0  0  0  0  0  0
    8.7147   -1.2378   -0.2589 H   0  0  0  0  0  0  0  0  0  0  0  0
    8.2470    0.4571   -0.5631 H   0  0  0  0  0  0  0  0  0  0  0  0
  1  6  1  0  0  0  0
  1 41  1  0  0  0  0
  2 17  1  0  0  0  0
  2 26  1  0  0  0  0
  3 27  1  0  0  0  0
  3 28  1  0  0  0  0
  3 52  1  0  0  0  0
  4  5  2  0  0  0  0
  4  6  1  0  0  0  0
  4  8  1  0  0  0  0
  5  7  1  0  0  0  0
  5  9  1  0  0  0  0
  6 10  1  0  0  0  0
  6 29  1  0  0  0  0
  7 11  2  0  0  0  0
  7 12  1  0  0  0  0
  8 13  2  0  0  0  0
  8 14  1  0  0  0  0
  9 15  2  0  0  0  0
  9 16  1  0  0  0  0
 10 30  1  0  0  0  0
 10 31  1  0  0  0  0
 10 32  1  0  0  0  0
 11 18  1  0  0  0  0
 11 33  1  0  0  0  0
 12 19  2  0  0  0  0
 12 34  1  0  0  0  0
 13 20  1  0  0  0  0
 13 35  1  0  0  0  0
 14 21  2  0  0  0  0
 14 36  1  0  0  0  0
 15 22  1  0  0  0  0
 15 37  1  0  0  0  0
 16 23  2  0  0  0  0
 16 38  1  0  0  0  0
 17 18  2  0  0  0  0
 17 19  1  0  0  0  0
 18 39  1  0  0  0  0
 19 40  1  0  0  0  0
 20 24  2  0  0  0  0
 20 42  1  0  0  0  0
 21 24  1  0  0  0  0
 21 43  1  0  0  0  0
 22 25  2  0  0  0  0
 22 44  1  0  0  0  0
 23 25  1  0  0  0  0
 23 45  1  0  0  0  0
 24 46  1  0  0  0  0
 25 47  1  0  0  0  0
 26 27  1  0  0  0  0
 26 48  1  0  0  0  0
 26 49  1  0  0  0  0
 27 50  1  0  0  0  0
 27 51  1  0  0  0  0
 28 53  1  0  0  0  0
 28 54  1  0  0  0  0
 28 55  1  0  0  0  0
M  END
> <PUBCHEM_COMPOUND_CID>
10474509

> <PUBCHEM_CONFORMER_RMSD>
1

> <PUBCHEM_CONFORMER_DIVERSEORDER>
1
5
3
7
4
6
2

> <PUBCHEM_MMFF94_PARTIAL_CHARGES>
43
1 -0.68
11 -0.15
12 -0.15
13 -0.15
14 -0.15
15 -0.15
16 -0.15
17 0.08
18 -0.15
19 -0.15
2 -0.36
20 -0.15
21 -0.15
22 -0.15
23 -0.15
24 -0.15
25 -0.15
26 0.28
27 0.27
28 0.27
3 -0.9
33 0.15
34 0.15
35 0.15
36 0.15
37 0.15
38 0.15
39 0.15
4 -0.17
40 0.15
41 0.4
42 0.15
43 0.15
44 0.15
45 0.15
46 0.15
47 0.15
5 -0.06
52 0.36
6 0.42
7 0.03
8 0.03
9 0.03

> <PUBCHEM_EFFECTIVE_ROTOR_COUNT>
8

> <PUBCHEM_PHARMACOPHORE_FEATURES>
8
1 1 acceptor
1 1 donor
1 2 acceptor
1 3 cation
1 3 donor
6 7 11 12 17 18 19 rings
6 8 13 14 20 21 24 rings
6 9 15 16 22 23 25 rings

> <PUBCHEM_HEAVY_ATOM_COUNT>
28

> <PUBCHEM_ATOM_DEF_STEREO_COUNT>
0

> <PUBCHEM_ATOM_UDEF_STEREO_COUNT>
1

> <PUBCHEM_BOND_DEF_STEREO_COUNT>
1

> <PUBCHEM_BOND_UDEF_STEREO_COUNT>
0

> <PUBCHEM_ISOTOPIC_ATOM_COUNT>
0

> <PUBCHEM_COMPONENT_COUNT>
1

> <PUBCHEM_CACTVS_TAUTO_COUNT>
1

> <PUBCHEM_CONFORMER_ID>
009FD40D00000001

> <PUBCHEM_MMFF94_ENERGY>
96.9444

> <PUBCHEM_FEATURE_SELFOVERLAP>
40.594

> <PUBCHEM_SHAPE_FINGERPRINT>
10906281 52 17970339528364482405
1100329 8 18410848889651463233
11101153 10 18341609253816190036
11315181 36 17846498110966294646
11578080 2 17459196175574850203
11963148 33 17112410014216339175
12035758 1 18264467633959413753
12166972 35 17703507684735917454
12596602 18 18059861675773720362
12788726 201 18126013899230751731
13140716 1 18410003360165552361
13149001 5 18339655511789884317
133893 2 17982431725487009393
14068700 675 18262244309457582519
15876981 60 18343299284407105060
17686467 74 18341054017961291720
1813 80 18115852049611356023
20101258 96 18412537691829094107
20600515 1 18263347248179129925
20771845 171 17409935730683229575
20905425 154 18191573165196077053
21421861 104 18121479294772444265
21927370 108 18271512139933042018
22956985 138 17623281672517918978
23419403 2 18055094093822278455
23557571 272 18261950851178971094
23559900 14 17986116197605139023
3178227 256 18268977856817179873
3380486 145 18338501049849213835
392239 28 18341321263125820992
4280585 95 18341622507235666348
469060 322 18338502111038426210
5171179 24 18264215716204056241
81228 2 18119516881059402727

> <PUBCHEM_SHAPE_MULTIPOLES>
559.51
12.17
5
1.38
29.14
4.44
-0.09
-10.92
1.38
-4.16
0.26
-0.56
0.04
0.34

> <PUBCHEM_SHAPE_SELFOVERLAP>
1199.941

> <PUBCHEM_SHAPE_VOLUME>
310

> <PUBCHEM_COORDINATE_TYPE>
2
5
10

$$$$

