11953925
  -OEChem-07051212562D

 61 61  0     1  0  0  0  0  0999 V2000
    6.8972    1.2549    0.0000 O   0  0  0  0  0  0  0  0  0  0  0  0
    7.5207   -1.3289    0.0000 O   0  0  0  0  0  0  0  0  0  0  0  0
   11.7612   -0.8183    0.0000 O   0  0  0  0  0  0  0  0  0  0  0  0
    2.5123    1.1583    0.0000 O   0  0  0  0  0  0  0  0  0  0  0  0
    7.3311    0.3539    0.0000 C   0  0  2  0  0  0  0  0  0  0  0  0
    6.8972   -0.5471    0.0000 C   0  0  1  0  0  0  0  0  0  0  0  0
    8.2321   -0.0800    0.0000 C   0  0  0  0  0  0  0  0  0  0  0  0
    5.9223   -0.7696    0.0000 C   0  0  0  0  0  0  0  0  0  0  0  0
    9.0583    0.4833    0.0000 C   0  0  0  0  0  0  0  0  0  0  0  0
    8.2321    0.7878    0.0000 C   0  0  0  0  0  0  0  0  0  0  0  0
    5.1404   -0.1461    0.0000 C   0  0  0  0  0  0  0  0  0  0  0  0
    9.9593    0.0494    0.0000 C   0  0  0  0  0  0  0  0  0  0  0  0
    5.9223    1.4774    0.0000 C   0  0  0  0  0  0  0  0  0  0  0  0
    5.1404    0.8539    0.0000 C   0  0  0  0  0  0  0  0  0  0  0  0
   10.7855    0.6128    0.0000 C   0  0  1  0  0  0  0  0  0  0  0  0
    4.2395    1.2878    0.0000 C   0  0  0  0  0  0  0  0  0  0  0  0
   10.7108    1.6100    0.0000 C   0  0  0  0  0  0  0  0  0  0  0  0
   11.6865    0.1789    0.0000 C   0  0  0  0  0  0  0  0  0  0  0  0
    3.4132    0.7245    0.0000 C   0  0  0  0  0  0  0  0  0  0  0  0
   12.5127    0.7422    0.0000 C   0  0  0  0  0  0  0  0  0  0  0  0
   13.4137    0.3083    0.0000 C   0  0  0  0  0  0  0  0  0  0  0  0
   14.2399    0.8716    0.0000 C   0  0  0  0  0  0  0  0  0  0  0  0
   13.4884   -0.6889    0.0000 C   0  0  0  0  0  0  0  0  0  0  0  0
   15.1409    0.4378    0.0000 C   0  0  0  0  0  0  0  0  0  0  0  0
   14.1652    1.8688    0.0000 C   0  0  0  0  0  0  0  0  0  0  0  0
    7.5133   -0.4777    0.0000 H   0  0  0  0  0  0  0  0  0  0  0  0
    7.8701   -0.5834    0.0000 H   0  0  0  0  0  0  0  0  0  0  0  0
    8.6650   -0.5238    0.0000 H   0  0  0  0  0  0  0  0  0  0  0  0
    5.4375   -1.1562    0.0000 H   0  0  0  0  0  0  0  0  0  0  0  0
    6.1913   -1.3282    0.0000 H   0  0  0  0  0  0  0  0  0  0  0  0
    9.4202    0.9867    0.0000 H   0  0  0  0  0  0  0  0  0  0  0  0
    8.6254    0.9272    0.0000 H   0  0  0  0  0  0  0  0  0  0  0  0
    8.5011    0.2292    0.0000 H   0  0  0  0  0  0  0  0  0  0  0  0
    8.7907    1.0568    0.0000 H   0  0  0  0  0  0  0  0  0  0  0  0
    7.9630    1.3464    0.0000 H   0  0  0  0  0  0  0  0  0  0  0  0
    4.5360   -0.0081    0.0000 H   0  0  0  0  0  0  0  0  0  0  0  0
    4.8714   -0.7047    0.0000 H   0  0  0  0  0  0  0  0  0  0  0  0
    9.5973   -0.4540    0.0000 H   0  0  0  0  0  0  0  0  0  0  0  0
   10.3922   -0.3944    0.0000 H   0  0  0  0  0  0  0  0  0  0  0  0
    6.1913    2.0360    0.0000 H   0  0  0  0  0  0  0  0  0  0  0  0
    5.4375    1.8640    0.0000 H   0  0  0  0  0  0  0  0  0  0  0  0
   11.2978    0.9620    0.0000 H   0  0  0  0  0  0  0  0  0  0  0  0
    7.2942   -1.9060    0.0000 H   0  0  0  0  0  0  0  0  0  0  0  0
    4.1931    1.9060    0.0000 H   0  0  0  0  0  0  0  0  0  0  0  0
   11.3290    1.6563    0.0000 H   0  0  0  0  0  0  0  0  0  0  0  0
   10.6644    2.2282    0.0000 H   0  0  0  0  0  0  0  0  0  0  0  0
   10.0925    1.5636    0.0000 H   0  0  0  0  0  0  0  0  0  0  0  0
    3.0513    0.2211    0.0000 H   0  0  0  0  0  0  0  0  0  0  0  0
    3.8461    0.2806    0.0000 H   0  0  0  0  0  0  0  0  0  0  0  0
   12.4664    1.3605    0.0000 H   0  0  0  0  0  0  0  0  0  0  0  0
   14.7522    1.2209    0.0000 H   0  0  0  0  0  0  0  0  0  0  0  0
   12.8701   -0.7352    0.0000 H   0  0  0  0  0  0  0  0  0  0  0  0
   13.5347   -1.3072    0.0000 H   0  0  0  0  0  0  0  0  0  0  0  0
   14.1067   -0.6425    0.0000 H   0  0  0  0  0  0  0  0  0  0  0  0
   14.8719   -0.1208    0.0000 H   0  0  0  0  0  0  0  0  0  0  0  0
   15.6995    0.1688    0.0000 H   0  0  0  0  0  0  0  0  0  0  0  0
   15.4099    0.9964    0.0000 H   0  0  0  0  0  0  0  0  0  0  0  0
   14.7835    1.9152    0.0000 H   0  0  0  0  0  0  0  0  0  0  0  0
   14.1189    2.4871    0.0000 H   0  0  0  0  0  0  0  0  0  0  0  0
   13.5469    1.8225    0.0000 H   0  0  0  0  0  0  0  0  0  0  0  0
    2.0000    0.8091    0.0000 H   0  0  0  0  0  0  0  0  0  0  0  0
  1  5  1  0  0  0  0
  1 13  1  0  0  0  0
  6  2  1  6  0  0  0
  2 43  1  0  0  0  0
  3 18  2  0  0  0  0
  4 19  1  0  0  0  0
  4 61  1  0  0  0  0
  5  6  1  0  0  0  0
  5  7  1  0  0  0  0
  5 10  1  6  0  0  0
  6  8  1  0  0  0  0
  6 26  1  0  0  0  0
  7  9  1  0  0  0  0
  7 27  1  0  0  0  0
  7 28  1  0  0  0  0
  8 11  1  0  0  0  0
  8 29  1  0  0  0  0
  8 30  1  0  0  0  0
  9 12  1  0  0  0  0
  9 31  1  0  0  0  0
  9 32  1  0  0  0  0
 10 33  1  0  0  0  0
 10 34  1  0  0  0  0
 10 35  1  0  0  0  0
 11 14  1  0  0  0  0
 11 36  1  0  0  0  0
 11 37  1  0  0  0  0
 12 15  1  0  0  0  0
 12 38  1  0  0  0  0
 12 39  1  0  0  0  0
 13 14  1  0  0  0  0
 13 40  1  0  0  0  0
 13 41  1  0  0  0  0
 14 16  2  0  0  0  0
 15 17  1  1  0  0  0
 15 18  1  0  0  0  0
 15 42  1  0  0  0  0
 16 19  1  0  0  0  0
 16 44  1  0  0  0  0
 17 45  1  0  0  0  0
 17 46  1  0  0  0  0
 17 47  1  0  0  0  0
 18 20  1  0  0  0  0
 19 48  1  0  0  0  0
 19 49  1  0  0  0  0
 20 21  2  0  0  0  0
 20 50  1  0  0  0  0
 21 22  1  0  0  0  0
 21 23  1  0  0  0  0
 22 24  1  0  0  0  0
 22 25  1  0  0  0  0
 22 51  1  0  0  0  0
 23 52  1  0  0  0  0
 23 53  1  0  0  0  0
 23 54  1  0  0  0  0
 24 55  1  0  0  0  0
 24 56  1  0  0  0  0
 24 57  1  0  0  0  0
 25 58  1  0  0  0  0
 25 59  1  0  0  0  0
 25 60  1  0  0  0  0
M  END
> <PUBCHEM_COMPOUND_CID>
11953925

> <PUBCHEM_COMPOUND_CANONICALIZED>
1

> <PUBCHEM_CACTVS_COMPLEXITY>
492

> <PUBCHEM_CACTVS_HBOND_ACCEPTOR>
4

> <PUBCHEM_CACTVS_HBOND_DONOR>
2

> <PUBCHEM_CACTVS_ROTATABLE_BOND>
8

> <PUBCHEM_CACTVS_SUBSKEYS>
AAADcfB4OAAAAAAAAAAAAAAAAAAAAAAAAAAAAAAABIAAAAAAAAAAGgAACAAADVSggAICAAAABgCIAqBSAAAAAAAgAAAACAEAAEgBFBIAIQACUAAEgAALMQOI6PyOAAAAAAAAAAAAAAAAAAAAAAAAAAAAAA==

> <PUBCHEM_IUPAC_OPENEYE_NAME>
(E,6R)-9-[(2S,3R,6E)-3-hydroxy-6-(2-hydroxyethylidene)-2-methyl-oxepan-2-yl]-2,3,6-trimethyl-non-3-en-5-one

> <PUBCHEM_IUPAC_CAS_NAME>
(E,6R)-9-[(2S,3R,6E)-3-hydroxy-6-(2-hydroxyethylidene)-2-methyl-2-oxepanyl]-2,3,6-trimethyl-3-nonen-5-one

> <PUBCHEM_IUPAC_NAME>
(E,6R)-9-[(2S,3R,6E)-3-hydroxy-6-(2-hydroxyethylidene)-2-methyloxepan-2-yl]-2,3,6-trimethylnon-3-en-5-one

> <PUBCHEM_IUPAC_SYSTEMATIC_NAME>
(E,6R)-2,3,6-trimethyl-9-[(2S,3R,6E)-2-methyl-3-oxidanyl-6-(2-oxidanylethylidene)oxepan-2-yl]non-3-en-5-one

> <PUBCHEM_IUPAC_TRADITIONAL_NAME>
(E,6R)-9-[(2S,3R,6E)-3-hydroxy-6-(2-hydroxyethylidene)-2-methyl-oxepan-2-yl]-2,3,6-trimethyl-non-3-en-5-one

> <PUBCHEM_IUPAC_INCHI>
InChI=1S/C21H36O4/c1-15(2)17(4)13-19(23)16(3)7-6-11-21(5)20(24)9-8-18(10-12-22)14-25-21/h10,13,15-16,20,22,24H,6-9,11-12,14H2,1-5H3/b17-13+,18-10+/t16-,20-,21+/m1/s1

> <PUBCHEM_IUPAC_INCHIKEY>
CFWFJIRDZVFKJB-GRZKGYEASA-N

> <PUBCHEM_XLOGP3_AA>
2.9

> <PUBCHEM_EXACT_MASS>
352.26136

> <PUBCHEM_MOLECULAR_FORMULA>
C21H36O4

> <PUBCHEM_MOLECULAR_WEIGHT>
352.50814

> <PUBCHEM_OPENEYE_CAN_SMILES>
CC(C)C(=CC(=O)C(C)CCCC1(C(CCC(=CCO)CO1)O)C)C

> <PUBCHEM_OPENEYE_ISO_SMILES>
C[C@H](CCC[C@]1([C@@H](CC/C(=C\CO)/CO1)O)C)C(=O)/C=C(\C)/C(C)C

> <PUBCHEM_CACTVS_TPSA>
66.8

> <PUBCHEM_MONOISOTOPIC_WEIGHT>
352.26136

> <PUBCHEM_TOTAL_CHARGE>
0

> <PUBCHEM_HEAVY_ATOM_COUNT>
25

> <PUBCHEM_ATOM_DEF_STEREO_COUNT>
3

> <PUBCHEM_ATOM_UDEF_STEREO_COUNT>
0

> <PUBCHEM_BOND_DEF_STEREO_COUNT>
2

> <PUBCHEM_BOND_UDEF_STEREO_COUNT>
0

> <PUBCHEM_ISOTOPIC_ATOM_COUNT>
0

> <PUBCHEM_COMPONENT_COUNT>
1

> <PUBCHEM_CACTVS_TAUTO_COUNT>
8

> <PUBCHEM_COORDINATE_TYPE>
1
5
255

> <PUBCHEM_BONDANNOTATIONS>
15  17  5
6  2  6
5  10  6

$$$$

