11545701
  -OEChem-07051213073D

 49 52  0     1  0  0  0  0  0999 V2000
   -5.7824    0.5064    0.2032 P   0  0  0  0  0  0  0  0  0  0  0  0
    6.1161    1.5810    0.2777 O   0  0  0  0  0  0  0  0  0  0  0  0
   -4.6265   -0.6215    0.3231 O   0  0  0  0  0  0  0  0  0  0  0  0
   -5.8335    0.8528   -1.3759 O   0  0  0  0  0  0  0  0  0  0  0  0
   -7.1392   -0.3457    0.4308 O   0  0  0  0  0  0  0  0  0  0  0  0
   -5.6271    1.6827    1.1228 O   0  0  0  0  0  0  0  0  0  0  0  0
    3.7990    0.7474    0.1454 C   0  0  1  0  0  0  0  0  0  0  0  0
    3.2748   -0.6198   -0.3380 C   0  0  2  0  0  0  0  0  0  0  0  0
    1.8165   -0.8509    0.0568 C   0  0  1  0  0  0  0  0  0  0  0  0
    0.9377    0.2476   -0.6150 C   0  0  2  0  0  0  0  0  0  0  0  0
    5.2582    0.6390   -0.3366 C   0  0  2  0  0  0  0  0  0  0  0  0
    2.9735    1.8439   -0.5387 C   0  0  0  0  0  0  0  0  0  0  0  0
    4.3433   -1.5990    0.1400 C   0  0  0  0  0  0  0  0  0  0  0  0
    1.4642    1.6697   -0.2819 C   0  0  0  0  0  0  0  0  0  0  0  0
    5.6582   -0.8089    0.0086 C   0  0  0  0  0  0  0  0  0  0  0  0
    1.3033   -2.2276   -0.3695 C   0  0  0  0  0  0  0  0  0  0  0  0
    3.7530    0.9552    1.6810 C   0  0  0  0  0  0  0  0  0  0  0  0
   -0.5443    0.0227   -0.3279 C   0  0  0  0  0  0  0  0  0  0  0  0
   -0.1036   -2.4479    0.1780 C   0  0  0  0  0  0  0  0  0  0  0  0
   -1.0233   -1.2640    0.0032 C   0  0  0  0  0  0  0  0  0  0  0  0
   -1.4794    1.0628   -0.4721 C   0  0  0  0  0  0  0  0  0  0  0  0
   -2.3964   -1.4630    0.2315 C   0  0  0  0  0  0  0  0  0  0  0  0
   -2.8419    0.8493   -0.2515 C   0  0  0  0  0  0  0  0  0  0  0  0
   -3.3003   -0.4123    0.1051 C   0  0  0  0  0  0  0  0  0  0  0  0
    3.3145   -0.6412   -1.4402 H   0  0  0  0  0  0  0  0  0  0  0  0
    1.7171   -0.7858    1.1480 H   0  0  0  0  0  0  0  0  0  0  0  0
    1.0361    0.1306   -1.7055 H   0  0  0  0  0  0  0  0  0  0  0  0
    5.3175    0.7863   -1.4225 H   0  0  0  0  0  0  0  0  0  0  0  0
    3.1440    1.8183   -1.6230 H   0  0  0  0  0  0  0  0  0  0  0  0
    3.2925    2.8373   -0.2012 H   0  0  0  0  0  0  0  0  0  0  0  0
    4.3654   -2.5103   -0.4663 H   0  0  0  0  0  0  0  0  0  0  0  0
    4.1786   -1.8973    1.1813 H   0  0  0  0  0  0  0  0  0  0  0  0
    1.2310    1.9164    0.7610 H   0  0  0  0  0  0  0  0  0  0  0  0
    0.9476    2.4178   -0.8943 H   0  0  0  0  0  0  0  0  0  0  0  0
    6.2410   -0.8663    0.9348 H   0  0  0  0  0  0  0  0  0  0  0  0
    6.2851   -1.2249   -0.7880 H   0  0  0  0  0  0  0  0  0  0  0  0
    1.9553   -3.0269    0.0001 H   0  0  0  0  0  0  0  0  0  0  0  0
    1.2944   -2.3035   -1.4645 H   0  0  0  0  0  0  0  0  0  0  0  0
    4.1437    1.9443    1.9478 H   0  0  0  0  0  0  0  0  0  0  0  0
    2.7392    0.8981    2.0856 H   0  0  0  0  0  0  0  0  0  0  0  0
    4.3534    0.2167    2.2215 H   0  0  0  0  0  0  0  0  0  0  0  0
   -0.0386   -2.6669    1.2516 H   0  0  0  0  0  0  0  0  0  0  0  0
   -0.5355   -3.3292   -0.3115 H   0  0  0  0  0  0  0  0  0  0  0  0
    7.0222    1.3853   -0.0157 H   0  0  0  0  0  0  0  0  0  0  0  0
   -1.1687    2.0604   -0.7676 H   0  0  0  0  0  0  0  0  0  0  0  0
   -2.7612   -2.4501    0.5082 H   0  0  0  0  0  0  0  0  0  0  0  0
   -3.5048    1.6978   -0.3786 H   0  0  0  0  0  0  0  0  0  0  0  0
   -6.4281    1.5691   -1.6852 H   0  0  0  0  0  0  0  0  0  0  0  0
   -7.9923    0.1327    0.5054 H   0  0  0  0  0  0  0  0  0  0  0  0
  1  3  1  0  0  0  0
  1  4  1  0  0  0  0
  1  5  1  0  0  0  0
  1  6  2  0  0  0  0
  2 11  1  0  0  0  0
  2 44  1  0  0  0  0
  3 24  1  0  0  0  0
  4 48  1  0  0  0  0
  5 49  1  0  0  0  0
  7  8  1  0  0  0  0
  7 11  1  0  0  0  0
  7 12  1  0  0  0  0
  7 17  1  0  0  0  0
  8  9  1  0  0  0  0
  8 13  1  0  0  0  0
  8 25  1  0  0  0  0
  9 10  1  0  0  0  0
  9 16  1  0  0  0  0
  9 26  1  0  0  0  0
 10 14  1  0  0  0  0
 10 18  1  0  0  0  0
 10 27  1  0  0  0  0
 11 15  1  0  0  0  0
 11 28  1  0  0  0  0
 12 14  1  0  0  0  0
 12 29  1  0  0  0  0
 12 30  1  0  0  0  0
 13 15  1  0  0  0  0
 13 31  1  0  0  0  0
 13 32  1  0  0  0  0
 14 33  1  0  0  0  0
 14 34  1  0  0  0  0
 15 35  1  0  0  0  0
 15 36  1  0  0  0  0
 16 19  1  0  0  0  0
 16 37  1  0  0  0  0
 16 38  1  0  0  0  0
 17 39  1  0  0  0  0
 17 40  1  0  0  0  0
 17 41  1  0  0  0  0
 18 20  2  0  0  0  0
 18 21  1  0  0  0  0
 19 20  1  0  0  0  0
 19 42  1  0  0  0  0
 19 43  1  0  0  0  0
 20 22  1  0  0  0  0
 21 23  2  0  0  0  0
 21 45  1  0  0  0  0
 22 24  2  0  0  0  0
 22 46  1  0  0  0  0
 23 24  1  0  0  0  0
 23 47  1  0  0  0  0
M  END
> <PUBCHEM_COMPOUND_CID>
11545701

> <PUBCHEM_CONFORMER_RMSD>
0.6

> <PUBCHEM_CONFORMER_DIVERSEORDER>
1
2
4
3

> <PUBCHEM_MMFF94_PARTIAL_CHARGES>
21
1 1.51
10 0.14
11 0.28
18 -0.14
19 0.14
2 -0.68
20 -0.14
21 -0.15
22 -0.15
23 -0.15
24 0.08
3 -0.35
4 -0.77
44 0.4
45 0.15
46 0.15
47 0.15
48 0.5
49 0.5
5 -0.77
6 -0.7

> <PUBCHEM_EFFECTIVE_ROTOR_COUNT>
3.4

> <PUBCHEM_PHARMACOPHORE_FEATURES>
10
1 2 acceptor
1 2 donor
1 4 acceptor
1 5 acceptor
1 6 acceptor
4 1 4 5 6 anion
5 7 8 11 13 15 rings
6 18 20 21 22 23 24 rings
6 7 8 9 10 12 14 rings
6 9 10 16 18 19 20 rings

> <PUBCHEM_HEAVY_ATOM_COUNT>
24

> <PUBCHEM_ATOM_DEF_STEREO_COUNT>
5

> <PUBCHEM_ATOM_UDEF_STEREO_COUNT>
0

> <PUBCHEM_BOND_DEF_STEREO_COUNT>
0

> <PUBCHEM_BOND_UDEF_STEREO_COUNT>
0

> <PUBCHEM_ISOTOPIC_ATOM_COUNT>
0

> <PUBCHEM_COMPONENT_COUNT>
1

> <PUBCHEM_CACTVS_TAUTO_COUNT>
1

> <PUBCHEM_CONFORMER_ID>
00B02C6500000001

> <PUBCHEM_MMFF94_ENERGY>
45.17

> <PUBCHEM_FEATURE_SELFOVERLAP>
50.878

> <PUBCHEM_SHAPE_FINGERPRINT>
10 15 18131355168316692728
10411042 1 17906169912908397470
10906281 52 18269536330127028230
11089746 13 17603589629427191153
11646440 116 18260260837535707097
12011746 2 18410851071357524238
12166972 35 18186801366119831553
12236239 1 17894631469827766919
12403259 415 18271531982655374348
12788726 201 17749378287549934160
12838862 33 18339379486847187900
13140716 1 18198339563509904530
13167372 99 18260824955556617897
13402501 40 18342176678249678005
13533116 47 17895193346245410694
13785724 45 17833549372916584050
14251764 18 18342457015038780661
14341114 176 18413666920235195224
14464042 87 17967525804936181249
14790565 3 18411974754481318069
14849402 71 18261669268944818073
15142383 8 16702313368170172564
15196674 1 18411981325796923230
1813 80 16845854598829329012
19141452 34 18411700945957803934
200 152 18114184142327430135
21033648 29 18337125513379312920
21130935 74 18409447003008555923
21236236 1 18337954485634415543
21267235 1 18340483469852345726
21279426 13 18268994369794885813
21421861 104 17845670226361129410
22182313 1 17916029143131218351
22224240 67 18411703158103182147
23402539 116 18334018263622706335
23559900 14 18409166593552219854
2838139 119 17894916239250381801
3004659 81 18273213128045805430
335352 9 18411697686636750214
34797466 226 16226043358480409269
350125 39 18412823594606129892
3545911 37 18410292510222252335
3680242 22 18271806868983370002
38695281 34 18260547840199059887
4073 2 18059286569992401570
42630746 31 18334853943746573247
4325135 7 18334016073949241999
4340502 62 18408600362275744823
465052 167 17703787028976195746
474 4 18411696578149864203
495365 180 17458636575516772418
5104073 3 18341894056495516490
5385378 56 18338513148566676603
542803 24 17458346351338056829
9999458 23 17846495916300848974

> <PUBCHEM_SHAPE_MULTIPOLES>
468.41
14.98
2.1
0.91
13.83
0.55
0.15
-4.27
1.77
-0.99
0.02
0.08
-0.26
0.21

> <PUBCHEM_SHAPE_SELFOVERLAP>
997.139

> <PUBCHEM_SHAPE_VOLUME>
263.4

> <PUBCHEM_COORDINATE_TYPE>
2
5
10

$$$$

