9543290
  -OEChem-07051213113D

 31 34  0     0  0  0  0  0  0999 V2000
   -3.8951   -0.5404    0.4386 S   0  0  0  0  0  0  0  0  0  0  0  0
   -2.9679   -0.0580   -0.8278 O   0  0  0  0  0  0  0  0  0  0  0  0
   -5.1274   -1.3492   -0.2628 O   0  0  0  0  0  0  0  0  0  0  0  0
   -3.1430   -1.4847    1.2445 O   0  0  0  0  0  0  0  0  0  0  0  0
   -4.4523    0.6516    1.0512 O   0  0  0  0  0  0  0  0  0  0  0  0
    0.6177    0.5331   -0.1741 C   0  0  0  0  0  0  0  0  0  0  0  0
    1.8305   -0.1855   -0.0314 C   0  0  0  0  0  0  0  0  0  0  0  0
   -0.5876   -0.1593   -0.4356 C   0  0  0  0  0  0  0  0  0  0  0  0
    0.6128    1.9424   -0.0549 C   0  0  0  0  0  0  0  0  0  0  0  0
    1.8354   -1.5949   -0.1506 C   0  0  0  0  0  0  0  0  0  0  0  0
    3.0358    0.5068    0.2302 C   0  0  0  0  0  0  0  0  0  0  0  0
   -1.7799    0.5663   -0.5743 C   0  0  0  0  0  0  0  0  0  0  0  0
   -0.5635   -1.5557   -0.5505 C   0  0  0  0  0  0  0  0  0  0  0  0
    0.6317   -2.2638   -0.4099 C   0  0  0  0  0  0  0  0  0  0  0  0
    1.8165    2.6114    0.2044 C   0  0  0  0  0  0  0  0  0  0  0  0
    3.0117    1.9033    0.3451 C   0  0  0  0  0  0  0  0  0  0  0  0
   -0.5959    2.6393   -0.1987 C   0  0  0  0  0  0  0  0  0  0  0  0
    3.0440   -2.2917   -0.0067 C   0  0  0  0  0  0  0  0  0  0  0  0
    4.2280   -0.2187    0.3687 C   0  0  0  0  0  0  0  0  0  0  0  0
   -1.7825    1.9552   -0.4564 C   0  0  0  0  0  0  0  0  0  0  0  0
    4.2308   -1.6076    0.2510 C   0  0  0  0  0  0  0  0  0  0  0  0
   -1.4640   -2.1236   -0.7715 H   0  0  0  0  0  0  0  0  0  0  0  0
    0.6120   -3.3473   -0.5100 H   0  0  0  0  0  0  0  0  0  0  0  0
    1.8372    3.6952    0.3002 H   0  0  0  0  0  0  0  0  0  0  0  0
    3.9265    2.4573    0.5460 H   0  0  0  0  0  0  0  0  0  0  0  0
   -0.6237    3.7234   -0.1117 H   0  0  0  0  0  0  0  0  0  0  0  0
    3.0721   -3.3758   -0.0943 H   0  0  0  0  0  0  0  0  0  0  0  0
    5.1672    0.2924    0.5701 H   0  0  0  0  0  0  0  0  0  0  0  0
   -2.7076    2.5149   -0.5674 H   0  0  0  0  0  0  0  0  0  0  0  0
    5.1606   -2.1585    0.3604 H   0  0  0  0  0  0  0  0  0  0  0  0
   -5.5422   -0.8973   -1.0348 H   0  0  0  0  0  0  0  0  0  0  0  0
  1  2  1  0  0  0  0
  1  3  1  0  0  0  0
  1  4  2  0  0  0  0
  1  5  2  0  0  0  0
  2 12  1  0  0  0  0
  3 31  1  0  0  0  0
  6  7  1  0  0  0  0
  6  8  1  0  0  0  0
  6  9  2  0  0  0  0
  7 10  1  0  0  0  0
  7 11  2  0  0  0  0
  8 12  2  0  0  0  0
  8 13  1  0  0  0  0
  9 15  1  0  0  0  0
  9 17  1  0  0  0  0
 10 14  1  0  0  0  0
 10 18  2  0  0  0  0
 11 16  1  0  0  0  0
 11 19  1  0  0  0  0
 12 20  1  0  0  0  0
 13 14  2  0  0  0  0
 13 22  1  0  0  0  0
 14 23  1  0  0  0  0
 15 16  2  0  0  0  0
 15 24  1  0  0  0  0
 16 25  1  0  0  0  0
 17 20  2  0  0  0  0
 17 26  1  0  0  0  0
 18 21  1  0  0  0  0
 18 27  1  0  0  0  0
 19 21  2  0  0  0  0
 19 28  1  0  0  0  0
 20 29  1  0  0  0  0
 21 30  1  0  0  0  0
M  END
> <PUBCHEM_COMPOUND_CID>
9543290

> <PUBCHEM_CONFORMER_RMSD>
0.6

> <PUBCHEM_CONFORMER_DIVERSEORDER>
1
2
3
4

> <PUBCHEM_MMFF94_PARTIAL_CHARGES>
25
1 1.67
12 0.08
13 -0.15
14 -0.15
15 -0.15
16 -0.15
17 -0.15
18 -0.15
19 -0.15
2 -0.27
20 -0.15
21 -0.15
22 0.15
23 0.15
24 0.15
25 0.15
26 0.15
27 0.15
28 0.15
29 0.15
3 -0.68
30 0.15
31 0.5
4 -0.65
5 -0.65

> <PUBCHEM_EFFECTIVE_ROTOR_COUNT>
2

> <PUBCHEM_PHARMACOPHORE_FEATURES>
8
1 3 acceptor
1 4 acceptor
1 5 acceptor
4 1 3 4 5 anion
6 6 7 8 10 13 14 rings
6 6 7 9 11 15 16 rings
6 6 8 9 12 17 20 rings
6 7 10 11 18 19 21 rings

> <PUBCHEM_HEAVY_ATOM_COUNT>
21

> <PUBCHEM_ATOM_DEF_STEREO_COUNT>
0

> <PUBCHEM_ATOM_UDEF_STEREO_COUNT>
0

> <PUBCHEM_BOND_DEF_STEREO_COUNT>
0

> <PUBCHEM_BOND_UDEF_STEREO_COUNT>
0

> <PUBCHEM_ISOTOPIC_ATOM_COUNT>
0

> <PUBCHEM_COMPONENT_COUNT>
1

> <PUBCHEM_CACTVS_TAUTO_COUNT>
1

> <PUBCHEM_CONFORMER_ID>
00919E7A00000001

> <PUBCHEM_MMFF94_ENERGY>
66.1733

> <PUBCHEM_FEATURE_SELFOVERLAP>
40.786

> <PUBCHEM_SHAPE_FINGERPRINT>
10366900 7 18202275909685119842
10411042 1 18265616666128160518
10493431 412 17975697190870938160
10967382 1 18337680715554194660
1100329 8 18049162164414460160
12236239 1 17603871070656002359
12403259 226 18339650052448418916
12553582 1 18336275591228184438
12633257 1 18340194276428839235
13140716 1 18121508951379159248
13544653 18 18272367585791186807
13583140 156 17058401169850994412
14178342 30 18119535589948020280
14223421 5 18411704321838839788
14787075 74 18202276996601891906
14790565 3 17692521226738601812
15042514 8 17834678571473659394
15196674 1 18338240474336281036
15475509 84 17969771055262792393
16945 1 18337122180816597676
17357779 13 18270978906995186629
1813 80 17418085529610846429
19591789 44 18409731789647215926
20028762 73 18114188492882499175
20261772 1 18260553307349113750
20645477 70 18269851855968536541
20739085 24 18340473517543040045
21029758 27 18341328976697297220
21041028 32 18261671579336074873
21197605 99 17906445525091134555
21267235 1 18410008875626396342
221490 88 18340206383857120044
22182313 1 18268450038815330012
23184049 59 18334856095450977967
2334 1 17761503491232307908
23559900 14 18273500082493417996
2748010 2 18192162700944046620
335352 9 18193842771506243797
350125 39 18410009953441738916
5104073 3 18192441981466646314
5283173 99 18058183880874686821
8809292 202 18198623430799262257
9709674 26 17975700806921684614

> <PUBCHEM_SHAPE_MULTIPOLES>
412.54
7.86
2.97
0.82
5.08
0.85
-0.08
-3.18
-1.79
-1.18
0.07
0.47
-0.08
0.34

> <PUBCHEM_SHAPE_SELFOVERLAP>
936.36

> <PUBCHEM_SHAPE_VOLUME>
216.6

> <PUBCHEM_COORDINATE_TYPE>
2
5
10

$$$$

