5280606
  -OEChem-07051212482D

 68 67  0     1  0  0  0  0  0999 V2000
    7.7331    1.7500    0.0000 S   0  0  0  0  0  0  0  0  0  0  0  0
    6.8671    4.2500    0.0000 O   0  0  0  0  0  0  0  0  0  0  0  0
    2.5369    2.7500    0.0000 O   0  0  0  0  0  0  0  0  0  0  0  0
    3.4030    4.2500    0.0000 O   0  0  0  0  0  0  0  0  0  0  0  0
   11.1972   -4.2500    0.0000 O   0  0  0  0  0  0  0  0  0  0  0  0
    6.0010   -1.2500    0.0000 O   0  0  0  0  0  0  0  0  0  0  0  0
    5.1350    0.2500    0.0000 O   0  0  0  0  0  0  0  0  0  0  0  0
    7.7331   -0.2500    0.0000 N   0  0  0  0  0  0  0  0  0  0  0  0
    6.8671    3.2500    0.0000 C   0  0  1  0  0  0  0  0  0  0  0  0
    6.0010    2.7500    0.0000 C   0  0  0  0  0  0  0  0  0  0  0  0
    7.7331    2.7500    0.0000 C   0  0  1  0  0  0  0  0  0  0  0  0
    5.1350    3.2500    0.0000 C   0  0  0  0  0  0  0  0  0  0  0  0
    4.2690    2.7500    0.0000 C   0  0  0  0  0  0  0  0  0  0  0  0
    8.5991    3.2500    0.0000 C   0  0  0  0  0  0  0  0  0  0  0  0
    6.8671    1.2500    0.0000 C   0  0  0  0  0  0  0  0  0  0  0  0
    6.8671    0.2500    0.0000 C   0  0  1  0  0  0  0  0  0  0  0  0
   12.0632   -1.7500    0.0000 C   0  0  0  0  0  0  0  0  0  0  0  0
   12.9292   -1.2500    0.0000 C   0  0  0  0  0  0  0  0  0  0  0  0
   12.0632   -2.7500    0.0000 C   0  0  0  0  0  0  0  0  0  0  0  0
    9.4651    2.7500    0.0000 C   0  0  0  0  0  0  0  0  0  0  0  0
   12.9292   -0.2500    0.0000 C   0  0  0  0  0  0  0  0  0  0  0  0
    3.4030    3.2500    0.0000 C   0  0  0  0  0  0  0  0  0  0  0  0
   11.1972   -3.2500    0.0000 C   0  0  0  0  0  0  0  0  0  0  0  0
    6.0010   -0.2500    0.0000 C   0  0  0  0  0  0  0  0  0  0  0  0
   13.7953    0.2500    0.0000 C   0  0  0  0  0  0  0  0  0  0  0  0
   10.3312    3.2500    0.0000 C   0  0  0  0  0  0  0  0  0  0  0  0
   13.7953    1.2500    0.0000 C   0  0  0  0  0  0  0  0  0  0  0  0
   12.9292    1.7500    0.0000 C   0  0  0  0  0  0  0  0  0  0  0  0
   11.1972    2.7500    0.0000 C   0  0  0  0  0  0  0  0  0  0  0  0
   12.9292    2.7500    0.0000 C   0  0  0  0  0  0  0  0  0  0  0  0
   12.0632    3.2500    0.0000 C   0  0  0  0  0  0  0  0  0  0  0  0
    6.3301    3.5600    0.0000 H   0  0  0  0  0  0  0  0  0  0  0  0
    5.6025    2.2750    0.0000 H   0  0  0  0  0  0  0  0  0  0  0  0
    6.3996    2.2750    0.0000 H   0  0  0  0  0  0  0  0  0  0  0  0
    8.2700    2.4400    0.0000 H   0  0  0  0  0  0  0  0  0  0  0  0
    5.5335    3.7250    0.0000 H   0  0  0  0  0  0  0  0  0  0  0  0
    4.7365    3.7250    0.0000 H   0  0  0  0  0  0  0  0  0  0  0  0
    3.8705    2.2750    0.0000 H   0  0  0  0  0  0  0  0  0  0  0  0
    4.6675    2.2750    0.0000 H   0  0  0  0  0  0  0  0  0  0  0  0
    8.5991    3.8700    0.0000 H   0  0  0  0  0  0  0  0  0  0  0  0
    6.6550    1.8326    0.0000 H   0  0  0  0  0  0  0  0  0  0  0  0
    6.2565    1.1423    0.0000 H   0  0  0  0  0  0  0  0  0  0  0  0
    6.3301    4.5600    0.0000 H   0  0  0  0  0  0  0  0  0  0  0  0
    7.4040    0.5600    0.0000 H   0  0  0  0  0  0  0  0  0  0  0  0
   11.8512   -1.1674    0.0000 H   0  0  0  0  0  0  0  0  0  0  0  0
   11.4526   -1.8577    0.0000 H   0  0  0  0  0  0  0  0  0  0  0  0
   13.1413   -1.8326    0.0000 H   0  0  0  0  0  0  0  0  0  0  0  0
   13.5398   -1.1423    0.0000 H   0  0  0  0  0  0  0  0  0  0  0  0
   12.2753   -3.3326    0.0000 H   0  0  0  0  0  0  0  0  0  0  0  0
   12.6738   -2.6423    0.0000 H   0  0  0  0  0  0  0  0  0  0  0  0
   12.7172    0.3326    0.0000 H   0  0  0  0  0  0  0  0  0  0  0  0
   12.3187   -0.3577    0.0000 H   0  0  0  0  0  0  0  0  0  0  0  0
    9.4651    2.1300    0.0000 H   0  0  0  0  0  0  0  0  0  0  0  0
   10.9851   -2.6674    0.0000 H   0  0  0  0  0  0  0  0  0  0  0  0
   10.5866   -3.3577    0.0000 H   0  0  0  0  0  0  0  0  0  0  0  0
   14.3322   -0.0600    0.0000 H   0  0  0  0  0  0  0  0  0  0  0  0
    7.7331   -0.8700    0.0000 H   0  0  0  0  0  0  0  0  0  0  0  0
    8.2700    0.0600    0.0000 H   0  0  0  0  0  0  0  0  0  0  0  0
   10.3312    3.8700    0.0000 H   0  0  0  0  0  0  0  0  0  0  0  0
   14.3322    1.5600    0.0000 H   0  0  0  0  0  0  0  0  0  0  0  0
   12.3187    1.8577    0.0000 H   0  0  0  0  0  0  0  0  0  0  0  0
   12.7172    1.1674    0.0000 H   0  0  0  0  0  0  0  0  0  0  0  0
   11.1972    2.1300    0.0000 H   0  0  0  0  0  0  0  0  0  0  0  0
    2.0000    3.0600    0.0000 H   0  0  0  0  0  0  0  0  0  0  0  0
   13.4662    3.0600    0.0000 H   0  0  0  0  0  0  0  0  0  0  0  0
   12.0632    3.8700    0.0000 H   0  0  0  0  0  0  0  0  0  0  0  0
   10.6603   -4.5600    0.0000 H   0  0  0  0  0  0  0  0  0  0  0  0
    5.4641   -1.5600    0.0000 H   0  0  0  0  0  0  0  0  0  0  0  0
  1 11  1  0  0  0  0
  1 15  1  0  0  0  0
  9  2  1  6  0  0  0
  2 43  1  0  0  0  0
  3 22  1  0  0  0  0
  3 64  1  0  0  0  0
  4 22  2  0  0  0  0
  5 23  1  0  0  0  0
  5 67  1  0  0  0  0
  6 24  1  0  0  0  0
  6 68  1  0  0  0  0
  7 24  2  0  0  0  0
 16  8  1  6  0  0  0
  8 57  1  0  0  0  0
  8 58  1  0  0  0  0
  9 10  1  0  0  0  0
  9 11  1  0  0  0  0
  9 32  1  0  0  0  0
 10 12  1  0  0  0  0
 10 33  1  0  0  0  0
 10 34  1  0  0  0  0
 11 14  1  1  0  0  0
 11 35  1  0  0  0  0
 12 13  1  0  0  0  0
 12 36  1  0  0  0  0
 12 37  1  0  0  0  0
 13 22  1  0  0  0  0
 13 38  1  0  0  0  0
 13 39  1  0  0  0  0
 14 20  2  0  0  0  0
 14 40  1  0  0  0  0
 15 16  1  0  0  0  0
 15 41  1  0  0  0  0
 15 42  1  0  0  0  0
 16 24  1  0  0  0  0
 16 44  1  0  0  0  0
 17 18  1  0  0  0  0
 17 19  1  0  0  0  0
 17 45  1  0  0  0  0
 17 46  1  0  0  0  0
 18 21  1  0  0  0  0
 18 47  1  0  0  0  0
 18 48  1  0  0  0  0
 19 23  1  0  0  0  0
 19 49  1  0  0  0  0
 19 50  1  0  0  0  0
 20 26  1  0  0  0  0
 20 53  1  0  0  0  0
 21 25  1  0  0  0  0
 21 51  1  0  0  0  0
 21 52  1  0  0  0  0
 23 54  1  0  0  0  0
 23 55  1  0  0  0  0
 25 27  2  0  0  0  0
 25 56  1  0  0  0  0
 26 29  2  0  0  0  0
 26 59  1  0  0  0  0
 27 28  1  0  0  0  0
 27 60  1  0  0  0  0
 28 30  1  0  0  0  0
 28 61  1  0  0  0  0
 28 62  1  0  0  0  0
 29 31  1  0  0  0  0
 29 63  1  0  0  0  0
 30 31  2  0  0  0  0
 30 65  1  0  0  0  0
 31 66  1  0  0  0  0
M  END
> <PUBCHEM_COMPOUND_CID>
5280606

> <PUBCHEM_COMPOUND_CANONICALIZED>
1

> <PUBCHEM_CACTVS_COMPLEXITY>
603

> <PUBCHEM_CACTVS_HBOND_ACCEPTOR>
8

> <PUBCHEM_CACTVS_HBOND_DONOR>
5

> <PUBCHEM_CACTVS_ROTATABLE_BOND>
19

> <PUBCHEM_CACTVS_SUBSKEYS>
AAADcfB6OABAAAAAAAAAAAAAAAAAAAAAAAAAAAAAAAAAAAAAAAAAHgQQCAAACDzlwAaACABAAgiIACDSCAAAAAAgABAICIGAAAgKEBIgAQAAQAAE0AAogAOI7CTAAAAAAAAAAAAAAAAAAAAAAAAAAAAAAA==

> <PUBCHEM_IUPAC_OPENEYE_NAME>
(5S,6R,7E,9E,11Z,14Z)-6-[(2R)-2-amino-2-carboxy-ethyl]sulfanyl-5,20-dihydroxy-icosa-7,9,11,14-tetraenoic acid

> <PUBCHEM_IUPAC_CAS_NAME>
(5S,6R,7E,9E,11Z,14Z)-6-[[(2R)-2-amino-2-carboxyethyl]thio]-5,20-dihydroxyeicosa-7,9,11,14-tetraenoic acid

> <PUBCHEM_IUPAC_NAME>
(5S,6R,7E,9E,11Z,14Z)-6-[(2R)-2-amino-2-carboxyethyl]sulfanyl-5,20-dihydroxyicosa-7,9,11,14-tetraenoic acid

> <PUBCHEM_IUPAC_SYSTEMATIC_NAME>
(5S,6R,7E,9E,11Z,14Z)-6-[(2R)-2-azanyl-3-oxidanyl-3-oxidanylidene-propyl]sulfanyl-5,20-bis(oxidanyl)icosa-7,9,11,14-tetraenoic acid

> <PUBCHEM_IUPAC_TRADITIONAL_NAME>
(5S,6R,7E,9E,11Z,14Z)-6-[[(2R)-2-amino-2-carboxy-ethyl]thio]-5,20-dihydroxy-eicosa-7,9,11,14-tetraenoic acid

> <PUBCHEM_IUPAC_INCHI>
InChI=1S/C23H37NO6S/c24-19(23(29)30)18-31-21(20(26)14-13-16-22(27)28)15-11-9-7-5-3-1-2-4-6-8-10-12-17-25/h2-5,7,9,11,15,19-21,25-26H,1,6,8,10,12-14,16-18,24H2,(H,27,28)(H,29,30)/b4-2-,5-3-,9-7+,15-11+/t19-,20-,21+/m0/s1

> <PUBCHEM_IUPAC_INCHIKEY>
BJRMBXPQAMDCMG-CMJQBAFXSA-N

> <PUBCHEM_XLOGP3_AA>
0.5

> <PUBCHEM_EXACT_MASS>
455.234159

> <PUBCHEM_MOLECULAR_FORMULA>
C23H37NO6S

> <PUBCHEM_MOLECULAR_WEIGHT>
455.60798

> <PUBCHEM_OPENEYE_CAN_SMILES>
C(CCC=CCC=CC=CC=CC(C(CCCC(=O)O)O)SCC(C(=O)O)N)CCO

> <PUBCHEM_OPENEYE_ISO_SMILES>
C(CC/C=C\C/C=C\C=C\C=C\[C@H]([C@H](CCCC(=O)O)O)SC[C@@H](C(=O)O)N)CCO

> <PUBCHEM_CACTVS_TPSA>
166

> <PUBCHEM_MONOISOTOPIC_WEIGHT>
455.234159

> <PUBCHEM_TOTAL_CHARGE>
0

> <PUBCHEM_HEAVY_ATOM_COUNT>
31

> <PUBCHEM_ATOM_DEF_STEREO_COUNT>
3

> <PUBCHEM_ATOM_UDEF_STEREO_COUNT>
0

> <PUBCHEM_BOND_DEF_STEREO_COUNT>
4

> <PUBCHEM_BOND_UDEF_STEREO_COUNT>
0

> <PUBCHEM_ISOTOPIC_ATOM_COUNT>
0

> <PUBCHEM_COMPONENT_COUNT>
1

> <PUBCHEM_CACTVS_TAUTO_COUNT>
1

> <PUBCHEM_COORDINATE_TYPE>
1
5
255

> <PUBCHEM_BONDANNOTATIONS>
11  14  5
9  2  6
16  8  6

$$$$

