441018
  -OEChem-07051212512D

 45 46  0     1  0  0  0  0  0999 V2000
    6.8909   -2.4172    0.0000 P   0  0  3  0  0  0  0  0  0  0  0  0
    5.0298    0.0474    0.0000 O   0  0  0  0  0  0  0  0  0  0  0  0
    3.1330   -1.7127    0.0000 O   0  0  0  0  0  0  0  0  0  0  0  0
    2.4608    0.3564    0.0000 O   0  0  0  0  0  0  0  0  0  0  0  0
    6.3031   -1.6082    0.0000 O   0  0  0  0  0  0  0  0  0  0  0  0
    2.4888    1.6352    0.0000 O   0  0  0  0  0  0  0  0  0  0  0  0
    7.4787   -3.2262    0.0000 O   0  0  0  0  0  0  0  0  0  0  0  0
    7.6999   -1.8294    0.0000 O   0  0  0  0  0  0  0  0  0  0  0  0
    6.0819   -3.0050    0.0000 O   0  0  0  0  0  0  0  0  0  0  0  0
    4.2208    4.6352    0.0000 O   0  0  0  0  0  0  0  0  0  0  0  0
    8.8800   -2.2081    0.0000 O   0  0  0  0  0  0  0  0  0  0  0  0
    4.2208    1.6352    0.0000 N   0  0  0  0  0  0  0  0  0  0  0  0
    3.3548    3.1352    0.0000 N   0  0  0  0  0  0  0  0  0  0  0  0
    3.7208   -0.9037    0.0000 C   0  0  1  0  0  0  0  0  0  0  0  0
    3.4118    0.0474    0.0000 C   0  0  2  0  0  0  0  0  0  0  0  0
    4.7208   -0.9037    0.0000 C   0  0  1  0  0  0  0  0  0  0  0  0
    4.2208    0.6352    0.0000 C   0  0  1  0  0  0  0  0  0  0  0  0
    5.3086   -1.7127    0.0000 C   0  0  0  0  0  0  0  0  0  0  0  0
    3.3548    2.1352    0.0000 C   0  0  0  0  0  0  0  0  0  0  0  0
    5.0868    2.1352    0.0000 C   0  0  0  0  0  0  0  0  0  0  0  0
    5.0868    3.1352    0.0000 C   0  0  0  0  0  0  0  0  0  0  0  0
    4.2208    3.6352    0.0000 C   0  0  0  0  0  0  0  0  0  0  0  0
    8.4732   -3.1217    0.0000 C   0  0  0  0  0  0  0  0  0  0  0  0
    9.0610   -3.9307    0.0000 C   0  0  0  0  0  0  0  0  0  0  0  0
   10.0555   -3.8262    0.0000 C   0  0  0  0  0  0  0  0  0  0  0  0
   10.6433   -4.6352    0.0000 C   0  0  0  0  0  0  0  0  0  0  0  0
    3.1085   -0.8067    0.0000 H   0  0  0  0  0  0  0  0  0  0  0  0
    2.9734   -0.3910    0.0000 H   0  0  0  0  0  0  0  0  0  0  0  0
    5.3332   -0.8067    0.0000 H   0  0  0  0  0  0  0  0  0  0  0  0
    3.6684    0.9166    0.0000 H   0  0  0  0  0  0  0  0  0  0  0  0
    4.7514   -1.9845    0.0000 H   0  0  0  0  0  0  0  0  0  0  0  0
    5.4795   -2.3087    0.0000 H   0  0  0  0  0  0  0  0  0  0  0  0
    3.3852   -2.2791    0.0000 H   0  0  0  0  0  0  0  0  0  0  0  0
    2.0000   -0.0585    0.0000 H   0  0  0  0  0  0  0  0  0  0  0  0
    5.6238    1.8252    0.0000 H   0  0  0  0  0  0  0  0  0  0  0  0
    2.8179    3.4452    0.0000 H   0  0  0  0  0  0  0  0  0  0  0  0
    5.6238    3.4452    0.0000 H   0  0  0  0  0  0  0  0  0  0  0  0
    7.6351   -1.2128    0.0000 H   0  0  0  0  0  0  0  0  0  0  0  0
    8.5038   -4.2025    0.0000 H   0  0  0  0  0  0  0  0  0  0  0  0
    9.2319   -4.5267    0.0000 H   0  0  0  0  0  0  0  0  0  0  0  0
   10.6128   -3.5544    0.0000 H   0  0  0  0  0  0  0  0  0  0  0  0
    9.8846   -3.2302    0.0000 H   0  0  0  0  0  0  0  0  0  0  0  0
   10.1417   -4.9996    0.0000 H   0  0  0  0  0  0  0  0  0  0  0  0
   11.0077   -5.1368    0.0000 H   0  0  0  0  0  0  0  0  0  0  0  0
   11.1449   -4.2707    0.0000 H   0  0  0  0  0  0  0  0  0  0  0  0
  1  5  1  0  0  0  0
  1  7  1  0  0  0  0
  1  8  1  0  0  0  0
  1  9  2  0  0  0  0
  2 16  1  0  0  0  0
  2 17  1  0  0  0  0
 14  3  1  1  0  0  0
  3 33  1  0  0  0  0
 15  4  1  1  0  0  0
  4 34  1  0  0  0  0
  5 18  1  0  0  0  0
  6 19  2  0  0  0  0
  7 23  1  0  0  0  0
  8 38  1  0  0  0  0
 10 22  2  0  0  0  0
 11 23  2  0  0  0  0
 17 12  1  6  0  0  0
 12 19  1  0  0  0  0
 12 20  1  0  0  0  0
 13 19  1  0  0  0  0
 13 22  1  0  0  0  0
 13 36  1  0  0  0  0
 14 15  1  0  0  0  0
 14 16  1  0  0  0  0
 14 27  1  0  0  0  0
 15 17  1  0  0  0  0
 15 28  1  0  0  0  0
 16 18  1  6  0  0  0
 16 29  1  0  0  0  0
 17 30  1  0  0  0  0
 18 31  1  0  0  0  0
 18 32  1  0  0  0  0
 20 21  2  0  0  0  0
 20 35  1  0  0  0  0
 21 22  1  0  0  0  0
 21 37  1  0  0  0  0
 23 24  1  0  0  0  0
 24 25  1  0  0  0  0
 24 39  1  0  0  0  0
 24 40  1  0  0  0  0
 25 26  1  0  0  0  0
 25 41  1  0  0  0  0
 25 42  1  0  0  0  0
 26 43  1  0  0  0  0
 26 44  1  0  0  0  0
 26 45  1  0  0  0  0
M  END
> <PUBCHEM_COMPOUND_CID>
441018

> <PUBCHEM_COMPOUND_CANONICALIZED>
1

> <PUBCHEM_CACTVS_COMPLEXITY>
653

> <PUBCHEM_CACTVS_HBOND_ACCEPTOR>
10

> <PUBCHEM_CACTVS_HBOND_DONOR>
4

> <PUBCHEM_CACTVS_ROTATABLE_BOND>
8

> <PUBCHEM_CACTVS_SUBSKEYS>
AAADceBzPAIAAAAAAAAAAAAAAAAAASAAAAAgAAAAAAAAAAAAAAAAHgAQCCAACBThgAYDCAPABxCIQCHWWICAAAAAAgAIAAEIAECDEBIAgAAOQAAPFyITAMDwMAIAAAAAAAAAAAAAAAAAAAAAAAAAAAAAAA==

> <PUBCHEM_IUPAC_OPENEYE_NAME>
[[(2R,3S,4R,5R)-5-(2,4-dioxopyrimidin-1-yl)-3,4-dihydroxy-tetrahydrofuran-2-yl]methoxy-hydroxy-phosphoryl] butanoate

> <PUBCHEM_IUPAC_CAS_NAME>
butanoic acid [[(2R,3S,4R,5R)-5-(2,4-dioxo-1-pyrimidinyl)-3,4-dihydroxy-2-oxolanyl]methoxy-hydroxyphosphoryl] ester

> <PUBCHEM_IUPAC_NAME>
[[(2R,3S,4R,5R)-5-(2,4-dioxopyrimidin-1-yl)-3,4-dihydroxyoxolan-2-yl]methoxy-hydroxyphosphoryl] butanoate

> <PUBCHEM_IUPAC_SYSTEMATIC_NAME>
[[(2R,3S,4R,5R)-5-[2,4-bis(oxidanylidene)pyrimidin-1-yl]-3,4-bis(oxidanyl)oxolan-2-yl]methoxy-oxidanyl-phosphoryl] butanoate

> <PUBCHEM_IUPAC_TRADITIONAL_NAME>
butyric acid [[(2R,3S,4R,5R)-5-(2,4-diketopyrimidin-1-yl)-3,4-dihydroxy-tetrahydrofuran-2-yl]methoxy-hydroxy-phosphoryl] ester

> <PUBCHEM_IUPAC_INCHI>
InChI=1S/C13H19N2O10P/c1-2-3-9(17)25-26(21,22)23-6-7-10(18)11(19)12(24-7)15-5-4-8(16)14-13(15)20/h4-5,7,10-12,18-19H,2-3,6H2,1H3,(H,21,22)(H,14,16,20)/t7-,10-,11-,12-/m1/s1

> <PUBCHEM_IUPAC_INCHIKEY>
LMOXEPLBUSTKOV-FAQVLOEFSA-N

> <PUBCHEM_XLOGP3>
-2.2

> <PUBCHEM_EXACT_MASS>
394.077731

> <PUBCHEM_MOLECULAR_FORMULA>
C13H19N2O10P

> <PUBCHEM_MOLECULAR_WEIGHT>
394.271122

> <PUBCHEM_OPENEYE_CAN_SMILES>
CCCC(=O)OP(=O)(O)OCC1C(C(C(O1)N2C=CC(=O)NC2=O)O)O

> <PUBCHEM_OPENEYE_ISO_SMILES>
CCCC(=O)OP(=O)(O)OC[C@@H]1[C@H]([C@H]([C@@H](O1)N2C=CC(=O)NC2=O)O)O

> <PUBCHEM_CACTVS_TPSA>
172

> <PUBCHEM_MONOISOTOPIC_WEIGHT>
394.077731

> <PUBCHEM_TOTAL_CHARGE>
0

> <PUBCHEM_HEAVY_ATOM_COUNT>
26

> <PUBCHEM_ATOM_DEF_STEREO_COUNT>
4

> <PUBCHEM_ATOM_UDEF_STEREO_COUNT>
0

> <PUBCHEM_BOND_DEF_STEREO_COUNT>
0

> <PUBCHEM_BOND_UDEF_STEREO_COUNT>
0

> <PUBCHEM_ISOTOPIC_ATOM_COUNT>
0

> <PUBCHEM_COMPONENT_COUNT>
1

> <PUBCHEM_CACTVS_TAUTO_COUNT>
3

> <PUBCHEM_COORDINATE_TYPE>
1
5
255

> <PUBCHEM_BONDANNOTATIONS>
17  12  6
12  19  8
12  20  8
13  19  8
13  22  8
16  18  6
20  21  8
21  22  8
14  3  5
15  4  5

$$$$

