13739
  -OEChem-06241222403D

 32 32  0     0  0  0  0  0  0999 V2000
    3.5844   -0.0957    0.1306 O   0  0  0  0  0  0  0  0  0  0  0  0
   -3.5844    0.0957    0.1308 O   0  0  0  0  0  0  0  0  0  0  0  0
    2.8958   -2.2922    0.1315 O   0  0  0  0  0  0  0  0  0  0  0  0
   -2.8962    2.2924    0.1312 O   0  0  0  0  0  0  0  0  0  0  0  0
    5.5900    1.4711   -1.0453 O   0  0  0  0  0  0  0  0  0  0  0  0
   -5.5892   -1.4719   -1.0454 O   0  0  0  0  0  0  0  0  0  0  0  0
    1.2904   -0.5293    0.1305 C   0  0  0  0  0  0  0  0  0  0  0  0
   -1.2905    0.5298    0.1314 C   0  0  0  0  0  0  0  0  0  0  0  0
    0.1866   -1.3821    0.1311 C   0  0  0  0  0  0  0  0  0  0  0  0
   -1.1039   -0.8526    0.1315 C   0  0  0  0  0  0  0  0  0  0  0  0
    1.1037    0.8530    0.1304 C   0  0  0  0  0  0  0  0  0  0  0  0
   -0.1867    1.3826    0.1310 C   0  0  0  0  0  0  0  0  0  0  0  0
    2.6356   -1.0816    0.1313 C   0  0  0  0  0  0  0  0  0  0  0  0
   -2.6356    1.0817    0.1316 C   0  0  0  0  0  0  0  0  0  0  0  0
    4.9532   -0.5149    0.1300 C   0  0  0  0  0  0  0  0  0  0  0  0
   -4.9534    0.5146    0.1296 C   0  0  0  0  0  0  0  0  0  0  0  0
    5.8462    0.7109    0.1293 C   0  0  0  0  0  0  0  0  0  0  0  0
   -5.8460   -0.7114    0.1289 C   0  0  0  0  0  0  0  0  0  0  0  0
    0.3104   -2.4619    0.1314 H   0  0  0  0  0  0  0  0  0  0  0  0
   -1.9332   -1.5543    0.1317 H   0  0  0  0  0  0  0  0  0  0  0  0
    1.9330    1.5547    0.1300 H   0  0  0  0  0  0  0  0  0  0  0  0
   -0.3105    2.4624    0.1308 H   0  0  0  0  0  0  0  0  0  0  0  0
    5.1501   -1.1198    1.0217 H   0  0  0  0  0  0  0  0  0  0  0  0
    5.1343   -1.1135   -0.7701 H   0  0  0  0  0  0  0  0  0  0  0  0
   -5.1515    1.1224    1.0190 H   0  0  0  0  0  0  0  0  0  0  0  0
   -5.1342    1.1081   -0.7738 H   0  0  0  0  0  0  0  0  0  0  0  0
    6.9045    0.4358    0.1508 H   0  0  0  0  0  0  0  0  0  0  0  0
    5.6259    1.3523    0.9877 H   0  0  0  0  0  0  0  0  0  0  0  0
   -6.9020   -0.4279    0.1353 H   0  0  0  0  0  0  0  0  0  0  0  0
   -5.6418   -1.3508    0.9933 H   0  0  0  0  0  0  0  0  0  0  0  0
    5.8030    0.9096   -1.8102 H   0  0  0  0  0  0  0  0  0  0  0  0
   -4.6447   -1.7036   -1.0421 H   0  0  0  0  0  0  0  0  0  0  0  0
  1 13  1  0  0  0  0
  1 15  1  0  0  0  0
  2 14  1  0  0  0  0
  2 16  1  0  0  0  0
  3 13  2  0  0  0  0
  4 14  2  0  0  0  0
  5 17  1  0  0  0  0
  5 31  1  0  0  0  0
  6 18  1  0  0  0  0
  6 32  1  0  0  0  0
  7  9  2  0  0  0  0
  7 11  1  0  0  0  0
  7 13  1  0  0  0  0
  8 10  2  0  0  0  0
  8 12  1  0  0  0  0
  8 14  1  0  0  0  0
  9 10  1  0  0  0  0
  9 19  1  0  0  0  0
 10 20  1  0  0  0  0
 11 12  2  0  0  0  0
 11 21  1  0  0  0  0
 12 22  1  0  0  0  0
 15 17  1  0  0  0  0
 15 23  1  0  0  0  0
 15 24  1  0  0  0  0
 16 18  1  0  0  0  0
 16 25  1  0  0  0  0
 16 26  1  0  0  0  0
 17 27  1  0  0  0  0
 17 28  1  0  0  0  0
 18 29  1  0  0  0  0
 18 30  1  0  0  0  0
M  END
> <PUBCHEM_COMPOUND_CID>
13739

> <PUBCHEM_CONFORMER_RMSD>
0.8

> <PUBCHEM_CONFORMER_DIVERSEORDER>
1
57
49
30
42
33
44
14
53
22
19
10
12
45
3
41
11
32
40
15
36
55
29
9
38
4
58
17
37
43
52
24
51
35
20
56
31
39
16
2
21
23
28
34
26
18
25
5
46
47
6
48
8
13
50
7
27
54

> <PUBCHEM_MMFF94_PARTIAL_CHARGES>
24
1 -0.43
10 -0.15
11 -0.15
12 -0.15
13 0.63
14 0.63
15 0.28
16 0.28
17 0.28
18 0.28
19 0.15
2 -0.43
20 0.15
21 0.15
22 0.15
3 -0.57
31 0.4
32 0.4
4 -0.57
5 -0.68
6 -0.68
7 0.09
8 0.09
9 -0.15

> <PUBCHEM_EFFECTIVE_ROTOR_COUNT>
8

> <PUBCHEM_PHARMACOPHORE_FEATURES>
7
1 3 acceptor
1 4 acceptor
1 5 acceptor
1 5 donor
1 6 acceptor
1 6 donor
6 7 8 9 10 11 12 rings

> <PUBCHEM_HEAVY_ATOM_COUNT>
18

> <PUBCHEM_ATOM_DEF_STEREO_COUNT>
0

> <PUBCHEM_ATOM_UDEF_STEREO_COUNT>
0

> <PUBCHEM_BOND_DEF_STEREO_COUNT>
0

> <PUBCHEM_BOND_UDEF_STEREO_COUNT>
0

> <PUBCHEM_ISOTOPIC_ATOM_COUNT>
0

> <PUBCHEM_COMPONENT_COUNT>
1

> <PUBCHEM_CACTVS_TAUTO_COUNT>
1

> <PUBCHEM_CONFORMER_ID>
000035AB00000001

> <PUBCHEM_MMFF94_ENERGY>
44.2295

> <PUBCHEM_FEATURE_SELFOVERLAP>
35.52

> <PUBCHEM_SHAPE_FINGERPRINT>
10968037 39 18411418397850867471
11089746 13 12607404369281679279
11806522 49 18411420631064952377
12236239 1 18410575101842948164
13533116 47 16701749353803223634
13862211 1 18411423920561872122
14251718 22 18410293609707473761
14251732 16 18410575054603582769
14528608 73 18411696591430476556
14787075 74 18411700988870176928
15196674 1 18338799047206240385
17834072 33 18408605850790106028
19489759 90 14476965601257922789
200 152 18409169926789707107
20645477 70 18189332536713855742
21267235 1 18408879659303109714
221490 88 18269552733477803603
23272321 79 18411979165343905808
23402539 116 18341899610531677797
23402655 69 18338240478747370861
23559900 14 18270402672702974953
34797466 226 17167857527032778668
350125 39 18409446986160917905
3545911 37 18410853274781163858
4325135 7 18410575080368112014
4340502 62 16702017586805124746
4463277 17 18409165528416388665
474 4 17703498923197961364
474229 33 18410293614229703675
5104073 3 18266458891564876770
7062679 117 18335421240707973343

> <PUBCHEM_SHAPE_MULTIPOLES>
335.22
13.61
1.83
0.69
0
0
-0.08
0
-1.87
0
-0.09
0
0
-0.86

> <PUBCHEM_SHAPE_SELFOVERLAP>
687.263

> <PUBCHEM_SHAPE_VOLUME>
192.6

> <PUBCHEM_COORDINATE_TYPE>
2
5
10

$$$$

