5281559
  -OEChem-07051212582D

 27 28  0     0  0  0  0  0  0999 V2000
    5.2619    0.4041    0.0000 O   0  0  0  0  0  0  0  0  0  0  0  0
    2.8660    2.4041    0.0000 O   0  0  0  0  0  0  0  0  0  0  0  0
    4.9889    2.1594    0.0000 O   0  0  0  0  0  0  0  0  0  0  0  0
    3.7320   -0.0959    0.0000 C   0  0  0  0  0  0  0  0  0  0  0  0
    4.6783   -0.4006    0.0000 C   0  0  0  0  0  0  0  0  0  0  0  0
    5.9674   -1.5574    0.0000 C   0  0  0  0  0  0  0  0  0  0  0  0
    3.7320    0.9041    0.0000 C   0  0  0  0  0  0  0  0  0  0  0  0
    4.9889   -1.3512    0.0000 C   0  0  0  0  0  0  0  0  0  0  0  0
    6.2781   -2.5079    0.0000 C   0  0  0  0  0  0  0  0  0  0  0  0
    2.8660   -0.5959    0.0000 C   0  0  0  0  0  0  0  0  0  0  0  0
    4.6783    1.2088    0.0000 C   0  0  0  0  0  0  0  0  0  0  0  0
    2.8660    1.4041    0.0000 C   0  0  0  0  0  0  0  0  0  0  0  0
    7.2566   -2.7141    0.0000 C   0  0  0  0  0  0  0  0  0  0  0  0
    2.0000   -0.0959    0.0000 C   0  0  0  0  0  0  0  0  0  0  0  0
    2.0000    0.9041    0.0000 C   0  0  0  0  0  0  0  0  0  0  0  0
    6.5812   -1.4700    0.0000 H   0  0  0  0  0  0  0  0  0  0  0  0
    5.9880   -0.9377    0.0000 H   0  0  0  0  0  0  0  0  0  0  0  0
    4.5749   -1.8126    0.0000 H   0  0  0  0  0  0  0  0  0  0  0  0
    5.6643   -2.5952    0.0000 H   0  0  0  0  0  0  0  0  0  0  0  0
    6.2575   -3.1276    0.0000 H   0  0  0  0  0  0  0  0  0  0  0  0
    2.8660   -1.2159    0.0000 H   0  0  0  0  0  0  0  0  0  0  0  0
    7.1288   -3.3208    0.0000 H   0  0  0  0  0  0  0  0  0  0  0  0
    7.8633   -2.8420    0.0000 H   0  0  0  0  0  0  0  0  0  0  0  0
    7.3845   -2.1074    0.0000 H   0  0  0  0  0  0  0  0  0  0  0  0
    1.4631   -0.4059    0.0000 H   0  0  0  0  0  0  0  0  0  0  0  0
    1.4631    1.2141    0.0000 H   0  0  0  0  0  0  0  0  0  0  0  0
    2.3291    2.7141    0.0000 H   0  0  0  0  0  0  0  0  0  0  0  0
  1  5  1  0  0  0  0
  1 11  1  0  0  0  0
  2 12  1  0  0  0  0
  2 27  1  0  0  0  0
  3 11  2  0  0  0  0
  4  5  1  0  0  0  0
  4  7  2  0  0  0  0
  4 10  1  0  0  0  0
  5  8  2  0  0  0  0
  6  8  1  0  0  0  0
  6  9  1  0  0  0  0
  6 16  1  0  0  0  0
  6 17  1  0  0  0  0
  7 11  1  0  0  0  0
  7 12  1  0  0  0  0
  8 18  1  0  0  0  0
  9 13  1  0  0  0  0
  9 19  1  0  0  0  0
  9 20  1  0  0  0  0
 10 14  2  0  0  0  0
 10 21  1  0  0  0  0
 12 15  2  0  0  0  0
 13 22  1  0  0  0  0
 13 23  1  0  0  0  0
 13 24  1  0  0  0  0
 14 15  1  0  0  0  0
 14 25  1  0  0  0  0
 15 26  1  0  0  0  0
M  END
> <PUBCHEM_COMPOUND_CID>
5281559

> <PUBCHEM_COMPOUND_CANONICALIZED>
1

> <PUBCHEM_CACTVS_COMPLEXITY>
283

> <PUBCHEM_CACTVS_HBOND_ACCEPTOR>
3

> <PUBCHEM_CACTVS_HBOND_DONOR>
1

> <PUBCHEM_CACTVS_ROTATABLE_BOND>
2

> <PUBCHEM_CACTVS_SUBSKEYS>
AAADccBwMAAAAAAAAAAAAAAAAAAAASAAAAAwAAAAAAAAAEgBAAAAGgAACAAADASAmAAyDoAABgCIAiDSCAACCAAkIAAIiAEGCMgIJzaCNRqCcUAl4BEIuQfKyLCOgAABAAAYAAAAAAIAADAAAAAAAAAAAA==

> <PUBCHEM_IUPAC_OPENEYE_NAME>
(3Z)-3-butylidene-7-hydroxy-isobenzofuran-1-one

> <PUBCHEM_IUPAC_CAS_NAME>
(3Z)-3-butylidene-7-hydroxy-1-isobenzofuranone

> <PUBCHEM_IUPAC_NAME>
(3Z)-3-butylidene-7-hydroxy-2-benzofuran-1-one

> <PUBCHEM_IUPAC_SYSTEMATIC_NAME>
(3Z)-3-butylidene-7-oxidanyl-2-benzofuran-1-one

> <PUBCHEM_IUPAC_TRADITIONAL_NAME>
(3Z)-3-butylidene-7-hydroxy-phthalide

> <PUBCHEM_IUPAC_INCHI>
InChI=1S/C12H12O3/c1-2-3-7-10-8-5-4-6-9(13)11(8)12(14)15-10/h4-7,13H,2-3H2,1H3/b10-7-

> <PUBCHEM_IUPAC_INCHIKEY>
XLFDJKJEYMKLJX-YFHOEESVSA-N

> <PUBCHEM_XLOGP3_AA>
3.4

> <PUBCHEM_EXACT_MASS>
204.078644

> <PUBCHEM_MOLECULAR_FORMULA>
C12H12O3

> <PUBCHEM_MOLECULAR_WEIGHT>
204.22188

> <PUBCHEM_OPENEYE_CAN_SMILES>
CCCC=C1C2=C(C(=CC=C2)O)C(=O)O1

> <PUBCHEM_OPENEYE_ISO_SMILES>
CCC/C=C\1/C2=C(C(=CC=C2)O)C(=O)O1

> <PUBCHEM_CACTVS_TPSA>
46.5

> <PUBCHEM_MONOISOTOPIC_WEIGHT>
204.078644

> <PUBCHEM_TOTAL_CHARGE>
0

> <PUBCHEM_HEAVY_ATOM_COUNT>
15

> <PUBCHEM_ATOM_DEF_STEREO_COUNT>
0

> <PUBCHEM_ATOM_UDEF_STEREO_COUNT>
0

> <PUBCHEM_BOND_DEF_STEREO_COUNT>
1

> <PUBCHEM_BOND_UDEF_STEREO_COUNT>
0

> <PUBCHEM_ISOTOPIC_ATOM_COUNT>
0

> <PUBCHEM_COMPONENT_COUNT>
1

> <PUBCHEM_CACTVS_TAUTO_COUNT>
13

> <PUBCHEM_COORDINATE_TYPE>
1
5
255

> <PUBCHEM_BONDANNOTATIONS>
10  14  8
12  15  8
14  15  8
4  10  8
4  7  8
7  12  8

$$$$

