197865
  -OEChem-07051213143D

 37 41  0     0  0  0  0  0  0999 V2000
    3.0645   -0.4044    0.0322 C   0  0  0  0  0  0  0  0  0  0  0  0
    3.8668   -1.6733    0.0876 C   0  0  0  0  0  0  0  0  0  0  0  0
    5.2558   -1.1794   -0.3394 C   0  0  0  0  0  0  0  0  0  0  0  0
    3.9218    0.7042    0.0393 C   0  0  0  0  0  0  0  0  0  0  0  0
    5.3558    0.2834    0.1071 C   0  0  0  0  0  0  0  0  0  0  0  0
    1.6717   -0.2489    0.0252 C   0  0  0  0  0  0  0  0  0  0  0  0
    1.1556    1.0625    0.0068 C   0  0  0  0  0  0  0  0  0  0  0  0
    3.4238    1.9926    0.0330 C   0  0  0  0  0  0  0  0  0  0  0  0
    0.7729   -1.3290    0.0387 C   0  0  0  0  0  0  0  0  0  0  0  0
   -1.1648    0.1720    0.0026 C   0  0  0  0  0  0  0  0  0  0  0  0
   -0.6192   -1.1341    0.0268 C   0  0  0  0  0  0  0  0  0  0  0  0
    2.0392    2.1661    0.0087 C   0  0  0  0  0  0  0  0  0  0  0  0
   -0.2400    1.2475   -0.0062 C   0  0  0  0  0  0  0  0  0  0  0  0
   -2.5967    0.3351   -0.0098 C   0  0  0  0  0  0  0  0  0  0  0  0
   -1.4677   -2.2446    0.0389 C   0  0  0  0  0  0  0  0  0  0  0  0
   -3.4256   -0.8170    0.0029 C   0  0  0  0  0  0  0  0  0  0  0  0
   -2.8496   -2.0888    0.0272 C   0  0  0  0  0  0  0  0  0  0  0  0
   -3.2557    1.5903   -0.0346 C   0  0  0  0  0  0  0  0  0  0  0  0
   -4.8254   -0.6927   -0.0086 C   0  0  0  0  0  0  0  0  0  0  0  0
   -4.6490    1.7002   -0.0459 C   0  0  0  0  0  0  0  0  0  0  0  0
   -5.4341    0.5582   -0.0327 C   0  0  0  0  0  0  0  0  0  0  0  0
    3.8826   -2.0627    1.1109 H   0  0  0  0  0  0  0  0  0  0  0  0
    3.4986   -2.4387   -0.6012 H   0  0  0  0  0  0  0  0  0  0  0  0
    5.3330   -1.2273   -1.4347 H   0  0  0  0  0  0  0  0  0  0  0  0
    6.0624   -1.7973    0.0671 H   0  0  0  0  0  0  0  0  0  0  0  0
    5.7226    0.3599    1.1358 H   0  0  0  0  0  0  0  0  0  0  0  0
    5.9957    0.8629   -0.5641 H   0  0  0  0  0  0  0  0  0  0  0  0
    4.0860    2.8515    0.0488 H   0  0  0  0  0  0  0  0  0  0  0  0
    1.1635   -2.3464    0.0588 H   0  0  0  0  0  0  0  0  0  0  0  0
    1.6449    3.1811   -0.0001 H   0  0  0  0  0  0  0  0  0  0  0  0
   -0.6056    2.2730   -0.0211 H   0  0  0  0  0  0  0  0  0  0  0  0
   -1.0612   -3.2542    0.0576 H   0  0  0  0  0  0  0  0  0  0  0  0
   -3.4723   -2.9814    0.0373 H   0  0  0  0  0  0  0  0  0  0  0  0
   -2.6935    2.5204   -0.0459 H   0  0  0  0  0  0  0  0  0  0  0  0
   -5.4594   -1.5776    0.0013 H   0  0  0  0  0  0  0  0  0  0  0  0
   -5.1147    2.6813   -0.0649 H   0  0  0  0  0  0  0  0  0  0  0  0
   -6.5168    0.6382   -0.0414 H   0  0  0  0  0  0  0  0  0  0  0  0
  1  2  1  0  0  0  0
  1  4  2  0  0  0  0
  1  6  1  0  0  0  0
  2  3  1  0  0  0  0
  2 22  1  0  0  0  0
  2 23  1  0  0  0  0
  3  5  1  0  0  0  0
  3 24  1  0  0  0  0
  3 25  1  0  0  0  0
  4  5  1  0  0  0  0
  4  8  1  0  0  0  0
  5 26  1  0  0  0  0
  5 27  1  0  0  0  0
  6  7  1  0  0  0  0
  6  9  2  0  0  0  0
  7 12  1  0  0  0  0
  7 13  2  0  0  0  0
  8 12  2  0  0  0  0
  8 28  1  0  0  0  0
  9 11  1  0  0  0  0
  9 29  1  0  0  0  0
 10 11  2  0  0  0  0
 10 13  1  0  0  0  0
 10 14  1  0  0  0  0
 11 15  1  0  0  0  0
 12 30  1  0  0  0  0
 13 31  1  0  0  0  0
 14 16  1  0  0  0  0
 14 18  2  0  0  0  0
 15 17  2  0  0  0  0
 15 32  1  0  0  0  0
 16 17  1  0  0  0  0
 16 19  2  0  0  0  0
 17 33  1  0  0  0  0
 18 20  1  0  0  0  0
 18 34  1  0  0  0  0
 19 21  1  0  0  0  0
 19 35  1  0  0  0  0
 20 21  2  0  0  0  0
 20 36  1  0  0  0  0
 21 37  1  0  0  0  0
M  END
> <PUBCHEM_COMPOUND_CID>
197865

> <PUBCHEM_CONFORMER_RMSD>
0.6

> <PUBCHEM_CONFORMER_DIVERSEORDER>
1

> <PUBCHEM_MMFF94_PARTIAL_CHARGES>
24
1 -0.14
12 -0.15
13 -0.15
15 -0.15
17 -0.15
18 -0.15
19 -0.15
2 0.14
20 -0.15
21 -0.15
28 0.15
29 0.15
30 0.15
31 0.15
32 0.15
33 0.15
34 0.15
35 0.15
36 0.15
37 0.15
4 -0.14
5 0.14
8 -0.15
9 -0.15

> <PUBCHEM_EFFECTIVE_ROTOR_COUNT>
0.6

> <PUBCHEM_PHARMACOPHORE_FEATURES>
5
5 1 2 3 4 5 rings
6 1 4 6 7 8 12 rings
6 10 11 14 15 16 17 rings
6 14 16 18 19 20 21 rings
6 6 7 9 10 11 13 rings

> <PUBCHEM_HEAVY_ATOM_COUNT>
21

> <PUBCHEM_ATOM_DEF_STEREO_COUNT>
0

> <PUBCHEM_ATOM_UDEF_STEREO_COUNT>
0

> <PUBCHEM_BOND_DEF_STEREO_COUNT>
0

> <PUBCHEM_BOND_UDEF_STEREO_COUNT>
0

> <PUBCHEM_ISOTOPIC_ATOM_COUNT>
0

> <PUBCHEM_COMPONENT_COUNT>
1

> <PUBCHEM_CACTVS_TAUTO_COUNT>
1

> <PUBCHEM_CONFORMER_ID>
000304E900000001

> <PUBCHEM_MMFF94_ENERGY>
72.3527

> <PUBCHEM_FEATURE_SELFOVERLAP>
25.525

> <PUBCHEM_SHAPE_FINGERPRINT>
10616163 171 18337107848041615766
11405975 8 18412265008412886274
11578080 2 17025171630509637370
12107183 9 17762338410877503488
12236239 1 18410293618281577624
12403259 226 18336832983409957201
12403259 415 18271815635223065765
12788726 201 17821998848362651192
13140716 1 18411703153591709856
13167823 11 18410857637745347523
13583140 156 17459760207026612066
138480 1 17762338419858665459
13862211 1 18410860987798901810
14341114 176 18410568483319645425
14790565 3 18412257376145685876
14866123 147 17324069821014842402
15042514 8 18196367027678103747
15099037 51 18410292535949916558
15196674 1 18410575054608863841
15256400 18 18410575106169888725
15420108 30 16673856083356431432
15442244 35 18410856559929998416
15536298 74 18336265656847411792
15788980 27 18343580737386667745
1601671 61 18411138065119082284
17349148 13 17894910745506934745
17492 89 18267864969379647779
17804303 29 18411134731813094949
17844677 252 18411410687957335745
1813 80 17060341812200739476
18186145 218 17917721175229841014
18681886 176 18260554394471322106
19141452 34 18410293592512001406
19591789 44 18268995452010553884
200 152 17894633647407782371
20645477 70 18333447660243506190
21033648 29 17988378026030512173
21065198 57 18338797806002896290
21236236 1 18408323259960954255
21267235 1 18411129230007721291
21279426 13 18266177425204473942
21421861 104 17845385499867322402
21452121 103 18261684658255218592
21859007 373 17915205578383216732
221357 26 18408889537986450893
221490 88 18268986488809504682
2215653 11 18260546749139456566
23402539 116 18260554424367307637
23559900 14 18334580118560154432
3004659 81 18271803567066271958
335352 9 18410855498846164926
34934 24 18410297995528660922
350125 39 18411417332667621825
351380 180 18408887330256897821
3545911 37 18409165506487787024
3680242 22 18270965773011835578
4073 2 18059008381324750002
4214541 1 18410575080383948865
474 4 17560235800087056532
495365 180 17386298601454900936
5104073 3 18411138000256769297
542803 24 17489866037954261270
543358 83 18412543223952569634
559249 180 18411985801279485210
6138700 20 18267019638817941366
6328613 192 18342730798394222524
633830 44 17560803178140892080
69090 78 18408888417010321695
77779 3 18411418375721864232
9709674 26 18267863882810528426
9981440 41 17261873248165966856
9996256 80 18336262358724368371

> <PUBCHEM_SHAPE_MULTIPOLES>
432.17
11.67
2.32
0.62
0.35
0.04
0
-0.69
0.28
-0.11
-0.01
0.03
0.01
0.14

> <PUBCHEM_SHAPE_SELFOVERLAP>
999.35

> <PUBCHEM_SHAPE_VOLUME>
204.1

> <PUBCHEM_COORDINATE_TYPE>
2
5
10

$$$$

