6443228
  -OEChem-07051213092D

 26 26  0     1  0  0  0  0  0999 V2000
    2.0000    0.6340    0.0000 Cl  0  0  0  0  0  0  0  0  0  0  0  0
    3.7320   -2.3660    0.0000 Cl  0  0  0  0  0  0  0  0  0  0  0  0
    5.7320    2.3660    0.0000 Cl  0  0  0  0  0  0  0  0  0  0  0  0
    3.7320    0.6340    0.0000 C   0  0  1  0  0  0  0  0  0  0  0  0
    2.8660    0.1340    0.0000 C   0  0  1  0  0  0  0  0  0  0  0  0
    4.5981    0.1340    0.0000 C   0  0  0  0  0  0  0  0  0  0  0  0
    2.8660   -0.8660    0.0000 C   0  0  0  0  0  0  0  0  0  0  0  0
    3.7320   -1.3660    0.0000 C   0  0  1  0  0  0  0  0  0  0  0  0
    4.5981   -0.8660    0.0000 C   0  0  0  0  0  0  0  0  0  0  0  0
    3.2320    1.5000    0.0000 C   0  0  0  0  0  0  0  0  0  0  0  0
    4.2320    1.5000    0.0000 C   0  0  0  0  0  0  0  0  0  0  0  0
    5.4641   -1.3660    0.0000 C   0  0  0  0  0  0  0  0  0  0  0  0
    5.2320    1.5000    0.0000 C   0  0  0  0  0  0  0  0  0  0  0  0
    2.8660    0.7540    0.0000 H   0  0  0  0  0  0  0  0  0  0  0  0
    5.2087    0.0263    0.0000 H   0  0  0  0  0  0  0  0  0  0  0  0
    4.8101    0.7166    0.0000 H   0  0  0  0  0  0  0  0  0  0  0  0
    2.2554   -0.7584    0.0000 H   0  0  0  0  0  0  0  0  0  0  0  0
    2.6540   -1.4486    0.0000 H   0  0  0  0  0  0  0  0  0  0  0  0
    4.2690   -1.6760    0.0000 H   0  0  0  0  0  0  0  0  0  0  0  0
    3.7690    1.8100    0.0000 H   0  0  0  0  0  0  0  0  0  0  0  0
    2.9220    2.0369    0.0000 H   0  0  0  0  0  0  0  0  0  0  0  0
    2.6951    1.1900    0.0000 H   0  0  0  0  0  0  0  0  0  0  0  0
    3.9220    2.0369    0.0000 H   0  0  0  0  0  0  0  0  0  0  0  0
    5.4641   -1.9860    0.0000 H   0  0  0  0  0  0  0  0  0  0  0  0
    6.0010   -1.0560    0.0000 H   0  0  0  0  0  0  0  0  0  0  0  0
    5.5420    0.9631    0.0000 H   0  0  0  0  0  0  0  0  0  0  0  0
  5  1  1  1  0  0  0
  8  2  1  1  0  0  0
  3 13  1  0  0  0  0
  4  5  1  0  0  0  0
  4  6  1  0  0  0  0
  4 10  1  6  0  0  0
  4 11  1  0  0  0  0
  5  7  1  0  0  0  0
  5 14  1  0  0  0  0
  6  9  1  0  0  0  0
  6 15  1  0  0  0  0
  6 16  1  0  0  0  0
  7  8  1  0  0  0  0
  7 17  1  0  0  0  0
  7 18  1  0  0  0  0
  8  9  1  0  0  0  0
  8 19  1  0  0  0  0
  9 12  2  0  0  0  0
 10 20  1  0  0  0  0
 10 21  1  0  0  0  0
 10 22  1  0  0  0  0
 11 13  2  0  0  0  0
 11 23  1  0  0  0  0
 12 24  1  0  0  0  0
 12 25  1  0  0  0  0
 13 26  1  0  0  0  0
M  END
> <PUBCHEM_COMPOUND_CID>
6443228

> <PUBCHEM_COMPOUND_CANONICALIZED>
1

> <PUBCHEM_CACTVS_COMPLEXITY>
234

> <PUBCHEM_CACTVS_HBOND_ACCEPTOR>
0

> <PUBCHEM_CACTVS_HBOND_DONOR>
0

> <PUBCHEM_CACTVS_ROTATABLE_BOND>
1

> <PUBCHEM_CACTVS_SUBSKEYS>
AAADccBwAAAGAAAAAAAAAAAAAAAAAAAAAAAwAAAAAAAAAAAAAAAAGAIAAAAADgOAAEACAAAAAACAAiBCAAAAAAAgAAAIAAAAAggAAAIBAQAAAAAAgAAAAAEAgEAPAAAAAAAAAAAIAAAAAQIAAAAAAAAAAA==

> <PUBCHEM_IUPAC_OPENEYE_NAME>
(1R,2R,4S)-2,4-dichloro-1-[(E)-2-chlorovinyl]-1-methyl-5-methylene-cyclohexane

> <PUBCHEM_IUPAC_CAS_NAME>
(1R,2R,4S)-2,4-dichloro-1-[(E)-2-chloroethenyl]-1-methyl-5-methylenecyclohexane

> <PUBCHEM_IUPAC_NAME>
(1R,2R,4S)-2,4-dichloro-1-[(E)-2-chloroethenyl]-1-methyl-5-methylidenecyclohexane

> <PUBCHEM_IUPAC_SYSTEMATIC_NAME>
(1R,2R,4S)-2,4-bis(chloranyl)-1-[(E)-2-chloranylethenyl]-1-methyl-5-methylidene-cyclohexane

> <PUBCHEM_IUPAC_TRADITIONAL_NAME>
(1R,2R,4S)-2,4-dichloro-1-[(E)-2-chlorovinyl]-1-methyl-5-methylene-cyclohexane

> <PUBCHEM_IUPAC_INCHI>
InChI=1S/C10H13Cl3/c1-7-6-10(2,3-4-11)9(13)5-8(7)12/h3-4,8-9H,1,5-6H2,2H3/b4-3+/t8-,9+,10-/m0/s1

> <PUBCHEM_IUPAC_INCHIKEY>
UIGKAXNXTQIYIW-FPSIUDEGSA-N

> <PUBCHEM_XLOGP3_AA>
3.9

> <PUBCHEM_EXACT_MASS>
238.008283

> <PUBCHEM_MOLECULAR_FORMULA>
C10H13Cl3

> <PUBCHEM_MOLECULAR_WEIGHT>
239.56922

> <PUBCHEM_OPENEYE_CAN_SMILES>
CC1(CC(=C)C(CC1Cl)Cl)C=CCl

> <PUBCHEM_OPENEYE_ISO_SMILES>
C[C@@]1(CC(=C)[C@H](C[C@H]1Cl)Cl)/C=C/Cl

> <PUBCHEM_CACTVS_TPSA>
0

> <PUBCHEM_MONOISOTOPIC_WEIGHT>
238.008283

> <PUBCHEM_TOTAL_CHARGE>
0

> <PUBCHEM_HEAVY_ATOM_COUNT>
13

> <PUBCHEM_ATOM_DEF_STEREO_COUNT>
3

> <PUBCHEM_ATOM_UDEF_STEREO_COUNT>
0

> <PUBCHEM_BOND_DEF_STEREO_COUNT>
1

> <PUBCHEM_BOND_UDEF_STEREO_COUNT>
0

> <PUBCHEM_ISOTOPIC_ATOM_COUNT>
0

> <PUBCHEM_COMPONENT_COUNT>
1

> <PUBCHEM_CACTVS_TAUTO_COUNT>
1

> <PUBCHEM_COORDINATE_TYPE>
1
5
255

> <PUBCHEM_BONDANNOTATIONS>
5  1  5
8  2  5
4  10  6

$$$$

