441716
  -OEChem-07051212553D

 59 64  0     1  0  0  0  0  0999 V2000
   -0.0831   -2.7154    0.1220 O   0  0  0  0  0  0  0  0  0  0  0  0
   -2.4133   -2.0295   -1.1710 O   0  0  0  0  0  0  0  0  0  0  0  0
    0.8457    2.4676    1.6911 O   0  0  0  0  0  0  0  0  0  0  0  0
   -4.4719    0.0283   -0.9744 O   0  0  0  0  0  0  0  0  0  0  0  0
    1.9291   -0.6622    0.9798 N   0  0  2  0  0  0  0  0  0  0  0  0
    0.4160    0.9238   -0.1788 C   0  0  2  0  0  0  0  0  0  0  0  0
    1.0214    0.3271   -1.5046 C   0  0  2  0  0  0  0  0  0  0  0  0
    0.5120   -0.3661    0.6806 C   0  0  1  0  0  0  0  0  0  0  0  0
   -1.0928    1.3578   -0.3481 C   0  0  1  0  0  0  0  0  0  0  0  0
   -0.2529   -1.3605   -0.2647 C   0  0  2  0  0  0  0  0  0  0  0  0
   -2.0396    0.3122   -0.9457 C   0  0  1  0  0  0  0  0  0  0  0  0
   -1.7952   -1.0680   -0.2936 C   0  0  1  0  0  0  0  0  0  0  0  0
    0.3553   -1.0740   -1.6591 C   0  0  0  0  0  0  0  0  0  0  0  0
    2.5614    0.1418   -1.3283 C   0  0  2  0  0  0  0  0  0  0  0  0
    1.1976    2.1743    0.3401 C   0  0  2  0  0  0  0  0  0  0  0  0
   -1.8512    1.7896    0.9401 C   0  0  0  0  0  0  0  0  0  0  0  0
   -3.2625    1.1726    0.8382 C   0  0  1  0  0  0  0  0  0  0  0  0
   -3.4138    0.9043   -0.6481 C   0  0  2  0  0  0  0  0  0  0  0  0
    2.8102   -0.8780   -0.1744 C   0  0  0  0  0  0  0  0  0  0  0  0
   -2.4460   -1.2655    1.1072 C   0  0  0  0  0  0  0  0  0  0  0  0
    3.2106    1.5084   -1.0191 C   0  0  0  0  0  0  0  0  0  0  0  0
    2.7181    2.1230    0.2722 C   0  0  0  0  0  0  0  0  0  0  0  0
   -3.3701   -0.1459    1.6100 C   0  0  0  0  0  0  0  0  0  0  0  0
    3.2201   -0.3741   -2.6258 C   0  0  0  0  0  0  0  0  0  0  0  0
    2.1295   -1.6504    2.0292 C   0  0  0  0  0  0  0  0  0  0  0  0
    3.5655   -1.6412    2.5251 C   0  0  0  0  0  0  0  0  0  0  0  0
    0.8042    0.9662   -2.3684 H   0  0  0  0  0  0  0  0  0  0  0  0
    0.0008   -0.2271    1.6350 H   0  0  0  0  0  0  0  0  0  0  0  0
   -1.1024    2.2204   -1.0321 H   0  0  0  0  0  0  0  0  0  0  0  0
   -1.9391    0.2521   -2.0354 H   0  0  0  0  0  0  0  0  0  0  0  0
   -0.3864   -1.0606   -2.4632 H   0  0  0  0  0  0  0  0  0  0  0  0
    1.0445   -1.8697   -1.9528 H   0  0  0  0  0  0  0  0  0  0  0  0
    0.8860    3.0397   -0.2587 H   0  0  0  0  0  0  0  0  0  0  0  0
   -1.9233    2.8839    0.9601 H   0  0  0  0  0  0  0  0  0  0  0  0
   -1.3677    1.4796    1.8693 H   0  0  0  0  0  0  0  0  0  0  0  0
   -4.0279    1.8626    1.2090 H   0  0  0  0  0  0  0  0  0  0  0  0
   -3.5664    1.8412   -1.1973 H   0  0  0  0  0  0  0  0  0  0  0  0
    2.6962   -1.9062   -0.5401 H   0  0  0  0  0  0  0  0  0  0  0  0
    3.8622   -0.7790    0.1179 H   0  0  0  0  0  0  0  0  0  0  0  0
   -1.6822   -1.3997    1.8797 H   0  0  0  0  0  0  0  0  0  0  0  0
   -3.0128   -2.2062    1.1305 H   0  0  0  0  0  0  0  0  0  0  0  0
    3.0082    2.2047   -1.8442 H   0  0  0  0  0  0  0  0  0  0  0  0
    4.3022    1.4083   -0.9637 H   0  0  0  0  0  0  0  0  0  0  0  0
    3.1393    1.5982    1.1378 H   0  0  0  0  0  0  0  0  0  0  0  0
    3.1139    3.1430    0.3657 H   0  0  0  0  0  0  0  0  0  0  0  0
   -4.4075   -0.5022    1.5634 H   0  0  0  0  0  0  0  0  0  0  0  0
   -3.1748    0.0328    2.6750 H   0  0  0  0  0  0  0  0  0  0  0  0
    3.0162    0.3018   -3.4640 H   0  0  0  0  0  0  0  0  0  0  0  0
    4.3081   -0.4431   -2.5102 H   0  0  0  0  0  0  0  0  0  0  0  0
    2.8687   -1.3691   -2.9127 H   0  0  0  0  0  0  0  0  0  0  0  0
   -0.3241   -2.8034    1.0585 H   0  0  0  0  0  0  0  0  0  0  0  0
   -2.1585   -2.9160   -0.8627 H   0  0  0  0  0  0  0  0  0  0  0  0
    1.4840   -1.4165    2.8843 H   0  0  0  0  0  0  0  0  0  0  0  0
    1.8744   -2.6619    1.6972 H   0  0  0  0  0  0  0  0  0  0  0  0
    1.1531    1.7327    2.2485 H   0  0  0  0  0  0  0  0  0  0  0  0
   -4.2326   -0.8834   -0.7454 H   0  0  0  0  0  0  0  0  0  0  0  0
    4.2584   -2.0869    1.8048 H   0  0  0  0  0  0  0  0  0  0  0  0
    3.9046   -0.6272    2.7637 H   0  0  0  0  0  0  0  0  0  0  0  0
    3.6402   -2.2353    3.4428 H   0  0  0  0  0  0  0  0  0  0  0  0
  1 10  1  0  0  0  0
  1 51  1  0  0  0  0
  2 12  1  0  0  0  0
  2 52  1  0  0  0  0
  3 15  1  0  0  0  0
  3 55  1  0  0  0  0
  4 18  1  0  0  0  0
  4 56  1  0  0  0  0
  5  8  1  0  0  0  0
  5 19  1  0  0  0  0
  5 25  1  0  0  0  0
  6  7  1  0  0  0  0
  6  8  1  0  0  0  0
  6  9  1  0  0  0  0
  6 15  1  0  0  0  0
  7 13  1  0  0  0  0
  7 14  1  0  0  0  0
  7 27  1  0  0  0  0
  8 10  1  0  0  0  0
  8 28  1  0  0  0  0
  9 11  1  0  0  0  0
  9 16  1  0  0  0  0
  9 29  1  0  0  0  0
 10 12  1  0  0  0  0
 10 13  1  0  0  0  0
 11 12  1  0  0  0  0
 11 18  1  0  0  0  0
 11 30  1  0  0  0  0
 12 20  1  0  0  0  0
 13 31  1  0  0  0  0
 13 32  1  0  0  0  0
 14 19  1  0  0  0  0
 14 21  1  0  0  0  0
 14 24  1  0  0  0  0
 15 22  1  0  0  0  0
 15 33  1  0  0  0  0
 16 17  1  0  0  0  0
 16 34  1  0  0  0  0
 16 35  1  0  0  0  0
 17 18  1  0  0  0  0
 17 23  1  0  0  0  0
 17 36  1  0  0  0  0
 18 37  1  0  0  0  0
 19 38  1  0  0  0  0
 19 39  1  0  0  0  0
 20 23  1  0  0  0  0
 20 40  1  0  0  0  0
 20 41  1  0  0  0  0
 21 22  1  0  0  0  0
 21 42  1  0  0  0  0
 21 43  1  0  0  0  0
 22 44  1  0  0  0  0
 22 45  1  0  0  0  0
 23 46  1  0  0  0  0
 23 47  1  0  0  0  0
 24 48  1  0  0  0  0
 24 49  1  0  0  0  0
 24 50  1  0  0  0  0
 25 26  1  0  0  0  0
 25 53  1  0  0  0  0
 25 54  1  0  0  0  0
 26 57  1  0  0  0  0
 26 58  1  0  0  0  0
 26 59  1  0  0  0  0
M  END
> <PUBCHEM_COMPOUND_CID>
441716

> <PUBCHEM_CONFORMER_RMSD>
0.6

> <PUBCHEM_CONFORMER_DIVERSEORDER>
1

> <PUBCHEM_MMFF94_PARTIAL_CHARGES>
16
1 -0.68
10 0.28
12 0.28
15 0.28
18 0.28
19 0.27
2 -0.68
25 0.27
3 -0.68
4 -0.68
5 -0.81
51 0.4
52 0.4
55 0.4
56 0.4
8 0.27

> <PUBCHEM_EFFECTIVE_ROTOR_COUNT>
3

> <PUBCHEM_PHARMACOPHORE_FEATURES>
13
1 1 acceptor
1 1 donor
1 2 acceptor
1 2 donor
1 3 acceptor
1 3 donor
1 4 acceptor
1 4 donor
1 5 cation
6 6 7 14 15 21 22 rings
8 5 6 7 8 10 13 14 19 rings
8 6 7 8 9 10 11 12 13 rings
8 9 11 12 16 17 18 20 23 rings

> <PUBCHEM_HEAVY_ATOM_COUNT>
26

> <PUBCHEM_ATOM_DEF_STEREO_COUNT>
10

> <PUBCHEM_ATOM_UDEF_STEREO_COUNT>
1

> <PUBCHEM_BOND_DEF_STEREO_COUNT>
0

> <PUBCHEM_BOND_UDEF_STEREO_COUNT>
0

> <PUBCHEM_ISOTOPIC_ATOM_COUNT>
0

> <PUBCHEM_COMPONENT_COUNT>
1

> <PUBCHEM_CACTVS_TAUTO_COUNT>
1

> <PUBCHEM_CONFORMER_ID>
0006BD7400000001

> <PUBCHEM_MMFF94_ENERGY>
137.088

> <PUBCHEM_FEATURE_SELFOVERLAP>
67.49

> <PUBCHEM_SHAPE_FINGERPRINT>
10863032 1 17418364818438387153
10948715 1 18342444924721939685
11370993 70 16917058945594296323
11578080 2 17843432719592300988
12633257 1 18270952574719396241
13140716 1 18409738343835602307
13172582 1 18334575797290070641
13224815 77 18410286978599787189
13583140 156 17988641861502327425
14223421 5 18047188544899057019
14289901 80 16845277342028776549
14787075 74 17550373051778247942
14955137 171 18270678809204194010
15163728 17 15503235349419821184
15238133 3 18123747831778854385
16752209 62 18263923417983657837
16945 1 18114454643335665037
17349148 13 17968396596770373551
1813 80 17557994128218062714
18186145 218 18338498794690839556
18981168 100 16661489493541778304
192875 21 18042428926809070165
20600515 1 18115036319626273392
20691752 17 18335128838901802173
20905425 154 17757849835061668378
2334 1 18118403947521852221
23419403 2 7439861776377435388
23493267 7 18126539397058652839
23557571 272 16661790759976131055
23559900 14 17676765469813937780
2748010 2 18191583060652760909
296302 2 13614229335673074525
74978 22 18187361004573722365

> <PUBCHEM_SHAPE_MULTIPOLES>
506.61
6.14
2.44
2.1
2.21
0.33
-0.04
-0.1
0.07
-1.09
0.99
-1.32
0.38
-1.07

> <PUBCHEM_SHAPE_SELFOVERLAP>
1130.483

> <PUBCHEM_SHAPE_VOLUME>
265.9

> <PUBCHEM_COORDINATE_TYPE>
2
5
10

$$$$

