65070
  -OEChem-07051212442D

 43 44  0     1  0  0  0  0  0999 V2000
    6.4021   -2.4172    0.0000 P   0  0  3  0  0  0  0  0  0  0  0  0
    7.9844   -3.1217    0.0000 P   0  0  3  0  0  0  0  0  0  0  0  0
    9.5668   -3.8262    0.0000 P   0  0  0  0  0  0  0  0  0  0  0  0
    4.5411    0.0474    0.0000 O   0  0  0  0  0  0  0  0  0  0  0  0
    2.6443   -1.7127    0.0000 O   0  0  0  0  0  0  0  0  0  0  0  0
    5.8144   -1.6082    0.0000 O   0  0  0  0  0  0  0  0  0  0  0  0
    2.0000    1.6352    0.0000 O   0  0  0  0  0  0  0  0  0  0  0  0
    6.9899   -3.2262    0.0000 O   0  0  0  0  0  0  0  0  0  0  0  0
    7.2112   -1.8294    0.0000 O   0  0  0  0  0  0  0  0  0  0  0  0
    5.5931   -3.0050    0.0000 O   0  0  0  0  0  0  0  0  0  0  0  0
    3.7320    4.6352    0.0000 O   0  0  0  0  0  0  0  0  0  0  0  0
    8.9790   -3.0171    0.0000 O   0  0  0  0  0  0  0  0  0  0  0  0
    8.0890   -4.1162    0.0000 O   0  0  0  0  0  0  0  0  0  0  0  0
    7.8799   -2.1271    0.0000 O   0  0  0  0  0  0  0  0  0  0  0  0
   10.1545   -4.6352    0.0000 O   0  0  0  0  0  0  0  0  0  0  0  0
   10.3758   -3.2384    0.0000 O   0  0  0  0  0  0  0  0  0  0  0  0
    8.7577   -4.4139    0.0000 O   0  0  0  0  0  0  0  0  0  0  0  0
    3.7320    1.6352    0.0000 N   0  0  0  0  0  0  0  0  0  0  0  0
    2.8660    3.1352    0.0000 N   0  0  0  0  0  0  0  0  0  0  0  0
    3.2320   -0.9037    0.0000 C   0  0  2  0  0  0  0  0  0  0  0  0
    4.2320   -0.9037    0.0000 C   0  0  1  0  0  0  0  0  0  0  0  0
    2.9230    0.0474    0.0000 C   0  0  0  0  0  0  0  0  0  0  0  0
    3.7320    0.6352    0.0000 C   0  0  1  0  0  0  0  0  0  0  0  0
    4.8198   -1.7127    0.0000 C   0  0  0  0  0  0  0  0  0  0  0  0
    2.8660    2.1352    0.0000 C   0  0  0  0  0  0  0  0  0  0  0  0
    4.5981    2.1352    0.0000 C   0  0  0  0  0  0  0  0  0  0  0  0
    4.5981    3.1352    0.0000 C   0  0  0  0  0  0  0  0  0  0  0  0
    3.7320    3.6352    0.0000 C   0  0  0  0  0  0  0  0  0  0  0  0
    3.5135   -1.4561    0.0000 H   0  0  0  0  0  0  0  0  0  0  0  0
    4.8444   -0.8067    0.0000 H   0  0  0  0  0  0  0  0  0  0  0  0
    2.6130    0.5843    0.0000 H   0  0  0  0  0  0  0  0  0  0  0  0
    2.3566   -0.2048    0.0000 H   0  0  0  0  0  0  0  0  0  0  0  0
    4.2845    0.9166    0.0000 H   0  0  0  0  0  0  0  0  0  0  0  0
    4.2626   -1.9845    0.0000 H   0  0  0  0  0  0  0  0  0  0  0  0
    4.9907   -2.3087    0.0000 H   0  0  0  0  0  0  0  0  0  0  0  0
    2.0277   -1.6479    0.0000 H   0  0  0  0  0  0  0  0  0  0  0  0
    5.1350    1.8252    0.0000 H   0  0  0  0  0  0  0  0  0  0  0  0
    2.3291    3.4452    0.0000 H   0  0  0  0  0  0  0  0  0  0  0  0
    5.1350    3.4452    0.0000 H   0  0  0  0  0  0  0  0  0  0  0  0
    7.1464   -1.2128    0.0000 H   0  0  0  0  0  0  0  0  0  0  0  0
    7.5874   -4.4806    0.0000 H   0  0  0  0  0  0  0  0  0  0  0  0
   10.7711   -4.5704    0.0000 H   0  0  0  0  0  0  0  0  0  0  0  0
   10.3110   -2.6218    0.0000 H   0  0  0  0  0  0  0  0  0  0  0  0
  1  6  1  0  0  0  0
  1  8  1  0  0  0  0
  1  9  1  0  0  0  0
  1 10  2  0  0  0  0
  2  8  1  0  0  0  0
  2 12  1  0  0  0  0
  2 13  1  0  0  0  0
  2 14  2  0  0  0  0
  3 12  1  0  0  0  0
  3 15  1  0  0  0  0
  3 16  1  0  0  0  0
  3 17  2  0  0  0  0
  4 21  1  0  0  0  0
  4 23  1  0  0  0  0
 20  5  1  1  0  0  0
  5 36  1  0  0  0  0
  6 24  1  0  0  0  0
  7 25  2  0  0  0  0
  9 40  1  0  0  0  0
 11 28  2  0  0  0  0
 13 41  1  0  0  0  0
 15 42  1  0  0  0  0
 16 43  1  0  0  0  0
 23 18  1  6  0  0  0
 18 25  1  0  0  0  0
 18 26  1  0  0  0  0
 19 25  1  0  0  0  0
 19 28  1  0  0  0  0
 19 38  1  0  0  0  0
 20 21  1  0  0  0  0
 20 22  1  0  0  0  0
 20 29  1  0  0  0  0
 21 24  1  6  0  0  0
 21 30  1  0  0  0  0
 22 23  1  0  0  0  0
 22 31  1  0  0  0  0
 22 32  1  0  0  0  0
 23 33  1  0  0  0  0
 24 34  1  0  0  0  0
 24 35  1  0  0  0  0
 26 27  2  0  0  0  0
 26 37  1  0  0  0  0
 27 28  1  0  0  0  0
 27 39  1  0  0  0  0
M  END
> <PUBCHEM_COMPOUND_CID>
65070

> <PUBCHEM_COMPOUND_CANONICALIZED>
1

> <PUBCHEM_CACTVS_COMPLEXITY>
808

> <PUBCHEM_CACTVS_HBOND_ACCEPTOR>
14

> <PUBCHEM_CACTVS_HBOND_DONOR>
6

> <PUBCHEM_CACTVS_ROTATABLE_BOND>
8

> <PUBCHEM_CACTVS_SUBSKEYS>
AAADccBzPAMAAAAAAAAAAAAAAAAAASAAAAAgAAAAAAAAAAAAAAAAHgAQCCAACBThgAYBAAPABxCIQCFWUICAAAAAAgAIAAAIAECBEAIAgAAOQAAPFyIDAMCwMAIAAAAAAAAAAAAAAAAAAAAAAAAAAAAAAA==

> <PUBCHEM_IUPAC_OPENEYE_NAME>
[[(2R,3S,5R)-5-(2,4-dioxopyrimidin-1-yl)-3-hydroxy-tetrahydrofuran-2-yl]methoxy-hydroxy-phosphoryl] phosphono hydrogen phosphate

> <PUBCHEM_IUPAC_CAS_NAME>
[[(2R,3S,5R)-5-(2,4-dioxo-1-pyrimidinyl)-3-hydroxy-2-oxolanyl]methoxy-hydroxyphosphoryl] phosphono hydrogen phosphate

> <PUBCHEM_IUPAC_NAME>
[[(2R,3S,5R)-5-(2,4-dioxopyrimidin-1-yl)-3-hydroxyoxolan-2-yl]methoxy-hydroxyphosphoryl] phosphono hydrogen phosphate

> <PUBCHEM_IUPAC_SYSTEMATIC_NAME>
[[(2R,3S,5R)-5-[2,4-bis(oxidanylidene)pyrimidin-1-yl]-3-oxidanyl-oxolan-2-yl]methoxy-oxidanyl-phosphoryl] phosphono hydrogen phosphate

> <PUBCHEM_IUPAC_TRADITIONAL_NAME>
[[(2R,3S,5R)-5-(2,4-diketopyrimidin-1-yl)-3-hydroxy-tetrahydrofuran-2-yl]methoxy-hydroxy-phosphoryl] phosphono hydrogen phosphate

> <PUBCHEM_IUPAC_INCHI>
InChI=1S/C9H15N2O14P3/c12-5-3-8(11-2-1-7(13)10-9(11)14)23-6(5)4-22-27(18,19)25-28(20,21)24-26(15,16)17/h1-2,5-6,8,12H,3-4H2,(H,18,19)(H,20,21)(H,10,13,14)(H2,15,16,17)/t5-,6+,8+/m0/s1

> <PUBCHEM_IUPAC_INCHIKEY>
AHCYMLUZIRLXAA-SHYZEUOFSA-N

> <PUBCHEM_XLOGP3>
-5.5

> <PUBCHEM_EXACT_MASS>
467.973613

> <PUBCHEM_MOLECULAR_FORMULA>
C9H15N2O14P3

> <PUBCHEM_MOLECULAR_WEIGHT>
468.141686

> <PUBCHEM_OPENEYE_CAN_SMILES>
C1C(C(OC1N2C=CC(=O)NC2=O)COP(=O)(O)OP(=O)(O)OP(=O)(O)O)O

> <PUBCHEM_OPENEYE_ISO_SMILES>
C1[C@@H]([C@H](O[C@H]1N2C=CC(=O)NC2=O)COP(=O)(O)OP(=O)(O)OP(=O)(O)O)O

> <PUBCHEM_CACTVS_TPSA>
239

> <PUBCHEM_MONOISOTOPIC_WEIGHT>
467.973613

> <PUBCHEM_TOTAL_CHARGE>
0

> <PUBCHEM_HEAVY_ATOM_COUNT>
28

> <PUBCHEM_ATOM_DEF_STEREO_COUNT>
3

> <PUBCHEM_ATOM_UDEF_STEREO_COUNT>
0

> <PUBCHEM_BOND_DEF_STEREO_COUNT>
0

> <PUBCHEM_BOND_UDEF_STEREO_COUNT>
0

> <PUBCHEM_ISOTOPIC_ATOM_COUNT>
0

> <PUBCHEM_COMPONENT_COUNT>
1

> <PUBCHEM_CACTVS_TAUTO_COUNT>
3

> <PUBCHEM_COORDINATE_TYPE>
1
5
255

> <PUBCHEM_BONDANNOTATIONS>
23  18  6
18  25  8
18  26  8
19  25  8
19  28  8
21  24  6
26  27  8
27  28  8
20  5  5

$$$$

