47205252
  -OEChem-06241222582D

 37 38  0     0  0  0  0  0  0999 V2000
    4.5981   -0.2694    0.0000 O   0  0  0  0  0  0  0  0  0  0  0  0
    2.8660   -2.2694    0.0000 O   0  0  0  0  0  0  0  0  0  0  0  0
    5.5211    4.3184    0.0000 O   0  0  0  0  0  0  0  0  0  0  0  0
    6.3301    0.7306    0.0000 O   0  0  0  0  0  0  0  0  0  0  0  0
    5.4641    2.2306    0.0000 N   0  0  0  0  0  0  0  0  0  0  0  0
    6.3301    2.7306    0.0000 C   0  0  0  0  0  0  0  0  0  0  0  0
    3.7320   -0.7694    0.0000 C   0  0  0  0  0  0  0  0  0  0  0  0
    3.7320   -1.7694    0.0000 C   0  0  0  0  0  0  0  0  0  0  0  0
    4.5981    0.7306    0.0000 C   0  0  0  0  0  0  0  0  0  0  0  0
    6.3301    3.7306    0.0000 C   0  0  0  0  0  0  0  0  0  0  0  0
    5.4641    1.2306    0.0000 C   0  0  0  0  0  0  0  0  0  0  0  0
    7.1391    4.3184    0.0000 C   0  0  0  0  0  0  0  0  0  0  0  0
    2.8660   -3.2694    0.0000 C   0  0  0  0  0  0  0  0  0  0  0  0
    6.8301    5.2694    0.0000 C   0  0  0  0  0  0  0  0  0  0  0  0
    2.0000   -3.7694    0.0000 C   0  0  0  0  0  0  0  0  0  0  0  0
    3.7320   -3.7694    0.0000 C   0  0  0  0  0  0  0  0  0  0  0  0
    5.8301    5.2694    0.0000 C   0  0  0  0  0  0  0  0  0  0  0  0
    2.0000   -4.7694    0.0000 C   0  0  0  0  0  0  0  0  0  0  0  0
    3.7320   -4.7694    0.0000 C   0  0  0  0  0  0  0  0  0  0  0  0
    2.8660   -5.2694    0.0000 C   0  0  0  0  0  0  0  0  0  0  0  0
    6.5422    2.1480    0.0000 H   0  0  0  0  0  0  0  0  0  0  0  0
    6.9407    2.8382    0.0000 H   0  0  0  0  0  0  0  0  0  0  0  0
    3.5200   -0.1868    0.0000 H   0  0  0  0  0  0  0  0  0  0  0  0
    3.1215   -0.8771    0.0000 H   0  0  0  0  0  0  0  0  0  0  0  0
    3.9441   -2.3520    0.0000 H   0  0  0  0  0  0  0  0  0  0  0  0
    4.3426   -1.6618    0.0000 H   0  0  0  0  0  0  0  0  0  0  0  0
    4.3860    1.3132    0.0000 H   0  0  0  0  0  0  0  0  0  0  0  0
    3.9875    0.6229    0.0000 H   0  0  0  0  0  0  0  0  0  0  0  0
    4.9272    2.5406    0.0000 H   0  0  0  0  0  0  0  0  0  0  0  0
    7.7288    4.1268    0.0000 H   0  0  0  0  0  0  0  0  0  0  0  0
    7.1946    5.7710    0.0000 H   0  0  0  0  0  0  0  0  0  0  0  0
    1.4631   -3.4594    0.0000 H   0  0  0  0  0  0  0  0  0  0  0  0
    4.2690   -3.4594    0.0000 H   0  0  0  0  0  0  0  0  0  0  0  0
    5.4657    5.7710    0.0000 H   0  0  0  0  0  0  0  0  0  0  0  0
    1.4631   -5.0794    0.0000 H   0  0  0  0  0  0  0  0  0  0  0  0
    4.2690   -5.0794    0.0000 H   0  0  0  0  0  0  0  0  0  0  0  0
    2.8660   -5.8894    0.0000 H   0  0  0  0  0  0  0  0  0  0  0  0
  1  7  1  0  0  0  0
  1  9  1  0  0  0  0
  2  8  1  0  0  0  0
  2 13  1  0  0  0  0
  3 10  1  0  0  0  0
  3 17  1  0  0  0  0
  4 11  2  0  0  0  0
  5  6  1  0  0  0  0
  5 11  1  0  0  0  0
  5 29  1  0  0  0  0
  6 10  1  0  0  0  0
  6 21  1  0  0  0  0
  6 22  1  0  0  0  0
  7  8  1  0  0  0  0
  7 23  1  0  0  0  0
  7 24  1  0  0  0  0
  8 25  1  0  0  0  0
  8 26  1  0  0  0  0
  9 11  1  0  0  0  0
  9 27  1  0  0  0  0
  9 28  1  0  0  0  0
 10 12  2  0  0  0  0
 12 14  1  0  0  0  0
 12 30  1  0  0  0  0
 13 15  2  0  0  0  0
 13 16  1  0  0  0  0
 14 17  2  0  0  0  0
 14 31  1  0  0  0  0
 15 18  1  0  0  0  0
 15 32  1  0  0  0  0
 16 19  2  0  0  0  0
 16 33  1  0  0  0  0
 17 34  1  0  0  0  0
 18 20  2  0  0  0  0
 18 35  1  0  0  0  0
 19 20  1  0  0  0  0
 19 36  1  0  0  0  0
 20 37  1  0  0  0  0
M  END
> <PUBCHEM_COMPOUND_CID>
47205252

> <PUBCHEM_COMPOUND_CANONICALIZED>
1

> <PUBCHEM_CACTVS_COMPLEXITY>
279

> <PUBCHEM_CACTVS_HBOND_ACCEPTOR>
4

> <PUBCHEM_CACTVS_HBOND_DONOR>
1

> <PUBCHEM_CACTVS_ROTATABLE_BOND>
8

> <PUBCHEM_CACTVS_SUBSKEYS>
AAADceByOAAAAAAAAAAAAAAAAAAAASAAAAAwAAAAAAAAAAABwAAAHgAQAAAACAThkAYwBoLABECIAKlSkAKCCAAkIAAIiIHODMgPJjKEtT+HOSjk1hGaqYeYUQIAAAAAAAAAAAAAAAAAAAAAAAAAAAAAAA==

> <PUBCHEM_IUPAC_OPENEYE_NAME>
N-(2-furylmethyl)-2-(2-phenoxyethoxy)acetamide

> <PUBCHEM_IUPAC_CAS_NAME>
N-(2-furanylmethyl)-2-(2-phenoxyethoxy)acetamide

> <PUBCHEM_IUPAC_NAME>
N-(furan-2-ylmethyl)-2-(2-phenoxyethoxy)acetamide

> <PUBCHEM_IUPAC_SYSTEMATIC_NAME>
N-(furan-2-ylmethyl)-2-(2-phenoxyethoxy)ethanamide

> <PUBCHEM_IUPAC_TRADITIONAL_NAME>
N-(2-furfuryl)-2-(2-phenoxyethoxy)acetamide

> <PUBCHEM_IUPAC_INCHI>
InChI=1S/C15H17NO4/c17-15(16-11-14-7-4-8-19-14)12-18-9-10-20-13-5-2-1-3-6-13/h1-8H,9-12H2,(H,16,17)

> <PUBCHEM_IUPAC_INCHIKEY>
RQPSDBDJPCIQON-UHFFFAOYSA-N

> <PUBCHEM_XLOGP3_AA>
1.7

> <PUBCHEM_EXACT_MASS>
275.115758

> <PUBCHEM_MOLECULAR_FORMULA>
C15H17NO4

> <PUBCHEM_MOLECULAR_WEIGHT>
275.29978

> <PUBCHEM_OPENEYE_CAN_SMILES>
C1=CC=C(C=C1)OCCOCC(=O)NCC2=CC=CO2

> <PUBCHEM_OPENEYE_ISO_SMILES>
C1=CC=C(C=C1)OCCOCC(=O)NCC2=CC=CO2

> <PUBCHEM_CACTVS_TPSA>
60.7

> <PUBCHEM_MONOISOTOPIC_WEIGHT>
275.115758

> <PUBCHEM_TOTAL_CHARGE>
0

> <PUBCHEM_HEAVY_ATOM_COUNT>
20

> <PUBCHEM_ATOM_DEF_STEREO_COUNT>
0

> <PUBCHEM_ATOM_UDEF_STEREO_COUNT>
0

> <PUBCHEM_BOND_DEF_STEREO_COUNT>
0

> <PUBCHEM_BOND_UDEF_STEREO_COUNT>
0

> <PUBCHEM_ISOTOPIC_ATOM_COUNT>
0

> <PUBCHEM_COMPONENT_COUNT>
1

> <PUBCHEM_CACTVS_TAUTO_COUNT>
2

> <PUBCHEM_COORDINATE_TYPE>
1
5
255

> <PUBCHEM_BONDANNOTATIONS>
10  12  8
12  14  8
13  15  8
13  16  8
14  17  8
15  18  8
16  19  8
18  20  8
19  20  8
3  10  8
3  17  8

$$$$

