4060
  -OEChem-06251223513D

 30 31  0     1  0  0  0  0  0999 V2000
    0.9049    0.1455   -2.2647 O   0  0  0  0  0  0  0  0  0  0  0  0
    3.0337   -0.8952    1.6832 O   0  0  0  0  0  0  0  0  0  0  0  0
    1.0466    0.2277    1.2068 N   0  0  0  0  0  0  0  0  0  0  0  0
    2.2759   -0.5168   -0.4970 N   0  0  0  0  0  0  0  0  0  0  0  0
    0.2861    0.6562    0.0439 C   0  0  1  0  0  0  0  0  0  0  0  0
    0.3596    2.1846   -0.0654 C   0  0  0  0  0  0  0  0  0  0  0  0
    1.1687    0.0727   -1.0705 C   0  0  0  0  0  0  0  0  0  0  0  0
   -1.1068    0.0422    0.0404 C   0  0  0  0  0  0  0  0  0  0  0  0
    2.2243   -0.4479    0.8810 C   0  0  0  0  0  0  0  0  0  0  0  0
   -0.3326    2.8626    1.1041 C   0  0  0  0  0  0  0  0  0  0  0  0
   -1.3667   -1.1045    0.7920 C   0  0  0  0  0  0  0  0  0  0  0  0
   -2.1253    0.6251   -0.7148 C   0  0  0  0  0  0  0  0  0  0  0  0
    3.3368   -1.1637   -1.2428 C   0  0  0  0  0  0  0  0  0  0  0  0
   -2.6430   -1.6672    0.7884 C   0  0  0  0  0  0  0  0  0  0  0  0
   -3.4017    0.0624   -0.7181 C   0  0  0  0  0  0  0  0  0  0  0  0
   -3.6606   -1.0836    0.0336 C   0  0  0  0  0  0  0  0  0  0  0  0
   -0.0707    2.5450   -1.0069 H   0  0  0  0  0  0  0  0  0  0  0  0
    1.4078    2.5144   -0.0800 H   0  0  0  0  0  0  0  0  0  0  0  0
    0.7602    0.3996    2.1659 H   0  0  0  0  0  0  0  0  0  0  0  0
   -1.3958    2.6151    1.1648 H   0  0  0  0  0  0  0  0  0  0  0  0
    0.1353    2.6080    2.0599 H   0  0  0  0  0  0  0  0  0  0  0  0
   -0.2605    3.9499    0.9911 H   0  0  0  0  0  0  0  0  0  0  0  0
   -0.6003   -1.5990    1.3810 H   0  0  0  0  0  0  0  0  0  0  0  0
   -1.9550    1.5061   -1.3249 H   0  0  0  0  0  0  0  0  0  0  0  0
    3.4974   -0.6400   -2.1889 H   0  0  0  0  0  0  0  0  0  0  0  0
    3.0235   -2.1897   -1.4566 H   0  0  0  0  0  0  0  0  0  0  0  0
    4.2575   -1.1839   -0.6542 H   0  0  0  0  0  0  0  0  0  0  0  0
   -2.8442   -2.5619    1.3704 H   0  0  0  0  0  0  0  0  0  0  0  0
   -4.1931    0.5139   -1.3092 H   0  0  0  0  0  0  0  0  0  0  0  0
   -4.6539   -1.5228    0.0296 H   0  0  0  0  0  0  0  0  0  0  0  0
  1  7  2  0  0  0  0
  2  9  2  0  0  0  0
  3  5  1  0  0  0  0
  3  9  1  0  0  0  0
  3 19  1  0  0  0  0
  4  7  1  0  0  0  0
  4  9  1  0  0  0  0
  4 13  1  0  0  0  0
  5  6  1  0  0  0  0
  5  7  1  0  0  0  0
  5  8  1  0  0  0  0
  6 10  1  0  0  0  0
  6 17  1  0  0  0  0
  6 18  1  0  0  0  0
  8 11  2  0  0  0  0
  8 12  1  0  0  0  0
 10 20  1  0  0  0  0
 10 21  1  0  0  0  0
 10 22  1  0  0  0  0
 11 14  1  0  0  0  0
 11 23  1  0  0  0  0
 12 15  2  0  0  0  0
 12 24  1  0  0  0  0
 13 25  1  0  0  0  0
 13 26  1  0  0  0  0
 13 27  1  0  0  0  0
 14 16  2  0  0  0  0
 14 28  1  0  0  0  0
 15 16  1  0  0  0  0
 15 29  1  0  0  0  0
 16 30  1  0  0  0  0
M  END
> <PUBCHEM_COMPOUND_CID>
4060

> <PUBCHEM_CONFORMER_RMSD>
0.6

> <PUBCHEM_CONFORMER_DIVERSEORDER>
1
3
5
6
2
4

> <PUBCHEM_MMFF94_PARTIAL_CHARGES>
20
1 -0.57
11 -0.15
12 -0.15
13 0.3
14 -0.15
15 -0.15
16 -0.15
19 0.37
2 -0.57
23 0.15
24 0.15
28 0.15
29 0.15
3 -0.73
30 0.15
4 -0.42
5 0.5
7 0.57
8 -0.14
9 0.69

> <PUBCHEM_EFFECTIVE_ROTOR_COUNT>
2.6

> <PUBCHEM_PHARMACOPHORE_FEATURES>
6
1 1 acceptor
1 10 hydrophobe
1 2 acceptor
1 3 donor
5 3 4 5 7 9 rings
6 8 11 12 14 15 16 rings

> <PUBCHEM_HEAVY_ATOM_COUNT>
16

> <PUBCHEM_ATOM_DEF_STEREO_COUNT>
0

> <PUBCHEM_ATOM_UDEF_STEREO_COUNT>
1

> <PUBCHEM_BOND_DEF_STEREO_COUNT>
0

> <PUBCHEM_BOND_UDEF_STEREO_COUNT>
0

> <PUBCHEM_ISOTOPIC_ATOM_COUNT>
0

> <PUBCHEM_COMPONENT_COUNT>
1

> <PUBCHEM_CACTVS_TAUTO_COUNT>
2

> <PUBCHEM_CONFORMER_ID>
00000FDC00000001

> <PUBCHEM_MMFF94_ENERGY>
36.3611

> <PUBCHEM_FEATURE_SELFOVERLAP>
30.446

> <PUBCHEM_SHAPE_FINGERPRINT>
10130415 120 18341894091245566369
10465860 250 18341348741809603016
10465860 71 18060409235857214486
11471102 22 17530974570035043952
11578080 2 17344380871465711060
12251169 10 13840256026604461607
12326174 3 17899122828651001401
12423570 1 14466205505480102676
12725867 57 18186794755937906352
13296908 3 18259985985071271927
14115302 16 17989209252599405055
14128692 85 17775567532914185426
14817 1 13244922466595750868
16945 1 17988087797635586565
20233049 118 18059031586758782141
20361792 2 18113607980780332357
20645476 183 17203601567335097475
20645477 70 18121783829492448599
20711985 344 18118393175406361264
21524375 3 17036980217915107001
232386 152 18202014204384668506
23419403 2 17839506311929587028
23559900 14 18339928224948732726
25 1 13758353384029150110
2748010 2 17914340061511518267
3082319 5 16630524033457830759
31174 14 18048870798132724667
3286 77 18269567057098660215
528886 8 16056879113252941014
5845 1 10048653842725116313
68419 9 17912334788109119620
7364860 26 18119245056536972977
74978 22 18339356354189956227
77492 1 17560797800757421904
81228 2 18117836822602159385

> <PUBCHEM_SHAPE_MULTIPOLES>
307.57
5.21
2.02
1.53
1.22
1.73
0.23
-3.21
0.28
0.19
-0.61
-0.92
-0.18
0.43

> <PUBCHEM_SHAPE_SELFOVERLAP>
656.396

> <PUBCHEM_SHAPE_VOLUME>
172.9

> <PUBCHEM_COORDINATE_TYPE>
2
5
10

$$$$

