6724
  -OEChem-07051212472D

 20 22  0     0  0  0  0  0  0999 V2000
    2.7696    1.9108    0.0000 O   0  0  0  0  0  0  0  0  0  0  0  0
    4.8714    1.8694    0.0000 O   0  0  0  0  0  0  0  0  0  0  0  0
    3.8000   -0.3762    0.0000 C   0  0  0  0  0  0  0  0  0  0  0  0
    4.6660    0.1238    0.0000 C   0  0  0  0  0  0  0  0  0  0  0  0
    2.9061    0.1585    0.0000 C   0  0  0  0  0  0  0  0  0  0  0  0
    3.8000   -1.3762    0.0000 C   0  0  0  0  0  0  0  0  0  0  0  0
    4.3009    1.0482    0.0000 C   0  0  0  0  0  0  0  0  0  0  0  0
    3.3073    1.0677    0.0000 C   0  0  0  0  0  0  0  0  0  0  0  0
    5.5321   -0.3762    0.0000 C   0  0  0  0  0  0  0  0  0  0  0  0
    2.0000   -0.3554    0.0000 C   0  0  0  0  0  0  0  0  0  0  0  0
    4.6660   -1.8762    0.0000 C   0  0  0  0  0  0  0  0  0  0  0  0
    2.9061   -1.9108    0.0000 C   0  0  0  0  0  0  0  0  0  0  0  0
    2.0000   -1.3970    0.0000 C   0  0  0  0  0  0  0  0  0  0  0  0
    5.5321   -1.3762    0.0000 C   0  0  0  0  0  0  0  0  0  0  0  0
    6.0690   -0.0662    0.0000 H   0  0  0  0  0  0  0  0  0  0  0  0
    1.4643   -0.0433    0.0000 H   0  0  0  0  0  0  0  0  0  0  0  0
    4.6660   -2.4962    0.0000 H   0  0  0  0  0  0  0  0  0  0  0  0
    2.9132   -2.5308    0.0000 H   0  0  0  0  0  0  0  0  0  0  0  0
    6.0690   -1.6862    0.0000 H   0  0  0  0  0  0  0  0  0  0  0  0
    1.4643   -1.7090    0.0000 H   0  0  0  0  0  0  0  0  0  0  0  0
  1  8  2  0  0  0  0
  2  7  2  0  0  0  0
  3  4  1  0  0  0  0
  3  5  1  0  0  0  0
  3  6  2  0  0  0  0
  4  7  1  0  0  0  0
  4  9  2  0  0  0  0
  5  8  1  0  0  0  0
  5 10  2  0  0  0  0
  6 11  1  0  0  0  0
  6 12  1  0  0  0  0
  7  8  1  0  0  0  0
  9 14  1  0  0  0  0
  9 15  1  0  0  0  0
 10 13  1  0  0  0  0
 10 16  1  0  0  0  0
 11 14  2  0  0  0  0
 11 17  1  0  0  0  0
 12 13  2  0  0  0  0
 12 18  1  0  0  0  0
 13 20  1  0  0  0  0
 14 19  1  0  0  0  0
M  END
> <PUBCHEM_COMPOUND_CID>
6724

> <PUBCHEM_COMPOUND_CANONICALIZED>
1

> <PUBCHEM_CACTVS_COMPLEXITY>
267

> <PUBCHEM_CACTVS_HBOND_ACCEPTOR>
2

> <PUBCHEM_CACTVS_HBOND_DONOR>
0

> <PUBCHEM_CACTVS_ROTATABLE_BOND>
0

> <PUBCHEM_CACTVS_SUBSKEYS>
AAADcYBwMAAAAAAAAAAAAAAAAAAAAYAAAAAwYAAAAAAAAGDBUAAAGgAAAAAADASAmAAwAMAAAACIAqBSAAACAAAkAAAIiAEAAMgIIDKAFRCAIQAggAAIiYcIisCOgAACAAAQAAAAAAQAACAAAQAACAAAAA==

> <PUBCHEM_IUPAC_OPENEYE_NAME>
acenaphthylene-1,2-dione

> <PUBCHEM_IUPAC_CAS_NAME>
acenaphthylene-1,2-dione

> <PUBCHEM_IUPAC_NAME>
acenaphthylene-1,2-dione

> <PUBCHEM_IUPAC_SYSTEMATIC_NAME>
acenaphthylene-1,2-dione

> <PUBCHEM_IUPAC_TRADITIONAL_NAME>
acenaphthoquinone

> <PUBCHEM_IUPAC_INCHI>
InChI=1S/C12H6O2/c13-11-8-5-1-3-7-4-2-6-9(10(7)8)12(11)14/h1-6H

> <PUBCHEM_IUPAC_INCHIKEY>
AFPRJLBZLPBTPZ-UHFFFAOYSA-N

> <PUBCHEM_XLOGP3>
1.9

> <PUBCHEM_EXACT_MASS>
182.036779

> <PUBCHEM_MOLECULAR_FORMULA>
C12H6O2

> <PUBCHEM_MOLECULAR_WEIGHT>
182.17484

> <PUBCHEM_OPENEYE_CAN_SMILES>
C1=CC2=C3C(=C1)C(=O)C(=O)C3=CC=C2

> <PUBCHEM_OPENEYE_ISO_SMILES>
C1=CC2=C3C(=C1)C(=O)C(=O)C3=CC=C2

> <PUBCHEM_CACTVS_TPSA>
34.1

> <PUBCHEM_MONOISOTOPIC_WEIGHT>
182.036779

> <PUBCHEM_TOTAL_CHARGE>
0

> <PUBCHEM_HEAVY_ATOM_COUNT>
14

> <PUBCHEM_ATOM_DEF_STEREO_COUNT>
0

> <PUBCHEM_ATOM_UDEF_STEREO_COUNT>
0

> <PUBCHEM_BOND_DEF_STEREO_COUNT>
0

> <PUBCHEM_BOND_UDEF_STEREO_COUNT>
0

> <PUBCHEM_ISOTOPIC_ATOM_COUNT>
0

> <PUBCHEM_COMPONENT_COUNT>
1

> <PUBCHEM_CACTVS_TAUTO_COUNT>
1

> <PUBCHEM_COORDINATE_TYPE>
1
5
255

> <PUBCHEM_BONDANNOTATIONS>
10  13  8
11  14  8
12  13  8
3  4  8
3  5  8
3  6  8
4  9  8
5  10  8
6  11  8
6  12  8
9  14  8

$$$$

