10523
  -OEChem-06261204383D

 48 49  0     1  0  0  0  0  0999 V2000
    4.0031    0.5021   -1.8341 O   0  5  0  0  0  0  0  0  0  0  0  0
   -0.6128    0.5454    0.4606 O   0  0  0  0  0  0  0  0  0  0  0  0
   -4.0925    0.6223    0.5518 O   0  0  0  0  0  0  0  0  0  0  0  0
   -2.0183    0.2162    2.2507 O   0  0  0  0  0  0  0  0  0  0  0  0
   -3.6556   -2.0185    0.9572 O   0  0  0  0  0  0  0  0  0  0  0  0
    3.7083    0.1516   -0.5503 N   0  3  2  0  0  0  0  0  0  0  0  0
    2.2054   -0.0729   -0.3651 C   0  0  2  0  0  0  0  0  0  0  0  0
    1.7334    1.0542    0.5559 C   0  0  2  0  0  0  0  0  0  0  0  0
    4.0883    1.2554    0.4098 C   0  0  0  0  0  0  0  0  0  0  0  0
    2.0661   -1.5045    0.1512 C   0  0  0  0  0  0  0  0  0  0  0  0
    4.3613   -1.1646   -0.1980 C   0  0  0  0  0  0  0  0  0  0  0  0
    2.9593    1.3211    1.4209 C   0  0  0  0  0  0  0  0  0  0  0  0
    3.2812   -2.1996   -0.4286 C   0  0  0  0  0  0  0  0  0  0  0  0
    0.4765    0.7703    1.3609 C   0  0  0  0  0  0  0  0  0  0  0  0
   -2.8999    0.0619   -0.0212 C   0  0  2  0  0  0  0  0  0  0  0  0
   -1.8166    0.2760    1.0433 C   0  0  0  0  0  0  0  0  0  0  0  0
   -2.6088    0.8815   -1.3142 C   0  0  0  0  0  0  0  0  0  0  0  0
   -3.1515   -1.4494   -0.2575 C   0  0  1  0  0  0  0  0  0  0  0  0
   -2.5061    2.3954   -1.1072 C   0  0  0  0  0  0  0  0  0  0  0  0
   -3.6185    0.5920   -2.4375 C   0  0  0  0  0  0  0  0  0  0  0  0
   -1.9025   -2.2359   -0.6487 C   0  0  0  0  0  0  0  0  0  0  0  0
    1.7498    0.0131   -1.3599 H   0  0  0  0  0  0  0  0  0  0  0  0
    1.5477    1.9361   -0.0743 H   0  0  0  0  0  0  0  0  0  0  0  0
    4.1372    2.1776   -0.1811 H   0  0  0  0  0  0  0  0  0  0  0  0
    5.0715    1.0452    0.8390 H   0  0  0  0  0  0  0  0  0  0  0  0
    1.1336   -1.9700   -0.1755 H   0  0  0  0  0  0  0  0  0  0  0  0
    2.1079   -1.5548    1.2446 H   0  0  0  0  0  0  0  0  0  0  0  0
    4.6471   -1.1272    0.8588 H   0  0  0  0  0  0  0  0  0  0  0  0
    5.2465   -1.2971   -0.8263 H   0  0  0  0  0  0  0  0  0  0  0  0
    3.0828    0.5467    2.1866 H   0  0  0  0  0  0  0  0  0  0  0  0
    2.9153    2.2929    1.9213 H   0  0  0  0  0  0  0  0  0  0  0  0
    3.4996   -3.1494    0.0667 H   0  0  0  0  0  0  0  0  0  0  0  0
    3.1436   -2.3864   -1.4997 H   0  0  0  0  0  0  0  0  0  0  0  0
    0.2427    1.6412    1.9856 H   0  0  0  0  0  0  0  0  0  0  0  0
    0.5986   -0.0974    2.0179 H   0  0  0  0  0  0  0  0  0  0  0  0
   -1.6367    0.5604   -1.7128 H   0  0  0  0  0  0  0  0  0  0  0  0
   -3.9386   -1.6118   -0.9994 H   0  0  0  0  0  0  0  0  0  0  0  0
   -1.7612    2.6621   -0.3527 H   0  0  0  0  0  0  0  0  0  0  0  0
   -2.2144    2.8930   -2.0388 H   0  0  0  0  0  0  0  0  0  0  0  0
   -3.4666    2.8186   -0.7942 H   0  0  0  0  0  0  0  0  0  0  0  0
   -3.5515   -0.4429   -2.7853 H   0  0  0  0  0  0  0  0  0  0  0  0
   -4.6467    0.7899   -2.1193 H   0  0  0  0  0  0  0  0  0  0  0  0
   -3.4154    1.2249   -3.3090 H   0  0  0  0  0  0  0  0  0  0  0  0
   -4.8585    0.2760    0.0636 H   0  0  0  0  0  0  0  0  0  0  0  0
   -1.4283   -1.8292   -1.5457 H   0  0  0  0  0  0  0  0  0  0  0  0
   -2.1684   -3.2805   -0.8457 H   0  0  0  0  0  0  0  0  0  0  0  0
   -1.1752   -2.2599    0.1684 H   0  0  0  0  0  0  0  0  0  0  0  0
   -4.4613   -1.5306    1.1981 H   0  0  0  0  0  0  0  0  0  0  0  0
  1  6  1  0  0  0  0
  2 14  1  0  0  0  0
  2 16  1  0  0  0  0
  3 15  1  0  0  0  0
  3 44  1  0  0  0  0
  4 16  2  0  0  0  0
  5 18  1  0  0  0  0
  5 48  1  0  0  0  0
  6  7  1  0  0  0  0
  6  9  1  0  0  0  0
  6 11  1  0  0  0  0
  7  8  1  0  0  0  0
  7 10  1  0  0  0  0
  7 22  1  0  0  0  0
  8 12  1  0  0  0  0
  8 14  1  0  0  0  0
  8 23  1  0  0  0  0
  9 12  1  0  0  0  0
  9 24  1  0  0  0  0
  9 25  1  0  0  0  0
 10 13  1  0  0  0  0
 10 26  1  0  0  0  0
 10 27  1  0  0  0  0
 11 13  1  0  0  0  0
 11 28  1  0  0  0  0
 11 29  1  0  0  0  0
 12 30  1  0  0  0  0
 12 31  1  0  0  0  0
 13 32  1  0  0  0  0
 13 33  1  0  0  0  0
 14 34  1  0  0  0  0
 14 35  1  0  0  0  0
 15 16  1  0  0  0  0
 15 17  1  0  0  0  0
 15 18  1  0  0  0  0
 17 19  1  0  0  0  0
 17 20  1  0  0  0  0
 17 36  1  0  0  0  0
 18 21  1  0  0  0  0
 18 37  1  0  0  0  0
 19 38  1  0  0  0  0
 19 39  1  0  0  0  0
 19 40  1  0  0  0  0
 20 41  1  0  0  0  0
 20 42  1  0  0  0  0
 20 43  1  0  0  0  0
 21 45  1  0  0  0  0
 21 46  1  0  0  0  0
 21 47  1  0  0  0  0
M  CHG  2   1  -1   6   1
M  END
> <PUBCHEM_COMPOUND_CID>
10523

> <PUBCHEM_CONFORMER_RMSD>
0.8

> <PUBCHEM_CONFORMER_DIVERSEORDER>
1
335
169
66
82
344
245
88
32
451
443
61
307
264
304
236
28
396
281
75
270
387
400
218
419
237
25
271
60
408
150
398
391
130
128
21
314
83
67
223
257
14
367
415
98
239
108
427
283
422
326
177
368
438
79
7
233
374
350
349
146
417
352
112
155
364
433
231
188
275
168
310
450
426
182
199
347
202
68
164
221
434
159
363
134
308
11
76
348
384
382
35
129
92
260
435
337
190
397
53
30
411
273
321
193
184
388
74
369
47
220
277
180
200
41
174
448
278
54
252
432
336
306
90
38
403
122
359
365
115
261
228
170
393
20
410
265
197
339
445
24
126
282
424
15
449
49
404
315
13
84
219
395
36
267
383
345
195
334
70
43
157
379
133
175
429
87
251
65
442
225
401
354
194
96
416
392
9
45
394
48
136
103
58
238
34
341
358
211
213
286
191
371
244
329
101
378
105
440
172
405
258
279
253
328
303
2
3
263
375
305
99
437
406
412
46
289
162
322
121
73
104
288
313
227
224
255
413
201
138
89
52
407
178
154
161
284
248
149
100
439
132
12
293
428
447
420
51
247
131
63
163
165
125
266
106
203
418
320
370
254
55
145
26
29
81
431
44
319
72
217
409
37
377
425
215
376
77
42
274
17
240
196
148
158
143
64
269
323
144
210
94
436
294
331
250
97
290
206
241
19
291
234
153
360
85
22
242
333
296
246
332
256
192
151
295
181
316
292
362
139
95
229
243
140
93
324
389
187
216
198
10
186
102
373
346
302
86
207
356
183
381
23
317
40
232
114
27
179
357
301
209
69
259
166
402
330
50
262
214
222
189
18
276
423
366
110
127
340
78
205
380
372
62
173
71
249
176
343
141
272
109
399
113
287
171
311
235
204
116
325
353
4
124
56
299
120
226
421
167
318
230
152
385
351
31
80
185
327
212
156
444
137
280
117
135
6
342
57
386
298
16
33
285
59
300
390
414
39
107
361
312
111
8
91
446
268
147
142
355
441
430
160
309
338
297
208
5
119
123
118

> <PUBCHEM_MMFF94_PARTIAL_CHARGES>
15
1 -0.75
11 0.26
14 0.28
15 0.34
16 0.66
18 0.28
2 -0.43
3 -0.68
4 -0.57
44 0.4
48 0.4
5 -0.68
6 -0.02
7 0.26
9 0.26

> <PUBCHEM_EFFECTIVE_ROTOR_COUNT>
7.2

> <PUBCHEM_PHARMACOPHORE_FEATURES>
9
1 1 anion
1 3 acceptor
1 3 donor
1 4 acceptor
1 5 acceptor
1 5 donor
3 17 19 20 hydrophobe
5 6 7 10 11 13 rings
5 6 7 8 9 12 rings

> <PUBCHEM_HEAVY_ATOM_COUNT>
21

> <PUBCHEM_ATOM_DEF_STEREO_COUNT>
3

> <PUBCHEM_ATOM_UDEF_STEREO_COUNT>
2

> <PUBCHEM_BOND_DEF_STEREO_COUNT>
0

> <PUBCHEM_BOND_UDEF_STEREO_COUNT>
0

> <PUBCHEM_ISOTOPIC_ATOM_COUNT>
0

> <PUBCHEM_COMPONENT_COUNT>
1

> <PUBCHEM_CACTVS_TAUTO_COUNT>
1

> <PUBCHEM_CONFORMER_ID>
0000291B00000001

> <PUBCHEM_MMFF94_ENERGY>
55.4345

> <PUBCHEM_FEATURE_SELFOVERLAP>
46.082

> <PUBCHEM_SHAPE_FINGERPRINT>
10498660 4 17703520960042122261
11759241 127 18056764226041395364
12173636 292 18337111267399708901
12553582 1 16081089246905534640
12596599 1 16298109769653465495
12707595 3 17748826310989578840
128620 24 18339359673777617874
13224815 77 18272373061795276970
13296908 3 18187087225999045088
14251751 93 18130509720630430259
14289901 80 18060415815878668654
15788980 27 17846502551993484378
18186145 218 18333448742437900040
19433438 38 18343023268048984018
19862831 5 18114186366666860682
200 152 17458352930900945633
20442098 301 16298383578366798740
20645477 70 17530970180800253988
21475661 188 11884621885391475543
21713013 43 18411414003487582502
221490 88 18335415760371895218
22646028 28 16371020589057149845
23402539 116 17418384588515884980
235170 7 18343026549309098204
23557571 272 18130799914564760177
23559900 14 18334863818472167400
312425 83 17703784851660100142
3268164 11 17346605153481231549
3472631 163 16917078788633367621
4028521 119 17489034867520318317
4921388 177 18131633374648977435
5161694 15 18059013998556286830
5281201 14 17917141801564053748

> <PUBCHEM_SHAPE_MULTIPOLES>
397.84
9.17
2.2
1.74
2.87
0.82
0.28
0.65
2.17
-0.17
0.13
-1.23
-0.54
1.18

> <PUBCHEM_SHAPE_SELFOVERLAP>
808.998

> <PUBCHEM_SHAPE_VOLUME>
232.2

> <PUBCHEM_COORDINATE_TYPE>
2
5
10

$$$$

