688084
  -OEChem-07051212503D

 29 29  0     1  0  0  0  0  0999 V2000
    2.0598   -1.3806   -1.9053 O   0  0  0  0  0  0  0  0  0  0  0  0
   -2.3460    1.2383   -1.0628 O   0  0  0  0  0  0  0  0  0  0  0  0
   -3.4632   -0.4079    0.8775 O   0  0  0  0  0  0  0  0  0  0  0  0
    2.7348    0.7663    1.0643 N   0  0  0  0  0  0  0  0  0  0  0  0
    1.9713   -0.9761   -0.5326 C   0  0  2  0  0  0  0  0  0  0  0  0
    0.5349   -0.8235   -0.1622 C   0  0  0  0  0  0  0  0  0  0  0  0
    2.7678    0.3282   -0.3292 C   0  0  0  0  0  0  0  0  0  0  0  0
   -0.2478    0.1458   -0.7895 C   0  0  0  0  0  0  0  0  0  0  0  0
   -0.0259   -1.6496    0.8119 C   0  0  0  0  0  0  0  0  0  0  0  0
   -1.5914    0.2889   -0.4427 C   0  0  0  0  0  0  0  0  0  0  0  0
   -1.3693   -1.5066    1.1587 C   0  0  0  0  0  0  0  0  0  0  0  0
   -2.1520   -0.5374    0.5314 C   0  0  0  0  0  0  0  0  0  0  0  0
    3.5118    1.9836    1.2413 C   0  0  0  0  0  0  0  0  0  0  0  0
   -2.3850    2.5308   -0.4607 C   0  0  0  0  0  0  0  0  0  0  0  0
    2.4360   -1.7760    0.0577 H   0  0  0  0  0  0  0  0  0  0  0  0
    2.3894    1.1166   -0.9918 H   0  0  0  0  0  0  0  0  0  0  0  0
    3.8051    0.1492   -0.6426 H   0  0  0  0  0  0  0  0  0  0  0  0
    0.1716    0.7883   -1.5596 H   0  0  0  0  0  0  0  0  0  0  0  0
    0.5708   -2.4092    1.3100 H   0  0  0  0  0  0  0  0  0  0  0  0
    3.1132    0.0317    1.6617 H   0  0  0  0  0  0  0  0  0  0  0  0
   -1.7934   -2.1569    1.9191 H   0  0  0  0  0  0  0  0  0  0  0  0
    3.0030   -1.4831   -2.1186 H   0  0  0  0  0  0  0  0  0  0  0  0
    3.1088    2.8031    0.6374 H   0  0  0  0  0  0  0  0  0  0  0  0
    4.5646    1.8311    0.9820 H   0  0  0  0  0  0  0  0  0  0  0  0
    3.4661    2.2957    2.2893 H   0  0  0  0  0  0  0  0  0  0  0  0
   -3.6749   -1.0613    1.5661 H   0  0  0  0  0  0  0  0  0  0  0  0
   -1.3827    2.9699   -0.4310 H   0  0  0  0  0  0  0  0  0  0  0  0
   -2.8001    2.4728    0.5504 H   0  0  0  0  0  0  0  0  0  0  0  0
   -3.0301    3.1720   -1.0674 H   0  0  0  0  0  0  0  0  0  0  0  0
  1  5  1  0  0  0  0
  1 22  1  0  0  0  0
  2 10  1  0  0  0  0
  2 14  1  0  0  0  0
  3 12  1  0  0  0  0
  3 26  1  0  0  0  0
  4  7  1  0  0  0  0
  4 13  1  0  0  0  0
  4 20  1  0  0  0  0
  5  6  1  0  0  0  0
  5  7  1  0  0  0  0
  5 15  1  0  0  0  0
  6  8  2  0  0  0  0
  6  9  1  0  0  0  0
  7 16  1  0  0  0  0
  7 17  1  0  0  0  0
  8 10  1  0  0  0  0
  8 18  1  0  0  0  0
  9 11  2  0  0  0  0
  9 19  1  0  0  0  0
 10 12  2  0  0  0  0
 11 12  1  0  0  0  0
 11 21  1  0  0  0  0
 13 23  1  0  0  0  0
 13 24  1  0  0  0  0
 13 25  1  0  0  0  0
 14 27  1  0  0  0  0
 14 28  1  0  0  0  0
 14 29  1  0  0  0  0
M  END
> <PUBCHEM_COMPOUND_CID>
688084

> <PUBCHEM_CONFORMER_RMSD>
0.6

> <PUBCHEM_CONFORMER_DIVERSEORDER>
4
7
22
31
21
26
23
17
29
19
11
13
28
30
18
14
9
10
3
20
6
5
27
25
2
12
15
8
16
24
1

> <PUBCHEM_MMFF94_PARTIAL_CHARGES>
20
1 -0.68
10 0.08
11 -0.15
12 0.08
13 0.27
14 0.28
18 0.15
19 0.15
2 -0.36
20 0.36
21 0.15
22 0.4
26 0.45
3 -0.53
4 -0.9
5 0.42
6 -0.14
7 0.27
8 -0.15
9 -0.15

> <PUBCHEM_EFFECTIVE_ROTOR_COUNT>
4

> <PUBCHEM_PHARMACOPHORE_FEATURES>
7
1 1 acceptor
1 1 donor
1 2 acceptor
1 3 donor
1 4 cation
1 4 donor
6 6 8 9 10 11 12 rings

> <PUBCHEM_HEAVY_ATOM_COUNT>
14

> <PUBCHEM_ATOM_DEF_STEREO_COUNT>
1

> <PUBCHEM_ATOM_UDEF_STEREO_COUNT>
0

> <PUBCHEM_BOND_DEF_STEREO_COUNT>
0

> <PUBCHEM_BOND_UDEF_STEREO_COUNT>
0

> <PUBCHEM_ISOTOPIC_ATOM_COUNT>
0

> <PUBCHEM_COMPONENT_COUNT>
1

> <PUBCHEM_CACTVS_TAUTO_COUNT>
3

> <PUBCHEM_CONFORMER_ID>
000A7FD400000004

> <PUBCHEM_MMFF94_ENERGY>
40.9155

> <PUBCHEM_FEATURE_SELFOVERLAP>
35.52

> <PUBCHEM_SHAPE_FINGERPRINT>
10857977 72 18059848424781532571
11221954 11 18335432304206553000
12932764 1 18335976549334410950
13083527 12 16972232168583535211
13294875 104 17767415942842683944
13764800 53 18201431540858490481
13839132 238 18341897423929132988
15219456 202 18408603682163904910
15279308 16 18409175393834941720
15775835 57 16588299428618999608
15852999 172 17201668703176193119
16945 1 17916852565534277939
17846911 113 18202286866478507523
18380122 1 18264199227814082930
19049666 15 18339355391737454162
19786989 88 17749108880961540390
20388701 513 18201717310691344097
20510252 161 18272923921400117697
20645464 45 18411700980417580530
20653085 51 17824265023579146405
21296965 12 18116725019088614030
21486144 27 17968362485913534466
21524375 3 17840590628178756557
21639500 275 17458350714993226656
21947302 44 18262811768857301120
22802520 49 18117550941046641756
23211744 41 18408887330162238118
23402539 116 18199202697697730447
23557571 272 18269824342281723359
25610 171 17987504931834437458
27216 239 18048614620302813360
2748010 2 17773309252475255815
6049 1 18336531819917578780
7364860 26 17837783578940391219
8050 44 18335147491929139344
81228 2 18059560374531697251

> <PUBCHEM_SHAPE_MULTIPOLES>
265.52
5.25
2.18
1.37
1.71
1.1
-0.16
2.61
1.24
-0.42
0.21
0.64
-0.17
1.78

> <PUBCHEM_SHAPE_SELFOVERLAP>
539.263

> <PUBCHEM_SHAPE_VOLUME>
156.1

> <PUBCHEM_COORDINATE_TYPE>
2
5
10

$$$$

