5165
  -OEChem-06261200333D

 31 32  0     0  0  0  0  0  0999 V2000
   -2.8893    0.7610   -2.8689 Br  0  0  0  0  0  0  0  0  0  0  0  0
    2.4765   -2.6326   -1.0831 O   0  0  0  0  0  0  0  0  0  0  0  0
    4.5875    2.6056    0.7481 O   0  0  0  0  0  0  0  0  0  0  0  0
    5.8751    1.0221   -0.4645 O   0  0  0  0  0  0  0  0  0  0  0  0
   -1.3009   -1.5271    1.8210 O   0  0  0  0  0  0  0  0  0  0  0  0
   -1.7589   -0.6419   -0.2783 N   0  0  0  0  0  0  0  0  0  0  0  0
    0.1685   -1.7956    0.0559 N   0  0  0  0  0  0  0  0  0  0  0  0
    4.6910    1.3836    0.1300 N   0  0  0  0  0  0  0  0  0  0  0  0
    1.2063   -1.0291    0.0895 C   0  0  0  0  0  0  0  0  0  0  0  0
    3.6092    0.5465    0.0749 C   0  0  0  0  0  0  0  0  0  0  0  0
   -3.0122   -0.0147   -0.0897 C   0  0  0  0  0  0  0  0  0  0  0  0
    2.4685   -1.5317   -0.5544 C   0  0  0  0  0  0  0  0  0  0  0  0
    1.2394    0.3061    0.7173 C   0  0  0  0  0  0  0  0  0  0  0  0
    3.6599   -0.6587   -0.5179 C   0  0  0  0  0  0  0  0  0  0  0  0
    2.3761    1.0102    0.6905 C   0  0  0  0  0  0  0  0  0  0  0  0
   -3.6447    0.6469   -1.1312 C   0  0  0  0  0  0  0  0  0  0  0  0
   -3.5867   -0.0830    1.1712 C   0  0  0  0  0  0  0  0  0  0  0  0
   -0.9937   -1.3399    0.6466 C   0  0  0  0  0  0  0  0  0  0  0  0
   -4.8803    1.2543   -0.9074 C   0  0  0  0  0  0  0  0  0  0  0  0
   -4.8223    0.5246    1.3949 C   0  0  0  0  0  0  0  0  0  0  0  0
   -5.4690    1.1934    0.3556 C   0  0  0  0  0  0  0  0  0  0  0  0
    0.3614    0.7183    1.1985 H   0  0  0  0  0  0  0  0  0  0  0  0
    4.5564   -1.0466   -0.9891 H   0  0  0  0  0  0  0  0  0  0  0  0
    2.3576    1.9871    1.1651 H   0  0  0  0  0  0  0  0  0  0  0  0
   -1.3731   -0.5698   -1.2169 H   0  0  0  0  0  0  0  0  0  0  0  0
   -3.1647   -0.5748    2.0334 H   0  0  0  0  0  0  0  0  0  0  0  0
   -5.3998    1.7800   -1.7045 H   0  0  0  0  0  0  0  0  0  0  0  0
   -5.2822    0.4781    2.3779 H   0  0  0  0  0  0  0  0  0  0  0  0
   -6.4309    1.6664    0.5300 H   0  0  0  0  0  0  0  0  0  0  0  0
    5.4494    2.6759    1.1922 H   0  0  0  0  0  0  0  0  0  0  0  0
    6.0589    1.7949   -1.0250 H   0  0  0  0  0  0  0  0  0  0  0  0
  1 16  1  0  0  0  0
  2 12  2  0  0  0  0
  3  8  1  0  0  0  0
  3 30  1  0  0  0  0
  4  8  1  0  0  0  0
  4 31  1  0  0  0  0
  5 18  2  0  0  0  0
  6 11  1  0  0  0  0
  6 18  1  0  0  0  0
  6 25  1  0  0  0  0
  7  9  2  0  0  0  0
  7 18  1  0  0  0  0
  8 10  1  0  0  0  0
  9 12  1  0  0  0  0
  9 13  1  0  0  0  0
 10 14  2  0  0  0  0
 10 15  1  0  0  0  0
 11 16  1  0  0  0  0
 11 17  2  0  0  0  0
 12 14  1  0  0  0  0
 13 15  2  0  0  0  0
 13 22  1  0  0  0  0
 14 23  1  0  0  0  0
 15 24  1  0  0  0  0
 16 19  2  0  0  0  0
 17 20  1  0  0  0  0
 17 26  1  0  0  0  0
 19 21  1  0  0  0  0
 19 27  1  0  0  0  0
 20 21  2  0  0  0  0
 20 28  1  0  0  0  0
 21 29  1  0  0  0  0
M  END
> <PUBCHEM_COMPOUND_CID>
5165

> <PUBCHEM_CONFORMER_RMSD>
0.6

> <PUBCHEM_CONFORMER_DIVERSEORDER>
2
31
15
24
30
38
29
6
21
32
35
40
10
7
9
14
39
33
5
27
22
11
23
16
13
28
20
19
8
12
26
37
34
1
25
36
17
18
3
4

> <PUBCHEM_MMFF94_PARTIAL_CHARGES>
31
1 -0.11
10 0.1
11 0.12
12 0.56
13 -0.14
14 -0.14
15 -0.15
16 0.11
17 -0.15
18 0.84
19 -0.15
2 -0.57
20 -0.15
21 -0.15
22 0.15
23 0.15
24 0.15
25 0.37
26 0.15
27 0.15
28 0.15
29 0.15
3 -0.38
30 0.4
31 0.4
4 -0.38
5 -0.57
6 -0.55
7 -0.66
8 -0.14
9 0.44

> <PUBCHEM_EFFECTIVE_ROTOR_COUNT>
4

> <PUBCHEM_PHARMACOPHORE_FEATURES>
12
1 1 hydrophobe
1 2 acceptor
1 3 acceptor
1 3 anion
1 4 acceptor
1 4 anion
1 5 acceptor
1 6 donor
1 7 acceptor
1 7 donor
6 11 16 17 19 20 21 rings
6 9 10 12 13 14 15 rings

> <PUBCHEM_HEAVY_ATOM_COUNT>
21

> <PUBCHEM_ATOM_DEF_STEREO_COUNT>
0

> <PUBCHEM_ATOM_UDEF_STEREO_COUNT>
0

> <PUBCHEM_BOND_DEF_STEREO_COUNT>
0

> <PUBCHEM_BOND_UDEF_STEREO_COUNT>
1

> <PUBCHEM_ISOTOPIC_ATOM_COUNT>
0

> <PUBCHEM_COMPONENT_COUNT>
1

> <PUBCHEM_CACTVS_TAUTO_COUNT>
2

> <PUBCHEM_CONFORMER_ID>
0000142D00000002

> <PUBCHEM_MMFF94_ENERGY>
61.2497

> <PUBCHEM_FEATURE_SELFOVERLAP>
61.077

> <PUBCHEM_SHAPE_FINGERPRINT>
10319926 262 16630253618005771546
10803635 8 14996280327518917357
11595378 159 15554447418159623959
11796584 16 6194568779286244268
12236239 1 16878226458365051143
12403259 415 17917711365471854703
12730499 353 18409439297837025283
12769317 202 18333736805868264256
12788726 201 16298655200693814555
12892183 10 15841562906668997889
13402501 40 18273497870612193125
14848178 96 18114750309117106240
15081414 286 18410565215002955732
16752209 62 14634866500572554783
17870717 6 4967610577455687925
18186145 218 18341612667803539267
20612939 158 18187080714802497294
20645477 56 18130787845437418651
20645477 70 18114735023391737910
20871999 31 14345791660899062411
21033648 29 17846503668337075261
22393880 68 16371018368558947100
22849339 104 14996294578616149085
231179 274 18273498974629200106
23402655 69 17894631460984650542
23559900 14 16485285282565335651
2838139 119 18335147487808258148
2916195 48 18343584031901072369
3004659 81 16009306646875948350
341906 21 16558751269140274119
4072396 5 18261965124120303858
4259306 186 8142091956945537832
4325135 7 18334575699418660367
474 4 18334577936342000785
5104073 3 18343300361937825771
574716 61 17676217861600014965
633830 44 18264489653914010675
7808743 9 17416951864439854478

> <PUBCHEM_SHAPE_MULTIPOLES>
399.69
12.36
2.03
1.71
1.74
0.21
0.9
-7.53
-1.02
1.91
0.08
-1.78
-0.31
2.08

> <PUBCHEM_SHAPE_SELFOVERLAP>
841.922

> <PUBCHEM_SHAPE_VOLUME>
226.9

> <PUBCHEM_COORDINATE_TYPE>
2
5
10

$$$$

