3402
  -OEChem-06251223233D

 58 61  0     1  0  0  0  0  0999 V2000
    5.5324    1.3980   -2.0974 F   0  0  0  0  0  0  0  0  0  0  0  0
    0.3100    0.4693    0.7659 O   0  0  0  0  0  0  0  0  0  0  0  0
   -0.8035   -1.3726    1.5758 O   0  0  0  0  0  0  0  0  0  0  0  0
   -0.9677   -0.0507   -1.3973 O   0  0  0  0  0  0  0  0  0  0  0  0
    4.1972   -0.3855   -0.3374 N   0  3  0  0  0  0  0  0  0  0  0  0
    3.3859   -1.6142    0.1237 C   0  0  1  0  0  0  0  0  0  0  0  0
    4.0849    0.4964    0.9237 C   0  0  2  0  0  0  0  0  0  0  0  0
    3.9261   -1.8664    1.5411 C   0  0  0  0  0  0  0  0  0  0  0  0
    4.3803   -0.4961    2.0604 C   0  0  0  0  0  0  0  0  0  0  0  0
    1.8902   -1.2547    0.1761 C   0  0  0  0  0  0  0  0  0  0  0  0
    2.6505    1.0410    1.0463 C   0  0  0  0  0  0  0  0  0  0  0  0
    1.5867   -0.0651    1.0999 C   0  0  0  0  0  0  0  0  0  0  0  0
    3.5393    0.2941   -1.5550 C   0  0  0  0  0  0  0  0  0  0  0  0
    5.6268   -0.6906   -0.7807 C   0  0  0  0  0  0  0  0  0  0  0  0
    4.2215    1.6188   -1.8099 C   0  0  0  0  0  0  0  0  0  0  0  0
   -0.7428   -0.4108    0.8190 C   0  0  0  0  0  0  0  0  0  0  0  0
   -1.8044   -0.0482   -0.2226 C   0  0  0  0  0  0  0  0  0  0  0  0
   -2.4284    1.3347   -0.0200 C   0  0  0  0  0  0  0  0  0  0  0  0
   -2.8873   -1.1207   -0.3601 C   0  0  0  0  0  0  0  0  0  0  0  0
   -2.6818    1.7612    1.2631 C   0  0  0  0  0  0  0  0  0  0  0  0
   -4.0850   -0.9347    0.2911 C   0  0  0  0  0  0  0  0  0  0  0  0
   -2.7122    2.0978   -1.1290 C   0  0  0  0  0  0  0  0  0  0  0  0
   -2.6217   -2.2301   -1.1293 C   0  0  0  0  0  0  0  0  0  0  0  0
   -3.2510    3.0212    1.4478 C   0  0  0  0  0  0  0  0  0  0  0  0
   -5.0720   -1.9125    0.1661 C   0  0  0  0  0  0  0  0  0  0  0  0
   -3.2812    3.3579   -0.9445 C   0  0  0  0  0  0  0  0  0  0  0  0
   -3.6086   -3.2079   -1.2543 C   0  0  0  0  0  0  0  0  0  0  0  0
   -3.5506    3.8196    0.3440 C   0  0  0  0  0  0  0  0  0  0  0  0
   -4.8338   -3.0490   -0.6066 C   0  0  0  0  0  0  0  0  0  0  0  0
    3.5799   -2.4426   -0.5657 H   0  0  0  0  0  0  0  0  0  0  0  0
    4.8265    1.3003    0.8812 H   0  0  0  0  0  0  0  0  0  0  0  0
    3.1829   -2.3281    2.1998 H   0  0  0  0  0  0  0  0  0  0  0  0
    4.7826   -2.5497    1.5083 H   0  0  0  0  0  0  0  0  0  0  0  0
    5.4581   -0.5250    2.2609 H   0  0  0  0  0  0  0  0  0  0  0  0
    3.8883   -0.2257    3.0005 H   0  0  0  0  0  0  0  0  0  0  0  0
    1.4718   -1.1254   -0.8275 H   0  0  0  0  0  0  0  0  0  0  0  0
    1.3611   -2.1393    0.5557 H   0  0  0  0  0  0  0  0  0  0  0  0
    2.5744    1.6256    1.9738 H   0  0  0  0  0  0  0  0  0  0  0  0
    2.4071    1.7724    0.2693 H   0  0  0  0  0  0  0  0  0  0  0  0
    1.5368   -0.4211    2.1379 H   0  0  0  0  0  0  0  0  0  0  0  0
    2.4766    0.4772   -1.4099 H   0  0  0  0  0  0  0  0  0  0  0  0
    3.6506   -0.3894   -2.4044 H   0  0  0  0  0  0  0  0  0  0  0  0
    6.2682    0.1684   -0.5708 H   0  0  0  0  0  0  0  0  0  0  0  0
    5.6436   -0.9990   -1.8298 H   0  0  0  0  0  0  0  0  0  0  0  0
    5.9961   -1.5242   -0.1762 H   0  0  0  0  0  0  0  0  0  0  0  0
    4.1699    2.3341   -0.9874 H   0  0  0  0  0  0  0  0  0  0  0  0
    3.7781    2.0992   -2.6876 H   0  0  0  0  0  0  0  0  0  0  0  0
   -1.4613   -0.3834   -2.1643 H   0  0  0  0  0  0  0  0  0  0  0  0
   -2.4598    1.1539    2.1351 H   0  0  0  0  0  0  0  0  0  0  0  0
   -4.3268   -0.0913    0.9219 H   0  0  0  0  0  0  0  0  0  0  0  0
   -2.5223    1.7535   -2.1402 H   0  0  0  0  0  0  0  0  0  0  0  0
   -1.6680   -2.3990   -1.6188 H   0  0  0  0  0  0  0  0  0  0  0  0
   -3.4620    3.3803    2.4509 H   0  0  0  0  0  0  0  0  0  0  0  0
   -6.0243   -1.7925    0.6745 H   0  0  0  0  0  0  0  0  0  0  0  0
   -3.5175    3.9786   -1.8039 H   0  0  0  0  0  0  0  0  0  0  0  0
   -3.4207   -4.0968   -1.8494 H   0  0  0  0  0  0  0  0  0  0  0  0
   -3.9946    4.8002    0.4876 H   0  0  0  0  0  0  0  0  0  0  0  0
   -5.6011   -3.8118   -0.7015 H   0  0  0  0  0  0  0  0  0  0  0  0
  1 15  1  0  0  0  0
  2 12  1  0  0  0  0
  2 16  1  0  0  0  0
  3 16  2  0  0  0  0
  4 17  1  0  0  0  0
  4 48  1  0  0  0  0
  5  6  1  0  0  0  0
  5  7  1  0  0  0  0
  5 13  1  0  0  0  0
  5 14  1  0  0  0  0
  6  8  1  0  0  0  0
  6 10  1  0  0  0  0
  6 30  1  0  0  0  0
  7  9  1  0  0  0  0
  7 11  1  0  0  0  0
  7 31  1  0  0  0  0
  8  9  1  0  0  0  0
  8 32  1  0  0  0  0
  8 33  1  0  0  0  0
  9 34  1  0  0  0  0
  9 35  1  0  0  0  0
 10 12  1  0  0  0  0
 10 36  1  0  0  0  0
 10 37  1  0  0  0  0
 11 12  1  0  0  0  0
 11 38  1  0  0  0  0
 11 39  1  0  0  0  0
 12 40  1  0  0  0  0
 13 15  1  0  0  0  0
 13 41  1  0  0  0  0
 13 42  1  0  0  0  0
 14 43  1  0  0  0  0
 14 44  1  0  0  0  0
 14 45  1  0  0  0  0
 15 46  1  0  0  0  0
 15 47  1  0  0  0  0
 16 17  1  0  0  0  0
 17 18  1  0  0  0  0
 17 19  1  0  0  0  0
 18 20  2  0  0  0  0
 18 22  1  0  0  0  0
 19 21  2  0  0  0  0
 19 23  1  0  0  0  0
 20 24  1  0  0  0  0
 20 49  1  0  0  0  0
 21 25  1  0  0  0  0
 21 50  1  0  0  0  0
 22 26  2  0  0  0  0
 22 51  1  0  0  0  0
 23 27  2  0  0  0  0
 23 52  1  0  0  0  0
 24 28  2  0  0  0  0
 24 53  1  0  0  0  0
 25 29  2  0  0  0  0
 25 54  1  0  0  0  0
 26 28  1  0  0  0  0
 26 55  1  0  0  0  0
 27 29  1  0  0  0  0
 27 56  1  0  0  0  0
 28 57  1  0  0  0  0
 29 58  1  0  0  0  0
M  CHG  1   5   1
M  END
> <PUBCHEM_COMPOUND_CID>
3402

> <PUBCHEM_CONFORMER_RMSD>
1

> <PUBCHEM_CONFORMER_DIVERSEORDER>
21
42
45
6
10
33
8
15
40
18
28
24
11
3
29
36
25
19
34
13
1
16
23
22
46
14
7
31
32
17
4
30
27
20
5
35
9
39
38
2
37
12
41
26
43
44

> <PUBCHEM_MMFF94_PARTIAL_CHARGES>
36
1 -0.34
12 0.28
13 0.5
14 0.5
15 0.34
16 0.66
17 0.63
18 -0.14
19 -0.14
2 -0.43
20 -0.15
21 -0.15
22 -0.15
23 -0.15
24 -0.15
25 -0.15
26 -0.15
27 -0.15
28 -0.15
29 -0.15
3 -0.57
4 -0.68
48 0.4
49 0.15
5 -1.01
50 0.15
51 0.15
52 0.15
53 0.15
54 0.15
55 0.15
56 0.15
57 0.15
58 0.15
6 0.5
7 0.5

> <PUBCHEM_EFFECTIVE_ROTOR_COUNT>
8.2

> <PUBCHEM_PHARMACOPHORE_FEATURES>
7
1 3 acceptor
1 4 acceptor
1 4 donor
1 5 cation
6 18 20 22 24 26 28 rings
6 19 21 23 25 27 29 rings
8 5 6 7 8 9 10 11 12 rings

> <PUBCHEM_HEAVY_ATOM_COUNT>
29

> <PUBCHEM_ATOM_DEF_STEREO_COUNT>
0

> <PUBCHEM_ATOM_UDEF_STEREO_COUNT>
2

> <PUBCHEM_BOND_DEF_STEREO_COUNT>
0

> <PUBCHEM_BOND_UDEF_STEREO_COUNT>
0

> <PUBCHEM_ISOTOPIC_ATOM_COUNT>
0

> <PUBCHEM_COMPONENT_COUNT>
1

> <PUBCHEM_CACTVS_TAUTO_COUNT>
1

> <PUBCHEM_CONFORMER_ID>
00000D4A00000015

> <PUBCHEM_MMFF94_ENERGY>
120.3259

> <PUBCHEM_FEATURE_SELFOVERLAP>
35.52

> <PUBCHEM_SHAPE_FINGERPRINT>
10369192 42 16664602121351957232
105312 117 18190744343660676117
10670039 82 18336819823745739598
11056379 131 18408040719368072103
11315621 246 18188200996855460470
11331351 85 17769664427986173562
11545043 162 17967813881789087894
11578080 2 17607491869530346493
11991303 11 18199194056840586293
12107183 9 17838343234833030562
12643181 29 17973445700770009286
12714826 92 18040438780602955747
12788726 201 18411699846815473627
13224815 77 18273498966086764226
13583140 156 17822874051048992082
13617811 41 18409731721286637103
13690498 29 18187920647476367502
13726171 33 18041259016499485584
14347332 77 18410014312369047903
14910302 57 17894625937641208847
15021287 119 17559679623718716674
15484559 13 14681357404085393468
16994733 274 14907361719181231991
17349148 13 17775012262536765642
1813 80 18119817915502055735
19377110 9 18273215274938610080
21033650 10 18266999791752285502
21120745 212 18265601110004254837
21424621 283 11959192851510238935
21641784 216 18342455898722181469
21864079 5 17774713260041152068
22182313 1 17240206534231987936
22393880 68 18333732451077445734
23557571 272 18113614607756731284
249057 25 17989491801771678676
25147074 1 18201721769020352320
283562 15 18341625802124884115
312423 11 18202566189544942066
32027 91 17534056656565077518
3388396 114 17913476953057704532
340366 18 17979074117339038542
4058900 60 17685772828648074905
44062 13 18262240031263862998
4409770 3 18337127743368711439
460360 51 18264208191405763051
46194498 28 17604701163328188492
497634 4 18059857272519690479
5104073 3 18262818366185622690
633830 44 17346031302884995650
6371009 1 17914331274183245204
6700243 42 17969476295740673524
7164475 11 18411144610216705163
7237137 82 18410575072263759717
7399639 24 17753635458701056688

> <PUBCHEM_SHAPE_MULTIPOLES>
566.94
12.37
3.87
1.79
9.27
1.51
-0.15
-2.14
-2.14
-7.67
-0.57
1.91
0.41
-2.19

> <PUBCHEM_SHAPE_SELFOVERLAP>
1227.405

> <PUBCHEM_SHAPE_VOLUME>
311.4

> <PUBCHEM_COORDINATE_TYPE>
2
5
10

$$$$

