10071029
  -OEChem-07051213093D

 79 83  0     1  0  0  0  0  0999 V2000
    6.9124   -0.8900    0.1505 O   0  0  0  0  0  0  0  0  0  0  0  0
   -1.5562   -0.3148   -0.1035 C   0  0  2  0  0  0  0  0  0  0  0  0
   -0.7646    0.9274    0.4822 C   0  0  1  0  0  0  0  0  0  0  0  0
   -3.1098   -0.1440    0.2134 C   0  0  1  0  0  0  0  0  0  0  0  0
    0.7962    0.7388    0.2552 C   0  0  2  0  0  0  0  0  0  0  0  0
    1.4302   -0.6288    0.6934 C   0  0  1  0  0  0  0  0  0  0  0  0
   -3.7034    1.2629   -0.2133 C   0  0  1  0  0  0  0  0  0  0  0  0
   -0.9809   -1.6070    0.5560 C   0  0  0  0  0  0  0  0  0  0  0  0
   -1.2440    2.2289   -0.2327 C   0  0  0  0  0  0  0  0  0  0  0  0
    0.5156   -1.8125    0.2834 C   0  0  0  0  0  0  0  0  0  0  0  0
   -2.6558    2.2217   -0.8362 C   0  0  0  0  0  0  0  0  0  0  0  0
   -3.9450   -1.3362   -0.3446 C   0  0  0  0  0  0  0  0  0  0  0  0
    2.8210   -0.7424   -0.0839 C   0  0  1  0  0  0  0  0  0  0  0  0
   -4.8436    1.0623   -1.2514 C   0  0  0  0  0  0  0  0  0  0  0  0
    1.6841    1.8964    0.7604 C   0  0  0  0  0  0  0  0  0  0  0  0
   -1.3573   -0.5040   -1.6454 C   0  0  0  0  0  0  0  0  0  0  0  0
   -1.0474    1.1317    1.9998 C   0  0  0  0  0  0  0  0  0  0  0  0
   -5.4794   -1.2043   -0.2201 C   0  0  0  0  0  0  0  0  0  0  0  0
   -5.9724    0.1661   -0.7369 C   0  0  0  0  0  0  0  0  0  0  0  0
    1.6877   -0.7283    2.2220 C   0  0  0  0  0  0  0  0  0  0  0  0
   -4.3312    2.0179    0.9937 C   0  0  0  0  0  0  0  0  0  0  0  0
    3.6615    0.5498   -0.0709 C   0  0  0  0  0  0  0  0  0  0  0  0
    3.6609   -1.9475    0.3921 C   0  0  0  0  0  0  0  0  0  0  0  0
    3.1224    1.7080    0.3654 C   0  0  0  0  0  0  0  0  0  0  0  0
    5.0764    0.4833   -0.6775 C   0  0  0  0  0  0  0  0  0  0  0  0
   -6.1293   -2.3225   -1.0658 C   0  0  0  0  0  0  0  0  0  0  0  0
   -5.9216   -1.4286    1.2384 C   0  0  0  0  0  0  0  0  0  0  0  0
    4.9421   -2.0987   -0.4036 C   0  0  0  0  0  0  0  0  0  0  0  0
    5.7486   -0.8336   -0.2498 C   0  0  0  0  0  0  0  0  0  0  0  0
    6.0014    1.6482   -0.2555 C   0  0  0  0  0  0  0  0  0  0  0  0
    4.9815    0.4997   -2.2150 C   0  0  0  0  0  0  0  0  0  0  0  0
   -3.2096   -0.2212    1.3040 H   0  0  0  0  0  0  0  0  0  0  0  0
    0.9153    0.7762   -0.8373 H   0  0  0  0  0  0  0  0  0  0  0  0
   -1.4964   -2.4932    0.1674 H   0  0  0  0  0  0  0  0  0  0  0  0
   -1.1675   -1.6209    1.6341 H   0  0  0  0  0  0  0  0  0  0  0  0
   -0.5609    2.4757   -1.0564 H   0  0  0  0  0  0  0  0  0  0  0  0
   -1.1660    3.0799    0.4574 H   0  0  0  0  0  0  0  0  0  0  0  0
    0.8285   -2.7310    0.7962 H   0  0  0  0  0  0  0  0  0  0  0  0
    0.6479   -2.0283   -0.7837 H   0  0  0  0  0  0  0  0  0  0  0  0
   -3.0387    3.2524   -0.8163 H   0  0  0  0  0  0  0  0  0  0  0  0
   -2.5599    2.0199   -1.9093 H   0  0  0  0  0  0  0  0  0  0  0  0
   -3.7105   -1.4799   -1.4054 H   0  0  0  0  0  0  0  0  0  0  0  0
   -3.6361   -2.2619    0.1555 H   0  0  0  0  0  0  0  0  0  0  0  0
    2.5782   -0.9198   -1.1424 H   0  0  0  0  0  0  0  0  0  0  0  0
   -4.4396    0.6324   -2.1772 H   0  0  0  0  0  0  0  0  0  0  0  0
   -5.2696    2.0325   -1.5401 H   0  0  0  0  0  0  0  0  0  0  0  0
    1.6399    2.0176    1.8465 H   0  0  0  0  0  0  0  0  0  0  0  0
    1.3416    2.8409    0.3230 H   0  0  0  0  0  0  0  0  0  0  0  0
   -1.5762   -1.5365   -1.9444 H   0  0  0  0  0  0  0  0  0  0  0  0
   -2.0121    0.1197   -2.2518 H   0  0  0  0  0  0  0  0  0  0  0  0
   -0.3378   -0.3083   -1.9815 H   0  0  0  0  0  0  0  0  0  0  0  0
   -0.3849    1.8765    2.4482 H   0  0  0  0  0  0  0  0  0  0  0  0
   -2.0523    1.4942    2.1942 H   0  0  0  0  0  0  0  0  0  0  0  0
   -0.9717    0.2187    2.5854 H   0  0  0  0  0  0  0  0  0  0  0  0
   -6.5268    0.6958    0.0476 H   0  0  0  0  0  0  0  0  0  0  0  0
   -6.6953    0.0368   -1.5529 H   0  0  0  0  0  0  0  0  0  0  0  0
    2.4559   -0.0288    2.5647 H   0  0  0  0  0  0  0  0  0  0  0  0
    0.7993   -0.5540    2.8221 H   0  0  0  0  0  0  0  0  0  0  0  0
    2.0253   -1.7321    2.5041 H   0  0  0  0  0  0  0  0  0  0  0  0
   -3.5910    2.5643    1.5813 H   0  0  0  0  0  0  0  0  0  0  0  0
   -5.0455    2.7777    0.6524 H   0  0  0  0  0  0  0  0  0  0  0  0
   -4.8677    1.3527    1.6726 H   0  0  0  0  0  0  0  0  0  0  0  0
    3.0852   -2.8748    0.3040 H   0  0  0  0  0  0  0  0  0  0  0  0
    3.9351   -1.8312    1.4474 H   0  0  0  0  0  0  0  0  0  0  0  0
    3.7056    2.6230    0.3761 H   0  0  0  0  0  0  0  0  0  0  0  0
   -7.2220   -2.2964   -0.9849 H   0  0  0  0  0  0  0  0  0  0  0  0
   -5.8713   -2.2182   -2.1259 H   0  0  0  0  0  0  0  0  0  0  0  0
   -5.7945   -3.3135   -0.7384 H   0  0  0  0  0  0  0  0  0  0  0  0
   -7.0104   -1.3493    1.3364 H   0  0  0  0  0  0  0  0  0  0  0  0
   -5.6315   -2.4258    1.5893 H   0  0  0  0  0  0  0  0  0  0  0  0
   -5.4749   -0.7042    1.9227 H   0  0  0  0  0  0  0  0  0  0  0  0
    4.7495   -2.2890   -1.4633 H   0  0  0  0  0  0  0  0  0  0  0  0
    5.5243   -2.9415   -0.0151 H   0  0  0  0  0  0  0  0  0  0  0  0
    7.0183    1.5110   -0.6432 H   0  0  0  0  0  0  0  0  0  0  0  0
    5.6515    2.6124   -0.6411 H   0  0  0  0  0  0  0  0  0  0  0  0
    6.0791    1.7194    0.8359 H   0  0  0  0  0  0  0  0  0  0  0  0
    5.9701    0.3677   -2.6707 H   0  0  0  0  0  0  0  0  0  0  0  0
    4.3436   -0.3008   -2.6045 H   0  0  0  0  0  0  0  0  0  0  0  0
    4.5696    1.4492   -2.5764 H   0  0  0  0  0  0  0  0  0  0  0  0
  1 29  2  0  0  0  0
  2  3  1  0  0  0  0
  2  4  1  0  0  0  0
  2  8  1  0  0  0  0
  2 16  1  0  0  0  0
  3  5  1  0  0  0  0
  3  9  1  0  0  0  0
  3 17  1  0  0  0  0
  4  7  1  0  0  0  0
  4 12  1  0  0  0  0
  4 32  1  0  0  0  0
  5  6  1  0  0  0  0
  5 15  1  0  0  0  0
  5 33  1  0  0  0  0
  6 10  1  0  0  0  0
  6 13  1  0  0  0  0
  6 20  1  0  0  0  0
  7 11  1  0  0  0  0
  7 14  1  0  0  0  0
  7 21  1  0  0  0  0
  8 10  1  0  0  0  0
  8 34  1  0  0  0  0
  8 35  1  0  0  0  0
  9 11  1  0  0  0  0
  9 36  1  0  0  0  0
  9 37  1  0  0  0  0
 10 38  1  0  0  0  0
 10 39  1  0  0  0  0
 11 40  1  0  0  0  0
 11 41  1  0  0  0  0
 12 18  1  0  0  0  0
 12 42  1  0  0  0  0
 12 43  1  0  0  0  0
 13 22  1  0  0  0  0
 13 23  1  0  0  0  0
 13 44  1  0  0  0  0
 14 19  1  0  0  0  0
 14 45  1  0  0  0  0
 14 46  1  0  0  0  0
 15 24  1  0  0  0  0
 15 47  1  0  0  0  0
 15 48  1  0  0  0  0
 16 49  1  0  0  0  0
 16 50  1  0  0  0  0
 16 51  1  0  0  0  0
 17 52  1  0  0  0  0
 17 53  1  0  0  0  0
 17 54  1  0  0  0  0
 18 19  1  0  0  0  0
 18 26  1  0  0  0  0
 18 27  1  0  0  0  0
 19 55  1  0  0  0  0
 19 56  1  0  0  0  0
 20 57  1  0  0  0  0
 20 58  1  0  0  0  0
 20 59  1  0  0  0  0
 21 60  1  0  0  0  0
 21 61  1  0  0  0  0
 21 62  1  0  0  0  0
 22 24  2  0  0  0  0
 22 25  1  0  0  0  0
 23 28  1  0  0  0  0
 23 63  1  0  0  0  0
 23 64  1  0  0  0  0
 24 65  1  0  0  0  0
 25 29  1  0  0  0  0
 25 30  1  0  0  0  0
 25 31  1  0  0  0  0
 26 66  1  0  0  0  0
 26 67  1  0  0  0  0
 26 68  1  0  0  0  0
 27 69  1  0  0  0  0
 27 70  1  0  0  0  0
 27 71  1  0  0  0  0
 28 29  1  0  0  0  0
 28 72  1  0  0  0  0
 28 73  1  0  0  0  0
 30 74  1  0  0  0  0
 30 75  1  0  0  0  0
 30 76  1  0  0  0  0
 31 77  1  0  0  0  0
 31 78  1  0  0  0  0
 31 79  1  0  0  0  0
M  END
> <PUBCHEM_COMPOUND_CID>
10071029

> <PUBCHEM_CONFORMER_RMSD>
0.8

> <PUBCHEM_CONFORMER_DIVERSEORDER>
1
2

> <PUBCHEM_MMFF94_PARTIAL_CHARGES>
9
1 -0.57
13 0.14
15 0.14
22 -0.28
24 -0.29
25 0.2
28 0.06
29 0.45
65 0.15

> <PUBCHEM_EFFECTIVE_ROTOR_COUNT>
2.4

> <PUBCHEM_PHARMACOPHORE_FEATURES>
8
1 1 acceptor
3 18 26 27 hydrophobe
3 25 30 31 hydrophobe
6 13 22 23 25 28 29 rings
6 2 3 4 7 9 11 rings
6 2 3 5 6 8 10 rings
6 4 7 12 14 18 19 rings
6 5 6 13 15 22 24 rings

> <PUBCHEM_HEAVY_ATOM_COUNT>
31

> <PUBCHEM_ATOM_DEF_STEREO_COUNT>
7

> <PUBCHEM_ATOM_UDEF_STEREO_COUNT>
0

> <PUBCHEM_BOND_DEF_STEREO_COUNT>
0

> <PUBCHEM_BOND_UDEF_STEREO_COUNT>
0

> <PUBCHEM_ISOTOPIC_ATOM_COUNT>
0

> <PUBCHEM_COMPONENT_COUNT>
1

> <PUBCHEM_CACTVS_TAUTO_COUNT>
2

> <PUBCHEM_CONFORMER_ID>
0099ABF500000001

> <PUBCHEM_MMFF94_ENERGY>
153.2573

> <PUBCHEM_FEATURE_SELFOVERLAP>
40.651

> <PUBCHEM_SHAPE_FINGERPRINT>
10595046 47 18412544327553364926
11089746 13 14405185049521398150
11488393 25 17750784648331127839
11524674 6 16225766290372429479
11963148 33 18334022682860510446
12011746 2 18342463612831259879
12107698 1 18260829271787649613
12166972 35 18411978031578346676
12236239 1 18335137604898352652
12422481 6 8430321229222011435
12788726 201 17385997403825005840
13690498 29 18342466915983143743
13782708 43 17748828496933241215
13811026 1 18413112741296082528
14347332 77 18335424577586020663
14528608 73 18202565081306145062
14790565 3 18339356465395044584
14856354 85 17530959169115848399
15021287 119 14345797128308333347
15082195 135 18059003970235477852
15142383 8 14779539119157056219
15183329 4 18407757053883830140
15196674 1 18410575110501590944
15799311 1 18188757444571052479
17349148 13 16877941641808734725
17492 89 18191585470520421246
17844677 252 18259982660893432297
1813 80 14201397179679359048
18335252 98 18341045225013457570
18608769 82 18268990895055820170
18681886 176 18409175389592501416
19319366 153 18201727240952177658
19958102 18 18131074830836448071
21236236 1 18410290333243493547
21267235 1 18411135806435997315
21279426 13 18338799021468143812
21857420 4 15801638286397169662
221357 26 18409451379500465733
22393880 68 18271817860042089253
23522609 53 18118090676802821833
23559900 14 18336274440103537745
23569914 152 17546196415717617039
2838139 119 16917066689441670460
3004659 81 18271807956433073586
329604 57 18409165523920733868
34797466 226 17749100063931862444
350125 39 18408322185707148073
4073 2 18131346393244690259
4258327 124 16342556363929874518
439807 62 18411138026607223711
484989 97 18341602708038422906
497634 4 18408885161710318413
504579 68 18271258166169913583
5104073 3 18335706078074170488
6669772 16 18045227038021084984
7226269 152 10592049063793540167
7237137 82 18410012139421408621
7495541 125 18114186336876513328
9996256 80 18410012139010133590

> <PUBCHEM_SHAPE_MULTIPOLES>
632.1
15.79
2.48
1.46
2.8
0.11
0.1
-4.14
-4.22
-0.84
0.05
-0.07
0.08
-0.4

> <PUBCHEM_SHAPE_SELFOVERLAP>
1339.71

> <PUBCHEM_SHAPE_VOLUME>
349.4

> <PUBCHEM_COORDINATE_TYPE>
2
5
10

$$$$

