5281943
  -OEChem-07051213012D

 55 57  0     0  0  0  0  0  0999 V2000
   11.5542    0.9259    0.0000 O   0  0  0  0  0  0  0  0  0  0  0  0
    9.7942   -2.1087    0.0000 O   0  0  0  0  0  0  0  0  0  0  0  0
    8.0622    0.8913    0.0000 O   0  0  0  0  0  0  0  0  0  0  0  0
   11.5426   -2.1433    0.0000 O   0  0  0  0  0  0  0  0  0  0  0  0
    8.9282   -0.6087    0.0000 C   0  0  0  0  0  0  0  0  0  0  0  0
    8.0622   -1.1087    0.0000 C   0  0  0  0  0  0  0  0  0  0  0  0
    5.4641   -0.6087    0.0000 C   0  0  0  0  0  0  0  0  0  0  0  0
    6.3301   -1.1087    0.0000 C   0  0  0  0  0  0  0  0  0  0  0  0
   10.6603   -0.6087    0.0000 C   0  0  0  0  0  0  0  0  0  0  0  0
    9.7942   -1.1087    0.0000 C   0  0  0  0  0  0  0  0  0  0  0  0
    7.1962   -0.6087    0.0000 C   0  0  0  0  0  0  0  0  0  0  0  0
   10.6603    0.3913    0.0000 C   0  0  0  0  0  0  0  0  0  0  0  0
    8.9282    0.3913    0.0000 C   0  0  0  0  0  0  0  0  0  0  0  0
    4.5981   -1.1087    0.0000 C   0  0  0  0  0  0  0  0  0  0  0  0
    9.7942    0.8913    0.0000 C   0  0  0  0  0  0  0  0  0  0  0  0
   11.5542   -1.1434    0.0000 C   0  0  0  0  0  0  0  0  0  0  0  0
    6.3301   -2.1087    0.0000 C   0  0  0  0  0  0  0  0  0  0  0  0
   12.4603    0.4121    0.0000 C   0  0  0  0  0  0  0  0  0  0  0  0
   12.4603   -0.6296    0.0000 C   0  0  0  0  0  0  0  0  0  0  0  0
    3.7320   -0.6087    0.0000 C   0  0  0  0  0  0  0  0  0  0  0  0
   13.3244    0.9154    0.0000 C   0  0  0  0  0  0  0  0  0  0  0  0
    2.8660   -1.1087    0.0000 C   0  0  0  0  0  0  0  0  0  0  0  0
   14.1923    0.4188    0.0000 C   0  0  0  0  0  0  0  0  0  0  0  0
   13.3205    1.9154    0.0000 C   0  0  0  0  0  0  0  0  0  0  0  0
    2.0000   -0.6087    0.0000 C   0  0  0  0  0  0  0  0  0  0  0  0
    2.8660   -2.1087    0.0000 C   0  0  0  0  0  0  0  0  0  0  0  0
   15.0564    0.9221    0.0000 C   0  0  0  0  0  0  0  0  0  0  0  0
   14.1846    2.4187    0.0000 C   0  0  0  0  0  0  0  0  0  0  0  0
   15.0525    1.9221    0.0000 C   0  0  0  0  0  0  0  0  0  0  0  0
    7.6636   -1.5837    0.0000 H   0  0  0  0  0  0  0  0  0  0  0  0
    8.4607   -1.5837    0.0000 H   0  0  0  0  0  0  0  0  0  0  0  0
    5.8626   -0.1338    0.0000 H   0  0  0  0  0  0  0  0  0  0  0  0
    5.0656   -0.1338    0.0000 H   0  0  0  0  0  0  0  0  0  0  0  0
    7.1962    0.0113    0.0000 H   0  0  0  0  0  0  0  0  0  0  0  0
    4.1996   -1.5837    0.0000 H   0  0  0  0  0  0  0  0  0  0  0  0
    4.9966   -1.5837    0.0000 H   0  0  0  0  0  0  0  0  0  0  0  0
    9.7942    1.5113    0.0000 H   0  0  0  0  0  0  0  0  0  0  0  0
    5.7101   -2.1087    0.0000 H   0  0  0  0  0  0  0  0  0  0  0  0
    6.3301   -2.7287    0.0000 H   0  0  0  0  0  0  0  0  0  0  0  0
    6.9501   -2.1087    0.0000 H   0  0  0  0  0  0  0  0  0  0  0  0
   12.9960   -0.9416    0.0000 H   0  0  0  0  0  0  0  0  0  0  0  0
    3.7320    0.0113    0.0000 H   0  0  0  0  0  0  0  0  0  0  0  0
    9.2573   -2.4187    0.0000 H   0  0  0  0  0  0  0  0  0  0  0  0
    8.0622    1.5113    0.0000 H   0  0  0  0  0  0  0  0  0  0  0  0
   14.1947   -0.2012    0.0000 H   0  0  0  0  0  0  0  0  0  0  0  0
   12.7824    2.2233    0.0000 H   0  0  0  0  0  0  0  0  0  0  0  0
    2.3100   -0.0718    0.0000 H   0  0  0  0  0  0  0  0  0  0  0  0
    1.4631   -0.2987    0.0000 H   0  0  0  0  0  0  0  0  0  0  0  0
    1.6900   -1.1457    0.0000 H   0  0  0  0  0  0  0  0  0  0  0  0
    2.2460   -2.1087    0.0000 H   0  0  0  0  0  0  0  0  0  0  0  0
    2.8660   -2.7287    0.0000 H   0  0  0  0  0  0  0  0  0  0  0  0
    3.4860   -2.1087    0.0000 H   0  0  0  0  0  0  0  0  0  0  0  0
   15.5945    0.6142    0.0000 H   0  0  0  0  0  0  0  0  0  0  0  0
   14.1822    3.0387    0.0000 H   0  0  0  0  0  0  0  0  0  0  0  0
   15.5883    2.2342    0.0000 H   0  0  0  0  0  0  0  0  0  0  0  0
  1 12  1  0  0  0  0
  1 18  1  0  0  0  0
  2 10  1  0  0  0  0
  2 43  1  0  0  0  0
  3 13  1  0  0  0  0
  3 44  1  0  0  0  0
  4 16  2  0  0  0  0
  5  6  1  0  0  0  0
  5 10  2  0  0  0  0
  5 13  1  0  0  0  0
  6 11  1  0  0  0  0
  6 30  1  0  0  0  0
  6 31  1  0  0  0  0
  7  8  1  0  0  0  0
  7 14  1  0  0  0  0
  7 32  1  0  0  0  0
  7 33  1  0  0  0  0
  8 11  2  0  0  0  0
  8 17  1  0  0  0  0
  9 10  1  0  0  0  0
  9 12  2  0  0  0  0
  9 16  1  0  0  0  0
 11 34  1  0  0  0  0
 12 15  1  0  0  0  0
 13 15  2  0  0  0  0
 14 20  1  0  0  0  0
 14 35  1  0  0  0  0
 14 36  1  0  0  0  0
 15 37  1  0  0  0  0
 16 19  1  0  0  0  0
 17 38  1  0  0  0  0
 17 39  1  0  0  0  0
 17 40  1  0  0  0  0
 18 19  2  0  0  0  0
 18 21  1  0  0  0  0
 19 41  1  0  0  0  0
 20 22  2  0  0  0  0
 20 42  1  0  0  0  0
 21 23  2  0  0  0  0
 21 24  1  0  0  0  0
 22 25  1  0  0  0  0
 22 26  1  0  0  0  0
 23 27  1  0  0  0  0
 23 45  1  0  0  0  0
 24 28  2  0  0  0  0
 24 46  1  0  0  0  0
 25 47  1  0  0  0  0
 25 48  1  0  0  0  0
 25 49  1  0  0  0  0
 26 50  1  0  0  0  0
 26 51  1  0  0  0  0
 26 52  1  0  0  0  0
 27 29  2  0  0  0  0
 27 53  1  0  0  0  0
 28 29  1  0  0  0  0
 28 54  1  0  0  0  0
 29 55  1  0  0  0  0
M  END
> <PUBCHEM_COMPOUND_CID>
5281943

> <PUBCHEM_COMPOUND_CANONICALIZED>
1

> <PUBCHEM_CACTVS_COMPLEXITY>
664

> <PUBCHEM_CACTVS_HBOND_ACCEPTOR>
4

> <PUBCHEM_CACTVS_HBOND_DONOR>
2

> <PUBCHEM_CACTVS_ROTATABLE_BOND>
6

> <PUBCHEM_CACTVS_SUBSKEYS>
AAADceB4OAAAAAAAAAAAAAAAAAAAAAAAAAAwYIAAAAAAAACBQAAAGgAACAAADASAmAAyBoAABgCIAqBSAAACCAAkIAAIiAEGCMgMJzaGNRqCeWCl4BUIuQeI7OzOIAACCAAIAABAAAQQABAAAAAAAAAAAA==

> <PUBCHEM_IUPAC_OPENEYE_NAME>
6-[(2E)-3,7-dimethylocta-2,6-dienyl]-5,7-dihydroxy-2-phenyl-chromen-4-one

> <PUBCHEM_IUPAC_CAS_NAME>
6-[(2E)-3,7-dimethylocta-2,6-dienyl]-5,7-dihydroxy-2-phenyl-1-benzopyran-4-one

> <PUBCHEM_IUPAC_NAME>
6-[(2E)-3,7-dimethylocta-2,6-dienyl]-5,7-dihydroxy-2-phenylchromen-4-one

> <PUBCHEM_IUPAC_SYSTEMATIC_NAME>
6-[(2E)-3,7-dimethylocta-2,6-dienyl]-5,7-bis(oxidanyl)-2-phenyl-chromen-4-one

> <PUBCHEM_IUPAC_TRADITIONAL_NAME>
6-[(2E)-3,7-dimethylocta-2,6-dienyl]-5,7-dihydroxy-2-phenyl-chromone

> <PUBCHEM_IUPAC_INCHI>
InChI=1S/C25H26O4/c1-16(2)8-7-9-17(3)12-13-19-20(26)14-23-24(25(19)28)21(27)15-22(29-23)18-10-5-4-6-11-18/h4-6,8,10-12,14-15,26,28H,7,9,13H2,1-3H3/b17-12+

> <PUBCHEM_IUPAC_INCHIKEY>
ZGOCQRKXVIGZMZ-SFQUDFHCSA-N

> <PUBCHEM_XLOGP3_AA>
6.8

> <PUBCHEM_EXACT_MASS>
390.183109

> <PUBCHEM_MOLECULAR_FORMULA>
C25H26O4

> <PUBCHEM_MOLECULAR_WEIGHT>
390.47154

> <PUBCHEM_OPENEYE_CAN_SMILES>
CC(=CCCC(=CCC1=C(C=C2C(=C1O)C(=O)C=C(O2)C3=CC=CC=C3)O)C)C

> <PUBCHEM_OPENEYE_ISO_SMILES>
CC(=CCC/C(=C/CC1=C(C=C2C(=C1O)C(=O)C=C(O2)C3=CC=CC=C3)O)/C)C

> <PUBCHEM_CACTVS_TPSA>
66.8

> <PUBCHEM_MONOISOTOPIC_WEIGHT>
390.183109

> <PUBCHEM_TOTAL_CHARGE>
0

> <PUBCHEM_HEAVY_ATOM_COUNT>
29

> <PUBCHEM_ATOM_DEF_STEREO_COUNT>
0

> <PUBCHEM_ATOM_UDEF_STEREO_COUNT>
0

> <PUBCHEM_BOND_DEF_STEREO_COUNT>
1

> <PUBCHEM_BOND_UDEF_STEREO_COUNT>
0

> <PUBCHEM_ISOTOPIC_ATOM_COUNT>
0

> <PUBCHEM_COMPONENT_COUNT>
1

> <PUBCHEM_CACTVS_TAUTO_COUNT>
12

> <PUBCHEM_COORDINATE_TYPE>
1
5
255

> <PUBCHEM_BONDANNOTATIONS>
1  12  8
1  18  8
12  15  8
13  15  8
16  19  8
18  19  8
21  23  8
21  24  8
23  27  8
24  28  8
27  29  8
28  29  8
5  10  8
5  13  8
9  10  8
9  12  8
9  16  8

$$$$

