5281562
  -OEChem-07051212582D

 80 82  0     1  0  0  0  0  0999 V2000
    9.9590    0.2796    0.0000 O   0  0  0  0  0  0  0  0  0  0  0  0
    8.0622    0.5196    0.0000 O   0  0  0  0  0  0  0  0  0  0  0  0
    6.3301   -2.4804    0.0000 O   0  0  0  0  0  0  0  0  0  0  0  0
    4.5981    0.5196    0.0000 O   0  0  0  0  0  0  0  0  0  0  0  0
    4.5981   -2.4804    0.0000 O   0  0  0  0  0  0  0  0  0  0  0  0
    9.0622   -1.4804    0.0000 C   0  0  1  0  0  0  0  0  0  0  0  0
    9.6500   -0.6714    0.0000 C   0  0  2  0  0  0  0  0  0  0  0  0
    9.6500   -2.2895    0.0000 C   0  0  2  0  0  0  0  0  0  0  0  0
   10.6010   -0.9804    0.0000 C   0  0  0  0  0  0  0  0  0  0  0  0
   10.6010   -1.9804    0.0000 C   0  0  0  0  0  0  0  0  0  0  0  0
    8.0622   -1.4804    0.0000 C   0  0  0  0  0  0  0  0  0  0  0  0
    8.8410   -0.0836    0.0000 C   0  0  0  0  0  0  0  0  0  0  0  0
    9.3410   -3.2405    0.0000 C   0  0  0  0  0  0  0  0  0  0  0  0
    7.1962   -0.9804    0.0000 C   0  0  0  0  0  0  0  0  0  0  0  0
    6.3301    0.5196    0.0000 C   0  0  0  0  0  0  0  0  0  0  0  0
    7.1962    0.0196    0.0000 C   0  0  0  0  0  0  0  0  0  0  0  0
   10.0101   -3.9837    0.0000 C   0  0  0  0  0  0  0  0  0  0  0  0
    6.3301   -1.4804    0.0000 C   0  0  0  0  0  0  0  0  0  0  0  0
    8.3628   -3.4484    0.0000 C   0  0  0  0  0  0  0  0  0  0  0  0
    5.4641    0.0196    0.0000 C   0  0  0  0  0  0  0  0  0  0  0  0
    5.4641   -0.9804    0.0000 C   0  0  0  0  0  0  0  0  0  0  0  0
    6.8301    1.3856    0.0000 C   0  0  0  0  0  0  0  0  0  0  0  0
    5.8301    1.3856    0.0000 C   0  0  0  0  0  0  0  0  0  0  0  0
    4.5981   -1.4804    0.0000 C   0  0  0  0  0  0  0  0  0  0  0  0
    4.8301    1.3856    0.0000 C   0  0  0  0  0  0  0  0  0  0  0  0
    6.3301    2.2516    0.0000 C   0  0  0  0  0  0  0  0  0  0  0  0
    6.8301    3.1176    0.0000 C   0  0  0  0  0  0  0  0  0  0  0  0
    4.3301    2.2516    0.0000 C   0  0  0  0  0  0  0  0  0  0  0  0
    3.7320   -0.9804    0.0000 C   0  0  0  0  0  0  0  0  0  0  0  0
    3.3301    2.2516    0.0000 C   0  0  0  0  0  0  0  0  0  0  0  0
    4.8301    3.1176    0.0000 C   0  0  0  0  0  0  0  0  0  0  0  0
    6.3301    3.9837    0.0000 C   0  0  0  0  0  0  0  0  0  0  0  0
    7.8301    3.1176    0.0000 C   0  0  0  0  0  0  0  0  0  0  0  0
    3.7320    0.0196    0.0000 C   0  0  0  0  0  0  0  0  0  0  0  0
    2.8660   -1.4804    0.0000 C   0  0  0  0  0  0  0  0  0  0  0  0
    2.8660    0.5196    0.0000 C   0  0  0  0  0  0  0  0  0  0  0  0
    2.0000   -0.9804    0.0000 C   0  0  0  0  0  0  0  0  0  0  0  0
    2.0000    0.0196    0.0000 C   0  0  0  0  0  0  0  0  0  0  0  0
    8.7807   -2.0329    0.0000 H   0  0  0  0  0  0  0  0  0  0  0  0
   10.0884   -2.7279    0.0000 H   0  0  0  0  0  0  0  0  0  0  0  0
   11.2176   -1.0452    0.0000 H   0  0  0  0  0  0  0  0  0  0  0  0
   10.7299   -0.3740    0.0000 H   0  0  0  0  0  0  0  0  0  0  0  0
   10.7299   -2.5869    0.0000 H   0  0  0  0  0  0  0  0  0  0  0  0
   11.2176   -1.9156    0.0000 H   0  0  0  0  0  0  0  0  0  0  0  0
    7.5872   -1.8790    0.0000 H   0  0  0  0  0  0  0  0  0  0  0  0
    8.2226   -0.8816    0.0000 H   0  0  0  0  0  0  0  0  0  0  0  0
    9.2054    0.4180    0.0000 H   0  0  0  0  0  0  0  0  0  0  0  0
    8.3394    0.2808    0.0000 H   0  0  0  0  0  0  0  0  0  0  0  0
    8.4765   -0.5852    0.0000 H   0  0  0  0  0  0  0  0  0  0  0  0
   10.5654    0.4085    0.0000 H   0  0  0  0  0  0  0  0  0  0  0  0
    9.5493   -4.3985    0.0000 H   0  0  0  0  0  0  0  0  0  0  0  0
   10.4249   -4.4444    0.0000 H   0  0  0  0  0  0  0  0  0  0  0  0
   10.4708   -3.5688    0.0000 H   0  0  0  0  0  0  0  0  0  0  0  0
    7.9479   -2.9877    0.0000 H   0  0  0  0  0  0  0  0  0  0  0  0
    8.1712   -4.0381    0.0000 H   0  0  0  0  0  0  0  0  0  0  0  0
    7.3051    0.9871    0.0000 H   0  0  0  0  0  0  0  0  0  0  0  0
    7.3051    1.7841    0.0000 H   0  0  0  0  0  0  0  0  0  0  0  0
    6.4127    1.5976    0.0000 H   0  0  0  0  0  0  0  0  0  0  0  0
    5.7225    1.9962    0.0000 H   0  0  0  0  0  0  0  0  0  0  0  0
    4.5201    0.8486    0.0000 H   0  0  0  0  0  0  0  0  0  0  0  0
    5.7101    2.2516    0.0000 H   0  0  0  0  0  0  0  0  0  0  0  0
    5.7932   -2.7904    0.0000 H   0  0  0  0  0  0  0  0  0  0  0  0
    4.0611   -2.7904    0.0000 H   0  0  0  0  0  0  0  0  0  0  0  0
    7.8301    2.4976    0.0000 H   0  0  0  0  0  0  0  0  0  0  0  0
    8.4501    3.1176    0.0000 H   0  0  0  0  0  0  0  0  0  0  0  0
    7.8301    3.7376    0.0000 H   0  0  0  0  0  0  0  0  0  0  0  0
    6.8671    4.2937    0.0000 H   0  0  0  0  0  0  0  0  0  0  0  0
    3.3301    2.8716    0.0000 H   0  0  0  0  0  0  0  0  0  0  0  0
    2.7101    2.2516    0.0000 H   0  0  0  0  0  0  0  0  0  0  0  0
    3.3301    1.6316    0.0000 H   0  0  0  0  0  0  0  0  0  0  0  0
    5.3671    2.8076    0.0000 H   0  0  0  0  0  0  0  0  0  0  0  0
    5.1401    3.6546    0.0000 H   0  0  0  0  0  0  0  0  0  0  0  0
    4.2932    3.4276    0.0000 H   0  0  0  0  0  0  0  0  0  0  0  0
    6.0201    4.5206    0.0000 H   0  0  0  0  0  0  0  0  0  0  0  0
    5.7932    3.6737    0.0000 H   0  0  0  0  0  0  0  0  0  0  0  0
    4.2690    0.3296    0.0000 H   0  0  0  0  0  0  0  0  0  0  0  0
    2.8660   -2.1004    0.0000 H   0  0  0  0  0  0  0  0  0  0  0  0
    2.8660    1.1396    0.0000 H   0  0  0  0  0  0  0  0  0  0  0  0
    1.4631   -1.2904    0.0000 H   0  0  0  0  0  0  0  0  0  0  0  0
    1.4631    0.3296    0.0000 H   0  0  0  0  0  0  0  0  0  0  0  0
  7  1  1  1  0  0  0
  1 50  1  0  0  0  0
  2 16  2  0  0  0  0
  3 18  1  0  0  0  0
  3 62  1  0  0  0  0
  4 20  2  0  0  0  0
  5 24  1  0  0  0  0
  5 63  1  0  0  0  0
  6  7  1  0  0  0  0
  6  8  1  0  0  0  0
  6 11  1  1  0  0  0
  6 39  1  0  0  0  0
  7  9  1  0  0  0  0
  7 12  1  0  0  0  0
  8 10  1  0  0  0  0
  8 13  1  6  0  0  0
  8 40  1  0  0  0  0
  9 10  1  0  0  0  0
  9 41  1  0  0  0  0
  9 42  1  0  0  0  0
 10 43  1  0  0  0  0
 10 44  1  0  0  0  0
 11 14  1  0  0  0  0
 11 45  1  0  0  0  0
 11 46  1  0  0  0  0
 12 47  1  0  0  0  0
 12 48  1  0  0  0  0
 12 49  1  0  0  0  0
 13 17  1  0  0  0  0
 13 19  2  0  0  0  0
 14 16  1  0  0  0  0
 14 18  2  0  0  0  0
 15 16  1  0  0  0  0
 15 20  1  0  0  0  0
 15 22  1  0  0  0  0
 15 23  1  0  0  0  0
 17 51  1  0  0  0  0
 17 52  1  0  0  0  0
 17 53  1  0  0  0  0
 18 21  1  0  0  0  0
 19 54  1  0  0  0  0
 19 55  1  0  0  0  0
 20 21  1  0  0  0  0
 21 24  2  0  0  0  0
 22 26  1  0  0  0  0
 22 56  1  0  0  0  0
 22 57  1  0  0  0  0
 23 25  1  0  0  0  0
 23 58  1  0  0  0  0
 23 59  1  0  0  0  0
 24 29  1  0  0  0  0
 25 28  2  0  0  0  0
 25 60  1  0  0  0  0
 26 27  2  0  0  0  0
 26 61  1  0  0  0  0
 27 32  1  0  0  0  0
 27 33  1  0  0  0  0
 28 30  1  0  0  0  0
 28 31  1  0  0  0  0
 29 34  2  0  0  0  0
 29 35  1  0  0  0  0
 30 68  1  0  0  0  0
 30 69  1  0  0  0  0
 30 70  1  0  0  0  0
 31 71  1  0  0  0  0
 31 72  1  0  0  0  0
 31 73  1  0  0  0  0
 32 67  1  0  0  0  0
 32 74  1  0  0  0  0
 32 75  1  0  0  0  0
 33 64  1  0  0  0  0
 33 65  1  0  0  0  0
 33 66  1  0  0  0  0
 34 36  1  0  0  0  0
 34 76  1  0  0  0  0
 35 37  2  0  0  0  0
 35 77  1  0  0  0  0
 36 38  2  0  0  0  0
 36 78  1  0  0  0  0
 37 38  1  0  0  0  0
 37 79  1  0  0  0  0
 38 80  1  0  0  0  0
M  END
> <PUBCHEM_COMPOUND_CID>
5281562

> <PUBCHEM_COMPOUND_CANONICALIZED>
1

> <PUBCHEM_CACTVS_COMPLEXITY>
1070

> <PUBCHEM_CACTVS_HBOND_ACCEPTOR>
5

> <PUBCHEM_CACTVS_HBOND_DONOR>
3

> <PUBCHEM_CACTVS_ROTATABLE_BOND>
8

> <PUBCHEM_CACTVS_SUBSKEYS>
AAADcfB8OAAAAAAAAAAAAAAAAAAAAYAAAAAwQAAAAAAAAAABAAAAGgAACAAAD0SAmAAyAIAAAgCIAqBSAAACAAAgIAAIiAEACMgIJjaIERCAcAAk4AEImQeIzODPgAAAAAAAAAAAAAAAAAAAAYAADAAAAA==

> <PUBCHEM_IUPAC_OPENEYE_NAME>
(6E)-5-hydroxy-4-[[(1R,2S,5S)-2-hydroxy-5-isopropenyl-2-methyl-cyclopentyl]methyl]-6-[hydroxy(phenyl)methylene]-2,2-bis(3-methylbut-2-enyl)cyclohex-4-ene-1,3-dione

> <PUBCHEM_IUPAC_CAS_NAME>
(6E)-5-hydroxy-4-[[(1R,2S,5S)-2-hydroxy-2-methyl-5-(1-methylethenyl)cyclopentyl]methyl]-6-[hydroxy(phenyl)methylidene]-2,2-bis(3-methylbut-2-enyl)cyclohex-4-ene-1,3-dione

> <PUBCHEM_IUPAC_NAME>
(6E)-5-hydroxy-4-[[(1R,2S,5S)-2-hydroxy-2-methyl-5-prop-1-en-2-ylcyclopentyl]methyl]-6-[hydroxy(phenyl)methylidene]-2,2-bis(3-methylbut-2-enyl)cyclohex-4-ene-1,3-dione

> <PUBCHEM_IUPAC_SYSTEMATIC_NAME>
(6E)-2,2-bis(3-methylbut-2-enyl)-4-[[(1R,2S,5S)-2-methyl-2-oxidanyl-5-prop-1-en-2-yl-cyclopentyl]methyl]-5-oxidanyl-6-[oxidanyl(phenyl)methylidene]cyclohex-4-ene-1,3-dione

> <PUBCHEM_IUPAC_TRADITIONAL_NAME>
(6E)-5-hydroxy-4-[[(1R,2S,5S)-2-hydroxy-5-isopropenyl-2-methyl-cyclopentyl]methyl]-6-[hydroxy(phenyl)methylene]-2,2-bis(3-methylbut-2-enyl)cyclohex-4-ene-1,3-quinone

> <PUBCHEM_IUPAC_INCHI>
InChI=1S/C33H42O5/c1-20(2)13-17-33(18-14-21(3)4)30(36)25(19-26-24(22(5)6)15-16-32(26,7)38)29(35)27(31(33)37)28(34)23-11-9-8-10-12-23/h8-14,24,26,34-35,38H,5,15-19H2,1-4,6-7H3/b28-27+/t24-,26-,32+/m1/s1

> <PUBCHEM_IUPAC_INCHIKEY>
XMVYTWVWYJLUHK-LHHMKPCHSA-N

> <PUBCHEM_XLOGP3_AA>
7.5

> <PUBCHEM_EXACT_MASS>
518.303224

> <PUBCHEM_MOLECULAR_FORMULA>
C33H42O5

> <PUBCHEM_MOLECULAR_WEIGHT>
518.68358

> <PUBCHEM_OPENEYE_CAN_SMILES>
CC(=CCC1(C(=O)C(=C(C(=C(C2=CC=CC=C2)O)C1=O)O)CC3C(CCC3(C)O)C(=C)C)CC=C(C)C)C

> <PUBCHEM_OPENEYE_ISO_SMILES>
CC(=CCC1(C(=O)C(=C(/C(=C(/C2=CC=CC=C2)\O)/C1=O)O)C[C@@H]3[C@H](CC[C@]3(C)O)C(=C)C)CC=C(C)C)C

> <PUBCHEM_CACTVS_TPSA>
94.8

> <PUBCHEM_MONOISOTOPIC_WEIGHT>
518.303224

> <PUBCHEM_TOTAL_CHARGE>
0

> <PUBCHEM_HEAVY_ATOM_COUNT>
38

> <PUBCHEM_ATOM_DEF_STEREO_COUNT>
3

> <PUBCHEM_ATOM_UDEF_STEREO_COUNT>
0

> <PUBCHEM_BOND_DEF_STEREO_COUNT>
1

> <PUBCHEM_BOND_UDEF_STEREO_COUNT>
0

> <PUBCHEM_ISOTOPIC_ATOM_COUNT>
0

> <PUBCHEM_COMPONENT_COUNT>
1

> <PUBCHEM_CACTVS_TAUTO_COUNT>
11

> <PUBCHEM_COORDINATE_TYPE>
1
5
255

> <PUBCHEM_BONDANNOTATIONS>
7  1  5
29  34  8
29  35  8
34  36  8
35  37  8
36  38  8
37  38  8
6  11  5
8  13  6

$$$$

