125257
  -OEChem-07051213113D

 50 52  0     1  0  0  0  0  0999 V2000
    0.8159    0.8823   -0.0143 O   0  0  0  0  0  0  0  0  0  0  0  0
    0.2606   -1.6564   -1.0776 O   0  0  0  0  0  0  0  0  0  0  0  0
   -2.1102   -2.8918   -0.1035 O   0  0  0  0  0  0  0  0  0  0  0  0
   -3.3066    1.1036   -1.1468 O   0  0  0  0  0  0  0  0  0  0  0  0
    2.0625   -1.8367    0.4451 O   0  0  0  0  0  0  0  0  0  0  0  0
    1.7177    0.6587   -2.1947 O   0  0  0  0  0  0  0  0  0  0  0  0
    3.5333    1.9247   -0.4826 O   0  0  0  0  0  0  0  0  0  0  0  0
   -1.4057    2.7001    0.3159 N   0  0  0  0  0  0  0  0  0  0  0  0
   -4.4476   -1.1876    0.0831 N   0  0  0  0  0  0  0  0  0  0  0  0
   -0.5171    0.5028   -0.3754 C   0  0  1  0  0  0  0  0  0  0  0  0
   -0.6451   -1.0068   -0.1772 C   0  0  1  0  0  0  0  0  0  0  0  0
   -1.5273    1.2514    0.5077 C   0  0  2  0  0  0  0  0  0  0  0  0
   -2.0677   -1.5055   -0.4513 C   0  0  2  0  0  0  0  0  0  0  0  0
   -3.0897   -0.7331    0.4031 C   0  0  1  0  0  0  0  0  0  0  0  0
   -2.9662    0.7897    0.2065 C   0  0  2  0  0  0  0  0  0  0  0  0
    1.8049    0.2347   -0.8297 C   0  0  2  0  0  0  0  0  0  0  0  0
    1.6260   -1.3009   -0.8084 C   0  0  2  0  0  0  0  0  0  0  0  0
    3.1449    0.6197   -0.2598 C   0  0  0  0  0  0  0  0  0  0  0  0
    3.4719   -1.6750    0.6518 C   0  0  1  0  0  0  0  0  0  0  0  0
    3.9154   -0.2605    0.3978 C   0  0  0  0  0  0  0  0  0  0  0  0
   -2.3680    3.4076    1.1436 C   0  0  0  0  0  0  0  0  0  0  0  0
   -5.4208   -0.5281    0.9369 C   0  0  0  0  0  0  0  0  0  0  0  0
    3.7608   -2.0906    2.0890 C   0  0  0  0  0  0  0  0  0  0  0  0
    3.7579    2.5975    0.7409 C   0  0  0  0  0  0  0  0  0  0  0  0
   -0.6753    0.7660   -1.4302 H   0  0  0  0  0  0  0  0  0  0  0  0
   -0.3582   -1.2912    0.8447 H   0  0  0  0  0  0  0  0  0  0  0  0
   -1.2884    1.0297    1.5577 H   0  0  0  0  0  0  0  0  0  0  0  0
   -2.3018   -1.4318   -1.5207 H   0  0  0  0  0  0  0  0  0  0  0  0
   -2.8904   -0.9750    1.4573 H   0  0  0  0  0  0  0  0  0  0  0  0
   -3.6710    1.2968    0.8691 H   0  0  0  0  0  0  0  0  0  0  0  0
    2.2136   -1.7697   -1.6085 H   0  0  0  0  0  0  0  0  0  0  0  0
   -0.4610    2.9868    0.5723 H   0  0  0  0  0  0  0  0  0  0  0  0
   -4.4995   -2.1956    0.2306 H   0  0  0  0  0  0  0  0  0  0  0  0
   -1.4409   -3.3473   -0.6425 H   0  0  0  0  0  0  0  0  0  0  0  0
   -3.1729    2.0588   -1.2680 H   0  0  0  0  0  0  0  0  0  0  0  0
    4.0056   -2.3506   -0.0274 H   0  0  0  0  0  0  0  0  0  0  0  0
    4.9042    0.0249    0.7448 H   0  0  0  0  0  0  0  0  0  0  0  0
   -2.3824    3.0476    2.1779 H   0  0  0  0  0  0  0  0  0  0  0  0
   -3.3782    3.3879    0.7243 H   0  0  0  0  0  0  0  0  0  0  0  0
   -2.0847    4.4656    1.1794 H   0  0  0  0  0  0  0  0  0  0  0  0
    2.2662    1.4531   -2.3084 H   0  0  0  0  0  0  0  0  0  0  0  0
   -6.3772   -1.0556    0.8495 H   0  0  0  0  0  0  0  0  0  0  0  0
   -5.6200    0.5011    0.6246 H   0  0  0  0  0  0  0  0  0  0  0  0
   -5.1392   -0.5505    1.9950 H   0  0  0  0  0  0  0  0  0  0  0  0
    3.4286   -3.1203    2.2618 H   0  0  0  0  0  0  0  0  0  0  0  0
    4.8291   -2.0279    2.3202 H   0  0  0  0  0  0  0  0  0  0  0  0
    3.2125   -1.4613    2.8000 H   0  0  0  0  0  0  0  0  0  0  0  0
    3.8425    3.6672    0.5247 H   0  0  0  0  0  0  0  0  0  0  0  0
    4.6983    2.2837    1.2058 H   0  0  0  0  0  0  0  0  0  0  0  0
    2.9231    2.4668    1.4396 H   0  0  0  0  0  0  0  0  0  0  0  0
  1 10  1  0  0  0  0
  1 16  1  0  0  0  0
  2 11  1  0  0  0  0
  2 17  1  0  0  0  0
  3 13  1  0  0  0  0
  3 34  1  0  0  0  0
  4 15  1  0  0  0  0
  4 35  1  0  0  0  0
  5 17  1  0  0  0  0
  5 19  1  0  0  0  0
  6 16  1  0  0  0  0
  6 41  1  0  0  0  0
  7 18  1  0  0  0  0
  7 24  1  0  0  0  0
  8 12  1  0  0  0  0
  8 21  1  0  0  0  0
  8 32  1  0  0  0  0
  9 14  1  0  0  0  0
  9 22  1  0  0  0  0
  9 33  1  0  0  0  0
 10 11  1  0  0  0  0
 10 12  1  0  0  0  0
 10 25  1  0  0  0  0
 11 13  1  0  0  0  0
 11 26  1  0  0  0  0
 12 15  1  0  0  0  0
 12 27  1  0  0  0  0
 13 14  1  0  0  0  0
 13 28  1  0  0  0  0
 14 15  1  0  0  0  0
 14 29  1  0  0  0  0
 15 30  1  0  0  0  0
 16 17  1  0  0  0  0
 16 18  1  0  0  0  0
 17 31  1  0  0  0  0
 18 20  2  0  0  0  0
 19 20  1  0  0  0  0
 19 23  1  0  0  0  0
 19 36  1  0  0  0  0
 20 37  1  0  0  0  0
 21 38  1  0  0  0  0
 21 39  1  0  0  0  0
 21 40  1  0  0  0  0
 22 42  1  0  0  0  0
 22 43  1  0  0  0  0
 22 44  1  0  0  0  0
 23 45  1  0  0  0  0
 23 46  1  0  0  0  0
 23 47  1  0  0  0  0
 24 48  1  0  0  0  0
 24 49  1  0  0  0  0
 24 50  1  0  0  0  0
M  END
> <PUBCHEM_COMPOUND_CID>
125257

> <PUBCHEM_CONFORMER_RMSD>
0.8

> <PUBCHEM_CONFORMER_DIVERSEORDER>
1
2

> <PUBCHEM_MMFF94_PARTIAL_CHARGES>
29
1 -0.56
10 0.28
11 0.28
12 0.27
13 0.28
14 0.27
15 0.28
16 0.7
17 0.56
18 -0.06
19 0.42
2 -0.56
20 -0.29
21 0.27
22 0.27
24 0.28
3 -0.68
32 0.36
33 0.36
34 0.4
35 0.4
37 0.15
4 -0.68
41 0.4
5 -0.56
6 -0.68
7 -0.36
8 -0.9
9 -0.9

> <PUBCHEM_EFFECTIVE_ROTOR_COUNT>
4.6

> <PUBCHEM_PHARMACOPHORE_FEATURES>
17
1 1 acceptor
1 2 acceptor
1 3 acceptor
1 3 donor
1 4 acceptor
1 4 donor
1 5 acceptor
1 6 acceptor
1 6 donor
1 7 acceptor
1 8 cation
1 8 donor
1 9 cation
1 9 donor
6 1 2 10 11 16 17 rings
6 10 11 12 13 14 15 rings
6 5 16 17 18 19 20 rings

> <PUBCHEM_HEAVY_ATOM_COUNT>
24

> <PUBCHEM_ATOM_DEF_STEREO_COUNT>
9

> <PUBCHEM_ATOM_UDEF_STEREO_COUNT>
0

> <PUBCHEM_BOND_DEF_STEREO_COUNT>
0

> <PUBCHEM_BOND_UDEF_STEREO_COUNT>
0

> <PUBCHEM_ISOTOPIC_ATOM_COUNT>
0

> <PUBCHEM_COMPONENT_COUNT>
1

> <PUBCHEM_CACTVS_TAUTO_COUNT>
1

> <PUBCHEM_CONFORMER_ID>
0001E94900000001

> <PUBCHEM_MMFF94_ENERGY>
61.3681

> <PUBCHEM_FEATURE_SELFOVERLAP>
86.471

> <PUBCHEM_SHAPE_FINGERPRINT>
10366900 7 18201424862337059928
10759866 29 18272364240101249732
11578080 2 17774181092181794804
12251169 10 18339650039700777378
12403260 363 18263095459831375757
12403814 3 18130787820427030103
12553582 1 18261665996410956791
12633257 1 18124317370243470536
12788726 201 18334563655818666185
13140716 1 18190740825944751905
13224815 77 18334570256866622317
13533116 47 18131633395833975803
13583140 156 18060708298582245869
13675066 3 17917714578313139615
14178342 30 18048033270381986875
14223421 5 18408038524523583420
14341114 176 18410857677001511658
14787075 74 17476646378100108694
14790565 3 17689147920642984625
15196674 1 18409727353125158727
15442244 35 18339644572117686858
16945 1 18262511610487964551
17349148 13 18337400417071592703
17492 89 18340486767617570139
17980427 23 17899437534069243052
192875 21 18190762996434441844
20510252 161 18188201096124647257
20715895 44 18053390087381817637
21069387 34 17203603813407236443
21267235 1 18412252948182142214
21421861 104 18412821404214838378
23402539 116 18260272949707173079
23557571 272 17822846601738780461
23558518 356 18194670695572781899
23559900 14 18115583893459800278
312423 11 18199452406731959048
34934 24 18263079912276604599
350125 39 18409443704837142884
392239 28 18121780517760992296
4340502 62 17560797681041988403
5104073 3 18341890814354370713
5374978 207 18410007732616229195
7097593 13 18198350756738399978
9709674 26 18261107542808525967

> <PUBCHEM_SHAPE_MULTIPOLES>
442.86
8.67
3.16
1.3
2.92
1.59
-0.01
-0.77
-2.88
-0.01
-0.97
-0.81
-0.15
-1.07

> <PUBCHEM_SHAPE_SELFOVERLAP>
926.14

> <PUBCHEM_SHAPE_VOLUME>
247.2

> <PUBCHEM_COORDINATE_TYPE>
2
5
10

$$$$

