5281811
  -OEChem-07051212593D

 34 36  0     0  0  0  0  0  0999 V2000
   -0.5304    2.2877    0.1253 O   0  0  0  0  0  0  0  0  0  0  0  0
   -4.6639   -1.3525   -0.2802 O   0  0  0  0  0  0  0  0  0  0  0  0
   -2.0966   -2.2698   -0.3360 O   0  0  0  0  0  0  0  0  0  0  0  0
    0.4165   -1.6605   -0.2788 O   0  0  0  0  0  0  0  0  0  0  0  0
   -5.1765    1.3523   -0.0238 O   0  0  0  0  0  0  0  0  0  0  0  0
    6.6718   -0.6724    0.0898 O   0  0  0  0  0  0  0  0  0  0  0  0
   -1.2591   -0.0158   -0.1070 C   0  0  0  0  0  0  0  0  0  0  0  0
   -1.5232    1.3473    0.0222 C   0  0  0  0  0  0  0  0  0  0  0  0
    1.1871    0.5754   -0.0023 C   0  0  0  0  0  0  0  0  0  0  0  0
    0.1415   -0.4760   -0.1376 C   0  0  0  0  0  0  0  0  0  0  0  0
   -2.3117   -0.9292   -0.2096 C   0  0  0  0  0  0  0  0  0  0  0  0
    2.6220    0.2483    0.0220 C   0  0  0  0  0  0  0  0  0  0  0  0
   -3.6289   -0.4691   -0.1814 C   0  0  0  0  0  0  0  0  0  0  0  0
   -2.8409    1.8050    0.0497 C   0  0  0  0  0  0  0  0  0  0  0  0
    0.7701    1.8450    0.1167 C   0  0  0  0  0  0  0  0  0  0  0  0
   -3.8932    0.8950   -0.0521 C   0  0  0  0  0  0  0  0  0  0  0  0
    3.2556   -0.0362    1.2334 C   0  0  0  0  0  0  0  0  0  0  0  0
    3.3545    0.2222   -1.1668 C   0  0  0  0  0  0  0  0  0  0  0  0
    4.6156   -0.3453    1.2560 C   0  0  0  0  0  0  0  0  0  0  0  0
    4.7144   -0.0871   -1.1441 C   0  0  0  0  0  0  0  0  0  0  0  0
    5.3450   -0.3709    0.0673 C   0  0  0  0  0  0  0  0  0  0  0  0
   -5.1699   -1.8937    0.9374 C   0  0  0  0  0  0  0  0  0  0  0  0
   -3.0487    2.8673    0.1501 H   0  0  0  0  0  0  0  0  0  0  0  0
    1.4389    2.6901    0.2253 H   0  0  0  0  0  0  0  0  0  0  0  0
    2.7008   -0.0213    2.1685 H   0  0  0  0  0  0  0  0  0  0  0  0
    2.8771    0.4404   -2.1192 H   0  0  0  0  0  0  0  0  0  0  0  0
    5.1014   -0.5656    2.2027 H   0  0  0  0  0  0  0  0  0  0  0  0
    5.2715   -0.1037   -2.0770 H   0  0  0  0  0  0  0  0  0  0  0  0
   -1.1493   -2.4715   -0.3067 H   0  0  0  0  0  0  0  0  0  0  0  0
   -5.7768    0.5976   -0.1506 H   0  0  0  0  0  0  0  0  0  0  0  0
   -6.0099   -2.5511    0.6968 H   0  0  0  0  0  0  0  0  0  0  0  0
   -5.5278   -1.0979    1.5983 H   0  0  0  0  0  0  0  0  0  0  0  0
   -4.3998   -2.4830    1.4450 H   0  0  0  0  0  0  0  0  0  0  0  0
    7.0169   -0.6439   -0.8192 H   0  0  0  0  0  0  0  0  0  0  0  0
  1  8  1  0  0  0  0
  1 15  1  0  0  0  0
  2 13  1  0  0  0  0
  2 22  1  0  0  0  0
  3 11  1  0  0  0  0
  3 29  1  0  0  0  0
  4 10  2  0  0  0  0
  5 16  1  0  0  0  0
  5 30  1  0  0  0  0
  6 21  1  0  0  0  0
  6 34  1  0  0  0  0
  7  8  2  0  0  0  0
  7 10  1  0  0  0  0
  7 11  1  0  0  0  0
  8 14  1  0  0  0  0
  9 10  1  0  0  0  0
  9 12  1  0  0  0  0
  9 15  2  0  0  0  0
 11 13  2  0  0  0  0
 12 17  2  0  0  0  0
 12 18  1  0  0  0  0
 13 16  1  0  0  0  0
 14 16  2  0  0  0  0
 14 23  1  0  0  0  0
 15 24  1  0  0  0  0
 17 19  1  0  0  0  0
 17 25  1  0  0  0  0
 18 20  2  0  0  0  0
 18 26  1  0  0  0  0
 19 21  2  0  0  0  0
 19 27  1  0  0  0  0
 20 21  1  0  0  0  0
 20 28  1  0  0  0  0
 22 31  1  0  0  0  0
 22 32  1  0  0  0  0
 22 33  1  0  0  0  0
M  END
> <PUBCHEM_COMPOUND_CID>
5281811

> <PUBCHEM_CONFORMER_RMSD>
0.6

> <PUBCHEM_CONFORMER_DIVERSEORDER>
1
2
3

> <PUBCHEM_MMFF94_PARTIAL_CHARGES>
31
1 -0.16
10 0.47
11 0.08
12 0.03
13 0.08
14 -0.15
15 -0.07
16 0.08
17 -0.15
18 -0.15
19 -0.15
2 -0.36
20 -0.15
21 0.08
22 0.28
23 0.15
24 0.15
25 0.15
26 0.15
27 0.15
28 0.15
29 0.45
3 -0.53
30 0.45
34 0.45
4 -0.57
5 -0.53
6 -0.53
7 0.09
8 0.08
9 -0.01

> <PUBCHEM_EFFECTIVE_ROTOR_COUNT>
2

> <PUBCHEM_PHARMACOPHORE_FEATURES>
9
1 1 acceptor
1 2 acceptor
1 3 donor
1 4 acceptor
1 5 donor
1 6 donor
6 1 7 8 9 10 15 rings
6 12 17 18 19 20 21 rings
6 7 8 11 13 14 16 rings

> <PUBCHEM_HEAVY_ATOM_COUNT>
22

> <PUBCHEM_ATOM_DEF_STEREO_COUNT>
0

> <PUBCHEM_ATOM_UDEF_STEREO_COUNT>
0

> <PUBCHEM_BOND_DEF_STEREO_COUNT>
0

> <PUBCHEM_BOND_UDEF_STEREO_COUNT>
0

> <PUBCHEM_ISOTOPIC_ATOM_COUNT>
0

> <PUBCHEM_COMPONENT_COUNT>
1

> <PUBCHEM_CACTVS_TAUTO_COUNT>
24

> <PUBCHEM_CONFORMER_ID>
0050981300000001

> <PUBCHEM_MMFF94_ENERGY>
79.0316

> <PUBCHEM_FEATURE_SELFOVERLAP>
45.697

> <PUBCHEM_SHAPE_FINGERPRINT>
10 15 17749688324723366178
10062212 137 18342179951230944319
11045977 3 17968106312879412752
11046707 91 18412826880393072785
11315181 36 18273495658751027612
11646440 116 17967806150921867129
11963148 33 18340492166508116219
12107183 9 17338169936512239432
12236239 1 17989487429310199220
12403259 415 17894354363012216016
12403814 3 17632296821667148957
13140716 1 18264208019907426833
13288520 33 18410011035229743381
13675066 3 17894634725180927000
13862211 1 18336830801524268975
14386348 63 17748825220331623358
15042514 8 18264770944286931103
15196674 1 18410012096187268977
15788980 27 17846215579079047284
17138139 8 17344635833335016899
17349148 13 18273491269188852182
17804303 29 18335422348403373297
17844677 252 18333729096296641720
1813 80 17560797766851455742
18681886 176 18342457024599444984
19141452 34 17530965731040276743
200 152 16630527362505845508
20028762 73 17969504797439847567
20645477 70 14907910422537890288
21033648 29 16950860179194518592
21267235 1 18411695457379846643
22182313 1 18042108999048096895
2297311 6 18334006207850044188
23175994 123 17095243622475261697
23402539 116 18334863822086594301
23522609 53 18053065533835771989
23557571 272 18186796994006017452
23559900 14 18260828194573914556
23569914 152 12818016981097151835
26918003 58 16588027913808481106
3004659 81 18273211998253076972
335352 9 18410014343109227981
34797466 226 17895461533242368892
4214541 1 18410293614013191980
465052 167 18341041904940739459
5104073 3 18337105675194268633
5385378 56 18118112796411182659
542803 24 17775565347282188596
559249 180 18343024418878822507
8863177 126 17771052801365301883

> <PUBCHEM_SHAPE_MULTIPOLES>
417.53
12.67
1.93
0.93
6.98
0.13
0.07
-3.8
0.87
-2.59
0.09
0.89
-0.12
0.06

> <PUBCHEM_SHAPE_SELFOVERLAP>
929.782

> <PUBCHEM_SHAPE_VOLUME>
222.1

> <PUBCHEM_COORDINATE_TYPE>
2
5
10

$$$$

