251872
  -OEChem-07051213062D

 63 66  0     1  0  0  0  0  0999 V2000
   10.3820    1.4952    0.0000 O   0  0  0  0  0  0  0  0  0  0  0  0
    3.7320   -2.8124    0.0000 O   0  0  0  0  0  0  0  0  0  0  0  0
   12.0284    0.9572    0.0000 O   0  0  0  0  0  0  0  0  0  0  0  0
    9.1251   -0.7600    0.0000 C   0  0  2  0  0  0  0  0  0  0  0  0
    9.1251    0.2400    0.0000 C   0  0  2  0  0  0  0  0  0  0  0  0
    8.2591   -1.2600    0.0000 C   0  0  1  0  0  0  0  0  0  0  0  0
    7.3931   -0.7600    0.0000 C   0  0  1  0  0  0  0  0  0  0  0  0
    8.2591    0.7400    0.0000 C   0  0  0  0  0  0  0  0  0  0  0  0
    6.4831   -1.2669    0.0000 C   0  0  2  0  0  0  0  0  0  0  0  0
   10.0713    0.5447    0.0000 C   0  0  2  0  0  0  0  0  0  0  0  0
    7.3931    0.2400    0.0000 C   0  0  0  0  0  0  0  0  0  0  0  0
   10.0713   -1.0648    0.0000 C   0  0  0  0  0  0  0  0  0  0  0  0
   10.6550   -0.2600    0.0000 C   0  0  0  0  0  0  0  0  0  0  0  0
    8.2752   -2.3015    0.0000 C   0  0  0  0  0  0  0  0  0  0  0  0
    9.1251    1.2400    0.0000 C   0  0  0  0  0  0  0  0  0  0  0  0
    6.4750   -2.3085    0.0000 C   0  0  0  0  0  0  0  0  0  0  0  0
    5.5562   -0.7028    0.0000 C   0  0  0  0  0  0  0  0  0  0  0  0
    7.3771   -2.8293    0.0000 C   0  0  0  0  0  0  0  0  0  0  0  0
    6.4908   -0.2669    0.0000 C   0  0  0  0  0  0  0  0  0  0  0  0
    4.6084   -1.2307    0.0000 C   0  0  0  0  0  0  0  0  0  0  0  0
    5.5396   -2.8582    0.0000 C   0  0  0  0  0  0  0  0  0  0  0  0
    4.6000   -2.3157    0.0000 C   0  0  0  0  0  0  0  0  0  0  0  0
   11.3605    1.7014    0.0000 C   0  0  0  0  0  0  0  0  0  0  0  0
   11.6712    2.6520    0.0000 C   0  0  0  0  0  0  0  0  0  0  0  0
    2.8680   -2.3090    0.0000 C   0  0  0  0  0  0  0  0  0  0  0  0
   12.6497    2.8582    0.0000 C   0  0  0  0  0  0  0  0  0  0  0  0
    2.0000   -2.8057    0.0000 C   0  0  0  0  0  0  0  0  0  0  0  0
    9.2151   -1.6052    0.0000 H   0  0  0  0  0  0  0  0  0  0  0  0
    8.9985   -1.6793    0.0000 H   0  0  0  0  0  0  0  0  0  0  0  0
    8.1292   -0.3350    0.0000 H   0  0  0  0  0  0  0  0  0  0  0  0
    8.6576    1.2149    0.0000 H   0  0  0  0  0  0  0  0  0  0  0  0
    7.8606    1.2149    0.0000 H   0  0  0  0  0  0  0  0  0  0  0  0
    9.6339    0.9841    0.0000 H   0  0  0  0  0  0  0  0  0  0  0  0
    7.1810    0.8226    0.0000 H   0  0  0  0  0  0  0  0  0  0  0  0
    6.7825    0.1323    0.0000 H   0  0  0  0  0  0  0  0  0  0  0  0
    9.8203   -1.6317    0.0000 H   0  0  0  0  0  0  0  0  0  0  0  0
   10.6087   -1.3740    0.0000 H   0  0  0  0  0  0  0  0  0  0  0  0
   11.1158   -0.6747    0.0000 H   0  0  0  0  0  0  0  0  0  0  0  0
   11.1158    0.1547    0.0000 H   0  0  0  0  0  0  0  0  0  0  0  0
    8.4932   -2.8819    0.0000 H   0  0  0  0  0  0  0  0  0  0  0  0
    8.8843   -2.1860    0.0000 H   0  0  0  0  0  0  0  0  0  0  0  0
    9.7451    1.2400    0.0000 H   0  0  0  0  0  0  0  0  0  0  0  0
    9.1251    1.8600    0.0000 H   0  0  0  0  0  0  0  0  0  0  0  0
    8.5051    1.2400    0.0000 H   0  0  0  0  0  0  0  0  0  0  0  0
    5.9644   -0.2361    0.0000 H   0  0  0  0  0  0  0  0  0  0  0  0
    5.1663   -0.2207    0.0000 H   0  0  0  0  0  0  0  0  0  0  0  0
    7.3795   -3.4493    0.0000 H   0  0  0  0  0  0  0  0  0  0  0  0
    7.1108   -0.2717    0.0000 H   0  0  0  0  0  0  0  0  0  0  0  0
    6.4956    0.3531    0.0000 H   0  0  0  0  0  0  0  0  0  0  0  0
    5.8708   -0.2621    0.0000 H   0  0  0  0  0  0  0  0  0  0  0  0
    4.4038   -0.6454    0.0000 H   0  0  0  0  0  0  0  0  0  0  0  0
    3.9967   -1.3321    0.0000 H   0  0  0  0  0  0  0  0  0  0  0  0
    5.5420   -3.4782    0.0000 H   0  0  0  0  0  0  0  0  0  0  0  0
   11.6506    3.2716    0.0000 H   0  0  0  0  0  0  0  0  0  0  0  0
   11.0574    2.7393    0.0000 H   0  0  0  0  0  0  0  0  0  0  0  0
    3.2683   -1.8356    0.0000 H   0  0  0  0  0  0  0  0  0  0  0  0
    2.4712   -1.8325    0.0000 H   0  0  0  0  0  0  0  0  0  0  0  0
   12.7775    2.2515    0.0000 H   0  0  0  0  0  0  0  0  0  0  0  0
   13.2564    2.9860    0.0000 H   0  0  0  0  0  0  0  0  0  0  0  0
   12.5218    3.4649    0.0000 H   0  0  0  0  0  0  0  0  0  0  0  0
    1.6921   -2.2676    0.0000 H   0  0  0  0  0  0  0  0  0  0  0  0
    1.4619   -3.1136    0.0000 H   0  0  0  0  0  0  0  0  0  0  0  0
    2.3079   -3.3438    0.0000 H   0  0  0  0  0  0  0  0  0  0  0  0
 10  1  1  1  0  0  0
  1 23  1  0  0  0  0
  2 22  1  0  0  0  0
  2 25  1  0  0  0  0
  3 23  2  0  0  0  0
  4  5  1  0  0  0  0
  4  6  1  0  0  0  0
  4 12  1  0  0  0  0
  4 28  1  6  0  0  0
  5  8  1  0  0  0  0
  5 10  1  0  0  0  0
  5 15  1  1  0  0  0
  6  7  1  0  0  0  0
  6 14  1  0  0  0  0
  6 29  1  1  0  0  0
  7  9  1  0  0  0  0
  7 11  1  0  0  0  0
  7 30  1  6  0  0  0
  8 11  1  0  0  0  0
  8 31  1  0  0  0  0
  8 32  1  0  0  0  0
  9 16  1  0  0  0  0
  9 17  1  0  0  0  0
  9 19  1  1  0  0  0
 10 13  1  0  0  0  0
 10 33  1  0  0  0  0
 11 34  1  0  0  0  0
 11 35  1  0  0  0  0
 12 13  1  0  0  0  0
 12 36  1  0  0  0  0
 12 37  1  0  0  0  0
 13 38  1  0  0  0  0
 13 39  1  0  0  0  0
 14 18  1  0  0  0  0
 14 40  1  0  0  0  0
 14 41  1  0  0  0  0
 15 42  1  0  0  0  0
 15 43  1  0  0  0  0
 15 44  1  0  0  0  0
 16 18  2  0  0  0  0
 16 21  1  0  0  0  0
 17 20  1  0  0  0  0
 17 45  1  0  0  0  0
 17 46  1  0  0  0  0
 18 47  1  0  0  0  0
 19 48  1  0  0  0  0
 19 49  1  0  0  0  0
 19 50  1  0  0  0  0
 20 22  1  0  0  0  0
 20 51  1  0  0  0  0
 20 52  1  0  0  0  0
 21 22  2  0  0  0  0
 21 53  1  0  0  0  0
 23 24  1  0  0  0  0
 24 26  1  0  0  0  0
 24 54  1  0  0  0  0
 24 55  1  0  0  0  0
 25 27  1  0  0  0  0
 25 56  1  0  0  0  0
 25 57  1  0  0  0  0
 26 58  1  0  0  0  0
 26 59  1  0  0  0  0
 26 60  1  0  0  0  0
 27 61  1  0  0  0  0
 27 62  1  0  0  0  0
 27 63  1  0  0  0  0
M  END
> <PUBCHEM_COMPOUND_CID>
251872

> <PUBCHEM_COMPOUND_CANONICALIZED>
1

> <PUBCHEM_CACTVS_COMPLEXITY>
663

> <PUBCHEM_CACTVS_HBOND_ACCEPTOR>
3

> <PUBCHEM_CACTVS_HBOND_DONOR>
0

> <PUBCHEM_CACTVS_ROTATABLE_BOND>
5

> <PUBCHEM_CACTVS_SUBSKEYS>
AAADcfB4MAAAAAAAAAAAAAAAAAAAAYAAAAAwQIAAAAAAAGCAAAAAGgAAAAAADxSggAICCAAABACIAiDSCAAACAAgIAAACAEAAAgIAAIAAQACAAAEgAAIgAOAwPAPgAAAAAAAAACAAAQAACAAAIAADAAAAA==

> <PUBCHEM_IUPAC_OPENEYE_NAME>
[(8R,9S,10R,13S,14S,17S)-3-ethoxy-10,13-dimethyl-2,7,8,9,11,12,14,15,16,17-decahydro-1H-cyclopenta[a]phenanthren-17-yl] propanoate

> <PUBCHEM_IUPAC_CAS_NAME>
propanoic acid [(8R,9S,10R,13S,14S,17S)-3-ethoxy-10,13-dimethyl-2,7,8,9,11,12,14,15,16,17-decahydro-1H-cyclopenta[a]phenanthren-17-yl] ester

> <PUBCHEM_IUPAC_NAME>
[(8R,9S,10R,13S,14S,17S)-3-ethoxy-10,13-dimethyl-2,7,8,9,11,12,14,15,16,17-decahydro-1H-cyclopenta[a]phenanthren-17-yl] propanoate

> <PUBCHEM_IUPAC_SYSTEMATIC_NAME>
[(8R,9S,10R,13S,14S,17S)-3-ethoxy-10,13-dimethyl-2,7,8,9,11,12,14,15,16,17-decahydro-1H-cyclopenta[a]phenanthren-17-yl] propanoate

> <PUBCHEM_IUPAC_TRADITIONAL_NAME>
propionic acid [(8R,9S,10R,13S,14S,17S)-3-ethoxy-10,13-dimethyl-2,7,8,9,11,12,14,15,16,17-decahydro-1H-cyclopenta[a]phenanthren-17-yl] ester

> <PUBCHEM_IUPAC_INCHI>
InChI=1S/C24H36O3/c1-5-22(25)27-21-10-9-19-18-8-7-16-15-17(26-6-2)11-13-23(16,3)20(18)12-14-24(19,21)4/h7,15,18-21H,5-6,8-14H2,1-4H3/t18-,19-,20-,21-,23-,24-/m0/s1

> <PUBCHEM_IUPAC_INCHIKEY>
NULCEDVSYYAIBD-CGRIZKAYSA-N

> <PUBCHEM_XLOGP3_AA>
5.5

> <PUBCHEM_EXACT_MASS>
372.266445

> <PUBCHEM_MOLECULAR_FORMULA>
C24H36O3

> <PUBCHEM_MOLECULAR_WEIGHT>
372.54084

> <PUBCHEM_OPENEYE_CAN_SMILES>
CCC(=O)OC1CCC2C1(CCC3C2CC=C4C3(CCC(=C4)OCC)C)C

> <PUBCHEM_OPENEYE_ISO_SMILES>
CCC(=O)O[C@H]1CC[C@@H]2[C@@]1(CC[C@H]3[C@H]2CC=C4[C@@]3(CCC(=C4)OCC)C)C

> <PUBCHEM_CACTVS_TPSA>
35.5

> <PUBCHEM_MONOISOTOPIC_WEIGHT>
372.266445

> <PUBCHEM_TOTAL_CHARGE>
0

> <PUBCHEM_HEAVY_ATOM_COUNT>
27

> <PUBCHEM_ATOM_DEF_STEREO_COUNT>
6

> <PUBCHEM_ATOM_UDEF_STEREO_COUNT>
0

> <PUBCHEM_BOND_DEF_STEREO_COUNT>
0

> <PUBCHEM_BOND_UDEF_STEREO_COUNT>
0

> <PUBCHEM_ISOTOPIC_ATOM_COUNT>
0

> <PUBCHEM_COMPONENT_COUNT>
1

> <PUBCHEM_CACTVS_TAUTO_COUNT>
1

> <PUBCHEM_COORDINATE_TYPE>
1
5
255

> <PUBCHEM_BONDANNOTATIONS>
10  1  5
4  28  6
5  15  5
6  29  5
7  30  6
9  19  5

$$$$

