5120
  -OEChem-06261200313D

 42 43  0     1  0  0  0  0  0999 V2000
    5.9500   -1.7563   -0.3311 I   0  0  0  0  0  0  0  0  0  0  0  0
    0.2875   -1.8758   -0.3855 O   0  0  0  0  0  0  0  0  0  0  0  0
    0.9844    1.9934    0.1702 O   0  0  0  0  0  0  0  0  0  0  0  0
    2.7802   -2.4298   -0.0825 O   0  0  0  0  0  0  0  0  0  0  0  0
   -4.0803   -0.2959    0.1611 N   0  0  1  0  0  0  0  0  0  0  0  0
   -0.4018   -0.0440    0.8607 N   0  0  0  0  0  0  0  0  0  0  0  0
   -2.6631    0.0299   -0.0507 C   0  0  1  0  0  0  0  0  0  0  0  0
   -2.6763    1.5581   -0.1289 C   0  0  0  0  0  0  0  0  0  0  0  0
   -4.0878    1.9265   -0.5730 C   0  0  0  0  0  0  0  0  0  0  0  0
   -4.8117    0.6006   -0.7375 C   0  0  0  0  0  0  0  0  0  0  0  0
   -1.7541   -0.4713    1.0644 C   0  0  0  0  0  0  0  0  0  0  0  0
   -4.3974   -1.6938   -0.1054 C   0  0  0  0  0  0  0  0  0  0  0  0
   -5.8676   -1.9817    0.1183 C   0  0  0  0  0  0  0  0  0  0  0  0
    0.5262   -0.7920    0.1407 C   0  0  0  0  0  0  0  0  0  0  0  0
    1.8952   -0.2234    0.0423 C   0  0  0  0  0  0  0  0  0  0  0  0
    2.0494    1.1497    0.0622 C   0  0  0  0  0  0  0  0  0  0  0  0
    2.9750   -1.0783   -0.0680 C   0  0  0  0  0  0  0  0  0  0  0  0
    3.3326    1.6884   -0.0318 C   0  0  0  0  0  0  0  0  0  0  0  0
    4.2583   -0.5395   -0.1621 C   0  0  0  0  0  0  0  0  0  0  0  0
    4.4370    0.8437   -0.1440 C   0  0  0  0  0  0  0  0  0  0  0  0
    1.2644    3.3915    0.1804 C   0  0  0  0  0  0  0  0  0  0  0  0
   -2.3198   -0.3619   -1.0193 H   0  0  0  0  0  0  0  0  0  0  0  0
   -1.9315    1.9244   -0.8440 H   0  0  0  0  0  0  0  0  0  0  0  0
   -2.4669    2.0284    0.8395 H   0  0  0  0  0  0  0  0  0  0  0  0
   -4.5697    2.5391    0.1982 H   0  0  0  0  0  0  0  0  0  0  0  0
   -4.0836    2.5019   -1.5043 H   0  0  0  0  0  0  0  0  0  0  0  0
   -5.8666    0.7076   -0.4659 H   0  0  0  0  0  0  0  0  0  0  0  0
   -4.7476    0.2728   -1.7832 H   0  0  0  0  0  0  0  0  0  0  0  0
   -1.7703   -1.5646    1.1229 H   0  0  0  0  0  0  0  0  0  0  0  0
   -2.0737   -0.0838    2.0387 H   0  0  0  0  0  0  0  0  0  0  0  0
   -4.1185   -1.9856   -1.1259 H   0  0  0  0  0  0  0  0  0  0  0  0
   -3.8303   -2.3364    0.5772 H   0  0  0  0  0  0  0  0  0  0  0  0
   -0.1213    0.8259    1.3019 H   0  0  0  0  0  0  0  0  0  0  0  0
   -6.1953   -1.6495    1.1094 H   0  0  0  0  0  0  0  0  0  0  0  0
   -6.5035   -1.5074   -0.6358 H   0  0  0  0  0  0  0  0  0  0  0  0
   -6.0479   -3.0606    0.0567 H   0  0  0  0  0  0  0  0  0  0  0  0
    3.5499    2.7507   -0.0246 H   0  0  0  0  0  0  0  0  0  0  0  0
    5.4277    1.2859   -0.2159 H   0  0  0  0  0  0  0  0  0  0  0  0
    3.6472   -2.8630   -0.1649 H   0  0  0  0  0  0  0  0  0  0  0  0
    1.7128    3.7212   -0.7630 H   0  0  0  0  0  0  0  0  0  0  0  0
    1.8630    3.6778    1.0517 H   0  0  0  0  0  0  0  0  0  0  0  0
    0.3041    3.9098    0.2723 H   0  0  0  0  0  0  0  0  0  0  0  0
  1 19  1  0  0  0  0
  2 14  2  0  0  0  0
  3 16  1  0  0  0  0
  3 21  1  0  0  0  0
  4 17  1  0  0  0  0
  4 39  1  0  0  0  0
  5  7  1  0  0  0  0
  5 10  1  0  0  0  0
  5 12  1  0  0  0  0
  6 11  1  0  0  0  0
  6 14  1  0  0  0  0
  6 33  1  0  0  0  0
  7  8  1  0  0  0  0
  7 11  1  0  0  0  0
  7 22  1  0  0  0  0
  8  9  1  0  0  0  0
  8 23  1  0  0  0  0
  8 24  1  0  0  0  0
  9 10  1  0  0  0  0
  9 25  1  0  0  0  0
  9 26  1  0  0  0  0
 10 27  1  0  0  0  0
 10 28  1  0  0  0  0
 11 29  1  0  0  0  0
 11 30  1  0  0  0  0
 12 13  1  0  0  0  0
 12 31  1  0  0  0  0
 12 32  1  0  0  0  0
 13 34  1  0  0  0  0
 13 35  1  0  0  0  0
 13 36  1  0  0  0  0
 14 15  1  0  0  0  0
 15 16  2  0  0  0  0
 15 17  1  0  0  0  0
 16 18  1  0  0  0  0
 17 19  2  0  0  0  0
 18 20  2  0  0  0  0
 18 37  1  0  0  0  0
 19 20  1  0  0  0  0
 20 38  1  0  0  0  0
 21 40  1  0  0  0  0
 21 41  1  0  0  0  0
 21 42  1  0  0  0  0
M  END
> <PUBCHEM_COMPOUND_CID>
5120

> <PUBCHEM_CONFORMER_RMSD>
0.8

> <PUBCHEM_CONFORMER_DIVERSEORDER>
14
91
7
45
86
40
66
62
5
59
108
98
24
114
95
26
53
113
49
31
83
76
97
20
23
85
51
3
92
36
47
75
103
9
12
109
111
43
30
57
100
106
69
73
65
56
67
102
77
112
115
79
13
101
2
15
27
99
18
17
110
19
93
37
41
34
16
87
78
29
6
8
80
64
52
1
21
39
68
96
35
50
10
25
48
38
11
81
28
94
58
54
82
32
33
70
71
107
55
88
61
4
22
104
74
90
116
42
63
72
44
89
46
60
117
84
105

> <PUBCHEM_MMFF94_PARTIAL_CHARGES>
22
1 -0.08
10 0.27
11 0.3
12 0.27
14 0.54
15 0.09
16 0.08
17 0.08
18 -0.15
19 0.08
2 -0.57
20 -0.15
21 0.28
3 -0.36
33 0.37
37 0.15
38 0.15
39 0.45
4 -0.53
5 -0.81
6 -0.73
7 0.27

> <PUBCHEM_EFFECTIVE_ROTOR_COUNT>
7

> <PUBCHEM_PHARMACOPHORE_FEATURES>
8
1 1 hydrophobe
1 2 acceptor
1 3 acceptor
1 4 donor
1 5 cation
1 6 donor
5 5 7 8 9 10 rings
6 15 16 17 18 19 20 rings

> <PUBCHEM_HEAVY_ATOM_COUNT>
21

> <PUBCHEM_ATOM_DEF_STEREO_COUNT>
0

> <PUBCHEM_ATOM_UDEF_STEREO_COUNT>
1

> <PUBCHEM_BOND_DEF_STEREO_COUNT>
0

> <PUBCHEM_BOND_UDEF_STEREO_COUNT>
0

> <PUBCHEM_ISOTOPIC_ATOM_COUNT>
0

> <PUBCHEM_COMPONENT_COUNT>
1

> <PUBCHEM_CACTVS_TAUTO_COUNT>
7

> <PUBCHEM_CONFORMER_ID>
000014000000000E

> <PUBCHEM_MMFF94_ENERGY>
52.8966

> <PUBCHEM_FEATURE_SELFOVERLAP>
40.594

> <PUBCHEM_SHAPE_FINGERPRINT>
10366900 7 17489870427447787283
11089746 13 13470412123685682895
11471102 20 18411135844895387732
11578080 2 13324557526154028612
116883 192 17975693110778074780
12166972 35 18201712942709916100
12236239 1 17676205788151332106
12403259 226 18411422778380340953
12916754 54 18408882902615081761
13167823 11 18409732858983484639
13862211 1 18410572929423491874
14341114 176 18410851045445100525
15196674 1 18411419513983474540
17349148 13 17676198074606495738
17492 89 18410575106571315563
17844677 252 18410004438455362761
18681886 176 18334582334779259410
19784866 170 9007059067061419115
200 152 18113618992876025673
20645477 70 18334288777948742638
21267235 1 18408595972697965870
21709351 56 18411142445801264231
221357 26 18412547604698100149
221490 88 18411979126984352531
22289505 5 18341337789727718964
22393880 68 18342745155957851935
23402539 116 18334861666345314310
23402655 69 18409731789367556581
23557571 272 18342173350383058135
23559900 14 18410864230979115465
3004659 81 18202281442446599894
3286 77 18341896264288138725
335352 9 18338799030559589173
350125 39 18337388245471703705
351380 180 18342459214236193977
3545911 37 18341050804618976253
4214541 1 18411419540138023405
5104073 3 18409731772456655073
5281201 14 18412260619125244517
77779 3 18411419527189805037
9709674 26 18270678662958586019

> <PUBCHEM_SHAPE_MULTIPOLES>
416.54
13.11
2.91
0.76
3.88
1.29
-0.03
-6.5
2.07
-0.35
0.07
0.19
-0.02
0.71

> <PUBCHEM_SHAPE_SELFOVERLAP>
847.018

> <PUBCHEM_SHAPE_VOLUME>
248.1

> <PUBCHEM_COORDINATE_TYPE>
2
5
10

$$$$

