17395498
  -OEChem-06241222503D

 40 43  0     0  0  0  0  0  0999 V2000
   -6.3778   -1.1830   -1.9241 F   0  0  0  0  0  0  0  0  0  0  0  0
   -6.5517    0.9966   -1.8355 F   0  0  0  0  0  0  0  0  0  0  0  0
   -4.5001    0.0536   -1.6284 O   0  0  0  0  0  0  0  0  0  0  0  0
   -6.1882   -0.1512    0.0863 O   0  0  0  0  0  0  0  0  0  0  0  0
    5.9932    1.0519   -1.4624 O   0  0  0  0  0  0  0  0  0  0  0  0
    0.1929    0.3855   -0.4170 O   0  0  0  0  0  0  0  0  0  0  0  0
    4.2136    1.9333   -0.2625 N   0  0  0  0  0  0  0  0  0  0  0  0
    3.0967    1.7489    0.4980 N   0  0  0  0  0  0  0  0  0  0  0  0
   -0.9063    0.2084    1.6527 N   0  0  0  0  0  0  0  0  0  0  0  0
    3.4031   -0.6627    0.3092 C   0  0  0  0  0  0  0  0  0  0  0  0
    2.7036    0.5466    0.7749 C   0  0  0  0  0  0  0  0  0  0  0  0
    1.4605    0.3991    1.6205 C   0  0  0  0  0  0  0  0  0  0  0  0
    4.5423   -0.4747   -0.4651 C   0  0  0  0  0  0  0  0  0  0  0  0
    4.9851    0.8960   -0.7765 C   0  0  0  0  0  0  0  0  0  0  0  0
   -2.2697    0.1148    1.2850 C   0  0  0  0  0  0  0  0  0  0  0  0
    0.1928    0.3320    0.8086 C   0  0  0  0  0  0  0  0  0  0  0  0
    2.9686   -1.9562    0.6132 C   0  0  0  0  0  0  0  0  0  0  0  0
   -3.9677    0.0458   -0.3750 C   0  0  0  0  0  0  0  0  0  0  0  0
   -4.9309   -0.0710    0.6033 C   0  0  0  0  0  0  0  0  0  0  0  0
    5.2577   -1.5789   -0.9422 C   0  0  0  0  0  0  0  0  0  0  0  0
   -2.6265    0.1407   -0.0654 C   0  0  0  0  0  0  0  0  0  0  0  0
   -3.2527   -0.0043    2.2835 C   0  0  0  0  0  0  0  0  0  0  0  0
   -4.6043   -0.0989    1.9436 C   0  0  0  0  0  0  0  0  0  0  0  0
    3.6821   -3.0574    0.1372 C   0  0  0  0  0  0  0  0  0  0  0  0
    4.8243   -2.8695   -0.6389 C   0  0  0  0  0  0  0  0  0  0  0  0
   -5.8950   -0.0706   -1.3159 C   0  0  0  0  0  0  0  0  0  0  0  0
    4.5547    3.3251   -0.5069 C   0  0  0  0  0  0  0  0  0  0  0  0
    1.3933    1.2854    2.2667 H   0  0  0  0  0  0  0  0  0  0  0  0
    1.5290   -0.4568    2.2969 H   0  0  0  0  0  0  0  0  0  0  0  0
    2.0778   -2.1510    1.1999 H   0  0  0  0  0  0  0  0  0  0  0  0
   -0.7292    0.1811    2.6546 H   0  0  0  0  0  0  0  0  0  0  0  0
    6.1504   -1.4559   -1.5491 H   0  0  0  0  0  0  0  0  0  0  0  0
   -1.9343    0.2288   -0.8886 H   0  0  0  0  0  0  0  0  0  0  0  0
   -2.9699   -0.0242    3.3335 H   0  0  0  0  0  0  0  0  0  0  0  0
   -5.3649   -0.1910    2.7104 H   0  0  0  0  0  0  0  0  0  0  0  0
    3.3442   -4.0635    0.3690 H   0  0  0  0  0  0  0  0  0  0  0  0
    5.3767   -3.7284   -1.0086 H   0  0  0  0  0  0  0  0  0  0  0  0
    3.7198    3.8067   -1.0245 H   0  0  0  0  0  0  0  0  0  0  0  0
    5.4550    3.4142   -1.1202 H   0  0  0  0  0  0  0  0  0  0  0  0
    4.7256    3.8197    0.4539 H   0  0  0  0  0  0  0  0  0  0  0  0
  1 26  1  0  0  0  0
  2 26  1  0  0  0  0
  3 18  1  0  0  0  0
  3 26  1  0  0  0  0
  4 19  1  0  0  0  0
  4 26  1  0  0  0  0
  5 14  2  0  0  0  0
  6 16  2  0  0  0  0
  7  8  1  0  0  0  0
  7 14  1  0  0  0  0
  7 27  1  0  0  0  0
  8 11  2  0  0  0  0
  9 15  1  0  0  0  0
  9 16  1  0  0  0  0
  9 31  1  0  0  0  0
 10 11  1  0  0  0  0
 10 13  1  0  0  0  0
 10 17  2  0  0  0  0
 11 12  1  0  0  0  0
 12 16  1  0  0  0  0
 12 28  1  0  0  0  0
 12 29  1  0  0  0  0
 13 14  1  0  0  0  0
 13 20  2  0  0  0  0
 15 21  2  0  0  0  0
 15 22  1  0  0  0  0
 17 24  1  0  0  0  0
 17 30  1  0  0  0  0
 18 19  2  0  0  0  0
 18 21  1  0  0  0  0
 19 23  1  0  0  0  0
 20 25  1  0  0  0  0
 20 32  1  0  0  0  0
 21 33  1  0  0  0  0
 22 23  2  0  0  0  0
 22 34  1  0  0  0  0
 23 35  1  0  0  0  0
 24 25  2  0  0  0  0
 24 36  1  0  0  0  0
 25 37  1  0  0  0  0
 27 38  1  0  0  0  0
 27 39  1  0  0  0  0
 27 40  1  0  0  0  0
M  END
> <PUBCHEM_COMPOUND_CID>
17395498

> <PUBCHEM_CONFORMER_RMSD>
0.8

> <PUBCHEM_CONFORMER_DIVERSEORDER>
1
58
44
31
49
16
50
17
43
5
27
4
18
51
14
48
2
6
15
52
59
47
40
37
46
20
28
41
33
26
3
42
36
35
22
32
53
45
21
39
54
38
12
57
29
19
30
11
60
34
13
56
25
9
10
55
23
24
8
7

> <PUBCHEM_MMFF94_PARTIAL_CHARGES>
35
1 -0.34
10 0.09
11 0.3
12 0.12
13 0.09
14 0.54
15 0.12
16 0.57
17 -0.15
18 0.08
19 0.08
2 -0.34
20 -0.15
21 -0.15
22 -0.15
23 -0.15
24 -0.15
25 -0.15
26 1.24
27 0.3
3 -0.36
30 0.15
31 0.37
32 0.15
33 0.15
34 0.15
35 0.15
36 0.15
37 0.15
4 -0.36
5 -0.57
6 -0.57
7 -0.3
8 -0.51
9 -0.55

> <PUBCHEM_EFFECTIVE_ROTOR_COUNT>
4.6

> <PUBCHEM_PHARMACOPHORE_FEATURES>
10
1 3 acceptor
1 4 acceptor
1 5 acceptor
1 6 acceptor
1 8 acceptor
1 9 donor
5 3 4 18 19 26 rings
6 10 13 17 20 24 25 rings
6 15 18 19 21 22 23 rings
6 7 8 10 11 13 14 rings

> <PUBCHEM_HEAVY_ATOM_COUNT>
27

> <PUBCHEM_ATOM_DEF_STEREO_COUNT>
0

> <PUBCHEM_ATOM_UDEF_STEREO_COUNT>
0

> <PUBCHEM_BOND_DEF_STEREO_COUNT>
0

> <PUBCHEM_BOND_UDEF_STEREO_COUNT>
0

> <PUBCHEM_ISOTOPIC_ATOM_COUNT>
0

> <PUBCHEM_COMPONENT_COUNT>
1

> <PUBCHEM_CACTVS_TAUTO_COUNT>
2

> <PUBCHEM_CONFORMER_ID>
01096F2A00000001

> <PUBCHEM_MMFF94_ENERGY>
75.5425

> <PUBCHEM_FEATURE_SELFOVERLAP>
50.924

> <PUBCHEM_SHAPE_FINGERPRINT>
10319926 262 14056996140123787027
10622 236 17971752426644699882
10670039 82 15553886731759761646
10693767 8 17969768852698644574
11069576 57 18114739451613764070
12236239 1 17603863424859796115
12616971 3 17967522510833077363
12661589 4 16588883256282106431
12730499 353 18271793589651229432
12788726 201 17241587580791977002
12838862 33 18411696549367260828
13150687 139 17750500803713728284
13533116 47 18259985976454833738
14347332 77 17749390407794538897
15183329 4 17676204684867106453
15188451 53 15719686445361741219
15250474 111 17894914048411236287
15475509 35 13984933091767336100
15799311 1 17023169514467493495
16991971 28 18126844027302478274
17349148 13 17095240328393340939
17844677 252 18339917207651035533
17857418 61 17530968011783753699
18222031 100 16950285104680477681
18681886 176 16153704298372359648
20645477 70 18341606036516310050
21033648 29 17346595248901759041
21033650 10 15625649635185295104
21585481 104 18268450056765118949
22061861 79 18341893013061257267
221357 26 18342739649862857308
23081809 10 17749103400899704121
23522609 53 17533187878626857609
23559900 14 17346590902516213518
23569914 152 17406861925552731103
2748736 6 14045479864172621175
3004659 81 16950280693643621224
312425 54 6916261875577776869
314194 84 18114454647662820274
3472631 163 15913037678367054870
34797466 226 17489012791277386661
351380 3 17458063789381465259
3882209 13 17123128560391121010
4015057 19 18410003330163890745
4098825 35 18338517547514962057
44249763 50 17417535687971211891
46194498 28 18343866628154352484
5104073 3 9583219610099677868
531348 171 18114744962372938793
960060 61 18334858324771035376

> <PUBCHEM_SHAPE_MULTIPOLES>
502.68
17.85
2.41
1.8
16.27
0.17
0.13
1.02
-8.95
-6.66
-0.52
3
-0.05
-0.43

> <PUBCHEM_SHAPE_SELFOVERLAP>
1119.048

> <PUBCHEM_SHAPE_VOLUME>
268.1

> <PUBCHEM_COORDINATE_TYPE>
2
5
10

$$$$

