439394
  -OEChem-07051212453D

 29 29  0     1  0  0  0  0  0999 V2000
   -3.4501   -0.1563    0.1019 P   0  0  0  0  0  0  0  0  0  0  0  0
    1.4476   -0.5729   -0.9040 O   0  0  0  0  0  0  0  0  0  0  0  0
    0.2682    1.3618   -1.5224 O   0  0  0  0  0  0  0  0  0  0  0  0
    0.5536    0.1384    1.8927 O   0  0  0  0  0  0  0  0  0  0  0  0
    2.6557    2.2437   -0.1097 O   0  0  0  0  0  0  0  0  0  0  0  0
   -1.9496    0.4309   -0.0554 O   0  0  0  0  0  0  0  0  0  0  0  0
    3.4508   -2.4191   -0.3402 O   0  0  0  0  0  0  0  0  0  0  0  0
   -3.2628   -1.4313    1.0789 O   0  0  0  0  0  0  0  0  0  0  0  0
   -3.7269   -0.8313   -1.3414 O   0  0  0  0  0  0  0  0  0  0  0  0
   -4.4792    0.8435    0.5418 O   0  0  0  0  0  0  0  0  0  0  0  0
    0.3887    0.3284   -0.5415 C   0  0  2  0  0  0  0  0  0  0  0  0
    0.8319    0.9708    0.7749 C   0  0  2  0  0  0  0  0  0  0  0  0
    2.3377    1.0523    0.6053 C   0  0  1  0  0  0  0  0  0  0  0  0
    2.6688   -0.1626   -0.2598 C   0  0  1  0  0  0  0  0  0  0  0  0
   -0.9188   -0.4500   -0.4675 C   0  0  0  0  0  0  0  0  0  0  0  0
    3.1844   -1.3462    0.5465 C   0  0  0  0  0  0  0  0  0  0  0  0
    0.3616    1.9468    0.9375 H   0  0  0  0  0  0  0  0  0  0  0  0
    2.8997    1.0626    1.5445 H   0  0  0  0  0  0  0  0  0  0  0  0
    3.3810    0.0830   -1.0561 H   0  0  0  0  0  0  0  0  0  0  0  0
   -0.8378   -1.2982    0.2202 H   0  0  0  0  0  0  0  0  0  0  0  0
   -1.1637   -0.8489   -1.4582 H   0  0  0  0  0  0  0  0  0  0  0  0
    2.4497   -1.6967    1.2778 H   0  0  0  0  0  0  0  0  0  0  0  0
    4.1109   -1.0937    1.0703 H   0  0  0  0  0  0  0  0  0  0  0  0
    0.9080    2.0652   -1.3250 H   0  0  0  0  0  0  0  0  0  0  0  0
    0.8991    0.5858    2.6840 H   0  0  0  0  0  0  0  0  0  0  0  0
    2.4053    2.9962    0.4531 H   0  0  0  0  0  0  0  0  0  0  0  0
    2.6215   -2.6309   -0.8020 H   0  0  0  0  0  0  0  0  0  0  0  0
   -4.0585   -1.9195    1.3797 H   0  0  0  0  0  0  0  0  0  0  0  0
   -4.6206   -1.1856   -1.5361 H   0  0  0  0  0  0  0  0  0  0  0  0
  1  6  1  0  0  0  0
  1  8  1  0  0  0  0
  1  9  1  0  0  0  0
  1 10  2  0  0  0  0
  2 11  1  0  0  0  0
  2 14  1  0  0  0  0
  3 11  1  0  0  0  0
  3 24  1  0  0  0  0
  4 12  1  0  0  0  0
  4 25  1  0  0  0  0
  5 13  1  0  0  0  0
  5 26  1  0  0  0  0
  6 15  1  0  0  0  0
  7 16  1  0  0  0  0
  7 27  1  0  0  0  0
  8 28  1  0  0  0  0
  9 29  1  0  0  0  0
 11 12  1  0  0  0  0
 11 15  1  0  0  0  0
 12 13  1  0  0  0  0
 12 17  1  0  0  0  0
 13 14  1  0  0  0  0
 13 18  1  0  0  0  0
 14 16  1  0  0  0  0
 14 19  1  0  0  0  0
 15 20  1  0  0  0  0
 15 21  1  0  0  0  0
 16 22  1  0  0  0  0
 16 23  1  0  0  0  0
M  END
> <PUBCHEM_COMPOUND_CID>
439394

> <PUBCHEM_CONFORMER_RMSD>
0.6

> <PUBCHEM_CONFORMER_DIVERSEORDER>
1
8
4
11
5
12
3
7
9
10
2
6

> <PUBCHEM_MMFF94_PARTIAL_CHARGES>
22
1 1.51
10 -0.7
11 0.56
12 0.28
13 0.28
14 0.28
15 0.28
16 0.28
2 -0.56
24 0.4
25 0.4
26 0.4
27 0.4
28 0.5
29 0.5
3 -0.68
4 -0.68
5 -0.68
6 -0.55
7 -0.68
8 -0.77
9 -0.77

> <PUBCHEM_EFFECTIVE_ROTOR_COUNT>
5

> <PUBCHEM_PHARMACOPHORE_FEATURES>
14
1 10 acceptor
1 2 acceptor
1 3 acceptor
1 3 donor
1 4 acceptor
1 4 donor
1 5 acceptor
1 5 donor
1 7 acceptor
1 7 donor
1 8 acceptor
1 9 acceptor
4 1 8 9 10 anion
5 2 11 12 13 14 rings

> <PUBCHEM_HEAVY_ATOM_COUNT>
16

> <PUBCHEM_ATOM_DEF_STEREO_COUNT>
3

> <PUBCHEM_ATOM_UDEF_STEREO_COUNT>
1

> <PUBCHEM_BOND_DEF_STEREO_COUNT>
0

> <PUBCHEM_BOND_UDEF_STEREO_COUNT>
0

> <PUBCHEM_ISOTOPIC_ATOM_COUNT>
0

> <PUBCHEM_COMPONENT_COUNT>
1

> <PUBCHEM_CACTVS_TAUTO_COUNT>
1

> <PUBCHEM_CONFORMER_ID>
0006B46200000001

> <PUBCHEM_MMFF94_ENERGY>
4.4574

> <PUBCHEM_FEATURE_SELFOVERLAP>
71.128

> <PUBCHEM_SHAPE_FINGERPRINT>
10130415 120 17676488366939867306
10980938 120 17822011960849728356
11769659 78 18334581269083751950
124424 183 17894633699126842049
12932764 1 17458907024916658633
13296908 3 17561089089961146871
13705890 14 17917706881610348010
14144814 61 16588020182751206323
14252887 29 17917428692230923233
14289901 80 18261959522865387937
15501101 241 18411985754045238812
15775835 57 17676765384246926741
16945 1 18336836281986674724
18186145 218 17561365075885302617
19026448 5 18186523181161370013
20233049 118 16805599235720896456
20279233 1 17345769507517051943
20645477 70 18410865355944276471
20871998 22 18190180281648127358
21501502 16 18041287560455820175
21524375 3 15941217997635352265
230 275 13912320161893119659
23402539 116 16558757793485798662

> <PUBCHEM_SHAPE_MULTIPOLES>
280.3
7.06
1.75
1.23
6.3
0.22
0.11
1.98
0.48
-1.74
-0.07
0.26
-0.05
0.01

> <PUBCHEM_SHAPE_SELFOVERLAP>
551.462

> <PUBCHEM_SHAPE_VOLUME>
169.4

> <PUBCHEM_COORDINATE_TYPE>
2
5
10

$$$$

