442183
  -OEChem-07051212572D

 38 41  0     1  0  0  0  0  0999 V2000
    5.6184   -2.5859    0.0000 O   0  0  0  0  0  0  0  0  0  0  0  0
    3.8887   -1.8037    0.0000 O   0  0  0  0  0  0  0  0  0  0  0  0
    2.7364    0.3907    0.0000 O   0  0  0  0  0  0  0  0  0  0  0  0
    2.2124   -1.5237    0.0000 O   0  0  0  0  0  0  0  0  0  0  0  0
    2.0000    2.0072    0.0000 O   0  0  0  0  0  0  0  0  0  0  0  0
    4.7896   -1.3698    0.0000 C   0  0  1  0  0  0  0  0  0  0  0  0
    3.8887   -0.9359    0.0000 C   0  0  2  0  0  0  0  0  0  0  0  0
    5.6906   -0.9359    0.0000 C   0  0  2  0  0  0  0  0  0  0  0  0
    4.6536   -2.3546    0.0000 C   0  0  1  0  0  0  0  0  0  0  0  0
    3.6662    0.0390    0.0000 C   0  0  1  0  0  0  0  0  0  0  0  0
    4.2896    0.8208    0.0000 C   0  0  1  0  0  0  0  0  0  0  0  0
    3.6754   -2.5312    0.0000 C   0  0  0  0  0  0  0  0  0  0  0  0
    3.2036   -1.6562    0.0000 C   0  0  0  0  0  0  0  0  0  0  0  0
    5.9131    0.0390    0.0000 C   0  0  0  0  0  0  0  0  0  0  0  0
    6.2038   -1.7850    0.0000 C   0  0  0  0  0  0  0  0  0  0  0  0
    5.2896    0.8208    0.0000 C   0  0  0  0  0  0  0  0  0  0  0  0
    2.9877   -0.5021    0.0000 C   0  0  0  0  0  0  0  0  0  0  0  0
    3.7399    1.6490    0.0000 C   0  0  0  0  0  0  0  0  0  0  0  0
    2.7818    1.3837    0.0000 C   0  0  0  0  0  0  0  0  0  0  0  0
    4.0896    2.5859    0.0000 C   0  0  0  0  0  0  0  0  0  0  0  0
    6.5298   -0.8008    0.0000 H   0  0  0  0  0  0  0  0  0  0  0  0
    4.6296   -3.2042    0.0000 H   0  0  0  0  0  0  0  0  0  0  0  0
    3.0253   -0.5194    0.0000 H   0  0  0  0  0  0  0  0  0  0  0  0
    4.6915    1.5698    0.0000 H   0  0  0  0  0  0  0  0  0  0  0  0
    3.1018   -2.7665    0.0000 H   0  0  0  0  0  0  0  0  0  0  0  0
    3.8491   -3.1264    0.0000 H   0  0  0  0  0  0  0  0  0  0  0  0
    6.4717   -0.2300    0.0000 H   0  0  0  0  0  0  0  0  0  0  0  0
    6.2997    0.5237    0.0000 H   0  0  0  0  0  0  0  0  0  0  0  0
    6.6518   -2.2135    0.0000 H   0  0  0  0  0  0  0  0  0  0  0  0
    6.6876   -1.3972    0.0000 H   0  0  0  0  0  0  0  0  0  0  0  0
    5.8482    1.0898    0.0000 H   0  0  0  0  0  0  0  0  0  0  0  0
    5.1517    1.4253    0.0000 H   0  0  0  0  0  0  0  0  0  0  0  0
    3.2567    0.0565    0.0000 H   0  0  0  0  0  0  0  0  0  0  0  0
    2.4291   -0.2331    0.0000 H   0  0  0  0  0  0  0  0  0  0  0  0
    2.7187   -1.0607    0.0000 H   0  0  0  0  0  0  0  0  0  0  0  0
    4.0566   -2.4005    0.0000 H   0  0  0  0  0  0  0  0  0  0  0  0
    4.7011    2.6885    0.0000 H   0  0  0  0  0  0  0  0  0  0  0  0
    3.6950    3.0641    0.0000 H   0  0  0  0  0  0  0  0  0  0  0  0
  1  9  1  0  0  0  0
  1 15  1  0  0  0  0
  6  2  1  1  0  0  0
  2 36  1  0  0  0  0
  3 10  1  0  0  0  0
  3 19  1  0  0  0  0
  4 13  2  0  0  0  0
  5 19  2  0  0  0  0
  6  7  1  0  0  0  0
  6  8  1  0  0  0  0
  6  9  1  0  0  0  0
  7 10  1  0  0  0  0
  7 13  1  0  0  0  0
  7 17  1  6  0  0  0
  8 14  1  0  0  0  0
  8 15  1  0  0  0  0
  8 21  1  1  0  0  0
  9 12  1  0  0  0  0
  9 22  1  1  0  0  0
 10 11  1  0  0  0  0
 10 23  1  1  0  0  0
 11 16  1  0  0  0  0
 11 18  1  0  0  0  0
 11 24  1  1  0  0  0
 12 13  1  0  0  0  0
 12 25  1  0  0  0  0
 12 26  1  0  0  0  0
 14 16  1  0  0  0  0
 14 27  1  0  0  0  0
 14 28  1  0  0  0  0
 15 29  1  0  0  0  0
 15 30  1  0  0  0  0
 16 31  1  0  0  0  0
 16 32  1  0  0  0  0
 17 33  1  0  0  0  0
 17 34  1  0  0  0  0
 17 35  1  0  0  0  0
 18 19  1  0  0  0  0
 18 20  2  0  0  0  0
 20 37  1  0  0  0  0
 20 38  1  0  0  0  0
M  END
> <PUBCHEM_COMPOUND_CID>
442183

> <PUBCHEM_COMPOUND_CANONICALIZED>
1

> <PUBCHEM_CACTVS_COMPLEXITY>
540

> <PUBCHEM_CACTVS_HBOND_ACCEPTOR>
5

> <PUBCHEM_CACTVS_HBOND_DONOR>
1

> <PUBCHEM_CACTVS_ROTATABLE_BOND>
0

> <PUBCHEM_CACTVS_SUBSKEYS>
AAADceBwOAAAAAAAAAAAAAAAAAAAAaJEAAAAAAAABgASAADQAAAAGgAACAAAD1SggAICCAAABgCIAoDSCAAAAAAgAAAAAAEAAEgBBBYAIQACQAAF4AADIIHK7PyPgAAAAAAAAAAAAAAAAAAAAIAADCAAAA==

> <PUBCHEM_IUPAC_INCHI>
InChI=1S/C15H18O5/c1-7-9-4-3-8-6-19-11-5-10(16)14(2,15(8,11)18)12(9)20-13(7)17/h8-9,11-12,18H,1,3-6H2,2H3/t8-,9+,11-,12-,14+,15+/m1/s1

> <PUBCHEM_IUPAC_INCHIKEY>
FMMLMVQJDDLENY-IUYSZMJMSA-N

> <PUBCHEM_XLOGP3_AA>
0.1

> <PUBCHEM_EXACT_MASS>
278.115424

> <PUBCHEM_MOLECULAR_FORMULA>
C15H18O5

> <PUBCHEM_MOLECULAR_WEIGHT>
278.30042

> <PUBCHEM_OPENEYE_CAN_SMILES>
CC12C3C(CCC4C1(C(CC2=O)OC4)O)C(=C)C(=O)O3

> <PUBCHEM_OPENEYE_ISO_SMILES>
C[C@]12[C@H]3[C@@H](CC[C@H]4[C@@]1([C@@H](CC2=O)OC4)O)C(=C)C(=O)O3

> <PUBCHEM_CACTVS_TPSA>
72.8

> <PUBCHEM_MONOISOTOPIC_WEIGHT>
278.115424

> <PUBCHEM_TOTAL_CHARGE>
0

> <PUBCHEM_HEAVY_ATOM_COUNT>
20

> <PUBCHEM_ATOM_DEF_STEREO_COUNT>
6

> <PUBCHEM_ATOM_UDEF_STEREO_COUNT>
0

> <PUBCHEM_BOND_DEF_STEREO_COUNT>
0

> <PUBCHEM_BOND_UDEF_STEREO_COUNT>
0

> <PUBCHEM_ISOTOPIC_ATOM_COUNT>
0

> <PUBCHEM_COMPONENT_COUNT>
1

> <PUBCHEM_CACTVS_TAUTO_COUNT>
2

> <PUBCHEM_COORDINATE_TYPE>
1
5
255

> <PUBCHEM_BONDANNOTATIONS>
10  23  5
11  24  5
6  2  5
7  17  6
8  21  5
9  22  5

$$$$

