5281327
  -OEChem-07051212563D

 75 78  0     1  0  0  0  0  0999 V2000
    8.2812    0.0838    0.4758 O   0  0  0  0  0  0  0  0  0  0  0  0
   -0.4253    0.3717   -0.2634 C   0  0  1  0  0  0  0  0  0  0  0  0
    0.3529   -0.8765    0.1985 C   0  0  2  0  0  0  0  0  0  0  0  0
    1.8112   -0.8892   -0.2708 C   0  0  1  0  0  0  0  0  0  0  0  0
    2.5365    0.3849    0.2521 C   0  0  1  0  0  0  0  0  0  0  0  0
   -1.8180    0.0242    0.3166 C   0  0  2  0  0  0  0  0  0  0  0  0
    0.2484    1.5962    0.3717 C   0  0  0  0  0  0  0  0  0  0  0  0
    4.0386    0.4381   -0.2391 C   0  0  2  0  0  0  0  0  0  0  0  0
   -0.5563   -2.0368   -0.1948 C   0  0  0  0  0  0  0  0  0  0  0  0
    1.7338    1.6872   -0.0190 C   0  0  0  0  0  0  0  0  0  0  0  0
   -1.9792   -1.4822    0.0043 C   0  0  0  0  0  0  0  0  0  0  0  0
    2.5322   -2.1505    0.2280 C   0  0  0  0  0  0  0  0  0  0  0  0
   -0.4875    0.5423   -1.8016 C   0  0  0  0  0  0  0  0  0  0  0  0
    4.7121   -0.9330   -0.0863 C   0  0  0  0  0  0  0  0  0  0  0  0
   -2.9896    0.8601   -0.1781 C   0  0  2  0  0  0  0  0  0  0  0  0
    4.8006    1.4803    0.6332 C   0  0  0  0  0  0  0  0  0  0  0  0
    4.0219   -2.0654    0.1346 C   0  0  0  0  0  0  0  0  0  0  0  0
    4.1297    0.8518   -1.7277 C   0  0  0  0  0  0  0  0  0  0  0  0
    6.2194   -0.9765   -0.1862 C   0  0  0  0  0  0  0  0  0  0  0  0
    6.3189    1.4531    0.4643 C   0  0  0  0  0  0  0  0  0  0  0  0
    6.8787    0.0585    0.7211 C   0  0  2  0  0  0  0  0  0  0  0  0
   -2.7801    2.3399    0.1514 C   0  0  0  0  0  0  0  0  0  0  0  0
   -4.2793    0.3725    0.4361 C   0  0  0  0  0  0  0  0  0  0  0  0
   -5.3142   -0.0991   -0.2764 C   0  0  0  0  0  0  0  0  0  0  0  0
   -6.6017   -0.6006    0.3403 C   0  0  1  0  0  0  0  0  0  0  0  0
   -7.8233    0.2305   -0.1455 C   0  0  0  0  0  0  0  0  0  0  0  0
   -6.7380   -2.0918    0.0107 C   0  0  0  0  0  0  0  0  0  0  0  0
   -7.6853    1.7185    0.1986 C   0  0  0  0  0  0  0  0  0  0  0  0
   -9.1382   -0.2918    0.4517 C   0  0  0  0  0  0  0  0  0  0  0  0
    0.3805   -0.8741    1.3016 H   0  0  0  0  0  0  0  0  0  0  0  0
    1.8395   -0.9036   -1.3662 H   0  0  0  0  0  0  0  0  0  0  0  0
    2.5630    0.2845    1.3496 H   0  0  0  0  0  0  0  0  0  0  0  0
   -1.7657    0.1181    1.4133 H   0  0  0  0  0  0  0  0  0  0  0  0
    0.1747    1.5467    1.4656 H   0  0  0  0  0  0  0  0  0  0  0  0
   -0.2139    2.5364    0.0688 H   0  0  0  0  0  0  0  0  0  0  0  0
   -0.3836   -2.9215    0.4264 H   0  0  0  0  0  0  0  0  0  0  0  0
   -0.4033   -2.3302   -1.2395 H   0  0  0  0  0  0  0  0  0  0  0  0
    1.7938    1.9623   -1.0760 H   0  0  0  0  0  0  0  0  0  0  0  0
    2.1798    2.5180    0.5394 H   0  0  0  0  0  0  0  0  0  0  0  0
   -2.5683   -1.6603   -0.9027 H   0  0  0  0  0  0  0  0  0  0  0  0
   -2.4832   -1.9969    0.8302 H   0  0  0  0  0  0  0  0  0  0  0  0
    2.1917   -3.0125   -0.3583 H   0  0  0  0  0  0  0  0  0  0  0  0
    2.2722   -2.3565    1.2738 H   0  0  0  0  0  0  0  0  0  0  0  0
   -0.9792    1.4802   -2.0790 H   0  0  0  0  0  0  0  0  0  0  0  0
    0.5037    0.5678   -2.2622 H   0  0  0  0  0  0  0  0  0  0  0  0
   -1.0374   -0.2686   -2.2898 H   0  0  0  0  0  0  0  0  0  0  0  0
   -3.0806    0.7737   -1.2683 H   0  0  0  0  0  0  0  0  0  0  0  0
    4.5776    1.3037    1.6944 H   0  0  0  0  0  0  0  0  0  0  0  0
    4.4498    2.4948    0.4094 H   0  0  0  0  0  0  0  0  0  0  0  0
    4.5566   -3.0044    0.2555 H   0  0  0  0  0  0  0  0  0  0  0  0
    3.8041    1.8856   -1.8810 H   0  0  0  0  0  0  0  0  0  0  0  0
    5.1531    0.7964   -2.1137 H   0  0  0  0  0  0  0  0  0  0  0  0
    3.5169    0.2078   -2.3669 H   0  0  0  0  0  0  0  0  0  0  0  0
    6.6121   -1.9699    0.0671 H   0  0  0  0  0  0  0  0  0  0  0  0
    6.5255   -0.8106   -1.2268 H   0  0  0  0  0  0  0  0  0  0  0  0
    6.6026    1.7971   -0.5380 H   0  0  0  0  0  0  0  0  0  0  0  0
    6.7817    2.1669    1.1571 H   0  0  0  0  0  0  0  0  0  0  0  0
    6.7281   -0.2097    1.7741 H   0  0  0  0  0  0  0  0  0  0  0  0
   -2.3836    2.4896    1.1612 H   0  0  0  0  0  0  0  0  0  0  0  0
   -3.7309    2.8854    0.0975 H   0  0  0  0  0  0  0  0  0  0  0  0
   -2.1282    2.8258   -0.5778 H   0  0  0  0  0  0  0  0  0  0  0  0
   -4.3547    0.4109    1.5206 H   0  0  0  0  0  0  0  0  0  0  0  0
   -5.2410   -0.1383   -1.3610 H   0  0  0  0  0  0  0  0  0  0  0  0
    8.6246   -0.8096    0.6474 H   0  0  0  0  0  0  0  0  0  0  0  0
   -6.5376   -0.5109    1.4335 H   0  0  0  0  0  0  0  0  0  0  0  0
   -7.8995    0.1482   -1.2383 H   0  0  0  0  0  0  0  0  0  0  0  0
   -7.5494   -2.5529    0.5824 H   0  0  0  0  0  0  0  0  0  0  0  0
   -5.8215   -2.6374    0.2648 H   0  0  0  0  0  0  0  0  0  0  0  0
   -6.9382   -2.2499   -1.0550 H   0  0  0  0  0  0  0  0  0  0  0  0
   -8.5732    2.2758   -0.1196 H   0  0  0  0  0  0  0  0  0  0  0  0
   -7.5638    1.8650    1.2773 H   0  0  0  0  0  0  0  0  0  0  0  0
   -6.8257    2.1703   -0.3062 H   0  0  0  0  0  0  0  0  0  0  0  0
   -9.0943   -0.3169    1.5457 H   0  0  0  0  0  0  0  0  0  0  0  0
   -9.9787    0.3485    0.1622 H   0  0  0  0  0  0  0  0  0  0  0  0
   -9.3687   -1.2991    0.0922 H   0  0  0  0  0  0  0  0  0  0  0  0
  1 21  1  0  0  0  0
  1 64  1  0  0  0  0
  2  3  1  0  0  0  0
  2  6  1  0  0  0  0
  2  7  1  0  0  0  0
  2 13  1  0  0  0  0
  3  4  1  0  0  0  0
  3  9  1  0  0  0  0
  3 30  1  0  0  0  0
  4  5  1  0  0  0  0
  4 12  1  0  0  0  0
  4 31  1  0  0  0  0
  5  8  1  0  0  0  0
  5 10  1  0  0  0  0
  5 32  1  0  0  0  0
  6 11  1  0  0  0  0
  6 15  1  0  0  0  0
  6 33  1  0  0  0  0
  7 10  1  0  0  0  0
  7 34  1  0  0  0  0
  7 35  1  0  0  0  0
  8 14  1  0  0  0  0
  8 16  1  0  0  0  0
  8 18  1  0  0  0  0
  9 11  1  0  0  0  0
  9 36  1  0  0  0  0
  9 37  1  0  0  0  0
 10 38  1  0  0  0  0
 10 39  1  0  0  0  0
 11 40  1  0  0  0  0
 11 41  1  0  0  0  0
 12 17  1  0  0  0  0
 12 42  1  0  0  0  0
 12 43  1  0  0  0  0
 13 44  1  0  0  0  0
 13 45  1  0  0  0  0
 13 46  1  0  0  0  0
 14 17  2  0  0  0  0
 14 19  1  0  0  0  0
 15 22  1  0  0  0  0
 15 23  1  0  0  0  0
 15 47  1  0  0  0  0
 16 20  1  0  0  0  0
 16 48  1  0  0  0  0
 16 49  1  0  0  0  0
 17 50  1  0  0  0  0
 18 51  1  0  0  0  0
 18 52  1  0  0  0  0
 18 53  1  0  0  0  0
 19 21  1  0  0  0  0
 19 54  1  0  0  0  0
 19 55  1  0  0  0  0
 20 21  1  0  0  0  0
 20 56  1  0  0  0  0
 20 57  1  0  0  0  0
 21 58  1  0  0  0  0
 22 59  1  0  0  0  0
 22 60  1  0  0  0  0
 22 61  1  0  0  0  0
 23 24  2  0  0  0  0
 23 62  1  0  0  0  0
 24 25  1  0  0  0  0
 24 63  1  0  0  0  0
 25 26  1  0  0  0  0
 25 27  1  0  0  0  0
 25 65  1  0  0  0  0
 26 28  1  0  0  0  0
 26 29  1  0  0  0  0
 26 66  1  0  0  0  0
 27 67  1  0  0  0  0
 27 68  1  0  0  0  0
 27 69  1  0  0  0  0
 28 70  1  0  0  0  0
 28 71  1  0  0  0  0
 28 72  1  0  0  0  0
 29 73  1  0  0  0  0
 29 74  1  0  0  0  0
 29 75  1  0  0  0  0
M  END
> <PUBCHEM_COMPOUND_CID>
5281327

> <PUBCHEM_CONFORMER_RMSD>
0.8

> <PUBCHEM_CONFORMER_DIVERSEORDER>
1
16
11
10
12
13
15
8
4
14
5
2
6
3
9
7

> <PUBCHEM_MMFF94_PARTIAL_CHARGES>
15
1 -0.68
12 0.14
14 -0.28
15 0.14
17 -0.29
19 0.14
21 0.28
23 -0.29
24 -0.29
25 0.14
50 0.15
62 0.15
63 0.15
64 0.4
8 0.14

> <PUBCHEM_EFFECTIVE_ROTOR_COUNT>
6

> <PUBCHEM_PHARMACOPHORE_FEATURES>
9
1 1 acceptor
1 1 donor
1 22 hydrophobe
1 27 hydrophobe
3 26 28 29 hydrophobe
5 2 3 6 9 11 rings
6 2 3 4 5 7 10 rings
6 4 5 8 12 14 17 rings
6 8 14 16 19 20 21 rings

> <PUBCHEM_HEAVY_ATOM_COUNT>
29

> <PUBCHEM_ATOM_DEF_STEREO_COUNT>
9

> <PUBCHEM_ATOM_UDEF_STEREO_COUNT>
0

> <PUBCHEM_BOND_DEF_STEREO_COUNT>
1

> <PUBCHEM_BOND_UDEF_STEREO_COUNT>
0

> <PUBCHEM_ISOTOPIC_ATOM_COUNT>
0

> <PUBCHEM_COMPONENT_COUNT>
1

> <PUBCHEM_CACTVS_TAUTO_COUNT>
1

> <PUBCHEM_CONFORMER_ID>
0050962F00000001

> <PUBCHEM_MMFF94_ENERGY>
82.9067

> <PUBCHEM_FEATURE_SELFOVERLAP>
45.765

> <PUBCHEM_SHAPE_FINGERPRINT>
10 15 18272374140428368856
10050765 1 18121780801381593153
10411042 1 17977101590096899430
11135926 11 18342183276327416215
11578080 2 16734974232488159530
11719270 70 18333450967484777791
11724838 91 18342177752360916422
12166972 35 17917426510899578173
12236239 1 17822009821813525137
12516196 113 18409448089935435665
12838862 33 18337689562759465544
13073987 5 18335702801146108632
13533116 47 18408887373048698554
13885169 127 18411701011263346209
14170010 4 18343300362401749741
14251764 18 18409448080954922477
14251764 46 17967814946571510752
14849402 71 18260545589873534801
15840311 113 18130784531031208028
15849732 13 18410293601539545799
16087824 20 18338236068459964749
16120349 18 18335425634027071977
18608769 82 18410296904575384177
19841028 212 18130792321205552226
20771845 171 16917057911731744930
21267235 1 18336261327689338446
21792934 111 18336557104390167480
22149856 69 18261942033864054179
22224240 67 18342459239916554531
23522609 53 18193806376565962785
23559900 14 18338521820263928697
23569917 315 18342451552300524730
249057 3 15140968331314705729
3178227 256 18337662045668839507
335352 9 18410292488742147828
34797466 226 17313098653205770996
350125 39 18409168822814631641
3545911 37 18410857664121624362
4073 2 18131063793545918723
4093350 32 17458343065224163878
4325135 7 18410293614419276519
4340502 62 18412546509397050174
5104073 3 18268987759729538712
99344 41 18409449202537953399

> <PUBCHEM_SHAPE_MULTIPOLES>
590.94
23.35
2.15
0.92
25.68
0.28
-0.34
-0.47
3.83
0.12
0.13
-0.55
-0.18
0.07

> <PUBCHEM_SHAPE_SELFOVERLAP>
1227.568

> <PUBCHEM_SHAPE_VOLUME>
337

> <PUBCHEM_COORDINATE_TYPE>
2
5
10

$$$$

