3371
  -OEChem-07051213033D

 30 31  0     0  0  0  0  0  0999 V2000
    4.9158   -0.6777    0.5175 F   0  0  0  0  0  0  0  0  0  0  0  0
    3.3519   -1.0850    1.9717 F   0  0  0  0  0  0  0  0  0  0  0  0
    3.3543   -2.1278    0.0573 F   0  0  0  0  0  0  0  0  0  0  0  0
   -4.7343    1.3114    0.8399 O   0  0  0  0  0  0  0  0  0  0  0  0
   -2.6344    1.9750    1.4025 O   0  0  0  0  0  0  0  0  0  0  0  0
   -0.8311    0.9582   -0.4526 N   0  0  0  0  0  0  0  0  0  0  0  0
    0.5721    1.0537   -0.4912 C   0  0  0  0  0  0  0  0  0  0  0  0
   -1.7137   -0.1447   -0.4420 C   0  0  0  0  0  0  0  0  0  0  0  0
    2.7504    0.1441    0.0373 C   0  0  0  0  0  0  0  0  0  0  0  0
    1.3593    0.0497    0.0770 C   0  0  0  0  0  0  0  0  0  0  0  0
   -2.9535   -0.0637    0.1918 C   0  0  0  0  0  0  0  0  0  0  0  0
    1.1832    2.1525   -1.0993 C   0  0  0  0  0  0  0  0  0  0  0  0
    3.3579    1.2426   -0.5706 C   0  0  0  0  0  0  0  0  0  0  0  0
   -1.3309   -1.3261   -1.0771 C   0  0  0  0  0  0  0  0  0  0  0  0
    2.5743    2.2469   -1.1390 C   0  0  0  0  0  0  0  0  0  0  0  0
   -3.8106   -1.1642    0.1906 C   0  0  0  0  0  0  0  0  0  0  0  0
    3.5887   -0.9289    0.6451 C   0  0  0  0  0  0  0  0  0  0  0  0
   -2.1880   -2.4265   -1.0784 C   0  0  0  0  0  0  0  0  0  0  0  0
   -3.4279   -2.3456   -0.4445 C   0  0  0  0  0  0  0  0  0  0  0  0
   -3.3834    1.1559    0.8642 C   0  0  0  0  0  0  0  0  0  0  0  0
   -1.3003    1.8591   -0.4708 H   0  0  0  0  0  0  0  0  0  0  0  0
    0.9046   -0.8028    0.5758 H   0  0  0  0  0  0  0  0  0  0  0  0
    0.5840    2.9414   -1.5471 H   0  0  0  0  0  0  0  0  0  0  0  0
    4.4396    1.3359   -0.6126 H   0  0  0  0  0  0  0  0  0  0  0  0
   -0.3826   -1.4126   -1.6004 H   0  0  0  0  0  0  0  0  0  0  0  0
    3.0471    3.1022   -1.6128 H   0  0  0  0  0  0  0  0  0  0  0  0
   -4.7774   -1.1384    0.6865 H   0  0  0  0  0  0  0  0  0  0  0  0
   -1.8923   -3.3450   -1.5770 H   0  0  0  0  0  0  0  0  0  0  0  0
   -4.0941   -3.2035   -0.4441 H   0  0  0  0  0  0  0  0  0  0  0  0
   -5.0154    2.1343    1.2939 H   0  0  0  0  0  0  0  0  0  0  0  0
  1 17  1  0  0  0  0
  2 17  1  0  0  0  0
  3 17  1  0  0  0  0
  4 20  1  0  0  0  0
  4 30  1  0  0  0  0
  5 20  2  0  0  0  0
  6  7  1  0  0  0  0
  6  8  1  0  0  0  0
  6 21  1  0  0  0  0
  7 10  1  0  0  0  0
  7 12  2  0  0  0  0
  8 11  1  0  0  0  0
  8 14  2  0  0  0  0
  9 10  2  0  0  0  0
  9 13  1  0  0  0  0
  9 17  1  0  0  0  0
 10 22  1  0  0  0  0
 11 16  2  0  0  0  0
 11 20  1  0  0  0  0
 12 15  1  0  0  0  0
 12 23  1  0  0  0  0
 13 15  2  0  0  0  0
 13 24  1  0  0  0  0
 14 18  1  0  0  0  0
 14 25  1  0  0  0  0
 15 26  1  0  0  0  0
 16 19  1  0  0  0  0
 16 27  1  0  0  0  0
 18 19  2  0  0  0  0
 18 28  1  0  0  0  0
 19 29  1  0  0  0  0
M  END
> <PUBCHEM_COMPOUND_CID>
3371

> <PUBCHEM_CONFORMER_RMSD>
0.6

> <PUBCHEM_CONFORMER_DIVERSEORDER>
1
12
15
17
8
24
20
2
22
19
18
7
16
11
14
23
13
21
6
4
5
3
10
9

> <PUBCHEM_MMFF94_PARTIAL_CHARGES>
30
1 -0.34
10 -0.15
11 0.09
12 -0.15
13 -0.15
14 -0.15
15 -0.15
16 -0.15
17 1.16
18 -0.15
19 -0.15
2 -0.34
20 0.63
21 0.4
22 0.15
23 0.15
24 0.15
25 0.15
26 0.15
27 0.15
28 0.15
29 0.15
3 -0.34
30 0.5
4 -0.65
5 -0.57
6 -0.6
7 0.1
8 0.1
9 -0.14

> <PUBCHEM_EFFECTIVE_ROTOR_COUNT>
4

> <PUBCHEM_PHARMACOPHORE_FEATURES>
7
1 4 acceptor
1 5 acceptor
1 6 cation
1 6 donor
3 4 5 20 anion
6 7 9 10 12 13 15 rings
6 8 11 14 16 18 19 rings

> <PUBCHEM_HEAVY_ATOM_COUNT>
20

> <PUBCHEM_ATOM_DEF_STEREO_COUNT>
0

> <PUBCHEM_ATOM_UDEF_STEREO_COUNT>
0

> <PUBCHEM_BOND_DEF_STEREO_COUNT>
0

> <PUBCHEM_BOND_UDEF_STEREO_COUNT>
0

> <PUBCHEM_ISOTOPIC_ATOM_COUNT>
0

> <PUBCHEM_COMPONENT_COUNT>
1

> <PUBCHEM_CACTVS_TAUTO_COUNT>
2

> <PUBCHEM_CONFORMER_ID>
00000D2B00000001

> <PUBCHEM_MMFF94_ENERGY>
66.975

> <PUBCHEM_FEATURE_SELFOVERLAP>
35.578

> <PUBCHEM_SHAPE_FINGERPRINT>
10062212 137 18409450254667537567
10616163 171 18264200314330286271
11578080 2 18123500243973212157
11725454 13 16009605718433870897
12107183 9 18195242441376554625
12236239 1 18411696556569656021
12251169 10 18408602590899417860
12403259 327 17095819809712970450
12553582 1 18059584645465863498
12596599 1 18343025496952784122
12670546 56 18261394386578648437
12788726 201 18117548532018667275
13009979 54 18408597046244416352
13533116 47 18199465472624107219
13583140 156 16226057690527832934
14178342 30 18334300889524506134
14251764 3 15864068792987480581
14420673 8 18045492269283964670
15099037 8 18339645525410412071
15256400 18 18116706507647771023
15375462 189 18266736874896854557
15442244 35 18411135827087777772
15537594 2 18130783521012305514
15669948 3 18042398033077395605
15842332 3 18267855108371717061
16110190 28 18264213685349767242
16752209 62 17968658216461661903
17349148 13 18187090546557397997
17492 89 18338793420989902535
17780758 139 18261405485127608570
17818456 19 18261948669288319905
1813 80 17774714368195228550
19422 9 18340765949070376575
20281475 54 18341052917225914924
20291156 8 18343590646308879222
20645477 70 17845104986277405406
21065198 48 18338514136345565133
212916 134 17822575031389340393
22445834 79 18340767027112514269
2255824 54 17984980402088398116
22646028 28 18341619178615153342
23503953 91 18409452500518650240
235170 7 14045456799792039962
23559900 14 17604129502690363940
23598288 3 18261389980396078575
23598291 2 18341890775272357652
23728640 28 18259704484863178311
2748010 2 17619069876925353036
312423 11 18270391690102080583
474 4 17698718112784833692
5104073 3 18410853218202940689
56633871 153 18195253444872484803
5706482 22 18113614617069313327
573450 72 18334295340568703727
6992083 37 18411976992306855445
7064713 232 18187935009810114274
7097593 13 18411136935168208620
7615 1 18337393725491394429
9981440 41 17404865851917760088

> <PUBCHEM_SHAPE_MULTIPOLES>
373.05
8.86
2.63
1.23
1.09
0.23
-0.22
1.65
-2.28
-0.51
0.3
0.23
-0.07
-2.56

> <PUBCHEM_SHAPE_SELFOVERLAP>
810.522

> <PUBCHEM_SHAPE_VOLUME>
203.1

> <PUBCHEM_COORDINATE_TYPE>
2
5
10

$$$$

