14103
  -OEChem-06241222422D

 24 24  0     0  0  0  0  0  0999 V2000
    4.5981    1.9400    0.0000 O   0  0  0  0  0  0  0  0  0  0  0  0
    2.8660    1.9400    0.0000 O   0  0  0  0  0  0  0  0  0  0  0  0
    2.8660   -1.0600    0.0000 C   0  0  0  0  0  0  0  0  0  0  0  0
    2.8660   -0.0600    0.0000 C   0  0  0  0  0  0  0  0  0  0  0  0
    3.7320   -1.5600    0.0000 C   0  0  0  0  0  0  0  0  0  0  0  0
    3.7320    0.4400    0.0000 C   0  0  0  0  0  0  0  0  0  0  0  0
    4.5981   -1.0600    0.0000 C   0  0  0  0  0  0  0  0  0  0  0  0
    4.5981   -0.0600    0.0000 C   0  0  0  0  0  0  0  0  0  0  0  0
    2.0000   -1.5600    0.0000 C   0  0  0  0  0  0  0  0  0  0  0  0
    2.0000    0.4400    0.0000 C   0  0  0  0  0  0  0  0  0  0  0  0
    3.7320   -2.5600    0.0000 C   0  0  0  0  0  0  0  0  0  0  0  0
    3.7320    1.4400    0.0000 C   0  0  0  0  0  0  0  0  0  0  0  0
    5.1350   -1.3700    0.0000 H   0  0  0  0  0  0  0  0  0  0  0  0
    5.1350    0.2500    0.0000 H   0  0  0  0  0  0  0  0  0  0  0  0
    1.6900   -1.0231    0.0000 H   0  0  0  0  0  0  0  0  0  0  0  0
    1.4631   -1.8700    0.0000 H   0  0  0  0  0  0  0  0  0  0  0  0
    2.3100   -2.0969    0.0000 H   0  0  0  0  0  0  0  0  0  0  0  0
    2.3100    0.9769    0.0000 H   0  0  0  0  0  0  0  0  0  0  0  0
    1.4631    0.7500    0.0000 H   0  0  0  0  0  0  0  0  0  0  0  0
    1.6900   -0.0969    0.0000 H   0  0  0  0  0  0  0  0  0  0  0  0
    3.1120   -2.5600    0.0000 H   0  0  0  0  0  0  0  0  0  0  0  0
    3.7320   -3.1800    0.0000 H   0  0  0  0  0  0  0  0  0  0  0  0
    4.3520   -2.5600    0.0000 H   0  0  0  0  0  0  0  0  0  0  0  0
    4.5981    2.5600    0.0000 H   0  0  0  0  0  0  0  0  0  0  0  0
  1 12  1  0  0  0  0
  1 24  1  0  0  0  0
  2 12  2  0  0  0  0
  3  4  1  0  0  0  0
  3  5  2  0  0  0  0
  3  9  1  0  0  0  0
  4  6  2  0  0  0  0
  4 10  1  0  0  0  0
  5  7  1  0  0  0  0
  5 11  1  0  0  0  0
  6  8  1  0  0  0  0
  6 12  1  0  0  0  0
  7  8  2  0  0  0  0
  7 13  1  0  0  0  0
  8 14  1  0  0  0  0
  9 15  1  0  0  0  0
  9 16  1  0  0  0  0
  9 17  1  0  0  0  0
 10 18  1  0  0  0  0
 10 19  1  0  0  0  0
 10 20  1  0  0  0  0
 11 21  1  0  0  0  0
 11 22  1  0  0  0  0
 11 23  1  0  0  0  0
M  END
> <PUBCHEM_COMPOUND_CID>
14103

> <PUBCHEM_COMPOUND_CANONICALIZED>
1

> <PUBCHEM_CACTVS_COMPLEXITY>
177

> <PUBCHEM_CACTVS_HBOND_ACCEPTOR>
2

> <PUBCHEM_CACTVS_HBOND_DONOR>
1

> <PUBCHEM_CACTVS_ROTATABLE_BOND>
1

> <PUBCHEM_CACTVS_SUBSKEYS>
AAADccBwMAAAAAAAAAAAAAAAAAAAAAAAAAAwAAAAAAAAAAABAAAAGgAACAAADACAmAAyCIAAAgCIAiDSCAACAAAkAAAIiAEACMgIJjKAFRCAcQAkwAEImYeIyPCOwAACAAAQAACAAAQAACAAAAAAAAAAAA==

> <PUBCHEM_IUPAC_OPENEYE_NAME>
2,3,4-trimethylbenzoic acid

> <PUBCHEM_IUPAC_CAS_NAME>
2,3,4-trimethylbenzoic acid

> <PUBCHEM_IUPAC_NAME>
2,3,4-trimethylbenzoic acid

> <PUBCHEM_IUPAC_SYSTEMATIC_NAME>
2,3,4-trimethylbenzoic acid

> <PUBCHEM_IUPAC_TRADITIONAL_NAME>
prehnitylic acid

> <PUBCHEM_IUPAC_INCHI>
InChI=1S/C10H12O2/c1-6-4-5-9(10(11)12)8(3)7(6)2/h4-5H,1-3H3,(H,11,12)

> <PUBCHEM_IUPAC_INCHIKEY>
HDIJZFORGDBEKL-UHFFFAOYSA-N

> <PUBCHEM_XLOGP3_AA>
2.5

> <PUBCHEM_EXACT_MASS>
164.08373

> <PUBCHEM_MOLECULAR_FORMULA>
C10H12O2

> <PUBCHEM_MOLECULAR_WEIGHT>
164.20108

> <PUBCHEM_OPENEYE_CAN_SMILES>
CC1=C(C(=C(C=C1)C(=O)O)C)C

> <PUBCHEM_OPENEYE_ISO_SMILES>
CC1=C(C(=C(C=C1)C(=O)O)C)C

> <PUBCHEM_CACTVS_TPSA>
37.3

> <PUBCHEM_MONOISOTOPIC_WEIGHT>
164.08373

> <PUBCHEM_TOTAL_CHARGE>
0

> <PUBCHEM_HEAVY_ATOM_COUNT>
12

> <PUBCHEM_ATOM_DEF_STEREO_COUNT>
0

> <PUBCHEM_ATOM_UDEF_STEREO_COUNT>
0

> <PUBCHEM_BOND_DEF_STEREO_COUNT>
0

> <PUBCHEM_BOND_UDEF_STEREO_COUNT>
0

> <PUBCHEM_ISOTOPIC_ATOM_COUNT>
0

> <PUBCHEM_COMPONENT_COUNT>
1

> <PUBCHEM_CACTVS_TAUTO_COUNT>
3

> <PUBCHEM_COORDINATE_TYPE>
1
5
255

> <PUBCHEM_BONDANNOTATIONS>
3  4  8
3  5  8
4  6  8
5  7  8
6  8  8
7  8  8

$$$$

