13631
  -OEChem-06241222393D

 20 20  0     0  0  0  0  0  0999 V2000
    3.9011   -0.7884    0.7929 Cl  0  0  0  0  0  0  0  0  0  0  0  0
    1.0577   -0.2758   -0.3030 N   0  0  0  0  0  0  0  0  0  0  0  0
    1.9520    0.8370   -0.2190 C   0  0  0  0  0  0  0  0  0  0  0  0
   -0.3374   -0.1516   -0.1365 C   0  0  0  0  0  0  0  0  0  0  0  0
   -0.9001    1.0981    0.1225 C   0  0  0  0  0  0  0  0  0  0  0  0
   -1.1543   -1.2781   -0.2317 C   0  0  0  0  0  0  0  0  0  0  0  0
    3.3916    0.3974   -0.4350 C   0  0  0  0  0  0  0  0  0  0  0  0
   -2.2798    1.2214    0.2865 C   0  0  0  0  0  0  0  0  0  0  0  0
   -2.5341   -1.1549   -0.0679 C   0  0  0  0  0  0  0  0  0  0  0  0
   -3.0968    0.0949    0.1912 C   0  0  0  0  0  0  0  0  0  0  0  0
    1.7070    1.5814   -0.9860 H   0  0  0  0  0  0  0  0  0  0  0  0
    1.8744    1.3228    0.7616 H   0  0  0  0  0  0  0  0  0  0  0  0
    1.4249   -1.2036   -0.4844 H   0  0  0  0  0  0  0  0  0  0  0  0
   -0.3021    2.0007    0.2037 H   0  0  0  0  0  0  0  0  0  0  0  0
   -0.7283   -2.2576   -0.4333 H   0  0  0  0  0  0  0  0  0  0  0  0
    3.5182   -0.0732   -1.4151 H   0  0  0  0  0  0  0  0  0  0  0  0
    4.0695    1.2536   -0.3713 H   0  0  0  0  0  0  0  0  0  0  0  0
   -2.7186    2.1944    0.4880 H   0  0  0  0  0  0  0  0  0  0  0  0
   -3.1704   -2.0319   -0.1421 H   0  0  0  0  0  0  0  0  0  0  0  0
   -4.1711    0.1909    0.3186 H   0  0  0  0  0  0  0  0  0  0  0  0
  1  7  1  0  0  0  0
  2  3  1  0  0  0  0
  2  4  1  0  0  0  0
  2 13  1  0  0  0  0
  3  7  1  0  0  0  0
  3 11  1  0  0  0  0
  3 12  1  0  0  0  0
  4  5  2  0  0  0  0
  4  6  1  0  0  0  0
  5  8  1  0  0  0  0
  5 14  1  0  0  0  0
  6  9  2  0  0  0  0
  6 15  1  0  0  0  0
  7 16  1  0  0  0  0
  7 17  1  0  0  0  0
  8 10  2  0  0  0  0
  8 18  1  0  0  0  0
  9 10  1  0  0  0  0
  9 19  1  0  0  0  0
 10 20  1  0  0  0  0
M  END
> <PUBCHEM_COMPOUND_CID>
13631

> <PUBCHEM_CONFORMER_RMSD>
0.6

> <PUBCHEM_CONFORMER_DIVERSEORDER>
1
6
5
7
4
2
8
3

> <PUBCHEM_MMFF94_PARTIAL_CHARGES>
16
1 -0.29
10 -0.15
13 0.4
14 0.15
15 0.15
18 0.15
19 0.15
2 -0.87
20 0.15
3 0.37
4 0.1
5 -0.15
6 -0.15
7 0.29
8 -0.15
9 -0.15

> <PUBCHEM_EFFECTIVE_ROTOR_COUNT>
3

> <PUBCHEM_PHARMACOPHORE_FEATURES>
3
1 2 cation
1 2 donor
6 4 5 6 8 9 10 rings

> <PUBCHEM_HEAVY_ATOM_COUNT>
10

> <PUBCHEM_ATOM_DEF_STEREO_COUNT>
0

> <PUBCHEM_ATOM_UDEF_STEREO_COUNT>
0

> <PUBCHEM_BOND_DEF_STEREO_COUNT>
0

> <PUBCHEM_BOND_UDEF_STEREO_COUNT>
0

> <PUBCHEM_ISOTOPIC_ATOM_COUNT>
0

> <PUBCHEM_COMPONENT_COUNT>
1

> <PUBCHEM_CACTVS_TAUTO_COUNT>
1

> <PUBCHEM_CONFORMER_ID>
0000353F00000001

> <PUBCHEM_MMFF94_ENERGY>
28.8525

> <PUBCHEM_FEATURE_SELFOVERLAP>
15.223

> <PUBCHEM_SHAPE_FINGERPRINT>
12932764 1 18060702788519195252
13024252 1 15410896254142951365
13380535 76 18335138730296036831
14144814 61 18412262839707563584
14325111 11 18410571782118207884
15669948 3 18261955129045480414
17846911 113 18113337539590624169
18342897 69 18408605829404972770
20645464 45 17530683212349186543
20871998 184 17969496026931349855
23402539 116 18187375337306967669
23463225 33 18342176695835663974
23552423 10 18054225427722369189
3248919 1 17822284695583913404
369184 2 18131350791327857781
6333449 129 18187363225177341821

> <PUBCHEM_SHAPE_MULTIPOLES>
202.68
6.32
1.35
0.73
5.16
0.05
-0.05
0.65
-0.88
-0.52
-0.03
0.3
0.03
-0.52

> <PUBCHEM_SHAPE_SELFOVERLAP>
397.683

> <PUBCHEM_SHAPE_VOLUME>
121.3

> <PUBCHEM_COORDINATE_TYPE>
2
5
10

$$$$

