125848
  -OEChem-07051212593D

 40 44  0     1  0  0  0  0  0999 V2000
    0.3031   -0.8394   -1.9302 O   0  0  0  0  0  0  0  0  0  0  0  0
   -0.8769   -3.4627    0.6732 O   0  0  0  0  0  0  0  0  0  0  0  0
   -4.8277   -0.9769    0.2395 O   0  0  0  0  0  0  0  0  0  0  0  0
   -4.8744    1.5189   -0.2016 O   0  0  0  0  0  0  0  0  0  0  0  0
    4.9380    1.3398    0.5264 O   0  0  0  0  0  0  0  0  0  0  0  0
    4.8246   -1.1620    0.0448 O   0  0  0  0  0  0  0  0  0  0  0  0
   -0.6236   -1.0673    0.3359 C   0  0  1  0  0  0  0  0  0  0  0  0
    0.6797   -1.0259   -0.5531 C   0  0  2  0  0  0  0  0  0  0  0  0
   -1.4146    0.2313    0.1209 C   0  0  0  0  0  0  0  0  0  0  0  0
   -1.5134   -2.3130    0.1162 C   0  0  2  0  0  0  0  0  0  0  0  0
    1.4775    0.2132   -0.1538 C   0  0  0  0  0  0  0  0  0  0  0  0
   -0.6953    1.4439   -0.0496 C   0  0  0  0  0  0  0  0  0  0  0  0
    0.7824    1.4313    0.0441 C   0  0  0  0  0  0  0  0  0  0  0  0
   -2.8537   -2.1802    0.8222 C   0  0  0  0  0  0  0  0  0  0  0  0
   -2.8212    0.2554    0.0918 C   0  0  0  0  0  0  0  0  0  0  0  0
    1.5121   -2.2830   -0.5286 C   0  0  0  0  0  0  0  0  0  0  0  0
    2.8714    0.1697    0.0258 C   0  0  0  0  0  0  0  0  0  0  0  0
   -3.6055   -0.9721    0.3482 C   0  0  0  0  0  0  0  0  0  0  0  0
   -1.4181    2.6237   -0.3088 C   0  0  0  0  0  0  0  0  0  0  0  0
   -3.5139    1.4442   -0.1575 C   0  0  0  0  0  0  0  0  0  0  0  0
    1.5258    2.5784    0.3796 C   0  0  0  0  0  0  0  0  0  0  0  0
    2.8287   -2.3366   -0.3124 C   0  0  0  0  0  0  0  0  0  0  0  0
    3.6063   -1.1079   -0.0748 C   0  0  0  0  0  0  0  0  0  0  0  0
    3.5866    1.3260    0.3494 C   0  0  0  0  0  0  0  0  0  0  0  0
   -2.8105    2.6228   -0.3663 C   0  0  0  0  0  0  0  0  0  0  0  0
    2.9126    2.5284    0.5186 C   0  0  0  0  0  0  0  0  0  0  0  0
   -0.3083   -1.0763    1.3915 H   0  0  0  0  0  0  0  0  0  0  0  0
   -1.6755   -2.4892   -0.9536 H   0  0  0  0  0  0  0  0  0  0  0  0
   -2.7316   -2.1202    1.9103 H   0  0  0  0  0  0  0  0  0  0  0  0
   -3.4603   -3.0718    0.6215 H   0  0  0  0  0  0  0  0  0  0  0  0
    1.0246   -3.2208   -0.7801 H   0  0  0  0  0  0  0  0  0  0  0  0
   -0.1696   -1.6330   -2.2325 H   0  0  0  0  0  0  0  0  0  0  0  0
   -0.9098    3.5690   -0.4825 H   0  0  0  0  0  0  0  0  0  0  0  0
    1.0384    3.5327    0.5631 H   0  0  0  0  0  0  0  0  0  0  0  0
    3.3650   -3.2780   -0.3498 H   0  0  0  0  0  0  0  0  0  0  0  0
   -1.4336   -4.2342    0.4717 H   0  0  0  0  0  0  0  0  0  0  0  0
   -3.3284    3.5570   -0.5678 H   0  0  0  0  0  0  0  0  0  0  0  0
    3.4470    3.4382    0.7801 H   0  0  0  0  0  0  0  0  0  0  0  0
   -5.1466    2.4342   -0.3855 H   0  0  0  0  0  0  0  0  0  0  0  0
    5.2299    2.2408    0.7469 H   0  0  0  0  0  0  0  0  0  0  0  0
  1  8  1  0  0  0  0
  1 32  1  0  0  0  0
  2 10  1  0  0  0  0
  2 36  1  0  0  0  0
  3 18  2  0  0  0  0
  4 20  1  0  0  0  0
  4 39  1  0  0  0  0
  5 24  1  0  0  0  0
  5 40  1  0  0  0  0
  6 23  2  0  0  0  0
  7  8  1  0  0  0  0
  7  9  1  0  0  0  0
  7 10  1  0  0  0  0
  7 27  1  0  0  0  0
  8 11  1  0  0  0  0
  8 16  1  0  0  0  0
  9 12  2  0  0  0  0
  9 15  1  0  0  0  0
 10 14  1  0  0  0  0
 10 28  1  0  0  0  0
 11 13  2  0  0  0  0
 11 17  1  0  0  0  0
 12 13  1  0  0  0  0
 12 19  1  0  0  0  0
 13 21  1  0  0  0  0
 14 18  1  0  0  0  0
 14 29  1  0  0  0  0
 14 30  1  0  0  0  0
 15 18  1  0  0  0  0
 15 20  2  0  0  0  0
 16 22  2  0  0  0  0
 16 31  1  0  0  0  0
 17 23  1  0  0  0  0
 17 24  2  0  0  0  0
 19 25  2  0  0  0  0
 19 33  1  0  0  0  0
 20 25  1  0  0  0  0
 21 26  2  0  0  0  0
 21 34  1  0  0  0  0
 22 23  1  0  0  0  0
 22 35  1  0  0  0  0
 24 26  1  0  0  0  0
 25 37  1  0  0  0  0
 26 38  1  0  0  0  0
M  END
> <PUBCHEM_COMPOUND_CID>
125848

> <PUBCHEM_CONFORMER_RMSD>
0.6

> <PUBCHEM_CONFORMER_DIVERSEORDER>
1

> <PUBCHEM_MMFF94_PARTIAL_CHARGES>
34
1 -0.68
10 0.28
11 -0.14
14 0.06
15 0.09
16 -0.29
17 0.09
18 0.42
19 -0.15
2 -0.68
20 0.08
21 -0.15
22 -0.14
23 0.47
24 0.08
25 -0.15
26 -0.15
3 -0.57
31 0.15
32 0.4
33 0.15
34 0.15
35 0.15
36 0.4
37 0.15
38 0.15
39 0.45
4 -0.53
40 0.45
5 -0.53
6 -0.57
7 0.14
8 0.56
9 -0.14

> <PUBCHEM_EFFECTIVE_ROTOR_COUNT>
0.4

> <PUBCHEM_PHARMACOPHORE_FEATURES>
13
1 1 acceptor
1 1 donor
1 2 acceptor
1 2 donor
1 3 acceptor
1 4 donor
1 5 donor
1 6 acceptor
6 11 13 17 21 24 26 rings
6 7 8 9 11 12 13 rings
6 7 9 10 14 15 18 rings
6 8 11 16 17 22 23 rings
6 9 12 15 19 20 25 rings

> <PUBCHEM_HEAVY_ATOM_COUNT>
26

> <PUBCHEM_ATOM_DEF_STEREO_COUNT>
3

> <PUBCHEM_ATOM_UDEF_STEREO_COUNT>
0

> <PUBCHEM_BOND_DEF_STEREO_COUNT>
0

> <PUBCHEM_BOND_UDEF_STEREO_COUNT>
0

> <PUBCHEM_ISOTOPIC_ATOM_COUNT>
0

> <PUBCHEM_COMPONENT_COUNT>
1

> <PUBCHEM_CACTVS_TAUTO_COUNT>
110

> <PUBCHEM_CONFORMER_ID>
0001EB9800000001

> <PUBCHEM_MMFF94_ENERGY>
89.4927

> <PUBCHEM_FEATURE_SELFOVERLAP>
66.094

> <PUBCHEM_SHAPE_FINGERPRINT>
10319926 262 18339096947150871498
10411042 1 16897929965192814883
10608611 8 18410292518764675080
10616163 171 18267302041079754888
10675989 125 16325138321055201924
10863032 1 18410855498798743704
10967382 1 18338233752232401824
1100329 8 16682600524975199891
11370993 70 18411423933462357835
11578080 2 17058953227682762868
11680986 33 18409445899254175284
12011746 2 18336824311865159974
12035758 1 18338515347441888672
12403259 226 18410857689316564645
12403260 363 18409737269930390535
12553582 1 17837193897258115083
12633257 1 18266457783542552096
13140716 1 17977101262591824841
13224815 77 18040711459164786701
13402501 40 18410573998062798329
138480 1 17474391756144997083
14223421 5 18410854317883132456
14790565 3 17617087448861014833
15196674 1 18409730664027959761
16945 1 18410852118685868572
17492 89 18410855464497826675
1813 80 17060341790667809092
19591789 44 18339924929964875315
19930381 70 18267305528445935059
20510252 161 18408884044738993417
20905425 154 18336820905549892678
21267235 1 18410565197738515026
21279426 13 18338797934904669524
21421861 104 18130797767365819642
221490 88 18410006671822480450
23227448 37 18335143063696472975
2334 1 17689150115154053036
23402539 116 18409173216455347471
23559900 14 18409732880732406864
238 59 17479493417325943293
27425 322 17203887444584831621
2748010 2 18340757200717808271
335352 9 18338797934825580716
3380486 145 18194950860726717155
350125 39 18411412929729979509
3680242 22 17981324800376279347
5104073 3 18410574002341948729
8809292 202 18412541045924213041
9709674 26 18409445899122384534

> <PUBCHEM_SHAPE_MULTIPOLES>
499.85
8.14
3.63
0.83
0.26
0.3
0.18
-0.97
-0.87
-0.26
-0.27
0.02
0.16
1.2

> <PUBCHEM_SHAPE_SELFOVERLAP>
1151.541

> <PUBCHEM_SHAPE_VOLUME>
250.8

> <PUBCHEM_COORDINATE_TYPE>
2
5
10

$$$$

