5281136
  -OEChem-07051212553D

 46 46  0     1  0  0  0  0  0999 V2000
   -0.4134    0.9265    2.0225 S   0  0  0  0  0  0  0  0  0  0  0  0
    1.9573   -3.2181    0.0448 S   0  0  0  0  0  0  0  0  0  0  0  0
   -1.3929    0.4133   -0.4106 O   0  0  0  0  0  0  0  0  0  0  0  0
   -5.3183    1.2055    0.5124 O   0  0  0  0  0  0  0  0  0  0  0  0
   -4.6487   -0.2200   -1.9573 O   0  0  0  0  0  0  0  0  0  0  0  0
   -3.4604    0.5489    2.6192 O   0  0  0  0  0  0  0  0  0  0  0  0
   -0.5280   -0.6369   -2.7960 O   0  0  0  0  0  0  0  0  0  0  0  0
    1.8320    2.7464    0.2554 O   0  0  0  0  0  0  0  0  0  0  0  0
    2.1152   -1.7022    0.6302 O   0  0  0  0  0  0  0  0  0  0  0  0
    3.5053   -3.6849   -0.1644 O   0  0  0  0  0  0  0  0  0  0  0  0
    1.3839   -4.0519    1.0847 O   0  0  0  0  0  0  0  0  0  0  0  0
    1.3400   -3.1409   -1.2660 O   0  0  0  0  0  0  0  0  0  0  0  0
    0.8798   -1.1713    1.0123 N   0  0  0  0  0  0  0  0  0  0  0  0
   -4.1657    0.3810    0.3301 C   0  0  1  0  0  0  0  0  0  0  0  0
   -3.7096    0.4584   -1.1275 C   0  0  1  0  0  0  0  0  0  0  0  0
   -3.0749    0.8769    1.2847 C   0  0  2  0  0  0  0  0  0  0  0  0
   -2.3345   -0.1921   -1.2974 C   0  0  1  0  0  0  0  0  0  0  0  0
   -1.7281    0.2213    0.9635 C   0  0  2  0  0  0  0  0  0  0  0  0
   -1.8015   -0.0231   -2.7168 C   0  0  0  0  0  0  0  0  0  0  0  0
    1.0072    0.0320    1.4768 C   0  0  0  0  0  0  0  0  0  0  0  0
    2.3160    0.7978    1.5912 C   0  0  0  0  0  0  0  0  0  0  0  0
    2.6245    1.5579    0.2946 C   0  0  2  0  0  0  0  0  0  0  0  0
    4.1010    1.9699    0.2449 C   0  0  0  0  0  0  0  0  0  0  0  0
    4.5274    2.3481   -1.1458 C   0  0  0  0  0  0  0  0  0  0  0  0
    4.9865    3.5576   -1.4856 C   0  0  0  0  0  0  0  0  0  0  0  0
   -4.4768   -0.6384    0.5872 H   0  0  0  0  0  0  0  0  0  0  0  0
   -3.6827    1.5063   -1.4500 H   0  0  0  0  0  0  0  0  0  0  0  0
   -3.0052    1.9700    1.2176 H   0  0  0  0  0  0  0  0  0  0  0  0
   -2.3767   -1.2677   -1.0775 H   0  0  0  0  0  0  0  0  0  0  0  0
   -1.7722   -0.8528    1.1828 H   0  0  0  0  0  0  0  0  0  0  0  0
   -1.6763    1.0367   -2.9625 H   0  0  0  0  0  0  0  0  0  0  0  0
   -2.4629   -0.4899   -3.4529 H   0  0  0  0  0  0  0  0  0  0  0  0
   -5.0803    2.1163    0.2687 H   0  0  0  0  0  0  0  0  0  0  0  0
   -4.6749   -1.1522   -1.6820 H   0  0  0  0  0  0  0  0  0  0  0  0
   -3.5112   -0.4198    2.6884 H   0  0  0  0  0  0  0  0  0  0  0  0
    3.1139    0.0840    1.8241 H   0  0  0  0  0  0  0  0  0  0  0  0
    2.2597    1.4901    2.4403 H   0  0  0  0  0  0  0  0  0  0  0  0
    2.3565    0.9507   -0.5780 H   0  0  0  0  0  0  0  0  0  0  0  0
   -0.2055   -0.5130   -3.7048 H   0  0  0  0  0  0  0  0  0  0  0  0
    4.7351    1.1295    0.5528 H   0  0  0  0  0  0  0  0  0  0  0  0
    4.2919    2.7945    0.9430 H   0  0  0  0  0  0  0  0  0  0  0  0
    2.0550    3.2854    1.0335 H   0  0  0  0  0  0  0  0  0  0  0  0
    4.4656    1.5804   -1.9129 H   0  0  0  0  0  0  0  0  0  0  0  0
    5.2837    3.7651   -2.5078 H   0  0  0  0  0  0  0  0  0  0  0  0
    5.0726    4.3568   -0.7578 H   0  0  0  0  0  0  0  0  0  0  0  0
    3.6268   -4.5960   -0.5209 H   0  0  0  0  0  0  0  0  0  0  0  0
  1 18  1  0  0  0  0
  1 20  1  0  0  0  0
  2  9  1  0  0  0  0
  2 10  1  0  0  0  0
  2 11  2  0  0  0  0
  2 12  2  0  0  0  0
  3 17  1  0  0  0  0
  3 18  1  0  0  0  0
  4 14  1  0  0  0  0
  4 33  1  0  0  0  0
  5 15  1  0  0  0  0
  5 34  1  0  0  0  0
  6 16  1  0  0  0  0
  6 35  1  0  0  0  0
  7 19  1  0  0  0  0
  7 39  1  0  0  0  0
  8 22  1  0  0  0  0
  8 42  1  0  0  0  0
  9 13  1  0  0  0  0
 10 46  1  0  0  0  0
 13 20  2  0  0  0  0
 14 15  1  0  0  0  0
 14 16  1  0  0  0  0
 14 26  1  0  0  0  0
 15 17  1  0  0  0  0
 15 27  1  0  0  0  0
 16 18  1  0  0  0  0
 16 28  1  0  0  0  0
 17 19  1  0  0  0  0
 17 29  1  0  0  0  0
 18 30  1  0  0  0  0
 19 31  1  0  0  0  0
 19 32  1  0  0  0  0
 20 21  1  0  0  0  0
 21 22  1  0  0  0  0
 21 36  1  0  0  0  0
 21 37  1  0  0  0  0
 22 23  1  0  0  0  0
 22 38  1  0  0  0  0
 23 24  1  0  0  0  0
 23 40  1  0  0  0  0
 23 41  1  0  0  0  0
 24 25  2  0  0  0  0
 24 43  1  0  0  0  0
 25 44  1  0  0  0  0
 25 45  1  0  0  0  0
M  END
> <PUBCHEM_COMPOUND_CID>
5281136

> <PUBCHEM_CONFORMER_RMSD>
1

> <PUBCHEM_CONFORMER_DIVERSEORDER>
1
26
28
10
17
9
25
29
23
3
11
20
22
27
5
6
16
8
18
19
7
12
4
13
24
14
21
15
2

> <PUBCHEM_MMFF94_PARTIAL_CHARGES>
34
1 -0.37
10 -0.68
11 -0.65
12 -0.65
13 -0.51
14 0.28
15 0.28
16 0.28
17 0.28
18 0.51
19 0.28
2 1.67
20 0.53
21 0.06
22 0.28
23 0.14
24 -0.29
25 -0.3
3 -0.56
33 0.4
34 0.4
35 0.4
39 0.4
4 -0.68
42 0.4
43 0.15
44 0.15
45 0.15
46 0.5
5 -0.68
6 -0.68
7 -0.68
8 -0.68
9 -0.12

> <PUBCHEM_EFFECTIVE_ROTOR_COUNT>
10.2

> <PUBCHEM_PHARMACOPHORE_FEATURES>
18
1 10 acceptor
1 11 acceptor
1 12 acceptor
1 13 acceptor
1 25 hydrophobe
1 3 acceptor
1 4 acceptor
1 4 donor
1 5 acceptor
1 5 donor
1 6 acceptor
1 6 donor
1 7 acceptor
1 7 donor
1 8 acceptor
1 8 donor
4 2 10 11 12 anion
6 3 14 15 16 17 18 rings

> <PUBCHEM_HEAVY_ATOM_COUNT>
25

> <PUBCHEM_ATOM_DEF_STEREO_COUNT>
6

> <PUBCHEM_ATOM_UDEF_STEREO_COUNT>
0

> <PUBCHEM_BOND_DEF_STEREO_COUNT>
0

> <PUBCHEM_BOND_UDEF_STEREO_COUNT>
1

> <PUBCHEM_ISOTOPIC_ATOM_COUNT>
0

> <PUBCHEM_COMPONENT_COUNT>
1

> <PUBCHEM_CACTVS_TAUTO_COUNT>
1

> <PUBCHEM_CONFORMER_ID>
0050957000000001

> <PUBCHEM_MMFF94_ENERGY>
46.9247

> <PUBCHEM_FEATURE_SELFOVERLAP>
91.416

> <PUBCHEM_SHAPE_FINGERPRINT>
10369192 42 17986090938633692892
105312 117 18125990578212715500
107951 10 18116982308861894894
12156800 1 17260138296036641646
14932701 244 16827840986431594612
16752209 62 16515696528659257009
1813 80 17900257812572144942
18915476 22 18272364291276834531
20715895 44 12030134484306501319
23557571 272 15985100851203646241
23598291 2 17968657236670866200
46194498 28 18200323228800189381
6786 2 18269267972614085494

> <PUBCHEM_SHAPE_MULTIPOLES>
458.51
9.39
4.07
2.51
1.05
5.2
-0.83
-8.1
-2.61
-7.57
-0.48
1.74
-0.37
-1.74

> <PUBCHEM_SHAPE_SELFOVERLAP>
885.702

> <PUBCHEM_SHAPE_VOLUME>
278.3

> <PUBCHEM_COORDINATE_TYPE>
2
5
10

$$$$

