11953941
  -OEChem-07051212583D

 90 93  0     1  0  0  0  0  0999 V2000
   -2.3328    2.6157    1.6367 O   0  0  0  0  0  0  0  0  0  0  0  0
   -1.8414    0.4566   -1.7541 O   0  0  0  0  0  0  0  0  0  0  0  0
    1.3079   -0.8144   -0.3269 O   0  0  0  0  0  0  0  0  0  0  0  0
   -4.2666   -3.2496   -2.0329 O   0  0  0  0  0  0  0  0  0  0  0  0
    4.8316    1.7429    0.6305 O   0  0  0  0  0  0  0  0  0  0  0  0
   -6.3322    1.8477   -0.8376 O   0  0  0  0  0  0  0  0  0  0  0  0
    0.4651    1.3456   -0.2251 N   0  0  0  0  0  0  0  0  0  0  0  0
   -1.8212   -1.2122   -0.1632 N   0  0  0  0  0  0  0  0  0  0  0  0
    3.7640    0.1062   -0.6234 N   0  0  0  0  0  0  0  0  0  0  0  0
   -4.5258   -1.5635   -0.4655 N   0  0  0  0  0  0  0  0  0  0  0  0
    7.0773    0.1264    0.7544 N   0  0  0  0  0  0  0  0  0  0  0  0
   -0.8528    1.0391    0.3702 C   0  0  1  0  0  0  0  0  0  0  0  0
   -1.5531    2.4243    0.4459 C   0  0  2  0  0  0  0  0  0  0  0  0
   -0.3823    3.4054    0.4884 C   0  0  0  0  0  0  0  0  0  0  0  0
    0.6167    2.7781   -0.4590 C   0  0  0  0  0  0  0  0  0  0  0  0
   -1.5745    0.0869   -0.6062 C   0  0  0  0  0  0  0  0  0  0  0  0
   -2.2707   -2.2872   -1.0659 C   0  0  1  0  0  0  0  0  0  0  0  0
   -1.5129   -1.7503    1.1629 C   0  0  0  0  0  0  0  0  0  0  0  0
   -1.7544   -3.5542   -0.3779 C   0  0  0  0  0  0  0  0  0  0  0  0
   -1.9033   -3.2193    1.1021 C   0  0  0  0  0  0  0  0  0  0  0  0
    1.4323    0.3948   -0.5228 C   0  0  0  0  0  0  0  0  0  0  0  0
    2.7042    0.9218   -1.1403 C   0  0  2  0  0  0  0  0  0  0  0  0
    2.6159    0.9528   -2.6756 C   0  0  2  0  0  0  0  0  0  0  0  0
   -3.7930   -2.4126   -1.2653 C   0  0  0  0  0  0  0  0  0  0  0  0
    2.3437   -0.4386   -3.2901 C   0  0  0  0  0  0  0  0  0  0  0  0
    3.8932    1.5805   -3.2491 C   0  0  0  0  0  0  0  0  0  0  0  0
    5.7627   -0.5018    0.6228 C   0  0  2  0  0  0  0  0  0  0  0  0
   -3.5720    2.0400    1.5262 C   0  0  0  0  0  0  0  0  0  0  0  0
    4.7578    0.5822    0.2314 C   0  0  0  0  0  0  0  0  0  0  0  0
    5.3144   -1.2618    1.9006 C   0  0  2  0  0  0  0  0  0  0  0  0
    2.2252   -0.4195   -4.8088 C   0  0  0  0  0  0  0  0  0  0  0  0
    3.9692   -1.9981    1.7049 C   0  0  0  0  0  0  0  0  0  0  0  0
   -4.4592    2.3912    0.5069 C   0  0  0  0  0  0  0  0  0  0  0  0
   -3.8949    1.0339    2.4354 C   0  0  0  0  0  0  0  0  0  0  0  0
    5.2650   -0.3116    3.1053 C   0  0  0  0  0  0  0  0  0  0  0  0
   -5.8937   -1.5743   -0.2949 C   0  0  0  0  0  0  0  0  0  0  0  0
   -5.7792    0.4480    1.0460 C   0  0  0  0  0  0  0  0  0  0  0  0
   -5.5623    1.5845    0.2569 C   0  0  0  0  0  0  0  0  0  0  0  0
   -5.0042    0.2281    2.1935 C   0  0  0  0  0  0  0  0  0  0  0  0
    7.4796    0.7388   -0.5111 C   0  0  0  0  0  0  0  0  0  0  0  0
    8.0714   -0.8551    1.1866 C   0  0  0  0  0  0  0  0  0  0  0  0
    3.5240   -2.7852    2.9310 C   0  0  0  0  0  0  0  0  0  0  0  0
   -6.5389   -0.6622    0.4572 C   0  0  0  0  0  0  0  0  0  0  0  0
   -0.6910    0.6088    1.3596 H   0  0  0  0  0  0  0  0  0  0  0  0
   -2.1248    2.6406   -0.4654 H   0  0  0  0  0  0  0  0  0  0  0  0
   -0.6729    4.4173    0.1903 H   0  0  0  0  0  0  0  0  0  0  0  0
    0.0270    3.4685    1.5049 H   0  0  0  0  0  0  0  0  0  0  0  0
    0.3643    2.9806   -1.5050 H   0  0  0  0  0  0  0  0  0  0  0  0
    1.6115    3.1634   -0.2394 H   0  0  0  0  0  0  0  0  0  0  0  0
   -1.8220   -2.1467   -2.0556 H   0  0  0  0  0  0  0  0  0  0  0  0
   -0.4402   -1.6430    1.3474 H   0  0  0  0  0  0  0  0  0  0  0  0
   -2.0604   -1.2040    1.9338 H   0  0  0  0  0  0  0  0  0  0  0  0
   -0.6932   -3.7011   -0.6147 H   0  0  0  0  0  0  0  0  0  0  0  0
   -2.2954   -4.4653   -0.6500 H   0  0  0  0  0  0  0  0  0  0  0  0
   -2.9460   -3.3473    1.4157 H   0  0  0  0  0  0  0  0  0  0  0  0
   -1.2779   -3.8451    1.7449 H   0  0  0  0  0  0  0  0  0  0  0  0
    2.9203    1.9304   -0.7975 H   0  0  0  0  0  0  0  0  0  0  0  0
    1.7775    1.6037   -2.9564 H   0  0  0  0  0  0  0  0  0  0  0  0
    3.7619   -0.8798   -0.8669 H   0  0  0  0  0  0  0  0  0  0  0  0
    3.1352   -1.1444   -3.0132 H   0  0  0  0  0  0  0  0  0  0  0  0
    1.4036   -0.8398   -2.8962 H   0  0  0  0  0  0  0  0  0  0  0  0
    4.7567    0.9173   -3.1303 H   0  0  0  0  0  0  0  0  0  0  0  0
    4.1217    2.5286   -2.7499 H   0  0  0  0  0  0  0  0  0  0  0  0
    3.7814    1.8033   -4.3148 H   0  0  0  0  0  0  0  0  0  0  0  0
    5.8034   -1.2375   -0.1947 H   0  0  0  0  0  0  0  0  0  0  0  0
    6.0415   -2.0511    2.1264 H   0  0  0  0  0  0  0  0  0  0  0  0
   -3.9977   -0.8671    0.0494 H   0  0  0  0  0  0  0  0  0  0  0  0
    1.9059   -1.4024   -5.1708 H   0  0  0  0  0  0  0  0  0  0  0  0
    1.4858    0.3178   -5.1370 H   0  0  0  0  0  0  0  0  0  0  0  0
    3.1830   -0.1917   -5.2855 H   0  0  0  0  0  0  0  0  0  0  0  0
    4.0494   -2.6824    0.8521 H   0  0  0  0  0  0  0  0  0  0  0  0
    3.1718   -1.2842    1.4826 H   0  0  0  0  0  0  0  0  0  0  0  0
   -4.2460    3.2289   -0.1516 H   0  0  0  0  0  0  0  0  0  0  0  0
   -3.2247    0.7938    3.2561 H   0  0  0  0  0  0  0  0  0  0  0  0
    4.4188    0.3801    3.0367 H   0  0  0  0  0  0  0  0  0  0  0  0
    6.1784    0.2812    3.2103 H   0  0  0  0  0  0  0  0  0  0  0  0
    5.1563   -0.8734    4.0388 H   0  0  0  0  0  0  0  0  0  0  0  0
   -6.4368   -2.3692   -0.7933 H   0  0  0  0  0  0  0  0  0  0  0  0
   -5.1651   -0.6497    2.8149 H   0  0  0  0  0  0  0  0  0  0  0  0
    6.8329    1.5660   -0.8179 H   0  0  0  0  0  0  0  0  0  0  0  0
    7.5164    0.0092   -1.3290 H   0  0  0  0  0  0  0  0  0  0  0  0
    8.4795    1.1793   -0.4153 H   0  0  0  0  0  0  0  0  0  0  0  0
    9.0779   -0.4205    1.1444 H   0  0  0  0  0  0  0  0  0  0  0  0
    7.9408   -1.1452    2.2333 H   0  0  0  0  0  0  0  0  0  0  0  0
    8.0755   -1.7535    0.5584 H   0  0  0  0  0  0  0  0  0  0  0  0
    3.2604   -2.1251    3.7626 H   0  0  0  0  0  0  0  0  0  0  0  0
    2.6343   -3.3767    2.6904 H   0  0  0  0  0  0  0  0  0  0  0  0
    4.3072   -3.4733    3.2637 H   0  0  0  0  0  0  0  0  0  0  0  0
   -7.6135   -0.6834    0.5925 H   0  0  0  0  0  0  0  0  0  0  0  0
   -7.1358    1.3024   -0.8154 H   0  0  0  0  0  0  0  0  0  0  0  0
  1 13  1  0  0  0  0
  1 28  1  0  0  0  0
  2 16  2  0  0  0  0
  3 21  2  0  0  0  0
  4 24  2  0  0  0  0
  5 29  2  0  0  0  0
  6 38  1  0  0  0  0
  6 90  1  0  0  0  0
  7 12  1  0  0  0  0
  7 15  1  0  0  0  0
  7 21  1  0  0  0  0
  8 16  1  0  0  0  0
  8 17  1  0  0  0  0
  8 18  1  0  0  0  0
  9 22  1  0  0  0  0
  9 29  1  0  0  0  0
  9 59  1  0  0  0  0
 10 24  1  0  0  0  0
 10 36  1  0  0  0  0
 10 67  1  0  0  0  0
 11 27  1  0  0  0  0
 11 40  1  0  0  0  0
 11 41  1  0  0  0  0
 12 13  1  0  0  0  0
 12 16  1  0  0  0  0
 12 44  1  0  0  0  0
 13 14  1  0  0  0  0
 13 45  1  0  0  0  0
 14 15  1  0  0  0  0
 14 46  1  0  0  0  0
 14 47  1  0  0  0  0
 15 48  1  0  0  0  0
 15 49  1  0  0  0  0
 17 19  1  0  0  0  0
 17 24  1  0  0  0  0
 17 50  1  0  0  0  0
 18 20  1  0  0  0  0
 18 51  1  0  0  0  0
 18 52  1  0  0  0  0
 19 20  1  0  0  0  0
 19 53  1  0  0  0  0
 19 54  1  0  0  0  0
 20 55  1  0  0  0  0
 20 56  1  0  0  0  0
 21 22  1  0  0  0  0
 22 23  1  0  0  0  0
 22 57  1  0  0  0  0
 23 25  1  0  0  0  0
 23 26  1  0  0  0  0
 23 58  1  0  0  0  0
 25 31  1  0  0  0  0
 25 60  1  0  0  0  0
 25 61  1  0  0  0  0
 26 62  1  0  0  0  0
 26 63  1  0  0  0  0
 26 64  1  0  0  0  0
 27 29  1  0  0  0  0
 27 30  1  0  0  0  0
 27 65  1  0  0  0  0
 28 33  2  0  0  0  0
 28 34  1  0  0  0  0
 30 32  1  0  0  0  0
 30 35  1  0  0  0  0
 30 66  1  0  0  0  0
 31 68  1  0  0  0  0
 31 69  1  0  0  0  0
 31 70  1  0  0  0  0
 32 42  1  0  0  0  0
 32 71  1  0  0  0  0
 32 72  1  0  0  0  0
 33 38  1  0  0  0  0
 33 73  1  0  0  0  0
 34 39  2  0  0  0  0
 34 74  1  0  0  0  0
 35 75  1  0  0  0  0
 35 76  1  0  0  0  0
 35 77  1  0  0  0  0
 36 43  2  0  0  0  0
 36 78  1  0  0  0  0
 37 38  2  0  0  0  0
 37 39  1  0  0  0  0
 37 43  1  0  0  0  0
 39 79  1  0  0  0  0
 40 80  1  0  0  0  0
 40 81  1  0  0  0  0
 40 82  1  0  0  0  0
 41 83  1  0  0  0  0
 41 84  1  0  0  0  0
 41 85  1  0  0  0  0
 42 86  1  0  0  0  0
 42 87  1  0  0  0  0
 42 88  1  0  0  0  0
 43 89  1  0  0  0  0
M  END
> <PUBCHEM_COMPOUND_CID>
11953941

> <PUBCHEM_CONFORMER_RMSD>
1.2

> <PUBCHEM_CONFORMER_DIVERSEORDER>
1
19
6
12
5
14
22
3
11
15
21
9
10
4
8
17
13
7
2
20
18
16
23

> <PUBCHEM_MMFF94_PARTIAL_CHARGES>
40
1 -0.36
10 -0.54
11 -0.81
12 0.36
13 0.28
15 0.3
16 0.57
17 0.36
18 0.3
2 -0.57
21 0.57
22 0.36
24 0.57
27 0.33
28 0.08
29 0.57
3 -0.57
33 -0.15
34 -0.15
36 -0.04
37 0.03
38 0.08
39 -0.15
4 -0.57
40 0.27
41 0.27
43 -0.18
5 -0.57
59 0.37
6 -0.53
67 0.37
7 -0.66
73 0.15
74 0.15
78 0.15
79 0.15
8 -0.66
89 0.15
9 -0.73
90 0.45

> <PUBCHEM_EFFECTIVE_ROTOR_COUNT>
11.6

> <PUBCHEM_PHARMACOPHORE_FEATURES>
16
1 1 acceptor
1 10 donor
1 11 cation
1 2 acceptor
1 26 hydrophobe
1 3 acceptor
1 31 hydrophobe
1 35 hydrophobe
1 4 acceptor
1 42 hydrophobe
1 5 acceptor
1 6 donor
1 9 donor
5 7 12 13 14 15 rings
5 8 17 18 19 20 rings
6 28 33 34 37 38 39 rings

> <PUBCHEM_HEAVY_ATOM_COUNT>
43

> <PUBCHEM_ATOM_DEF_STEREO_COUNT>
7

> <PUBCHEM_ATOM_UDEF_STEREO_COUNT>
0

> <PUBCHEM_BOND_DEF_STEREO_COUNT>
1

> <PUBCHEM_BOND_UDEF_STEREO_COUNT>
0

> <PUBCHEM_ISOTOPIC_ATOM_COUNT>
0

> <PUBCHEM_COMPONENT_COUNT>
1

> <PUBCHEM_CACTVS_TAUTO_COUNT>
12

> <PUBCHEM_CONFORMER_ID>
00B6671500000001

> <PUBCHEM_MMFF94_ENERGY>
147.4049

> <PUBCHEM_FEATURE_SELFOVERLAP>
81.191

> <PUBCHEM_SHAPE_FINGERPRINT>
11578080 2 16298655166049394610
12128747 34 16081913966551852506
12422481 6 17988645258895344231
12633046 712 17201908242287177097
13560911 43 18339638937690079617
13636023 51 17385996313351738070
13782708 43 16879048931849261524
14394314 77 18341614849494263513
14705955 166 17458062707329055272
15021287 119 17561361781650980237
15320294 125 18343868818255837991
15328829 1 18202275910090918372
15448158 6 17688870157188255758
21033648 29 17605816222273560745
3383291 50 18187638073352428231
3882209 13 16520503434487653327

> <PUBCHEM_SHAPE_MULTIPOLES>
824.8
17.69
3.66
3.33
12.62
1.36
3
2.56
-6.53
-1.49
-0.34
2.11
-0.17
-5.34

> <PUBCHEM_SHAPE_SELFOVERLAP>
1725.261

> <PUBCHEM_SHAPE_VOLUME>
466.8

> <PUBCHEM_COORDINATE_TYPE>
2
5
10

$$$$

