65626
  -OEChem-07051213152D

 24 23  0     0  0  0  0  0  0999 V2000
    3.4030   -0.2500    0.0000 S   0  0  0  0  0  0  0  0  0  0  0  0
    9.4651    0.2500    0.0000 S   0  0  0  0  0  0  0  0  0  0  0  0
    6.0010    0.2500    0.0000 S   0  0  0  0  0  0  0  0  0  0  0  0
    6.8671   -0.2500    0.0000 S   0  0  0  0  0  0  0  0  0  0  0  0
    2.5369   -0.7500    0.0000 O   0  0  0  0  0  0  0  0  0  0  0  0
   10.3312    0.7500    0.0000 O   0  0  0  0  0  0  0  0  0  0  0  0
    2.9030    0.6160    0.0000 O   0  0  0  0  0  0  0  0  0  0  0  0
    3.9030   -1.1160    0.0000 O   0  0  0  0  0  0  0  0  0  0  0  0
    9.9651   -0.6160    0.0000 O   0  0  0  0  0  0  0  0  0  0  0  0
    8.9651    1.1160    0.0000 O   0  0  0  0  0  0  0  0  0  0  0  0
    4.2690    0.2500    0.0000 C   0  0  0  0  0  0  0  0  0  0  0  0
    8.5991   -0.2500    0.0000 C   0  0  0  0  0  0  0  0  0  0  0  0
    5.1350   -0.2500    0.0000 C   0  0  0  0  0  0  0  0  0  0  0  0
    7.7331    0.2500    0.0000 C   0  0  0  0  0  0  0  0  0  0  0  0
    4.6675    0.7249    0.0000 H   0  0  0  0  0  0  0  0  0  0  0  0
    3.8705    0.7249    0.0000 H   0  0  0  0  0  0  0  0  0  0  0  0
    8.2006   -0.7249    0.0000 H   0  0  0  0  0  0  0  0  0  0  0  0
    8.9976   -0.7249    0.0000 H   0  0  0  0  0  0  0  0  0  0  0  0
    8.1316    0.7249    0.0000 H   0  0  0  0  0  0  0  0  0  0  0  0
    7.3346    0.7249    0.0000 H   0  0  0  0  0  0  0  0  0  0  0  0
    4.7365   -0.7249    0.0000 H   0  0  0  0  0  0  0  0  0  0  0  0
    5.5335   -0.7249    0.0000 H   0  0  0  0  0  0  0  0  0  0  0  0
    2.0000   -0.4400    0.0000 H   0  0  0  0  0  0  0  0  0  0  0  0
   10.8681    0.4400    0.0000 H   0  0  0  0  0  0  0  0  0  0  0  0
  1  5  1  0  0  0  0
  1  7  2  0  0  0  0
  1  8  2  0  0  0  0
  1 11  1  0  0  0  0
  2  6  1  0  0  0  0
  2  9  2  0  0  0  0
  2 10  2  0  0  0  0
  2 12  1  0  0  0  0
  3  4  1  0  0  0  0
  3 13  1  0  0  0  0
  4 14  1  0  0  0  0
  5 23  1  0  0  0  0
  6 24  1  0  0  0  0
 11 13  1  0  0  0  0
 11 15  1  0  0  0  0
 11 16  1  0  0  0  0
 12 14  1  0  0  0  0
 12 17  1  0  0  0  0
 12 18  1  0  0  0  0
 13 21  1  0  0  0  0
 13 22  1  0  0  0  0
 14 19  1  0  0  0  0
 14 20  1  0  0  0  0
M  END
> <PUBCHEM_COMPOUND_CID>
65626

> <PUBCHEM_COMPOUND_CANONICALIZED>
1

> <PUBCHEM_CACTVS_COMPLEXITY>
295

> <PUBCHEM_CACTVS_HBOND_ACCEPTOR>
8

> <PUBCHEM_CACTVS_HBOND_DONOR>
2

> <PUBCHEM_CACTVS_ROTATABLE_BOND>
7

> <PUBCHEM_CACTVS_SUBSKEYS>
AAADccBgOABwAAAAAAAAAAAAAAAAAAAAAAAAAAAAAAAAAAAAAAAAGAQACAAAAACEQACAAAAAAIIAAAAAAHBAAAAAAAAAAAAAAAAAAAAAAAAAAAAAAAAAAAAAAAAAAAAAAAAAAAAAAAAAAAAAAAAAAAAAAA==

> <PUBCHEM_IUPAC_OPENEYE_NAME>
2-(2-sulfoethyldisulfanyl)ethanesulfonic acid

> <PUBCHEM_IUPAC_CAS_NAME>
2-(2-sulfoethyldisulfanyl)ethanesulfonic acid

> <PUBCHEM_IUPAC_NAME>
2-(2-sulfoethyldisulfanyl)ethanesulfonic acid

> <PUBCHEM_IUPAC_SYSTEMATIC_NAME>
2-(2-sulfoethyldisulfanyl)ethanesulfonic acid

> <PUBCHEM_IUPAC_TRADITIONAL_NAME>
2-(2-sulfoethyldisulfanyl)ethanesulfonic acid

> <PUBCHEM_IUPAC_INCHI>
InChI=1S/C4H10O6S4/c5-13(6,7)3-1-11-12-2-4-14(8,9)10/h1-4H2,(H,5,6,7)(H,8,9,10)

> <PUBCHEM_IUPAC_INCHIKEY>
BYUKOOOZTSTOOH-UHFFFAOYSA-N

> <PUBCHEM_XLOGP3_AA>
-1.3

> <PUBCHEM_EXACT_MASS>
281.936022

> <PUBCHEM_MOLECULAR_FORMULA>
C4H10O6S4

> <PUBCHEM_MOLECULAR_WEIGHT>
282.3786

> <PUBCHEM_OPENEYE_CAN_SMILES>
C(CS(=O)(=O)O)SSCCS(=O)(=O)O

> <PUBCHEM_OPENEYE_ISO_SMILES>
C(CS(=O)(=O)O)SSCCS(=O)(=O)O

> <PUBCHEM_CACTVS_TPSA>
176

> <PUBCHEM_MONOISOTOPIC_WEIGHT>
281.936022

> <PUBCHEM_TOTAL_CHARGE>
0

> <PUBCHEM_HEAVY_ATOM_COUNT>
14

> <PUBCHEM_ATOM_DEF_STEREO_COUNT>
0

> <PUBCHEM_ATOM_UDEF_STEREO_COUNT>
0

> <PUBCHEM_BOND_DEF_STEREO_COUNT>
0

> <PUBCHEM_BOND_UDEF_STEREO_COUNT>
0

> <PUBCHEM_ISOTOPIC_ATOM_COUNT>
0

> <PUBCHEM_COMPONENT_COUNT>
1

> <PUBCHEM_CACTVS_TAUTO_COUNT>
1

> <PUBCHEM_COORDINATE_TYPE>
1
5
255

$$$$

