45480623
  -OEChem-07051213132D

 57 59  0     1  0  0  0  0  0999 V2000
    3.7320    2.4573    0.0000 P   0  0  3  0  0  0  0  0  0  0  0  0
    4.5981   -2.0427    0.0000 O   0  0  0  0  0  0  0  0  0  0  0  0
    6.3301   -0.0427    0.0000 O   0  0  0  0  0  0  0  0  0  0  0  0
    3.7320   -0.5427    0.0000 O   0  0  0  0  0  0  0  0  0  0  0  0
    3.7320    1.4573    0.0000 O   0  0  0  0  0  0  0  0  0  0  0  0
    8.0785   -6.0773    0.0000 O   0  0  0  0  0  0  0  0  0  0  0  0
    3.7320    3.4573    0.0000 O   0  0  0  0  0  0  0  0  0  0  0  0
    9.8602   -3.0186    0.0000 O   0  0  0  0  0  0  0  0  0  0  0  0
    2.8000   -3.0186    0.0000 O   0  0  0  0  0  0  0  0  0  0  0  0
    2.7320    2.4573    0.0000 O   0  0  0  0  0  0  0  0  0  0  0  0
    4.7320    2.4573    0.0000 O   0  0  0  0  0  0  0  0  0  0  0  0
    2.0000    5.4573    0.0000 O   0  0  0  0  0  0  0  0  0  0  0  0
    3.7320    5.4573    0.0000 O   0  0  0  0  0  0  0  0  0  0  0  0
    6.3301   -3.0427    0.0000 N   0  0  0  0  0  0  0  0  0  0  0  0
    8.0901   -3.0080    0.0000 N   0  0  0  0  0  0  0  0  0  0  0  0
    8.9962   -4.5635    0.0000 N   0  0  0  0  0  0  0  0  0  0  0  0
    5.4641   -1.5427    0.0000 C   0  0  1  0  0  0  0  0  0  0  0  0
    6.3301   -2.0427    0.0000 C   0  0  0  0  0  0  0  0  0  0  0  0
    5.4641   -0.5427    0.0000 C   0  0  1  0  0  0  0  0  0  0  0  0
    4.5981   -0.0427    0.0000 C   0  0  1  0  0  0  0  0  0  0  0  0
    7.1962   -3.5427    0.0000 C   0  0  0  0  0  0  0  0  0  0  0  0
    5.4641   -3.5427    0.0000 C   0  0  0  0  0  0  0  0  0  0  0  0
    7.1962   -4.5427    0.0000 C   0  0  0  0  0  0  0  0  0  0  0  0
    5.4641   -4.5427    0.0000 C   0  0  0  0  0  0  0  0  0  0  0  0
    4.5981    0.9573    0.0000 C   0  0  0  0  0  0  0  0  0  0  0  0
    6.3301   -5.0427    0.0000 C   0  0  0  0  0  0  0  0  0  0  0  0
    4.5702   -3.0080    0.0000 C   0  0  0  0  0  0  0  0  0  0  0  0
    8.0901   -5.0774    0.0000 C   0  0  0  0  0  0  0  0  0  0  0  0
    4.5702   -5.0774    0.0000 C   0  0  0  0  0  0  0  0  0  0  0  0
    8.9962   -3.5219    0.0000 C   0  0  0  0  0  0  0  0  0  0  0  0
    3.6641   -3.5219    0.0000 C   0  0  0  0  0  0  0  0  0  0  0  0
    3.6641   -4.5635    0.0000 C   0  0  0  0  0  0  0  0  0  0  0  0
    2.8660    3.9573    0.0000 C   0  0  1  0  0  0  0  0  0  0  0  0
    2.0000    3.4573    0.0000 C   0  0  0  0  0  0  0  0  0  0  0  0
    2.8660    4.9573    0.0000 C   0  0  0  0  0  0  0  0  0  0  0  0
    5.4641   -2.1627    0.0000 H   0  0  0  0  0  0  0  0  0  0  0  0
    6.9407   -2.1504    0.0000 H   0  0  0  0  0  0  0  0  0  0  0  0
    6.5422   -1.4601    0.0000 H   0  0  0  0  0  0  0  0  0  0  0  0
    5.4641    0.0773    0.0000 H   0  0  0  0  0  0  0  0  0  0  0  0
    4.5981   -0.6627    0.0000 H   0  0  0  0  0  0  0  0  0  0  0  0
    5.2087    0.8496    0.0000 H   0  0  0  0  0  0  0  0  0  0  0  0
    4.8101    1.5399    0.0000 H   0  0  0  0  0  0  0  0  0  0  0  0
    6.3301   -5.6627    0.0000 H   0  0  0  0  0  0  0  0  0  0  0  0
    8.0829   -2.3881    0.0000 H   0  0  0  0  0  0  0  0  0  0  0  0
    4.5773   -2.3881    0.0000 H   0  0  0  0  0  0  0  0  0  0  0  0
    4.0611   -1.7327    0.0000 H   0  0  0  0  0  0  0  0  0  0  0  0
    6.3301    0.5773    0.0000 H   0  0  0  0  0  0  0  0  0  0  0  0
    4.5773   -5.6973    0.0000 H   0  0  0  0  0  0  0  0  0  0  0  0
    3.1951   -0.2327    0.0000 H   0  0  0  0  0  0  0  0  0  0  0  0
    9.5319   -4.8756    0.0000 H   0  0  0  0  0  0  0  0  0  0  0  0
    3.1284   -4.8756    0.0000 H   0  0  0  0  0  0  0  0  0  0  0  0
    2.8660    3.3373    0.0000 H   0  0  0  0  0  0  0  0  0  0  0  0
    2.4220    1.9204    0.0000 H   0  0  0  0  0  0  0  0  0  0  0  0
    1.6900    3.9942    0.0000 H   0  0  0  0  0  0  0  0  0  0  0  0
    1.4631    3.1473    0.0000 H   0  0  0  0  0  0  0  0  0  0  0  0
    2.3100    2.9204    0.0000 H   0  0  0  0  0  0  0  0  0  0  0  0
    2.0000    6.0773    0.0000 H   0  0  0  0  0  0  0  0  0  0  0  0
  1  5  1  0  0  0  0
  1  7  1  0  0  0  0
  1 10  1  0  0  0  0
  1 11  2  0  0  0  0
 17  2  1  6  0  0  0
  2 46  1  0  0  0  0
 19  3  1  1  0  0  0
  3 47  1  0  0  0  0
 20  4  1  6  0  0  0
  4 49  1  0  0  0  0
  5 25  1  0  0  0  0
  6 28  2  0  0  0  0
 33  7  1  1  0  0  0
  8 30  2  0  0  0  0
  9 31  2  0  0  0  0
 10 53  1  0  0  0  0
 12 35  1  0  0  0  0
 12 57  1  0  0  0  0
 13 35  2  0  0  0  0
 14 18  1  0  0  0  0
 14 21  1  0  0  0  0
 14 22  1  0  0  0  0
 15 21  1  0  0  0  0
 15 30  1  0  0  0  0
 15 44  1  0  0  0  0
 16 28  1  0  0  0  0
 16 30  1  0  0  0  0
 16 50  1  0  0  0  0
 17 18  1  0  0  0  0
 17 19  1  0  0  0  0
 17 36  1  0  0  0  0
 18 37  1  0  0  0  0
 18 38  1  0  0  0  0
 19 20  1  0  0  0  0
 19 39  1  0  0  0  0
 20 25  1  0  0  0  0
 20 40  1  0  0  0  0
 21 23  2  0  0  0  0
 22 24  1  0  0  0  0
 22 27  2  0  0  0  0
 23 26  1  0  0  0  0
 23 28  1  0  0  0  0
 24 26  2  0  0  0  0
 24 29  1  0  0  0  0
 25 41  1  0  0  0  0
 25 42  1  0  0  0  0
 26 43  1  0  0  0  0
 27 31  1  0  0  0  0
 27 45  1  0  0  0  0
 29 32  2  0  0  0  0
 29 48  1  0  0  0  0
 31 32  1  0  0  0  0
 32 51  1  0  0  0  0
 33 34  1  0  0  0  0
 33 35  1  0  0  0  0
 33 52  1  0  0  0  0
 34 54  1  0  0  0  0
 34 55  1  0  0  0  0
 34 56  1  0  0  0  0
M  END
> <PUBCHEM_COMPOUND_CID>
45480623

> <PUBCHEM_COMPOUND_CANONICALIZED>
1

> <PUBCHEM_CACTVS_COMPLEXITY>
1130

> <PUBCHEM_CACTVS_HBOND_ACCEPTOR>
13

> <PUBCHEM_CACTVS_HBOND_DONOR>
7

> <PUBCHEM_CACTVS_ROTATABLE_BOND>
10

> <PUBCHEM_CACTVS_SUBSKEYS>
AAADceB7PAIAAAAAAAAAAAAAAAAAAAAAAAAgQIAAAAAAAACAAAAAHgAQCCAADBzhgAYDCAPAAxCIQqXSWIKAAAAgAgAICAFIAEiLEAIAgQAEQAAPBSKZgcLwEAIAAAAAAAAAAAAAAAAAAAAAAAAAAAAAAA==

> <PUBCHEM_IUPAC_OPENEYE_NAME>
(2S)-2-[hydroxy-[(2R,3S,4S)-2,3,4-trihydroxy-5-(2,4,8-trioxo-1H-pyrimido[4,5-b]quinolin-10-yl)pentoxy]phosphoryl]oxypropanoic acid

> <PUBCHEM_IUPAC_CAS_NAME>
(2S)-2-[hydroxy-[(2R,3S,4S)-2,3,4-trihydroxy-5-(2,4,8-trioxo-1H-pyrimido[4,5-b]quinolin-10-yl)pentoxy]phosphoryl]oxypropanoic acid

> <PUBCHEM_IUPAC_NAME>
(2S)-2-[hydroxy-[(2R,3S,4S)-2,3,4-trihydroxy-5-(2,4,8-trioxo-1H-pyrimido[4,5-b]quinolin-10-yl)pentoxy]phosphoryl]oxypropanoic acid

> <PUBCHEM_IUPAC_SYSTEMATIC_NAME>
(2S)-2-[oxidanyl-[(2R,3S,4S)-2,3,4-tris(oxidanyl)-5-[2,4,8-tris(oxidanylidene)-1H-pyrimido[4,5-b]quinolin-10-yl]pentoxy]phosphoryl]oxypropanoic acid

> <PUBCHEM_IUPAC_TRADITIONAL_NAME>
(2S)-2-[hydroxy-[(2R,3S,4S)-2,3,4-trihydroxy-5-(2,4,8-triketo-1H-pyrimido[4,5-b]quinolin-10-yl)pentoxy]phosphoryl]oxypropionic acid

> <PUBCHEM_IUPAC_INCHI>
InChI=1S/C19H22N3O12P/c1-8(18(28)29)34-35(31,32)33-7-14(25)15(26)13(24)6-22-12-5-10(23)3-2-9(12)4-11-16(22)20-19(30)21-17(11)27/h2-5,8,13-15,24-26H,6-7H2,1H3,(H,28,29)(H,31,32)(H2,20,21,27,30)/t8-,13-,14+,15-/m0/s1

> <PUBCHEM_IUPAC_INCHIKEY>
SSDSANQMNUWVJR-GQPBWUKJSA-N

> <PUBCHEM_XLOGP3_AA>
-3.5

> <PUBCHEM_EXACT_MASS>
515.09411

> <PUBCHEM_MOLECULAR_FORMULA>
C19H22N3O12P

> <PUBCHEM_MOLECULAR_WEIGHT>
515.364642

> <PUBCHEM_OPENEYE_CAN_SMILES>
CC(C(=O)O)OP(=O)(O)OCC(C(C(CN1C2=CC(=O)C=CC2=CC3=C1NC(=O)NC3=O)O)O)O

> <PUBCHEM_OPENEYE_ISO_SMILES>
C[C@@H](C(=O)O)OP(=O)(O)OC[C@H]([C@H]([C@H](CN1C2=CC(=O)C=CC2=CC3=C1NC(=O)NC3=O)O)O)O

> <PUBCHEM_CACTVS_TPSA>
232

> <PUBCHEM_MONOISOTOPIC_WEIGHT>
515.09411

> <PUBCHEM_TOTAL_CHARGE>
0

> <PUBCHEM_HEAVY_ATOM_COUNT>
35

> <PUBCHEM_ATOM_DEF_STEREO_COUNT>
4

> <PUBCHEM_ATOM_UDEF_STEREO_COUNT>
0

> <PUBCHEM_BOND_DEF_STEREO_COUNT>
0

> <PUBCHEM_BOND_UDEF_STEREO_COUNT>
0

> <PUBCHEM_ISOTOPIC_ATOM_COUNT>
0

> <PUBCHEM_COMPONENT_COUNT>
1

> <PUBCHEM_CACTVS_TAUTO_COUNT>
21

> <PUBCHEM_COORDINATE_TYPE>
1
5
255

> <PUBCHEM_BONDANNOTATIONS>
14  21  8
14  22  8
15  21  8
15  30  8
16  28  8
16  30  8
17  2  6
21  23  8
22  27  8
23  26  8
23  28  8
24  26  8
24  29  8
27  31  8
29  32  8
19  3  5
31  32  8
20  4  6
33  7  5

$$$$

