3359
  -OEChem-06251223223D

 96103  0     0  0  0  0  0  0999 V2000
   -0.2562    1.4199   -3.1354 O   0  0  0  0  0  0  0  0  0  0  0  0
    0.2016   -1.3969   -3.0873 O   0  0  0  0  0  0  0  0  0  0  0  0
   -4.3088   -2.6556    0.3628 N   0  3  0  0  0  0  0  0  0  0  0  0
    4.3198    2.6570    0.3592 N   0  3  0  0  0  0  0  0  0  0  0  0
   -4.3552    3.2642   -0.0112 N   0  0  0  0  0  0  0  0  0  0  0  0
    4.3477   -3.2615   -0.0382 N   0  0  0  0  0  0  0  0  0  0  0  0
   -1.5112   -3.0647    0.8925 N   0  0  0  0  0  0  0  0  0  0  0  0
    1.5409    3.0538    0.9426 N   0  0  0  0  0  0  0  0  0  0  0  0
   -4.1651    1.0330   -0.0076 C   0  0  0  0  0  0  0  0  0  0  0  0
    4.1623   -1.0299   -0.0230 C   0  0  0  0  0  0  0  0  0  0  0  0
   -4.5582   -0.2875    0.3958 C   0  0  0  0  0  0  0  0  0  0  0  0
    4.5647    0.2882    0.3789 C   0  0  0  0  0  0  0  0  0  0  0  0
   -0.4863   -0.6125    2.1724 C   0  0  0  0  0  0  0  0  0  0  0  0
    0.4869    0.5684    2.1904 C   0  0  0  0  0  0  0  0  0  0  0  0
    0.2626   -1.9479    2.1628 C   0  0  0  0  0  0  0  0  0  0  0  0
   -0.2111    1.9315    2.2317 C   0  0  0  0  0  0  0  0  0  0  0  0
   -4.8979    2.1107    0.4989 C   0  0  0  0  0  0  0  0  0  0  0  0
    4.9011   -2.1111    0.4672 C   0  0  0  0  0  0  0  0  0  0  0  0
   -3.1418    1.5977   -0.8585 C   0  0  0  0  0  0  0  0  0  0  0  0
    3.1239   -1.5892   -0.8591 C   0  0  0  0  0  0  0  0  0  0  0  0
   -5.6576   -0.4462    1.2788 C   0  0  0  0  0  0  0  0  0  0  0  0
    5.6790    0.4413    1.2443 C   0  0  0  0  0  0  0  0  0  0  0  0
   -0.7093   -3.1254    2.1087 C   0  0  0  0  0  0  0  0  0  0  0  0
    0.7610    3.1094    2.1714 C   0  0  0  0  0  0  0  0  0  0  0  0
   -3.5863   -3.8509   -0.1262 C   0  0  0  0  0  0  0  0  0  0  0  0
    3.6010    3.8404   -0.1074 C   0  0  0  0  0  0  0  0  0  0  0  0
   -3.2942    2.9859   -0.8332 C   0  0  0  0  0  0  0  0  0  0  0  0
    3.2739   -2.9778   -0.8416 C   0  0  0  0  0  0  0  0  0  0  0  0
   -3.9010   -1.4464   -0.0447 C   0  0  0  0  0  0  0  0  0  0  0  0
    3.9028    1.4501   -0.0463 C   0  0  0  0  0  0  0  0  0  0  0  0
   -2.4500   -4.1762    0.8331 C   0  0  0  0  0  0  0  0  0  0  0  0
    2.4814    4.1642    0.8718 C   0  0  0  0  0  0  0  0  0  0  0  0
   -5.9819    1.9645    1.3684 C   0  0  0  0  0  0  0  0  0  0  0  0
    5.9997   -1.9704    1.3193 C   0  0  0  0  0  0  0  0  0  0  0  0
   -6.3482    0.6742    1.7485 C   0  0  0  0  0  0  0  0  0  0  0  0
    6.3749   -0.6824    1.6983 C   0  0  0  0  0  0  0  0  0  0  0  0
   -6.0414   -1.7330    1.6726 C   0  0  0  0  0  0  0  0  0  0  0  0
    6.0718    1.7258    1.6368 C   0  0  0  0  0  0  0  0  0  0  0  0
   -5.3411   -2.8287    1.1937 C   0  0  0  0  0  0  0  0  0  0  0  0
    5.3660    2.8247    1.1736 C   0  0  0  0  0  0  0  0  0  0  0  0
   -2.0955    1.0735   -1.6525 C   0  0  0  0  0  0  0  0  0  0  0  0
    2.0658   -1.0598   -1.6336 C   0  0  0  0  0  0  0  0  0  0  0  0
   -2.4694    3.8638   -1.5478 C   0  0  0  0  0  0  0  0  0  0  0  0
    2.4356   -3.8513   -1.5458 C   0  0  0  0  0  0  0  0  0  0  0  0
   -1.2612    1.9373   -2.3739 C   0  0  0  0  0  0  0  0  0  0  0  0
    1.2178   -1.9191   -2.3445 C   0  0  0  0  0  0  0  0  0  0  0  0
   -1.4472    3.3136   -2.3211 C   0  0  0  0  0  0  0  0  0  0  0  0
    1.4020   -3.2959   -2.3000 C   0  0  0  0  0  0  0  0  0  0  0  0
    0.5604    2.3475   -3.8469 C   0  0  0  0  0  0  0  0  0  0  0  0
   -0.6285   -2.3201   -3.7888 C   0  0  0  0  0  0  0  0  0  0  0  0
   -1.1239   -0.5189    1.2864 H   0  0  0  0  0  0  0  0  0  0  0  0
   -1.1413   -0.5621    3.0506 H   0  0  0  0  0  0  0  0  0  0  0  0
    1.1209    0.4986    1.2991 H   0  0  0  0  0  0  0  0  0  0  0  0
    1.1513    0.4809    3.0590 H   0  0  0  0  0  0  0  0  0  0  0  0
    0.8779   -2.0326    3.0665 H   0  0  0  0  0  0  0  0  0  0  0  0
    0.9453   -1.9888    1.3068 H   0  0  0  0  0  0  0  0  0  0  0  0
   -0.8017    2.0064    3.1528 H   0  0  0  0  0  0  0  0  0  0  0  0
   -0.9212    2.0020    1.3988 H   0  0  0  0  0  0  0  0  0  0  0  0
   -1.3533   -3.0977    2.9959 H   0  0  0  0  0  0  0  0  0  0  0  0
   -0.1358   -4.0595    2.1380 H   0  0  0  0  0  0  0  0  0  0  0  0
    0.1909    4.0447    2.2203 H   0  0  0  0  0  0  0  0  0  0  0  0
    1.4204    3.0688    3.0467 H   0  0  0  0  0  0  0  0  0  0  0  0
   -4.2987   -4.6811   -0.1915 H   0  0  0  0  0  0  0  0  0  0  0  0
   -3.2263   -3.6487   -1.1421 H   0  0  0  0  0  0  0  0  0  0  0  0
    4.3087    4.6741   -0.1834 H   0  0  0  0  0  0  0  0  0  0  0  0
    3.2205    3.6492   -1.1182 H   0  0  0  0  0  0  0  0  0  0  0  0
   -3.0663   -1.4359   -0.7284 H   0  0  0  0  0  0  0  0  0  0  0  0
    3.0573    1.4424   -0.7169 H   0  0  0  0  0  0  0  0  0  0  0  0
   -1.9347   -5.0865    0.5068 H   0  0  0  0  0  0  0  0  0  0  0  0
   -2.8795   -4.3775    1.8223 H   0  0  0  0  0  0  0  0  0  0  0  0
    1.9621    5.0764    0.5571 H   0  0  0  0  0  0  0  0  0  0  0  0
    2.9264    4.3619    1.8551 H   0  0  0  0  0  0  0  0  0  0  0  0
   -4.6934    4.1945    0.1928 H   0  0  0  0  0  0  0  0  0  0  0  0
    4.6873   -4.1932    0.1567 H   0  0  0  0  0  0  0  0  0  0  0  0
   -0.9143   -3.0643    0.0664 H   0  0  0  0  0  0  0  0  0  0  0  0
    0.9304    3.0586    0.1265 H   0  0  0  0  0  0  0  0  0  0  0  0
   -6.5263    2.8267    1.7403 H   0  0  0  0  0  0  0  0  0  0  0  0
    6.5482   -2.8352    1.6789 H   0  0  0  0  0  0  0  0  0  0  0  0
   -7.1925    0.5574    2.4261 H   0  0  0  0  0  0  0  0  0  0  0  0
    7.2304   -0.5698    2.3624 H   0  0  0  0  0  0  0  0  0  0  0  0
   -6.8778   -1.8902    2.3485 H   0  0  0  0  0  0  0  0  0  0  0  0
    6.9195    1.8787    2.2994 H   0  0  0  0  0  0  0  0  0  0  0  0
   -5.5967   -3.8438    1.4730 H   0  0  0  0  0  0  0  0  0  0  0  0
    5.6292    3.8379    1.4534 H   0  0  0  0  0  0  0  0  0  0  0  0
   -1.9186    0.0057   -1.7160 H   0  0  0  0  0  0  0  0  0  0  0  0
    1.8893    0.0085   -1.6904 H   0  0  0  0  0  0  0  0  0  0  0  0
   -2.6178    4.9379   -1.5030 H   0  0  0  0  0  0  0  0  0  0  0  0
    2.5825   -4.9259   -1.5076 H   0  0  0  0  0  0  0  0  0  0  0  0
   -0.8303    4.0268   -2.8578 H   0  0  0  0  0  0  0  0  0  0  0  0
    0.7748   -4.0058   -2.8292 H   0  0  0  0  0  0  0  0  0  0  0  0
   -0.0177    2.9081   -4.5892 H   0  0  0  0  0  0  0  0  0  0  0  0
    1.1122    3.0035   -3.1648 H   0  0  0  0  0  0  0  0  0  0  0  0
    1.3053    1.7637   -4.3977 H   0  0  0  0  0  0  0  0  0  0  0  0
   -1.1702   -2.9777   -3.1002 H   0  0  0  0  0  0  0  0  0  0  0  0
   -0.0640   -2.8790   -4.5427 H   0  0  0  0  0  0  0  0  0  0  0  0
   -1.3814   -1.7327   -4.3248 H   0  0  0  0  0  0  0  0  0  0  0  0
  1 45  1  0  0  0  0
  1 49  1  0  0  0  0
  2 46  1  0  0  0  0
  2 50  1  0  0  0  0
  3 25  1  0  0  0  0
  3 29  2  0  0  0  0
  3 39  1  0  0  0  0
  4 26  1  0  0  0  0
  4 30  2  0  0  0  0
  4 40  1  0  0  0  0
  5 17  1  0  0  0  0
  5 27  1  0  0  0  0
  5 73  1  0  0  0  0
  6 18  1  0  0  0  0
  6 28  1  0  0  0  0
  6 74  1  0  0  0  0
  7 23  1  0  0  0  0
  7 31  1  0  0  0  0
  7 75  1  0  0  0  0
  8 24  1  0  0  0  0
  8 32  1  0  0  0  0
  8 76  1  0  0  0  0
  9 11  1  0  0  0  0
  9 17  2  0  0  0  0
  9 19  1  0  0  0  0
 10 12  1  0  0  0  0
 10 18  2  0  0  0  0
 10 20  1  0  0  0  0
 11 21  2  0  0  0  0
 11 29  1  0  0  0  0
 12 22  2  0  0  0  0
 12 30  1  0  0  0  0
 13 14  1  0  0  0  0
 13 15  1  0  0  0  0
 13 51  1  0  0  0  0
 13 52  1  0  0  0  0
 14 16  1  0  0  0  0
 14 53  1  0  0  0  0
 14 54  1  0  0  0  0
 15 23  1  0  0  0  0
 15 55  1  0  0  0  0
 15 56  1  0  0  0  0
 16 24  1  0  0  0  0
 16 57  1  0  0  0  0
 16 58  1  0  0  0  0
 17 33  1  0  0  0  0
 18 34  1  0  0  0  0
 19 27  2  0  0  0  0
 19 41  1  0  0  0  0
 20 28  2  0  0  0  0
 20 42  1  0  0  0  0
 21 35  1  0  0  0  0
 21 37  1  0  0  0  0
 22 36  1  0  0  0  0
 22 38  1  0  0  0  0
 23 59  1  0  0  0  0
 23 60  1  0  0  0  0
 24 61  1  0  0  0  0
 24 62  1  0  0  0  0
 25 31  1  0  0  0  0
 25 63  1  0  0  0  0
 25 64  1  0  0  0  0
 26 32  1  0  0  0  0
 26 65  1  0  0  0  0
 26 66  1  0  0  0  0
 27 43  1  0  0  0  0
 28 44  1  0  0  0  0
 29 67  1  0  0  0  0
 30 68  1  0  0  0  0
 31 69  1  0  0  0  0
 31 70  1  0  0  0  0
 32 71  1  0  0  0  0
 32 72  1  0  0  0  0
 33 35  2  0  0  0  0
 33 77  1  0  0  0  0
 34 36  2  0  0  0  0
 34 78  1  0  0  0  0
 35 79  1  0  0  0  0
 36 80  1  0  0  0  0
 37 39  2  0  0  0  0
 37 81  1  0  0  0  0
 38 40  2  0  0  0  0
 38 82  1  0  0  0  0
 39 83  1  0  0  0  0
 40 84  1  0  0  0  0
 41 45  2  0  0  0  0
 41 85  1  0  0  0  0
 42 46  2  0  0  0  0
 42 86  1  0  0  0  0
 43 47  2  0  0  0  0
 43 87  1  0  0  0  0
 44 48  2  0  0  0  0
 44 88  1  0  0  0  0
 45 47  1  0  0  0  0
 46 48  1  0  0  0  0
 47 89  1  0  0  0  0
 48 90  1  0  0  0  0
 49 91  1  0  0  0  0
 49 92  1  0  0  0  0
 49 93  1  0  0  0  0
 50 94  1  0  0  0  0
 50 95  1  0  0  0  0
 50 96  1  0  0  0  0
M  CHG  2   3   1   4   1
M  END
> <PUBCHEM_COMPOUND_CID>
3359

> <PUBCHEM_CONFORMER_RMSD>
1.6

> <PUBCHEM_CONFORMER_DIVERSEORDER>
2
9
268
196
160
164
8
21
144
146
109
41
86
246
96
185
147
3
264
36
35
122
252
136
18
112
1
113
100
24
156
89
237
101
59
56
6
261
173
224
145
198
111
165
120
25
30
251
117
16
55
174
188
220
248
126
39
203
72
42
29
233
204
119
34
217
239
114
190
118
242
97
5
249
91
28
171
121
31
7
161
273
262
116
219
253
158
110
50
134
234
162
33
210
215
200
61
216
68
125
263
271
75
52
142
229
4
17
124
255
141
168
90
45
236
238
184
247
74
197
209
157
92
218
133
83
148
76
151
189
192
99
37
169
139
135
183
235
226
82
106
243
43
205
166
254
240
103
213
27
69
274
228
194
98
175
267
80
152
60
250
172
49
62
123
181
259
212
10
84
115
149
195
191
127
19
222
130
71
87
208
137
193
266
138
159
272
269
182
177
231
107
270
51
64
54
79
70
85
211
150
187
227
105
155
57
167
78
88
48
199
153
26
223
58
128
140
77
176
202
179
14
180
154
207
22
81
178
186
258
163
206
66
38
256
53
32
241
40
47
23
131
129
132
230
73
93
201
225
44
67
245
65
13
265
11
143
12
260
20
232
15
244
108
170
63
214
95
257
102
221
94
104
46

> <PUBCHEM_MMFF94_PARTIAL_CHARGES>
58
1 -0.36
17 -0.15
18 -0.15
2 -0.36
23 0.27
24 0.27
25 0.49
26 0.49
27 -0.15
28 -0.15
29 0.21
3 -0.21
30 0.21
31 0.27
32 0.27
33 -0.15
34 -0.15
35 -0.15
36 -0.15
37 -0.15
38 -0.15
39 0.21
4 -0.21
40 0.21
41 -0.15
42 -0.15
43 -0.15
44 -0.15
45 0.08
46 0.08
47 -0.15
48 -0.15
49 0.28
5 0.03
50 0.28
6 0.03
67 0.15
68 0.15
7 -0.9
73 0.27
74 0.27
75 0.36
76 0.36
77 0.15
78 0.15
79 0.15
8 -0.9
80 0.15
81 0.15
82 0.15
83 0.15
84 0.15
85 0.15
86 0.15
87 0.15
88 0.15
89 0.15
90 0.15

> <PUBCHEM_EFFECTIVE_ROTOR_COUNT>
15

> <PUBCHEM_PHARMACOPHORE_FEATURES>
19
1 1 acceptor
1 2 acceptor
1 5 cation
1 5 donor
1 6 cation
1 6 donor
1 7 cation
1 7 donor
1 8 cation
1 8 donor
4 13 14 15 16 hydrophobe
5 5 9 17 19 27 rings
5 6 10 18 20 28 rings
6 10 12 18 22 34 36 rings
6 19 27 41 43 45 47 rings
6 20 28 42 44 46 48 rings
6 3 11 21 29 37 39 rings
6 4 12 22 30 38 40 rings
6 9 11 17 21 33 35 rings

> <PUBCHEM_HEAVY_ATOM_COUNT>
50

> <PUBCHEM_ATOM_DEF_STEREO_COUNT>
0

> <PUBCHEM_ATOM_UDEF_STEREO_COUNT>
0

> <PUBCHEM_BOND_DEF_STEREO_COUNT>
0

> <PUBCHEM_BOND_UDEF_STEREO_COUNT>
0

> <PUBCHEM_ISOTOPIC_ATOM_COUNT>
0

> <PUBCHEM_COMPONENT_COUNT>
1

> <PUBCHEM_CACTVS_TAUTO_COUNT>
1

> <PUBCHEM_CONFORMER_ID>
00000D1F00000002

> <PUBCHEM_MMFF94_ENERGY>
123.4692

> <PUBCHEM_FEATURE_SELFOVERLAP>
96.817

> <PUBCHEM_SHAPE_FINGERPRINT>
10580122 17 17755595845147764904
11828532 37 17773589413609173723
12422481 6 18410575058893275164
13642711 20 17981624958829959528
14040221 10 17913238561346008002
14981096 1 18338254711720824945
15406563 42 17773310137317458376
15975801 100 17345761935626904828
161222 619 17967809504916577687
20764821 26 17533807956034512912
3493558 16 18338792321393027968
3882209 13 18193844730903536991
4756261 7 17978510827908497735
50677037 204 18200317611162483299

> <PUBCHEM_SHAPE_MULTIPOLES>
987.35
14.62
6.38
3.33
0.24
0
-2.85
0.08
9.66
-0.03
-0.95
-0.09
0.09
3

> <PUBCHEM_SHAPE_SELFOVERLAP>
2187.616

> <PUBCHEM_SHAPE_VOLUME>
533.8

> <PUBCHEM_COORDINATE_TYPE>
2
5
10

$$$$

