54675780
  -OEChem-07051212512D

 44 47  0     1  0  0  0  0  0999 V2000
   10.5194   -2.2358    0.0000 Cl  0  0  0  0  0  0  0  0  0  0  0  0
    6.0678    1.3419    0.0000 O   0  0  0  0  0  0  0  0  0  0  0  0
    6.9338    1.8419    0.0000 O   0  0  0  0  0  0  0  0  0  0  0  0
    5.1854   -2.1927    0.0000 O   0  0  0  0  0  0  0  0  0  0  0  0
    4.6839    1.7483    0.0000 O   0  0  0  0  0  0  0  0  0  0  0  0
    8.6822    1.8765    0.0000 O   0  0  0  0  0  0  0  0  0  0  0  0
    3.4037   -1.1822    0.0000 O   0  0  0  0  0  0  0  0  0  0  0  0
   10.5194    1.9196    0.0000 O   0  0  0  0  0  0  0  0  0  0  0  0
    3.4075    1.8660    0.0000 O   0  0  0  0  0  0  0  0  0  0  0  0
    2.5357    0.3694    0.0000 N   0  0  0  0  0  0  0  0  0  0  0  0
    6.0678   -0.6581    0.0000 C   0  0  1  0  0  0  0  0  0  0  0  0
    6.0678    0.3419    0.0000 C   0  0  1  0  0  0  0  0  0  0  0  0
    6.9338   -1.1581    0.0000 C   0  0  0  0  0  0  0  0  0  0  0  0
    7.7998   -0.6581    0.0000 C   0  0  0  0  0  0  0  0  0  0  0  0
    7.7998    0.3419    0.0000 C   0  0  0  0  0  0  0  0  0  0  0  0
    6.9338    0.8419    0.0000 C   0  0  0  0  0  0  0  0  0  0  0  0
    5.1738   -1.1928    0.0000 C   0  0  0  0  0  0  0  0  0  0  0  0
    5.1738    0.8766    0.0000 C   0  0  0  0  0  0  0  0  0  0  0  0
    8.6938   -1.1928    0.0000 C   0  0  0  0  0  0  0  0  0  0  0  0
    8.6938    0.8766    0.0000 C   0  0  0  0  0  0  0  0  0  0  0  0
    4.2678    0.3627    0.0000 C   0  0  0  0  0  0  0  0  0  0  0  0
    9.5998   -0.6789    0.0000 C   0  0  0  0  0  0  0  0  0  0  0  0
    4.2678   -0.6789    0.0000 C   0  0  0  0  0  0  0  0  0  0  0  0
    9.5998    0.3627    0.0000 C   0  0  0  0  0  0  0  0  0  0  0  0
    8.6822   -2.1927    0.0000 C   0  0  0  0  0  0  0  0  0  0  0  0
   10.5310   -1.2358    0.0000 C   0  0  0  0  0  0  0  0  0  0  0  0
   10.5310    0.9196    0.0000 C   0  0  0  0  0  0  0  0  0  0  0  0
    3.4037    0.8661    0.0000 C   0  0  0  0  0  0  0  0  0  0  0  0
   11.4748   -0.7006    0.0000 C   0  0  0  0  0  0  0  0  0  0  0  0
   11.4748    0.3844    0.0000 C   0  0  0  0  0  0  0  0  0  0  0  0
    6.0743   -1.5081    0.0000 H   0  0  0  0  0  0  0  0  0  0  0  0
    6.5353   -1.6330    0.0000 H   0  0  0  0  0  0  0  0  0  0  0  0
    7.3323   -1.6330    0.0000 H   0  0  0  0  0  0  0  0  0  0  0  0
    5.7578    1.8788    0.0000 H   0  0  0  0  0  0  0  0  0  0  0  0
    8.0622   -2.1855    0.0000 H   0  0  0  0  0  0  0  0  0  0  0  0
    8.6750   -2.8126    0.0000 H   0  0  0  0  0  0  0  0  0  0  0  0
    9.3022   -2.1999    0.0000 H   0  0  0  0  0  0  0  0  0  0  0  0
    9.2155    2.1927    0.0000 H   0  0  0  0  0  0  0  0  0  0  0  0
   12.0105   -1.0127    0.0000 H   0  0  0  0  0  0  0  0  0  0  0  0
   12.0105    0.6965    0.0000 H   0  0  0  0  0  0  0  0  0  0  0  0
    3.4061   -1.8022    0.0000 H   0  0  0  0  0  0  0  0  0  0  0  0
    2.0000    0.6815    0.0000 H   0  0  0  0  0  0  0  0  0  0  0  0
    2.5334   -0.2506    0.0000 H   0  0  0  0  0  0  0  0  0  0  0  0
   11.0528    2.2358    0.0000 H   0  0  0  0  0  0  0  0  0  0  0  0
  1 26  1  0  0  0  0
 12  2  1  6  0  0  0
  2 34  1  0  0  0  0
  3 16  2  0  0  0  0
  4 17  2  0  0  0  0
  5 18  2  0  0  0  0
  6 20  1  0  0  0  0
  6 38  1  0  0  0  0
  7 23  1  0  0  0  0
  7 41  1  0  0  0  0
  8 27  1  0  0  0  0
  8 44  1  0  0  0  0
  9 28  2  0  0  0  0
 10 28  1  0  0  0  0
 10 42  1  0  0  0  0
 10 43  1  0  0  0  0
 11 12  1  0  0  0  0
 11 13  1  0  0  0  0
 11 17  1  0  0  0  0
 11 31  1  6  0  0  0
 12 16  1  0  0  0  0
 12 18  1  0  0  0  0
 13 14  1  0  0  0  0
 13 32  1  0  0  0  0
 13 33  1  0  0  0  0
 14 15  1  0  0  0  0
 14 19  2  0  0  0  0
 15 16  1  0  0  0  0
 15 20  2  0  0  0  0
 17 23  1  0  0  0  0
 18 21  1  0  0  0  0
 19 22  1  0  0  0  0
 19 25  1  0  0  0  0
 20 24  1  0  0  0  0
 21 23  2  0  0  0  0
 21 28  1  0  0  0  0
 22 24  1  0  0  0  0
 22 26  2  0  0  0  0
 24 27  2  0  0  0  0
 25 35  1  0  0  0  0
 25 36  1  0  0  0  0
 25 37  1  0  0  0  0
 26 29  1  0  0  0  0
 27 30  1  0  0  0  0
 29 30  2  0  0  0  0
 29 39  1  0  0  0  0
 30 40  1  0  0  0  0
M  END
> <PUBCHEM_COMPOUND_CID>
54675780

> <PUBCHEM_COMPOUND_CANONICALIZED>
1

> <PUBCHEM_CACTVS_COMPLEXITY>
886

> <PUBCHEM_CACTVS_HBOND_ACCEPTOR>
8

> <PUBCHEM_CACTVS_HBOND_DONOR>
5

> <PUBCHEM_CACTVS_ROTATABLE_BOND>
1

> <PUBCHEM_CACTVS_SUBSKEYS>
AAADccB6PAAEAAAAAAAAAAAAAAAAAAAAAAAwYMEAAAAAAADBUAAAHgIQCAAADUaBmCAyBsBAAgCIAqFSEAKCAAAkJQAIiAFGCsgIJz6LlhKAcUAl4BUImQf7z/Du4CADIAAZAADAQAZAADIAAAAAAAAAAA==

> <PUBCHEM_IUPAC_OPENEYE_NAME>
(4aR,12aS)-7-chloro-3,10,11,12a-tetrahydroxy-6-methyl-1,4,12-trioxo-4a,5-dihydrotetracene-2-carboxamide

> <PUBCHEM_IUPAC_CAS_NAME>
(4aR,12aS)-7-chloro-3,10,11,12a-tetrahydroxy-6-methyl-1,4,12-trioxo-4a,5-dihydrotetracene-2-carboxamide

> <PUBCHEM_IUPAC_NAME>
(4aR,12aS)-7-chloro-3,10,11,12a-tetrahydroxy-6-methyl-1,4,12-trioxo-4a,5-dihydrotetracene-2-carboxamide

> <PUBCHEM_IUPAC_SYSTEMATIC_NAME>
(4aR,12aS)-7-chloranyl-6-methyl-3,10,11,12a-tetrakis(oxidanyl)-1,4,12-tris(oxidanylidene)-4a,5-dihydrotetracene-2-carboxamide

> <PUBCHEM_IUPAC_TRADITIONAL_NAME>
(4aR,12aS)-7-chloro-3,10,11,12a-tetrahydroxy-1,4,12-triketo-6-methyl-4a,5-dihydrotetracene-2-carboxamide

> <PUBCHEM_IUPAC_INCHI>
InChI=1S/C20H14ClNO8/c1-5-6-4-7-14(24)16(26)13(19(22)29)18(28)20(7,30)17(27)11(6)15(25)12-9(23)3-2-8(21)10(5)12/h2-3,7,23,25-26,30H,4H2,1H3,(H2,22,29)/t7-,20-/m0/s1

> <PUBCHEM_IUPAC_INCHIKEY>
QVXDDJGWOXLKSL-JKNYTWMOSA-N

> <PUBCHEM_XLOGP3_AA>
2.8

> <PUBCHEM_EXACT_MASS>
431.040794

> <PUBCHEM_MOLECULAR_FORMULA>
C20H14ClNO8

> <PUBCHEM_MOLECULAR_WEIGHT>
431.78006

> <PUBCHEM_OPENEYE_CAN_SMILES>
CC1=C2CC3C(=O)C(=C(C(=O)C3(C(=O)C2=C(C4=C(C=CC(=C14)Cl)O)O)O)C(=O)N)O

> <PUBCHEM_OPENEYE_ISO_SMILES>
CC1=C2C[C@H]3C(=O)C(=C(C(=O)[C@]3(C(=O)C2=C(C4=C(C=CC(=C14)Cl)O)O)O)C(=O)N)O

> <PUBCHEM_CACTVS_TPSA>
175

> <PUBCHEM_MONOISOTOPIC_WEIGHT>
431.040794

> <PUBCHEM_TOTAL_CHARGE>
0

> <PUBCHEM_HEAVY_ATOM_COUNT>
30

> <PUBCHEM_ATOM_DEF_STEREO_COUNT>
2

> <PUBCHEM_ATOM_UDEF_STEREO_COUNT>
0

> <PUBCHEM_BOND_DEF_STEREO_COUNT>
0

> <PUBCHEM_BOND_UDEF_STEREO_COUNT>
0

> <PUBCHEM_ISOTOPIC_ATOM_COUNT>
0

> <PUBCHEM_COMPONENT_COUNT>
1

> <PUBCHEM_CACTVS_TAUTO_COUNT>
999

> <PUBCHEM_COORDINATE_TYPE>
1
5
255

> <PUBCHEM_BONDANNOTATIONS>
11  31  6
14  15  8
14  19  8
15  20  8
19  22  8
12  2  6
20  24  8
22  24  8
22  26  8
24  27  8
26  29  8
27  30  8
29  30  8

$$$$

