11584
  -OEChem-06261205513D

 15 14  0     0  0  0  0  0  0999 V2000
   -0.2482   -0.4503    0.1261 O   0  0  0  0  0  0  0  0  0  0  0  0
   -1.7929    1.2511   -0.1101 O   0  0  0  0  0  0  0  0  0  0  0  0
    0.8073    0.5124    0.2114 C   0  0  0  0  0  0  0  0  0  0  0  0
   -1.5000    0.0655   -0.0346 C   0  0  0  0  0  0  0  0  0  0  0  0
    2.1022   -0.2095    0.3842 C   0  0  0  0  0  0  0  0  0  0  0  0
   -2.4966   -1.0514   -0.1082 C   0  0  0  0  0  0  0  0  0  0  0  0
    3.1283   -0.1178   -0.4688 C   0  0  0  0  0  0  0  0  0  0  0  0
    0.8114    1.1284   -0.6956 H   0  0  0  0  0  0  0  0  0  0  0  0
    0.6394    1.1585    1.0807 H   0  0  0  0  0  0  0  0  0  0  0  0
    2.2087   -0.8420    1.2617 H   0  0  0  0  0  0  0  0  0  0  0  0
   -2.4760   -1.6287    0.8196 H   0  0  0  0  0  0  0  0  0  0  0  0
   -2.2736   -1.6914   -0.9655 H   0  0  0  0  0  0  0  0  0  0  0  0
   -3.4997   -0.6345   -0.2365 H   0  0  0  0  0  0  0  0  0  0  0  0
    4.0454   -0.6670   -0.2856 H   0  0  0  0  0  0  0  0  0  0  0  0
    3.0742    0.5006   -1.3579 H   0  0  0  0  0  0  0  0  0  0  0  0
  1  3  1  0  0  0  0
  1  4  1  0  0  0  0
  2  4  2  0  0  0  0
  3  5  1  0  0  0  0
  3  8  1  0  0  0  0
  3  9  1  0  0  0  0
  4  6  1  0  0  0  0
  5  7  2  0  0  0  0
  5 10  1  0  0  0  0
  6 11  1  0  0  0  0
  6 12  1  0  0  0  0
  6 13  1  0  0  0  0
  7 14  1  0  0  0  0
  7 15  1  0  0  0  0
M  END
> <PUBCHEM_COMPOUND_CID>
11584

> <PUBCHEM_CONFORMER_RMSD>
0.4

> <PUBCHEM_CONFORMER_DIVERSEORDER>
1
38
42
32
35
37
2
43
29
22
34
30
13
10
15
41
16
23
40
24
21
20
12
8
27
17
9
33
36
18
3
11
6
5
25
39
26
4
7
14
28
31
19

> <PUBCHEM_MMFF94_PARTIAL_CHARGES>
10
1 -0.43
10 0.15
14 0.15
15 0.15
2 -0.57
3 0.42
4 0.66
5 -0.29
6 0.06
7 -0.3

> <PUBCHEM_EFFECTIVE_ROTOR_COUNT>
3

> <PUBCHEM_PHARMACOPHORE_FEATURES>
2
1 2 acceptor
1 7 hydrophobe

> <PUBCHEM_HEAVY_ATOM_COUNT>
7

> <PUBCHEM_ATOM_DEF_STEREO_COUNT>
0

> <PUBCHEM_ATOM_UDEF_STEREO_COUNT>
0

> <PUBCHEM_BOND_DEF_STEREO_COUNT>
0

> <PUBCHEM_BOND_UDEF_STEREO_COUNT>
0

> <PUBCHEM_ISOTOPIC_ATOM_COUNT>
0

> <PUBCHEM_COMPONENT_COUNT>
1

> <PUBCHEM_CACTVS_TAUTO_COUNT>
1

> <PUBCHEM_CONFORMER_ID>
00002D4000000001

> <PUBCHEM_MMFF94_ENERGY>
4.3168

> <PUBCHEM_FEATURE_SELFOVERLAP>
10.148

> <PUBCHEM_SHAPE_FINGERPRINT>
12932741 1 17895206501402976520
12932764 1 17458351831563404142
14325111 11 18411418427651881394
14390081 3 18272370862904117460
16714656 1 18411699880810818791
23552423 10 18058169603749273122
29004967 10 16877660162779597962
3248919 1 17132114645616983266
5460574 1 8718830890138502746

> <PUBCHEM_SHAPE_MULTIPOLES>
132.32
4.58
1
0.66
1.65
0.11
0
-0.81
-0.56
-0.65
-0.03
0.17
-0.02
0.03

> <PUBCHEM_SHAPE_SELFOVERLAP>
239.66

> <PUBCHEM_SHAPE_VOLUME>
84.9

> <PUBCHEM_COORDINATE_TYPE>
2
5
10

$$$$

