7847014
  -OEChem-06241222483D

 36 38  0     0  0  0  0  0  0999 V2000
    0.8497   -1.9269   -0.8789 Br  0  0  0  0  0  0  0  0  0  0  0  0
   -2.6031    0.7120    1.8685 S   0  0  0  0  0  0  0  0  0  0  0  0
    1.3696    1.5986    0.0469 O   0  0  0  0  0  0  0  0  0  0  0  0
    0.4362    3.0063   -1.5244 O   0  0  0  0  0  0  0  0  0  0  0  0
   -2.3095    1.0155   -0.6759 N   0  0  0  0  0  0  0  0  0  0  0  0
   -1.7469    3.0249    0.6458 C   0  0  0  0  0  0  0  0  0  0  0  0
   -0.2204    3.1386    0.8139 C   0  0  0  0  0  0  0  0  0  0  0  0
   -2.1961    1.6254    0.4809 C   0  0  0  0  0  0  0  0  0  0  0  0
   -2.9720   -0.6371    0.8600 C   0  0  0  0  0  0  0  0  0  0  0  0
   -2.7537   -0.2832   -0.4748 C   0  0  0  0  0  0  0  0  0  0  0  0
    0.5449    2.6027   -0.3748 C   0  0  0  0  0  0  0  0  0  0  0  0
    2.1644    0.9846   -0.9728 C   0  0  0  0  0  0  0  0  0  0  0  0
    3.0093   -0.0902   -0.3545 C   0  0  0  0  0  0  0  0  0  0  0  0
   -3.4223   -1.9164    1.2239 C   0  0  0  0  0  0  0  0  0  0  0  0
   -2.9952   -1.2457   -1.4791 C   0  0  0  0  0  0  0  0  0  0  0  0
   -3.6537   -2.8501    0.2107 C   0  0  0  0  0  0  0  0  0  0  0  0
   -3.4435   -2.5212   -1.1239 C   0  0  0  0  0  0  0  0  0  0  0  0
    2.5603   -1.4035   -0.2490 C   0  0  0  0  0  0  0  0  0  0  0  0
    4.2705    0.2632    0.1173 C   0  0  0  0  0  0  0  0  0  0  0  0
    3.3789   -2.3713    0.3332 C   0  0  0  0  0  0  0  0  0  0  0  0
    5.0892   -0.7046    0.6994 C   0  0  0  0  0  0  0  0  0  0  0  0
    4.6433   -2.0218    0.8073 C   0  0  0  0  0  0  0  0  0  0  0  0
   -2.0528    3.5981   -0.2388 H   0  0  0  0  0  0  0  0  0  0  0  0
   -2.2386    3.5007    1.5029 H   0  0  0  0  0  0  0  0  0  0  0  0
    0.0942    2.6133    1.7242 H   0  0  0  0  0  0  0  0  0  0  0  0
    0.0676    4.1882    0.9431 H   0  0  0  0  0  0  0  0  0  0  0  0
    2.8141    1.7484   -1.4211 H   0  0  0  0  0  0  0  0  0  0  0  0
    1.5315    0.6091   -1.7836 H   0  0  0  0  0  0  0  0  0  0  0  0
   -3.5882   -2.1803    2.2638 H   0  0  0  0  0  0  0  0  0  0  0  0
   -2.8334   -0.9997   -2.5248 H   0  0  0  0  0  0  0  0  0  0  0  0
   -4.0020   -3.8462    0.4709 H   0  0  0  0  0  0  0  0  0  0  0  0
   -3.6280   -3.2607   -1.8984 H   0  0  0  0  0  0  0  0  0  0  0  0
    4.6305    1.2859    0.0432 H   0  0  0  0  0  0  0  0  0  0  0  0
    3.0488   -3.4029    0.4262 H   0  0  0  0  0  0  0  0  0  0  0  0
    6.0734   -0.4324    1.0694 H   0  0  0  0  0  0  0  0  0  0  0  0
    5.2808   -2.7752    1.2608 H   0  0  0  0  0  0  0  0  0  0  0  0
  1 18  1  0  0  0  0
  2  8  1  0  0  0  0
  2  9  1  0  0  0  0
  3 11  1  0  0  0  0
  3 12  1  0  0  0  0
  4 11  2  0  0  0  0
  5  8  2  0  0  0  0
  5 10  1  0  0  0  0
  6  7  1  0  0  0  0
  6  8  1  0  0  0  0
  6 23  1  0  0  0  0
  6 24  1  0  0  0  0
  7 11  1  0  0  0  0
  7 25  1  0  0  0  0
  7 26  1  0  0  0  0
  9 10  1  0  0  0  0
  9 14  2  0  0  0  0
 10 15  2  0  0  0  0
 12 13  1  0  0  0  0
 12 27  1  0  0  0  0
 12 28  1  0  0  0  0
 13 18  1  0  0  0  0
 13 19  2  0  0  0  0
 14 16  1  0  0  0  0
 14 29  1  0  0  0  0
 15 17  1  0  0  0  0
 15 30  1  0  0  0  0
 16 17  2  0  0  0  0
 16 31  1  0  0  0  0
 17 32  1  0  0  0  0
 18 20  2  0  0  0  0
 19 21  1  0  0  0  0
 19 33  1  0  0  0  0
 20 22  1  0  0  0  0
 20 34  1  0  0  0  0
 21 22  2  0  0  0  0
 21 35  1  0  0  0  0
 22 36  1  0  0  0  0
M  END
> <PUBCHEM_COMPOUND_CID>
7847014

> <PUBCHEM_CONFORMER_RMSD>
0.8

> <PUBCHEM_CONFORMER_DIVERSEORDER>
1
285
112
102
100
35
133
421
319
236
43
109
88
254
413
47
150
18
174
177
136
290
280
96
337
111
322
119
87
210
347
306
248
366
261
350
37
331
144
351
173
368
198
57
428
208
44
91
348
402
9
117
141
431
426
221
146
19
97
4
338
262
139
447
201
379
157
8
224
95
172
56
340
374
34
217
282
14
371
316
354
214
189
381
439
230
264
84
49
181
393
164
206
353
263
361
178
39
98
127
11
170
41
292
213
297
259
94
92
339
427
54
180
203
204
10
433
5
24
200
313
220
448
107
298
324
83
256
48
190
430
167
89
195
3
58
186
346
52
90
384
36
279
122
308
182
2
440
134
377
138
125
444
17
357
240
417
212
363
288
239
13
344
22
258
155
74
66
349
55
123
406
93
99
271
420
218
76
269
367
231
445
398
79
438
105
69
302
235
260
45
325
441
183
116
250
147
53
81
281
161
67
215
132
188
51
362
62
301
12
372
225
103
373
432
140
160
82
243
327
65
342
244
332
320
68
267
61
376
383
323
369
229
143
257
387
46
185
207
126
329
328
166
29
233
114
412
50
436
242
21
30
395
356
318
104
422
202
392
145
232
449
294
403
32
435
268
25
414
390
26
378
410
16
234
255
60
121
63
272
7
434
388
15
158
252
418
40
70
246
162
80
375
238
152
274
176
253
20
404
165
278
396
270
179
120
228
59
148
223
295
156
312
222
425
343
293
78
73
115
227
429
380
399
113
33
309
289
296
131
168
291
75
394
199
442
408
310
191
389
266
31
192
249
287
245
370
336
197
72
137
300
382
216
321
386
124
23
401
175
151
159
28
400
304
64
284
42
226
359
405
237
171
273
416
446
311
108
38
307
149
411
299
247
106
128
450
352
335
276
27
305
169
85
419
130
251
71
341
142
184
6
193
275
365
358
163
409
153
385
391
211
303
219
355
86
333
209
334
437
196
317
283
314
443
277
364
326
129
286
241
205
407
423
397
345
194
330
187
265
77
101
154
424
118
415
360
135
315
110

> <PUBCHEM_MMFF94_PARTIAL_CHARGES>
30
1 -0.11
10 0.23
11 0.66
12 0.42
13 -0.14
14 -0.15
15 -0.15
16 -0.15
17 -0.15
18 0.11
19 -0.15
2 -0.08
20 -0.15
21 -0.15
22 -0.15
29 0.15
3 -0.43
30 0.15
31 0.15
32 0.15
33 0.15
34 0.15
35 0.15
36 0.15
4 -0.57
5 -0.57
6 0.18
7 0.06
8 0.2
9 0.04

> <PUBCHEM_EFFECTIVE_ROTOR_COUNT>
6

> <PUBCHEM_PHARMACOPHORE_FEATURES>
6
1 1 hydrophobe
1 4 acceptor
1 5 acceptor
5 2 5 8 9 10 rings
6 13 18 19 20 21 22 rings
6 9 10 14 15 16 17 rings

> <PUBCHEM_HEAVY_ATOM_COUNT>
22

> <PUBCHEM_ATOM_DEF_STEREO_COUNT>
0

> <PUBCHEM_ATOM_UDEF_STEREO_COUNT>
0

> <PUBCHEM_BOND_DEF_STEREO_COUNT>
0

> <PUBCHEM_BOND_UDEF_STEREO_COUNT>
0

> <PUBCHEM_ISOTOPIC_ATOM_COUNT>
0

> <PUBCHEM_COMPONENT_COUNT>
1

> <PUBCHEM_CACTVS_TAUTO_COUNT>
2

> <PUBCHEM_CONFORMER_ID>
0077BC6600000001

> <PUBCHEM_MMFF94_ENERGY>
41.5758

> <PUBCHEM_FEATURE_SELFOVERLAP>
30.517

> <PUBCHEM_SHAPE_FINGERPRINT>
10616163 171 18336260253757382998
11070050 100 15438697572970650137
11370993 144 17024302144693278322
11552529 35 18188214328934710592
12553582 1 18335686222593211311
12596599 1 18187914118920413846
12633257 1 18337935857970369139
13140716 1 18408882966496466992
14081887 123 18189063151858593232
14117953 113 18187080646753382679
14844126 61 18267589189608030960
15352361 1 18412266116377558098
19026451 147 18118977892523681151
20291156 8 18410007715209460997
20775530 9 18342177734817030898
21315759 227 17774153483778607682
21475661 188 7634360560336080395
23728640 28 18192709179613732209
339767 52 18410586088480314538
3459 83 11239183146707936136
345986 75 17679563564267894715
392239 28 18114469942479023040
463206 1 18194962946311630683
5309563 4 18193271893286007611
7064713 232 17822279236680467531
9925002 15 17099483180240063575

> <PUBCHEM_SHAPE_MULTIPOLES>
445.82
9.04
4.13
1.39
7.61
1.83
0.05
-6.9
2.06
-1.95
-0.17
-0.88
0.01
-1.21

> <PUBCHEM_SHAPE_SELFOVERLAP>
933.583

> <PUBCHEM_SHAPE_VOLUME>
257.3

> <PUBCHEM_COORDINATE_TYPE>
2
5
10

$$$$

