442420
  -OEChem-07051212582D

 25 26  0     1  0  0  0  0  0999 V2000
    2.8660    0.1224    0.0000 O   0  0  0  0  0  0  0  0  0  0  0  0
    2.0000   -1.3776    0.0000 O   0  0  0  0  0  0  0  0  0  0  0  0
    4.5981    0.1224    0.0000 C   0  0  1  0  0  0  0  0  0  0  0  0
    4.5981   -0.8776    0.0000 C   0  0  2  0  0  0  0  0  0  0  0  0
    5.5443    0.4271    0.0000 C   0  0  1  0  0  0  0  0  0  0  0  0
    5.5443   -1.1824    0.0000 C   0  0  0  0  0  0  0  0  0  0  0  0
    6.1279   -0.3776    0.0000 C   0  0  0  0  0  0  0  0  0  0  0  0
    3.7320   -1.3776    0.0000 C   0  0  0  0  0  0  0  0  0  0  0  0
    3.7320    0.6224    0.0000 C   0  0  0  0  0  0  0  0  0  0  0  0
    5.8550    1.3776    0.0000 C   0  0  0  0  0  0  0  0  0  0  0  0
    2.8660   -0.8776    0.0000 C   0  0  0  0  0  0  0  0  0  0  0  0
    4.6880    0.9676    0.0000 H   0  0  0  0  0  0  0  0  0  0  0  0
    4.6880   -1.7228    0.0000 H   0  0  0  0  0  0  0  0  0  0  0  0
    5.1068    0.8665    0.0000 H   0  0  0  0  0  0  0  0  0  0  0  0
    5.2933   -1.7493    0.0000 H   0  0  0  0  0  0  0  0  0  0  0  0
    6.0817   -1.4916    0.0000 H   0  0  0  0  0  0  0  0  0  0  0  0
    6.5888   -0.7924    0.0000 H   0  0  0  0  0  0  0  0  0  0  0  0
    6.5888    0.0371    0.0000 H   0  0  0  0  0  0  0  0  0  0  0  0
    3.3335   -1.8526    0.0000 H   0  0  0  0  0  0  0  0  0  0  0  0
    4.1306   -1.8526    0.0000 H   0  0  0  0  0  0  0  0  0  0  0  0
    4.1306    1.0973    0.0000 H   0  0  0  0  0  0  0  0  0  0  0  0
    3.3335    1.0973    0.0000 H   0  0  0  0  0  0  0  0  0  0  0  0
    6.4443    1.1850    0.0000 H   0  0  0  0  0  0  0  0  0  0  0  0
    6.0476    1.9670    0.0000 H   0  0  0  0  0  0  0  0  0  0  0  0
    5.2656    1.5702    0.0000 H   0  0  0  0  0  0  0  0  0  0  0  0
  1  9  1  0  0  0  0
  1 11  1  0  0  0  0
  2 11  2  0  0  0  0
  3  4  1  0  0  0  0
  3  5  1  0  0  0  0
  3  9  1  0  0  0  0
  3 12  1  1  0  0  0
  4  6  1  0  0  0  0
  4  8  1  0  0  0  0
  4 13  1  1  0  0  0
  5  7  1  0  0  0  0
  5 10  1  6  0  0  0
  5 14  1  0  0  0  0
  6  7  1  0  0  0  0
  6 15  1  0  0  0  0
  6 16  1  0  0  0  0
  7 17  1  0  0  0  0
  7 18  1  0  0  0  0
  8 11  1  0  0  0  0
  8 19  1  0  0  0  0
  8 20  1  0  0  0  0
  9 21  1  0  0  0  0
  9 22  1  0  0  0  0
 10 23  1  0  0  0  0
 10 24  1  0  0  0  0
 10 25  1  0  0  0  0
M  END
> <PUBCHEM_COMPOUND_CID>
442420

> <PUBCHEM_COMPOUND_CANONICALIZED>
1

> <PUBCHEM_CACTVS_COMPLEXITY>
176

> <PUBCHEM_CACTVS_HBOND_ACCEPTOR>
2

> <PUBCHEM_CACTVS_HBOND_DONOR>
0

> <PUBCHEM_CACTVS_ROTATABLE_BOND>
0

> <PUBCHEM_CACTVS_SUBSKEYS>
AAADccBwMAAAAAAAAAAAAAAAAAAAAYAAAAAkAAAAAAAAAEgAAAAAGgAAAAAADQCggAICCAAABAAIAACQCAAAAAAAAAAAAAEAAAAAABIAAAACAAAEAAAAAAGIzPCOgAAAAAAAAAAAAAAAAAAAAQAACAAAAA==

> <PUBCHEM_IUPAC_OPENEYE_NAME>
(4aR,7R,7aR)-7-methyl-4,4a,5,6,7,7a-hexahydro-1H-cyclopenta[c]pyran-3-one

> <PUBCHEM_IUPAC_CAS_NAME>
(4aR,7R,7aR)-7-methyl-4,4a,5,6,7,7a-hexahydro-1H-cyclopenta[c]pyran-3-one

> <PUBCHEM_IUPAC_NAME>
(4aR,7R,7aR)-7-methyl-4,4a,5,6,7,7a-hexahydro-1H-cyclopenta[c]pyran-3-one

> <PUBCHEM_IUPAC_SYSTEMATIC_NAME>
(4aR,7R,7aR)-7-methyl-4,4a,5,6,7,7a-hexahydro-1H-cyclopenta[c]pyran-3-one

> <PUBCHEM_IUPAC_TRADITIONAL_NAME>
(4aR,7R,7aR)-7-methyl-4,4a,5,6,7,7a-hexahydro-1H-cyclopenta[c]pyran-3-one

> <PUBCHEM_IUPAC_INCHI>
InChI=1S/C9H14O2/c1-6-2-3-7-4-9(10)11-5-8(6)7/h6-8H,2-5H2,1H3/t6-,7-,8-/m1/s1

> <PUBCHEM_IUPAC_INCHIKEY>
VGWJUWSHYRJZKH-BWZBUEFSSA-N

> <PUBCHEM_XLOGP3_AA>
2

> <PUBCHEM_EXACT_MASS>
154.09938

> <PUBCHEM_MOLECULAR_FORMULA>
C9H14O2

> <PUBCHEM_MOLECULAR_WEIGHT>
154.20626

> <PUBCHEM_OPENEYE_CAN_SMILES>
CC1CCC2C1COC(=O)C2

> <PUBCHEM_OPENEYE_ISO_SMILES>
C[C@@H]1CC[C@H]2[C@@H]1COC(=O)C2

> <PUBCHEM_CACTVS_TPSA>
26.3

> <PUBCHEM_MONOISOTOPIC_WEIGHT>
154.09938

> <PUBCHEM_TOTAL_CHARGE>
0

> <PUBCHEM_HEAVY_ATOM_COUNT>
11

> <PUBCHEM_ATOM_DEF_STEREO_COUNT>
3

> <PUBCHEM_ATOM_UDEF_STEREO_COUNT>
0

> <PUBCHEM_BOND_DEF_STEREO_COUNT>
0

> <PUBCHEM_BOND_UDEF_STEREO_COUNT>
0

> <PUBCHEM_ISOTOPIC_ATOM_COUNT>
0

> <PUBCHEM_COMPONENT_COUNT>
1

> <PUBCHEM_CACTVS_TAUTO_COUNT>
2

> <PUBCHEM_COORDINATE_TYPE>
1
5
255

> <PUBCHEM_BONDANNOTATIONS>
3  12  5
4  13  5
5  10  6

$$$$

