4300
  -OEChem-06261200012D

 35 36  0     0  0  0  0  0  0999 V2000
    2.5369   -4.3100    0.0000 I   0  0  0  0  0  0  0  0  0  0  0  0
    3.4030    2.1900    0.0000 Cl  0  0  0  0  0  0  0  0  0  0  0  0
    2.5369   -2.3100    0.0000 O   0  0  0  0  0  0  0  0  0  0  0  0
    3.4030   -0.8100    0.0000 O   0  0  0  0  0  0  0  0  0  0  0  0
    5.1350   -0.8100    0.0000 N   0  0  0  0  0  0  0  0  0  0  0  0
    6.0010    3.6900    0.0000 N   0  0  0  0  0  0  0  0  0  0  0  0
    4.2690    3.6900    0.0000 N   0  0  0  0  0  0  0  0  0  0  0  0
    4.2690   -2.3100    0.0000 C   0  0  0  0  0  0  0  0  0  0  0  0
    5.1350   -3.8100    0.0000 C   0  0  0  0  0  0  0  0  0  0  0  0
    5.1350    0.1900    0.0000 C   0  0  0  0  0  0  0  0  0  0  0  0
    5.1350   -2.8100    0.0000 C   0  0  0  0  0  0  0  0  0  0  0  0
    4.2690   -1.3100    0.0000 C   0  0  0  0  0  0  0  0  0  0  0  0
    3.4030   -2.8100    0.0000 C   0  0  0  0  0  0  0  0  0  0  0  0
    4.2690   -4.3100    0.0000 C   0  0  0  0  0  0  0  0  0  0  0  0
    3.4030   -3.8100    0.0000 C   0  0  0  0  0  0  0  0  0  0  0  0
    4.2690    0.6900    0.0000 C   0  0  0  0  0  0  0  0  0  0  0  0
    6.0010    0.6900    0.0000 C   0  0  0  0  0  0  0  0  0  0  0  0
    5.1350    2.1900    0.0000 C   0  0  0  0  0  0  0  0  0  0  0  0
    4.2690    1.6900    0.0000 C   0  0  0  0  0  0  0  0  0  0  0  0
    6.0010    1.6900    0.0000 C   0  0  0  0  0  0  0  0  0  0  0  0
    6.0010   -4.3100    0.0000 C   0  0  0  0  0  0  0  0  0  0  0  0
    5.1350    3.1900    0.0000 C   0  0  0  0  0  0  0  0  0  0  0  0
    5.6720   -2.5000    0.0000 H   0  0  0  0  0  0  0  0  0  0  0  0
    5.6720   -1.1200    0.0000 H   0  0  0  0  0  0  0  0  0  0  0  0
    4.2690   -4.9300    0.0000 H   0  0  0  0  0  0  0  0  0  0  0  0
    3.7320    0.3800    0.0000 H   0  0  0  0  0  0  0  0  0  0  0  0
    6.5380    0.3800    0.0000 H   0  0  0  0  0  0  0  0  0  0  0  0
    6.5380    2.0000    0.0000 H   0  0  0  0  0  0  0  0  0  0  0  0
    5.6910   -4.8469    0.0000 H   0  0  0  0  0  0  0  0  0  0  0  0
    6.5380   -4.6200    0.0000 H   0  0  0  0  0  0  0  0  0  0  0  0
    6.3110   -3.7731    0.0000 H   0  0  0  0  0  0  0  0  0  0  0  0
    2.0000   -2.6200    0.0000 H   0  0  0  0  0  0  0  0  0  0  0  0
    6.0010    4.3100    0.0000 H   0  0  0  0  0  0  0  0  0  0  0  0
    6.5380    3.3800    0.0000 H   0  0  0  0  0  0  0  0  0  0  0  0
    4.2690    4.3100    0.0000 H   0  0  0  0  0  0  0  0  0  0  0  0
  1 15  1  0  0  0  0
  2 19  1  0  0  0  0
  3 13  1  0  0  0  0
  3 32  1  0  0  0  0
  4 12  2  0  0  0  0
  5 10  1  0  0  0  0
  5 12  1  0  0  0  0
  5 24  1  0  0  0  0
  6 22  1  0  0  0  0
  6 33  1  0  0  0  0
  6 34  1  0  0  0  0
  7 22  2  0  0  0  0
  7 35  1  0  0  0  0
  8 11  1  0  0  0  0
  8 12  1  0  0  0  0
  8 13  2  0  0  0  0
  9 11  2  0  0  0  0
  9 14  1  0  0  0  0
  9 21  1  0  0  0  0
 10 16  2  0  0  0  0
 10 17  1  0  0  0  0
 11 23  1  0  0  0  0
 13 15  1  0  0  0  0
 14 15  2  0  0  0  0
 14 25  1  0  0  0  0
 16 19  1  0  0  0  0
 16 26  1  0  0  0  0
 17 20  2  0  0  0  0
 17 27  1  0  0  0  0
 18 19  2  0  0  0  0
 18 20  1  0  0  0  0
 18 22  1  0  0  0  0
 20 28  1  0  0  0  0
 21 29  1  0  0  0  0
 21 30  1  0  0  0  0
 21 31  1  0  0  0  0
M  END
> <PUBCHEM_COMPOUND_CID>
4300

> <PUBCHEM_COMPOUND_CANONICALIZED>
1

> <PUBCHEM_CACTVS_COMPLEXITY>
437

> <PUBCHEM_CACTVS_HBOND_ACCEPTOR>
3

> <PUBCHEM_CACTVS_HBOND_DONOR>
4

> <PUBCHEM_CACTVS_ROTATABLE_BOND>
3

> <PUBCHEM_CACTVS_SUBSKEYS>
AAADccBzMAAEAgAAAAAAAAAAAAAAAAAAAAAwYAAAAAAAAAABQAAAHgIwCAAADA6DmCAzxoLAAgCoAidycACCAAClJwAIiAEkbtgIJrbDl5OEcUhm9BHI2YeYyGCOKAACAAIJAABQAAQABBIAAAAAAAAAAA==

> <PUBCHEM_IUPAC_OPENEYE_NAME>
N-(4-carbamimidoyl-3-chloro-phenyl)-2-hydroxy-3-iodo-5-methyl-benzamide

> <PUBCHEM_IUPAC_CAS_NAME>
N-(4-carbamimidoyl-3-chlorophenyl)-2-hydroxy-3-iodo-5-methylbenzamide

> <PUBCHEM_IUPAC_NAME>
N-(4-carbamimidoyl-3-chlorophenyl)-2-hydroxy-3-iodo-5-methylbenzamide

> <PUBCHEM_IUPAC_SYSTEMATIC_NAME>
N-(4-carbamimidoyl-3-chloranyl-phenyl)-3-iodanyl-5-methyl-2-oxidanyl-benzamide

> <PUBCHEM_IUPAC_TRADITIONAL_NAME>
N-(4-amidino-3-chloro-phenyl)-2-hydroxy-3-iodo-5-methyl-benzamide

> <PUBCHEM_IUPAC_INCHI>
InChI=1S/C15H13ClIN3O2/c1-7-4-10(13(21)12(17)5-7)15(22)20-8-2-3-9(14(18)19)11(16)6-8/h2-6,21H,1H3,(H3,18,19)(H,20,22)

> <PUBCHEM_IUPAC_INCHIKEY>
QKGFTDAISIBIBV-UHFFFAOYSA-N

> <PUBCHEM_XLOGP3_AA>
3.6

> <PUBCHEM_EXACT_MASS>
428.974102

> <PUBCHEM_MOLECULAR_FORMULA>
C15H13ClIN3O2

> <PUBCHEM_MOLECULAR_WEIGHT>
429.64009

> <PUBCHEM_OPENEYE_CAN_SMILES>
CC1=CC(=C(C(=C1)C(=O)NC2=CC(=C(C=C2)C(=N)N)Cl)O)I

> <PUBCHEM_OPENEYE_ISO_SMILES>
CC1=CC(=C(C(=C1)C(=O)NC2=CC(=C(C=C2)C(=N)N)Cl)O)I

> <PUBCHEM_CACTVS_TPSA>
99.2

> <PUBCHEM_MONOISOTOPIC_WEIGHT>
428.974102

> <PUBCHEM_TOTAL_CHARGE>
0

> <PUBCHEM_HEAVY_ATOM_COUNT>
22

> <PUBCHEM_ATOM_DEF_STEREO_COUNT>
0

> <PUBCHEM_ATOM_UDEF_STEREO_COUNT>
0

> <PUBCHEM_BOND_DEF_STEREO_COUNT>
0

> <PUBCHEM_BOND_UDEF_STEREO_COUNT>
0

> <PUBCHEM_ISOTOPIC_ATOM_COUNT>
0

> <PUBCHEM_COMPONENT_COUNT>
1

> <PUBCHEM_CACTVS_TAUTO_COUNT>
15

> <PUBCHEM_COORDINATE_TYPE>
1
5
255

> <PUBCHEM_BONDANNOTATIONS>
10  16  8
10  17  8
13  15  8
14  15  8
16  19  8
17  20  8
18  19  8
18  20  8
8  11  8
8  13  8
9  11  8
9  14  8

$$$$

