17395733
  -OEChem-06241222523D

 41 43  0     0  0  0  0  0  0999 V2000
    7.0413    1.7535   -0.1276 O   0  0  0  0  0  0  0  0  0  0  0  0
    1.3366   -0.9593   -1.6517 O   0  0  0  0  0  0  0  0  0  0  0  0
    0.4322   -1.3727    0.4819 N   0  0  0  0  0  0  0  0  0  0  0  0
   -3.0593   -0.6068    1.3424 N   0  0  0  0  0  0  0  0  0  0  0  0
   -2.6579    0.0106   -0.9520 N   0  0  0  0  0  0  0  0  0  0  0  0
    2.7464   -1.9242    0.0492 C   0  0  0  0  0  0  0  0  0  0  0  0
    3.8900   -0.9450    0.0021 C   0  0  0  0  0  0  0  0  0  0  0  0
    1.4442   -1.3601   -0.4971 C   0  0  0  0  0  0  0  0  0  0  0  0
    4.1271   -0.0972    1.0842 C   0  0  0  0  0  0  0  0  0  0  0  0
    4.7119   -0.8863   -1.1235 C   0  0  0  0  0  0  0  0  0  0  0  0
   -0.8847   -0.9428    0.3670 C   0  0  0  0  0  0  0  0  0  0  0  0
    5.1862    0.8095    1.0406 C   0  0  0  0  0  0  0  0  0  0  0  0
    5.7707    0.0207   -1.1670 C   0  0  0  0  0  0  0  0  0  0  0  0
    6.0079    0.8687   -0.0850 C   0  0  0  0  0  0  0  0  0  0  0  0
   -4.7995    0.3341    0.0260 C   0  0  0  0  0  0  0  0  0  0  0  0
   -3.4284   -0.1120    0.1456 C   0  0  0  0  0  0  0  0  0  0  0  0
   -1.7755   -1.0148    1.4184 C   0  0  0  0  0  0  0  0  0  0  0  0
   -1.3865   -0.4161   -0.8056 C   0  0  0  0  0  0  0  0  0  0  0  0
   -5.7990   -0.2730    0.7864 C   0  0  0  0  0  0  0  0  0  0  0  0
   -5.1218    1.3708   -0.8497 C   0  0  0  0  0  0  0  0  0  0  0  0
   -7.1211    0.1571    0.6714 C   0  0  0  0  0  0  0  0  0  0  0  0
   -6.4439    1.8007   -0.9648 C   0  0  0  0  0  0  0  0  0  0  0  0
   -7.4437    1.1941   -0.2041 C   0  0  0  0  0  0  0  0  0  0  0  0
    7.2267    2.5906    1.0129 C   0  0  0  0  0  0  0  0  0  0  0  0
    2.9898   -2.8131   -0.5473 H   0  0  0  0  0  0  0  0  0  0  0  0
    2.6280   -2.2923    1.0753 H   0  0  0  0  0  0  0  0  0  0  0  0
    3.4916   -0.1338    1.9652 H   0  0  0  0  0  0  0  0  0  0  0  0
    4.5364   -1.5405   -1.9734 H   0  0  0  0  0  0  0  0  0  0  0  0
    0.6791   -1.7380    1.3989 H   0  0  0  0  0  0  0  0  0  0  0  0
    5.3134    1.4386    1.9150 H   0  0  0  0  0  0  0  0  0  0  0  0
    6.4073    0.0625   -2.0467 H   0  0  0  0  0  0  0  0  0  0  0  0
   -1.4828   -1.4128    2.3851 H   0  0  0  0  0  0  0  0  0  0  0  0
   -0.8100   -0.2965   -1.7122 H   0  0  0  0  0  0  0  0  0  0  0  0
   -5.5816   -1.0899    1.4702 H   0  0  0  0  0  0  0  0  0  0  0  0
   -4.3643    1.8705   -1.4486 H   0  0  0  0  0  0  0  0  0  0  0  0
   -7.8999   -0.3166    1.2618 H   0  0  0  0  0  0  0  0  0  0  0  0
   -6.6950    2.6094   -1.6449 H   0  0  0  0  0  0  0  0  0  0  0  0
   -8.4729    1.5290   -0.2937 H   0  0  0  0  0  0  0  0  0  0  0  0
    6.3687    3.2533    1.1695 H   0  0  0  0  0  0  0  0  0  0  0  0
    7.4678    2.0054    1.9067 H   0  0  0  0  0  0  0  0  0  0  0  0
    8.0912    3.2304    0.8070 H   0  0  0  0  0  0  0  0  0  0  0  0
  1 14  1  0  0  0  0
  1 24  1  0  0  0  0
  2  8  2  0  0  0  0
  3  8  1  0  0  0  0
  3 11  1  0  0  0  0
  3 29  1  0  0  0  0
  4 16  1  0  0  0  0
  4 17  2  0  0  0  0
  5 16  2  0  0  0  0
  5 18  1  0  0  0  0
  6  7  1  0  0  0  0
  6  8  1  0  0  0  0
  6 25  1  0  0  0  0
  6 26  1  0  0  0  0
  7  9  2  0  0  0  0
  7 10  1  0  0  0  0
  9 12  1  0  0  0  0
  9 27  1  0  0  0  0
 10 13  2  0  0  0  0
 10 28  1  0  0  0  0
 11 17  1  0  0  0  0
 11 18  2  0  0  0  0
 12 14  2  0  0  0  0
 12 30  1  0  0  0  0
 13 14  1  0  0  0  0
 13 31  1  0  0  0  0
 15 16  1  0  0  0  0
 15 19  2  0  0  0  0
 15 20  1  0  0  0  0
 17 32  1  0  0  0  0
 18 33  1  0  0  0  0
 19 21  1  0  0  0  0
 19 34  1  0  0  0  0
 20 22  2  0  0  0  0
 20 35  1  0  0  0  0
 21 23  2  0  0  0  0
 21 36  1  0  0  0  0
 22 23  1  0  0  0  0
 22 37  1  0  0  0  0
 23 38  1  0  0  0  0
 24 39  1  0  0  0  0
 24 40  1  0  0  0  0
 24 41  1  0  0  0  0
M  END
> <PUBCHEM_COMPOUND_CID>
17395733

> <PUBCHEM_CONFORMER_RMSD>
0.8

> <PUBCHEM_CONFORMER_DIVERSEORDER>
1
11
14
8
16
7
15
12
6
13
3
4
5
2
9
10

> <PUBCHEM_MMFF94_PARTIAL_CHARGES>
35
1 -0.36
10 -0.15
11 0.12
12 -0.15
13 -0.15
14 0.08
16 0.62
17 0.16
18 0.16
19 -0.15
2 -0.57
20 -0.15
21 -0.15
22 -0.15
23 -0.15
24 0.28
27 0.15
28 0.15
29 0.37
3 -0.55
30 0.15
31 0.15
32 0.15
33 0.15
34 0.15
35 0.15
36 0.15
37 0.15
38 0.15
4 -0.62
5 -0.62
6 0.2
7 -0.14
8 0.57
9 -0.15

> <PUBCHEM_EFFECTIVE_ROTOR_COUNT>
6

> <PUBCHEM_PHARMACOPHORE_FEATURES>
8
1 1 acceptor
1 2 acceptor
1 3 donor
1 4 acceptor
3 4 5 16 cation
6 15 19 20 21 22 23 rings
6 4 5 11 16 17 18 rings
6 7 9 10 12 13 14 rings

> <PUBCHEM_HEAVY_ATOM_COUNT>
24

> <PUBCHEM_ATOM_DEF_STEREO_COUNT>
0

> <PUBCHEM_ATOM_UDEF_STEREO_COUNT>
0

> <PUBCHEM_BOND_DEF_STEREO_COUNT>
0

> <PUBCHEM_BOND_UDEF_STEREO_COUNT>
0

> <PUBCHEM_ISOTOPIC_ATOM_COUNT>
0

> <PUBCHEM_COMPONENT_COUNT>
1

> <PUBCHEM_CACTVS_TAUTO_COUNT>
2

> <PUBCHEM_CONFORMER_ID>
0109701500000001

> <PUBCHEM_MMFF94_ENERGY>
79.5064

> <PUBCHEM_FEATURE_SELFOVERLAP>
40.594

> <PUBCHEM_SHAPE_FINGERPRINT>
10 15 18060420209345395449
10299344 5 14273454795366196215
10638233 991 17167864179636018201
10670039 82 16226037929657396738
11524674 6 10951758682514840577
11991303 11 16805614641989620997
125118 31 18340487875971995569
12596602 18 17418095446489885937
13533116 47 17916306215445223194
13668630 136 8358261445120059916
13673619 4 8935001473076576482
13685833 64 9799691497935684382
14216079 64 9727640500809469016
14251764 18 16271921606124826471
14347332 77 4750883580671584987
14461889 52 17846770798054738163
14528608 73 17022625286123293962
14556957 393 16877931750742243889
14565420 104 18202006517221462018
14598715 104 18202013143955462685
14767858 380 16153707634939300183
14840074 17 17385728006212182037
15183329 4 15285355124041679176
15188451 53 11959737070709907046
15352257 5 7925912577999682541
15575132 122 17458622367306274777
16994733 274 18201720704196218873
17134984 74 6627475112510388676
1768 4 18334288726250834617
17980427 23 17632011949044597639
18335252 114 17822009814152252160
19427546 20 17896046438261661503
20157964 124 18186517731180499246
20281389 69 18131351933541225744
21033648 29 18272933787346107090
21130935 74 17775285023547254787
21150785 3 17530969085910420279
21267235 1 4750862751287786359
21344244 181 8358258159644756604
21424621 283 18200026395622016385
21682296 61 9079115574894438825
21781051 124 5617248264671929189
21792934 111 16558199314187144287
221357 26 16877659085106823648
22224240 67 17988926656204096843
23035841 295 5617251503725693879
23522609 53 15358515537006937731
23576562 1 16951430762429158393
249999 5 17987803054289978650
2916195 48 18201721777684211107
29717793 49 4750871546500100354
312425 54 16845578600030866506
34797466 226 17967526904378944727
4107672 100 13912591793601594675
445580 126 18261119565302526906
465052 167 9943804504452958362
5080951 261 16773522045486651211
5104073 3 15481805919022902061
54039377 194 11167955679986237160
6438161 24 6122506766396687164
6898599 12 17314520223098591494

> <PUBCHEM_SHAPE_MULTIPOLES>
467.23
23.06
1.86
1.3
2.88
0.75
0.02
15.99
-0.69
-2.36
-0.11
-0.35
-0.04
2.25

> <PUBCHEM_SHAPE_SELFOVERLAP>
1012.619

> <PUBCHEM_SHAPE_VOLUME>
253

> <PUBCHEM_COORDINATE_TYPE>
2
5
10

$$$$

