5287987
  -OEChem-07051213122D

 24 24  0     1  0  0  0  0  0999 V2000
    2.5369   -0.3450    0.0000 O   0  0  0  0  0  0  0  0  0  0  0  0
    3.4030    1.1550    0.0000 O   0  0  0  0  0  0  0  0  0  0  0  0
    6.0010   -0.3450    0.0000 N   0  0  0  0  0  0  0  0  0  0  0  0
    6.8671    1.1550    0.0000 N   0  0  0  0  0  0  0  0  0  0  0  0
    4.2690   -1.3450    0.0000 N   0  0  0  0  0  0  0  0  0  0  0  0
    7.7331   -0.3450    0.0000 N   0  0  0  0  0  0  0  0  0  0  0  0
    5.1350    0.1550    0.0000 C   0  0  2  0  0  0  0  0  0  0  0  0
    5.1350    1.1550    0.0000 C   0  0  0  0  0  0  0  0  0  0  0  0
    4.2690   -0.3450    0.0000 C   0  0  1  0  0  0  0  0  0  0  0  0
    6.0010    1.6550    0.0000 C   0  0  0  0  0  0  0  0  0  0  0  0
    6.8671    0.1550    0.0000 C   0  0  0  0  0  0  0  0  0  0  0  0
    3.4030    0.1550    0.0000 C   0  0  0  0  0  0  0  0  0  0  0  0
    5.1350   -0.6950    0.0000 H   0  0  0  0  0  0  0  0  0  0  0  0
    4.9230    1.7376    0.0000 H   0  0  0  0  0  0  0  0  0  0  0  0
    4.5244    1.0473    0.0000 H   0  0  0  0  0  0  0  0  0  0  0  0
    4.8059   -0.6550    0.0000 H   0  0  0  0  0  0  0  0  0  0  0  0
    6.3996    2.1300    0.0000 H   0  0  0  0  0  0  0  0  0  0  0  0
    5.6025    2.1300    0.0000 H   0  0  0  0  0  0  0  0  0  0  0  0
    6.0010   -0.9650    0.0000 H   0  0  0  0  0  0  0  0  0  0  0  0
    3.7320   -1.6550    0.0000 H   0  0  0  0  0  0  0  0  0  0  0  0
    4.8059   -1.6550    0.0000 H   0  0  0  0  0  0  0  0  0  0  0  0
    8.2700   -0.0350    0.0000 H   0  0  0  0  0  0  0  0  0  0  0  0
    7.7331   -0.9650    0.0000 H   0  0  0  0  0  0  0  0  0  0  0  0
    2.0000   -0.0350    0.0000 H   0  0  0  0  0  0  0  0  0  0  0  0
  1 12  1  0  0  0  0
  1 24  1  0  0  0  0
  2 12  2  0  0  0  0
  3  7  1  0  0  0  0
  3 11  1  0  0  0  0
  3 19  1  0  0  0  0
  4 10  1  0  0  0  0
  4 11  2  0  0  0  0
  9  5  1  6  0  0  0
  5 20  1  0  0  0  0
  5 21  1  0  0  0  0
  6 11  1  0  0  0  0
  6 22  1  0  0  0  0
  6 23  1  0  0  0  0
  7  8  1  0  0  0  0
  7  9  1  0  0  0  0
  7 13  1  6  0  0  0
  8 10  1  0  0  0  0
  8 14  1  0  0  0  0
  8 15  1  0  0  0  0
  9 12  1  0  0  0  0
  9 16  1  0  0  0  0
 10 17  1  0  0  0  0
 10 18  1  0  0  0  0
M  END
> <PUBCHEM_COMPOUND_CID>
5287987

> <PUBCHEM_COMPOUND_CANONICALIZED>
1

> <PUBCHEM_CACTVS_COMPLEXITY>
216

> <PUBCHEM_CACTVS_HBOND_ACCEPTOR>
4

> <PUBCHEM_CACTVS_HBOND_DONOR>
4

> <PUBCHEM_CACTVS_ROTATABLE_BOND>
2

> <PUBCHEM_CACTVS_SUBSKEYS>
AAADccBjsAAAAAAAAAAAAAAAAAAAAAAAAAAgAAAAAAAAAAAAAAAAHgAQCAAACCjBgAQBCALAAgAoAACQLAAAAAEAAAABAIGIAACCQBoAyAAUQAAGEAIAAACYEQAAAAAAAAAAAAAAAAAAAAAAAAAAAAAAAA==

> <PUBCHEM_IUPAC_OPENEYE_NAME>
(2S)-2-amino-2-[(6R)-2-amino-1,4,5,6-tetrahydropyrimidin-6-yl]acetic acid

> <PUBCHEM_IUPAC_CAS_NAME>
(2S)-2-amino-2-[(6R)-2-amino-1,4,5,6-tetrahydropyrimidin-6-yl]acetic acid

> <PUBCHEM_IUPAC_NAME>
(2S)-2-amino-2-[(6R)-2-amino-1,4,5,6-tetrahydropyrimidin-6-yl]acetic acid

> <PUBCHEM_IUPAC_SYSTEMATIC_NAME>
(2S)-2-azanyl-2-[(6R)-2-azanyl-1,4,5,6-tetrahydropyrimidin-6-yl]ethanoic acid

> <PUBCHEM_IUPAC_TRADITIONAL_NAME>
(2S)-2-amino-2-[(6R)-2-amino-1,4,5,6-tetrahydropyrimidin-6-yl]acetic acid

> <PUBCHEM_IUPAC_INCHI>
InChI=1S/C6H12N4O2/c7-4(5(11)12)3-1-2-9-6(8)10-3/h3-4H,1-2,7H2,(H,11,12)(H3,8,9,10)/t3-,4+/m1/s1

> <PUBCHEM_IUPAC_INCHIKEY>
XHNWDEHKMJLKGG-DMTCNVIQSA-N

> <PUBCHEM_XLOGP3_AA>
-4.5

> <PUBCHEM_EXACT_MASS>
172.096026

> <PUBCHEM_MOLECULAR_FORMULA>
C6H12N4O2

> <PUBCHEM_MOLECULAR_WEIGHT>
172.18508

> <PUBCHEM_OPENEYE_CAN_SMILES>
C1CN=C(NC1C(C(=O)O)N)N

> <PUBCHEM_OPENEYE_ISO_SMILES>
C1CN=C(N[C@H]1[C@@H](C(=O)O)N)N

> <PUBCHEM_CACTVS_TPSA>
114

> <PUBCHEM_MONOISOTOPIC_WEIGHT>
172.096026

> <PUBCHEM_TOTAL_CHARGE>
0

> <PUBCHEM_HEAVY_ATOM_COUNT>
12

> <PUBCHEM_ATOM_DEF_STEREO_COUNT>
2

> <PUBCHEM_ATOM_UDEF_STEREO_COUNT>
0

> <PUBCHEM_BOND_DEF_STEREO_COUNT>
0

> <PUBCHEM_BOND_UDEF_STEREO_COUNT>
0

> <PUBCHEM_ISOTOPIC_ATOM_COUNT>
0

> <PUBCHEM_COMPONENT_COUNT>
1

> <PUBCHEM_CACTVS_TAUTO_COUNT>
3

> <PUBCHEM_COORDINATE_TYPE>
1
5
255

> <PUBCHEM_BONDANNOTATIONS>
9  5  6
7  13  6

$$$$

