56928082
  -OEChem-07051213042D

 67 42  0     0  0  0  0  0  0999 V2000
    1.7320    1.6800    0.0000 Ru  0  0  0  0  0  0  0  0  0  0  0  0
    3.4641    1.6800    0.0000 Ru  0  0  0  0  0  0  0  0  0  0  0  0
    0.0000    1.6800    0.0000 Ru  0  0  0  0  0  0  0  0  0  0  0  0
    5.7510    1.6800    0.0000 Cl  0  5  0  0  0  0  0  0  0  0  0  0
    8.8249    0.0000    0.0000 Cl  0  5  0  0  0  0  0  0  0  0  0  0
   11.8988    1.4650    0.0000 Cl  0  5  0  0  0  0  0  0  0  0  0  0
   14.9727    1.4650    0.0000 Cl  0  5  0  0  0  0  0  0  0  0  0  0
    1.4820    4.1800    0.0000 Cl  0  5  0  0  0  0  0  0  0  0  0  0
    5.7510    4.1800    0.0000 Cl  0  5  0  0  0  0  0  0  0  0  0  0
    2.5981    2.1800    0.0000 O   0  6  0  0  0  0  0  0  0  0  0  0
    0.8660    2.1800    0.0000 O   0  6  0  0  0  0  0  0  0  0  0  0
    9.0749    3.1200    0.0000 N   0  0  0  0  0  0  0  0  0  0  0  0
   12.1488    4.5850    0.0000 N   0  0  0  0  0  0  0  0  0  0  0  0
   15.2227    4.5850    0.0000 N   0  0  0  0  0  0  0  0  0  0  0  0
    1.7320    7.3000    0.0000 N   0  0  0  0  0  0  0  0  0  0  0  0
    6.0010    7.3000    0.0000 N   0  0  0  0  0  0  0  0  0  0  0  0
    9.0749    6.0500    0.0000 N   0  0  0  0  0  0  0  0  0  0  0  0
   12.1488    7.5150    0.0000 N   0  0  0  0  0  0  0  0  0  0  0  0
   15.2227    7.5150    0.0000 N   0  0  0  0  0  0  0  0  0  0  0  0
    1.7320   10.2300    0.0000 N   0  0  0  0  0  0  0  0  0  0  0  0
    6.0010   10.2300    0.0000 N   0  0  0  0  0  0  0  0  0  0  0  0
    9.0749    8.9800    0.0000 N   0  0  0  0  0  0  0  0  0  0  0  0
   12.1488   10.4450    0.0000 N   0  0  0  0  0  0  0  0  0  0  0  0
   15.2227   10.4450    0.0000 N   0  0  0  0  0  0  0  0  0  0  0  0
    9.0749   11.9100    0.0000 N   0  0  0  0  0  0  0  0  0  0  0  0
    2.2690    7.6100    0.0000 H   0  0  0  0  0  0  0  0  0  0  0  0
    6.5380    7.6100    0.0000 H   0  0  0  0  0  0  0  0  0  0  0  0
    5.4641    7.6100    0.0000 H   0  0  0  0  0  0  0  0  0  0  0  0
    6.0010    6.6800    0.0000 H   0  0  0  0  0  0  0  0  0  0  0  0
    9.6118    6.3600    0.0000 H   0  0  0  0  0  0  0  0  0  0  0  0
    8.5380    6.3600    0.0000 H   0  0  0  0  0  0  0  0  0  0  0  0
    9.0749    5.4300    0.0000 H   0  0  0  0  0  0  0  0  0  0  0  0
   12.6857    7.8250    0.0000 H   0  0  0  0  0  0  0  0  0  0  0  0
   11.6118    7.8250    0.0000 H   0  0  0  0  0  0  0  0  0  0  0  0
   12.1488    6.8950    0.0000 H   0  0  0  0  0  0  0  0  0  0  0  0
    1.1951    7.6100    0.0000 H   0  0  0  0  0  0  0  0  0  0  0  0
    1.7320    6.6800    0.0000 H   0  0  0  0  0  0  0  0  0  0  0  0
   15.7596    4.8950    0.0000 H   0  0  0  0  0  0  0  0  0  0  0  0
   14.6857    4.8950    0.0000 H   0  0  0  0  0  0  0  0  0  0  0  0
   15.2227    3.9650    0.0000 H   0  0  0  0  0  0  0  0  0  0  0  0
   12.6857    4.8950    0.0000 H   0  0  0  0  0  0  0  0  0  0  0  0
   11.6118    4.8950    0.0000 H   0  0  0  0  0  0  0  0  0  0  0  0
   12.1488    3.9650    0.0000 H   0  0  0  0  0  0  0  0  0  0  0  0
    9.6118    3.4300    0.0000 H   0  0  0  0  0  0  0  0  0  0  0  0
    8.5380    3.4300    0.0000 H   0  0  0  0  0  0  0  0  0  0  0  0
    9.0749    2.5000    0.0000 H   0  0  0  0  0  0  0  0  0  0  0  0
    9.6118   12.2200    0.0000 H   0  0  0  0  0  0  0  0  0  0  0  0
    8.5380   12.2200    0.0000 H   0  0  0  0  0  0  0  0  0  0  0  0
    9.0749   11.2900    0.0000 H   0  0  0  0  0  0  0  0  0  0  0  0
   15.7596   10.7550    0.0000 H   0  0  0  0  0  0  0  0  0  0  0  0
   14.6857   10.7550    0.0000 H   0  0  0  0  0  0  0  0  0  0  0  0
   15.2227    9.8250    0.0000 H   0  0  0  0  0  0  0  0  0  0  0  0
   12.6857   10.7550    0.0000 H   0  0  0  0  0  0  0  0  0  0  0  0
   11.6118   10.7550    0.0000 H   0  0  0  0  0  0  0  0  0  0  0  0
   12.1488    9.8250    0.0000 H   0  0  0  0  0  0  0  0  0  0  0  0
    9.6118    9.2900    0.0000 H   0  0  0  0  0  0  0  0  0  0  0  0
    8.5380    9.2900    0.0000 H   0  0  0  0  0  0  0  0  0  0  0  0
    9.0749    8.3600    0.0000 H   0  0  0  0  0  0  0  0  0  0  0  0
    6.5380   10.5400    0.0000 H   0  0  0  0  0  0  0  0  0  0  0  0
    5.4641   10.5400    0.0000 H   0  0  0  0  0  0  0  0  0  0  0  0
    6.0010    9.6100    0.0000 H   0  0  0  0  0  0  0  0  0  0  0  0
    2.2690   10.5400    0.0000 H   0  0  0  0  0  0  0  0  0  0  0  0
    1.1951   10.5400    0.0000 H   0  0  0  0  0  0  0  0  0  0  0  0
    1.7320    9.6100    0.0000 H   0  0  0  0  0  0  0  0  0  0  0  0
   15.7596    7.8250    0.0000 H   0  0  0  0  0  0  0  0  0  0  0  0
   14.6857    7.8250    0.0000 H   0  0  0  0  0  0  0  0  0  0  0  0
   15.2227    6.8950    0.0000 H   0  0  0  0  0  0  0  0  0  0  0  0
 12 44  1  0  0  0  0
 12 45  1  0  0  0  0
 12 46  1  0  0  0  0
 13 41  1  0  0  0  0
 13 42  1  0  0  0  0
 13 43  1  0  0  0  0
 14 38  1  0  0  0  0
 14 39  1  0  0  0  0
 14 40  1  0  0  0  0
 15 26  1  0  0  0  0
 15 36  1  0  0  0  0
 15 37  1  0  0  0  0
 16 27  1  0  0  0  0
 16 28  1  0  0  0  0
 16 29  1  0  0  0  0
 17 30  1  0  0  0  0
 17 31  1  0  0  0  0
 17 32  1  0  0  0  0
 18 33  1  0  0  0  0
 18 34  1  0  0  0  0
 18 35  1  0  0  0  0
 19 65  1  0  0  0  0
 19 66  1  0  0  0  0
 19 67  1  0  0  0  0
 20 62  1  0  0  0  0
 20 63  1  0  0  0  0
 20 64  1  0  0  0  0
 21 59  1  0  0  0  0
 21 60  1  0  0  0  0
 21 61  1  0  0  0  0
 22 56  1  0  0  0  0
 22 57  1  0  0  0  0
 22 58  1  0  0  0  0
 23 53  1  0  0  0  0
 23 54  1  0  0  0  0
 23 55  1  0  0  0  0
 24 50  1  0  0  0  0
 24 51  1  0  0  0  0
 24 52  1  0  0  0  0
 25 47  1  0  0  0  0
 25 48  1  0  0  0  0
 25 49  1  0  0  0  0
M  CHG  8   4  -1   5  -1   6  -1   7  -1   8  -1   9  -1  10  -2  11  -2
M  END
> <PUBCHEM_COMPOUND_CID>
56928082

> <PUBCHEM_COMPOUND_CANONICALIZED>
1

> <PUBCHEM_CACTVS_COMPLEXITY>
4.9

> <PUBCHEM_CACTVS_HBOND_ACCEPTOR>
22

> <PUBCHEM_CACTVS_HBOND_DONOR>
14

> <PUBCHEM_CACTVS_ROTATABLE_BOND>
0

> <PUBCHEM_CACTVS_SUBSKEYS>
AAADcfAD8AAHAAAAACAAAAAAAAAAAAAAAAAAAAAAAAAAAAAAAAAAAAAQAAAAAAAAAAAAAAAAAAAAAAAAAAAAAAAAAAAAAAAAAAAAAAAAAAAAAAAAAAAAAAAAAAAAAAAAAAAAAAAAAAAAAAAAAAAAAAAAAA==

> <PUBCHEM_IUPAC_OPENEYE_NAME>
ammonia; oxygen(2-); ruthenium; hexachloride

> <PUBCHEM_IUPAC_CAS_NAME>
ammonia; oxygen(2-); ruthenium; hexachloride

> <PUBCHEM_IUPAC_NAME>
azane; oxygen(2-); ruthenium; hexachloride

> <PUBCHEM_IUPAC_SYSTEMATIC_NAME>
azane; oxygen(2-); ruthenium; hexachloride

> <PUBCHEM_IUPAC_TRADITIONAL_NAME>
ammonia; oxygen(2-); ruthenium; hexachloride

> <PUBCHEM_IUPAC_INCHI>
InChI=1S/6ClH.14H3N.2O.3Ru/h6*1H;14*1H3;;;;;/q;;;;;;;;;;;;;;;;;;;;2*-2;;;/p-6

> <PUBCHEM_IUPAC_INCHIKEY>
KRRAVWBLPHFPGM-UHFFFAOYSA-H

> <PUBCHEM_EXACT_MASS>
788.887047

> <PUBCHEM_MOLECULAR_FORMULA>
Cl6H42N14O2Ru3-10

> <PUBCHEM_MOLECULAR_WEIGHT>
786.35408

> <PUBCHEM_OPENEYE_CAN_SMILES>
N.N.N.N.N.N.N.N.N.N.N.N.N.N.[O-2].[O-2].[Cl-].[Cl-].[Cl-].[Cl-].[Cl-].[Cl-].[Ru].[Ru].[Ru]

> <PUBCHEM_OPENEYE_ISO_SMILES>
N.N.N.N.N.N.N.N.N.N.N.N.N.N.[O-2].[O-2].[Cl-].[Cl-].[Cl-].[Cl-].[Cl-].[Cl-].[Ru].[Ru].[Ru]

> <PUBCHEM_CACTVS_TPSA>
16

> <PUBCHEM_MONOISOTOPIC_WEIGHT>
785.887681

> <PUBCHEM_TOTAL_CHARGE>
-10

> <PUBCHEM_HEAVY_ATOM_COUNT>
25

> <PUBCHEM_ATOM_DEF_STEREO_COUNT>
0

> <PUBCHEM_ATOM_UDEF_STEREO_COUNT>
0

> <PUBCHEM_BOND_DEF_STEREO_COUNT>
0

> <PUBCHEM_BOND_UDEF_STEREO_COUNT>
0

> <PUBCHEM_ISOTOPIC_ATOM_COUNT>
0

> <PUBCHEM_COMPONENT_COUNT>
25

> <PUBCHEM_CACTVS_TAUTO_COUNT>
1

> <PUBCHEM_NONSTANDARDBOND>
1  10  6
1  11  6
2  10  6
3  11  6

> <PUBCHEM_COORDINATE_TYPE>
1
5
255

$$$$

