9215
  -OEChem-07051213153D

 23 25  0     0  0  0  0  0  0999 V2000
    0.0000    1.3612    0.0000 N   0  0  0  0  0  0  0  0  0  0  0  0
   -1.2147   -0.7157   -0.0001 C   0  0  0  0  0  0  0  0  0  0  0  0
    1.2147   -0.7158   -0.0001 C   0  0  0  0  0  0  0  0  0  0  0  0
   -1.1671    0.6886   -0.0001 C   0  0  0  0  0  0  0  0  0  0  0  0
    1.1671    0.6886    0.0000 C   0  0  0  0  0  0  0  0  0  0  0  0
    0.0000   -1.4089   -0.0002 C   0  0  0  0  0  0  0  0  0  0  0  0
   -2.4500   -1.3867    0.0000 C   0  0  0  0  0  0  0  0  0  0  0  0
    2.4500   -1.3867    0.0001 C   0  0  0  0  0  0  0  0  0  0  0  0
   -2.3731    1.3844   -0.0001 C   0  0  0  0  0  0  0  0  0  0  0  0
    2.3731    1.3845    0.0001 C   0  0  0  0  0  0  0  0  0  0  0  0
   -3.6415   -0.6676    0.0001 C   0  0  0  0  0  0  0  0  0  0  0  0
    3.6416   -0.6676    0.0001 C   0  0  0  0  0  0  0  0  0  0  0  0
   -3.6026    0.7208    0.0001 C   0  0  0  0  0  0  0  0  0  0  0  0
    3.6025    0.7209    0.0000 C   0  0  0  0  0  0  0  0  0  0  0  0
    0.0000   -2.4982   -0.0002 H   0  0  0  0  0  0  0  0  0  0  0  0
   -2.4900   -2.4737    0.0001 H   0  0  0  0  0  0  0  0  0  0  0  0
    2.4901   -2.4737    0.0001 H   0  0  0  0  0  0  0  0  0  0  0  0
   -2.3692    2.4729   -0.0001 H   0  0  0  0  0  0  0  0  0  0  0  0
    2.3690    2.4730    0.0001 H   0  0  0  0  0  0  0  0  0  0  0  0
   -4.5940   -1.1883    0.0002 H   0  0  0  0  0  0  0  0  0  0  0  0
    4.5941   -1.1882    0.0002 H   0  0  0  0  0  0  0  0  0  0  0  0
   -4.5265    1.2917    0.0002 H   0  0  0  0  0  0  0  0  0  0  0  0
    4.5265    1.2918    0.0001 H   0  0  0  0  0  0  0  0  0  0  0  0
  1  4  2  0  0  0  0
  1  5  1  0  0  0  0
  2  4  1  0  0  0  0
  2  6  2  0  0  0  0
  2  7  1  0  0  0  0
  3  5  1  0  0  0  0
  3  6  1  0  0  0  0
  3  8  2  0  0  0  0
  4  9  1  0  0  0  0
  5 10  2  0  0  0  0
  6 15  1  0  0  0  0
  7 11  2  0  0  0  0
  7 16  1  0  0  0  0
  8 12  1  0  0  0  0
  8 17  1  0  0  0  0
  9 13  2  0  0  0  0
  9 18  1  0  0  0  0
 10 14  1  0  0  0  0
 10 19  1  0  0  0  0
 11 13  1  0  0  0  0
 11 20  1  0  0  0  0
 12 14  2  0  0  0  0
 12 21  1  0  0  0  0
 13 22  1  0  0  0  0
 14 23  1  0  0  0  0
M  END
> <PUBCHEM_COMPOUND_CID>
9215

> <PUBCHEM_CONFORMER_RMSD>
0.4

> <PUBCHEM_CONFORMER_DIVERSEORDER>
1

> <PUBCHEM_MMFF94_PARTIAL_CHARGES>
21
1 -0.62
10 -0.15
11 -0.15
12 -0.15
13 -0.15
14 -0.15
15 0.15
16 0.15
17 0.15
18 0.15
19 0.15
20 0.15
21 0.15
22 0.15
23 0.15
4 0.31
5 0.31
6 -0.15
7 -0.15
8 -0.15
9 -0.15

> <PUBCHEM_EFFECTIVE_ROTOR_COUNT>
0

> <PUBCHEM_PHARMACOPHORE_FEATURES>
4
1 1 acceptor
6 1 2 3 4 5 6 rings
6 2 4 7 9 11 13 rings
6 3 5 8 10 12 14 rings

> <PUBCHEM_HEAVY_ATOM_COUNT>
14

> <PUBCHEM_ATOM_DEF_STEREO_COUNT>
0

> <PUBCHEM_ATOM_UDEF_STEREO_COUNT>
0

> <PUBCHEM_BOND_DEF_STEREO_COUNT>
0

> <PUBCHEM_BOND_UDEF_STEREO_COUNT>
0

> <PUBCHEM_ISOTOPIC_ATOM_COUNT>
0

> <PUBCHEM_COMPONENT_COUNT>
1

> <PUBCHEM_CACTVS_TAUTO_COUNT>
1

> <PUBCHEM_CONFORMER_ID>
000023FF00000001

> <PUBCHEM_MMFF94_ENERGY>
44.2008

> <PUBCHEM_FEATURE_SELFOVERLAP>
20.358

> <PUBCHEM_SHAPE_FINGERPRINT>
10608611 8 18410578383198371492
10967382 1 18410855485945555270
11132069 177 18409736157322773464
11471102 20 18411142437052930830
12032990 46 18410849962570211299
13221675 6 18410856563934919266
13296908 3 18410854364911709187
13380535 76 18410856559640198823
14144814 61 18410856572529979354
14325111 11 18410575084668516064
15196674 1 18410575088958059207
15219456 202 18409730664027920759
15309172 13 18261384551214453267
15442244 35 18194119844299555818
15536298 74 18334576845726191010
15775835 57 18410569591399965796
16945 1 18410855464423174566
17844478 74 18060133254312291821
18186145 218 18202566206577105070
18522853 276 18407762533987949304
200 152 18041008323652735023
20201158 50 18409729581696402499
20510252 161 18260265269736124145
20645477 70 18336831982482052471
21267235 1 18410846668330535623
21501502 16 18410573985151464135
21501925 9 18411710884849451114
2334 1 18410855430063390727
23402539 116 18261684721888060246
23402655 69 18335989748095783885
23463225 33 18412826901857093460
23559900 14 18335424612452330034
2748010 2 18410855460128168463
3312278 4 18409164398454692657
335352 9 18050568735479051382
474 4 16987146120833957732
5104073 3 18410573980856491339
528886 8 18410298012064848058
53812653 166 18334018263564852832
69090 78 18334018289440145039
7364860 26 18333449859356256774
8809292 202 18272083872899450107
9709674 26 18410006624372742118

> <PUBCHEM_SHAPE_MULTIPOLES>
283.13
6.53
1.7
0.61
0
0.01
0
-0.11
0
0
0
0
0.01
0

> <PUBCHEM_SHAPE_SELFOVERLAP>
643.607

> <PUBCHEM_SHAPE_VOLUME>
146.8

> <PUBCHEM_COORDINATE_TYPE>
2
5
10

$$$$

