24743
  -OEChem-07051213123D

 38 39  0     0  0  0  0  0  0999 V2000
   -1.1040   -1.1334    1.0504 O   0  0  0  0  0  0  0  0  0  0  0  0
    5.3577    1.4778    0.2579 O   0  0  0  0  0  0  0  0  0  0  0  0
   -1.6850   -0.1164   -0.9482 O   0  0  0  0  0  0  0  0  0  0  0  0
    5.2594   -0.5590   -0.7775 O   0  0  0  0  0  0  0  0  0  0  0  0
    3.4030    0.3592    0.3232 N   0  0  0  0  0  0  0  0  0  0  0  0
   -3.2114   -0.3180    0.8217 N   0  0  0  0  0  0  0  0  0  0  0  0
    2.4027   -0.5986    0.1543 C   0  0  0  0  0  0  0  0  0  0  0  0
    0.1685   -1.3480    0.5107 C   0  0  0  0  0  0  0  0  0  0  0  0
    1.1338   -0.3839    0.6926 C   0  0  0  0  0  0  0  0  0  0  0  0
    2.6719   -1.7715   -0.5511 C   0  0  0  0  0  0  0  0  0  0  0  0
    0.4033   -2.5151   -0.1803 C   0  0  0  0  0  0  0  0  0  0  0  0
    1.6723   -2.7297   -0.7184 C   0  0  0  0  0  0  0  0  0  0  0  0
   -4.3736    0.2800    0.3333 C   0  0  0  0  0  0  0  0  0  0  0  0
   -5.5146    0.3431    1.1334 C   0  0  0  0  0  0  0  0  0  0  0  0
   -4.3946    0.8155   -0.9546 C   0  0  0  0  0  0  0  0  0  0  0  0
   -1.9828   -0.4778    0.1846 C   0  0  0  0  0  0  0  0  0  0  0  0
    4.7192    0.3304   -0.1312 C   0  0  0  0  0  0  0  0  0  0  0  0
   -6.6764    0.9412    0.6456 C   0  0  0  0  0  0  0  0  0  0  0  0
   -5.5564    1.4137   -1.4423 C   0  0  0  0  0  0  0  0  0  0  0  0
   -6.6974    1.4766   -0.6422 C   0  0  0  0  0  0  0  0  0  0  0  0
    6.7296    1.5984   -0.1356 C   0  0  0  0  0  0  0  0  0  0  0  0
    7.2747    2.9156    0.3737 C   0  0  0  0  0  0  0  0  0  0  0  0
    0.9103    0.5243    1.2452 H   0  0  0  0  0  0  0  0  0  0  0  0
    3.6289   -2.0069   -0.9956 H   0  0  0  0  0  0  0  0  0  0  0  0
   -0.3747   -3.2608   -0.3097 H   0  0  0  0  0  0  0  0  0  0  0  0
    1.8805   -3.6435   -1.2675 H   0  0  0  0  0  0  0  0  0  0  0  0
    3.1378    1.1895    0.8476 H   0  0  0  0  0  0  0  0  0  0  0  0
   -3.2664   -0.6868    1.7682 H   0  0  0  0  0  0  0  0  0  0  0  0
   -5.5124   -0.0699    2.1390 H   0  0  0  0  0  0  0  0  0  0  0  0
   -3.5513    0.8042   -1.6312 H   0  0  0  0  0  0  0  0  0  0  0  0
   -7.5648    0.9903    1.2684 H   0  0  0  0  0  0  0  0  0  0  0  0
   -5.5741    1.8311   -2.4450 H   0  0  0  0  0  0  0  0  0  0  0  0
   -7.6019    1.9424   -1.0220 H   0  0  0  0  0  0  0  0  0  0  0  0
    6.7996    1.5667   -1.2285 H   0  0  0  0  0  0  0  0  0  0  0  0
    7.3056    0.7697    0.2910 H   0  0  0  0  0  0  0  0  0  0  0  0
    7.1943    2.9700    1.4644 H   0  0  0  0  0  0  0  0  0  0  0  0
    6.6968    3.7536   -0.0297 H   0  0  0  0  0  0  0  0  0  0  0  0
    8.3235    3.0408    0.0902 H   0  0  0  0  0  0  0  0  0  0  0  0
  1  8  1  0  0  0  0
  1 16  1  0  0  0  0
  2 17  1  0  0  0  0
  2 21  1  0  0  0  0
  3 16  2  0  0  0  0
  4 17  2  0  0  0  0
  5  7  1  0  0  0  0
  5 17  1  0  0  0  0
  5 27  1  0  0  0  0
  6 13  1  0  0  0  0
  6 16  1  0  0  0  0
  6 28  1  0  0  0  0
  7  9  2  0  0  0  0
  7 10  1  0  0  0  0
  8  9  1  0  0  0  0
  8 11  2  0  0  0  0
  9 23  1  0  0  0  0
 10 12  2  0  0  0  0
 10 24  1  0  0  0  0
 11 12  1  0  0  0  0
 11 25  1  0  0  0  0
 12 26  1  0  0  0  0
 13 14  2  0  0  0  0
 13 15  1  0  0  0  0
 14 18  1  0  0  0  0
 14 29  1  0  0  0  0
 15 19  2  0  0  0  0
 15 30  1  0  0  0  0
 18 20  2  0  0  0  0
 18 31  1  0  0  0  0
 19 20  1  0  0  0  0
 19 32  1  0  0  0  0
 20 33  1  0  0  0  0
 21 22  1  0  0  0  0
 21 34  1  0  0  0  0
 21 35  1  0  0  0  0
 22 36  1  0  0  0  0
 22 37  1  0  0  0  0
 22 38  1  0  0  0  0
M  END
> <PUBCHEM_COMPOUND_CID>
24743

> <PUBCHEM_CONFORMER_RMSD>
0.8

> <PUBCHEM_CONFORMER_DIVERSEORDER>
1
152
63
15
170
218
237
133
169
131
98
55
161
201
234
10
64
147
68
60
185
196
120
3
187
106
200
159
17
78
128
143
95
107
231
227
61
242
190
205
33
59
171
224
192
212
88
150
122
225
136
184
92
142
188
248
53
126
238
194
132
86
49
115
73
207
209
193
108
37
30
139
229
244
164
75
206
21
138
130
251
80
157
176
117
124
175
46
70
42
52
12
226
76
77
109
123
228
191
104
232
24
9
39
202
154
199
50
247
137
105
127
179
189
250
41
217
249
239
145
214
102
85
35
58
56
235
13
165
166
111
236
215
54
153
129
47
29
181
135
149
151
112
219
18
110
160
213
174
119
210
43
211
14
146
180
6
11
45
197
140
163
8
103
44
243
89
233
246
223
67
62
177
241
51
114
87
172
222
93
74
245
113
38
167
32
155
182
19
57
230
183
203
173
83
116
91
162
99
96
25
20
204
240
82
252
144
27
121
148
79
221
22
158
178
220
69
84
125
2
26
141
168
97
72
90
195
208
16
28
186
7
216
71
134
40
101
4
65
156
66
23
100
118
5
81
198
48
36
31
34
94

> <PUBCHEM_MMFF94_PARTIAL_CHARGES>
32
1 -0.23
10 -0.15
11 -0.15
12 -0.15
13 0.12
14 -0.15
15 -0.15
16 0.78
17 0.78
18 -0.15
19 -0.15
2 -0.43
20 -0.15
21 0.28
23 0.15
24 0.15
25 0.15
26 0.15
27 0.37
28 0.37
29 0.15
3 -0.57
30 0.15
31 0.15
32 0.15
33 0.15
4 -0.57
5 -0.55
6 -0.55
7 0.12
8 0.08
9 -0.15

> <PUBCHEM_EFFECTIVE_ROTOR_COUNT>
8

> <PUBCHEM_PHARMACOPHORE_FEATURES>
6
1 3 acceptor
1 4 acceptor
1 5 donor
1 6 donor
6 13 14 15 18 19 20 rings
6 7 8 9 10 11 12 rings

> <PUBCHEM_HEAVY_ATOM_COUNT>
22

> <PUBCHEM_ATOM_DEF_STEREO_COUNT>
0

> <PUBCHEM_ATOM_UDEF_STEREO_COUNT>
0

> <PUBCHEM_BOND_DEF_STEREO_COUNT>
0

> <PUBCHEM_BOND_UDEF_STEREO_COUNT>
0

> <PUBCHEM_ISOTOPIC_ATOM_COUNT>
0

> <PUBCHEM_COMPONENT_COUNT>
1

> <PUBCHEM_CACTVS_TAUTO_COUNT>
4

> <PUBCHEM_CONFORMER_ID>
000060A700000001

> <PUBCHEM_MMFF94_ENERGY>
64.316

> <PUBCHEM_FEATURE_SELFOVERLAP>
30.446

> <PUBCHEM_SHAPE_FINGERPRINT>
10 15 17917992763070686080
11796584 16 5833985031809895375
11823591 26 18334584520896292834
12403259 118 17774152384556700838
12730499 353 18339635741380531427
12760667 363 9295294940918748325
13257819 101 18343590645955451814
13402501 40 18202003239481192725
13668630 136 6988315032693331173
13690498 29 17096944460159201903
13862211 1 10087645896742801032
13911852 28 10087655792205169008
13955234 65 18127691745317102355
14123256 34 8718833102147159764
14598715 104 18060150846562335165
14931854 50 17676479554226678056
15183329 4 15864066585210954752
1768 4 18337381656907904977
17980427 23 17774438270185575126
18335252 114 18261114084671490980
19427546 20 18116155467660449575
2026 5 8502657000325252741
20281389 69 18060138751569776416
20554085 129 17677064477675787274
20612939 158 18187362198353636574
21033648 29 17917987286997816147
21033650 10 14996548621599823019
21150785 3 17894636950754617509
21307412 95 6266895788481433541
22224240 67 18059857251160950155
22288116 15 17458914721461078711
22765269 38 18411983555053430040
23522609 53 16806428358062036571
23559900 14 17058637702575477611
270888 7 18410294666928980480
2838139 119 18342466932519246012
2916195 48 18131350825909174819
34797466 226 18187924040933047943
3627633 1 17474387977028113250
4340502 62 16702304559719652498
5104073 3 13541876020521174069
5283384 27 18273222988568284189
543368 44 18333167285116046169
6327066 14 18336547110702869852
77188 2 17620199071590180522

> <PUBCHEM_SHAPE_MULTIPOLES>
419.31
19.75
2.53
1.06
2.7
0.29
0.09
-19.97
0.78
4.24
0.33
-1.27
-0.07
1.45

> <PUBCHEM_SHAPE_SELFOVERLAP>
885.963

> <PUBCHEM_SHAPE_VOLUME>
232.6

> <PUBCHEM_COORDINATE_TYPE>
2
5
10

$$$$

