5462427
  -OEChem-07051212562D

 49 53  0     1  0  0  0  0  0999 V2000
    3.4112    0.4115    0.0000 O   0  0  0  0  0  0  0  0  0  0  0  0
    2.0949   -0.9211    0.0000 O   0  0  0  0  0  0  0  0  0  0  0  0
    4.3500    1.7150    0.0000 O   0  0  0  0  0  0  0  0  0  0  0  0
    6.0184   -2.4452    0.0000 O   0  0  0  0  0  0  0  0  0  0  0  0
    2.0000   -2.6949    0.0000 O   0  0  0  0  0  0  0  0  0  0  0  0
    6.4433    0.0619    0.0000 O   0  0  0  0  0  0  0  0  0  0  0  0
    7.8932    3.0617    0.0000 O   0  0  0  0  0  0  0  0  0  0  0  0
    3.6979   -0.7540    0.0000 C   0  0  2  0  0  0  0  0  0  0  0  0
    4.5640   -0.2540    0.0000 C   0  0  1  0  0  0  0  0  0  0  0  0
    4.5640    0.7460    0.0000 C   0  0  1  0  0  0  0  0  0  0  0  0
    2.8319   -0.2540    0.0000 C   0  0  1  0  0  0  0  0  0  0  0  0
    5.3326   -0.8748    0.0000 C   0  0  0  0  0  0  0  0  0  0  0  0
    3.4948   -0.3841    0.0000 C   0  0  0  0  0  0  0  0  0  0  0  0
    3.4887   -1.7259    0.0000 C   0  0  0  0  0  0  0  0  0  0  0  0
    3.6979    1.2459    0.0000 C   0  0  0  0  0  0  0  0  0  0  0  0
    2.8319    0.7460    0.0000 C   0  0  0  0  0  0  0  0  0  0  0  0
    4.1420    0.7369    0.0000 C   0  0  2  0  0  0  0  0  0  0  0  0
    5.3300    1.3887    0.0000 C   0  0  0  0  0  0  0  0  0  0  0  0
    5.2109   -1.8554    0.0000 C   0  0  1  0  0  0  0  0  0  0  0  0
    4.3138   -2.2694    0.0000 C   0  0  0  0  0  0  0  0  0  0  0  0
    2.5000   -1.8289    0.0000 C   0  0  0  0  0  0  0  0  0  0  0  0
    6.2697    1.0467    0.0000 C   0  0  1  0  0  0  0  0  0  0  0  0
    3.6979    2.2460    0.0000 C   0  0  0  0  0  0  0  0  0  0  0  0
    7.0357    1.6895    0.0000 C   0  0  0  0  0  0  0  0  0  0  0  0
    8.0060    1.4476    0.0000 C   0  0  0  0  0  0  0  0  0  0  0  0
    6.9660    2.6871    0.0000 C   0  0  0  0  0  0  0  0  0  0  0  0
    8.5360    2.2956    0.0000 C   0  0  0  0  0  0  0  0  0  0  0  0
    5.4140   -0.2540    0.0000 H   0  0  0  0  0  0  0  0  0  0  0  0
    2.0958    0.1710    0.0000 H   0  0  0  0  0  0  0  0  0  0  0  0
    5.9233   -1.0632    0.0000 H   0  0  0  0  0  0  0  0  0  0  0  0
    5.6266   -0.3290    0.0000 H   0  0  0  0  0  0  0  0  0  0  0  0
    2.9001   -0.2090    0.0000 H   0  0  0  0  0  0  0  0  0  0  0  0
    4.0865   -0.1989    0.0000 H   0  0  0  0  0  0  0  0  0  0  0  0
    2.6198    1.3286    0.0000 H   0  0  0  0  0  0  0  0  0  0  0  0
    2.2213    0.6383    0.0000 H   0  0  0  0  0  0  0  0  0  0  0  0
    3.6602    1.1271    0.0000 H   0  0  0  0  0  0  0  0  0  0  0  0
    5.6400    1.9257    0.0000 H   0  0  0  0  0  0  0  0  0  0  0  0
    4.8550    1.7873    0.0000 H   0  0  0  0  0  0  0  0  0  0  0  0
    5.7800   -1.6092    0.0000 H   0  0  0  0  0  0  0  0  0  0  0  0
    4.2673   -2.8876    0.0000 H   0  0  0  0  0  0  0  0  0  0  0  0
    5.7947    0.6482    0.0000 H   0  0  0  0  0  0  0  0  0  0  0  0
    4.2349    2.5560    0.0000 H   0  0  0  0  0  0  0  0  0  0  0  0
    3.1610    2.5560    0.0000 H   0  0  0  0  0  0  0  0  0  0  0  0
    4.8385    2.0967    0.0000 H   0  0  0  0  0  0  0  0  0  0  0  0
    5.9520   -3.0617    0.0000 H   0  0  0  0  0  0  0  0  0  0  0  0
    7.0260   -0.1501    0.0000 H   0  0  0  0  0  0  0  0  0  0  0  0
    8.2383    0.8727    0.0000 H   0  0  0  0  0  0  0  0  0  0  0  0
    6.4402    3.0156    0.0000 H   0  0  0  0  0  0  0  0  0  0  0  0
    9.1544    2.3389    0.0000 H   0  0  0  0  0  0  0  0  0  0  0  0
  1 13  1  0  0  0  0
  1 17  1  0  0  0  0
  2 11  1  0  0  0  0
  2 21  1  0  0  0  0
 17  3  1  6  0  0  0
  3 44  1  0  0  0  0
 19  4  1  6  0  0  0
  4 45  1  0  0  0  0
  5 21  2  0  0  0  0
 22  6  1  1  0  0  0
  6 46  1  0  0  0  0
  7 26  1  0  0  0  0
  7 27  1  0  0  0  0
  8  9  1  0  0  0  0
  8 11  1  0  0  0  0
  8 13  1  1  0  0  0
  8 14  1  0  0  0  0
  9 10  1  0  0  0  0
  9 12  1  0  0  0  0
  9 28  1  6  0  0  0
 10 15  1  0  0  0  0
 10 17  1  0  0  0  0
 10 18  1  1  0  0  0
 11 16  1  0  0  0  0
 11 29  1  1  0  0  0
 12 19  1  0  0  0  0
 12 30  1  0  0  0  0
 12 31  1  0  0  0  0
 13 32  1  0  0  0  0
 13 33  1  0  0  0  0
 14 20  2  0  0  0  0
 14 21  1  0  0  0  0
 15 16  1  0  0  0  0
 15 23  2  0  0  0  0
 16 34  1  0  0  0  0
 16 35  1  0  0  0  0
 17 36  1  0  0  0  0
 18 22  1  0  0  0  0
 18 37  1  0  0  0  0
 18 38  1  0  0  0  0
 19 20  1  0  0  0  0
 19 39  1  0  0  0  0
 20 40  1  0  0  0  0
 22 24  1  0  0  0  0
 22 41  1  0  0  0  0
 23 42  1  0  0  0  0
 23 43  1  0  0  0  0
 24 25  1  0  0  0  0
 24 26  2  0  0  0  0
 25 27  2  0  0  0  0
 25 47  1  0  0  0  0
 26 48  1  0  0  0  0
 27 49  1  0  0  0  0
M  END
> <PUBCHEM_COMPOUND_CID>
5462427

> <PUBCHEM_COMPOUND_CANONICALIZED>
1

> <PUBCHEM_CACTVS_COMPLEXITY>
717

> <PUBCHEM_CACTVS_HBOND_ACCEPTOR>
7

> <PUBCHEM_CACTVS_HBOND_DONOR>
3

> <PUBCHEM_CACTVS_ROTATABLE_BOND>
3

> <PUBCHEM_CACTVS_SUBSKEYS>
AAADceB4OAAAAAAAAAAAAAAAAAAAASJAAAA0QIAAAAASAEiBgAAAGgAACAAADxSwmAMwDIAABkCIAijSiAACCAAkIAAIiAEGCMgcNxYENQqCWSCl4BEMOYPK6PyPgAAAAAAAAABAAAYAADAAAAAAAAAAAA==

> <PUBCHEM_IUPAC_INCHI>
InChI=1S/C20H22O7/c1-10-4-16-20-9-26-18(24)19(10,7-14(22)11-2-3-25-8-11)15(20)6-12(21)5-13(20)17(23)27-16/h2-3,5,8,12,14-16,18,21-22,24H,1,4,6-7,9H2/t12-,14+,15-,16-,18+,19-,20+/m1/s1

> <PUBCHEM_IUPAC_INCHIKEY>
PNFZVLPHKKVBRI-NZMLQMEOSA-N

> <PUBCHEM_XLOGP3_AA>
0

> <PUBCHEM_EXACT_MASS>
374.136553

> <PUBCHEM_MOLECULAR_FORMULA>
C20H22O7

> <PUBCHEM_MOLECULAR_WEIGHT>
374.38448

> <PUBCHEM_OPENEYE_CAN_SMILES>
C=C1CC2C34COC(C1(C3CC(C=C4C(=O)O2)O)CC(C5=COC=C5)O)O

> <PUBCHEM_OPENEYE_ISO_SMILES>
C=C1C[C@@H]2[C@]34CO[C@@H]([C@]1([C@H]3C[C@@H](C=C4C(=O)O2)O)C[C@@H](C5=COC=C5)O)O

> <PUBCHEM_CACTVS_TPSA>
109

> <PUBCHEM_MONOISOTOPIC_WEIGHT>
374.136553

> <PUBCHEM_TOTAL_CHARGE>
0

> <PUBCHEM_HEAVY_ATOM_COUNT>
27

> <PUBCHEM_ATOM_DEF_STEREO_COUNT>
7

> <PUBCHEM_ATOM_UDEF_STEREO_COUNT>
0

> <PUBCHEM_BOND_DEF_STEREO_COUNT>
0

> <PUBCHEM_BOND_UDEF_STEREO_COUNT>
0

> <PUBCHEM_ISOTOPIC_ATOM_COUNT>
0

> <PUBCHEM_COMPONENT_COUNT>
1

> <PUBCHEM_CACTVS_TAUTO_COUNT>
1

> <PUBCHEM_COORDINATE_TYPE>
1
5
255

> <PUBCHEM_BONDANNOTATIONS>
10  18  5
11  29  5
24  25  8
24  26  8
25  27  8
17  3  6
19  4  6
22  6  5
7  26  8
7  27  8
8  13  5
9  28  6

$$$$

