46173890
  -OEChem-07051213103D

 47 48  0     1  0  0  0  0  0999 V2000
    3.4464    0.7145   -1.2809 O   0  0  0  0  0  0  0  0  0  0  0  0
    0.8516   -0.1915   -1.0715 O   0  0  0  0  0  0  0  0  0  0  0  0
    6.4068   -1.0550    1.0229 O   0  0  0  0  0  0  0  0  0  0  0  0
   -1.1263    1.6598    2.2093 O   0  0  0  0  0  0  0  0  0  0  0  0
   -3.2325   -0.7996   -1.6208 O   0  0  0  0  0  0  0  0  0  0  0  0
   -2.9181   -2.1261    0.9221 O   0  0  0  0  0  0  0  0  0  0  0  0
   -1.9337    2.5540   -1.1227 O   0  0  0  0  0  0  0  0  0  0  0  0
   -4.1610    2.6696   -0.7471 O   0  0  0  0  0  0  0  0  0  0  0  0
    4.5206   -1.1605   -0.3904 N   0  0  0  0  0  0  0  0  0  0  0  0
    1.3820    0.7711    2.4510 N   0  0  0  0  0  0  0  0  0  0  0  0
   -1.5817    0.3840    0.3288 N   0  0  0  0  0  0  0  0  0  0  0  0
   -6.3031   -2.1159   -0.5774 N   0  0  0  0  0  0  0  0  0  0  0  0
    4.4980   -0.2465   -1.5404 C   0  0  2  0  0  0  0  0  0  0  0  0
    2.8819    0.4495    0.0336 C   0  0  2  0  0  0  0  0  0  0  0  0
    3.3190   -0.9838    0.4020 C   0  0  0  0  0  0  0  0  0  0  0  0
    5.9559    0.1071   -1.2032 C   0  0  0  0  0  0  0  0  0  0  0  0
    1.3768    0.6171   -0.0187 C   0  0  2  0  0  0  0  0  0  0  0  0
    5.7748   -0.8103    0.0204 C   0  0  0  0  0  0  0  0  0  0  0  0
    0.6452    0.2718    1.2903 C   0  0  2  0  0  0  0  0  0  0  0  0
   -0.7651    0.8604    1.3472 C   0  0  0  0  0  0  0  0  0  0  0  0
   -2.9559    0.7896    0.1839 C   0  0  2  0  0  0  0  0  0  0  0  0
   -3.8400   -0.3207   -0.4192 C   0  0  2  0  0  0  0  0  0  0  0  0
   -4.1428   -1.5155    0.5119 C   0  0  1  0  0  0  0  0  0  0  0  0
   -5.0068   -2.6104   -0.1335 C   0  0  0  0  0  0  0  0  0  0  0  0
   -3.0920    2.0874   -0.5975 C   0  0  0  0  0  0  0  0  0  0  0  0
    4.3497   -0.7662   -2.4919 H   0  0  0  0  0  0  0  0  0  0  0  0
    3.3491    1.1733    0.7116 H   0  0  0  0  0  0  0  0  0  0  0  0
    3.5350   -1.0987    1.4671 H   0  0  0  0  0  0  0  0  0  0  0  0
    2.6050   -1.7454    0.0755 H   0  0  0  0  0  0  0  0  0  0  0  0
    6.7019   -0.2468   -1.9188 H   0  0  0  0  0  0  0  0  0  0  0  0
    6.1394    1.1538   -0.9485 H   0  0  0  0  0  0  0  0  0  0  0  0
    1.1535    1.6543   -0.3012 H   0  0  0  0  0  0  0  0  0  0  0  0
    0.5339   -0.8164    1.3839 H   0  0  0  0  0  0  0  0  0  0  0  0
    1.3160    0.0544   -1.8897 H   0  0  0  0  0  0  0  0  0  0  0  0
   -3.3338    1.0288    1.1868 H   0  0  0  0  0  0  0  0  0  0  0  0
    2.2743    0.2907    2.5422 H   0  0  0  0  0  0  0  0  0  0  0  0
    0.8670    0.5471    3.3024 H   0  0  0  0  0  0  0  0  0  0  0  0
   -1.1906   -0.2379   -0.3727 H   0  0  0  0  0  0  0  0  0  0  0  0
   -4.8006    0.1202   -0.7127 H   0  0  0  0  0  0  0  0  0  0  0  0
   -4.6370   -1.1400    1.4165 H   0  0  0  0  0  0  0  0  0  0  0  0
   -5.1588   -3.4237    0.5865 H   0  0  0  0  0  0  0  0  0  0  0  0
   -4.4769   -3.0596   -0.9816 H   0  0  0  0  0  0  0  0  0  0  0  0
   -3.1194   -0.0417   -2.2191 H   0  0  0  0  0  0  0  0  0  0  0  0
   -3.1372   -2.8263    1.5603 H   0  0  0  0  0  0  0  0  0  0  0  0
   -6.8607   -2.8935   -0.9281 H   0  0  0  0  0  0  0  0  0  0  0  0
   -6.8135   -1.7322    0.2169 H   0  0  0  0  0  0  0  0  0  0  0  0
   -2.0661    3.3899   -1.6186 H   0  0  0  0  0  0  0  0  0  0  0  0
  1 13  1  0  0  0  0
  1 14  1  0  0  0  0
  2 17  1  0  0  0  0
  2 34  1  0  0  0  0
  3 18  2  0  0  0  0
  4 20  2  0  0  0  0
  5 22  1  0  0  0  0
  5 43  1  0  0  0  0
  6 23  1  0  0  0  0
  6 44  1  0  0  0  0
  7 25  1  0  0  0  0
  7 47  1  0  0  0  0
  8 25  2  0  0  0  0
  9 13  1  0  0  0  0
  9 15  1  0  0  0  0
  9 18  1  0  0  0  0
 10 19  1  0  0  0  0
 10 36  1  0  0  0  0
 10 37  1  0  0  0  0
 11 20  1  0  0  0  0
 11 21  1  0  0  0  0
 11 38  1  0  0  0  0
 12 24  1  0  0  0  0
 12 45  1  0  0  0  0
 12 46  1  0  0  0  0
 13 16  1  0  0  0  0
 13 26  1  0  0  0  0
 14 15  1  0  0  0  0
 14 17  1  0  0  0  0
 14 27  1  0  0  0  0
 15 28  1  0  0  0  0
 15 29  1  0  0  0  0
 16 18  1  0  0  0  0
 16 30  1  0  0  0  0
 16 31  1  0  0  0  0
 17 19  1  0  0  0  0
 17 32  1  0  0  0  0
 19 20  1  0  0  0  0
 19 33  1  0  0  0  0
 21 22  1  0  0  0  0
 21 25  1  0  0  0  0
 21 35  1  0  0  0  0
 22 23  1  0  0  0  0
 22 39  1  0  0  0  0
 23 24  1  0  0  0  0
 23 40  1  0  0  0  0
 24 41  1  0  0  0  0
 24 42  1  0  0  0  0
M  END
> <PUBCHEM_COMPOUND_CID>
46173890

> <PUBCHEM_CONFORMER_RMSD>
1

> <PUBCHEM_CONFORMER_DIVERSEORDER>
1
47
77
110
43
133
219
127
196
292
312
96
297
105
306
229
180
31
187
265
222
102
111
243
149
276
314
207
36
201
74
244
50
152
21
329
254
288
119
78
322
137
310
29
23
108
303
220
259
85
305
93
138
233
99
54
64
239
228
79
275
307
206
203
320
32
212
60
200
62
91
193
95
284
145
55
213
256
235
83
217
328
300
197
215
309
248
20
168
269
164
326
80
209
125
218
141
210
89
223
18
286
323
26
75
116
120
126
224
174
315
317
163
198
167
132
11
291
90
156
298
143
72
238
199
10
271
191
150
169
179
41
117
100
58
296
246
142
325
175
63
267
147
27
114
131
13
221
49
53
7
184
135
290
321
139
318
68
262
202
274
270
289
316
165
241
61
94
22
173
45
162
327
226
39
282
104
155
208
3
301
205
71
227
176
134
293
113
283
260
232
281
88
247
183
211
177
56
92
59
84
106
87
46
151
251
257
112
82
294
123
37
97
272
52
76
189
35
261
154
234
236
16
230
14
166
285
311
277
6
65
103
101
250
304
73
51
170
158
130
194
237
231
181
12
245
70
69
249
109
264
122
308
124
98
255
161
129
240
287
17
188
171
273
128
121
44
146
19
324
186
313
252
66
253
9
319
115
280
192
214
107
25
160
266
182
157
295
86
48
30
8
172
140
15
148
204
299
118
144
57
195
81
302
263
242
178
278
24
33
40
2
67
4
185
268
159
28
153
42
190
279
136
216
38
225
258
5
34

> <PUBCHEM_MMFF94_PARTIAL_CHARGES>
34
1 -0.54
10 -0.99
11 -0.73
12 -0.99
13 0.48
14 0.28
15 0.3
16 0.05
17 0.28
18 0.58
19 0.33
2 -0.68
20 0.57
21 0.36
22 0.28
23 0.28
24 0.27
25 0.66
3 -0.57
34 0.4
36 0.36
37 0.36
38 0.37
4 -0.57
43 0.4
44 0.4
45 0.36
46 0.36
47 0.5
5 -0.68
6 -0.68
7 -0.65
8 -0.57
9 -0.59

> <PUBCHEM_EFFECTIVE_ROTOR_COUNT>
9.8

> <PUBCHEM_PHARMACOPHORE_FEATURES>
18
1 1 acceptor
1 10 cation
1 10 donor
1 11 donor
1 12 cation
1 12 donor
1 2 acceptor
1 2 donor
1 3 acceptor
1 4 acceptor
1 5 acceptor
1 5 donor
1 6 acceptor
1 6 donor
1 7 acceptor
1 8 acceptor
3 7 8 25 anion
7 1 9 13 14 15 16 18 rings

> <PUBCHEM_HEAVY_ATOM_COUNT>
25

> <PUBCHEM_ATOM_DEF_STEREO_COUNT>
5

> <PUBCHEM_ATOM_UDEF_STEREO_COUNT>
2

> <PUBCHEM_BOND_DEF_STEREO_COUNT>
0

> <PUBCHEM_BOND_UDEF_STEREO_COUNT>
0

> <PUBCHEM_ISOTOPIC_ATOM_COUNT>
0

> <PUBCHEM_COMPONENT_COUNT>
1

> <PUBCHEM_CACTVS_TAUTO_COUNT>
4

> <PUBCHEM_CONFORMER_ID>
02C08EC200000001

> <PUBCHEM_MMFF94_ENERGY>
60.2625

> <PUBCHEM_FEATURE_SELFOVERLAP>
91.418

> <PUBCHEM_SHAPE_FINGERPRINT>
10498660 4 14333125243570024876
10595046 47 18202279204409877884
11370993 144 6699818557384233332
11796584 16 18263364857745327722
11809386 21 18343025505859100083
12633257 1 16588301619194719639
12714826 92 18260268547101865785
12788726 201 18060426807148385563
13103583 49 6627466298535246802
13631057 29 18408604755547383642
13673619 4 18188205408466919883
14211702 104 18115581686348309238
14251740 79 18272646827248273643
14251751 18 18407762529940986194
14251764 30 18056466267560731075
14347332 77 18413674604016350151
15183329 4 16988848285140305250
15461852 350 18341608231961866790
15842332 3 17201942498973016041
1813 80 15791718694718820408
200 152 18272927254711444672
20300324 65 18060132163148265500
20871999 31 18343581849999481857
21033648 144 15625925505488128470
21521239 73 16988849345591039162
23402539 116 17988640835079009868
23559900 14 18341338777776048493
329604 57 18334008363744122670
3610482 184 17559086943680179268
4015057 19 17203314582131578692
437815 12 17821730508033474683
484985 159 17749381603433289747
5104073 3 16226600940178755314
5326457 24 18130229354209222874
633830 44 16558175125005309472
7495541 125 18187363199465774768
8863177 126 17897727553112794847
9862886 166 18409729521968046954

> <PUBCHEM_SHAPE_MULTIPOLES>
447.61
14.52
2.36
1.64
8.97
0.22
0.57
-8.41
-3.95
-4.77
-0.24
0.6
0.52
0.07

> <PUBCHEM_SHAPE_SELFOVERLAP>
917.806

> <PUBCHEM_SHAPE_VOLUME>
255.4

> <PUBCHEM_COORDINATE_TYPE>
2
5
10

$$$$

