13895593
  -OEChem-07051213102D

 40 39  0     1  0  0  0  0  0999 V2000
    2.5369   -2.7500    0.0000 O   0  0  0  0  0  0  0  0  0  0  0  0
   10.3312    1.7500    0.0000 C   0  0  0  0  0  0  0  0  0  0  0  0
   10.3312    0.7500    0.0000 C   0  0  0  0  0  0  0  0  0  0  0  0
   11.1972    2.2500    0.0000 C   0  0  0  0  0  0  0  0  0  0  0  0
    9.4651    0.2500    0.0000 C   0  0  0  0  0  0  0  0  0  0  0  0
   11.1972    3.2500    0.0000 C   0  0  0  0  0  0  0  0  0  0  0  0
    9.4651   -0.7500    0.0000 C   0  0  0  0  0  0  0  0  0  0  0  0
   12.0632    3.7500    0.0000 C   0  0  0  0  0  0  0  0  0  0  0  0
    8.5991   -1.2500    0.0000 C   0  0  0  0  0  0  0  0  0  0  0  0
    7.7331   -0.7500    0.0000 C   0  0  0  0  0  0  0  0  0  0  0  0
   12.0632    4.7500    0.0000 C   0  0  0  0  0  0  0  0  0  0  0  0
    6.8671   -1.2500    0.0000 C   0  0  0  0  0  0  0  0  0  0  0  0
    6.0010   -1.7500    0.0000 C   0  0  0  0  0  0  0  0  0  0  0  0
    3.4030   -3.2500    0.0000 C   0  0  2  0  0  0  0  0  0  0  0  0
    5.1350   -2.2500    0.0000 C   0  0  0  0  0  0  0  0  0  0  0  0
    3.4030   -4.2500    0.0000 C   0  0  0  0  0  0  0  0  0  0  0  0
    4.2690   -2.7500    0.0000 C   0  0  0  0  0  0  0  0  0  0  0  0
    2.5369   -4.7500    0.0000 C   0  0  0  0  0  0  0  0  0  0  0  0
   10.1191    2.3326    0.0000 H   0  0  0  0  0  0  0  0  0  0  0  0
    9.7206    1.6423    0.0000 H   0  0  0  0  0  0  0  0  0  0  0  0
   10.5432    0.1674    0.0000 H   0  0  0  0  0  0  0  0  0  0  0  0
   10.9417    0.8577    0.0000 H   0  0  0  0  0  0  0  0  0  0  0  0
   11.4092    1.6674    0.0000 H   0  0  0  0  0  0  0  0  0  0  0  0
   11.8078    2.3577    0.0000 H   0  0  0  0  0  0  0  0  0  0  0  0
    9.2531    0.8326    0.0000 H   0  0  0  0  0  0  0  0  0  0  0  0
    8.8546    0.1423    0.0000 H   0  0  0  0  0  0  0  0  0  0  0  0
   10.9851    3.8326    0.0000 H   0  0  0  0  0  0  0  0  0  0  0  0
   10.5866    3.1423    0.0000 H   0  0  0  0  0  0  0  0  0  0  0  0
   10.0021   -1.0600    0.0000 H   0  0  0  0  0  0  0  0  0  0  0  0
   12.6002    3.4400    0.0000 H   0  0  0  0  0  0  0  0  0  0  0  0
    8.5991   -1.8700    0.0000 H   0  0  0  0  0  0  0  0  0  0  0  0
    8.1316   -0.2751    0.0000 H   0  0  0  0  0  0  0  0  0  0  0  0
    7.3346   -0.2751    0.0000 H   0  0  0  0  0  0  0  0  0  0  0  0
   12.6002    5.0600    0.0000 H   0  0  0  0  0  0  0  0  0  0  0  0
   11.5263    5.0600    0.0000 H   0  0  0  0  0  0  0  0  0  0  0  0
    3.4030   -2.6300    0.0000 H   0  0  0  0  0  0  0  0  0  0  0  0
    3.9399   -4.5600    0.0000 H   0  0  0  0  0  0  0  0  0  0  0  0
    2.0000   -3.0600    0.0000 H   0  0  0  0  0  0  0  0  0  0  0  0
    2.0000   -4.4400    0.0000 H   0  0  0  0  0  0  0  0  0  0  0  0
    2.5369   -5.3700    0.0000 H   0  0  0  0  0  0  0  0  0  0  0  0
 14  1  1  1  0  0  0
  1 38  1  0  0  0  0
  2  3  1  0  0  0  0
  2  4  1  0  0  0  0
  2 19  1  0  0  0  0
  2 20  1  0  0  0  0
  3  5  1  0  0  0  0
  3 21  1  0  0  0  0
  3 22  1  0  0  0  0
  4  6  1  0  0  0  0
  4 23  1  0  0  0  0
  4 24  1  0  0  0  0
  5  7  1  0  0  0  0
  5 25  1  0  0  0  0
  5 26  1  0  0  0  0
  6  8  1  0  0  0  0
  6 27  1  0  0  0  0
  6 28  1  0  0  0  0
  7  9  2  0  0  0  0
  7 29  1  0  0  0  0
  8 11  2  0  0  0  0
  8 30  1  0  0  0  0
  9 10  1  0  0  0  0
  9 31  1  0  0  0  0
 10 12  1  0  0  0  0
 10 32  1  0  0  0  0
 10 33  1  0  0  0  0
 11 34  1  0  0  0  0
 11 35  1  0  0  0  0
 12 13  3  0  0  0  0
 13 15  1  0  0  0  0
 14 16  1  0  0  0  0
 14 17  1  0  0  0  0
 14 36  1  0  0  0  0
 15 17  3  0  0  0  0
 16 18  2  0  0  0  0
 16 37  1  0  0  0  0
 18 39  1  0  0  0  0
 18 40  1  0  0  0  0
M  END
> <PUBCHEM_COMPOUND_CID>
13895593

> <PUBCHEM_COMPOUND_CANONICALIZED>
1

> <PUBCHEM_CACTVS_COMPLEXITY>
388

> <PUBCHEM_CACTVS_HBOND_ACCEPTOR>
1

> <PUBCHEM_CACTVS_HBOND_DONOR>
1

> <PUBCHEM_CACTVS_ROTATABLE_BOND>
9

> <PUBCHEM_CACTVS_SUBSKEYS>
AAADceB4IAAAAAAAAAAAAAAAAAAAAAAAAAAAAAAAAAAAAAAAAAAAGgAACAAACBSggAIAAAAAAgDAECBCAAgAAAAgAAAICAAAAAgAFAIAAQAAAAAAgAAIEAMAgAAAAAAAAAAAAAAAAAAAAAAAAAAAAAAAAA==

> <PUBCHEM_IUPAC_OPENEYE_NAME>
(3R,9Z)-heptadeca-1,9,16-trien-4,6-diyn-3-ol

> <PUBCHEM_IUPAC_CAS_NAME>
(3R,9Z)-3-heptadeca-1,9,16-trien-4,6-diynol

> <PUBCHEM_IUPAC_NAME>
(3R,9Z)-heptadeca-1,9,16-trien-4,6-diyn-3-ol

> <PUBCHEM_IUPAC_SYSTEMATIC_NAME>
(3R,9Z)-heptadeca-1,9,16-trien-4,6-diyn-3-ol

> <PUBCHEM_IUPAC_TRADITIONAL_NAME>
(3R,9Z)-heptadeca-1,9,16-trien-4,6-diyn-3-ol

> <PUBCHEM_IUPAC_INCHI>
InChI=1S/C17H22O/c1-3-5-6-7-8-9-10-11-12-13-14-15-16-17(18)4-2/h3-4,10-11,17-18H,1-2,5-9,12H2/b11-10-/t17-/m1/s1

> <PUBCHEM_IUPAC_INCHIKEY>
JRLHSTVTOOELAF-QXPKXGMISA-N

> <PUBCHEM_XLOGP3_AA>
5

> <PUBCHEM_EXACT_MASS>
242.167065

> <PUBCHEM_MOLECULAR_FORMULA>
C17H22O

> <PUBCHEM_MOLECULAR_WEIGHT>
242.35598

> <PUBCHEM_OPENEYE_CAN_SMILES>
C=CCCCCCC=CCC#CC#CC(C=C)O

> <PUBCHEM_OPENEYE_ISO_SMILES>
C=CCCCCC/C=C\CC#CC#C[C@@H](C=C)O

> <PUBCHEM_CACTVS_TPSA>
20.2

> <PUBCHEM_MONOISOTOPIC_WEIGHT>
242.167065

> <PUBCHEM_TOTAL_CHARGE>
0

> <PUBCHEM_HEAVY_ATOM_COUNT>
18

> <PUBCHEM_ATOM_DEF_STEREO_COUNT>
1

> <PUBCHEM_ATOM_UDEF_STEREO_COUNT>
0

> <PUBCHEM_BOND_DEF_STEREO_COUNT>
1

> <PUBCHEM_BOND_UDEF_STEREO_COUNT>
0

> <PUBCHEM_ISOTOPIC_ATOM_COUNT>
0

> <PUBCHEM_COMPONENT_COUNT>
1

> <PUBCHEM_CACTVS_TAUTO_COUNT>
1

> <PUBCHEM_COORDINATE_TYPE>
1
5
255

> <PUBCHEM_BONDANNOTATIONS>
14  1  5

$$$$

