252291
  -OEChem-07051213073D

 51 54  0     1  0  0  0  0  0999 V2000
   -3.7341   -0.3655    1.8858 F   0  0  0  0  0  0  0  0  0  0  0  0
   -4.9462    1.9757    1.9082 F   0  0  0  0  0  0  0  0  0  0  0  0
   -4.7535    2.1440   -0.4113 F   0  0  0  0  0  0  0  0  0  0  0  0
   -4.2719    0.0029   -1.6099 O   0  0  0  0  0  0  0  0  0  0  0  0
    6.5667    0.3144    0.0601 O   0  0  0  0  0  0  0  0  0  0  0  0
   -1.9219   -0.1360   -0.8775 C   0  0  1  0  0  0  0  0  0  0  0  0
   -1.2377   -1.1087    0.1092 C   0  0  2  0  0  0  0  0  0  0  0  0
    0.2826   -1.1484   -0.0646 C   0  0  1  0  0  0  0  0  0  0  0  0
   -3.4228   -0.4026   -0.5412 C   0  0  2  0  0  0  0  0  0  0  0  0
    0.8588    0.2745    0.2036 C   0  0  2  0  0  0  0  0  0  0  0  0
   -1.3833    1.2788   -0.6022 C   0  0  0  0  0  0  0  0  0  0  0  0
   -2.0297   -2.4034   -0.0589 C   0  0  0  0  0  0  0  0  0  0  0  0
   -3.4671   -1.9469   -0.3832 C   0  0  0  0  0  0  0  0  0  0  0  0
    0.1551    1.3398   -0.6782 C   0  0  0  0  0  0  0  0  0  0  0  0
    0.9542   -2.1430    0.8854 C   0  0  0  0  0  0  0  0  0  0  0  0
   -1.6570   -0.4767   -2.3742 C   0  0  0  0  0  0  0  0  0  0  0  0
    2.3835    0.2779    0.1284 C   0  0  0  0  0  0  0  0  0  0  0  0
    2.4419   -2.2442    0.5624 C   0  0  0  0  0  0  0  0  0  0  0  0
   -3.9218    0.2722    0.7073 C   0  0  0  0  0  0  0  0  0  0  0  0
    3.1146   -0.9113    0.3421 C   0  0  0  0  0  0  0  0  0  0  0  0
    3.1001    1.4724   -0.0646 C   0  0  0  0  0  0  0  0  0  0  0  0
    4.5200   -0.8862    0.3041 C   0  0  0  0  0  0  0  0  0  0  0  0
   -4.5370    1.4582    0.7307 C   0  0  0  0  0  0  0  0  0  0  0  0
    4.4965    1.4847   -0.0908 C   0  0  0  0  0  0  0  0  0  0  0  0
    5.2067    0.3049    0.0886 C   0  0  0  0  0  0  0  0  0  0  0  0
    7.2036    1.5726   -0.1590 C   0  0  0  0  0  0  0  0  0  0  0  0
   -1.4210   -0.7639    1.1386 H   0  0  0  0  0  0  0  0  0  0  0  0
    0.5272   -1.4581   -1.0887 H   0  0  0  0  0  0  0  0  0  0  0  0
    0.6259    0.5356    1.2477 H   0  0  0  0  0  0  0  0  0  0  0  0
   -1.6658    1.6137    0.4026 H   0  0  0  0  0  0  0  0  0  0  0  0
   -1.8164    2.0010   -1.3047 H   0  0  0  0  0  0  0  0  0  0  0  0
   -2.0058   -3.0123    0.8507 H   0  0  0  0  0  0  0  0  0  0  0  0
   -1.6322   -3.0154   -0.8764 H   0  0  0  0  0  0  0  0  0  0  0  0
   -3.8097   -2.4324   -1.3054 H   0  0  0  0  0  0  0  0  0  0  0  0
   -4.1603   -2.2690    0.4029 H   0  0  0  0  0  0  0  0  0  0  0  0
    0.4867    1.2419   -1.7186 H   0  0  0  0  0  0  0  0  0  0  0  0
    0.4492    2.3472   -0.3612 H   0  0  0  0  0  0  0  0  0  0  0  0
    0.5061   -3.1392    0.8004 H   0  0  0  0  0  0  0  0  0  0  0  0
    0.8187   -1.8198    1.9256 H   0  0  0  0  0  0  0  0  0  0  0  0
   -2.1522    0.2516   -3.0273 H   0  0  0  0  0  0  0  0  0  0  0  0
   -0.5962   -0.4580   -2.6356 H   0  0  0  0  0  0  0  0  0  0  0  0
   -2.0317   -1.4664   -2.6530 H   0  0  0  0  0  0  0  0  0  0  0  0
    2.5692   -2.8396   -0.3508 H   0  0  0  0  0  0  0  0  0  0  0  0
    2.9410   -2.7820    1.3777 H   0  0  0  0  0  0  0  0  0  0  0  0
   -5.1522   -0.3835   -1.4610 H   0  0  0  0  0  0  0  0  0  0  0  0
    2.5868    2.4210   -0.1908 H   0  0  0  0  0  0  0  0  0  0  0  0
    5.0812   -1.8074    0.4470 H   0  0  0  0  0  0  0  0  0  0  0  0
    4.9619    2.4514   -0.2515 H   0  0  0  0  0  0  0  0  0  0  0  0
    6.9913    2.2773    0.6522 H   0  0  0  0  0  0  0  0  0  0  0  0
    6.9531    1.9844   -1.1425 H   0  0  0  0  0  0  0  0  0  0  0  0
    8.2838    1.3936   -0.1527 H   0  0  0  0  0  0  0  0  0  0  0  0
  1 19  1  0  0  0  0
  2 23  1  0  0  0  0
  3 23  1  0  0  0  0
  4  9  1  0  0  0  0
  4 45  1  0  0  0  0
  5 25  1  0  0  0  0
  5 26  1  0  0  0  0
  6  7  1  0  0  0  0
  6  9  1  0  0  0  0
  6 11  1  0  0  0  0
  6 16  1  0  0  0  0
  7  8  1  0  0  0  0
  7 12  1  0  0  0  0
  7 27  1  0  0  0  0
  8 10  1  0  0  0  0
  8 15  1  0  0  0  0
  8 28  1  0  0  0  0
  9 13  1  0  0  0  0
  9 19  1  0  0  0  0
 10 14  1  0  0  0  0
 10 17  1  0  0  0  0
 10 29  1  0  0  0  0
 11 14  1  0  0  0  0
 11 30  1  0  0  0  0
 11 31  1  0  0  0  0
 12 13  1  0  0  0  0
 12 32  1  0  0  0  0
 12 33  1  0  0  0  0
 13 34  1  0  0  0  0
 13 35  1  0  0  0  0
 14 36  1  0  0  0  0
 14 37  1  0  0  0  0
 15 18  1  0  0  0  0
 15 38  1  0  0  0  0
 15 39  1  0  0  0  0
 16 40  1  0  0  0  0
 16 41  1  0  0  0  0
 16 42  1  0  0  0  0
 17 20  2  0  0  0  0
 17 21  1  0  0  0  0
 18 20  1  0  0  0  0
 18 43  1  0  0  0  0
 18 44  1  0  0  0  0
 19 23  2  0  0  0  0
 20 22  1  0  0  0  0
 21 24  2  0  0  0  0
 21 46  1  0  0  0  0
 22 25  2  0  0  0  0
 22 47  1  0  0  0  0
 24 25  1  0  0  0  0
 24 48  1  0  0  0  0
 26 49  1  0  0  0  0
 26 50  1  0  0  0  0
 26 51  1  0  0  0  0
M  END
> <PUBCHEM_COMPOUND_CID>
252291

> <PUBCHEM_CONFORMER_RMSD>
0.8

> <PUBCHEM_CONFORMER_DIVERSEORDER>
1
3
2

> <PUBCHEM_MMFF94_PARTIAL_CHARGES>
21
1 -0.15
10 0.14
17 -0.14
18 0.14
19 0.01
2 -0.15
20 -0.14
21 -0.15
22 -0.15
23 0.3
24 -0.15
25 0.08
26 0.28
3 -0.15
4 -0.68
45 0.4
46 0.15
47 0.15
48 0.15
5 -0.36
9 0.42

> <PUBCHEM_EFFECTIVE_ROTOR_COUNT>
3.4

> <PUBCHEM_PHARMACOPHORE_FEATURES>
7
1 4 acceptor
1 4 donor
1 5 acceptor
5 6 7 9 12 13 rings
6 17 20 21 22 24 25 rings
6 6 7 8 10 11 14 rings
6 8 10 15 17 18 20 rings

> <PUBCHEM_HEAVY_ATOM_COUNT>
26

> <PUBCHEM_ATOM_DEF_STEREO_COUNT>
5

> <PUBCHEM_ATOM_UDEF_STEREO_COUNT>
0

> <PUBCHEM_BOND_DEF_STEREO_COUNT>
0

> <PUBCHEM_BOND_UDEF_STEREO_COUNT>
0

> <PUBCHEM_ISOTOPIC_ATOM_COUNT>
0

> <PUBCHEM_COMPONENT_COUNT>
1

> <PUBCHEM_CACTVS_TAUTO_COUNT>
1

> <PUBCHEM_CONFORMER_ID>
0003D98300000001

> <PUBCHEM_MMFF94_ENERGY>
92.4085

> <PUBCHEM_FEATURE_SELFOVERLAP>
35.614

> <PUBCHEM_SHAPE_FINGERPRINT>
10 15 17775284959001113448
10493431 412 18413385449464002099
105312 117 16226044509447346485
10906281 52 18270666594701805844
11089746 13 17822016410541673504
11135926 11 18342747338608671726
11315181 36 18335704888605670508
11370993 144 18201718517635462419
11578080 2 16700075948287192622
11796584 16 15719390634264076374
12107183 9 17903355145322378251
12236239 1 18113901584544350098
12403814 3 17346325894644654231
12633257 1 18270130118093815186
12788726 201 17459465722625909928
13140716 1 18127966421312337009
13224815 77 18131077030001881378
13583140 156 14851614275395476207
13631057 29 18265620870843289839
14341114 328 18411705387360020202
14765038 42 18410845581962091112
14790565 3 18342171121105621212
15081414 286 18343580763984835260
15163728 17 16516795048218088329
15183329 4 18342181068713829386
15196674 1 18341899580351212870
15209294 21 18407757053910333961
15484559 13 16179911527060814060
15788980 27 17346324777952916574
1601671 61 18408886239714960832
17093844 174 18334018263707277640
1813 80 16702012102163555583
19489759 90 15140959556205896493
19784866 170 18201998854208222321
200 152 18041000601285855166
21033648 29 17559978570501490476
21130935 74 18335989693074014730
21236236 1 18410575041745275335
21267235 1 18270116799252627983
21421861 104 17916032437545454538
21756936 100 18187363216529449971
23198884 109 17603585214258748678
23402539 116 18408609128488443508
23522609 53 18200007592155532980
23559900 14 18266187141233341600
32027 91 12461365121888853424
335352 9 18412830218131366270
34934 24 18411142467091483959
350125 39 18338797815300030979
3633792 109 18342472447821594543
3680242 22 18201166541866645906
497634 4 18339088098959312655
5104073 3 18343027657927606354
542803 24 18040436573295512612
633830 44 18335425630206481822
7226269 152 18040711485056443016

> <PUBCHEM_SHAPE_MULTIPOLES>
501.51
13.27
2.32
1.28
14.53
0.47
0.19
-6.66
-1.65
-0.76
-0.39
-1.95
-0.14
-1.16

> <PUBCHEM_SHAPE_SELFOVERLAP>
1091.12

> <PUBCHEM_SHAPE_VOLUME>
275.2

> <PUBCHEM_COORDINATE_TYPE>
2
5
10

$$$$

