56928098
  -OEChem-07051213103D

 40 42  0     1  0  0  0  0  0999 V2000
   -4.2324   -0.5380   -0.7538 Br  0  0  0  0  0  0  0  0  0  0  0  0
    3.2357    0.2304    2.1662 Cl  0  0  0  0  0  0  0  0  0  0  0  0
   -3.1199    1.8605    0.6921 O   0  0  0  0  0  0  0  0  0  0  0  0
    0.0532   -0.5514   -0.0065 C   0  0  1  0  0  0  0  0  0  0  0  0
   -1.4710   -0.9240    0.2758 C   0  0  0  0  0  0  0  0  0  0  0  0
    2.5522    0.2024   -0.5433 C   0  0  1  0  0  0  0  0  0  0  0  0
    1.0412   -1.0310    1.1093 C   0  0  0  0  0  0  0  0  0  0  0  0
    0.5868   -1.1860   -1.3424 C   0  0  0  0  0  0  0  0  0  0  0  0
    0.2817    0.9621   -0.1453 C   0  0  0  0  0  0  0  0  0  0  0  0
    2.5050   -0.6317    0.7713 C   0  0  2  0  0  0  0  0  0  0  0  0
    2.0193   -0.7160   -1.6683 C   0  0  0  0  0  0  0  0  0  0  0  0
   -2.3353   -0.0182   -0.6584 C   0  0  2  0  0  0  0  0  0  0  0  0
    1.5467    1.3312   -0.4234 C   0  0  0  0  0  0  0  0  0  0  0  0
   -0.8221    1.9520    0.0477 C   0  0  0  0  0  0  0  0  0  0  0  0
   -2.2273    1.4879   -0.3641 C   0  0  2  0  0  0  0  0  0  0  0  0
   -1.8446   -0.7108    1.7653 C   0  0  0  0  0  0  0  0  0  0  0  0
   -1.7204   -2.4265   -0.0191 C   0  0  0  0  0  0  0  0  0  0  0  0
    3.9513    0.7071   -0.9030 C   0  0  0  0  0  0  0  0  0  0  0  0
    0.7500   -0.6130    2.0800 H   0  0  0  0  0  0  0  0  0  0  0  0
    0.9920   -2.1214    1.2169 H   0  0  0  0  0  0  0  0  0  0  0  0
   -0.0605   -0.9396   -2.1914 H   0  0  0  0  0  0  0  0  0  0  0  0
    0.6007   -2.2802   -1.2699 H   0  0  0  0  0  0  0  0  0  0  0  0
    3.1044   -1.5422    0.6528 H   0  0  0  0  0  0  0  0  0  0  0  0
    2.6720   -1.5886   -1.7991 H   0  0  0  0  0  0  0  0  0  0  0  0
    2.0151   -0.1885   -2.6318 H   0  0  0  0  0  0  0  0  0  0  0  0
   -2.0142   -0.1781   -1.6940 H   0  0  0  0  0  0  0  0  0  0  0  0
    1.8411    2.3683   -0.5334 H   0  0  0  0  0  0  0  0  0  0  0  0
   -0.8208    2.2444    1.1065 H   0  0  0  0  0  0  0  0  0  0  0  0
   -0.5955    2.8748   -0.5031 H   0  0  0  0  0  0  0  0  0  0  0  0
   -2.5529    2.0434   -1.2527 H   0  0  0  0  0  0  0  0  0  0  0  0
   -1.5463    0.2711    2.1408 H   0  0  0  0  0  0  0  0  0  0  0  0
   -2.9221   -0.8141    1.9308 H   0  0  0  0  0  0  0  0  0  0  0  0
   -1.3627   -1.4598    2.4044 H   0  0  0  0  0  0  0  0  0  0  0  0
   -2.6950   -2.7594    0.3549 H   0  0  0  0  0  0  0  0  0  0  0  0
   -1.6949   -2.6408   -1.0928 H   0  0  0  0  0  0  0  0  0  0  0  0
   -0.9732   -3.0599    0.4704 H   0  0  0  0  0  0  0  0  0  0  0  0
    4.6698   -0.1195   -0.9346 H   0  0  0  0  0  0  0  0  0  0  0  0
    4.3200    1.4477   -0.1854 H   0  0  0  0  0  0  0  0  0  0  0  0
    3.9562    1.1881   -1.8883 H   0  0  0  0  0  0  0  0  0  0  0  0
   -3.0728    2.8273    0.7874 H   0  0  0  0  0  0  0  0  0  0  0  0
  1 12  1  0  0  0  0
  2 10  1  0  0  0  0
  3 15  1  0  0  0  0
  3 40  1  0  0  0  0
  4  5  1  0  0  0  0
  4  7  1  0  0  0  0
  4  8  1  0  0  0  0
  4  9  1  0  0  0  0
  5 12  1  0  0  0  0
  5 16  1  0  0  0  0
  5 17  1  0  0  0  0
  6 10  1  0  0  0  0
  6 11  1  0  0  0  0
  6 13  1  0  0  0  0
  6 18  1  0  0  0  0
  7 10  1  0  0  0  0
  7 19  1  0  0  0  0
  7 20  1  0  0  0  0
  8 11  1  0  0  0  0
  8 21  1  0  0  0  0
  8 22  1  0  0  0  0
  9 13  2  0  0  0  0
  9 14  1  0  0  0  0
 10 23  1  0  0  0  0
 11 24  1  0  0  0  0
 11 25  1  0  0  0  0
 12 15  1  0  0  0  0
 12 26  1  0  0  0  0
 13 27  1  0  0  0  0
 14 15  1  0  0  0  0
 14 28  1  0  0  0  0
 14 29  1  0  0  0  0
 15 30  1  0  0  0  0
 16 31  1  0  0  0  0
 16 32  1  0  0  0  0
 16 33  1  0  0  0  0
 17 34  1  0  0  0  0
 17 35  1  0  0  0  0
 17 36  1  0  0  0  0
 18 37  1  0  0  0  0
 18 38  1  0  0  0  0
 18 39  1  0  0  0  0
M  END
> <PUBCHEM_COMPOUND_CID>
56928098

> <PUBCHEM_CONFORMER_RMSD>
0.6

> <PUBCHEM_CONFORMER_DIVERSEORDER>
1
3
2

> <PUBCHEM_MMFF94_PARTIAL_CHARGES>
13
1 -0.23
10 0.29
12 0.23
13 -0.29
14 0.14
15 0.28
2 -0.29
27 0.15
3 -0.68
4 0.14
40 0.4
6 0.14
9 -0.28

> <PUBCHEM_EFFECTIVE_ROTOR_COUNT>
1.6

> <PUBCHEM_PHARMACOPHORE_FEATURES>
6
1 1 hydrophobe
1 3 acceptor
1 3 donor
3 5 16 17 hydrophobe
6 4 5 9 12 14 15 rings
8 4 6 7 8 9 10 11 13 rings

> <PUBCHEM_HEAVY_ATOM_COUNT>
18

> <PUBCHEM_ATOM_DEF_STEREO_COUNT>
5

> <PUBCHEM_ATOM_UDEF_STEREO_COUNT>
0

> <PUBCHEM_BOND_DEF_STEREO_COUNT>
0

> <PUBCHEM_BOND_UDEF_STEREO_COUNT>
0

> <PUBCHEM_ISOTOPIC_ATOM_COUNT>
0

> <PUBCHEM_COMPONENT_COUNT>
1

> <PUBCHEM_CACTVS_TAUTO_COUNT>
1

> <PUBCHEM_CONFORMER_ID>
0364A76200000001

> <PUBCHEM_MMFF94_ENERGY>
82.6261

> <PUBCHEM_FEATURE_SELFOVERLAP>
30.465

> <PUBCHEM_SHAPE_FINGERPRINT>
10863032 1 16487256547498461947
11132069 177 18335146427183269197
11640471 11 17417798522689612028
12423570 1 9395341527112987982
12491281 212 18343578568449366809
13140716 1 18122350081979808379
13538477 17 18131356280217070738
13571099 52 17968953009625431473
13581323 91 17846499244425573989
13764800 53 18269817839685205297
14115302 16 17489870423153085919
144361 1 18187639245255416815
14787075 74 16980662180294361408
15775835 57 17846494850505368317
15852999 172 18113908198746740695
16752209 62 18413110584557809567
16945 1 18411420591956643978
1813 80 13913417505428152924
18186145 218 18264768951162954501
18981168 100 17313100809332062504
19868273 325 18339351972806382157
20510252 161 18260544554448409657
20525323 117 18408038507216944821
20645476 183 17131543956006192615
21501502 16 18263640830393970919
22112679 90 18059586788612079744
22802520 49 17973698540460454358
2334 1 17762899866525228983
23402539 116 18335718121642515943
23419403 2 17099753634710448507
23493267 7 18340194246316529782
23557571 272 18113342985339993826
23559900 14 18336265738763221918
2748010 2 18194394722232717807
296302 2 17489309650642309518
3286 77 16660358182329583414
4340502 62 16487251067674073993
474 4 17130697272266401972
528886 8 18187917365984099134
74978 22 18343017761668704412
77492 1 17775852315253142818
81228 2 18336256916583865241

> <PUBCHEM_SHAPE_MULTIPOLES>
372.37
6.02
1.89
1.59
0.74
0.19
-0.43
0.55
0.2
1.14
-0.06
-1.04
-0.33
-0.26

> <PUBCHEM_SHAPE_SELFOVERLAP>
768.703

> <PUBCHEM_SHAPE_VOLUME>
223.6

> <PUBCHEM_COORDINATE_TYPE>
2
5
10

$$$$

