17396169
  -OEChem-06241222553D

 41 43  0     1  0  0  0  0  0999 V2000
   -7.5657   -0.6345    0.1753 Cl  0  0  0  0  0  0  0  0  0  0  0  0
   -0.1879    2.0215   -0.2951 S   0  0  0  0  0  0  0  0  0  0  0  0
    2.4802    2.5892   -0.3942 O   0  0  0  0  0  0  0  0  0  0  0  0
    3.5149    0.5342   -0.0440 N   0  0  0  0  0  0  0  0  0  0  0  0
   -2.8977    1.6775   -0.2298 N   0  0  0  0  0  0  0  0  0  0  0  0
   -1.7744   -0.2191    0.0885 N   0  0  0  0  0  0  0  0  0  0  0  0
   -3.7061   -1.6678    0.3398 N   0  0  0  0  0  0  0  0  0  0  0  0
    3.4437   -0.9428    0.0323 C   0  0  2  0  0  0  0  0  0  0  0  0
    4.4078   -1.4920    1.0952 C   0  0  0  0  0  0  0  0  0  0  0  0
    5.8208   -0.9321    0.9620 C   0  0  0  0  0  0  0  0  0  0  0  0
    5.7871    0.5914    0.9533 C   0  0  0  0  0  0  0  0  0  0  0  0
    4.8590    1.1171   -0.1347 C   0  0  0  0  0  0  0  0  0  0  0  0
    3.6792   -1.5716   -1.3440 C   0  0  0  0  0  0  0  0  0  0  0  0
    2.4061    1.3743   -0.1908 C   0  0  0  0  0  0  0  0  0  0  0  0
    3.4871   -3.0737   -1.3013 C   0  0  0  0  0  0  0  0  0  0  0  0
    1.0461    0.7311   -0.0787 C   0  0  0  0  0  0  0  0  0  0  0  0
   -1.6730    1.0737   -0.1310 C   0  0  0  0  0  0  0  0  0  0  0  0
   -3.8501    0.7096   -0.0629 C   0  0  0  0  0  0  0  0  0  0  0  0
   -3.1246   -0.4600    0.1333 C   0  0  0  0  0  0  0  0  0  0  0  0
   -5.2406    0.7225   -0.0612 C   0  0  0  0  0  0  0  0  0  0  0  0
   -5.8522   -0.5105    0.1496 C   0  0  0  0  0  0  0  0  0  0  0  0
   -5.0597   -1.6380    0.3384 C   0  0  0  0  0  0  0  0  0  0  0  0
    2.4384   -1.2312    0.3528 H   0  0  0  0  0  0  0  0  0  0  0  0
    4.0246   -1.1930    2.0811 H   0  0  0  0  0  0  0  0  0  0  0  0
    4.4343   -2.5850    1.1141 H   0  0  0  0  0  0  0  0  0  0  0  0
    6.4365   -1.2814    1.7985 H   0  0  0  0  0  0  0  0  0  0  0  0
    6.2902   -1.3027    0.0436 H   0  0  0  0  0  0  0  0  0  0  0  0
    6.7980    0.9857    0.8026 H   0  0  0  0  0  0  0  0  0  0  0  0
    5.4422    0.9508    1.9309 H   0  0  0  0  0  0  0  0  0  0  0  0
    5.2558    0.8765   -1.1276 H   0  0  0  0  0  0  0  0  0  0  0  0
    4.8084    2.2089   -0.0691 H   0  0  0  0  0  0  0  0  0  0  0  0
    2.9671   -1.1447   -2.0613 H   0  0  0  0  0  0  0  0  0  0  0  0
    4.6781   -1.3419   -1.7307 H   0  0  0  0  0  0  0  0  0  0  0  0
    4.3101   -3.5800   -0.7892 H   0  0  0  0  0  0  0  0  0  0  0  0
    3.4606   -3.4705   -2.3220 H   0  0  0  0  0  0  0  0  0  0  0  0
    2.5455   -3.3483   -0.8154 H   0  0  0  0  0  0  0  0  0  0  0  0
    0.9291   -0.0242   -0.8608 H   0  0  0  0  0  0  0  0  0  0  0  0
    0.9357    0.2817    0.9124 H   0  0  0  0  0  0  0  0  0  0  0  0
   -3.0649    2.6609   -0.3959 H   0  0  0  0  0  0  0  0  0  0  0  0
   -5.8027    1.6364   -0.2146 H   0  0  0  0  0  0  0  0  0  0  0  0
   -5.5167   -2.6109    0.5046 H   0  0  0  0  0  0  0  0  0  0  0  0
  1 21  1  0  0  0  0
  2 16  1  0  0  0  0
  2 17  1  0  0  0  0
  3 14  2  0  0  0  0
  4  8  1  0  0  0  0
  4 12  1  0  0  0  0
  4 14  1  0  0  0  0
  5 17  1  0  0  0  0
  5 18  1  0  0  0  0
  5 39  1  0  0  0  0
  6 17  2  0  0  0  0
  6 19  1  0  0  0  0
  7 19  1  0  0  0  0
  7 22  2  0  0  0  0
  8  9  1  0  0  0  0
  8 13  1  0  0  0  0
  8 23  1  0  0  0  0
  9 10  1  0  0  0  0
  9 24  1  0  0  0  0
  9 25  1  0  0  0  0
 10 11  1  0  0  0  0
 10 26  1  0  0  0  0
 10 27  1  0  0  0  0
 11 12  1  0  0  0  0
 11 28  1  0  0  0  0
 11 29  1  0  0  0  0
 12 30  1  0  0  0  0
 12 31  1  0  0  0  0
 13 15  1  0  0  0  0
 13 32  1  0  0  0  0
 13 33  1  0  0  0  0
 14 16  1  0  0  0  0
 15 34  1  0  0  0  0
 15 35  1  0  0  0  0
 15 36  1  0  0  0  0
 16 37  1  0  0  0  0
 16 38  1  0  0  0  0
 18 19  2  0  0  0  0
 18 20  1  0  0  0  0
 20 21  2  0  0  0  0
 20 40  1  0  0  0  0
 21 22  1  0  0  0  0
 22 41  1  0  0  0  0
M  END
> <PUBCHEM_COMPOUND_CID>
17396169

> <PUBCHEM_CONFORMER_RMSD>
1

> <PUBCHEM_CONFORMER_DIVERSEORDER>
1
96
106
103
170
10
191
159
57
67
137
24
39
66
186
161
138
32
115
82
79
31
196
171
177
65
134
50
105
153
140
9
93
74
76
33
192
157
108
77
178
128
164
59
20
195
34
102
11
149
71
119
8
84
23
158
70
47
181
145
141
135
156
2
49
129
36
64
126
43
48
42
111
37
104
180
123
132
87
60
69
167
25
116
45
92
190
21
80
90
89
147
183
13
55
120
127
182
38
78
124
148
86
88
113
151
68
5
152
193
54
136
81
91
173
27
130
18
85
83
110
197
194
131
53
73
118
30
44
112
3
109
100
62
72
163
12
26
56
40
63
176
172
144
107
7
185
168
22
99
165
61
101
19
28
51
188
98
174
122
169
16
15
41
114
29
175
162
143
121
160
142
14
97
146
17
184
139
133
150
154
6
52
94
58
117
35
155
187
95
125
166
179
46
75
189
4

> <PUBCHEM_MMFF94_PARTIAL_CHARGES>
20
1 -0.18
12 0.3
14 0.57
16 0.29
17 0.24
18 -0.15
19 0.48
2 -0.29
20 -0.15
21 0.18
22 0.16
3 -0.57
39 0.27
4 -0.66
40 0.15
41 0.15
5 0.03
6 -0.57
7 -0.57
8 0.3

> <PUBCHEM_EFFECTIVE_ROTOR_COUNT>
6.2

> <PUBCHEM_PHARMACOPHORE_FEATURES>
8
1 15 hydrophobe
1 3 acceptor
1 5 donor
1 7 acceptor
3 5 6 17 cation
5 5 6 17 18 19 rings
6 4 8 9 10 11 12 rings
6 7 18 19 20 21 22 rings

> <PUBCHEM_HEAVY_ATOM_COUNT>
22

> <PUBCHEM_ATOM_DEF_STEREO_COUNT>
0

> <PUBCHEM_ATOM_UDEF_STEREO_COUNT>
1

> <PUBCHEM_BOND_DEF_STEREO_COUNT>
0

> <PUBCHEM_BOND_UDEF_STEREO_COUNT>
0

> <PUBCHEM_ISOTOPIC_ATOM_COUNT>
0

> <PUBCHEM_COMPONENT_COUNT>
1

> <PUBCHEM_CACTVS_TAUTO_COUNT>
3

> <PUBCHEM_CONFORMER_ID>
010971C900000001

> <PUBCHEM_MMFF94_ENERGY>
35.0138

> <PUBCHEM_FEATURE_SELFOVERLAP>
40.723

> <PUBCHEM_SHAPE_FINGERPRINT>
10670039 82 11599737202383953326
12107183 9 17979353393255512585
12516196 113 18260550017456906065
12596602 18 15864356809041484550
13073987 5 17967529125130387153
13402501 40 18412544310210400714
13533116 47 17894909650475053083
13551218 46 18334290985857195639
13685833 64 18272088288526380161
13911882 115 18187643639730030358
14211702 104 18200584796999700299
14251740 57 18114174298320852142
14251751 18 18131636702752655876
14251764 18 18335700525346159201
15183329 4 18272087210447312881
15250474 111 18117003191135871599
15352361 1 18341896294284467568
15419008 42 18050862296863128677
15537594 2 17603305942621340910
15927050 60 17614284360800281996
16990366 60 18047187742622440358
17492 89 18190739928581579558
1768 124 18260267421868472631
17857418 61 18412265017166331337
1813 80 17703501172879980484
1979834 28 18040718082590101662
20374829 77 18273217503894942889
20397935 70 18186796997974138750
20403669 9 18341893008544704935
20645477 70 18412542111318773628
21197605 99 18265613187115070834
21267235 1 18342735221540305753
21279426 13 18340487893589448749
21315764 119 15841560703519839979
21623969 137 18334295370501839974
21781051 124 16558449913350950411
22224240 67 17968106287816042192
23424784 1240 18336820991713606198
23522609 53 18127097910412305709
23559900 14 18269843021469248065
239999 70 18409444809071071030
3004659 81 18272928328215794668
3680242 22 18271524307364499034
4073 2 17773592728489748673
4214541 1 18342177786773623141
4325135 7 18131912642334244988
465052 167 18412545410075034060
5104073 3 18041840752211818832
542803 24 6122503505820332544
559249 180 18272093820755604009
9709674 26 18342167839196465747

> <PUBCHEM_SHAPE_MULTIPOLES>
432.68
17.96
2.5
0.94
14.31
0.52
-0.06
6.17
3.43
-2.09
-0.7
-1.27
0.44
0.82

> <PUBCHEM_SHAPE_SELFOVERLAP>
891.471

> <PUBCHEM_SHAPE_VOLUME>
252.1

> <PUBCHEM_COORDINATE_TYPE>
2
5
10

$$$$

