193516
  -OEChem-07051212492D

 35 35  0     1  0  0  0  0  0999 V2000
    5.1350   -1.9400    0.0000 O   0  0  0  0  0  0  0  0  0  0  0  0
    3.4030    0.0600    0.0000 O   0  0  0  0  0  0  0  0  0  0  0  0
    2.5369   -1.4400    0.0000 O   0  0  0  0  0  0  0  0  0  0  0  0
    2.5369   -3.4400    0.0000 O   0  0  0  0  0  0  0  0  0  0  0  0
    6.8671    4.0600    0.0000 O   0  0  0  0  0  0  0  0  0  0  0  0
    8.5991    1.0600    0.0000 O   0  0  0  0  0  0  0  0  0  0  0  0
    5.1350    1.0600    0.0000 N   0  0  0  0  0  0  0  0  0  0  0  0
    6.8671    1.0600    0.0000 N   0  0  0  0  0  0  0  0  0  0  0  0
    7.7331    2.5600    0.0000 N   0  0  0  0  0  0  0  0  0  0  0  0
    5.1350    3.0600    0.0000 N   0  0  0  0  0  0  0  0  0  0  0  0
    4.2690   -1.4400    0.0000 C   0  0  1  0  0  0  0  0  0  0  0  0
    4.2690   -0.4400    0.0000 C   0  0  2  0  0  0  0  0  0  0  0  0
    3.4030   -1.9400    0.0000 C   0  0  1  0  0  0  0  0  0  0  0  0
    5.1350    0.0600    0.0000 C   0  0  0  0  0  0  0  0  0  0  0  0
    3.4030   -2.9400    0.0000 C   0  0  0  0  0  0  0  0  0  0  0  0
    6.0010    1.5600    0.0000 C   0  0  0  0  0  0  0  0  0  0  0  0
    6.0010    2.5600    0.0000 C   0  0  0  0  0  0  0  0  0  0  0  0
    6.8671    3.0600    0.0000 C   0  0  0  0  0  0  0  0  0  0  0  0
    7.7331    1.5600    0.0000 C   0  0  0  0  0  0  0  0  0  0  0  0
    4.2690   -2.0600    0.0000 H   0  0  0  0  0  0  0  0  0  0  0  0
    4.2690    0.1800    0.0000 H   0  0  0  0  0  0  0  0  0  0  0  0
    3.4030   -1.3200    0.0000 H   0  0  0  0  0  0  0  0  0  0  0  0
    5.3471   -0.5226    0.0000 H   0  0  0  0  0  0  0  0  0  0  0  0
    5.7456    0.1677    0.0000 H   0  0  0  0  0  0  0  0  0  0  0  0
    3.6150   -3.5226    0.0000 H   0  0  0  0  0  0  0  0  0  0  0  0
    4.0135   -2.8323    0.0000 H   0  0  0  0  0  0  0  0  0  0  0  0
    4.5981    1.3700    0.0000 H   0  0  0  0  0  0  0  0  0  0  0  0
    5.1350   -2.5600    0.0000 H   0  0  0  0  0  0  0  0  0  0  0  0
    2.8660   -0.2500    0.0000 H   0  0  0  0  0  0  0  0  0  0  0  0
    2.0000   -1.7500    0.0000 H   0  0  0  0  0  0  0  0  0  0  0  0
    6.8671    0.4400    0.0000 H   0  0  0  0  0  0  0  0  0  0  0  0
    2.5369   -4.0600    0.0000 H   0  0  0  0  0  0  0  0  0  0  0  0
    8.2700    2.8700    0.0000 H   0  0  0  0  0  0  0  0  0  0  0  0
    5.1350    3.6800    0.0000 H   0  0  0  0  0  0  0  0  0  0  0  0
    4.5981    2.7500    0.0000 H   0  0  0  0  0  0  0  0  0  0  0  0
 11  1  1  6  0  0  0
  1 28  1  0  0  0  0
 12  2  1  1  0  0  0
  2 29  1  0  0  0  0
 13  3  1  1  0  0  0
  3 30  1  0  0  0  0
  4 15  1  0  0  0  0
  4 32  1  0  0  0  0
  5 18  2  0  0  0  0
  6 19  2  0  0  0  0
  7 14  1  0  0  0  0
  7 16  1  0  0  0  0
  7 27  1  0  0  0  0
  8 16  1  0  0  0  0
  8 19  1  0  0  0  0
  8 31  1  0  0  0  0
  9 18  1  0  0  0  0
  9 19  1  0  0  0  0
  9 33  1  0  0  0  0
 10 17  1  0  0  0  0
 10 34  1  0  0  0  0
 10 35  1  0  0  0  0
 11 12  1  0  0  0  0
 11 13  1  0  0  0  0
 11 20  1  0  0  0  0
 12 14  1  0  0  0  0
 12 21  1  0  0  0  0
 13 15  1  0  0  0  0
 13 22  1  0  0  0  0
 14 23  1  0  0  0  0
 14 24  1  0  0  0  0
 15 25  1  0  0  0  0
 15 26  1  0  0  0  0
 16 17  2  0  0  0  0
 17 18  1  0  0  0  0
M  END
> <PUBCHEM_COMPOUND_CID>
193516

> <PUBCHEM_COMPOUND_CANONICALIZED>
1

> <PUBCHEM_CACTVS_COMPLEXITY>
398

> <PUBCHEM_CACTVS_HBOND_ACCEPTOR>
8

> <PUBCHEM_CACTVS_HBOND_DONOR>
8

> <PUBCHEM_CACTVS_ROTATABLE_BOND>
6

> <PUBCHEM_CACTVS_SUBSKEYS>
AAADceBzuAAAAAAAAAAAAAAAAAAAAAAAAAAgAAAAAAAAAAAAAAAAHgAQCAAACBzhgAYBAALAAgCIAAVQUACAAAAAAAAAAICIAECDUAIAgAAUQAAPFSIRAEDwEAIAAAAAAAAAAAAAAAAAAAAAAAAAAAAAAA==

> <PUBCHEM_IUPAC_OPENEYE_NAME>
5-amino-6-[[(2S,3S,4R)-2,3,4,5-tetrahydroxypentyl]amino]-1H-pyrimidine-2,4-dione

> <PUBCHEM_IUPAC_CAS_NAME>
5-amino-6-[[(2S,3S,4R)-2,3,4,5-tetrahydroxypentyl]amino]-1H-pyrimidine-2,4-dione

> <PUBCHEM_IUPAC_NAME>
5-amino-6-[[(2S,3S,4R)-2,3,4,5-tetrahydroxypentyl]amino]-1H-pyrimidine-2,4-dione

> <PUBCHEM_IUPAC_SYSTEMATIC_NAME>
5-azanyl-6-[[(2S,3S,4R)-2,3,4,5-tetrakis(oxidanyl)pentyl]amino]-1H-pyrimidine-2,4-dione

> <PUBCHEM_IUPAC_TRADITIONAL_NAME>
5-amino-6-[[(2S,3S,4R)-2,3,4,5-tetrahydroxypentyl]amino]uracil

> <PUBCHEM_IUPAC_INCHI>
InChI=1S/C9H16N4O6/c10-5-7(12-9(19)13-8(5)18)11-1-3(15)6(17)4(16)2-14/h3-4,6,14-17H,1-2,10H2,(H3,11,12,13,18,19)/t3-,4+,6-/m0/s1

> <PUBCHEM_IUPAC_INCHIKEY>
XKQZIXVJVUPORE-RPDRRWSUSA-N

> <PUBCHEM_XLOGP3_AA>
-3.2

> <PUBCHEM_EXACT_MASS>
276.106984

> <PUBCHEM_MOLECULAR_FORMULA>
C9H16N4O6

> <PUBCHEM_MOLECULAR_WEIGHT>
276.24654

> <PUBCHEM_OPENEYE_CAN_SMILES>
C(C(C(C(CO)O)O)O)NC1=C(C(=O)NC(=O)N1)N

> <PUBCHEM_OPENEYE_ISO_SMILES>
C([C@@H]([C@@H]([C@@H](CO)O)O)O)NC1=C(C(=O)NC(=O)N1)N

> <PUBCHEM_CACTVS_TPSA>
177

> <PUBCHEM_MONOISOTOPIC_WEIGHT>
276.106984

> <PUBCHEM_TOTAL_CHARGE>
0

> <PUBCHEM_HEAVY_ATOM_COUNT>
19

> <PUBCHEM_ATOM_DEF_STEREO_COUNT>
3

> <PUBCHEM_ATOM_UDEF_STEREO_COUNT>
0

> <PUBCHEM_BOND_DEF_STEREO_COUNT>
0

> <PUBCHEM_BOND_UDEF_STEREO_COUNT>
0

> <PUBCHEM_ISOTOPIC_ATOM_COUNT>
0

> <PUBCHEM_COMPONENT_COUNT>
1

> <PUBCHEM_CACTVS_TAUTO_COUNT>
27

> <PUBCHEM_COORDINATE_TYPE>
1
5
255

> <PUBCHEM_BONDANNOTATIONS>
11  1  6
16  17  8
17  18  8
12  2  5
13  3  5
8  16  8
8  19  8
9  18  8
9  19  8

$$$$

