5282251
  -OEChem-07051213042D

 38 39  0     0  0  0  0  0  0999 V2000
    4.5981   -1.2500    0.0000 S   0  0  0  0  0  0  0  0  0  0  0  0
    8.9282    1.2500    0.0000 S   0  0  0  0  0  0  0  0  0  0  0  0
    8.9282    2.2500    0.0000 O   0  0  0  0  0  0  0  0  0  0  0  0
    4.5981   -2.2500    0.0000 O   0  0  0  0  0  0  0  0  0  0  0  0
    3.5981   -1.2500    0.0000 O   0  0  0  0  0  0  0  0  0  0  0  0
    5.5981   -1.2500    0.0000 O   0  0  0  0  0  0  0  0  0  0  0  0
    9.9282    1.2500    0.0000 O   0  0  0  0  0  0  0  0  0  0  0  0
    7.9282    1.2500    0.0000 O   0  0  0  0  0  0  0  0  0  0  0  0
    2.8660    2.7500    0.0000 O   0  5  0  0  0  0  0  0  0  0  0  0
   10.6603   -2.7500    0.0000 O   0  5  0  0  0  0  0  0  0  0  0  0
    2.0000    1.2500    0.0000 O   0  0  0  0  0  0  0  0  0  0  0  0
   11.5263   -1.2500    0.0000 O   0  0  0  0  0  0  0  0  0  0  0  0
    2.8660    1.7500    0.0000 N   0  3  0  0  0  0  0  0  0  0  0  0
   10.6603   -1.7500    0.0000 N   0  3  0  0  0  0  0  0  0  0  0  0
    8.0622   -0.2500    0.0000 C   0  0  0  0  0  0  0  0  0  0  0  0
    5.4641    0.2500    0.0000 C   0  0  0  0  0  0  0  0  0  0  0  0
    8.9282    0.2500    0.0000 C   0  0  0  0  0  0  0  0  0  0  0  0
    4.5981   -0.2500    0.0000 C   0  0  0  0  0  0  0  0  0  0  0  0
    6.3301   -0.2500    0.0000 C   0  0  0  0  0  0  0  0  0  0  0  0
    7.1962    0.2500    0.0000 C   0  0  0  0  0  0  0  0  0  0  0  0
    3.7320    0.2500    0.0000 C   0  0  0  0  0  0  0  0  0  0  0  0
    9.7942   -0.2500    0.0000 C   0  0  0  0  0  0  0  0  0  0  0  0
    5.4641    1.2500    0.0000 C   0  0  0  0  0  0  0  0  0  0  0  0
    8.0622   -1.2500    0.0000 C   0  0  0  0  0  0  0  0  0  0  0  0
    9.7942   -1.2500    0.0000 C   0  0  0  0  0  0  0  0  0  0  0  0
    3.7320    1.2500    0.0000 C   0  0  0  0  0  0  0  0  0  0  0  0
    4.5981    1.7500    0.0000 C   0  0  0  0  0  0  0  0  0  0  0  0
    8.9282   -1.7500    0.0000 C   0  0  0  0  0  0  0  0  0  0  0  0
    6.3301   -0.8700    0.0000 H   0  0  0  0  0  0  0  0  0  0  0  0
    7.1962    0.8700    0.0000 H   0  0  0  0  0  0  0  0  0  0  0  0
    3.1951   -0.0600    0.0000 H   0  0  0  0  0  0  0  0  0  0  0  0
   10.3312    0.0600    0.0000 H   0  0  0  0  0  0  0  0  0  0  0  0
    6.0010    1.5600    0.0000 H   0  0  0  0  0  0  0  0  0  0  0  0
    7.5252   -1.5600    0.0000 H   0  0  0  0  0  0  0  0  0  0  0  0
    4.5981    2.3700    0.0000 H   0  0  0  0  0  0  0  0  0  0  0  0
    8.9282   -2.3700    0.0000 H   0  0  0  0  0  0  0  0  0  0  0  0
    9.4651    2.5600    0.0000 H   0  0  0  0  0  0  0  0  0  0  0  0
    4.0611   -2.5600    0.0000 H   0  0  0  0  0  0  0  0  0  0  0  0
  1  4  1  0  0  0  0
  1  5  2  0  0  0  0
  1  6  2  0  0  0  0
  1 18  1  0  0  0  0
  2  3  1  0  0  0  0
  2  7  2  0  0  0  0
  2  8  2  0  0  0  0
  2 17  1  0  0  0  0
  3 37  1  0  0  0  0
  4 38  1  0  0  0  0
  9 13  1  0  0  0  0
 10 14  1  0  0  0  0
 11 13  2  0  0  0  0
 12 14  2  0  0  0  0
 13 26  1  0  0  0  0
 14 25  1  0  0  0  0
 15 17  2  0  0  0  0
 15 20  1  0  0  0  0
 15 24  1  0  0  0  0
 16 18  2  0  0  0  0
 16 19  1  0  0  0  0
 16 23  1  0  0  0  0
 17 22  1  0  0  0  0
 18 21  1  0  0  0  0
 19 20  2  0  0  0  0
 19 29  1  0  0  0  0
 20 30  1  0  0  0  0
 21 26  2  0  0  0  0
 21 31  1  0  0  0  0
 22 25  2  0  0  0  0
 22 32  1  0  0  0  0
 23 27  2  0  0  0  0
 23 33  1  0  0  0  0
 24 28  2  0  0  0  0
 24 34  1  0  0  0  0
 25 28  1  0  0  0  0
 26 27  1  0  0  0  0
 27 35  1  0  0  0  0
 28 36  1  0  0  0  0
M  CHG  4   9  -1  10  -1  13   1  14   1
M  END
> <PUBCHEM_COMPOUND_CID>
5282251

> <PUBCHEM_COMPOUND_CANONICALIZED>
1

> <PUBCHEM_CACTVS_COMPLEXITY>
761

> <PUBCHEM_CACTVS_HBOND_ACCEPTOR>
10

> <PUBCHEM_CACTVS_HBOND_DONOR>
2

> <PUBCHEM_CACTVS_ROTATABLE_BOND>
4

> <PUBCHEM_CACTVS_SUBSKEYS>
AAADccBzPABgAAAAAAAAAAAAAAAAAAAAAAAwYAAAAAAAAAABQAAAHAQECAAADAiBWAAwwYAQQIKBAiRCQ3DCAEAgAgAoiBgAZIoIICKAkZGAIARggAAIyAcQgAAOCAAAACAEAAAQAAAAQAgAAAAAAAAAAA==

> <PUBCHEM_IUPAC_OPENEYE_NAME>
5-nitro-2-[(E)-2-(4-nitro-2-sulfo-phenyl)vinyl]benzenesulfonic acid

> <PUBCHEM_IUPAC_CAS_NAME>
5-nitro-2-[(E)-2-(4-nitro-2-sulfophenyl)ethenyl]benzenesulfonic acid

> <PUBCHEM_IUPAC_NAME>
5-nitro-2-[(E)-2-(4-nitro-2-sulfophenyl)ethenyl]benzenesulfonic acid

> <PUBCHEM_IUPAC_SYSTEMATIC_NAME>
5-nitro-2-[(E)-2-(4-nitro-2-sulfo-phenyl)ethenyl]benzenesulfonic acid

> <PUBCHEM_IUPAC_TRADITIONAL_NAME>
5-nitro-2-[(E)-2-(4-nitro-2-sulfo-phenyl)vinyl]besylic acid

> <PUBCHEM_IUPAC_INCHI>
InChI=1S/C14H10N2O10S2/c17-15(18)11-5-3-9(13(7-11)27(21,22)23)1-2-10-4-6-12(16(19)20)8-14(10)28(24,25)26/h1-8H,(H,21,22,23)(H,24,25,26)/b2-1+

> <PUBCHEM_IUPAC_INCHIKEY>
UETHPMGVZHBAFB-OWOJBTEDSA-N

> <PUBCHEM_XLOGP3_AA>
1.3

> <PUBCHEM_EXACT_MASS>
429.977687

> <PUBCHEM_MOLECULAR_FORMULA>
C14H10N2O10S2

> <PUBCHEM_MOLECULAR_WEIGHT>
430.3666

> <PUBCHEM_OPENEYE_CAN_SMILES>
C1=CC(=C(C=C1[N+](=O)[O-])S(=O)(=O)O)C=CC2=C(C=C(C=C2)[N+](=O)[O-])S(=O)(=O)O

> <PUBCHEM_OPENEYE_ISO_SMILES>
C1=CC(=C(C=C1[N+](=O)[O-])S(=O)(=O)O)/C=C/C2=C(C=C(C=C2)[N+](=O)[O-])S(=O)(=O)O

> <PUBCHEM_CACTVS_TPSA>
217

> <PUBCHEM_MONOISOTOPIC_WEIGHT>
429.977687

> <PUBCHEM_TOTAL_CHARGE>
0

> <PUBCHEM_HEAVY_ATOM_COUNT>
28

> <PUBCHEM_ATOM_DEF_STEREO_COUNT>
0

> <PUBCHEM_ATOM_UDEF_STEREO_COUNT>
0

> <PUBCHEM_BOND_DEF_STEREO_COUNT>
1

> <PUBCHEM_BOND_UDEF_STEREO_COUNT>
0

> <PUBCHEM_ISOTOPIC_ATOM_COUNT>
0

> <PUBCHEM_COMPONENT_COUNT>
1

> <PUBCHEM_CACTVS_TAUTO_COUNT>
1

> <PUBCHEM_COORDINATE_TYPE>
1
5
255

> <PUBCHEM_BONDANNOTATIONS>
15  17  8
15  24  8
16  18  8
16  23  8
17  22  8
18  21  8
21  26  8
22  25  8
23  27  8
24  28  8
25  28  8
26  27  8

$$$$

