47205063
  -OEChem-06241222583D

 23 24  0     0  0  0  0  0  0999 V2000
    4.5744   -2.2767   -0.1267 Br  0  0  0  0  0  0  0  0  0  0  0  0
    2.2268   -0.6086   -0.3275 O   0  0  0  0  0  0  0  0  0  0  0  0
    0.0162    2.1456   -0.0087 O   0  0  0  0  0  0  0  0  0  0  0  0
   -0.3101    0.0939   -1.0387 N   0  0  0  0  0  0  0  0  0  0  0  0
   -3.0152   -1.3237   -0.2066 N   0  0  0  0  0  0  0  0  0  0  0  0
   -3.9480   -1.4651    0.7506 N   0  0  0  0  0  0  0  0  0  0  0  0
   -1.6576    0.3481   -1.4957 C   0  0  0  0  0  0  0  0  0  0  0  0
   -2.6811   -0.0264   -0.4632 C   0  0  0  0  0  0  0  0  0  0  0  0
    0.4783    1.0120   -0.3072 C   0  0  0  0  0  0  0  0  0  0  0  0
    1.7991    0.6237    0.0531 C   0  0  0  0  0  0  0  0  0  0  0  0
   -3.4490    0.7338    0.3848 C   0  0  0  0  0  0  0  0  0  0  0  0
    2.7852    1.2841    0.7488 C   0  0  0  0  0  0  0  0  0  0  0  0
   -4.2090   -0.2049    1.1080 C   0  0  0  0  0  0  0  0  0  0  0  0
    3.8898    0.4007    0.7988 C   0  0  0  0  0  0  0  0  0  0  0  0
    3.5000   -0.7365    0.1303 C   0  0  0  0  0  0  0  0  0  0  0  0
   -1.8115   -0.2347   -2.4101 H   0  0  0  0  0  0  0  0  0  0  0  0
   -1.7534    1.4093   -1.7502 H   0  0  0  0  0  0  0  0  0  0  0  0
    0.0919   -0.8139   -1.2553 H   0  0  0  0  0  0  0  0  0  0  0  0
   -3.4575    1.8106    0.4690 H   0  0  0  0  0  0  0  0  0  0  0  0
   -2.6476   -2.1596   -0.6439 H   0  0  0  0  0  0  0  0  0  0  0  0
    2.7216    2.2777    1.1695 H   0  0  0  0  0  0  0  0  0  0  0  0
   -4.9420   -0.0229    1.8808 H   0  0  0  0  0  0  0  0  0  0  0  0
    4.8477    0.5797    1.2668 H   0  0  0  0  0  0  0  0  0  0  0  0
  1 15  1  0  0  0  0
  2 10  1  0  0  0  0
  2 15  1  0  0  0  0
  3  9  2  0  0  0  0
  4  7  1  0  0  0  0
  4  9  1  0  0  0  0
  4 18  1  0  0  0  0
  5  6  1  0  0  0  0
  5  8  1  0  0  0  0
  5 20  1  0  0  0  0
  6 13  2  0  0  0  0
  7  8  1  0  0  0  0
  7 16  1  0  0  0  0
  7 17  1  0  0  0  0
  8 11  2  0  0  0  0
  9 10  1  0  0  0  0
 10 12  2  0  0  0  0
 11 13  1  0  0  0  0
 11 19  1  0  0  0  0
 12 14  1  0  0  0  0
 12 21  1  0  0  0  0
 13 22  1  0  0  0  0
 14 15  2  0  0  0  0
 14 23  1  0  0  0  0
M  END
> <PUBCHEM_COMPOUND_CID>
47205063

> <PUBCHEM_CONFORMER_RMSD>
0.6

> <PUBCHEM_CONFORMER_DIVERSEORDER>
1
56
66
50
37
46
30
3
21
63
58
65
9
42
51
69
59
52
12
14
16
68
55
60
23
8
15
13
57
61
53
67
47
34
10
62
38
49
26
40
4
35
33
20
39
19
28
11
24
36
54
64
25
27
43
45
32
18
22
29
6
44
48
41
2
5
7
17
31

> <PUBCHEM_MMFF94_PARTIAL_CHARGES>
21
1 -0.06
10 0.05
11 -0.15
12 -0.15
13 0.14
14 -0.15
15 0.2
18 0.37
19 0.15
2 -0.28
20 0.27
21 0.15
22 0.15
23 0.15
3 -0.57
4 -0.73
5 0.3
6 -0.71
7 0.48
8 -0.33
9 0.71

> <PUBCHEM_EFFECTIVE_ROTOR_COUNT>
4

> <PUBCHEM_PHARMACOPHORE_FEATURES>
8
1 1 hydrophobe
1 2 acceptor
1 3 acceptor
1 4 donor
1 5 donor
1 6 acceptor
5 2 10 12 14 15 rings
5 5 6 8 11 13 rings

> <PUBCHEM_HEAVY_ATOM_COUNT>
15

> <PUBCHEM_ATOM_DEF_STEREO_COUNT>
0

> <PUBCHEM_ATOM_UDEF_STEREO_COUNT>
0

> <PUBCHEM_BOND_DEF_STEREO_COUNT>
0

> <PUBCHEM_BOND_UDEF_STEREO_COUNT>
0

> <PUBCHEM_ISOTOPIC_ATOM_COUNT>
0

> <PUBCHEM_COMPONENT_COUNT>
1

> <PUBCHEM_CACTVS_TAUTO_COUNT>
4

> <PUBCHEM_CONFORMER_ID>
02D04AC700000001

> <PUBCHEM_MMFF94_ENERGY>
7.2786

> <PUBCHEM_FEATURE_SELFOVERLAP>
40.595

> <PUBCHEM_SHAPE_FINGERPRINT>
10799339 124 18113337522310502201
11128504 68 15482375530803227390
11543360 7 11383830454791510241
11552529 35 17823704053337097487
12006461 19 18130221562932254107
12032990 46 18342459265933959708
12251169 10 18261389984574604805
124424 183 18409172129934259469
12670546 177 12103555381607851538
12892183 10 18114462258323340825
13103583 49 18115293583534908275
13296908 3 18341902899944065020
13533116 47 18261679151943614247
13675066 3 18260834808074353576
14123255 352 8141784094254483690
14251710 61 18343300405198545714
14252887 29 18412548691382686056
15239191 94 17703795820500041539
15527383 91 18187363263868905730
1813 80 17561358487173433940
18915474 69 14764627490837167409
193927 3 17417517022312551099
19782 4 6771860758058762634
20281407 28 17632303371360126869
20281475 54 18342174440597993222
20432913 95 18412265016881663875
20645477 70 18263667171755497334
20671657 53 15626226788526954157
20871999 31 10951763037690260761
21065199 12 18334859394159999825
212916 134 14273742879680475262
21499 59 9799689307238820656
22485316 2 18059862765619259697
231179 274 8286190670175595174
23382010 3 11311768458280462684
23402539 116 14189305893231920724
23557571 272 17417831551067740076
328317 168 9151162143466630682
351380 180 7853575686601722798
42 15 18334853922392646539
5352402 22 18411132545743676810
548570 60 7276827974363541218
6049 1 18201169818404842964
83771 10 18343865528268054484

> <PUBCHEM_SHAPE_MULTIPOLES>
287.95
9.69
1.84
1.06
0.02
0.36
0.12
5.04
-2.74
1.36
-0.14
-0.61
-0.03
0.73

> <PUBCHEM_SHAPE_SELFOVERLAP>
598.239

> <PUBCHEM_SHAPE_VOLUME>
167.6

> <PUBCHEM_COORDINATE_TYPE>
2
5
10

$$$$

