5459796
  -OEChem-07051212503D

 48 48  0     1  0  0  0  0  0999 V2000
   -1.7900    0.3905   -1.3225 O   0  0  0  0  0  0  0  0  0  0  0  0
    2.4189    2.9685   -0.5975 O   0  0  0  0  0  0  0  0  0  0  0  0
    1.4310    1.9985    1.2471 O   0  0  0  0  0  0  0  0  0  0  0  0
   -2.3986    1.1966   -0.3056 C   0  0  2  0  0  0  0  0  0  0  0  0
   -1.7262   -0.1050    0.0210 C   0  0  1  0  0  0  0  0  0  0  0  0
   -2.5182   -1.3580    0.2399 C   0  0  0  0  0  0  0  0  0  0  0  0
   -3.8765    1.2693   -0.3971 C   0  0  0  0  0  0  0  0  0  0  0  0
   -1.7296    2.4999   -0.0770 C   0  0  0  0  0  0  0  0  0  0  0  0
   -1.8837   -2.5597   -0.4653 C   0  0  0  0  0  0  0  0  0  0  0  0
   -4.5355    1.4569    0.9651 C   0  0  0  0  0  0  0  0  0  0  0  0
   -0.4708   -2.8250    0.0044 C   0  0  0  0  0  0  0  0  0  0  0  0
    0.6279   -2.7468   -0.7720 C   0  0  0  0  0  0  0  0  0  0  0  0
   -0.3366   -3.1772    1.4640 C   0  0  0  0  0  0  0  0  0  0  0  0
    2.0617   -2.9724   -0.3770 C   0  0  0  0  0  0  0  0  0  0  0  0
    2.9752   -1.7852   -0.7162 C   0  0  0  0  0  0  0  0  0  0  0  0
    2.6339   -0.5042    0.0164 C   0  0  0  0  0  0  0  0  0  0  0  0
    2.6129   -0.6220    1.5204 C   0  0  0  0  0  0  0  0  0  0  0  0
    2.3449    0.6794   -0.5563 C   0  0  0  0  0  0  0  0  0  0  0  0
    1.9953    1.9252    0.1686 C   0  0  0  0  0  0  0  0  0  0  0  0
    2.1640    4.2706   -0.0603 C   0  0  0  0  0  0  0  0  0  0  0  0
   -0.7775   -0.0793    0.5387 H   0  0  0  0  0  0  0  0  0  0  0  0
   -2.5906   -1.5395    1.3189 H   0  0  0  0  0  0  0  0  0  0  0  0
   -3.5477   -1.2889   -0.1173 H   0  0  0  0  0  0  0  0  0  0  0  0
   -4.1585    2.1205   -1.0308 H   0  0  0  0  0  0  0  0  0  0  0  0
   -4.3167    0.4044   -0.9036 H   0  0  0  0  0  0  0  0  0  0  0  0
   -2.2044    3.3057   -0.6468 H   0  0  0  0  0  0  0  0  0  0  0  0
   -1.7577    2.7688    0.9836 H   0  0  0  0  0  0  0  0  0  0  0  0
   -0.6823    2.4702   -0.3878 H   0  0  0  0  0  0  0  0  0  0  0  0
   -1.8927   -2.3913   -1.5496 H   0  0  0  0  0  0  0  0  0  0  0  0
   -2.4942   -3.4534   -0.2871 H   0  0  0  0  0  0  0  0  0  0  0  0
   -4.2968    0.6278    1.6385 H   0  0  0  0  0  0  0  0  0  0  0  0
   -5.6234    1.5049    0.8552 H   0  0  0  0  0  0  0  0  0  0  0  0
   -4.2035    2.3840    1.4433 H   0  0  0  0  0  0  0  0  0  0  0  0
    0.4809   -2.4932   -1.8213 H   0  0  0  0  0  0  0  0  0  0  0  0
   -0.2823   -2.2728    2.0768 H   0  0  0  0  0  0  0  0  0  0  0  0
   -1.2117   -3.7506    1.7921 H   0  0  0  0  0  0  0  0  0  0  0  0
    0.5223   -3.8127    1.6891 H   0  0  0  0  0  0  0  0  0  0  0  0
    2.4209   -3.8456   -0.9364 H   0  0  0  0  0  0  0  0  0  0  0  0
    2.1826   -3.2286    0.6774 H   0  0  0  0  0  0  0  0  0  0  0  0
    4.0111   -2.0566   -0.4755 H   0  0  0  0  0  0  0  0  0  0  0  0
    2.9517   -1.6099   -1.7998 H   0  0  0  0  0  0  0  0  0  0  0  0
    1.5985   -0.8087    1.8824 H   0  0  0  0  0  0  0  0  0  0  0  0
    3.2509   -1.4483    1.8538 H   0  0  0  0  0  0  0  0  0  0  0  0
    3.0160    0.2667    2.0159 H   0  0  0  0  0  0  0  0  0  0  0  0
    2.3844    0.7598   -1.6402 H   0  0  0  0  0  0  0  0  0  0  0  0
    1.0877    4.4288    0.0564 H   0  0  0  0  0  0  0  0  0  0  0  0
    2.6788    4.3924    0.8975 H   0  0  0  0  0  0  0  0  0  0  0  0
    2.5531    5.0109   -0.7645 H   0  0  0  0  0  0  0  0  0  0  0  0
  1  4  1  0  0  0  0
  1  5  1  0  0  0  0
  2 19  1  0  0  0  0
  2 20  1  0  0  0  0
  3 19  2  0  0  0  0
  4  5  1  0  0  0  0
  4  7  1  0  0  0  0
  4  8  1  0  0  0  0
  5  6  1  0  0  0  0
  5 21  1  0  0  0  0
  6  9  1  0  0  0  0
  6 22  1  0  0  0  0
  6 23  1  0  0  0  0
  7 10  1  0  0  0  0
  7 24  1  0  0  0  0
  7 25  1  0  0  0  0
  8 26  1  0  0  0  0
  8 27  1  0  0  0  0
  8 28  1  0  0  0  0
  9 11  1  0  0  0  0
  9 29  1  0  0  0  0
  9 30  1  0  0  0  0
 10 31  1  0  0  0  0
 10 32  1  0  0  0  0
 10 33  1  0  0  0  0
 11 12  2  0  0  0  0
 11 13  1  0  0  0  0
 12 14  1  0  0  0  0
 12 34  1  0  0  0  0
 13 35  1  0  0  0  0
 13 36  1  0  0  0  0
 13 37  1  0  0  0  0
 14 15  1  0  0  0  0
 14 38  1  0  0  0  0
 14 39  1  0  0  0  0
 15 16  1  0  0  0  0
 15 40  1  0  0  0  0
 15 41  1  0  0  0  0
 16 17  1  0  0  0  0
 16 18  2  0  0  0  0
 17 42  1  0  0  0  0
 17 43  1  0  0  0  0
 17 44  1  0  0  0  0
 18 19  1  0  0  0  0
 18 45  1  0  0  0  0
 20 46  1  0  0  0  0
 20 47  1  0  0  0  0
 20 48  1  0  0  0  0
M  END
> <PUBCHEM_COMPOUND_CID>
5459796

> <PUBCHEM_CONFORMER_RMSD>
1.2

> <PUBCHEM_CONFORMER_DIVERSEORDER>
1
8
111
29
31
33
43
119
129
84
56
124
89
72
70
112
26
76
123
21
30
106
82
116
115
104
37
36
113
35
5
120
16
66
23
63
65
25
90
57
53
94
55
96
71
17
54
92
128
20
39
107
87
2
61
101
86
22
52
118
103
126
49
44
64
78
100
122
7
32
73
15
51
102
68
9
42
91
109
88
27
98
114
97
62
117
105
69
77
40
34
80
13
110
60
28
85
14
3
58
75
108
47
81
4
99
50
11
24
38
19
93
18
83
121
45
79
95
46
67
125
127
41
6
59
48
74
12
10

> <PUBCHEM_MMFF94_PARTIAL_CHARGES>
22
1 -0.3
11 -0.28
12 -0.29
13 0.14
14 0.14
15 0.14
16 -0.28
17 0.14
18 -0.14
19 0.71
2 -0.43
20 0.28
21 0.1
3 -0.57
34 0.15
4 -0.04
45 0.15
5 -0.05
6 0.09
7 0.09
8 0.09
9 0.14

> <PUBCHEM_EFFECTIVE_ROTOR_COUNT>
9.6

> <PUBCHEM_PHARMACOPHORE_FEATURES>
6
1 1 acceptor
1 10 hydrophobe
1 13 hydrophobe
1 17 hydrophobe
1 3 acceptor
4 12 14 15 16 hydrophobe

> <PUBCHEM_HEAVY_ATOM_COUNT>
20

> <PUBCHEM_ATOM_DEF_STEREO_COUNT>
2

> <PUBCHEM_ATOM_UDEF_STEREO_COUNT>
0

> <PUBCHEM_BOND_DEF_STEREO_COUNT>
2

> <PUBCHEM_BOND_UDEF_STEREO_COUNT>
0

> <PUBCHEM_ISOTOPIC_ATOM_COUNT>
0

> <PUBCHEM_COMPONENT_COUNT>
1

> <PUBCHEM_CACTVS_TAUTO_COUNT>
1

> <PUBCHEM_CONFORMER_ID>
00534F5400000001

> <PUBCHEM_MMFF94_ENERGY>
33.3392

> <PUBCHEM_FEATURE_SELFOVERLAP>
30.468

> <PUBCHEM_SHAPE_FINGERPRINT>
10616163 171 18051695434334492504
10871710 139 17399513429397707103
11135609 187 18050020896223313101
11221954 11 18338796697991511334
12553582 1 18266181819246453740
12633257 1 18341622537368976762
12788726 201 17901957331484008941
128993 33 18339921511149795785
13140716 1 18412267216253007593
14081887 123 17325499804189880800
14251751 93 17980202985627367596
17093844 170 17331692747920273492
18219364 16 18128544958007829607
18785283 64 18339629123141532865
19930381 70 18411135879060129225
23558518 356 18267034876934496827
23590187 85 17617939128290817076
238 59 18337126608643134551
3014063 31 17113826743305898629
3524813 1 17985262134409653735
5312544 6 18410012113984031021
5939293 188 18339366369763695870
6443956 14 18051408771132507029
7226269 152 18125723641832742022
7832392 63 18262806296774151798
81228 2 17982177716847164499

> <PUBCHEM_SHAPE_MULTIPOLES>
393.98
6.21
5.26
1.13
5.26
2.62
-0.3
1.68
-0.29
-3.03
-0.05
-0.2
-0.29
0.13

> <PUBCHEM_SHAPE_SELFOVERLAP>
768.093

> <PUBCHEM_SHAPE_VOLUME>
239.9

> <PUBCHEM_COORDINATE_TYPE>
2
5
10

$$$$

