242865
  -OEChem-07051213062D

 72 75  0     1  0  0  0  0  0999 V2000
    9.5141    1.9460    0.0000 O   0  0  0  0  0  0  0  0  0  0  0  0
   10.5960    0.7785    0.0000 O   0  0  0  0  0  0  0  0  0  0  0  0
    2.8641   -2.3616    0.0000 O   0  0  0  0  0  0  0  0  0  0  0  0
    8.2572    0.6907    0.0000 C   0  0  1  0  0  0  0  0  0  0  0  0
    8.2572   -0.3093    0.0000 C   0  0  2  0  0  0  0  0  0  0  0  0
    7.3912   -0.8093    0.0000 C   0  0  1  0  0  0  0  0  0  0  0  0
    9.2034    0.9955    0.0000 C   0  0  2  0  0  0  0  0  0  0  0  0
    9.7870    0.1907    0.0000 C   0  0  2  0  0  0  0  0  0  0  0  0
    9.2034   -0.6140    0.0000 C   0  0  0  0  0  0  0  0  0  0  0  0
    6.5251   -0.3093    0.0000 C   0  0  2  0  0  0  0  0  0  0  0  0
    7.3912    1.1907    0.0000 C   0  0  0  0  0  0  0  0  0  0  0  0
    6.5251    0.6907    0.0000 C   0  0  0  0  0  0  0  0  0  0  0  0
    7.4072   -1.8508    0.0000 C   0  0  0  0  0  0  0  0  0  0  0  0
    8.2572    1.6907    0.0000 C   0  0  0  0  0  0  0  0  0  0  0  0
   10.5960   -0.3971    0.0000 C   0  0  0  0  0  0  0  0  0  0  0  0
    5.6151   -0.8161    0.0000 C   0  0  0  0  0  0  0  0  0  0  0  0
    6.5092   -2.3785    0.0000 C   0  0  0  0  0  0  0  0  0  0  0  0
    5.6071   -1.8577    0.0000 C   0  0  0  0  0  0  0  0  0  0  0  0
   11.5096    0.0097    0.0000 C   0  0  0  0  0  0  0  0  0  0  0  0
    4.6883   -0.2520    0.0000 C   0  0  0  0  0  0  0  0  0  0  0  0
    4.6717   -2.4074    0.0000 C   0  0  0  0  0  0  0  0  0  0  0  0
   12.3186   -0.5781    0.0000 C   0  0  0  0  0  0  0  0  0  0  0  0
    3.7404   -0.7800    0.0000 C   0  0  0  0  0  0  0  0  0  0  0  0
    3.7320   -1.8650    0.0000 C   0  0  0  0  0  0  0  0  0  0  0  0
   13.2321   -0.1714    0.0000 C   0  0  0  0  0  0  0  0  0  0  0  0
   14.0411   -0.7592    0.0000 C   0  0  0  0  0  0  0  0  0  0  0  0
   14.9547   -0.3524    0.0000 C   0  0  0  0  0  0  0  0  0  0  0  0
    2.0000   -1.8583    0.0000 C   0  0  0  0  0  0  0  0  0  0  0  0
   15.7637   -0.9402    0.0000 C   0  0  0  0  0  0  0  0  0  0  0  0
   16.6773   -0.5335    0.0000 C   0  0  0  0  0  0  0  0  0  0  0  0
    8.3471   -1.1545    0.0000 H   0  0  0  0  0  0  0  0  0  0  0  0
    8.1305   -1.2286    0.0000 H   0  0  0  0  0  0  0  0  0  0  0  0
    9.8159    1.0916    0.0000 H   0  0  0  0  0  0  0  0  0  0  0  0
    8.9524   -1.1809    0.0000 H   0  0  0  0  0  0  0  0  0  0  0  0
    9.7408   -0.9232    0.0000 H   0  0  0  0  0  0  0  0  0  0  0  0
    7.2612    0.1157    0.0000 H   0  0  0  0  0  0  0  0  0  0  0  0
    7.7897    1.6657    0.0000 H   0  0  0  0  0  0  0  0  0  0  0  0
    6.9926    1.6657    0.0000 H   0  0  0  0  0  0  0  0  0  0  0  0
    6.3131    1.2733    0.0000 H   0  0  0  0  0  0  0  0  0  0  0  0
    5.9145    0.5831    0.0000 H   0  0  0  0  0  0  0  0  0  0  0  0
    7.6252   -2.4312    0.0000 H   0  0  0  0  0  0  0  0  0  0  0  0
    8.0164   -1.7353    0.0000 H   0  0  0  0  0  0  0  0  0  0  0  0
    8.8772    1.6907    0.0000 H   0  0  0  0  0  0  0  0  0  0  0  0
    8.2572    2.3107    0.0000 H   0  0  0  0  0  0  0  0  0  0  0  0
    7.6372    1.6907    0.0000 H   0  0  0  0  0  0  0  0  0  0  0  0
   10.1500   -0.8277    0.0000 H   0  0  0  0  0  0  0  0  0  0  0  0
   10.9427   -0.9111    0.0000 H   0  0  0  0  0  0  0  0  0  0  0  0
    6.1119   -2.8545    0.0000 H   0  0  0  0  0  0  0  0  0  0  0  0
    6.9101   -2.8514    0.0000 H   0  0  0  0  0  0  0  0  0  0  0  0
    9.1000    2.4074    0.0000 H   0  0  0  0  0  0  0  0  0  0  0  0
   10.5312    1.3951    0.0000 H   0  0  0  0  0  0  0  0  0  0  0  0
   11.9556    0.4404    0.0000 H   0  0  0  0  0  0  0  0  0  0  0  0
   11.1629    0.5237    0.0000 H   0  0  0  0  0  0  0  0  0  0  0  0
    4.7002    0.3678    0.0000 H   0  0  0  0  0  0  0  0  0  0  0  0
    4.6741   -3.0274    0.0000 H   0  0  0  0  0  0  0  0  0  0  0  0
   11.8726   -1.0088    0.0000 H   0  0  0  0  0  0  0  0  0  0  0  0
   12.6653   -1.0921    0.0000 H   0  0  0  0  0  0  0  0  0  0  0  0
    3.2071   -0.4638    0.0000 H   0  0  0  0  0  0  0  0  0  0  0  0
   13.6781    0.2593    0.0000 H   0  0  0  0  0  0  0  0  0  0  0  0
   12.8854    0.3426    0.0000 H   0  0  0  0  0  0  0  0  0  0  0  0
   13.5952   -1.1898    0.0000 H   0  0  0  0  0  0  0  0  0  0  0  0
   14.3878   -1.2732    0.0000 H   0  0  0  0  0  0  0  0  0  0  0  0
   15.4007    0.0783    0.0000 H   0  0  0  0  0  0  0  0  0  0  0  0
   14.6080    0.1616    0.0000 H   0  0  0  0  0  0  0  0  0  0  0  0
    2.3121   -1.3225    0.0000 H   0  0  0  0  0  0  0  0  0  0  0  0
    1.4643   -1.5462    0.0000 H   0  0  0  0  0  0  0  0  0  0  0  0
    1.6879   -2.3940    0.0000 H   0  0  0  0  0  0  0  0  0  0  0  0
   15.3177   -1.3709    0.0000 H   0  0  0  0  0  0  0  0  0  0  0  0
   16.1104   -1.4542    0.0000 H   0  0  0  0  0  0  0  0  0  0  0  0
   16.9294   -1.0999    0.0000 H   0  0  0  0  0  0  0  0  0  0  0  0
   17.2437   -0.2813    0.0000 H   0  0  0  0  0  0  0  0  0  0  0  0
   16.4251    0.0329    0.0000 H   0  0  0  0  0  0  0  0  0  0  0  0
  7  1  1  1  0  0  0
  1 50  1  0  0  0  0
  8  2  1  1  0  0  0
  2 51  1  0  0  0  0
  3 24  1  0  0  0  0
  3 28  1  0  0  0  0
  4  5  1  0  0  0  0
  4  7  1  0  0  0  0
  4 11  1  0  0  0  0
  4 14  1  1  0  0  0
  5  6  1  0  0  0  0
  5  9  1  0  0  0  0
  5 31  1  6  0  0  0
  6 10  1  0  0  0  0
  6 13  1  0  0  0  0
  6 32  1  1  0  0  0
  7  8  1  0  0  0  0
  7 33  1  0  0  0  0
  8  9  1  0  0  0  0
  8 15  1  0  0  0  0
  9 34  1  0  0  0  0
  9 35  1  0  0  0  0
 10 12  1  0  0  0  0
 10 16  1  0  0  0  0
 10 36  1  6  0  0  0
 11 12  1  0  0  0  0
 11 37  1  0  0  0  0
 11 38  1  0  0  0  0
 12 39  1  0  0  0  0
 12 40  1  0  0  0  0
 13 17  1  0  0  0  0
 13 41  1  0  0  0  0
 13 42  1  0  0  0  0
 14 43  1  0  0  0  0
 14 44  1  0  0  0  0
 14 45  1  0  0  0  0
 15 19  1  0  0  0  0
 15 46  1  0  0  0  0
 15 47  1  0  0  0  0
 16 18  2  0  0  0  0
 16 20  1  0  0  0  0
 17 18  1  0  0  0  0
 17 48  1  0  0  0  0
 17 49  1  0  0  0  0
 18 21  1  0  0  0  0
 19 22  1  0  0  0  0
 19 52  1  0  0  0  0
 19 53  1  0  0  0  0
 20 23  2  0  0  0  0
 20 54  1  0  0  0  0
 21 24  2  0  0  0  0
 21 55  1  0  0  0  0
 22 25  1  0  0  0  0
 22 56  1  0  0  0  0
 22 57  1  0  0  0  0
 23 24  1  0  0  0  0
 23 58  1  0  0  0  0
 25 26  1  0  0  0  0
 25 59  1  0  0  0  0
 25 60  1  0  0  0  0
 26 27  1  0  0  0  0
 26 61  1  0  0  0  0
 26 62  1  0  0  0  0
 27 29  1  0  0  0  0
 27 63  1  0  0  0  0
 27 64  1  0  0  0  0
 28 65  1  0  0  0  0
 28 66  1  0  0  0  0
 28 67  1  0  0  0  0
 29 30  1  0  0  0  0
 29 68  1  0  0  0  0
 29 69  1  0  0  0  0
 30 70  1  0  0  0  0
 30 71  1  0  0  0  0
 30 72  1  0  0  0  0
M  END
> <PUBCHEM_COMPOUND_CID>
242865

> <PUBCHEM_COMPOUND_CANONICALIZED>
1

> <PUBCHEM_CACTVS_COMPLEXITY>
564

> <PUBCHEM_CACTVS_HBOND_ACCEPTOR>
3

> <PUBCHEM_CACTVS_HBOND_DONOR>
2

> <PUBCHEM_CACTVS_ROTATABLE_BOND>
8

> <PUBCHEM_CACTVS_SUBSKEYS>
AAADcfB4MAAAAAAAAAAAAAAAAAAAAYAAAAAwYMAAAAAAAGDBAAAAGgAACAAAD1SgmAIyBoAABgCAAiBCAAACCAAgIAAIiAAGCIgNNiKEMRqAcCAkwBEJqAeA4PQPoAABAAAQAADAAAYAACAAAYAADCAAAA==

> <PUBCHEM_IUPAC_OPENEYE_NAME>
(8R,9S,13S,14S,16S,17R)-3-methoxy-13-methyl-16-octyl-7,8,9,11,12,14,15,17-octahydro-6H-cyclopenta[a]phenanthrene-16,17-diol

> <PUBCHEM_IUPAC_CAS_NAME>
(8R,9S,13S,14S,16S,17R)-3-methoxy-13-methyl-16-octyl-7,8,9,11,12,14,15,17-octahydro-6H-cyclopenta[a]phenanthrene-16,17-diol

> <PUBCHEM_IUPAC_NAME>
(8R,9S,13S,14S,16S,17R)-3-methoxy-13-methyl-16-octyl-7,8,9,11,12,14,15,17-octahydro-6H-cyclopenta[a]phenanthrene-16,17-diol

> <PUBCHEM_IUPAC_SYSTEMATIC_NAME>
(8R,9S,13S,14S,16S,17R)-3-methoxy-13-methyl-16-octyl-7,8,9,11,12,14,15,17-octahydro-6H-cyclopenta[a]phenanthrene-16,17-diol

> <PUBCHEM_IUPAC_TRADITIONAL_NAME>
(8R,9S,13S,14S,16S,17R)-3-methoxy-13-methyl-16-octyl-7,8,9,11,12,14,15,17-octahydro-6H-cyclopenta[a]phenanthrene-16,17-diol

> <PUBCHEM_IUPAC_INCHI>
InChI=1S/C27H42O3/c1-4-5-6-7-8-9-15-27(29)18-24-23-12-10-19-17-20(30-3)11-13-21(19)22(23)14-16-26(24,2)25(27)28/h11,13,17,22-25,28-29H,4-10,12,14-16,18H2,1-3H3/t22-,23-,24+,25-,26+,27+/m1/s1

> <PUBCHEM_IUPAC_INCHIKEY>
OPESDBSJPSZDIT-PJZCFIFPSA-N

> <PUBCHEM_XLOGP3>
5.8

> <PUBCHEM_EXACT_MASS>
414.313395

> <PUBCHEM_MOLECULAR_FORMULA>
C27H42O3

> <PUBCHEM_MOLECULAR_WEIGHT>
414.62058

> <PUBCHEM_OPENEYE_CAN_SMILES>
CCCCCCCCC1(CC2C3CCC4=C(C3CCC2(C1O)C)C=CC(=C4)OC)O

> <PUBCHEM_OPENEYE_ISO_SMILES>
CCCCCCCC[C@@]1(C[C@H]2[C@@H]3CCC4=C([C@H]3CC[C@@]2([C@H]1O)C)C=CC(=C4)OC)O

> <PUBCHEM_CACTVS_TPSA>
49.7

> <PUBCHEM_MONOISOTOPIC_WEIGHT>
414.313395

> <PUBCHEM_TOTAL_CHARGE>
0

> <PUBCHEM_HEAVY_ATOM_COUNT>
30

> <PUBCHEM_ATOM_DEF_STEREO_COUNT>
6

> <PUBCHEM_ATOM_UDEF_STEREO_COUNT>
0

> <PUBCHEM_BOND_DEF_STEREO_COUNT>
0

> <PUBCHEM_BOND_UDEF_STEREO_COUNT>
0

> <PUBCHEM_ISOTOPIC_ATOM_COUNT>
0

> <PUBCHEM_COMPONENT_COUNT>
1

> <PUBCHEM_CACTVS_TAUTO_COUNT>
1

> <PUBCHEM_COORDINATE_TYPE>
1
5
255

> <PUBCHEM_BONDANNOTATIONS>
7  1  5
10  36  6
16  18  8
16  20  8
18  21  8
8  2  5
20  23  8
21  24  8
23  24  8
4  14  5
5  31  6
6  32  5

$$$$

