7112
  -OEChem-07051213043D

 24 25  0     0  0  0  0  0  0999 V2000
    4.8738    0.0006   -0.0002 O   0  0  0  0  0  0  0  0  0  0  0  0
   -4.8738    0.0006    0.0002 O   0  0  0  0  0  0  0  0  0  0  0  0
    0.7232   -0.0004    0.0002 C   0  0  0  0  0  0  0  0  0  0  0  0
   -0.7232   -0.0005   -0.0002 C   0  0  0  0  0  0  0  0  0  0  0  0
    1.4204    1.1665    0.3130 C   0  0  0  0  0  0  0  0  0  0  0  0
   -1.4204    1.1665   -0.3130 C   0  0  0  0  0  0  0  0  0  0  0  0
    1.4209   -1.1670   -0.3126 C   0  0  0  0  0  0  0  0  0  0  0  0
   -1.4209   -1.1670    0.3126 C   0  0  0  0  0  0  0  0  0  0  0  0
    2.8153    1.1669    0.3129 C   0  0  0  0  0  0  0  0  0  0  0  0
   -2.8153    1.1668   -0.3129 C   0  0  0  0  0  0  0  0  0  0  0  0
    2.8158   -1.1667   -0.3127 C   0  0  0  0  0  0  0  0  0  0  0  0
   -2.8158   -1.1667    0.3127 C   0  0  0  0  0  0  0  0  0  0  0  0
    3.5130    0.0002    0.0000 C   0  0  0  0  0  0  0  0  0  0  0  0
   -3.5129    0.0002    0.0000 C   0  0  0  0  0  0  0  0  0  0  0  0
    0.9208    2.0899    0.5928 H   0  0  0  0  0  0  0  0  0  0  0  0
   -0.9208    2.0899   -0.5929 H   0  0  0  0  0  0  0  0  0  0  0  0
    0.9218   -2.0907   -0.5924 H   0  0  0  0  0  0  0  0  0  0  0  0
   -0.9218   -2.0907    0.5923 H   0  0  0  0  0  0  0  0  0  0  0  0
    3.3472    2.0805    0.5648 H   0  0  0  0  0  0  0  0  0  0  0  0
   -3.3472    2.0804   -0.5648 H   0  0  0  0  0  0  0  0  0  0  0  0
    3.3544   -2.0765   -0.5637 H   0  0  0  0  0  0  0  0  0  0  0  0
   -3.3544   -2.0764    0.5638 H   0  0  0  0  0  0  0  0  0  0  0  0
    5.1888    0.8895    0.2377 H   0  0  0  0  0  0  0  0  0  0  0  0
   -5.1888    0.8895   -0.2378 H   0  0  0  0  0  0  0  0  0  0  0  0
  1 13  1  0  0  0  0
  1 23  1  0  0  0  0
  2 14  1  0  0  0  0
  2 24  1  0  0  0  0
  3  4  1  0  0  0  0
  3  5  2  0  0  0  0
  3  7  1  0  0  0  0
  4  6  2  0  0  0  0
  4  8  1  0  0  0  0
  5  9  1  0  0  0  0
  5 15  1  0  0  0  0
  6 10  1  0  0  0  0
  6 16  1  0  0  0  0
  7 11  2  0  0  0  0
  7 17  1  0  0  0  0
  8 12  2  0  0  0  0
  8 18  1  0  0  0  0
  9 13  2  0  0  0  0
  9 19  1  0  0  0  0
 10 14  2  0  0  0  0
 10 20  1  0  0  0  0
 11 13  1  0  0  0  0
 11 21  1  0  0  0  0
 12 14  1  0  0  0  0
 12 22  1  0  0  0  0
M  END
> <PUBCHEM_COMPOUND_CID>
7112

> <PUBCHEM_CONFORMER_RMSD>
0.4

> <PUBCHEM_CONFORMER_DIVERSEORDER>
1
2

> <PUBCHEM_MMFF94_PARTIAL_CHARGES>
22
1 -0.53
10 -0.15
11 -0.15
12 -0.15
13 0.08
14 0.08
15 0.15
16 0.15
17 0.15
18 0.15
19 0.15
2 -0.53
20 0.15
21 0.15
22 0.15
23 0.45
24 0.45
5 -0.15
6 -0.15
7 -0.15
8 -0.15
9 -0.15

> <PUBCHEM_EFFECTIVE_ROTOR_COUNT>
1

> <PUBCHEM_PHARMACOPHORE_FEATURES>
4
1 1 donor
1 2 donor
6 3 5 7 9 11 13 rings
6 4 6 8 10 12 14 rings

> <PUBCHEM_HEAVY_ATOM_COUNT>
14

> <PUBCHEM_ATOM_DEF_STEREO_COUNT>
0

> <PUBCHEM_ATOM_UDEF_STEREO_COUNT>
0

> <PUBCHEM_BOND_DEF_STEREO_COUNT>
0

> <PUBCHEM_BOND_UDEF_STEREO_COUNT>
0

> <PUBCHEM_ISOTOPIC_ATOM_COUNT>
0

> <PUBCHEM_COMPONENT_COUNT>
1

> <PUBCHEM_CACTVS_TAUTO_COUNT>
3

> <PUBCHEM_CONFORMER_ID>
00001BC800000001

> <PUBCHEM_MMFF94_ENERGY>
44.1835

> <PUBCHEM_FEATURE_SELFOVERLAP>
20.297

> <PUBCHEM_SHAPE_FINGERPRINT>
10608611 8 18410860957686761889
11132069 177 18340775844680509201
11471102 20 18334014990820670620
11615757 297 17603301535742184784
12032990 46 18410851062081657185
12251169 10 18410575076073144374
13380535 76 18410573989446892647
13581323 91 17989209252161529061
14144814 61 18410574023806156995
14325111 11 18410856572545933389
15219456 202 18409167718380016269
15309172 13 17603300444973725807
15442244 35 18120653797325355162
16945 1 18410575088958046214
17802600 8 18410859862469939008
18175812 5 18410573942201778399
18186145 218 18338232790286386605
18522853 276 18333450949755912128
200 152 17749112188334128575
20201158 50 18408321098732359922
20279233 1 18410569587105199874
20510252 161 18336827606189907185
20528008 55 18410295796178175791
20645477 70 18187645868285476278
21267235 1 18410565193353617091
23402539 116 18411146831226455015
23402655 69 18261680367181852549
23557571 272 17988362667005584444
23559900 14 18339081613811876686
474 4 15912185505347816852
5104073 3 18410855494487901138
53812653 166 18410295813342298858
6333449 129 18412547608871527223
69090 78 18335144180852121999
8809292 202 18271522009472404482
9709674 26 18410287008406719055

> <PUBCHEM_SHAPE_MULTIPOLES>
276.37
8.01
1.41
0.66
0
0
0
0
0
0
0
0
0
0.46

> <PUBCHEM_SHAPE_SELFOVERLAP>
604.93

> <PUBCHEM_SHAPE_VOLUME>
151.2

> <PUBCHEM_COORDINATE_TYPE>
2
5
10

$$$$

