255271
  -OEChem-07051213063D

 65 67  0     0  0  0  0  0  0999 V2000
    0.9186   -0.8330    0.6764 O   0  0  0  0  0  0  0  0  0  0  0  0
    5.2884    0.9547    0.9124 O   0  0  0  0  0  0  0  0  0  0  0  0
   -6.5157    0.8201   -1.1183 O   0  0  0  0  0  0  0  0  0  0  0  0
    5.6059    0.4035   -1.3404 O   0  0  0  0  0  0  0  0  0  0  0  0
   -0.3481   -0.8409   -0.0224 C   0  0  0  0  0  0  0  0  0  0  0  0
   -0.0928   -1.4700   -1.4041 C   0  0  0  0  0  0  0  0  0  0  0  0
   -1.2082   -1.8109    0.8094 C   0  0  0  0  0  0  0  0  0  0  0  0
   -0.9758    0.5497   -0.1542 C   0  0  0  0  0  0  0  0  0  0  0  0
    0.9136   -2.6077   -1.3050 C   0  0  0  0  0  0  0  0  0  0  0  0
   -1.0445   -1.5384    2.2971 C   0  0  0  0  0  0  0  0  0  0  0  0
   -0.2376    1.6795   -0.0796 C   0  0  0  0  0  0  0  0  0  0  0  0
    1.2164    1.5151    0.1389 C   0  0  0  0  0  0  0  0  0  0  0  0
    1.7157    0.2629    0.5102 C   0  0  0  0  0  0  0  0  0  0  0  0
   -2.4311    0.6206   -0.4076 C   0  0  0  0  0  0  0  0  0  0  0  0
    1.1420   -3.2487   -2.6737 C   0  0  0  0  0  0  0  0  0  0  0  0
   -1.9215   -2.4839    3.1178 C   0  0  0  0  0  0  0  0  0  0  0  0
   -0.7738    3.0818   -0.2217 C   0  0  0  0  0  0  0  0  0  0  0  0
    3.0754    0.0748    0.7814 C   0  0  0  0  0  0  0  0  0  0  0  0
    2.1303    2.5756    0.0205 C   0  0  0  0  0  0  0  0  0  0  0  0
   -3.3218    0.7089    0.6623 C   0  0  0  0  0  0  0  0  0  0  0  0
   -2.9132    0.5992   -1.7163 C   0  0  0  0  0  0  0  0  0  0  0  0
    2.1197   -4.4099   -2.5890 C   0  0  0  0  0  0  0  0  0  0  0  0
   -1.7984   -2.2059    4.6074 C   0  0  0  0  0  0  0  0  0  0  0  0
    3.9647    1.1372    0.6573 C   0  0  0  0  0  0  0  0  0  0  0  0
    3.4925    2.3873    0.2736 C   0  0  0  0  0  0  0  0  0  0  0  0
   -4.6944    0.7759    0.4235 C   0  0  0  0  0  0  0  0  0  0  0  0
   -4.2858    0.6662   -1.9553 C   0  0  0  0  0  0  0  0  0  0  0  0
   -5.1764    0.7546   -0.8853 C   0  0  0  0  0  0  0  0  0  0  0  0
    6.0428    0.5739   -0.2099 C   0  0  0  0  0  0  0  0  0  0  0  0
   -7.3696    0.9091    0.0213 C   0  0  0  0  0  0  0  0  0  0  0  0
    7.4823    0.3985    0.1733 C   0  0  0  0  0  0  0  0  0  0  0  0
   -1.0315   -1.8211   -1.8505 H   0  0  0  0  0  0  0  0  0  0  0  0
    0.3170   -0.7160   -2.0898 H   0  0  0  0  0  0  0  0  0  0  0  0
   -2.2611   -1.8085    0.5097 H   0  0  0  0  0  0  0  0  0  0  0  0
   -0.8874   -2.8472    0.6606 H   0  0  0  0  0  0  0  0  0  0  0  0
    0.5851   -3.3891   -0.6145 H   0  0  0  0  0  0  0  0  0  0  0  0
    1.8857   -2.2505   -0.9485 H   0  0  0  0  0  0  0  0  0  0  0  0
   -1.2945   -0.5015    2.5415 H   0  0  0  0  0  0  0  0  0  0  0  0
   -0.0081   -1.6998    2.6171 H   0  0  0  0  0  0  0  0  0  0  0  0
    0.1906   -3.6127   -3.0789 H   0  0  0  0  0  0  0  0  0  0  0  0
    1.5300   -2.5018   -3.3763 H   0  0  0  0  0  0  0  0  0  0  0  0
   -2.9707   -2.3707    2.8204 H   0  0  0  0  0  0  0  0  0  0  0  0
   -1.6381   -3.5244    2.9211 H   0  0  0  0  0  0  0  0  0  0  0  0
   -1.8646    3.1299   -0.2769 H   0  0  0  0  0  0  0  0  0  0  0  0
   -0.4833    3.6937    0.6396 H   0  0  0  0  0  0  0  0  0  0  0  0
   -0.3899    3.5495   -1.1348 H   0  0  0  0  0  0  0  0  0  0  0  0
    3.4389   -0.9043    1.0845 H   0  0  0  0  0  0  0  0  0  0  0  0
    1.8072    3.5720   -0.2694 H   0  0  0  0  0  0  0  0  0  0  0  0
   -2.9680    0.7471    1.6883 H   0  0  0  0  0  0  0  0  0  0  0  0
   -2.2324    0.5340   -2.5615 H   0  0  0  0  0  0  0  0  0  0  0  0
    1.7444   -5.1919   -1.9212 H   0  0  0  0  0  0  0  0  0  0  0  0
    3.0934   -4.0769   -2.2156 H   0  0  0  0  0  0  0  0  0  0  0  0
    2.2691   -4.8522   -3.5789 H   0  0  0  0  0  0  0  0  0  0  0  0
   -2.1084   -1.1827    4.8425 H   0  0  0  0  0  0  0  0  0  0  0  0
   -0.7666   -2.3394    4.9478 H   0  0  0  0  0  0  0  0  0  0  0  0
   -2.4346   -2.8922    5.1748 H   0  0  0  0  0  0  0  0  0  0  0  0
    4.1761    3.2263    0.1740 H   0  0  0  0  0  0  0  0  0  0  0  0
   -5.3293    0.8473    1.3000 H   0  0  0  0  0  0  0  0  0  0  0  0
   -4.6553    0.6499   -2.9769 H   0  0  0  0  0  0  0  0  0  0  0  0
   -7.2931    0.0170    0.6522 H   0  0  0  0  0  0  0  0  0  0  0  0
   -7.1941    1.8320    0.5844 H   0  0  0  0  0  0  0  0  0  0  0  0
   -8.3992    0.9514   -0.3488 H   0  0  0  0  0  0  0  0  0  0  0  0
    7.8796    1.3416    0.5564 H   0  0  0  0  0  0  0  0  0  0  0  0
    8.0600    0.1085   -0.7089 H   0  0  0  0  0  0  0  0  0  0  0  0
    7.5705   -0.3905    0.9241 H   0  0  0  0  0  0  0  0  0  0  0  0
  1  5  1  0  0  0  0
  1 13  1  0  0  0  0
  2 24  1  0  0  0  0
  2 29  1  0  0  0  0
  3 28  1  0  0  0  0
  3 30  1  0  0  0  0
  4 29  2  0  0  0  0
  5  6  1  0  0  0  0
  5  7  1  0  0  0  0
  5  8  1  0  0  0  0
  6  9  1  0  0  0  0
  6 32  1  0  0  0  0
  6 33  1  0  0  0  0
  7 10  1  0  0  0  0
  7 34  1  0  0  0  0
  7 35  1  0  0  0  0
  8 11  2  0  0  0  0
  8 14  1  0  0  0  0
  9 15  1  0  0  0  0
  9 36  1  0  0  0  0
  9 37  1  0  0  0  0
 10 16  1  0  0  0  0
 10 38  1  0  0  0  0
 10 39  1  0  0  0  0
 11 12  1  0  0  0  0
 11 17  1  0  0  0  0
 12 13  2  0  0  0  0
 12 19  1  0  0  0  0
 13 18  1  0  0  0  0
 14 20  2  0  0  0  0
 14 21  1  0  0  0  0
 15 22  1  0  0  0  0
 15 40  1  0  0  0  0
 15 41  1  0  0  0  0
 16 23  1  0  0  0  0
 16 42  1  0  0  0  0
 16 43  1  0  0  0  0
 17 44  1  0  0  0  0
 17 45  1  0  0  0  0
 17 46  1  0  0  0  0
 18 24  2  0  0  0  0
 18 47  1  0  0  0  0
 19 25  2  0  0  0  0
 19 48  1  0  0  0  0
 20 26  1  0  0  0  0
 20 49  1  0  0  0  0
 21 27  2  0  0  0  0
 21 50  1  0  0  0  0
 22 51  1  0  0  0  0
 22 52  1  0  0  0  0
 22 53  1  0  0  0  0
 23 54  1  0  0  0  0
 23 55  1  0  0  0  0
 23 56  1  0  0  0  0
 24 25  1  0  0  0  0
 25 57  1  0  0  0  0
 26 28  2  0  0  0  0
 26 58  1  0  0  0  0
 27 28  1  0  0  0  0
 27 59  1  0  0  0  0
 29 31  1  0  0  0  0
 30 60  1  0  0  0  0
 30 61  1  0  0  0  0
 30 62  1  0  0  0  0
 31 63  1  0  0  0  0
 31 64  1  0  0  0  0
 31 65  1  0  0  0  0
M  END
> <PUBCHEM_COMPOUND_CID>
255271

> <PUBCHEM_CONFORMER_RMSD>
1

> <PUBCHEM_CONFORMER_DIVERSEORDER>
1
3
13
7
21
15
5
20
11
19
18
8
17
12
10
9
16
14
4
2
6

> <PUBCHEM_MMFF94_PARTIAL_CHARGES>
30
1 -0.36
11 -0.17
12 0.03
13 0.08
14 0.03
17 0.14
18 -0.15
19 -0.15
2 -0.23
20 -0.15
21 -0.15
24 0.08
25 -0.15
26 -0.15
27 -0.15
28 0.08
29 0.66
3 -0.36
30 0.28
31 0.06
4 -0.57
47 0.15
48 0.15
49 0.15
5 0.42
50 0.15
57 0.15
58 0.15
59 0.15
8 -0.17

> <PUBCHEM_EFFECTIVE_ROTOR_COUNT>
10.4

> <PUBCHEM_PHARMACOPHORE_FEATURES>
8
1 1 acceptor
1 22 hydrophobe
1 23 hydrophobe
1 3 acceptor
1 4 acceptor
6 1 5 8 11 12 13 rings
6 12 13 18 19 24 25 rings
6 14 20 21 26 27 28 rings

> <PUBCHEM_HEAVY_ATOM_COUNT>
31

> <PUBCHEM_ATOM_DEF_STEREO_COUNT>
0

> <PUBCHEM_ATOM_UDEF_STEREO_COUNT>
0

> <PUBCHEM_BOND_DEF_STEREO_COUNT>
0

> <PUBCHEM_BOND_UDEF_STEREO_COUNT>
0

> <PUBCHEM_ISOTOPIC_ATOM_COUNT>
0

> <PUBCHEM_COMPONENT_COUNT>
1

> <PUBCHEM_CACTVS_TAUTO_COUNT>
1

> <PUBCHEM_CONFORMER_ID>
0003E52700000001

> <PUBCHEM_MMFF94_ENERGY>
105.4111

> <PUBCHEM_FEATURE_SELFOVERLAP>
40.624

> <PUBCHEM_SHAPE_FINGERPRINT>
107951 10 17918000464137081954
10906281 52 18341036501850801593
11135926 11 18113911467986818013
11421498 54 17458063785745576099
11488393 25 18045512064523890398
12058002 1 18127103442134399933
12236239 1 17749398031614982453
12293681 25 18196064807360481019
12597179 24 18410009940045465647
12655364 131 17604701322073601878
12788726 201 18341341092747954656
12977781 61 18339624695004740827
13140716 1 18199753531575076104
133893 2 17605251055868925406
13540713 4 18056194662207863384
1361 2 18114465642968943734
14028597 1 16370717171019028098
15840311 113 15267054835408241341
15927050 60 17703799114993854851
1813 80 17099170137770633767
19319366 153 18131362908200895978
20602899 9 17531531975365411102
21033648 29 17750813055581628192
21344244 246 18040718108122873654
23419403 2 17905563926791255019
23559900 14 18267874895898505496
23569943 247 17533203400913062726
244849 19 18195218183818361955
266924 1 16226318330581455595
335352 9 18412548687125096740
340366 18 18338799997191092100
3633792 109 17385441025345626904
3759504 43 17561090189151073440
376196 1 18268167412913938897
404807 14 16593343137822350254
4058900 60 17559968790744931945
4093350 32 18187084009532900475
6669772 16 18201161047923713155

> <PUBCHEM_SHAPE_MULTIPOLES>
614.49
13.23
3.65
2.86
2.61
3.42
-2.96
-7.77
2.39
2.03
1.47
-2.08
4.3
3.23

> <PUBCHEM_SHAPE_SELFOVERLAP>
1297.505

> <PUBCHEM_SHAPE_VOLUME>
344.4

> <PUBCHEM_COORDINATE_TYPE>
2
5
10

$$$$

