442934
  -OEChem-07051213002D

 27 29  0     1  0  0  0  0  0999 V2000
    8.1912   -1.3310    0.0000 O   0  0  0  0  0  0  0  0  0  0  0  0
    2.5381    1.4484    0.0000 O   0  0  0  0  0  0  0  0  0  0  0  0
    6.9343    0.9242    0.0000 N   0  0  0  0  0  0  0  0  0  0  0  0
    6.0682   -0.5758    0.0000 N   0  0  0  0  0  0  0  0  0  0  0  0
    7.8805    1.2290    0.0000 C   0  0  0  0  0  0  0  0  0  0  0  0
    8.4641    0.4242    0.0000 C   0  0  0  0  0  0  0  0  0  0  0  0
    7.8805   -0.3805    0.0000 C   0  0  1  0  0  0  0  0  0  0  0  0
    6.9343   -0.0758    0.0000 C   0  0  0  0  0  0  0  0  0  0  0  0
    6.0682    1.4242    0.0000 C   0  0  0  0  0  0  0  0  0  0  0  0
    5.2022    0.9242    0.0000 C   0  0  0  0  0  0  0  0  0  0  0  0
    5.2022   -0.0758    0.0000 C   0  0  0  0  0  0  0  0  0  0  0  0
    4.3083    1.4589    0.0000 C   0  0  0  0  0  0  0  0  0  0  0  0
    4.3083   -0.6104    0.0000 C   0  0  0  0  0  0  0  0  0  0  0  0
    3.4022    0.9450    0.0000 C   0  0  0  0  0  0  0  0  0  0  0  0
    3.4022   -0.0966    0.0000 C   0  0  0  0  0  0  0  0  0  0  0  0
    8.4179    1.5382    0.0000 H   0  0  0  0  0  0  0  0  0  0  0  0
    7.6295    1.7959    0.0000 H   0  0  0  0  0  0  0  0  0  0  0  0
    8.9250    0.0095    0.0000 H   0  0  0  0  0  0  0  0  0  0  0  0
    8.9250    0.8390    0.0000 H   0  0  0  0  0  0  0  0  0  0  0  0
    8.4930   -0.4767    0.0000 H   0  0  0  0  0  0  0  0  0  0  0  0
    6.4668    1.8992    0.0000 H   0  0  0  0  0  0  0  0  0  0  0  0
    5.6697    1.8992    0.0000 H   0  0  0  0  0  0  0  0  0  0  0  0
    4.3154    2.0788    0.0000 H   0  0  0  0  0  0  0  0  0  0  0  0
    8.7978   -1.4589    0.0000 H   0  0  0  0  0  0  0  0  0  0  0  0
    4.3154   -1.2304    0.0000 H   0  0  0  0  0  0  0  0  0  0  0  0
    2.8665   -0.4087    0.0000 H   0  0  0  0  0  0  0  0  0  0  0  0
    2.0000    1.1404    0.0000 H   0  0  0  0  0  0  0  0  0  0  0  0
  7  1  1  6  0  0  0
  1 24  1  0  0  0  0
  2 14  1  0  0  0  0
  2 27  1  0  0  0  0
  3  5  1  0  0  0  0
  3  8  1  0  0  0  0
  3  9  1  0  0  0  0
  4  8  2  0  0  0  0
  4 11  1  0  0  0  0
  5  6  1  0  0  0  0
  5 16  1  0  0  0  0
  5 17  1  0  0  0  0
  6  7  1  0  0  0  0
  6 18  1  0  0  0  0
  6 19  1  0  0  0  0
  7  8  1  0  0  0  0
  7 20  1  0  0  0  0
  9 10  1  0  0  0  0
  9 21  1  0  0  0  0
  9 22  1  0  0  0  0
 10 11  2  0  0  0  0
 10 12  1  0  0  0  0
 11 13  1  0  0  0  0
 12 14  2  0  0  0  0
 12 23  1  0  0  0  0
 13 15  2  0  0  0  0
 13 25  1  0  0  0  0
 14 15  1  0  0  0  0
 15 26  1  0  0  0  0
M  END
> <PUBCHEM_COMPOUND_CID>
442934

> <PUBCHEM_COMPOUND_CANONICALIZED>
1

> <PUBCHEM_CACTVS_COMPLEXITY>
292

> <PUBCHEM_CACTVS_HBOND_ACCEPTOR>
3

> <PUBCHEM_CACTVS_HBOND_DONOR>
2

> <PUBCHEM_CACTVS_ROTATABLE_BOND>
0

> <PUBCHEM_CACTVS_SUBSKEYS>
AAADccBzMAAAAAAAAAAAAAAAAAAAAWAAAAAwQAAAAAAAAECBAAAAHgAACAAADBzhmAYxxoMAAgCgAiZiZASCAAEgIgAJiAA+bIgKNiKC2ZOEcAhmwBGY2AewwBAOAEABAAACAAAAgAIAAAQAAAAAAAAAAA==

> <PUBCHEM_IUPAC_OPENEYE_NAME>
(3S)-1,2,3,9-tetrahydropyrrolo[2,1-b]quinazoline-3,7-diol

> <PUBCHEM_IUPAC_CAS_NAME>
(3S)-1,2,3,9-tetrahydropyrrolo[2,1-b]quinazoline-3,7-diol

> <PUBCHEM_IUPAC_NAME>
(3S)-1,2,3,9-tetrahydropyrrolo[2,1-b]quinazoline-3,7-diol

> <PUBCHEM_IUPAC_SYSTEMATIC_NAME>
(3S)-1,2,3,9-tetrahydropyrrolo[2,1-b]quinazoline-3,7-diol

> <PUBCHEM_IUPAC_TRADITIONAL_NAME>
(3S)-1,2,3,9-tetrahydropyrrolo[2,1-b]quinazoline-3,7-diol

> <PUBCHEM_IUPAC_INCHI>
InChI=1S/C11H12N2O2/c14-8-1-2-9-7(5-8)6-13-4-3-10(15)11(13)12-9/h1-2,5,10,14-15H,3-4,6H2/t10-/m0/s1

> <PUBCHEM_IUPAC_INCHIKEY>
WEFMOGRHGUPGMA-JTQLQIEISA-N

> <PUBCHEM_XLOGP3_AA>
0.1

> <PUBCHEM_EXACT_MASS>
204.089878

> <PUBCHEM_MOLECULAR_FORMULA>
C11H12N2O2

> <PUBCHEM_MOLECULAR_WEIGHT>
204.22518

> <PUBCHEM_OPENEYE_CAN_SMILES>
C1CN2CC3=C(C=CC(=C3)O)N=C2C1O

> <PUBCHEM_OPENEYE_ISO_SMILES>
C1CN2CC3=C(C=CC(=C3)O)N=C2[C@H]1O

> <PUBCHEM_CACTVS_TPSA>
56.1

> <PUBCHEM_MONOISOTOPIC_WEIGHT>
204.089878

> <PUBCHEM_TOTAL_CHARGE>
0

> <PUBCHEM_HEAVY_ATOM_COUNT>
15

> <PUBCHEM_ATOM_DEF_STEREO_COUNT>
1

> <PUBCHEM_ATOM_UDEF_STEREO_COUNT>
0

> <PUBCHEM_BOND_DEF_STEREO_COUNT>
0

> <PUBCHEM_BOND_UDEF_STEREO_COUNT>
0

> <PUBCHEM_ISOTOPIC_ATOM_COUNT>
0

> <PUBCHEM_COMPONENT_COUNT>
1

> <PUBCHEM_CACTVS_TAUTO_COUNT>
12

> <PUBCHEM_COORDINATE_TYPE>
1
5
255

> <PUBCHEM_BONDANNOTATIONS>
7  1  6
10  11  8
10  12  8
11  13  8
12  14  8
13  15  8
14  15  8

$$$$

