9455
  -OEChem-06261203432D

 24 23  0     0  0  0  0  0  0999 V2000
    5.6720    2.4650    0.0000 Cl  0  0  0  0  0  0  0  0  0  0  0  0
    1.4030    3.6200    0.0000 N   0  0  0  0  0  0  0  0  0  0  0  0
    2.2690    5.1200    0.0000 N   0  0  0  0  0  0  0  0  0  0  0  0
    3.1350    3.6200    0.0000 N   0  0  0  0  0  0  0  0  0  0  0  0
    1.4030    2.6200    0.0000 C   0  0  0  0  0  0  0  0  0  0  0  0
    0.5369    2.1200    0.0000 C   0  0  0  0  0  0  0  0  0  0  0  0
    2.2690    2.1200    0.0000 C   0  0  0  0  0  0  0  0  0  0  0  0
    0.5369    4.1200    0.0000 C   0  0  0  0  0  0  0  0  0  0  0  0
    2.2690    4.1200    0.0000 C   0  0  0  0  0  0  0  0  0  0  0  0
    0.5369    1.1200    0.0000 C   0  0  0  0  0  0  0  0  0  0  0  0
    2.2690    1.1200    0.0000 C   0  0  0  0  0  0  0  0  0  0  0  0
    1.4030    0.6200    0.0000 C   0  0  0  0  0  0  0  0  0  0  0  0
    0.0000    2.4300    0.0000 H   0  0  0  0  0  0  0  0  0  0  0  0
    2.8059    2.4300    0.0000 H   0  0  0  0  0  0  0  0  0  0  0  0
    0.8469    4.6569    0.0000 H   0  0  0  0  0  0  0  0  0  0  0  0
    0.0000    4.4300    0.0000 H   0  0  0  0  0  0  0  0  0  0  0  0
    0.2269    3.5831    0.0000 H   0  0  0  0  0  0  0  0  0  0  0  0
    0.0000    0.8100    0.0000 H   0  0  0  0  0  0  0  0  0  0  0  0
    2.8059    0.8100    0.0000 H   0  0  0  0  0  0  0  0  0  0  0  0
    1.4030    0.0000    0.0000 H   0  0  0  0  0  0  0  0  0  0  0  0
    2.8059    5.4300    0.0000 H   0  0  0  0  0  0  0  0  0  0  0  0
    1.7320    5.4300    0.0000 H   0  0  0  0  0  0  0  0  0  0  0  0
    3.6720    3.9300    0.0000 H   0  0  0  0  0  0  0  0  0  0  0  0
    6.6720    2.4650    0.0000 H   0  0  0  0  0  0  0  0  0  0  0  0
  1 24  1  0  0  0  0
  2  5  1  0  0  0  0
  2  8  1  0  0  0  0
  2  9  1  0  0  0  0
  3  9  1  0  0  0  0
  3 21  1  0  0  0  0
  3 22  1  0  0  0  0
  4  9  2  0  0  0  0
  4 23  1  0  0  0  0
  5  6  2  0  0  0  0
  5  7  1  0  0  0  0
  6 10  1  0  0  0  0
  6 13  1  0  0  0  0
  7 11  2  0  0  0  0
  7 14  1  0  0  0  0
  8 15  1  0  0  0  0
  8 16  1  0  0  0  0
  8 17  1  0  0  0  0
 10 12  2  0  0  0  0
 10 18  1  0  0  0  0
 11 12  1  0  0  0  0
 11 19  1  0  0  0  0
 12 20  1  0  0  0  0
M  END
> <PUBCHEM_COMPOUND_CID>
9455

> <PUBCHEM_COMPOUND_CANONICALIZED>
1

> <PUBCHEM_CACTVS_COMPLEXITY>
138

> <PUBCHEM_CACTVS_HBOND_ACCEPTOR>
1

> <PUBCHEM_CACTVS_HBOND_DONOR>
3

> <PUBCHEM_CACTVS_ROTATABLE_BOND>
2

> <PUBCHEM_CACTVS_SUBSKEYS>
AAADccBzAAAEAAAAAAAAAAAAAAAAAAAAAAAwAAAAAAAAAAABAAAAHAAQAAAACAiBEAQzwINAAACgACRCYACCAAChAgAJiAAIZIiIICLAmZGEIAhggAJIyCcQAAAAAAAAAAAAAAAAAAAAAAAAAAAAAAAAAA==

> <PUBCHEM_IUPAC_OPENEYE_NAME>
1-methyl-1-phenyl-guanidine hydrochloride

> <PUBCHEM_IUPAC_CAS_NAME>
1-methyl-1-phenylguanidine hydrochloride

> <PUBCHEM_IUPAC_NAME>
1-methyl-1-phenylguanidine hydrochloride

> <PUBCHEM_IUPAC_SYSTEMATIC_NAME>
1-methyl-1-phenyl-guanidine hydrochloride

> <PUBCHEM_IUPAC_TRADITIONAL_NAME>
1-methyl-1-phenyl-guanidine hydrochloride

> <PUBCHEM_IUPAC_INCHI>
InChI=1S/C8H11N3.ClH/c1-11(8(9)10)7-5-3-2-4-6-7;/h2-6H,1H3,(H3,9,10);1H

> <PUBCHEM_IUPAC_INCHIKEY>
LSURDYUWSFVYOI-UHFFFAOYSA-N

> <PUBCHEM_EXACT_MASS>
185.071975

> <PUBCHEM_MOLECULAR_FORMULA>
C8H12ClN3

> <PUBCHEM_MOLECULAR_WEIGHT>
185.65398

> <PUBCHEM_OPENEYE_CAN_SMILES>
CN(C1=CC=CC=C1)C(=N)N.Cl

> <PUBCHEM_OPENEYE_ISO_SMILES>
CN(C1=CC=CC=C1)C(=N)N.Cl

> <PUBCHEM_CACTVS_TPSA>
53.1

> <PUBCHEM_MONOISOTOPIC_WEIGHT>
185.071975

> <PUBCHEM_TOTAL_CHARGE>
0

> <PUBCHEM_HEAVY_ATOM_COUNT>
12

> <PUBCHEM_ATOM_DEF_STEREO_COUNT>
0

> <PUBCHEM_ATOM_UDEF_STEREO_COUNT>
0

> <PUBCHEM_BOND_DEF_STEREO_COUNT>
0

> <PUBCHEM_BOND_UDEF_STEREO_COUNT>
0

> <PUBCHEM_ISOTOPIC_ATOM_COUNT>
0

> <PUBCHEM_COMPONENT_COUNT>
2

> <PUBCHEM_CACTVS_TAUTO_COUNT>
1

> <PUBCHEM_COORDINATE_TYPE>
1
5
255

> <PUBCHEM_BONDANNOTATIONS>
10  12  8
11  12  8
5  6  8
5  7  8
6  10  8
7  11  8

$$$$

