3348
  -OEChem-07051212522D

 76 79  0     1  0  0  0  0  0999 V2000
    4.1350    4.5600    0.0000 O   0  0  0  0  0  0  0  0  0  0  0  0
    2.5369   -0.9400    0.0000 O   0  0  0  0  0  0  0  0  0  0  0  0
    2.5369   -6.9400    0.0000 O   0  0  0  0  0  0  0  0  0  0  0  0
    4.2690   -6.9400    0.0000 O   0  0  0  0  0  0  0  0  0  0  0  0
    5.1350    1.5600    0.0000 N   0  0  0  0  0  0  0  0  0  0  0  0
    5.1350    3.5600    0.0000 C   0  0  0  0  0  0  0  0  0  0  0  0
    4.2690    3.0600    0.0000 C   0  0  0  0  0  0  0  0  0  0  0  0
    6.0010    3.0600    0.0000 C   0  0  0  0  0  0  0  0  0  0  0  0
    5.1350    4.5600    0.0000 C   0  0  0  0  0  0  0  0  0  0  0  0
    6.0010    2.0600    0.0000 C   0  0  0  0  0  0  0  0  0  0  0  0
    4.2690    2.0600    0.0000 C   0  0  0  0  0  0  0  0  0  0  0  0
    5.1350    0.5600    0.0000 C   0  0  0  0  0  0  0  0  0  0  0  0
    5.1350    5.5600    0.0000 C   0  0  0  0  0  0  0  0  0  0  0  0
    6.1350    4.5600    0.0000 C   0  0  0  0  0  0  0  0  0  0  0  0
    4.2690    0.0600    0.0000 C   0  0  0  0  0  0  0  0  0  0  0  0
    4.2690   -0.9400    0.0000 C   0  0  0  0  0  0  0  0  0  0  0  0
    6.0010    6.0600    0.0000 C   0  0  0  0  0  0  0  0  0  0  0  0
    6.6350    3.6940    0.0000 C   0  0  0  0  0  0  0  0  0  0  0  0
    4.2690    6.0600    0.0000 C   0  0  0  0  0  0  0  0  0  0  0  0
    6.6350    5.4260    0.0000 C   0  0  0  0  0  0  0  0  0  0  0  0
    3.4030   -1.4400    0.0000 C   0  0  3  0  0  0  0  0  0  0  0  0
    7.6350    3.6940    0.0000 C   0  0  0  0  0  0  0  0  0  0  0  0
    6.0010    7.0600    0.0000 C   0  0  0  0  0  0  0  0  0  0  0  0
    7.6350    5.4260    0.0000 C   0  0  0  0  0  0  0  0  0  0  0  0
    4.2690    7.0600    0.0000 C   0  0  0  0  0  0  0  0  0  0  0  0
    3.4030   -2.4400    0.0000 C   0  0  0  0  0  0  0  0  0  0  0  0
    8.1350    4.5600    0.0000 C   0  0  0  0  0  0  0  0  0  0  0  0
    5.1350    7.5600    0.0000 C   0  0  0  0  0  0  0  0  0  0  0  0
    2.5369   -2.9400    0.0000 C   0  0  0  0  0  0  0  0  0  0  0  0
    4.2690   -2.9400    0.0000 C   0  0  0  0  0  0  0  0  0  0  0  0
    3.4030   -5.4400    0.0000 C   0  0  0  0  0  0  0  0  0  0  0  0
    3.4030   -4.4400    0.0000 C   0  0  0  0  0  0  0  0  0  0  0  0
    2.5369   -3.9400    0.0000 C   0  0  0  0  0  0  0  0  0  0  0  0
    4.2690   -3.9400    0.0000 C   0  0  0  0  0  0  0  0  0  0  0  0
    2.4030   -5.4400    0.0000 C   0  0  0  0  0  0  0  0  0  0  0  0
    4.4030   -5.4400    0.0000 C   0  0  0  0  0  0  0  0  0  0  0  0
    3.4030   -6.4400    0.0000 C   0  0  0  0  0  0  0  0  0  0  0  0
    5.6720    3.8700    0.0000 H   0  0  0  0  0  0  0  0  0  0  0  0
    4.0569    3.6426    0.0000 H   0  0  0  0  0  0  0  0  0  0  0  0
    6.6116    2.9523    0.0000 H   0  0  0  0  0  0  0  0  0  0  0  0
    6.2131    3.6426    0.0000 H   0  0  0  0  0  0  0  0  0  0  0  0
    3.6584    2.9523    0.0000 H   0  0  0  0  0  0  0  0  0  0  0  0
    6.2131    1.4774    0.0000 H   0  0  0  0  0  0  0  0  0  0  0  0
    6.6116    2.1677    0.0000 H   0  0  0  0  0  0  0  0  0  0  0  0
    3.6584    2.1677    0.0000 H   0  0  0  0  0  0  0  0  0  0  0  0
    4.0569    1.4774    0.0000 H   0  0  0  0  0  0  0  0  0  0  0  0
    5.3471   -0.0226    0.0000 H   0  0  0  0  0  0  0  0  0  0  0  0
    5.7456    0.6677    0.0000 H   0  0  0  0  0  0  0  0  0  0  0  0
    4.0569    0.6426    0.0000 H   0  0  0  0  0  0  0  0  0  0  0  0
    3.6584   -0.0477    0.0000 H   0  0  0  0  0  0  0  0  0  0  0  0
    3.8250    5.0969    0.0000 H   0  0  0  0  0  0  0  0  0  0  0  0
    4.4810   -1.5226    0.0000 H   0  0  0  0  0  0  0  0  0  0  0  0
    4.8796   -0.8323    0.0000 H   0  0  0  0  0  0  0  0  0  0  0  0
    6.5380    5.7500    0.0000 H   0  0  0  0  0  0  0  0  0  0  0  0
    6.3250    3.1570    0.0000 H   0  0  0  0  0  0  0  0  0  0  0  0
    3.7320    5.7500    0.0000 H   0  0  0  0  0  0  0  0  0  0  0  0
    6.3250    5.9630    0.0000 H   0  0  0  0  0  0  0  0  0  0  0  0
    2.8660   -1.7500    0.0000 H   0  0  0  0  0  0  0  0  0  0  0  0
    6.5380    7.3700    0.0000 H   0  0  0  0  0  0  0  0  0  0  0  0
    7.9450    3.1570    0.0000 H   0  0  0  0  0  0  0  0  0  0  0  0
    7.9450    5.9630    0.0000 H   0  0  0  0  0  0  0  0  0  0  0  0
    3.7320    7.3700    0.0000 H   0  0  0  0  0  0  0  0  0  0  0  0
    5.1350    8.1800    0.0000 H   0  0  0  0  0  0  0  0  0  0  0  0
    8.7550    4.5600    0.0000 H   0  0  0  0  0  0  0  0  0  0  0  0
    2.0000   -1.2500    0.0000 H   0  0  0  0  0  0  0  0  0  0  0  0
    2.0000   -2.6300    0.0000 H   0  0  0  0  0  0  0  0  0  0  0  0
    4.8059   -2.6300    0.0000 H   0  0  0  0  0  0  0  0  0  0  0  0
    2.0000   -4.2500    0.0000 H   0  0  0  0  0  0  0  0  0  0  0  0
    4.8059   -4.2500    0.0000 H   0  0  0  0  0  0  0  0  0  0  0  0
    2.4030   -4.8200    0.0000 H   0  0  0  0  0  0  0  0  0  0  0  0
    1.7830   -5.4400    0.0000 H   0  0  0  0  0  0  0  0  0  0  0  0
    2.4030   -6.0600    0.0000 H   0  0  0  0  0  0  0  0  0  0  0  0
    4.4030   -6.0600    0.0000 H   0  0  0  0  0  0  0  0  0  0  0  0
    5.0230   -5.4400    0.0000 H   0  0  0  0  0  0  0  0  0  0  0  0
    4.4030   -4.8200    0.0000 H   0  0  0  0  0  0  0  0  0  0  0  0
    2.5369   -7.5600    0.0000 H   0  0  0  0  0  0  0  0  0  0  0  0
  1  9  1  0  0  0  0
  1 51  1  0  0  0  0
  2 21  1  0  0  0  0
  2 65  1  0  0  0  0
  3 37  1  0  0  0  0
  3 76  1  0  0  0  0
  4 37  2  0  0  0  0
  5 10  1  0  0  0  0
  5 11  1  0  0  0  0
  5 12  1  0  0  0  0
  6  7  1  0  0  0  0
  6  8  1  0  0  0  0
  6  9  1  0  0  0  0
  6 38  1  0  0  0  0
  7 11  1  0  0  0  0
  7 39  1  0  0  0  0
  7 42  1  0  0  0  0
  8 10  1  0  0  0  0
  8 40  1  0  0  0  0
  8 41  1  0  0  0  0
  9 13  1  0  0  0  0
  9 14  1  0  0  0  0
 10 43  1  0  0  0  0
 10 44  1  0  0  0  0
 11 45  1  0  0  0  0
 11 46  1  0  0  0  0
 12 15  1  0  0  0  0
 12 47  1  0  0  0  0
 12 48  1  0  0  0  0
 13 17  2  0  0  0  0
 13 19  1  0  0  0  0
 14 18  2  0  0  0  0
 14 20  1  0  0  0  0
 15 16  1  0  0  0  0
 15 49  1  0  0  0  0
 15 50  1  0  0  0  0
 16 21  1  0  0  0  0
 16 52  1  0  0  0  0
 16 53  1  0  0  0  0
 17 23  1  0  0  0  0
 17 54  1  0  0  0  0
 18 22  1  0  0  0  0
 18 55  1  0  0  0  0
 19 25  2  0  0  0  0
 19 56  1  0  0  0  0
 20 24  2  0  0  0  0
 20 57  1  0  0  0  0
 21 26  1  0  0  0  0
 21 58  1  0  0  0  0
 22 27  2  0  0  0  0
 22 60  1  0  0  0  0
 23 28  2  0  0  0  0
 23 59  1  0  0  0  0
 24 27  1  0  0  0  0
 24 61  1  0  0  0  0
 25 28  1  0  0  0  0
 25 62  1  0  0  0  0
 26 29  2  0  0  0  0
 26 30  1  0  0  0  0
 27 64  1  0  0  0  0
 28 63  1  0  0  0  0
 29 33  1  0  0  0  0
 29 66  1  0  0  0  0
 30 34  2  0  0  0  0
 30 67  1  0  0  0  0
 31 32  1  0  0  0  0
 31 35  1  0  0  0  0
 31 36  1  0  0  0  0
 31 37  1  0  0  0  0
 32 33  2  0  0  0  0
 32 34  1  0  0  0  0
 33 68  1  0  0  0  0
 34 69  1  0  0  0  0
 35 70  1  0  0  0  0
 35 71  1  0  0  0  0
 35 72  1  0  0  0  0
 36 73  1  0  0  0  0
 36 74  1  0  0  0  0
 36 75  1  0  0  0  0
M  END
> <PUBCHEM_COMPOUND_CID>
3348

> <PUBCHEM_COMPOUND_CANONICALIZED>
1

> <PUBCHEM_CACTVS_COMPLEXITY>
678

> <PUBCHEM_CACTVS_HBOND_ACCEPTOR>
5

> <PUBCHEM_CACTVS_HBOND_DONOR>
3

> <PUBCHEM_CACTVS_ROTATABLE_BOND>
10

> <PUBCHEM_CACTVS_SUBSKEYS>
AAADcfB+OAAAAAAAAAAAAAAAAAAAAAAAAAA8YMEAAAAAAAABUAAAHgAACAAAD1ThmAYyCIMAAgCIAiDSCAACAAAgAAAIiAEICIgINjKAlRCEcAAkwAGImAe4yPCPwAAAAAAAAACAAAAAAAAAAAAAAAAAAA==

> <PUBCHEM_IUPAC_OPENEYE_NAME>
2-[4-[1-hydroxy-4-[4-[hydroxy(diphenyl)methyl]-1-piperidyl]butyl]phenyl]-2-methyl-propanoic acid

> <PUBCHEM_IUPAC_CAS_NAME>
2-[4-[1-hydroxy-4-[4-[hydroxy(diphenyl)methyl]-1-piperidinyl]butyl]phenyl]-2-methylpropanoic acid

> <PUBCHEM_IUPAC_NAME>
2-[4-[1-hydroxy-4-[4-[hydroxy(diphenyl)methyl]piperidin-1-yl]butyl]phenyl]-2-methylpropanoic acid

> <PUBCHEM_IUPAC_SYSTEMATIC_NAME>
2-methyl-2-[4-[1-oxidanyl-4-[4-[oxidanyl(diphenyl)methyl]piperidin-1-yl]butyl]phenyl]propanoic acid

> <PUBCHEM_IUPAC_TRADITIONAL_NAME>
2-[4-[1-hydroxy-4-[4-[hydroxy(diphenyl)methyl]piperidino]butyl]phenyl]-2-methyl-propionic acid

> <PUBCHEM_IUPAC_INCHI>
InChI=1S/C32H39NO4/c1-31(2,30(35)36)25-17-15-24(16-18-25)29(34)14-9-21-33-22-19-28(20-23-33)32(37,26-10-5-3-6-11-26)27-12-7-4-8-13-27/h3-8,10-13,15-18,28-29,34,37H,9,14,19-23H2,1-2H3,(H,35,36)

> <PUBCHEM_IUPAC_INCHIKEY>
RWTNPBWLLIMQHL-UHFFFAOYSA-N

> <PUBCHEM_XLOGP3_AA>
3

> <PUBCHEM_EXACT_MASS>
501.287909

> <PUBCHEM_MOLECULAR_FORMULA>
C32H39NO4

> <PUBCHEM_MOLECULAR_WEIGHT>
501.65636

> <PUBCHEM_OPENEYE_CAN_SMILES>
CC(C)(C1=CC=C(C=C1)C(CCCN2CCC(CC2)C(C3=CC=CC=C3)(C4=CC=CC=C4)O)O)C(=O)O

> <PUBCHEM_OPENEYE_ISO_SMILES>
CC(C)(C1=CC=C(C=C1)C(CCCN2CCC(CC2)C(C3=CC=CC=C3)(C4=CC=CC=C4)O)O)C(=O)O

> <PUBCHEM_CACTVS_TPSA>
81

> <PUBCHEM_MONOISOTOPIC_WEIGHT>
501.287909

> <PUBCHEM_TOTAL_CHARGE>
0

> <PUBCHEM_HEAVY_ATOM_COUNT>
37

> <PUBCHEM_ATOM_DEF_STEREO_COUNT>
0

> <PUBCHEM_ATOM_UDEF_STEREO_COUNT>
1

> <PUBCHEM_BOND_DEF_STEREO_COUNT>
0

> <PUBCHEM_BOND_UDEF_STEREO_COUNT>
0

> <PUBCHEM_ISOTOPIC_ATOM_COUNT>
0

> <PUBCHEM_COMPONENT_COUNT>
1

> <PUBCHEM_CACTVS_TAUTO_COUNT>
1

> <PUBCHEM_COORDINATE_TYPE>
1
5
255

> <PUBCHEM_BONDANNOTATIONS>
13  17  8
13  19  8
14  18  8
14  20  8
17  23  8
18  22  8
19  25  8
21  2  3
20  24  8
22  27  8
23  28  8
24  27  8
25  28  8
26  29  8
26  30  8
29  33  8
30  34  8
32  33  8
32  34  8

$$$$

