13350
  -OEChem-06261209132D

 15 13  0     1  0  0  0  0  0999 V2000
    2.0190    0.0000    0.0000 Cl  0  5  0  0  0  0  0  0  0  0  0  0
    2.2690    2.5000    0.0000 F   0  0  0  0  0  0  0  0  0  0  0  0
    4.0010    3.5000    0.0000 O   0  0  0  0  0  0  0  0  0  0  0  0
    3.1350    5.0000    0.0000 O   0  0  0  0  0  0  0  0  0  0  0  0
    0.5369    3.5000    0.0000 N   0  3  0  0  0  0  0  0  0  0  0  0
    1.4030    4.0000    0.0000 C   0  0  0  0  0  0  0  0  0  0  0  0
    2.2690    3.5000    0.0000 C   0  0  3  0  0  0  0  0  0  0  0  0
    3.1350    4.0000    0.0000 C   0  0  0  0  0  0  0  0  0  0  0  0
    1.8015    4.4750    0.0000 H   0  0  0  0  0  0  0  0  0  0  0  0
    1.0044    4.4750    0.0000 H   0  0  0  0  0  0  0  0  0  0  0  0
    2.8059    3.1900    0.0000 H   0  0  0  0  0  0  0  0  0  0  0  0
    0.0000    3.1900    0.0000 H   0  0  0  0  0  0  0  0  0  0  0  0
    0.2269    4.0369    0.0000 H   0  0  0  0  0  0  0  0  0  0  0  0
    0.8469    2.9631    0.0000 H   0  0  0  0  0  0  0  0  0  0  0  0
    4.5380    3.8100    0.0000 H   0  0  0  0  0  0  0  0  0  0  0  0
  2  7  1  0  0  0  0
  3  8  1  0  0  0  0
  3 15  1  0  0  0  0
  4  8  2  0  0  0  0
  5  6  1  0  0  0  0
  5 12  1  0  0  0  0
  5 13  1  0  0  0  0
  5 14  1  0  0  0  0
  6  7  1  0  0  0  0
  6  9  1  0  0  0  0
  6 10  1  0  0  0  0
  7  8  1  0  0  0  0
  7 11  1  0  0  0  0
M  CHG  2   1  -1   5   1
M  END
> <PUBCHEM_COMPOUND_CID>
13350

> <PUBCHEM_COMPOUND_CANONICALIZED>
1

> <PUBCHEM_CACTVS_COMPLEXITY>
75.3

> <PUBCHEM_CACTVS_HBOND_ACCEPTOR>
4

> <PUBCHEM_CACTVS_HBOND_DONOR>
2

> <PUBCHEM_CACTVS_ROTATABLE_BOND>
2

> <PUBCHEM_CACTVS_SUBSKEYS>
AAADcYBCMQAEAAAAAAAAAAAAAAAAAAAAAAAAAAAAAAAAAAAAAAAAHwAQCAAACADBgAQACABAAgAIAACQCAAAAAAAAAAAAIEAAAAAAAgAAAAAQAACEAAAAAAAAAAAAAAAAAAAAAAAAAAAAAAAAAAAAAAAAA==

> <PUBCHEM_IUPAC_OPENEYE_NAME>
(2-carboxy-2-fluoro-ethyl)ammonium chloride

> <PUBCHEM_IUPAC_CAS_NAME>
(2-carboxy-2-fluoroethyl)ammonium chloride

> <PUBCHEM_IUPAC_NAME>
(2-carboxy-2-fluoroethyl)azanium chloride

> <PUBCHEM_IUPAC_SYSTEMATIC_NAME>
(2-fluoranyl-3-oxidanyl-3-oxidanylidene-propyl)azanium chloride

> <PUBCHEM_IUPAC_TRADITIONAL_NAME>
(2-carboxy-2-fluoro-ethyl)ammonium chloride

> <PUBCHEM_IUPAC_INCHI>
InChI=1S/C3H6FNO2.ClH/c4-2(1-5)3(6)7;/h2H,1,5H2,(H,6,7);1H

> <PUBCHEM_IUPAC_INCHIKEY>
CVYOZQFAVJXJTK-UHFFFAOYSA-N

> <PUBCHEM_EXACT_MASS>
143.014934

> <PUBCHEM_MOLECULAR_FORMULA>
C3H7ClFNO2

> <PUBCHEM_MOLECULAR_WEIGHT>
143.544583

> <PUBCHEM_OPENEYE_CAN_SMILES>
C(C(C(=O)O)F)[NH3+].[Cl-]

> <PUBCHEM_OPENEYE_ISO_SMILES>
C(C(C(=O)O)F)[NH3+].[Cl-]

> <PUBCHEM_CACTVS_TPSA>
64.9

> <PUBCHEM_MONOISOTOPIC_WEIGHT>
143.014934

> <PUBCHEM_TOTAL_CHARGE>
0

> <PUBCHEM_HEAVY_ATOM_COUNT>
8

> <PUBCHEM_ATOM_DEF_STEREO_COUNT>
0

> <PUBCHEM_ATOM_UDEF_STEREO_COUNT>
1

> <PUBCHEM_BOND_DEF_STEREO_COUNT>
0

> <PUBCHEM_BOND_UDEF_STEREO_COUNT>
0

> <PUBCHEM_ISOTOPIC_ATOM_COUNT>
0

> <PUBCHEM_COMPONENT_COUNT>
2

> <PUBCHEM_CACTVS_TAUTO_COUNT>
1

> <PUBCHEM_COORDINATE_TYPE>
1
5
255

> <PUBCHEM_BONDANNOTATIONS>
7  2  3

$$$$

