152266
  -OEChem-07051213053D

 54 57  0     1  0  0  0  0  0999 V2000
    1.5054   -1.7257    1.5432 O   0  0  0  0  0  0  0  0  0  0  0  0
    5.4384    0.0089   -0.8300 O   0  0  0  0  0  0  0  0  0  0  0  0
   -6.1400   -0.3598    0.9585 O   0  0  0  0  0  0  0  0  0  0  0  0
    2.2464   -0.1419   -0.1617 C   0  0  2  0  0  0  0  0  0  0  0  0
    1.3643    0.9915    0.4141 C   0  0  2  0  0  0  0  0  0  0  0  0
   -0.0317    1.0423   -0.2180 C   0  0  1  0  0  0  0  0  0  0  0  0
   -0.7520   -0.3213    0.0247 C   0  0  1  0  0  0  0  0  0  0  0  0
    1.5625   -1.4918    0.1357 C   0  0  2  0  0  0  0  0  0  0  0  0
   -2.2198   -0.3499   -0.5551 C   0  0  2  0  0  0  0  0  0  0  0  0
    3.5508    0.1462    0.6210 C   0  0  2  0  0  0  0  0  0  0  0  0
    0.1255   -1.5252   -0.4265 C   0  0  0  0  0  0  0  0  0  0  0  0
    2.2584    2.2244    0.3162 C   0  0  0  0  0  0  0  0  0  0  0  0
    3.6672    1.6845    0.6182 C   0  0  0  0  0  0  0  0  0  0  0  0
   -0.8664    2.1898    0.3656 C   0  0  0  0  0  0  0  0  0  0  0  0
    2.4873   -0.0188   -1.6922 C   0  0  0  0  0  0  0  0  0  0  0  0
   -2.9780    0.9016   -0.0938 C   0  0  0  0  0  0  0  0  0  0  0  0
   -2.2614    2.2223   -0.2447 C   0  0  0  0  0  0  0  0  0  0  0  0
   -2.9310   -1.6284   -0.0225 C   0  0  0  0  0  0  0  0  0  0  0  0
   -2.2311   -0.3782   -2.1004 C   0  0  0  0  0  0  0  0  0  0  0  0
    4.7657   -0.5202    0.0535 C   0  0  0  0  0  0  0  0  0  0  0  0
   -4.4425   -1.5994   -0.1871 C   0  0  0  0  0  0  0  0  0  0  0  0
   -4.2259    0.8836    0.4038 C   0  0  0  0  0  0  0  0  0  0  0  0
   -5.0168   -0.3668    0.4587 C   0  0  0  0  0  0  0  0  0  0  0  0
    5.1247   -1.8677    0.6189 C   0  0  0  0  0  0  0  0  0  0  0  0
    1.2166    0.8128    1.4918 H   0  0  0  0  0  0  0  0  0  0  0  0
    0.0671    1.2217   -1.2940 H   0  0  0  0  0  0  0  0  0  0  0  0
   -0.8511   -0.4172    1.1182 H   0  0  0  0  0  0  0  0  0  0  0  0
    2.1255   -2.3215   -0.3065 H   0  0  0  0  0  0  0  0  0  0  0  0
    3.4623   -0.1563    1.6720 H   0  0  0  0  0  0  0  0  0  0  0  0
   -0.3437   -2.4551   -0.0859 H   0  0  0  0  0  0  0  0  0  0  0  0
    0.1688   -1.5722   -1.5188 H   0  0  0  0  0  0  0  0  0  0  0  0
    1.9699    3.0001    1.0327 H   0  0  0  0  0  0  0  0  0  0  0  0
    2.2226    2.6686   -0.6846 H   0  0  0  0  0  0  0  0  0  0  0  0
    4.3802    2.0776   -0.1140 H   0  0  0  0  0  0  0  0  0  0  0  0
    4.0046    2.0327    1.6018 H   0  0  0  0  0  0  0  0  0  0  0  0
   -0.3764    3.1509    0.1713 H   0  0  0  0  0  0  0  0  0  0  0  0
   -0.9420    2.0860    1.4559 H   0  0  0  0  0  0  0  0  0  0  0  0
    3.0284    0.8936   -1.9621 H   0  0  0  0  0  0  0  0  0  0  0  0
    3.0764   -0.8668   -2.0602 H   0  0  0  0  0  0  0  0  0  0  0  0
    1.5586   -0.0138   -2.2684 H   0  0  0  0  0  0  0  0  0  0  0  0
   -2.1896    2.4682   -1.3114 H   0  0  0  0  0  0  0  0  0  0  0  0
   -2.8280    3.0386    0.2202 H   0  0  0  0  0  0  0  0  0  0  0  0
   -2.7093   -1.7513    1.0470 H   0  0  0  0  0  0  0  0  0  0  0  0
   -2.5456   -2.5241   -0.5239 H   0  0  0  0  0  0  0  0  0  0  0  0
   -1.6245    0.4227   -2.5345 H   0  0  0  0  0  0  0  0  0  0  0  0
   -1.8484   -1.3276   -2.4893 H   0  0  0  0  0  0  0  0  0  0  0  0
   -3.2458   -0.2579   -2.4976 H   0  0  0  0  0  0  0  0  0  0  0  0
    2.3885   -2.0113    1.8310 H   0  0  0  0  0  0  0  0  0  0  0  0
   -4.8735   -2.4807    0.3011 H   0  0  0  0  0  0  0  0  0  0  0  0
   -4.7381   -1.6153   -1.2408 H   0  0  0  0  0  0  0  0  0  0  0  0
   -4.7251    1.7893    0.7318 H   0  0  0  0  0  0  0  0  0  0  0  0
    5.2267   -1.7995    1.7048 H   0  0  0  0  0  0  0  0  0  0  0  0
    4.3614   -2.6016    0.3557 H   0  0  0  0  0  0  0  0  0  0  0  0
    6.0821   -2.1936    0.2023 H   0  0  0  0  0  0  0  0  0  0  0  0
  1  8  1  0  0  0  0
  1 48  1  0  0  0  0
  2 20  2  0  0  0  0
  3 23  2  0  0  0  0
  4  5  1  0  0  0  0
  4  8  1  0  0  0  0
  4 10  1  0  0  0  0
  4 15  1  0  0  0  0
  5  6  1  0  0  0  0
  5 12  1  0  0  0  0
  5 25  1  0  0  0  0
  6  7  1  0  0  0  0
  6 14  1  0  0  0  0
  6 26  1  0  0  0  0
  7  9  1  0  0  0  0
  7 11  1  0  0  0  0
  7 27  1  0  0  0  0
  8 11  1  0  0  0  0
  8 28  1  0  0  0  0
  9 16  1  0  0  0  0
  9 18  1  0  0  0  0
  9 19  1  0  0  0  0
 10 13  1  0  0  0  0
 10 20  1  0  0  0  0
 10 29  1  0  0  0  0
 11 30  1  0  0  0  0
 11 31  1  0  0  0  0
 12 13  1  0  0  0  0
 12 32  1  0  0  0  0
 12 33  1  0  0  0  0
 13 34  1  0  0  0  0
 13 35  1  0  0  0  0
 14 17  1  0  0  0  0
 14 36  1  0  0  0  0
 14 37  1  0  0  0  0
 15 38  1  0  0  0  0
 15 39  1  0  0  0  0
 15 40  1  0  0  0  0
 16 17  1  0  0  0  0
 16 22  2  0  0  0  0
 17 41  1  0  0  0  0
 17 42  1  0  0  0  0
 18 21  1  0  0  0  0
 18 43  1  0  0  0  0
 18 44  1  0  0  0  0
 19 45  1  0  0  0  0
 19 46  1  0  0  0  0
 19 47  1  0  0  0  0
 20 24  1  0  0  0  0
 21 23  1  0  0  0  0
 21 49  1  0  0  0  0
 21 50  1  0  0  0  0
 22 23  1  0  0  0  0
 22 51  1  0  0  0  0
 24 52  1  0  0  0  0
 24 53  1  0  0  0  0
 24 54  1  0  0  0  0
M  END
> <PUBCHEM_COMPOUND_CID>
152266

> <PUBCHEM_CONFORMER_RMSD>
0.6

> <PUBCHEM_CONFORMER_DIVERSEORDER>
1
2

> <PUBCHEM_MMFF94_PARTIAL_CHARGES>
15
1 -0.68
10 0.06
16 -0.28
17 0.14
2 -0.57
20 0.45
21 0.06
22 -0.14
23 0.49
24 0.06
3 -0.57
48 0.4
51 0.15
8 0.28
9 0.14

> <PUBCHEM_EFFECTIVE_ROTOR_COUNT>
2.8

> <PUBCHEM_PHARMACOPHORE_FEATURES>
8
1 1 acceptor
1 1 donor
1 2 acceptor
1 3 acceptor
5 4 5 10 12 13 rings
6 4 5 6 7 8 11 rings
6 6 7 9 14 16 17 rings
6 9 16 18 21 22 23 rings

> <PUBCHEM_HEAVY_ATOM_COUNT>
24

> <PUBCHEM_ATOM_DEF_STEREO_COUNT>
7

> <PUBCHEM_ATOM_UDEF_STEREO_COUNT>
0

> <PUBCHEM_BOND_DEF_STEREO_COUNT>
0

> <PUBCHEM_BOND_UDEF_STEREO_COUNT>
0

> <PUBCHEM_ISOTOPIC_ATOM_COUNT>
0

> <PUBCHEM_COMPONENT_COUNT>
1

> <PUBCHEM_CACTVS_TAUTO_COUNT>
15

> <PUBCHEM_CONFORMER_ID>
000252CA00000001

> <PUBCHEM_MMFF94_ENERGY>
76.2613

> <PUBCHEM_FEATURE_SELFOVERLAP>
40.689

> <PUBCHEM_SHAPE_FINGERPRINT>
10366900 7 17846779598331411897
11578080 2 17058098954324341839
12011746 2 18410296909059950397
12166972 35 17847056679736154284
12236239 1 17989202672435259468
12403259 226 18411146839627212736
12403259 415 18201729431005014900
12553582 1 18338530689339356449
12592029 89 18187361069146457446
12596599 1 17896298265078750379
12633257 1 16805325457256696129
12788726 201 17386271134775650792
13140716 1 18263928743589916251
13224815 77 18410300185381720157
13583140 156 18341906233329284429
13675066 3 17967257472627623256
13862211 1 18409173211770145703
14223421 5 18339081600589156877
14341114 176 18410854360806529152
14787075 74 18343300331909554905
15196674 1 18408606928848171729
15209289 33 18342177769224131666
15788980 27 18273498978676227903
16945 1 18341629121522342476
17349148 13 17632294596762910336
1813 80 17632298943254418701
18186145 218 18271818890865901908
19141452 34 17603866672314150871
19591789 44 18409170974039307026
200 152 17989487428919860963
20028762 73 18114187406070981422
20261772 1 18186524288967481327
21267235 1 18410285921742504691
21421861 104 18128820926667980419
22182313 1 17677322965027186964
23402539 116 18259711085784476134
23522609 53 18122592107345191320
23557571 272 18187076286664789452
23559900 14 18410300189676960416
2871803 45 18342185440188592525
296302 2 7420947577686642397
3286 77 18341898485023510004
335352 9 18408886256768522101
34934 24 18408328770250728373
350125 39 18410571803366541776
4214541 1 18409167740166407465
465052 167 18411694379037087314
5104073 3 18261114045283205720
633830 44 18336835199612555932
7097593 13 17696484249012799059

> <PUBCHEM_SHAPE_MULTIPOLES>
476.3
11.06
2.22
1.15
1.47
0.59
0.42
-2.87
-1.87
-0.31
-0.35
-0.02
-0.23
-0.19

> <PUBCHEM_SHAPE_SELFOVERLAP>
1021.406

> <PUBCHEM_SHAPE_VOLUME>
261.6

> <PUBCHEM_COORDINATE_TYPE>
2
5
10

$$$$

