12443148
  -OEChem-07051213092D

 82 86  0     1  0  0  0  0  0999 V2000
    6.1847   -3.4047    0.0000 O   0  0  0  0  0  0  0  0  0  0  0  0
    2.5357   -2.3878    0.0000 O   0  0  0  0  0  0  0  0  0  0  0  0
   11.4608    0.6987    0.0000 O   0  0  0  0  0  0  0  0  0  0  0  0
   10.6064   -0.8079    0.0000 O   0  0  0  0  0  0  0  0  0  0  0  0
    7.0628   -0.8354    0.0000 C   0  0  2  0  0  0  0  0  0  0  0  0
    6.1968   -0.3354    0.0000 C   0  0  1  0  0  0  0  0  0  0  0  0
    5.2868   -0.8423    0.0000 C   0  0  2  0  0  0  0  0  0  0  0  0
    7.9288   -0.3354    0.0000 C   0  0  1  0  0  0  0  0  0  0  0  0
    5.2787   -1.8839    0.0000 C   0  0  1  0  0  0  0  0  0  0  0  0
    7.0789   -1.8769    0.0000 C   0  0  0  0  0  0  0  0  0  0  0  0
    6.1808   -2.4047    0.0000 C   0  0  1  0  0  0  0  0  0  0  0  0
    7.9288    0.6646    0.0000 C   0  0  0  0  0  0  0  0  0  0  0  0
    4.3433   -2.4336    0.0000 C   0  0  0  0  0  0  0  0  0  0  0  0
    8.8228    1.1992    0.0000 C   0  0  1  0  0  0  0  0  0  0  0  0
    6.1968    0.6646    0.0000 C   0  0  0  0  0  0  0  0  0  0  0  0
    4.3599   -0.2782    0.0000 C   0  0  0  0  0  0  0  0  0  0  0  0
    8.8228   -0.8701    0.0000 C   0  0  0  0  0  0  0  0  0  0  0  0
    9.7288    0.6854    0.0000 C   0  0  1  0  0  0  0  0  0  0  0  0
    7.7056   -1.6015    0.0000 C   0  0  0  0  0  0  0  0  0  0  0  0
    9.7288   -0.3562    0.0000 C   0  0  0  0  0  0  0  0  0  0  0  0
    3.4037   -1.8911    0.0000 C   0  0  2  0  0  0  0  0  0  0  0  0
    5.2945    0.1577    0.0000 C   0  0  0  0  0  0  0  0  0  0  0  0
    7.0628    1.1646    0.0000 C   0  0  0  0  0  0  0  0  0  0  0  0
    3.4120   -0.8061    0.0000 C   0  0  0  0  0  0  0  0  0  0  0  0
    8.2709   -1.2751    0.0000 C   0  0  0  0  0  0  0  0  0  0  0  0
    8.7977    2.2839    0.0000 C   0  0  0  0  0  0  0  0  0  0  0  0
   10.6726    1.2206    0.0000 C   0  0  0  0  0  0  0  0  0  0  0  0
    9.7288    2.8409    0.0000 C   0  0  0  0  0  0  0  0  0  0  0  0
    3.8467   -3.3015    0.0000 C   0  0  0  0  0  0  0  0  0  0  0  0
    4.8466   -3.2977    0.0000 C   0  0  0  0  0  0  0  0  0  0  0  0
   10.6726    2.3056    0.0000 C   0  0  0  0  0  0  0  0  0  0  0  0
   10.5987    0.1921    0.0000 C   0  0  0  0  0  0  0  0  0  0  0  0
   10.2188    3.7126    0.0000 C   0  0  0  0  0  0  0  0  0  0  0  0
    9.2188    3.7010    0.0000 C   0  0  0  0  0  0  0  0  0  0  0  0
    6.9329    0.0896    0.0000 H   0  0  0  0  0  0  0  0  0  0  0  0
    5.2820   -2.7339    0.0000 H   0  0  0  0  0  0  0  0  0  0  0  0
    7.2969   -2.4573    0.0000 H   0  0  0  0  0  0  0  0  0  0  0  0
    7.6880   -1.7614    0.0000 H   0  0  0  0  0  0  0  0  0  0  0  0
    6.7195   -2.7116    0.0000 H   0  0  0  0  0  0  0  0  0  0  0  0
    9.5522    1.6355    0.0000 H   0  0  0  0  0  0  0  0  0  0  0  0
    5.9847    1.2472    0.0000 H   0  0  0  0  0  0  0  0  0  0  0  0
    5.5862    0.5569    0.0000 H   0  0  0  0  0  0  0  0  0  0  0  0
    4.7681    0.1885    0.0000 H   0  0  0  0  0  0  0  0  0  0  0  0
    3.9700    0.2038    0.0000 H   0  0  0  0  0  0  0  0  0  0  0  0
    8.4182   -1.3399    0.0000 H   0  0  0  0  0  0  0  0  0  0  0  0
    9.2164   -1.3491    0.0000 H   0  0  0  0  0  0  0  0  0  0  0  0
    7.2306   -2.0000    0.0000 H   0  0  0  0  0  0  0  0  0  0  0  0
    8.1041   -2.0764    0.0000 H   0  0  0  0  0  0  0  0  0  0  0  0
    8.1805   -1.2029    0.0000 H   0  0  0  0  0  0  0  0  0  0  0  0
    9.9379   -0.9399    0.0000 H   0  0  0  0  0  0  0  0  0  0  0  0
   10.3397   -0.2501    0.0000 H   0  0  0  0  0  0  0  0  0  0  0  0
    3.4025   -2.5111    0.0000 H   0  0  0  0  0  0  0  0  0  0  0  0
    5.9145    0.1529    0.0000 H   0  0  0  0  0  0  0  0  0  0  0  0
    5.2993    0.7777    0.0000 H   0  0  0  0  0  0  0  0  0  0  0  0
    4.6745    0.1625    0.0000 H   0  0  0  0  0  0  0  0  0  0  0  0
    7.0628    1.7846    0.0000 H   0  0  0  0  0  0  0  0  0  0  0  0
    3.2075   -0.2209    0.0000 H   0  0  0  0  0  0  0  0  0  0  0  0
    2.8004   -0.9075    0.0000 H   0  0  0  0  0  0  0  0  0  0  0  0
    7.6884   -1.4872    0.0000 H   0  0  0  0  0  0  0  0  0  0  0  0
    8.4830   -1.8577    0.0000 H   0  0  0  0  0  0  0  0  0  0  0  0
    8.8535   -1.0630    0.0000 H   0  0  0  0  0  0  0  0  0  0  0  0
    8.5752    2.8626    0.0000 H   0  0  0  0  0  0  0  0  0  0  0  0
    8.1894    2.1638    0.0000 H   0  0  0  0  0  0  0  0  0  0  0  0
   10.8817    0.6369    0.0000 H   0  0  0  0  0  0  0  0  0  0  0  0
   11.2835    1.3267    0.0000 H   0  0  0  0  0  0  0  0  0  0  0  0
    3.3085   -2.9936    0.0000 H   0  0  0  0  0  0  0  0  0  0  0  0
    3.5387   -3.8397    0.0000 H   0  0  0  0  0  0  0  0  0  0  0  0
    4.3848   -3.6095    0.0000 H   0  0  0  0  0  0  0  0  0  0  0  0
    4.3109   -3.6098    0.0000 H   0  0  0  0  0  0  0  0  0  0  0  0
    5.1587   -3.8334    0.0000 H   0  0  0  0  0  0  0  0  0  0  0  0
    5.3824   -2.9856    0.0000 H   0  0  0  0  0  0  0  0  0  0  0  0
   11.2835    2.1995    0.0000 H   0  0  0  0  0  0  0  0  0  0  0  0
   10.8817    2.8893    0.0000 H   0  0  0  0  0  0  0  0  0  0  0  0
    6.7228   -3.7126    0.0000 H   0  0  0  0  0  0  0  0  0  0  0  0
    2.0000   -2.0757    0.0000 H   0  0  0  0  0  0  0  0  0  0  0  0
   10.7593    3.4088    0.0000 H   0  0  0  0  0  0  0  0  0  0  0  0
   10.5226    4.2531    0.0000 H   0  0  0  0  0  0  0  0  0  0  0  0
    9.6783    4.0164    0.0000 H   0  0  0  0  0  0  0  0  0  0  0  0
    9.7522    4.0172    0.0000 H   0  0  0  0  0  0  0  0  0  0  0  0
    8.9027    4.2344    0.0000 H   0  0  0  0  0  0  0  0  0  0  0  0
    8.6855    3.3849    0.0000 H   0  0  0  0  0  0  0  0  0  0  0  0
   12.0001    0.3929    0.0000 H   0  0  0  0  0  0  0  0  0  0  0  0
 11  1  1  1  0  0  0
  1 74  1  0  0  0  0
 21  2  1  1  0  0  0
  2 75  1  0  0  0  0
  3 32  1  0  0  0  0
  3 82  1  0  0  0  0
  4 32  2  0  0  0  0
  5  6  1  0  0  0  0
  5  8  1  0  0  0  0
  5 10  1  0  0  0  0
  5 19  1  1  0  0  0
  6  7  1  0  0  0  0
  6 15  1  0  0  0  0
  6 35  1  6  0  0  0
  7  9  1  0  0  0  0
  7 16  1  0  0  0  0
  7 22  1  1  0  0  0
  8 12  1  0  0  0  0
  8 17  1  0  0  0  0
  8 25  1  6  0  0  0
  9 11  1  0  0  0  0
  9 13  1  0  0  0  0
  9 36  1  6  0  0  0
 10 11  1  0  0  0  0
 10 37  1  0  0  0  0
 10 38  1  0  0  0  0
 11 39  1  0  0  0  0
 12 14  1  0  0  0  0
 12 23  2  0  0  0  0
 13 21  1  0  0  0  0
 13 29  1  0  0  0  0
 13 30  1  0  0  0  0
 14 18  1  0  0  0  0
 14 26  1  0  0  0  0
 14 40  1  1  0  0  0
 15 23  1  0  0  0  0
 15 41  1  0  0  0  0
 15 42  1  0  0  0  0
 16 24  1  0  0  0  0
 16 43  1  0  0  0  0
 16 44  1  0  0  0  0
 17 20  1  0  0  0  0
 17 45  1  0  0  0  0
 17 46  1  0  0  0  0
 18 20  1  0  0  0  0
 18 27  1  0  0  0  0
 18 32  1  1  0  0  0
 19 47  1  0  0  0  0
 19 48  1  0  0  0  0
 19 49  1  0  0  0  0
 20 50  1  0  0  0  0
 20 51  1  0  0  0  0
 21 24  1  0  0  0  0
 21 52  1  0  0  0  0
 22 53  1  0  0  0  0
 22 54  1  0  0  0  0
 22 55  1  0  0  0  0
 23 56  1  0  0  0  0
 24 57  1  0  0  0  0
 24 58  1  0  0  0  0
 25 59  1  0  0  0  0
 25 60  1  0  0  0  0
 25 61  1  0  0  0  0
 26 28  1  0  0  0  0
 26 62  1  0  0  0  0
 26 63  1  0  0  0  0
 27 31  1  0  0  0  0
 27 64  1  0  0  0  0
 27 65  1  0  0  0  0
 28 31  1  0  0  0  0
 28 33  1  0  0  0  0
 28 34  1  0  0  0  0
 29 66  1  0  0  0  0
 29 67  1  0  0  0  0
 29 68  1  0  0  0  0
 30 69  1  0  0  0  0
 30 70  1  0  0  0  0
 30 71  1  0  0  0  0
 31 72  1  0  0  0  0
 31 73  1  0  0  0  0
 33 76  1  0  0  0  0
 33 77  1  0  0  0  0
 33 78  1  0  0  0  0
 34 79  1  0  0  0  0
 34 80  1  0  0  0  0
 34 81  1  0  0  0  0
M  END
> <PUBCHEM_COMPOUND_CID>
12443148

> <PUBCHEM_COMPOUND_CANONICALIZED>
1

> <PUBCHEM_CACTVS_COMPLEXITY>
919

> <PUBCHEM_CACTVS_HBOND_ACCEPTOR>
4

> <PUBCHEM_CACTVS_HBOND_DONOR>
3

> <PUBCHEM_CACTVS_ROTATABLE_BOND>
1

> <PUBCHEM_CACTVS_SUBSKEYS>
AAADcfB4OAAAAAAAAAAAAAAAAAAAAAAAAAAwYMGCAAAAAADAAAAAGgAACAAADxSggAICCAAAAgCIAiDSCAAAAAAgAAAACAEAAAgAEBIAAQAAQAAEgAAIAAPIyPCPgAAAAAAAAADAAAYAADAAAAAAAAAAAA==

> <PUBCHEM_IUPAC_OPENEYE_NAME>
(4aS,6aR,6aS,6bR,8R,8aR,10S,12aR,14bS)-8,10-dihydroxy-2,2,6a,6b,9,9,12a-heptamethyl-1,3,4,5,6,6a,7,8,8a,10,11,12,13,14b-tetradecahydropicene-4a-carboxylic acid

> <PUBCHEM_IUPAC_CAS_NAME>
(4aS,6aR,6aS,6bR,8R,8aR,10S,12aR,14bS)-8,10-dihydroxy-2,2,6a,6b,9,9,12a-heptamethyl-1,3,4,5,6,6a,7,8,8a,10,11,12,13,14b-tetradecahydropicene-4a-carboxylic acid

> <PUBCHEM_IUPAC_NAME>
(4aS,6aR,6aS,6bR,8R,8aR,10S,12aR,14bS)-8,10-dihydroxy-2,2,6a,6b,9,9,12a-heptamethyl-1,3,4,5,6,6a,7,8,8a,10,11,12,13,14b-tetradecahydropicene-4a-carboxylic acid

> <PUBCHEM_IUPAC_SYSTEMATIC_NAME>
(4aS,6aR,6aS,6bR,8R,8aR,10S,12aR,14bS)-2,2,6a,6b,9,9,12a-heptamethyl-8,10-bis(oxidanyl)-1,3,4,5,6,6a,7,8,8a,10,11,12,13,14b-tetradecahydropicene-4a-carboxylic acid

> <PUBCHEM_IUPAC_TRADITIONAL_NAME>
(4aS,6aR,6aS,6bR,8R,8aR,10S,12aR,14bS)-8,10-dihydroxy-2,2,6a,6b,9,9,12a-heptamethyl-1,3,4,5,6,6a,7,8,8a,10,11,12,13,14b-tetradecahydropicene-4a-carboxylic acid

> <PUBCHEM_IUPAC_INCHI>
InChI=1S/C30H48O4/c1-25(2)12-14-30(24(33)34)15-13-28(6)18(19(30)16-25)8-9-21-27(5)11-10-22(32)26(3,4)23(27)20(31)17-29(21,28)7/h8,19-23,31-32H,9-17H2,1-7H3,(H,33,34)/t19-,20+,21+,22-,23-,27+,28+,29+,30-/m0/s1

> <PUBCHEM_IUPAC_INCHIKEY>
KLHSKTMVSOWVLD-WPDRYGPBSA-N

> <PUBCHEM_XLOGP3_AA>
6.1

> <PUBCHEM_EXACT_MASS>
472.35526

> <PUBCHEM_MOLECULAR_FORMULA>
C30H48O4

> <PUBCHEM_MOLECULAR_WEIGHT>
472.69972

> <PUBCHEM_OPENEYE_CAN_SMILES>
CC1(CCC2(CCC3(C(=CCC4C3(CC(C5C4(CCC(C5(C)C)O)C)O)C)C2C1)C)C(=O)O)C

> <PUBCHEM_OPENEYE_ISO_SMILES>
C[C@]12CC[C@@H](C([C@@H]1[C@@H](C[C@@]3([C@@H]2CC=C4[C@]3(CC[C@@]5([C@H]4CC(CC5)(C)C)C(=O)O)C)C)O)(C)C)O

> <PUBCHEM_CACTVS_TPSA>
77.8

> <PUBCHEM_MONOISOTOPIC_WEIGHT>
472.35526

> <PUBCHEM_TOTAL_CHARGE>
0

> <PUBCHEM_HEAVY_ATOM_COUNT>
34

> <PUBCHEM_ATOM_DEF_STEREO_COUNT>
9

> <PUBCHEM_ATOM_UDEF_STEREO_COUNT>
0

> <PUBCHEM_BOND_DEF_STEREO_COUNT>
0

> <PUBCHEM_BOND_UDEF_STEREO_COUNT>
0

> <PUBCHEM_ISOTOPIC_ATOM_COUNT>
0

> <PUBCHEM_COMPONENT_COUNT>
1

> <PUBCHEM_CACTVS_TAUTO_COUNT>
1

> <PUBCHEM_COORDINATE_TYPE>
1
5
255

> <PUBCHEM_BONDANNOTATIONS>
11  1  5
14  40  5
18  32  5
21  2  5
5  19  5
6  35  6
7  22  5
8  25  6
9  36  6

$$$$

