13508
  -OEChem-06241222392D

100103  0     0  0  0  0  0  0999 V2000
    7.6200    0.0000    0.0000 Br  0  5  0  0  0  0  0  0  0  0  0  0
    7.6200    2.5000    0.0000 Br  0  5  0  0  0  0  0  0  0  0  0  0
   12.1200    8.6200    0.0000 P   0  3  0  0  0  0  0  0  0  0  0  0
    3.6200   12.9501    0.0000 P   0  3  0  0  0  0  0  0  0  0  0  0
   11.1200    8.6200    0.0000 C   0  0  0  0  0  0  0  0  0  0  0  0
    4.6200   12.9501    0.0000 C   0  0  0  0  0  0  0  0  0  0  0  0
   10.6200    9.4860    0.0000 C   0  0  0  0  0  0  0  0  0  0  0  0
    5.1200   12.0841    0.0000 C   0  0  0  0  0  0  0  0  0  0  0  0
    9.6200    9.4860    0.0000 C   0  0  0  0  0  0  0  0  0  0  0  0
    6.1200   12.0841    0.0000 C   0  0  0  0  0  0  0  0  0  0  0  0
    9.1200   10.3520    0.0000 C   0  0  0  0  0  0  0  0  0  0  0  0
    6.6200   11.2181    0.0000 C   0  0  0  0  0  0  0  0  0  0  0  0
    7.6200   11.2181    0.0000 C   0  0  0  0  0  0  0  0  0  0  0  0
    8.1200   10.3520    0.0000 C   0  0  0  0  0  0  0  0  0  0  0  0
   12.1200    7.6200    0.0000 C   0  0  0  0  0  0  0  0  0  0  0  0
   12.1200    9.6200    0.0000 C   0  0  0  0  0  0  0  0  0  0  0  0
   13.1200    8.6200    0.0000 C   0  0  0  0  0  0  0  0  0  0  0  0
    2.6200   12.9501    0.0000 C   0  0  0  0  0  0  0  0  0  0  0  0
    3.6200   13.9501    0.0000 C   0  0  0  0  0  0  0  0  0  0  0  0
    3.6200   11.9501    0.0000 C   0  0  0  0  0  0  0  0  0  0  0  0
    4.4860   11.4501    0.0000 C   0  0  0  0  0  0  0  0  0  0  0  0
    4.4860   14.4501    0.0000 C   0  0  0  0  0  0  0  0  0  0  0  0
    2.1200   13.8162    0.0000 C   0  0  0  0  0  0  0  0  0  0  0  0
   13.6200    7.7540    0.0000 C   0  0  0  0  0  0  0  0  0  0  0  0
   12.9860   10.1200    0.0000 C   0  0  0  0  0  0  0  0  0  0  0  0
   11.2540    7.1200    0.0000 C   0  0  0  0  0  0  0  0  0  0  0  0
    2.7540   11.4501    0.0000 C   0  0  0  0  0  0  0  0  0  0  0  0
    2.7540   14.4501    0.0000 C   0  0  0  0  0  0  0  0  0  0  0  0
    2.1200   12.0841    0.0000 C   0  0  0  0  0  0  0  0  0  0  0  0
   13.6200    9.4860    0.0000 C   0  0  0  0  0  0  0  0  0  0  0  0
   11.2540   10.1200    0.0000 C   0  0  0  0  0  0  0  0  0  0  0  0
   12.9860    7.1200    0.0000 C   0  0  0  0  0  0  0  0  0  0  0  0
    4.4860   10.4501    0.0000 C   0  0  0  0  0  0  0  0  0  0  0  0
    4.4860   15.4501    0.0000 C   0  0  0  0  0  0  0  0  0  0  0  0
    1.1200   13.8162    0.0000 C   0  0  0  0  0  0  0  0  0  0  0  0
   14.6200    7.7540    0.0000 C   0  0  0  0  0  0  0  0  0  0  0  0
   12.9860   11.1200    0.0000 C   0  0  0  0  0  0  0  0  0  0  0  0
   11.2540    6.1200    0.0000 C   0  0  0  0  0  0  0  0  0  0  0  0
    2.7540   10.4501    0.0000 C   0  0  0  0  0  0  0  0  0  0  0  0
    2.7540   15.4501    0.0000 C   0  0  0  0  0  0  0  0  0  0  0  0
    1.1200   12.0841    0.0000 C   0  0  0  0  0  0  0  0  0  0  0  0
   14.6200    9.4860    0.0000 C   0  0  0  0  0  0  0  0  0  0  0  0
   11.2540   11.1200    0.0000 C   0  0  0  0  0  0  0  0  0  0  0  0
   12.9860    6.1200    0.0000 C   0  0  0  0  0  0  0  0  0  0  0  0
   12.1200    5.6200    0.0000 C   0  0  0  0  0  0  0  0  0  0  0  0
   12.1200   11.6200    0.0000 C   0  0  0  0  0  0  0  0  0  0  0  0
   15.1200    8.6200    0.0000 C   0  0  0  0  0  0  0  0  0  0  0  0
    0.6200   12.9501    0.0000 C   0  0  0  0  0  0  0  0  0  0  0  0
    3.6200   15.9501    0.0000 C   0  0  0  0  0  0  0  0  0  0  0  0
    3.6200    9.9501    0.0000 C   0  0  0  0  0  0  0  0  0  0  0  0
   10.5374    8.4080    0.0000 H   0  0  0  0  0  0  0  0  0  0  0  0
   11.2277    8.0094    0.0000 H   0  0  0  0  0  0  0  0  0  0  0  0
    5.2026   13.1622    0.0000 H   0  0  0  0  0  0  0  0  0  0  0  0
    4.5123   13.5607    0.0000 H   0  0  0  0  0  0  0  0  0  0  0  0
   11.2026    9.6981    0.0000 H   0  0  0  0  0  0  0  0  0  0  0  0
   10.5123   10.0966    0.0000 H   0  0  0  0  0  0  0  0  0  0  0  0
    4.5374   11.8720    0.0000 H   0  0  0  0  0  0  0  0  0  0  0  0
    5.2277   11.4735    0.0000 H   0  0  0  0  0  0  0  0  0  0  0  0
    9.0374    9.2740    0.0000 H   0  0  0  0  0  0  0  0  0  0  0  0
    9.7277    8.8754    0.0000 H   0  0  0  0  0  0  0  0  0  0  0  0
    6.7026   12.2962    0.0000 H   0  0  0  0  0  0  0  0  0  0  0  0
    6.0123   12.6947    0.0000 H   0  0  0  0  0  0  0  0  0  0  0  0
    6.0374   11.0060    0.0000 H   0  0  0  0  0  0  0  0  0  0  0  0
    6.7277   10.6075    0.0000 H   0  0  0  0  0  0  0  0  0  0  0  0
    9.7026   10.5641    0.0000 H   0  0  0  0  0  0  0  0  0  0  0  0
    9.0123   10.9626    0.0000 H   0  0  0  0  0  0  0  0  0  0  0  0
    7.5374   10.1400    0.0000 H   0  0  0  0  0  0  0  0  0  0  0  0
    8.2277    9.7415    0.0000 H   0  0  0  0  0  0  0  0  0  0  0  0
    8.2026   11.4301    0.0000 H   0  0  0  0  0  0  0  0  0  0  0  0
    7.5123   11.8287    0.0000 H   0  0  0  0  0  0  0  0  0  0  0  0
    5.0230   11.7601    0.0000 H   0  0  0  0  0  0  0  0  0  0  0  0
    5.0230   14.1401    0.0000 H   0  0  0  0  0  0  0  0  0  0  0  0
    2.4300   14.3531    0.0000 H   0  0  0  0  0  0  0  0  0  0  0  0
   13.3100    7.2170    0.0000 H   0  0  0  0  0  0  0  0  0  0  0  0
   13.5230    9.8100    0.0000 H   0  0  0  0  0  0  0  0  0  0  0  0
   10.7170    7.4300    0.0000 H   0  0  0  0  0  0  0  0  0  0  0  0
    2.2170   11.7601    0.0000 H   0  0  0  0  0  0  0  0  0  0  0  0
    2.2170   14.1401    0.0000 H   0  0  0  0  0  0  0  0  0  0  0  0
    2.4300   11.5472    0.0000 H   0  0  0  0  0  0  0  0  0  0  0  0
   13.3100   10.0230    0.0000 H   0  0  0  0  0  0  0  0  0  0  0  0
   10.7170    9.8100    0.0000 H   0  0  0  0  0  0  0  0  0  0  0  0
   13.5230    7.4300    0.0000 H   0  0  0  0  0  0  0  0  0  0  0  0
    5.0230   10.1401    0.0000 H   0  0  0  0  0  0  0  0  0  0  0  0
    5.0230   15.7601    0.0000 H   0  0  0  0  0  0  0  0  0  0  0  0
    0.8100   14.3531    0.0000 H   0  0  0  0  0  0  0  0  0  0  0  0
   14.9300    7.2170    0.0000 H   0  0  0  0  0  0  0  0  0  0  0  0
   13.5230   11.4300    0.0000 H   0  0  0  0  0  0  0  0  0  0  0  0
   10.7170    5.8100    0.0000 H   0  0  0  0  0  0  0  0  0  0  0  0
    2.2170   10.1401    0.0000 H   0  0  0  0  0  0  0  0  0  0  0  0
    2.2170   15.7601    0.0000 H   0  0  0  0  0  0  0  0  0  0  0  0
    0.8100   11.5472    0.0000 H   0  0  0  0  0  0  0  0  0  0  0  0
   14.9300   10.0230    0.0000 H   0  0  0  0  0  0  0  0  0  0  0  0
   10.7170   11.4300    0.0000 H   0  0  0  0  0  0  0  0  0  0  0  0
   13.5230    5.8100    0.0000 H   0  0  0  0  0  0  0  0  0  0  0  0
   12.1200    5.0000    0.0000 H   0  0  0  0  0  0  0  0  0  0  0  0
   12.1200   12.2400    0.0000 H   0  0  0  0  0  0  0  0  0  0  0  0
   15.7400    8.6200    0.0000 H   0  0  0  0  0  0  0  0  0  0  0  0
    0.0000   12.9501    0.0000 H   0  0  0  0  0  0  0  0  0  0  0  0
    3.6200   16.5701    0.0000 H   0  0  0  0  0  0  0  0  0  0  0  0
    3.6200    9.3301    0.0000 H   0  0  0  0  0  0  0  0  0  0  0  0
  3  5  1  0  0  0  0
  3 15  1  0  0  0  0
  3 16  1  0  0  0  0
  3 17  1  0  0  0  0
  4  6  1  0  0  0  0
  4 18  1  0  0  0  0
  4 19  1  0  0  0  0
  4 20  1  0  0  0  0
  5  7  1  0  0  0  0
  5 51  1  0  0  0  0
  5 52  1  0  0  0  0
  6  8  1  0  0  0  0
  6 53  1  0  0  0  0
  6 54  1  0  0  0  0
  7  9  1  0  0  0  0
  7 55  1  0  0  0  0
  7 56  1  0  0  0  0
  8 10  1  0  0  0  0
  8 57  1  0  0  0  0
  8 58  1  0  0  0  0
  9 11  1  0  0  0  0
  9 59  1  0  0  0  0
  9 60  1  0  0  0  0
 10 12  1  0  0  0  0
 10 61  1  0  0  0  0
 10 62  1  0  0  0  0
 11 14  1  0  0  0  0
 11 65  1  0  0  0  0
 11 66  1  0  0  0  0
 12 13  1  0  0  0  0
 12 63  1  0  0  0  0
 12 64  1  0  0  0  0
 13 14  1  0  0  0  0
 13 69  1  0  0  0  0
 13 70  1  0  0  0  0
 14 67  1  0  0  0  0
 14 68  1  0  0  0  0
 15 26  2  0  0  0  0
 15 32  1  0  0  0  0
 16 25  2  0  0  0  0
 16 31  1  0  0  0  0
 17 24  2  0  0  0  0
 17 30  1  0  0  0  0
 18 23  2  0  0  0  0
 18 29  1  0  0  0  0
 19 22  2  0  0  0  0
 19 28  1  0  0  0  0
 20 21  2  0  0  0  0
 20 27  1  0  0  0  0
 21 33  1  0  0  0  0
 21 71  1  0  0  0  0
 22 34  1  0  0  0  0
 22 72  1  0  0  0  0
 23 35  1  0  0  0  0
 23 73  1  0  0  0  0
 24 36  1  0  0  0  0
 24 74  1  0  0  0  0
 25 37  1  0  0  0  0
 25 75  1  0  0  0  0
 26 38  1  0  0  0  0
 26 76  1  0  0  0  0
 27 39  2  0  0  0  0
 27 77  1  0  0  0  0
 28 40  2  0  0  0  0
 28 78  1  0  0  0  0
 29 41  2  0  0  0  0
 29 79  1  0  0  0  0
 30 42  2  0  0  0  0
 30 80  1  0  0  0  0
 31 43  2  0  0  0  0
 31 81  1  0  0  0  0
 32 44  2  0  0  0  0
 32 82  1  0  0  0  0
 33 50  2  0  0  0  0
 33 83  1  0  0  0  0
 34 49  2  0  0  0  0
 34 84  1  0  0  0  0
 35 48  2  0  0  0  0
 35 85  1  0  0  0  0
 36 47  2  0  0  0  0
 36 86  1  0  0  0  0
 37 46  2  0  0  0  0
 37 87  1  0  0  0  0
 38 45  2  0  0  0  0
 38 88  1  0  0  0  0
 39 50  1  0  0  0  0
 39 89  1  0  0  0  0
 40 49  1  0  0  0  0
 40 90  1  0  0  0  0
 41 48  1  0  0  0  0
 41 91  1  0  0  0  0
 42 47  1  0  0  0  0
 42 92  1  0  0  0  0
 43 46  1  0  0  0  0
 43 93  1  0  0  0  0
 44 45  1  0  0  0  0
 44 94  1  0  0  0  0
 45 95  1  0  0  0  0
 46 96  1  0  0  0  0
 47 97  1  0  0  0  0
 48 98  1  0  0  0  0
 49 99  1  0  0  0  0
 50100  1  0  0  0  0
M  CHG  4   1  -1   2  -1   3   1   4   1
M  END
> <PUBCHEM_COMPOUND_CID>
13508

> <PUBCHEM_COMPOUND_CANONICALIZED>
1

> <PUBCHEM_CACTVS_COMPLEXITY>
669

> <PUBCHEM_CACTVS_HBOND_ACCEPTOR>
2

> <PUBCHEM_CACTVS_HBOND_DONOR>
0

> <PUBCHEM_CACTVS_ROTATABLE_BOND>
17

> <PUBCHEM_CACTVS_SUBSKEYS>
AAADcfB8AAMAGAAAAAAAAAAAAAAAAAAAAAAwYMGDAAAAAAABVAAAGAgAAAAACACIEAAwAIAAACCAACBCAAACAAAgAAAIiAAAAIgIICKAERCAIAAggAAIiAcAgIAAAAAAAAAAAAAAAAAAAAAAAAAAAAAAAA==

> <PUBCHEM_IUPAC_OPENEYE_NAME>
triphenyl(10-triphenylphosphaniumyldecyl)phosphonium dibromide

> <PUBCHEM_IUPAC_CAS_NAME>
triphenyl(10-triphenylphosphiniumyldecyl)phosphonium dibromide

> <PUBCHEM_IUPAC_NAME>
triphenyl(10-triphenylphosphaniumyldecyl)phosphanium dibromide

> <PUBCHEM_IUPAC_SYSTEMATIC_NAME>
triphenyl(10-triphenylphosphaniumyldecyl)phosphanium dibromide

> <PUBCHEM_IUPAC_TRADITIONAL_NAME>
triphenyl(10-triphenylphosphiniumyldecyl)phosphonium dibromide

> <PUBCHEM_IUPAC_INCHI>
InChI=1S/C46H50P2.2BrH/c1(3-5-25-39-47(41-27-13-7-14-28-41,42-29-15-8-16-30-42)43-31-17-9-18-32-43)2-4-6-26-40-48(44-33-19-10-20-34-44,45-35-21-11-22-36-45)46-37-23-12-24-38-46;;/h7-24,27-38H,1-6,25-26,39-40H2;2*1H/q+2;;/p-2

> <PUBCHEM_IUPAC_INCHIKEY>
KQZABTMTNIFHCJ-UHFFFAOYSA-L

> <PUBCHEM_EXACT_MASS>
824.173403

> <PUBCHEM_MOLECULAR_FORMULA>
C46H50Br2P2

> <PUBCHEM_MOLECULAR_WEIGHT>
824.644724

> <PUBCHEM_OPENEYE_CAN_SMILES>
C1=CC=C(C=C1)[P+](CCCCCCCCCC[P+](C2=CC=CC=C2)(C3=CC=CC=C3)C4=CC=CC=C4)(C5=CC=CC=C5)C6=CC=CC=C6.[Br-].[Br-]

> <PUBCHEM_OPENEYE_ISO_SMILES>
C1=CC=C(C=C1)[P+](CCCCCCCCCC[P+](C2=CC=CC=C2)(C3=CC=CC=C3)C4=CC=CC=C4)(C5=CC=CC=C5)C6=CC=CC=C6.[Br-].[Br-]

> <PUBCHEM_CACTVS_TPSA>
0

> <PUBCHEM_MONOISOTOPIC_WEIGHT>
822.175449

> <PUBCHEM_TOTAL_CHARGE>
0

> <PUBCHEM_HEAVY_ATOM_COUNT>
50

> <PUBCHEM_ATOM_DEF_STEREO_COUNT>
0

> <PUBCHEM_ATOM_UDEF_STEREO_COUNT>
0

> <PUBCHEM_BOND_DEF_STEREO_COUNT>
0

> <PUBCHEM_BOND_UDEF_STEREO_COUNT>
0

> <PUBCHEM_ISOTOPIC_ATOM_COUNT>
0

> <PUBCHEM_COMPONENT_COUNT>
3

> <PUBCHEM_CACTVS_TAUTO_COUNT>
1

> <PUBCHEM_COORDINATE_TYPE>
1
5
255

> <PUBCHEM_BONDANNOTATIONS>
15  26  8
15  32  8
16  25  8
16  31  8
17  24  8
17  30  8
18  23  8
18  29  8
19  22  8
19  28  8
20  21  8
20  27  8
21  33  8
22  34  8
23  35  8
24  36  8
25  37  8
26  38  8
27  39  8
28  40  8
29  41  8
30  42  8
31  43  8
32  44  8
33  50  8
34  49  8
35  48  8
36  47  8
37  46  8
38  45  8
39  50  8
40  49  8
41  48  8
42  47  8
43  46  8
44  45  8

$$$$

