5281870
  -OEChem-07051213003D

 39 39  0     0  0  0  0  0  0999 V2000
    2.9936    1.1373   -1.5421 O   0  0  0  0  0  0  0  0  0  0  0  0
    4.1416    0.4536    0.3596 N   0  0  0  0  0  0  0  0  0  0  0  0
    6.1115   -0.9543   -0.1531 C   0  0  0  0  0  0  0  0  0  0  0  0
    5.4674    0.4351   -0.2165 C   0  0  0  0  0  0  0  0  0  0  0  0
    5.2702   -1.9587   -0.9414 C   0  0  0  0  0  0  0  0  0  0  0  0
    6.2792   -1.4334    1.2908 C   0  0  0  0  0  0  0  0  0  0  0  0
    3.0133    0.8061   -0.3611 C   0  0  0  0  0  0  0  0  0  0  0  0
   -3.1190    1.2648    0.9600 C   0  0  0  0  0  0  0  0  0  0  0  0
   -4.1051    0.2709    0.3991 C   0  0  0  0  0  0  0  0  0  0  0  0
    1.7804    0.7373    0.4722 C   0  0  0  0  0  0  0  0  0  0  0  0
   -1.8378    1.3040    0.1773 C   0  0  0  0  0  0  0  0  0  0  0  0
   -5.0120    0.6820   -0.5660 C   0  0  0  0  0  0  0  0  0  0  0  0
   -4.0888   -1.0375    0.8583 C   0  0  0  0  0  0  0  0  0  0  0  0
    0.5896    1.0458   -0.0598 C   0  0  0  0  0  0  0  0  0  0  0  0
   -0.6405    0.9974    0.6993 C   0  0  0  0  0  0  0  0  0  0  0  0
   -5.9241   -0.2372   -1.0843 C   0  0  0  0  0  0  0  0  0  0  0  0
   -5.0008   -1.9568    0.3396 C   0  0  0  0  0  0  0  0  0  0  0  0
   -5.9185   -1.5566   -0.6317 C   0  0  0  0  0  0  0  0  0  0  0  0
    7.1050   -0.8913   -0.6137 H   0  0  0  0  0  0  0  0  0  0  0  0
    6.0685    1.1537    0.3517 H   0  0  0  0  0  0  0  0  0  0  0  0
    5.4314    0.7873   -1.2533 H   0  0  0  0  0  0  0  0  0  0  0  0
    5.7752   -2.9301   -0.9813 H   0  0  0  0  0  0  0  0  0  0  0  0
    5.1225   -1.6202   -1.9725 H   0  0  0  0  0  0  0  0  0  0  0  0
    4.2855   -2.1183   -0.4897 H   0  0  0  0  0  0  0  0  0  0  0  0
    5.3170   -1.6001    1.7856 H   0  0  0  0  0  0  0  0  0  0  0  0
    6.8450   -0.7036    1.8792 H   0  0  0  0  0  0  0  0  0  0  0  0
    6.8303   -2.3798    1.3161 H   0  0  0  0  0  0  0  0  0  0  0  0
    4.0574    0.2419    1.3495 H   0  0  0  0  0  0  0  0  0  0  0  0
   -3.5643    2.2681    0.9563 H   0  0  0  0  0  0  0  0  0  0  0  0
   -2.9325    1.0359    2.0175 H   0  0  0  0  0  0  0  0  0  0  0  0
    1.8738    0.4328    1.5101 H   0  0  0  0  0  0  0  0  0  0  0  0
   -1.9096    1.6165   -0.8628 H   0  0  0  0  0  0  0  0  0  0  0  0
   -5.0239    1.7066   -0.9266 H   0  0  0  0  0  0  0  0  0  0  0  0
   -3.3774   -1.3593    1.6135 H   0  0  0  0  0  0  0  0  0  0  0  0
    0.5108    1.3486   -1.1008 H   0  0  0  0  0  0  0  0  0  0  0  0
   -0.5726    0.6935    1.7409 H   0  0  0  0  0  0  0  0  0  0  0  0
   -6.6384    0.0742   -1.8409 H   0  0  0  0  0  0  0  0  0  0  0  0
   -4.9963   -2.9841    0.6917 H   0  0  0  0  0  0  0  0  0  0  0  0
   -6.6285   -2.2723   -1.0356 H   0  0  0  0  0  0  0  0  0  0  0  0
  1  7  2  0  0  0  0
  2  4  1  0  0  0  0
  2  7  1  0  0  0  0
  2 28  1  0  0  0  0
  3  4  1  0  0  0  0
  3  5  1  0  0  0  0
  3  6  1  0  0  0  0
  3 19  1  0  0  0  0
  4 20  1  0  0  0  0
  4 21  1  0  0  0  0
  5 22  1  0  0  0  0
  5 23  1  0  0  0  0
  5 24  1  0  0  0  0
  6 25  1  0  0  0  0
  6 26  1  0  0  0  0
  6 27  1  0  0  0  0
  7 10  1  0  0  0  0
  8  9  1  0  0  0  0
  8 11  1  0  0  0  0
  8 29  1  0  0  0  0
  8 30  1  0  0  0  0
  9 12  2  0  0  0  0
  9 13  1  0  0  0  0
 10 14  2  0  0  0  0
 10 31  1  0  0  0  0
 11 15  2  0  0  0  0
 11 32  1  0  0  0  0
 12 16  1  0  0  0  0
 12 33  1  0  0  0  0
 13 17  2  0  0  0  0
 13 34  1  0  0  0  0
 14 15  1  0  0  0  0
 14 35  1  0  0  0  0
 15 36  1  0  0  0  0
 16 18  2  0  0  0  0
 16 37  1  0  0  0  0
 17 18  1  0  0  0  0
 17 38  1  0  0  0  0
 18 39  1  0  0  0  0
M  END
> <PUBCHEM_COMPOUND_CID>
5281870

> <PUBCHEM_CONFORMER_RMSD>
0.8

> <PUBCHEM_CONFORMER_DIVERSEORDER>
1
14
23
11
20
5
37
21
6
19
22
31
18
24
29
9
7
34
8
32
28
2
15
10
26
16
4
36
33
12
17
13
27
25
35
30
3

> <PUBCHEM_MMFF94_PARTIAL_CHARGES>
25
1 -0.57
10 -0.14
11 -0.29
12 -0.15
13 -0.15
14 -0.15
15 -0.15
16 -0.15
17 -0.15
18 -0.15
2 -0.73
28 0.37
31 0.15
32 0.15
33 0.15
34 0.15
35 0.15
36 0.15
37 0.15
38 0.15
39 0.15
4 0.3
7 0.62
8 0.28
9 -0.14

> <PUBCHEM_EFFECTIVE_ROTOR_COUNT>
7

> <PUBCHEM_PHARMACOPHORE_FEATURES>
4
1 1 acceptor
1 2 donor
3 3 5 6 hydrophobe
6 9 12 13 16 17 18 rings

> <PUBCHEM_HEAVY_ATOM_COUNT>
18

> <PUBCHEM_ATOM_DEF_STEREO_COUNT>
0

> <PUBCHEM_ATOM_UDEF_STEREO_COUNT>
0

> <PUBCHEM_BOND_DEF_STEREO_COUNT>
2

> <PUBCHEM_BOND_UDEF_STEREO_COUNT>
0

> <PUBCHEM_ISOTOPIC_ATOM_COUNT>
0

> <PUBCHEM_COMPONENT_COUNT>
1

> <PUBCHEM_CACTVS_TAUTO_COUNT>
2

> <PUBCHEM_CONFORMER_ID>
0050984E00000001

> <PUBCHEM_MMFF94_ENERGY>
26.7431

> <PUBCHEM_FEATURE_SELFOVERLAP>
20.297

> <PUBCHEM_SHAPE_FINGERPRINT>
10 15 14345799339883771778
10354089 29 6194843683173832520
10378564 45 14333407861751867262
11315181 36 18187644691833539737
117890 112 10303810978127779584
12555020 224 17847058874348333051
12596602 18 6050453604306066295
12616971 3 18200293490526363649
12670543 26 16487258793824548848
13167372 99 9367350327839462246
13668630 136 18342739619581639470
13862211 1 18260830397169073996
14211702 104 18260257573133883950
14251740 57 17604700205545096934
14251752 14 18131358535270015109
14251764 18 8934995976077035129
14848160 23 18333734602270407761
14933364 13 9367345950909078496
15048467 5 10159697993053628888
15183329 4 17489874846905909138
15188451 53 18335145310343819584
15501527 16 10231758890195740089
15716309 27 17167861958821576805
17857418 61 18413107286038887018
17870717 6 18131352986736628155
18222031 100 17917994979891209912
19377110 9 14201400499340840692
20028762 73 18408041836366043902
20281389 69 9871750182615652772
20526848 3 10303821994661079431
20621476 66 10807943677986677223
20645477 56 11527953344371767753
21623969 137 17530962505841350518
21637258 2 18335145288515762952
22224240 67 5400801674804835525
23035841 295 18411135840595126489
23081809 10 18334003995620575144
23198884 109 16559035982812404349
23402539 116 18341893008740241013
23559900 14 18338525114931281721
25122255 55 18336256903314062286
2838139 119 11095885930320318922
2916195 48 9295287235789812165
29717793 49 18130785663952904060
3004659 81 18131637772252260032
465052 167 17676483978417038964
49783359 22 18113334219412060241
5104073 3 17603862295352463433
531348 171 17845661476969245797
542803 24 10303813172407941240
559249 180 18409731777342419697
5718773 13 18042693806507305991
7062679 6 9655577417702986658
7495541 125 17749391442876531928

> <PUBCHEM_SHAPE_MULTIPOLES>
359.58
19.7
1.9
1.13
9.06
0.78
0.06
11.06
1.66
-0.2
-0.02
0.26
0.1
-0.45

> <PUBCHEM_SHAPE_SELFOVERLAP>
720.404

> <PUBCHEM_SHAPE_VOLUME>
210.9

> <PUBCHEM_COORDINATE_TYPE>
2
5
10

$$$$

