56928146
  -OEChem-07051213152D

 68 72  0     1  0  0  0  0  0999 V2000
    2.8257    2.4835    0.0000 O   0  0  0  0  0  0  0  0  0  0  0  0
    3.5216   -0.4810    0.0000 O   0  0  0  0  0  0  0  0  0  0  0  0
    5.0913    2.5085    0.0000 O   0  0  0  0  0  0  0  0  0  0  0  0
    4.4058   -1.4590    0.0000 O   0  0  0  0  0  0  0  0  0  0  0  0
    7.2330    1.5382    0.0000 O   0  0  0  0  0  0  0  0  0  0  0  0
    7.9114   -1.4575    0.0000 O   0  0  0  0  0  0  0  0  0  0  0  0
    6.1371   -1.4119    0.0000 O   0  0  0  0  0  0  0  0  0  0  0  0
    8.9527    1.3314    0.0000 O   0  0  0  0  0  0  0  0  0  0  0  0
    4.3697    1.3090    0.0000 C   0  0  1  0  0  0  0  0  0  0  0  0
    6.1028   -0.0666    0.0000 C   0  0  2  0  0  0  0  0  0  0  0  0
    3.9497    0.4227    0.0000 C   0  0  2  0  0  0  0  0  0  0  0  0
    3.6590    1.9765    0.0000 C   0  0  1  0  0  0  0  0  0  0  0  0
    6.0978    0.9334    0.0000 C   0  0  2  0  0  0  0  0  0  0  0  0
    2.9831    0.5500    0.0000 C   0  0  0  0  0  0  0  0  0  0  0  0
    2.8038    1.5083    0.0000 C   0  0  1  0  0  0  0  0  0  0  0  0
    5.3239    1.5359    0.0000 C   0  0  1  0  0  0  0  0  0  0  0  0
    4.3785   -0.4594    0.0000 C   0  0  1  0  0  0  0  0  0  0  0  0
    7.1136    0.5453    0.0000 C   0  0  2  0  0  0  0  0  0  0  0  0
    5.3349   -0.6767    0.0000 C   0  0  0  0  0  0  0  0  0  0  0  0
    8.2909    0.4444    0.0000 C   0  0  2  0  0  0  0  0  0  0  0  0
    6.8877   -0.6861    0.0000 C   0  0  0  0  0  0  0  0  0  0  0  0
    7.8615   -0.4588    0.0000 C   0  0  1  0  0  0  0  0  0  0  0  0
    6.8765    1.5608    0.0000 C   0  0  0  0  0  0  0  0  0  0  0  0
    7.8526    1.3432    0.0000 C   0  0  0  0  0  0  0  0  0  0  0  0
    2.0000    0.3669    0.0000 C   0  0  0  0  0  0  0  0  0  0  0  0
    2.8534   -0.4416    0.0000 C   0  0  0  0  0  0  0  0  0  0  0  0
    5.9392    2.3242    0.0000 C   0  0  0  0  0  0  0  0  0  0  0  0
    8.8268   -0.7200    0.0000 C   0  0  0  0  0  0  0  0  0  0  0  0
    5.2851   -1.9352    0.0000 C   0  0  0  0  0  0  0  0  0  0  0  0
    8.1526    1.9312    0.0000 C   0  0  0  0  0  0  0  0  0  0  0  0
    5.3123   -2.9349    0.0000 C   0  0  0  0  0  0  0  0  0  0  0  0
    8.2720    2.9240    0.0000 C   0  0  0  0  0  0  0  0  0  0  0  0
    4.9047    0.6486    0.0000 H   0  0  0  0  0  0  0  0  0  0  0  0
    4.0344    2.4700    0.0000 H   0  0  0  0  0  0  0  0  0  0  0  0
    6.0936    1.7834    0.0000 H   0  0  0  0  0  0  0  0  0  0  0  0
    2.1858    1.4580    0.0000 H   0  0  0  0  0  0  0  0  0  0  0  0
    3.7762   -0.6067    0.0000 H   0  0  0  0  0  0  0  0  0  0  0  0
    6.5927    0.8815    0.0000 H   0  0  0  0  0  0  0  0  0  0  0  0
    5.0659   -1.2354    0.0000 H   0  0  0  0  0  0  0  0  0  0  0  0
    5.8193   -1.0637    0.0000 H   0  0  0  0  0  0  0  0  0  0  0  0
    9.1186    0.6376    0.0000 H   0  0  0  0  0  0  0  0  0  0  0  0
    6.4049   -1.0751    0.0000 H   0  0  0  0  0  0  0  0  0  0  0  0
    7.1595   -1.2434    0.0000 H   0  0  0  0  0  0  0  0  0  0  0  0
    7.1427    2.1207    0.0000 H   0  0  0  0  0  0  0  0  0  0  0  0
    6.3899    1.9450    0.0000 H   0  0  0  0  0  0  0  0  0  0  0  0
    8.4563    1.4841    0.0000 H   0  0  0  0  0  0  0  0  0  0  0  0
    7.8494    1.9631    0.0000 H   0  0  0  0  0  0  0  0  0  0  0  0
    2.2387   -0.3612    0.0000 H   0  0  0  0  0  0  0  0  0  0  0  0
    2.7730   -1.0563    0.0000 H   0  0  0  0  0  0  0  0  0  0  0  0
    1.8865    0.9764    0.0000 H   0  0  0  0  0  0  0  0  0  0  0  0
    1.3905    0.2534    0.0000 H   0  0  0  0  0  0  0  0  0  0  0  0
    2.1135   -0.2426    0.0000 H   0  0  0  0  0  0  0  0  0  0  0  0
    3.4682   -0.5220    0.0000 H   0  0  0  0  0  0  0  0  0  0  0  0
    6.4280    1.9426    0.0000 H   0  0  0  0  0  0  0  0  0  0  0  0
    6.3208    2.8129    0.0000 H   0  0  0  0  0  0  0  0  0  0  0  0
    5.4505    2.7057    0.0000 H   0  0  0  0  0  0  0  0  0  0  0  0
    3.4638   -1.0983    0.0000 H   0  0  0  0  0  0  0  0  0  0  0  0
    5.5414    2.9349    0.0000 H   0  0  0  0  0  0  0  0  0  0  0  0
    8.6648   -1.3185    0.0000 H   0  0  0  0  0  0  0  0  0  0  0  0
    9.4253   -0.8820    0.0000 H   0  0  0  0  0  0  0  0  0  0  0  0
    8.9888   -0.1215    0.0000 H   0  0  0  0  0  0  0  0  0  0  0  0
    8.4631   -1.7404    0.0000 H   0  0  0  0  0  0  0  0  0  0  0  0
    4.6926   -2.9518    0.0000 H   0  0  0  0  0  0  0  0  0  0  0  0
    5.3292   -3.5546    0.0000 H   0  0  0  0  0  0  0  0  0  0  0  0
    5.9321   -2.9180    0.0000 H   0  0  0  0  0  0  0  0  0  0  0  0
    8.8875    2.8500    0.0000 H   0  0  0  0  0  0  0  0  0  0  0  0
    8.3460    3.5396    0.0000 H   0  0  0  0  0  0  0  0  0  0  0  0
    7.6564    2.9981    0.0000 H   0  0  0  0  0  0  0  0  0  0  0  0
 12  1  1  1  0  0  0
 15  1  1  1  0  0  0
 11  2  1  1  0  0  0
  2 57  1  0  0  0  0
 16  3  1  6  0  0  0
  3 58  1  0  0  0  0
 17  4  1  1  0  0  0
  4 29  1  0  0  0  0
 18  5  1  1  0  0  0
  5 30  1  0  0  0  0
 22  6  1  6  0  0  0
  6 62  1  0  0  0  0
  7 29  2  0  0  0  0
  8 30  2  0  0  0  0
  9 11  1  0  0  0  0
  9 12  1  0  0  0  0
  9 16  1  0  0  0  0
  9 33  1  6  0  0  0
 10 13  1  0  0  0  0
 10 18  1  0  0  0  0
 10 19  1  6  0  0  0
 10 21  1  0  0  0  0
 11 14  1  0  0  0  0
 11 17  1  0  0  0  0
 12 15  1  0  0  0  0
 12 34  1  0  0  0  0
 13 16  1  0  0  0  0
 13 23  1  0  0  0  0
 13 35  1  1  0  0  0
 14 15  1  0  0  0  0
 14 25  1  0  0  0  0
 14 26  1  0  0  0  0
 15 36  1  0  0  0  0
 16 27  1  0  0  0  0
 17 19  1  0  0  0  0
 17 37  1  0  0  0  0
 18 20  1  0  0  0  0
 18 38  1  0  0  0  0
 19 39  1  0  0  0  0
 19 40  1  0  0  0  0
 20 22  1  0  0  0  0
 20 24  1  0  0  0  0
 20 41  1  6  0  0  0
 21 22  1  0  0  0  0
 21 42  1  0  0  0  0
 21 43  1  0  0  0  0
 22 28  1  0  0  0  0
 23 24  1  0  0  0  0
 23 44  1  0  0  0  0
 23 45  1  0  0  0  0
 24 46  1  0  0  0  0
 24 47  1  0  0  0  0
 25 50  1  0  0  0  0
 25 51  1  0  0  0  0
 25 52  1  0  0  0  0
 26 48  1  0  0  0  0
 26 49  1  0  0  0  0
 26 53  1  0  0  0  0
 27 54  1  0  0  0  0
 27 55  1  0  0  0  0
 27 56  1  0  0  0  0
 28 59  1  0  0  0  0
 28 60  1  0  0  0  0
 28 61  1  0  0  0  0
 29 31  1  0  0  0  0
 30 32  1  0  0  0  0
 31 63  1  0  0  0  0
 31 64  1  0  0  0  0
 31 65  1  0  0  0  0
 32 66  1  0  0  0  0
 32 67  1  0  0  0  0
 32 68  1  0  0  0  0
M  END
> <PUBCHEM_COMPOUND_CID>
56928146

> <PUBCHEM_COMPOUND_CANONICALIZED>
1

> <PUBCHEM_CACTVS_COMPLEXITY>
872

> <PUBCHEM_CACTVS_HBOND_ACCEPTOR>
8

> <PUBCHEM_CACTVS_HBOND_DONOR>
3

> <PUBCHEM_CACTVS_ROTATABLE_BOND>
4

> <PUBCHEM_CACTVS_SUBSKEYS>
AAADcfB4PAAAAAAAAAAAAAAAEgAAAYMAAAA0QAAABgwAAADAAAAAGgAACAAAD1SggAICCAAABgAIAACQCAAAAAAAAAAAAAAAAAABAAIAAAACQAAFAAADAAHA4PwPgAAAAAAAAACAAAYAADAAAYQADAAAAA==

> <PUBCHEM_IUPAC_INCHI>
InChI=1S/C24H36O8/c1-11(25)30-15-9-23-10-21(5,27)13(18(23)31-12(2)26)7-8-14(23)22(6,28)17-16-19(32-16)20(3,4)24(15,17)29/h13-19,27-29H,7-10H2,1-6H3/t13-,14+,15-,16+,17+,18+,19+,21-,22-,23+,24-/m1/s1

> <PUBCHEM_IUPAC_INCHIKEY>
BQXZYRJBFJGDSL-MCFSDBFISA-N

> <PUBCHEM_XLOGP3_AA>
0.8

> <PUBCHEM_EXACT_MASS>
452.241018

> <PUBCHEM_MOLECULAR_FORMULA>
C24H36O8

> <PUBCHEM_MOLECULAR_WEIGHT>
452.53784

> <PUBCHEM_OPENEYE_CAN_SMILES>
CC(=O)OC1CC23CC(C(C2OC(=O)C)CCC3C(C4C1(C(C5C4O5)(C)C)O)(C)O)(C)O

> <PUBCHEM_OPENEYE_ISO_SMILES>
CC(=O)O[C@@H]1C[C@@]23C[C@@]([C@@H]([C@@H]2OC(=O)C)CC[C@H]3[C@@]([C@H]4[C@]1(C([C@@H]5[C@H]4O5)(C)C)O)(C)O)(C)O

> <PUBCHEM_CACTVS_TPSA>
126

> <PUBCHEM_MONOISOTOPIC_WEIGHT>
452.241018

> <PUBCHEM_TOTAL_CHARGE>
0

> <PUBCHEM_HEAVY_ATOM_COUNT>
32

> <PUBCHEM_ATOM_DEF_STEREO_COUNT>
11

> <PUBCHEM_ATOM_UDEF_STEREO_COUNT>
0

> <PUBCHEM_BOND_DEF_STEREO_COUNT>
0

> <PUBCHEM_BOND_UDEF_STEREO_COUNT>
0

> <PUBCHEM_ISOTOPIC_ATOM_COUNT>
0

> <PUBCHEM_COMPONENT_COUNT>
1

> <PUBCHEM_CACTVS_TAUTO_COUNT>
1

> <PUBCHEM_COORDINATE_TYPE>
1
5
255

> <PUBCHEM_BONDANNOTATIONS>
12  1  5
15  1  5
10  19  6
13  35  5
11  2  5
20  41  6
16  3  6
17  4  5
18  5  5
22  6  6
9  33  6

$$$$

