53297393
  -OEChem-07051213123D

 74 78  0     1  0  0  0  0  0999 V2000
    2.0508    0.4027   -0.4174 O   0  0  0  0  0  0  0  0  0  0  0  0
    2.4136   -1.8288    1.2808 O   0  0  0  0  0  0  0  0  0  0  0  0
    4.2972    0.4298   -1.1791 O   0  0  0  0  0  0  0  0  0  0  0  0
    6.0767    2.5036   -0.2541 O   0  0  0  0  0  0  0  0  0  0  0  0
   -2.1634   -2.8843    1.3832 O   0  0  0  0  0  0  0  0  0  0  0  0
   -0.4882    1.3865   -1.6828 O   0  0  0  0  0  0  0  0  0  0  0  0
    0.2183   -5.3100    0.3208 O   0  0  0  0  0  0  0  0  0  0  0  0
   -0.4853   -4.1089   -1.4842 O   0  0  0  0  0  0  0  0  0  0  0  0
   -2.7947    2.3664   -1.4148 O   0  0  0  0  0  0  0  0  0  0  0  0
   -4.4097   -1.7709    1.5548 O   0  0  0  0  0  0  0  0  0  0  0  0
   -5.0852    3.5030   -1.2328 O   0  0  0  0  0  0  0  0  0  0  0  0
    4.0096    4.0089    1.0221 N   0  0  0  0  0  0  0  0  0  0  0  0
    1.9560   -2.6649    0.2078 C   0  0  2  0  0  0  0  0  0  0  0  0
    2.1644   -1.9148   -1.1179 C   0  0  0  0  0  0  0  0  0  0  0  0
    0.4561   -2.9704    0.4365 C   0  0  1  0  0  0  0  0  0  0  0  0
    1.3781   -0.6007   -1.1776 C   0  0  1  0  0  0  0  0  0  0  0  0
   -0.4543   -1.7947    0.1312 C   0  0  0  0  0  0  0  0  0  0  0  0
   -0.0316   -0.7077   -0.6532 C   0  0  0  0  0  0  0  0  0  0  0  0
    2.8323   -3.9246    0.2443 C   0  0  0  0  0  0  0  0  0  0  0  0
    3.0255    1.0812   -1.2045 C   0  0  2  0  0  0  0  0  0  0  0  0
    3.8154    2.6131    0.6342 C   0  0  1  0  0  0  0  0  0  0  0  0
    3.1410    2.5344   -0.7401 C   0  0  0  0  0  0  0  0  0  0  0  0
    5.1488    1.8526    0.6157 C   0  0  1  0  0  0  0  0  0  0  0  0
    4.9215    0.4198    0.1117 C   0  0  2  0  0  0  0  0  0  0  0  0
   -1.7726   -1.8153    0.6237 C   0  0  0  0  0  0  0  0  0  0  0  0
   -0.9326    0.3376   -0.9252 C   0  0  0  0  0  0  0  0  0  0  0  0
    0.0062   -4.1613   -0.3666 C   0  0  0  0  0  0  0  0  0  0  0  0
   -2.2412    0.3057   -0.4308 C   0  0  0  0  0  0  0  0  0  0  0  0
   -2.6613   -0.7710    0.3447 C   0  0  0  0  0  0  0  0  0  0  0  0
    4.2991   -3.5718    0.1227 C   0  0  0  0  0  0  0  0  0  0  0  0
    6.2243   -0.3614   -0.0226 C   0  0  0  0  0  0  0  0  0  0  0  0
   -3.1650    1.4182   -0.7338 C   0  0  0  0  0  0  0  0  0  0  0  0
   -4.0393   -0.8218    0.8749 C   0  0  0  0  0  0  0  0  0  0  0  0
    4.6529    4.0901    2.3328 C   0  0  0  0  0  0  0  0  0  0  0  0
    2.7308    4.7180    1.0351 C   0  0  0  0  0  0  0  0  0  0  0  0
   -4.5427    1.3704   -0.2033 C   0  0  0  0  0  0  0  0  0  0  0  0
   -4.9648    0.2892    0.5730 C   0  0  0  0  0  0  0  0  0  0  0  0
   -5.4288    2.4175   -0.4828 C   0  0  0  0  0  0  0  0  0  0  0  0
   -6.2731    0.2547    1.0700 C   0  0  0  0  0  0  0  0  0  0  0  0
   -6.7318    2.3793    0.0145 C   0  0  0  0  0  0  0  0  0  0  0  0
   -7.1531    1.3002    0.7892 C   0  0  0  0  0  0  0  0  0  0  0  0
    1.8386   -2.5601   -1.9446 H   0  0  0  0  0  0  0  0  0  0  0  0
    3.2178   -1.6966   -1.2895 H   0  0  0  0  0  0  0  0  0  0  0  0
    0.3212   -3.2041    1.5026 H   0  0  0  0  0  0  0  0  0  0  0  0
    1.3062   -0.3183   -2.2370 H   0  0  0  0  0  0  0  0  0  0  0  0
    2.6894   -4.4485    1.1977 H   0  0  0  0  0  0  0  0  0  0  0  0
    2.5799   -4.6206   -0.5630 H   0  0  0  0  0  0  0  0  0  0  0  0
    2.7139    1.1230   -2.2550 H   0  0  0  0  0  0  0  0  0  0  0  0
    3.1579    2.1167    1.3637 H   0  0  0  0  0  0  0  0  0  0  0  0
    3.7196    3.1052   -1.4773 H   0  0  0  0  0  0  0  0  0  0  0  0
    2.1260    2.9454   -0.7135 H   0  0  0  0  0  0  0  0  0  0  0  0
    5.6053    1.7908    1.6085 H   0  0  0  0  0  0  0  0  0  0  0  0
    4.2742   -0.1165    0.8129 H   0  0  0  0  0  0  0  0  0  0  0  0
    2.2892   -2.3121    2.1153 H   0  0  0  0  0  0  0  0  0  0  0  0
    4.5667   -3.2347   -0.8819 H   0  0  0  0  0  0  0  0  0  0  0  0
    4.9000   -4.4696    0.3095 H   0  0  0  0  0  0  0  0  0  0  0  0
    4.6159   -2.8248    0.8552 H   0  0  0  0  0  0  0  0  0  0  0  0
    6.7336   -0.4504    0.9416 H   0  0  0  0  0  0  0  0  0  0  0  0
    6.0359   -1.3642   -0.4146 H   0  0  0  0  0  0  0  0  0  0  0  0
    6.9054    0.1145   -0.7364 H   0  0  0  0  0  0  0  0  0  0  0  0
    5.7819    2.3720   -1.1708 H   0  0  0  0  0  0  0  0  0  0  0  0
    4.6793    5.1296    2.6824 H   0  0  0  0  0  0  0  0  0  0  0  0
    5.7031    3.7854    2.2955 H   0  0  0  0  0  0  0  0  0  0  0  0
    4.1310    3.4990    3.0942 H   0  0  0  0  0  0  0  0  0  0  0  0
    2.8531    5.7203    1.4641 H   0  0  0  0  0  0  0  0  0  0  0  0
    1.9668    4.1985    1.6249 H   0  0  0  0  0  0  0  0  0  0  0  0
    2.3509    4.8970    0.0245 H   0  0  0  0  0  0  0  0  0  0  0  0
   -2.9776   -2.6852    1.8684 H   0  0  0  0  0  0  0  0  0  0  0  0
   -1.0943    2.1395   -1.6222 H   0  0  0  0  0  0  0  0  0  0  0  0
   -0.0679   -6.0989   -0.1872 H   0  0  0  0  0  0  0  0  0  0  0  0
   -6.6256   -0.5753    1.6763 H   0  0  0  0  0  0  0  0  0  0  0  0
   -7.4259    3.1884   -0.1979 H   0  0  0  0  0  0  0  0  0  0  0  0
   -8.1680    1.2730    1.1751 H   0  0  0  0  0  0  0  0  0  0  0  0
   -4.1653    3.4388   -1.5294 H   0  0  0  0  0  0  0  0  0  0  0  0
  1 16  1  0  0  0  0
  1 20  1  0  0  0  0
  2 13  1  0  0  0  0
  2 54  1  0  0  0  0
  3 20  1  0  0  0  0
  3 24  1  0  0  0  0
  4 23  1  0  0  0  0
  4 61  1  0  0  0  0
  5 25  1  0  0  0  0
  5 68  1  0  0  0  0
  6 26  1  0  0  0  0
  6 69  1  0  0  0  0
  7 27  1  0  0  0  0
  7 70  1  0  0  0  0
  8 27  2  0  0  0  0
  9 32  2  0  0  0  0
 10 33  2  0  0  0  0
 11 38  1  0  0  0  0
 11 74  1  0  0  0  0
 12 21  1  0  0  0  0
 12 34  1  0  0  0  0
 12 35  1  0  0  0  0
 13 14  1  0  0  0  0
 13 15  1  0  0  0  0
 13 19  1  0  0  0  0
 14 16  1  0  0  0  0
 14 42  1  0  0  0  0
 14 43  1  0  0  0  0
 15 17  1  0  0  0  0
 15 27  1  0  0  0  0
 15 44  1  0  0  0  0
 16 18  1  0  0  0  0
 16 45  1  0  0  0  0
 17 18  2  0  0  0  0
 17 25  1  0  0  0  0
 18 26  1  0  0  0  0
 19 30  1  0  0  0  0
 19 46  1  0  0  0  0
 19 47  1  0  0  0  0
 20 22  1  0  0  0  0
 20 48  1  0  0  0  0
 21 22  1  0  0  0  0
 21 23  1  0  0  0  0
 21 49  1  0  0  0  0
 22 50  1  0  0  0  0
 22 51  1  0  0  0  0
 23 24  1  0  0  0  0
 23 52  1  0  0  0  0
 24 31  1  0  0  0  0
 24 53  1  0  0  0  0
 25 29  2  0  0  0  0
 26 28  2  0  0  0  0
 28 29  1  0  0  0  0
 28 32  1  0  0  0  0
 29 33  1  0  0  0  0
 30 55  1  0  0  0  0
 30 56  1  0  0  0  0
 30 57  1  0  0  0  0
 31 58  1  0  0  0  0
 31 59  1  0  0  0  0
 31 60  1  0  0  0  0
 32 36  1  0  0  0  0
 33 37  1  0  0  0  0
 34 62  1  0  0  0  0
 34 63  1  0  0  0  0
 34 64  1  0  0  0  0
 35 65  1  0  0  0  0
 35 66  1  0  0  0  0
 35 67  1  0  0  0  0
 36 37  2  0  0  0  0
 36 38  1  0  0  0  0
 37 39  1  0  0  0  0
 38 40  2  0  0  0  0
 39 41  2  0  0  0  0
 39 71  1  0  0  0  0
 40 41  1  0  0  0  0
 40 72  1  0  0  0  0
 41 73  1  0  0  0  0
M  END
> <PUBCHEM_COMPOUND_CID>
53297393

> <PUBCHEM_CONFORMER_RMSD>
1

> <PUBCHEM_CONFORMER_DIVERSEORDER>
1
5
7
8
2
14
9
13
11
12
3
10
4
6
15

> <PUBCHEM_MMFF94_PARTIAL_CHARGES>
45
1 -0.56
10 -0.57
11 -0.53
12 -0.81
13 0.28
15 0.2
16 0.42
17 -0.14
18 -0.14
2 -0.68
20 0.56
21 0.27
23 0.28
24 0.28
25 0.08
26 0.08
27 0.66
28 0.09
29 0.09
3 -0.56
32 0.4
33 0.4
34 0.27
35 0.27
36 0.09
37 0.09
38 0.08
39 -0.15
4 -0.68
40 -0.15
41 -0.15
5 -0.53
54 0.4
6 -0.53
61 0.4
68 0.45
69 0.45
7 -0.65
70 0.5
71 0.15
72 0.15
73 0.15
74 0.45
8 -0.57
9 -0.57

> <PUBCHEM_EFFECTIVE_ROTOR_COUNT>
7

> <PUBCHEM_PHARMACOPHORE_FEATURES>
21
1 1 acceptor
1 10 acceptor
1 11 donor
1 12 cation
1 2 acceptor
1 2 donor
1 3 acceptor
1 30 hydrophobe
1 4 acceptor
1 4 donor
1 5 donor
1 6 donor
1 7 acceptor
1 8 acceptor
1 9 acceptor
3 7 8 27 anion
6 13 14 15 16 17 18 rings
6 17 18 25 26 28 29 rings
6 28 29 32 33 36 37 rings
6 3 20 21 22 23 24 rings
6 36 37 38 39 40 41 rings

> <PUBCHEM_HEAVY_ATOM_COUNT>
41

> <PUBCHEM_ATOM_DEF_STEREO_COUNT>
7

> <PUBCHEM_ATOM_UDEF_STEREO_COUNT>
0

> <PUBCHEM_BOND_DEF_STEREO_COUNT>
0

> <PUBCHEM_BOND_UDEF_STEREO_COUNT>
0

> <PUBCHEM_ISOTOPIC_ATOM_COUNT>
0

> <PUBCHEM_COMPONENT_COUNT>
1

> <PUBCHEM_CACTVS_TAUTO_COUNT>
263

> <PUBCHEM_CONFORMER_ID>
032D40F100000001

> <PUBCHEM_MMFF94_ENERGY>
135.8295

> <PUBCHEM_FEATURE_SELFOVERLAP>
106.722

> <PUBCHEM_SHAPE_FINGERPRINT>
10074138 170 17983301421656792107
10190206 1 18120102692733767286
10319926 262 18201157659262691960
10439779 11 18339365278958151520
12422481 6 17989203728870503155
12741549 16 17756722084430623730
12857493 111 17401487546918365166
12925494 130 18411984632847706609
13140716 1 17550376341918901727
13383668 362 18201719544059125034
13692114 37 18341050701629763151
140371 6 17761495094207455102
14790565 3 18338797793086404335
14955137 171 18122627429520042366
15082195 135 18192459483221214687
15775530 1 17626976374830903916
15927050 60 18409729521847085206
16112460 7 18194108853848121537
16114785 44 17974296421498899183
17913733 40 18410004455840999505
19246450 95 18195837187453150544
21033648 29 18336834078600471440
21133410 32 14203656508634622028
22122407 14 17821996615312044793
22149856 69 18055606608866591561
22889206 1 18059298785074895522
23559900 14 18195811988600397195
3411729 13 18271803549190089890
350125 39 18200586024721867934
376196 1 18188489069292080614
397638 26 18262249798758415008
4093350 32 17749947902833513279
4173938 306 17917727790323756117
5104073 3 18129649946309933857
5109719 28 18338789113585416115
5265222 85 18055054481951142348
6371380 46 18409164399193365788
653340 110 17905893574474059130
6695519 79 18263341643752925683
9658208 31 18338223857176339596
9777508 108 18194121802994358412
9896288 288 17835810695067513858
9981440 41 18341889650434310891

> <PUBCHEM_SHAPE_MULTIPOLES>
774.22
15.03
6.49
1.4
12.17
1.81
0.12
-14.44
3.16
-6.68
1.58
-0.17
-0.64
2.75

> <PUBCHEM_SHAPE_SELFOVERLAP>
1708.144

> <PUBCHEM_SHAPE_VOLUME>
409.9

> <PUBCHEM_COORDINATE_TYPE>
2
5
10

$$$$

