44891335
  -OEChem-07051212512D

 50 55  0     1  0  0  0  0  0999 V2000
    3.8076    1.8817    0.0000 O   0  0  0  0  0  0  0  0  0  0  0  0
    7.6812    0.2939    0.0000 O   0  0  0  0  0  0  0  0  0  0  0  0
    6.1798   -0.2724    0.0000 N   0  0  3  0  0  0  0  0  0  0  0  0
    4.0899   -1.2279    0.0000 N   0  0  3  0  0  0  0  0  0  0  0  0
    4.5153    0.0814    0.0000 C   0  0  1  0  0  0  0  0  0  0  0  0
    6.4862    1.1691    0.0000 C   0  0  3  0  0  0  0  0  0  0  0  0
    5.9169    0.5368    0.0000 C   0  0  2  0  0  0  0  0  0  0  0  0
    5.6105   -0.9047    0.0000 C   0  0  3  0  0  0  0  0  0  0  0  0
    6.7056   -1.8908    0.0000 C   0  0  1  0  0  0  0  0  0  0  0  0
    4.7782   -0.7278    0.0000 C   0  0  2  0  0  0  0  0  0  0  0  0
    4.5142    1.1740    0.0000 C   0  0  1  0  0  0  0  0  0  0  0  0
    5.0846    0.7137    0.0000 C   0  0  0  0  0  0  0  0  0  0  0  0
    5.8734   -1.7139    0.0000 C   0  0  0  0  0  0  0  0  0  0  0  0
    7.2750   -1.2585    0.0000 C   0  0  1  0  0  0  0  0  0  0  0  0
    7.0121   -0.4493    0.0000 C   0  0  1  0  0  0  0  0  0  0  0  0
    3.6645    0.0814    0.0000 C   0  0  0  0  0  0  0  0  0  0  0  0
    3.4016   -0.7278    0.0000 C   0  0  0  0  0  0  0  0  0  0  0  0
    8.2531   -1.4664    0.0000 C   0  0  0  0  0  0  0  0  0  0  0  0
    3.0952    0.7137    0.0000 C   0  0  0  0  0  0  0  0  0  0  0  0
    4.0983   -2.2278    0.0000 C   0  0  0  0  0  0  0  0  0  0  0  0
    2.5693   -0.9047    0.0000 C   0  0  0  0  0  0  0  0  0  0  0  0
    8.5621   -2.4174    0.0000 C   0  0  0  0  0  0  0  0  0  0  0  0
    2.2629    0.5368    0.0000 C   0  0  0  0  0  0  0  0  0  0  0  0
    2.0000   -0.2724    0.0000 C   0  0  0  0  0  0  0  0  0  0  0  0
    6.9092    1.6224    0.0000 H   0  0  0  0  0  0  0  0  0  0  0  0
    5.7347    1.3671    0.0000 H   0  0  0  0  0  0  0  0  0  0  0  0
    5.1956   -1.3654    0.0000 H   0  0  0  0  0  0  0  0  0  0  0  0
    6.9683   -2.6992    0.0000 H   0  0  0  0  0  0  0  0  0  0  0  0
    4.7788   -1.5778    0.0000 H   0  0  0  0  0  0  0  0  0  0  0  0
    4.7523    1.7465    0.0000 H   0  0  0  0  0  0  0  0  0  0  0  0
    5.3169    1.2886    0.0000 H   0  0  0  0  0  0  0  0  0  0  0  0
    4.5588    1.0423    0.0000 H   0  0  0  0  0  0  0  0  0  0  0  0
    5.2594   -1.8002    0.0000 H   0  0  0  0  0  0  0  0  0  0  0  0
    5.8518   -2.3335    0.0000 H   0  0  0  0  0  0  0  0  0  0  0  0
    7.4666   -1.8481    0.0000 H   0  0  0  0  0  0  0  0  0  0  0  0
    7.6185   -0.5782    0.0000 H   0  0  0  0  0  0  0  0  0  0  0  0
    8.8671   -1.3801    0.0000 H   0  0  0  0  0  0  0  0  0  0  0  0
    8.2748   -0.8468    0.0000 H   0  0  0  0  0  0  0  0  0  0  0  0
    3.9684    2.4804    0.0000 H   0  0  0  0  0  0  0  0  0  0  0  0
    3.2868    1.3034    0.0000 H   0  0  0  0  0  0  0  0  0  0  0  0
    3.4784   -2.2331    0.0000 H   0  0  0  0  0  0  0  0  0  0  0  0
    4.1036   -2.8478    0.0000 H   0  0  0  0  0  0  0  0  0  0  0  0
    4.7183   -2.2226    0.0000 H   0  0  0  0  0  0  0  0  0  0  0  0
    8.2876    0.1650    0.0000 H   0  0  0  0  0  0  0  0  0  0  0  0
    2.3777   -1.4943    0.0000 H   0  0  0  0  0  0  0  0  0  0  0  0
    7.9725   -2.6090    0.0000 H   0  0  0  0  0  0  0  0  0  0  0  0
    8.7537   -3.0071    0.0000 H   0  0  0  0  0  0  0  0  0  0  0  0
    9.1518   -2.2259    0.0000 H   0  0  0  0  0  0  0  0  0  0  0  0
    1.8481    0.9976    0.0000 H   0  0  0  0  0  0  0  0  0  0  0  0
    1.3936   -0.4013    0.0000 H   0  0  0  0  0  0  0  0  0  0  0  0
  1 11  1  0  0  0  0
  1 39  1  0  0  0  0
 15  2  1  6  0  0  0
  2 44  1  0  0  0  0
  3  7  1  0  0  0  0
  3  8  1  0  0  0  0
  3 15  1  0  0  0  0
  4 10  1  0  0  0  0
  4 17  1  0  0  0  0
  4 20  1  0  0  0  0
  5 10  1  0  0  0  0
  5 11  1  0  0  0  0
  5 12  1  0  0  0  0
  5 16  1  6  0  0  0
  6  7  1  0  0  0  0
  6  9  1  0  0  0  0
  6 11  1  0  0  0  0
  6 25  1  0  0  0  0
  7 12  1  0  0  0  0
  7 26  1  6  0  0  0
  8 10  1  0  0  0  0
  8 13  1  0  0  0  0
  8 27  1  0  0  0  0
  9 13  1  0  0  0  0
  9 14  1  0  0  0  0
  9 28  1  1  0  0  0
 10 29  1  1  0  0  0
 11 30  1  0  0  0  0
 12 31  1  0  0  0  0
 12 32  1  0  0  0  0
 13 33  1  0  0  0  0
 13 34  1  0  0  0  0
 14 15  1  0  0  0  0
 14 18  1  1  0  0  0
 14 35  1  0  0  0  0
 15 36  1  0  0  0  0
 16 17  1  0  0  0  0
 16 19  2  0  0  0  0
 17 21  2  0  0  0  0
 18 22  1  0  0  0  0
 18 37  1  0  0  0  0
 18 38  1  0  0  0  0
 19 23  1  0  0  0  0
 19 40  1  0  0  0  0
 20 41  1  0  0  0  0
 20 42  1  0  0  0  0
 20 43  1  0  0  0  0
 21 24  1  0  0  0  0
 21 45  1  0  0  0  0
 22 46  1  0  0  0  0
 22 47  1  0  0  0  0
 22 48  1  0  0  0  0
 23 24  2  0  0  0  0
 23 49  1  0  0  0  0
 24 50  1  0  0  0  0
M  END
> <PUBCHEM_COMPOUND_CID>
44891335

> <PUBCHEM_COMPOUND_CANONICALIZED>
1

> <PUBCHEM_CACTVS_COMPLEXITY>
570

> <PUBCHEM_CACTVS_HBOND_ACCEPTOR>
4

> <PUBCHEM_CACTVS_HBOND_DONOR>
2

> <PUBCHEM_CACTVS_ROTATABLE_BOND>
1

> <PUBCHEM_CACTVS_SUBSKEYS>
AAADceB7MAAAAAAAAAAAAAAAAAAAAeIAAAA8WLFiBgAAAFixAAAAHgAACAAADzzhmAYywIMAAgCAAiRCQACCAAAhAgAIiAAIZIgIcCLAkZGUYAhmwAHIyAew8PcPgAAAAAACAAAAAAAAAAQAASEABQAAAA==

> <PUBCHEM_IUPAC_INCHI>
InChI=1S/C20H26N2O2/c1-3-10-11-8-14-17-20(12-6-4-5-7-13(12)21(17)2)9-15(16(11)18(20)23)22(14)19(10)24/h4-7,10-11,14-19,23-24H,3,8-9H2,1-2H3/t10-,11-,14?,15-,16?,17-,18+,19+,20+/m0/s1

> <PUBCHEM_IUPAC_INCHIKEY>
CJDRUOGAGYHKKD-UORGRDHFSA-N

> <PUBCHEM_XLOGP3>
1.8

> <PUBCHEM_EXACT_MASS>
326.199428

> <PUBCHEM_MOLECULAR_FORMULA>
C20H26N2O2

> <PUBCHEM_MOLECULAR_WEIGHT>
326.43264

> <PUBCHEM_OPENEYE_CAN_SMILES>
CCC1C2CC3C4C5(CC(C2C5O)N3C1O)C6=CC=CC=C6N4C

> <PUBCHEM_OPENEYE_ISO_SMILES>
CC[C@H]1[C@@H]2CC3[C@H]4[C@@]5(C[C@@H](C2[C@H]5O)N3[C@@H]1O)C6=CC=CC=C6N4C

> <PUBCHEM_CACTVS_TPSA>
46.9

> <PUBCHEM_MONOISOTOPIC_WEIGHT>
326.199428

> <PUBCHEM_TOTAL_CHARGE>
0

> <PUBCHEM_HEAVY_ATOM_COUNT>
24

> <PUBCHEM_ATOM_DEF_STEREO_COUNT>
7

> <PUBCHEM_ATOM_UDEF_STEREO_COUNT>
2

> <PUBCHEM_BOND_DEF_STEREO_COUNT>
0

> <PUBCHEM_BOND_UDEF_STEREO_COUNT>
0

> <PUBCHEM_ISOTOPIC_ATOM_COUNT>
0

> <PUBCHEM_COMPONENT_COUNT>
1

> <PUBCHEM_CACTVS_TAUTO_COUNT>
1

> <PUBCHEM_COORDINATE_TYPE>
1
5
255

> <PUBCHEM_BONDANNOTATIONS>
10  29  5
14  18  5
16  17  8
16  19  8
17  21  8
19  23  8
15  2  6
21  24  8
23  24  8
5  16  6
6  11  3
7  26  6
8  13  3
9  28  5

$$$$

