9934458
  -OEChem-07051213072D

 48 50  0     0  0  0  0  0  0999 V2000
    4.5411    1.2208    0.0000 S   0  0  0  0  0  0  0  0  0  0  0  0
    5.8144   -0.4348    0.0000 S   0  0  0  0  0  0  0  0  0  0  0  0
    2.0000    4.8086    0.0000 F   0  0  0  0  0  0  0  0  0  0  0  0
    3.7320    6.8086    0.0000 F   0  0  0  0  0  0  0  0  0  0  0  0
    4.7320    5.8086    0.0000 F   0  0  0  0  0  0  0  0  0  0  0  0
    2.7320    5.8086    0.0000 F   0  0  0  0  0  0  0  0  0  0  0  0
    8.1655   -3.6708    0.0000 O   0  0  0  0  0  0  0  0  0  0  0  0
    7.9398   -6.3070    0.0000 O   0  0  0  0  0  0  0  0  0  0  0  0
    9.3411   -5.2889    0.0000 O   0  0  0  0  0  0  0  0  0  0  0  0
    2.9230    1.2208    0.0000 N   0  0  0  0  0  0  0  0  0  0  0  0
    4.2320    0.2697    0.0000 C   0  0  0  0  0  0  0  0  0  0  0  0
    4.8198   -0.5393    0.0000 C   0  0  0  0  0  0  0  0  0  0  0  0
    3.2320    0.2697    0.0000 C   0  0  0  0  0  0  0  0  0  0  0  0
    3.7320    1.8086    0.0000 C   0  0  0  0  0  0  0  0  0  0  0  0
    3.7320    2.8086    0.0000 C   0  0  0  0  0  0  0  0  0  0  0  0
    6.4021   -1.2438    0.0000 C   0  0  0  0  0  0  0  0  0  0  0  0
    7.9844   -1.9483    0.0000 C   0  0  0  0  0  0  0  0  0  0  0  0
    2.8660    3.3086    0.0000 C   0  0  0  0  0  0  0  0  0  0  0  0
    4.5981    3.3086    0.0000 C   0  0  0  0  0  0  0  0  0  0  0  0
    7.3967   -1.1393    0.0000 C   0  0  0  0  0  0  0  0  0  0  0  0
    3.7320    4.8086    0.0000 C   0  0  0  0  0  0  0  0  0  0  0  0
    7.5777   -2.8618    0.0000 C   0  0  0  0  0  0  0  0  0  0  0  0
    2.6443   -0.5393    0.0000 C   0  0  0  0  0  0  0  0  0  0  0  0
    2.8660    4.3086    0.0000 C   0  0  0  0  0  0  0  0  0  0  0  0
    4.5981    4.3086    0.0000 C   0  0  0  0  0  0  0  0  0  0  0  0
    5.9954   -2.1573    0.0000 C   0  0  0  0  0  0  0  0  0  0  0  0
    6.5832   -2.9664    0.0000 C   0  0  0  0  0  0  0  0  0  0  0  0
    8.9790   -1.8438    0.0000 C   0  0  0  0  0  0  0  0  0  0  0  0
    3.7320    5.8086    0.0000 C   0  0  0  0  0  0  0  0  0  0  0  0
    7.7588   -4.5844    0.0000 C   0  0  0  0  0  0  0  0  0  0  0  0
    8.3466   -5.3934    0.0000 C   0  0  0  0  0  0  0  0  0  0  0  0
    4.2626   -0.8111    0.0000 H   0  0  0  0  0  0  0  0  0  0  0  0
    4.9907   -1.1353    0.0000 H   0  0  0  0  0  0  0  0  0  0  0  0
    2.3291    2.9986    0.0000 H   0  0  0  0  0  0  0  0  0  0  0  0
    5.1350    2.9986    0.0000 H   0  0  0  0  0  0  0  0  0  0  0  0
    7.6488   -0.5729    0.0000 H   0  0  0  0  0  0  0  0  0  0  0  0
    2.1427   -0.1749    0.0000 H   0  0  0  0  0  0  0  0  0  0  0  0
    2.2798   -1.0409    0.0000 H   0  0  0  0  0  0  0  0  0  0  0  0
    3.1459   -0.9037    0.0000 H   0  0  0  0  0  0  0  0  0  0  0  0
    5.1350    4.6186    0.0000 H   0  0  0  0  0  0  0  0  0  0  0  0
    5.3788   -2.2222    0.0000 H   0  0  0  0  0  0  0  0  0  0  0  0
    6.3310   -3.5328    0.0000 H   0  0  0  0  0  0  0  0  0  0  0  0
    9.0438   -2.4604    0.0000 H   0  0  0  0  0  0  0  0  0  0  0  0
    9.5956   -1.7790    0.0000 H   0  0  0  0  0  0  0  0  0  0  0  0
    8.9142   -1.2272    0.0000 H   0  0  0  0  0  0  0  0  0  0  0  0
    7.2448   -4.2377    0.0000 H   0  0  0  0  0  0  0  0  0  0  0  0
    7.3281   -5.0304    0.0000 H   0  0  0  0  0  0  0  0  0  0  0  0
    8.3042   -6.8086    0.0000 H   0  0  0  0  0  0  0  0  0  0  0  0
  1 11  1  0  0  0  0
  1 14  1  0  0  0  0
  2 12  1  0  0  0  0
  2 16  1  0  0  0  0
  3 24  1  0  0  0  0
  4 29  1  0  0  0  0
  5 29  1  0  0  0  0
  6 29  1  0  0  0  0
  7 22  1  0  0  0  0
  7 30  1  0  0  0  0
  8 31  1  0  0  0  0
  8 48  1  0  0  0  0
  9 31  2  0  0  0  0
 10 13  1  0  0  0  0
 10 14  2  0  0  0  0
 11 12  1  0  0  0  0
 11 13  2  0  0  0  0
 12 32  1  0  0  0  0
 12 33  1  0  0  0  0
 13 23  1  0  0  0  0
 14 15  1  0  0  0  0
 15 18  2  0  0  0  0
 15 19  1  0  0  0  0
 16 20  2  0  0  0  0
 16 26  1  0  0  0  0
 17 20  1  0  0  0  0
 17 22  2  0  0  0  0
 17 28  1  0  0  0  0
 18 24  1  0  0  0  0
 18 34  1  0  0  0  0
 19 25  2  0  0  0  0
 19 35  1  0  0  0  0
 20 36  1  0  0  0  0
 21 24  2  0  0  0  0
 21 25  1  0  0  0  0
 21 29  1  0  0  0  0
 22 27  1  0  0  0  0
 23 37  1  0  0  0  0
 23 38  1  0  0  0  0
 23 39  1  0  0  0  0
 25 40  1  0  0  0  0
 26 27  2  0  0  0  0
 26 41  1  0  0  0  0
 27 42  1  0  0  0  0
 28 43  1  0  0  0  0
 28 44  1  0  0  0  0
 28 45  1  0  0  0  0
 30 31  1  0  0  0  0
 30 46  1  0  0  0  0
 30 47  1  0  0  0  0
M  END
> <PUBCHEM_COMPOUND_CID>
9934458

> <PUBCHEM_COMPOUND_CANONICALIZED>
1

> <PUBCHEM_CACTVS_COMPLEXITY>
612

> <PUBCHEM_CACTVS_HBOND_ACCEPTOR>
10

> <PUBCHEM_CACTVS_HBOND_DONOR>
1

> <PUBCHEM_CACTVS_ROTATABLE_BOND>
7

> <PUBCHEM_CACTVS_SUBSKEYS>
AAADceB6McBgAAAAAAAAAAAAAAAAAWAAAAAwYAAAAAAAAAAB0AAAHwQACAAADAyl3hqyj5IIFgisAyTyTAKC+KBhKDgImDx2TJgNJqLksR+GOCjkwBHrqAeQwCAOQIAAgAAIAACBAAEAABAAAAAAAAAAAA==

> <PUBCHEM_IUPAC_OPENEYE_NAME>
2-[4-[[2-[3-fluoro-4-(trifluoromethyl)phenyl]-4-methyl-thiazol-5-yl]methylsulfanyl]-2-methyl-phenoxy]acetic acid

> <PUBCHEM_IUPAC_CAS_NAME>
2-[4-[[2-[3-fluoro-4-(trifluoromethyl)phenyl]-4-methyl-5-thiazolyl]methylthio]-2-methylphenoxy]acetic acid

> <PUBCHEM_IUPAC_NAME>
2-[4-[[2-[3-fluoro-4-(trifluoromethyl)phenyl]-4-methyl-1,3-thiazol-5-yl]methylsulfanyl]-2-methylphenoxy]acetic acid

> <PUBCHEM_IUPAC_SYSTEMATIC_NAME>
2-[4-[[2-[3-fluoranyl-4-(trifluoromethyl)phenyl]-4-methyl-1,3-thiazol-5-yl]methylsulfanyl]-2-methyl-phenoxy]ethanoic acid

> <PUBCHEM_IUPAC_TRADITIONAL_NAME>
2-[4-[[2-[3-fluoro-4-(trifluoromethyl)phenyl]-4-methyl-thiazol-5-yl]methylthio]-2-methyl-phenoxy]acetic acid

> <PUBCHEM_IUPAC_INCHI>
InChI=1S/C21H17F4NO3S2/c1-11-7-14(4-6-17(11)29-9-19(27)28)30-10-18-12(2)26-20(31-18)13-3-5-15(16(22)8-13)21(23,24)25/h3-8H,9-10H2,1-2H3,(H,27,28)

> <PUBCHEM_IUPAC_INCHIKEY>
HWVNEWGKWRGSRK-UHFFFAOYSA-N

> <PUBCHEM_XLOGP3_AA>
6

> <PUBCHEM_EXACT_MASS>
471.058598

> <PUBCHEM_MOLECULAR_FORMULA>
C21H17F4NO3S2

> <PUBCHEM_MOLECULAR_WEIGHT>
471.488193

> <PUBCHEM_OPENEYE_CAN_SMILES>
CC1=C(C=CC(=C1)SCC2=C(N=C(S2)C3=CC(=C(C=C3)C(F)(F)F)F)C)OCC(=O)O

> <PUBCHEM_OPENEYE_ISO_SMILES>
CC1=C(C=CC(=C1)SCC2=C(N=C(S2)C3=CC(=C(C=C3)C(F)(F)F)F)C)OCC(=O)O

> <PUBCHEM_CACTVS_TPSA>
113

> <PUBCHEM_MONOISOTOPIC_WEIGHT>
471.058598

> <PUBCHEM_TOTAL_CHARGE>
0

> <PUBCHEM_HEAVY_ATOM_COUNT>
31

> <PUBCHEM_ATOM_DEF_STEREO_COUNT>
0

> <PUBCHEM_ATOM_UDEF_STEREO_COUNT>
0

> <PUBCHEM_BOND_DEF_STEREO_COUNT>
0

> <PUBCHEM_BOND_UDEF_STEREO_COUNT>
0

> <PUBCHEM_ISOTOPIC_ATOM_COUNT>
0

> <PUBCHEM_COMPONENT_COUNT>
1

> <PUBCHEM_CACTVS_TAUTO_COUNT>
1

> <PUBCHEM_COORDINATE_TYPE>
1
5
255

> <PUBCHEM_BONDANNOTATIONS>
1  11  8
1  14  8
10  13  8
10  14  8
11  13  8
15  18  8
15  19  8
16  20  8
16  26  8
17  20  8
17  22  8
18  24  8
19  25  8
21  24  8
21  25  8
22  27  8
26  27  8

$$$$

