439920
  -OEChem-07051212482D

 28 29  0     1  0  0  0  0  0999 V2000
    3.6377   -0.6307    0.0000 O   0  0  0  0  0  0  0  0  0  0  0  0
    6.2068   -0.3216    0.0000 O   0  0  0  0  0  0  0  0  0  0  0  0
    5.5345   -2.3907    0.0000 O   0  0  0  0  0  0  0  0  0  0  0  0
    2.3644   -2.2862    0.0000 O   0  0  0  0  0  0  0  0  0  0  0  0
    4.4467    0.9571    0.0000 N   0  3  0  0  0  0  0  0  0  0  0  0
    5.3128    2.4571    0.0000 N   0  0  0  0  0  0  0  0  0  0  0  0
    5.2558   -0.6307    0.0000 C   0  0  2  0  0  0  0  0  0  0  0  0
    4.9467   -1.5817    0.0000 C   0  0  1  0  0  0  0  0  0  0  0  0
    4.4467   -0.0429    0.0000 C   0  0  1  0  0  0  0  0  0  0  0  0
    3.9467   -1.5817    0.0000 C   0  0  1  0  0  0  0  0  0  0  0  0
    3.3590   -2.3907    0.0000 C   0  0  0  0  0  0  0  0  0  0  0  0
    3.5807    1.4571    0.0000 C   0  0  0  0  0  0  0  0  0  0  0  0
    5.3128    1.4571    0.0000 C   0  0  0  0  0  0  0  0  0  0  0  0
    3.5807    2.4571    0.0000 C   0  0  0  0  0  0  0  0  0  0  0  0
    4.4467    2.9571    0.0000 C   0  0  0  0  0  0  0  0  0  0  0  0
    5.6942   -1.0691    0.0000 H   0  0  0  0  0  0  0  0  0  0  0  0
    4.6653   -2.1341    0.0000 H   0  0  0  0  0  0  0  0  0  0  0  0
    3.8943    0.2386    0.0000 H   0  0  0  0  0  0  0  0  0  0  0  0
    3.3344   -1.4847    0.0000 H   0  0  0  0  0  0  0  0  0  0  0  0
    3.1880   -2.9867    0.0000 H   0  0  0  0  0  0  0  0  0  0  0  0
    3.9162   -2.6625    0.0000 H   0  0  0  0  0  0  0  0  0  0  0  0
    6.6676   -0.7365    0.0000 H   0  0  0  0  0  0  0  0  0  0  0  0
    5.2823   -2.9571    0.0000 H   0  0  0  0  0  0  0  0  0  0  0  0
    3.0438    1.1471    0.0000 H   0  0  0  0  0  0  0  0  0  0  0  0
    5.8497    1.1471    0.0000 H   0  0  0  0  0  0  0  0  0  0  0  0
    2.0000   -2.7878    0.0000 H   0  0  0  0  0  0  0  0  0  0  0  0
    3.0438    2.7671    0.0000 H   0  0  0  0  0  0  0  0  0  0  0  0
    4.4467    3.5771    0.0000 H   0  0  0  0  0  0  0  0  0  0  0  0
  1  9  1  0  0  0  0
  1 10  1  0  0  0  0
  7  2  1  6  0  0  0
  2 22  1  0  0  0  0
  8  3  1  6  0  0  0
  3 23  1  0  0  0  0
  4 11  1  0  0  0  0
  4 26  1  0  0  0  0
  9  5  1  1  0  0  0
  5 12  2  0  0  0  0
  5 13  1  0  0  0  0
  6 13  2  0  0  0  0
  6 15  1  0  0  0  0
  7  8  1  0  0  0  0
  7  9  1  0  0  0  0
  7 16  1  0  0  0  0
  8 10  1  0  0  0  0
  8 17  1  0  0  0  0
  9 18  1  0  0  0  0
 10 11  1  1  0  0  0
 10 19  1  0  0  0  0
 11 20  1  0  0  0  0
 11 21  1  0  0  0  0
 12 14  1  0  0  0  0
 12 24  1  0  0  0  0
 13 25  1  0  0  0  0
 14 15  2  0  0  0  0
 14 27  1  0  0  0  0
 15 28  1  0  0  0  0
M  CHG  1   5   1
M  END
> <PUBCHEM_COMPOUND_CID>
439920

> <PUBCHEM_COMPOUND_CANONICALIZED>
1

> <PUBCHEM_CACTVS_COMPLEXITY>
216

> <PUBCHEM_CACTVS_HBOND_ACCEPTOR>
5

> <PUBCHEM_CACTVS_HBOND_DONOR>
3

> <PUBCHEM_CACTVS_ROTATABLE_BOND>
2

> <PUBCHEM_CACTVS_SUBSKEYS>
AAADccBzOAAAAAAAAAAAAAAAAAAAASAAAAAsAAAAAAAAAAABgAAAHgAACAAACBThkgY9kJcMFgCgADBnZACAgCkRAqAJUCA4ZBCDGIJAyUAORAgPAALTACDwMAIAAAAAAAAAAAAAAAAAAAAAAAAAAAAAAA==

> <PUBCHEM_IUPAC_OPENEYE_NAME>
(2R,3S,4R,5R)-2-(hydroxymethyl)-5-pyrimidin-1-ium-1-yl-tetrahydrofuran-3,4-diol

> <PUBCHEM_IUPAC_CAS_NAME>
(2R,3S,4R,5R)-2-(hydroxymethyl)-5-(1-pyrimidin-1-iumyl)oxolane-3,4-diol

> <PUBCHEM_IUPAC_NAME>
(2R,3S,4R,5R)-2-(hydroxymethyl)-5-pyrimidin-1-ium-1-yloxolane-3,4-diol

> <PUBCHEM_IUPAC_SYSTEMATIC_NAME>
(2R,3S,4R,5R)-2-(hydroxymethyl)-5-pyrimidin-1-ium-1-yl-oxolane-3,4-diol

> <PUBCHEM_IUPAC_TRADITIONAL_NAME>
(2R,3S,4R,5R)-2-methylol-5-pyrimidin-1-ium-1-yl-tetrahydrofuran-3,4-diol

> <PUBCHEM_IUPAC_INCHI>
InChI=1S/C9H13N2O4/c12-4-6-7(13)8(14)9(15-6)11-3-1-2-10-5-11/h1-3,5-9,12-14H,4H2/q+1/t6-,7-,8-,9-/m1/s1

> <PUBCHEM_IUPAC_INCHIKEY>
UAGYHIZGHDGMCY-FNCVBFRFSA-N

> <PUBCHEM_XLOGP3_AA>
-1.3

> <PUBCHEM_EXACT_MASS>
213.087532

> <PUBCHEM_MOLECULAR_FORMULA>
C9H13N2O4+

> <PUBCHEM_MOLECULAR_WEIGHT>
213.21052

> <PUBCHEM_OPENEYE_CAN_SMILES>
C1=CN=C[N+](=C1)C2C(C(C(O2)CO)O)O

> <PUBCHEM_OPENEYE_ISO_SMILES>
C1=CN=C[N+](=C1)[C@H]2[C@@H]([C@@H]([C@H](O2)CO)O)O

> <PUBCHEM_CACTVS_TPSA>
86.7

> <PUBCHEM_MONOISOTOPIC_WEIGHT>
213.087532

> <PUBCHEM_TOTAL_CHARGE>
1

> <PUBCHEM_HEAVY_ATOM_COUNT>
15

> <PUBCHEM_ATOM_DEF_STEREO_COUNT>
4

> <PUBCHEM_ATOM_UDEF_STEREO_COUNT>
0

> <PUBCHEM_BOND_DEF_STEREO_COUNT>
0

> <PUBCHEM_BOND_UDEF_STEREO_COUNT>
0

> <PUBCHEM_ISOTOPIC_ATOM_COUNT>
0

> <PUBCHEM_COMPONENT_COUNT>
1

> <PUBCHEM_CACTVS_TAUTO_COUNT>
1

> <PUBCHEM_COORDINATE_TYPE>
1
5
255

> <PUBCHEM_BONDANNOTATIONS>
10  11  5
12  14  8
14  15  8
7  2  6
8  3  6
5  12  8
5  13  8
9  5  5
6  13  8
6  15  8

$$$$

