441420
  -OEChem-07051212543D

 25 25  0     1  0  0  0  0  0999 V2000
   -1.7061   -0.5631    0.1799 O   0  0  0  0  0  0  0  0  0  0  0  0
    2.2874    0.4408    0.3773 O   0  0  0  0  0  0  0  0  0  0  0  0
    0.3368    2.4546   -0.3261 O   0  0  0  0  0  0  0  0  0  0  0  0
   -1.1810   -2.8427    0.0691 O   0  0  0  0  0  0  0  0  0  0  0  0
    1.0449    0.1489   -0.2564 C   0  0  2  0  0  0  0  0  0  0  0  0
    0.0020    1.1721    0.1976 C   0  0  2  0  0  0  0  0  0  0  0  0
   -1.4031    0.7632   -0.2630 C   0  0  2  0  0  0  0  0  0  0  0  0
    0.6053   -1.2633    0.1134 C   0  0  0  0  0  0  0  0  0  0  0  0
   -0.8155   -1.5367   -0.3650 C   0  0  2  0  0  0  0  0  0  0  0  0
   -2.4722    1.6934    0.3004 C   0  0  0  0  0  0  0  0  0  0  0  0
    3.3014   -0.4672   -0.0272 C   0  0  0  0  0  0  0  0  0  0  0  0
    1.1815    0.2348   -1.3429 H   0  0  0  0  0  0  0  0  0  0  0  0
    0.0344    1.2529    1.2913 H   0  0  0  0  0  0  0  0  0  0  0  0
   -1.4739    0.8000   -1.3582 H   0  0  0  0  0  0  0  0  0  0  0  0
    1.2690   -2.0252   -0.3112 H   0  0  0  0  0  0  0  0  0  0  0  0
    0.6644   -1.3957    1.2026 H   0  0  0  0  0  0  0  0  0  0  0  0
   -0.8670   -1.5150   -1.4606 H   0  0  0  0  0  0  0  0  0  0  0  0
   -2.4704    1.6735    1.3959 H   0  0  0  0  0  0  0  0  0  0  0  0
   -2.3264    2.7252   -0.0326 H   0  0  0  0  0  0  0  0  0  0  0  0
   -3.4677    1.3642   -0.0169 H   0  0  0  0  0  0  0  0  0  0  0  0
    0.2971    2.4011   -1.2963 H   0  0  0  0  0  0  0  0  0  0  0  0
   -1.8798   -3.1571   -0.5293 H   0  0  0  0  0  0  0  0  0  0  0  0
    3.2947   -0.6334   -1.1093 H   0  0  0  0  0  0  0  0  0  0  0  0
    3.2199   -1.4135    0.5147 H   0  0  0  0  0  0  0  0  0  0  0  0
    4.2669   -0.0265    0.2392 H   0  0  0  0  0  0  0  0  0  0  0  0
  1  7  1  0  0  0  0
  1  9  1  0  0  0  0
  2  5  1  0  0  0  0
  2 11  1  0  0  0  0
  3  6  1  0  0  0  0
  3 21  1  0  0  0  0
  4  9  1  0  0  0  0
  4 22  1  0  0  0  0
  5  6  1  0  0  0  0
  5  8  1  0  0  0  0
  5 12  1  0  0  0  0
  6  7  1  0  0  0  0
  6 13  1  0  0  0  0
  7 10  1  0  0  0  0
  7 14  1  0  0  0  0
  8  9  1  0  0  0  0
  8 15  1  0  0  0  0
  8 16  1  0  0  0  0
  9 17  1  0  0  0  0
 10 18  1  0  0  0  0
 10 19  1  0  0  0  0
 10 20  1  0  0  0  0
 11 23  1  0  0  0  0
 11 24  1  0  0  0  0
 11 25  1  0  0  0  0
M  END
> <PUBCHEM_COMPOUND_CID>
441420

> <PUBCHEM_CONFORMER_RMSD>
0.6

> <PUBCHEM_CONFORMER_DIVERSEORDER>
1
5
3
2
4

> <PUBCHEM_MMFF94_PARTIAL_CHARGES>
11
1 -0.56
11 0.28
2 -0.56
21 0.4
22 0.4
3 -0.68
4 -0.68
5 0.28
6 0.28
7 0.28
9 0.56

> <PUBCHEM_EFFECTIVE_ROTOR_COUNT>
2.2

> <PUBCHEM_PHARMACOPHORE_FEATURES>
7
1 1 acceptor
1 2 acceptor
1 3 acceptor
1 3 donor
1 4 acceptor
1 4 donor
6 1 5 6 7 8 9 rings

> <PUBCHEM_HEAVY_ATOM_COUNT>
11

> <PUBCHEM_ATOM_DEF_STEREO_COUNT>
4

> <PUBCHEM_ATOM_UDEF_STEREO_COUNT>
0

> <PUBCHEM_BOND_DEF_STEREO_COUNT>
0

> <PUBCHEM_BOND_UDEF_STEREO_COUNT>
0

> <PUBCHEM_ISOTOPIC_ATOM_COUNT>
0

> <PUBCHEM_COMPONENT_COUNT>
1

> <PUBCHEM_CACTVS_TAUTO_COUNT>
1

> <PUBCHEM_CONFORMER_ID>
0006BC4C00000001

> <PUBCHEM_MMFF94_ENERGY>
26.196

> <PUBCHEM_FEATURE_SELFOVERLAP>
35.565

> <PUBCHEM_SHAPE_FINGERPRINT>
12716758 59 18335704966009975378
16945 1 18338233747921558311
18185500 45 18341899537000385922
193761 8 18122624950964651013
20645476 183 17987213668980914558
20871998 184 18187925023895217030
21040471 1 18410009982936336588
23235685 24 18265900335389683848
23552423 10 17838618859863479324
23559900 14 18261669368640753262
241688 4 18050852117595431643
2748010 2 18266169715970487263
528862 383 17911240838284429635
528886 8 18265901434959249617
66348 1 18410579525664537779

> <PUBCHEM_SHAPE_MULTIPOLES>
202.9
3.46
2.52
0.64
1.81
1.25
0.01
-1.17
-0.29
-0.91
0.07
-0.01
-0.03
-0.03

> <PUBCHEM_SHAPE_SELFOVERLAP>
397.003

> <PUBCHEM_SHAPE_VOLUME>
121.4

> <PUBCHEM_COORDINATE_TYPE>
2
5
10

$$$$

