443038
  -OEChem-07051213003D

 40 42  0     0  0  0  0  0  0999 V2000
    7.0010    0.8724    0.0517 Cl  0  0  0  0  0  0  0  0  0  0  0  0
   -3.5232    1.0545   -0.7016 O   0  0  0  0  0  0  0  0  0  0  0  0
   -2.5149   -1.3829   -0.9327 O   0  0  0  0  0  0  0  0  0  0  0  0
   -0.9296   -3.6794    1.2078 O   0  0  0  0  0  0  0  0  0  0  0  0
   -0.4020   -4.0896   -0.9924 O   0  0  0  0  0  0  0  0  0  0  0  0
    1.1342   -0.1381    0.0952 N   0  0  0  0  0  0  0  0  0  0  0  0
    0.8226   -1.4762    0.1403 N   0  0  0  0  0  0  0  0  0  0  0  0
    0.0999    0.8440    0.0473 C   0  0  0  0  0  0  0  0  0  0  0  0
   -1.2133    0.4779   -0.2669 C   0  0  0  0  0  0  0  0  0  0  0  0
   -2.2552    1.4066   -0.3522 C   0  0  0  0  0  0  0  0  0  0  0  0
   -1.4691   -0.9402   -0.4916 C   0  0  0  0  0  0  0  0  0  0  0  0
    0.3250    2.2013    0.3354 C   0  0  0  0  0  0  0  0  0  0  0  0
    2.5440    0.1054    0.0853 C   0  0  0  0  0  0  0  0  0  0  0  0
   -1.9947    2.7469   -0.0904 C   0  0  0  0  0  0  0  0  0  0  0  0
   -0.3743   -1.8880   -0.1265 C   0  0  0  0  0  0  0  0  0  0  0  0
   -0.7081    3.1429    0.2617 C   0  0  0  0  0  0  0  0  0  0  0  0
   -4.5572    1.3347    0.2404 C   0  0  0  0  0  0  0  0  0  0  0  0
   -5.6487    0.2848    0.0991 C   0  0  0  0  0  0  0  0  0  0  0  0
    3.0659    1.2271   -0.5717 C   0  0  0  0  0  0  0  0  0  0  0  0
    3.4205   -0.7756    0.7322 C   0  0  0  0  0  0  0  0  0  0  0  0
   -6.7948    0.5283    1.0644 C   0  0  0  0  0  0  0  0  0  0  0  0
    4.4405    1.4637   -0.5821 C   0  0  0  0  0  0  0  0  0  0  0  0
    4.7951   -0.5390    0.7220 C   0  0  0  0  0  0  0  0  0  0  0  0
   -0.5690   -3.3624   -0.0396 C   0  0  0  0  0  0  0  0  0  0  0  0
    5.3051    0.5808    0.0649 C   0  0  0  0  0  0  0  0  0  0  0  0
    1.2899    2.5647    0.6758 H   0  0  0  0  0  0  0  0  0  0  0  0
   -2.7792    3.4955   -0.1560 H   0  0  0  0  0  0  0  0  0  0  0  0
   -0.5053    4.1856    0.4895 H   0  0  0  0  0  0  0  0  0  0  0  0
   -4.9620    2.3316    0.0318 H   0  0  0  0  0  0  0  0  0  0  0  0
   -4.1659    1.3215    1.2660 H   0  0  0  0  0  0  0  0  0  0  0  0
   -6.0239    0.2801   -0.9312 H   0  0  0  0  0  0  0  0  0  0  0  0
   -5.2246   -0.7119    0.2699 H   0  0  0  0  0  0  0  0  0  0  0  0
    2.4405    1.9027   -1.1477 H   0  0  0  0  0  0  0  0  0  0  0  0
    3.0557   -1.6495    1.2663 H   0  0  0  0  0  0  0  0  0  0  0  0
   -7.2573    1.5043    0.8860 H   0  0  0  0  0  0  0  0  0  0  0  0
   -7.5645   -0.2398    0.9409 H   0  0  0  0  0  0  0  0  0  0  0  0
   -6.4474    0.4969    2.1020 H   0  0  0  0  0  0  0  0  0  0  0  0
    4.8257    2.3318   -1.1111 H   0  0  0  0  0  0  0  0  0  0  0  0
    5.4569   -1.2337    1.2330 H   0  0  0  0  0  0  0  0  0  0  0  0
   -1.0694   -4.6435    1.3218 H   0  0  0  0  0  0  0  0  0  0  0  0
  1 25  1  0  0  0  0
  2 10  1  0  0  0  0
  2 17  1  0  0  0  0
  3 11  2  0  0  0  0
  4 24  1  0  0  0  0
  4 40  1  0  0  0  0
  5 24  2  0  0  0  0
  6  7  1  0  0  0  0
  6  8  1  0  0  0  0
  6 13  1  0  0  0  0
  7 15  2  0  0  0  0
  8  9  2  0  0  0  0
  8 12  1  0  0  0  0
  9 10  1  0  0  0  0
  9 11  1  0  0  0  0
 10 14  2  0  0  0  0
 11 15  1  0  0  0  0
 12 16  2  0  0  0  0
 12 26  1  0  0  0  0
 13 19  2  0  0  0  0
 13 20  1  0  0  0  0
 14 16  1  0  0  0  0
 14 27  1  0  0  0  0
 15 24  1  0  0  0  0
 16 28  1  0  0  0  0
 17 18  1  0  0  0  0
 17 29  1  0  0  0  0
 17 30  1  0  0  0  0
 18 21  1  0  0  0  0
 18 31  1  0  0  0  0
 18 32  1  0  0  0  0
 19 22  1  0  0  0  0
 19 33  1  0  0  0  0
 20 23  2  0  0  0  0
 20 34  1  0  0  0  0
 21 35  1  0  0  0  0
 21 36  1  0  0  0  0
 21 37  1  0  0  0  0
 22 25  2  0  0  0  0
 22 38  1  0  0  0  0
 23 25  1  0  0  0  0
 23 39  1  0  0  0  0
M  END
> <PUBCHEM_COMPOUND_CID>
443038

> <PUBCHEM_CONFORMER_RMSD>
0.8

> <PUBCHEM_CONFORMER_DIVERSEORDER>
1
5
11
6
2
3
7
4
9
8
10

> <PUBCHEM_MMFF94_PARTIAL_CHARGES>
31
1 -0.18
10 0.08
11 0.48
12 -0.15
13 0.1
14 -0.15
15 0.45
16 -0.15
17 0.28
19 -0.15
2 -0.36
20 -0.15
22 -0.15
23 -0.15
24 0.72
25 0.18
26 0.15
27 0.15
28 0.15
3 -0.57
33 0.15
34 0.15
38 0.15
39 0.15
4 -0.65
40 0.5
5 -0.57
6 -0.16
7 -0.49
8 0.1
9 0.09

> <PUBCHEM_EFFECTIVE_ROTOR_COUNT>
5

> <PUBCHEM_PHARMACOPHORE_FEATURES>
11
1 15 anion
1 2 acceptor
1 21 hydrophobe
1 3 acceptor
1 4 acceptor
1 5 acceptor
1 7 acceptor
3 4 5 24 anion
6 13 19 20 22 23 25 rings
6 6 7 8 9 11 15 rings
6 8 9 10 12 14 16 rings

> <PUBCHEM_HEAVY_ATOM_COUNT>
25

> <PUBCHEM_ATOM_DEF_STEREO_COUNT>
0

> <PUBCHEM_ATOM_UDEF_STEREO_COUNT>
0

> <PUBCHEM_BOND_DEF_STEREO_COUNT>
0

> <PUBCHEM_BOND_UDEF_STEREO_COUNT>
0

> <PUBCHEM_ISOTOPIC_ATOM_COUNT>
0

> <PUBCHEM_COMPONENT_COUNT>
1

> <PUBCHEM_CACTVS_TAUTO_COUNT>
1

> <PUBCHEM_CONFORMER_ID>
0006C29E00000001

> <PUBCHEM_MMFF94_ENERGY>
84.1305

> <PUBCHEM_FEATURE_SELFOVERLAP>
56.235

> <PUBCHEM_SHAPE_FINGERPRINT>
10090160 65 18342742961614490829
10411042 1 17762059839784935910
10493431 412 18408603669300199429
10906281 52 18261662684585106724
1100329 8 18337671897738779809
11445158 3 17988917826394843957
12236239 1 18059859506251103288
12390115 104 17969774366387197264
12553582 1 17834960768021011762
12592029 89 18340486793376187939
12788726 201 18269849635645102682
12838862 33 18338536190987305901
13140716 1 18335987459231668809
138480 1 17185316985286037062
13862211 1 18409173216518670317
13911987 19 18340783614572033309
14787075 74 18343022198981863945
14790565 3 18409161130301968337
14866123 147 18337672993203496483
15042514 8 18341047402614734546
15131766 46 15480675553141149332
15927050 60 17832419800648900149
16728300 4 17557729115571027226
17492 89 18053387879203754842
19319366 153 17917716790427026098
19591789 44 18338801113655254389
20028762 73 18114184069740943175
20775438 99 16384846698822084663
21236236 1 18337391539796405527
21267235 1 18340482365834669508
21521721 280 18335979805336502433
21781051 124 18128793335724327674
22224240 67 18408321086659692193
23366157 5 17622439867090049691
23402539 116 18333740087165126236
23557571 272 18188207603374562452
23559900 14 18261963934404163984
23598288 3 18195804060143679094
283562 15 18263080066906646089
3178227 256 18339067230193243193
335352 9 18409730625452759068
34797466 226 17822006507223100572
350125 39 18411421730287137864
3545911 37 18411420627123828748
4258327 124 17631432502970871548
474229 33 18412544331869509137
484989 97 18125732184506571183
5104073 3 18199478662795721480
5486654 2 18410008840559789245
6669772 16 18187642556902757670
9709674 26 18334855005463169582

> <PUBCHEM_SHAPE_MULTIPOLES>
482.92
12.53
3.75
0.87
3.02
3.57
-0.05
-5.5
-2.31
-1.83
0.1
-0.22
0.25
-0.51

> <PUBCHEM_SHAPE_SELFOVERLAP>
1038.519

> <PUBCHEM_SHAPE_VOLUME>
265.5

> <PUBCHEM_COORDINATE_TYPE>
2
5
10

$$$$

