4766
  -OEChem-07051213032D

 39 42  0     0  0  0  0  0  0999 V2000
    4.6783   -2.2971    0.0000 S   0  0  0  0  0  0  0  0  0  0  0  0
    5.2619   -1.4924    0.0000 O   0  0  0  0  0  0  0  0  0  0  0  0
    5.4883   -2.8835    0.0000 O   0  0  0  0  0  0  0  0  0  0  0  0
    4.3709   -3.2487    0.0000 O   0  0  0  0  0  0  0  0  0  0  0  0
    3.4488    3.1187    0.0000 O   0  0  0  0  0  0  0  0  0  0  0  0
    8.6571   -0.2764    0.0000 O   0  0  0  0  0  0  0  0  0  0  0  0
    4.6783   -0.6876    0.0000 C   0  0  0  0  0  0  0  0  0  0  0  0
    3.7320   -0.9924    0.0000 C   0  0  0  0  0  0  0  0  0  0  0  0
    3.7320   -1.9924    0.0000 C   0  0  0  0  0  0  0  0  0  0  0  0
    5.6730   -0.5848    0.0000 C   0  0  0  0  0  0  0  0  0  0  0  0
    4.3709    0.2640    0.0000 C   0  0  0  0  0  0  0  0  0  0  0  0
    2.8660   -0.4924    0.0000 C   0  0  0  0  0  0  0  0  0  0  0  0
    2.8660   -2.4924    0.0000 C   0  0  0  0  0  0  0  0  0  0  0  0
    5.0413    1.0059    0.0000 C   0  0  0  0  0  0  0  0  0  0  0  0
    6.2594   -1.3949    0.0000 C   0  0  0  0  0  0  0  0  0  0  0  0
    3.3931    0.4736    0.0000 C   0  0  0  0  0  0  0  0  0  0  0  0
    6.0813    0.3280    0.0000 C   0  0  0  0  0  0  0  0  0  0  0  0
    2.0000   -0.9924    0.0000 C   0  0  0  0  0  0  0  0  0  0  0  0
    2.0000   -1.9924    0.0000 C   0  0  0  0  0  0  0  0  0  0  0  0
    7.2541   -1.2920    0.0000 C   0  0  0  0  0  0  0  0  0  0  0  0
    4.7339    1.9575    0.0000 C   0  0  0  0  0  0  0  0  0  0  0  0
    7.0760    0.4308    0.0000 C   0  0  0  0  0  0  0  0  0  0  0  0
    3.0857    1.4252    0.0000 C   0  0  0  0  0  0  0  0  0  0  0  0
    7.6624   -0.3792    0.0000 C   0  0  0  0  0  0  0  0  0  0  0  0
    3.7562    2.1671    0.0000 C   0  0  0  0  0  0  0  0  0  0  0  0
    2.8660    0.1276    0.0000 H   0  0  0  0  0  0  0  0  0  0  0  0
    2.8660   -3.1124    0.0000 H   0  0  0  0  0  0  0  0  0  0  0  0
    6.0062   -1.9608    0.0000 H   0  0  0  0  0  0  0  0  0  0  0  0
    5.6475    0.8760    0.0000 H   0  0  0  0  0  0  0  0  0  0  0  0
    5.7177    0.8302    0.0000 H   0  0  0  0  0  0  0  0  0  0  0  0
    2.9775    0.0135    0.0000 H   0  0  0  0  0  0  0  0  0  0  0  0
    1.4631   -0.6824    0.0000 H   0  0  0  0  0  0  0  0  0  0  0  0
    1.4631   -2.3024    0.0000 H   0  0  0  0  0  0  0  0  0  0  0  0
    7.6176   -1.7943    0.0000 H   0  0  0  0  0  0  0  0  0  0  0  0
    5.1496    2.4176    0.0000 H   0  0  0  0  0  0  0  0  0  0  0  0
    7.3292    0.9968    0.0000 H   0  0  0  0  0  0  0  0  0  0  0  0
    2.4795    1.5551    0.0000 H   0  0  0  0  0  0  0  0  0  0  0  0
    9.0206   -0.7786    0.0000 H   0  0  0  0  0  0  0  0  0  0  0  0
    2.8426    3.2487    0.0000 H   0  0  0  0  0  0  0  0  0  0  0  0
  1  2  1  0  0  0  0
  1  3  2  0  0  0  0
  1  4  2  0  0  0  0
  1  9  1  0  0  0  0
  2  7  1  0  0  0  0
  5 25  1  0  0  0  0
  5 39  1  0  0  0  0
  6 24  1  0  0  0  0
  6 38  1  0  0  0  0
  7  8  1  0  0  0  0
  7 10  1  0  0  0  0
  7 11  1  0  0  0  0
  8  9  1  0  0  0  0
  8 12  2  0  0  0  0
  9 13  2  0  0  0  0
 10 15  2  0  0  0  0
 10 17  1  0  0  0  0
 11 14  2  0  0  0  0
 11 16  1  0  0  0  0
 12 18  1  0  0  0  0
 12 26  1  0  0  0  0
 13 19  1  0  0  0  0
 13 27  1  0  0  0  0
 14 21  1  0  0  0  0
 14 29  1  0  0  0  0
 15 20  1  0  0  0  0
 15 28  1  0  0  0  0
 16 23  2  0  0  0  0
 16 31  1  0  0  0  0
 17 22  2  0  0  0  0
 17 30  1  0  0  0  0
 18 19  2  0  0  0  0
 18 32  1  0  0  0  0
 19 33  1  0  0  0  0
 20 24  2  0  0  0  0
 20 34  1  0  0  0  0
 21 25  2  0  0  0  0
 21 35  1  0  0  0  0
 22 24  1  0  0  0  0
 22 36  1  0  0  0  0
 23 25  1  0  0  0  0
 23 37  1  0  0  0  0
M  END
> <PUBCHEM_COMPOUND_CID>
4766

> <PUBCHEM_COMPOUND_CANONICALIZED>
1

> <PUBCHEM_CACTVS_COMPLEXITY>
545

> <PUBCHEM_CACTVS_HBOND_ACCEPTOR>
5

> <PUBCHEM_CACTVS_HBOND_DONOR>
2

> <PUBCHEM_CACTVS_ROTATABLE_BOND>
2

> <PUBCHEM_CACTVS_SUBSKEYS>
AAADccB4OABAAAAAAAAAAAAAAAAAASAAAAAwYMAAAAAAAEgBUAAAGgQACAAADESA2AAwB4AAAgKAAiBCAHBCAEAgIAAIiBgGCIgIJiKCERKAcAAkwBEImAeA4PQOoAAAAAAEAABAAAAAAAgAAAAAAAAAAA==

> <PUBCHEM_IUPAC_OPENEYE_NAME>
4-[3-(4-hydroxyphenyl)-1,1-dioxo-2,1$l^{6}-benzoxathiol-3-yl]phenol

> <PUBCHEM_IUPAC_CAS_NAME>
4-[3-(4-hydroxyphenyl)-1,1-dioxo-2,1$l^{6}-benzoxathiol-3-yl]phenol

> <PUBCHEM_IUPAC_NAME>
4-[3-(4-hydroxyphenyl)-1,1-dioxo-2,1$l^{6}-benzoxathiol-3-yl]phenol

> <PUBCHEM_IUPAC_SYSTEMATIC_NAME>
4-[3-(4-hydroxyphenyl)-1,1-bis(oxidanylidene)-2,1$l^{6}-benzoxathiol-3-yl]phenol

> <PUBCHEM_IUPAC_TRADITIONAL_NAME>
4-[3-(4-hydroxyphenyl)-1,1-diketo-2,1$l^{6}-benzoxathiol-3-yl]phenol

> <PUBCHEM_IUPAC_INCHI>
InChI=1S/C19H14O5S/c20-15-9-5-13(6-10-15)19(14-7-11-16(21)12-8-14)17-3-1-2-4-18(17)25(22,23)24-19/h1-12,20-21H

> <PUBCHEM_IUPAC_INCHIKEY>
BELBBZDIHDAJOR-UHFFFAOYSA-N

> <PUBCHEM_XLOGP3>
3

> <PUBCHEM_EXACT_MASS>
354.056195

> <PUBCHEM_MOLECULAR_FORMULA>
C19H14O5S

> <PUBCHEM_MOLECULAR_WEIGHT>
354.37646

> <PUBCHEM_OPENEYE_CAN_SMILES>
C1=CC=C2C(=C1)C(OS2(=O)=O)(C3=CC=C(C=C3)O)C4=CC=C(C=C4)O

> <PUBCHEM_OPENEYE_ISO_SMILES>
C1=CC=C2C(=C1)C(OS2(=O)=O)(C3=CC=C(C=C3)O)C4=CC=C(C=C4)O

> <PUBCHEM_CACTVS_TPSA>
92.2

> <PUBCHEM_MONOISOTOPIC_WEIGHT>
354.056195

> <PUBCHEM_TOTAL_CHARGE>
0

> <PUBCHEM_HEAVY_ATOM_COUNT>
25

> <PUBCHEM_ATOM_DEF_STEREO_COUNT>
0

> <PUBCHEM_ATOM_UDEF_STEREO_COUNT>
0

> <PUBCHEM_BOND_DEF_STEREO_COUNT>
0

> <PUBCHEM_BOND_UDEF_STEREO_COUNT>
0

> <PUBCHEM_ISOTOPIC_ATOM_COUNT>
0

> <PUBCHEM_COMPONENT_COUNT>
1

> <PUBCHEM_CACTVS_TAUTO_COUNT>
3

> <PUBCHEM_COORDINATE_TYPE>
1
5
255

> <PUBCHEM_BONDANNOTATIONS>
10  15  8
10  17  8
11  14  8
11  16  8
12  18  8
13  19  8
14  21  8
15  20  8
16  23  8
17  22  8
18  19  8
20  24  8
21  25  8
22  24  8
23  25  8
8  12  8
8  9  8
9  13  8

$$$$

