4553
  -OEChem-06261200123D

 39 40  0     0  0  0  0  0  0999 V2000
   -2.0481    3.0853    0.2130 S   0  0  0  0  0  0  0  0  0  0  0  0
    0.9457    0.4995    0.5562 O   0  0  0  0  0  0  0  0  0  0  0  0
   -1.9285    4.4206   -0.3425 O   0  0  0  0  0  0  0  0  0  0  0  0
   -3.3528    2.5034    0.4580 O   0  0  0  0  0  0  0  0  0  0  0  0
   -2.7088   -4.0866   -0.2935 O   0  5  0  0  0  0  0  0  0  0  0  0
   -0.7388   -4.1624    0.6722 O   0  0  0  0  0  0  0  0  0  0  0  0
   -1.0629    2.0215   -0.7149 N   0  0  0  0  0  0  0  0  0  0  0  0
   -1.6581   -3.5263    0.1023 N   0  3  0  0  0  0  0  0  0  0  0  0
    2.1693    0.0360   -0.0047 C   0  0  0  0  0  0  0  0  0  0  0  0
    2.8511    1.1758   -0.7606 C   0  0  0  0  0  0  0  0  0  0  0  0
    3.0635   -0.5189    1.1029 C   0  0  0  0  0  0  0  0  0  0  0  0
    4.2150    0.7556   -1.2985 C   0  0  0  0  0  0  0  0  0  0  0  0
    4.4276   -0.9394    0.5652 C   0  0  0  0  0  0  0  0  0  0  0  0
    5.1080    0.1987   -0.1922 C   0  0  0  0  0  0  0  0  0  0  0  0
   -0.2005   -0.1156    0.1275 C   0  0  0  0  0  0  0  0  0  0  0  0
   -1.2034    0.6149   -0.5022 C   0  0  0  0  0  0  0  0  0  0  0  0
   -0.3453   -1.4848    0.3300 C   0  0  0  0  0  0  0  0  0  0  0  0
   -2.3627   -0.0298   -0.9334 C   0  0  0  0  0  0  0  0  0  0  0  0
   -1.5046   -2.1294   -0.1015 C   0  0  0  0  0  0  0  0  0  0  0  0
   -2.5133   -1.4019   -0.7331 C   0  0  0  0  0  0  0  0  0  0  0  0
   -1.1523    3.0836    1.7499 C   0  0  0  0  0  0  0  0  0  0  0  0
    1.9877   -0.7684   -0.7326 H   0  0  0  0  0  0  0  0  0  0  0  0
    2.9610    2.0441   -0.0978 H   0  0  0  0  0  0  0  0  0  0  0  0
    2.2104    1.5109   -1.5850 H   0  0  0  0  0  0  0  0  0  0  0  0
    2.5792   -1.3704    1.5936 H   0  0  0  0  0  0  0  0  0  0  0  0
    3.1901    0.2397    1.8865 H   0  0  0  0  0  0  0  0  0  0  0  0
    4.7055    1.6138   -1.7714 H   0  0  0  0  0  0  0  0  0  0  0  0
    4.0817   -0.0055   -2.0772 H   0  0  0  0  0  0  0  0  0  0  0  0
    4.3068   -1.8012   -0.1026 H   0  0  0  0  0  0  0  0  0  0  0  0
    5.0667   -1.2643    1.3937 H   0  0  0  0  0  0  0  0  0  0  0  0
    6.0504   -0.1572   -0.6234 H   0  0  0  0  0  0  0  0  0  0  0  0
    5.3611    1.0027    0.5101 H   0  0  0  0  0  0  0  0  0  0  0  0
    0.4441   -2.0341    0.8351 H   0  0  0  0  0  0  0  0  0  0  0  0
   -3.1518    0.5201   -1.4398 H   0  0  0  0  0  0  0  0  0  0  0  0
   -0.0872    2.3254   -0.8346 H   0  0  0  0  0  0  0  0  0  0  0  0
   -3.4285   -1.8712   -1.0851 H   0  0  0  0  0  0  0  0  0  0  0  0
   -1.1835    2.0838    2.1855 H   0  0  0  0  0  0  0  0  0  0  0  0
   -0.1248    3.4014    1.5636 H   0  0  0  0  0  0  0  0  0  0  0  0
   -1.6407    3.7918    2.4232 H   0  0  0  0  0  0  0  0  0  0  0  0
  1  3  2  0  0  0  0
  1  4  2  0  0  0  0
  1  7  1  0  0  0  0
  1 21  1  0  0  0  0
  2  9  1  0  0  0  0
  2 15  1  0  0  0  0
  5  8  1  0  0  0  0
  6  8  2  0  0  0  0
  7 16  1  0  0  0  0
  7 35  1  0  0  0  0
  8 19  1  0  0  0  0
  9 10  1  0  0  0  0
  9 11  1  0  0  0  0
  9 22  1  0  0  0  0
 10 12  1  0  0  0  0
 10 23  1  0  0  0  0
 10 24  1  0  0  0  0
 11 13  1  0  0  0  0
 11 25  1  0  0  0  0
 11 26  1  0  0  0  0
 12 14  1  0  0  0  0
 12 27  1  0  0  0  0
 12 28  1  0  0  0  0
 13 14  1  0  0  0  0
 13 29  1  0  0  0  0
 13 30  1  0  0  0  0
 14 31  1  0  0  0  0
 14 32  1  0  0  0  0
 15 16  2  0  0  0  0
 15 17  1  0  0  0  0
 16 18  1  0  0  0  0
 17 19  2  0  0  0  0
 17 33  1  0  0  0  0
 18 20  2  0  0  0  0
 18 34  1  0  0  0  0
 19 20  1  0  0  0  0
 20 36  1  0  0  0  0
 21 37  1  0  0  0  0
 21 38  1  0  0  0  0
 21 39  1  0  0  0  0
M  CHG  2   5  -1   8   1
M  END
> <PUBCHEM_COMPOUND_CID>
4553

> <PUBCHEM_CONFORMER_RMSD>
0.8

> <PUBCHEM_CONFORMER_DIVERSEORDER>
2
67
55
72
12
69
64
53
58
25
70
59
40
60
41
43
54
65
23
27
66
61
34
74
5
49
7
35
51
45
46
68
57
39
13
32
48
56
6
14
38
4
19
71
10
24
52
21
20
8
16
3
37
33
63
18
36
50
22
30
44
11
31
15
17
73
28
47
9
29
62
26
42
1

> <PUBCHEM_MMFF94_PARTIAL_CHARGES>
20
1 1.33
15 0.08
16 0.2
17 -0.15
18 -0.15
19 0.13
2 -0.36
20 -0.15
21 0.11
3 -0.65
33 0.15
34 0.15
35 0.42
36 0.15
4 -0.65
5 -0.52
6 -0.52
7 -0.76
8 0.91
9 0.28

> <PUBCHEM_EFFECTIVE_ROTOR_COUNT>
6.2

> <PUBCHEM_PHARMACOPHORE_FEATURES>
9
1 2 acceptor
1 3 acceptor
1 4 acceptor
1 5 acceptor
1 5 anion
1 6 acceptor
1 7 donor
6 15 16 17 18 19 20 rings
6 9 10 11 12 13 14 rings

> <PUBCHEM_HEAVY_ATOM_COUNT>
21

> <PUBCHEM_ATOM_DEF_STEREO_COUNT>
0

> <PUBCHEM_ATOM_UDEF_STEREO_COUNT>
0

> <PUBCHEM_BOND_DEF_STEREO_COUNT>
0

> <PUBCHEM_BOND_UDEF_STEREO_COUNT>
0

> <PUBCHEM_ISOTOPIC_ATOM_COUNT>
0

> <PUBCHEM_COMPONENT_COUNT>
1

> <PUBCHEM_CACTVS_TAUTO_COUNT>
1

> <PUBCHEM_CONFORMER_ID>
000011C900000002

> <PUBCHEM_MMFF94_ENERGY>
56.7157

> <PUBCHEM_FEATURE_SELFOVERLAP>
45.768

> <PUBCHEM_SHAPE_FINGERPRINT>
10616163 171 18411983521063697534
1100329 8 18338514119898938305
11036077 51 18338520866612169410
12173636 292 18339087106547579852
12553582 1 18124598574294752810
12788726 201 18410582776965785267
13140716 1 18266746774749135706
138480 1 16609418134626014735
13955234 65 9434969232012189015
14178342 30 18341068358445792530
14251757 5 18336256882239892428
14790565 3 18411135883429410845
15042514 8 18411413982345217627
15842332 3 18060136540473787732
16752209 62 18337688493222821104
1813 80 17756123614712490119
18785283 64 17548128291616408081
19591789 44 18049719921335227983
20510252 161 18335425689824463777
21524375 3 17972321977772710437
22849341 161 17906992012381779827
23366157 5 17406267115484018673
23419403 2 16327720498442423892
23557571 272 18187368701640796704
23558518 356 18265337402848455111
23559900 14 18338246951516364904
238078 22 18196082249295854014
3084891 72 18337685165003488151
3091708 16 9128786003662166611
352729 6 18341065093669741063
394222 165 17199982112790265729
458136 41 17831847315851906849
53777708 50 18343580716776936148
6992083 37 18059574745539892116
7364860 26 17040915365846225879
81228 2 18261114045557771529
9709674 26 18334856130523249998
9981440 41 18123469650957644801

> <PUBCHEM_SHAPE_MULTIPOLES>
396.71
7.2
5.18
1.11
10.97
1.89
-0.14
-1.47
0.84
-7.6
-0.86
0.26
-0.49
-1.06

> <PUBCHEM_SHAPE_SELFOVERLAP>
810.626

> <PUBCHEM_SHAPE_VOLUME>
230.6

> <PUBCHEM_COORDINATE_TYPE>
2
5
10

$$$$

