586185
  -OEChem-06241222453D

 48 49  0     1  0  0  0  0  0999 V2000
    0.0131    1.0678    1.0722 O   0  0  0  0  0  0  0  0  0  0  0  0
   -1.0321    1.5642   -1.8262 O   0  0  0  0  0  0  0  0  0  0  0  0
   -4.1215   -0.8188    1.2619 O   0  0  0  0  0  0  0  0  0  0  0  0
   -2.0942   -0.6784    0.1242 N   0  0  0  0  0  0  0  0  0  0  0  0
    1.2581   -1.8617   -0.3205 N   0  0  2  0  0  0  0  0  0  0  0  0
    1.5035   -0.6018    0.2590 N   0  0  0  0  0  0  0  0  0  0  0  0
   -2.4650    2.4068   -0.2146 N   0  0  0  0  0  0  0  0  0  0  0  0
   -2.3104   -1.7489    2.2514 N   0  0  0  0  0  0  0  0  0  0  0  0
   -0.7699   -0.9357    0.0442 C   0  0  0  0  0  0  0  0  0  0  0  0
   -0.1234   -1.9873   -0.4738 C   0  0  0  0  0  0  0  0  0  0  0  0
   -2.6768    0.0374   -0.9852 C   0  0  2  0  0  0  0  0  0  0  0  0
    0.2708   -0.0119    0.5658 C   0  0  0  0  0  0  0  0  0  0  0  0
    2.7612    0.0491    0.2043 C   0  0  0  0  0  0  0  0  0  0  0  0
   -0.7245   -3.2000   -1.1006 C   0  0  0  0  0  0  0  0  0  0  0  0
   -2.4885   -0.7399   -2.2800 C   0  0  0  0  0  0  0  0  0  0  0  0
   -1.9912    1.4008   -1.0636 C   0  0  0  0  0  0  0  0  0  0  0  0
    2.0686   -2.9952    0.1142 C   0  0  0  0  0  0  0  0  0  0  0  0
   -2.9118   -1.0665    1.2131 C   0  0  0  0  0  0  0  0  0  0  0  0
    3.0166    1.1576    1.0178 C   0  0  0  0  0  0  0  0  0  0  0  0
    3.7566   -0.4124   -0.6630 C   0  0  0  0  0  0  0  0  0  0  0  0
   -1.8095    3.7097   -0.2179 C   0  0  0  0  0  0  0  0  0  0  0  0
   -3.6221    2.3047    0.6718 C   0  0  0  0  0  0  0  0  0  0  0  0
    4.2545    1.7983    0.9643 C   0  0  0  0  0  0  0  0  0  0  0  0
    4.9944    0.2283   -0.7162 C   0  0  0  0  0  0  0  0  0  0  0  0
    5.2433    1.3336    0.0974 C   0  0  0  0  0  0  0  0  0  0  0  0
   -3.7532    0.1586   -0.8570 H   0  0  0  0  0  0  0  0  0  0  0  0
   -2.9902   -0.2095   -3.0990 H   0  0  0  0  0  0  0  0  0  0  0  0
   -1.4456   -0.8470   -2.5928 H   0  0  0  0  0  0  0  0  0  0  0  0
   -2.9467   -1.7318   -2.2194 H   0  0  0  0  0  0  0  0  0  0  0  0
   -1.8109   -3.2337   -0.9813 H   0  0  0  0  0  0  0  0  0  0  0  0
   -0.3377   -4.1128   -0.6364 H   0  0  0  0  0  0  0  0  0  0  0  0
   -0.4904   -3.2339   -2.1691 H   0  0  0  0  0  0  0  0  0  0  0  0
    2.1272   -3.7427   -0.6840 H   0  0  0  0  0  0  0  0  0  0  0  0
    3.0922   -2.7231    0.3832 H   0  0  0  0  0  0  0  0  0  0  0  0
    1.6231   -3.4666    0.9980 H   0  0  0  0  0  0  0  0  0  0  0  0
    2.2842    1.5324    1.7253 H   0  0  0  0  0  0  0  0  0  0  0  0
    3.5910   -1.2461   -1.3394 H   0  0  0  0  0  0  0  0  0  0  0  0
   -2.5086    4.4537   -0.6110 H   0  0  0  0  0  0  0  0  0  0  0  0
   -0.9075    3.7129   -0.8348 H   0  0  0  0  0  0  0  0  0  0  0  0
   -1.5348    3.9683    0.8092 H   0  0  0  0  0  0  0  0  0  0  0  0
   -4.0376    3.3002    0.8576 H   0  0  0  0  0  0  0  0  0  0  0  0
   -3.2901    1.8739    1.6199 H   0  0  0  0  0  0  0  0  0  0  0  0
   -4.4114    1.6921    0.2377 H   0  0  0  0  0  0  0  0  0  0  0  0
    4.4510    2.6553    1.6020 H   0  0  0  0  0  0  0  0  0  0  0  0
    5.7621   -0.1280   -1.3970 H   0  0  0  0  0  0  0  0  0  0  0  0
   -1.3225   -1.9768    2.2633 H   0  0  0  0  0  0  0  0  0  0  0  0
   -2.8518   -2.0495    3.0551 H   0  0  0  0  0  0  0  0  0  0  0  0
    6.2070    1.8327    0.0555 H   0  0  0  0  0  0  0  0  0  0  0  0
  1 12  2  0  0  0  0
  2 16  2  0  0  0  0
  3 18  2  0  0  0  0
  4  9  1  0  0  0  0
  4 11  1  0  0  0  0
  4 18  1  0  0  0  0
  5  6  1  0  0  0  0
  5 10  1  0  0  0  0
  5 17  1  0  0  0  0
  6 12  1  0  0  0  0
  6 13  1  0  0  0  0
  7 16  1  0  0  0  0
  7 21  1  0  0  0  0
  7 22  1  0  0  0  0
  8 18  1  0  0  0  0
  8 46  1  0  0  0  0
  8 47  1  0  0  0  0
  9 10  2  0  0  0  0
  9 12  1  0  0  0  0
 10 14  1  0  0  0  0
 11 15  1  0  0  0  0
 11 16  1  0  0  0  0
 11 26  1  0  0  0  0
 13 19  2  0  0  0  0
 13 20  1  0  0  0  0
 14 30  1  0  0  0  0
 14 31  1  0  0  0  0
 14 32  1  0  0  0  0
 15 27  1  0  0  0  0
 15 28  1  0  0  0  0
 15 29  1  0  0  0  0
 17 33  1  0  0  0  0
 17 34  1  0  0  0  0
 17 35  1  0  0  0  0
 19 23  1  0  0  0  0
 19 36  1  0  0  0  0
 20 24  2  0  0  0  0
 20 37  1  0  0  0  0
 21 38  1  0  0  0  0
 21 39  1  0  0  0  0
 21 40  1  0  0  0  0
 22 41  1  0  0  0  0
 22 42  1  0  0  0  0
 22 43  1  0  0  0  0
 23 25  2  0  0  0  0
 23 44  1  0  0  0  0
 24 25  1  0  0  0  0
 24 45  1  0  0  0  0
 25 48  1  0  0  0  0
M  END
> <PUBCHEM_COMPOUND_CID>
586185

> <PUBCHEM_CONFORMER_RMSD>
0.8

> <PUBCHEM_CONFORMER_DIVERSEORDER>
50
20
8
94
127
30
52
64
125
131
110
49
95
15
73
85
54
44
118
130
76
101
67
46
83
58
70
80
78
22
74
103
97
120
31
48
117
123
81
32
14
56
12
84
24
109
134
108
112
42
71
124
88
128
18
107
51
16
116
21
36
37
96
86
105
9
47
137
45
55
100
40
89
132
41
28
19
99
92
119
65
75
111
35
82
77
126
129
27
62
136
66
59
121
113
115
11
38
57
79
2
7
60
25
10
93
135
102
39
122
98
4
33
1
106
29
61
133
114
43
34
68
90
63
13
53
23
17
91
69
26
3
87
5
6
104
72

> <PUBCHEM_MMFF94_PARTIAL_CHARGES>
31
1 -0.57
10 -0.04
11 0.36
12 0.62
13 0.12
14 0.14
16 0.57
17 0.37
18 0.69
19 -0.15
2 -0.57
20 -0.15
21 0.3
22 0.3
23 -0.15
24 -0.15
25 -0.15
3 -0.57
36 0.15
37 0.15
4 -0.47
44 0.15
45 0.15
46 0.37
47 0.37
48 0.15
5 -0.49
6 -0.16
7 -0.66
8 -0.8
9 0.12

> <PUBCHEM_EFFECTIVE_ROTOR_COUNT>
6

> <PUBCHEM_PHARMACOPHORE_FEATURES>
6
1 1 acceptor
1 2 acceptor
1 3 acceptor
1 8 donor
5 5 6 9 10 12 rings
6 13 19 20 23 24 25 rings

> <PUBCHEM_HEAVY_ATOM_COUNT>
25

> <PUBCHEM_ATOM_DEF_STEREO_COUNT>
0

> <PUBCHEM_ATOM_UDEF_STEREO_COUNT>
1

> <PUBCHEM_BOND_DEF_STEREO_COUNT>
0

> <PUBCHEM_BOND_UDEF_STEREO_COUNT>
0

> <PUBCHEM_ISOTOPIC_ATOM_COUNT>
0

> <PUBCHEM_COMPONENT_COUNT>
1

> <PUBCHEM_CACTVS_TAUTO_COUNT>
2

> <PUBCHEM_CONFORMER_ID>
0008F1C900000032

> <PUBCHEM_MMFF94_ENERGY>
119.6177

> <PUBCHEM_FEATURE_SELFOVERLAP>
30.446

> <PUBCHEM_SHAPE_FINGERPRINT>
10165383 225 18187634774257752522
10498660 4 18266761094407237206
10670039 82 18271514339605326308
11221954 11 18194406812291518181
12173636 292 18337115656387066756
12403259 415 18334853901614441176
12403814 3 18269556044027235098
13140716 1 17980759337898754882
13224815 77 18410580586917111848
14142880 1 18272094915508346517
14713325 29 18342729728451136312
15295992 7 17910946173732094003
16945 1 18337121076524868142
18186145 218 18040715827832296554
21033648 29 18261398819417746432
21864079 5 18335991934328965808
23419403 2 17101390004475670269
23493267 7 18202565103028953762
23557571 272 18059844065410910575
23559900 14 17703506713657265090
350125 39 18339071713690596378
469060 322 18055361231797922663
5104073 3 18271527589267619912
81228 2 17543081082537808802
9925002 15 17761768468712406655
9981440 41 18267889279115518114

> <PUBCHEM_SHAPE_MULTIPOLES>
471.98
8.29
3.48
1.56
9.06
0.41
-0.08
3.87
0.71
-1.62
-0.26
-1.43
-0.32
0.83

> <PUBCHEM_SHAPE_SELFOVERLAP>
995.043

> <PUBCHEM_SHAPE_VOLUME>
265

> <PUBCHEM_COORDINATE_TYPE>
2
5
10

$$$$

