246598
  -OEChem-07051213042D

 26 27  0     0  0  0  0  0  0999 V2000
    2.0000   -0.5000    0.0000 Cl  0  0  0  0  0  0  0  0  0  0  0  0
    7.1962    2.5000    0.0000 Cl  0  0  0  0  0  0  0  0  0  0  0  0
    2.8660    2.0000    0.0000 Cl  0  0  0  0  0  0  0  0  0  0  0  0
    2.0000    0.5000    0.0000 Cl  0  0  0  0  0  0  0  0  0  0  0  0
    3.7320    0.5000    0.0000 C   0  0  0  0  0  0  0  0  0  0  0  0
    4.5981    1.0000    0.0000 C   0  0  0  0  0  0  0  0  0  0  0  0
    3.7320   -0.5000    0.0000 C   0  0  0  0  0  0  0  0  0  0  0  0
    5.4641    0.5000    0.0000 C   0  0  0  0  0  0  0  0  0  0  0  0
    4.5981    2.0000    0.0000 C   0  0  0  0  0  0  0  0  0  0  0  0
    2.8660   -1.0000    0.0000 C   0  0  0  0  0  0  0  0  0  0  0  0
    4.5981   -1.0000    0.0000 C   0  0  0  0  0  0  0  0  0  0  0  0
    6.3301    1.0000    0.0000 C   0  0  0  0  0  0  0  0  0  0  0  0
    5.4641    2.5000    0.0000 C   0  0  0  0  0  0  0  0  0  0  0  0
    2.8660   -2.0000    0.0000 C   0  0  0  0  0  0  0  0  0  0  0  0
    4.5981   -2.0000    0.0000 C   0  0  0  0  0  0  0  0  0  0  0  0
    6.3301    2.0000    0.0000 C   0  0  0  0  0  0  0  0  0  0  0  0
    3.7320   -2.5000    0.0000 C   0  0  0  0  0  0  0  0  0  0  0  0
    2.8660    1.0000    0.0000 C   0  0  0  0  0  0  0  0  0  0  0  0
    5.4641   -0.1200    0.0000 H   0  0  0  0  0  0  0  0  0  0  0  0
    4.0611    2.3100    0.0000 H   0  0  0  0  0  0  0  0  0  0  0  0
    5.1350   -0.6900    0.0000 H   0  0  0  0  0  0  0  0  0  0  0  0
    6.8671    0.6900    0.0000 H   0  0  0  0  0  0  0  0  0  0  0  0
    5.4641    3.1200    0.0000 H   0  0  0  0  0  0  0  0  0  0  0  0
    2.3291   -2.3100    0.0000 H   0  0  0  0  0  0  0  0  0  0  0  0
    5.1350   -2.3100    0.0000 H   0  0  0  0  0  0  0  0  0  0  0  0
    3.7320   -3.1200    0.0000 H   0  0  0  0  0  0  0  0  0  0  0  0
  1 10  1  0  0  0  0
  2 16  1  0  0  0  0
  3 18  1  0  0  0  0
  4 18  1  0  0  0  0
  5  6  1  0  0  0  0
  5  7  1  0  0  0  0
  5 18  2  0  0  0  0
  6  8  2  0  0  0  0
  6  9  1  0  0  0  0
  7 10  1  0  0  0  0
  7 11  2  0  0  0  0
  8 12  1  0  0  0  0
  8 19  1  0  0  0  0
  9 13  2  0  0  0  0
  9 20  1  0  0  0  0
 10 14  2  0  0  0  0
 11 15  1  0  0  0  0
 11 21  1  0  0  0  0
 12 16  2  0  0  0  0
 12 22  1  0  0  0  0
 13 16  1  0  0  0  0
 13 23  1  0  0  0  0
 14 17  1  0  0  0  0
 14 24  1  0  0  0  0
 15 17  2  0  0  0  0
 15 25  1  0  0  0  0
 17 26  1  0  0  0  0
M  END
> <PUBCHEM_COMPOUND_CID>
246598

> <PUBCHEM_COMPOUND_CANONICALIZED>
1

> <PUBCHEM_CACTVS_COMPLEXITY>
301

> <PUBCHEM_CACTVS_HBOND_ACCEPTOR>
0

> <PUBCHEM_CACTVS_HBOND_DONOR>
0

> <PUBCHEM_CACTVS_ROTATABLE_BOND>
2

> <PUBCHEM_CACTVS_SUBSKEYS>
AAADccBwAAAHAAAAAAAAAAAAAAAAAAAAAAAwYAAAAAAAAAABQAAAGAIAAAAADAKAGKAwAIAAAACAAiBCAAACAAAgBQAIiAAAAogIICKBExCAIAAggAAIiAcAgMAOBAAAAAABAAAIAAAAAAIAAAAAAAAAAA==

> <PUBCHEM_IUPAC_OPENEYE_NAME>
1-chloro-2-[2,2-dichloro-1-(4-chlorophenyl)vinyl]benzene

> <PUBCHEM_IUPAC_CAS_NAME>
1-chloro-2-[2,2-dichloro-1-(4-chlorophenyl)ethenyl]benzene

> <PUBCHEM_IUPAC_NAME>
1-chloro-2-[2,2-dichloro-1-(4-chlorophenyl)ethenyl]benzene

> <PUBCHEM_IUPAC_SYSTEMATIC_NAME>
1-[2,2-bis(chloranyl)-1-(2-chlorophenyl)ethenyl]-4-chloranyl-benzene

> <PUBCHEM_IUPAC_TRADITIONAL_NAME>
1-chloro-2-[2,2-dichloro-1-(4-chlorophenyl)vinyl]benzene

> <PUBCHEM_IUPAC_INCHI>
InChI=1S/C14H8Cl4/c15-10-7-5-9(6-8-10)13(14(17)18)11-3-1-2-4-12(11)16/h1-8H

> <PUBCHEM_IUPAC_INCHIKEY>
ZDYJWDIWLRZXDB-UHFFFAOYSA-N

> <PUBCHEM_XLOGP3_AA>
7

> <PUBCHEM_EXACT_MASS>
317.935061

> <PUBCHEM_MOLECULAR_FORMULA>
C14H8Cl4

> <PUBCHEM_MOLECULAR_WEIGHT>
318.02532

> <PUBCHEM_OPENEYE_CAN_SMILES>
C1=CC=C(C(=C1)C(=C(Cl)Cl)C2=CC=C(C=C2)Cl)Cl

> <PUBCHEM_OPENEYE_ISO_SMILES>
C1=CC=C(C(=C1)C(=C(Cl)Cl)C2=CC=C(C=C2)Cl)Cl

> <PUBCHEM_CACTVS_TPSA>
0

> <PUBCHEM_MONOISOTOPIC_WEIGHT>
315.938011

> <PUBCHEM_TOTAL_CHARGE>
0

> <PUBCHEM_HEAVY_ATOM_COUNT>
18

> <PUBCHEM_ATOM_DEF_STEREO_COUNT>
0

> <PUBCHEM_ATOM_UDEF_STEREO_COUNT>
0

> <PUBCHEM_BOND_DEF_STEREO_COUNT>
0

> <PUBCHEM_BOND_UDEF_STEREO_COUNT>
0

> <PUBCHEM_ISOTOPIC_ATOM_COUNT>
0

> <PUBCHEM_COMPONENT_COUNT>
1

> <PUBCHEM_CACTVS_TAUTO_COUNT>
1

> <PUBCHEM_COORDINATE_TYPE>
1
5
255

> <PUBCHEM_BONDANNOTATIONS>
10  14  8
11  15  8
12  16  8
13  16  8
14  17  8
15  17  8
6  8  8
6  9  8
7  10  8
7  11  8
8  12  8
9  13  8

$$$$

