20055661
  -OEChem-07051213153D

 80 84  0     1  0  0  0  0  0999 V2000
    6.8707    0.9963    0.9197 O   0  0  0  0  0  0  0  0  0  0  0  0
    0.8164    2.5287   -1.4776 O   0  0  0  0  0  0  0  0  0  0  0  0
    0.4880   -0.9040   -0.2612 C   0  0  1  0  0  0  0  0  0  0  0  0
    2.7556    0.5521   -0.4397 C   0  0  2  0  0  0  0  0  0  0  0  0
   -1.0053   -0.7701    0.3780 C   0  0  1  0  0  0  0  0  0  0  0  0
    1.1892    0.5025   -0.1611 C   0  0  1  0  0  0  0  0  0  0  0  0
    3.4287   -0.5686    0.4456 C   0  0  1  0  0  0  0  0  0  0  0  0
    1.3305   -1.9756    0.4827 C   0  0  0  0  0  0  0  0  0  0  0  0
   -1.7706    0.3461   -0.3592 C   0  0  0  0  0  0  0  0  0  0  0  0
   -3.3034    0.3256   -0.4191 C   0  0  1  0  0  0  0  0  0  0  0  0
    2.8235   -1.9537    0.1493 C   0  0  0  0  0  0  0  0  0  0  0  0
    5.0014   -0.5426    0.5229 C   0  0  0  0  0  0  0  0  0  0  0  0
   -3.8945   -1.0982   -0.6048 C   0  0  1  0  0  0  0  0  0  0  0  0
   -1.7514   -2.1396    0.3318 C   0  0  0  0  0  0  0  0  0  0  0  0
    3.3208    1.9229    0.0549 C   0  0  0  0  0  0  0  0  0  0  0  0
   -3.2765   -2.0520    0.4420 C   0  0  0  0  0  0  0  0  0  0  0  0
    0.3449    1.5383   -0.9222 C   0  0  0  0  0  0  0  0  0  0  0  0
    0.3977   -1.3748   -1.7505 C   0  0  0  0  0  0  0  0  0  0  0  0
    5.4485    0.8822    0.9582 C   0  0  2  0  0  0  0  0  0  0  0  0
    3.0684    0.4161   -1.9501 C   0  0  0  0  0  0  0  0  0  0  0  0
    4.8453    1.9955    0.1107 C   0  0  0  0  0  0  0  0  0  0  0  0
   -0.9557   -0.3470    1.8803 C   0  0  0  0  0  0  0  0  0  0  0  0
   -3.8964    1.0873    0.7905 C   0  0  0  0  0  0  0  0  0  0  0  0
   -1.1325    1.3756   -0.9460 C   0  0  0  0  0  0  0  0  0  0  0  0
   -5.4401   -1.0896   -0.4672 C   0  0  0  0  0  0  0  0  0  0  0  0
   -5.4383    1.1064    0.8411 C   0  0  0  0  0  0  0  0  0  0  0  0
   -5.9658   -0.3369    0.7521 C   0  0  0  0  0  0  0  0  0  0  0  0
    5.6988   -0.9778   -0.7819 C   0  0  0  0  0  0  0  0  0  0  0  0
    5.4940   -1.5277    1.6201 C   0  0  0  0  0  0  0  0  0  0  0  0
   -3.5896   -1.6157   -2.0339 C   0  0  0  0  0  0  0  0  0  0  0  0
   -6.0149    1.9807   -0.2887 C   0  0  0  0  0  0  0  0  0  0  0  0
   -5.8875    1.7176    2.1834 C   0  0  0  0  0  0  0  0  0  0  0  0
    1.1078    0.8218    0.8865 H   0  0  0  0  0  0  0  0  0  0  0  0
    3.1129   -0.3398    1.4781 H   0  0  0  0  0  0  0  0  0  0  0  0
    0.9415   -2.9794    0.2714 H   0  0  0  0  0  0  0  0  0  0  0  0
    1.2552   -1.8518    1.5657 H   0  0  0  0  0  0  0  0  0  0  0  0
   -3.5994    0.8975   -1.3110 H   0  0  0  0  0  0  0  0  0  0  0  0
    3.2936   -2.7228    0.7696 H   0  0  0  0  0  0  0  0  0  0  0  0
    2.9941   -2.2619   -0.8853 H   0  0  0  0  0  0  0  0  0  0  0  0
   -1.3858   -2.7845    1.1421 H   0  0  0  0  0  0  0  0  0  0  0  0
   -1.5309   -2.6933   -0.5817 H   0  0  0  0  0  0  0  0  0  0  0  0
    2.9349    2.1365    1.0606 H   0  0  0  0  0  0  0  0  0  0  0  0
    2.9790    2.7428   -0.5842 H   0  0  0  0  0  0  0  0  0  0  0  0
   -3.6901   -3.0612    0.3158 H   0  0  0  0  0  0  0  0  0  0  0  0
   -3.5499   -1.7459    1.4572 H   0  0  0  0  0  0  0  0  0  0  0  0
   -0.2009   -0.7099   -2.3778 H   0  0  0  0  0  0  0  0  0  0  0  0
    1.3735   -1.4571   -2.2252 H   0  0  0  0  0  0  0  0  0  0  0  0
   -0.0293   -2.3770   -1.8418 H   0  0  0  0  0  0  0  0  0  0  0  0
    5.1473    1.0445    2.0018 H   0  0  0  0  0  0  0  0  0  0  0  0
    3.2888   -0.6105   -2.2483 H   0  0  0  0  0  0  0  0  0  0  0  0
    2.2442    0.7632   -2.5796 H   0  0  0  0  0  0  0  0  0  0  0  0
    3.9306    1.0139   -2.2566 H   0  0  0  0  0  0  0  0  0  0  0  0
    5.2830    1.9904   -0.8934 H   0  0  0  0  0  0  0  0  0  0  0  0
    5.1397    2.9657    0.5323 H   0  0  0  0  0  0  0  0  0  0  0  0
   -0.2607   -0.9486    2.4686 H   0  0  0  0  0  0  0  0  0  0  0  0
   -0.6812    0.7046    2.0145 H   0  0  0  0  0  0  0  0  0  0  0  0
   -1.9223   -0.4776    2.3741 H   0  0  0  0  0  0  0  0  0  0  0  0
   -3.5368    0.6451    1.7235 H   0  0  0  0  0  0  0  0  0  0  0  0
   -3.5203    2.1197    0.7892 H   0  0  0  0  0  0  0  0  0  0  0  0
   -1.6841    2.1595   -1.4567 H   0  0  0  0  0  0  0  0  0  0  0  0
   -5.8154   -2.1209   -0.4329 H   0  0  0  0  0  0  0  0  0  0  0  0
   -5.8885   -0.6461   -1.3653 H   0  0  0  0  0  0  0  0  0  0  0  0
   -7.0630   -0.3347    0.7217 H   0  0  0  0  0  0  0  0  0  0  0  0
   -5.6917   -0.8905    1.6590 H   0  0  0  0  0  0  0  0  0  0  0  0
   -4.0845   -0.9946   -2.7898 H   0  0  0  0  0  0  0  0  0  0  0  0
   -2.5233   -1.6054   -2.2714 H   0  0  0  0  0  0  0  0  0  0  0  0
   -3.9496   -2.6427   -2.1630 H   0  0  0  0  0  0  0  0  0  0  0  0
    6.7750   -1.1208   -0.6257 H   0  0  0  0  0  0  0  0  0  0  0  0
    5.3059   -1.9309   -1.1498 H   0  0  0  0  0  0  0  0  0  0  0  0
    5.6033   -0.2407   -1.5799 H   0  0  0  0  0  0  0  0  0  0  0  0
    6.5661   -1.4080    1.8150 H   0  0  0  0  0  0  0  0  0  0  0  0
    4.9687   -1.3615    2.5672 H   0  0  0  0  0  0  0  0  0  0  0  0
    5.3468   -2.5726    1.3294 H   0  0  0  0  0  0  0  0  0  0  0  0
   -5.6564    3.0132   -0.2057 H   0  0  0  0  0  0  0  0  0  0  0  0
   -5.7395    1.6211   -1.2840 H   0  0  0  0  0  0  0  0  0  0  0  0
   -7.1097    2.0067   -0.2430 H   0  0  0  0  0  0  0  0  0  0  0  0
   -5.5192    2.7438    2.2936 H   0  0  0  0  0  0  0  0  0  0  0  0
   -6.9804    1.7438    2.2599 H   0  0  0  0  0  0  0  0  0  0  0  0
   -5.5098    1.1366    3.0323 H   0  0  0  0  0  0  0  0  0  0  0  0
    7.1038    1.8843    1.2400 H   0  0  0  0  0  0  0  0  0  0  0  0
  1 19  1  0  0  0  0
  1 80  1  0  0  0  0
  2 17  2  0  0  0  0
  3  5  1  0  0  0  0
  3  6  1  0  0  0  0
  3  8  1  0  0  0  0
  3 18  1  0  0  0  0
  4  6  1  0  0  0  0
  4  7  1  0  0  0  0
  4 15  1  0  0  0  0
  4 20  1  0  0  0  0
  5  9  1  0  0  0  0
  5 14  1  0  0  0  0
  5 22  1  0  0  0  0
  6 17  1  0  0  0  0
  6 33  1  0  0  0  0
  7 11  1  0  0  0  0
  7 12  1  0  0  0  0
  7 34  1  0  0  0  0
  8 11  1  0  0  0  0
  8 35  1  0  0  0  0
  8 36  1  0  0  0  0
  9 10  1  0  0  0  0
  9 24  2  0  0  0  0
 10 13  1  0  0  0  0
 10 23  1  0  0  0  0
 10 37  1  0  0  0  0
 11 38  1  0  0  0  0
 11 39  1  0  0  0  0
 12 19  1  0  0  0  0
 12 28  1  0  0  0  0
 12 29  1  0  0  0  0
 13 16  1  0  0  0  0
 13 25  1  0  0  0  0
 13 30  1  0  0  0  0
 14 16  1  0  0  0  0
 14 40  1  0  0  0  0
 14 41  1  0  0  0  0
 15 21  1  0  0  0  0
 15 42  1  0  0  0  0
 15 43  1  0  0  0  0
 16 44  1  0  0  0  0
 16 45  1  0  0  0  0
 17 24  1  0  0  0  0
 18 46  1  0  0  0  0
 18 47  1  0  0  0  0
 18 48  1  0  0  0  0
 19 21  1  0  0  0  0
 19 49  1  0  0  0  0
 20 50  1  0  0  0  0
 20 51  1  0  0  0  0
 20 52  1  0  0  0  0
 21 53  1  0  0  0  0
 21 54  1  0  0  0  0
 22 55  1  0  0  0  0
 22 56  1  0  0  0  0
 22 57  1  0  0  0  0
 23 26  1  0  0  0  0
 23 58  1  0  0  0  0
 23 59  1  0  0  0  0
 24 60  1  0  0  0  0
 25 27  1  0  0  0  0
 25 61  1  0  0  0  0
 25 62  1  0  0  0  0
 26 27  1  0  0  0  0
 26 31  1  0  0  0  0
 26 32  1  0  0  0  0
 27 63  1  0  0  0  0
 27 64  1  0  0  0  0
 28 68  1  0  0  0  0
 28 69  1  0  0  0  0
 28 70  1  0  0  0  0
 29 71  1  0  0  0  0
 29 72  1  0  0  0  0
 29 73  1  0  0  0  0
 30 65  1  0  0  0  0
 30 66  1  0  0  0  0
 30 67  1  0  0  0  0
 31 74  1  0  0  0  0
 31 75  1  0  0  0  0
 31 76  1  0  0  0  0
 32 77  1  0  0  0  0
 32 78  1  0  0  0  0
 32 79  1  0  0  0  0
M  END
> <PUBCHEM_COMPOUND_CID>
20055661

> <PUBCHEM_CONFORMER_RMSD>
0.8

> <PUBCHEM_CONFORMER_DIVERSEORDER>
1

> <PUBCHEM_MMFF94_PARTIAL_CHARGES>
11
1 -0.68
10 0.14
17 0.49
19 0.28
2 -0.57
24 -0.14
5 0.14
6 0.06
60 0.15
80 0.4
9 -0.28

> <PUBCHEM_EFFECTIVE_ROTOR_COUNT>
2.4

> <PUBCHEM_PHARMACOPHORE_FEATURES>
10
1 1 acceptor
1 1 donor
1 2 acceptor
3 12 28 29 hydrophobe
3 26 31 32 hydrophobe
6 10 13 23 25 26 27 rings
6 3 4 6 7 8 11 rings
6 3 5 6 9 17 24 rings
6 4 7 12 15 19 21 rings
6 5 9 10 13 14 16 rings

> <PUBCHEM_HEAVY_ATOM_COUNT>
32

> <PUBCHEM_ATOM_DEF_STEREO_COUNT>
8

> <PUBCHEM_ATOM_UDEF_STEREO_COUNT>
0

> <PUBCHEM_BOND_DEF_STEREO_COUNT>
0

> <PUBCHEM_BOND_UDEF_STEREO_COUNT>
0

> <PUBCHEM_ISOTOPIC_ATOM_COUNT>
0

> <PUBCHEM_COMPONENT_COUNT>
1

> <PUBCHEM_CACTVS_TAUTO_COUNT>
5

> <PUBCHEM_CONFORMER_ID>
0132066D00000001

> <PUBCHEM_MMFF94_ENERGY>
145.7518

> <PUBCHEM_FEATURE_SELFOVERLAP>
50.827

> <PUBCHEM_SHAPE_FINGERPRINT>
10 15 18413385449801534545
10906281 52 18130210593664946782
12236239 1 18187085052677300667
12422481 6 18341617061222442421
12596602 18 18040152911515810570
12616971 3 17775562026876856175
12633257 1 18060417980431396709
12788726 201 17313097613733911473
13140716 1 18129092312750733317
13224815 77 18411420596315051478
13533116 47 17775009046191882418
13690498 29 16879083949271676015
14394314 77 18410854373892774833
14790565 3 18411979139658368213
14840074 17 18202843249168646022
14849402 71 18337670789669334016
15131766 46 16125531408833282413
15142383 8 17203332255694895109
15183329 4 18412825785149915295
15238133 3 18130777975602507981
15788980 27 16128379255027578919
15840311 113 18044080475363814921
17349148 13 17775566442235111630
17980427 23 18334013869961086749
1813 80 16630808815970576166
20511986 3 18261686929770373019
21033648 144 18058176024535191253
21033648 29 17822024073053272538
21130935 74 18412547625930857250
21267235 1 18272365377903975814
21421861 104 17845384391507362090
21424621 283 16444451555687705369
21859007 373 17630336465670853861
22122407 14 17313098610129654304
23402539 116 18341337755489033399
23522609 53 18127665258390808004
23559900 14 18130229238233932316
23569914 2 16665197218534521193
23569943 247 17914905459095990522
24771293 8 18338243644508072260
32027 91 16734647870491929302
335352 9 18343301482966201759
34797466 226 16950838107405212468
350125 39 18343021125018675788
3633792 109 18341626923543325991
3680242 22 18201999958194152674
392239 28 18343587355989423256
404807 14 16959546522881515023
4073 2 18129941170546005738
4093350 32 17530679931875082310
5104073 3 18341894060774730923
6086070 43 17749402424891532489
7226269 152 18187081789130027129
7495541 125 13326568540656512135

> <PUBCHEM_SHAPE_MULTIPOLES>
646.81
15.45
2.43
1.62
0.74
0.16
-0.06
3.68
5.05
-0.38
-0.11
-0.38
0.03
-1.34

> <PUBCHEM_SHAPE_SELFOVERLAP>
1374.148

> <PUBCHEM_SHAPE_VOLUME>
356.3

> <PUBCHEM_COORDINATE_TYPE>
2
5
10

$$$$

