442815
  -OEChem-07051212592D

 40 40  0     1  0  0  0  0  0999 V2000
    7.7331    2.4535    0.0000 P   0  0  0  0  0  0  0  0  0  0  0  0
    4.2690   -0.5465    0.0000 O   0  0  0  0  0  0  0  0  0  0  0  0
    6.0010   -0.5465    0.0000 O   0  0  0  0  0  0  0  0  0  0  0  0
    4.2690   -3.5465    0.0000 O   0  0  0  0  0  0  0  0  0  0  0  0
    2.5369   -2.5465    0.0000 O   0  0  0  0  0  0  0  0  0  0  0  0
    6.0010   -2.5465    0.0000 O   0  0  0  0  0  0  0  0  0  0  0  0
    2.5369    0.4535    0.0000 O   0  0  0  0  0  0  0  0  0  0  0  0
    6.8671    1.9535    0.0000 O   0  0  0  0  0  0  0  0  0  0  0  0
    5.1350    1.9535    0.0000 O   0  0  0  0  0  0  0  0  0  0  0  0
    8.5991    2.9535    0.0000 O   0  0  0  0  0  0  0  0  0  0  0  0
    7.2331    3.3195    0.0000 O   0  0  0  0  0  0  0  0  0  0  0  0
    8.2331    1.5875    0.0000 O   0  0  0  0  0  0  0  0  0  0  0  0
    4.2690   -2.5465    0.0000 C   0  0  1  0  0  0  0  0  0  0  0  0
    3.4030   -2.0465    0.0000 C   0  0  1  0  0  0  0  0  0  0  0  0
    5.1350   -2.0465    0.0000 C   0  0  2  0  0  0  0  0  0  0  0  0
    3.4030   -1.0465    0.0000 C   0  0  1  0  0  0  0  0  0  0  0  0
    5.1350   -1.0465    0.0000 C   0  0  1  0  0  0  0  0  0  0  0  0
    2.5369   -0.5465    0.0000 C   0  0  0  0  0  0  0  0  0  0  0  0
    6.0010    0.4535    0.0000 C   0  0  3  0  0  0  0  0  0  0  0  0
    6.8671    0.9535    0.0000 C   0  0  0  0  0  0  0  0  0  0  0  0
    5.1350    0.9535    0.0000 C   0  0  0  0  0  0  0  0  0  0  0  0
    4.8059   -2.8565    0.0000 H   0  0  0  0  0  0  0  0  0  0  0  0
    3.4030   -2.6665    0.0000 H   0  0  0  0  0  0  0  0  0  0  0  0
    5.1350   -2.6665    0.0000 H   0  0  0  0  0  0  0  0  0  0  0  0
    3.4030   -0.4265    0.0000 H   0  0  0  0  0  0  0  0  0  0  0  0
    5.1350   -0.4265    0.0000 H   0  0  0  0  0  0  0  0  0  0  0  0
    1.9264   -0.4388    0.0000 H   0  0  0  0  0  0  0  0  0  0  0  0
    2.3249   -1.1291    0.0000 H   0  0  0  0  0  0  0  0  0  0  0  0
    6.7372    0.0285    0.0000 H   0  0  0  0  0  0  0  0  0  0  0  0
    3.7320   -3.8565    0.0000 H   0  0  0  0  0  0  0  0  0  0  0  0
    2.0000   -2.2365    0.0000 H   0  0  0  0  0  0  0  0  0  0  0  0
    6.5380   -2.2365    0.0000 H   0  0  0  0  0  0  0  0  0  0  0  0
    7.0791    0.3709    0.0000 H   0  0  0  0  0  0  0  0  0  0  0  0
    7.4776    1.0612    0.0000 H   0  0  0  0  0  0  0  0  0  0  0  0
    4.5244    1.0612    0.0000 H   0  0  0  0  0  0  0  0  0  0  0  0
    4.9230    0.3709    0.0000 H   0  0  0  0  0  0  0  0  0  0  0  0
    2.0000    0.7635    0.0000 H   0  0  0  0  0  0  0  0  0  0  0  0
    4.5981    2.2635    0.0000 H   0  0  0  0  0  0  0  0  0  0  0  0
    8.5991    3.5735    0.0000 H   0  0  0  0  0  0  0  0  0  0  0  0
    7.5431    3.8565    0.0000 H   0  0  0  0  0  0  0  0  0  0  0  0
  1  8  1  0  0  0  0
  1 10  1  0  0  0  0
  1 11  1  0  0  0  0
  1 12  2  0  0  0  0
  2 16  1  0  0  0  0
  2 17  1  0  0  0  0
 17  3  1  1  0  0  0
  3 19  1  0  0  0  0
 13  4  1  1  0  0  0
  4 30  1  0  0  0  0
 14  5  1  6  0  0  0
  5 31  1  0  0  0  0
 15  6  1  6  0  0  0
  6 32  1  0  0  0  0
  7 18  1  0  0  0  0
  7 37  1  0  0  0  0
  8 20  1  0  0  0  0
  9 21  1  0  0  0  0
  9 38  1  0  0  0  0
 10 39  1  0  0  0  0
 11 40  1  0  0  0  0
 13 14  1  0  0  0  0
 13 15  1  0  0  0  0
 13 22  1  0  0  0  0
 14 16  1  0  0  0  0
 14 23  1  0  0  0  0
 15 17  1  0  0  0  0
 15 24  1  0  0  0  0
 16 18  1  1  0  0  0
 16 25  1  0  0  0  0
 17 26  1  0  0  0  0
 18 27  1  0  0  0  0
 18 28  1  0  0  0  0
 19 20  1  0  0  0  0
 19 21  1  0  0  0  0
 19 29  1  0  0  0  0
 20 33  1  0  0  0  0
 20 34  1  0  0  0  0
 21 35  1  0  0  0  0
 21 36  1  0  0  0  0
M  END
> <PUBCHEM_COMPOUND_CID>
442815

> <PUBCHEM_COMPOUND_CANONICALIZED>
1

> <PUBCHEM_CACTVS_COMPLEXITY>
360

> <PUBCHEM_CACTVS_HBOND_ACCEPTOR>
11

> <PUBCHEM_CACTVS_HBOND_DONOR>
7

> <PUBCHEM_CACTVS_ROTATABLE_BOND>
7

> <PUBCHEM_CACTVS_SUBSKEYS>
AAADceBwPAIAAAAAAAAAAAAAAAAAAAAAAAAkAAAAAAAAAAAAAAAAGgAACCAACBSwgAMACAAABxAAQAAAAIAAAAAAAAAAAAAAAAAREAIAAAAiQAAFAAAHAAHAYAwAAAAAAAAAAAAAAAAAAAAAAAAAAAAAAA==

> <PUBCHEM_IUPAC_OPENEYE_NAME>
[3-hydroxy-2-[(2R,3R,4S,5S,6R)-3,4,5-trihydroxy-6-(hydroxymethyl)tetrahydropyran-2-yl]oxy-propyl] dihydrogen phosphate

> <PUBCHEM_IUPAC_CAS_NAME>
[3-hydroxy-2-[[(2R,3R,4S,5S,6R)-3,4,5-trihydroxy-6-(hydroxymethyl)-2-oxanyl]oxy]propyl] dihydrogen phosphate

> <PUBCHEM_IUPAC_NAME>
[3-hydroxy-2-[(2R,3R,4S,5S,6R)-3,4,5-trihydroxy-6-(hydroxymethyl)oxan-2-yl]oxypropyl] dihydrogen phosphate

> <PUBCHEM_IUPAC_SYSTEMATIC_NAME>
[2-[(2R,3R,4S,5S,6R)-6-(hydroxymethyl)-3,4,5-tris(oxidanyl)oxan-2-yl]oxy-3-oxidanyl-propyl] dihydrogen phosphate

> <PUBCHEM_IUPAC_TRADITIONAL_NAME>
[3-hydroxy-2-[(2R,3R,4S,5S,6R)-3,4,5-trihydroxy-6-methylol-tetrahydropyran-2-yl]oxy-propyl] dihydrogen phosphate

> <PUBCHEM_IUPAC_INCHI>
InChI=1S/C9H19O11P/c10-1-4(3-18-21(15,16)17)19-9-8(14)7(13)6(12)5(2-11)20-9/h4-14H,1-3H2,(H2,15,16,17)/t4?,5-,6-,7+,8-,9-/m1/s1

> <PUBCHEM_IUPAC_INCHIKEY>
PLJAVYDLNJODGD-MPKFMROPSA-N

> <PUBCHEM_XLOGP3_AA>
-4.4

> <PUBCHEM_EXACT_MASS>
334.066498

> <PUBCHEM_MOLECULAR_FORMULA>
C9H19O11P

> <PUBCHEM_MOLECULAR_WEIGHT>
334.214322

> <PUBCHEM_OPENEYE_CAN_SMILES>
C(C1C(C(C(C(O1)OC(CO)COP(=O)(O)O)O)O)O)O

> <PUBCHEM_OPENEYE_ISO_SMILES>
C([C@@H]1[C@H]([C@@H]([C@H]([C@@H](O1)OC(CO)COP(=O)(O)O)O)O)O)O

> <PUBCHEM_CACTVS_TPSA>
186

> <PUBCHEM_MONOISOTOPIC_WEIGHT>
334.066498

> <PUBCHEM_TOTAL_CHARGE>
0

> <PUBCHEM_HEAVY_ATOM_COUNT>
21

> <PUBCHEM_ATOM_DEF_STEREO_COUNT>
5

> <PUBCHEM_ATOM_UDEF_STEREO_COUNT>
1

> <PUBCHEM_BOND_DEF_STEREO_COUNT>
0

> <PUBCHEM_BOND_UDEF_STEREO_COUNT>
0

> <PUBCHEM_ISOTOPIC_ATOM_COUNT>
0

> <PUBCHEM_COMPONENT_COUNT>
1

> <PUBCHEM_CACTVS_TAUTO_COUNT>
1

> <PUBCHEM_COORDINATE_TYPE>
1
5
255

> <PUBCHEM_BONDANNOTATIONS>
16  18  5
19  29  3
17  3  5
13  4  5
14  5  6
15  6  6

$$$$

