443272
  -OEChem-07051213013D

 36 39  0     0  0  0  0  0  0999 V2000
   -0.4564   -0.8389   -0.0329 N   0  0  0  0  0  0  0  0  0  0  0  0
   -1.7472    0.8832    0.4720 N   0  0  0  0  0  0  0  0  0  0  0  0
    0.7607    0.9702    0.3700 N   0  0  0  0  0  0  0  0  0  0  0  0
   -0.4560    0.4909    0.3074 C   0  0  0  0  0  0  0  0  0  0  0  0
   -1.7487   -1.3339   -0.0948 C   0  0  0  0  0  0  0  0  0  0  0  0
   -2.5653   -0.2236    0.2305 C   0  0  0  0  0  0  0  0  0  0  0  0
    0.8136   -1.2631   -0.2041 C   0  0  0  0  0  0  0  0  0  0  0  0
   -2.1970    2.1972    0.8358 C   0  0  0  0  0  0  0  0  0  0  0  0
    1.5584   -0.1214    0.0512 C   0  0  0  0  0  0  0  0  0  0  0  0
   -2.2136   -2.5899   -0.3927 C   0  0  0  0  0  0  0  0  0  0  0  0
   -3.9319   -0.3796    0.2601 C   0  0  0  0  0  0  0  0  0  0  0  0
    2.9873   -0.0628   -0.0041 C   0  0  0  0  0  0  0  0  0  0  0  0
   -3.6007   -2.7376   -0.3604 C   0  0  0  0  0  0  0  0  0  0  0  0
   -4.4472   -1.6501   -0.0391 C   0  0  0  0  0  0  0  0  0  0  0  0
   -2.4429    3.0499   -0.3707 C   0  0  0  0  0  0  0  0  0  0  0  0
    3.7489   -1.1962    0.2927 C   0  0  0  0  0  0  0  0  0  0  0  0
    3.6286    1.1281   -0.3554 C   0  0  0  0  0  0  0  0  0  0  0  0
    5.1417   -1.1392    0.2386 C   0  0  0  0  0  0  0  0  0  0  0  0
    5.0212    1.1851   -0.4096 C   0  0  0  0  0  0  0  0  0  0  0  0
   -3.6310    3.5801   -0.6822 C   0  0  0  0  0  0  0  0  0  0  0  0
    5.7777    0.0515   -0.1125 C   0  0  0  0  0  0  0  0  0  0  0  0
    1.0701   -2.2763   -0.4824 H   0  0  0  0  0  0  0  0  0  0  0  0
   -1.4347    2.6951    1.4494 H   0  0  0  0  0  0  0  0  0  0  0  0
   -3.0893    2.1399    1.4719 H   0  0  0  0  0  0  0  0  0  0  0  0
   -1.5603   -3.4172   -0.6373 H   0  0  0  0  0  0  0  0  0  0  0  0
   -4.6008    0.4381    0.5022 H   0  0  0  0  0  0  0  0  0  0  0  0
   -4.0432   -3.7048   -0.5857 H   0  0  0  0  0  0  0  0  0  0  0  0
   -5.5236   -1.8052   -0.0246 H   0  0  0  0  0  0  0  0  0  0  0  0
   -1.5961    3.2564   -1.0206 H   0  0  0  0  0  0  0  0  0  0  0  0
    3.2871   -2.1369    0.5821 H   0  0  0  0  0  0  0  0  0  0  0  0
    3.0600    2.0237   -0.5950 H   0  0  0  0  0  0  0  0  0  0  0  0
    5.7312   -2.0208    0.4726 H   0  0  0  0  0  0  0  0  0  0  0  0
    5.5168    2.1118   -0.6838 H   0  0  0  0  0  0  0  0  0  0  0  0
   -3.7426    4.1954   -1.5683 H   0  0  0  0  0  0  0  0  0  0  0  0
   -4.5069    3.4107   -0.0658 H   0  0  0  0  0  0  0  0  0  0  0  0
    6.8620    0.0961   -0.1542 H   0  0  0  0  0  0  0  0  0  0  0  0
  1  4  1  0  0  0  0
  1  5  1  0  0  0  0
  1  7  1  0  0  0  0
  2  4  1  0  0  0  0
  2  6  1  0  0  0  0
  2  8  1  0  0  0  0
  3  4  2  0  0  0  0
  3  9  1  0  0  0  0
  5  6  1  0  0  0  0
  5 10  2  0  0  0  0
  6 11  2  0  0  0  0
  7  9  2  0  0  0  0
  7 22  1  0  0  0  0
  8 15  1  0  0  0  0
  8 23  1  0  0  0  0
  8 24  1  0  0  0  0
  9 12  1  0  0  0  0
 10 13  1  0  0  0  0
 10 25  1  0  0  0  0
 11 14  1  0  0  0  0
 11 26  1  0  0  0  0
 12 16  2  0  0  0  0
 12 17  1  0  0  0  0
 13 14  2  0  0  0  0
 13 27  1  0  0  0  0
 14 28  1  0  0  0  0
 15 20  2  0  0  0  0
 15 29  1  0  0  0  0
 16 18  1  0  0  0  0
 16 30  1  0  0  0  0
 17 19  2  0  0  0  0
 17 31  1  0  0  0  0
 18 21  2  0  0  0  0
 18 32  1  0  0  0  0
 19 21  1  0  0  0  0
 19 33  1  0  0  0  0
 20 34  1  0  0  0  0
 20 35  1  0  0  0  0
 21 36  1  0  0  0  0
M  END
> <PUBCHEM_COMPOUND_CID>
443272

> <PUBCHEM_CONFORMER_RMSD>
0.6

> <PUBCHEM_CONFORMER_DIVERSEORDER>
1
6
7
9
4
3
8
5
2
10

> <PUBCHEM_MMFF94_PARTIAL_CHARGES>
34
1 0.33
10 -0.15
11 -0.15
12 0.05
13 -0.15
14 -0.15
15 -0.29
16 -0.15
17 -0.15
18 -0.15
19 -0.15
2 -0.55
20 -0.3
21 -0.15
22 0.15
25 0.15
26 0.15
27 0.15
28 0.15
29 0.15
3 -0.57
30 0.15
31 0.15
32 0.15
33 0.15
34 0.15
35 0.15
36 0.15
4 0.27
5 -0.02
6 0.1
7 -0.3
8 0.51
9 0.17

> <PUBCHEM_EFFECTIVE_ROTOR_COUNT>
3

> <PUBCHEM_PHARMACOPHORE_FEATURES>
6
1 20 hydrophobe
4 1 2 3 4 cation
5 1 2 4 5 6 rings
5 1 3 4 7 9 rings
6 12 16 17 18 19 21 rings
6 5 6 10 11 13 14 rings

> <PUBCHEM_HEAVY_ATOM_COUNT>
21

> <PUBCHEM_ATOM_DEF_STEREO_COUNT>
0

> <PUBCHEM_ATOM_UDEF_STEREO_COUNT>
0

> <PUBCHEM_BOND_DEF_STEREO_COUNT>
0

> <PUBCHEM_BOND_UDEF_STEREO_COUNT>
0

> <PUBCHEM_ISOTOPIC_ATOM_COUNT>
0

> <PUBCHEM_COMPONENT_COUNT>
1

> <PUBCHEM_CACTVS_TAUTO_COUNT>
1

> <PUBCHEM_CONFORMER_ID>
0006C38800000001

> <PUBCHEM_MMFF94_ENERGY>
77.6118

> <PUBCHEM_FEATURE_SELFOVERLAP>
30.894

> <PUBCHEM_SHAPE_FINGERPRINT>
10319926 262 18263100932521895682
10411042 1 18122063101087795135
10595046 47 18342174428488408196
10616163 171 18335417963405638670
11045515 52 18129948858405538173
11056379 131 18336255799623316990
12107183 9 17838062855336718146
12236239 1 18272651225732179306
12390115 104 18043232734186297329
12403259 226 18262243196522924113
12403259 415 18041003938433532456
12403814 3 18411972568769894729
12788726 201 18341902878722592571
13140716 1 18191016812275356219
13167823 11 18413108368671592274
13583140 156 17749686155116002002
138480 1 16032392276654913545
14508225 48 18264501598408023845
14790565 3 17902221553324988809
15042514 8 18336542695192263411
15196674 1 18336544928427070610
16087824 20 18410576215817096541
16752209 62 18337408118153578635
17492 89 18409445925457275286
17539 30 18335713715190576109
17844677 252 18411694388186041652
19427546 20 18413103948633137268
200 152 18340770338537898770
20510252 161 18261106396057201393
21029758 27 18266453197161148731
21033650 10 18196624450684339652
21065198 48 18343866637039627418
21236236 1 18408323319710551797
21267235 1 18264480698812714179
21307412 95 17537139717107324806
21339142 126 18409729543584957323
21426921 1 18410575093464204965
22182313 1 17676755582894395494
2297311 6 18114730552156293622
23227448 37 18338797921967572292
23402539 116 18334860481008479639
23557571 272 18260258664334892012
23559900 14 18262244313483232128
283562 15 18411700985203294907
335352 9 18335421223934188807
350125 39 18408881837036392185
4214541 1 18410009966226056768
4409770 3 18411144662616143037
474 4 17559388060143720660
5104073 3 18334856095867963610
559249 180 18268433615108225418
573450 72 18341902921898852242
6327066 14 18055638562590311085
633830 44 17203034284149538464
68521 5 18410012096413641645
7164475 11 18411699863989762892
7237137 82 18411980251997200773
7495541 125 17677051240248587250
9709674 26 18409157823324733046

> <PUBCHEM_SHAPE_MULTIPOLES>
417.23
11.17
3.31
0.73
13.35
2.02
0.01
-0.68
-0.72
-5.63
-0.64
-0.15
0.15
-0.27

> <PUBCHEM_SHAPE_SELFOVERLAP>
936.125

> <PUBCHEM_SHAPE_VOLUME>
222.1

> <PUBCHEM_COORDINATE_TYPE>
2
5
10

$$$$

