60774
  -OEChem-07051212543D

 55 56  0     1  0  0  0  0  0999 V2000
   -0.4174   -1.0016   -2.2498 O   0  0  0  0  0  0  0  0  0  0  0  0
   -2.4871    0.4375   -0.0578 N   0  0  0  0  0  0  0  0  0  0  0  0
   -1.7549    0.1288    1.1659 C   0  0  0  0  0  0  0  0  0  0  0  0
   -0.4223    0.8864    1.1906 C   0  0  0  0  0  0  0  0  0  0  0  0
    0.4862    0.5307   -0.0155 C   0  0  2  0  0  0  0  0  0  0  0  0
   -2.7655    1.8718   -0.1430 C   0  0  0  0  0  0  0  0  0  0  0  0
   -3.7339   -0.3268   -0.1181 C   0  0  0  0  0  0  0  0  0  0  0  0
    0.7542   -0.9620   -0.1600 C   0  0  0  0  0  0  0  0  0  0  0  0
    1.7853    1.3304   -0.0437 C   0  0  0  0  0  0  0  0  0  0  0  0
   -3.6058    2.3194    1.0498 C   0  0  0  0  0  0  0  0  0  0  0  0
   -3.4764    2.1740   -1.4583 C   0  0  0  0  0  0  0  0  0  0  0  0
   -4.6213    0.0134    1.0759 C   0  0  0  0  0  0  0  0  0  0  0  0
   -3.4141   -1.8178   -0.1558 C   0  0  0  0  0  0  0  0  0  0  0  0
    1.4672   -1.5959    0.8374 C   0  0  0  0  0  0  0  0  0  0  0  0
    0.2857   -1.6346   -1.2696 C   0  0  0  0  0  0  0  0  0  0  0  0
    2.3655    1.6103   -1.2619 C   0  0  0  0  0  0  0  0  0  0  0  0
    2.3347    1.7453    1.1500 C   0  0  0  0  0  0  0  0  0  0  0  0
    1.7222   -2.9622    0.7196 C   0  0  0  0  0  0  0  0  0  0  0  0
    0.5408   -3.0008   -1.3875 C   0  0  0  0  0  0  0  0  0  0  0  0
    1.2590   -3.6648   -0.3928 C   0  0  0  0  0  0  0  0  0  0  0  0
    3.5535    2.3410   -1.2878 C   0  0  0  0  0  0  0  0  0  0  0  0
    3.5225    2.4761    1.1242 C   0  0  0  0  0  0  0  0  0  0  0  0
    4.1319    2.7739   -0.0947 C   0  0  0  0  0  0  0  0  0  0  0  0
    2.4900   -3.6723    1.7827 C   0  0  0  0  0  0  0  0  0  0  0  0
   -2.2500    0.3347    2.1153 H   0  0  0  0  0  0  0  0  0  0  0  0
   -1.5082   -0.9358    1.2168 H   0  0  0  0  0  0  0  0  0  0  0  0
    0.0598    0.5744    2.1268 H   0  0  0  0  0  0  0  0  0  0  0  0
   -0.5521    1.9693    1.2951 H   0  0  0  0  0  0  0  0  0  0  0  0
   -0.0497    0.9113   -0.8915 H   0  0  0  0  0  0  0  0  0  0  0  0
   -1.8384    2.4509   -0.1865 H   0  0  0  0  0  0  0  0  0  0  0  0
   -4.2806   -0.1421   -1.0482 H   0  0  0  0  0  0  0  0  0  0  0  0
   -3.3262    3.3800    1.1816 H   0  0  0  0  0  0  0  0  0  0  0  0
   -4.6736    2.4427    0.8575 H   0  0  0  0  0  0  0  0  0  0  0  0
   -3.3750    1.9459    2.0465 H   0  0  0  0  0  0  0  0  0  0  0  0
   -2.9680    1.7046   -2.3084 H   0  0  0  0  0  0  0  0  0  0  0  0
   -3.4620    3.2559   -1.6389 H   0  0  0  0  0  0  0  0  0  0  0  0
   -4.5311    1.8812   -1.4713 H   0  0  0  0  0  0  0  0  0  0  0  0
   -5.2631   -0.8708    1.2319 H   0  0  0  0  0  0  0  0  0  0  0  0
   -4.1849    0.1117    2.0685 H   0  0  0  0  0  0  0  0  0  0  0  0
   -5.3929    0.7514    0.8526 H   0  0  0  0  0  0  0  0  0  0  0  0
   -2.6650   -2.0544   -0.9171 H   0  0  0  0  0  0  0  0  0  0  0  0
   -4.3172   -2.3798   -0.4252 H   0  0  0  0  0  0  0  0  0  0  0  0
   -3.0839   -2.2208    0.8069 H   0  0  0  0  0  0  0  0  0  0  0  0
    1.8244   -1.0611    1.7120 H   0  0  0  0  0  0  0  0  0  0  0  0
    1.9233    1.2768   -2.1957 H   0  0  0  0  0  0  0  0  0  0  0  0
    1.9076    1.5244    2.1203 H   0  0  0  0  0  0  0  0  0  0  0  0
    0.1817   -3.5539   -2.2511 H   0  0  0  0  0  0  0  0  0  0  0  0
    1.4491   -4.7299   -0.4956 H   0  0  0  0  0  0  0  0  0  0  0  0
    4.0283    2.5723   -2.2368 H   0  0  0  0  0  0  0  0  0  0  0  0
    3.9756    2.8101    2.0531 H   0  0  0  0  0  0  0  0  0  0  0  0
    5.0573    3.3419   -0.1146 H   0  0  0  0  0  0  0  0  0  0  0  0
    3.0086   -4.5493    1.3805 H   0  0  0  0  0  0  0  0  0  0  0  0
    3.2549   -3.0195    2.2171 H   0  0  0  0  0  0  0  0  0  0  0  0
    1.8139   -4.0008    2.5782 H   0  0  0  0  0  0  0  0  0  0  0  0
   -1.0596   -0.3992   -1.8399 H   0  0  0  0  0  0  0  0  0  0  0  0
  1 15  1  0  0  0  0
  1 55  1  0  0  0  0
  2  3  1  0  0  0  0
  2  6  1  0  0  0  0
  2  7  1  0  0  0  0
  3  4  1  0  0  0  0
  3 25  1  0  0  0  0
  3 26  1  0  0  0  0
  4  5  1  0  0  0  0
  4 27  1  0  0  0  0
  4 28  1  0  0  0  0
  5  8  1  0  0  0  0
  5  9  1  0  0  0  0
  5 29  1  0  0  0  0
  6 10  1  0  0  0  0
  6 11  1  0  0  0  0
  6 30  1  0  0  0  0
  7 12  1  0  0  0  0
  7 13  1  0  0  0  0
  7 31  1  0  0  0  0
  8 14  1  0  0  0  0
  8 15  2  0  0  0  0
  9 16  2  0  0  0  0
  9 17  1  0  0  0  0
 10 32  1  0  0  0  0
 10 33  1  0  0  0  0
 10 34  1  0  0  0  0
 11 35  1  0  0  0  0
 11 36  1  0  0  0  0
 11 37  1  0  0  0  0
 12 38  1  0  0  0  0
 12 39  1  0  0  0  0
 12 40  1  0  0  0  0
 13 41  1  0  0  0  0
 13 42  1  0  0  0  0
 13 43  1  0  0  0  0
 14 18  2  0  0  0  0
 14 44  1  0  0  0  0
 15 19  1  0  0  0  0
 16 21  1  0  0  0  0
 16 45  1  0  0  0  0
 17 22  2  0  0  0  0
 17 46  1  0  0  0  0
 18 20  1  0  0  0  0
 18 24  1  0  0  0  0
 19 20  2  0  0  0  0
 19 47  1  0  0  0  0
 20 48  1  0  0  0  0
 21 23  2  0  0  0  0
 21 49  1  0  0  0  0
 22 23  1  0  0  0  0
 22 50  1  0  0  0  0
 23 51  1  0  0  0  0
 24 52  1  0  0  0  0
 24 53  1  0  0  0  0
 24 54  1  0  0  0  0
M  END
> <PUBCHEM_COMPOUND_CID>
60774

> <PUBCHEM_CONFORMER_RMSD>
0.8

> <PUBCHEM_CONFORMER_DIVERSEORDER>
1
6
10
3
8
2
4
5
7
9

> <PUBCHEM_MMFF94_PARTIAL_CHARGES>
28
1 -0.53
14 -0.15
15 0.08
16 -0.15
17 -0.15
18 -0.14
19 -0.15
2 -0.81
20 -0.15
21 -0.15
22 -0.15
23 -0.15
24 0.14
3 0.27
44 0.15
45 0.15
46 0.15
47 0.15
48 0.15
49 0.15
5 0.29
50 0.15
51 0.15
55 0.45
6 0.27
7 0.27
8 -0.14
9 -0.14

> <PUBCHEM_EFFECTIVE_ROTOR_COUNT>
7

> <PUBCHEM_PHARMACOPHORE_FEATURES>
6
1 1 donor
1 2 cation
3 6 10 11 hydrophobe
3 7 12 13 hydrophobe
6 8 14 15 18 19 20 rings
6 9 16 17 21 22 23 rings

> <PUBCHEM_HEAVY_ATOM_COUNT>
24

> <PUBCHEM_ATOM_DEF_STEREO_COUNT>
1

> <PUBCHEM_ATOM_UDEF_STEREO_COUNT>
0

> <PUBCHEM_BOND_DEF_STEREO_COUNT>
0

> <PUBCHEM_BOND_UDEF_STEREO_COUNT>
0

> <PUBCHEM_ISOTOPIC_ATOM_COUNT>
0

> <PUBCHEM_COMPONENT_COUNT>
1

> <PUBCHEM_CACTVS_TAUTO_COUNT>
3

> <PUBCHEM_CONFORMER_ID>
0000ED6600000001

> <PUBCHEM_MMFF94_ENERGY>
96.5924

> <PUBCHEM_FEATURE_SELFOVERLAP>
30.447

> <PUBCHEM_SHAPE_FINGERPRINT>
107951 10 18126265464799089750
11488393 25 17751889554326927734
11578080 2 17201924957862024358
11582403 64 15796287118356148728
121448 382 18043244639466019224
12160290 23 17760066438071887968
12422481 6 17980795867281228458
12532896 13 18118964694294194136
12553582 1 17687174700981598019
12592029 89 18412259523845157416
12633257 1 18049160270248869417
12788726 201 17332237603160587582
12839892 36 18269849622279587874
13004483 165 8428947909324149716
13134695 92 17980492478811836020
13149001 5 17552932032048728813
133893 2 18195788872864767040
13681431 1 17976813504404851588
14223421 5 18412539929675814679
14251751 93 18260828155212061116
14251757 17 17169244019299802500
14955137 171 18189335835285499730
15463212 79 18052268301742141744
17980427 23 17681291158315874945
19591789 44 18336547127571359662
20197701 30 18337112272353412924
20567600 347 18340196389072888859
20600515 1 17615970349346514034
21033648 29 18191034412846503592
21421861 104 18191566752561711833
21524375 3 18336820875764826152
22393880 68 18334850636658555357
22956985 138 18130511919923153594
23366157 5 18200870789643137426
23419403 2 17629784506327499214
23559900 14 18265062512024499483
3759504 43 18053939555126291848
394222 165 18334007302623632434
469060 322 18054238622463003581
5845 1 17254541120747544712
6138700 20 18265881623240562078
633830 44 17531518798284804377
6669772 16 18187354403741810334
7364860 26 18335698411631250018
81228 2 17398110452634095546
9981440 41 18271526377564745961

> <PUBCHEM_SHAPE_MULTIPOLES>
483.06
7.35
4.72
1.66
4.84
3.38
-0.28
-5.77
0.99
-4.42
0.2
-0.28
0.28
-0.76

> <PUBCHEM_SHAPE_SELFOVERLAP>
1010.858

> <PUBCHEM_SHAPE_VOLUME>
275.6

> <PUBCHEM_COORDINATE_TYPE>
2
5
10

$$$$

