6793
  -OEChem-06261201302D

 24 25  0     0  0  0  0  0  0999 V2000
    3.0000   -1.5204    0.0000 S   0  0  0  0  0  0  0  0  0  0  0  0
    3.0000   -2.5204    0.0000 O   0  0  0  0  0  0  0  0  0  0  0  0
    2.0000   -1.5204    0.0000 O   0  0  0  0  0  0  0  0  0  0  0  0
    4.0000   -1.5204    0.0000 O   0  0  0  0  0  0  0  0  0  0  0  0
    4.7484    2.5142    0.0000 N   0  0  0  0  0  0  0  0  0  0  0  0
    3.8660   -0.0204    0.0000 C   0  0  0  0  0  0  0  0  0  0  0  0
    3.8660    0.9796    0.0000 C   0  0  0  0  0  0  0  0  0  0  0  0
    3.0000   -0.5204    0.0000 C   0  0  0  0  0  0  0  0  0  0  0  0
    4.7600    1.5143    0.0000 C   0  0  0  0  0  0  0  0  0  0  0  0
    4.7600   -0.5551    0.0000 C   0  0  0  0  0  0  0  0  0  0  0  0
    3.0000    1.4796    0.0000 C   0  0  0  0  0  0  0  0  0  0  0  0
    2.1340   -0.0204    0.0000 C   0  0  0  0  0  0  0  0  0  0  0  0
    2.1340    0.9796    0.0000 C   0  0  0  0  0  0  0  0  0  0  0  0
    5.6660    1.0004    0.0000 C   0  0  0  0  0  0  0  0  0  0  0  0
    5.6660   -0.0412    0.0000 C   0  0  0  0  0  0  0  0  0  0  0  0
    4.7528   -1.1750    0.0000 H   0  0  0  0  0  0  0  0  0  0  0  0
    3.0000    2.0996    0.0000 H   0  0  0  0  0  0  0  0  0  0  0  0
    1.5970   -0.3304    0.0000 H   0  0  0  0  0  0  0  0  0  0  0  0
    1.5970    1.2896    0.0000 H   0  0  0  0  0  0  0  0  0  0  0  0
    6.2018    1.3125    0.0000 H   0  0  0  0  0  0  0  0  0  0  0  0
    6.2018   -0.3533    0.0000 H   0  0  0  0  0  0  0  0  0  0  0  0
    5.2817    2.8304    0.0000 H   0  0  0  0  0  0  0  0  0  0  0  0
    4.2079    2.8180    0.0000 H   0  0  0  0  0  0  0  0  0  0  0  0
    2.4631   -2.8304    0.0000 H   0  0  0  0  0  0  0  0  0  0  0  0
  1  2  1  0  0  0  0
  1  3  2  0  0  0  0
  1  4  2  0  0  0  0
  1  8  1  0  0  0  0
  2 24  1  0  0  0  0
  5  9  1  0  0  0  0
  5 22  1  0  0  0  0
  5 23  1  0  0  0  0
  6  7  2  0  0  0  0
  6  8  1  0  0  0  0
  6 10  1  0  0  0  0
  7  9  1  0  0  0  0
  7 11  1  0  0  0  0
  8 12  2  0  0  0  0
  9 14  2  0  0  0  0
 10 15  2  0  0  0  0
 10 16  1  0  0  0  0
 11 13  2  0  0  0  0
 11 17  1  0  0  0  0
 12 13  1  0  0  0  0
 12 18  1  0  0  0  0
 13 19  1  0  0  0  0
 14 15  1  0  0  0  0
 14 20  1  0  0  0  0
 15 21  1  0  0  0  0
M  END
> <PUBCHEM_COMPOUND_CID>
6793

> <PUBCHEM_COMPOUND_CANONICALIZED>
1

> <PUBCHEM_CACTVS_COMPLEXITY>
322

> <PUBCHEM_CACTVS_HBOND_ACCEPTOR>
4

> <PUBCHEM_CACTVS_HBOND_DONOR>
2

> <PUBCHEM_CACTVS_ROTATABLE_BOND>
1

> <PUBCHEM_CACTVS_SUBSKEYS>
AAADccByMABAAAAAAAAAAAAAAAAAAAAAAAAwYAAAAAAAAADBUAAAHAQQCAAADAiBWAAwwcBAAIKAAiRCQHDCAEAgAgAIiBgAZIgIICKAkZGAIABgkAAIyAcQgIAOgAAAwAAWAAAAAAGAACwAAAAAAAAAAA==

> <PUBCHEM_IUPAC_OPENEYE_NAME>
5-aminonaphthalene-1-sulfonic acid

> <PUBCHEM_IUPAC_CAS_NAME>
5-amino-1-naphthalenesulfonic acid

> <PUBCHEM_IUPAC_NAME>
5-aminonaphthalene-1-sulfonic acid

> <PUBCHEM_IUPAC_SYSTEMATIC_NAME>
5-azanylnaphthalene-1-sulfonic acid

> <PUBCHEM_IUPAC_TRADITIONAL_NAME>
5-aminonaphthalene-1-sulfonic acid

> <PUBCHEM_IUPAC_INCHI>
InChI=1S/C10H9NO3S/c11-9-5-1-4-8-7(9)3-2-6-10(8)15(12,13)14/h1-6H,11H2,(H,12,13,14)

> <PUBCHEM_IUPAC_INCHIKEY>
DQNAQOYOSRJXFZ-UHFFFAOYSA-N

> <PUBCHEM_XLOGP3>
1.4

> <PUBCHEM_EXACT_MASS>
223.030314

> <PUBCHEM_MOLECULAR_FORMULA>
C10H9NO3S

> <PUBCHEM_MOLECULAR_WEIGHT>
223.24836

> <PUBCHEM_OPENEYE_CAN_SMILES>
C1=CC2=C(C=CC=C2S(=O)(=O)O)C(=C1)N

> <PUBCHEM_OPENEYE_ISO_SMILES>
C1=CC2=C(C=CC=C2S(=O)(=O)O)C(=C1)N

> <PUBCHEM_CACTVS_TPSA>
88.8

> <PUBCHEM_MONOISOTOPIC_WEIGHT>
223.030314

> <PUBCHEM_TOTAL_CHARGE>
0

> <PUBCHEM_HEAVY_ATOM_COUNT>
15

> <PUBCHEM_ATOM_DEF_STEREO_COUNT>
0

> <PUBCHEM_ATOM_UDEF_STEREO_COUNT>
0

> <PUBCHEM_BOND_DEF_STEREO_COUNT>
0

> <PUBCHEM_BOND_UDEF_STEREO_COUNT>
0

> <PUBCHEM_ISOTOPIC_ATOM_COUNT>
0

> <PUBCHEM_COMPONENT_COUNT>
1

> <PUBCHEM_CACTVS_TAUTO_COUNT>
1

> <PUBCHEM_COORDINATE_TYPE>
1
5
255

> <PUBCHEM_BONDANNOTATIONS>
10  15  8
11  13  8
12  13  8
14  15  8
6  10  8
6  7  8
6  8  8
7  11  8
7  9  8
8  12  8
9  14  8

$$$$

