12440
  -OEChem-06261206562D

 45 48  0     1  0  0  0  0  0999 V2000
    3.2905    0.0000    0.0000 Cl  0  5  0  0  0  0  0  0  0  0  0  0
    6.0468    7.5036    0.0000 O   0  0  0  0  0  0  0  0  0  0  0  0
    6.0468    9.1130    0.0000 O   0  0  0  0  0  0  0  0  0  0  0  0
    6.0587    6.2628    0.0000 O   0  0  0  0  0  0  0  0  0  0  0  0
    6.0910    4.1713    0.0000 O   0  0  0  0  0  0  0  0  0  0  0  0
    1.6192    7.8297    0.0000 N   0  3  3  0  0  0  0  0  0  0  0  0
    2.4585    7.3014    0.0000 C   0  0  2  0  0  0  0  0  0  0  0  0
    3.3685    7.8083    0.0000 C   0  0  0  0  0  0  0  0  0  0  0  0
    1.6448    8.8210    0.0000 C   0  0  0  0  0  0  0  0  0  0  0  0
    2.4505    6.2598    0.0000 C   0  0  0  0  0  0  0  0  0  0  0  0
    3.3685    8.8083    0.0000 C   0  0  0  0  0  0  0  0  0  0  0  0
    2.5103    9.3052    0.0000 C   0  0  0  0  0  0  0  0  0  0  0  0
    4.2345    7.3083    0.0000 C   0  0  0  0  0  0  0  0  0  0  0  0
    3.3525    5.7390    0.0000 C   0  0  0  0  0  0  0  0  0  0  0  0
    4.2506    6.2668    0.0000 C   0  0  0  0  0  0  0  0  0  0  0  0
    0.6197    7.8616    0.0000 C   0  0  0  0  0  0  0  0  0  0  0  0
    5.1005    7.8083    0.0000 C   0  0  0  0  0  0  0  0  0  0  0  0
    4.2345    9.3083    0.0000 C   0  0  0  0  0  0  0  0  0  0  0  0
    5.1005    8.8083    0.0000 C   0  0  0  0  0  0  0  0  0  0  0  0
    3.3442    4.6541    0.0000 C   0  0  0  0  0  0  0  0  0  0  0  0
    5.2025    5.7462    0.0000 C   0  0  0  0  0  0  0  0  0  0  0  0
    5.2192    4.6613    0.0000 C   0  0  0  0  0  0  0  0  0  0  0  0
    4.2838    4.1116    0.0000 C   0  0  0  0  0  0  0  0  0  0  0  0
    6.6304    8.3083    0.0000 C   0  0  0  0  0  0  0  0  0  0  0  0
    6.1025    3.1714    0.0000 C   0  0  0  0  0  0  0  0  0  0  0  0
    1.7128    6.8934    0.0000 H   0  0  0  0  0  0  0  0  0  0  0  0
    1.2922    7.3029    0.0000 H   0  0  0  0  0  0  0  0  0  0  0  0
    1.4430    9.4073    0.0000 H   0  0  0  0  0  0  0  0  0  0  0  0
    1.0320    8.7267    0.0000 H   0  0  0  0  0  0  0  0  0  0  0  0
    1.8404    6.3707    0.0000 H   0  0  0  0  0  0  0  0  0  0  0  0
    2.2369    5.6778    0.0000 H   0  0  0  0  0  0  0  0  0  0  0  0
    2.9113    9.7780    0.0000 H   0  0  0  0  0  0  0  0  0  0  0  0
    2.1162    9.7839    0.0000 H   0  0  0  0  0  0  0  0  0  0  0  0
    0.6395    8.4813    0.0000 H   0  0  0  0  0  0  0  0  0  0  0  0
    0.0000    7.8815    0.0000 H   0  0  0  0  0  0  0  0  0  0  0  0
    0.5999    7.2420    0.0000 H   0  0  0  0  0  0  0  0  0  0  0  0
    4.2345    9.9283    0.0000 H   0  0  0  0  0  0  0  0  0  0  0  0
    2.8060    4.3461    0.0000 H   0  0  0  0  0  0  0  0  0  0  0  0
    4.2862    3.4916    0.0000 H   0  0  0  0  0  0  0  0  0  0  0  0
    7.0912    7.8936    0.0000 H   0  0  0  0  0  0  0  0  0  0  0  0
    7.0912    8.7230    0.0000 H   0  0  0  0  0  0  0  0  0  0  0  0
    6.6015    5.9632    0.0000 H   0  0  0  0  0  0  0  0  0  0  0  0
    5.4826    3.1642    0.0000 H   0  0  0  0  0  0  0  0  0  0  0  0
    6.1097    2.5514    0.0000 H   0  0  0  0  0  0  0  0  0  0  0  0
    6.7225    3.1786    0.0000 H   0  0  0  0  0  0  0  0  0  0  0  0
  2 17  1  0  0  0  0
  2 24  1  0  0  0  0
  3 19  1  0  0  0  0
  3 24  1  0  0  0  0
  4 21  1  0  0  0  0
  4 42  1  0  0  0  0
  5 22  1  0  0  0  0
  5 25  1  0  0  0  0
  6  7  1  0  0  0  0
  6  9  1  0  0  0  0
  6 16  1  0  0  0  0
  6 27  1  0  0  0  0
  7  8  1  0  0  0  0
  7 10  1  0  0  0  0
  7 26  1  1  0  0  0
  8 11  1  0  0  0  0
  8 13  2  0  0  0  0
  9 12  1  0  0  0  0
  9 28  1  0  0  0  0
  9 29  1  0  0  0  0
 10 14  1  0  0  0  0
 10 30  1  0  0  0  0
 10 31  1  0  0  0  0
 11 12  1  0  0  0  0
 11 18  2  0  0  0  0
 12 32  1  0  0  0  0
 12 33  1  0  0  0  0
 13 15  1  0  0  0  0
 13 17  1  0  0  0  0
 14 15  2  0  0  0  0
 14 20  1  0  0  0  0
 15 21  1  0  0  0  0
 16 34  1  0  0  0  0
 16 35  1  0  0  0  0
 16 36  1  0  0  0  0
 17 19  2  0  0  0  0
 18 19  1  0  0  0  0
 18 37  1  0  0  0  0
 20 23  2  0  0  0  0
 20 38  1  0  0  0  0
 21 22  2  0  0  0  0
 22 23  1  0  0  0  0
 23 39  1  0  0  0  0
 24 40  1  0  0  0  0
 24 41  1  0  0  0  0
 25 43  1  0  0  0  0
 25 44  1  0  0  0  0
 25 45  1  0  0  0  0
M  CHG  2   1  -1   6   1
M  END
> <PUBCHEM_COMPOUND_CID>
12440

> <PUBCHEM_COMPOUND_CANONICALIZED>
1

> <PUBCHEM_CACTVS_COMPLEXITY>
488

> <PUBCHEM_CACTVS_HBOND_ACCEPTOR>
5

> <PUBCHEM_CACTVS_HBOND_DONOR>
2

> <PUBCHEM_CACTVS_ROTATABLE_BOND>
1

> <PUBCHEM_CACTVS_SUBSKEYS>
AAADceB6OAAEAAAAAAAAAAAAAAAAASAAAAA8YMEAAAAAAEjxQAAAHgAQCAAADCzBmAcyDoPABgCAAiBCAACCCAAgIAAIiIAOjIgdJiKGsRukcCtk0BGPuAfw8P8OoAADAAAYQADQAAaAADSAAAAAAAAAAA==

> <PUBCHEM_IUPAC_INCHI>
InChI=1S/C19H19NO4.ClH/c1-20-6-5-11-8-14-19(24-9-23-14)17-15(11)12(20)7-10-3-4-13(22-2)18(21)16(10)17;/h3-4,8,12,21H,5-7,9H2,1-2H3;1H/t12-;/m0./s1

> <PUBCHEM_IUPAC_INCHIKEY>
SRGIVPUDHITDMK-YDALLXLXSA-N

> <PUBCHEM_EXACT_MASS>
361.108086

> <PUBCHEM_MOLECULAR_FORMULA>
C19H20ClNO4

> <PUBCHEM_MOLECULAR_WEIGHT>
361.8194

> <PUBCHEM_OPENEYE_CAN_SMILES>
C[NH+]1CCC2=CC3=C(C4=C2C1CC5=C4C(=C(C=C5)OC)O)OCO3.[Cl-]

> <PUBCHEM_OPENEYE_ISO_SMILES>
C[NH+]1CCC2=CC3=C(C4=C2[C@@H]1CC5=C4C(=C(C=C5)OC)O)OCO3.[Cl-]

> <PUBCHEM_CACTVS_TPSA>
52.4

> <PUBCHEM_MONOISOTOPIC_WEIGHT>
361.108086

> <PUBCHEM_TOTAL_CHARGE>
0

> <PUBCHEM_HEAVY_ATOM_COUNT>
25

> <PUBCHEM_ATOM_DEF_STEREO_COUNT>
1

> <PUBCHEM_ATOM_UDEF_STEREO_COUNT>
0

> <PUBCHEM_BOND_DEF_STEREO_COUNT>
0

> <PUBCHEM_BOND_UDEF_STEREO_COUNT>
0

> <PUBCHEM_ISOTOPIC_ATOM_COUNT>
0

> <PUBCHEM_COMPONENT_COUNT>
2

> <PUBCHEM_CACTVS_TAUTO_COUNT>
9

> <PUBCHEM_COORDINATE_TYPE>
1
5
255

> <PUBCHEM_BONDANNOTATIONS>
11  18  8
13  17  8
14  15  8
14  20  8
15  21  8
17  19  8
18  19  8
20  23  8
21  22  8
22  23  8
7  26  5
8  11  8
8  13  8

$$$$

