100274
  -OEChem-07051212552D

 54 54  0     1  0  0  0  0  0999 V2000
    5.1350    0.0000    0.0000 O   0  0  0  0  0  0  0  0  0  0  0  0
    4.2690    2.5000    0.0000 O   0  0  0  0  0  0  0  0  0  0  0  0
    2.5369    1.5000    0.0000 O   0  0  0  0  0  0  0  0  0  0  0  0
    2.5369   -0.5000    0.0000 O   0  0  0  0  0  0  0  0  0  0  0  0
    6.0010    1.5000    0.0000 O   0  0  0  0  0  0  0  0  0  0  0  0
    5.1350   -2.0000    0.0000 O   0  0  0  0  0  0  0  0  0  0  0  0
    6.0010    2.5000    0.0000 O   0  0  0  0  0  0  0  0  0  0  0  0
    6.8671    0.0000    0.0000 O   0  0  0  0  0  0  0  0  0  0  0  0
    4.2690   -3.5000    0.0000 O   0  0  0  0  0  0  0  0  0  0  0  0
    6.8671    6.0000    0.0000 O   0  5  0  0  0  0  0  0  0  0  0  0
    5.1350    6.0000    0.0000 O   0  0  0  0  0  0  0  0  0  0  0  0
   10.3312    1.0000    0.0000 O   0  5  0  0  0  0  0  0  0  0  0  0
    9.4651    2.5000    0.0000 O   0  0  0  0  0  0  0  0  0  0  0  0
    6.8671   -6.0000    0.0000 O   0  5  0  0  0  0  0  0  0  0  0  0
    7.7331   -4.5000    0.0000 O   0  0  0  0  0  0  0  0  0  0  0  0
    6.0010    5.5000    0.0000 N   0  3  0  0  0  0  0  0  0  0  0  0
    9.4651    1.5000    0.0000 N   0  3  0  0  0  0  0  0  0  0  0  0
    6.8671   -5.0000    0.0000 N   0  3  0  0  0  0  0  0  0  0  0  0
    3.4030    1.0000    0.0000 C   0  0  1  0  0  0  0  0  0  0  0  0
    3.4030    0.0000    0.0000 C   0  0  1  0  0  0  0  0  0  0  0  0
    4.2690    1.5000    0.0000 C   0  0  2  0  0  0  0  0  0  0  0  0
    4.2690   -0.5000    0.0000 C   0  0  1  0  0  0  0  0  0  0  0  0
    5.1350    1.0000    0.0000 C   0  0  1  0  0  0  0  0  0  0  0  0
    4.2690   -1.5000    0.0000 C   0  0  0  0  0  0  0  0  0  0  0  0
    5.1350    3.0000    0.0000 C   0  0  0  0  0  0  0  0  0  0  0  0
    6.8671    1.0000    0.0000 C   0  0  0  0  0  0  0  0  0  0  0  0
    5.1350    4.0000    0.0000 C   0  0  0  0  0  0  0  0  0  0  0  0
    7.7331    1.5000    0.0000 C   0  0  0  0  0  0  0  0  0  0  0  0
    5.1350   -3.0000    0.0000 C   0  0  0  0  0  0  0  0  0  0  0  0
    6.0010    4.5000    0.0000 C   0  0  0  0  0  0  0  0  0  0  0  0
    6.0010   -3.5000    0.0000 C   0  0  0  0  0  0  0  0  0  0  0  0
    8.5991    1.0000    0.0000 C   0  0  0  0  0  0  0  0  0  0  0  0
    6.0010   -4.5000    0.0000 C   0  0  0  0  0  0  0  0  0  0  0  0
    3.4030    1.6200    0.0000 H   0  0  0  0  0  0  0  0  0  0  0  0
    3.4030   -0.6200    0.0000 H   0  0  0  0  0  0  0  0  0  0  0  0
    4.8059    1.8100    0.0000 H   0  0  0  0  0  0  0  0  0  0  0  0
    4.8059   -0.8100    0.0000 H   0  0  0  0  0  0  0  0  0  0  0  0
    5.1350    1.6200    0.0000 H   0  0  0  0  0  0  0  0  0  0  0  0
    3.6584   -1.3923    0.0000 H   0  0  0  0  0  0  0  0  0  0  0  0
    4.0569   -2.0826    0.0000 H   0  0  0  0  0  0  0  0  0  0  0  0
    2.0000    1.1900    0.0000 H   0  0  0  0  0  0  0  0  0  0  0  0
    2.5369   -1.1200    0.0000 H   0  0  0  0  0  0  0  0  0  0  0  0
    4.9230    4.5826    0.0000 H   0  0  0  0  0  0  0  0  0  0  0  0
    4.5244    3.8923    0.0000 H   0  0  0  0  0  0  0  0  0  0  0  0
    8.1316    1.9750    0.0000 H   0  0  0  0  0  0  0  0  0  0  0  0
    7.3346    1.9750    0.0000 H   0  0  0  0  0  0  0  0  0  0  0  0
    6.2131    3.9174    0.0000 H   0  0  0  0  0  0  0  0  0  0  0  0
    6.6116    4.6077    0.0000 H   0  0  0  0  0  0  0  0  0  0  0  0
    6.6116   -3.6077    0.0000 H   0  0  0  0  0  0  0  0  0  0  0  0
    6.2131   -2.9174    0.0000 H   0  0  0  0  0  0  0  0  0  0  0  0
    8.2006    0.5251    0.0000 H   0  0  0  0  0  0  0  0  0  0  0  0
    8.9976    0.5251    0.0000 H   0  0  0  0  0  0  0  0  0  0  0  0
    5.3905   -4.3923    0.0000 H   0  0  0  0  0  0  0  0  0  0  0  0
    5.7890   -5.0826    0.0000 H   0  0  0  0  0  0  0  0  0  0  0  0
  1 22  1  0  0  0  0
  1 23  1  0  0  0  0
 21  2  1  1  0  0  0
  2 25  1  0  0  0  0
 19  3  1  6  0  0  0
  3 41  1  0  0  0  0
 20  4  1  1  0  0  0
  4 42  1  0  0  0  0
 23  5  1  6  0  0  0
  5 26  1  0  0  0  0
  6 24  1  0  0  0  0
  6 29  1  0  0  0  0
  7 25  2  0  0  0  0
  8 26  2  0  0  0  0
  9 29  2  0  0  0  0
 10 16  1  0  0  0  0
 11 16  2  0  0  0  0
 12 17  1  0  0  0  0
 13 17  2  0  0  0  0
 14 18  1  0  0  0  0
 15 18  2  0  0  0  0
 16 30  1  0  0  0  0
 17 32  1  0  0  0  0
 18 33  1  0  0  0  0
 19 20  1  0  0  0  0
 19 21  1  0  0  0  0
 19 34  1  0  0  0  0
 20 22  1  0  0  0  0
 20 35  1  0  0  0  0
 21 23  1  0  0  0  0
 21 36  1  0  0  0  0
 22 24  1  6  0  0  0
 22 37  1  0  0  0  0
 23 38  1  0  0  0  0
 24 39  1  0  0  0  0
 24 40  1  0  0  0  0
 25 27  1  0  0  0  0
 26 28  1  0  0  0  0
 27 30  1  0  0  0  0
 27 43  1  0  0  0  0
 27 44  1  0  0  0  0
 28 32  1  0  0  0  0
 28 45  1  0  0  0  0
 28 46  1  0  0  0  0
 29 31  1  0  0  0  0
 30 47  1  0  0  0  0
 30 48  1  0  0  0  0
 31 33  1  0  0  0  0
 31 49  1  0  0  0  0
 31 50  1  0  0  0  0
 32 51  1  0  0  0  0
 32 52  1  0  0  0  0
 33 53  1  0  0  0  0
 33 54  1  0  0  0  0
M  CHG  6  10  -1  12  -1  14  -1  16   1  17   1  18   1
M  END
> <PUBCHEM_COMPOUND_CID>
100274

> <PUBCHEM_COMPOUND_CANONICALIZED>
1

> <PUBCHEM_CACTVS_COMPLEXITY>
742

> <PUBCHEM_CACTVS_HBOND_ACCEPTOR>
15

> <PUBCHEM_CACTVS_HBOND_DONOR>
2

> <PUBCHEM_CACTVS_ROTATABLE_BOND>
13

> <PUBCHEM_CACTVS_SUBSKEYS>
AAADceBzPAAAAAAAAAAAAAAAAAAAAAAAAAAkAAAAAAAAAAAAAAAAHgAECAAACBTxgAcACAAQRgAJAACQCwAAAAAAAAAgAAEAAAAREAoAAAAiQAAHAAAHAAHAYAwAAAAAAAAAAAAAAAAAAAAAAAAAAAAAAA==

> <PUBCHEM_IUPAC_OPENEYE_NAME>
[(2R,3S,4S,5R,6S)-3,4-dihydroxy-5,6-bis(3-nitropropanoyloxy)tetrahydropyran-2-yl]methyl 3-nitropropanoate

> <PUBCHEM_IUPAC_CAS_NAME>
3-nitropropanoic acid [(2R,3S,4S,5R,6S)-3,4-dihydroxy-5,6-bis(3-nitro-1-oxopropoxy)-2-oxanyl]methyl ester

> <PUBCHEM_IUPAC_NAME>
[(2R,3S,4S,5R,6S)-3,4-dihydroxy-5,6-bis(3-nitropropanoyloxy)oxan-2-yl]methyl 3-nitropropanoate

> <PUBCHEM_IUPAC_SYSTEMATIC_NAME>
[(2R,3S,4S,5R,6S)-5,6-bis(3-nitropropanoyloxy)-3,4-bis(oxidanyl)oxan-2-yl]methyl 3-nitropropanoate

> <PUBCHEM_IUPAC_TRADITIONAL_NAME>
3-nitropropionic acid [(2R,3S,4S,5R,6S)-3,4-dihydroxy-5,6-bis(3-nitropropanoyloxy)tetrahydropyran-2-yl]methyl ester

> <PUBCHEM_IUPAC_INCHI>
InChI=1S/C15H21N3O15/c19-9(1-4-16(24)25)30-7-8-12(22)13(23)14(32-10(20)2-5-17(26)27)15(31-8)33-11(21)3-6-18(28)29/h8,12-15,22-23H,1-7H2/t8-,12-,13+,14-,15+/m1/s1

> <PUBCHEM_IUPAC_INCHIKEY>
CNURKUNYCXCBEK-WMNSZERYSA-N

> <PUBCHEM_XLOGP3_AA>
-2.2

> <PUBCHEM_EXACT_MASS>
483.097267

> <PUBCHEM_MOLECULAR_FORMULA>
C15H21N3O15

> <PUBCHEM_MOLECULAR_WEIGHT>
483.33834

> <PUBCHEM_OPENEYE_CAN_SMILES>
C(C[N+](=O)[O-])C(=O)OCC1C(C(C(C(O1)OC(=O)CC[N+](=O)[O-])OC(=O)CC[N+](=O)[O-])O)O

> <PUBCHEM_OPENEYE_ISO_SMILES>
C(C[N+](=O)[O-])C(=O)OC[C@@H]1[C@H]([C@@H]([C@H]([C@@H](O1)OC(=O)CC[N+](=O)[O-])OC(=O)CC[N+](=O)[O-])O)O

> <PUBCHEM_CACTVS_TPSA>
266

> <PUBCHEM_MONOISOTOPIC_WEIGHT>
483.097267

> <PUBCHEM_TOTAL_CHARGE>
0

> <PUBCHEM_HEAVY_ATOM_COUNT>
33

> <PUBCHEM_ATOM_DEF_STEREO_COUNT>
5

> <PUBCHEM_ATOM_UDEF_STEREO_COUNT>
0

> <PUBCHEM_BOND_DEF_STEREO_COUNT>
0

> <PUBCHEM_BOND_UDEF_STEREO_COUNT>
0

> <PUBCHEM_ISOTOPIC_ATOM_COUNT>
0

> <PUBCHEM_COMPONENT_COUNT>
1

> <PUBCHEM_CACTVS_TAUTO_COUNT>
8

> <PUBCHEM_COORDINATE_TYPE>
1
5
255

> <PUBCHEM_BONDANNOTATIONS>
21  2  5
22  24  6
19  3  6
20  4  5
23  5  6

$$$$

