121904
  -OEChem-07051212482D

 65 65  0     1  0  0  0  0  0999 V2000
    6.8100    1.2990    0.0000 O   0  0  0  0  0  0  0  0  0  0  0  0
    2.3100    0.4330    0.0000 O   0  0  0  0  0  0  0  0  0  0  0  0
    4.9836    0.3142    0.0000 O   0  0  0  0  0  0  0  0  0  0  0  0
    6.8100   -2.1651    0.0000 O   0  0  0  0  0  0  0  0  0  0  0  0
    5.3100   -3.0311    0.0000 O   0  0  0  0  0  0  0  0  0  0  0  0
    6.8100    3.0311    0.0000 O   0  0  0  0  0  0  0  0  0  0  0  0
    3.8100   -0.4330    0.0000 C   0  0  2  0  0  0  0  0  0  0  0  0
    3.3100    0.4330    0.0000 C   0  0  1  0  0  0  0  0  0  0  0  0
    3.8100    1.2990    0.0000 C   0  0  2  0  0  0  0  0  0  0  0  0
    3.3100   -1.2990    0.0000 C   0  0  0  0  0  0  0  0  0  0  0  0
    3.8100   -2.1651    0.0000 C   0  0  2  0  0  0  0  0  0  0  0  0
    4.8100    1.2990    0.0000 C   0  0  1  0  0  0  0  0  0  0  0  0
    6.8100   -0.4330    0.0000 C   0  0  2  0  0  0  0  0  0  0  0  0
    5.3100   -1.2990    0.0000 C   0  0  2  0  0  0  0  0  0  0  0  0
    6.3100   -1.2990    0.0000 C   0  0  1  0  0  0  0  0  0  0  0  0
    6.3100    0.4330    0.0000 C   0  0  1  0  0  0  0  0  0  0  0  0
    5.3100    2.1651    0.0000 C   0  0  2  0  0  0  0  0  0  0  0  0
    4.8100   -2.1651    0.0000 C   0  0  0  0  0  0  0  0  0  0  0  0
    4.8100   -0.4330    0.0000 C   0  0  0  0  0  0  0  0  0  0  0  0
    3.3100    2.1651    0.0000 C   0  0  0  0  0  0  0  0  0  0  0  0
    3.3100   -3.0311    0.0000 C   0  0  0  0  0  0  0  0  0  0  0  0
    7.8100   -0.4330    0.0000 C   0  0  0  0  0  0  0  0  0  0  0  0
    5.5440    1.0759    0.0000 C   0  0  0  0  0  0  0  0  0  0  0  0
    4.3100   -1.2990    0.0000 C   0  0  0  0  0  0  0  0  0  0  0  0
    6.3100    2.1651    0.0000 C   0  0  0  0  0  0  0  0  0  0  0  0
    4.8100    3.0311    0.0000 C   0  0  0  0  0  0  0  0  0  0  0  0
    4.4634    0.6829    0.0000 C   0  0  0  0  0  0  0  0  0  0  0  0
    4.1200   -0.9699    0.0000 H   0  0  0  0  0  0  0  0  0  0  0  0
    3.0000    0.9699    0.0000 H   0  0  0  0  0  0  0  0  0  0  0  0
    3.1900    1.2990    0.0000 H   0  0  0  0  0  0  0  0  0  0  0  0
    2.8350   -0.9005    0.0000 H   0  0  0  0  0  0  0  0  0  0  0  0
    2.8350   -1.6976    0.0000 H   0  0  0  0  0  0  0  0  0  0  0  0
    4.1200   -2.7020    0.0000 H   0  0  0  0  0  0  0  0  0  0  0  0
    5.4206    1.1914    0.0000 H   0  0  0  0  0  0  0  0  0  0  0  0
    7.1200   -0.9699    0.0000 H   0  0  0  0  0  0  0  0  0  0  0  0
    6.9300   -1.2990    0.0000 H   0  0  0  0  0  0  0  0  0  0  0  0
    5.3100   -0.6790    0.0000 H   0  0  0  0  0  0  0  0  0  0  0  0
    6.2024    1.0436    0.0000 H   0  0  0  0  0  0  0  0  0  0  0  0
    5.6200    2.7020    0.0000 H   0  0  0  0  0  0  0  0  0  0  0  0
    4.8100   -1.0530    0.0000 H   0  0  0  0  0  0  0  0  0  0  0  0
    5.4300   -0.4330    0.0000 H   0  0  0  0  0  0  0  0  0  0  0  0
    4.8100    0.1870    0.0000 H   0  0  0  0  0  0  0  0  0  0  0  0
    3.8469    2.4751    0.0000 H   0  0  0  0  0  0  0  0  0  0  0  0
    3.0000    2.7020    0.0000 H   0  0  0  0  0  0  0  0  0  0  0  0
    2.7731    1.8551    0.0000 H   0  0  0  0  0  0  0  0  0  0  0  0
    2.7731   -2.7211    0.0000 H   0  0  0  0  0  0  0  0  0  0  0  0
    3.0000   -3.5680    0.0000 H   0  0  0  0  0  0  0  0  0  0  0  0
    3.8469   -3.3411    0.0000 H   0  0  0  0  0  0  0  0  0  0  0  0
    7.8100   -1.0530    0.0000 H   0  0  0  0  0  0  0  0  0  0  0  0
    8.4300   -0.4330    0.0000 H   0  0  0  0  0  0  0  0  0  0  0  0
    7.8100    0.1870    0.0000 H   0  0  0  0  0  0  0  0  0  0  0  0
    6.0190    1.4743    0.0000 H   0  0  0  0  0  0  0  0  0  0  0  0
    5.2341    1.6129    0.0000 H   0  0  0  0  0  0  0  0  0  0  0  0
    4.3100   -0.6790    0.0000 H   0  0  0  0  0  0  0  0  0  0  0  0
    3.6900   -1.2990    0.0000 H   0  0  0  0  0  0  0  0  0  0  0  0
    4.3100   -1.9190    0.0000 H   0  0  0  0  0  0  0  0  0  0  0  0
    5.3469    3.3411    0.0000 H   0  0  0  0  0  0  0  0  0  0  0  0
    4.5000    3.5680    0.0000 H   0  0  0  0  0  0  0  0  0  0  0  0
    4.2731    2.7211    0.0000 H   0  0  0  0  0  0  0  0  0  0  0  0
    2.0000    0.9699    0.0000 H   0  0  0  0  0  0  0  0  0  0  0  0
    5.5663    0.1022    0.0000 H   0  0  0  0  0  0  0  0  0  0  0  0
    7.4300   -2.1651    0.0000 H   0  0  0  0  0  0  0  0  0  0  0  0
    4.2514    1.2655    0.0000 H   0  0  0  0  0  0  0  0  0  0  0  0
    3.8807    0.4709    0.0000 H   0  0  0  0  0  0  0  0  0  0  0  0
    4.6753    0.1002    0.0000 H   0  0  0  0  0  0  0  0  0  0  0  0
  1 16  1  0  0  0  0
  1 25  1  0  0  0  0
  8  2  1  6  0  0  0
  2 60  1  0  0  0  0
 12  3  1  1  0  0  0
  3 61  1  0  0  0  0
 15  4  1  6  0  0  0
  4 62  1  0  0  0  0
  5 18  2  0  0  0  0
  6 25  2  0  0  0  0
  7  8  1  0  0  0  0
  7 10  1  0  0  0  0
  7 19  1  1  0  0  0
  7 28  1  0  0  0  0
  8  9  1  0  0  0  0
  8 29  1  0  0  0  0
  9 12  1  0  0  0  0
  9 20  1  1  0  0  0
  9 30  1  0  0  0  0
 10 11  1  0  0  0  0
 10 31  1  0  0  0  0
 10 32  1  0  0  0  0
 11 18  1  0  0  0  0
 11 21  1  6  0  0  0
 11 33  1  0  0  0  0
 12 17  1  0  0  0  0
 12 34  1  0  0  0  0
 13 15  1  0  0  0  0
 13 16  1  0  0  0  0
 13 22  1  6  0  0  0
 13 35  1  0  0  0  0
 14 15  1  0  0  0  0
 14 18  1  0  0  0  0
 14 24  1  6  0  0  0
 14 37  1  0  0  0  0
 15 36  1  0  0  0  0
 16 23  1  1  0  0  0
 16 38  1  0  0  0  0
 17 25  1  0  0  0  0
 17 26  1  1  0  0  0
 17 39  1  0  0  0  0
 19 40  1  0  0  0  0
 19 41  1  0  0  0  0
 19 42  1  0  0  0  0
 20 43  1  0  0  0  0
 20 44  1  0  0  0  0
 20 45  1  0  0  0  0
 21 46  1  0  0  0  0
 21 47  1  0  0  0  0
 21 48  1  0  0  0  0
 22 49  1  0  0  0  0
 22 50  1  0  0  0  0
 22 51  1  0  0  0  0
 23 27  1  0  0  0  0
 23 52  1  0  0  0  0
 23 53  1  0  0  0  0
 24 54  1  0  0  0  0
 24 55  1  0  0  0  0
 24 56  1  0  0  0  0
 26 57  1  0  0  0  0
 26 58  1  0  0  0  0
 26 59  1  0  0  0  0
 27 63  1  0  0  0  0
 27 64  1  0  0  0  0
 27 65  1  0  0  0  0
M  END
> <PUBCHEM_COMPOUND_CID>
121904

> <PUBCHEM_COMPOUND_CANONICALIZED>
1

> <PUBCHEM_CACTVS_COMPLEXITY>
507

> <PUBCHEM_CACTVS_HBOND_ACCEPTOR>
6

> <PUBCHEM_CACTVS_HBOND_DONOR>
3

> <PUBCHEM_CACTVS_ROTATABLE_BOND>
1

> <PUBCHEM_CACTVS_SUBSKEYS>
AAADcfB4OAAAAAAAAAAAAAAAAAAAAAAAAAAAAAAAAAAAAAAAAAAAGgAACAAADRSggAICCAAABgAIAICQCAAAAAAAAAAAAAEAAAAAEBYAAAACQAAFIAAAAAGI7OzOAAAAAAAAAAAAAAAAAAAAAAAAAAAAAA==

> <PUBCHEM_IUPAC_OPENEYE_NAME>
(3R,4S,5R,6S,7S,9R,11R,12S,13R,14R)-14-ethyl-4,6,12-trihydroxy-3,5,7,9,11,13-hexamethyl-oxacyclotetradecane-2,10-dione

> <PUBCHEM_IUPAC_CAS_NAME>
(3R,4S,5R,6S,7S,9R,11R,12S,13R,14R)-14-ethyl-4,6,12-trihydroxy-3,5,7,9,11,13-hexamethyl-oxacyclotetradecane-2,10-dione

> <PUBCHEM_IUPAC_NAME>
(3R,4S,5R,6S,7S,9R,11R,12S,13R,14R)-14-ethyl-4,6,12-trihydroxy-3,5,7,9,11,13-hexamethyl-oxacyclotetradecane-2,10-dione

> <PUBCHEM_IUPAC_SYSTEMATIC_NAME>
(3R,4S,5R,6S,7S,9R,11R,12S,13R,14R)-14-ethyl-3,5,7,9,11,13-hexamethyl-4,6,12-tris(oxidanyl)-1-oxacyclotetradecane-2,10-dione

> <PUBCHEM_IUPAC_TRADITIONAL_NAME>
(3R,4S,5R,6S,7S,9R,11R,12S,13R,14R)-14-ethyl-4,6,12-trihydroxy-3,5,7,9,11,13-hexamethyl-oxacyclotetradecane-2,10-quinone

> <PUBCHEM_IUPAC_INCHI>
InChI=1S/C21H38O6/c1-8-16-12(4)19(24)13(5)17(22)10(2)9-11(3)18(23)14(6)20(25)15(7)21(26)27-16/h10-16,18-20,23-25H,8-9H2,1-7H3/t10-,11+,12+,13+,14-,15-,16-,18+,19+,20+/m1/s1

> <PUBCHEM_IUPAC_INCHIKEY>
HQZOLNNEQAKEHT-IBBGRPSASA-N

> <PUBCHEM_XLOGP3_AA>
3.1

> <PUBCHEM_EXACT_MASS>
386.266839

> <PUBCHEM_MOLECULAR_FORMULA>
C21H38O6

> <PUBCHEM_MOLECULAR_WEIGHT>
386.52282

> <PUBCHEM_OPENEYE_CAN_SMILES>
CCC1C(C(C(C(=O)C(CC(C(C(C(C(C(=O)O1)C)O)C)O)C)C)C)O)C

> <PUBCHEM_OPENEYE_ISO_SMILES>
CC[C@@H]1[C@@H]([C@@H]([C@H](C(=O)[C@@H](C[C@@H]([C@@H]([C@H]([C@@H]([C@H](C(=O)O1)C)O)C)O)C)C)C)O)C

> <PUBCHEM_CACTVS_TPSA>
104

> <PUBCHEM_MONOISOTOPIC_WEIGHT>
386.266839

> <PUBCHEM_TOTAL_CHARGE>
0

> <PUBCHEM_HEAVY_ATOM_COUNT>
27

> <PUBCHEM_ATOM_DEF_STEREO_COUNT>
10

> <PUBCHEM_ATOM_UDEF_STEREO_COUNT>
0

> <PUBCHEM_BOND_DEF_STEREO_COUNT>
0

> <PUBCHEM_BOND_UDEF_STEREO_COUNT>
0

> <PUBCHEM_ISOTOPIC_ATOM_COUNT>
0

> <PUBCHEM_COMPONENT_COUNT>
1

> <PUBCHEM_CACTVS_TAUTO_COUNT>
6

> <PUBCHEM_COORDINATE_TYPE>
1
5
255

> <PUBCHEM_BONDANNOTATIONS>
11  21  6
13  22  6
14  24  6
16  23  5
17  26  5
8  2  6
12  3  5
15  4  6
7  19  5
9  20  5

$$$$

