65645
  -OEChem-07051213063D

 47 49  0     0  0  0  0  0  0999 V2000
    5.6748   -0.3327    0.5895 O   0  0  0  0  0  0  0  0  0  0  0  0
   -5.7538   -0.9553   -0.2063 O   0  0  0  0  0  0  0  0  0  0  0  0
    5.7894   -0.1555   -1.7419 O   0  0  0  0  0  0  0  0  0  0  0  0
   -6.0218    1.3654   -0.0570 O   0  0  0  0  0  0  0  0  0  0  0  0
    0.3602    0.9891    0.3333 N   0  0  0  0  0  0  0  0  0  0  0  0
   -0.2216   -0.2438    0.2074 C   0  0  0  0  0  0  0  0  0  0  0  0
    1.7286    0.8624    0.4143 C   0  0  0  0  0  0  0  0  0  0  0  0
    0.7803   -1.1866    0.2062 C   0  0  0  0  0  0  0  0  0  0  0  0
    2.0204   -0.5010    0.3362 C   0  0  0  0  0  0  0  0  0  0  0  0
   -0.3514    2.2512    0.3768 C   0  0  0  0  0  0  0  0  0  0  0  0
   -1.6534   -0.4283    0.1002 C   0  0  0  0  0  0  0  0  0  0  0  0
    2.7204    1.8405    0.5493 C   0  0  0  0  0  0  0  0  0  0  0  0
    3.3673   -0.9108    0.3954 C   0  0  0  0  0  0  0  0  0  0  0  0
    0.6074   -2.6513    0.0904 C   0  0  0  0  0  0  0  0  0  0  0  0
    4.3699    0.0564    0.5302 C   0  0  0  0  0  0  0  0  0  0  0  0
   -0.5414    2.8521   -1.0054 C   0  0  0  0  0  0  0  0  0  0  0  0
    4.0492    1.4103    0.6058 C   0  0  0  0  0  0  0  0  0  0  0  0
   -2.4168   -0.6021    1.2513 C   0  0  0  0  0  0  0  0  0  0  0  0
   -2.2592   -0.4307   -1.1535 C   0  0  0  0  0  0  0  0  0  0  0  0
   -3.7965   -0.7797    1.1481 C   0  0  0  0  0  0  0  0  0  0  0  0
   -3.6389   -0.6083   -1.2568 C   0  0  0  0  0  0  0  0  0  0  0  0
   -4.4076   -0.7827   -0.1059 C   0  0  0  0  0  0  0  0  0  0  0  0
    6.3077   -0.4044   -0.6615 C   0  0  0  0  0  0  0  0  0  0  0  0
    7.7330   -0.8392   -0.4900 C   0  0  0  0  0  0  0  0  0  0  0  0
   -6.4902    0.2403   -0.1695 C   0  0  0  0  0  0  0  0  0  0  0  0
   -7.9561   -0.0552   -0.2865 C   0  0  0  0  0  0  0  0  0  0  0  0
   -1.3188    2.0990    0.8654 H   0  0  0  0  0  0  0  0  0  0  0  0
    0.2061    2.9403    1.0199 H   0  0  0  0  0  0  0  0  0  0  0  0
    2.4845    2.8976    0.6047 H   0  0  0  0  0  0  0  0  0  0  0  0
    3.6302   -1.9635    0.3373 H   0  0  0  0  0  0  0  0  0  0  0  0
    0.3776   -2.9259   -0.9443 H   0  0  0  0  0  0  0  0  0  0  0  0
    1.5085   -3.1943    0.3911 H   0  0  0  0  0  0  0  0  0  0  0  0
   -0.2101   -3.0029    0.7286 H   0  0  0  0  0  0  0  0  0  0  0  0
    0.4223    3.0367   -1.4917 H   0  0  0  0  0  0  0  0  0  0  0  0
   -1.0709    3.8071   -0.9312 H   0  0  0  0  0  0  0  0  0  0  0  0
   -1.1214    2.1955   -1.6594 H   0  0  0  0  0  0  0  0  0  0  0  0
    4.8391    2.1505    0.7104 H   0  0  0  0  0  0  0  0  0  0  0  0
   -1.9550   -0.6019    2.2356 H   0  0  0  0  0  0  0  0  0  0  0  0
   -1.6732   -0.2999   -2.0600 H   0  0  0  0  0  0  0  0  0  0  0  0
   -4.3894   -0.9155    2.0485 H   0  0  0  0  0  0  0  0  0  0  0  0
   -4.1083   -0.6108   -2.2368 H   0  0  0  0  0  0  0  0  0  0  0  0
    8.2674   -0.1155    0.1304 H   0  0  0  0  0  0  0  0  0  0  0  0
    8.2184   -0.8860   -1.4690 H   0  0  0  0  0  0  0  0  0  0  0  0
    7.7637   -1.8329   -0.0365 H   0  0  0  0  0  0  0  0  0  0  0  0
   -8.1565   -0.5582   -1.2358 H   0  0  0  0  0  0  0  0  0  0  0  0
   -8.5185    0.8825   -0.2623 H   0  0  0  0  0  0  0  0  0  0  0  0
   -8.2753   -0.6764    0.5539 H   0  0  0  0  0  0  0  0  0  0  0  0
  1 15  1  0  0  0  0
  1 23  1  0  0  0  0
  2 22  1  0  0  0  0
  2 25  1  0  0  0  0
  3 23  2  0  0  0  0
  4 25  2  0  0  0  0
  5  6  1  0  0  0  0
  5  7  1  0  0  0  0
  5 10  1  0  0  0  0
  6  8  2  0  0  0  0
  6 11  1  0  0  0  0
  7  9  2  0  0  0  0
  7 12  1  0  0  0  0
  8  9  1  0  0  0  0
  8 14  1  0  0  0  0
  9 13  1  0  0  0  0
 10 16  1  0  0  0  0
 10 27  1  0  0  0  0
 10 28  1  0  0  0  0
 11 18  2  0  0  0  0
 11 19  1  0  0  0  0
 12 17  2  0  0  0  0
 12 29  1  0  0  0  0
 13 15  2  0  0  0  0
 13 30  1  0  0  0  0
 14 31  1  0  0  0  0
 14 32  1  0  0  0  0
 14 33  1  0  0  0  0
 15 17  1  0  0  0  0
 16 34  1  0  0  0  0
 16 35  1  0  0  0  0
 16 36  1  0  0  0  0
 17 37  1  0  0  0  0
 18 20  1  0  0  0  0
 18 38  1  0  0  0  0
 19 21  2  0  0  0  0
 19 39  1  0  0  0  0
 20 22  2  0  0  0  0
 20 40  1  0  0  0  0
 21 22  1  0  0  0  0
 21 41  1  0  0  0  0
 23 24  1  0  0  0  0
 24 42  1  0  0  0  0
 24 43  1  0  0  0  0
 24 44  1  0  0  0  0
 25 26  1  0  0  0  0
 26 45  1  0  0  0  0
 26 46  1  0  0  0  0
 26 47  1  0  0  0  0
M  END
> <PUBCHEM_COMPOUND_CID>
65645

> <PUBCHEM_CONFORMER_RMSD>
0.8

> <PUBCHEM_CONFORMER_DIVERSEORDER>
1
16
29
27
25
11
24
10
6
8
9
14
28
23
21
26
3
13
4
22
30
18
12
2
19
20
15
7
5
17

> <PUBCHEM_MMFF94_PARTIAL_CHARGES>
31
1 -0.23
10 0.26
11 0.05
12 -0.15
13 -0.15
14 0.18
15 0.08
17 -0.15
18 -0.15
19 -0.15
2 -0.23
20 -0.15
21 -0.15
22 0.08
23 0.66
24 0.06
25 0.66
26 0.06
29 0.15
3 -0.57
30 0.15
37 0.15
38 0.15
39 0.15
4 -0.57
40 0.15
41 0.15
5 0.05
6 -0.2
7 -0.15
8 -0.18

> <PUBCHEM_EFFECTIVE_ROTOR_COUNT>
6

> <PUBCHEM_PHARMACOPHORE_FEATURES>
6
1 3 acceptor
1 4 acceptor
1 5 cation
5 5 6 7 8 9 rings
6 11 18 19 20 21 22 rings
6 7 9 12 13 15 17 rings

> <PUBCHEM_HEAVY_ATOM_COUNT>
26

> <PUBCHEM_ATOM_DEF_STEREO_COUNT>
0

> <PUBCHEM_ATOM_UDEF_STEREO_COUNT>
0

> <PUBCHEM_BOND_DEF_STEREO_COUNT>
0

> <PUBCHEM_BOND_UDEF_STEREO_COUNT>
0

> <PUBCHEM_ISOTOPIC_ATOM_COUNT>
0

> <PUBCHEM_COMPONENT_COUNT>
1

> <PUBCHEM_CACTVS_TAUTO_COUNT>
1

> <PUBCHEM_CONFORMER_ID>
0001006D00000001

> <PUBCHEM_MMFF94_ENERGY>
69.7884

> <PUBCHEM_FEATURE_SELFOVERLAP>
30.538

> <PUBCHEM_SHAPE_FINGERPRINT>
106641 1 9151166546019073518
10906281 52 18201141244023838963
11089746 13 17385449804300958513
11315181 36 16732701623584331011
11796584 16 15430038721370224214
12011746 2 18412542107008014634
12166972 35 18187649047152008617
12236239 1 17676209026968149403
12788726 201 18130514135935984368
13073987 5 10375606905309238055
13140716 1 18194408788751980306
13862211 1 18407761435157056850
13914758 101 17313096488832144497
14294032 229 18056192720608780740
15131766 46 14636872963633241312
15183329 4 18411139151909449177
15238133 3 18201994448326456373
15840311 113 18187650155158819857
15849732 13 18040718052498645271
16087824 20 18267305516706375357
16728300 4 5038566349015147516
21033648 29 18270131106052208096
21236236 1 18337670918417619264
21267235 1 18408319978083291489
21521721 280 12751235900178794060
21641784 216 17988634242357283628
21792961 116 17917436470712114774
221357 26 18408885153251940576
23402539 116 18333737892115142663
23559900 14 17561081367657454074
23569943 247 17533760857704000286
23576562 1 18127403449978908766
29717793 49 17530682095942630172
3004659 81 18272654532524811472
335352 9 18408603648009979486
350125 39 18410856585974576624
3545911 37 18410014330376942827
3633792 109 17241041111224187727
4073 2 18130787802994538283
4325135 7 16630525137338162190
4340502 62 16200158694388738450
5486654 2 18272931626492604842
5758199 1 10807938180249131837
9663363 56 18408046212984307856

> <PUBCHEM_SHAPE_MULTIPOLES>
506.61
17.87
2.02
1.08
3.45
0.95
0.18
-2.74
3.66
-0.35
0.08
-0.19
-0.01
0.52

> <PUBCHEM_SHAPE_SELFOVERLAP>
1099.088

> <PUBCHEM_SHAPE_VOLUME>
277.8

> <PUBCHEM_COORDINATE_TYPE>
2
5
10

$$$$

