3339
  -OEChem-07051212533D

 46 47  0     0  0  0  0  0  0999 V2000
   -7.1677   -2.9104   -0.1781 Cl  0  0  0  0  0  0  0  0  0  0  0  0
    2.2890    0.6715   -0.9147 O   0  0  0  0  0  0  0  0  0  0  0  0
    5.4499   -0.2834    0.5466 O   0  0  0  0  0  0  0  0  0  0  0  0
    4.8903    0.3151   -1.6056 O   0  0  0  0  0  0  0  0  0  0  0  0
   -3.5203    2.5472    0.7281 O   0  0  0  0  0  0  0  0  0  0  0  0
    3.1686    0.2339    0.1123 C   0  0  0  0  0  0  0  0  0  0  0  0
    3.1323    1.2614    1.2423 C   0  0  0  0  0  0  0  0  0  0  0  0
    2.6856   -1.1288    0.5988 C   0  0  0  0  0  0  0  0  0  0  0  0
    4.5839    0.0898   -0.4408 C   0  0  0  0  0  0  0  0  0  0  0  0
    6.5884   -1.0379    0.1189 C   0  0  0  0  0  0  0  0  0  0  0  0
    0.9909    0.8561   -0.6143 C   0  0  0  0  0  0  0  0  0  0  0  0
    0.0714   -0.1950   -0.7468 C   0  0  0  0  0  0  0  0  0  0  0  0
    0.5335    2.1038   -0.1650 C   0  0  0  0  0  0  0  0  0  0  0  0
   -1.7171    1.2426    0.0088 C   0  0  0  0  0  0  0  0  0  0  0  0
    7.4659   -1.3458    1.3225 C   0  0  0  0  0  0  0  0  0  0  0  0
    6.1163   -2.3052   -0.5775 C   0  0  0  0  0  0  0  0  0  0  0  0
   -1.2750   -0.0029   -0.4371 C   0  0  0  0  0  0  0  0  0  0  0  0
   -0.8129    2.2960    0.1449 C   0  0  0  0  0  0  0  0  0  0  0  0
   -3.1213    1.4424    0.3310 C   0  0  0  0  0  0  0  0  0  0  0  0
   -4.1349    0.3522    0.2039 C   0  0  0  0  0  0  0  0  0  0  0  0
   -4.3669   -0.4604    1.2892 C   0  0  0  0  0  0  0  0  0  0  0  0
   -4.7952    0.2047   -0.9937 C   0  0  0  0  0  0  0  0  0  0  0  0
   -5.3130   -1.4785    1.1699 C   0  0  0  0  0  0  0  0  0  0  0  0
   -5.7413   -0.8133   -1.1128 C   0  0  0  0  0  0  0  0  0  0  0  0
   -6.0002   -1.6549   -0.0311 C   0  0  0  0  0  0  0  0  0  0  0  0
    2.1726    1.2877    1.7683 H   0  0  0  0  0  0  0  0  0  0  0  0
    3.3420    2.2692    0.8658 H   0  0  0  0  0  0  0  0  0  0  0  0
    3.8874    1.0426    2.0063 H   0  0  0  0  0  0  0  0  0  0  0  0
    2.5689   -1.8294   -0.2364 H   0  0  0  0  0  0  0  0  0  0  0  0
    1.7314   -1.0794    1.1332 H   0  0  0  0  0  0  0  0  0  0  0  0
    3.3976   -1.5805    1.2994 H   0  0  0  0  0  0  0  0  0  0  0  0
    7.1741   -0.4267   -0.5789 H   0  0  0  0  0  0  0  0  0  0  0  0
    0.3950   -1.1659   -1.1129 H   0  0  0  0  0  0  0  0  0  0  0  0
    1.2203    2.9412   -0.0736 H   0  0  0  0  0  0  0  0  0  0  0  0
    6.9136   -1.9265    2.0696 H   0  0  0  0  0  0  0  0  0  0  0  0
    7.7775   -0.4179    1.8140 H   0  0  0  0  0  0  0  0  0  0  0  0
    8.3601   -1.9057    1.0326 H   0  0  0  0  0  0  0  0  0  0  0  0
    5.4305   -2.8711    0.0630 H   0  0  0  0  0  0  0  0  0  0  0  0
    5.5820   -2.0988   -1.5093 H   0  0  0  0  0  0  0  0  0  0  0  0
    6.9650   -2.9508   -0.8267 H   0  0  0  0  0  0  0  0  0  0  0  0
   -1.9446   -0.8484   -0.5618 H   0  0  0  0  0  0  0  0  0  0  0  0
   -1.1326    3.2772    0.4857 H   0  0  0  0  0  0  0  0  0  0  0  0
   -3.8342   -0.3261    2.2256 H   0  0  0  0  0  0  0  0  0  0  0  0
   -4.5965    0.8577   -1.8380 H   0  0  0  0  0  0  0  0  0  0  0  0
   -5.5044   -2.1267    2.0212 H   0  0  0  0  0  0  0  0  0  0  0  0
   -6.2691   -0.9390   -2.0547 H   0  0  0  0  0  0  0  0  0  0  0  0
  1 25  1  0  0  0  0
  2  6  1  0  0  0  0
  2 11  1  0  0  0  0
  3  9  1  0  0  0  0
  3 10  1  0  0  0  0
  4  9  2  0  0  0  0
  5 19  2  0  0  0  0
  6  7  1  0  0  0  0
  6  8  1  0  0  0  0
  6  9  1  0  0  0  0
  7 26  1  0  0  0  0
  7 27  1  0  0  0  0
  7 28  1  0  0  0  0
  8 29  1  0  0  0  0
  8 30  1  0  0  0  0
  8 31  1  0  0  0  0
 10 15  1  0  0  0  0
 10 16  1  0  0  0  0
 10 32  1  0  0  0  0
 11 12  2  0  0  0  0
 11 13  1  0  0  0  0
 12 17  1  0  0  0  0
 12 33  1  0  0  0  0
 13 18  2  0  0  0  0
 13 34  1  0  0  0  0
 14 17  2  0  0  0  0
 14 18  1  0  0  0  0
 14 19  1  0  0  0  0
 15 35  1  0  0  0  0
 15 36  1  0  0  0  0
 15 37  1  0  0  0  0
 16 38  1  0  0  0  0
 16 39  1  0  0  0  0
 16 40  1  0  0  0  0
 17 41  1  0  0  0  0
 18 42  1  0  0  0  0
 19 20  1  0  0  0  0
 20 21  2  0  0  0  0
 20 22  1  0  0  0  0
 21 23  1  0  0  0  0
 21 43  1  0  0  0  0
 22 24  2  0  0  0  0
 22 44  1  0  0  0  0
 23 25  2  0  0  0  0
 23 45  1  0  0  0  0
 24 25  1  0  0  0  0
 24 46  1  0  0  0  0
M  END
> <PUBCHEM_COMPOUND_CID>
3339

> <PUBCHEM_CONFORMER_RMSD>
0.8

> <PUBCHEM_CONFORMER_DIVERSEORDER>
7
235
238
237
29
145
37
16
64
152
114
198
186
90
94
226
207
230
206
117
217
60
91
200
106
119
73
75
248
19
190
150
166
181
135
227
144
140
163
233
72
175
24
31
52
62
65
173
11
251
105
34
77
63
222
167
40
236
86
234
28
46
69
183
202
92
203
97
189
32
95
104
131
14
9
67
8
125
88
205
85
96
45
191
6
17
134
240
249
13
241
111
54
108
20
49
12
10
246
201
165
39
76
157
107
218
192
199
245
133
172
256
130
171
113
176
215
223
3
185
242
80
155
100
188
169
30
255
137
178
182
153
126
220
253
162
174
26
35
55
225
71
149
44
78
229
127
79
68
101
89
87
254
139
70
56
138
15
99
224
57
156
129
48
193
122
219
66
187
33
180
252
38
158
168
4
231
110
132
41
61
102
210
259
196
43
151
25
211
23
257
213
184
154
146
221
59
204
1
81
51
21
258
148
42
83
84
36
179
177
141
212
123
239
250
98
53
243
124
232
118
74
164
18
58
121
109
27
216
208
22
244
115
136
93
197
159
116
47
161
160
247
228
50
170
194
82
2
214
5
112
195
143
103
120
142
128
209
147

> <PUBCHEM_MMFF94_PARTIAL_CHARGES>
29
1 -0.18
10 0.28
11 0.08
12 -0.15
13 -0.15
14 0.09
17 -0.15
18 -0.15
19 0.4
2 -0.36
20 0.09
21 -0.15
22 -0.15
23 -0.15
24 -0.15
25 0.18
3 -0.43
33 0.15
34 0.15
4 -0.57
41 0.15
42 0.15
43 0.15
44 0.15
45 0.15
46 0.15
5 -0.57
6 0.34
9 0.66

> <PUBCHEM_EFFECTIVE_ROTOR_COUNT>
7

> <PUBCHEM_PHARMACOPHORE_FEATURES>
7
1 2 acceptor
1 4 acceptor
1 5 acceptor
3 10 15 16 hydrophobe
3 6 7 8 hydrophobe
6 11 12 13 14 17 18 rings
6 20 21 22 23 24 25 rings

> <PUBCHEM_HEAVY_ATOM_COUNT>
25

> <PUBCHEM_ATOM_DEF_STEREO_COUNT>
0

> <PUBCHEM_ATOM_UDEF_STEREO_COUNT>
0

> <PUBCHEM_BOND_DEF_STEREO_COUNT>
0

> <PUBCHEM_BOND_UDEF_STEREO_COUNT>
0

> <PUBCHEM_ISOTOPIC_ATOM_COUNT>
0

> <PUBCHEM_COMPONENT_COUNT>
1

> <PUBCHEM_CACTVS_TAUTO_COUNT>
1

> <PUBCHEM_CONFORMER_ID>
00000D0B00000007

> <PUBCHEM_MMFF94_ENERGY>
90.7993

> <PUBCHEM_FEATURE_SELFOVERLAP>
35.526

> <PUBCHEM_SHAPE_FINGERPRINT>
10 15 14923946743140533962
10066227 112 10447930576681725103
10554248 39 9583251478646452752
11315181 36 18343018896046816997
11545043 162 18186804715914656521
11646440 116 16588026818834531274
12166972 35 18131630050080780581
12236239 1 18202279221574208620
12293681 160 11743841369394172156
12596602 18 17894632586751489986
12760667 363 18341327817530829051
13288520 33 18413670223429289661
13668630 136 17917432003956845339
13782708 43 18334573594594515582
13862211 1 18410854347868905775
14211702 104 18337664312821377510
14251764 18 17603871079187894908
14556957 393 15338546258441882374
14849402 71 15719971111667777162
14931854 50 17775013362723834723
15064986 266 17489297569912213949
15183329 4 15554458392048965235
15188451 53 18411140229355344489
15510800 12 18130780115230185195
1577012 14 18272640282203274668
17349148 13 18341604898313039901
18222031 100 18202567250180649341
18927931 339 18334008407015711813
20028762 73 18334856095546742302
2026 5 18202005442942314907
20281389 69 7997970163188634815
20526848 3 8214146265238616642
20621476 66 8646771105525010907
21054139 6 18131633409003525714
21130935 74 18261394524772313866
21267235 1 18408881828171676686
21298829 104 9439413436336473011
21307412 95 17702668727896005515
21424621 283 7853574621133108364
21585483 132 17774172330675910362
21637258 2 18131636699064317288
21682296 61 18408037429296470903
21756936 100 6699799887282840461
2303208 19 17386276697053243148
23081809 10 18272922852264698932
23389318 12 18059851741361202030
23522609 53 18122307325148879560
23559900 14 17916021262009011449
23569943 247 17764871691108728770
25122255 55 18341604910992427787
270888 7 9151184142742606547
3004659 81 17632863005435291265
312425 54 17386273385570348971
3383291 50 18413390912594662883
392239 28 16081088143647500883
4015057 19 17274525560363208060
465052 167 18261108552310190516
5104073 3 17677322969338049410
559249 180 18341896316429048173
5718773 13 18338237051543284335
6328613 192 10015577311588572854
636775 8 18337100246862118870
6431902 208 18411417328156435243
7495541 125 18187365433054750368
7970288 3 18410575072016203575
9953998 17 16443066084720993239
9996256 80 18335421292115725034

> <PUBCHEM_SHAPE_MULTIPOLES>
492.88
19.97
2.5
1.18
8.44
0.19
-0.06
17.6
-1.52
-2.09
-0.24
0.22
0.1
-0.35

> <PUBCHEM_SHAPE_SELFOVERLAP>
1037.515

> <PUBCHEM_SHAPE_VOLUME>
279.9

> <PUBCHEM_COORDINATE_TYPE>
2
5
10

$$$$

