586255
  -OEChem-06241222462D

 30 31  0     0  0  0  0  0  0999 V2000
    2.0000   -4.5194    0.0000 F   0  0  0  0  0  0  0  0  0  0  0  0
    5.5211    3.5684    0.0000 O   0  0  0  0  0  0  0  0  0  0  0  0
    5.4641   -1.5194    0.0000 O   0  0  0  0  0  0  0  0  0  0  0  0
    3.7320    0.4806    0.0000 O   0  0  0  0  0  0  0  0  0  0  0  0
    3.7320   -1.5194    0.0000 N   0  0  0  0  0  0  0  0  0  0  0  0
    5.4641    0.4806    0.0000 N   0  0  0  0  0  0  0  0  0  0  0  0
    5.4641    1.4806    0.0000 N   0  0  0  0  0  0  0  0  0  0  0  0
    3.7320   -2.5194    0.0000 C   0  0  0  0  0  0  0  0  0  0  0  0
    2.8660   -3.0194    0.0000 C   0  0  0  0  0  0  0  0  0  0  0  0
    4.5981   -3.0194    0.0000 C   0  0  0  0  0  0  0  0  0  0  0  0
    2.8660   -4.0194    0.0000 C   0  0  0  0  0  0  0  0  0  0  0  0
    4.5981   -4.0194    0.0000 C   0  0  0  0  0  0  0  0  0  0  0  0
    3.7320   -4.5194    0.0000 C   0  0  0  0  0  0  0  0  0  0  0  0
    4.5981   -1.0194    0.0000 C   0  0  0  0  0  0  0  0  0  0  0  0
    6.3301    2.9806    0.0000 C   0  0  0  0  0  0  0  0  0  0  0  0
    7.1391    3.5684    0.0000 C   0  0  0  0  0  0  0  0  0  0  0  0
    4.5981   -0.0194    0.0000 C   0  0  0  0  0  0  0  0  0  0  0  0
    6.8301    4.5194    0.0000 C   0  0  0  0  0  0  0  0  0  0  0  0
    6.3301    1.9806    0.0000 C   0  0  0  0  0  0  0  0  0  0  0  0
    5.8301    4.5194    0.0000 C   0  0  0  0  0  0  0  0  0  0  0  0
    2.3291   -2.7094    0.0000 H   0  0  0  0  0  0  0  0  0  0  0  0
    5.1350   -2.7094    0.0000 H   0  0  0  0  0  0  0  0  0  0  0  0
    3.1951   -1.2094    0.0000 H   0  0  0  0  0  0  0  0  0  0  0  0
    5.1350   -4.3294    0.0000 H   0  0  0  0  0  0  0  0  0  0  0  0
    3.7320   -5.1394    0.0000 H   0  0  0  0  0  0  0  0  0  0  0  0
    7.7288    3.3768    0.0000 H   0  0  0  0  0  0  0  0  0  0  0  0
    7.1946    5.0210    0.0000 H   0  0  0  0  0  0  0  0  0  0  0  0
    6.8671    1.6706    0.0000 H   0  0  0  0  0  0  0  0  0  0  0  0
    5.4657    5.0210    0.0000 H   0  0  0  0  0  0  0  0  0  0  0  0
    6.0010    0.1706    0.0000 H   0  0  0  0  0  0  0  0  0  0  0  0
  1 11  1  0  0  0  0
  2 15  1  0  0  0  0
  2 20  1  0  0  0  0
  3 14  2  0  0  0  0
  4 17  2  0  0  0  0
  5  8  1  0  0  0  0
  5 14  1  0  0  0  0
  5 23  1  0  0  0  0
  6  7  1  0  0  0  0
  6 17  1  0  0  0  0
  6 30  1  0  0  0  0
  7 19  2  3  0  0  0
  8  9  2  0  0  0  0
  8 10  1  0  0  0  0
  9 11  1  0  0  0  0
  9 21  1  0  0  0  0
 10 12  2  0  0  0  0
 10 22  1  0  0  0  0
 11 13  2  0  0  0  0
 12 13  1  0  0  0  0
 12 24  1  0  0  0  0
 13 25  1  0  0  0  0
 14 17  1  0  0  0  0
 15 16  2  0  0  0  0
 15 19  1  0  0  0  0
 16 18  1  0  0  0  0
 16 26  1  0  0  0  0
 18 20  2  0  0  0  0
 18 27  1  0  0  0  0
 19 28  1  0  0  0  0
 20 29  1  0  0  0  0
M  END
> <PUBCHEM_COMPOUND_CID>
586255

> <PUBCHEM_COMPOUND_CANONICALIZED>
1

> <PUBCHEM_CACTVS_COMPLEXITY>
389

> <PUBCHEM_CACTVS_HBOND_ACCEPTOR>
5

> <PUBCHEM_CACTVS_HBOND_DONOR>
2

> <PUBCHEM_CACTVS_ROTATABLE_BOND>
3

> <PUBCHEM_CACTVS_SUBSKEYS>
AAADccBzMQAAAAAAAAAAAAAAAAAAASAAAAAwAAAAAAAAAAABwAAAHwAYAAAACAzhkA4wxILiBECoAL1z0ASSCAAlIgAaiAGmbNgMZrLEtbuWOSjk3BHI6YeYAAAAAAAAAAAAAAAAAAAAAAAAAAAAAAAAAA==

> <PUBCHEM_IUPAC_OPENEYE_NAME>
N-(3-fluorophenyl)-N'-(2-furylmethyleneamino)oxamide

> <PUBCHEM_IUPAC_CAS_NAME>
N-(3-fluorophenyl)-N'-(2-furanylmethylideneamino)oxamide

> <PUBCHEM_IUPAC_NAME>
N-(3-fluorophenyl)-N'-(furan-2-ylmethylideneamino)oxamide

> <PUBCHEM_IUPAC_SYSTEMATIC_NAME>
N-(3-fluorophenyl)-N'-(furan-2-ylmethylideneamino)ethanediamide

> <PUBCHEM_IUPAC_TRADITIONAL_NAME>
N-(3-fluorophenyl)-N'-(2-furfurylideneamino)oxamide

> <PUBCHEM_IUPAC_INCHI>
InChI=1S/C13H10FN3O3/c14-9-3-1-4-10(7-9)16-12(18)13(19)17-15-8-11-5-2-6-20-11/h1-8H,(H,16,18)(H,17,19)

> <PUBCHEM_IUPAC_INCHIKEY>
SYNAZFRWLMFRTP-UHFFFAOYSA-N

> <PUBCHEM_XLOGP3_AA>
1.9

> <PUBCHEM_EXACT_MASS>
275.070619

> <PUBCHEM_MOLECULAR_FORMULA>
C13H10FN3O3

> <PUBCHEM_MOLECULAR_WEIGHT>
275.235203

> <PUBCHEM_OPENEYE_CAN_SMILES>
C1=CC(=CC(=C1)F)NC(=O)C(=O)NN=CC2=CC=CO2

> <PUBCHEM_OPENEYE_ISO_SMILES>
C1=CC(=CC(=C1)F)NC(=O)C(=O)NN=CC2=CC=CO2

> <PUBCHEM_CACTVS_TPSA>
83.7

> <PUBCHEM_MONOISOTOPIC_WEIGHT>
275.070619

> <PUBCHEM_TOTAL_CHARGE>
0

> <PUBCHEM_HEAVY_ATOM_COUNT>
20

> <PUBCHEM_ATOM_DEF_STEREO_COUNT>
0

> <PUBCHEM_ATOM_UDEF_STEREO_COUNT>
0

> <PUBCHEM_BOND_DEF_STEREO_COUNT>
0

> <PUBCHEM_BOND_UDEF_STEREO_COUNT>
1

> <PUBCHEM_ISOTOPIC_ATOM_COUNT>
0

> <PUBCHEM_COMPONENT_COUNT>
1

> <PUBCHEM_CACTVS_TAUTO_COUNT>
4

> <PUBCHEM_COORDINATE_TYPE>
1
5
255

> <PUBCHEM_BONDANNOTATIONS>
10  12  8
11  13  8
12  13  8
15  16  8
16  18  8
18  20  8
2  15  8
2  20  8
7  19  1
8  10  8
8  9  8
9  11  8

$$$$

