13062
  -OEChem-06261207433D

 26 27  0     0  0  0  0  0  0999 V2000
    3.1520   -1.5898    0.0342 O   0  0  0  0  0  0  0  0  0  0  0  0
   -3.1519    1.5898    0.0342 O   0  0  0  0  0  0  0  0  0  0  0  0
    4.0703    0.5531    0.0364 N   0  0  0  0  0  0  0  0  0  0  0  0
   -4.0704   -0.5530    0.0364 N   0  0  0  0  0  0  0  0  0  0  0  0
    1.7877    0.2979    0.0350 N   0  0  0  0  0  0  0  0  0  0  0  0
   -1.7877   -0.2981    0.0351 N   0  0  0  0  0  0  0  0  0  0  0  0
    5.3355    0.2622    0.6445 C   0  0  0  0  0  0  0  0  0  0  0  0
    5.2110    0.4082   -0.8198 C   0  0  0  0  0  0  0  0  0  0  0  0
   -5.3355   -0.2620    0.6445 C   0  0  0  0  0  0  0  0  0  0  0  0
   -5.2110   -0.4080   -0.8198 C   0  0  0  0  0  0  0  0  0  0  0  0
    3.0155   -0.3665    0.0347 C   0  0  0  0  0  0  0  0  0  0  0  0
   -3.0155    0.3665    0.0346 C   0  0  0  0  0  0  0  0  0  0  0  0
    0.5792   -0.3324    0.0350 C   0  0  0  0  0  0  0  0  0  0  0  0
   -0.5792    0.3322    0.0351 C   0  0  0  0  0  0  0  0  0  0  0  0
    5.4341   -0.7260    1.0698 H   0  0  0  0  0  0  0  0  0  0  0  0
    5.7296    1.0846    1.2232 H   0  0  0  0  0  0  0  0  0  0  0  0
    5.5161    1.3342   -1.2842 H   0  0  0  0  0  0  0  0  0  0  0  0
    5.2135   -0.4760   -1.4407 H   0  0  0  0  0  0  0  0  0  0  0  0
   -5.4340    0.7261    1.0698 H   0  0  0  0  0  0  0  0  0  0  0  0
   -5.7297   -1.0844    1.2232 H   0  0  0  0  0  0  0  0  0  0  0  0
   -5.5162   -1.3341   -1.2841 H   0  0  0  0  0  0  0  0  0  0  0  0
   -5.2135    0.4762   -1.4406 H   0  0  0  0  0  0  0  0  0  0  0  0
    1.7983    1.3143    0.0353 H   0  0  0  0  0  0  0  0  0  0  0  0
   -1.7983   -1.3144    0.0351 H   0  0  0  0  0  0  0  0  0  0  0  0
    0.6029   -1.4174    0.0348 H   0  0  0  0  0  0  0  0  0  0  0  0
   -0.6029    1.4172    0.0351 H   0  0  0  0  0  0  0  0  0  0  0  0
  1 11  2  0  0  0  0
  2 12  2  0  0  0  0
  3  7  1  0  0  0  0
  3  8  1  0  0  0  0
  3 11  1  0  0  0  0
  4  9  1  0  0  0  0
  4 10  1  0  0  0  0
  4 12  1  0  0  0  0
  5 11  1  0  0  0  0
  5 13  1  0  0  0  0
  5 23  1  0  0  0  0
  6 12  1  0  0  0  0
  6 14  1  0  0  0  0
  6 24  1  0  0  0  0
  7  8  1  0  0  0  0
  7 15  1  0  0  0  0
  7 16  1  0  0  0  0
  8 17  1  0  0  0  0
  8 18  1  0  0  0  0
  9 10  1  0  0  0  0
  9 19  1  0  0  0  0
  9 20  1  0  0  0  0
 10 21  1  0  0  0  0
 10 22  1  0  0  0  0
 13 14  2  0  0  0  0
 13 25  1  0  0  0  0
 14 26  1  0  0  0  0
M  END
> <PUBCHEM_COMPOUND_CID>
13062

> <PUBCHEM_CONFORMER_RMSD>
0.8

> <PUBCHEM_CONFORMER_DIVERSEORDER>
1
2
3
4
5
6

> <PUBCHEM_MMFF94_PARTIAL_CHARGES>
26
1 -0.57
10 -0.05
11 0.69
12 0.69
13 -0.04
14 -0.04
15 0.1
16 0.1
17 0.1
18 0.1
19 0.1
2 -0.57
20 0.1
21 0.1
22 0.1
23 0.37
24 0.37
25 0.15
26 0.15
3 -0.36
4 -0.36
5 -0.54
6 -0.54
7 -0.05
8 -0.05
9 -0.05

> <PUBCHEM_EFFECTIVE_ROTOR_COUNT>
7.2

> <PUBCHEM_PHARMACOPHORE_FEATURES>
4
1 1 acceptor
1 2 acceptor
1 5 donor
1 6 donor

> <PUBCHEM_HEAVY_ATOM_COUNT>
14

> <PUBCHEM_ATOM_DEF_STEREO_COUNT>
0

> <PUBCHEM_ATOM_UDEF_STEREO_COUNT>
0

> <PUBCHEM_BOND_DEF_STEREO_COUNT>
0

> <PUBCHEM_BOND_UDEF_STEREO_COUNT>
1

> <PUBCHEM_ISOTOPIC_ATOM_COUNT>
0

> <PUBCHEM_COMPONENT_COUNT>
1

> <PUBCHEM_CACTVS_TAUTO_COUNT>
3

> <PUBCHEM_CONFORMER_ID>
0000330600000001

> <PUBCHEM_MMFF94_ENERGY>
43.4919

> <PUBCHEM_FEATURE_SELFOVERLAP>
20.297

> <PUBCHEM_SHAPE_FINGERPRINT>
10680689 15 4967607265914375633
10912923 1 18410574023806163763
11287383 113 17274818021723018513
11401426 45 15267345115294754719
114248 4 18410855455833194585
13533116 47 14907913690881791560
14123238 8 18410856559639789580
1420 363 18342451538997858275
14251718 22 17917711279735902379
17834072 33 18342738481510024388
17834076 25 18342455937608592350
19489759 90 14045748123144064749
20279233 1 15841547496162731586
20645477 70 18337389461042952766
20767249 13 15769776853163704321
23402539 116 18342182146291548719
23557571 272 18260257585950142548
300161 21 18260272957869813463
42788 4 15769777948385639615
5104073 3 18338517567934563242
522135 26 5761653681542492662
542803 24 15647051559999642136
7062679 117 18334296423027485399

> <PUBCHEM_SHAPE_MULTIPOLES>
256.45
14.56
0.99
0.75
0
0
-0.05
0
-0.39
0
0
0
0
-0.15

> <PUBCHEM_SHAPE_SELFOVERLAP>
514.718

> <PUBCHEM_SHAPE_VOLUME>
151.6

> <PUBCHEM_COORDINATE_TYPE>
2
5
10

$$$$

