440582
  -OEChem-07051212503D

 43 47  0     1  0  0  0  0  0999 V2000
    4.7004   -1.3666    0.2269 O   0  0  0  0  0  0  0  0  0  0  0  0
    6.0035    0.6147   -0.1878 O   0  0  0  0  0  0  0  0  0  0  0  0
   -5.9708    0.0830   -0.0910 O   0  0  0  0  0  0  0  0  0  0  0  0
   -4.5777    2.3123    0.8066 O   0  0  0  0  0  0  0  0  0  0  0  0
    0.3135   -1.3390   -0.0960 N   0  0  2  0  0  0  0  0  0  0  0  0
   -0.2991   -0.1229    0.4934 C   0  0  1  0  0  0  0  0  0  0  0  0
    0.4001    1.1025   -0.1463 C   0  0  0  0  0  0  0  0  0  0  0  0
   -0.4431   -2.5445    0.2528 C   0  0  0  0  0  0  0  0  0  0  0  0
    1.7160   -1.4715    0.3349 C   0  0  0  0  0  0  0  0  0  0  0  0
   -1.8158   -0.0600    0.3218 C   0  0  0  0  0  0  0  0  0  0  0  0
    1.9071    1.0035   -0.1503 C   0  0  0  0  0  0  0  0  0  0  0  0
   -1.8195   -2.4822   -0.4044 C   0  0  0  0  0  0  0  0  0  0  0  0
    2.5315   -0.2400    0.0493 C   0  0  0  0  0  0  0  0  0  0  0  0
   -2.5369   -1.1982   -0.0869 C   0  0  0  0  0  0  0  0  0  0  0  0
    3.9170   -0.2691    0.0284 C   0  0  0  0  0  0  0  0  0  0  0  0
   -2.5304    1.1073    0.6390 C   0  0  0  0  0  0  0  0  0  0  0  0
    2.6836    2.1561   -0.4012 C   0  0  0  0  0  0  0  0  0  0  0  0
   -3.9301   -1.1327   -0.2367 C   0  0  0  0  0  0  0  0  0  0  0  0
    4.6652    0.8623   -0.2061 C   0  0  0  0  0  0  0  0  0  0  0  0
    4.0780    2.0896   -0.4282 C   0  0  0  0  0  0  0  0  0  0  0  0
   -3.9185    1.1599    0.4998 C   0  0  0  0  0  0  0  0  0  0  0  0
   -4.6173    0.0429    0.0547 C   0  0  0  0  0  0  0  0  0  0  0  0
    6.0180   -0.7996    0.0884 C   0  0  0  0  0  0  0  0  0  0  0  0
   -6.4745    0.4926   -1.3611 C   0  0  0  0  0  0  0  0  0  0  0  0
   -0.1138   -0.1214    1.5783 H   0  0  0  0  0  0  0  0  0  0  0  0
    0.1242    2.0121    0.4003 H   0  0  0  0  0  0  0  0  0  0  0  0
    0.0668    1.2271   -1.1856 H   0  0  0  0  0  0  0  0  0  0  0  0
    2.1650   -2.3153   -0.2038 H   0  0  0  0  0  0  0  0  0  0  0  0
    1.7761   -1.6847    1.4104 H   0  0  0  0  0  0  0  0  0  0  0  0
   -0.5387   -2.6484    1.3420 H   0  0  0  0  0  0  0  0  0  0  0  0
    0.0691   -3.4413   -0.1169 H   0  0  0  0  0  0  0  0  0  0  0  0
   -2.4125   -3.3372   -0.0581 H   0  0  0  0  0  0  0  0  0  0  0  0
   -1.7198   -2.5641   -1.4942 H   0  0  0  0  0  0  0  0  0  0  0  0
   -2.0104    1.9886    1.0054 H   0  0  0  0  0  0  0  0  0  0  0  0
    2.1955    3.1124   -0.5740 H   0  0  0  0  0  0  0  0  0  0  0  0
   -4.4803   -2.0079   -0.5754 H   0  0  0  0  0  0  0  0  0  0  0  0
    4.6724    2.9766   -0.6157 H   0  0  0  0  0  0  0  0  0  0  0  0
    6.5365   -1.3121   -0.7301 H   0  0  0  0  0  0  0  0  0  0  0  0
    6.5731   -0.9703    1.0179 H   0  0  0  0  0  0  0  0  0  0  0  0
   -5.5319    2.1627    0.6917 H   0  0  0  0  0  0  0  0  0  0  0  0
   -6.1232    1.4982   -1.6127 H   0  0  0  0  0  0  0  0  0  0  0  0
   -7.5665    0.5067   -1.3081 H   0  0  0  0  0  0  0  0  0  0  0  0
   -6.1709   -0.2161   -2.1382 H   0  0  0  0  0  0  0  0  0  0  0  0
  1 15  1  0  0  0  0
  1 23  1  0  0  0  0
  2 19  1  0  0  0  0
  2 23  1  0  0  0  0
  3 22  1  0  0  0  0
  3 24  1  0  0  0  0
  4 21  1  0  0  0  0
  4 40  1  0  0  0  0
  5  6  1  0  0  0  0
  5  8  1  0  0  0  0
  5  9  1  0  0  0  0
  6  7  1  0  0  0  0
  6 10  1  0  0  0  0
  6 25  1  0  0  0  0
  7 11  1  0  0  0  0
  7 26  1  0  0  0  0
  7 27  1  0  0  0  0
  8 12  1  0  0  0  0
  8 30  1  0  0  0  0
  8 31  1  0  0  0  0
  9 13  1  0  0  0  0
  9 28  1  0  0  0  0
  9 29  1  0  0  0  0
 10 14  1  0  0  0  0
 10 16  2  0  0  0  0
 11 13  2  0  0  0  0
 11 17  1  0  0  0  0
 12 14  1  0  0  0  0
 12 32  1  0  0  0  0
 12 33  1  0  0  0  0
 13 15  1  0  0  0  0
 14 18  2  0  0  0  0
 15 19  2  0  0  0  0
 16 21  1  0  0  0  0
 16 34  1  0  0  0  0
 17 20  2  0  0  0  0
 17 35  1  0  0  0  0
 18 22  1  0  0  0  0
 18 36  1  0  0  0  0
 19 20  1  0  0  0  0
 20 37  1  0  0  0  0
 21 22  2  0  0  0  0
 23 38  1  0  0  0  0
 23 39  1  0  0  0  0
 24 41  1  0  0  0  0
 24 42  1  0  0  0  0
 24 43  1  0  0  0  0
M  END
> <PUBCHEM_COMPOUND_CID>
440582

> <PUBCHEM_CONFORMER_RMSD>
0.6

> <PUBCHEM_CONFORMER_DIVERSEORDER>
1
2
4
3

> <PUBCHEM_MMFF94_PARTIAL_CHARGES>
29
1 -0.36
10 -0.14
11 -0.14
12 0.14
13 -0.14
14 -0.14
15 0.08
16 -0.15
17 -0.15
18 -0.15
19 0.08
2 -0.36
20 -0.15
21 0.08
22 0.08
23 0.56
24 0.28
3 -0.36
34 0.15
35 0.15
36 0.15
37 0.15
4 -0.53
40 0.45
5 -0.81
6 0.41
7 0.14
8 0.27
9 0.41

> <PUBCHEM_EFFECTIVE_ROTOR_COUNT>
2.4

> <PUBCHEM_PHARMACOPHORE_FEATURES>
10
1 1 acceptor
1 2 acceptor
1 3 acceptor
1 4 donor
1 5 cation
5 1 2 15 19 23 rings
6 10 14 16 18 21 22 rings
6 11 13 15 17 19 20 rings
6 5 6 7 9 11 13 rings
6 5 6 8 10 12 14 rings

> <PUBCHEM_HEAVY_ATOM_COUNT>
24

> <PUBCHEM_ATOM_DEF_STEREO_COUNT>
1

> <PUBCHEM_ATOM_UDEF_STEREO_COUNT>
0

> <PUBCHEM_BOND_DEF_STEREO_COUNT>
0

> <PUBCHEM_BOND_UDEF_STEREO_COUNT>
0

> <PUBCHEM_ISOTOPIC_ATOM_COUNT>
0

> <PUBCHEM_COMPONENT_COUNT>
1

> <PUBCHEM_CACTVS_TAUTO_COUNT>
3

> <PUBCHEM_CONFORMER_ID>
0006B90600000001

> <PUBCHEM_MMFF94_ENERGY>
75.7353

> <PUBCHEM_FEATURE_SELFOVERLAP>
50.964

> <PUBCHEM_SHAPE_FINGERPRINT>
10595046 47 18337390443962040321
10763959 59 17632579361511101141
11089746 13 18335424560179544964
11315181 36 18410571764753852456
11578080 2 13541309712140756852
12107183 9 17833830847501807272
12236239 1 18260267460290517073
12838862 33 18339943553006757468
13167823 11 18410855426085051538
13177829 73 18408604768695626960
13533116 47 17822290227971477290
13583140 156 17489584559146774945
14767858 380 18260843575073075287
14790565 3 18411695508539724000
15099037 51 18411697694967955126
15183329 4 18410571799435103748
15196674 1 18339641131516553850
15420108 30 17036116551963480064
15788980 27 18341890766772028720
17349148 13 18040712563240452592
17492 89 18124030135768805010
18335252 114 18341625832173642661
18681886 176 18261401026444886690
19489759 90 17458341952980426497
200 152 18186801370108245657
20511986 3 18337124366938925518
20612939 158 18272084981254128988
21033648 144 18269565948564705100
21033648 29 16917082035201498549
21033650 10 16879880098157555296
21133410 221 14937451683509362049
21267235 1 18410566276054640947
21421861 104 17917159402968027506
21859007 373 17915485928231411684
23402539 116 18259989253794442477
23559900 14 18115594733799084328
23569917 315 18409163324724743335
2838139 119 18413394254648242437
29717793 49 18113614590882869492
3004659 81 18412542120441276118
335352 9 18411980269915353286
34797466 226 16805599231715968600
350125 39 18411138039328445825
3545911 37 18411135827214397651
3633792 109 18340214085229568765
3680242 22 18270680991105498730
4017518 198 17676200283133037830
404807 14 16452040556167411646
4073 2 18059288743989327034
4214541 1 18409727344092190424
4340502 62 16988559117713436139
474 4 18130785633592499913
5104073 3 18341331089873773098
543358 83 18341891875475055626
54446538 1 18409449193583840073
559249 180 18409449206674509290
6138700 20 18339920536920791306
6328613 192 18270953554246752524
633830 44 17417534588501730136
9709674 26 18334565811797569462

> <PUBCHEM_SHAPE_MULTIPOLES>
465.45
14.14
2.36
0.78
1.07
0.33
-0.07
-3.54
-2.08
-0.02
0.01
0.67
-0.13
-0.79

> <PUBCHEM_SHAPE_SELFOVERLAP>
1043.763

> <PUBCHEM_SHAPE_VOLUME>
245.9

> <PUBCHEM_COORDINATE_TYPE>
2
5
10

$$$$

