442847
  -OEChem-07051212593D

 57 59  0     1  0  0  0  0  0999 V2000
    1.4796   -2.7829    1.3303 O   0  0  0  0  0  0  0  0  0  0  0  0
   -3.6575    2.3382    1.2114 O   0  0  0  0  0  0  0  0  0  0  0  0
   -2.2078    0.7098    0.3603 N   0  0  0  0  0  0  0  0  0  0  0  0
    2.1578    0.6079   -0.2177 N   0  0  0  0  0  0  0  0  0  0  0  0
    0.4392   -2.3522   -0.6995 N   0  0  0  0  0  0  0  0  0  0  0  0
    3.1153   -0.4093    0.2464 C   0  0  1  0  0  0  0  0  0  0  0  0
   -0.3300    2.2288   -0.2362 C   0  0  0  0  0  0  0  0  0  0  0  0
    1.0390    2.7920    0.1651 C   0  0  0  0  0  0  0  0  0  0  0  0
   -1.0062    1.3970    0.8563 C   0  0  0  0  0  0  0  0  0  0  0  0
    2.0632    1.7647    0.6697 C   0  0  0  0  0  0  0  0  0  0  0  0
   -1.9856   -0.5174   -0.4280 C   0  0  0  0  0  0  0  0  0  0  0  0
    2.7778   -1.7621   -0.4165 C   0  0  0  0  0  0  0  0  0  0  0  0
   -1.6608   -1.7331    0.4484 C   0  0  0  0  0  0  0  0  0  0  0  0
   -0.8909   -2.8065   -0.3225 C   0  0  0  0  0  0  0  0  0  0  0  0
    4.5614   -0.0200   -0.0185 C   0  0  0  0  0  0  0  0  0  0  0  0
    1.5122   -2.3623    0.1750 C   0  0  0  0  0  0  0  0  0  0  0  0
   -3.4596    1.2859    0.6056 C   0  0  0  0  0  0  0  0  0  0  0  0
    5.5601   -0.4196    0.8662 C   0  0  0  0  0  0  0  0  0  0  0  0
    4.8811    0.7347   -1.1447 C   0  0  0  0  0  0  0  0  0  0  0  0
   -4.6522    0.5897    0.1078 C   0  0  0  0  0  0  0  0  0  0  0  0
    6.8864   -0.0624    0.6232 C   0  0  0  0  0  0  0  0  0  0  0  0
    6.2075    1.0917   -1.3877 C   0  0  0  0  0  0  0  0  0  0  0  0
    7.2101    0.6931   -0.5038 C   0  0  0  0  0  0  0  0  0  0  0  0
   -5.2918   -0.3493    0.9123 C   0  0  0  0  0  0  0  0  0  0  0  0
   -5.1372    0.8725   -1.1663 C   0  0  0  0  0  0  0  0  0  0  0  0
   -6.4254   -1.0104    0.4392 C   0  0  0  0  0  0  0  0  0  0  0  0
   -6.2707    0.2115   -1.6393 C   0  0  0  0  0  0  0  0  0  0  0  0
   -6.9148   -0.7300   -0.8365 C   0  0  0  0  0  0  0  0  0  0  0  0
    2.9843   -0.5271    1.3313 H   0  0  0  0  0  0  0  0  0  0  0  0
   -0.9885    3.0652   -0.5042 H   0  0  0  0  0  0  0  0  0  0  0  0
   -0.2175    1.6472   -1.1577 H   0  0  0  0  0  0  0  0  0  0  0  0
    1.4589    3.3136   -0.7046 H   0  0  0  0  0  0  0  0  0  0  0  0
    0.8987    3.5522    0.9435 H   0  0  0  0  0  0  0  0  0  0  0  0
   -0.3372    0.6377    1.2670 H   0  0  0  0  0  0  0  0  0  0  0  0
   -1.2795    2.0566    1.6879 H   0  0  0  0  0  0  0  0  0  0  0  0
    3.0333    2.2672    0.7576 H   0  0  0  0  0  0  0  0  0  0  0  0
    1.7780    1.4429    1.6784 H   0  0  0  0  0  0  0  0  0  0  0  0
   -1.1732   -0.3087   -1.1300 H   0  0  0  0  0  0  0  0  0  0  0  0
   -2.8572   -0.7496   -1.0454 H   0  0  0  0  0  0  0  0  0  0  0  0
    1.2381    0.1813   -0.3130 H   0  0  0  0  0  0  0  0  0  0  0  0
    3.5790   -2.4912   -0.2385 H   0  0  0  0  0  0  0  0  0  0  0  0
    2.6963   -1.6598   -1.5058 H   0  0  0  0  0  0  0  0  0  0  0  0
   -2.5982   -2.1582    0.8266 H   0  0  0  0  0  0  0  0  0  0  0  0
   -1.0816   -1.4388    1.3304 H   0  0  0  0  0  0  0  0  0  0  0  0
   -0.7852   -3.7018    0.2997 H   0  0  0  0  0  0  0  0  0  0  0  0
   -1.4191   -3.0848   -1.2402 H   0  0  0  0  0  0  0  0  0  0  0  0
    0.5607   -1.9820   -1.6373 H   0  0  0  0  0  0  0  0  0  0  0  0
    5.3204   -1.0100    1.7463 H   0  0  0  0  0  0  0  0  0  0  0  0
    4.1244    1.0458   -1.8592 H   0  0  0  0  0  0  0  0  0  0  0  0
    7.6673   -0.3733    1.3110 H   0  0  0  0  0  0  0  0  0  0  0  0
    6.4603    1.6768   -2.2671 H   0  0  0  0  0  0  0  0  0  0  0  0
    8.2430    0.9701   -0.6936 H   0  0  0  0  0  0  0  0  0  0  0  0
   -4.9177   -0.5752    1.9073 H   0  0  0  0  0  0  0  0  0  0  0  0
   -4.6420    1.6040   -1.7993 H   0  0  0  0  0  0  0  0  0  0  0  0
   -6.9266   -1.7439    1.0640 H   0  0  0  0  0  0  0  0  0  0  0  0
   -6.6516    0.4295   -2.6327 H   0  0  0  0  0  0  0  0  0  0  0  0
   -7.7973   -1.2450   -1.2049 H   0  0  0  0  0  0  0  0  0  0  0  0
  1 16  2  0  0  0  0
  2 17  2  0  0  0  0
  3  9  1  0  0  0  0
  3 11  1  0  0  0  0
  3 17  1  0  0  0  0
  4  6  1  0  0  0  0
  4 10  1  0  0  0  0
  4 40  1  0  0  0  0
  5 14  1  0  0  0  0
  5 16  1  0  0  0  0
  5 47  1  0  0  0  0
  6 12  1  0  0  0  0
  6 15  1  0  0  0  0
  6 29  1  0  0  0  0
  7  8  1  0  0  0  0
  7  9  1  0  0  0  0
  7 30  1  0  0  0  0
  7 31  1  0  0  0  0
  8 10  1  0  0  0  0
  8 32  1  0  0  0  0
  8 33  1  0  0  0  0
  9 34  1  0  0  0  0
  9 35  1  0  0  0  0
 10 36  1  0  0  0  0
 10 37  1  0  0  0  0
 11 13  1  0  0  0  0
 11 38  1  0  0  0  0
 11 39  1  0  0  0  0
 12 16  1  0  0  0  0
 12 41  1  0  0  0  0
 12 42  1  0  0  0  0
 13 14  1  0  0  0  0
 13 43  1  0  0  0  0
 13 44  1  0  0  0  0
 14 45  1  0  0  0  0
 14 46  1  0  0  0  0
 15 18  2  0  0  0  0
 15 19  1  0  0  0  0
 17 20  1  0  0  0  0
 18 21  1  0  0  0  0
 18 48  1  0  0  0  0
 19 22  2  0  0  0  0
 19 49  1  0  0  0  0
 20 24  2  0  0  0  0
 20 25  1  0  0  0  0
 21 23  2  0  0  0  0
 21 50  1  0  0  0  0
 22 23  1  0  0  0  0
 22 51  1  0  0  0  0
 23 52  1  0  0  0  0
 24 26  1  0  0  0  0
 24 53  1  0  0  0  0
 25 27  2  0  0  0  0
 25 54  1  0  0  0  0
 26 28  2  0  0  0  0
 26 55  1  0  0  0  0
 27 28  1  0  0  0  0
 27 56  1  0  0  0  0
 28 57  1  0  0  0  0
M  END
> <PUBCHEM_COMPOUND_CID>
442847

> <PUBCHEM_CONFORMER_RMSD>
0.8

> <PUBCHEM_CONFORMER_DIVERSEORDER>
1
8
18
45
53
26
22
20
49
51
32
25
30
55
39
42
58
54
10
21
46
14
57
28
61
41
37
24
4
36
33
56
63
47
6
40
43
35
50
16
12
59
13
23
11
38
17
62
19
29
27
48
52
31
60
5
15
7
34
3
9
44
2

> <PUBCHEM_MMFF94_PARTIAL_CHARGES>
37
1 -0.57
10 0.27
11 0.3
12 0.06
14 0.3
15 -0.14
16 0.57
17 0.54
18 -0.15
19 -0.15
2 -0.57
20 0.09
21 -0.15
22 -0.15
23 -0.15
24 -0.15
25 -0.15
26 -0.15
27 -0.15
28 -0.15
3 -0.66
4 -0.9
40 0.36
47 0.37
48 0.15
49 0.15
5 -0.73
50 0.15
51 0.15
52 0.15
53 0.15
54 0.15
55 0.15
56 0.15
57 0.15
6 0.41
9 0.3

> <PUBCHEM_EFFECTIVE_ROTOR_COUNT>
5.4

> <PUBCHEM_PHARMACOPHORE_FEATURES>
7
1 1 acceptor
1 2 acceptor
1 4 cation
1 4 donor
1 5 donor
6 15 18 19 21 22 23 rings
6 20 24 25 26 27 28 rings

> <PUBCHEM_HEAVY_ATOM_COUNT>
28

> <PUBCHEM_ATOM_DEF_STEREO_COUNT>
1

> <PUBCHEM_ATOM_UDEF_STEREO_COUNT>
0

> <PUBCHEM_BOND_DEF_STEREO_COUNT>
0

> <PUBCHEM_BOND_UDEF_STEREO_COUNT>
0

> <PUBCHEM_ISOTOPIC_ATOM_COUNT>
0

> <PUBCHEM_COMPONENT_COUNT>
1

> <PUBCHEM_CACTVS_TAUTO_COUNT>
2

> <PUBCHEM_CONFORMER_ID>
0006C1DF00000001

> <PUBCHEM_MMFF94_ENERGY>
64.5827

> <PUBCHEM_FEATURE_SELFOVERLAP>
35.52

> <PUBCHEM_SHAPE_FINGERPRINT>
1100329 8 18337390422835389560
11136131 41 18199194077862560754
11479125 193 16484424089845602092
11513181 2 17750789055230622639
11578080 2 13038031354518155726
11646440 116 18113329795600962216
11719270 70 18271813440763711946
12011746 2 18408322181253879852
12107698 1 15719391724394517864
12516196 113 17603303752278197104
12838862 33 18337972124690125040
13402501 40 18411419509598492130
13947920 75 17676214554243069279
14068700 675 18113057120923323713
14257110 125 18411697690773584974
14394314 77 18261668276712505249
14767858 380 18334583438527539943
14840074 17 18060128847987323316
14931854 50 18335417993169177572
15131766 46 16556480589251840668
15183329 4 18335137579054591916
17492 54 18412544322957769354
18608769 82 18339075974303727731
19319366 153 18130792269808271506
20028762 73 18040153998290482974
20721686 56 18339355374938003986
23559900 14 18190467060609203793
23569917 315 18410568522555678154
3178227 256 18340474591674598657
3383291 50 18260266313413456019
34797466 226 16443066071978418856
484989 97 18193277395624637727
53794403 172 18265333893886872424
5486654 2 18410287013513634412
550186 72 18337390551732900993
6138700 20 18410293622819209507

> <PUBCHEM_SHAPE_MULTIPOLES>
549.55
18.65
2.81
1.19
1.71
0.73
0.18
-1.8
3.97
0.06
-0.4
-0.38
-0.13
-0.78

> <PUBCHEM_SHAPE_SELFOVERLAP>
1143.725

> <PUBCHEM_SHAPE_VOLUME>
309

> <PUBCHEM_COORDINATE_TYPE>
2
5
10

$$$$

