5281304
  -OEChem-07051212562D

 75 79  0     1  0  0  0  0  0999 V2000
    7.3494    0.9405    0.0000 O   0  0  0  0  0  0  0  0  0  0  0  0
    7.9771   -1.9063    0.0000 O   0  0  0  0  0  0  0  0  0  0  0  0
    5.3307    1.6441    0.0000 O   0  0  0  0  0  0  0  0  0  0  0  0
    7.0628    2.6441    0.0000 O   0  0  0  0  0  0  0  0  0  0  0  0
    9.6906    0.1796    0.0000 O   0  0  0  0  0  0  0  0  0  0  0  0
    9.4288    2.0101    0.0000 O   0  0  0  0  0  0  0  0  0  0  0  0
    7.9288    2.8761    0.0000 O   0  0  0  0  0  0  0  0  0  0  0  0
    9.7386   -1.8589    0.0000 O   0  0  0  0  0  0  0  0  0  0  0  0
    2.5357   -1.9082    0.0000 O   0  0  0  0  0  0  0  0  0  0  0  0
    2.5519    0.1834    0.0000 O   0  0  0  0  0  0  0  0  0  0  0  0
   10.5974   -1.2961    0.0000 O   0  0  0  0  0  0  0  0  0  0  0  0
    7.0628   -0.3559    0.0000 C   0  0  2  0  0  0  0  0  0  0  0  0
    6.1968    0.1441    0.0000 C   0  0  1  0  0  0  0  0  0  0  0  0
    7.9288    0.1441    0.0000 C   0  0  2  0  0  0  0  0  0  0  0  0
    5.2868   -0.3628    0.0000 C   0  0  2  0  0  0  0  0  0  0  0  0
    7.9288    1.1441    0.0000 C   0  0  1  0  0  0  0  0  0  0  0  0
    7.0789   -1.3974    0.0000 C   0  0  1  0  0  0  0  0  0  0  0  0
    6.1968    1.1441    0.0000 C   0  0  2  0  0  0  0  0  0  0  0  0
    5.2787   -1.4044    0.0000 C   0  0  1  0  0  0  0  0  0  0  0  0
    6.9494    0.2477    0.0000 C   0  0  0  0  0  0  0  0  0  0  0  0
    7.0628    1.6441    0.0000 C   0  0  2  0  0  0  0  0  0  0  0  0
    6.1808   -1.9252    0.0000 C   0  0  0  0  0  0  0  0  0  0  0  0
    8.8386   -0.3439    0.0000 C   0  0  2  0  0  0  0  0  0  0  0  0
    4.3599    0.2013    0.0000 C   0  0  0  0  0  0  0  0  0  0  0  0
    4.9520    0.5795    0.0000 C   0  0  0  0  0  0  0  0  0  0  0  0
    4.3433   -1.9541    0.0000 C   0  0  0  0  0  0  0  0  0  0  0  0
    8.4288    2.0101    0.0000 C   0  0  0  0  0  0  0  0  0  0  0  0
    8.8629   -1.3760    0.0000 C   0  0  0  0  0  0  0  0  0  0  0  0
    3.4120   -0.3266    0.0000 C   0  0  0  0  0  0  0  0  0  0  0  0
    3.4037   -1.4116    0.0000 C   0  0  0  0  0  0  0  0  0  0  0  0
    4.3472   -2.9541    0.0000 C   0  0  0  0  0  0  0  0  0  0  0  0
   10.5700   -0.2965    0.0000 C   0  0  0  0  0  0  0  0  0  0  0  0
    9.9288    2.8761    0.0000 C   0  0  0  0  0  0  0  0  0  0  0  0
   11.4220    0.2271    0.0000 C   0  0  0  0  0  0  0  0  0  0  0  0
   12.3014   -0.2490    0.0000 C   0  0  0  0  0  0  0  0  0  0  0  0
   13.1534    0.2745    0.0000 C   0  0  0  0  0  0  0  0  0  0  0  0
   12.3288   -1.2486    0.0000 C   0  0  0  0  0  0  0  0  0  0  0  0
   14.0328   -0.2016    0.0000 C   0  0  0  0  0  0  0  0  0  0  0  0
   13.1260    1.2741    0.0000 C   0  0  0  0  0  0  0  0  0  0  0  0
    5.4606    0.5691    0.0000 H   0  0  0  0  0  0  0  0  0  0  0  0
    8.3538   -0.5920    0.0000 H   0  0  0  0  0  0  0  0  0  0  0  0
    7.0856   -2.2474    0.0000 H   0  0  0  0  0  0  0  0  0  0  0  0
    6.1968    1.7641    0.0000 H   0  0  0  0  0  0  0  0  0  0  0  0
    5.2820   -2.2544    0.0000 H   0  0  0  0  0  0  0  0  0  0  0  0
    6.5222    0.6971    0.0000 H   0  0  0  0  0  0  0  0  0  0  0  0
    6.3974   -0.0347    0.0000 H   0  0  0  0  0  0  0  0  0  0  0  0
    7.5997    1.9541    0.0000 H   0  0  0  0  0  0  0  0  0  0  0  0
    5.7835   -2.4012    0.0000 H   0  0  0  0  0  0  0  0  0  0  0  0
    6.5818   -2.3981    0.0000 H   0  0  0  0  0  0  0  0  0  0  0  0
    9.3833   -0.6402    0.0000 H   0  0  0  0  0  0  0  0  0  0  0  0
    4.7681    0.6680    0.0000 H   0  0  0  0  0  0  0  0  0  0  0  0
    3.9700    0.6834    0.0000 H   0  0  0  0  0  0  0  0  0  0  0  0
    5.5362    0.7871    0.0000 H   0  0  0  0  0  0  0  0  0  0  0  0
    4.7444    1.1638    0.0000 H   0  0  0  0  0  0  0  0  0  0  0  0
    4.3678    0.3720    0.0000 H   0  0  0  0  0  0  0  0  0  0  0  0
    5.3307    2.2641    0.0000 H   0  0  0  0  0  0  0  0  0  0  0  0
    6.5259    2.9541    0.0000 H   0  0  0  0  0  0  0  0  0  0  0  0
    3.7272   -2.9565    0.0000 H   0  0  0  0  0  0  0  0  0  0  0  0
    4.3496   -3.5741    0.0000 H   0  0  0  0  0  0  0  0  0  0  0  0
    4.9672   -2.9517    0.0000 H   0  0  0  0  0  0  0  0  0  0  0  0
    2.0000   -1.5962    0.0000 H   0  0  0  0  0  0  0  0  0  0  0  0
   10.4658    2.5661    0.0000 H   0  0  0  0  0  0  0  0  0  0  0  0
   10.2388    3.4131    0.0000 H   0  0  0  0  0  0  0  0  0  0  0  0
    9.3919    3.1861    0.0000 H   0  0  0  0  0  0  0  0  0  0  0  0
   11.4050    0.8468    0.0000 H   0  0  0  0  0  0  0  0  0  0  0  0
   12.6082    0.5697    0.0000 H   0  0  0  0  0  0  0  0  0  0  0  0
   11.7090   -1.2656    0.0000 H   0  0  0  0  0  0  0  0  0  0  0  0
   12.3458   -1.8684    0.0000 H   0  0  0  0  0  0  0  0  0  0  0  0
   12.9486   -1.2317    0.0000 H   0  0  0  0  0  0  0  0  0  0  0  0
   13.7376   -0.7468    0.0000 H   0  0  0  0  0  0  0  0  0  0  0  0
   14.5780   -0.4967    0.0000 H   0  0  0  0  0  0  0  0  0  0  0  0
   14.3280    0.3437    0.0000 H   0  0  0  0  0  0  0  0  0  0  0  0
   13.7458    1.2911    0.0000 H   0  0  0  0  0  0  0  0  0  0  0  0
   13.1090    1.8939    0.0000 H   0  0  0  0  0  0  0  0  0  0  0  0
   12.5062    1.2572    0.0000 H   0  0  0  0  0  0  0  0  0  0  0  0
  1 16  1  0  0  0  0
  1 20  1  0  0  0  0
  2 17  1  0  0  0  0
  2 28  1  0  0  0  0
 18  3  1  1  0  0  0
  3 56  1  0  0  0  0
 21  4  1  6  0  0  0
  4 57  1  0  0  0  0
 23  5  1  1  0  0  0
  5 32  1  0  0  0  0
  6 27  1  0  0  0  0
  6 33  1  0  0  0  0
  7 27  2  0  0  0  0
  8 28  2  0  0  0  0
  9 30  1  0  0  0  0
  9 61  1  0  0  0  0
 10 29  2  0  0  0  0
 11 32  2  0  0  0  0
 12 13  1  0  0  0  0
 12 14  1  0  0  0  0
 12 17  1  0  0  0  0
 12 20  1  1  0  0  0
 13 15  1  0  0  0  0
 13 18  1  0  0  0  0
 13 40  1  6  0  0  0
 14 16  1  0  0  0  0
 14 23  1  0  0  0  0
 14 41  1  1  0  0  0
 15 19  1  0  0  0  0
 15 24  1  0  0  0  0
 15 25  1  1  0  0  0
 16 21  1  0  0  0  0
 16 27  1  1  0  0  0
 17 22  1  0  0  0  0
 17 42  1  1  0  0  0
 18 21  1  0  0  0  0
 18 43  1  0  0  0  0
 19 22  1  0  0  0  0
 19 26  1  0  0  0  0
 19 44  1  6  0  0  0
 20 45  1  0  0  0  0
 20 46  1  0  0  0  0
 21 47  1  0  0  0  0
 22 48  1  0  0  0  0
 22 49  1  0  0  0  0
 23 28  1  0  0  0  0
 23 50  1  0  0  0  0
 24 29  1  0  0  0  0
 24 51  1  0  0  0  0
 24 52  1  0  0  0  0
 25 53  1  0  0  0  0
 25 54  1  0  0  0  0
 25 55  1  0  0  0  0
 26 30  2  0  0  0  0
 26 31  1  0  0  0  0
 29 30  1  0  0  0  0
 31 58  1  0  0  0  0
 31 59  1  0  0  0  0
 31 60  1  0  0  0  0
 32 34  1  0  0  0  0
 33 62  1  0  0  0  0
 33 63  1  0  0  0  0
 33 64  1  0  0  0  0
 34 35  2  0  0  0  0
 34 65  1  0  0  0  0
 35 36  1  0  0  0  0
 35 37  1  0  0  0  0
 36 38  1  0  0  0  0
 36 39  1  0  0  0  0
 36 66  1  0  0  0  0
 37 67  1  0  0  0  0
 37 68  1  0  0  0  0
 37 69  1  0  0  0  0
 38 70  1  0  0  0  0
 38 71  1  0  0  0  0
 38 72  1  0  0  0  0
 39 73  1  0  0  0  0
 39 74  1  0  0  0  0
 39 75  1  0  0  0  0
M  END
> <PUBCHEM_COMPOUND_CID>
5281304

> <PUBCHEM_COMPOUND_CANONICALIZED>
1

> <PUBCHEM_CACTVS_COMPLEXITY>
1200

> <PUBCHEM_CACTVS_HBOND_ACCEPTOR>
11

> <PUBCHEM_CACTVS_HBOND_DONOR>
3

> <PUBCHEM_CACTVS_ROTATABLE_BOND>
6

> <PUBCHEM_CACTVS_SUBSKEYS>
AAADcfB4PAAAAAAAAAAAAAAAAAAAASAAAAA0YIEABIAAAEjQAAAAGgAACAAAD1SggAICCAAABgCIAqDSCAIAAAAgIAAACAFAAEgBFBYAIQQCUAAFoAALIQPK7vzPgAAAAAAAAADAAAYQADCAAAAAAAAAAA==

> <PUBCHEM_IUPAC_INCHI>
InChI=1S/C28H36O11/c1-11(2)12(3)7-17(30)39-20-22-27-10-37-28(22,25(35)36-6)23(33)19(32)21(27)26(5)9-15(29)18(31)13(4)14(26)8-16(27)38-24(20)34/h7,11,14,16,19-23,31-33H,8-10H2,1-6H3/b12-7+/t14-,16+,19+,20+,21+,22+,23-,26-,27+,28-/m0/s1

> <PUBCHEM_IUPAC_INCHIKEY>
IRQXZTBHNKVIRL-GOTQHHPNSA-N

> <PUBCHEM_XLOGP3>
1.7

> <PUBCHEM_EXACT_MASS>
548.225762

> <PUBCHEM_MOLECULAR_FORMULA>
C28H36O11

> <PUBCHEM_MOLECULAR_WEIGHT>
548.57884

> <PUBCHEM_OPENEYE_CAN_SMILES>
CC1=C(C(=O)CC2(C1CC3C45C2C(C(C(C4C(C(=O)O3)OC(=O)C=C(C)C(C)C)(OC5)C(=O)OC)O)O)C)O

> <PUBCHEM_OPENEYE_ISO_SMILES>
CC1=C(C(=O)C[C@]2([C@H]1C[C@@H]3[C@]45[C@@H]2[C@H]([C@@H]([C@]([C@@H]4[C@H](C(=O)O3)OC(=O)/C=C(\C)/C(C)C)(OC5)C(=O)OC)O)O)C)O

> <PUBCHEM_CACTVS_TPSA>
166

> <PUBCHEM_MONOISOTOPIC_WEIGHT>
548.225762

> <PUBCHEM_TOTAL_CHARGE>
0

> <PUBCHEM_HEAVY_ATOM_COUNT>
39

> <PUBCHEM_ATOM_DEF_STEREO_COUNT>
10

> <PUBCHEM_ATOM_UDEF_STEREO_COUNT>
0

> <PUBCHEM_BOND_DEF_STEREO_COUNT>
1

> <PUBCHEM_BOND_UDEF_STEREO_COUNT>
0

> <PUBCHEM_ISOTOPIC_ATOM_COUNT>
0

> <PUBCHEM_COMPONENT_COUNT>
1

> <PUBCHEM_CACTVS_TAUTO_COUNT>
34

> <PUBCHEM_COORDINATE_TYPE>
1
5
255

> <PUBCHEM_BONDANNOTATIONS>
12  20  5
13  40  6
14  41  5
15  25  5
16  27  5
17  42  5
19  44  6
18  3  5
21  4  6
23  5  5

$$$$

