24883459
  -OEChem-07051213133D

 28 28  0     1  0  0  0  0  0999 V2000
   -1.8427    0.8398   -1.3673 O   0  0  0  0  0  0  0  0  0  0  0  0
   -1.8026   -2.0309    0.1042 O   0  0  0  0  0  0  0  0  0  0  0  0
    1.1045   -0.0789    0.4514 C   0  0  1  0  0  0  0  0  0  0  0  0
   -1.8134    0.3882   -0.0175 C   0  0  2  0  0  0  0  0  0  0  0  0
    0.5139    1.3359    0.4087 C   0  0  0  0  0  0  0  0  0  0  0  0
   -0.9566    1.3297    0.8374 C   0  0  0  0  0  0  0  0  0  0  0  0
    0.3052   -1.0359   -0.4342 C   0  0  0  0  0  0  0  0  0  0  0  0
   -1.1660   -0.9923   -0.0712 C   0  0  0  0  0  0  0  0  0  0  0  0
    2.5461   -0.0576    0.0473 C   0  0  0  0  0  0  0  0  0  0  0  0
   -3.2461    0.3268    0.5045 C   0  0  0  0  0  0  0  0  0  0  0  0
    2.8348    0.4111   -1.3479 C   0  0  0  0  0  0  0  0  0  0  0  0
    3.5229   -0.4359    0.8847 C   0  0  0  0  0  0  0  0  0  0  0  0
    1.0169   -0.4360    1.4879 H   0  0  0  0  0  0  0  0  0  0  0  0
    0.5739    1.7689   -0.5964 H   0  0  0  0  0  0  0  0  0  0  0  0
    1.0768    2.0015    1.0752 H   0  0  0  0  0  0  0  0  0  0  0  0
   -1.0153    1.0345    1.8930 H   0  0  0  0  0  0  0  0  0  0  0  0
   -1.3386    2.3556    0.7642 H   0  0  0  0  0  0  0  0  0  0  0  0
    0.6664   -2.0634   -0.3068 H   0  0  0  0  0  0  0  0  0  0  0  0
    0.3702   -0.7904   -1.4992 H   0  0  0  0  0  0  0  0  0  0  0  0
   -3.7053    1.3217    0.5033 H   0  0  0  0  0  0  0  0  0  0  0  0
   -3.2883   -0.0756    1.5220 H   0  0  0  0  0  0  0  0  0  0  0  0
   -3.8713   -0.3046   -0.1376 H   0  0  0  0  0  0  0  0  0  0  0  0
   -2.1538    1.7612   -1.3685 H   0  0  0  0  0  0  0  0  0  0  0  0
    2.3691   -0.2316   -2.0995 H   0  0  0  0  0  0  0  0  0  0  0  0
    2.5095    1.4422   -1.5080 H   0  0  0  0  0  0  0  0  0  0  0  0
    3.9118    0.3936   -1.5540 H   0  0  0  0  0  0  0  0  0  0  0  0
    4.5647   -0.4169    0.5824 H   0  0  0  0  0  0  0  0  0  0  0  0
    3.3054   -0.7737    1.8924 H   0  0  0  0  0  0  0  0  0  0  0  0
  1  4  1  0  0  0  0
  1 23  1  0  0  0  0
  2  8  2  0  0  0  0
  3  5  1  0  0  0  0
  3  7  1  0  0  0  0
  3  9  1  0  0  0  0
  3 13  1  0  0  0  0
  4  6  1  0  0  0  0
  4  8  1  0  0  0  0
  4 10  1  0  0  0  0
  5  6  1  0  0  0  0
  5 14  1  0  0  0  0
  5 15  1  0  0  0  0
  6 16  1  0  0  0  0
  6 17  1  0  0  0  0
  7  8  1  0  0  0  0
  7 18  1  0  0  0  0
  7 19  1  0  0  0  0
  9 11  1  0  0  0  0
  9 12  2  0  0  0  0
 10 20  1  0  0  0  0
 10 21  1  0  0  0  0
 10 22  1  0  0  0  0
 11 24  1  0  0  0  0
 11 25  1  0  0  0  0
 11 26  1  0  0  0  0
 12 27  1  0  0  0  0
 12 28  1  0  0  0  0
M  END
> <PUBCHEM_COMPOUND_CID>
24883459

> <PUBCHEM_CONFORMER_RMSD>
0.6

> <PUBCHEM_CONFORMER_DIVERSEORDER>
1
5
7
3
4
2
6

> <PUBCHEM_MMFF94_PARTIAL_CHARGES>
12
1 -0.68
11 0.14
12 -0.3
2 -0.57
23 0.4
27 0.15
28 0.15
3 0.14
4 0.34
7 0.06
8 0.45
9 -0.28

> <PUBCHEM_EFFECTIVE_ROTOR_COUNT>
2

> <PUBCHEM_PHARMACOPHORE_FEATURES>
4
1 1 acceptor
1 1 donor
1 2 acceptor
6 3 4 5 6 7 8 rings

> <PUBCHEM_HEAVY_ATOM_COUNT>
12

> <PUBCHEM_ATOM_DEF_STEREO_COUNT>
2

> <PUBCHEM_ATOM_UDEF_STEREO_COUNT>
0

> <PUBCHEM_BOND_DEF_STEREO_COUNT>
0

> <PUBCHEM_BOND_UDEF_STEREO_COUNT>
0

> <PUBCHEM_ISOTOPIC_ATOM_COUNT>
0

> <PUBCHEM_COMPONENT_COUNT>
1

> <PUBCHEM_CACTVS_TAUTO_COUNT>
2

> <PUBCHEM_CONFORMER_ID>
017BB10300000001

> <PUBCHEM_MMFF94_ENERGY>
22.6306

> <PUBCHEM_FEATURE_SELFOVERLAP>
20.297

> <PUBCHEM_SHAPE_FINGERPRINT>
10353120 184 18187075182842499905
12423570 1 5439579667088043199
12716758 59 18261668281043563562
12932764 1 18060418002149008028
13024252 1 15339116862016026225
15310529 11 17346596382757287704
15775835 57 18059845139353117068
16945 1 18335417988853058945
17846911 113 18187652439389714457
20201158 50 18113621191941602502
20279233 1 17312820476948429974
20645464 45 17676493838933982658
20645476 183 18129930209446581142
20653085 51 17346316063285087420
20711983 138 17604694664483058510
20715346 28 17313378977152293118
21501502 16 18192713341225707281
22802520 49 17605253250860522638
23235685 24 18261113010407167673
23402539 116 18042421251264545533
23552423 10 18054225432054181620
23559900 14 18260550039933691914
2748010 2 18117003169486532489
3248919 1 18040716965692674764
369184 2 16774074076825336832
5084963 1 18131917056906393352
528886 8 18187083970413893187
81228 2 17677319658103205928

> <PUBCHEM_SHAPE_MULTIPOLES>
235.22
4.91
1.45
1.07
1.81
0.3
0.29
0.06
-0.26
-0.71
-0.14
0.4
-0.17
-0.12

> <PUBCHEM_SHAPE_SELFOVERLAP>
471.825

> <PUBCHEM_SHAPE_VOLUME>
139

> <PUBCHEM_COORDINATE_TYPE>
2
5
10

$$$$

