24121
  -OEChem-07051213133D

 32 35  0     0  0  0  0  0  0999 V2000
    1.5893    3.5166    0.0005 O   0  5  0  0  0  0  0  0  0  0  0  0
    3.4801    2.4014    0.0005 O   0  0  0  0  0  0  0  0  0  0  0  0
    2.2299    2.4423    0.0002 N   0  3  0  0  0  0  0  0  0  0  0  0
   -0.7231    0.1737    0.0001 C   0  0  0  0  0  0  0  0  0  0  0  0
   -0.0879   -1.1026    0.0001 C   0  0  0  0  0  0  0  0  0  0  0  0
    1.3533   -1.2085   -0.0001 C   0  0  0  0  0  0  0  0  0  0  0  0
   -2.1643    0.2795   -0.0001 C   0  0  0  0  0  0  0  0  0  0  0  0
    2.1340   -0.0281   -0.0004 C   0  0  0  0  0  0  0  0  0  0  0  0
   -2.9452   -0.9009    0.0002 C   0  0  0  0  0  0  0  0  0  0  0  0
    0.1145    1.3074    0.0000 C   0  0  0  0  0  0  0  0  0  0  0  0
    1.5044    1.2122   -0.0001 C   0  0  0  0  0  0  0  0  0  0  0  0
   -0.9256   -2.2365    0.0002 C   0  0  0  0  0  0  0  0  0  0  0  0
   -2.3156   -2.1412    0.0003 C   0  0  0  0  0  0  0  0  0  0  0  0
    2.0721   -2.4333    0.0002 C   0  0  0  0  0  0  0  0  0  0  0  0
   -2.8830    1.5045   -0.0004 C   0  0  0  0  0  0  0  0  0  0  0  0
    3.5389   -0.0882   -0.0006 C   0  0  0  0  0  0  0  0  0  0  0  0
   -4.3500   -0.8407    0.0002 C   0  0  0  0  0  0  0  0  0  0  0  0
    3.4695   -2.4836    0.0001 C   0  0  0  0  0  0  0  0  0  0  0  0
    4.2038   -1.3093   -0.0005 C   0  0  0  0  0  0  0  0  0  0  0  0
   -4.2804    1.5548   -0.0005 C   0  0  0  0  0  0  0  0  0  0  0  0
   -5.0148    0.3804   -0.0001 C   0  0  0  0  0  0  0  0  0  0  0  0
   -0.3473    2.2904    0.0001 H   0  0  0  0  0  0  0  0  0  0  0  0
   -0.5161   -3.2433    0.0002 H   0  0  0  0  0  0  0  0  0  0  0  0
   -2.8970   -3.0615    0.0004 H   0  0  0  0  0  0  0  0  0  0  0  0
    1.5556   -3.3895    0.0006 H   0  0  0  0  0  0  0  0  0  0  0  0
   -2.3711    2.4629   -0.0007 H   0  0  0  0  0  0  0  0  0  0  0  0
    4.2838    0.6848   -0.0016 H   0  0  0  0  0  0  0  0  0  0  0  0
   -4.9429   -1.7537    0.0004 H   0  0  0  0  0  0  0  0  0  0  0  0
    3.9767   -3.4439    0.0002 H   0  0  0  0  0  0  0  0  0  0  0  0
    5.2893   -1.3473   -0.0008 H   0  0  0  0  0  0  0  0  0  0  0  0
   -4.7879    2.5151   -0.0008 H   0  0  0  0  0  0  0  0  0  0  0  0
   -6.0999    0.4122   -0.0002 H   0  0  0  0  0  0  0  0  0  0  0  0
  1  3  1  0  0  0  0
  2  3  2  0  0  0  0
  3 11  1  0  0  0  0
  4  5  2  0  0  0  0
  4  7  1  0  0  0  0
  4 10  1  0  0  0  0
  5  6  1  0  0  0  0
  5 12  1  0  0  0  0
  6  8  1  0  0  0  0
  6 14  2  0  0  0  0
  7  9  1  0  0  0  0
  7 15  2  0  0  0  0
  8 11  1  0  0  0  0
  8 16  2  0  0  0  0
  9 13  1  0  0  0  0
  9 17  2  0  0  0  0
 10 11  2  0  0  0  0
 10 22  1  0  0  0  0
 12 13  2  0  0  0  0
 12 23  1  0  0  0  0
 13 24  1  0  0  0  0
 14 18  1  0  0  0  0
 14 25  1  0  0  0  0
 15 20  1  0  0  0  0
 15 26  1  0  0  0  0
 16 19  1  0  0  0  0
 16 27  1  0  0  0  0
 17 21  1  0  0  0  0
 17 28  1  0  0  0  0
 18 19  2  0  0  0  0
 18 29  1  0  0  0  0
 19 30  1  0  0  0  0
 20 21  2  0  0  0  0
 20 31  1  0  0  0  0
 21 32  1  0  0  0  0
M  CHG  2   1  -1   3   1
M  END
> <PUBCHEM_COMPOUND_CID>
24121

> <PUBCHEM_CONFORMER_RMSD>
0.6

> <PUBCHEM_CONFORMER_DIVERSEORDER>
1

> <PUBCHEM_MMFF94_PARTIAL_CHARGES>
26
1 -0.52
10 -0.15
11 0.13
12 -0.15
13 -0.15
14 -0.15
15 -0.15
16 -0.15
17 -0.15
18 -0.15
19 -0.15
2 -0.52
20 -0.15
21 -0.15
22 0.15
23 0.15
24 0.15
25 0.15
26 0.15
27 0.15
28 0.15
29 0.15
3 0.91
30 0.15
31 0.15
32 0.15

> <PUBCHEM_EFFECTIVE_ROTOR_COUNT>
1

> <PUBCHEM_PHARMACOPHORE_FEATURES>
7
1 1 acceptor
1 1 anion
1 2 acceptor
6 4 5 6 8 10 11 rings
6 4 5 7 9 12 13 rings
6 6 8 14 16 18 19 rings
6 7 9 15 17 20 21 rings

> <PUBCHEM_HEAVY_ATOM_COUNT>
21

> <PUBCHEM_ATOM_DEF_STEREO_COUNT>
0

> <PUBCHEM_ATOM_UDEF_STEREO_COUNT>
0

> <PUBCHEM_BOND_DEF_STEREO_COUNT>
0

> <PUBCHEM_BOND_UDEF_STEREO_COUNT>
0

> <PUBCHEM_ISOTOPIC_ATOM_COUNT>
0

> <PUBCHEM_COMPONENT_COUNT>
1

> <PUBCHEM_CACTVS_TAUTO_COUNT>
1

> <PUBCHEM_CONFORMER_ID>
00005E3900000001

> <PUBCHEM_MMFF94_ENERGY>
99.6706

> <PUBCHEM_FEATURE_SELFOVERLAP>
35.672

> <PUBCHEM_SHAPE_FINGERPRINT>
10411042 1 18050286169903309926
10608611 8 18411983520698972909
10616163 171 18194118508432935831
10967382 1 18410856581183223812
1100329 8 18411419535389817466
11471102 20 18410858780211942614
11578080 2 17096946658871175307
11680986 33 18342168917444266667
116883 192 17974845374496963398
12173636 292 17546166303179638564
12403259 226 18342180011550611549
12403259 415 18131355241494498445
12403260 363 18335989748417296607
12553582 1 18267314303438550094
13140716 1 18339649936494734714
138480 1 18410574028602407424
14178342 30 18048334249058467794
14223421 5 18268707204086896771
14790565 3 17761201516166528192
14866123 147 16966885823300021546
15042514 8 17547295961694580874
15099037 51 18339080501067064055
15196674 1 18410856547287767555
15442244 35 18409729598891855665
15475509 35 16988847202401969379
15475509 8 17608904793137028268
15536298 74 18407760322016351746
1601671 61 18337670918628277862
16087824 20 17978789343996632941
16945 1 18410855417257902438
17349148 13 17967534618419808727
17492 89 18338517435123885911
17804303 29 18340763831830958231
19591789 44 18051131689754125127
200 152 18040442122398741743
20645477 70 18411704266130904471
21033648 29 17417541293241332173
21267235 1 18337945787634505583
21478907 32 17762337320389053834
21501502 16 18337112254804382583
21859007 373 17701004238167039789
221490 88 18341043043196561987
23227448 37 18336549322194464999
2334 1 18122343480504135400
23366157 5 18131071489783907998
23402539 116 18189627213744632143
23558518 356 17985546658744695915
23559900 14 18335425659928283392
238 59 17623331477074293517
2748010 2 18124309403026226278
3004659 81 18057597858410075150
335352 9 18338516455543411775
345986 75 17198567088401615514
34934 24 18410580617140625594
350125 39 18411414055739430801
4214541 1 18410855503610708135
474 4 18271247092931821024
5104073 3 18411697673704090163
543358 83 18410006658932310330
5939293 188 18410015455199542246
6443956 14 18339921614666964716
7364860 26 18409448051291039040
7832392 63 18409171012831260158
84936 182 18044095657313719944
9709674 26 18339640049406698667
9981440 41 17835245536778430432

> <PUBCHEM_SHAPE_MULTIPOLES>
415.45
8.55
3.21
0.6
4.37
1.44
0
-0.31
0
-2.33
0
0.03
-0.04
0

> <PUBCHEM_SHAPE_SELFOVERLAP>
953.838

> <PUBCHEM_SHAPE_VOLUME>
215

> <PUBCHEM_COORDINATE_TYPE>
2
5
10

$$$$

