21723007
  -OEChem-07051213092D

 57 61  0     1  0  0  0  0  0999 V2000
    6.8793   -1.0660    0.0000 O   0  0  0  0  0  0  0  0  0  0  0  0
    6.8716    0.9340    0.0000 O   0  0  0  0  0  0  0  0  0  0  0  0
   11.2755   -0.5765    0.0000 O   0  0  0  0  0  0  0  0  0  0  0  0
    9.5435   -2.5765    0.0000 O   0  0  0  0  0  0  0  0  0  0  0  0
    5.1511   -2.0726    0.0000 O   0  0  0  0  0  0  0  0  0  0  0  0
   11.2755   -3.5765    0.0000 O   0  0  0  0  0  0  0  0  0  0  0  0
   13.0239   -3.6111    0.0000 O   0  0  0  0  0  0  0  0  0  0  0  0
    4.2639    3.4240    0.0000 O   0  0  0  0  0  0  0  0  0  0  0  0
   14.8057   -0.5524    0.0000 O   0  0  0  0  0  0  0  0  0  0  0  0
    2.5357    2.4173    0.0000 O   0  0  0  0  0  0  0  0  0  0  0  0
    6.0075    0.4307    0.0000 C   0  0  3  0  0  0  0  0  0  0  0  0
    6.0114   -0.5693    0.0000 C   0  0  3  0  0  0  0  0  0  0  0  0
   10.4095   -1.0765    0.0000 C   0  0  2  0  0  0  0  0  0  0  0  0
    9.5435   -0.5765    0.0000 C   0  0  0  0  0  0  0  0  0  0  0  0
   10.4095   -2.0765    0.0000 C   0  0  2  0  0  0  0  0  0  0  0  0
    7.7434   -0.5626    0.0000 C   0  0  0  0  0  0  0  0  0  0  0  0
    7.7396    0.4373    0.0000 C   0  0  0  0  0  0  0  0  0  0  0  0
    8.6394   -1.0939    0.0000 C   0  0  0  0  0  0  0  0  0  0  0  0
    5.1396    0.9273    0.0000 C   0  0  0  0  0  0  0  0  0  0  0  0
    5.1473   -1.0727    0.0000 C   0  0  0  0  0  0  0  0  0  0  0  0
    9.5395    0.4651    0.0000 C   0  0  0  0  0  0  0  0  0  0  0  0
   11.2755   -2.5765    0.0000 C   0  0  0  0  0  0  0  0  0  0  0  0
    8.6314    0.9754    0.0000 C   0  0  0  0  0  0  0  0  0  0  0  0
   12.1416   -2.0765    0.0000 C   0  0  0  0  0  0  0  0  0  0  0  0
   12.1416   -1.0765    0.0000 C   0  0  0  0  0  0  0  0  0  0  0  0
    5.1357    1.9273    0.0000 C   0  0  0  0  0  0  0  0  0  0  0  0
    4.2755    0.4240    0.0000 C   0  0  0  0  0  0  0  0  0  0  0  0
   13.0355   -2.6112    0.0000 C   0  0  0  0  0  0  0  0  0  0  0  0
   13.0355   -0.5419    0.0000 C   0  0  0  0  0  0  0  0  0  0  0  0
    4.2678    2.4240    0.0000 C   0  0  0  0  0  0  0  0  0  0  0  0
    3.4075    0.9207    0.0000 C   0  0  0  0  0  0  0  0  0  0  0  0
   13.9416   -1.0557    0.0000 C   0  0  0  0  0  0  0  0  0  0  0  0
   13.9416   -2.0973    0.0000 C   0  0  0  0  0  0  0  0  0  0  0  0
    3.4037    1.9206    0.0000 C   0  0  0  0  0  0  0  0  0  0  0  0
    5.1280    3.9273    0.0000 C   0  0  0  0  0  0  0  0  0  0  0  0
    5.4718    0.1186    0.0000 H   0  0  0  0  0  0  0  0  0  0  0  0
    6.0138   -1.1893    0.0000 H   0  0  0  0  0  0  0  0  0  0  0  0
   10.4095   -0.4565    0.0000 H   0  0  0  0  0  0  0  0  0  0  0  0
   10.4095   -2.6965    0.0000 H   0  0  0  0  0  0  0  0  0  0  0  0
    8.6346   -1.7138    0.0000 H   0  0  0  0  0  0  0  0  0  0  0  0
    4.9330   -0.4909    0.0000 H   0  0  0  0  0  0  0  0  0  0  0  0
    4.5371   -1.1827    0.0000 H   0  0  0  0  0  0  0  0  0  0  0  0
   10.0740    0.7792    0.0000 H   0  0  0  0  0  0  0  0  0  0  0  0
    8.6219    1.5954    0.0000 H   0  0  0  0  0  0  0  0  0  0  0  0
    5.6715    2.2394    0.0000 H   0  0  0  0  0  0  0  0  0  0  0  0
    4.2779   -0.1960    0.0000 H   0  0  0  0  0  0  0  0  0  0  0  0
   13.0283    0.0781    0.0000 H   0  0  0  0  0  0  0  0  0  0  0  0
    9.5435   -3.1965    0.0000 H   0  0  0  0  0  0  0  0  0  0  0  0
    2.8718    0.6086    0.0000 H   0  0  0  0  0  0  0  0  0  0  0  0
   14.4773   -2.4094    0.0000 H   0  0  0  0  0  0  0  0  0  0  0  0
    4.6154   -2.3847    0.0000 H   0  0  0  0  0  0  0  0  0  0  0  0
   13.5573   -3.9273    0.0000 H   0  0  0  0  0  0  0  0  0  0  0  0
   15.3438   -0.8603    0.0000 H   0  0  0  0  0  0  0  0  0  0  0  0
    2.0000    2.1052    0.0000 H   0  0  0  0  0  0  0  0  0  0  0  0
    5.4401    3.3916    0.0000 H   0  0  0  0  0  0  0  0  0  0  0  0
    5.6638    4.2394    0.0000 H   0  0  0  0  0  0  0  0  0  0  0  0
    4.8159    4.4630    0.0000 H   0  0  0  0  0  0  0  0  0  0  0  0
  1 12  1  0  0  0  0
  1 16  1  0  0  0  0
  2 11  1  0  0  0  0
  2 17  1  0  0  0  0
  3 13  1  0  0  0  0
  3 25  1  0  0  0  0
 15  4  1  6  0  0  0
  4 48  1  0  0  0  0
  5 20  1  0  0  0  0
  5 51  1  0  0  0  0
  6 22  2  0  0  0  0
  7 28  1  0  0  0  0
  7 52  1  0  0  0  0
  8 30  1  0  0  0  0
  8 35  1  0  0  0  0
  9 32  1  0  0  0  0
  9 53  1  0  0  0  0
 10 34  1  0  0  0  0
 10 54  1  0  0  0  0
 11 12  1  0  0  0  0
 11 19  1  0  0  0  0
 11 36  1  0  0  0  0
 12 20  1  0  0  0  0
 12 37  1  0  0  0  0
 13 14  1  1  0  0  0
 13 15  1  0  0  0  0
 13 38  1  0  0  0  0
 14 18  2  0  0  0  0
 14 21  1  0  0  0  0
 15 22  1  0  0  0  0
 15 39  1  0  0  0  0
 16 17  2  0  0  0  0
 16 18  1  0  0  0  0
 17 23  1  0  0  0  0
 18 40  1  0  0  0  0
 19 26  2  0  0  0  0
 19 27  1  0  0  0  0
 20 41  1  0  0  0  0
 20 42  1  0  0  0  0
 21 23  2  0  0  0  0
 21 43  1  0  0  0  0
 22 24  1  0  0  0  0
 23 44  1  0  0  0  0
 24 25  1  0  0  0  0
 24 28  2  0  0  0  0
 25 29  2  0  0  0  0
 26 30  1  0  0  0  0
 26 45  1  0  0  0  0
 27 31  2  0  0  0  0
 27 46  1  0  0  0  0
 28 33  1  0  0  0  0
 29 32  1  0  0  0  0
 29 47  1  0  0  0  0
 30 34  2  0  0  0  0
 31 34  1  0  0  0  0
 31 49  1  0  0  0  0
 32 33  2  0  0  0  0
 33 50  1  0  0  0  0
 35 55  1  0  0  0  0
 35 56  1  0  0  0  0
 35 57  1  0  0  0  0
M  END
> <PUBCHEM_COMPOUND_CID>
21723007

> <PUBCHEM_COMPOUND_CANONICALIZED>
1

> <PUBCHEM_CACTVS_COMPLEXITY>
750

> <PUBCHEM_CACTVS_HBOND_ACCEPTOR>
10

> <PUBCHEM_CACTVS_HBOND_DONOR>
5

> <PUBCHEM_CACTVS_ROTATABLE_BOND>
4

> <PUBCHEM_CACTVS_SUBSKEYS>
AAADceB4PAAAAAAAAAAAAAAAAAAAAAAAAAA0aMECAAAAAACRUAAAGgAACAAADBSgmAIyBoAABgCIAqBSAAICCAAkIAAIiAFGiMgNNzaGNRqCeWOl4BULuQfI7PzOIAABCAAIQABAAAIQABCAAAAAAAAAAA==

> <PUBCHEM_IUPAC_OPENEYE_NAME>
(2R,3R)-3,5,7-trihydroxy-2-[2-(4-hydroxy-3-methoxy-phenyl)-3-(hydroxymethyl)-2,3-dihydro-1,4-benzodioxin-6-yl]chroman-4-one

> <PUBCHEM_IUPAC_CAS_NAME>
(2R,3R)-3,5,7-trihydroxy-2-[2-(4-hydroxy-3-methoxyphenyl)-3-(hydroxymethyl)-2,3-dihydro-1,4-benzodioxin-6-yl]-3,4-dihydro-2H-1-benzopyran-4-one

> <PUBCHEM_IUPAC_NAME>
(2R,3R)-3,5,7-trihydroxy-2-[2-(4-hydroxy-3-methoxyphenyl)-3-(hydroxymethyl)-2,3-dihydro-1,4-benzodioxin-6-yl]-2,3-dihydrochromen-4-one

> <PUBCHEM_IUPAC_SYSTEMATIC_NAME>
(2R,3R)-2-[3-(hydroxymethyl)-2-(3-methoxy-4-oxidanyl-phenyl)-2,3-dihydro-1,4-benzodioxin-6-yl]-3,5,7-tris(oxidanyl)-2,3-dihydrochromen-4-one

> <PUBCHEM_IUPAC_TRADITIONAL_NAME>
(2R,3R)-3,5,7-trihydroxy-2-[2-(4-hydroxy-3-methoxy-phenyl)-3-methylol-2,3-dihydro-1,4-benzodioxin-6-yl]chroman-4-one

> <PUBCHEM_IUPAC_INCHI>
InChI=1S/C25H22O10/c1-32-17-6-11(2-4-14(17)28)24-20(10-26)33-18-7-12(3-5-16(18)34-24)25-23(31)22(30)21-15(29)8-13(27)9-19(21)35-25/h2-9,20,23-29,31H,10H2,1H3/t20?,23-,24?,25+/m0/s1

> <PUBCHEM_IUPAC_INCHIKEY>
FDQAOULAVFHKBX-DBMPWETRSA-N

> <PUBCHEM_XLOGP3_AA>
2.4

> <PUBCHEM_EXACT_MASS>
482.121297

> <PUBCHEM_MOLECULAR_FORMULA>
C25H22O10

> <PUBCHEM_MOLECULAR_WEIGHT>
482.43618

> <PUBCHEM_OPENEYE_CAN_SMILES>
COC1=C(C=CC(=C1)C2C(OC3=C(O2)C=CC(=C3)C4C(C(=O)C5=C(C=C(C=C5O4)O)O)O)CO)O

> <PUBCHEM_OPENEYE_ISO_SMILES>
COC1=C(C=CC(=C1)C2C(OC3=C(O2)C=CC(=C3)[C@@H]4[C@H](C(=O)C5=C(C=C(C=C5O4)O)O)O)CO)O

> <PUBCHEM_CACTVS_TPSA>
155

> <PUBCHEM_MONOISOTOPIC_WEIGHT>
482.121297

> <PUBCHEM_TOTAL_CHARGE>
0

> <PUBCHEM_HEAVY_ATOM_COUNT>
35

> <PUBCHEM_ATOM_DEF_STEREO_COUNT>
2

> <PUBCHEM_ATOM_UDEF_STEREO_COUNT>
2

> <PUBCHEM_BOND_DEF_STEREO_COUNT>
0

> <PUBCHEM_BOND_UDEF_STEREO_COUNT>
0

> <PUBCHEM_ISOTOPIC_ATOM_COUNT>
0

> <PUBCHEM_COMPONENT_COUNT>
1

> <PUBCHEM_CACTVS_TAUTO_COUNT>
117

> <PUBCHEM_COORDINATE_TYPE>
1
5
255

> <PUBCHEM_BONDANNOTATIONS>
11  19  3
12  20  3
13  14  5
14  18  8
14  21  8
16  17  8
16  18  8
17  23  8
19  26  8
19  27  8
21  23  8
24  25  8
24  28  8
25  29  8
26  30  8
27  31  8
28  33  8
29  32  8
30  34  8
31  34  8
32  33  8
15  4  6

$$$$

