6918047
  -OEChem-07051213032D

 81 80  0     1  0  0  0  0  0999 V2000
   12.2711    1.3100    0.0000 Cl  0  0  0  0  0  0  0  0  0  0  0  0
   16.6012   10.8100    0.0000 F   0  0  0  0  0  0  0  0  0  0  0  0
   13.1371    5.8100    0.0000 O   0  0  0  0  0  0  0  0  0  0  0  0
    9.6730    4.8100    0.0000 O   0  0  0  0  0  0  0  0  0  0  0  0
    8.8070    3.3100    0.0000 O   0  0  0  0  0  0  0  0  0  0  0  0
    2.7690    7.2145    0.0000 O   0  0  0  0  0  0  0  0  0  0  0  0
    4.0010    8.0805    0.0000 O   0  0  0  0  0  0  0  0  0  0  0  0
    3.1350    9.5805    0.0000 O   0  0  0  0  0  0  0  0  0  0  0  0
    0.5369    6.0805    0.0000 O   0  0  0  0  0  0  0  0  0  0  0  0
    0.2690    9.8126    0.0000 O   0  0  0  0  0  0  0  0  0  0  0  0
    2.2690    6.0805    0.0000 O   0  0  0  0  0  0  0  0  0  0  0  0
    0.2690    8.0805    0.0000 O   0  0  0  0  0  0  0  0  0  0  0  0
   11.5696   13.4300    0.0000 O   0  0  0  0  0  0  0  0  0  0  0  0
   11.5696   15.9300    0.0000 O   0  0  0  0  0  0  0  0  0  0  0  0
   13.1371    7.8100    0.0000 N   0  0  3  0  0  0  0  0  0  0  0  0
   11.4050    4.8100    0.0000 N   0  0  0  0  0  0  0  0  0  0  0  0
   10.5390    0.3100    0.0000 N   0  0  0  0  0  0  0  0  0  0  0  0
   12.2711    6.3100    0.0000 C   0  0  3  0  0  0  0  0  0  0  0  0
   12.2711    7.3100    0.0000 C   0  0  0  0  0  0  0  0  0  0  0  0
   14.0031    7.3100    0.0000 C   0  0  0  0  0  0  0  0  0  0  0  0
   14.0031    6.3100    0.0000 C   0  0  0  0  0  0  0  0  0  0  0  0
   11.4050    5.8100    0.0000 C   0  0  0  0  0  0  0  0  0  0  0  0
   13.1371    8.8100    0.0000 C   0  0  0  0  0  0  0  0  0  0  0  0
   14.0031    9.3100    0.0000 C   0  0  0  0  0  0  0  0  0  0  0  0
   14.8691    8.8100    0.0000 C   0  0  0  0  0  0  0  0  0  0  0  0
   14.0031   10.3100    0.0000 C   0  0  0  0  0  0  0  0  0  0  0  0
   10.5390    4.3100    0.0000 C   0  0  0  0  0  0  0  0  0  0  0  0
   15.7352    9.3100    0.0000 C   0  0  0  0  0  0  0  0  0  0  0  0
   14.8691   10.8100    0.0000 C   0  0  0  0  0  0  0  0  0  0  0  0
   10.5390    3.3100    0.0000 C   0  0  0  0  0  0  0  0  0  0  0  0
   15.7352   10.3100    0.0000 C   0  0  0  0  0  0  0  0  0  0  0  0
    9.6730    2.8100    0.0000 C   0  0  0  0  0  0  0  0  0  0  0  0
   11.4050    2.8100    0.0000 C   0  0  0  0  0  0  0  0  0  0  0  0
    2.2690    8.0805    0.0000 C   0  0  0  0  0  0  0  0  0  0  0  0
    9.6730    1.8100    0.0000 C   0  0  0  0  0  0  0  0  0  0  0  0
   11.4050    1.8100    0.0000 C   0  0  0  0  0  0  0  0  0  0  0  0
   10.5390    1.3100    0.0000 C   0  0  0  0  0  0  0  0  0  0  0  0
    1.4030    7.5805    0.0000 C   0  0  0  0  0  0  0  0  0  0  0  0
    1.7690    8.9465    0.0000 C   0  0  0  0  0  0  0  0  0  0  0  0
    3.1350    8.5805    0.0000 C   0  0  0  0  0  0  0  0  0  0  0  0
    7.9409    2.8100    0.0000 C   0  0  0  0  0  0  0  0  0  0  0  0
    0.7690    8.9465    0.0000 C   0  0  0  0  0  0  0  0  0  0  0  0
    1.4030    6.5805    0.0000 C   0  0  0  0  0  0  0  0  0  0  0  0
    7.0749    3.3100    0.0000 C   0  0  0  0  0  0  0  0  0  0  0  0
   12.2711    5.6900    0.0000 H   0  0  0  0  0  0  0  0  0  0  0  0
   12.0590    7.8926    0.0000 H   0  0  0  0  0  0  0  0  0  0  0  0
   11.6605    7.2023    0.0000 H   0  0  0  0  0  0  0  0  0  0  0  0
   14.6137    7.2023    0.0000 H   0  0  0  0  0  0  0  0  0  0  0  0
   14.2152    7.8926    0.0000 H   0  0  0  0  0  0  0  0  0  0  0  0
   14.2152    5.7274    0.0000 H   0  0  0  0  0  0  0  0  0  0  0  0
   14.6137    6.4177    0.0000 H   0  0  0  0  0  0  0  0  0  0  0  0
   11.1930    6.3926    0.0000 H   0  0  0  0  0  0  0  0  0  0  0  0
   10.7945    5.7023    0.0000 H   0  0  0  0  0  0  0  0  0  0  0  0
   12.9250    9.3926    0.0000 H   0  0  0  0  0  0  0  0  0  0  0  0
   12.5265    8.7023    0.0000 H   0  0  0  0  0  0  0  0  0  0  0  0
   11.9420    4.5000    0.0000 H   0  0  0  0  0  0  0  0  0  0  0  0
   14.8691    8.1900    0.0000 H   0  0  0  0  0  0  0  0  0  0  0  0
   13.4662   10.6200    0.0000 H   0  0  0  0  0  0  0  0  0  0  0  0
   16.2721    9.0000    0.0000 H   0  0  0  0  0  0  0  0  0  0  0  0
   14.8691   11.4300    0.0000 H   0  0  0  0  0  0  0  0  0  0  0  0
   11.9420    3.1200    0.0000 H   0  0  0  0  0  0  0  0  0  0  0  0
    9.1360    1.5000    0.0000 H   0  0  0  0  0  0  0  0  0  0  0  0
    2.3516    9.1586    0.0000 H   0  0  0  0  0  0  0  0  0  0  0  0
    1.6613    9.5571    0.0000 H   0  0  0  0  0  0  0  0  0  0  0  0
    1.1909    8.1631    0.0000 H   0  0  0  0  0  0  0  0  0  0  0  0
    0.7924    7.4728    0.0000 H   0  0  0  0  0  0  0  0  0  0  0  0
    7.5424    2.3350    0.0000 H   0  0  0  0  0  0  0  0  0  0  0  0
    8.3395    2.3350    0.0000 H   0  0  0  0  0  0  0  0  0  0  0  0
    2.4590    6.6776    0.0000 H   0  0  0  0  0  0  0  0  0  0  0  0
   10.0021    0.0000    0.0000 H   0  0  0  0  0  0  0  0  0  0  0  0
   11.0759    0.0000    0.0000 H   0  0  0  0  0  0  0  0  0  0  0  0
    7.3849    3.8469    0.0000 H   0  0  0  0  0  0  0  0  0  0  0  0
    6.5380    3.6200    0.0000 H   0  0  0  0  0  0  0  0  0  0  0  0
    6.7649    2.7731    0.0000 H   0  0  0  0  0  0  0  0  0  0  0  0
    4.5380    8.3905    0.0000 H   0  0  0  0  0  0  0  0  0  0  0  0
    0.0000    6.3905    0.0000 H   0  0  0  0  0  0  0  0  0  0  0  0
    0.5790   10.3495    0.0000 H   0  0  0  0  0  0  0  0  0  0  0  0
   12.1065   16.2400    0.0000 H   0  0  0  0  0  0  0  0  0  0  0  0
   11.0326   16.2400    0.0000 H   0  0  0  0  0  0  0  0  0  0  0  0
   12.1065   13.7400    0.0000 H   0  0  0  0  0  0  0  0  0  0  0  0
   11.0326   13.7400    0.0000 H   0  0  0  0  0  0  0  0  0  0  0  0
  1 36  1  0  0  0  0
  2 31  1  0  0  0  0
  3 18  1  0  0  0  0
  3 21  1  0  0  0  0
  4 27  2  0  0  0  0
  5 32  1  0  0  0  0
  5 41  1  0  0  0  0
  6 34  1  0  0  0  0
  6 69  1  0  0  0  0
  7 40  1  0  0  0  0
  7 75  1  0  0  0  0
  8 40  2  0  0  0  0
  9 43  1  0  0  0  0
  9 76  1  0  0  0  0
 10 42  1  0  0  0  0
 10 77  1  0  0  0  0
 11 43  2  0  0  0  0
 12 42  2  0  0  0  0
 13 80  1  0  0  0  0
 13 81  1  0  0  0  0
 14 78  1  0  0  0  0
 14 79  1  0  0  0  0
 15 19  1  0  0  0  0
 15 20  1  0  0  0  0
 15 23  1  0  0  0  0
 16 22  1  0  0  0  0
 16 27  1  0  0  0  0
 16 56  1  0  0  0  0
 17 37  1  0  0  0  0
 17 70  1  0  0  0  0
 17 71  1  0  0  0  0
 18 19  1  0  0  0  0
 18 22  1  0  0  0  0
 18 45  1  0  0  0  0
 19 46  1  0  0  0  0
 19 47  1  0  0  0  0
 20 21  1  0  0  0  0
 20 48  1  0  0  0  0
 20 49  1  0  0  0  0
 21 50  1  0  0  0  0
 21 51  1  0  0  0  0
 22 52  1  0  0  0  0
 22 53  1  0  0  0  0
 23 24  1  0  0  0  0
 23 54  1  0  0  0  0
 23 55  1  0  0  0  0
 24 25  2  0  0  0  0
 24 26  1  0  0  0  0
 25 28  1  0  0  0  0
 25 57  1  0  0  0  0
 26 29  2  0  0  0  0
 26 58  1  0  0  0  0
 27 30  1  0  0  0  0
 28 31  2  0  0  0  0
 28 59  1  0  0  0  0
 29 31  1  0  0  0  0
 29 60  1  0  0  0  0
 30 32  1  0  0  0  0
 30 33  2  0  0  0  0
 32 35  2  0  0  0  0
 33 36  1  0  0  0  0
 33 61  1  0  0  0  0
 34 38  1  0  0  0  0
 34 39  1  0  0  0  0
 34 40  1  0  0  0  0
 35 37  1  0  0  0  0
 35 62  1  0  0  0  0
 36 37  2  0  0  0  0
 38 43  1  0  0  0  0
 38 65  1  0  0  0  0
 38 66  1  0  0  0  0
 39 42  1  0  0  0  0
 39 63  1  0  0  0  0
 39 64  1  0  0  0  0
 41 44  1  0  0  0  0
 41 67  1  0  0  0  0
 41 68  1  0  0  0  0
 44 72  1  0  0  0  0
 44 73  1  0  0  0  0
 44 74  1  0  0  0  0
M  END
> <PUBCHEM_COMPOUND_CID>
6918047

> <PUBCHEM_COMPOUND_CANONICALIZED>
1

> <PUBCHEM_CACTVS_COMPLEXITY>
749

> <PUBCHEM_CACTVS_HBOND_ACCEPTOR>
15

> <PUBCHEM_CACTVS_HBOND_DONOR>
8

> <PUBCHEM_CACTVS_ROTATABLE_BOND>
12

> <PUBCHEM_CACTVS_SUBSKEYS>
AAADcfB7PQAEAAAAAAAAAAAAAAAAAAAAAAA8YIAAAAAAAAABQAAAHwIQCAAADF7hmC4yzoPABgCIAiXSWAKCCAAkJwAIiIFObsgPJjaF95uHeWjn9hmZ6Yfb/yGeCCAAIgAIABAQQABEABAAIAAAAAAAAA==

> <PUBCHEM_IUPAC_OPENEYE_NAME>
4-amino-5-chloro-2-ethoxy-N-[[4-[(4-fluorophenyl)methyl]morpholin-2-yl]methyl]benzamide; citric acid; dihydrate

> <PUBCHEM_IUPAC_CAS_NAME>
4-amino-5-chloro-2-ethoxy-N-[[4-[(4-fluorophenyl)methyl]-2-morpholinyl]methyl]benzamide; 2-hydroxypropane-1,2,3-tricarboxylic acid; dihydrate

> <PUBCHEM_IUPAC_NAME>
4-amino-5-chloro-2-ethoxy-N-[[4-[(4-fluorophenyl)methyl]morpholin-2-yl]methyl]benzamide; 2-hydroxypropane-1,2,3-tricarboxylic acid; dihydrate

> <PUBCHEM_IUPAC_SYSTEMATIC_NAME>
4-azanyl-5-chloranyl-2-ethoxy-N-[[4-[(4-fluorophenyl)methyl]morpholin-2-yl]methyl]benzamide; 2-oxidanylpropane-1,2,3-tricarboxylic acid; dihydrate

> <PUBCHEM_IUPAC_TRADITIONAL_NAME>
4-amino-5-chloro-2-ethoxy-N-[[4-(4-fluorobenzyl)morpholin-2-yl]methyl]benzamide; citric acid; dihydrate

> <PUBCHEM_IUPAC_INCHI>
InChI=1S/C21H25ClFN3O3.C6H8O7.2H2O/c1-2-28-20-10-19(24)18(22)9-17(20)21(27)25-11-16-13-26(7-8-29-16)12-14-3-5-15(23)6-4-14;7-3(8)1-6(13,5(11)12)2-4(9)10;;/h3-6,9-10,16H,2,7-8,11-13,24H2,1H3,(H,25,27);13H,1-2H2,(H,7,8)(H,9,10)(H,11,12);2*1H2

> <PUBCHEM_IUPAC_INCHIKEY>
KVKIQHMTGSGTFO-UHFFFAOYSA-N

> <PUBCHEM_EXACT_MASS>
649.20498

> <PUBCHEM_MOLECULAR_FORMULA>
C27H37ClFN3O12

> <PUBCHEM_MOLECULAR_WEIGHT>
650.046983

> <PUBCHEM_OPENEYE_CAN_SMILES>
CCOC1=CC(=C(C=C1C(=O)NCC2CN(CCO2)CC3=CC=C(C=C3)F)Cl)N.C(C(=O)O)C(CC(=O)O)(C(=O)O)O.O.O

> <PUBCHEM_OPENEYE_ISO_SMILES>
CCOC1=CC(=C(C=C1C(=O)NCC2CN(CCO2)CC3=CC=C(C=C3)F)Cl)N.C(C(=O)O)C(CC(=O)O)(C(=O)O)O.O.O

> <PUBCHEM_CACTVS_TPSA>
211

> <PUBCHEM_MONOISOTOPIC_WEIGHT>
649.20498

> <PUBCHEM_TOTAL_CHARGE>
0

> <PUBCHEM_HEAVY_ATOM_COUNT>
44

> <PUBCHEM_ATOM_DEF_STEREO_COUNT>
0

> <PUBCHEM_ATOM_UDEF_STEREO_COUNT>
1

> <PUBCHEM_BOND_DEF_STEREO_COUNT>
0

> <PUBCHEM_BOND_UDEF_STEREO_COUNT>
0

> <PUBCHEM_ISOTOPIC_ATOM_COUNT>
0

> <PUBCHEM_COMPONENT_COUNT>
4

> <PUBCHEM_CACTVS_TAUTO_COUNT>
5

> <PUBCHEM_COORDINATE_TYPE>
1
5
255

> <PUBCHEM_BONDANNOTATIONS>
18  22  3
24  25  8
24  26  8
25  28  8
26  29  8
28  31  8
29  31  8
30  32  8
30  33  8
32  35  8
33  36  8
35  37  8
36  37  8

$$$$

