31573
  -OEChem-07051213123D

 38 38  0     1  0  0  0  0  0999 V2000
   -0.7712   -3.2115    0.3570 S   0  0  0  0  0  0  0  0  0  0  0  0
    1.3540    1.3272    0.4529 N   0  0  0  0  0  0  0  0  0  0  0  0
   -0.9704    1.2414    0.1513 N   0  0  0  0  0  0  0  0  0  0  0  0
    0.3106   -0.7720    0.4014 N   0  0  0  0  0  0  0  0  0  0  0  0
   -3.2916    1.0915   -0.1488 N   0  0  0  0  0  0  0  0  0  0  0  0
   -2.0660   -0.8927    0.0934 N   0  0  0  0  0  0  0  0  0  0  0  0
    3.2380    0.2040   -0.6797 C   0  0  0  0  0  0  0  0  0  0  0  0
    2.6672    0.7472    0.6508 C   0  0  1  0  0  0  0  0  0  0  0  0
    3.4372    1.2770   -1.7549 C   0  0  0  0  0  0  0  0  0  0  0  0
    4.5524   -0.5518   -0.4530 C   0  0  0  0  0  0  0  0  0  0  0  0
    3.5735    1.7828    1.3122 C   0  0  0  0  0  0  0  0  0  0  0  0
    0.1983    0.5776    0.3319 C   0  0  0  0  0  0  0  0  0  0  0  0
   -2.0490    0.4489    0.0414 C   0  0  0  0  0  0  0  0  0  0  0  0
   -0.8507   -1.4342    0.2752 C   0  0  0  0  0  0  0  0  0  0  0  0
   -4.5220    0.3762   -0.2820 C   0  0  0  0  0  0  0  0  0  0  0  0
   -5.6958    1.3275   -0.4405 C   0  0  0  0  0  0  0  0  0  0  0  0
    0.8856   -3.5391   -0.3087 C   0  0  0  0  0  0  0  0  0  0  0  0
    2.5245   -0.5234   -1.0884 H   0  0  0  0  0  0  0  0  0  0  0  0
    2.5872   -0.0853    1.3632 H   0  0  0  0  0  0  0  0  0  0  0  0
    3.7563    0.8171   -2.6968 H   0  0  0  0  0  0  0  0  0  0  0  0
    2.5080    1.8197   -1.9548 H   0  0  0  0  0  0  0  0  0  0  0  0
    4.2046    2.0032   -1.4691 H   0  0  0  0  0  0  0  0  0  0  0  0
    4.4375   -1.3123    0.3263 H   0  0  0  0  0  0  0  0  0  0  0  0
    4.8595   -1.0643   -1.3715 H   0  0  0  0  0  0  0  0  0  0  0  0
    5.3683    0.1184   -0.1653 H   0  0  0  0  0  0  0  0  0  0  0  0
    3.1347    2.1198    2.2589 H   0  0  0  0  0  0  0  0  0  0  0  0
    4.5616    1.3745    1.5425 H   0  0  0  0  0  0  0  0  0  0  0  0
    3.7026    2.6742    0.6898 H   0  0  0  0  0  0  0  0  0  0  0  0
    1.2645    2.3315    0.3490 H   0  0  0  0  0  0  0  0  0  0  0  0
   -3.2765    2.1040   -0.1908 H   0  0  0  0  0  0  0  0  0  0  0  0
   -4.4833   -0.2846   -1.1559 H   0  0  0  0  0  0  0  0  0  0  0  0
   -4.6959   -0.2487    0.6020 H   0  0  0  0  0  0  0  0  0  0  0  0
   -5.7834    1.9900    0.4272 H   0  0  0  0  0  0  0  0  0  0  0  0
   -5.5744    1.9552   -1.3297 H   0  0  0  0  0  0  0  0  0  0  0  0
   -6.6310    0.7681   -0.5408 H   0  0  0  0  0  0  0  0  0  0  0  0
    1.6553   -3.1392    0.3571 H   0  0  0  0  0  0  0  0  0  0  0  0
    0.9939   -3.0948   -1.3020 H   0  0  0  0  0  0  0  0  0  0  0  0
    1.0291   -4.6196   -0.3928 H   0  0  0  0  0  0  0  0  0  0  0  0
  1 14  1  0  0  0  0
  1 17  1  0  0  0  0
  2  8  1  0  0  0  0
  2 12  1  0  0  0  0
  2 29  1  0  0  0  0
  3 12  1  0  0  0  0
  3 13  2  0  0  0  0
  4 12  2  0  0  0  0
  4 14  1  0  0  0  0
  5 13  1  0  0  0  0
  5 15  1  0  0  0  0
  5 30  1  0  0  0  0
  6 13  1  0  0  0  0
  6 14  2  0  0  0  0
  7  8  1  0  0  0  0
  7  9  1  0  0  0  0
  7 10  1  0  0  0  0
  7 18  1  0  0  0  0
  8 11  1  0  0  0  0
  8 19  1  0  0  0  0
  9 20  1  0  0  0  0
  9 21  1  0  0  0  0
  9 22  1  0  0  0  0
 10 23  1  0  0  0  0
 10 24  1  0  0  0  0
 10 25  1  0  0  0  0
 11 26  1  0  0  0  0
 11 27  1  0  0  0  0
 11 28  1  0  0  0  0
 15 16  1  0  0  0  0
 15 31  1  0  0  0  0
 15 32  1  0  0  0  0
 16 33  1  0  0  0  0
 16 34  1  0  0  0  0
 16 35  1  0  0  0  0
 17 36  1  0  0  0  0
 17 37  1  0  0  0  0
 17 38  1  0  0  0  0
M  END
> <PUBCHEM_COMPOUND_CID>
31573

> <PUBCHEM_CONFORMER_RMSD>
0.8

> <PUBCHEM_CONFORMER_DIVERSEORDER>
1
202
87
120
121
43
75
85
71
99
179
7
60
176
190
15
156
200
84
152
37
175
206
171
165
76
145
193
135
188
48
45
173
49
131
92
54
55
65
83
186
153
96
126
13
177
82
80
122
50
73
118
86
191
184
12
148
144
30
44
63
17
70
180
74
110
123
178
2
88
119
32
162
59
61
155
205
185
8
196
22
91
47
106
136
198
3
192
203
157
41
34
146
57
181
77
147
38
69
89
72
189
128
113
163
10
46
134
174
28
170
130
115
207
167
197
149
67
183
97
129
102
105
23
62
39
201
160
35
159
40
16
109
137
104
108
26
117
66
114
31
164
42
79
143
187
29
169
95
9
172
103
124
111
90
101
140
51
199
27
112
94
25
150
53
142
93
158
125
133
141
166
100
151
58
81
204
56
20
182
154
139
36
11
33
5
64
78
52
98
168
194
18
116
21
132
19
14
195
24
127
68
161
107
6
4
138

> <PUBCHEM_MMFF94_PARTIAL_CHARGES>
14
1 -0.33
12 0.72
13 0.72
14 0.72
15 0.37
17 0.23
2 -0.87
29 0.4
3 -0.62
30 0.4
4 -0.62
5 -0.87
6 -0.62
8 0.37

> <PUBCHEM_EFFECTIVE_ROTOR_COUNT>
6

> <PUBCHEM_PHARMACOPHORE_FEATURES>
7
1 17 hydrophobe
1 2 donor
1 5 donor
3 7 9 10 hydrophobe
4 2 3 4 12 cation
4 3 5 6 13 cation
6 3 4 6 12 13 14 rings

> <PUBCHEM_HEAVY_ATOM_COUNT>
17

> <PUBCHEM_ATOM_DEF_STEREO_COUNT>
0

> <PUBCHEM_ATOM_UDEF_STEREO_COUNT>
1

> <PUBCHEM_BOND_DEF_STEREO_COUNT>
0

> <PUBCHEM_BOND_UDEF_STEREO_COUNT>
0

> <PUBCHEM_ISOTOPIC_ATOM_COUNT>
0

> <PUBCHEM_COMPONENT_COUNT>
1

> <PUBCHEM_CACTVS_TAUTO_COUNT>
9

> <PUBCHEM_CONFORMER_ID>
00007B5500000001

> <PUBCHEM_MMFF94_ENERGY>
38.4493

> <PUBCHEM_FEATURE_SELFOVERLAP>
35.562

> <PUBCHEM_SHAPE_FINGERPRINT>
10693767 8 17968951919157907023
107951 10 17560788927608859202
10922049 32 18410854356828183363
11322862 65 18339643334766477974
116883 192 17759245094001190151
12500047 106 18337670794274478484
12532896 13 18336276630135659059
12553582 1 17258771526180255154
12592029 89 18340487867255298515
12644460 14 18269552917839533923
12730499 353 18410569617950550019
12895836 83 18058430033602394956
13544592 145 18333728009838382764
13836976 161 18343581880022184870
14115302 16 18412535506054652876
14911166 2 18408319994936411796
15375358 24 18042128670008985112
16752209 62 18267869371720937866
18186145 218 18335146388122570113
19784866 240 14779531418703200836
20279233 1 18114178588950833016
20645476 183 18059287669698908774
20645477 56 18339929199226197360
20645477 70 18196102247291409479
20871999 31 18267579100735101094
21524375 3 18343303694995788587
22218785 32 18410011048257083143
22713019 99 18187922919566697358
23366157 5 17842554330128993283
23402539 116 18334021583595743125
23557571 272 18046061554371552536
23558518 356 17695919825447556712
23559900 14 18334573500395463076
23598288 3 17843676656354130746
23598291 2 17559678326554261950
2748010 2 18045214947455271506
3060560 45 18410299128745854028
3071541 37 18340769355311920455
366044 4 18412547613192835907
3759504 43 17989201517321444867
495365 180 17603877676067725288
4990 188 17822010921663016605
6138700 20 18264767851894439422
633830 44 18114472205726463853
7364860 26 18192436487692193235
81228 2 17908993097230858395
81539 233 18200880677169717895
88987 49 18196655095070313368
9709674 26 18044660797905650850

> <PUBCHEM_SHAPE_MULTIPOLES>
328.8
9.1
3.06
1.03
6.67
4.14
-0.18
-6.2
-2.1
-0.06
0.14
-1.18
-0.43
0.63

> <PUBCHEM_SHAPE_SELFOVERLAP>
631.978

> <PUBCHEM_SHAPE_VOLUME>
202.7

> <PUBCHEM_COORDINATE_TYPE>
2
5
10

$$$$

