227841
  -OEChem-07051213063D

 51 54  0     1  0  0  0  0  0999 V2000
    5.0168   -0.8221   -0.1048 O   0  0  0  0  0  0  0  0  0  0  0  0
   -0.2843   -2.7738    0.2270 O   0  0  0  0  0  0  0  0  0  0  0  0
   -5.5211    0.0597    1.4097 O   0  0  0  0  0  0  0  0  0  0  0  0
    2.5771   -0.3753   -0.2023 C   0  0  1  0  0  0  0  0  0  0  0  0
    1.7694    0.8435    0.2865 C   0  0  2  0  0  0  0  0  0  0  0  0
    0.3873    0.9472   -0.3702 C   0  0  1  0  0  0  0  0  0  0  0  0
   -0.4543   -0.3413   -0.0456 C   0  0  2  0  0  0  0  0  0  0  0  0
    3.9387   -0.1291    0.5200 C   0  0  2  0  0  0  0  0  0  0  0  0
    1.7962   -1.6301    0.2018 C   0  0  0  0  0  0  0  0  0  0  0  0
    2.7424    2.0067    0.1122 C   0  0  0  0  0  0  0  0  0  0  0  0
    0.3584   -1.6412   -0.3601 C   0  0  1  0  0  0  0  0  0  0  0  0
   -1.9015   -0.2574   -0.6943 C   0  0  1  0  0  0  0  0  0  0  0  0
    4.1298    1.4048    0.3989 C   0  0  0  0  0  0  0  0  0  0  0  0
   -0.3473    2.2174    0.0872 C   0  0  0  0  0  0  0  0  0  0  0  0
    2.7928   -0.4009   -1.7431 C   0  0  0  0  0  0  0  0  0  0  0  0
   -1.7339    2.3199   -0.5357 C   0  0  0  0  0  0  0  0  0  0  0  0
   -2.5282    1.0719   -0.2475 C   0  0  0  0  0  0  0  0  0  0  0  0
    3.9855   -0.5550    1.9931 C   0  0  0  0  0  0  0  0  0  0  0  0
   -1.8499   -0.3015   -2.2396 C   0  0  0  0  0  0  0  0  0  0  0  0
   -2.7823   -1.4307   -0.2872 C   0  0  0  0  0  0  0  0  0  0  0  0
   -3.6878    1.1651    0.4231 C   0  0  0  0  0  0  0  0  0  0  0  0
   -3.9364   -1.3447    0.3815 C   0  0  0  0  0  0  0  0  0  0  0  0
   -4.4675   -0.0332    0.7893 C   0  0  0  0  0  0  0  0  0  0  0  0
    1.5892    0.7471    1.3679 H   0  0  0  0  0  0  0  0  0  0  0  0
    0.5203    1.0306   -1.4537 H   0  0  0  0  0  0  0  0  0  0  0  0
   -0.6156   -0.3516    1.0454 H   0  0  0  0  0  0  0  0  0  0  0  0
    1.7250   -1.7127    1.2939 H   0  0  0  0  0  0  0  0  0  0  0  0
    2.3266   -2.5359   -0.1194 H   0  0  0  0  0  0  0  0  0  0  0  0
    2.5203    2.8297    0.7994 H   0  0  0  0  0  0  0  0  0  0  0  0
    2.7077    2.4100   -0.9062 H   0  0  0  0  0  0  0  0  0  0  0  0
    0.3854   -1.8116   -1.4402 H   0  0  0  0  0  0  0  0  0  0  0  0
    4.8239    1.6593   -0.4107 H   0  0  0  0  0  0  0  0  0  0  0  0
    4.5495    1.8349    1.3156 H   0  0  0  0  0  0  0  0  0  0  0  0
    0.2264    3.1088   -0.1920 H   0  0  0  0  0  0  0  0  0  0  0  0
   -0.4327    2.2255    1.1818 H   0  0  0  0  0  0  0  0  0  0  0  0
    3.3466   -1.3001   -2.0374 H   0  0  0  0  0  0  0  0  0  0  0  0
    1.8588   -0.4108   -2.3101 H   0  0  0  0  0  0  0  0  0  0  0  0
    3.3683    0.4607   -2.0962 H   0  0  0  0  0  0  0  0  0  0  0  0
   -1.6542    2.4697   -1.6184 H   0  0  0  0  0  0  0  0  0  0  0  0
   -2.2324    3.2139   -0.1413 H   0  0  0  0  0  0  0  0  0  0  0  0
    4.9588   -0.3020    2.4312 H   0  0  0  0  0  0  0  0  0  0  0  0
    3.2128   -0.0772    2.6013 H   0  0  0  0  0  0  0  0  0  0  0  0
    3.8895   -1.6417    2.0951 H   0  0  0  0  0  0  0  0  0  0  0  0
   -1.4863   -1.2680   -2.6070 H   0  0  0  0  0  0  0  0  0  0  0  0
   -2.8476   -0.1509   -2.6725 H   0  0  0  0  0  0  0  0  0  0  0  0
   -1.2012    0.4678   -2.6677 H   0  0  0  0  0  0  0  0  0  0  0  0
   -2.4822   -2.4247   -0.6086 H   0  0  0  0  0  0  0  0  0  0  0  0
    4.8106   -1.7723   -0.0846 H   0  0  0  0  0  0  0  0  0  0  0  0
    0.2095   -3.5665   -0.0441 H   0  0  0  0  0  0  0  0  0  0  0  0
   -4.0891    2.1220    0.7403 H   0  0  0  0  0  0  0  0  0  0  0  0
   -4.5181   -2.2280    0.6184 H   0  0  0  0  0  0  0  0  0  0  0  0
  1  8  1  0  0  0  0
  1 48  1  0  0  0  0
  2 11  1  0  0  0  0
  2 49  1  0  0  0  0
  3 23  2  0  0  0  0
  4  5  1  0  0  0  0
  4  8  1  0  0  0  0
  4  9  1  0  0  0  0
  4 15  1  0  0  0  0
  5  6  1  0  0  0  0
  5 10  1  0  0  0  0
  5 24  1  0  0  0  0
  6  7  1  0  0  0  0
  6 14  1  0  0  0  0
  6 25  1  0  0  0  0
  7 11  1  0  0  0  0
  7 12  1  0  0  0  0
  7 26  1  0  0  0  0
  8 13  1  0  0  0  0
  8 18  1  0  0  0  0
  9 11  1  0  0  0  0
  9 27  1  0  0  0  0
  9 28  1  0  0  0  0
 10 13  1  0  0  0  0
 10 29  1  0  0  0  0
 10 30  1  0  0  0  0
 11 31  1  0  0  0  0
 12 17  1  0  0  0  0
 12 19  1  0  0  0  0
 12 20  1  0  0  0  0
 13 32  1  0  0  0  0
 13 33  1  0  0  0  0
 14 16  1  0  0  0  0
 14 34  1  0  0  0  0
 14 35  1  0  0  0  0
 15 36  1  0  0  0  0
 15 37  1  0  0  0  0
 15 38  1  0  0  0  0
 16 17  1  0  0  0  0
 16 39  1  0  0  0  0
 16 40  1  0  0  0  0
 17 21  2  0  0  0  0
 18 41  1  0  0  0  0
 18 42  1  0  0  0  0
 18 43  1  0  0  0  0
 19 44  1  0  0  0  0
 19 45  1  0  0  0  0
 19 46  1  0  0  0  0
 20 22  2  0  0  0  0
 20 47  1  0  0  0  0
 21 23  1  0  0  0  0
 21 50  1  0  0  0  0
 22 23  1  0  0  0  0
 22 51  1  0  0  0  0
M  END
> <PUBCHEM_COMPOUND_CID>
227841

> <PUBCHEM_CONFORMER_RMSD>
0.6

> <PUBCHEM_CONFORMER_DIVERSEORDER>
1

> <PUBCHEM_MMFF94_PARTIAL_CHARGES>
17
1 -0.68
11 0.28
12 0.28
16 0.14
17 -0.28
2 -0.68
20 -0.29
21 -0.14
22 -0.14
23 0.54
3 -0.57
47 0.15
48 0.4
49 0.4
50 0.15
51 0.15
8 0.28

> <PUBCHEM_EFFECTIVE_ROTOR_COUNT>
1.4

> <PUBCHEM_PHARMACOPHORE_FEATURES>
9
1 1 acceptor
1 1 donor
1 2 acceptor
1 2 donor
1 3 acceptor
5 4 5 8 10 13 rings
6 12 17 20 21 22 23 rings
6 4 5 6 7 9 11 rings
6 6 7 12 14 16 17 rings

> <PUBCHEM_HEAVY_ATOM_COUNT>
23

> <PUBCHEM_ATOM_DEF_STEREO_COUNT>
7

> <PUBCHEM_ATOM_UDEF_STEREO_COUNT>
0

> <PUBCHEM_BOND_DEF_STEREO_COUNT>
0

> <PUBCHEM_BOND_UDEF_STEREO_COUNT>
0

> <PUBCHEM_ISOTOPIC_ATOM_COUNT>
0

> <PUBCHEM_COMPONENT_COUNT>
1

> <PUBCHEM_CACTVS_TAUTO_COUNT>
3

> <PUBCHEM_CONFORMER_ID>
00037A0100000001

> <PUBCHEM_MMFF94_ENERGY>
85.9037

> <PUBCHEM_FEATURE_SELFOVERLAP>
45.767

> <PUBCHEM_SHAPE_FINGERPRINT>
10967382 1 18410294730704546092
11132069 177 18334013895614533663
11578080 2 16771271572231836863
11796584 16 15554449570428772073
12011746 2 18411419531912111901
12236239 1 17821731615945236863
12403259 415 18408328795873189952
12403814 3 18334864913562337533
12553582 1 18411425011552065588
12633257 1 18341043052229485011
12788726 201 17895179009597578896
13140716 1 18338798884008123715
13224815 77 18411424998593193700
13583140 156 17059520472635277356
13675066 3 17966972716227261690
14178342 30 18121221141125714272
14223421 5 18268146646514492973
14341114 176 18341609326186880336
14341114 328 18335979792282203929
14787075 74 18261393282961866489
14790565 3 18266729199669652940
15196674 1 18410012104650304217
15209289 33 18410294696360781363
15209294 21 17967248689688457105
15309172 13 18412829079516516143
15788980 27 16773802489153524455
16945 1 18265900335463465685
17349148 13 17704071802398255410
1813 80 17417802942385169317
18186145 218 18411426107074473428
19141452 34 18040713645793874559
19591789 44 18410576149830844562
19784866 170 18410569626276649459
200 152 13110962016000651973
20028762 73 18116711803744543311
20261772 1 18408604755541719203
20510252 161 18334860510830612104
20739085 24 18341602698836519428
20775438 99 11811343507156166209
21267235 1 18411409622594495187
21421861 104 18129101297758922778
21637258 2 16056312822706416633
22182313 1 18189896611278250261
23184049 59 18336260163462998821
23402539 116 18334023774134338206
23559900 14 18261110829170494910
2748010 2 18048043157639334494
2838139 119 14925056275586356513
296302 2 14201401560139688528
335352 9 18337674216909960508
34934 24 18337115661235499397
350125 39 18411414029716516908
392239 28 18341885273778136475
465052 167 17775271743344266619
5104073 3 18336830788290759962
633830 44 18261114054189741934
7097593 13 17555751145354817778

> <PUBCHEM_SHAPE_MULTIPOLES>
455.72
9.21
2.25
1.34
1.05
0.2
0.26
-0.28
-3.55
0.13
-0.02
-0.06
-0.22
0.01

> <PUBCHEM_SHAPE_SELFOVERLAP>
984.259

> <PUBCHEM_SHAPE_VOLUME>
249.4

> <PUBCHEM_COORDINATE_TYPE>
2
5
10

$$$$

