23241672
  -OEChem-07051213023D

 30 32  0     1  0  0  0  0  0999 V2000
    1.7622    0.3131    1.1485 O   0  0  0  0  0  0  0  0  0  0  0  0
    0.9978   -2.2536   -1.2475 O   0  0  0  0  0  0  0  0  0  0  0  0
    3.1692   -2.3415    0.3790 O   0  0  0  0  0  0  0  0  0  0  0  0
    4.8185    1.1600   -0.4577 O   0  0  0  0  0  0  0  0  0  0  0  0
    2.8773    2.3117   -0.1405 O   0  0  0  0  0  0  0  0  0  0  0  0
   -4.7023    1.4975   -0.3968 O   0  0  0  0  0  0  0  0  0  0  0  0
   -0.4161    0.1861    0.2313 N   0  0  0  0  0  0  0  0  0  0  0  0
   -2.1222   -1.5424    0.3973 N   0  0  0  0  0  0  0  0  0  0  0  0
   -1.7859    1.9094   -0.2108 N   0  0  0  0  0  0  0  0  0  0  0  0
   -4.3720   -0.7554    0.0494 N   0  0  0  0  0  0  0  0  0  0  0  0
    0.8235   -0.5469    0.4762 C   0  0  1  0  0  0  0  0  0  0  0  0
    1.5203   -1.0238   -0.7887 C   0  0  1  0  0  0  0  0  0  0  0  0
    2.9626   -1.1223   -0.3306 C   0  0  1  0  0  0  0  0  0  0  0  0
    3.0783    0.0383    0.6449 C   0  0  1  0  0  0  0  0  0  0  0  0
   -1.6801   -0.2958    0.2063 C   0  0  0  0  0  0  0  0  0  0  0  0
    3.5452    1.2963   -0.0136 C   0  0  0  0  0  0  0  0  0  0  0  0
   -0.5310    1.5337   -0.0285 C   0  0  0  0  0  0  0  0  0  0  0  0
   -2.5073    0.7584   -0.0631 C   0  0  0  0  0  0  0  0  0  0  0  0
   -3.9451    0.5651   -0.1564 C   0  0  0  0  0  0  0  0  0  0  0  0
   -3.4927   -1.6881    0.3011 C   0  0  0  0  0  0  0  0  0  0  0  0
    0.5805   -1.3746    1.1533 H   0  0  0  0  0  0  0  0  0  0  0  0
    1.4382   -0.2803   -1.5913 H   0  0  0  0  0  0  0  0  0  0  0  0
    3.6666   -1.1024   -1.1677 H   0  0  0  0  0  0  0  0  0  0  0  0
    3.7244   -0.1724    1.5034 H   0  0  0  0  0  0  0  0  0  0  0  0
    0.3221    2.1938   -0.0767 H   0  0  0  0  0  0  0  0  0  0  0  0
    0.0588   -2.1144   -1.4576 H   0  0  0  0  0  0  0  0  0  0  0  0
    4.0910   -2.3446    0.6888 H   0  0  0  0  0  0  0  0  0  0  0  0
   -1.5204   -2.3350    0.5948 H   0  0  0  0  0  0  0  0  0  0  0  0
   -3.8196   -2.7274    0.4634 H   0  0  0  0  0  0  0  0  0  0  0  0
    5.1431    1.9756   -0.8955 H   0  0  0  0  0  0  0  0  0  0  0  0
  1 11  1  0  0  0  0
  1 14  1  0  0  0  0
  2 12  1  0  0  0  0
  2 26  1  0  0  0  0
  3 13  1  0  0  0  0
  3 27  1  0  0  0  0
  4 16  1  0  0  0  0
  4 30  1  0  0  0  0
  5 16  2  0  0  0  0
  6 19  2  0  0  0  0
  7 11  1  0  0  0  0
  7 15  1  0  0  0  0
  7 17  1  0  0  0  0
  8 15  1  0  0  0  0
  8 20  1  0  0  0  0
  8 28  1  0  0  0  0
  9 17  2  0  0  0  0
  9 18  1  0  0  0  0
 10 19  1  0  0  0  0
 10 20  2  0  0  0  0
 11 12  1  0  0  0  0
 11 21  1  0  0  0  0
 12 13  1  0  0  0  0
 12 22  1  0  0  0  0
 13 14  1  0  0  0  0
 13 23  1  0  0  0  0
 14 16  1  0  0  0  0
 14 24  1  0  0  0  0
 15 18  2  0  0  0  0
 17 25  1  0  0  0  0
 18 19  1  0  0  0  0
 20 29  1  0  0  0  0
M  END
> <PUBCHEM_COMPOUND_CID>
23241672

> <PUBCHEM_CONFORMER_RMSD>
0.6

> <PUBCHEM_CONFORMER_DIVERSEORDER>
1
14
18
13
10
16
5
4
2
3
17
15
6
8
11
12
7
9

> <PUBCHEM_MMFF94_PARTIAL_CHARGES>
26
1 -0.56
10 -0.66
11 0.54
12 0.28
13 0.28
14 0.34
15 -0.07
16 0.66
17 0.04
18 0.14
19 0.87
2 -0.68
20 0.44
25 0.15
26 0.4
27 0.4
28 0.4
29 0.06
3 -0.68
30 0.5
4 -0.65
5 -0.57
6 -0.57
7 0.05
8 -0.53
9 -0.57

> <PUBCHEM_EFFECTIVE_ROTOR_COUNT>
3

> <PUBCHEM_PHARMACOPHORE_FEATURES>
15
1 1 acceptor
1 10 donor
1 2 acceptor
1 2 donor
1 3 acceptor
1 3 donor
1 4 acceptor
1 5 acceptor
1 6 acceptor
1 8 donor
3 4 5 16 anion
3 7 9 17 cation
5 1 11 12 13 14 rings
5 7 9 15 17 18 rings
6 8 10 15 18 19 20 rings

> <PUBCHEM_HEAVY_ATOM_COUNT>
20

> <PUBCHEM_ATOM_DEF_STEREO_COUNT>
4

> <PUBCHEM_ATOM_UDEF_STEREO_COUNT>
0

> <PUBCHEM_BOND_DEF_STEREO_COUNT>
0

> <PUBCHEM_BOND_UDEF_STEREO_COUNT>
0

> <PUBCHEM_ISOTOPIC_ATOM_COUNT>
0

> <PUBCHEM_COMPONENT_COUNT>
1

> <PUBCHEM_CACTVS_TAUTO_COUNT>
3

> <PUBCHEM_CONFORMER_ID>
0162A3C800000001

> <PUBCHEM_MMFF94_ENERGY>
45.2828

> <PUBCHEM_FEATURE_SELFOVERLAP>
76.349

> <PUBCHEM_SHAPE_FINGERPRINT>
10366900 7 17748831821517152313
10498660 4 18412543210514078693
10608611 8 18411140272410739849
10616163 171 18336826390397495167
10759866 29 18413387631671469678
11132069 177 18410580565162934529
11615757 297 17530960250624719801
12633257 1 18193554690769397042
13214271 11 18410014299805730655
13224815 77 18335134289172933695
13296908 3 18411982468548250931
14289901 80 18411419501071945891
15196674 1 18411700988875444843
15219456 202 18408040719141049819
15375358 24 18410294722568331071
15375462 6 18412262826806993326
15536298 74 18410572894335454428
16945 1 18119517988749664362
17492 89 18413671326619401587
18186145 218 17489310810484023739
200 152 17313114098140080835
20645477 56 18272651273114086701
20645477 70 18261674869328470455
21267235 1 18341323397365967995
21501502 16 18335134357902960168
221490 88 18411692218958941114
23402539 116 18271814497008700522
23557571 272 18339914931296834415
23559900 14 18337957899668821890
296302 2 18409445886632790141
3060560 45 18114177545447717420
335352 9 18195810888898521279
3545911 37 18413106160551843872
4409770 3 16690775351526654966
474 4 17346310437120743716
495365 180 17532113690025492273
5104073 3 18412262856813606657
7364860 26 18410855507958494450
77779 3 18411981368741009667
9709674 26 18409444825639354695

> <PUBCHEM_SHAPE_MULTIPOLES>
356.45
8.64
2.27
0.81
2.03
0.2
-0.02
-1.46
-0.38
-0.67
-0.29
-0.3
0.19
0.35

> <PUBCHEM_SHAPE_SELFOVERLAP>
785.449

> <PUBCHEM_SHAPE_VOLUME>
190.1

> <PUBCHEM_COORDINATE_TYPE>
2
5
10

$$$$

