14605548
  -OEChem-07051212512D

 49 53  0     1  0  0  0  0  0999 V2000
    5.2579    0.5574    0.0000 O   0  0  0  0  0  0  0  0  0  0  0  0
    9.0193   -1.7547    0.0000 O   0  0  0  0  0  0  0  0  0  0  0  0
    2.8729   -2.4036    0.0000 O   0  0  0  0  0  0  0  0  0  0  0  0
    2.8361    1.1140    0.0000 O   0  0  0  0  0  0  0  0  0  0  0  0
    6.3347    1.7858    0.0000 O   0  0  0  0  0  0  0  0  0  0  0  0
    4.6088    1.6403    0.0000 O   0  0  0  0  0  0  0  0  0  0  0  0
    6.3260   -0.3308    0.0000 C   0  0  1  0  0  0  0  0  0  0  0  0
    5.1120   -1.1765    0.0000 C   0  0  2  0  0  0  0  0  0  0  0  0
    6.0241   -1.1980    0.0000 C   0  0  2  0  0  0  0  0  0  0  0  0
    4.8490   -0.3025    0.0000 C   0  0  2  0  0  0  0  0  0  0  0  0
    5.5978    0.2184    0.0000 C   0  0  2  0  0  0  0  0  0  0  0  0
    3.9317   -0.0864    0.0000 C   0  0  1  0  0  0  0  0  0  0  0  0
    7.0220   -1.1632    0.0000 C   0  0  0  0  0  0  0  0  0  0  0  0
    8.0749   -1.4258    0.0000 C   0  0  2  0  0  0  0  0  0  0  0  0
    7.1929   -0.0262    0.0000 C   0  0  0  0  0  0  0  0  0  0  0  0
    6.5143   -1.9746    0.0000 C   0  0  0  0  0  0  0  0  0  0  0  0
    4.4742   -1.8910    0.0000 C   0  0  0  0  0  0  0  0  0  0  0  0
    7.4266   -2.0758    0.0000 C   0  0  0  0  0  0  0  0  0  0  0  0
    3.2866   -0.7726    0.0000 C   0  0  0  0  0  0  0  0  0  0  0  0
    7.9705   -0.5132    0.0000 C   0  0  0  0  0  0  0  0  0  0  0  0
    3.5581   -1.6753    0.0000 C   0  0  1  0  0  0  0  0  0  0  0  0
    3.6669    0.5574    0.0000 C   0  0  0  0  0  0  0  0  0  0  0  0
    5.5138    1.2148    0.0000 C   0  0  0  0  0  0  0  0  0  0  0  0
    2.9483    0.0947    0.0000 C   0  0  0  0  0  0  0  0  0  0  0  0
    8.7741    0.0819    0.0000 C   0  0  0  0  0  0  0  0  0  0  0  0
    5.6049   -1.9375    0.0000 H   0  0  0  0  0  0  0  0  0  0  0  0
    4.4140    0.4278    0.0000 H   0  0  0  0  0  0  0  0  0  0  0  0
    6.1406    0.5180    0.0000 H   0  0  0  0  0  0  0  0  0  0  0  0
    7.0649   -1.7818    0.0000 H   0  0  0  0  0  0  0  0  0  0  0  0
    6.4469   -1.3948    0.0000 H   0  0  0  0  0  0  0  0  0  0  0  0
    6.8623    0.4983    0.0000 H   0  0  0  0  0  0  0  0  0  0  0  0
    7.6307    0.4128    0.0000 H   0  0  0  0  0  0  0  0  0  0  0  0
    6.5848   -2.5905    0.0000 H   0  0  0  0  0  0  0  0  0  0  0  0
    5.9295   -2.1805    0.0000 H   0  0  0  0  0  0  0  0  0  0  0  0
    4.9986   -2.2219    0.0000 H   0  0  0  0  0  0  0  0  0  0  0  0
    4.2344   -2.4628    0.0000 H   0  0  0  0  0  0  0  0  0  0  0  0
    7.9521   -2.4049    0.0000 H   0  0  0  0  0  0  0  0  0  0  0  0
    7.2228   -2.6614    0.0000 H   0  0  0  0  0  0  0  0  0  0  0  0
    2.7329   -1.0516    0.0000 H   0  0  0  0  0  0  0  0  0  0  0  0
    2.9156   -0.2759    0.0000 H   0  0  0  0  0  0  0  0  0  0  0  0
    2.9546   -1.5331    0.0000 H   0  0  0  0  0  0  0  0  0  0  0  0
    2.8360   -0.5150    0.0000 H   0  0  0  0  0  0  0  0  0  0  0  0
    2.3385    0.2071    0.0000 H   0  0  0  0  0  0  0  0  0  0  0  0
    3.0606    0.7045    0.0000 H   0  0  0  0  0  0  0  0  0  0  0  0
    9.1355   -2.3637    0.0000 H   0  0  0  0  0  0  0  0  0  0  0  0
    8.7037    0.6979    0.0000 H   0  0  0  0  0  0  0  0  0  0  0  0
    9.3428   -0.1651    0.0000 H   0  0  0  0  0  0  0  0  0  0  0  0
    2.2694   -2.2615    0.0000 H   0  0  0  0  0  0  0  0  0  0  0  0
    6.2827    2.4036    0.0000 H   0  0  0  0  0  0  0  0  0  0  0  0
  8  1  1  1  0  0  0
  1 22  1  0  0  0  0
 14  2  1  1  0  0  0
  2 45  1  0  0  0  0
 21  3  1  6  0  0  0
  3 48  1  0  0  0  0
  4 22  2  0  0  0  0
  5 23  1  0  0  0  0
  5 49  1  0  0  0  0
  6 23  2  0  0  0  0
  7  9  1  0  0  0  0
  7 11  1  0  0  0  0
  7 13  1  1  0  0  0
  7 15  1  0  0  0  0
  8  9  1  0  0  0  0
  8 10  1  0  0  0  0
  8 17  1  0  0  0  0
  9 16  1  0  0  0  0
  9 26  1  6  0  0  0
 10 11  1  0  0  0  0
 10 12  1  0  0  0  0
 10 27  1  6  0  0  0
 11 23  1  6  0  0  0
 11 28  1  0  0  0  0
 12 19  1  0  0  0  0
 12 22  1  0  0  0  0
 12 24  1  6  0  0  0
 13 14  1  0  0  0  0
 13 29  1  0  0  0  0
 13 30  1  0  0  0  0
 14 18  1  0  0  0  0
 14 20  1  0  0  0  0
 15 20  1  0  0  0  0
 15 31  1  0  0  0  0
 15 32  1  0  0  0  0
 16 18  1  0  0  0  0
 16 33  1  0  0  0  0
 16 34  1  0  0  0  0
 17 21  1  0  0  0  0
 17 35  1  0  0  0  0
 17 36  1  0  0  0  0
 18 37  1  0  0  0  0
 18 38  1  0  0  0  0
 19 21  1  0  0  0  0
 19 39  1  0  0  0  0
 19 40  1  0  0  0  0
 20 25  2  0  0  0  0
 21 41  1  0  0  0  0
 24 42  1  0  0  0  0
 24 43  1  0  0  0  0
 24 44  1  0  0  0  0
 25 46  1  0  0  0  0
 25 47  1  0  0  0  0
M  END
> <PUBCHEM_COMPOUND_CID>
14605548

> <PUBCHEM_COMPOUND_CANONICALIZED>
1

> <PUBCHEM_CACTVS_COMPLEXITY>
731

> <PUBCHEM_CACTVS_HBOND_ACCEPTOR>
6

> <PUBCHEM_CACTVS_HBOND_DONOR>
3

> <PUBCHEM_CACTVS_ROTATABLE_BOND>
1

> <PUBCHEM_CACTVS_SUBSKEYS>
AAADceB4OAAAAAAAAAAAAAAAAAAAAaMEAAAwYAAABogSAGDAAAAAGgAACAAAD1SggAICCAAABgCIAgDSCAAAAAAgAAAAAAEAAAgAFBIAAQACQAAFgAAAEAHK7vzPgAAAAAAAAADAAAYQADAAAYAADAAAAA==

> <PUBCHEM_IUPAC_INCHI>
InChI=1S/C19H24O6/c1-9-5-17-8-18(9,24)4-3-11(17)19-7-10(20)6-16(2,15(23)25-19)13(19)12(17)14(21)22/h10-13,20,24H,1,3-8H2,2H3,(H,21,22)/t10-,11-,12-,13-,16-,17+,18+,19-/m1/s1

> <PUBCHEM_IUPAC_INCHIKEY>
BKBYHSYZKIAJDA-WWSAFQOPSA-N

> <PUBCHEM_XLOGP3_AA>
0.2

> <PUBCHEM_EXACT_MASS>
348.157288

> <PUBCHEM_MOLECULAR_FORMULA>
C19H24O6

> <PUBCHEM_MOLECULAR_WEIGHT>
348.39026

> <PUBCHEM_OPENEYE_CAN_SMILES>
CC12CC(CC3(C1C(C45C3CCC(C4)(C(=C)C5)O)C(=O)O)OC2=O)O

> <PUBCHEM_OPENEYE_ISO_SMILES>
C[C@@]12C[C@H](C[C@@]3([C@@H]1[C@@H]([C@]45[C@H]3CC[C@](C4)(C(=C)C5)O)C(=O)O)OC2=O)O

> <PUBCHEM_CACTVS_TPSA>
104

> <PUBCHEM_MONOISOTOPIC_WEIGHT>
348.157288

> <PUBCHEM_TOTAL_CHARGE>
0

> <PUBCHEM_HEAVY_ATOM_COUNT>
25

> <PUBCHEM_ATOM_DEF_STEREO_COUNT>
8

> <PUBCHEM_ATOM_UDEF_STEREO_COUNT>
0

> <PUBCHEM_BOND_DEF_STEREO_COUNT>
0

> <PUBCHEM_BOND_UDEF_STEREO_COUNT>
0

> <PUBCHEM_ISOTOPIC_ATOM_COUNT>
0

> <PUBCHEM_COMPONENT_COUNT>
1

> <PUBCHEM_CACTVS_TAUTO_COUNT>
1

> <PUBCHEM_COORDINATE_TYPE>
1
5
255

> <PUBCHEM_BONDANNOTATIONS>
8  1  5
10  27  6
11  23  6
12  24  6
14  2  5
21  3  6
7  13  5
9  26  6

$$$$

