10593857
  -OEChem-07051213093D

 50 49  0     1  0  0  0  0  0999 V2000
    3.2042    2.8243    0.8335 O   0  0  0  0  0  0  0  0  0  0  0  0
   -6.6211    1.9587    2.5853 O   0  0  0  0  0  0  0  0  0  0  0  0
   -7.9826    2.8428   -0.6695 O   0  0  0  0  0  0  0  0  0  0  0  0
    3.8197    0.5303    0.4813 C   0  0  0  0  0  0  0  0  0  0  0  0
    4.8005   -0.4937   -0.1137 C   0  0  0  0  0  0  0  0  0  0  0  0
    4.2129    1.9980    0.2496 C   0  0  2  0  0  0  0  0  0  0  0  0
    4.4314   -1.9675    0.0869 C   0  0  0  0  0  0  0  0  0  0  0  0
    5.5502    2.4299    0.8001 C   0  0  0  0  0  0  0  0  0  0  0  0
    4.3789   -2.3780    1.5307 C   0  0  0  0  0  0  0  0  0  0  0  0
    6.5719    2.9679    0.1185 C   0  0  0  0  0  0  0  0  0  0  0  0
    3.2726   -2.8407    2.1289 C   0  0  0  0  0  0  0  0  0  0  0  0
   -2.4882   -2.7479   -2.5023 C   0  0  0  0  0  0  0  0  0  0  0  0
   -2.4506   -3.5615   -1.2038 C   0  0  0  0  0  0  0  0  0  0  0  0
   -2.2227   -1.2491   -2.3188 C   0  0  0  0  0  0  0  0  0  0  0  0
    2.0462   -2.9787    1.4256 C   0  0  0  0  0  0  0  0  0  0  0  0
    6.4889    3.1988   -1.2818 C   0  0  0  0  0  0  0  0  0  0  0  0
   -1.1994   -3.3881   -0.4539 C   0  0  0  0  0  0  0  0  0  0  0  0
   -3.2695   -0.5761   -1.5382 C   0  0  0  0  0  0  0  0  0  0  0  0
    1.0080   -3.1037    0.8359 C   0  0  0  0  0  0  0  0  0  0  0  0
   -7.0689    1.7147    1.2553 C   0  0  1  0  0  0  0  0  0  0  0  0
   -0.1739   -3.2534    0.1558 C   0  0  0  0  0  0  0  0  0  0  0  0
   -7.4921    3.0465    0.6480 C   0  0  0  0  0  0  0  0  0  0  0  0
    6.4225    3.4005   -2.4633 C   0  0  0  0  0  0  0  0  0  0  0  0
   -4.1288   -0.0320   -0.9002 C   0  0  0  0  0  0  0  0  0  0  0  0
   -5.9912    1.0884    0.4757 C   0  0  0  0  0  0  0  0  0  0  0  0
   -5.1187    0.5697   -0.1655 C   0  0  0  0  0  0  0  0  0  0  0  0
    3.7164    0.3623    1.5611 H   0  0  0  0  0  0  0  0  0  0  0  0
    2.8194    0.3557    0.0638 H   0  0  0  0  0  0  0  0  0  0  0  0
    5.7985   -0.3261    0.3105 H   0  0  0  0  0  0  0  0  0  0  0  0
    4.8897   -0.3064   -1.1914 H   0  0  0  0  0  0  0  0  0  0  0  0
    4.1645    2.1834   -0.8287 H   0  0  0  0  0  0  0  0  0  0  0  0
    3.5025   -2.1685   -0.4556 H   0  0  0  0  0  0  0  0  0  0  0  0
    5.1972   -2.5828   -0.4026 H   0  0  0  0  0  0  0  0  0  0  0  0
    5.6857    2.2880    1.8712 H   0  0  0  0  0  0  0  0  0  0  0  0
    5.2943   -2.2945    2.1106 H   0  0  0  0  0  0  0  0  0  0  0  0
    2.3556    2.5933    0.4185 H   0  0  0  0  0  0  0  0  0  0  0  0
    7.4863    3.2389    0.6354 H   0  0  0  0  0  0  0  0  0  0  0  0
    3.3025   -3.1218    3.1763 H   0  0  0  0  0  0  0  0  0  0  0  0
   -1.7301   -3.1452   -3.1898 H   0  0  0  0  0  0  0  0  0  0  0  0
   -3.4617   -2.8983   -2.9857 H   0  0  0  0  0  0  0  0  0  0  0  0
   -2.5840   -4.6218   -1.4488 H   0  0  0  0  0  0  0  0  0  0  0  0
   -3.2981   -3.2829   -0.5667 H   0  0  0  0  0  0  0  0  0  0  0  0
   -2.1779   -0.7861   -3.3124 H   0  0  0  0  0  0  0  0  0  0  0  0
   -1.2427   -1.0766   -1.8612 H   0  0  0  0  0  0  0  0  0  0  0  0
   -7.9248    1.0329    1.3040 H   0  0  0  0  0  0  0  0  0  0  0  0
   -8.2731    3.5234    1.2503 H   0  0  0  0  0  0  0  0  0  0  0  0
   -6.6529    3.7496    0.5974 H   0  0  0  0  0  0  0  0  0  0  0  0
    6.3628    3.5791   -3.5115 H   0  0  0  0  0  0  0  0  0  0  0  0
   -5.8894    2.5984    2.5472 H   0  0  0  0  0  0  0  0  0  0  0  0
   -8.7466    2.2442   -0.6084 H   0  0  0  0  0  0  0  0  0  0  0  0
  1  6  1  0  0  0  0
  1 36  1  0  0  0  0
  2 20  1  0  0  0  0
  2 49  1  0  0  0  0
  3 22  1  0  0  0  0
  3 50  1  0  0  0  0
  4  5  1  0  0  0  0
  4  6  1  0  0  0  0
  4 27  1  0  0  0  0
  4 28  1  0  0  0  0
  5  7  1  0  0  0  0
  5 29  1  0  0  0  0
  5 30  1  0  0  0  0
  6  8  1  0  0  0  0
  6 31  1  0  0  0  0
  7  9  1  0  0  0  0
  7 32  1  0  0  0  0
  7 33  1  0  0  0  0
  8 10  2  0  0  0  0
  8 34  1  0  0  0  0
  9 11  2  0  0  0  0
  9 35  1  0  0  0  0
 10 16  1  0  0  0  0
 10 37  1  0  0  0  0
 11 15  1  0  0  0  0
 11 38  1  0  0  0  0
 12 13  1  0  0  0  0
 12 14  1  0  0  0  0
 12 39  1  0  0  0  0
 12 40  1  0  0  0  0
 13 17  1  0  0  0  0
 13 41  1  0  0  0  0
 13 42  1  0  0  0  0
 14 18  1  0  0  0  0
 14 43  1  0  0  0  0
 14 44  1  0  0  0  0
 15 19  3  0  0  0  0
 16 23  3  0  0  0  0
 17 21  3  0  0  0  0
 18 24  3  0  0  0  0
 19 21  1  0  0  0  0
 20 22  1  0  0  0  0
 20 25  1  0  0  0  0
 20 45  1  0  0  0  0
 22 46  1  0  0  0  0
 22 47  1  0  0  0  0
 23 48  1  0  0  0  0
 24 26  1  0  0  0  0
 25 26  3  0  0  0  0
M  END
> <PUBCHEM_COMPOUND_CID>
10593857

> <PUBCHEM_CONFORMER_RMSD>
1.4

> <PUBCHEM_CONFORMER_DIVERSEORDER>
11
500
25
146
151
132
356
113
336
71
178
436
94
17
267
346
180
3
31
21
411
496
488
44
68
504
435
293
78
103
134
544
396
212
37
81
457
89
16
213
2
526
92
434
4
232
23
558
307
171
74
179
29
416
340
197
532
318
122
67
5
181
182
8
142
366
263
15
393
513
50
70
13
540
1
62
238
35
9
377
38
48
58
18
14
465
266
149
7
34
305
260
30
562
124
174
419
114
324
64
24
12
63
378
77
53
224
80
399
497
105
460
162
284
20
115
311
274
306
26
454
52
206
557
363
143
130
330
84
394
51
348
353
510
218
264
83
36
91
329
437
498
47
323
198
321
552
376
403
33
485
549
528
468
410
196
202
512
72

> <PUBCHEM_MMFF94_PARTIAL_CHARGES>
27
1 -0.68
10 -0.09
11 -0.09
13 0.2
14 0.2
15 -0.06
16 -0.06
17 -0.2
18 -0.2
2 -0.68
20 0.48
22 0.28
23 -0.18
25 -0.2
3 -0.68
34 0.15
35 0.15
36 0.4
37 0.15
38 0.15
48 0.18
49 0.4
50 0.4
6 0.42
7 0.14
8 -0.29
9 -0.29

> <PUBCHEM_EFFECTIVE_ROTOR_COUNT>
8

> <PUBCHEM_PHARMACOPHORE_FEATURES>
9
1 1 acceptor
1 1 donor
1 2 acceptor
1 2 donor
1 23 hydrophobe
1 3 acceptor
1 3 donor
4 4 5 7 9 hydrophobe
5 12 13 14 17 18 hydrophobe

> <PUBCHEM_HEAVY_ATOM_COUNT>
26

> <PUBCHEM_ATOM_DEF_STEREO_COUNT>
0

> <PUBCHEM_ATOM_UDEF_STEREO_COUNT>
2

> <PUBCHEM_BOND_DEF_STEREO_COUNT>
2

> <PUBCHEM_BOND_UDEF_STEREO_COUNT>
0

> <PUBCHEM_ISOTOPIC_ATOM_COUNT>
0

> <PUBCHEM_COMPONENT_COUNT>
1

> <PUBCHEM_CACTVS_TAUTO_COUNT>
1

> <PUBCHEM_CONFORMER_ID>
00A1A6410000000B

> <PUBCHEM_MMFF94_ENERGY>
15.7331

> <PUBCHEM_FEATURE_SELFOVERLAP>
45.669

> <PUBCHEM_SHAPE_FINGERPRINT>
11374522 165 17389696032487491320
11479125 193 18342463655438509649
11505856 67 18189067404241038503
13885169 86 18334580187374700131
14251764 75 18341331106948178792
14765038 42 18341613672741146628
15357212 105 18411412895507826502
15406563 185 16732987548268720705
16992779 147 18131634508726169642
1768 23 18259988206023356619
20691028 202 18411421683126490978
21458453 9 18060412530909741651
21774942 28 18188498961244984362
4112364 45 18338230587791070581
5951187 136 18261106409391009638

> <PUBCHEM_SHAPE_MULTIPOLES>
517.46
23.11
6.53
2.3
21.22
0.69
-0.64
-35.91
2.86
-3.44
-0.02
0.7
0.36
-7.74

> <PUBCHEM_SHAPE_SELFOVERLAP>
1004.207

> <PUBCHEM_SHAPE_VOLUME>
306

> <PUBCHEM_COORDINATE_TYPE>
2
5
10

$$$$

