3028194
  -OEChem-07051213072D

  1  0  0     0  0  0  0  0  0999 V2000
    2.0000    0.0000    0.0000 Li  0  4  0  0  0  0  0  0  0  0  0  0
M  RAD  1   1   2
M  END
> <PUBCHEM_COMPOUND_CID>
3028194

> <PUBCHEM_COMPOUND_CANONICALIZED>
1

> <PUBCHEM_CACTVS_COMPLEXITY>
0

> <PUBCHEM_CACTVS_HBOND_ACCEPTOR>
0

> <PUBCHEM_CACTVS_HBOND_DONOR>
0

> <PUBCHEM_CACTVS_ROTATABLE_BOND>
0

> <PUBCHEM_CACTVS_SUBSKEYS>
AAADcQgAAAAAAAAAAAAAAAAAAAAAAAAAAAAAAAAAAAAAAAAAAAAAAAAAAAAAAAAAAAAAAAAAAAAAAAAAAAAAAAAAAAAAAAAAAAAAAAAAAAAAAAAAAAAAAAAAAAAAAAAAAAAAAAAAAAAAAAAAAAAAAAAAAA==

> <PUBCHEM_IUPAC_OPENEYE_NAME>
lithium

> <PUBCHEM_IUPAC_CAS_NAME>
lithium

> <PUBCHEM_IUPAC_NAME>
lithium

> <PUBCHEM_IUPAC_SYSTEMATIC_NAME>
lithium

> <PUBCHEM_IUPAC_TRADITIONAL_NAME>
lithium

> <PUBCHEM_IUPAC_INCHI>
InChI=1S/Li

> <PUBCHEM_IUPAC_INCHIKEY>
WHXSMMKQMYFTQS-UHFFFAOYSA-N

> <PUBCHEM_EXACT_MASS>
7.016005

> <PUBCHEM_MOLECULAR_FORMULA>
Li

> <PUBCHEM_MOLECULAR_WEIGHT>
6.941

> <PUBCHEM_OPENEYE_CAN_SMILES>
[Li]

> <PUBCHEM_OPENEYE_ISO_SMILES>
[Li]

> <PUBCHEM_CACTVS_TPSA>
0

> <PUBCHEM_MONOISOTOPIC_WEIGHT>
7.016005

> <PUBCHEM_TOTAL_CHARGE>
0

> <PUBCHEM_HEAVY_ATOM_COUNT>
1

> <PUBCHEM_ATOM_DEF_STEREO_COUNT>
0

> <PUBCHEM_ATOM_UDEF_STEREO_COUNT>
0

> <PUBCHEM_BOND_DEF_STEREO_COUNT>
0

> <PUBCHEM_BOND_UDEF_STEREO_COUNT>
0

> <PUBCHEM_ISOTOPIC_ATOM_COUNT>
0

> <PUBCHEM_COMPONENT_COUNT>
1

> <PUBCHEM_CACTVS_TAUTO_COUNT>
1

> <PUBCHEM_COORDINATE_TYPE>
1
5
255

$$$$

