9515
  -OEChem-06261203463D

 23 23  0     0  0  0  0  0  0999 V2000
   -5.0036   -0.1178   -0.0070 F   0  0  0  0  0  0  0  0  0  0  0  0
    3.8432   -0.6621   -0.0013 O   0  0  0  0  0  0  0  0  0  0  0  0
   -2.6455   -1.3027    0.0030 O   0  0  0  0  0  0  0  0  0  0  0  0
   -1.5155    0.7660    0.0011 N   0  0  0  0  0  0  0  0  0  0  0  0
   -0.1675    0.4070    0.0012 C   0  0  0  0  0  0  0  0  0  0  0  0
    0.8177    1.3946    0.0008 C   0  0  0  0  0  0  0  0  0  0  0  0
    0.1953   -0.9399    0.0008 C   0  0  0  0  0  0  0  0  0  0  0  0
    2.5282   -0.3116   -0.0008 C   0  0  0  0  0  0  0  0  0  0  0  0
    2.1655    1.0353   -0.0003 C   0  0  0  0  0  0  0  0  0  0  0  0
    1.5431   -1.2991   -0.0001 C   0  0  0  0  0  0  0  0  0  0  0  0
   -2.6356   -0.0762    0.0021 C   0  0  0  0  0  0  0  0  0  0  0  0
   -3.9232    0.7085    0.0016 C   0  0  0  0  0  0  0  0  0  0  0  0
    4.7980    0.3981   -0.0013 C   0  0  0  0  0  0  0  0  0  0  0  0
    0.5484    2.4479    0.0010 H   0  0  0  0  0  0  0  0  0  0  0  0
   -0.5090   -1.7601    0.0009 H   0  0  0  0  0  0  0  0  0  0  0  0
    2.8784    1.8527   -0.0008 H   0  0  0  0  0  0  0  0  0  0  0  0
    1.8209   -2.3497   -0.0004 H   0  0  0  0  0  0  0  0  0  0  0  0
   -1.6979    1.7675    0.0008 H   0  0  0  0  0  0  0  0  0  0  0  0
   -3.9736    1.3410   -0.8890 H   0  0  0  0  0  0  0  0  0  0  0  0
   -3.9799    1.3309    0.8990 H   0  0  0  0  0  0  0  0  0  0  0  0
    4.7265    1.0040    0.9084 H   0  0  0  0  0  0  0  0  0  0  0  0
    4.7262    1.0044   -0.9106 H   0  0  0  0  0  0  0  0  0  0  0  0
    5.7917   -0.0618   -0.0016 H   0  0  0  0  0  0  0  0  0  0  0  0
  1 12  1  0  0  0  0
  2  8  1  0  0  0  0
  2 13  1  0  0  0  0
  3 11  2  0  0  0  0
  4  5  1  0  0  0  0
  4 11  1  0  0  0  0
  4 18  1  0  0  0  0
  5  6  2  0  0  0  0
  5  7  1  0  0  0  0
  6  9  1  0  0  0  0
  6 14  1  0  0  0  0
  7 10  2  0  0  0  0
  7 15  1  0  0  0  0
  8  9  2  0  0  0  0
  8 10  1  0  0  0  0
  9 16  1  0  0  0  0
 10 17  1  0  0  0  0
 11 12  1  0  0  0  0
 12 19  1  0  0  0  0
 12 20  1  0  0  0  0
 13 21  1  0  0  0  0
 13 22  1  0  0  0  0
 13 23  1  0  0  0  0
M  END
> <PUBCHEM_COMPOUND_CID>
9515

> <PUBCHEM_CONFORMER_RMSD>
0.6

> <PUBCHEM_CONFORMER_DIVERSEORDER>
2
6
3
5
4
7
1

> <PUBCHEM_MMFF94_PARTIAL_CHARGES>
18
1 -0.34
10 -0.15
11 0.57
12 0.4
13 0.28
14 0.15
15 0.15
16 0.15
17 0.15
18 0.37
2 -0.36
3 -0.57
4 -0.55
5 0.12
6 -0.15
7 -0.15
8 0.08
9 -0.15

> <PUBCHEM_EFFECTIVE_ROTOR_COUNT>
4

> <PUBCHEM_PHARMACOPHORE_FEATURES>
4
1 2 acceptor
1 3 acceptor
1 4 donor
6 5 6 7 8 9 10 rings

> <PUBCHEM_HEAVY_ATOM_COUNT>
13

> <PUBCHEM_ATOM_DEF_STEREO_COUNT>
0

> <PUBCHEM_ATOM_UDEF_STEREO_COUNT>
0

> <PUBCHEM_BOND_DEF_STEREO_COUNT>
0

> <PUBCHEM_BOND_UDEF_STEREO_COUNT>
0

> <PUBCHEM_ISOTOPIC_ATOM_COUNT>
0

> <PUBCHEM_COMPONENT_COUNT>
1

> <PUBCHEM_CACTVS_TAUTO_COUNT>
2

> <PUBCHEM_CONFORMER_ID>
0000252B00000002

> <PUBCHEM_MMFF94_ENERGY>
41.031

> <PUBCHEM_FEATURE_SELFOVERLAP>
20.297

> <PUBCHEM_SHAPE_FINGERPRINT>
10219947 1 18334292084946550646
11062470 55 17775283880394304467
11132069 177 18410014329743979010
11401426 45 18410296899921480360
11471102 20 18410577292350213140
12032990 46 18408880763557967806
12932764 1 16917083130697525381
13380535 76 18410571795045678003
13690532 89 18412263969384299634
13922767 16 18334016077310473992
14252887 29 18040707099941877390
14325111 11 18410575041729412097
14911166 2 18410848863649167614
14993402 34 18334572439052809206
17834072 33 18040439849886256181
18522853 276 18334857225017054793
200 152 18113340808308441701
20201158 50 18412261757154525299
20279233 1 18201993339755174435
20645477 70 18335984284734197334
21267235 1 18409720768539516675
22485316 2 18341897398175257322
23402539 116 18410864256268676535
23402655 69 18336273439586842645
23559900 14 18408322177787048402
366044 4 18411419501441418618
8809292 202 18201152170326032355

> <PUBCHEM_SHAPE_MULTIPOLES>
243.54
8.43
1.3
0.59
2.92
0.06
0
-0.25
-0.01
-0.19
0
-0.05
-0.01
0

> <PUBCHEM_SHAPE_SELFOVERLAP>
500.623

> <PUBCHEM_SHAPE_VOLUME>
140.6

> <PUBCHEM_COORDINATE_TYPE>
2
5
10

$$$$

