441683
  -OEChem-07051212552D

 99103  0     1  0  0  0  0  0999 V2000
   10.5269    1.0320    0.0000 O   0  0  0  0  0  0  0  0  0  0  0  0
   13.2390    1.5952    0.0000 O   0  0  0  0  0  0  0  0  0  0  0  0
    5.9998   -3.5204    0.0000 O   0  0  0  0  0  0  0  0  0  0  0  0
   13.2739    4.3063    0.0000 O   0  0  0  0  0  0  0  0  0  0  0  0
    8.7948    1.0320    0.0000 O   0  0  0  0  0  0  0  0  0  0  0  0
    5.1396   -2.0170    0.0000 O   0  0  0  0  0  0  0  0  0  0  0  0
    2.5357   -3.5070    0.0000 O   0  0  0  0  0  0  0  0  0  0  0  0
    3.4075   -2.0104    0.0000 O   0  0  0  0  0  0  0  0  0  0  0  0
   10.5269   -1.9680    0.0000 C   0  0  1  0  0  0  0  0  0  0  0  0
   11.3929   -1.4680    0.0000 C   0  0  1  0  0  0  0  0  0  0  0  0
    9.6608   -1.4680    0.0000 C   0  0  1  0  0  0  0  0  0  0  0  0
   11.3929   -0.4680    0.0000 C   0  0  1  0  0  0  0  0  0  0  0  0
    8.7508   -1.9749    0.0000 C   0  0  2  0  0  0  0  0  0  0  0  0
    8.7428   -3.0165    0.0000 C   0  0  1  0  0  0  0  0  0  0  0  0
   12.3391   -0.1633    0.0000 C   0  0  2  0  0  0  0  0  0  0  0  0
   10.5429   -3.0095    0.0000 C   0  0  0  0  0  0  0  0  0  0  0  0
    9.6608   -0.4680    0.0000 C   0  0  0  0  0  0  0  0  0  0  0  0
   10.5269    0.0320    0.0000 C   0  0  1  0  0  0  0  0  0  0  0  0
   12.3391   -1.7728    0.0000 C   0  0  0  0  0  0  0  0  0  0  0  0
    9.6449   -3.5373    0.0000 C   0  0  0  0  0  0  0  0  0  0  0  0
   12.9227   -0.9680    0.0000 C   0  0  0  0  0  0  0  0  0  0  0  0
    7.8074   -3.5662    0.0000 C   0  0  0  0  0  0  0  0  0  0  0  0
    7.8240   -1.4108    0.0000 C   0  0  0  0  0  0  0  0  0  0  0  0
   11.1697   -2.7341    0.0000 C   0  0  0  0  0  0  0  0  0  0  0  0
   11.7350   -2.4077    0.0000 C   0  0  0  0  0  0  0  0  0  0  0  0
   12.6498    0.7872    0.0000 C   0  0  2  0  0  0  0  0  0  0  0  0
    8.7586   -0.9749    0.0000 C   0  0  0  0  0  0  0  0  0  0  0  0
    6.8678   -3.0237    0.0000 C   0  0  1  0  0  0  0  0  0  0  0  0
    6.8761   -1.9387    0.0000 C   0  0  0  0  0  0  0  0  0  0  0  0
   11.6993    1.0979    0.0000 C   0  0  0  0  0  0  0  0  0  0  0  0
    7.3107   -4.4342    0.0000 C   0  0  0  0  0  0  0  0  0  0  0  0
    8.3107   -4.4303    0.0000 C   0  0  0  0  0  0  0  0  0  0  0  0
   13.4578    0.1980    0.0000 C   0  0  0  0  0  0  0  0  0  0  0  0
   11.7010    2.0979    0.0000 C   0  0  0  0  0  0  0  0  0  0  0  0
   12.6526    2.4052    0.0000 C   0  0  2  0  0  0  0  0  0  0  0  0
   12.9632    3.3558    0.0000 C   0  0  0  0  0  0  0  0  0  0  0  0
    9.6608    1.5320    0.0000 C   0  0  0  0  0  0  0  0  0  0  0  0
    5.1357   -3.0170    0.0000 C   0  0  0  0  0  0  0  0  0  0  0  0
   13.9138    3.0451    0.0000 C   0  0  0  0  0  0  0  0  0  0  0  0
   12.0127    3.6664    0.0000 C   0  0  0  0  0  0  0  0  0  0  0  0
    9.6608    2.5320    0.0000 C   0  0  0  0  0  0  0  0  0  0  0  0
    4.2678   -3.5137    0.0000 C   0  0  0  0  0  0  0  0  0  0  0  0
    3.4037   -3.0104    0.0000 C   0  0  0  0  0  0  0  0  0  0  0  0
   10.3970   -1.0430    0.0000 H   0  0  0  0  0  0  0  0  0  0  0  0
   11.4828    0.3772    0.0000 H   0  0  0  0  0  0  0  0  0  0  0  0
    8.7461   -3.8665    0.0000 H   0  0  0  0  0  0  0  0  0  0  0  0
   13.1788   -0.0314    0.0000 H   0  0  0  0  0  0  0  0  0  0  0  0
   10.7610   -3.5899    0.0000 H   0  0  0  0  0  0  0  0  0  0  0  0
   11.1521   -2.8940    0.0000 H   0  0  0  0  0  0  0  0  0  0  0  0
    9.4488    0.1146    0.0000 H   0  0  0  0  0  0  0  0  0  0  0  0
    9.0503   -0.5757    0.0000 H   0  0  0  0  0  0  0  0  0  0  0  0
   11.0638    0.3420    0.0000 H   0  0  0  0  0  0  0  0  0  0  0  0
   12.0881   -2.3397    0.0000 H   0  0  0  0  0  0  0  0  0  0  0  0
   12.8765   -2.0820    0.0000 H   0  0  0  0  0  0  0  0  0  0  0  0
    9.2476   -4.0133    0.0000 H   0  0  0  0  0  0  0  0  0  0  0  0
   10.0459   -4.0102    0.0000 H   0  0  0  0  0  0  0  0  0  0  0  0
   13.3836   -1.3828    0.0000 H   0  0  0  0  0  0  0  0  0  0  0  0
   13.3836   -0.5533    0.0000 H   0  0  0  0  0  0  0  0  0  0  0  0
    8.2322   -0.9441    0.0000 H   0  0  0  0  0  0  0  0  0  0  0  0
    7.4341   -0.9288    0.0000 H   0  0  0  0  0  0  0  0  0  0  0  0
   10.6947   -3.1326    0.0000 H   0  0  0  0  0  0  0  0  0  0  0  0
   11.5682   -3.2090    0.0000 H   0  0  0  0  0  0  0  0  0  0  0  0
   11.6446   -2.3356    0.0000 H   0  0  0  0  0  0  0  0  0  0  0  0
   11.1524   -2.6198    0.0000 H   0  0  0  0  0  0  0  0  0  0  0  0
   11.9471   -2.9903    0.0000 H   0  0  0  0  0  0  0  0  0  0  0  0
   12.3176   -2.1956    0.0000 H   0  0  0  0  0  0  0  0  0  0  0  0
    9.3785   -0.9797    0.0000 H   0  0  0  0  0  0  0  0  0  0  0  0
    8.7633   -0.3549    0.0000 H   0  0  0  0  0  0  0  0  0  0  0  0
    8.1386   -0.9701    0.0000 H   0  0  0  0  0  0  0  0  0  0  0  0
    6.8666   -3.6437    0.0000 H   0  0  0  0  0  0  0  0  0  0  0  0
    6.6716   -1.3535    0.0000 H   0  0  0  0  0  0  0  0  0  0  0  0
    6.2645   -2.0401    0.0000 H   0  0  0  0  0  0  0  0  0  0  0  0
   11.0828    1.1638    0.0000 H   0  0  0  0  0  0  0  0  0  0  0  0
   11.5693    0.4917    0.0000 H   0  0  0  0  0  0  0  0  0  0  0  0
    7.7750   -4.7424    0.0000 H   0  0  0  0  0  0  0  0  0  0  0  0
    8.6228   -4.9660    0.0000 H   0  0  0  0  0  0  0  0  0  0  0  0
    6.7726   -4.1262    0.0000 H   0  0  0  0  0  0  0  0  0  0  0  0
    7.0028   -4.9723    0.0000 H   0  0  0  0  0  0  0  0  0  0  0  0
    7.8489   -4.7421    0.0000 H   0  0  0  0  0  0  0  0  0  0  0  0
    8.8465   -4.1182    0.0000 H   0  0  0  0  0  0  0  0  0  0  0  0
   13.0925   -0.3029    0.0000 H   0  0  0  0  0  0  0  0  0  0  0  0
   13.9587   -0.1673    0.0000 H   0  0  0  0  0  0  0  0  0  0  0  0
   13.8231    0.6990    0.0000 H   0  0  0  0  0  0  0  0  0  0  0  0
   11.5731    2.7046    0.0000 H   0  0  0  0  0  0  0  0  0  0  0  0
   11.0843    2.0341    0.0000 H   0  0  0  0  0  0  0  0  0  0  0  0
   13.4923    2.5368    0.0000 H   0  0  0  0  0  0  0  0  0  0  0  0
   13.7212    2.4558    0.0000 H   0  0  0  0  0  0  0  0  0  0  0  0
   14.5031    2.8525    0.0000 H   0  0  0  0  0  0  0  0  0  0  0  0
   14.1064    3.6344    0.0000 H   0  0  0  0  0  0  0  0  0  0  0  0
   12.2053    4.2558    0.0000 H   0  0  0  0  0  0  0  0  0  0  0  0
   11.4234    3.8590    0.0000 H   0  0  0  0  0  0  0  0  0  0  0  0
   11.8201    3.0771    0.0000 H   0  0  0  0  0  0  0  0  0  0  0  0
   10.2808    2.5320    0.0000 H   0  0  0  0  0  0  0  0  0  0  0  0
    9.6608    3.1520    0.0000 H   0  0  0  0  0  0  0  0  0  0  0  0
    9.0408    2.5320    0.0000 H   0  0  0  0  0  0  0  0  0  0  0  0
   13.8806    4.4342    0.0000 H   0  0  0  0  0  0  0  0  0  0  0  0
    3.8674   -3.9871    0.0000 H   0  0  0  0  0  0  0  0  0  0  0  0
    4.6645   -3.9902    0.0000 H   0  0  0  0  0  0  0  0  0  0  0  0
    2.0000   -3.1949    0.0000 H   0  0  0  0  0  0  0  0  0  0  0  0
 18  1  1  1  0  0  0
  1 37  1  0  0  0  0
  2 26  1  0  0  0  0
  2 35  1  0  0  0  0
 28  3  1  6  0  0  0
  3 38  1  0  0  0  0
  4 36  1  0  0  0  0
  4 96  1  0  0  0  0
  5 37  2  0  0  0  0
  6 38  2  0  0  0  0
  7 43  1  0  0  0  0
  7 99  1  0  0  0  0
  8 43  2  0  0  0  0
  9 10  1  0  0  0  0
  9 11  1  0  0  0  0
  9 16  1  0  0  0  0
  9 24  1  1  0  0  0
 10 12  1  0  0  0  0
 10 19  1  0  0  0  0
 10 25  1  6  0  0  0
 11 13  1  0  0  0  0
 11 17  1  0  0  0  0
 11 44  1  6  0  0  0
 12 15  1  0  0  0  0
 12 18  1  0  0  0  0
 12 45  1  1  0  0  0
 13 14  1  0  0  0  0
 13 23  1  0  0  0  0
 13 27  1  1  0  0  0
 14 20  1  0  0  0  0
 14 22  1  0  0  0  0
 14 46  1  6  0  0  0
 15 21  1  0  0  0  0
 15 26  1  0  0  0  0
 15 47  1  6  0  0  0
 16 20  1  0  0  0  0
 16 48  1  0  0  0  0
 16 49  1  0  0  0  0
 17 18  1  0  0  0  0
 17 50  1  0  0  0  0
 17 51  1  0  0  0  0
 18 52  1  0  0  0  0
 19 21  1  0  0  0  0
 19 53  1  0  0  0  0
 19 54  1  0  0  0  0
 20 55  1  0  0  0  0
 20 56  1  0  0  0  0
 21 57  1  0  0  0  0
 21 58  1  0  0  0  0
 22 28  1  0  0  0  0
 22 31  1  0  0  0  0
 22 32  1  0  0  0  0
 23 29  1  0  0  0  0
 23 59  1  0  0  0  0
 23 60  1  0  0  0  0
 24 61  1  0  0  0  0
 24 62  1  0  0  0  0
 24 63  1  0  0  0  0
 25 64  1  0  0  0  0
 25 65  1  0  0  0  0
 25 66  1  0  0  0  0
 26 30  1  0  0  0  0
 26 33  1  1  0  0  0
 27 67  1  0  0  0  0
 27 68  1  0  0  0  0
 27 69  1  0  0  0  0
 28 29  1  0  0  0  0
 28 70  1  0  0  0  0
 29 71  1  0  0  0  0
 29 72  1  0  0  0  0
 30 34  1  0  0  0  0
 30 73  1  0  0  0  0
 30 74  1  0  0  0  0
 31 77  1  0  0  0  0
 31 78  1  0  0  0  0
 31 79  1  0  0  0  0
 32 75  1  0  0  0  0
 32 76  1  0  0  0  0
 32 80  1  0  0  0  0
 33 81  1  0  0  0  0
 33 82  1  0  0  0  0
 33 83  1  0  0  0  0
 34 35  1  0  0  0  0
 34 84  1  0  0  0  0
 34 85  1  0  0  0  0
 35 36  1  0  0  0  0
 35 86  1  1  0  0  0
 36 39  1  0  0  0  0
 36 40  1  0  0  0  0
 37 41  1  0  0  0  0
 38 42  1  0  0  0  0
 39 87  1  0  0  0  0
 39 88  1  0  0  0  0
 39 89  1  0  0  0  0
 40 90  1  0  0  0  0
 40 91  1  0  0  0  0
 40 92  1  0  0  0  0
 41 93  1  0  0  0  0
 41 94  1  0  0  0  0
 41 95  1  0  0  0  0
 42 43  1  0  0  0  0
 42 97  1  0  0  0  0
 42 98  1  0  0  0  0
M  END
> <PUBCHEM_COMPOUND_CID>
441683

> <PUBCHEM_COMPOUND_CANONICALIZED>
1

> <PUBCHEM_CACTVS_COMPLEXITY>
1150

> <PUBCHEM_CACTVS_HBOND_ACCEPTOR>
8

> <PUBCHEM_CACTVS_HBOND_DONOR>
2

> <PUBCHEM_CACTVS_ROTATABLE_BOND>
8

> <PUBCHEM_CACTVS_SUBSKEYS>
AAADcfB8PAAAAAAAAAAAAAAAAAAAAaIAAAAwYMAAAAAAAGDAAAAAGgAACAAAD1SggAICCAAABgAIAACQCAAAAAAAAAAAAAEAAAABAAYIAAACQAAFIAADAAHA4PQPgAAAAAAAAADAAAYAADAAAQAACAAAAA==

> <PUBCHEM_IUPAC_OPENEYE_NAME>
3-[[(3R,5R,8R,9R,10R,12R,13R,14R,17S)-12-acetoxy-17-[(2S,5R)-5-(1-hydroxy-1-methyl-ethyl)-2-methyl-tetrahydrofuran-2-yl]-4,4,8,10,14-pentamethyl-2,3,5,6,7,9,11,12,13,15,16,17-dodecahydro-1H-cyclopenta[a]phenanthren-3-yl]oxy]-3-oxo-propanoic acid

> <PUBCHEM_IUPAC_CAS_NAME>
3-[[(3R,5R,8R,9R,10R,12R,13R,14R,17S)-12-acetyloxy-17-[(2S,5R)-5-(2-hydroxypropan-2-yl)-2-methyl-2-oxolanyl]-4,4,8,10,14-pentamethyl-2,3,5,6,7,9,11,12,13,15,16,17-dodecahydro-1H-cyclopenta[a]phenanthren-3-yl]oxy]-3-oxopropanoic acid

> <PUBCHEM_IUPAC_NAME>
3-[[(3R,5R,8R,9R,10R,12R,13R,14R,17S)-12-acetyloxy-17-[(2S,5R)-5-(2-hydroxypropan-2-yl)-2-methyloxolan-2-yl]-4,4,8,10,14-pentamethyl-2,3,5,6,7,9,11,12,13,15,16,17-dodecahydro-1H-cyclopenta[a]phenanthren-3-yl]oxy]-3-oxopropanoic acid

> <PUBCHEM_IUPAC_SYSTEMATIC_NAME>
3-[[(3R,5R,8R,9R,10R,12R,13R,14R,17S)-12-acetyloxy-4,4,8,10,14-pentamethyl-17-[(2S,5R)-2-methyl-5-(2-oxidanylpropan-2-yl)oxolan-2-yl]-2,3,5,6,7,9,11,12,13,15,16,17-dodecahydro-1H-cyclopenta[a]phenanthren-3-yl]oxy]-3-oxidanylidene-propanoic acid

> <PUBCHEM_IUPAC_TRADITIONAL_NAME>
3-[[(3R,5R,8R,9R,10R,12R,13R,14R,17S)-12-acetoxy-17-[(2S,5R)-5-(1-hydroxy-1-methyl-ethyl)-2-methyl-tetrahydrofuran-2-yl]-4,4,8,10,14-pentamethyl-2,3,5,6,7,9,11,12,13,15,16,17-dodecahydro-1H-cyclopenta[a]phenanthren-3-yl]oxy]-3-keto-propionic acid

> <PUBCHEM_IUPAC_INCHI>
InChI=1S/C35H56O8/c1-20(36)41-22-18-24-32(6)14-12-25(42-28(39)19-27(37)38)30(2,3)23(32)11-16-33(24,7)34(8)15-10-21(29(22)34)35(9)17-13-26(43-35)31(4,5)40/h21-26,29,40H,10-19H2,1-9H3,(H,37,38)/t21-,22+,23-,24+,25+,26+,29-,32-,33+,34+,35-/m0/s1

> <PUBCHEM_IUPAC_INCHIKEY>
RLVAVWQAAQFUOP-GNYBQDBLSA-N

> <PUBCHEM_XLOGP3_AA>
6.7

> <PUBCHEM_EXACT_MASS>
604.397519

> <PUBCHEM_MOLECULAR_FORMULA>
C35H56O8

> <PUBCHEM_MOLECULAR_WEIGHT>
604.81434

> <PUBCHEM_OPENEYE_CAN_SMILES>
CC(=O)OC1CC2C3(CCC(C(C3CCC2(C4(C1C(CC4)C5(CCC(O5)C(C)(C)O)C)C)C)(C)C)OC(=O)CC(=O)O)C

> <PUBCHEM_OPENEYE_ISO_SMILES>
CC(=O)O[C@@H]1C[C@@H]2[C@]3(CC[C@H](C([C@@H]3CC[C@]2([C@]4([C@H]1[C@H](CC4)[C@@]5(CC[C@@H](O5)C(C)(C)O)C)C)C)(C)C)OC(=O)CC(=O)O)C

> <PUBCHEM_CACTVS_TPSA>
119

> <PUBCHEM_MONOISOTOPIC_WEIGHT>
604.397519

> <PUBCHEM_TOTAL_CHARGE>
0

> <PUBCHEM_HEAVY_ATOM_COUNT>
43

> <PUBCHEM_ATOM_DEF_STEREO_COUNT>
11

> <PUBCHEM_ATOM_UDEF_STEREO_COUNT>
0

> <PUBCHEM_BOND_DEF_STEREO_COUNT>
0

> <PUBCHEM_BOND_UDEF_STEREO_COUNT>
0

> <PUBCHEM_ISOTOPIC_ATOM_COUNT>
0

> <PUBCHEM_COMPONENT_COUNT>
1

> <PUBCHEM_CACTVS_TAUTO_COUNT>
1

> <PUBCHEM_COORDINATE_TYPE>
1
5
255

> <PUBCHEM_BONDANNOTATIONS>
18  1  5
10  25  6
11  44  6
12  45  5
13  27  5
14  46  6
15  47  6
26  33  5
28  3  6
35  86  5
9  24  5

$$$$

