5281145
  -OEChem-07051212553D

 38 37  0     0  0  0  0  0  0999 V2000
   -3.9943    0.4898   -1.0757 O   0  0  0  0  0  0  0  0  0  0  0  0
    3.2243    1.9853   -0.1272 C   0  0  0  0  0  0  0  0  0  0  0  0
    4.1935    1.1715    0.7399 C   0  0  0  0  0  0  0  0  0  0  0  0
    1.7620    1.8750    0.3108 C   0  0  0  0  0  0  0  0  0  0  0  0
    3.9232   -0.3367    0.8036 C   0  0  0  0  0  0  0  0  0  0  0  0
    0.8517    2.6978   -0.6050 C   0  0  0  0  0  0  0  0  0  0  0  0
    3.9186   -0.9885   -0.5487 C   0  0  0  0  0  0  0  0  0  0  0  0
   -0.5789    2.6274   -0.1598 C   0  0  0  0  0  0  0  0  0  0  0  0
    3.2375   -2.1110   -0.8241 C   0  0  0  0  0  0  0  0  0  0  0  0
    2.4016   -2.8511    0.1746 C   0  0  0  0  0  0  0  0  0  0  0  0
   -1.2902    3.6884    0.2378 C   0  0  0  0  0  0  0  0  0  0  0  0
    1.0258   -2.3405    0.1258 C   0  0  0  0  0  0  0  0  0  0  0  0
   -0.0919   -1.9063    0.0631 C   0  0  0  0  0  0  0  0  0  0  0  0
   -1.3610   -1.3938   -0.0294 C   0  0  0  0  0  0  0  0  0  0  0  0
   -2.4675   -0.9370   -0.1196 C   0  0  0  0  0  0  0  0  0  0  0  0
   -3.7965   -0.3792   -0.2361 C   0  0  0  0  0  0  0  0  0  0  0  0
   -4.8572   -0.8873    0.6691 C   0  0  0  0  0  0  0  0  0  0  0  0
   -6.1007   -0.4039    0.6009 C   0  0  0  0  0  0  0  0  0  0  0  0
    3.5317    3.0379   -0.0872 H   0  0  0  0  0  0  0  0  0  0  0  0
    3.3182    1.6786   -1.1758 H   0  0  0  0  0  0  0  0  0  0  0  0
    4.1766    1.5703    1.7620 H   0  0  0  0  0  0  0  0  0  0  0  0
    5.2114    1.3375    0.3639 H   0  0  0  0  0  0  0  0  0  0  0  0
    1.4369    0.8298    0.2885 H   0  0  0  0  0  0  0  0  0  0  0  0
    1.6653    2.2214    1.3473 H   0  0  0  0  0  0  0  0  0  0  0  0
    2.9868   -0.5022    1.3450 H   0  0  0  0  0  0  0  0  0  0  0  0
    4.7218   -0.7938    1.4012 H   0  0  0  0  0  0  0  0  0  0  0  0
    0.9159    2.3170   -1.6314 H   0  0  0  0  0  0  0  0  0  0  0  0
    1.1972    3.7386   -0.6299 H   0  0  0  0  0  0  0  0  0  0  0  0
    4.5303   -0.5504   -1.3330 H   0  0  0  0  0  0  0  0  0  0  0  0
   -1.0604    1.6557   -0.1764 H   0  0  0  0  0  0  0  0  0  0  0  0
    3.3016   -2.5253   -1.8274 H   0  0  0  0  0  0  0  0  0  0  0  0
    2.8089   -2.7763    1.1884 H   0  0  0  0  0  0  0  0  0  0  0  0
    2.4162   -3.9179   -0.0768 H   0  0  0  0  0  0  0  0  0  0  0  0
   -2.3246    3.5722    0.5424 H   0  0  0  0  0  0  0  0  0  0  0  0
   -0.8588    4.6827    0.2677 H   0  0  0  0  0  0  0  0  0  0  0  0
   -4.5994   -1.6588    1.3861 H   0  0  0  0  0  0  0  0  0  0  0  0
   -6.8676   -0.7833    1.2680 H   0  0  0  0  0  0  0  0  0  0  0  0
   -6.3889    0.3673   -0.1048 H   0  0  0  0  0  0  0  0  0  0  0  0
  1 16  2  0  0  0  0
  2  3  1  0  0  0  0
  2  4  1  0  0  0  0
  2 19  1  0  0  0  0
  2 20  1  0  0  0  0
  3  5  1  0  0  0  0
  3 21  1  0  0  0  0
  3 22  1  0  0  0  0
  4  6  1  0  0  0  0
  4 23  1  0  0  0  0
  4 24  1  0  0  0  0
  5  7  1  0  0  0  0
  5 25  1  0  0  0  0
  5 26  1  0  0  0  0
  6  8  1  0  0  0  0
  6 27  1  0  0  0  0
  6 28  1  0  0  0  0
  7  9  2  0  0  0  0
  7 29  1  0  0  0  0
  8 11  2  0  0  0  0
  8 30  1  0  0  0  0
  9 10  1  0  0  0  0
  9 31  1  0  0  0  0
 10 12  1  0  0  0  0
 10 32  1  0  0  0  0
 10 33  1  0  0  0  0
 11 34  1  0  0  0  0
 11 35  1  0  0  0  0
 12 13  3  0  0  0  0
 13 14  1  0  0  0  0
 14 15  3  0  0  0  0
 15 16  1  0  0  0  0
 16 17  1  0  0  0  0
 17 18  2  0  0  0  0
 17 36  1  0  0  0  0
 18 37  1  0  0  0  0
 18 38  1  0  0  0  0
M  END
> <PUBCHEM_COMPOUND_CID>
5281145

> <PUBCHEM_CONFORMER_RMSD>
0.8

> <PUBCHEM_CONFORMER_DIVERSEORDER>
2
113
185
87
289
323
258
246
118
233
286
184
86
146
131
101
99
252
52
319
147
288
313
115
240
63
172
28
177
159
260
261
10
273
317
144
124
5
322
262
161
293
270
35
15
106
309
65
280
208
107
116
130
307
158
132
170
50
37
154
305
95
104
278
75
196
199
215
243
100
153
294
30
214
204
62
128
268
162
13
42
299
295
38
25
205
19
176
34
27
201
304
148
203
78
55
283
133
169
306
249
8
48
114
72
227
18
138
326
259
139
225
32
47
244
220
61
9
4
285
143
103
97
311
200
73
312
142
105
239
248
45
76
325
188
92
123
275
110
152
178
156
70
245
51
160
56
67
257
183
315
251
237
36
145
198
206
232
274
23
241
213
230
235
12
320
197
167
267
236
209
321
80
300
31
224
91
192
216
93
211
89
223
108
256
166
291
174
98
53
250
74
298
17
234
140
324
207
265
175
125
69
150
190
149
171
253
292
40
217
193
155
111
54
112
165
308
29
282
229
210
117
122
84
22
222
316
49
85
290
284
189
71
11
21
226
242
182
310
219
16
77
254
1
266
303
296
136
58
39
64
168
301
318
121
314
218
102
297
264
186
60
228
24
157
276
46
263
279
90
191
151
231
3
94
14
187
141
66
194
109
127
44
33
126
26
287
119
135
57
221
81
79
173
6
129
96
212
41
59
247
195
134
164
271
43
68
180
272
82
281
137
7
88
277
120
202
269
302
20
179
83
255
181
238
163

> <PUBCHEM_MMFF94_PARTIAL_CHARGES>
21
1 -0.57
10 0.34
11 -0.3
12 -0.2
15 -0.1
16 0.66
17 -0.14
18 -0.3
29 0.15
30 0.15
31 0.15
34 0.15
35 0.15
36 0.15
37 0.15
38 0.15
5 0.14
6 0.14
7 -0.29
8 -0.29
9 -0.29

> <PUBCHEM_EFFECTIVE_ROTOR_COUNT>
8

> <PUBCHEM_PHARMACOPHORE_FEATURES>
3
1 1 acceptor
1 11 hydrophobe
1 18 hydrophobe

> <PUBCHEM_HEAVY_ATOM_COUNT>
18

> <PUBCHEM_ATOM_DEF_STEREO_COUNT>
0

> <PUBCHEM_ATOM_UDEF_STEREO_COUNT>
0

> <PUBCHEM_BOND_DEF_STEREO_COUNT>
1

> <PUBCHEM_BOND_UDEF_STEREO_COUNT>
0

> <PUBCHEM_ISOTOPIC_ATOM_COUNT>
0

> <PUBCHEM_COMPONENT_COUNT>
1

> <PUBCHEM_CACTVS_TAUTO_COUNT>
1

> <PUBCHEM_CONFORMER_ID>
0050957900000002

> <PUBCHEM_MMFF94_ENERGY>
7.893

> <PUBCHEM_FEATURE_SELFOVERLAP>
15.223

> <PUBCHEM_SHAPE_FINGERPRINT>
10688039 33 18059858393305798324
116883 192 18409729586534734252
13075007 39 17844228663057592155
13402501 40 18413111645435843588
14251757 17 18129115561572152765
14464042 87 17967805059852383457
15006816 218 18411141298818278972
15081414 286 18408601440064720108
16760501 71 18338508639484115979
17093844 170 18410865352034313872
18785283 64 18057312886907277685
20621476 13 18265620887801210176
20621476 7 18408318912577967611
21673915 165 18336266829252632144
3014063 31 18410575132013415740
338550 245 18269262629099925141
474 4 18337390439736216714
5283268 108 18411980286620247744
5939293 188 18266183833960356424

> <PUBCHEM_SHAPE_MULTIPOLES>
364.56
10.57
4.2
0.86
12.04
2.66
0.02
-2.65
-1.5
-2.2
0.18
-0.07
0
0.64

> <PUBCHEM_SHAPE_SELFOVERLAP>
696.432

> <PUBCHEM_SHAPE_VOLUME>
219.9

> <PUBCHEM_COORDINATE_TYPE>
2
5
10

$$$$

