443833
  -OEChem-07051213033D

 35 37  0     1  0  0  0  0  0999 V2000
   -2.4318   -0.7142   -0.3691 O   0  0  0  0  0  0  0  0  0  0  0  0
    1.4831   -2.4064   -0.2031 O   0  0  0  0  0  0  0  0  0  0  0  0
   -6.2421    0.6592    0.1541 O   0  0  0  0  0  0  0  0  0  0  0  0
    4.1293   -1.9016    0.1302 O   0  0  0  0  0  0  0  0  0  0  0  0
   -4.7441   -0.7140    1.1793 O   0  0  0  0  0  0  0  0  0  0  0  0
   -2.5478    0.6539    0.0342 C   0  0  1  0  0  0  0  0  0  0  0  0
   -1.5435    1.4954   -0.7355 C   0  0  0  0  0  0  0  0  0  0  0  0
   -0.1718    0.9766   -0.4235 C   0  0  0  0  0  0  0  0  0  0  0  0
   -0.0141   -0.4918   -0.2837 C   0  0  0  0  0  0  0  0  0  0  0  0
   -1.1494   -1.2475   -0.2940 C   0  0  0  0  0  0  0  0  0  0  0  0
   -3.9751    1.1003   -0.2552 C   0  0  0  0  0  0  0  0  0  0  0  0
    0.8796    1.7986   -0.2605 C   0  0  0  0  0  0  0  0  0  0  0  0
    1.3688   -1.0345   -0.1540 C   0  0  0  0  0  0  0  0  0  0  0  0
    2.2034    1.2557    0.0054 C   0  0  0  0  0  0  0  0  0  0  0  0
    2.4253   -0.1988    0.0014 C   0  0  0  0  0  0  0  0  0  0  0  0
   -1.2166   -2.7477   -0.2053 C   0  0  0  0  0  0  0  0  0  0  0  0
    3.2401    2.0883    0.2094 C   0  0  0  0  0  0  0  0  0  0  0  0
    3.8293   -0.7137    0.1734 C   0  0  0  0  0  0  0  0  0  0  0  0
   -4.9864    0.2343    0.4480 C   0  0  0  0  0  0  0  0  0  0  0  0
    4.5788    1.6044    0.4336 C   0  0  0  0  0  0  0  0  0  0  0  0
    4.8851    0.3034    0.4148 C   0  0  0  0  0  0  0  0  0  0  0  0
   -2.3659    0.7127    1.1172 H   0  0  0  0  0  0  0  0  0  0  0  0
   -1.6446    2.5535   -0.4679 H   0  0  0  0  0  0  0  0  0  0  0  0
   -1.7129    1.4018   -1.8161 H   0  0  0  0  0  0  0  0  0  0  0  0
   -4.1181    2.1375    0.0667 H   0  0  0  0  0  0  0  0  0  0  0  0
   -4.1783    1.0223   -1.3303 H   0  0  0  0  0  0  0  0  0  0  0  0
    0.7626    2.8745   -0.3515 H   0  0  0  0  0  0  0  0  0  0  0  0
   -0.7410   -3.1132    0.7100 H   0  0  0  0  0  0  0  0  0  0  0  0
   -0.7594   -3.2140   -1.0835 H   0  0  0  0  0  0  0  0  0  0  0  0
   -2.2575   -3.0904   -0.1719 H   0  0  0  0  0  0  0  0  0  0  0  0
    3.1139    3.1674    0.2040 H   0  0  0  0  0  0  0  0  0  0  0  0
    5.3528    2.3440    0.6105 H   0  0  0  0  0  0  0  0  0  0  0  0
    5.9000   -0.0419    0.5746 H   0  0  0  0  0  0  0  0  0  0  0  0
    2.4166   -2.6560   -0.1163 H   0  0  0  0  0  0  0  0  0  0  0  0
   -6.9260    0.1141    0.5985 H   0  0  0  0  0  0  0  0  0  0  0  0
  1  6  1  0  0  0  0
  1 10  1  0  0  0  0
  2 13  1  0  0  0  0
  2 34  1  0  0  0  0
  3 19  1  0  0  0  0
  3 35  1  0  0  0  0
  4 18  2  0  0  0  0
  5 19  2  0  0  0  0
  6  7  1  0  0  0  0
  6 11  1  0  0  0  0
  6 22  1  0  0  0  0
  7  8  1  0  0  0  0
  7 23  1  0  0  0  0
  7 24  1  0  0  0  0
  8  9  1  0  0  0  0
  8 12  2  0  0  0  0
  9 10  2  0  0  0  0
  9 13  1  0  0  0  0
 10 16  1  0  0  0  0
 11 19  1  0  0  0  0
 11 25  1  0  0  0  0
 11 26  1  0  0  0  0
 12 14  1  0  0  0  0
 12 27  1  0  0  0  0
 13 15  2  0  0  0  0
 14 15  1  0  0  0  0
 14 17  2  0  0  0  0
 15 18  1  0  0  0  0
 16 28  1  0  0  0  0
 16 29  1  0  0  0  0
 16 30  1  0  0  0  0
 17 20  1  0  0  0  0
 17 31  1  0  0  0  0
 18 21  1  0  0  0  0
 20 21  2  0  0  0  0
 20 32  1  0  0  0  0
 21 33  1  0  0  0  0
M  END
> <PUBCHEM_COMPOUND_CID>
443833

> <PUBCHEM_CONFORMER_RMSD>
0.6

> <PUBCHEM_CONFORMER_DIVERSEORDER>
1
4
3
5
6
2

> <PUBCHEM_MMFF94_PARTIAL_CHARGES>
25
1 -0.36
10 -0.06
11 0.06
12 -0.15
13 0.08
15 0.01
16 0.14
17 -0.15
18 0.54
19 0.66
2 -0.53
20 -0.15
21 -0.14
27 0.15
3 -0.65
31 0.15
32 0.15
33 0.15
34 0.45
35 0.5
4 -0.57
5 -0.57
6 0.28
7 0.14
8 -0.14

> <PUBCHEM_EFFECTIVE_ROTOR_COUNT>
2.6

> <PUBCHEM_PHARMACOPHORE_FEATURES>
9
1 1 acceptor
1 2 donor
1 3 acceptor
1 4 acceptor
1 5 acceptor
3 3 5 19 anion
6 1 6 7 8 9 10 rings
6 14 15 17 18 20 21 rings
6 8 9 12 13 14 15 rings

> <PUBCHEM_HEAVY_ATOM_COUNT>
21

> <PUBCHEM_ATOM_DEF_STEREO_COUNT>
1

> <PUBCHEM_ATOM_UDEF_STEREO_COUNT>
0

> <PUBCHEM_BOND_DEF_STEREO_COUNT>
0

> <PUBCHEM_BOND_UDEF_STEREO_COUNT>
0

> <PUBCHEM_ISOTOPIC_ATOM_COUNT>
0

> <PUBCHEM_COMPONENT_COUNT>
1

> <PUBCHEM_CACTVS_TAUTO_COUNT>
57

> <PUBCHEM_CONFORMER_ID>
0006C5B900000001

> <PUBCHEM_MMFF94_ENERGY>
58.0592

> <PUBCHEM_FEATURE_SELFOVERLAP>
45.779

> <PUBCHEM_SHAPE_FINGERPRINT>
10 15 18271534096301997712
10411042 1 17688589781047796598
10493431 412 18336829701674647641
10616163 171 18266180526730277462
10967382 1 18410580604329063636
11045977 3 18201996629710646867
11578080 2 17170129035981562898
12236239 1 17749112210188851277
12251169 10 18410856538307566348
12403259 415 18271812357983567037
12507560 40 18343304794697456909
12592029 89 18412263969178701650
12788726 201 17458333165530593776
13140716 1 18339084765979924144
13533116 47 17749388204407535938
13583140 156 16701202835745985581
13675066 3 18202002114183481941
14341114 176 18412819201091683609
14617045 38 18413101767316979086
14787075 74 18186525384664209193
14790565 3 18410287021260050325
15196674 1 18410294683491606311
15475509 35 16988569060230294002
15536298 74 18334859420188240276
16945 1 18267036110006296572
1813 80 16917068849825953732
19141452 34 18409451349462094631
19591789 44 18340207513222684790
20028762 73 18187652397052842127
20261772 1 18411418380106495867
20739085 24 18268975635132287605
21033648 29 18339943566198095217
21267235 1 18338793524569556510
21421861 104 18059309733483940314
21682296 61 18190454067979607839
22182313 1 18200882893045808765
22854114 59 18409729560321825345
23184049 59 18410853269884810013
2334 1 18266747891983652700
23402539 116 18187652375514006637
23558518 356 17767689351923547176
23559900 14 18260833653625125216
2748010 2 17834124421775865326
335352 9 18409450285064475518
34934 24 18337397045891179286
350125 39 18339359768293681388
3545911 37 18409167697469857544
42630746 31 18333730238499083261
465052 167 17918269852911992497
495365 180 17313116211432802368
5104073 3 18338241466062445898
69090 78 18409736148769755631
9709674 26 18336829706497480214
9999458 23 18202844353270484174

> <PUBCHEM_SHAPE_MULTIPOLES>
402.82
10.68
2.4
0.74
7.59
1.03
0.04
-2.44
2.79
-1.13
-0.17
0.29
-0.04
0.31

> <PUBCHEM_SHAPE_SELFOVERLAP>
882.56

> <PUBCHEM_SHAPE_VOLUME>
215.1

> <PUBCHEM_COORDINATE_TYPE>
2
5
10

$$$$

