443685
  -OEChem-07051213022D

 61 66  0     1  0  0  0  0  0999 V2000
    4.8449    3.8855    0.0000 O   0  0  0  0  0  0  0  0  0  0  0  0
    8.8411    0.8508    0.0000 O   0  0  0  0  0  0  0  0  0  0  0  0
    2.6079    0.7281    0.0000 O   0  0  0  0  0  0  0  0  0  0  0  0
    2.6079   -0.9483    0.0000 O   0  0  0  0  0  0  0  0  0  0  0  0
   11.4557   -4.1101    0.0000 O   0  0  0  0  0  0  0  0  0  0  0  0
    7.4575    1.9648    0.0000 N   0  0  0  0  0  0  0  0  0  0  0  0
    7.1256   -0.6101    0.0000 N   0  0  3  0  0  0  0  0  0  0  0  0
    6.2596    0.8899    0.0000 C   0  0  1  0  0  0  0  0  0  0  0  0
    6.4688    1.8617    0.0000 C   0  0  2  0  0  0  0  0  0  0  0  0
    7.1256    0.3899    0.0000 C   0  0  1  0  0  0  0  0  0  0  0  0
    5.3935    0.3899    0.0000 C   0  0  0  0  0  0  0  0  0  0  0  0
    6.1666    2.8521    0.0000 C   0  0  0  0  0  0  0  0  0  0  0  0
    7.8626    1.0570    0.0000 C   0  0  0  0  0  0  0  0  0  0  0  0
    5.2440    1.0922    0.0000 C   0  0  0  0  0  0  0  0  0  0  0  0
    6.2596   -1.1101    0.0000 C   0  0  0  0  0  0  0  0  0  0  0  0
    5.3086    2.9995    0.0000 C   0  0  1  0  0  0  0  0  0  0  0  0
    5.3935   -0.6101    0.0000 C   0  0  0  0  0  0  0  0  0  0  0  0
    4.7664    2.1536    0.0000 C   0  0  0  0  0  0  0  0  0  0  0  0
    7.9916   -1.1101    0.0000 C   0  0  0  0  0  0  0  0  0  0  0  0
    4.4996    0.9246    0.0000 C   0  0  0  0  0  0  0  0  0  0  0  0
    7.9575    2.8308    0.0000 C   0  0  0  0  0  0  0  0  0  0  0  0
    4.4996   -1.1448    0.0000 C   0  0  0  0  0  0  0  0  0  0  0  0
    3.5935    0.4107    0.0000 C   0  0  0  0  0  0  0  0  0  0  0  0
    7.9916   -2.1101    0.0000 C   0  0  0  0  0  0  0  0  0  0  0  0
    3.5935   -0.6309    0.0000 C   0  0  0  0  0  0  0  0  0  0  0  0
    8.8576   -2.6101    0.0000 C   0  0  0  0  0  0  0  0  0  0  0  0
    5.3802    4.7301    0.0000 C   0  0  0  0  0  0  0  0  0  0  0  0
    2.0000   -0.1101    0.0000 C   0  0  0  0  0  0  0  0  0  0  0  0
    8.8576   -3.6101    0.0000 C   0  0  0  0  0  0  0  0  0  0  0  0
    9.7236   -2.1101    0.0000 C   0  0  0  0  0  0  0  0  0  0  0  0
    9.7236   -4.1101    0.0000 C   0  0  0  0  0  0  0  0  0  0  0  0
   10.5897   -2.6101    0.0000 C   0  0  0  0  0  0  0  0  0  0  0  0
   10.5897   -3.6101    0.0000 C   0  0  0  0  0  0  0  0  0  0  0  0
    6.9384    2.5702    0.0000 H   0  0  0  0  0  0  0  0  0  0  0  0
    7.9025    0.0452    0.0000 H   0  0  0  0  0  0  0  0  0  0  0  0
    6.7804    2.9390    0.0000 H   0  0  0  0  0  0  0  0  0  0  0  0
    6.1757    3.4720    0.0000 H   0  0  0  0  0  0  0  0  0  0  0  0
    4.8579    0.6071    0.0000 H   0  0  0  0  0  0  0  0  0  0  0  0
    5.8610   -1.5851    0.0000 H   0  0  0  0  0  0  0  0  0  0  0  0
    6.6581   -1.5851    0.0000 H   0  0  0  0  0  0  0  0  0  0  0  0
    5.6736    3.5007    0.0000 H   0  0  0  0  0  0  0  0  0  0  0  0
    4.1481    2.1992    0.0000 H   0  0  0  0  0  0  0  0  0  0  0  0
    8.6022   -1.2178    0.0000 H   0  0  0  0  0  0  0  0  0  0  0  0
    8.2036   -0.5275    0.0000 H   0  0  0  0  0  0  0  0  0  0  0  0
    4.5068    1.5445    0.0000 H   0  0  0  0  0  0  0  0  0  0  0  0
    8.4944    2.5208    0.0000 H   0  0  0  0  0  0  0  0  0  0  0  0
    8.2675    3.3677    0.0000 H   0  0  0  0  0  0  0  0  0  0  0  0
    7.4205    3.1408    0.0000 H   0  0  0  0  0  0  0  0  0  0  0  0
    4.5068   -1.7647    0.0000 H   0  0  0  0  0  0  0  0  0  0  0  0
    7.3810   -2.0024    0.0000 H   0  0  0  0  0  0  0  0  0  0  0  0
    7.7796   -2.6927    0.0000 H   0  0  0  0  0  0  0  0  0  0  0  0
    5.9039    4.3982    0.0000 H   0  0  0  0  0  0  0  0  0  0  0  0
    5.7122    5.2538    0.0000 H   0  0  0  0  0  0  0  0  0  0  0  0
    4.8566    5.0620    0.0000 H   0  0  0  0  0  0  0  0  0  0  0  0
    1.5391    0.3046    0.0000 H   0  0  0  0  0  0  0  0  0  0  0  0
    1.5391   -0.5248    0.0000 H   0  0  0  0  0  0  0  0  0  0  0  0
    8.3207   -3.9201    0.0000 H   0  0  0  0  0  0  0  0  0  0  0  0
    9.7236   -1.4901    0.0000 H   0  0  0  0  0  0  0  0  0  0  0  0
    9.7236   -4.7301    0.0000 H   0  0  0  0  0  0  0  0  0  0  0  0
   11.1266   -2.3001    0.0000 H   0  0  0  0  0  0  0  0  0  0  0  0
   11.4557   -4.7301    0.0000 H   0  0  0  0  0  0  0  0  0  0  0  0
 16  1  1  1  0  0  0
  1 27  1  0  0  0  0
  2 13  2  0  0  0  0
  3 23  1  0  0  0  0
  3 28  1  0  0  0  0
  4 25  1  0  0  0  0
  4 28  1  0  0  0  0
  5 33  1  0  0  0  0
  5 61  1  0  0  0  0
  6  9  1  0  0  0  0
  6 13  1  0  0  0  0
  6 21  1  0  0  0  0
  7 10  1  0  0  0  0
  7 15  1  0  0  0  0
  7 19  1  0  0  0  0
  8  9  1  0  0  0  0
  8 10  1  0  0  0  0
  8 11  1  0  0  0  0
  8 14  1  6  0  0  0
  9 12  1  0  0  0  0
  9 34  1  1  0  0  0
 10 13  1  0  0  0  0
 10 35  1  6  0  0  0
 11 17  1  0  0  0  0
 11 20  2  0  0  0  0
 12 16  1  0  0  0  0
 12 36  1  0  0  0  0
 12 37  1  0  0  0  0
 14 18  2  0  0  0  0
 14 38  1  0  0  0  0
 15 17  1  0  0  0  0
 15 39  1  0  0  0  0
 15 40  1  0  0  0  0
 16 18  1  0  0  0  0
 16 41  1  0  0  0  0
 17 22  2  0  0  0  0
 18 42  1  0  0  0  0
 19 24  1  0  0  0  0
 19 43  1  0  0  0  0
 19 44  1  0  0  0  0
 20 23  1  0  0  0  0
 20 45  1  0  0  0  0
 21 46  1  0  0  0  0
 21 47  1  0  0  0  0
 21 48  1  0  0  0  0
 22 25  1  0  0  0  0
 22 49  1  0  0  0  0
 23 25  2  0  0  0  0
 24 26  1  0  0  0  0
 24 50  1  0  0  0  0
 24 51  1  0  0  0  0
 26 29  2  0  0  0  0
 26 30  1  0  0  0  0
 27 52  1  0  0  0  0
 27 53  1  0  0  0  0
 27 54  1  0  0  0  0
 28 55  1  0  0  0  0
 28 56  1  0  0  0  0
 29 31  1  0  0  0  0
 29 57  1  0  0  0  0
 30 32  2  0  0  0  0
 30 58  1  0  0  0  0
 31 33  2  0  0  0  0
 31 59  1  0  0  0  0
 32 33  1  0  0  0  0
 32 60  1  0  0  0  0
M  END
> <PUBCHEM_COMPOUND_CID>
443685

> <PUBCHEM_COMPOUND_CANONICALIZED>
1

> <PUBCHEM_CACTVS_COMPLEXITY>
783

> <PUBCHEM_CACTVS_HBOND_ACCEPTOR>
6

> <PUBCHEM_CACTVS_HBOND_DONOR>
1

> <PUBCHEM_CACTVS_ROTATABLE_BOND>
4

> <PUBCHEM_CACTVS_SUBSKEYS>
AAADceB7OAAAAAAAAAAAAAAAAAAAAWJAAAA8YIEAAAAAAFixQAAAHgAACAAADjzhmAcyDoMABgCIAiFSEACCCAAgIAAIiAGOjIgdZjKG8Tu0cCpmxhGOuAe82POPoAABAAAQQABAAAIAACCAAAAAAAAAAA==

> <PUBCHEM_IUPAC_INCHI>
InChI=1S/C26H28N2O5/c1-27-23-12-19(31-2)7-9-26(23)20-13-22-21(32-15-33-22)11-17(20)14-28(24(26)25(27)30)10-8-16-3-5-18(29)6-4-16/h3-7,9,11,13,19,23-24,29H,8,10,12,14-15H2,1-2H3/t19-,23+,24-,26+/m1/s1

> <PUBCHEM_IUPAC_INCHIKEY>
MNZZTIOCKJEHEP-XVZHEKKHSA-N

> <PUBCHEM_XLOGP3_AA>
3.1

> <PUBCHEM_EXACT_MASS>
448.199822

> <PUBCHEM_MOLECULAR_FORMULA>
C26H28N2O5

> <PUBCHEM_MOLECULAR_WEIGHT>
448.51092

> <PUBCHEM_OPENEYE_CAN_SMILES>
CN1C2CC(C=CC23C(C1=O)N(CC4=CC5=C(C=C34)OCO5)CCC6=CC=C(C=C6)O)OC

> <PUBCHEM_OPENEYE_ISO_SMILES>
CN1[C@H]2C[C@@H](C=C[C@@]23[C@@H](C1=O)N(CC4=CC5=C(C=C34)OCO5)CCC6=CC=C(C=C6)O)OC

> <PUBCHEM_CACTVS_TPSA>
71.5

> <PUBCHEM_MONOISOTOPIC_WEIGHT>
448.199822

> <PUBCHEM_TOTAL_CHARGE>
0

> <PUBCHEM_HEAVY_ATOM_COUNT>
33

> <PUBCHEM_ATOM_DEF_STEREO_COUNT>
4

> <PUBCHEM_ATOM_UDEF_STEREO_COUNT>
0

> <PUBCHEM_BOND_DEF_STEREO_COUNT>
0

> <PUBCHEM_BOND_UDEF_STEREO_COUNT>
0

> <PUBCHEM_ISOTOPIC_ATOM_COUNT>
0

> <PUBCHEM_COMPONENT_COUNT>
1

> <PUBCHEM_CACTVS_TAUTO_COUNT>
4

> <PUBCHEM_COORDINATE_TYPE>
1
5
255

> <PUBCHEM_BONDANNOTATIONS>
16  1  5
10  35  6
11  17  8
11  20  8
17  22  8
20  23  8
22  25  8
23  25  8
26  29  8
26  30  8
29  31  8
30  32  8
31  33  8
32  33  8
8  14  6
9  34  5

$$$$

