232427
  -OEChem-07051213063D

 50 53  0     1  0  0  0  0  0999 V2000
    0.2043   -2.5642    0.8768 O   0  0  0  0  0  0  0  0  0  0  0  0
   -4.8407   -1.5911   -0.1326 O   0  0  0  0  0  0  0  0  0  0  0  0
    5.4768   -0.0797   -1.9236 O   0  0  0  0  0  0  0  0  0  0  0  0
    0.0354    0.9996    0.5914 C   0  0  1  0  0  0  0  0  0  0  0  0
   -1.3279    1.0441   -0.1055 C   0  0  1  0  0  0  0  0  0  0  0  0
    0.7772   -0.3027    0.1145 C   0  0  1  0  0  0  0  0  0  0  0  0
   -2.2262   -0.1535    0.2970 C   0  0  2  0  0  0  0  0  0  0  0  0
    2.2222   -0.4111    0.7103 C   0  0  2  0  0  0  0  0  0  0  0  0
    0.8628    2.2645    0.3129 C   0  0  0  0  0  0  0  0  0  0  0  0
   -1.5638   -1.4176   -0.2523 C   0  0  0  0  0  0  0  0  0  0  0  0
   -2.2326    2.2703    0.0235 C   0  0  0  0  0  0  0  0  0  0  0  0
   -0.1512   -1.5250    0.3239 C   0  0  0  0  0  0  0  0  0  0  0  0
    2.9278    0.9082    0.3510 C   0  0  0  0  0  0  0  0  0  0  0  0
    2.2777    2.1619    0.8822 C   0  0  0  0  0  0  0  0  0  0  0  0
   -3.5071    0.3300   -0.3270 C   0  0  0  0  0  0  0  0  0  0  0  0
    3.0337   -1.6145    0.1448 C   0  0  0  0  0  0  0  0  0  0  0  0
   -2.4742   -0.3074    1.8167 C   0  0  0  0  0  0  0  0  0  0  0  0
   -3.5333    1.6674   -0.4371 C   0  0  0  0  0  0  0  0  0  0  0  0
    2.1974   -0.5922    2.2492 C   0  0  0  0  0  0  0  0  0  0  0  0
    3.5823   -1.3866   -1.2522 C   0  0  0  0  0  0  0  0  0  0  0  0
    3.9733    1.0154   -0.4857 C   0  0  0  0  0  0  0  0  0  0  0  0
   -4.6266   -0.5137   -0.7070 C   0  0  0  0  0  0  0  0  0  0  0  0
    4.4518   -0.1576   -1.2509 C   0  0  0  0  0  0  0  0  0  0  0  0
   -5.5389   -0.0445   -1.8202 C   0  0  0  0  0  0  0  0  0  0  0  0
   -0.1265    0.9553    1.6736 H   0  0  0  0  0  0  0  0  0  0  0  0
   -1.1118    0.9648   -1.1878 H   0  0  0  0  0  0  0  0  0  0  0  0
    0.8872   -0.2371   -0.9793 H   0  0  0  0  0  0  0  0  0  0  0  0
    0.3676    3.1401    0.7492 H   0  0  0  0  0  0  0  0  0  0  0  0
    0.9174    2.4401   -0.7697 H   0  0  0  0  0  0  0  0  0  0  0  0
   -1.4878   -1.4054   -1.3458 H   0  0  0  0  0  0  0  0  0  0  0  0
   -2.1294   -2.3140    0.0266 H   0  0  0  0  0  0  0  0  0  0  0  0
   -1.9088    3.0757   -0.6422 H   0  0  0  0  0  0  0  0  0  0  0  0
   -2.3094    2.6496    1.0467 H   0  0  0  0  0  0  0  0  0  0  0  0
    2.2569    2.1520    1.9770 H   0  0  0  0  0  0  0  0  0  0  0  0
    2.8397    3.0598    0.5974 H   0  0  0  0  0  0  0  0  0  0  0  0
    2.4488   -2.5379    0.1482 H   0  0  0  0  0  0  0  0  0  0  0  0
    3.8909   -1.8098    0.8064 H   0  0  0  0  0  0  0  0  0  0  0  0
   -1.5665   -0.5765    2.3658 H   0  0  0  0  0  0  0  0  0  0  0  0
   -2.8619    0.6118    2.2704 H   0  0  0  0  0  0  0  0  0  0  0  0
   -3.2063   -1.0997    2.0135 H   0  0  0  0  0  0  0  0  0  0  0  0
   -4.3589    2.2622   -0.8001 H   0  0  0  0  0  0  0  0  0  0  0  0
    1.8305   -1.5842    2.5320 H   0  0  0  0  0  0  0  0  0  0  0  0
    3.2056   -0.4918    2.6702 H   0  0  0  0  0  0  0  0  0  0  0  0
    1.5666    0.1394    2.7608 H   0  0  0  0  0  0  0  0  0  0  0  0
    2.7862   -1.2624   -1.9928 H   0  0  0  0  0  0  0  0  0  0  0  0
    4.1940   -2.2464   -1.5468 H   0  0  0  0  0  0  0  0  0  0  0  0
    4.4328    1.9703   -0.7168 H   0  0  0  0  0  0  0  0  0  0  0  0
   -4.9671    0.4564   -2.6063 H   0  0  0  0  0  0  0  0  0  0  0  0
   -6.3000    0.6272   -1.4155 H   0  0  0  0  0  0  0  0  0  0  0  0
   -6.0276   -0.9134   -2.2714 H   0  0  0  0  0  0  0  0  0  0  0  0
  1 12  2  0  0  0  0
  2 22  2  0  0  0  0
  3 23  2  0  0  0  0
  4  5  1  0  0  0  0
  4  6  1  0  0  0  0
  4  9  1  0  0  0  0
  4 25  1  0  0  0  0
  5  7  1  0  0  0  0
  5 11  1  0  0  0  0
  5 26  1  0  0  0  0
  6  8  1  0  0  0  0
  6 12  1  0  0  0  0
  6 27  1  0  0  0  0
  7 10  1  0  0  0  0
  7 15  1  0  0  0  0
  7 17  1  0  0  0  0
  8 13  1  0  0  0  0
  8 16  1  0  0  0  0
  8 19  1  0  0  0  0
  9 14  1  0  0  0  0
  9 28  1  0  0  0  0
  9 29  1  0  0  0  0
 10 12  1  0  0  0  0
 10 30  1  0  0  0  0
 10 31  1  0  0  0  0
 11 18  1  0  0  0  0
 11 32  1  0  0  0  0
 11 33  1  0  0  0  0
 13 14  1  0  0  0  0
 13 21  2  0  0  0  0
 14 34  1  0  0  0  0
 14 35  1  0  0  0  0
 15 18  2  0  0  0  0
 15 22  1  0  0  0  0
 16 20  1  0  0  0  0
 16 36  1  0  0  0  0
 16 37  1  0  0  0  0
 17 38  1  0  0  0  0
 17 39  1  0  0  0  0
 17 40  1  0  0  0  0
 18 41  1  0  0  0  0
 19 42  1  0  0  0  0
 19 43  1  0  0  0  0
 19 44  1  0  0  0  0
 20 23  1  0  0  0  0
 20 45  1  0  0  0  0
 20 46  1  0  0  0  0
 21 23  1  0  0  0  0
 21 47  1  0  0  0  0
 22 24  1  0  0  0  0
 24 48  1  0  0  0  0
 24 49  1  0  0  0  0
 24 50  1  0  0  0  0
M  END
> <PUBCHEM_COMPOUND_CID>
232427

> <PUBCHEM_CONFORMER_RMSD>
0.6

> <PUBCHEM_CONFORMER_DIVERSEORDER>
1
2
3

> <PUBCHEM_MMFF94_PARTIAL_CHARGES>
20
1 -0.57
10 0.06
11 0.14
12 0.45
13 -0.28
14 0.14
15 -0.12
18 -0.29
2 -0.57
20 0.06
21 -0.14
22 0.49
23 0.49
24 0.06
3 -0.57
41 0.15
47 0.15
6 0.06
7 0.14
8 0.14

> <PUBCHEM_EFFECTIVE_ROTOR_COUNT>
2.2

> <PUBCHEM_PHARMACOPHORE_FEATURES>
7
1 1 acceptor
1 2 acceptor
1 3 acceptor
5 5 7 11 15 18 rings
6 4 5 6 7 10 12 rings
6 4 6 8 9 13 14 rings
6 8 13 16 20 21 23 rings

> <PUBCHEM_HEAVY_ATOM_COUNT>
24

> <PUBCHEM_ATOM_DEF_STEREO_COUNT>
5

> <PUBCHEM_ATOM_UDEF_STEREO_COUNT>
0

> <PUBCHEM_BOND_DEF_STEREO_COUNT>
0

> <PUBCHEM_BOND_UDEF_STEREO_COUNT>
0

> <PUBCHEM_ISOTOPIC_ATOM_COUNT>
0

> <PUBCHEM_COMPONENT_COUNT>
1

> <PUBCHEM_CACTVS_TAUTO_COUNT>
75

> <PUBCHEM_CONFORMER_ID>
00038BEB00000001

> <PUBCHEM_MMFF94_ENERGY>
73.5074

> <PUBCHEM_FEATURE_SELFOVERLAP>
35.645

> <PUBCHEM_SHAPE_FINGERPRINT>
10366900 7 18201718444615555409
10498660 4 18272933803882281007
10693767 8 18114477729023038047
10759866 29 17632298994788575994
10863032 1 16773788225503734002
10967382 1 18339088090121314905
11796584 16 15430032175755590869
11961588 58 17846493682764789764
12011746 2 18341895181861389061
12236239 1 17846786230378186130
12403259 415 18343586214140162477
12596602 18 13686301301109866749
12670546 177 18335699459518984991
13140716 1 17763473815674033864
13224815 77 18272371975205454913
13533116 47 17168144481833624409
13583140 156 15913319165891290937
14790565 3 17470436800088537593
14931854 50 18411411847914861620
15142383 8 14996553036398532355
15163728 17 16414371137775636773
15196674 1 18410015463499462977
15209294 21 12031789175705647767
15475509 35 14562822019027513207
15848702 151 17749381577088252199
16752209 62 18411142471339076129
16945 1 18409735057790014466
17349148 13 16950558866080313439
17492 54 18272922822231199644
1813 80 13912315785827912520
18186145 218 18187364345836830185
18222031 100 17822018609385158749
19784866 170 9799690407040293448
19784866 240 15864059988510187334
19862831 5 18409444817027976736
200 152 17603305934379578257
20645477 70 18335143038085015436
20775438 99 17536629238341960711
20871999 31 18410284835316193500
21637258 2 16153712050128627854
221357 26 18333450954161642741
22182313 1 18125721193146579859
22393880 68 18411145761563697197
23366157 5 17700137891565508347
23493267 7 17775275075996256336
23559900 14 18262524684379242161
23569914 152 17323255070235195333
2748010 2 18123469371520434931
2871803 45 18410020931245954005
296302 2 15051730884845275049
3004659 81 18271240647114552118
3323516 105 18334858316001850036
3472631 163 15339120139255441079
4280585 95 17325483801348075246
46194498 28 18040994012563573580
474 4 16701726173680129836
4990 188 18260265269814959332
5104073 3 18336272309862744873
633830 44 18334868207744276925
9709674 26 18263647268570890489

> <PUBCHEM_SHAPE_MULTIPOLES>
476.3
10.02
2.25
1.52
3.35
0.4
-0.13
-1.26
5.95
-0.1
-0.29
-0.69
-0.31
0.31

> <PUBCHEM_SHAPE_SELFOVERLAP>
1034.858

> <PUBCHEM_SHAPE_VOLUME>
259.3

> <PUBCHEM_COORDINATE_TYPE>
2
5
10

$$$$

