243755
  -OEChem-07051213072D

 62 65  0     1  0  0  0  0  0999 V2000
    9.7640    1.8625    0.0000 O   0  0  0  0  0  0  0  0  0  0  0  0
    6.5270    1.1062    0.0000 O   0  0  0  0  0  0  0  0  0  0  0  0
    3.7320   -2.4462    0.0000 O   0  0  0  0  0  0  0  0  0  0  0  0
   10.7786    2.4920    0.0000 O   0  0  0  0  0  0  0  0  0  0  0  0
    2.8718   -0.9428    0.0000 O   0  0  0  0  0  0  0  0  0  0  0  0
    8.2591   -0.8938    0.0000 C   0  0  1  0  0  0  0  0  0  0  0  0
    9.1251   -0.3938    0.0000 C   0  0  1  0  0  0  0  0  0  0  0  0
    9.1251    0.6062    0.0000 C   0  0  1  0  0  0  0  0  0  0  0  0
    7.3931   -0.3938    0.0000 C   0  0  1  0  0  0  0  0  0  0  0  0
    6.4831   -0.9007    0.0000 C   0  0  2  0  0  0  0  0  0  0  0  0
    6.4750   -1.9423    0.0000 C   0  0  1  0  0  0  0  0  0  0  0  0
   10.0713    0.9109    0.0000 C   0  0  1  0  0  0  0  0  0  0  0  0
    8.2752   -1.9353    0.0000 C   0  0  0  0  0  0  0  0  0  0  0  0
   10.0713   -0.6986    0.0000 C   0  0  0  0  0  0  0  0  0  0  0  0
    8.2591    1.1062    0.0000 C   0  0  0  0  0  0  0  0  0  0  0  0
    7.3771   -2.4631    0.0000 C   0  0  0  0  0  0  0  0  0  0  0  0
    7.3931    0.6062    0.0000 C   0  0  0  0  0  0  0  0  0  0  0  0
   10.6550    0.1062    0.0000 C   0  0  0  0  0  0  0  0  0  0  0  0
    5.5562   -0.3366    0.0000 C   0  0  0  0  0  0  0  0  0  0  0  0
    5.5396   -2.4920    0.0000 C   0  0  0  0  0  0  0  0  0  0  0  0
    9.1251    1.6062    0.0000 C   0  0  0  0  0  0  0  0  0  0  0  0
    6.4908    0.0993    0.0000 C   0  0  0  0  0  0  0  0  0  0  0  0
    4.6084   -0.8645    0.0000 C   0  0  0  0  0  0  0  0  0  0  0  0
    4.6000   -1.9495    0.0000 C   0  0  2  0  0  0  0  0  0  0  0  0
   10.8814    1.4973    0.0000 C   0  0  0  0  0  0  0  0  0  0  0  0
   11.7942    1.0890    0.0000 C   0  0  0  0  0  0  0  0  0  0  0  0
    2.8680   -1.9428    0.0000 C   0  0  0  0  0  0  0  0  0  0  0  0
    2.0000   -2.4395    0.0000 C   0  0  0  0  0  0  0  0  0  0  0  0
    8.9985   -1.3131    0.0000 H   0  0  0  0  0  0  0  0  0  0  0  0
    9.2151   -1.2390    0.0000 H   0  0  0  0  0  0  0  0  0  0  0  0
    8.1292    0.0312    0.0000 H   0  0  0  0  0  0  0  0  0  0  0  0
    6.4783   -2.7923    0.0000 H   0  0  0  0  0  0  0  0  0  0  0  0
    8.4932   -2.5157    0.0000 H   0  0  0  0  0  0  0  0  0  0  0  0
    8.8843   -1.8198    0.0000 H   0  0  0  0  0  0  0  0  0  0  0  0
    9.8203   -1.2655    0.0000 H   0  0  0  0  0  0  0  0  0  0  0  0
   10.6087   -1.0078    0.0000 H   0  0  0  0  0  0  0  0  0  0  0  0
    8.6576    1.5811    0.0000 H   0  0  0  0  0  0  0  0  0  0  0  0
    7.8606    1.5811    0.0000 H   0  0  0  0  0  0  0  0  0  0  0  0
    6.9798   -2.9390    0.0000 H   0  0  0  0  0  0  0  0  0  0  0  0
    7.7781   -2.9360    0.0000 H   0  0  0  0  0  0  0  0  0  0  0  0
   11.1158   -0.3086    0.0000 H   0  0  0  0  0  0  0  0  0  0  0  0
   11.1158    0.5209    0.0000 H   0  0  0  0  0  0  0  0  0  0  0  0
    5.9644    0.1301    0.0000 H   0  0  0  0  0  0  0  0  0  0  0  0
    5.1663    0.1455    0.0000 H   0  0  0  0  0  0  0  0  0  0  0  0
    5.1423   -2.9680    0.0000 H   0  0  0  0  0  0  0  0  0  0  0  0
    5.9406   -2.9649    0.0000 H   0  0  0  0  0  0  0  0  0  0  0  0
    9.7451    1.6062    0.0000 H   0  0  0  0  0  0  0  0  0  0  0  0
    9.1251    2.2262    0.0000 H   0  0  0  0  0  0  0  0  0  0  0  0
    8.5051    1.6062    0.0000 H   0  0  0  0  0  0  0  0  0  0  0  0
    7.1108    0.0945    0.0000 H   0  0  0  0  0  0  0  0  0  0  0  0
    6.4956    0.7193    0.0000 H   0  0  0  0  0  0  0  0  0  0  0  0
    5.8708    0.1041    0.0000 H   0  0  0  0  0  0  0  0  0  0  0  0
    4.4038   -0.2792    0.0000 H   0  0  0  0  0  0  0  0  0  0  0  0
    3.9967   -0.9659    0.0000 H   0  0  0  0  0  0  0  0  0  0  0  0
    4.0648   -1.6364    0.0000 H   0  0  0  0  0  0  0  0  0  0  0  0
   10.1796    2.3225    0.0000 H   0  0  0  0  0  0  0  0  0  0  0  0
   11.5411    0.5230    0.0000 H   0  0  0  0  0  0  0  0  0  0  0  0
   12.3602    0.8358    0.0000 H   0  0  0  0  0  0  0  0  0  0  0  0
   12.0474    1.6549    0.0000 H   0  0  0  0  0  0  0  0  0  0  0  0
    1.6921   -1.9014    0.0000 H   0  0  0  0  0  0  0  0  0  0  0  0
    1.4619   -2.7474    0.0000 H   0  0  0  0  0  0  0  0  0  0  0  0
    2.3079   -2.9776    0.0000 H   0  0  0  0  0  0  0  0  0  0  0  0
 12  1  1  6  0  0  0
  1 56  1  0  0  0  0
  2 17  2  0  0  0  0
 24  3  1  1  0  0  0
  3 27  1  0  0  0  0
  4 25  2  0  0  0  0
  5 27  2  0  0  0  0
  6  7  1  0  0  0  0
  6  9  1  0  0  0  0
  6 13  1  0  0  0  0
  6 29  1  1  0  0  0
  7  8  1  0  0  0  0
  7 14  1  0  0  0  0
  7 30  1  6  0  0  0
  8 12  1  0  0  0  0
  8 15  1  0  0  0  0
  8 21  1  1  0  0  0
  9 10  1  0  0  0  0
  9 17  1  0  0  0  0
  9 31  1  6  0  0  0
 10 11  1  0  0  0  0
 10 19  1  0  0  0  0
 10 22  1  1  0  0  0
 11 16  1  0  0  0  0
 11 20  1  0  0  0  0
 11 32  1  6  0  0  0
 12 18  1  0  0  0  0
 12 25  1  0  0  0  0
 13 16  1  0  0  0  0
 13 33  1  0  0  0  0
 13 34  1  0  0  0  0
 14 18  1  0  0  0  0
 14 35  1  0  0  0  0
 14 36  1  0  0  0  0
 15 17  1  0  0  0  0
 15 37  1  0  0  0  0
 15 38  1  0  0  0  0
 16 39  1  0  0  0  0
 16 40  1  0  0  0  0
 18 41  1  0  0  0  0
 18 42  1  0  0  0  0
 19 23  1  0  0  0  0
 19 43  1  0  0  0  0
 19 44  1  0  0  0  0
 20 24  1  0  0  0  0
 20 45  1  0  0  0  0
 20 46  1  0  0  0  0
 21 47  1  0  0  0  0
 21 48  1  0  0  0  0
 21 49  1  0  0  0  0
 22 50  1  0  0  0  0
 22 51  1  0  0  0  0
 22 52  1  0  0  0  0
 23 24  1  0  0  0  0
 23 53  1  0  0  0  0
 23 54  1  0  0  0  0
 24 55  1  0  0  0  0
 25 26  1  0  0  0  0
 26 57  1  0  0  0  0
 26 58  1  0  0  0  0
 26 59  1  0  0  0  0
 27 28  1  0  0  0  0
 28 60  1  0  0  0  0
 28 61  1  0  0  0  0
 28 62  1  0  0  0  0
M  END
> <PUBCHEM_COMPOUND_CID>
243755

> <PUBCHEM_COMPOUND_CANONICALIZED>
1

> <PUBCHEM_CACTVS_COMPLEXITY>
716

> <PUBCHEM_CACTVS_HBOND_ACCEPTOR>
5

> <PUBCHEM_CACTVS_HBOND_DONOR>
1

> <PUBCHEM_CACTVS_ROTATABLE_BOND>
3

> <PUBCHEM_CACTVS_SUBSKEYS>
AAADcfB4OAAAAAAAAAAAAAAAAAAAAYAAAAAwYMAAAAAAAGDAAAAAGgAACAAAD1SggAICCAAABgAIAICQCAIAAAAAAAAAAAFAAAAAABIAAAACQAAEAAAAAAGKyvCvgAAAAAAAAADAAAYAACAAAYAADAAAAA==

> <PUBCHEM_IUPAC_OPENEYE_NAME>
[(3S,5S,8S,9S,10S,13S,14S,17R)-17-acetyl-17-hydroxy-10,13-dimethyl-11-oxo-2,3,4,5,6,7,8,9,12,14,15,16-dodecahydro-1H-cyclopenta[a]phenanthren-3-yl] acetate

> <PUBCHEM_IUPAC_CAS_NAME>
acetic acid [(3S,5S,8S,9S,10S,13S,14S,17R)-17-acetyl-17-hydroxy-10,13-dimethyl-11-oxo-2,3,4,5,6,7,8,9,12,14,15,16-dodecahydro-1H-cyclopenta[a]phenanthren-3-yl] ester

> <PUBCHEM_IUPAC_NAME>
[(3S,5S,8S,9S,10S,13S,14S,17R)-17-acetyl-17-hydroxy-10,13-dimethyl-11-oxo-2,3,4,5,6,7,8,9,12,14,15,16-dodecahydro-1H-cyclopenta[a]phenanthren-3-yl] acetate

> <PUBCHEM_IUPAC_SYSTEMATIC_NAME>
[(3S,5S,8S,9S,10S,13S,14S,17R)-17-ethanoyl-10,13-dimethyl-17-oxidanyl-11-oxidanylidene-2,3,4,5,6,7,8,9,12,14,15,16-dodecahydro-1H-cyclopenta[a]phenanthren-3-yl] ethanoate

> <PUBCHEM_IUPAC_TRADITIONAL_NAME>
acetic acid [(3S,5S,8S,9S,10S,13S,14S,17R)-17-acetyl-17-hydroxy-11-keto-10,13-dimethyl-2,3,4,5,6,7,8,9,12,14,15,16-dodecahydro-1H-cyclopenta[a]phenanthren-3-yl] ester

> <PUBCHEM_IUPAC_INCHI>
InChI=1S/C23H34O5/c1-13(24)23(27)10-8-18-17-6-5-15-11-16(28-14(2)25)7-9-21(15,3)20(17)19(26)12-22(18,23)4/h15-18,20,27H,5-12H2,1-4H3/t15-,16-,17-,18-,20+,21-,22-,23-/m0/s1

> <PUBCHEM_IUPAC_INCHIKEY>
RSBZZVJLNTXCGU-FEQOUAIHSA-N

> <PUBCHEM_XLOGP3_AA>
2.9

> <PUBCHEM_EXACT_MASS>
390.240624

> <PUBCHEM_MOLECULAR_FORMULA>
C23H34O5

> <PUBCHEM_MOLECULAR_WEIGHT>
390.51306

> <PUBCHEM_OPENEYE_CAN_SMILES>
CC(=O)C1(CCC2C1(CC(=O)C3C2CCC4C3(CCC(C4)OC(=O)C)C)C)O

> <PUBCHEM_OPENEYE_ISO_SMILES>
CC(=O)[C@]1(CC[C@@H]2[C@@]1(CC(=O)[C@H]3[C@H]2CC[C@@H]4[C@@]3(CC[C@@H](C4)OC(=O)C)C)C)O

> <PUBCHEM_CACTVS_TPSA>
80.7

> <PUBCHEM_MONOISOTOPIC_WEIGHT>
390.240624

> <PUBCHEM_TOTAL_CHARGE>
0

> <PUBCHEM_HEAVY_ATOM_COUNT>
28

> <PUBCHEM_ATOM_DEF_STEREO_COUNT>
8

> <PUBCHEM_ATOM_UDEF_STEREO_COUNT>
0

> <PUBCHEM_BOND_DEF_STEREO_COUNT>
0

> <PUBCHEM_BOND_UDEF_STEREO_COUNT>
0

> <PUBCHEM_ISOTOPIC_ATOM_COUNT>
0

> <PUBCHEM_COMPONENT_COUNT>
1

> <PUBCHEM_CACTVS_TAUTO_COUNT>
6

> <PUBCHEM_COORDINATE_TYPE>
1
5
255

> <PUBCHEM_BONDANNOTATIONS>
12  1  6
10  22  5
11  32  6
24  3  5
6  29  5
7  30  6
8  21  5
9  31  6

$$$$

