440003
  -OEChem-07051212483D

 35 36  0     1  0  0  0  0  0999 V2000
   -0.6505   -2.6973    1.8428 O   0  0  0  0  0  0  0  0  0  0  0  0
   -1.5317   -3.8891    0.1359 O   0  0  0  0  0  0  0  0  0  0  0  0
    2.7042   -1.3200   -1.1658 O   0  0  0  0  0  0  0  0  0  0  0  0
    4.5999    1.6558    1.1102 O   0  0  0  0  0  0  0  0  0  0  0  0
    4.1286    0.9734   -1.0064 O   0  0  0  0  0  0  0  0  0  0  0  0
   -3.5569    0.4405    0.2254 N   0  0  0  0  0  0  0  0  0  0  0  0
    0.9257   -1.2648    0.3261 N   0  0  0  0  0  0  0  0  0  0  0  0
   -0.8287   -1.3660   -1.3951 C   0  0  0  0  0  0  0  0  0  0  0  0
   -1.7526   -0.4154   -0.7436 C   0  0  0  0  0  0  0  0  0  0  0  0
    0.0640   -2.1550   -0.4106 C   0  0  2  0  0  0  0  0  0  0  0  0
   -1.4876    0.9484   -0.4357 C   0  0  0  0  0  0  0  0  0  0  0  0
   -2.6356    1.4620    0.1716 C   0  0  0  0  0  0  0  0  0  0  0  0
   -3.0324   -0.6981   -0.3251 C   0  0  0  0  0  0  0  0  0  0  0  0
   -0.3779    1.7978   -0.6158 C   0  0  0  0  0  0  0  0  0  0  0  0
   -0.7816   -3.0019    0.5294 C   0  0  0  0  0  0  0  0  0  0  0  0
   -2.7296    2.7879    0.6093 C   0  0  0  0  0  0  0  0  0  0  0  0
   -0.4576    3.1263   -0.1828 C   0  0  0  0  0  0  0  0  0  0  0  0
    2.1916   -0.9195   -0.1237 C   0  0  0  0  0  0  0  0  0  0  0  0
   -1.6163    3.6117    0.4202 C   0  0  0  0  0  0  0  0  0  0  0  0
    2.9035    0.0083    0.8352 C   0  0  0  0  0  0  0  0  0  0  0  0
    3.9215    0.9149    0.1986 C   0  0  0  0  0  0  0  0  0  0  0  0
   -1.4120   -2.0783   -1.9941 H   0  0  0  0  0  0  0  0  0  0  0  0
   -0.1914   -0.8290   -2.1096 H   0  0  0  0  0  0  0  0  0  0  0  0
    0.6976   -2.8503   -0.9746 H   0  0  0  0  0  0  0  0  0  0  0  0
   -3.6193   -1.6050   -0.3695 H   0  0  0  0  0  0  0  0  0  0  0  0
   -4.4860    0.5204    0.6151 H   0  0  0  0  0  0  0  0  0  0  0  0
    0.5841   -0.8800    1.2023 H   0  0  0  0  0  0  0  0  0  0  0  0
    0.5314    1.4413   -1.0905 H   0  0  0  0  0  0  0  0  0  0  0  0
   -3.6313    3.1667    1.0787 H   0  0  0  0  0  0  0  0  0  0  0  0
    0.3949    3.7863   -0.3205 H   0  0  0  0  0  0  0  0  0  0  0  0
   -1.6566    4.6471    0.7486 H   0  0  0  0  0  0  0  0  0  0  0  0
    2.1711    0.6446    1.3444 H   0  0  0  0  0  0  0  0  0  0  0  0
    3.4112   -0.6188    1.5763 H   0  0  0  0  0  0  0  0  0  0  0  0
   -1.2170   -3.2639    2.4089 H   0  0  0  0  0  0  0  0  0  0  0  0
    5.2650    2.2389    0.6860 H   0  0  0  0  0  0  0  0  0  0  0  0
  1 15  1  0  0  0  0
  1 34  1  0  0  0  0
  2 15  2  0  0  0  0
  3 18  2  0  0  0  0
  4 21  1  0  0  0  0
  4 35  1  0  0  0  0
  5 21  2  0  0  0  0
  6 12  1  0  0  0  0
  6 13  1  0  0  0  0
  6 26  1  0  0  0  0
  7 10  1  0  0  0  0
  7 18  1  0  0  0  0
  7 27  1  0  0  0  0
  8  9  1  0  0  0  0
  8 10  1  0  0  0  0
  8 22  1  0  0  0  0
  8 23  1  0  0  0  0
  9 11  1  0  0  0  0
  9 13  2  0  0  0  0
 10 15  1  0  0  0  0
 10 24  1  0  0  0  0
 11 12  1  0  0  0  0
 11 14  2  0  0  0  0
 12 16  2  0  0  0  0
 13 25  1  0  0  0  0
 14 17  1  0  0  0  0
 14 28  1  0  0  0  0
 16 19  1  0  0  0  0
 16 29  1  0  0  0  0
 17 19  2  0  0  0  0
 17 30  1  0  0  0  0
 18 20  1  0  0  0  0
 19 31  1  0  0  0  0
 20 21  1  0  0  0  0
 20 32  1  0  0  0  0
 20 33  1  0  0  0  0
M  END
> <PUBCHEM_COMPOUND_CID>
440003

> <PUBCHEM_CONFORMER_RMSD>
0.8

> <PUBCHEM_CONFORMER_DIVERSEORDER>
1
44
6
8
48
4
29
66
15
84
86
31
55
13
27
87
39
49
32
57
18
24
63
22
75
51
17
28
72
68
76
12
88
2
64
23
59
38
52
34
94
54
20
5
30
85
10
89
33
11
62
21
74
70
53
83
41
14
58
77
80
16
19
7
36
45
69
92
25
26
42
91
96
82
93
47
79
43
50
81
95
9
35
3
67
37
60
97
46
40
90
73
65
61
56
71
78

> <PUBCHEM_MMFF94_PARTIAL_CHARGES>
29
1 -0.65
10 0.36
12 -0.15
13 -0.3
14 -0.15
15 0.66
16 -0.15
17 -0.15
18 0.57
19 -0.15
2 -0.57
20 0.12
21 0.66
25 0.15
26 0.27
27 0.37
28 0.15
29 0.15
3 -0.57
30 0.15
31 0.15
34 0.5
35 0.5
4 -0.65
5 -0.57
6 0.03
7 -0.73
8 0.18
9 -0.18

> <PUBCHEM_EFFECTIVE_ROTOR_COUNT>
7

> <PUBCHEM_PHARMACOPHORE_FEATURES>
13
1 1 acceptor
1 2 acceptor
1 20 anion
1 3 acceptor
1 4 acceptor
1 5 acceptor
1 6 cation
1 6 donor
1 7 donor
3 1 2 15 anion
3 4 5 21 anion
5 6 9 11 12 13 rings
6 11 12 14 16 17 19 rings

> <PUBCHEM_HEAVY_ATOM_COUNT>
21

> <PUBCHEM_ATOM_DEF_STEREO_COUNT>
1

> <PUBCHEM_ATOM_UDEF_STEREO_COUNT>
0

> <PUBCHEM_BOND_DEF_STEREO_COUNT>
0

> <PUBCHEM_BOND_UDEF_STEREO_COUNT>
0

> <PUBCHEM_ISOTOPIC_ATOM_COUNT>
0

> <PUBCHEM_COMPONENT_COUNT>
1

> <PUBCHEM_CACTVS_TAUTO_COUNT>
2

> <PUBCHEM_CONFORMER_ID>
0006B6C300000001

> <PUBCHEM_MMFF94_ENERGY>
31.2003

> <PUBCHEM_FEATURE_SELFOVERLAP>
66.45

> <PUBCHEM_SHAPE_FINGERPRINT>
10006869 2 18411425042213435955
10498660 4 18337116760183047229
1100329 8 18123753059012262979
12173636 292 18336832003735362357
128993 33 18044664323905398672
13027679 85 18123470475659482125
13140716 1 18050009891799675584
13764800 53 18271238331488823954
14223421 5 17836922674515773213
14787075 74 18270965627046257039
14790565 3 18337664308874803433
15848702 68 17116638194527234365
20510252 161 18335138717410965929
20671657 1 17616813670443514645
21041028 32 17762898770986970978
21524375 3 18190467253602669710
21665062 11 16823611778777703817
23557571 272 18195232339977757038
23558518 356 18338236080321071326
23559900 14 17472987675986357693
238 59 17114694232205272261
31174 14 17260459796161535069
350125 39 18194680603803773422
69474 34 17980189786939828667
7097593 13 17119736601473335739
7364860 26 17402048293479034983

> <PUBCHEM_SHAPE_MULTIPOLES>
392.86
6.18
4.54
1.11
6.21
1.07
-0.08
-4.5
-0.55
-1.95
-1.05
0.33
0.39
0.02

> <PUBCHEM_SHAPE_SELFOVERLAP>
839.037

> <PUBCHEM_SHAPE_VOLUME>
216.5

> <PUBCHEM_COORDINATE_TYPE>
2
5
10

$$$$

