13004
  -OEChem-06261207382D

 14 14  0     0  0  0  0  0  0999 V2000
    4.3660    0.8660    0.0000 O   0  0  0  0  0  0  0  0  0  0  0  0
    2.8660    0.0000    0.0000 C   0  0  0  0  0  0  0  0  0  0  0  0
    2.0000   -0.5000    0.0000 C   0  0  0  0  0  0  0  0  0  0  0  0
    2.0000    0.5000    0.0000 C   0  0  0  0  0  0  0  0  0  0  0  0
    3.8660    0.0000    0.0000 C   0  0  0  0  0  0  0  0  0  0  0  0
    4.3660   -0.8660    0.0000 C   0  0  0  0  0  0  0  0  0  0  0  0
    3.0265    0.5989    0.0000 H   0  0  0  0  0  0  0  0  0  0  0  0
    1.3894   -0.6077    0.0000 H   0  0  0  0  0  0  0  0  0  0  0  0
    2.2120   -1.0826    0.0000 H   0  0  0  0  0  0  0  0  0  0  0  0
    2.2120    1.0826    0.0000 H   0  0  0  0  0  0  0  0  0  0  0  0
    1.3894    0.6077    0.0000 H   0  0  0  0  0  0  0  0  0  0  0  0
    3.8291   -1.1760    0.0000 H   0  0  0  0  0  0  0  0  0  0  0  0
    4.6760   -1.4030    0.0000 H   0  0  0  0  0  0  0  0  0  0  0  0
    4.9030   -0.5560    0.0000 H   0  0  0  0  0  0  0  0  0  0  0  0
  1  5  2  0  0  0  0
  2  3  1  0  0  0  0
  2  4  1  0  0  0  0
  2  5  1  0  0  0  0
  2  7  1  0  0  0  0
  3  4  1  0  0  0  0
  3  8  1  0  0  0  0
  3  9  1  0  0  0  0
  4 10  1  0  0  0  0
  4 11  1  0  0  0  0
  5  6  1  0  0  0  0
  6 12  1  0  0  0  0
  6 13  1  0  0  0  0
  6 14  1  0  0  0  0
M  END
> <PUBCHEM_COMPOUND_CID>
13004

> <PUBCHEM_COMPOUND_CANONICALIZED>
1

> <PUBCHEM_CACTVS_COMPLEXITY>
72

> <PUBCHEM_CACTVS_HBOND_ACCEPTOR>
1

> <PUBCHEM_CACTVS_HBOND_DONOR>
0

> <PUBCHEM_CACTVS_ROTATABLE_BOND>
1

> <PUBCHEM_CACTVS_SUBSKEYS>
AAADccBgIAAAAAAAAAAAAAAAGAAAAAAAAAAAAAAAAAAAAAAAAAAAGgAAAAAADQSAgAACAAAAAAAIAIAQAAAAAAAAAAAAAAEAAAAAABIAAAAAAAAAAAAAAAAAAAAIAAAAAAAAAAAAAAAAAAAAAAAAAAAAAA==

> <PUBCHEM_IUPAC_OPENEYE_NAME>
1-cyclopropylethanone

> <PUBCHEM_IUPAC_CAS_NAME>
1-cyclopropylethanone

> <PUBCHEM_IUPAC_NAME>
1-cyclopropylethanone

> <PUBCHEM_IUPAC_SYSTEMATIC_NAME>
1-cyclopropylethanone

> <PUBCHEM_IUPAC_TRADITIONAL_NAME>
1-cyclopropylethanone

> <PUBCHEM_IUPAC_INCHI>
InChI=1S/C5H8O/c1-4(6)5-2-3-5/h5H,2-3H2,1H3

> <PUBCHEM_IUPAC_INCHIKEY>
HVCFCNAITDHQFX-UHFFFAOYSA-N

> <PUBCHEM_XLOGP3>
0.5

> <PUBCHEM_EXACT_MASS>
84.057515

> <PUBCHEM_MOLECULAR_FORMULA>
C5H8O

> <PUBCHEM_MOLECULAR_WEIGHT>
84.11642

> <PUBCHEM_OPENEYE_CAN_SMILES>
CC(=O)C1CC1

> <PUBCHEM_OPENEYE_ISO_SMILES>
CC(=O)C1CC1

> <PUBCHEM_CACTVS_TPSA>
17.1

> <PUBCHEM_MONOISOTOPIC_WEIGHT>
84.057515

> <PUBCHEM_TOTAL_CHARGE>
0

> <PUBCHEM_HEAVY_ATOM_COUNT>
6

> <PUBCHEM_ATOM_DEF_STEREO_COUNT>
0

> <PUBCHEM_ATOM_UDEF_STEREO_COUNT>
0

> <PUBCHEM_BOND_DEF_STEREO_COUNT>
0

> <PUBCHEM_BOND_UDEF_STEREO_COUNT>
0

> <PUBCHEM_ISOTOPIC_ATOM_COUNT>
0

> <PUBCHEM_COMPONENT_COUNT>
1

> <PUBCHEM_CACTVS_TAUTO_COUNT>
3

> <PUBCHEM_COORDINATE_TYPE>
1
5
255

$$$$

