442191
  -OEChem-07051212572D

 37 39  0     1  0  0  0  0  0999 V2000
    3.5836    0.3977    0.0000 O   0  0  0  0  0  0  0  0  0  0  0  0
    2.0000   -0.4070    0.0000 O   0  0  0  0  0  0  0  0  0  0  0  0
    6.2619    0.0930    0.0000 C   0  0  1  0  0  0  0  0  0  0  0  0
    5.3958    0.5930    0.0000 C   0  0  1  0  0  0  0  0  0  0  0  0
    4.5298    0.0930    0.0000 C   0  0  2  0  0  0  0  0  0  0  0  0
    6.2619   -0.9070    0.0000 C   0  0  0  0  0  0  0  0  0  0  0  0
    4.5298   -0.9070    0.0000 C   0  0  1  0  0  0  0  0  0  0  0  0
    5.3958   -1.4070    0.0000 C   0  0  0  0  0  0  0  0  0  0  0  0
    7.1719    0.5998    0.0000 C   0  0  0  0  0  0  0  0  0  0  0  0
    5.3798    1.6345    0.0000 C   0  0  0  0  0  0  0  0  0  0  0  0
    7.1279   -0.4070    0.0000 C   0  0  0  0  0  0  0  0  0  0  0  0
    7.1799    1.6414    0.0000 C   0  0  0  0  0  0  0  0  0  0  0  0
    3.5836   -1.2117    0.0000 C   0  0  0  0  0  0  0  0  0  0  0  0
    6.2778    2.1623    0.0000 C   0  0  0  0  0  0  0  0  0  0  0  0
    3.0000   -0.4070    0.0000 C   0  0  0  0  0  0  0  0  0  0  0  0
    4.5080    2.1245    0.0000 C   0  0  0  0  0  0  0  0  0  0  0  0
    3.2729   -2.1623    0.0000 C   0  0  0  0  0  0  0  0  0  0  0  0
    6.1287    1.0237    0.0000 H   0  0  0  0  0  0  0  0  0  0  0  0
    4.4399    0.9382    0.0000 H   0  0  0  0  0  0  0  0  0  0  0  0
    4.4399   -1.7522    0.0000 H   0  0  0  0  0  0  0  0  0  0  0  0
    6.4739   -1.4896    0.0000 H   0  0  0  0  0  0  0  0  0  0  0  0
    6.8725   -0.7993    0.0000 H   0  0  0  0  0  0  0  0  0  0  0  0
    4.9973   -1.8820    0.0000 H   0  0  0  0  0  0  0  0  0  0  0  0
    5.7944   -1.8820    0.0000 H   0  0  0  0  0  0  0  0  0  0  0  0
    7.3764    0.0146    0.0000 H   0  0  0  0  0  0  0  0  0  0  0  0
    7.7835    0.7012    0.0000 H   0  0  0  0  0  0  0  0  0  0  0  0
    6.8179   -0.9439    0.0000 H   0  0  0  0  0  0  0  0  0  0  0  0
    7.6648   -0.7170    0.0000 H   0  0  0  0  0  0  0  0  0  0  0  0
    7.4379    0.1299    0.0000 H   0  0  0  0  0  0  0  0  0  0  0  0
    7.7899    1.5306    0.0000 H   0  0  0  0  0  0  0  0  0  0  0  0
    7.3935    2.2235    0.0000 H   0  0  0  0  0  0  0  0  0  0  0  0
    6.2754    2.7822    0.0000 H   0  0  0  0  0  0  0  0  0  0  0  0
    4.8118    2.6649    0.0000 H   0  0  0  0  0  0  0  0  0  0  0  0
    3.9676    2.4282    0.0000 H   0  0  0  0  0  0  0  0  0  0  0  0
    4.2043    1.5840    0.0000 H   0  0  0  0  0  0  0  0  0  0  0  0
    2.6663   -2.2901    0.0000 H   0  0  0  0  0  0  0  0  0  0  0  0
    3.6870   -2.6237    0.0000 H   0  0  0  0  0  0  0  0  0  0  0  0
  1  5  1  0  0  0  0
  1 15  1  0  0  0  0
  2 15  2  0  0  0  0
  3  4  1  0  0  0  0
  3  6  1  0  0  0  0
  3  9  1  0  0  0  0
  3 11  1  1  0  0  0
  4  5  1  0  0  0  0
  4 10  1  0  0  0  0
  4 18  1  6  0  0  0
  5  7  1  0  0  0  0
  5 19  1  1  0  0  0
  6  8  1  0  0  0  0
  6 21  1  0  0  0  0
  6 22  1  0  0  0  0
  7  8  1  0  0  0  0
  7 13  1  0  0  0  0
  7 20  1  6  0  0  0
  8 23  1  0  0  0  0
  8 24  1  0  0  0  0
  9 12  1  0  0  0  0
  9 25  1  0  0  0  0
  9 26  1  0  0  0  0
 10 14  2  0  0  0  0
 10 16  1  0  0  0  0
 11 27  1  0  0  0  0
 11 28  1  0  0  0  0
 11 29  1  0  0  0  0
 12 14  1  0  0  0  0
 12 30  1  0  0  0  0
 12 31  1  0  0  0  0
 13 15  1  0  0  0  0
 13 17  2  0  0  0  0
 14 32  1  0  0  0  0
 16 33  1  0  0  0  0
 16 34  1  0  0  0  0
 16 35  1  0  0  0  0
 17 36  1  0  0  0  0
 17 37  1  0  0  0  0
M  END
> <PUBCHEM_COMPOUND_CID>
442191

> <PUBCHEM_COMPOUND_CANONICALIZED>
1

> <PUBCHEM_CACTVS_COMPLEXITY>
421

> <PUBCHEM_CACTVS_HBOND_ACCEPTOR>
2

> <PUBCHEM_CACTVS_HBOND_DONOR>
0

> <PUBCHEM_CACTVS_ROTATABLE_BOND>
0

> <PUBCHEM_CACTVS_SUBSKEYS>
AAADceBwMAAAAAAAAAAAAAAAAAAAASAAAAAwQAAAAAAAAEiAAAAAGgAAAAAADxSggAICCAAABACIAiDSCAAAAAAgAAAACAEAAEgABBIAIQACAAAEwAAIIIOKyPCPgAAAAAAAAACAAAYAADAAAAAAAAAAAA==

> <PUBCHEM_IUPAC_OPENEYE_NAME>
(3aS,5aR,9aR,9bS)-5a,9-dimethyl-3-methylene-4,5,6,7,9a,9b-hexahydro-3aH-benzo[g]benzofuran-2-one

> <PUBCHEM_IUPAC_CAS_NAME>
(3aS,5aR,9aR,9bS)-5a,9-dimethyl-3-methylene-4,5,6,7,9a,9b-hexahydro-3aH-benzo[g]benzofuran-2-one

> <PUBCHEM_IUPAC_NAME>
(3aS,5aR,9aR,9bS)-5a,9-dimethyl-3-methylidene-4,5,6,7,9a,9b-hexahydro-3aH-benzo[g][1]benzofuran-2-one

> <PUBCHEM_IUPAC_SYSTEMATIC_NAME>
(3aS,5aR,9aR,9bS)-5a,9-dimethyl-3-methylidene-4,5,6,7,9a,9b-hexahydro-3aH-benzo[g][1]benzofuran-2-one

> <PUBCHEM_IUPAC_TRADITIONAL_NAME>
(3aS,5aR,9aR,9bS)-5a,9-dimethyl-3-methylene-4,5,6,7,9a,9b-hexahydro-3aH-benzo[g]benzofuran-2-one

> <PUBCHEM_IUPAC_INCHI>
InChI=1S/C15H20O2/c1-9-5-4-7-15(3)8-6-11-10(2)14(16)17-13(11)12(9)15/h5,11-13H,2,4,6-8H2,1,3H3/t11-,12+,13-,15+/m0/s1

> <PUBCHEM_IUPAC_INCHIKEY>
UHODXTMZSDNATP-SFDCQRBFSA-N

> <PUBCHEM_XLOGP3_AA>
3.3

> <PUBCHEM_EXACT_MASS>
232.14633

> <PUBCHEM_MOLECULAR_FORMULA>
C15H20O2

> <PUBCHEM_MOLECULAR_WEIGHT>
232.3181

> <PUBCHEM_OPENEYE_CAN_SMILES>
CC1=CCCC2(C1C3C(CC2)C(=C)C(=O)O3)C

> <PUBCHEM_OPENEYE_ISO_SMILES>
CC1=CCC[C@]2([C@H]1[C@@H]3[C@@H](CC2)C(=C)C(=O)O3)C

> <PUBCHEM_CACTVS_TPSA>
26.3

> <PUBCHEM_MONOISOTOPIC_WEIGHT>
232.14633

> <PUBCHEM_TOTAL_CHARGE>
0

> <PUBCHEM_HEAVY_ATOM_COUNT>
17

> <PUBCHEM_ATOM_DEF_STEREO_COUNT>
4

> <PUBCHEM_ATOM_UDEF_STEREO_COUNT>
0

> <PUBCHEM_BOND_DEF_STEREO_COUNT>
0

> <PUBCHEM_BOND_UDEF_STEREO_COUNT>
0

> <PUBCHEM_ISOTOPIC_ATOM_COUNT>
0

> <PUBCHEM_COMPONENT_COUNT>
1

> <PUBCHEM_CACTVS_TAUTO_COUNT>
1

> <PUBCHEM_COORDINATE_TYPE>
1
5
255

> <PUBCHEM_BONDANNOTATIONS>
3  11  5
4  18  6
5  19  5
7  20  6

$$$$

