46173991
  -OEChem-07051213103D

 64 67  0     1  0  0  0  0  0999 V2000
    2.2652   -0.8843   -1.0724 O   0  0  0  0  0  0  0  0  0  0  0  0
   -0.3908   -2.6543    0.7301 O   0  0  0  0  0  0  0  0  0  0  0  0
    2.4928    0.7592    0.5602 O   0  0  0  0  0  0  0  0  0  0  0  0
   -0.1023   -0.3570    0.4330 O   0  0  0  0  0  0  0  0  0  0  0  0
    3.5182   -3.3939   -0.2987 O   0  0  0  0  0  0  0  0  0  0  0  0
    1.6153   -5.5446   -0.3247 O   0  0  0  0  0  0  0  0  0  0  0  0
    4.5004    0.2082   -2.4554 O   0  0  0  0  0  0  0  0  0  0  0  0
    4.8601    3.0432   -1.9024 O   0  0  0  0  0  0  0  0  0  0  0  0
    4.8644    3.5129    0.9723 O   0  0  0  0  0  0  0  0  0  0  0  0
   -2.3066   -4.5861    1.0630 O   0  0  0  0  0  0  0  0  0  0  0  0
    3.1623    3.1576    3.0349 O   0  0  0  0  0  0  0  0  0  0  0  0
    1.2689    2.0733    2.3753 O   0  0  0  0  0  0  0  0  0  0  0  0
    0.0042    2.0863   -0.8847 O   0  0  0  0  0  0  0  0  0  0  0  0
   -7.6858    0.7320    0.5618 O   0  0  0  0  0  0  0  0  0  0  0  0
   -6.6645    2.7670    0.4562 O   0  0  0  0  0  0  0  0  0  0  0  0
   -4.8338    1.8976   -1.2800 N   0  0  0  0  0  0  0  0  0  0  0  0
    1.7149   -1.8029   -0.1292 C   0  0  2  0  0  0  0  0  0  0  0  0
    2.1216   -3.2175   -0.5424 C   0  0  2  0  0  0  0  0  0  0  0  0
    1.3529   -4.2699    0.2566 C   0  0  1  0  0  0  0  0  0  0  0  0
    0.1943   -1.6493   -0.0946 C   0  0  1  0  0  0  0  0  0  0  0  0
   -0.1487   -3.9744    0.2405 C   0  0  1  0  0  0  0  0  0  0  0  0
    3.1693    0.0150   -0.4498 C   0  0  2  0  0  0  0  0  0  0  0  0
    3.7138    0.9535   -1.5270 C   0  0  1  0  0  0  0  0  0  0  0  0
    4.5956    2.0436   -0.9172 C   0  0  2  0  0  0  0  0  0  0  0  0
    3.9114    2.7118    0.2756 C   0  0  1  0  0  0  0  0  0  0  0  0
    3.3565    1.6665    1.2350 C   0  0  1  0  0  0  0  0  0  0  0  0
   -0.9358   -4.9348    1.1269 C   0  0  0  0  0  0  0  0  0  0  0  0
   -1.2511    0.2373   -0.0130 C   0  0  0  0  0  0  0  0  0  0  0  0
    2.4643    2.2963    2.2550 C   0  0  0  0  0  0  0  0  0  0  0  0
   -3.6224    0.2258   -0.2560 C   0  0  0  0  0  0  0  0  0  0  0  0
   -5.0410   -0.2404   -0.1618 C   0  0  0  0  0  0  0  0  0  0  0  0
   -5.8147    0.9171   -0.8416 C   0  0  1  0  0  0  0  0  0  0  0  0
   -3.5730    1.4487   -0.9264 C   0  0  0  0  0  0  0  0  0  0  0  0
   -2.4750   -0.3969    0.2042 C   0  0  0  0  0  0  0  0  0  0  0  0
   -1.1957    1.4712   -0.6797 C   0  0  0  0  0  0  0  0  0  0  0  0
   -2.3636    2.0863   -1.1393 C   0  0  0  0  0  0  0  0  0  0  0  0
   -6.7415    1.5959    0.1157 C   0  0  0  0  0  0  0  0  0  0  0  0
    2.1087   -1.6198    0.8814 H   0  0  0  0  0  0  0  0  0  0  0  0
    1.9794   -3.3612   -1.6201 H   0  0  0  0  0  0  0  0  0  0  0  0
    1.7269   -4.2968    1.2873 H   0  0  0  0  0  0  0  0  0  0  0  0
   -0.2054   -1.7268   -1.1167 H   0  0  0  0  0  0  0  0  0  0  0  0
   -0.5524   -4.0476   -0.7786 H   0  0  0  0  0  0  0  0  0  0  0  0
    3.9873   -0.5671   -0.0033 H   0  0  0  0  0  0  0  0  0  0  0  0
    2.8906    1.4003   -2.0972 H   0  0  0  0  0  0  0  0  0  0  0  0
    5.5720    1.6373   -0.6274 H   0  0  0  0  0  0  0  0  0  0  0  0
    3.1177    3.3837   -0.0738 H   0  0  0  0  0  0  0  0  0  0  0  0
    4.1385    1.1076    1.7639 H   0  0  0  0  0  0  0  0  0  0  0  0
   -0.6181   -4.8505    2.1716 H   0  0  0  0  0  0  0  0  0  0  0  0
   -0.8192   -5.9711    0.7955 H   0  0  0  0  0  0  0  0  0  0  0  0
    3.6791   -3.2596    0.6509 H   0  0  0  0  0  0  0  0  0  0  0  0
    1.2508   -5.5444   -1.2262 H   0  0  0  0  0  0  0  0  0  0  0  0
    5.2198   -0.2228   -1.9631 H   0  0  0  0  0  0  0  0  0  0  0  0
    4.0093    3.4149   -2.1915 H   0  0  0  0  0  0  0  0  0  0  0  0
    5.5715    2.9284    1.2948 H   0  0  0  0  0  0  0  0  0  0  0  0
   -5.3297   -0.4022    0.8815 H   0  0  0  0  0  0  0  0  0  0  0  0
   -5.1705   -1.1703   -0.7257 H   0  0  0  0  0  0  0  0  0  0  0  0
   -6.3956    0.5626   -1.7006 H   0  0  0  0  0  0  0  0  0  0  0  0
   -2.5486   -1.3414    0.7307 H   0  0  0  0  0  0  0  0  0  0  0  0
   -5.0294    2.7184   -1.8320 H   0  0  0  0  0  0  0  0  0  0  0  0
   -2.7877   -5.2065    1.6366 H   0  0  0  0  0  0  0  0  0  0  0  0
   -2.3282    3.0430   -1.6516 H   0  0  0  0  0  0  0  0  0  0  0  0
    2.5931    3.5835    3.7109 H   0  0  0  0  0  0  0  0  0  0  0  0
   -0.1450    2.9233   -1.3571 H   0  0  0  0  0  0  0  0  0  0  0  0
   -8.3035    1.1583    1.1934 H   0  0  0  0  0  0  0  0  0  0  0  0
  1 17  1  0  0  0  0
  1 22  1  0  0  0  0
  2 20  1  0  0  0  0
  2 21  1  0  0  0  0
  3 22  1  0  0  0  0
  3 26  1  0  0  0  0
  4 20  1  0  0  0  0
  4 28  1  0  0  0  0
  5 18  1  0  0  0  0
  5 50  1  0  0  0  0
  6 19  1  0  0  0  0
  6 51  1  0  0  0  0
  7 23  1  0  0  0  0
  7 52  1  0  0  0  0
  8 24  1  0  0  0  0
  8 53  1  0  0  0  0
  9 25  1  0  0  0  0
  9 54  1  0  0  0  0
 10 27  1  0  0  0  0
 10 60  1  0  0  0  0
 11 29  1  0  0  0  0
 11 62  1  0  0  0  0
 12 29  2  0  0  0  0
 13 35  1  0  0  0  0
 13 63  1  0  0  0  0
 14 37  1  0  0  0  0
 14 64  1  0  0  0  0
 15 37  2  0  0  0  0
 16 32  1  0  0  0  0
 16 33  1  0  0  0  0
 16 59  1  0  0  0  0
 17 18  1  0  0  0  0
 17 20  1  0  0  0  0
 17 38  1  0  0  0  0
 18 19  1  0  0  0  0
 18 39  1  0  0  0  0
 19 21  1  0  0  0  0
 19 40  1  0  0  0  0
 20 41  1  0  0  0  0
 21 27  1  0  0  0  0
 21 42  1  0  0  0  0
 22 23  1  0  0  0  0
 22 43  1  0  0  0  0
 23 24  1  0  0  0  0
 23 44  1  0  0  0  0
 24 25  1  0  0  0  0
 24 45  1  0  0  0  0
 25 26  1  0  0  0  0
 25 46  1  0  0  0  0
 26 29  1  0  0  0  0
 26 47  1  0  0  0  0
 27 48  1  0  0  0  0
 27 49  1  0  0  0  0
 28 34  1  0  0  0  0
 28 35  2  0  0  0  0
 30 31  1  0  0  0  0
 30 33  1  0  0  0  0
 30 34  2  0  0  0  0
 31 32  1  0  0  0  0
 31 55  1  0  0  0  0
 31 56  1  0  0  0  0
 32 37  1  0  0  0  0
 32 57  1  0  0  0  0
 33 36  2  0  0  0  0
 34 58  1  0  0  0  0
 35 36  1  0  0  0  0
 36 61  1  0  0  0  0
M  END
> <PUBCHEM_COMPOUND_CID>
46173991

> <PUBCHEM_CONFORMER_RMSD>
1

> <PUBCHEM_CONFORMER_DIVERSEORDER>
1
5
19
8
4
26
24
17
22
14
20
16
13
6
12
23
21
25
2
15
27
18
9
10
7
3
11

> <PUBCHEM_MMFF94_PARTIAL_CHARGES>
49
1 -0.56
10 -0.68
11 -0.65
12 -0.57
13 -0.53
14 -0.65
15 -0.57
16 -0.87
17 0.28
18 0.28
19 0.28
2 -0.56
20 0.56
21 0.28
22 0.56
23 0.28
24 0.28
25 0.28
26 0.34
27 0.28
28 0.08
29 0.66
3 -0.56
30 -0.14
31 0.14
32 0.43
33 0.1
34 -0.15
35 0.08
36 -0.15
37 0.66
4 -0.36
5 -0.68
50 0.4
51 0.4
52 0.4
53 0.4
54 0.4
58 0.15
59 0.4
6 -0.68
60 0.4
61 0.15
62 0.5
63 0.45
64 0.5
7 -0.68
8 -0.68
9 -0.68

> <PUBCHEM_EFFECTIVE_ROTOR_COUNT>
10

> <PUBCHEM_PHARMACOPHORE_FEATURES>
29
1 1 acceptor
1 10 acceptor
1 10 donor
1 11 acceptor
1 12 acceptor
1 13 donor
1 14 acceptor
1 15 acceptor
1 16 cation
1 16 donor
1 2 acceptor
1 3 acceptor
1 4 acceptor
1 5 acceptor
1 5 donor
1 6 acceptor
1 6 donor
1 7 acceptor
1 7 donor
1 8 acceptor
1 8 donor
1 9 acceptor
1 9 donor
3 11 12 29 anion
3 14 15 37 anion
5 16 30 31 32 33 rings
6 2 17 18 19 20 21 rings
6 28 30 33 34 35 36 rings
6 3 22 23 24 25 26 rings

> <PUBCHEM_HEAVY_ATOM_COUNT>
37

> <PUBCHEM_ATOM_DEF_STEREO_COUNT>
11

> <PUBCHEM_ATOM_UDEF_STEREO_COUNT>
0

> <PUBCHEM_BOND_DEF_STEREO_COUNT>
0

> <PUBCHEM_BOND_UDEF_STEREO_COUNT>
0

> <PUBCHEM_ISOTOPIC_ATOM_COUNT>
0

> <PUBCHEM_COMPONENT_COUNT>
1

> <PUBCHEM_CACTVS_TAUTO_COUNT>
9

> <PUBCHEM_CONFORMER_ID>
02C08F2700000001

> <PUBCHEM_MMFF94_ENERGY>
119.2381

> <PUBCHEM_FEATURE_SELFOVERLAP>
147.503

> <PUBCHEM_SHAPE_FINGERPRINT>
10074138 170 17836960830751991618
10165383 225 18412257329491889748
10675989 125 18187368744026552536
10721379 63 18114183102555071648
10842077 115 17340725115578368877
10930396 42 17910422768493211938
11014199 57 17328018188465908758
12522641 24 18262234551597561689
12730499 353 18411131455022131853
12788726 201 17410211703606224114
131258 43 17682671084839731662
13533116 47 18263083370263451901
1361 2 18343016688433432405
13726171 33 17982441603886377592
13955234 65 18338521970650905651
14068700 675 17902511820463237582
14114211 68 18339906191022719220
14415360 78 18116986694071880072
14790565 3 18341888559533989373
15297060 5 18339911624346525372
15392192 104 18131055027976674593
15406563 190 17916576524112839609
15968369 153 17468762888292470455
19319366 153 18335425694061357135
21033648 29 18263930938266113408
21716022 299 17902777889175766054
22149856 69 18129077071051387009
23522609 53 17969207002183127233
23559900 14 17983869053530279949
25223398 141 18126553532281541550
3178227 256 18197214960873719819
376196 1 16592000320275945776
4058900 60 18409160013298819769
437795 51 18114737145437449849
508706 21 18049163271972144918
653340 110 18050571746562946563
7808743 9 18127411146993306452
9658208 31 18337669707046417830
9777508 108 18121786032172088586
9896288 288 17909843037611298410

> <PUBCHEM_SHAPE_MULTIPOLES>
668.42
13.01
6.61
1.75
21.72
10.8
0.68
-14.36
-1.71
-4.8
1.89
-2.36
-1.71
1.87

> <PUBCHEM_SHAPE_SELFOVERLAP>
1436.794

> <PUBCHEM_SHAPE_VOLUME>
363.5

> <PUBCHEM_COORDINATE_TYPE>
2
5
10

$$$$

