2381
  -OEChem-07051212542D

 52 55  0     1  0  0  0  0  0999 V2000
    7.0884   -0.7672    0.0000 O   0  0  0  0  0  0  0  0  0  0  0  0
    3.9318    0.9752    0.0000 N   0  0  0  0  0  0  0  0  0  0  0  0
    6.3813    0.4576    0.0000 C   0  0  3  0  0  0  0  0  0  0  0  0
    8.1134    1.4576    0.0000 C   0  0  3  0  0  0  0  0  0  0  0  0
    8.3722    2.4235    0.0000 C   0  0  3  0  0  0  0  0  0  0  0  0
    5.8813    1.3236    0.0000 C   0  0  0  0  0  0  0  0  0  0  0  0
    7.6356    3.4061    0.0000 C   0  0  0  0  0  0  0  0  0  0  0  0
    6.1225   -0.5083    0.0000 C   0  0  3  0  0  0  0  0  0  0  0  0
    9.9453    0.6988    0.0000 C   0  0  0  0  0  0  0  0  0  0  0  0
   10.2042    1.6647    0.0000 C   0  0  0  0  0  0  0  0  0  0  0  0
    5.1566   -0.2495    0.0000 C   0  0  0  0  0  0  0  0  0  0  0  0
    5.8637   -1.4743    0.0000 C   0  0  0  0  0  0  0  0  0  0  0  0
    4.8978    0.7164    0.0000 C   0  0  0  0  0  0  0  0  0  0  0  0
    4.8978   -1.7331    0.0000 C   0  0  0  0  0  0  0  0  0  0  0  0
    6.5708   -2.1814    0.0000 C   0  0  0  0  0  0  0  0  0  0  0  0
    3.6730    1.9412    0.0000 C   0  0  0  0  0  0  0  0  0  0  0  0
    3.2247    0.2681    0.0000 C   0  0  0  0  0  0  0  0  0  0  0  0
    2.2588    0.5269    0.0000 C   0  0  0  0  0  0  0  0  0  0  0  0
    2.7071    2.2000    0.0000 C   0  0  0  0  0  0  0  0  0  0  0  0
    2.0000    1.4929    0.0000 C   0  0  0  0  0  0  0  0  0  0  0  0
    4.6390   -2.6990    0.0000 C   0  0  0  0  0  0  0  0  0  0  0  0
    6.3120   -3.1473    0.0000 C   0  0  0  0  0  0  0  0  0  0  0  0
    5.3461   -3.4061    0.0000 C   0  0  0  0  0  0  0  0  0  0  0  0
    5.7666    0.3767    0.0000 H   0  0  0  0  0  0  0  0  0  0  0  0
    8.1539    0.8389    0.0000 H   0  0  0  0  0  0  0  0  0  0  0  0
    8.3794    1.8036    0.0000 H   0  0  0  0  0  0  0  0  0  0  0  0
    5.6107    1.8814    0.0000 H   0  0  0  0  0  0  0  0  0  0  0  0
    5.3336    1.0331    0.0000 H   0  0  0  0  0  0  0  0  0  0  0  0
    7.9534    3.9385    0.0000 H   0  0  0  0  0  0  0  0  0  0  0  0
    7.0224    3.4981    0.0000 H   0  0  0  0  0  0  0  0  0  0  0  0
   10.2196    0.1427    0.0000 H   0  0  0  0  0  0  0  0  0  0  0  0
   10.7602    1.9389    0.0000 H   0  0  0  0  0  0  0  0  0  0  0  0
    4.5390   -0.3036    0.0000 H   0  0  0  0  0  0  0  0  0  0  0  0
    5.1026   -0.8672    0.0000 H   0  0  0  0  0  0  0  0  0  0  0  0
    5.5154    0.7704    0.0000 H   0  0  0  0  0  0  0  0  0  0  0  0
    4.9518    1.3340    0.0000 H   0  0  0  0  0  0  0  0  0  0  0  0
    7.5268   -0.3288    0.0000 H   0  0  0  0  0  0  0  0  0  0  0  0
    4.2907    1.9952    0.0000 H   0  0  0  0  0  0  0  0  0  0  0  0
    3.7271    2.5588    0.0000 H   0  0  0  0  0  0  0  0  0  0  0  0
    2.9627   -0.2938    0.0000 H   0  0  0  0  0  0  0  0  0  0  0  0
    3.7326   -0.0875    0.0000 H   0  0  0  0  0  0  0  0  0  0  0  0
    4.4594   -1.2947    0.0000 H   0  0  0  0  0  0  0  0  0  0  0  0
    7.1697   -2.0209    0.0000 H   0  0  0  0  0  0  0  0  0  0  0  0
    2.9691    2.7619    0.0000 H   0  0  0  0  0  0  0  0  0  0  0  0
    1.6412    0.4729    0.0000 H   0  0  0  0  0  0  0  0  0  0  0  0
    2.2048   -0.0907    0.0000 H   0  0  0  0  0  0  0  0  0  0  0  0
    2.1992    2.5556    0.0000 H   0  0  0  0  0  0  0  0  0  0  0  0
    1.6444    2.0007    0.0000 H   0  0  0  0  0  0  0  0  0  0  0  0
    1.4381    1.2308    0.0000 H   0  0  0  0  0  0  0  0  0  0  0  0
    4.0401   -2.8595    0.0000 H   0  0  0  0  0  0  0  0  0  0  0  0
    6.7504   -3.5857    0.0000 H   0  0  0  0  0  0  0  0  0  0  0  0
    5.1856   -4.0050    0.0000 H   0  0  0  0  0  0  0  0  0  0  0  0
  1  8  1  0  0  0  0
  1 37  1  0  0  0  0
  2 13  1  0  0  0  0
  2 16  1  0  0  0  0
  2 17  1  0  0  0  0
  3  4  1  0  0  0  0
  3  6  1  0  0  0  0
  3  8  1  0  0  0  0
  3 24  1  0  0  0  0
  4  7  1  0  0  0  0
  4  9  1  0  0  0  0
  4 25  1  0  0  0  0
  5  6  1  0  0  0  0
  5  7  1  0  0  0  0
  5 10  1  0  0  0  0
  5 26  1  0  0  0  0
  6 27  1  0  0  0  0
  6 28  1  0  0  0  0
  7 29  1  0  0  0  0
  7 30  1  0  0  0  0
  8 11  1  0  0  0  0
  8 12  1  0  0  0  0
  9 10  2  0  0  0  0
  9 31  1  0  0  0  0
 10 32  1  0  0  0  0
 11 13  1  0  0  0  0
 11 33  1  0  0  0  0
 11 34  1  0  0  0  0
 12 14  2  0  0  0  0
 12 15  1  0  0  0  0
 13 35  1  0  0  0  0
 13 36  1  0  0  0  0
 14 21  1  0  0  0  0
 14 42  1  0  0  0  0
 15 22  2  0  0  0  0
 15 43  1  0  0  0  0
 16 19  1  0  0  0  0
 16 38  1  0  0  0  0
 16 39  1  0  0  0  0
 17 18  1  0  0  0  0
 17 40  1  0  0  0  0
 17 41  1  0  0  0  0
 18 20  1  0  0  0  0
 18 45  1  0  0  0  0
 18 46  1  0  0  0  0
 19 20  1  0  0  0  0
 19 44  1  0  0  0  0
 19 47  1  0  0  0  0
 20 48  1  0  0  0  0
 20 49  1  0  0  0  0
 21 23  2  0  0  0  0
 21 50  1  0  0  0  0
 22 23  1  0  0  0  0
 22 51  1  0  0  0  0
 23 52  1  0  0  0  0
M  END
> <PUBCHEM_COMPOUND_CID>
2381

> <PUBCHEM_COMPOUND_CANONICALIZED>
1

> <PUBCHEM_CACTVS_COMPLEXITY>
422

> <PUBCHEM_CACTVS_HBOND_ACCEPTOR>
2

> <PUBCHEM_CACTVS_HBOND_DONOR>
1

> <PUBCHEM_CACTVS_ROTATABLE_BOND>
5

> <PUBCHEM_CACTVS_SUBSKEYS>
AAADceB6IAAAAAAAAAAAAAAAAAAAAYIAAAA8QIAAAAAAAAABAAAAHgAACAAADUTBmAQwAIMAAgCAAiBCAAACAAAgAAAIiAAICIgIJiKAkRCEcAAmwAGImAeQwPAOgAAAAAAAAAAAAAAAAAAAAQAACAAAAA==

> <PUBCHEM_IUPAC_OPENEYE_NAME>
1-(5-bicyclo[2.2.1]hept-2-enyl)-1-phenyl-3-(1-piperidyl)propan-1-ol

> <PUBCHEM_IUPAC_CAS_NAME>
1-(5-bicyclo[2.2.1]hept-2-enyl)-1-phenyl-3-(1-piperidinyl)-1-propanol

> <PUBCHEM_IUPAC_NAME>
1-(5-bicyclo[2.2.1]hept-2-enyl)-1-phenyl-3-piperidin-1-ylpropan-1-ol

> <PUBCHEM_IUPAC_SYSTEMATIC_NAME>
1-(5-bicyclo[2.2.1]hept-2-enyl)-1-phenyl-3-piperidin-1-yl-propan-1-ol

> <PUBCHEM_IUPAC_TRADITIONAL_NAME>
1-(5-bicyclo[2.2.1]hept-2-enyl)-1-phenyl-3-piperidino-propan-1-ol

> <PUBCHEM_IUPAC_INCHI>
InChI=1S/C21H29NO/c23-21(19-7-3-1-4-8-19,11-14-22-12-5-2-6-13-22)20-16-17-9-10-18(20)15-17/h1,3-4,7-10,17-18,20,23H,2,5-6,11-16H2

> <PUBCHEM_IUPAC_INCHIKEY>
YSXKPIUOCJLQIE-UHFFFAOYSA-N

> <PUBCHEM_XLOGP3>
4.3

> <PUBCHEM_EXACT_MASS>
311.224915

> <PUBCHEM_MOLECULAR_FORMULA>
C21H29NO

> <PUBCHEM_MOLECULAR_WEIGHT>
311.46106

> <PUBCHEM_OPENEYE_CAN_SMILES>
C1CCN(CC1)CCC(C2CC3CC2C=C3)(C4=CC=CC=C4)O

> <PUBCHEM_OPENEYE_ISO_SMILES>
C1CCN(CC1)CCC(C2CC3CC2C=C3)(C4=CC=CC=C4)O

> <PUBCHEM_CACTVS_TPSA>
23.5

> <PUBCHEM_MONOISOTOPIC_WEIGHT>
311.224915

> <PUBCHEM_TOTAL_CHARGE>
0

> <PUBCHEM_HEAVY_ATOM_COUNT>
23

> <PUBCHEM_ATOM_DEF_STEREO_COUNT>
0

> <PUBCHEM_ATOM_UDEF_STEREO_COUNT>
4

> <PUBCHEM_BOND_DEF_STEREO_COUNT>
0

> <PUBCHEM_BOND_UDEF_STEREO_COUNT>
0

> <PUBCHEM_ISOTOPIC_ATOM_COUNT>
0

> <PUBCHEM_COMPONENT_COUNT>
1

> <PUBCHEM_CACTVS_TAUTO_COUNT>
1

> <PUBCHEM_COORDINATE_TYPE>
1
5
255

> <PUBCHEM_BONDANNOTATIONS>
8  1  3
12  14  8
12  15  8
14  21  8
15  22  8
21  23  8
22  23  8
3  6  3
4  7  3
5  7  3

$$$$

