11953798
  -OEChem-07051212452D

 85 87  0     1  0  0  0  0  0999 V2000
    4.9860    3.9344    0.0000 P   0  0  0  0  0  0  0  0  0  0  0  0
    7.5841    0.4344    0.0000 O   0  0  0  0  0  0  0  0  0  0  0  0
    6.7751   -1.1534    0.0000 O   0  0  0  0  0  0  0  0  0  0  0  0
    9.3442   -0.8444    0.0000 O   0  0  0  0  0  0  0  0  0  0  0  0
    9.8794   -2.4916    0.0000 O   0  0  0  0  0  0  0  0  0  0  0  0
    5.8520    3.4344    0.0000 O   0  0  0  0  0  0  0  0  0  0  0  0
    7.5841    2.4344    0.0000 O   0  0  0  0  0  0  0  0  0  0  0  0
    4.1200    0.4344    0.0000 O   0  0  0  0  0  0  0  0  0  0  0  0
    8.2651   -3.8270    0.0000 O   0  0  0  0  0  0  0  0  0  0  0  0
   12.7326   -1.5646    0.0000 O   0  0  0  0  0  0  0  0  0  0  0  0
   12.3167   -3.5209    0.0000 O   0  0  0  0  0  0  0  0  0  0  0  0
    9.4636   -4.4479    0.0000 O   0  0  0  0  0  0  0  0  0  0  0  0
    4.1200    4.4344    0.0000 O   0  0  0  0  0  0  0  0  0  0  0  0
    5.4860    4.8004    0.0000 O   0  0  0  0  0  0  0  0  0  0  0  0
    4.4860    3.0684    0.0000 O   0  0  0  0  0  0  0  0  0  0  0  0
    5.8520   -0.5656    0.0000 N   0  0  0  0  0  0  0  0  0  0  0  0
    4.1200    2.4344    0.0000 N   0  0  0  0  0  0  0  0  0  0  0  0
   11.2463   -0.2263    0.0000 N   0  0  0  0  0  0  0  0  0  0  0  0
    4.9860   -2.0656    0.0000 N   0  0  0  0  0  0  0  0  0  0  0  0
    3.9860   -1.0656    0.0000 N   0  0  0  0  0  0  0  0  0  0  0  0
    2.6200    3.3005    0.0000 N   0  0  0  0  0  0  0  0  0  0  0  0
    2.6200    1.5683    0.0000 N   0  0  0  0  0  0  0  0  0  0  0  0
    8.3931   -1.1534    0.0000 C   0  0  2  0  0  0  0  0  0  0  0  0
    6.7181    0.9344    0.0000 C   0  0  2  0  0  0  0  0  0  0  0  0
    8.0841   -2.1044    0.0000 C   0  0  2  0  0  0  0  0  0  0  0  0
    7.5841   -0.5656    0.0000 C   0  0  2  0  0  0  0  0  0  0  0  0
    5.8520    0.4344    0.0000 C   0  0  2  0  0  0  0  0  0  0  0  0
    6.7181    1.9344    0.0000 C   0  0  1  0  0  0  0  0  0  0  0  0
    5.8520    2.4344    0.0000 C   0  0  2  0  0  0  0  0  0  0  0  0
    7.0841   -2.1044    0.0000 C   0  0  2  0  0  0  0  0  0  0  0  0
    4.9860    0.9344    0.0000 C   0  0  1  0  0  0  0  0  0  0  0  0
    4.9860    1.9344    0.0000 C   0  0  1  0  0  0  0  0  0  0  0  0
   10.0873   -1.5135    0.0000 C   0  0  2  0  0  0  0  0  0  0  0  0
   11.0384   -1.2045    0.0000 C   0  0  2  0  0  0  0  0  0  0  0  0
    8.6719   -2.9135    0.0000 C   0  0  0  0  0  0  0  0  0  0  0  0
   11.7815   -1.8736    0.0000 C   0  0  1  0  0  0  0  0  0  0  0  0
    6.4963   -2.9135    0.0000 C   0  0  0  0  0  0  0  0  0  0  0  0
   11.5736   -2.8518    0.0000 C   0  0  2  0  0  0  0  0  0  0  0  0
   10.6225   -3.1608    0.0000 C   0  0  2  0  0  0  0  0  0  0  0  0
   10.4146   -4.1389    0.0000 C   0  0  0  0  0  0  0  0  0  0  0  0
    4.9860   -1.0656    0.0000 C   0  0  0  0  0  0  0  0  0  0  0  0
    3.1200    2.4344    0.0000 C   0  0  0  0  0  0  0  0  0  0  0  0
   12.1973    0.0827    0.0000 C   0  0  0  0  0  0  0  0  0  0  0  0
    8.4901   -0.5410    0.0000 H   0  0  0  0  0  0  0  0  0  0  0  0
    6.7181    0.3144    0.0000 H   0  0  0  0  0  0  0  0  0  0  0  0
    8.6965   -2.0075    0.0000 H   0  0  0  0  0  0  0  0  0  0  0  0
    8.1365   -0.2841    0.0000 H   0  0  0  0  0  0  0  0  0  0  0  0
    6.3890    0.1244    0.0000 H   0  0  0  0  0  0  0  0  0  0  0  0
    6.7181    2.5544    0.0000 H   0  0  0  0  0  0  0  0  0  0  0  0
    6.3890    2.7444    0.0000 H   0  0  0  0  0  0  0  0  0  0  0  0
    6.4717   -2.0075    0.0000 H   0  0  0  0  0  0  0  0  0  0  0  0
    4.9860    0.3144    0.0000 H   0  0  0  0  0  0  0  0  0  0  0  0
    4.9860    2.5544    0.0000 H   0  0  0  0  0  0  0  0  0  0  0  0
   10.2162   -0.9071    0.0000 H   0  0  0  0  0  0  0  0  0  0  0  0
   11.6280   -1.0129    0.0000 H   0  0  0  0  0  0  0  0  0  0  0  0
    9.1859   -3.2602    0.0000 H   0  0  0  0  0  0  0  0  0  0  0  0
    9.1026   -2.4675    0.0000 H   0  0  0  0  0  0  0  0  0  0  0  0
   12.2423   -2.2885    0.0000 H   0  0  0  0  0  0  0  0  0  0  0  0
   11.4447   -3.4582    0.0000 H   0  0  0  0  0  0  0  0  0  0  0  0
    5.9947   -2.5490    0.0000 H   0  0  0  0  0  0  0  0  0  0  0  0
    6.1319   -3.4150    0.0000 H   0  0  0  0  0  0  0  0  0  0  0  0
    6.9979   -3.2779    0.0000 H   0  0  0  0  0  0  0  0  0  0  0  0
   10.0329   -3.3524    0.0000 H   0  0  0  0  0  0  0  0  0  0  0  0
    8.1210    2.1244    0.0000 H   0  0  0  0  0  0  0  0  0  0  0  0
    3.5831    0.7444    0.0000 H   0  0  0  0  0  0  0  0  0  0  0  0
   10.7855    0.1885    0.0000 H   0  0  0  0  0  0  0  0  0  0  0  0
   10.5009   -4.7529    0.0000 H   0  0  0  0  0  0  0  0  0  0  0  0
   11.0343   -4.1606    0.0000 H   0  0  0  0  0  0  0  0  0  0  0  0
    8.6296   -4.3286    0.0000 H   0  0  0  0  0  0  0  0  0  0  0  0
   13.1933   -1.9795    0.0000 H   0  0  0  0  0  0  0  0  0  0  0  0
   12.1878   -4.1274    0.0000 H   0  0  0  0  0  0  0  0  0  0  0  0
   12.3889   -0.5070    0.0000 H   0  0  0  0  0  0  0  0  0  0  0  0
   12.7870    0.2743    0.0000 H   0  0  0  0  0  0  0  0  0  0  0  0
   12.0057    0.6723    0.0000 H   0  0  0  0  0  0  0  0  0  0  0  0
    9.3347   -5.0544    0.0000 H   0  0  0  0  0  0  0  0  0  0  0  0
    4.4491   -2.3756    0.0000 H   0  0  0  0  0  0  0  0  0  0  0  0
    5.5230   -2.3756    0.0000 H   0  0  0  0  0  0  0  0  0  0  0  0
    3.6760   -1.6025    0.0000 H   0  0  0  0  0  0  0  0  0  0  0  0
    3.6760   -0.5287    0.0000 H   0  0  0  0  0  0  0  0  0  0  0  0
    4.1200    5.0544    0.0000 H   0  0  0  0  0  0  0  0  0  0  0  0
    6.1060    4.8004    0.0000 H   0  0  0  0  0  0  0  0  0  0  0  0
    2.0000    3.3005    0.0000 H   0  0  0  0  0  0  0  0  0  0  0  0
    2.9300    3.8374    0.0000 H   0  0  0  0  0  0  0  0  0  0  0  0
    2.0000    1.5684    0.0000 H   0  0  0  0  0  0  0  0  0  0  0  0
    2.9300    1.0314    0.0000 H   0  0  0  0  0  0  0  0  0  0  0  0
  1  6  1  0  0  0  0
  1 13  1  0  0  0  0
  1 14  1  0  0  0  0
  1 15  2  0  0  0  0
 24  2  1  6  0  0  0
 26  2  1  1  0  0  0
  3 26  1  0  0  0  0
  3 30  1  0  0  0  0
 23  4  1  6  0  0  0
 33  4  1  1  0  0  0
  5 33  1  0  0  0  0
  5 39  1  0  0  0  0
 29  6  1  6  0  0  0
 28  7  1  1  0  0  0
  7 64  1  0  0  0  0
 31  8  1  6  0  0  0
  8 65  1  0  0  0  0
  9 35  1  0  0  0  0
  9 69  1  0  0  0  0
 36 10  1  6  0  0  0
 10 70  1  0  0  0  0
 38 11  1  1  0  0  0
 11 71  1  0  0  0  0
 12 40  1  0  0  0  0
 12 75  1  0  0  0  0
 13 80  1  0  0  0  0
 14 81  1  0  0  0  0
 27 16  1  1  0  0  0
 16 41  2  0  0  0  0
 32 17  1  1  0  0  0
 17 42  2  0  0  0  0
 34 18  1  1  0  0  0
 18 43  1  0  0  0  0
 18 66  1  0  0  0  0
 19 41  1  0  0  0  0
 19 76  1  0  0  0  0
 19 77  1  0  0  0  0
 20 41  1  0  0  0  0
 20 78  1  0  0  0  0
 20 79  1  0  0  0  0
 21 42  1  0  0  0  0
 21 82  1  0  0  0  0
 21 83  1  0  0  0  0
 22 42  1  0  0  0  0
 22 84  1  0  0  0  0
 22 85  1  0  0  0  0
 23 25  1  0  0  0  0
 23 26  1  0  0  0  0
 23 44  1  0  0  0  0
 24 27  1  0  0  0  0
 24 28  1  0  0  0  0
 24 45  1  0  0  0  0
 25 30  1  0  0  0  0
 25 35  1  1  0  0  0
 25 46  1  0  0  0  0
 26 47  1  0  0  0  0
 27 31  1  0  0  0  0
 27 48  1  0  0  0  0
 28 29  1  0  0  0  0
 28 49  1  0  0  0  0
 29 32  1  0  0  0  0
 29 50  1  0  0  0  0
 30 37  1  6  0  0  0
 30 51  1  0  0  0  0
 31 32  1  0  0  0  0
 31 52  1  0  0  0  0
 32 53  1  0  0  0  0
 33 34  1  0  0  0  0
 33 54  1  0  0  0  0
 34 36  1  0  0  0  0
 34 55  1  0  0  0  0
 35 56  1  0  0  0  0
 35 57  1  0  0  0  0
 36 38  1  0  0  0  0
 36 58  1  0  0  0  0
 37 60  1  0  0  0  0
 37 61  1  0  0  0  0
 37 62  1  0  0  0  0
 38 39  1  0  0  0  0
 38 59  1  0  0  0  0
 39 40  1  6  0  0  0
 39 63  1  0  0  0  0
 40 67  1  0  0  0  0
 40 68  1  0  0  0  0
 43 72  1  0  0  0  0
 43 73  1  0  0  0  0
 43 74  1  0  0  0  0
M  END
> <PUBCHEM_COMPOUND_CID>
11953798

> <PUBCHEM_COMPOUND_CANONICALIZED>
1

> <PUBCHEM_CACTVS_COMPLEXITY>
1030

> <PUBCHEM_CACTVS_HBOND_ACCEPTOR>
17

> <PUBCHEM_CACTVS_HBOND_DONOR>
13

> <PUBCHEM_CACTVS_ROTATABLE_BOND>
11

> <PUBCHEM_CACTVS_SUBSKEYS>
AAADcfB7vAIAAAAAAAAAAAAAAAAAASAAAAA0QAAAAAAAAAAAAAAAHgAQCCAADTzxgAcDCALABxAgQAAAJIAAAAEAAAAAAIAIAAATEAIAwAAnQAAHEAAXAAHwcA8KAAAAAAAAAAACgAAUCACgAAAAAAAAAA==

> <PUBCHEM_IUPAC_OPENEYE_NAME>
[(1S,2R,3S,4S,5R,6S)-5-[(2S,3R,4S,5S)-3-[(2S,3S,4S,5R,6S)-4,5-dihydroxy-6-(hydroxymethyl)-3-(methylamino)tetrahydropyran-2-yl]oxy-4-(hydroxymethyl)-5-methyl-tetrahydrofuran-2-yl]oxy-2,4-diguanidino-3,6-dihydroxy-cyclohexyl] dihydrogen phosphate

> <PUBCHEM_IUPAC_CAS_NAME>
[(1S,2R,3S,4S,5R,6S)-2,4-bis(diaminomethylideneamino)-5-[[(2S,3R,4S,5S)-3-[[(2S,3S,4S,5R,6S)-4,5-dihydroxy-6-(hydroxymethyl)-3-(methylamino)-2-oxanyl]oxy]-4-(hydroxymethyl)-5-methyl-2-oxolanyl]oxy]-3,6-dihydroxycyclohexyl] dihydrogen phosphate

> <PUBCHEM_IUPAC_NAME>
[(1S,2R,3S,4S,5R,6S)-2,4-bis(diaminomethylideneamino)-5-[(2S,3R,4S,5S)-3-[(2S,3S,4S,5R,6S)-4,5-dihydroxy-6-(hydroxymethyl)-3-(methylamino)oxan-2-yl]oxy-4-(hydroxymethyl)-5-methyloxolan-2-yl]oxy-3,6-dihydroxycyclohexyl] dihydrogen phosphate

> <PUBCHEM_IUPAC_SYSTEMATIC_NAME>
[(1S,2R,3S,4S,5R,6S)-2,4-bis[bis(azanyl)methylideneamino]-5-[(2S,3R,4S,5S)-4-(hydroxymethyl)-3-[(2S,3S,4S,5R,6S)-6-(hydroxymethyl)-3-(methylamino)-4,5-bis(oxidanyl)oxan-2-yl]oxy-5-methyl-oxolan-2-yl]oxy-3,6-bis(oxidanyl)cyclohexyl] dihydrogen phosphate

> <PUBCHEM_IUPAC_TRADITIONAL_NAME>
[(1S,2R,3S,4S,5R,6S)-5-[(2S,3R,4S,5S)-3-[(2S,3S,4S,5R,6S)-4,5-dihydroxy-3-(methylamino)-6-methylol-tetrahydropyran-2-yl]oxy-5-methyl-4-methylol-tetrahydrofuran-2-yl]oxy-2,4-diguanidino-3,6-dihydroxy-cyclohexyl] dihydrogen phosphate

> <PUBCHEM_IUPAC_INCHI>
InChI=1S/C21H42N7O14P/c1-5-6(3-29)15(40-18-10(26-2)13(33)11(31)7(4-30)39-18)19(38-5)41-16-8(27-20(22)23)12(32)9(28-21(24)25)17(14(16)34)42-43(35,36)37/h5-19,26,29-34H,3-4H2,1-2H3,(H4,22,23,27)(H4,24,25,28)(H2,35,36,37)/t5-,6-,7-,8-,9+,10-,11-,12-,13-,14-,15+,16+,17-,18-,19-/m0/s1

> <PUBCHEM_IUPAC_INCHIKEY>
LJIOWVLIRDRGSB-MLIDHZNVSA-N

> <PUBCHEM_XLOGP3_AA>
-10.5

> <PUBCHEM_EXACT_MASS>
647.252736

> <PUBCHEM_MOLECULAR_FORMULA>
C21H42N7O14P

> <PUBCHEM_MOLECULAR_WEIGHT>
647.570442

> <PUBCHEM_OPENEYE_CAN_SMILES>
CC1C(C(C(O1)OC2C(C(C(C(C2O)OP(=O)(O)O)N=C(N)N)O)N=C(N)N)OC3C(C(C(C(O3)CO)O)O)NC)CO

> <PUBCHEM_OPENEYE_ISO_SMILES>
C[C@H]1[C@@H]([C@H]([C@@H](O1)O[C@@H]2[C@H]([C@@H]([C@H]([C@@H]([C@H]2O)OP(=O)(O)O)N=C(N)N)O)N=C(N)N)O[C@H]3[C@H]([C@@H]([C@H]([C@@H](O3)CO)O)O)NC)CO

> <PUBCHEM_CACTVS_TPSA>
366

> <PUBCHEM_MONOISOTOPIC_WEIGHT>
647.252736

> <PUBCHEM_TOTAL_CHARGE>
0

> <PUBCHEM_HEAVY_ATOM_COUNT>
43

> <PUBCHEM_ATOM_DEF_STEREO_COUNT>
15

> <PUBCHEM_ATOM_UDEF_STEREO_COUNT>
0

> <PUBCHEM_BOND_DEF_STEREO_COUNT>
0

> <PUBCHEM_BOND_UDEF_STEREO_COUNT>
0

> <PUBCHEM_ISOTOPIC_ATOM_COUNT>
0

> <PUBCHEM_COMPONENT_COUNT>
1

> <PUBCHEM_CACTVS_TAUTO_COUNT>
4

> <PUBCHEM_COORDINATE_TYPE>
1
5
255

> <PUBCHEM_BONDANNOTATIONS>
36  10  6
38  11  5
27  16  5
32  17  5
34  18  5
24  2  6
26  2  5
25  35  5
30  37  6
39  40  6
23  4  6
33  4  5
29  6  6
28  7  5
31  8  6

$$$$

