442866
  -OEChem-07051213003D

 37 37  0     1  0  0  0  0  0999 V2000
   -1.8365   -0.9724   -1.3903 O   0  0  0  0  0  0  0  0  0  0  0  0
    0.0771    2.6936    0.2693 O   0  0  0  0  0  0  0  0  0  0  0  0
   -1.8918   -3.4289   -0.1986 O   0  0  0  0  0  0  0  0  0  0  0  0
   -2.6207    2.5007    0.2400 O   0  0  0  0  0  0  0  0  0  0  0  0
    2.3839    0.1388   -2.0798 O   0  0  0  0  0  0  0  0  0  0  0  0
    4.0140   -0.4789    1.7519 O   0  0  0  0  0  0  0  0  0  0  0  0
    1.5505    0.2365    0.5906 N   0  0  0  0  0  0  0  0  0  0  0  0
   -1.9308   -1.0518    0.0365 C   0  0  1  0  0  0  0  0  0  0  0  0
   -0.5102   -1.0427    0.6123 C   0  0  0  0  0  0  0  0  0  0  0  0
   -2.7361    0.1358    0.5545 C   0  0  0  0  0  0  0  0  0  0  0  0
    0.1828    0.3034    0.5223 C   0  0  0  0  0  0  0  0  0  0  0  0
   -2.6332   -2.3695    0.3742 C   0  0  0  0  0  0  0  0  0  0  0  0
   -0.5117    1.4507    0.3793 C   0  0  0  0  0  0  0  0  0  0  0  0
   -2.0020    1.4429    0.3591 C   0  0  0  0  0  0  0  0  0  0  0  0
    2.3089   -0.8809    0.0999 C   0  0  0  0  0  0  0  0  0  0  0  0
    2.0269   -1.0540   -1.3905 C   0  0  0  0  0  0  0  0  0  0  0  0
    3.7939   -0.6310    0.3541 C   0  0  0  0  0  0  0  0  0  0  0  0
    0.3349    3.0076   -1.0850 C   0  0  0  0  0  0  0  0  0  0  0  0
    0.0375   -1.8432    0.1151 H   0  0  0  0  0  0  0  0  0  0  0  0
   -0.5443   -1.3129    1.6773 H   0  0  0  0  0  0  0  0  0  0  0  0
   -2.9562    0.0344    1.6233 H   0  0  0  0  0  0  0  0  0  0  0  0
   -3.6820    0.2083    0.0042 H   0  0  0  0  0  0  0  0  0  0  0  0
   -3.6425   -2.4027   -0.0501 H   0  0  0  0  0  0  0  0  0  0  0  0
   -2.7036   -2.5309    1.4545 H   0  0  0  0  0  0  0  0  0  0  0  0
    2.0198    1.1386    0.6042 H   0  0  0  0  0  0  0  0  0  0  0  0
    2.0462   -1.7910    0.6525 H   0  0  0  0  0  0  0  0  0  0  0  0
   -1.3946   -0.1428   -1.6347 H   0  0  0  0  0  0  0  0  0  0  0  0
    0.9856   -1.2721   -1.6329 H   0  0  0  0  0  0  0  0  0  0  0  0
    2.6347   -1.8718   -1.7933 H   0  0  0  0  0  0  0  0  0  0  0  0
    4.1575    0.2753   -0.1421 H   0  0  0  0  0  0  0  0  0  0  0  0
    4.3974   -1.4756    0.0071 H   0  0  0  0  0  0  0  0  0  0  0  0
   -1.8476   -3.2736   -1.1576 H   0  0  0  0  0  0  0  0  0  0  0  0
    1.0895    2.3417   -1.5121 H   0  0  0  0  0  0  0  0  0  0  0  0
    0.7289    4.0276   -1.1277 H   0  0  0  0  0  0  0  0  0  0  0  0
   -0.5784    2.9758   -1.6895 H   0  0  0  0  0  0  0  0  0  0  0  0
    2.2159   -0.0160   -3.0249 H   0  0  0  0  0  0  0  0  0  0  0  0
    3.4721    0.2695    2.0546 H   0  0  0  0  0  0  0  0  0  0  0  0
  1  8  1  0  0  0  0
  1 27  1  0  0  0  0
  2 13  1  0  0  0  0
  2 18  1  0  0  0  0
  3 12  1  0  0  0  0
  3 32  1  0  0  0  0
  4 14  2  0  0  0  0
  5 16  1  0  0  0  0
  5 36  1  0  0  0  0
  6 17  1  0  0  0  0
  6 37  1  0  0  0  0
  7 11  1  0  0  0  0
  7 15  1  0  0  0  0
  7 25  1  0  0  0  0
  8  9  1  0  0  0  0
  8 10  1  0  0  0  0
  8 12  1  0  0  0  0
  9 11  1  0  0  0  0
  9 19  1  0  0  0  0
  9 20  1  0  0  0  0
 10 14  1  0  0  0  0
 10 21  1  0  0  0  0
 10 22  1  0  0  0  0
 11 13  2  0  0  0  0
 12 23  1  0  0  0  0
 12 24  1  0  0  0  0
 13 14  1  0  0  0  0
 15 16  1  0  0  0  0
 15 17  1  0  0  0  0
 15 26  1  0  0  0  0
 16 28  1  0  0  0  0
 16 29  1  0  0  0  0
 17 30  1  0  0  0  0
 17 31  1  0  0  0  0
 18 33  1  0  0  0  0
 18 34  1  0  0  0  0
 18 35  1  0  0  0  0
M  END
> <PUBCHEM_COMPOUND_CID>
442866

> <PUBCHEM_CONFORMER_RMSD>
0.8

> <PUBCHEM_CONFORMER_DIVERSEORDER>
2
15
18
9
32
30
13
10
19
29
11
25
22
17
23
28
14
34
8
16
27
31
21
26
33
1
24
20
35
6
5
4
12
3
7

> <PUBCHEM_MMFF94_PARTIAL_CHARGES>
23
1 -0.68
10 0.06
11 -0.04
12 0.28
13 0.09
14 0.49
15 0.37
16 0.28
17 0.28
18 0.28
2 -0.36
25 0.4
27 0.4
3 -0.68
32 0.4
36 0.4
37 0.4
4 -0.57
5 -0.68
6 -0.68
7 -0.87
8 0.28
9 0.14

> <PUBCHEM_EFFECTIVE_ROTOR_COUNT>
6.6

> <PUBCHEM_PHARMACOPHORE_FEATURES>
13
1 1 acceptor
1 1 donor
1 2 acceptor
1 3 acceptor
1 3 donor
1 4 acceptor
1 5 acceptor
1 5 donor
1 6 acceptor
1 6 donor
1 7 cation
1 7 donor
6 8 9 10 11 13 14 rings

> <PUBCHEM_HEAVY_ATOM_COUNT>
18

> <PUBCHEM_ATOM_DEF_STEREO_COUNT>
1

> <PUBCHEM_ATOM_UDEF_STEREO_COUNT>
0

> <PUBCHEM_BOND_DEF_STEREO_COUNT>
0

> <PUBCHEM_BOND_UDEF_STEREO_COUNT>
0

> <PUBCHEM_ISOTOPIC_ATOM_COUNT>
0

> <PUBCHEM_COMPONENT_COUNT>
1

> <PUBCHEM_CACTVS_TAUTO_COUNT>
8

> <PUBCHEM_CONFORMER_ID>
0006C1F200000002

> <PUBCHEM_MMFF94_ENERGY>
48.5697

> <PUBCHEM_FEATURE_SELFOVERLAP>
65.993

> <PUBCHEM_SHAPE_FINGERPRINT>
1 1 17113819050976753468
11578080 2 17487646076881354692
116883 192 18261391097087334959
12532896 13 18118407482237628385
12553582 1 18265882567273939371
13083527 12 17903376809084327146
13140716 1 18265608785010417667
14115302 16 18131637759594484199
14614273 12 17766561630766578177
14817 1 12567157269726754548
15490181 7 17615412896972213517
16945 1 18337660975789342291
19765921 60 17342338996915952996
19868273 325 18411695512808077149
20645476 183 17984961920506214079
20645477 70 17614559234111669447
20905425 154 18048307856363393708
21452121 199 17977679614387724875
21501502 16 18122334688790528675
21650355 55 18339374027632096432
22112679 90 18202271524829173204
22802520 49 17970894781504192998
23402539 116 18263663868920371471
23419403 2 17838937791424331476
23557571 272 18260260876306021436
23559900 14 18190176983456226190
23598288 3 18058430127822591003
2748010 2 18049425235302735555
5902787 121 18196091045104526842
7364860 26 17901376797470481649
77492 1 17704063028001583130
81228 2 18335692896866868315
90316 7 18200042866373456960

> <PUBCHEM_SHAPE_MULTIPOLES>
330.23
5.19
3.22
1.3
3.88
0.77
-0.41
-2.06
1.08
-2.55
-0.49
1.12
-0.05
-0.4

> <PUBCHEM_SHAPE_SELFOVERLAP>
667.993

> <PUBCHEM_SHAPE_VOLUME>
191.4

> <PUBCHEM_COORDINATE_TYPE>
2
5
10

$$$$

