7242
  -OEChem-07051213053D

 17 17  0     0  0  0  0  0  0999 V2000
    1.7522   -1.4942    0.0011 N   0  0  0  0  0  0  0  0  0  0  0  0
    0.6204    0.6679   -0.0002 C   0  0  0  0  0  0  0  0  0  0  0  0
    0.5671   -0.7259   -0.0005 C   0  0  0  0  0  0  0  0  0  0  0  0
   -0.5601    1.4110    0.0004 C   0  0  0  0  0  0  0  0  0  0  0  0
   -0.6666   -1.3766   -0.0007 C   0  0  0  0  0  0  0  0  0  0  0  0
    1.9279    1.3910   -0.0005 C   0  0  0  0  0  0  0  0  0  0  0  0
   -1.7939    0.7603    0.0005 C   0  0  0  0  0  0  0  0  0  0  0  0
   -1.8471   -0.6335   -0.0001 C   0  0  0  0  0  0  0  0  0  0  0  0
   -0.5372    2.4976    0.0007 H   0  0  0  0  0  0  0  0  0  0  0  0
   -0.7227   -2.4622   -0.0007 H   0  0  0  0  0  0  0  0  0  0  0  0
    2.5073    1.1378    0.8936 H   0  0  0  0  0  0  0  0  0  0  0  0
    2.5070    1.1377   -0.8947 H   0  0  0  0  0  0  0  0  0  0  0  0
    1.7915    2.4781   -0.0006 H   0  0  0  0  0  0  0  0  0  0  0  0
   -2.7131    1.3387    0.0010 H   0  0  0  0  0  0  0  0  0  0  0  0
   -2.8078   -1.1401    0.0000 H   0  0  0  0  0  0  0  0  0  0  0  0
    2.6602   -1.0511   -0.0016 H   0  0  0  0  0  0  0  0  0  0  0  0
    1.6932   -2.5041   -0.0015 H   0  0  0  0  0  0  0  0  0  0  0  0
  1  3  1  0  0  0  0
  1 16  1  0  0  0  0
  1 17  1  0  0  0  0
  2  3  1  0  0  0  0
  2  4  2  0  0  0  0
  2  6  1  0  0  0  0
  3  5  2  0  0  0  0
  4  7  1  0  0  0  0
  4  9  1  0  0  0  0
  5  8  1  0  0  0  0
  5 10  1  0  0  0  0
  6 11  1  0  0  0  0
  6 12  1  0  0  0  0
  6 13  1  0  0  0  0
  7  8  2  0  0  0  0
  7 14  1  0  0  0  0
  8 15  1  0  0  0  0
M  END
> <PUBCHEM_COMPOUND_CID>
7242

> <PUBCHEM_CONFORMER_RMSD>
0.4

> <PUBCHEM_CONFORMER_DIVERSEORDER>
1

> <PUBCHEM_MMFF94_PARTIAL_CHARGES>
14
1 -0.9
10 0.15
14 0.15
15 0.15
16 0.4
17 0.4
2 -0.14
3 0.1
4 -0.15
5 -0.15
6 0.14
7 -0.15
8 -0.15
9 0.15

> <PUBCHEM_EFFECTIVE_ROTOR_COUNT>
0

> <PUBCHEM_PHARMACOPHORE_FEATURES>
3
1 1 cation
1 1 donor
6 2 3 4 5 7 8 rings

> <PUBCHEM_HEAVY_ATOM_COUNT>
8

> <PUBCHEM_ATOM_DEF_STEREO_COUNT>
0

> <PUBCHEM_ATOM_UDEF_STEREO_COUNT>
0

> <PUBCHEM_BOND_DEF_STEREO_COUNT>
0

> <PUBCHEM_BOND_UDEF_STEREO_COUNT>
0

> <PUBCHEM_ISOTOPIC_ATOM_COUNT>
0

> <PUBCHEM_COMPONENT_COUNT>
1

> <PUBCHEM_CACTVS_TAUTO_COUNT>
1

> <PUBCHEM_CONFORMER_ID>
00001C4A00000001

> <PUBCHEM_MMFF94_ENERGY>
30.1316

> <PUBCHEM_FEATURE_SELFOVERLAP>
15.223

> <PUBCHEM_SHAPE_FINGERPRINT>
12423570 1 9554377100683480547
16714656 1 17979069379931718556
16945 1 18266458698460269441
18185500 45 18192715535906529311
21040471 1 18410575037487231301
23552423 10 18343580724702336358
2748010 2 18411418427498861773
29004967 10 18128247896494548897

> <PUBCHEM_SHAPE_MULTIPOLES>
159.66
2.44
1.81
0.61
0.22
0.23
0
-0.26
0
0.36
0
-0.02
-0.02
0

> <PUBCHEM_SHAPE_SELFOVERLAP>
328.852

> <PUBCHEM_SHAPE_VOLUME>
92.9

> <PUBCHEM_COORDINATE_TYPE>
2
5
10

$$$$

