13987
  -OEChem-07051213042D

 63 67  0     1  0  0  0  0  0999 V2000
    8.6500    0.6478    0.0000 O   0  0  0  0  0  0  0  0  0  0  0  0
    2.0000   -3.6598    0.0000 O   0  0  0  0  0  0  0  0  0  0  0  0
   10.2963    0.1097    0.0000 O   0  0  0  0  0  0  0  0  0  0  0  0
    6.5271   -2.1074    0.0000 C   0  0  2  0  0  0  0  0  0  0  0  0
    5.6610   -1.6074    0.0000 C   0  0  1  0  0  0  0  0  0  0  0  0
    7.3931   -1.6074    0.0000 C   0  0  1  0  0  0  0  0  0  0  0  0
    7.3931   -0.6074    0.0000 C   0  0  2  0  0  0  0  0  0  0  0  0
    4.7510   -2.1143    0.0000 C   0  0  2  0  0  0  0  0  0  0  0  0
    4.7430   -3.1559    0.0000 C   0  0  1  0  0  0  0  0  0  0  0  0
    5.6610   -0.6074    0.0000 C   0  0  0  0  0  0  0  0  0  0  0  0
    6.5271   -0.1074    0.0000 C   0  0  0  0  0  0  0  0  0  0  0  0
    6.5431   -3.1489    0.0000 C   0  0  0  0  0  0  0  0  0  0  0  0
    8.3393   -0.3027    0.0000 C   0  0  2  0  0  0  0  0  0  0  0  0
    8.3393   -1.9122    0.0000 C   0  0  0  0  0  0  0  0  0  0  0  0
    5.6451   -3.6767    0.0000 C   0  0  0  0  0  0  0  0  0  0  0  0
    8.9229   -1.1074    0.0000 C   0  0  0  0  0  0  0  0  0  0  0  0
    3.8242   -1.5502    0.0000 C   0  0  0  0  0  0  0  0  0  0  0  0
    7.3931    0.3926    0.0000 C   0  0  0  0  0  0  0  0  0  0  0  0
    4.7587   -1.1143    0.0000 C   0  0  0  0  0  0  0  0  0  0  0  0
    3.8076   -3.7056    0.0000 C   0  0  0  0  0  0  0  0  0  0  0  0
    2.8763   -2.0781    0.0000 C   0  0  0  0  0  0  0  0  0  0  0  0
    2.8680   -3.1631    0.0000 C   0  0  0  0  0  0  0  0  0  0  0  0
    9.6285    0.8540    0.0000 C   0  0  0  0  0  0  0  0  0  0  0  0
    9.9391    1.8046    0.0000 C   0  0  0  0  0  0  0  0  0  0  0  0
   10.9176    2.0108    0.0000 C   0  0  0  0  0  0  0  0  0  0  0  0
    9.2713    2.5489    0.0000 C   0  0  0  0  0  0  0  0  0  0  0  0
   11.2283    2.9613    0.0000 C   0  0  0  0  0  0  0  0  0  0  0  0
    9.5820    3.4994    0.0000 C   0  0  0  0  0  0  0  0  0  0  0  0
   10.5605    3.7056    0.0000 C   0  0  0  0  0  0  0  0  0  0  0  0
    7.2664   -2.5267    0.0000 H   0  0  0  0  0  0  0  0  0  0  0  0
    6.3972   -1.1824    0.0000 H   0  0  0  0  0  0  0  0  0  0  0  0
    7.4830   -2.4527    0.0000 H   0  0  0  0  0  0  0  0  0  0  0  0
    4.7463   -4.0059    0.0000 H   0  0  0  0  0  0  0  0  0  0  0  0
    5.4490   -0.0248    0.0000 H   0  0  0  0  0  0  0  0  0  0  0  0
    5.0504   -0.7151    0.0000 H   0  0  0  0  0  0  0  0  0  0  0  0
    6.9256    0.3675    0.0000 H   0  0  0  0  0  0  0  0  0  0  0  0
    6.1285    0.3675    0.0000 H   0  0  0  0  0  0  0  0  0  0  0  0
    6.7612   -3.7293    0.0000 H   0  0  0  0  0  0  0  0  0  0  0  0
    7.1523   -3.0334    0.0000 H   0  0  0  0  0  0  0  0  0  0  0  0
    7.9018    0.1367    0.0000 H   0  0  0  0  0  0  0  0  0  0  0  0
    8.0883   -2.4791    0.0000 H   0  0  0  0  0  0  0  0  0  0  0  0
    8.8767   -2.2214    0.0000 H   0  0  0  0  0  0  0  0  0  0  0  0
    5.2478   -4.1527    0.0000 H   0  0  0  0  0  0  0  0  0  0  0  0
    6.0460   -4.1496    0.0000 H   0  0  0  0  0  0  0  0  0  0  0  0
    9.3838   -1.5222    0.0000 H   0  0  0  0  0  0  0  0  0  0  0  0
    9.3838   -0.6927    0.0000 H   0  0  0  0  0  0  0  0  0  0  0  0
    4.2324   -1.0835    0.0000 H   0  0  0  0  0  0  0  0  0  0  0  0
    3.4343   -1.0682    0.0000 H   0  0  0  0  0  0  0  0  0  0  0  0
    8.0131    0.3926    0.0000 H   0  0  0  0  0  0  0  0  0  0  0  0
    7.3931    1.0126    0.0000 H   0  0  0  0  0  0  0  0  0  0  0  0
    6.7731    0.3926    0.0000 H   0  0  0  0  0  0  0  0  0  0  0  0
    5.3787   -1.1191    0.0000 H   0  0  0  0  0  0  0  0  0  0  0  0
    4.7635   -0.4943    0.0000 H   0  0  0  0  0  0  0  0  0  0  0  0
    4.1388   -1.1095    0.0000 H   0  0  0  0  0  0  0  0  0  0  0  0
    3.4103   -4.1816    0.0000 H   0  0  0  0  0  0  0  0  0  0  0  0
    4.2085   -4.1785    0.0000 H   0  0  0  0  0  0  0  0  0  0  0  0
    2.6718   -1.4929    0.0000 H   0  0  0  0  0  0  0  0  0  0  0  0
    2.2647   -2.1795    0.0000 H   0  0  0  0  0  0  0  0  0  0  0  0
   11.3317    1.5493    0.0000 H   0  0  0  0  0  0  0  0  0  0  0  0
    8.6646    2.4210    0.0000 H   0  0  0  0  0  0  0  0  0  0  0  0
   11.8350    3.0892    0.0000 H   0  0  0  0  0  0  0  0  0  0  0  0
    9.1679    3.9608    0.0000 H   0  0  0  0  0  0  0  0  0  0  0  0
   10.7531    4.2949    0.0000 H   0  0  0  0  0  0  0  0  0  0  0  0
 13  1  1  1  0  0  0
  1 23  1  0  0  0  0
  2 22  2  0  0  0  0
  3 23  2  0  0  0  0
  4  5  1  0  0  0  0
  4  6  1  0  0  0  0
  4 12  1  0  0  0  0
  4 30  1  1  0  0  0
  5  8  1  0  0  0  0
  5 10  1  0  0  0  0
  5 31  1  6  0  0  0
  6  7  1  0  0  0  0
  6 14  1  0  0  0  0
  6 32  1  6  0  0  0
  7 11  1  0  0  0  0
  7 13  1  0  0  0  0
  7 18  1  1  0  0  0
  8  9  1  0  0  0  0
  8 17  1  0  0  0  0
  8 19  1  1  0  0  0
  9 15  1  0  0  0  0
  9 20  1  0  0  0  0
  9 33  1  6  0  0  0
 10 11  1  0  0  0  0
 10 34  1  0  0  0  0
 10 35  1  0  0  0  0
 11 36  1  0  0  0  0
 11 37  1  0  0  0  0
 12 15  1  0  0  0  0
 12 38  1  0  0  0  0
 12 39  1  0  0  0  0
 13 16  1  0  0  0  0
 13 40  1  0  0  0  0
 14 16  1  0  0  0  0
 14 41  1  0  0  0  0
 14 42  1  0  0  0  0
 15 43  1  0  0  0  0
 15 44  1  0  0  0  0
 16 45  1  0  0  0  0
 16 46  1  0  0  0  0
 17 21  1  0  0  0  0
 17 47  1  0  0  0  0
 17 48  1  0  0  0  0
 18 49  1  0  0  0  0
 18 50  1  0  0  0  0
 18 51  1  0  0  0  0
 19 52  1  0  0  0  0
 19 53  1  0  0  0  0
 19 54  1  0  0  0  0
 20 22  1  0  0  0  0
 20 55  1  0  0  0  0
 20 56  1  0  0  0  0
 21 22  1  0  0  0  0
 21 57  1  0  0  0  0
 21 58  1  0  0  0  0
 23 24  1  0  0  0  0
 24 25  2  0  0  0  0
 24 26  1  0  0  0  0
 25 27  1  0  0  0  0
 25 59  1  0  0  0  0
 26 28  2  0  0  0  0
 26 60  1  0  0  0  0
 27 29  2  0  0  0  0
 27 61  1  0  0  0  0
 28 29  1  0  0  0  0
 28 62  1  0  0  0  0
 29 63  1  0  0  0  0
M  END
> <PUBCHEM_COMPOUND_CID>
13987

> <PUBCHEM_COMPOUND_CANONICALIZED>
1

> <PUBCHEM_CACTVS_COMPLEXITY>
665

> <PUBCHEM_CACTVS_HBOND_ACCEPTOR>
3

> <PUBCHEM_CACTVS_HBOND_DONOR>
0

> <PUBCHEM_CACTVS_ROTATABLE_BOND>
3

> <PUBCHEM_CACTVS_SUBSKEYS>
AAADcfB4MAAAAAAAAAAAAAAAAAAAAYAAAAAwYMGAAAAAAGDBAAAAGgAAAAAADxSgmAIyCIAABACIAqDSCAACAAAkAAAIiAEACMgIJjKANRiCMQAkwAEIqYeIyPCPgAAAAAAAAACAAAQAACAAAIAADAAAAA==

> <PUBCHEM_IUPAC_OPENEYE_NAME>
[(5S,8R,9S,10S,13S,14S,17S)-10,13-dimethyl-3-oxo-1,2,4,5,6,7,8,9,11,12,14,15,16,17-tetradecahydrocyclopenta[a]phenanthren-17-yl] benzoate

> <PUBCHEM_IUPAC_CAS_NAME>
benzoic acid [(5S,8R,9S,10S,13S,14S,17S)-10,13-dimethyl-3-oxo-1,2,4,5,6,7,8,9,11,12,14,15,16,17-tetradecahydrocyclopenta[a]phenanthren-17-yl] ester

> <PUBCHEM_IUPAC_NAME>
[(5S,8R,9S,10S,13S,14S,17S)-10,13-dimethyl-3-oxo-1,2,4,5,6,7,8,9,11,12,14,15,16,17-tetradecahydrocyclopenta[a]phenanthren-17-yl] benzoate

> <PUBCHEM_IUPAC_SYSTEMATIC_NAME>
[(5S,8R,9S,10S,13S,14S,17S)-10,13-dimethyl-3-oxidanylidene-1,2,4,5,6,7,8,9,11,12,14,15,16,17-tetradecahydrocyclopenta[a]phenanthren-17-yl] benzoate

> <PUBCHEM_IUPAC_TRADITIONAL_NAME>
benzoic acid [(5S,8R,9S,10S,13S,14S,17S)-3-keto-10,13-dimethyl-1,2,4,5,6,7,8,9,11,12,14,15,16,17-tetradecahydrocyclopenta[a]phenanthren-17-yl] ester

> <PUBCHEM_IUPAC_INCHI>
InChI=1S/C26H34O3/c1-25-14-12-19(27)16-18(25)8-9-20-21-10-11-23(26(21,2)15-13-22(20)25)29-24(28)17-6-4-3-5-7-17/h3-7,18,20-23H,8-16H2,1-2H3/t18-,20-,21-,22-,23-,25-,26-/m0/s1

> <PUBCHEM_IUPAC_INCHIKEY>
ZGDZDAPCWHIIKB-LVYWIKMTSA-N

> <PUBCHEM_XLOGP3>
5.9

> <PUBCHEM_EXACT_MASS>
394.250795

> <PUBCHEM_MOLECULAR_FORMULA>
C26H34O3

> <PUBCHEM_MOLECULAR_WEIGHT>
394.54636

> <PUBCHEM_OPENEYE_CAN_SMILES>
CC12CCC(=O)CC1CCC3C2CCC4(C3CCC4OC(=O)C5=CC=CC=C5)C

> <PUBCHEM_OPENEYE_ISO_SMILES>
C[C@]12CCC(=O)C[C@@H]1CC[C@@H]3[C@@H]2CC[C@]4([C@H]3CC[C@@H]4OC(=O)C5=CC=CC=C5)C

> <PUBCHEM_CACTVS_TPSA>
43.4

> <PUBCHEM_MONOISOTOPIC_WEIGHT>
394.250795

> <PUBCHEM_TOTAL_CHARGE>
0

> <PUBCHEM_HEAVY_ATOM_COUNT>
29

> <PUBCHEM_ATOM_DEF_STEREO_COUNT>
7

> <PUBCHEM_ATOM_UDEF_STEREO_COUNT>
0

> <PUBCHEM_BOND_DEF_STEREO_COUNT>
0

> <PUBCHEM_BOND_UDEF_STEREO_COUNT>
0

> <PUBCHEM_ISOTOPIC_ATOM_COUNT>
0

> <PUBCHEM_COMPONENT_COUNT>
1

> <PUBCHEM_CACTVS_TAUTO_COUNT>
3

> <PUBCHEM_COORDINATE_TYPE>
1
5
255

> <PUBCHEM_BONDANNOTATIONS>
13  1  5
24  25  8
24  26  8
25  27  8
26  28  8
27  29  8
28  29  8
4  30  5
5  31  6
6  32  6
7  18  5
8  19  5
9  33  6

$$$$

