439203
  -OEChem-07051212443D

 20 20  0     1  0  0  0  0  0999 V2000
   -0.0203   -1.3167    0.8217 O   0  0  0  0  0  0  0  0  0  0  0  0
    1.0493   -1.1122   -1.2647 O   0  0  0  0  0  0  0  0  0  0  0  0
   -0.3700    1.6513    0.6322 O   0  0  0  0  0  0  0  0  0  0  0  0
   -2.7219    0.7194   -0.3660 O   0  0  0  0  0  0  0  0  0  0  0  0
    2.6658    0.9289   -0.2071 O   0  0  0  0  0  0  0  0  0  0  0  0
    0.7059   -0.4298   -0.0558 C   0  0  1  0  0  0  0  0  0  0  0  0
   -0.2807    0.6855   -0.4099 C   0  0  1  0  0  0  0  0  0  0  0  0
   -1.5778   -0.0984   -0.4789 C   0  0  1  0  0  0  0  0  0  0  0  0
   -1.4267   -1.0595    0.6828 C   0  0  0  0  0  0  0  0  0  0  0  0
    1.9765    0.0315    0.6457 C   0  0  0  0  0  0  0  0  0  0  0  0
   -0.0515    1.2045   -1.3461 H   0  0  0  0  0  0  0  0  0  0  0  0
   -1.6491   -0.6627   -1.4156 H   0  0  0  0  0  0  0  0  0  0  0  0
   -1.7991   -0.6377    1.6227 H   0  0  0  0  0  0  0  0  0  0  0  0
   -1.9535   -2.0024    0.5076 H   0  0  0  0  0  0  0  0  0  0  0  0
    2.6364   -0.8177    0.8548 H   0  0  0  0  0  0  0  0  0  0  0  0
    1.7674    0.5241    1.6005 H   0  0  0  0  0  0  0  0  0  0  0  0
    0.3668   -0.9657   -1.9384 H   0  0  0  0  0  0  0  0  0  0  0  0
   -1.0888    2.2635    0.3999 H   0  0  0  0  0  0  0  0  0  0  0  0
   -2.6988    1.3569   -1.0999 H   0  0  0  0  0  0  0  0  0  0  0  0
    2.8496    0.4610   -1.0396 H   0  0  0  0  0  0  0  0  0  0  0  0
  1  6  1  0  0  0  0
  1  9  1  0  0  0  0
  2  6  1  0  0  0  0
  2 17  1  0  0  0  0
  3  7  1  0  0  0  0
  3 18  1  0  0  0  0
  4  8  1  0  0  0  0
  4 19  1  0  0  0  0
  5 10  1  0  0  0  0
  5 20  1  0  0  0  0
  6  7  1  0  0  0  0
  6 10  1  0  0  0  0
  7  8  1  0  0  0  0
  7 11  1  0  0  0  0
  8  9  1  0  0  0  0
  8 12  1  0  0  0  0
  9 13  1  0  0  0  0
  9 14  1  0  0  0  0
 10 15  1  0  0  0  0
 10 16  1  0  0  0  0
M  END
> <PUBCHEM_COMPOUND_CID>
439203

> <PUBCHEM_CONFORMER_RMSD>
0.4

> <PUBCHEM_CONFORMER_DIVERSEORDER>
1
5
3
2
4

> <PUBCHEM_MMFF94_PARTIAL_CHARGES>
14
1 -0.56
10 0.28
17 0.4
18 0.4
19 0.4
2 -0.68
20 0.4
3 -0.68
4 -0.68
5 -0.68
6 0.56
7 0.28
8 0.28
9 0.28

> <PUBCHEM_EFFECTIVE_ROTOR_COUNT>
2

> <PUBCHEM_PHARMACOPHORE_FEATURES>
10
1 1 acceptor
1 2 acceptor
1 2 donor
1 3 acceptor
1 3 donor
1 4 acceptor
1 4 donor
1 5 acceptor
1 5 donor
5 1 6 7 8 9 rings

> <PUBCHEM_HEAVY_ATOM_COUNT>
10

> <PUBCHEM_ATOM_DEF_STEREO_COUNT>
2

> <PUBCHEM_ATOM_UDEF_STEREO_COUNT>
1

> <PUBCHEM_BOND_DEF_STEREO_COUNT>
0

> <PUBCHEM_BOND_UDEF_STEREO_COUNT>
0

> <PUBCHEM_ISOTOPIC_ATOM_COUNT>
0

> <PUBCHEM_COMPONENT_COUNT>
1

> <PUBCHEM_CACTVS_TAUTO_COUNT>
1

> <PUBCHEM_CONFORMER_ID>
0006B3A300000001

> <PUBCHEM_MMFF94_ENERGY>
27.7672

> <PUBCHEM_FEATURE_SELFOVERLAP>
50.805

> <PUBCHEM_SHAPE_FINGERPRINT>
12423570 1 13142168818465351363
12897270 3 17821452365112836524
13024252 1 17917160381487041890
137420 1 5251354103645595563
16945 1 17984142560894360778
21040471 1 17917145108536026951
23235685 24 18411422812523548156
29004967 10 18113051619169742211
369184 2 17560810904776456080
5084963 1 18267035018826211912

> <PUBCHEM_SHAPE_MULTIPOLES>
176.45
2.93
1.36
0.95
0.3
0.07
-0.11
0.69
-0.11
-0.14
0.18
0.11
-0.18
0.21

> <PUBCHEM_SHAPE_SELFOVERLAP>
355.328

> <PUBCHEM_SHAPE_VOLUME>
104.1

> <PUBCHEM_COORDINATE_TYPE>
2
5
10

$$$$

