643668
  -OEChem-07051213092D

 97 97  0     1  0  0  0  0  0999 V2000
    5.1350    2.4050    0.0000 O   0  0  0  0  0  0  0  0  0  0  0  0
    5.1350    5.4050    0.0000 O   0  0  0  0  0  0  0  0  0  0  0  0
    7.7331   -2.0950    0.0000 O   0  0  0  0  0  0  0  0  0  0  0  0
    9.4651   -2.0950    0.0000 O   0  0  0  0  0  0  0  0  0  0  0  0
    4.2690    0.9050    0.0000 O   0  0  0  0  0  0  0  0  0  0  0  0
    6.8671    2.4050    0.0000 O   0  0  0  0  0  0  0  0  0  0  0  0
    2.5369   -2.0950    0.0000 O   0  0  0  0  0  0  0  0  0  0  0  0
   11.1972   -2.0950    0.0000 O   0  0  0  0  0  0  0  0  0  0  0  0
   10.3312   -0.5950    0.0000 N   0  0  0  0  0  0  0  0  0  0  0  0
    4.2690    3.9050    0.0000 C   0  0  1  0  0  0  0  0  0  0  0  0
    4.2690    2.9050    0.0000 C   0  0  2  0  0  0  0  0  0  0  0  0
    5.1350    4.4050    0.0000 C   0  0  1  0  0  0  0  0  0  0  0  0
    8.5991   -3.5950    0.0000 C   0  0  1  0  0  0  0  0  0  0  0  0
    7.7331   -3.0950    0.0000 C   0  0  1  0  0  0  0  0  0  0  0  0
    6.8671   -3.5950    0.0000 C   0  0  2  0  0  0  0  0  0  0  0  0
    6.0010    3.9050    0.0000 C   0  0  2  0  0  0  0  0  0  0  0  0
    9.4651   -3.0950    0.0000 C   0  0  2  0  0  0  0  0  0  0  0  0
    3.4030    2.4050    0.0000 C   0  0  0  0  0  0  0  0  0  0  0  0
    6.0010   -3.0950    0.0000 C   0  0  0  0  0  0  0  0  0  0  0  0
    3.4030    4.4050    0.0000 C   0  0  0  0  0  0  0  0  0  0  0  0
   10.3312   -3.5950    0.0000 C   0  0  1  0  0  0  0  0  0  0  0  0
    6.0010    2.9050    0.0000 C   0  0  0  0  0  0  0  0  0  0  0  0
    3.4030    1.4050    0.0000 C   0  0  1  0  0  0  0  0  0  0  0  0
    8.5991   -4.5950    0.0000 C   0  0  0  0  0  0  0  0  0  0  0  0
    6.8671   -4.5950    0.0000 C   0  0  0  0  0  0  0  0  0  0  0  0
    6.8671    4.4050    0.0000 C   0  0  0  0  0  0  0  0  0  0  0  0
    5.1350   -3.5950    0.0000 C   0  0  0  0  0  0  0  0  0  0  0  0
    4.2690   -2.0950    0.0000 C   0  0  2  0  0  0  0  0  0  0  0  0
    3.4030   -1.5950    0.0000 C   0  0  2  0  0  0  0  0  0  0  0  0
    3.4030   -0.5950    0.0000 C   0  0  2  0  0  0  0  0  0  0  0  0
    4.2690   -3.0950    0.0000 C   0  0  0  0  0  0  0  0  0  0  0  0
    2.5369    0.9050    0.0000 C   0  0  0  0  0  0  0  0  0  0  0  0
   11.1972   -3.0950    0.0000 C   0  0  0  0  0  0  0  0  0  0  0  0
    2.5369   -0.0950    0.0000 C   0  0  0  0  0  0  0  0  0  0  0  0
   10.3312   -4.5950    0.0000 C   0  0  0  0  0  0  0  0  0  0  0  0
    5.1350   -4.5950    0.0000 C   0  0  0  0  0  0  0  0  0  0  0  0
    5.1350   -1.5950    0.0000 C   0  0  0  0  0  0  0  0  0  0  0  0
    4.2690   -0.0950    0.0000 C   0  0  0  0  0  0  0  0  0  0  0  0
   10.3312   -1.5950    0.0000 C   0  0  0  0  0  0  0  0  0  0  0  0
   11.1972   -5.0950    0.0000 C   0  0  0  0  0  0  0  0  0  0  0  0
   12.0632   -4.5950    0.0000 C   0  0  0  0  0  0  0  0  0  0  0  0
   12.9292   -5.0950    0.0000 C   0  0  0  0  0  0  0  0  0  0  0  0
    3.7320    3.5950    0.0000 H   0  0  0  0  0  0  0  0  0  0  0  0
    4.2690    2.2850    0.0000 H   0  0  0  0  0  0  0  0  0  0  0  0
    5.6720    4.7150    0.0000 H   0  0  0  0  0  0  0  0  0  0  0  0
    8.0622   -3.9050    0.0000 H   0  0  0  0  0  0  0  0  0  0  0  0
    8.2700   -2.7850    0.0000 H   0  0  0  0  0  0  0  0  0  0  0  0
    6.3301   -3.9050    0.0000 H   0  0  0  0  0  0  0  0  0  0  0  0
    6.5380    3.5950    0.0000 H   0  0  0  0  0  0  0  0  0  0  0  0
   10.0021   -2.7850    0.0000 H   0  0  0  0  0  0  0  0  0  0  0  0
    3.1909    2.9876    0.0000 H   0  0  0  0  0  0  0  0  0  0  0  0
    2.7924    2.2973    0.0000 H   0  0  0  0  0  0  0  0  0  0  0  0
    6.3996   -2.6200    0.0000 H   0  0  0  0  0  0  0  0  0  0  0  0
    5.6025   -2.6200    0.0000 H   0  0  0  0  0  0  0  0  0  0  0  0
    3.7130    4.9419    0.0000 H   0  0  0  0  0  0  0  0  0  0  0  0
    2.8660    4.7150    0.0000 H   0  0  0  0  0  0  0  0  0  0  0  0
    3.0930    3.8681    0.0000 H   0  0  0  0  0  0  0  0  0  0  0  0
   10.8681   -3.9050    0.0000 H   0  0  0  0  0  0  0  0  0  0  0  0
    3.4030    0.7850    0.0000 H   0  0  0  0  0  0  0  0  0  0  0  0
    7.9791   -4.5950    0.0000 H   0  0  0  0  0  0  0  0  0  0  0  0
    8.5991   -5.2150    0.0000 H   0  0  0  0  0  0  0  0  0  0  0  0
    9.2191   -4.5950    0.0000 H   0  0  0  0  0  0  0  0  0  0  0  0
    6.2471   -4.5950    0.0000 H   0  0  0  0  0  0  0  0  0  0  0  0
    6.8671   -5.2150    0.0000 H   0  0  0  0  0  0  0  0  0  0  0  0
    7.4871   -4.5950    0.0000 H   0  0  0  0  0  0  0  0  0  0  0  0
    7.1771    3.8681    0.0000 H   0  0  0  0  0  0  0  0  0  0  0  0
    7.4040    4.7150    0.0000 H   0  0  0  0  0  0  0  0  0  0  0  0
    6.5571    4.9419    0.0000 H   0  0  0  0  0  0  0  0  0  0  0  0
    4.2690   -1.4750    0.0000 H   0  0  0  0  0  0  0  0  0  0  0  0
    3.4030   -2.2150    0.0000 H   0  0  0  0  0  0  0  0  0  0  0  0
    3.4030    0.0250    0.0000 H   0  0  0  0  0  0  0  0  0  0  0  0
    3.7320   -3.4050    0.0000 H   0  0  0  0  0  0  0  0  0  0  0  0
    5.6720    5.7150    0.0000 H   0  0  0  0  0  0  0  0  0  0  0  0
    2.0000    1.2150    0.0000 H   0  0  0  0  0  0  0  0  0  0  0  0
    8.2700   -1.7850    0.0000 H   0  0  0  0  0  0  0  0  0  0  0  0
   11.5072   -3.6319    0.0000 H   0  0  0  0  0  0  0  0  0  0  0  0
   11.7341   -2.7850    0.0000 H   0  0  0  0  0  0  0  0  0  0  0  0
   10.8872   -2.5581    0.0000 H   0  0  0  0  0  0  0  0  0  0  0  0
    2.0000   -0.4050    0.0000 H   0  0  0  0  0  0  0  0  0  0  0  0
    9.7942   -4.9050    0.0000 H   0  0  0  0  0  0  0  0  0  0  0  0
    4.5150   -4.5950    0.0000 H   0  0  0  0  0  0  0  0  0  0  0  0
    5.1350   -5.2150    0.0000 H   0  0  0  0  0  0  0  0  0  0  0  0
    5.7550   -4.5950    0.0000 H   0  0  0  0  0  0  0  0  0  0  0  0
    5.4450   -2.1319    0.0000 H   0  0  0  0  0  0  0  0  0  0  0  0
    5.6720   -1.2850    0.0000 H   0  0  0  0  0  0  0  0  0  0  0  0
    4.8250   -1.0581    0.0000 H   0  0  0  0  0  0  0  0  0  0  0  0
    4.5790   -0.6319    0.0000 H   0  0  0  0  0  0  0  0  0  0  0  0
    4.8059    0.2150    0.0000 H   0  0  0  0  0  0  0  0  0  0  0  0
    3.9590    0.4419    0.0000 H   0  0  0  0  0  0  0  0  0  0  0  0
    4.8059    1.2150    0.0000 H   0  0  0  0  0  0  0  0  0  0  0  0
    2.5369   -2.7150    0.0000 H   0  0  0  0  0  0  0  0  0  0  0  0
   11.1972   -5.7150    0.0000 H   0  0  0  0  0  0  0  0  0  0  0  0
   12.0632   -3.9750    0.0000 H   0  0  0  0  0  0  0  0  0  0  0  0
   10.8681   -0.2850    0.0000 H   0  0  0  0  0  0  0  0  0  0  0  0
    9.7942   -0.2850    0.0000 H   0  0  0  0  0  0  0  0  0  0  0  0
   12.9292   -5.7150    0.0000 H   0  0  0  0  0  0  0  0  0  0  0  0
   13.4662   -4.7850    0.0000 H   0  0  0  0  0  0  0  0  0  0  0  0
  1 11  1  0  0  0  0
  1 22  1  0  0  0  0
 12  2  1  6  0  0  0
  2 73  1  0  0  0  0
 14  3  1  1  0  0  0
  3 75  1  0  0  0  0
 17  4  1  1  0  0  0
  4 39  1  0  0  0  0
 23  5  1  6  0  0  0
  5 90  1  0  0  0  0
  6 22  2  0  0  0  0
 29  7  1  1  0  0  0
  7 91  1  0  0  0  0
  8 39  2  0  0  0  0
  9 39  1  0  0  0  0
  9 94  1  0  0  0  0
  9 95  1  0  0  0  0
 10 11  1  0  0  0  0
 10 12  1  0  0  0  0
 10 20  1  6  0  0  0
 10 43  1  0  0  0  0
 11 18  1  1  0  0  0
 11 44  1  0  0  0  0
 12 16  1  0  0  0  0
 12 45  1  0  0  0  0
 13 14  1  0  0  0  0
 13 17  1  0  0  0  0
 13 24  1  1  0  0  0
 13 46  1  0  0  0  0
 14 15  1  0  0  0  0
 14 47  1  0  0  0  0
 15 19  1  0  0  0  0
 15 25  1  1  0  0  0
 15 48  1  0  0  0  0
 16 22  1  0  0  0  0
 16 26  1  1  0  0  0
 16 49  1  0  0  0  0
 17 21  1  0  0  0  0
 17 50  1  0  0  0  0
 18 23  1  0  0  0  0
 18 51  1  0  0  0  0
 18 52  1  0  0  0  0
 19 27  1  0  0  0  0
 19 53  1  0  0  0  0
 19 54  1  0  0  0  0
 20 55  1  0  0  0  0
 20 56  1  0  0  0  0
 20 57  1  0  0  0  0
 21 33  1  1  0  0  0
 21 35  1  0  0  0  0
 21 58  1  0  0  0  0
 23 32  1  0  0  0  0
 23 59  1  0  0  0  0
 24 60  1  0  0  0  0
 24 61  1  0  0  0  0
 24 62  1  0  0  0  0
 25 63  1  0  0  0  0
 25 64  1  0  0  0  0
 25 65  1  0  0  0  0
 26 66  1  0  0  0  0
 26 67  1  0  0  0  0
 26 68  1  0  0  0  0
 27 31  2  0  0  0  0
 27 36  1  0  0  0  0
 28 29  1  0  0  0  0
 28 31  1  0  0  0  0
 28 37  1  1  0  0  0
 28 69  1  0  0  0  0
 29 30  1  0  0  0  0
 29 70  1  0  0  0  0
 30 34  1  0  0  0  0
 30 38  1  6  0  0  0
 30 71  1  0  0  0  0
 31 72  1  0  0  0  0
 32 34  2  0  0  0  0
 32 74  1  0  0  0  0
 33 76  1  0  0  0  0
 33 77  1  0  0  0  0
 33 78  1  0  0  0  0
 34 79  1  0  0  0  0
 35 40  2  0  0  0  0
 35 80  1  0  0  0  0
 36 81  1  0  0  0  0
 36 82  1  0  0  0  0
 36 83  1  0  0  0  0
 37 84  1  0  0  0  0
 37 85  1  0  0  0  0
 37 86  1  0  0  0  0
 38 87  1  0  0  0  0
 38 88  1  0  0  0  0
 38 89  1  0  0  0  0
 40 41  1  0  0  0  0
 40 92  1  0  0  0  0
 41 42  2  0  0  0  0
 41 93  1  0  0  0  0
 42 96  1  0  0  0  0
 42 97  1  0  0  0  0
M  END
> <PUBCHEM_COMPOUND_CID>
643668

> <PUBCHEM_COMPOUND_CANONICALIZED>
1

> <PUBCHEM_CACTVS_COMPLEXITY>
962

> <PUBCHEM_CACTVS_HBOND_ACCEPTOR>
8

> <PUBCHEM_CACTVS_HBOND_DONOR>
5

> <PUBCHEM_CACTVS_ROTATABLE_BOND>
17

> <PUBCHEM_CACTVS_SUBSKEYS>
AAADcfB+PAAAAAAAAAAAAAAAAAAAAAAAAAAkAAAAAAAAAAAAAAAAHgAQCAAADRSggAICCABABgCIAiDSGAAAAAAgAAAICAEAAAkIFBYAAQAKUAAF4AAIkAOI7OTOAAAAAAAAAAAAAAAAAAAAAAAAAAAAAA==

> <PUBCHEM_IUPAC_OPENEYE_NAME>
[(1S,2S,3R,4S,6Z,8S,9S,10S,11Z,13S)-3,9,13-trihydroxy-14-[(2S,3R,4S,5R)-4-hydroxy-3,5-dimethyl-6-oxo-tetrahydropyran-2-yl]-2,4,6,8,10-pentamethyl-1-[(1S,2Z)-1-methylpenta-2,4-dienyl]tetradeca-6,11-dienyl] carbamate

> <PUBCHEM_IUPAC_CAS_NAME>
carbamic acid [(3Z,5S,6S,7S,8R,9S,11Z,13S,14S,15S,16Z,18S)-8,14,18-trihydroxy-19-[(2S,3R,4S,5R)-4-hydroxy-3,5-dimethyl-6-oxo-2-oxanyl]-5,7,9,11,13,15-hexamethylnonadeca-1,3,11,16-tetraen-6-yl] ester

> <PUBCHEM_IUPAC_NAME>
[(3Z,5S,6S,7S,8R,9S,11Z,13S,14S,15S,16Z,18S)-8,14,18-trihydroxy-19-[(2S,3R,4S,5R)-4-hydroxy-3,5-dimethyl-6-oxooxan-2-yl]-5,7,9,11,13,15-hexamethylnonadeca-1,3,11,16-tetraen-6-yl] carbamate

> <PUBCHEM_IUPAC_SYSTEMATIC_NAME>
[(3Z,5S,6S,7S,8R,9S,11Z,13S,14S,15S,16Z,18S)-19-[(2S,3R,4S,5R)-3,5-dimethyl-4-oxidanyl-6-oxidanylidene-oxan-2-yl]-5,7,9,11,13,15-hexamethyl-8,14,18-tris(oxidanyl)nonadeca-1,3,11,16-tetraen-6-yl] carbamate

> <PUBCHEM_IUPAC_TRADITIONAL_NAME>
carbamic acid [(1S,2S,3R,4S,6Z,8S,9S,10S,11Z,13S)-3,9,13-trihydroxy-14-[(2S,3R,4S,5R)-4-hydroxy-6-keto-3,5-dimethyl-tetrahydropyran-2-yl]-2,4,6,8,10-pentamethyl-1-[(1S,2Z)-1-methylpenta-2,4-dienyl]tetradeca-6,11-dienyl] ester

> <PUBCHEM_IUPAC_INCHI>
InChI=1S/C33H55NO8/c1-10-11-12-20(4)31(42-33(34)40)24(8)29(37)22(6)16-18(2)15-21(5)28(36)19(3)13-14-26(35)17-27-23(7)30(38)25(9)32(39)41-27/h10-15,19-31,35-38H,1,16-17H2,2-9H3,(H2,34,40)/b12-11-,14-13-,18-15-/t19-,20-,21-,22-,23-,24-,25+,26+,27-,28-,29+,30-,31-/m0/s1

> <PUBCHEM_IUPAC_INCHIKEY>
AADVCYNFEREWOS-OBRABYBLSA-N

> <PUBCHEM_XLOGP3_AA>
5.4

> <PUBCHEM_EXACT_MASS>
593.392768

> <PUBCHEM_MOLECULAR_FORMULA>
C33H55NO8

> <PUBCHEM_MOLECULAR_WEIGHT>
593.7917

> <PUBCHEM_OPENEYE_CAN_SMILES>
CC1C(OC(=O)C(C1O)C)CC(C=CC(C)C(C(C)C=C(C)CC(C)C(C(C)C(C(C)C=CC=C)OC(=O)N)O)O)O

> <PUBCHEM_OPENEYE_ISO_SMILES>
C[C@H]1[C@@H](OC(=O)[C@@H]([C@H]1O)C)C[C@@H](/C=C\[C@H](C)[C@@H]([C@@H](C)/C=C(/C)\C[C@H](C)[C@H]([C@H](C)[C@H]([C@@H](C)/C=C\C=C)OC(=O)N)O)O)O

> <PUBCHEM_CACTVS_TPSA>
160

> <PUBCHEM_MONOISOTOPIC_WEIGHT>
593.392768

> <PUBCHEM_TOTAL_CHARGE>
0

> <PUBCHEM_HEAVY_ATOM_COUNT>
42

> <PUBCHEM_ATOM_DEF_STEREO_COUNT>
13

> <PUBCHEM_ATOM_UDEF_STEREO_COUNT>
0

> <PUBCHEM_BOND_DEF_STEREO_COUNT>
3

> <PUBCHEM_BOND_UDEF_STEREO_COUNT>
0

> <PUBCHEM_ISOTOPIC_ATOM_COUNT>
0

> <PUBCHEM_COMPONENT_COUNT>
1

> <PUBCHEM_CACTVS_TAUTO_COUNT>
4

> <PUBCHEM_COORDINATE_TYPE>
1
5
255

> <PUBCHEM_BONDANNOTATIONS>
10  20  6
11  18  5
13  24  5
15  25  5
16  26  5
12  2  6
21  33  5
28  37  5
14  3  5
30  38  6
17  4  5
23  5  6
29  7  5

$$$$

