147621
  -OEChem-07051213113D

 34 36  0     0  0  0  0  0  0999 V2000
    3.0500    2.0864    0.3649 O   0  0  0  0  0  0  0  0  0  0  0  0
   -1.9991    2.9019    0.1180 O   0  0  0  0  0  0  0  0  0  0  0  0
    0.5119    2.4094    0.2334 O   0  0  0  0  0  0  0  0  0  0  0  0
   -0.3128   -2.8474   -0.2623 O   0  0  0  0  0  0  0  0  0  0  0  0
    4.6925   -2.3485    0.0893 O   0  0  0  0  0  0  0  0  0  0  0  0
   -5.5626   -1.1217    0.9023 O   0  0  0  0  0  0  0  0  0  0  0  0
   -1.2634   -0.7027   -0.1417 C   0  0  0  0  0  0  0  0  0  0  0  0
   -1.0478    0.6709   -0.0119 C   0  0  0  0  0  0  0  0  0  0  0  0
    1.4627    0.2654    0.1109 C   0  0  0  0  0  0  0  0  0  0  0  0
    1.2472   -1.1082   -0.0191 C   0  0  0  0  0  0  0  0  0  0  0  0
    0.3230    1.2052    0.1189 C   0  0  0  0  0  0  0  0  0  0  0  0
   -0.1237   -1.6425   -0.1499 C   0  0  0  0  0  0  0  0  0  0  0  0
   -2.5678   -1.1963   -0.2652 C   0  0  0  0  0  0  0  0  0  0  0  0
   -2.1366    1.5510   -0.0057 C   0  0  0  0  0  0  0  0  0  0  0  0
   -3.6499   -0.3157   -0.2588 C   0  0  0  0  0  0  0  0  0  0  0  0
    2.7671    0.7589    0.2346 C   0  0  0  0  0  0  0  0  0  0  0  0
    2.3361   -1.9882   -0.0261 C   0  0  0  0  0  0  0  0  0  0  0  0
   -3.4348    1.0549   -0.1292 C   0  0  0  0  0  0  0  0  0  0  0  0
    3.8493   -0.1215    0.2275 C   0  0  0  0  0  0  0  0  0  0  0  0
    3.6343   -1.4921    0.0973 C   0  0  0  0  0  0  0  0  0  0  0  0
   -5.0391   -0.8425   -0.3903 C   0  0  0  0  0  0  0  0  0  0  0  0
    3.2635    2.8232   -0.8368 C   0  0  0  0  0  0  0  0  0  0  0  0
   -2.7493   -2.2638   -0.3650 H   0  0  0  0  0  0  0  0  0  0  0  0
    2.1811   -3.0595   -0.1272 H   0  0  0  0  0  0  0  0  0  0  0  0
   -4.2776    1.7424   -0.1219 H   0  0  0  0  0  0  0  0  0  0  0  0
    4.8633    0.2592    0.3242 H   0  0  0  0  0  0  0  0  0  0  0  0
   -5.6965   -0.1185   -0.8833 H   0  0  0  0  0  0  0  0  0  0  0  0
   -5.0655   -1.7610   -0.9867 H   0  0  0  0  0  0  0  0  0  0  0  0
   -1.0653    3.1476    0.1942 H   0  0  0  0  0  0  0  0  0  0  0  0
    4.3625   -3.2580   -0.0091 H   0  0  0  0  0  0  0  0  0  0  0  0
    4.2504    2.5861   -1.2465 H   0  0  0  0  0  0  0  0  0  0  0  0
    3.2326    3.8893   -0.5959 H   0  0  0  0  0  0  0  0  0  0  0  0
    2.4930    2.6095   -1.5847 H   0  0  0  0  0  0  0  0  0  0  0  0
   -4.9092   -1.6538    1.3877 H   0  0  0  0  0  0  0  0  0  0  0  0
  1 16  1  0  0  0  0
  1 22  1  0  0  0  0
  2 14  1  0  0  0  0
  2 29  1  0  0  0  0
  3 11  2  0  0  0  0
  4 12  2  0  0  0  0
  5 20  1  0  0  0  0
  5 30  1  0  0  0  0
  6 21  1  0  0  0  0
  6 34  1  0  0  0  0
  7  8  2  0  0  0  0
  7 12  1  0  0  0  0
  7 13  1  0  0  0  0
  8 11  1  0  0  0  0
  8 14  1  0  0  0  0
  9 10  2  0  0  0  0
  9 11  1  0  0  0  0
  9 16  1  0  0  0  0
 10 12  1  0  0  0  0
 10 17  1  0  0  0  0
 13 15  2  0  0  0  0
 13 23  1  0  0  0  0
 14 18  2  0  0  0  0
 15 18  1  0  0  0  0
 15 21  1  0  0  0  0
 16 19  2  0  0  0  0
 17 20  2  0  0  0  0
 17 24  1  0  0  0  0
 18 25  1  0  0  0  0
 19 20  1  0  0  0  0
 19 26  1  0  0  0  0
 21 27  1  0  0  0  0
 21 28  1  0  0  0  0
 22 31  1  0  0  0  0
 22 32  1  0  0  0  0
 22 33  1  0  0  0  0
M  END
> <PUBCHEM_COMPOUND_CID>
147621

> <PUBCHEM_CONFORMER_RMSD>
0.6

> <PUBCHEM_CONFORMER_DIVERSEORDER>
1
2

> <PUBCHEM_MMFF94_PARTIAL_CHARGES>
29
1 -0.36
10 0.09
11 0.4
12 0.4
13 -0.15
14 0.08
15 -0.14
16 0.08
17 -0.15
18 -0.15
19 -0.15
2 -0.53
20 0.08
21 0.42
22 0.28
23 0.15
24 0.15
25 0.15
26 0.15
29 0.45
3 -0.57
30 0.45
34 0.4
4 -0.57
5 -0.53
6 -0.68
7 0.09
8 0.09
9 0.09

> <PUBCHEM_EFFECTIVE_ROTOR_COUNT>
2

> <PUBCHEM_PHARMACOPHORE_FEATURES>
10
1 1 acceptor
1 2 donor
1 3 acceptor
1 4 acceptor
1 5 donor
1 6 acceptor
1 6 donor
6 7 8 13 14 15 18 rings
6 7 8 9 10 11 12 rings
6 9 10 16 17 19 20 rings

> <PUBCHEM_HEAVY_ATOM_COUNT>
22

> <PUBCHEM_ATOM_DEF_STEREO_COUNT>
0

> <PUBCHEM_ATOM_UDEF_STEREO_COUNT>
0

> <PUBCHEM_BOND_DEF_STEREO_COUNT>
0

> <PUBCHEM_BOND_UDEF_STEREO_COUNT>
0

> <PUBCHEM_ISOTOPIC_ATOM_COUNT>
0

> <PUBCHEM_COMPONENT_COUNT>
1

> <PUBCHEM_CACTVS_TAUTO_COUNT>
24

> <PUBCHEM_CONFORMER_ID>
000240A500000001

> <PUBCHEM_MMFF94_ENERGY>
79.2375

> <PUBCHEM_FEATURE_SELFOVERLAP>
50.8

> <PUBCHEM_SHAPE_FINGERPRINT>
10411042 1 18266459991615223342
10616163 171 18266177219415542398
10967382 1 18337956670991527628
1100329 8 18119245309945734225
11578080 2 13900747776774049037
11680986 33 18270676459260762866
12236239 1 17749390331060068639
12403259 226 18339930419086450156
12403260 363 18410018766181510087
12788726 201 17749653126528021665
13140716 1 18263645232809640280
13583140 156 16987184706276383603
138480 1 18410577314368699756
13862211 1 18409174328657185327
14178342 30 18120383304437816752
14787075 74 18127693730097673715
14790565 3 17404289708056705621
15042514 8 17762625384140911370
15196674 1 18410014359729654697
15442244 35 18337956795925283424
15536298 74 18334018293719073554
16945 1 18193000313781681784
17492 89 18338518641793158451
19591789 44 18409732880379017887
200 152 18114192951500526637
20028762 73 18186810162339954671
20510252 161 18260270780089396665
20645477 70 18342743991863335706
20739085 24 18340185454529368833
21267235 1 18409724088507324326
21792934 111 18336557083722504481
221490 88 18412260657600543618
22182313 1 18269579228350512812
2334 1 18409169908940132608
23366157 5 18131070420738101332
23402539 116 18261405501785420015
23463225 33 18410295839022386220
23559900 14 18337400425719458304
2748010 2 18337678606271474228
2871803 45 18342184388132686079
312423 11 18338223942580072649
3286 77 18343022233046294358
335352 9 18193278722020011141
34934 24 18118971291142382268
350125 39 18410290341306284092
4409770 3 17050221069992408084
474 4 17631448969506075996
5104073 3 18336550515936592705
7364860 26 18408325463110131656
9709674 26 18411698785589240826
9981440 41 17837496246250651600

> <PUBCHEM_SHAPE_MULTIPOLES>
417.53
8.85
3.09
0.69
4.96
0.93
0.02
-2.37
-0.41
-2.03
0.21
0.08
0.06
-0.24

> <PUBCHEM_SHAPE_SELFOVERLAP>
936.303

> <PUBCHEM_SHAPE_VOLUME>
219.7

> <PUBCHEM_COORDINATE_TYPE>
2
5
10

$$$$

