14436
  -OEChem-06241222432D

 62 66  0     1  0  0  0  0  0999 V2000
    7.9288   -1.7488    0.0000 O   0  0  0  0  0  0  0  0  0  0  0  0
    7.9506   -2.7802    0.0000 O   0  0  0  0  0  0  0  0  0  0  0  0
    2.5357   -2.8011    0.0000 O   0  0  0  0  0  0  0  0  0  0  0  0
    9.1885    3.1245    0.0000 O   0  0  0  0  0  0  0  0  0  0  0  0
   10.9491    3.4002    0.0000 O   0  0  0  0  0  0  0  0  0  0  0  0
    7.9288   -0.7488    0.0000 C   0  0  1  0  0  0  0  0  0  0  0  0
    7.0628   -1.2488    0.0000 C   0  0  3  0  0  0  0  0  0  0  0  0
    6.1968   -0.7488    0.0000 C   0  0  3  0  0  0  0  0  0  0  0  0
    7.9288    0.2512    0.0000 C   0  0  2  0  0  0  0  0  0  0  0  0
    5.2868   -1.2556    0.0000 C   0  0  2  0  0  0  0  0  0  0  0  0
    5.2787   -2.2972    0.0000 C   0  0  2  0  0  0  0  0  0  0  0  0
    6.1968    0.2512    0.0000 C   0  0  0  0  0  0  0  0  0  0  0  0
    7.0628    0.7512    0.0000 C   0  0  0  0  0  0  0  0  0  0  0  0
    8.8750    0.5559    0.0000 C   0  0  2  0  0  0  0  0  0  0  0  0
    7.0789   -2.2903    0.0000 C   0  0  2  0  0  0  0  0  0  0  0  0
    8.8750   -1.0535    0.0000 C   0  0  0  0  0  0  0  0  0  0  0  0
    6.1808   -2.8181    0.0000 C   0  0  0  0  0  0  0  0  0  0  0  0
    9.4586   -0.2488    0.0000 C   0  0  0  0  0  0  0  0  0  0  0  0
    4.3599   -0.6916    0.0000 C   0  0  0  0  0  0  0  0  0  0  0  0
    4.3433   -2.8470    0.0000 C   0  0  0  0  0  0  0  0  0  0  0  0
    7.9288    1.2512    0.0000 C   0  0  0  0  0  0  0  0  0  0  0  0
    5.2945   -0.2557    0.0000 C   0  0  0  0  0  0  0  0  0  0  0  0
    3.4120   -1.2195    0.0000 C   0  0  0  0  0  0  0  0  0  0  0  0
    3.4037   -2.3045    0.0000 C   0  0  2  0  0  0  0  0  0  0  0  0
    9.1857    1.5065    0.0000 C   0  0  0  0  0  0  0  0  0  0  0  0
    8.5993    2.3165    0.0000 C   0  0  0  0  0  0  0  0  0  0  0  0
   10.1373    1.8138    0.0000 C   0  0  0  0  0  0  0  0  0  0  0  0
   10.1390    2.8138    0.0000 C   0  0  0  0  0  0  0  0  0  0  0  0
    7.6021   -1.5546    0.0000 H   0  0  0  0  0  0  0  0  0  0  0  0
    6.7337   -0.4388    0.0000 H   0  0  0  0  0  0  0  0  0  0  0  0
    5.2820   -3.1472    0.0000 H   0  0  0  0  0  0  0  0  0  0  0  0
    5.9847    0.8338    0.0000 H   0  0  0  0  0  0  0  0  0  0  0  0
    5.5862    0.1435    0.0000 H   0  0  0  0  0  0  0  0  0  0  0  0
    7.4613    1.2262    0.0000 H   0  0  0  0  0  0  0  0  0  0  0  0
    6.6643    1.2262    0.0000 H   0  0  0  0  0  0  0  0  0  0  0  0
    9.4875    0.6521    0.0000 H   0  0  0  0  0  0  0  0  0  0  0  0
    7.6116   -1.9731    0.0000 H   0  0  0  0  0  0  0  0  0  0  0  0
    8.6240   -1.6204    0.0000 H   0  0  0  0  0  0  0  0  0  0  0  0
    9.4124   -1.3627    0.0000 H   0  0  0  0  0  0  0  0  0  0  0  0
    5.7835   -3.2940    0.0000 H   0  0  0  0  0  0  0  0  0  0  0  0
    6.5818   -3.2910    0.0000 H   0  0  0  0  0  0  0  0  0  0  0  0
    9.9195   -0.6635    0.0000 H   0  0  0  0  0  0  0  0  0  0  0  0
    9.9195    0.1659    0.0000 H   0  0  0  0  0  0  0  0  0  0  0  0
    4.7681   -0.2249    0.0000 H   0  0  0  0  0  0  0  0  0  0  0  0
    3.9700   -0.2095    0.0000 H   0  0  0  0  0  0  0  0  0  0  0  0
    3.9460   -3.3229    0.0000 H   0  0  0  0  0  0  0  0  0  0  0  0
    4.7443   -3.3199    0.0000 H   0  0  0  0  0  0  0  0  0  0  0  0
    8.5488    1.2512    0.0000 H   0  0  0  0  0  0  0  0  0  0  0  0
    7.9288    1.8712    0.0000 H   0  0  0  0  0  0  0  0  0  0  0  0
    7.3088    1.2512    0.0000 H   0  0  0  0  0  0  0  0  0  0  0  0
    5.9145   -0.2604    0.0000 H   0  0  0  0  0  0  0  0  0  0  0  0
    5.2993    0.3643    0.0000 H   0  0  0  0  0  0  0  0  0  0  0  0
    4.6745   -0.2509    0.0000 H   0  0  0  0  0  0  0  0  0  0  0  0
    3.2075   -0.6342    0.0000 H   0  0  0  0  0  0  0  0  0  0  0  0
    2.8004   -1.3209    0.0000 H   0  0  0  0  0  0  0  0  0  0  0  0
    2.8686   -1.9914    0.0000 H   0  0  0  0  0  0  0  0  0  0  0  0
    8.4658   -2.0588    0.0000 H   0  0  0  0  0  0  0  0  0  0  0  0
    7.9578   -3.4002    0.0000 H   0  0  0  0  0  0  0  0  0  0  0  0
    8.1393    2.7322    0.0000 H   0  0  0  0  0  0  0  0  0  0  0  0
    8.1378    1.9024    0.0000 H   0  0  0  0  0  0  0  0  0  0  0  0
   10.6383    1.4485    0.0000 H   0  0  0  0  0  0  0  0  0  0  0  0
    2.0000   -2.4891    0.0000 H   0  0  0  0  0  0  0  0  0  0  0  0
  6  1  1  1  0  0  0
  1 57  1  0  0  0  0
  2 15  1  0  0  0  0
  2 58  1  0  0  0  0
 24  3  1  1  0  0  0
  3 62  1  0  0  0  0
  4 26  1  0  0  0  0
  4 28  1  0  0  0  0
  5 28  2  0  0  0  0
  6  7  1  0  0  0  0
  6  9  1  0  0  0  0
  6 16  1  0  0  0  0
  7  8  1  0  0  0  0
  7 15  1  0  0  0  0
  7 29  1  0  0  0  0
  8 10  1  0  0  0  0
  8 12  1  0  0  0  0
  8 30  1  0  0  0  0
  9 13  1  0  0  0  0
  9 14  1  0  0  0  0
  9 21  1  1  0  0  0
 10 11  1  0  0  0  0
 10 19  1  0  0  0  0
 10 22  1  1  0  0  0
 11 17  1  0  0  0  0
 11 20  1  0  0  0  0
 11 31  1  1  0  0  0
 12 13  1  0  0  0  0
 12 32  1  0  0  0  0
 12 33  1  0  0  0  0
 13 34  1  0  0  0  0
 13 35  1  0  0  0  0
 14 18  1  0  0  0  0
 14 25  1  1  0  0  0
 14 36  1  0  0  0  0
 15 17  1  0  0  0  0
 15 37  1  0  0  0  0
 16 18  1  0  0  0  0
 16 38  1  0  0  0  0
 16 39  1  0  0  0  0
 17 40  1  0  0  0  0
 17 41  1  0  0  0  0
 18 42  1  0  0  0  0
 18 43  1  0  0  0  0
 19 23  1  0  0  0  0
 19 44  1  0  0  0  0
 19 45  1  0  0  0  0
 20 24  1  0  0  0  0
 20 46  1  0  0  0  0
 20 47  1  0  0  0  0
 21 48  1  0  0  0  0
 21 49  1  0  0  0  0
 21 50  1  0  0  0  0
 22 51  1  0  0  0  0
 22 52  1  0  0  0  0
 22 53  1  0  0  0  0
 23 24  1  0  0  0  0
 23 54  1  0  0  0  0
 23 55  1  0  0  0  0
 24 56  1  0  0  0  0
 25 26  1  0  0  0  0
 25 27  2  0  0  0  0
 26 59  1  0  0  0  0
 26 60  1  0  0  0  0
 27 28  1  0  0  0  0
 27 61  1  0  0  0  0
M  END
> <PUBCHEM_COMPOUND_CID>
14436

> <PUBCHEM_COMPOUND_CANONICALIZED>
1

> <PUBCHEM_CACTVS_COMPLEXITY>
718

> <PUBCHEM_CACTVS_HBOND_ACCEPTOR>
5

> <PUBCHEM_CACTVS_HBOND_DONOR>
3

> <PUBCHEM_CACTVS_ROTATABLE_BOND>
1

> <PUBCHEM_CACTVS_SUBSKEYS>
AAADcfB4OAAAAAAAAAAAAAAAAAAAAYIAAAAwYMAAAAAAAGDAAAAAGgAACAAAD1SggAICCAAABgCIAiDSCAAAAAAgAAAACAAAAEgAFAIAIQACUAAFgAAIIQOA4PwPgAAAAAAAAADAAAYAADAAAYAADAAAAA==

> <PUBCHEM_IUPAC_OPENEYE_NAME>
3-[(3S,5S,7S,10S,13R,14S,17R)-3,7,14-trihydroxy-10,13-dimethyl-1,2,3,4,5,6,7,8,9,11,12,15,16,17-tetradecahydrocyclopenta[a]phenanthren-17-yl]-2H-furan-5-one

> <PUBCHEM_IUPAC_CAS_NAME>
3-[(3S,5S,7S,10S,13R,14S,17R)-3,7,14-trihydroxy-10,13-dimethyl-1,2,3,4,5,6,7,8,9,11,12,15,16,17-tetradecahydrocyclopenta[a]phenanthren-17-yl]-2H-furan-5-one

> <PUBCHEM_IUPAC_NAME>
3-[(3S,5S,7S,10S,13R,14S,17R)-3,7,14-trihydroxy-10,13-dimethyl-1,2,3,4,5,6,7,8,9,11,12,15,16,17-tetradecahydrocyclopenta[a]phenanthren-17-yl]-2H-furan-5-one

> <PUBCHEM_IUPAC_SYSTEMATIC_NAME>
3-[(3S,5S,7S,10S,13R,14S,17R)-10,13-dimethyl-3,7,14-tris(oxidanyl)-1,2,3,4,5,6,7,8,9,11,12,15,16,17-tetradecahydrocyclopenta[a]phenanthren-17-yl]-2H-furan-5-one

> <PUBCHEM_IUPAC_TRADITIONAL_NAME>
3-[(3S,5S,7S,10S,13R,14S,17R)-3,7,14-trihydroxy-10,13-dimethyl-1,2,3,4,5,6,7,8,9,11,12,15,16,17-tetradecahydrocyclopenta[a]phenanthren-17-yl]-2H-furan-5-one

> <PUBCHEM_IUPAC_INCHI>
InChI=1S/C23H34O5/c1-21-6-3-15(24)10-14(21)11-18(25)20-17(21)4-7-22(2)16(5-8-23(20,22)27)13-9-19(26)28-12-13/h9,14-18,20,24-25,27H,3-8,10-12H2,1-2H3/t14-,15-,16+,17?,18-,20?,21-,22+,23-/m0/s1

> <PUBCHEM_IUPAC_INCHIKEY>
JDQWKADNJIUBND-PFMLNQDQSA-N

> <PUBCHEM_XLOGP3>
1.5

> <PUBCHEM_EXACT_MASS>
390.240624

> <PUBCHEM_MOLECULAR_FORMULA>
C23H34O5

> <PUBCHEM_MOLECULAR_WEIGHT>
390.51306

> <PUBCHEM_OPENEYE_CAN_SMILES>
CC12CCC(CC1CC(C3C2CCC4(C3(CCC4C5=CC(=O)OC5)O)C)O)O

> <PUBCHEM_OPENEYE_ISO_SMILES>
C[C@]12CCC3C([C@]1(CC[C@@H]2C4=CC(=O)OC4)O)[C@H](C[C@H]5[C@@]3(CC[C@@H](C5)O)C)O

> <PUBCHEM_CACTVS_TPSA>
87

> <PUBCHEM_MONOISOTOPIC_WEIGHT>
390.240624

> <PUBCHEM_TOTAL_CHARGE>
0

> <PUBCHEM_HEAVY_ATOM_COUNT>
28

> <PUBCHEM_ATOM_DEF_STEREO_COUNT>
7

> <PUBCHEM_ATOM_UDEF_STEREO_COUNT>
2

> <PUBCHEM_BOND_DEF_STEREO_COUNT>
0

> <PUBCHEM_BOND_UDEF_STEREO_COUNT>
0

> <PUBCHEM_ISOTOPIC_ATOM_COUNT>
0

> <PUBCHEM_COMPONENT_COUNT>
1

> <PUBCHEM_CACTVS_TAUTO_COUNT>
1

> <PUBCHEM_COORDINATE_TYPE>
1
5
255

> <PUBCHEM_BONDANNOTATIONS>
6  1  5
10  22  5
11  31  5
14  25  5
24  3  5
7  15  3
8  12  3
9  21  5

$$$$

