3030
  -OEChem-07051213123D

 19 19  0     0  0  0  0  0  0999 V2000
    2.4295   -2.0730   -0.1457 Cl  0  0  0  0  0  0  0  0  0  0  0  0
   -3.4224    0.0738    0.1771 Cl  0  0  0  0  0  0  0  0  0  0  0  0
   -0.9499    1.7504    0.2448 O   0  0  0  0  0  0  0  0  0  0  0  0
    1.7008    1.6094    1.2558 O   0  0  0  0  0  0  0  0  0  0  0  0
    2.5376    1.0360   -0.7783 O   0  0  0  0  0  0  0  0  0  0  0  0
    0.5876   -0.0679    0.0601 C   0  0  0  0  0  0  0  0  0  0  0  0
   -0.7214    0.4087    0.1321 C   0  0  0  0  0  0  0  0  0  0  0  0
    0.8258   -1.4376   -0.0539 C   0  0  0  0  0  0  0  0  0  0  0  0
   -1.7921   -0.4843    0.0899 C   0  0  0  0  0  0  0  0  0  0  0  0
   -0.2449   -2.3306   -0.0960 C   0  0  0  0  0  0  0  0  0  0  0  0
   -1.5538   -1.8539   -0.0242 C   0  0  0  0  0  0  0  0  0  0  0  0
    1.6940    0.8844    0.1064 C   0  0  0  0  0  0  0  0  0  0  0  0
   -1.0907    2.4846   -0.9681 C   0  0  0  0  0  0  0  0  0  0  0  0
   -0.0765   -3.4009   -0.1847 H   0  0  0  0  0  0  0  0  0  0  0  0
   -2.3774   -2.5626   -0.0584 H   0  0  0  0  0  0  0  0  0  0  0  0
   -1.8976    2.0775   -1.5853 H   0  0  0  0  0  0  0  0  0  0  0  0
   -0.1534    2.4793   -1.5330 H   0  0  0  0  0  0  0  0  0  0  0  0
   -1.3363    3.5194   -0.7140 H   0  0  0  0  0  0  0  0  0  0  0  0
    2.4448    2.2482    1.2806 H   0  0  0  0  0  0  0  0  0  0  0  0
  1  8  1  0  0  0  0
  2  9  1  0  0  0  0
  3  7  1  0  0  0  0
  3 13  1  0  0  0  0
  4 12  1  0  0  0  0
  4 19  1  0  0  0  0
  5 12  2  0  0  0  0
  6  7  1  0  0  0  0
  6  8  2  0  0  0  0
  6 12  1  0  0  0  0
  7  9  2  0  0  0  0
  8 10  1  0  0  0  0
  9 11  1  0  0  0  0
 10 11  2  0  0  0  0
 10 14  1  0  0  0  0
 11 15  1  0  0  0  0
 13 16  1  0  0  0  0
 13 17  1  0  0  0  0
 13 18  1  0  0  0  0
M  END
> <PUBCHEM_COMPOUND_CID>
3030

> <PUBCHEM_CONFORMER_RMSD>
0.6

> <PUBCHEM_CONFORMER_DIVERSEORDER>
2
1

> <PUBCHEM_MMFF94_PARTIAL_CHARGES>
16
1 -0.18
10 -0.15
11 -0.15
12 0.63
13 0.28
14 0.15
15 0.15
19 0.5
2 -0.18
3 -0.36
4 -0.65
5 -0.57
6 0.09
7 0.08
8 0.18
9 0.18

> <PUBCHEM_EFFECTIVE_ROTOR_COUNT>
2

> <PUBCHEM_PHARMACOPHORE_FEATURES>
5
1 3 acceptor
1 4 acceptor
1 5 acceptor
3 4 5 12 anion
6 6 7 8 9 10 11 rings

> <PUBCHEM_HEAVY_ATOM_COUNT>
13

> <PUBCHEM_ATOM_DEF_STEREO_COUNT>
0

> <PUBCHEM_ATOM_UDEF_STEREO_COUNT>
0

> <PUBCHEM_BOND_DEF_STEREO_COUNT>
0

> <PUBCHEM_BOND_UDEF_STEREO_COUNT>
0

> <PUBCHEM_ISOTOPIC_ATOM_COUNT>
0

> <PUBCHEM_COMPONENT_COUNT>
1

> <PUBCHEM_CACTVS_TAUTO_COUNT>
1

> <PUBCHEM_CONFORMER_ID>
00000BD600000002

> <PUBCHEM_MMFF94_ENERGY>
47.1866

> <PUBCHEM_FEATURE_SELFOVERLAP>
25.432

> <PUBCHEM_SHAPE_FINGERPRINT>
10967382 1 18410853252657597847
11206711 2 18124029298043882671
12423570 1 17122798697984518861
12524768 44 18410293579848716883
13380535 21 18338784620601458371
13380535 220 18125714844979129406
161256 15 18410292553272171479
16945 1 18189613852238069611
193761 8 18267303316526701767
20588541 1 18337387149727405595
21040471 1 18265615381489359579
21501502 16 18266452290390279761
2334 1 18338517413617043635
23552423 10 18342454803320982030
23559900 14 18116982301264334612
241688 4 18412258424191377475
2748010 2 18338513041329702439
5084963 1 18115874172924197683
5255222 1 18408323272149231600
528886 8 18338797797513227515
53812653 166 18189893128207400979
66348 1 18336825273547645163
7364860 26 18260267460391036242

> <PUBCHEM_SHAPE_MULTIPOLES>
253.67
3.68
2.82
0.82
0.76
0.2
-0.03
-0.33
0.08
-0.31
0.28
-0.1
0.37
0.39

> <PUBCHEM_SHAPE_SELFOVERLAP>
516.264

> <PUBCHEM_SHAPE_VOLUME>
149.8

> <PUBCHEM_COORDINATE_TYPE>
2
5
10

$$$$

