542762
  -OEChem-07051213133D

  8  7  0     1  0  0  0  0  0999 V2000
    1.4831    1.4994   -0.5448 Br  0  0  0  0  0  0  0  0  0  0  0  0
    1.4987   -1.4041    0.3285 Cl  0  0  0  0  0  0  0  0  0  0  0  0
   -1.6584    0.7713    0.5921 O   0  0  0  0  0  0  0  0  0  0  0  0
   -1.1482   -0.8913   -0.8590 O   0  0  0  0  0  0  0  0  0  0  0  0
    0.6140    0.1111    0.4937 C   0  0  2  0  0  0  0  0  0  0  0  0
   -0.7892   -0.0863   -0.0105 C   0  0  0  0  0  0  0  0  0  0  0  0
    0.6183    0.4062    1.5459 H   0  0  0  0  0  0  0  0  0  0  0  0
   -2.5750    0.6521    0.2635 H   0  0  0  0  0  0  0  0  0  0  0  0
  1  5  1  0  0  0  0
  2  5  1  0  0  0  0
  3  6  1  0  0  0  0
  3  8  1  0  0  0  0
  4  6  2  0  0  0  0
  5  6  1  0  0  0  0
  5  7  1  0  0  0  0
M  END
> <PUBCHEM_COMPOUND_CID>
542762

> <PUBCHEM_CONFORMER_RMSD>
0.4

> <PUBCHEM_CONFORMER_DIVERSEORDER>
2
4
1
3

> <PUBCHEM_MMFF94_PARTIAL_CHARGES>
7
1 -0.23
2 -0.29
3 -0.65
4 -0.57
5 0.58
6 0.66
8 0.5

> <PUBCHEM_EFFECTIVE_ROTOR_COUNT>
1

> <PUBCHEM_PHARMACOPHORE_FEATURES>
4
1 1 hydrophobe
1 3 acceptor
1 4 acceptor
3 3 4 6 anion

> <PUBCHEM_HEAVY_ATOM_COUNT>
6

> <PUBCHEM_ATOM_DEF_STEREO_COUNT>
0

> <PUBCHEM_ATOM_UDEF_STEREO_COUNT>
1

> <PUBCHEM_BOND_DEF_STEREO_COUNT>
0

> <PUBCHEM_BOND_UDEF_STEREO_COUNT>
0

> <PUBCHEM_ISOTOPIC_ATOM_COUNT>
0

> <PUBCHEM_COMPONENT_COUNT>
1

> <PUBCHEM_CACTVS_TAUTO_COUNT>
1

> <PUBCHEM_CONFORMER_ID>
0008482A00000002

> <PUBCHEM_MMFF94_ENERGY>
6.6417

> <PUBCHEM_FEATURE_SELFOVERLAP>
20.357

> <PUBCHEM_SHAPE_FINGERPRINT>
137420 1 14799858790049950456
139733 1 8645614436625447194
16714656 1 17831859427596091902
20096714 4 18339350886185073696
21040471 1 17604424227545898969
24536 1 18272100356883283018
29004967 10 17915453007401325066
5943 1 5534704787058199424

> <PUBCHEM_SHAPE_MULTIPOLES>
119.55
2.16
1.66
0.87
0.09
0.31
-0.07
-0.52
-0.13
-0.91
-0.01
0.13
-0.01
-0.43

> <PUBCHEM_SHAPE_SELFOVERLAP>
198.694

> <PUBCHEM_SHAPE_VOLUME>
84.3

> <PUBCHEM_COORDINATE_TYPE>
2
5
10

$$$$

