17395550
  -OEChem-06241222513D

 47 51  0     1  0  0  0  0  0999 V2000
   -0.8480   -1.1465   -1.6915 S   0  0  0  0  0  0  0  0  0  0  0  0
    0.1578    2.8423    2.2308 O   0  0  0  0  0  0  0  0  0  0  0  0
    2.7952   -1.6428    0.6855 O   0  0  0  0  0  0  0  0  0  0  0  0
    4.7116   -0.1343   -0.8517 O   0  0  0  0  0  0  0  0  0  0  0  0
   -1.1224    2.2936    0.3417 N   0  0  0  0  0  0  0  0  0  0  0  0
   -2.1613   -0.4454    0.4146 N   0  0  0  0  0  0  0  0  0  0  0  0
   -1.2751    1.5008   -0.9075 C   0  0  2  0  0  0  0  0  0  0  0  0
   -2.3049    2.0719   -1.8973 C   0  0  0  0  0  0  0  0  0  0  0  0
   -3.5695    2.6063   -1.2405 C   0  0  0  0  0  0  0  0  0  0  0  0
   -3.2016    3.5984   -0.1498 C   0  0  0  0  0  0  0  0  0  0  0  0
   -2.3080    2.9565    0.8996 C   0  0  0  0  0  0  0  0  0  0  0  0
   -1.4963    0.0169   -0.6184 C   0  0  0  0  0  0  0  0  0  0  0  0
    0.0480    2.3155    1.1236 C   0  0  0  0  0  0  0  0  0  0  0  0
    1.2551    1.6571    0.6087 C   0  0  0  0  0  0  0  0  0  0  0  0
   -1.5012   -2.4032   -0.7081 C   0  0  0  0  0  0  0  0  0  0  0  0
   -2.1723   -1.8322    0.3775 C   0  0  0  0  0  0  0  0  0  0  0  0
    1.4884    0.3110    0.8907 C   0  0  0  0  0  0  0  0  0  0  0  0
    2.1637    2.3774   -0.1674 C   0  0  0  0  0  0  0  0  0  0  0  0
    2.6317   -0.3142    0.3922 C   0  0  0  0  0  0  0  0  0  0  0  0
    3.5550    0.4141   -0.3621 C   0  0  0  0  0  0  0  0  0  0  0  0
   -1.4249   -3.7942   -0.8844 C   0  0  0  0  0  0  0  0  0  0  0  0
   -2.7876   -2.6860    1.3187 C   0  0  0  0  0  0  0  0  0  0  0  0
    3.3140    1.7566   -0.6549 C   0  0  0  0  0  0  0  0  0  0  0  0
    3.7875   -2.2538   -0.1438 C   0  0  0  0  0  0  0  0  0  0  0  0
   -2.0425   -4.6166    0.0613 C   0  0  0  0  0  0  0  0  0  0  0  0
   -2.7154   -4.0718    1.1494 C   0  0  0  0  0  0  0  0  0  0  0  0
    5.0229   -1.3775   -0.2168 C   0  0  0  0  0  0  0  0  0  0  0  0
   -0.3088    1.5673   -1.4238 H   0  0  0  0  0  0  0  0  0  0  0  0
   -2.5692    1.3378   -2.6675 H   0  0  0  0  0  0  0  0  0  0  0  0
   -1.8317    2.9109   -2.4266 H   0  0  0  0  0  0  0  0  0  0  0  0
   -4.1497    1.7786   -0.8161 H   0  0  0  0  0  0  0  0  0  0  0  0
   -4.2010    3.0940   -1.9914 H   0  0  0  0  0  0  0  0  0  0  0  0
   -2.6837    4.4564   -0.5962 H   0  0  0  0  0  0  0  0  0  0  0  0
   -4.1109    3.9829    0.3253 H   0  0  0  0  0  0  0  0  0  0  0  0
   -2.0078    3.7124    1.6334 H   0  0  0  0  0  0  0  0  0  0  0  0
   -2.8672    2.1875    1.4462 H   0  0  0  0  0  0  0  0  0  0  0  0
    0.7833   -0.2534    1.4961 H   0  0  0  0  0  0  0  0  0  0  0  0
    1.9861    3.4253   -0.3957 H   0  0  0  0  0  0  0  0  0  0  0  0
    4.0204    2.3272   -1.2516 H   0  0  0  0  0  0  0  0  0  0  0  0
   -0.9008   -4.2265   -1.7312 H   0  0  0  0  0  0  0  0  0  0  0  0
   -3.3159   -2.2709    2.1724 H   0  0  0  0  0  0  0  0  0  0  0  0
    3.3551   -2.4269   -1.1371 H   0  0  0  0  0  0  0  0  0  0  0  0
    4.0357   -3.2252    0.2949 H   0  0  0  0  0  0  0  0  0  0  0  0
    5.4302   -1.1694    0.7803 H   0  0  0  0  0  0  0  0  0  0  0  0
    5.8020   -1.8676   -0.8089 H   0  0  0  0  0  0  0  0  0  0  0  0
   -1.9950   -5.6960   -0.0563 H   0  0  0  0  0  0  0  0  0  0  0  0
   -3.1896   -4.7270    1.8750 H   0  0  0  0  0  0  0  0  0  0  0  0
  1 12  1  0  0  0  0
  1 15  1  0  0  0  0
  2 13  2  0  0  0  0
  3 19  1  0  0  0  0
  3 24  1  0  0  0  0
  4 20  1  0  0  0  0
  4 27  1  0  0  0  0
  5  7  1  0  0  0  0
  5 11  1  0  0  0  0
  5 13  1  0  0  0  0
  6 12  2  0  0  0  0
  6 16  1  0  0  0  0
  7  8  1  0  0  0  0
  7 12  1  0  0  0  0
  7 28  1  0  0  0  0
  8  9  1  0  0  0  0
  8 29  1  0  0  0  0
  8 30  1  0  0  0  0
  9 10  1  0  0  0  0
  9 31  1  0  0  0  0
  9 32  1  0  0  0  0
 10 11  1  0  0  0  0
 10 33  1  0  0  0  0
 10 34  1  0  0  0  0
 11 35  1  0  0  0  0
 11 36  1  0  0  0  0
 13 14  1  0  0  0  0
 14 17  2  0  0  0  0
 14 18  1  0  0  0  0
 15 16  1  0  0  0  0
 15 21  2  0  0  0  0
 16 22  2  0  0  0  0
 17 19  1  0  0  0  0
 17 37  1  0  0  0  0
 18 23  2  0  0  0  0
 18 38  1  0  0  0  0
 19 20  2  0  0  0  0
 20 23  1  0  0  0  0
 21 25  1  0  0  0  0
 21 40  1  0  0  0  0
 22 26  1  0  0  0  0
 22 41  1  0  0  0  0
 23 39  1  0  0  0  0
 24 27  1  0  0  0  0
 24 42  1  0  0  0  0
 24 43  1  0  0  0  0
 25 26  2  0  0  0  0
 25 46  1  0  0  0  0
 26 47  1  0  0  0  0
 27 44  1  0  0  0  0
 27 45  1  0  0  0  0
M  END
> <PUBCHEM_COMPOUND_CID>
17395550

> <PUBCHEM_CONFORMER_RMSD>
0.8

> <PUBCHEM_CONFORMER_DIVERSEORDER>
1
72
41
25
88
118
107
60
114
36
124
89
24
101
67
10
109
55
53
63
68
29
97
117
31
121
91
5
94
111
119
66
95
37
4
99
120
64
39
30
112
9
103
105
43
18
38
33
49
26
52
102
40
2
73
74
71
11
77
76
82
47
123
12
32
83
61
44
45
42
6
81
56
75
3
14
92
22
8
90
106
69
93
84
110
62
122
115
34
113
116
21
70
65
54
104
85
125
15
108
13
28
7
48
46
59
79
16
57
20
98
27
58
96
87
35
86
17
19
51
80
78
23
50
100

> <PUBCHEM_MMFF94_PARTIAL_CHARGES>
31
1 -0.08
11 0.3
12 0.2
13 0.54
14 0.09
15 0.04
16 0.23
17 -0.15
18 -0.15
19 0.08
2 -0.57
20 0.08
21 -0.15
22 -0.15
23 -0.15
24 0.28
25 -0.15
26 -0.15
27 0.28
3 -0.36
37 0.15
38 0.15
39 0.15
4 -0.36
40 0.15
41 0.15
46 0.15
47 0.15
5 -0.66
6 -0.57
7 0.48

> <PUBCHEM_EFFECTIVE_ROTOR_COUNT>
5

> <PUBCHEM_PHARMACOPHORE_FEATURES>
9
1 2 acceptor
1 3 acceptor
1 4 acceptor
1 6 acceptor
5 1 6 12 15 16 rings
6 14 17 18 19 20 23 rings
6 15 16 21 22 25 26 rings
6 3 4 19 20 24 27 rings
6 5 7 8 9 10 11 rings

> <PUBCHEM_HEAVY_ATOM_COUNT>
27

> <PUBCHEM_ATOM_DEF_STEREO_COUNT>
0

> <PUBCHEM_ATOM_UDEF_STEREO_COUNT>
1

> <PUBCHEM_BOND_DEF_STEREO_COUNT>
0

> <PUBCHEM_BOND_UDEF_STEREO_COUNT>
0

> <PUBCHEM_ISOTOPIC_ATOM_COUNT>
0

> <PUBCHEM_COMPONENT_COUNT>
1

> <PUBCHEM_CACTVS_TAUTO_COUNT>
1

> <PUBCHEM_CONFORMER_ID>
01096F5E00000001

> <PUBCHEM_MMFF94_ENERGY>
70.7515

> <PUBCHEM_FEATURE_SELFOVERLAP>
45.783

> <PUBCHEM_SHAPE_FINGERPRINT>
107951 10 18119802762208472542
11135609 187 18049734202022794740
11578080 2 17386868113591031817
12156800 1 16408948341758237203
12553582 1 17905612103302127586
12788726 201 18339663169337017919
13533116 47 17397256136801573491
14251757 5 18410569604617398022
15420108 30 15373172383798564048
15422964 175 17835529215162572791
1813 80 17621881985546054415
19319366 153 17272846752594905474
19930381 70 17403736043732485299
20645476 183 18269280225564696900
20739085 24 17185602312737785641
20775438 99 17323570277584770975
20775530 9 18123749760103073642
3383291 50 18191876823151844250
340366 18 18058440071004353540
3737641 26 18049991200228279062
4058900 60 17763732591611668548
4409770 3 18410570703986620431
469060 322 17981875355250035992
474 4 17832711544849594077
484989 97 18412272740024068711
5309563 4 17762620590271678318
6287921 2 16752117615650984578
6443956 14 17619350901352555303
7097593 13 17542211368877024779

> <PUBCHEM_SHAPE_MULTIPOLES>
531.93
7.23
6.06
1.49
8.59
2.62
-0.02
2.48
0.9
-6.95
-0.76
-0.78
-0.49
1.25

> <PUBCHEM_SHAPE_SELFOVERLAP>
1160.805

> <PUBCHEM_SHAPE_VOLUME>
290.1

> <PUBCHEM_COORDINATE_TYPE>
2
5
10

$$$$

