46173769
  -OEChem-07051212523D

 68 71  0     1  0  0  0  0  0999 V2000
    0.2828   -1.7314    1.2729 O   0  0  0  0  0  0  0  0  0  0  0  0
    0.0284   -0.8993   -2.2152 O   0  0  0  0  0  0  0  0  0  0  0  0
   -0.0916   -4.2542    2.4261 O   0  0  0  0  0  0  0  0  0  0  0  0
   -3.8979   -2.3567    0.4559 O   0  0  0  0  0  0  0  0  0  0  0  0
   -6.2616    1.1490   -2.0756 O   0  0  0  0  0  0  0  0  0  0  0  0
    0.3333    4.0732    1.1047 O   0  0  0  0  0  0  0  0  0  0  0  0
    2.2678   -0.9869    0.0697 N   0  0  0  0  0  0  0  0  0  0  0  0
   -2.1882   -1.1752   -0.5803 N   0  0  0  0  0  0  0  0  0  0  0  0
    4.3788   -1.6322    0.3806 N   0  0  0  0  0  0  0  0  0  0  0  0
    2.6415    1.1427   -1.0374 N   0  0  0  0  0  0  0  0  0  0  0  0
   -5.6636   -0.5502   -0.6001 N   0  0  0  0  0  0  0  0  0  0  0  0
    6.7140    0.0858   -0.5361 N   0  0  0  0  0  0  0  0  0  0  0  0
    5.0246    1.5986   -1.3000 N   0  0  0  0  0  0  0  0  0  0  0  0
   -1.1855   -2.2168   -0.5408 C   0  0  1  0  0  0  0  0  0  0  0  0
    0.1499   -1.7471   -1.0903 C   0  0  2  0  0  0  0  0  0  0  0  0
   -0.8309   -2.5707    0.9013 C   0  0  1  0  0  0  0  0  0  0  0  0
    0.7584   -1.0281    0.1078 C   0  0  1  0  0  0  0  0  0  0  0  0
   -0.4094   -4.0258    1.0649 C   0  0  0  0  0  0  0  0  0  0  0  0
    3.0472    0.0055   -0.4529 C   0  0  0  0  0  0  0  0  0  0  0  0
   -3.4702   -1.3338   -0.0747 C   0  0  0  0  0  0  0  0  0  0  0  0
    3.1128   -1.9478    0.5582 C   0  0  0  0  0  0  0  0  0  0  0  0
   -4.3292   -0.0949   -0.3014 C   0  0  2  0  0  0  0  0  0  0  0  0
    4.3524   -0.4139   -0.2502 C   0  0  0  0  0  0  0  0  0  0  0  0
   -4.2903    0.8134    0.9329 C   0  0  0  0  0  0  0  0  0  0  0  0
    5.3616    0.4319   -0.6995 C   0  0  0  0  0  0  0  0  0  0  0  0
   -3.0574    1.6826    0.9792 C   0  0  0  0  0  0  0  0  0  0  0  0
    3.7050    1.8774   -1.4297 C   0  0  0  0  0  0  0  0  0  0  0  0
   -6.5189    0.1144   -1.4658 C   0  0  0  0  0  0  0  0  0  0  0  0
   -1.9036    1.2239    1.6151 C   0  0  0  0  0  0  0  0  0  0  0  0
   -3.0716    2.9447    0.3856 C   0  0  0  0  0  0  0  0  0  0  0  0
    7.7649    0.9669   -1.0129 C   0  0  0  0  0  0  0  0  0  0  0  0
    7.0849   -1.1627    0.1055 C   0  0  0  0  0  0  0  0  0  0  0  0
   -7.8411   -0.5889   -1.6172 C   0  0  0  0  0  0  0  0  0  0  0  0
   -0.7643    2.0274    1.6577 C   0  0  0  0  0  0  0  0  0  0  0  0
   -1.9323    3.7483    0.4280 C   0  0  0  0  0  0  0  0  0  0  0  0
   -0.7787    3.2896    1.0640 C   0  0  0  0  0  0  0  0  0  0  0  0
    1.4781    3.5416    1.7703 C   0  0  0  0  0  0  0  0  0  0  0  0
   -1.5964   -3.0636   -1.1008 H   0  0  0  0  0  0  0  0  0  0  0  0
    0.7559   -2.6157   -1.3761 H   0  0  0  0  0  0  0  0  0  0  0  0
   -1.6281   -2.3556    1.6199 H   0  0  0  0  0  0  0  0  0  0  0  0
    0.4469    0.0178    0.1694 H   0  0  0  0  0  0  0  0  0  0  0  0
   -1.9453   -0.3044   -1.0439 H   0  0  0  0  0  0  0  0  0  0  0  0
    0.4826   -4.2537    0.4731 H   0  0  0  0  0  0  0  0  0  0  0  0
   -1.2194   -4.7021    0.7748 H   0  0  0  0  0  0  0  0  0  0  0  0
    0.9212   -0.5992   -2.4557 H   0  0  0  0  0  0  0  0  0  0  0  0
    2.7545   -2.8535    1.0277 H   0  0  0  0  0  0  0  0  0  0  0  0
   -3.9671    0.4475   -1.1840 H   0  0  0  0  0  0  0  0  0  0  0  0
    0.1716   -5.1869    2.5067 H   0  0  0  0  0  0  0  0  0  0  0  0
   -5.1733    1.4669    0.9471 H   0  0  0  0  0  0  0  0  0  0  0  0
   -4.3578    0.2216    1.8558 H   0  0  0  0  0  0  0  0  0  0  0  0
   -5.9969   -1.3914   -0.1368 H   0  0  0  0  0  0  0  0  0  0  0  0
    3.4718    2.8196   -1.9139 H   0  0  0  0  0  0  0  0  0  0  0  0
   -1.8835    0.2479    2.0919 H   0  0  0  0  0  0  0  0  0  0  0  0
   -3.9635    3.3118   -0.1153 H   0  0  0  0  0  0  0  0  0  0  0  0
    8.1739   -1.2779    0.1536 H   0  0  0  0  0  0  0  0  0  0  0  0
    6.7150   -2.0264   -0.4576 H   0  0  0  0  0  0  0  0  0  0  0  0
    6.7321   -1.1994    1.1417 H   0  0  0  0  0  0  0  0  0  0  0  0
    8.7642    0.5675   -0.8105 H   0  0  0  0  0  0  0  0  0  0  0  0
    7.6993    1.9444   -0.5227 H   0  0  0  0  0  0  0  0  0  0  0  0
    7.6840    1.1106   -2.0959 H   0  0  0  0  0  0  0  0  0  0  0  0
   -7.6975   -1.5220   -2.1688 H   0  0  0  0  0  0  0  0  0  0  0  0
   -8.2670   -0.8079   -0.6339 H   0  0  0  0  0  0  0  0  0  0  0  0
   -8.5379    0.0502   -2.1666 H   0  0  0  0  0  0  0  0  0  0  0  0
    0.0948    1.6122    2.1735 H   0  0  0  0  0  0  0  0  0  0  0  0
   -1.9490    4.7302   -0.0370 H   0  0  0  0  0  0  0  0  0  0  0  0
    1.2849    3.3876    2.8373 H   0  0  0  0  0  0  0  0  0  0  0  0
    1.8450    2.6334    1.2826 H   0  0  0  0  0  0  0  0  0  0  0  0
    2.2738    4.2896    1.6930 H   0  0  0  0  0  0  0  0  0  0  0  0
  1 16  1  0  0  0  0
  1 17  1  0  0  0  0
  2 15  1  0  0  0  0
  2 45  1  0  0  0  0
  3 18  1  0  0  0  0
  3 48  1  0  0  0  0
  4 20  2  0  0  0  0
  5 28  2  0  0  0  0
  6 36  1  0  0  0  0
  6 37  1  0  0  0  0
  7 17  1  0  0  0  0
  7 19  1  0  0  0  0
  7 21  1  0  0  0  0
  8 14  1  0  0  0  0
  8 20  1  0  0  0  0
  8 42  1  0  0  0  0
  9 21  2  0  0  0  0
  9 23  1  0  0  0  0
 10 19  1  0  0  0  0
 10 27  2  0  0  0  0
 11 22  1  0  0  0  0
 11 28  1  0  0  0  0
 11 51  1  0  0  0  0
 12 25  1  0  0  0  0
 12 31  1  0  0  0  0
 12 32  1  0  0  0  0
 13 25  2  0  0  0  0
 13 27  1  0  0  0  0
 14 15  1  0  0  0  0
 14 16  1  0  0  0  0
 14 38  1  0  0  0  0
 15 17  1  0  0  0  0
 15 39  1  0  0  0  0
 16 18  1  0  0  0  0
 16 40  1  0  0  0  0
 17 41  1  0  0  0  0
 18 43  1  0  0  0  0
 18 44  1  0  0  0  0
 19 23  2  0  0  0  0
 20 22  1  0  0  0  0
 21 46  1  0  0  0  0
 22 24  1  0  0  0  0
 22 47  1  0  0  0  0
 23 25  1  0  0  0  0
 24 26  1  0  0  0  0
 24 49  1  0  0  0  0
 24 50  1  0  0  0  0
 26 29  2  0  0  0  0
 26 30  1  0  0  0  0
 27 52  1  0  0  0  0
 28 33  1  0  0  0  0
 29 34  1  0  0  0  0
 29 53  1  0  0  0  0
 30 35  2  0  0  0  0
 30 54  1  0  0  0  0
 31 58  1  0  0  0  0
 31 59  1  0  0  0  0
 31 60  1  0  0  0  0
 32 55  1  0  0  0  0
 32 56  1  0  0  0  0
 32 57  1  0  0  0  0
 33 61  1  0  0  0  0
 33 62  1  0  0  0  0
 33 63  1  0  0  0  0
 34 36  2  0  0  0  0
 34 64  1  0  0  0  0
 35 36  1  0  0  0  0
 35 65  1  0  0  0  0
 37 66  1  0  0  0  0
 37 67  1  0  0  0  0
 37 68  1  0  0  0  0
M  END
> <PUBCHEM_COMPOUND_CID>
46173769

> <PUBCHEM_CONFORMER_RMSD>
1.2

> <PUBCHEM_CONFORMER_DIVERSEORDER>
1
68
16
34
74
31
59
71
48
9
35
33
73
29
36
37
23
27
45
46
20
62
13
52
76
5
39
69
72
28
65
41
44
56
53
67
14
61
3
47
30
19
63
50
26
77
18
21
51
79
15
54
10
38
64
60
22
58
2
42
70
11
24
55
57
40
66
4
12
25
49
7
8
78
43
32
75
6
17

> <PUBCHEM_MMFF94_PARTIAL_CHARGES>
47
1 -0.56
10 -0.57
11 -0.73
12 -0.84
13 -0.62
14 0.3
15 0.28
16 0.28
17 0.54
18 0.28
19 0.11
2 -0.68
20 0.57
21 0.04
22 0.36
23 0.23
24 0.14
25 0.41
26 -0.14
27 0.47
28 0.57
29 -0.15
3 -0.68
30 -0.15
31 0.37
32 0.37
33 0.06
34 -0.15
35 -0.15
36 0.08
37 0.28
4 -0.57
42 0.37
45 0.4
46 0.15
48 0.4
5 -0.57
51 0.37
52 0.15
53 0.15
54 0.15
6 -0.36
64 0.15
65 0.15
7 0.05
8 -0.73
9 -0.57

> <PUBCHEM_EFFECTIVE_ROTOR_COUNT>
12

> <PUBCHEM_PHARMACOPHORE_FEATURES>
17
1 1 acceptor
1 11 donor
1 2 acceptor
1 2 donor
1 3 acceptor
1 3 donor
1 4 acceptor
1 5 acceptor
1 6 acceptor
1 8 donor
3 10 13 27 cation
3 12 13 25 cation
3 7 9 21 cation
5 1 14 15 16 17 rings
5 7 9 19 21 23 rings
6 10 13 19 23 25 27 rings
6 26 29 30 34 35 36 rings

> <PUBCHEM_HEAVY_ATOM_COUNT>
37

> <PUBCHEM_ATOM_DEF_STEREO_COUNT>
5

> <PUBCHEM_ATOM_UDEF_STEREO_COUNT>
0

> <PUBCHEM_BOND_DEF_STEREO_COUNT>
0

> <PUBCHEM_BOND_UDEF_STEREO_COUNT>
0

> <PUBCHEM_ISOTOPIC_ATOM_COUNT>
0

> <PUBCHEM_COMPONENT_COUNT>
1

> <PUBCHEM_CACTVS_TAUTO_COUNT>
4

> <PUBCHEM_CONFORMER_ID>
02C08E4900000001

> <PUBCHEM_MMFF94_ENERGY>
106.916

> <PUBCHEM_FEATURE_SELFOVERLAP>
86.518

> <PUBCHEM_SHAPE_FINGERPRINT>
10032420 55 18338244846391903809
10483366 6 18409733963301834561
10670039 82 18261106413632813212
11513181 2 17899684941148993870
12107698 1 17749111075542473236
12788726 201 18408882949707014274
13911987 19 18411422817588818007
14068700 675 17676492735623773129
14394314 77 18262229023532384889
14767858 380 18408326592554441053
14931854 50 18409447007245059317
15131766 46 16054038968288388756
15297060 5 17896029017815799312
15351339 4 18340212989105397696
15420108 30 16823331399497818906
15968369 26 17905060161281873240
16112460 7 18059575841310843626
17492 54 18409446964801749121
19319366 153 18343028808821300059
2132832 1 17837230525134991051
21857420 4 14860114432644836965
23559900 14 18189903011123003673
3633792 109 18201442522794415631
4093350 32 15266796506374584297
463206 1 18265316348998222712
484989 97 18267304223662184651
6371009 1 18341611538374878808
6669772 16 18118981195532633153

> <PUBCHEM_SHAPE_MULTIPOLES>
691.36
16.08
4.71
1.78
6.24
1.27
0
0.38
-10.27
-1.3
3.16
-1.1
-0.08
-1.35

> <PUBCHEM_SHAPE_SELFOVERLAP>
1473.293

> <PUBCHEM_SHAPE_VOLUME>
380.9

> <PUBCHEM_COORDINATE_TYPE>
2
5
10

$$$$

