31101
  -OEChem-07051212522D

 83 89  0     1  0  0  0  0  0999 V2000
    9.3421   -4.0982    0.0000 Br  0  0  0  0  0  0  0  0  0  0  0  0
    2.9606    2.1676    0.0000 O   0  0  0  0  0  0  0  0  0  0  0  0
    2.3641    3.1790    0.0000 O   0  0  0  0  0  0  0  0  0  0  0  0
    5.4763    1.6007    0.0000 O   0  0  0  0  0  0  0  0  0  0  0  0
    5.1130    5.5122    0.0000 O   0  0  0  0  0  0  0  0  0  0  0  0
    3.3456   -0.8615    0.0000 O   0  0  0  0  0  0  0  0  0  0  0  0
    4.3540    2.9776    0.0000 N   0  0  0  0  0  0  0  0  0  0  0  0
    3.5334    4.8016    0.0000 N   0  0  0  0  0  0  0  0  0  0  0  0
    4.2058    0.6418    0.0000 N   0  0  0  0  0  0  0  0  0  0  0  0
    6.8777   -0.8618    0.0000 N   0  0  3  0  0  0  0  0  0  0  0  0
    7.8657   -5.0519    0.0000 N   0  0  0  0  0  0  0  0  0  0  0  0
    2.9488    3.9903    0.0000 C   0  0  2  0  0  0  0  0  0  0  0  0
    3.3590    3.0783    0.0000 C   0  0  2  0  0  0  0  0  0  0  0  0
    4.9386    3.7889    0.0000 C   0  0  2  0  0  0  0  0  0  0  0  0
    2.0030    4.2963    0.0000 C   0  0  0  0  0  0  0  0  0  0  0  0
    3.7024    1.5059    0.0000 C   0  0  1  0  0  0  0  0  0  0  0  0
    2.9440    5.6020    0.0000 C   0  0  0  0  0  0  0  0  0  0  0  0
    2.0000    5.2904    0.0000 C   0  0  0  0  0  0  0  0  0  0  0  0
    4.5619    2.0055    0.0000 C   0  0  0  0  0  0  0  0  0  0  0  0
    4.5284    4.7009    0.0000 C   0  0  0  0  0  0  0  0  0  0  0  0
    5.9335    3.6882    0.0000 C   0  0  0  0  0  0  0  0  0  0  0  0
    3.0362    0.7603    0.0000 C   0  0  0  0  0  0  0  0  0  0  0  0
    6.5182    4.4995    0.0000 C   0  0  0  0  0  0  0  0  0  0  0  0
    2.0573    0.9644    0.0000 C   0  0  0  0  0  0  0  0  0  0  0  0
    3.3489   -0.1897    0.0000 C   0  0  0  0  0  0  0  0  0  0  0  0
    4.2096   -0.3582    0.0000 C   0  0  0  0  0  0  0  0  0  0  0  0
    5.0776   -0.8548    0.0000 C   0  0  1  0  0  0  0  0  0  0  0  0
    6.8616   -1.9033    0.0000 C   0  0  1  0  0  0  0  0  0  0  0  0
    5.9797   -0.3340    0.0000 C   0  0  0  0  0  0  0  0  0  0  0  0
    7.5131    4.3988    0.0000 C   0  0  0  0  0  0  0  0  0  0  0  0
    6.1079    5.4115    0.0000 C   0  0  0  0  0  0  0  0  0  0  0  0
    5.9956   -2.4033    0.0000 C   0  0  0  0  0  0  0  0  0  0  0  0
    5.0856   -1.8964    0.0000 C   0  0  0  0  0  0  0  0  0  0  0  0
    7.7277   -2.4033    0.0000 C   0  0  0  0  0  0  0  0  0  0  0  0
    5.9956   -3.4033    0.0000 C   0  0  0  0  0  0  0  0  0  0  0  0
    7.7277   -3.4033    0.0000 C   0  0  0  0  0  0  0  0  0  0  0  0
    6.8616   -3.9033    0.0000 C   0  0  0  0  0  0  0  0  0  0  0  0
    7.7494   -0.3718    0.0000 C   0  0  0  0  0  0  0  0  0  0  0  0
    6.8777   -4.9448    0.0000 C   0  0  0  0  0  0  0  0  0  0  0  0
    8.3456   -4.1816    0.0000 C   0  0  0  0  0  0  0  0  0  0  0  0
    5.0856   -3.9101    0.0000 C   0  0  0  0  0  0  0  0  0  0  0  0
    5.9797   -5.4725    0.0000 C   0  0  0  0  0  0  0  0  0  0  0  0
    5.0776   -4.9517    0.0000 C   0  0  0  0  0  0  0  0  0  0  0  0
    2.3816    3.3572    0.0000 H   0  0  0  0  0  0  0  0  0  0  0  0
    5.1930    3.2235    0.0000 H   0  0  0  0  0  0  0  0  0  0  0  0
    1.3862    4.3596    0.0000 H   0  0  0  0  0  0  0  0  0  0  0  0
    1.8752    3.6896    0.0000 H   0  0  0  0  0  0  0  0  0  0  0  0
    3.4791    5.9152    0.0000 H   0  0  0  0  0  0  0  0  0  0  0  0
    2.6888    6.1671    0.0000 H   0  0  0  0  0  0  0  0  0  0  0  0
    1.8686    5.8963    0.0000 H   0  0  0  0  0  0  0  0  0  0  0  0
    1.3836    5.2234    0.0000 H   0  0  0  0  0  0  0  0  0  0  0  0
    5.7649    3.0916    0.0000 H   0  0  0  0  0  0  0  0  0  0  0  0
    6.4918    3.4186    0.0000 H   0  0  0  0  0  0  0  0  0  0  0  0
    2.8423    1.3492    0.0000 H   0  0  0  0  0  0  0  0  0  0  0  0
    4.7415    0.9539    0.0000 H   0  0  0  0  0  0  0  0  0  0  0  0
    2.0016    2.6760    0.0000 H   0  0  0  0  0  0  0  0  0  0  0  0
    6.7726    3.9341    0.0000 H   0  0  0  0  0  0  0  0  0  0  0  0
    2.1838    1.5713    0.0000 H   0  0  0  0  0  0  0  0  0  0  0  0
    1.4503    1.0910    0.0000 H   0  0  0  0  0  0  0  0  0  0  0  0
    1.9307    0.3575    0.0000 H   0  0  0  0  0  0  0  0  0  0  0  0
    2.7600   -0.3836    0.0000 H   0  0  0  0  0  0  0  0  0  0  0  0
    3.5428   -0.7786    0.0000 H   0  0  0  0  0  0  0  0  0  0  0  0
    3.9378    0.0042    0.0000 H   0  0  0  0  0  0  0  0  0  0  0  0
    4.5424   -1.1679    0.0000 H   0  0  0  0  0  0  0  0  0  0  0  0
    7.6010   -1.4840    0.0000 H   0  0  0  0  0  0  0  0  0  0  0  0
    6.3806    0.1389    0.0000 H   0  0  0  0  0  0  0  0  0  0  0  0
    5.5824    0.1420    0.0000 H   0  0  0  0  0  0  0  0  0  0  0  0
    6.6734    5.6658    0.0000 H   0  0  0  0  0  0  0  0  0  0  0  0
    5.8536    5.9769    0.0000 H   0  0  0  0  0  0  0  0  0  0  0  0
    5.5425    5.1571    0.0000 H   0  0  0  0  0  0  0  0  0  0  0  0
    7.4507    3.7819    0.0000 H   0  0  0  0  0  0  0  0  0  0  0  0
    8.1300    4.3364    0.0000 H   0  0  0  0  0  0  0  0  0  0  0  0
    7.5756    5.0156    0.0000 H   0  0  0  0  0  0  0  0  0  0  0  0
    4.5523   -2.2126    0.0000 H   0  0  0  0  0  0  0  0  0  0  0  0
    8.3382   -2.5109    0.0000 H   0  0  0  0  0  0  0  0  0  0  0  0
    7.9397   -1.8207    0.0000 H   0  0  0  0  0  0  0  0  0  0  0  0
    8.0532   -0.9123    0.0000 H   0  0  0  0  0  0  0  0  0  0  0  0
    8.2899   -0.0680    0.0000 H   0  0  0  0  0  0  0  0  0  0  0  0
    7.4457    0.1687    0.0000 H   0  0  0  0  0  0  0  0  0  0  0  0
    4.5523   -3.5939    0.0000 H   0  0  0  0  0  0  0  0  0  0  0  0
    8.1517   -5.6020    0.0000 H   0  0  0  0  0  0  0  0  0  0  0  0
    5.9821   -6.0925    0.0000 H   0  0  0  0  0  0  0  0  0  0  0  0
    4.5395   -5.2596    0.0000 H   0  0  0  0  0  0  0  0  0  0  0  0
  1 40  1  0  0  0  0
  2 13  1  0  0  0  0
  2 16  1  0  0  0  0
 13  3  1  6  0  0  0
  3 56  1  0  0  0  0
  4 19  2  0  0  0  0
  5 20  2  0  0  0  0
  6 26  2  0  0  0  0
  7 13  1  0  0  0  0
  7 14  1  0  0  0  0
  7 19  1  0  0  0  0
  8 12  1  0  0  0  0
  8 17  1  0  0  0  0
  8 20  1  0  0  0  0
 16  9  1  6  0  0  0
  9 26  1  0  0  0  0
  9 55  1  0  0  0  0
 10 28  1  0  0  0  0
 10 29  1  0  0  0  0
 10 38  1  0  0  0  0
 11 39  1  0  0  0  0
 11 40  1  0  0  0  0
 11 81  1  0  0  0  0
 12 13  1  0  0  0  0
 12 15  1  0  0  0  0
 12 44  1  1  0  0  0
 14 20  1  0  0  0  0
 14 21  1  6  0  0  0
 14 45  1  0  0  0  0
 15 18  1  0  0  0  0
 15 46  1  0  0  0  0
 15 47  1  0  0  0  0
 16 19  1  0  0  0  0
 16 22  1  0  0  0  0
 17 18  1  0  0  0  0
 17 48  1  0  0  0  0
 17 49  1  0  0  0  0
 18 50  1  0  0  0  0
 18 51  1  0  0  0  0
 21 23  1  0  0  0  0
 21 52  1  0  0  0  0
 21 53  1  0  0  0  0
 22 24  1  0  0  0  0
 22 25  1  0  0  0  0
 22 54  1  0  0  0  0
 23 30  1  0  0  0  0
 23 31  1  0  0  0  0
 23 57  1  0  0  0  0
 24 58  1  0  0  0  0
 24 59  1  0  0  0  0
 24 60  1  0  0  0  0
 25 61  1  0  0  0  0
 25 62  1  0  0  0  0
 25 63  1  0  0  0  0
 27 26  1  1  0  0  0
 27 29  1  0  0  0  0
 27 33  1  0  0  0  0
 27 64  1  0  0  0  0
 28 32  1  0  0  0  0
 28 34  1  0  0  0  0
 28 65  1  1  0  0  0
 29 66  1  0  0  0  0
 29 67  1  0  0  0  0
 30 71  1  0  0  0  0
 30 72  1  0  0  0  0
 30 73  1  0  0  0  0
 31 68  1  0  0  0  0
 31 69  1  0  0  0  0
 31 70  1  0  0  0  0
 32 33  2  0  0  0  0
 32 35  1  0  0  0  0
 33 74  1  0  0  0  0
 34 36  1  0  0  0  0
 34 75  1  0  0  0  0
 34 76  1  0  0  0  0
 35 37  2  0  0  0  0
 35 41  1  0  0  0  0
 36 37  1  0  0  0  0
 36 40  2  0  0  0  0
 37 39  1  0  0  0  0
 38 77  1  0  0  0  0
 38 78  1  0  0  0  0
 38 79  1  0  0  0  0
 39 42  2  0  0  0  0
 41 43  2  0  0  0  0
 41 80  1  0  0  0  0
 42 43  1  0  0  0  0
 42 82  1  0  0  0  0
 43 83  1  0  0  0  0
M  END
> <PUBCHEM_COMPOUND_CID>
31101

> <PUBCHEM_COMPOUND_CANONICALIZED>
1

> <PUBCHEM_CACTVS_COMPLEXITY>
1230

> <PUBCHEM_CACTVS_HBOND_ACCEPTOR>
6

> <PUBCHEM_CACTVS_HBOND_DONOR>
3

> <PUBCHEM_CACTVS_ROTATABLE_BOND>
5

> <PUBCHEM_CACTVS_SUBSKEYS>
AAADcfB/uAAAEAAAAAAAAAAAAAAAAWLFgAA8YIEAAAAAAFjB8AAAHgBQCAABPSzBngQyyPPJlgCoAyVyVAKCgCAhAiQImSH4ZLkaYPrA0bWfYAhklgDcyheYkMIOgAAAQAASAAAQAASAACQAAAAAAAAAAA==

> <PUBCHEM_IUPAC_INCHI>
InChI=1S/C32H40BrN5O5/c1-16(2)12-24-29(40)37-11-7-10-25(37)32(42)38(24)30(41)31(43-32,17(3)4)35-28(39)18-13-20-19-8-6-9-22-26(19)21(27(33)34-22)14-23(20)36(5)15-18/h6,8-9,13,16-18,23-25,34,42H,7,10-12,14-15H2,1-5H3,(H,35,39)/t18-,23-,24+,25+,31-,32+/m1/s1

> <PUBCHEM_IUPAC_INCHIKEY>
OZVBMTJYIDMWIL-AYFBDAFISA-N

> <PUBCHEM_XLOGP3_AA>
3.8

> <PUBCHEM_EXACT_MASS>
653.221282

> <PUBCHEM_MOLECULAR_FORMULA>
C32H40BrN5O5

> <PUBCHEM_MOLECULAR_WEIGHT>
654.5945

> <PUBCHEM_OPENEYE_CAN_SMILES>
CC(C)CC1C(=O)N2CCCC2C3(N1C(=O)C(O3)(C(C)C)NC(=O)C4CN(C5CC6=C(NC7=CC=CC(=C67)C5=C4)Br)C)O

> <PUBCHEM_OPENEYE_ISO_SMILES>
CC(C)C[C@H]1C(=O)N2CCC[C@H]2[C@]3(N1C(=O)[C@](O3)(C(C)C)NC(=O)[C@H]4CN([C@@H]5CC6=C(NC7=CC=CC(=C67)C5=C4)Br)C)O

> <PUBCHEM_CACTVS_TPSA>
118

> <PUBCHEM_MONOISOTOPIC_WEIGHT>
653.221282

> <PUBCHEM_TOTAL_CHARGE>
0

> <PUBCHEM_HEAVY_ATOM_COUNT>
43

> <PUBCHEM_ATOM_DEF_STEREO_COUNT>
6

> <PUBCHEM_ATOM_UDEF_STEREO_COUNT>
0

> <PUBCHEM_BOND_DEF_STEREO_COUNT>
0

> <PUBCHEM_BOND_UDEF_STEREO_COUNT>
0

> <PUBCHEM_ISOTOPIC_ATOM_COUNT>
0

> <PUBCHEM_COMPONENT_COUNT>
1

> <PUBCHEM_CACTVS_TAUTO_COUNT>
8

> <PUBCHEM_COORDINATE_TYPE>
1
5
255

> <PUBCHEM_BONDANNOTATIONS>
11  39  8
11  40  8
12  44  5
14  21  6
27  26  5
28  65  5
13  3  6
35  37  8
35  41  8
36  37  8
36  40  8
37  39  8
39  42  8
41  43  8
42  43  8
16  9  6

$$$$

