14346
  -OEChem-06241222433D

 26 27  0     0  0  0  0  0  0999 V2000
   -0.5628    2.3903   -0.0007 O   0  0  0  0  0  0  0  0  0  0  0  0
    4.7593   -1.0171    0.0002 N   0  0  0  0  0  0  0  0  0  0  0  0
    0.9174    0.5792   -0.0001 C   0  0  0  0  0  0  0  0  0  0  0  0
   -1.6537    0.3213    0.0002 C   0  0  0  0  0  0  0  0  0  0  0  0
   -0.4617    1.1544    0.0000 C   0  0  0  0  0  0  0  0  0  0  0  0
    1.5242    0.3260   -1.2081 C   0  0  0  0  0  0  0  0  0  0  0  0
    1.5250    0.3275    1.2079 C   0  0  0  0  0  0  0  0  0  0  0  0
    3.4565   -0.4769   -0.0001 C   0  0  0  0  0  0  0  0  0  0  0  0
    2.8121   -0.2098   -1.2080 C   0  0  0  0  0  0  0  0  0  0  0  0
    2.8128   -0.2082    1.2078 C   0  0  0  0  0  0  0  0  0  0  0  0
   -1.5336   -1.0683    0.0006 C   0  0  0  0  0  0  0  0  0  0  0  0
   -2.9172    0.9121   -0.0002 C   0  0  0  0  0  0  0  0  0  0  0  0
   -2.6770   -1.8672    0.0004 C   0  0  0  0  0  0  0  0  0  0  0  0
   -4.0607    0.1133   -0.0001 C   0  0  0  0  0  0  0  0  0  0  0  0
   -3.9405   -1.2765    0.0002 C   0  0  0  0  0  0  0  0  0  0  0  0
    1.0262    0.5330   -2.1504 H   0  0  0  0  0  0  0  0  0  0  0  0
    1.0275    0.5357    2.1501 H   0  0  0  0  0  0  0  0  0  0  0  0
    3.3031   -0.4145   -2.1560 H   0  0  0  0  0  0  0  0  0  0  0  0
    3.3044   -0.4115    2.1558 H   0  0  0  0  0  0  0  0  0  0  0  0
   -0.5706   -1.5698    0.0009 H   0  0  0  0  0  0  0  0  0  0  0  0
   -3.0384    1.9921   -0.0005 H   0  0  0  0  0  0  0  0  0  0  0  0
   -2.5841   -2.9494    0.0007 H   0  0  0  0  0  0  0  0  0  0  0  0
   -5.0447    0.5730   -0.0004 H   0  0  0  0  0  0  0  0  0  0  0  0
   -4.8308   -1.8985    0.0001 H   0  0  0  0  0  0  0  0  0  0  0  0
    5.2259   -1.2130    0.8758 H   0  0  0  0  0  0  0  0  0  0  0  0
    5.2257   -1.2144   -0.8752 H   0  0  0  0  0  0  0  0  0  0  0  0
  1  5  2  0  0  0  0
  2  8  1  0  0  0  0
  2 25  1  0  0  0  0
  2 26  1  0  0  0  0
  3  5  1  0  0  0  0
  3  6  2  0  0  0  0
  3  7  1  0  0  0  0
  4  5  1  0  0  0  0
  4 11  2  0  0  0  0
  4 12  1  0  0  0  0
  6  9  1  0  0  0  0
  6 16  1  0  0  0  0
  7 10  2  0  0  0  0
  7 17  1  0  0  0  0
  8  9  2  0  0  0  0
  8 10  1  0  0  0  0
  9 18  1  0  0  0  0
 10 19  1  0  0  0  0
 11 13  1  0  0  0  0
 11 20  1  0  0  0  0
 12 14  2  0  0  0  0
 12 21  1  0  0  0  0
 13 15  2  0  0  0  0
 13 22  1  0  0  0  0
 14 15  1  0  0  0  0
 14 23  1  0  0  0  0
 15 24  1  0  0  0  0
M  END
> <PUBCHEM_COMPOUND_CID>
14346

> <PUBCHEM_CONFORMER_RMSD>
0.6

> <PUBCHEM_CONFORMER_DIVERSEORDER>
1

> <PUBCHEM_MMFF94_PARTIAL_CHARGES>
26
1 -0.57
10 -0.15
11 -0.15
12 -0.15
13 -0.15
14 -0.15
15 -0.15
16 0.15
17 0.15
18 0.15
19 0.15
2 -0.9
20 0.15
21 0.15
22 0.15
23 0.15
24 0.15
25 0.4
26 0.4
3 0.09
4 0.09
5 0.4
6 -0.15
7 -0.15
8 0.1
9 -0.15

> <PUBCHEM_EFFECTIVE_ROTOR_COUNT>
2

> <PUBCHEM_PHARMACOPHORE_FEATURES>
5
1 1 acceptor
1 2 cation
1 2 donor
6 3 6 7 8 9 10 rings
6 4 11 12 13 14 15 rings

> <PUBCHEM_HEAVY_ATOM_COUNT>
15

> <PUBCHEM_ATOM_DEF_STEREO_COUNT>
0

> <PUBCHEM_ATOM_UDEF_STEREO_COUNT>
0

> <PUBCHEM_BOND_DEF_STEREO_COUNT>
0

> <PUBCHEM_BOND_UDEF_STEREO_COUNT>
0

> <PUBCHEM_ISOTOPIC_ATOM_COUNT>
0

> <PUBCHEM_COMPONENT_COUNT>
1

> <PUBCHEM_CACTVS_TAUTO_COUNT>
4

> <PUBCHEM_CONFORMER_ID>
0000380A00000001

> <PUBCHEM_MMFF94_ENERGY>
60.3563

> <PUBCHEM_FEATURE_SELFOVERLAP>
25.371

> <PUBCHEM_SHAPE_FINGERPRINT>
10465860 250 18186523232627053200
10465860 71 18341035346551695373
10618630 7 18410573976593295070
10751810 167 18060415803125726479
11031198 65 13686300179627094730
11046707 91 18412545418132309571
11471102 22 16370723746945760640
11543360 7 15625940885686991115
11578080 2 17559142945606323140
12032990 46 18409446960327225875
12236239 1 17703788145472578652
12251169 10 15791734091896527132
12346177 29 18260277321941740927
12346645 44 8862950471992386653
13288520 33 18410572920527264390
13296908 3 18336268946576089209
14115302 16 18060696169642211167
14386348 63 17967811660684386462
15375358 24 17967254208352180087
15375462 189 18060138743148543225
15653759 3 18113057138197338986
16752209 62 18200327618562876589
16945 1 18410855490662665121
17804303 29 18334293150225034217
18175812 5 17822015289307022900
18186145 218 15770056103363303365
18915474 69 18131066000557533230
19049666 15 17387683040690938205
19422 9 18060412487257967223
19862831 5 17561362876672201378
200 152 17060338548014881896
20279233 1 17676203576375115119
20281407 28 18260541234248428214
20361792 2 18200881681938727925
20645476 183 17489869323847388163
21119208 17 17275103937711841486
21713013 43 16414916327765430323
22485316 2 18411139129980944710
22646028 28 18272652341822387106
232386 152 18340769247647503495
23402539 116 18410580620912964004
23402655 69 14979964682858412583
23557571 272 18187641466402900836
23559900 14 18408326609861046992
23598291 2 17846205661809715901
25 1 13470694762556092184
26918003 58 16805323292820103803
465052 167 18127676151118700627
474 4 17058355978369039804
568465 68 17240196612689066894
5902787 121 18339364058875988489
69090 78 17240490186968354999
7364860 26 18046625599257044441
74978 22 18270680836343919347
77492 1 17704069620391357952
81228 2 18116134744374563985

> <PUBCHEM_SHAPE_MULTIPOLES>
297.84
7.76
1.59
1.01
0.88
0.23
0
-3.21
0
-1.06
0
0.88
0.01
0

> <PUBCHEM_SHAPE_SELFOVERLAP>
648.549

> <PUBCHEM_SHAPE_VOLUME>
162.4

> <PUBCHEM_COORDINATE_TYPE>
2
5
10

$$$$

