25164057
  -OEChem-07051213113D

 40 43  0     0  0  0  0  0  0999 V2000
   -0.7594   -0.3538    2.1020 O   0  0  0  0  0  0  0  0  0  0  0  0
    0.5413   -3.1940    0.0745 O   0  0  0  0  0  0  0  0  0  0  0  0
    5.0630   -1.9518    0.5145 O   0  0  0  0  0  0  0  0  0  0  0  0
   -0.1715   -0.7618   -2.6319 O   0  0  0  0  0  0  0  0  0  0  0  0
    5.7920    0.5792    0.3917 O   0  0  0  0  0  0  0  0  0  0  0  0
   -3.0295    0.1467    2.9850 O   0  0  0  0  0  0  0  0  0  0  0  0
   -2.7437   -0.2761   -3.0031 O   0  0  0  0  0  0  0  0  0  0  0  0
    0.5444    1.9493   -0.3646 O   0  0  0  0  0  0  0  0  0  0  0  0
   -6.6891    0.6872    0.0451 O   0  0  0  0  0  0  0  0  0  0  0  0
    2.4329    3.7808   -0.2925 O   0  0  0  0  0  0  0  0  0  0  0  0
    1.0989   -0.8544   -0.0578 C   0  0  0  0  0  0  0  0  0  0  0  0
   -0.3355   -0.5831   -0.2547 C   0  0  0  0  0  0  0  0  0  0  0  0
    2.0816    0.1420   -0.0238 C   0  0  0  0  0  0  0  0  0  0  0  0
    3.4359   -0.1747    0.1675 C   0  0  0  0  0  0  0  0  0  0  0  0
   -2.6126   -0.0820    0.5940 C   0  0  0  0  0  0  0  0  0  0  0  0
   -1.1710   -0.3545    0.7801 C   0  0  0  0  0  0  0  0  0  0  0  0
   -3.1791   -0.0491   -0.6870 C   0  0  0  0  0  0  0  0  0  0  0  0
    1.4639   -2.1890    0.1001 C   0  0  0  0  0  0  0  0  0  0  0  0
   -0.8656   -0.5634   -1.6444 C   0  0  0  0  0  0  0  0  0  0  0  0
    3.7796   -1.5270    0.3247 C   0  0  0  0  0  0  0  0  0  0  0  0
   -2.3232   -0.2895   -1.8569 C   0  0  0  0  0  0  0  0  0  0  0  0
    1.6862    1.5521   -0.1921 C   0  0  0  0  0  0  0  0  0  0  0  0
    2.8013   -2.5250    0.2908 C   0  0  0  0  0  0  0  0  0  0  0  0
    4.4546    0.8902    0.2008 C   0  0  0  0  0  0  0  0  0  0  0  0
   -3.4624    0.1525    1.6890 C   0  0  0  0  0  0  0  0  0  0  0  0
   -4.5428    0.2077   -0.8779 C   0  0  0  0  0  0  0  0  0  0  0  0
    2.7509    2.6096   -0.1534 C   0  0  0  0  0  0  0  0  0  0  0  0
    4.1466    2.1854    0.0527 C   0  0  0  0  0  0  0  0  0  0  0  0
   -4.8242    0.4095    1.5047 C   0  0  0  0  0  0  0  0  0  0  0  0
   -5.3635    0.4370    0.2226 C   0  0  0  0  0  0  0  0  0  0  0  0
    3.0827   -3.5687    0.4136 H   0  0  0  0  0  0  0  0  0  0  0  0
   -4.9667    0.2296   -1.8788 H   0  0  0  0  0  0  0  0  0  0  0  0
    4.8974    2.9679    0.0777 H   0  0  0  0  0  0  0  0  0  0  0  0
   -5.4751    0.5901    2.3572 H   0  0  0  0  0  0  0  0  0  0  0  0
    0.1936   -0.5321    2.1475 H   0  0  0  0  0  0  0  0  0  0  0  0
    0.9907   -4.0469    0.2020 H   0  0  0  0  0  0  0  0  0  0  0  0
    5.0826   -2.9201    0.5995 H   0  0  0  0  0  0  0  0  0  0  0  0
    6.3151    1.3989    0.3856 H   0  0  0  0  0  0  0  0  0  0  0  0
   -3.7730    0.3298    3.5841 H   0  0  0  0  0  0  0  0  0  0  0  0
   -6.8897    0.6682   -0.9064 H   0  0  0  0  0  0  0  0  0  0  0  0
  1 16  1  0  0  0  0
  1 35  1  0  0  0  0
  2 18  1  0  0  0  0
  2 36  1  0  0  0  0
  3 20  1  0  0  0  0
  3 37  1  0  0  0  0
  4 19  2  0  0  0  0
  5 24  1  0  0  0  0
  5 38  1  0  0  0  0
  6 25  1  0  0  0  0
  6 39  1  0  0  0  0
  7 21  2  0  0  0  0
  8 22  2  0  0  0  0
  9 30  1  0  0  0  0
  9 40  1  0  0  0  0
 10 27  2  0  0  0  0
 11 12  1  0  0  0  0
 11 13  1  0  0  0  0
 11 18  2  0  0  0  0
 12 16  2  0  0  0  0
 12 19  1  0  0  0  0
 13 14  2  0  0  0  0
 13 22  1  0  0  0  0
 14 20  1  0  0  0  0
 14 24  1  0  0  0  0
 15 16  1  0  0  0  0
 15 17  2  0  0  0  0
 15 25  1  0  0  0  0
 17 21  1  0  0  0  0
 17 26  1  0  0  0  0
 18 23  1  0  0  0  0
 19 21  1  0  0  0  0
 20 23  2  0  0  0  0
 22 27  1  0  0  0  0
 23 31  1  0  0  0  0
 24 28  2  0  0  0  0
 25 29  2  0  0  0  0
 26 30  2  0  0  0  0
 26 32  1  0  0  0  0
 27 28  1  0  0  0  0
 28 33  1  0  0  0  0
 29 30  1  0  0  0  0
 29 34  1  0  0  0  0
M  END
> <PUBCHEM_COMPOUND_CID>
25164057

> <PUBCHEM_CONFORMER_RMSD>
0.6

> <PUBCHEM_CONFORMER_DIVERSEORDER>
2
1

> <PUBCHEM_MMFF94_PARTIAL_CHARGES>
40
1 -0.53
10 -0.57
11 0.03
12 -0.01
13 0.09
14 0.03
15 0.03
16 0.05
17 0.09
18 0.08
19 0.56
2 -0.53
20 0.08
21 0.48
22 0.48
23 -0.15
24 0.05
25 0.08
26 -0.15
27 0.56
28 -0.14
29 -0.15
3 -0.53
30 0.08
31 0.15
32 0.15
33 0.15
34 0.15
35 0.45
36 0.45
37 0.45
38 0.45
39 0.45
4 -0.57
40 0.45
5 -0.53
6 -0.53
7 -0.57
8 -0.57
9 -0.53

> <PUBCHEM_EFFECTIVE_ROTOR_COUNT>
1

> <PUBCHEM_PHARMACOPHORE_FEATURES>
14
1 1 donor
1 10 acceptor
1 2 donor
1 3 donor
1 4 acceptor
1 5 donor
1 6 donor
1 7 acceptor
1 8 acceptor
1 9 donor
6 11 13 14 18 20 23 rings
6 12 15 16 17 19 21 rings
6 13 14 22 24 27 28 rings
6 15 17 25 26 29 30 rings

> <PUBCHEM_HEAVY_ATOM_COUNT>
30

> <PUBCHEM_ATOM_DEF_STEREO_COUNT>
0

> <PUBCHEM_ATOM_UDEF_STEREO_COUNT>
0

> <PUBCHEM_BOND_DEF_STEREO_COUNT>
0

> <PUBCHEM_BOND_UDEF_STEREO_COUNT>
0

> <PUBCHEM_ISOTOPIC_ATOM_COUNT>
0

> <PUBCHEM_COMPONENT_COUNT>
1

> <PUBCHEM_CACTVS_TAUTO_COUNT>
998

> <PUBCHEM_CONFORMER_ID>
017FF91900000002

> <PUBCHEM_MMFF94_ENERGY>
94.6153

> <PUBCHEM_FEATURE_SELFOVERLAP>
71.134

> <PUBCHEM_SHAPE_FINGERPRINT>
10165383 225 17987503845825013852
10369192 42 17128720299026002748
10411042 1 17979356688139383082
11045977 3 17989199348151730139
11370993 144 18131067156198927209
11640471 11 17822281353867313505
12107698 1 18339364179773804841
12236239 1 17822297889517783342
12403259 415 17561090236459088759
12422481 6 17971186169281286056
12633257 1 17988648458519048330
12788726 201 17095516323313496953
13140716 1 18124881153921518808
13402501 40 17704071810988066425
13583140 156 18337665313864586547
13617811 41 16298103199240044177
13782708 43 17489871569830558147
13947920 75 16877935015244175616
13965767 371 17027100440092463081
14739800 52 16589170242234244432
151778 21 17843394095072759804
1813 80 17899123091108523030
18785283 64 17987791900433399156
20511986 3 17749402437560325200
20600515 1 15841262645700513325
20715895 44 17464808357701562873
20739085 24 18337382842539878432
21033648 29 17560814220676201997
21033650 10 15575531627179410626
21756936 100 17970900064862528160
21792961 116 17703230728587339858
22122407 14 18336253618344940177
23557571 272 16630243726823040215
23559900 14 16343407471154028215
2838139 119 18265621056223339557
335352 9 18411135810867907108
350125 39 17981324487355576810
4340502 62 18410845552414550907
4409770 3 15304456192359267231
474 4 18335419041294074394
513202 73 17686612850988756422
5265222 85 16343693319604782938
602551 16 15913326892273524017
6034566 193 17838611159293884940
6823239 73 16415185776405918172
8272917 22 18409445907717483527

> <PUBCHEM_SHAPE_MULTIPOLES>
558.69
11.25
2.59
1.88
5.5
0.62
0.37
2.7
-2.39
-4.45
0.05
2.75
-0.26
-0.67

> <PUBCHEM_SHAPE_SELFOVERLAP>
1278.249

> <PUBCHEM_SHAPE_VOLUME>
284.7

> <PUBCHEM_COORDINATE_TYPE>
2
5
10

$$$$

