442388
  -OEChem-07051212582D

 37 39  0     1  0  0  0  0  0999 V2000
    4.7908    2.2924    0.0000 O   0  0  0  0  0  0  0  0  0  0  0  0
    5.0402   -2.3955    0.0000 O   0  0  0  0  0  0  0  0  0  0  0  0
    3.7155   -0.1794    0.0000 C   0  0  2  0  0  0  0  0  0  0  0  0
    4.5816   -0.6794    0.0000 C   0  0  2  0  0  0  0  0  0  0  0  0
    2.9785   -0.8465    0.0000 C   0  0  1  0  0  0  0  0  0  0  0  0
    5.4476   -0.1794    0.0000 C   0  0  1  0  0  0  0  0  0  0  0  0
    3.7155    0.8206    0.0000 C   0  0  0  0  0  0  0  0  0  0  0  0
    3.3836   -1.7542    0.0000 C   0  0  0  0  0  0  0  0  0  0  0  0
    4.3723   -1.6512    0.0000 C   0  0  0  0  0  0  0  0  0  0  0  0
    2.8495    0.3206    0.0000 C   0  0  0  0  0  0  0  0  0  0  0  0
    5.4476   -1.1794    0.0000 C   0  0  0  0  0  0  0  0  0  0  0  0
    5.4476    0.8206    0.0000 C   0  0  0  0  0  0  0  0  0  0  0  0
    4.5816    1.3206    0.0000 C   0  0  0  0  0  0  0  0  0  0  0  0
    2.0000   -0.6402    0.0000 C   0  0  0  0  0  0  0  0  0  0  0  0
    6.3136   -0.6794    0.0000 C   0  0  0  0  0  0  0  0  0  0  0  0
    6.1846    1.4877    0.0000 C   0  0  0  0  0  0  0  0  0  0  0  0
    5.7795    2.3955    0.0000 C   0  0  0  0  0  0  0  0  0  0  0  0
    2.5890   -1.3288    0.0000 H   0  0  0  0  0  0  0  0  0  0  0  0
    5.4476   -0.7994    0.0000 H   0  0  0  0  0  0  0  0  0  0  0  0
    3.5035    1.4032    0.0000 H   0  0  0  0  0  0  0  0  0  0  0  0
    3.1049    0.7130    0.0000 H   0  0  0  0  0  0  0  0  0  0  0  0
    2.7940   -1.9460    0.0000 H   0  0  0  0  0  0  0  0  0  0  0  0
    3.5124   -2.3607    0.0000 H   0  0  0  0  0  0  0  0  0  0  0  0
    3.1595    0.8576    0.0000 H   0  0  0  0  0  0  0  0  0  0  0  0
    2.3126    0.6306    0.0000 H   0  0  0  0  0  0  0  0  0  0  0  0
    2.5395   -0.2163    0.0000 H   0  0  0  0  0  0  0  0  0  0  0  0
    5.1376   -1.7163    0.0000 H   0  0  0  0  0  0  0  0  0  0  0  0
    5.9845   -1.4894    0.0000 H   0  0  0  0  0  0  0  0  0  0  0  0
    5.7576   -0.6424    0.0000 H   0  0  0  0  0  0  0  0  0  0  0  0
    2.1279   -0.0336    0.0000 H   0  0  0  0  0  0  0  0  0  0  0  0
    1.3933   -0.5124    0.0000 H   0  0  0  0  0  0  0  0  0  0  0  0
    1.8721   -1.2469    0.0000 H   0  0  0  0  0  0  0  0  0  0  0  0
    6.0036   -1.2163    0.0000 H   0  0  0  0  0  0  0  0  0  0  0  0
    6.8505   -0.9894    0.0000 H   0  0  0  0  0  0  0  0  0  0  0  0
    6.6236   -0.1424    0.0000 H   0  0  0  0  0  0  0  0  0  0  0  0
    6.7913    1.3598    0.0000 H   0  0  0  0  0  0  0  0  0  0  0  0
    6.0895    2.9324    0.0000 H   0  0  0  0  0  0  0  0  0  0  0  0
  1 13  1  0  0  0  0
  1 17  1  0  0  0  0
  2  9  2  0  0  0  0
  3  4  1  0  0  0  0
  3  5  1  0  0  0  0
  3  7  1  0  0  0  0
  3 10  1  1  0  0  0
  4  6  1  0  0  0  0
  4  9  1  0  0  0  0
  4 11  1  1  0  0  0
  5  8  1  0  0  0  0
  5 14  1  1  0  0  0
  5 18  1  0  0  0  0
  6 12  1  0  0  0  0
  6 15  1  1  0  0  0
  6 19  1  0  0  0  0
  7 13  1  0  0  0  0
  7 20  1  0  0  0  0
  7 21  1  0  0  0  0
  8  9  1  0  0  0  0
  8 22  1  0  0  0  0
  8 23  1  0  0  0  0
 10 24  1  0  0  0  0
 10 25  1  0  0  0  0
 10 26  1  0  0  0  0
 11 27  1  0  0  0  0
 11 28  1  0  0  0  0
 11 29  1  0  0  0  0
 12 13  2  0  0  0  0
 12 16  1  0  0  0  0
 14 30  1  0  0  0  0
 14 31  1  0  0  0  0
 14 32  1  0  0  0  0
 15 33  1  0  0  0  0
 15 34  1  0  0  0  0
 15 35  1  0  0  0  0
 16 17  2  0  0  0  0
 16 36  1  0  0  0  0
 17 37  1  0  0  0  0
M  END
> <PUBCHEM_COMPOUND_CID>
442388

> <PUBCHEM_COMPOUND_CANONICALIZED>
1

> <PUBCHEM_CACTVS_COMPLEXITY>
364

> <PUBCHEM_CACTVS_HBOND_ACCEPTOR>
2

> <PUBCHEM_CACTVS_HBOND_DONOR>
0

> <PUBCHEM_CACTVS_ROTATABLE_BOND>
0

> <PUBCHEM_CACTVS_SUBSKEYS>
AAADceBwMAAAAAAAAAAAAAAAAAAAAaIAAAAwAAAAAAAAAGgBgAAAGgAAAAAADwSgmAIyBIAABECIAqhSgAACCAAkIAAIiAEGCMgMJjKENRqCGSCkwBEIqYeIzvDvgAAAAAAAAADAAAYAADAAAQAACAAAAA==

> <PUBCHEM_IUPAC_OPENEYE_NAME>
(4R,4aS,7R,7aS)-4,4a,7,7a-tetramethyl-4,6,7,8-tetrahydrocyclopenta[f]benzofuran-5-one

> <PUBCHEM_IUPAC_CAS_NAME>
(4R,4aS,7R,7aS)-4,4a,7,7a-tetramethyl-4,6,7,8-tetrahydrocyclopenta[f]benzofuran-5-one

> <PUBCHEM_IUPAC_NAME>
(4R,4aS,7R,7aS)-4,4a,7,7a-tetramethyl-4,6,7,8-tetrahydrocyclopenta[f][1]benzofuran-5-one

> <PUBCHEM_IUPAC_SYSTEMATIC_NAME>
(4R,4aS,7R,7aS)-4,4a,7,7a-tetramethyl-4,6,7,8-tetrahydrocyclopenta[f][1]benzofuran-5-one

> <PUBCHEM_IUPAC_TRADITIONAL_NAME>
(4R,4aS,7R,7aS)-4,4a,7,7a-tetramethyl-4,6,7,8-tetrahydrocyclopenta[f]benzofuran-5-one

> <PUBCHEM_IUPAC_INCHI>
InChI=1S/C15H20O2/c1-9-7-13(16)15(4)10(2)11-5-6-17-12(11)8-14(9,15)3/h5-6,9-10H,7-8H2,1-4H3/t9-,10-,14+,15-/m1/s1

> <PUBCHEM_IUPAC_INCHIKEY>
LJFIDWTVIFBAAF-ZMRCNFHJSA-N

> <PUBCHEM_XLOGP3_AA>
2.9

> <PUBCHEM_EXACT_MASS>
232.14633

> <PUBCHEM_MOLECULAR_FORMULA>
C15H20O2

> <PUBCHEM_MOLECULAR_WEIGHT>
232.3181

> <PUBCHEM_OPENEYE_CAN_SMILES>
CC1CC(=O)C2(C1(CC3=C(C2C)C=CO3)C)C

> <PUBCHEM_OPENEYE_ISO_SMILES>
C[C@@H]1CC(=O)[C@@]2([C@]1(CC3=C([C@H]2C)C=CO3)C)C

> <PUBCHEM_CACTVS_TPSA>
30.2

> <PUBCHEM_MONOISOTOPIC_WEIGHT>
232.14633

> <PUBCHEM_TOTAL_CHARGE>
0

> <PUBCHEM_HEAVY_ATOM_COUNT>
17

> <PUBCHEM_ATOM_DEF_STEREO_COUNT>
4

> <PUBCHEM_ATOM_UDEF_STEREO_COUNT>
0

> <PUBCHEM_BOND_DEF_STEREO_COUNT>
0

> <PUBCHEM_BOND_UDEF_STEREO_COUNT>
0

> <PUBCHEM_ISOTOPIC_ATOM_COUNT>
0

> <PUBCHEM_COMPONENT_COUNT>
1

> <PUBCHEM_CACTVS_TAUTO_COUNT>
2

> <PUBCHEM_COORDINATE_TYPE>
1
5
255

> <PUBCHEM_BONDANNOTATIONS>
1  13  8
1  17  8
12  13  8
12  16  8
16  17  8
3  10  5
4  11  5
5  14  5
6  15  5

$$$$

