115205
  -OEChem-07051213043D

 71 75  0     1  0  0  0  0  0999 V2000
   -0.8369   -4.5994    0.1291 P   0  0  1  0  0  0  0  0  0  0  0  0
    2.1045   -4.7165    0.1406 P   0  0  2  0  0  0  0  0  0  0  0  0
    3.2308   -2.0482   -0.4212 P   0  0  0  0  0  0  0  0  0  0  0  0
   -3.4324   -1.1112   -0.8114 O   0  0  0  0  0  0  0  0  0  0  0  0
   -0.5258    0.8694   -0.0773 O   0  0  0  0  0  0  0  0  0  0  0  0
   -2.2872    1.6347   -2.0122 O   0  0  0  0  0  0  0  0  0  0  0  0
   -1.7975   -3.3462   -0.2247 O   0  0  0  0  0  0  0  0  0  0  0  0
   -0.8076    2.2018    1.7785 O   0  0  0  0  0  0  0  0  0  0  0  0
    0.6595   -4.0507   -0.1344 O   0  0  0  0  0  0  0  0  0  0  0  0
   -0.9088   -4.7183    1.7410 O   0  0  0  0  0  0  0  0  0  0  0  0
   -1.1635   -5.8697   -0.6010 O   0  0  0  0  0  0  0  0  0  0  0  0
    3.1344   -3.6587   -0.5155 O   0  0  0  0  0  0  0  0  0  0  0  0
    2.1530   -5.9706   -0.8781 O   0  0  0  0  0  0  0  0  0  0  0  0
    2.3886   -5.0580    1.5736 O   0  0  0  0  0  0  0  0  0  0  0  0
    5.5810    4.5351   -0.2579 O   0  0  0  0  0  0  0  0  0  0  0  0
    4.4123   -1.6906   -1.4646 O   0  0  0  0  0  0  0  0  0  0  0  0
    1.8948   -1.5431   -1.1775 O   0  0  0  0  0  0  0  0  0  0  0  0
    3.4229   -1.5133    0.9673 O   0  0  0  0  0  0  0  0  0  0  0  0
   -5.1496    0.4066   -0.1931 N   0  0  0  0  0  0  0  0  0  0  0  0
   -6.5034    0.2343    1.5696 N   0  0  0  0  0  0  0  0  0  0  0  0
   -6.5027    1.8327   -1.6202 N   0  0  0  0  0  0  0  0  0  0  0  0
   -8.6182    2.4079   -0.5480 N   0  0  0  0  0  0  0  0  0  0  0  0
   -9.2064    1.6255    1.6358 N   0  0  0  0  0  0  0  0  0  0  0  0
   -1.8541    0.4062    0.0389 C   0  0  1  0  0  0  0  0  0  0  0  0
   -2.8498    1.2166   -0.7697 C   0  0  2  0  0  0  0  0  0  0  0  0
   -2.0268   -0.9874   -0.5397 C   0  0  1  0  0  0  0  0  0  0  0  0
   -3.9698    0.2097   -1.0370 C   0  0  1  0  0  0  0  0  0  0  0  0
   -1.5861   -2.0929    0.4028 C   0  0  0  0  0  0  0  0  0  0  0  0
   -6.2601    1.1420   -0.4959 C   0  0  0  0  0  0  0  0  0  0  0  0
   -5.3434   -0.1191    1.0568 C   0  0  0  0  0  0  0  0  0  0  0  0
   -7.0868    1.0229    0.6097 C   0  0  0  0  0  0  0  0  0  0  0  0
   -0.1281    1.7685    0.8610 C   0  0  0  0  0  0  0  0  0  0  0  0
   -8.3064    1.6902    0.5580 C   0  0  0  0  0  0  0  0  0  0  0  0
    1.2805    2.1757    0.6279 C   0  0  0  0  0  0  0  0  0  0  0  0
   -7.7103    2.4341   -1.5535 C   0  0  0  0  0  0  0  0  0  0  0  0
    2.0871    2.5477    1.7034 C   0  0  0  0  0  0  0  0  0  0  0  0
    1.7968    2.1876   -0.6680 C   0  0  0  0  0  0  0  0  0  0  0  0
    3.4098    2.9314    1.4833 C   0  0  0  0  0  0  0  0  0  0  0  0
    3.1197    2.5713   -0.8882 C   0  0  0  0  0  0  0  0  0  0  0  0
    3.9262    2.9432    0.1874 C   0  0  0  0  0  0  0  0  0  0  0  0
    5.3044    3.3455   -0.0426 C   0  0  0  0  0  0  0  0  0  0  0  0
    6.4362    2.3698   -0.0319 C   0  0  0  0  0  0  0  0  0  0  0  0
    6.1890    1.0174    0.2042 C   0  0  0  0  0  0  0  0  0  0  0  0
    7.7399    2.8113   -0.2584 C   0  0  0  0  0  0  0  0  0  0  0  0
    7.2454    0.1065    0.2140 C   0  0  0  0  0  0  0  0  0  0  0  0
    8.7962    1.9003   -0.2487 C   0  0  0  0  0  0  0  0  0  0  0  0
    8.5488    0.5479   -0.0125 C   0  0  0  0  0  0  0  0  0  0  0  0
   -2.1834    0.3805    1.0875 H   0  0  0  0  0  0  0  0  0  0  0  0
   -3.1731    2.1200   -0.2426 H   0  0  0  0  0  0  0  0  0  0  0  0
   -1.4962   -1.0929   -1.4949 H   0  0  0  0  0  0  0  0  0  0  0  0
   -4.3177    0.2409   -2.0761 H   0  0  0  0  0  0  0  0  0  0  0  0
   -2.1842   -2.0847    1.3199 H   0  0  0  0  0  0  0  0  0  0  0  0
   -0.5326   -1.9677    0.6717 H   0  0  0  0  0  0  0  0  0  0  0  0
   -2.9811    2.1121   -2.4986 H   0  0  0  0  0  0  0  0  0  0  0  0
   -4.6114   -0.7456    1.5482 H   0  0  0  0  0  0  0  0  0  0  0  0
   -7.9929    3.0181   -2.4229 H   0  0  0  0  0  0  0  0  0  0  0  0
    1.7006    2.5410    2.7192 H   0  0  0  0  0  0  0  0  0  0  0  0
    1.1879    1.9151   -1.5259 H   0  0  0  0  0  0  0  0  0  0  0  0
  -10.0860    2.1200    1.5748 H   0  0  0  0  0  0  0  0  0  0  0  0
   -8.9755    1.0915    2.4626 H   0  0  0  0  0  0  0  0  0  0  0  0
   -0.4966   -5.4939    2.1777 H   0  0  0  0  0  0  0  0  0  0  0  0
    4.0294    3.2189    2.3289 H   0  0  0  0  0  0  0  0  0  0  0  0
    3.5109    2.5791   -1.9024 H   0  0  0  0  0  0  0  0  0  0  0  0
    2.9123   -6.5899   -0.8331 H   0  0  0  0  0  0  0  0  0  0  0  0
    5.1894    0.6384    0.3887 H   0  0  0  0  0  0  0  0  0  0  0  0
    7.9605    3.8587   -0.4449 H   0  0  0  0  0  0  0  0  0  0  0  0
    7.0527   -0.9464    0.3985 H   0  0  0  0  0  0  0  0  0  0  0  0
    9.8114    2.2435   -0.4250 H   0  0  0  0  0  0  0  0  0  0  0  0
    9.3713   -0.1613   -0.0048 H   0  0  0  0  0  0  0  0  0  0  0  0
    4.7023   -0.7583   -1.5549 H   0  0  0  0  0  0  0  0  0  0  0  0
    1.6777   -0.5872   -1.1755 H   0  0  0  0  0  0  0  0  0  0  0  0
  1  7  1  0  0  0  0
  1  9  1  0  0  0  0
  1 10  1  0  0  0  0
  1 11  2  0  0  0  0
  2  9  1  0  0  0  0
  2 12  1  0  0  0  0
  2 13  1  0  0  0  0
  2 14  2  0  0  0  0
  3 12  1  0  0  0  0
  3 16  1  0  0  0  0
  3 17  1  0  0  0  0
  3 18  2  0  0  0  0
  4 26  1  0  0  0  0
  4 27  1  0  0  0  0
  5 24  1  0  0  0  0
  5 32  1  0  0  0  0
  6 25  1  0  0  0  0
  6 54  1  0  0  0  0
  7 28  1  0  0  0  0
  8 32  2  0  0  0  0
 10 61  1  0  0  0  0
 13 64  1  0  0  0  0
 15 41  2  0  0  0  0
 16 70  1  0  0  0  0
 17 71  1  0  0  0  0
 19 27  1  0  0  0  0
 19 29  1  0  0  0  0
 19 30  1  0  0  0  0
 20 30  2  0  0  0  0
 20 31  1  0  0  0  0
 21 29  2  0  0  0  0
 21 35  1  0  0  0  0
 22 33  1  0  0  0  0
 22 35  2  0  0  0  0
 23 33  1  0  0  0  0
 23 59  1  0  0  0  0
 23 60  1  0  0  0  0
 24 25  1  0  0  0  0
 24 26  1  0  0  0  0
 24 48  1  0  0  0  0
 25 27  1  0  0  0  0
 25 49  1  0  0  0  0
 26 28  1  0  0  0  0
 26 50  1  0  0  0  0
 27 51  1  0  0  0  0
 28 52  1  0  0  0  0
 28 53  1  0  0  0  0
 29 31  1  0  0  0  0
 30 55  1  0  0  0  0
 31 33  2  0  0  0  0
 32 34  1  0  0  0  0
 34 36  2  0  0  0  0
 34 37  1  0  0  0  0
 35 56  1  0  0  0  0
 36 38  1  0  0  0  0
 36 57  1  0  0  0  0
 37 39  2  0  0  0  0
 37 58  1  0  0  0  0
 38 40  2  0  0  0  0
 38 62  1  0  0  0  0
 39 40  1  0  0  0  0
 39 63  1  0  0  0  0
 40 41  1  0  0  0  0
 41 42  1  0  0  0  0
 42 43  2  0  0  0  0
 42 44  1  0  0  0  0
 43 45  1  0  0  0  0
 43 65  1  0  0  0  0
 44 46  2  0  0  0  0
 44 66  1  0  0  0  0
 45 47  2  0  0  0  0
 45 67  1  0  0  0  0
 46 47  1  0  0  0  0
 46 68  1  0  0  0  0
 47 69  1  0  0  0  0
M  END
> <PUBCHEM_COMPOUND_CID>
115205

> <PUBCHEM_CONFORMER_RMSD>
1.4

> <PUBCHEM_CONFORMER_DIVERSEORDER>
15
20
35
16
67
40
41
34
30
43
55
61
49
57
71
66
54
65
13
42
45
50
36
68
39
31
26
74
28
27
52
72
3
58
56
5
38
21
64
23
8
51
70
62
17
48
18
73
37
24
25
46
11
7
33
6
69
63
53
32
2
59
29
47
9
19
22
4
44
1
60
12
14
10

> <PUBCHEM_MMFF94_PARTIAL_CHARGES>
65
1 1.51
10 -0.77
11 -0.7
12 -0.54
13 -0.77
14 -0.7
15 -0.57
16 -0.77
17 -0.77
18 -0.7
19 0.05
2 1.51
20 -0.57
21 -0.57
22 -0.62
23 -0.9
24 0.28
25 0.28
26 0.28
27 0.54
28 0.28
29 0.11
3 1.51
30 0.04
31 0.23
32 0.63
33 0.41
34 0.09
35 0.47
36 -0.15
37 -0.15
38 -0.15
39 -0.15
4 -0.56
40 0.09
41 0.4
42 0.09
43 -0.15
44 -0.15
45 -0.15
46 -0.15
47 -0.15
5 -0.43
54 0.4
55 0.15
56 0.15
57 0.15
58 0.15
59 0.4
6 -0.68
60 0.4
61 0.5
62 0.15
63 0.15
64 0.5
65 0.15
66 0.15
67 0.15
68 0.15
69 0.15
7 -0.55
70 0.5
71 0.5
8 -0.57
9 -0.54

> <PUBCHEM_EFFECTIVE_ROTOR_COUNT>
14

> <PUBCHEM_PHARMACOPHORE_FEATURES>
23
1 10 acceptor
1 11 acceptor
1 13 acceptor
1 14 acceptor
1 15 acceptor
1 16 acceptor
1 17 acceptor
1 18 acceptor
1 23 cation
1 23 donor
1 4 acceptor
1 6 acceptor
1 6 donor
1 8 acceptor
3 19 20 30 cation
3 19 21 29 cation
3 21 22 35 cation
4 3 16 17 18 anion
5 19 20 29 30 31 rings
5 4 24 25 26 27 rings
6 21 22 29 31 33 35 rings
6 34 36 37 38 39 40 rings
6 42 43 44 45 46 47 rings

> <PUBCHEM_HEAVY_ATOM_COUNT>
47

> <PUBCHEM_ATOM_DEF_STEREO_COUNT>
4

> <PUBCHEM_ATOM_UDEF_STEREO_COUNT>
0

> <PUBCHEM_BOND_DEF_STEREO_COUNT>
0

> <PUBCHEM_BOND_UDEF_STEREO_COUNT>
0

> <PUBCHEM_ISOTOPIC_ATOM_COUNT>
0

> <PUBCHEM_COMPONENT_COUNT>
1

> <PUBCHEM_CACTVS_TAUTO_COUNT>
3

> <PUBCHEM_CONFORMER_ID>
0001C2050000000F

> <PUBCHEM_MMFF94_ENERGY>
51.1672

> <PUBCHEM_FEATURE_SELFOVERLAP>
117.375

> <PUBCHEM_SHAPE_FINGERPRINT>
10675989 125 18410012177886443745
10864689 126 18410281520314007174
11135926 11 18411146813693690820
11828532 37 6915682445133883388
12522641 33 18412267242154849029
14040222 383 18337395911703971434
14150023 24 18411985741471579521
14444916 359 18411696560753795077
14856354 85 16630247988116536433
14918310 93 17988931123650079216
15230672 131 18340775853771324642
15351339 4 18187364384750544784
15400415 2 18266180534787903669
15439362 3 18410858767258254469
15538507 32 18337388361478824398
15890870 6 18409728453158915676
15927050 60 18335707079319105623
16112460 7 18334006220639929482
20105231 36 17346881135005659592
21133410 38 17896298368368748450
21927370 108 9438856031486115349
5265222 85 18340773624267215920
6086070 43 17241051990097228785
6371380 46 18260551073924220864
6669772 16 18410575089338095055
6698420 124 18261671480984675473

> <PUBCHEM_SHAPE_MULTIPOLES>
865.84
24.31
7.62
1.4
14.66
15.28
0.18
-29.09
-0.39
-6.05
0.35
1.47
-0.28
0.92

> <PUBCHEM_SHAPE_SELFOVERLAP>
1832.804

> <PUBCHEM_SHAPE_VOLUME>
486

> <PUBCHEM_COORDINATE_TYPE>
2
5
10

$$$$

