5335
  -OEChem-06261200383D

 36 38  0     0  0  0  0  0  0999 V2000
   -0.2991   -2.1848    0.3841 S   0  0  0  0  0  0  0  0  0  0  0  0
   -0.7039   -3.5281    0.0135 O   0  0  0  0  0  0  0  0  0  0  0  0
    0.2792   -1.9417    1.6917 O   0  0  0  0  0  0  0  0  0  0  0  0
    2.5404    0.0561   -0.1781 N   0  0  0  0  0  0  0  0  0  0  0  0
    0.7244   -1.5721   -0.8441 N   0  0  0  0  0  0  0  0  0  0  0  0
    3.8574    0.0758    0.1164 N   0  0  0  0  0  0  0  0  0  0  0  0
   -5.1073    1.2731   -0.1458 N   0  0  0  0  0  0  0  0  0  0  0  0
    2.0779   -1.1978   -0.4831 C   0  0  0  0  0  0  0  0  0  0  0  0
   -1.7307   -1.1560    0.2267 C   0  0  0  0  0  0  0  0  0  0  0  0
    1.7982    1.2227   -0.1542 C   0  0  0  0  0  0  0  0  0  0  0  0
    3.1575   -2.0408   -0.3809 C   0  0  0  0  0  0  0  0  0  0  0  0
   -2.7515   -1.5475   -0.6205 C   0  0  0  0  0  0  0  0  0  0  0  0
   -1.7988    0.0190    0.9529 C   0  0  0  0  0  0  0  0  0  0  0  0
    4.2252   -1.2021   -0.0089 C   0  0  0  0  0  0  0  0  0  0  0  0
   -3.8791   -0.7360   -0.7456 C   0  0  0  0  0  0  0  0  0  0  0  0
   -2.9266    0.8304    0.8280 C   0  0  0  0  0  0  0  0  0  0  0  0
    0.6989    1.3675   -1.0006 C   0  0  0  0  0  0  0  0  0  0  0  0
    2.1496    2.2552    0.7154 C   0  0  0  0  0  0  0  0  0  0  0  0
   -3.9667    0.4529   -0.0213 C   0  0  0  0  0  0  0  0  0  0  0  0
   -0.0489    2.5448   -0.9772 C   0  0  0  0  0  0  0  0  0  0  0  0
    1.4016    3.4323    0.7389 C   0  0  0  0  0  0  0  0  0  0  0  0
    0.3023    3.5772   -0.1074 C   0  0  0  0  0  0  0  0  0  0  0  0
    0.7146   -2.1407   -1.7022 H   0  0  0  0  0  0  0  0  0  0  0  0
    3.1728   -3.1077   -0.5499 H   0  0  0  0  0  0  0  0  0  0  0  0
   -2.6990   -2.4644   -1.1990 H   0  0  0  0  0  0  0  0  0  0  0  0
   -0.9982    0.3299    1.6169 H   0  0  0  0  0  0  0  0  0  0  0  0
    5.2557   -1.4688    0.1761 H   0  0  0  0  0  0  0  0  0  0  0  0
   -4.6823   -1.0400   -1.4119 H   0  0  0  0  0  0  0  0  0  0  0  0
   -2.9821    1.7550    1.3968 H   0  0  0  0  0  0  0  0  0  0  0  0
    0.4189    0.6274   -1.7422 H   0  0  0  0  0  0  0  0  0  0  0  0
    2.9941    2.1692    1.3947 H   0  0  0  0  0  0  0  0  0  0  0  0
   -0.8968    2.6635   -1.6456 H   0  0  0  0  0  0  0  0  0  0  0  0
    1.6736    4.2356    1.4174 H   0  0  0  0  0  0  0  0  0  0  0  0
   -0.2789    4.4944   -0.0907 H   0  0  0  0  0  0  0  0  0  0  0  0
   -5.1694    2.1366    0.3768 H   0  0  0  0  0  0  0  0  0  0  0  0
   -5.8608    1.0018   -0.7634 H   0  0  0  0  0  0  0  0  0  0  0  0
  1  2  2  0  0  0  0
  1  3  2  0  0  0  0
  1  5  1  0  0  0  0
  1  9  1  0  0  0  0
  4  6  1  0  0  0  0
  4  8  1  0  0  0  0
  4 10  1  0  0  0  0
  5  8  1  0  0  0  0
  5 23  1  0  0  0  0
  6 14  2  0  0  0  0
  7 19  1  0  0  0  0
  7 35  1  0  0  0  0
  7 36  1  0  0  0  0
  8 11  2  0  0  0  0
  9 12  2  0  0  0  0
  9 13  1  0  0  0  0
 10 17  2  0  0  0  0
 10 18  1  0  0  0  0
 11 14  1  0  0  0  0
 11 24  1  0  0  0  0
 12 15  1  0  0  0  0
 12 25  1  0  0  0  0
 13 16  2  0  0  0  0
 13 26  1  0  0  0  0
 14 27  1  0  0  0  0
 15 19  2  0  0  0  0
 15 28  1  0  0  0  0
 16 19  1  0  0  0  0
 16 29  1  0  0  0  0
 17 20  1  0  0  0  0
 17 30  1  0  0  0  0
 18 21  2  0  0  0  0
 18 31  1  0  0  0  0
 20 22  2  0  0  0  0
 20 32  1  0  0  0  0
 21 22  1  0  0  0  0
 21 33  1  0  0  0  0
 22 34  1  0  0  0  0
M  END
> <PUBCHEM_COMPOUND_CID>
5335

> <PUBCHEM_CONFORMER_RMSD>
0.6

> <PUBCHEM_CONFORMER_DIVERSEORDER>
1
21
12
24
22
38
48
40
36
30
25
37
17
28
41
47
16
45
49
18
19
50
3
26
43
44
20
14
29
15
33
31
8
35
23
27
7
13
10
32
4
11
9
39
34
2
6
46
5
42

> <PUBCHEM_MMFF94_PARTIAL_CHARGES>
36
1 1.45
10 -0.02
11 -0.15
12 -0.15
13 -0.15
14 0.14
15 -0.15
16 -0.15
17 -0.15
18 -0.15
19 0.1
2 -0.65
20 -0.15
21 -0.15
22 -0.15
23 0.42
24 0.15
25 0.15
26 0.15
27 0.15
28 0.15
29 0.15
3 -0.65
30 0.15
31 0.15
32 0.15
33 0.15
34 0.15
35 0.4
36 0.4
4 0.59
5 -0.7
6 -0.71
7 -0.9
8 -0.01
9 -0.01

> <PUBCHEM_EFFECTIVE_ROTOR_COUNT>
4

> <PUBCHEM_PHARMACOPHORE_FEATURES>
9
1 2 acceptor
1 3 acceptor
1 5 donor
1 6 acceptor
1 7 cation
1 7 donor
5 4 6 8 11 14 rings
6 10 17 18 20 21 22 rings
6 9 12 13 15 16 19 rings

> <PUBCHEM_HEAVY_ATOM_COUNT>
22

> <PUBCHEM_ATOM_DEF_STEREO_COUNT>
0

> <PUBCHEM_ATOM_UDEF_STEREO_COUNT>
0

> <PUBCHEM_BOND_DEF_STEREO_COUNT>
0

> <PUBCHEM_BOND_UDEF_STEREO_COUNT>
0

> <PUBCHEM_ISOTOPIC_ATOM_COUNT>
0

> <PUBCHEM_COMPONENT_COUNT>
1

> <PUBCHEM_CACTVS_TAUTO_COUNT>
3

> <PUBCHEM_CONFORMER_ID>
000014D700000001

> <PUBCHEM_MMFF94_ENERGY>
61.1249

> <PUBCHEM_FEATURE_SELFOVERLAP>
45.687

> <PUBCHEM_SHAPE_FINGERPRINT>
104564 63 18054223512282850168
10708813 3 17972305485362246297
10967382 1 18410571799255801086
11370993 70 17903649483684065449
11646440 116 18337381751417998545
116883 192 18191860339583573622
12011746 2 18408035230510378052
12403259 226 18342739589986211031
12553582 1 18337653283450427420
12596599 1 17895179039350392063
12788726 201 18196926880806513186
13134695 92 18410294713772681436
13140716 1 18412257328953384147
13402501 40 18270965777401936549
14178342 30 17907587925744571056
14223421 5 17835797499983727923
14955137 171 18193248971256331379
15420108 30 17898310315987034378
17357779 13 18341340001424847572
17492 89 18191871119572425479
192875 21 18259989253741707661
20600515 1 18272078405907021630
20905425 154 17907578386558682319
22749437 52 18121224169045768681
23402539 116 18334583476876719030
23558518 356 17983579593993568779
23559900 14 18188215299333919712
3014063 31 18194967571975369693
345986 75 17556605427857432162
350125 39 17907846315235129322
3524813 1 18059018401108885765
474 4 18409445886749068747
5939293 188 18410015429107959168
6443956 14 18338514243894243109
7226269 152 18201163234694439250
7832392 63 18409169883033399751
81228 2 18053080003347658588
9709674 26 18121499059716347263
9981440 41 17615982001492867208

> <PUBCHEM_SHAPE_MULTIPOLES>
424.94
7.02
4.08
1.02
3.95
1.82
-0.13
-0.82
0.44
-1.66
-0.21
0.12
0.02
0.21

> <PUBCHEM_SHAPE_SELFOVERLAP>
913.572

> <PUBCHEM_SHAPE_VOLUME>
235.1

> <PUBCHEM_COORDINATE_TYPE>
2
5
10

$$$$

