441867
  -OEChem-07051212563D

 84 89  0     1  0  0  0  0  0999 V2000
    4.3600   -1.1062    0.9817 O   0  0  0  0  0  0  0  0  0  0  0  0
   -3.6609   -0.6084    0.2454 O   0  0  0  0  0  0  0  0  0  0  0  0
    8.5733    0.5660   -0.2387 O   0  0  0  0  0  0  0  0  0  0  0  0
   -5.1351    0.8369   -0.9049 O   0  0  0  0  0  0  0  0  0  0  0  0
    8.9665   -1.6294    0.3286 O   0  0  0  0  0  0  0  0  0  0  0  0
   -5.9300   -1.0052    1.5888 O   0  0  0  0  0  0  0  0  0  0  0  0
   -7.4798   -1.0849   -1.7140 O   0  0  0  0  0  0  0  0  0  0  0  0
   -8.2585    1.1327    0.9233 O   0  0  0  0  0  0  0  0  0  0  0  0
    3.3865   -0.4308    0.1706 C   0  0  1  0  0  0  0  0  0  0  0  0
    2.0573   -0.3554    0.9762 C   0  0  1  0  0  0  0  0  0  0  0  0
    0.9845    0.5575    0.3116 C   0  0  1  0  0  0  0  0  0  0  0  0
    3.9541    0.9593   -0.2282 C   0  0  2  0  0  0  0  0  0  0  0  0
   -0.3560    0.6253    1.1425 C   0  0  2  0  0  0  0  0  0  0  0  0
   -0.8829   -0.8222    1.4080 C   0  0  2  0  0  0  0  0  0  0  0  0
    1.5858    1.9410   -0.0019 C   0  0  0  0  0  0  0  0  0  0  0  0
    2.8426    1.8360   -0.8629 C   0  0  0  0  0  0  0  0  0  0  0  0
    5.0053    0.6067   -1.3287 C   0  0  2  0  0  0  0  0  0  0  0  0
    1.4906   -1.7571    1.2783 C   0  0  0  0  0  0  0  0  0  0  0  0
    3.2939   -1.1783   -1.1736 C   0  0  0  0  0  0  0  0  0  0  0  0
    0.1842   -1.7100    2.0636 C   0  0  0  0  0  0  0  0  0  0  0  0
    4.3939   -0.5957   -2.0721 C   0  0  0  0  0  0  0  0  0  0  0  0
   -1.4732    1.4235    0.4066 C   0  0  0  0  0  0  0  0  0  0  0  0
   -1.4366   -1.5021    0.1327 C   0  0  0  0  0  0  0  0  0  0  0  0
    4.5757    1.7258    0.9580 C   0  0  0  0  0  0  0  0  0  0  0  0
   -0.1377    1.3488    2.4976 C   0  0  0  0  0  0  0  0  0  0  0  0
   -1.9928    0.7475   -0.8608 C   0  0  0  0  0  0  0  0  0  0  0  0
   -2.4963   -0.6634   -0.5759 C   0  0  2  0  0  0  0  0  0  0  0  0
    6.3848    0.2678   -0.8410 C   0  0  0  0  0  0  0  0  0  0  0  0
    7.4423    1.2930   -0.7302 C   0  0  0  0  0  0  0  0  0  0  0  0
    6.8311   -0.9266   -0.4618 C   0  0  0  0  0  0  0  0  0  0  0  0
   -4.8460   -0.5161   -0.5384 C   0  0  2  0  0  0  0  0  0  0  0  0
    8.2310   -0.7451   -0.0750 C   0  0  0  0  0  0  0  0  0  0  0  0
   -6.0039   -1.2332    0.1809 C   0  0  2  0  0  0  0  0  0  0  0  0
   -7.3527   -0.7338   -0.3365 C   0  0  1  0  0  0  0  0  0  0  0  0
   -6.0897    1.4795   -0.0674 C   0  0  2  0  0  0  0  0  0  0  0  0
   -7.4614    0.7965   -0.2115 C   0  0  2  0  0  0  0  0  0  0  0  0
   -6.1617    2.9486   -0.4731 C   0  0  0  0  0  0  0  0  0  0  0  0
   -7.3880   -2.4885   -1.8977 C   0  0  0  0  0  0  0  0  0  0  0  0
    2.3108    0.0822    1.9509 H   0  0  0  0  0  0  0  0  0  0  0  0
    0.7395    0.1072   -0.6572 H   0  0  0  0  0  0  0  0  0  0  0  0
   -1.7207   -0.7572    2.1174 H   0  0  0  0  0  0  0  0  0  0  0  0
    1.8186    2.4831    0.9197 H   0  0  0  0  0  0  0  0  0  0  0  0
    0.8651    2.5546   -0.5515 H   0  0  0  0  0  0  0  0  0  0  0  0
    2.5485    1.4442   -1.8448 H   0  0  0  0  0  0  0  0  0  0  0  0
    3.2301    2.8451   -1.0543 H   0  0  0  0  0  0  0  0  0  0  0  0
    5.1111    1.4365   -2.0407 H   0  0  0  0  0  0  0  0  0  0  0  0
    1.3325   -2.3111    0.3466 H   0  0  0  0  0  0  0  0  0  0  0  0
    2.2212   -2.3365    1.8556 H   0  0  0  0  0  0  0  0  0  0  0  0
    3.4494   -2.2556   -1.0465 H   0  0  0  0  0  0  0  0  0  0  0  0
    2.3256   -1.0396   -1.6643 H   0  0  0  0  0  0  0  0  0  0  0  0
    0.3906   -1.3503    3.0786 H   0  0  0  0  0  0  0  0  0  0  0  0
   -0.2007   -2.7304    2.1830 H   0  0  0  0  0  0  0  0  0  0  0  0
    3.9275   -0.2434   -3.0019 H   0  0  0  0  0  0  0  0  0  0  0  0
    5.1094   -1.3629   -2.3858 H   0  0  0  0  0  0  0  0  0  0  0  0
   -2.3241    1.5607    1.0890 H   0  0  0  0  0  0  0  0  0  0  0  0
   -1.1384    2.4372    0.1628 H   0  0  0  0  0  0  0  0  0  0  0  0
   -0.6287   -1.7156   -0.5753 H   0  0  0  0  0  0  0  0  0  0  0  0
   -1.8747   -2.4682    0.4151 H   0  0  0  0  0  0  0  0  0  0  0  0
    4.9683    2.6950    0.6304 H   0  0  0  0  0  0  0  0  0  0  0  0
    5.3935    1.1836    1.4415 H   0  0  0  0  0  0  0  0  0  0  0  0
    3.8368    1.9243    1.7407 H   0  0  0  0  0  0  0  0  0  0  0  0
    0.0904    2.4102    2.3536 H   0  0  0  0  0  0  0  0  0  0  0  0
    0.6725    0.9154    3.0885 H   0  0  0  0  0  0  0  0  0  0  0  0
   -1.0434    1.3016    3.1141 H   0  0  0  0  0  0  0  0  0  0  0  0
   -1.1959    0.7082   -1.6120 H   0  0  0  0  0  0  0  0  0  0  0  0
   -2.7828    1.3719   -1.2880 H   0  0  0  0  0  0  0  0  0  0  0  0
   -2.7122   -1.1685   -1.5258 H   0  0  0  0  0  0  0  0  0  0  0  0
    4.3369   -0.7251    1.8753 H   0  0  0  0  0  0  0  0  0  0  0  0
    7.2036    2.0893   -0.0219 H   0  0  0  0  0  0  0  0  0  0  0  0
    7.6977    1.7281   -1.7009 H   0  0  0  0  0  0  0  0  0  0  0  0
    6.3255   -1.8759   -0.4349 H   0  0  0  0  0  0  0  0  0  0  0  0
   -4.7136   -1.0411   -1.4920 H   0  0  0  0  0  0  0  0  0  0  0  0
   -5.8720   -2.3139    0.0754 H   0  0  0  0  0  0  0  0  0  0  0  0
   -8.1701   -1.2022    0.2272 H   0  0  0  0  0  0  0  0  0  0  0  0
   -5.7387    1.4529    0.9720 H   0  0  0  0  0  0  0  0  0  0  0  0
   -7.9776    1.1926   -1.0952 H   0  0  0  0  0  0  0  0  0  0  0  0
   -5.0390   -1.2646    1.8797 H   0  0  0  0  0  0  0  0  0  0  0  0
   -6.4465    3.0524   -1.5259 H   0  0  0  0  0  0  0  0  0  0  0  0
   -5.1776    3.4185   -0.3686 H   0  0  0  0  0  0  0  0  0  0  0  0
   -6.8785    3.4998    0.1429 H   0  0  0  0  0  0  0  0  0  0  0  0
   -9.1438    0.7563    0.7816 H   0  0  0  0  0  0  0  0  0  0  0  0
   -7.9311   -3.0453   -1.1269 H   0  0  0  0  0  0  0  0  0  0  0  0
   -6.3458   -2.8136   -1.9576 H   0  0  0  0  0  0  0  0  0  0  0  0
   -7.8469   -2.7246   -2.8629 H   0  0  0  0  0  0  0  0  0  0  0  0
  1  9  1  0  0  0  0
  1 68  1  0  0  0  0
  2 27  1  0  0  0  0
  2 31  1  0  0  0  0
  3 29  1  0  0  0  0
  3 32  1  0  0  0  0
  4 31  1  0  0  0  0
  4 35  1  0  0  0  0
  5 32  2  0  0  0  0
  6 33  1  0  0  0  0
  6 77  1  0  0  0  0
  7 34  1  0  0  0  0
  7 38  1  0  0  0  0
  8 36  1  0  0  0  0
  8 81  1  0  0  0  0
  9 10  1  0  0  0  0
  9 12  1  0  0  0  0
  9 19  1  0  0  0  0
 10 11  1  0  0  0  0
 10 18  1  0  0  0  0
 10 39  1  0  0  0  0
 11 13  1  0  0  0  0
 11 15  1  0  0  0  0
 11 40  1  0  0  0  0
 12 16  1  0  0  0  0
 12 17  1  0  0  0  0
 12 24  1  0  0  0  0
 13 14  1  0  0  0  0
 13 22  1  0  0  0  0
 13 25  1  0  0  0  0
 14 20  1  0  0  0  0
 14 23  1  0  0  0  0
 14 41  1  0  0  0  0
 15 16  1  0  0  0  0
 15 42  1  0  0  0  0
 15 43  1  0  0  0  0
 16 44  1  0  0  0  0
 16 45  1  0  0  0  0
 17 21  1  0  0  0  0
 17 28  1  0  0  0  0
 17 46  1  0  0  0  0
 18 20  1  0  0  0  0
 18 47  1  0  0  0  0
 18 48  1  0  0  0  0
 19 21  1  0  0  0  0
 19 49  1  0  0  0  0
 19 50  1  0  0  0  0
 20 51  1  0  0  0  0
 20 52  1  0  0  0  0
 21 53  1  0  0  0  0
 21 54  1  0  0  0  0
 22 26  1  0  0  0  0
 22 55  1  0  0  0  0
 22 56  1  0  0  0  0
 23 27  1  0  0  0  0
 23 57  1  0  0  0  0
 23 58  1  0  0  0  0
 24 59  1  0  0  0  0
 24 60  1  0  0  0  0
 24 61  1  0  0  0  0
 25 62  1  0  0  0  0
 25 63  1  0  0  0  0
 25 64  1  0  0  0  0
 26 27  1  0  0  0  0
 26 65  1  0  0  0  0
 26 66  1  0  0  0  0
 27 67  1  0  0  0  0
 28 29  1  0  0  0  0
 28 30  2  0  0  0  0
 29 69  1  0  0  0  0
 29 70  1  0  0  0  0
 30 32  1  0  0  0  0
 30 71  1  0  0  0  0
 31 33  1  0  0  0  0
 31 72  1  0  0  0  0
 33 34  1  0  0  0  0
 33 73  1  0  0  0  0
 34 36  1  0  0  0  0
 34 74  1  0  0  0  0
 35 36  1  0  0  0  0
 35 37  1  0  0  0  0
 35 75  1  0  0  0  0
 36 76  1  0  0  0  0
 37 78  1  0  0  0  0
 37 79  1  0  0  0  0
 37 80  1  0  0  0  0
 38 82  1  0  0  0  0
 38 83  1  0  0  0  0
 38 84  1  0  0  0  0
M  END
> <PUBCHEM_COMPOUND_CID>
441867

> <PUBCHEM_CONFORMER_RMSD>
1

> <PUBCHEM_CONFORMER_DIVERSEORDER>
10
18
12
14
9
4
6
8
29
19
13
22
2
21
17
27
28
15
33
25
1
3
5
31
16
32
7
11
23
20
24
30
26

> <PUBCHEM_MMFF94_PARTIAL_CHARGES>
25
1 -0.68
17 0.14
2 -0.56
27 0.28
28 -0.28
29 0.42
3 -0.43
30 -0.14
31 0.56
32 0.71
33 0.28
34 0.28
35 0.28
36 0.28
38 0.28
4 -0.56
5 -0.57
6 -0.68
68 0.4
7 -0.56
71 0.15
77 0.4
8 -0.68
81 0.4
9 0.28

> <PUBCHEM_EFFECTIVE_ROTOR_COUNT>
7.8

> <PUBCHEM_PHARMACOPHORE_FEATURES>
16
1 1 acceptor
1 1 donor
1 2 acceptor
1 4 acceptor
1 5 acceptor
1 6 acceptor
1 6 donor
1 7 acceptor
1 8 acceptor
1 8 donor
5 3 28 29 30 32 rings
5 9 12 17 19 21 rings
6 10 11 13 14 18 20 rings
6 13 14 22 23 26 27 rings
6 4 31 33 34 35 36 rings
6 9 10 11 12 15 16 rings

> <PUBCHEM_HEAVY_ATOM_COUNT>
38

> <PUBCHEM_ATOM_DEF_STEREO_COUNT>
13

> <PUBCHEM_ATOM_UDEF_STEREO_COUNT>
0

> <PUBCHEM_BOND_DEF_STEREO_COUNT>
0

> <PUBCHEM_BOND_UDEF_STEREO_COUNT>
0

> <PUBCHEM_ISOTOPIC_ATOM_COUNT>
0

> <PUBCHEM_COMPONENT_COUNT>
1

> <PUBCHEM_CACTVS_TAUTO_COUNT>
1

> <PUBCHEM_CONFORMER_ID>
0006BE0B0000000A

> <PUBCHEM_MMFF94_ENERGY>
140.9396

> <PUBCHEM_FEATURE_SELFOVERLAP>
81.472

> <PUBCHEM_SHAPE_FINGERPRINT>
10100884 174 8573554601127573589
10165383 225 17346599672776232354
10299344 5 18412826889325587093
106641 1 7420943167240629974
10670039 82 18272656762103604613
11135926 11 17489588974447462683
12107698 1 18261109669244728508
12202916 173 18409445887108213078
12664476 115 18409730677847038381
12857493 111 16515404084004154360
13782708 43 15285632231421973093
13811026 1 18260544507055816398
13914758 101 18060699511865154752
14068700 675 18186800271056229624
14118638 360 15913057559596874068
14150022 121 9799425415969808447
14294032 229 17489594510043311157
14856354 85 17131829834052395155
15131766 46 11094151992516614886
15183329 4 18343586244009676693
15274700 256 18272374188285250348
15301273 46 8430320130237806568
1577012 14 18201725084856501937
18608769 82 17988920055049891603
19841028 212 16950833821624477350
20105231 36 18338795608230815883
21033648 29 16916501429666365816
22224240 67 6627749981426146476
23559900 14 18340488842745767480
23576562 1 17702095868149434766
249057 3 15410887445428700108
3004659 81 18334296452791303072
335352 9 17989200452891780806
335507 130 18409163295487010711
3383291 50 14996283579088742695
4098825 35 18412828014311866452
4325135 7 15913327983696370495
4339292 15 16950575325318483471
45266715 3 18337379553018008238
504579 68 18341623599254612615
6081469 158 17560804351547958134
6086070 43 17703503298873182088
6523845 18 16415484830699556534
9663363 56 16298108704459494609

> <PUBCHEM_SHAPE_MULTIPOLES>
735.07
26.13
2.2
1.68
4.12
0.42
-0.33
-2.57
8.44
2.07
0.09
0.39
-0.4
-1.1

> <PUBCHEM_SHAPE_SELFOVERLAP>
1576.42

> <PUBCHEM_SHAPE_VOLUME>
403.5

> <PUBCHEM_COORDINATE_TYPE>
2
5
10

$$$$

