253326
  -OEChem-07051213073D

 45 48  0     1  0  0  0  0  0999 V2000
    0.6541   -0.0772   -1.3372 F   0  0  0  0  0  0  0  0  0  0  0  0
   -3.7254   -0.6951   -0.7189 O   0  0  0  0  0  0  0  0  0  0  0  0
    0.2179   -2.7519    0.6050 O   0  0  0  0  0  0  0  0  0  0  0  0
   -5.8026    0.1536   -0.9202 O   0  0  0  0  0  0  0  0  0  0  0  0
    5.5295    0.6181   -1.3851 O   0  0  0  0  0  0  0  0  0  0  0  0
   -0.4020    0.7031    0.6182 C   0  0  1  0  0  0  0  0  0  0  0  0
   -1.7971    0.6880   -0.0764 C   0  0  1  0  0  0  0  0  0  0  0  0
    0.5223   -0.3951   -0.0029 C   0  0  2  0  0  0  0  0  0  0  0  0
   -2.4906   -0.6870    0.0445 C   0  0  2  0  0  0  0  0  0  0  0  0
    1.9742   -0.3964    0.5936 C   0  0  1  0  0  0  0  0  0  0  0  0
    0.2631    2.0902    0.5139 C   0  0  0  0  0  0  0  0  0  0  0  0
   -1.5911   -1.7591   -0.5784 C   0  0  0  0  0  0  0  0  0  0  0  0
   -0.2277   -1.7372    0.0751 C   0  0  0  0  0  0  0  0  0  0  0  0
   -2.7664    1.7639    0.4104 C   0  0  0  0  0  0  0  0  0  0  0  0
    2.5189    1.0319    0.4806 C   0  0  0  0  0  0  0  0  0  0  0  0
    1.6709    2.1120    1.0986 C   0  0  0  0  0  0  0  0  0  0  0  0
   -2.8630   -1.1043    1.4819 C   0  0  0  0  0  0  0  0  0  0  0  0
    2.0214   -0.8121    2.0825 C   0  0  0  0  0  0  0  0  0  0  0  0
   -4.0659    1.6988   -0.3740 C   0  0  0  0  0  0  0  0  0  0  0  0
    2.8555   -1.3774   -0.1694 C   0  0  0  0  0  0  0  0  0  0  0  0
   -4.6162    0.3223   -0.6477 C   0  0  0  0  0  0  0  0  0  0  0  0
    3.6551    1.3519   -0.1585 C   0  0  0  0  0  0  0  0  0  0  0  0
    3.9870   -1.0651   -0.8092 C   0  0  0  0  0  0  0  0  0  0  0  0
    4.4782    0.3241   -0.8265 C   0  0  0  0  0  0  0  0  0  0  0  0
   -0.5491    0.4897    1.6838 H   0  0  0  0  0  0  0  0  0  0  0  0
   -1.6347    0.8886   -1.1468 H   0  0  0  0  0  0  0  0  0  0  0  0
   -0.3295    2.8376    1.0525 H   0  0  0  0  0  0  0  0  0  0  0  0
    0.2979    2.4066   -0.5368 H   0  0  0  0  0  0  0  0  0  0  0  0
   -1.4660   -1.5978   -1.6559 H   0  0  0  0  0  0  0  0  0  0  0  0
   -2.0347   -2.7563   -0.4719 H   0  0  0  0  0  0  0  0  0  0  0  0
   -2.3476    2.7666    0.2755 H   0  0  0  0  0  0  0  0  0  0  0  0
   -2.9627    1.6551    1.4827 H   0  0  0  0  0  0  0  0  0  0  0  0
    1.6294    1.9763    2.1854 H   0  0  0  0  0  0  0  0  0  0  0  0
    2.1055    3.1057    0.9337 H   0  0  0  0  0  0  0  0  0  0  0  0
   -3.3396   -2.0924    1.4780 H   0  0  0  0  0  0  0  0  0  0  0  0
   -1.9974   -1.1542    2.1479 H   0  0  0  0  0  0  0  0  0  0  0  0
   -3.6003   -0.4286    1.9266 H   0  0  0  0  0  0  0  0  0  0  0  0
    1.8079   -1.8761    2.2272 H   0  0  0  0  0  0  0  0  0  0  0  0
    3.0177   -0.6361    2.5090 H   0  0  0  0  0  0  0  0  0  0  0  0
    1.3071   -0.2569    2.6980 H   0  0  0  0  0  0  0  0  0  0  0  0
   -3.9197    2.1735   -1.3520 H   0  0  0  0  0  0  0  0  0  0  0  0
   -4.8299    2.2725    0.1629 H   0  0  0  0  0  0  0  0  0  0  0  0
    2.5601   -2.4235   -0.1818 H   0  0  0  0  0  0  0  0  0  0  0  0
    4.0054    2.3767   -0.2239 H   0  0  0  0  0  0  0  0  0  0  0  0
    4.5722   -1.8203   -1.3207 H   0  0  0  0  0  0  0  0  0  0  0  0
  1  8  1  0  0  0  0
  2  9  1  0  0  0  0
  2 21  1  0  0  0  0
  3 13  2  0  0  0  0
  4 21  2  0  0  0  0
  5 24  2  0  0  0  0
  6  7  1  0  0  0  0
  6  8  1  0  0  0  0
  6 11  1  0  0  0  0
  6 25  1  0  0  0  0
  7  9  1  0  0  0  0
  7 14  1  0  0  0  0
  7 26  1  0  0  0  0
  8 10  1  0  0  0  0
  8 13  1  0  0  0  0
  9 12  1  0  0  0  0
  9 17  1  0  0  0  0
 10 15  1  0  0  0  0
 10 18  1  0  0  0  0
 10 20  1  0  0  0  0
 11 16  1  0  0  0  0
 11 27  1  0  0  0  0
 11 28  1  0  0  0  0
 12 13  1  0  0  0  0
 12 29  1  0  0  0  0
 12 30  1  0  0  0  0
 14 19  1  0  0  0  0
 14 31  1  0  0  0  0
 14 32  1  0  0  0  0
 15 16  1  0  0  0  0
 15 22  2  0  0  0  0
 16 33  1  0  0  0  0
 16 34  1  0  0  0  0
 17 35  1  0  0  0  0
 17 36  1  0  0  0  0
 17 37  1  0  0  0  0
 18 38  1  0  0  0  0
 18 39  1  0  0  0  0
 18 40  1  0  0  0  0
 19 21  1  0  0  0  0
 19 41  1  0  0  0  0
 19 42  1  0  0  0  0
 20 23  2  0  0  0  0
 20 43  1  0  0  0  0
 22 24  1  0  0  0  0
 22 44  1  0  0  0  0
 23 24  1  0  0  0  0
 23 45  1  0  0  0  0
M  END
> <PUBCHEM_COMPOUND_CID>
253326

> <PUBCHEM_CONFORMER_RMSD>
0.6

> <PUBCHEM_CONFORMER_DIVERSEORDER>
1

> <PUBCHEM_MMFF94_PARTIAL_CHARGES>
21
1 -0.34
10 0.28
12 0.06
13 0.45
15 -0.28
16 0.14
19 0.06
2 -0.43
20 -0.29
21 0.66
22 -0.14
23 -0.14
24 0.54
3 -0.57
4 -0.57
43 0.15
44 0.15
45 0.15
5 -0.57
8 0.4
9 0.28

> <PUBCHEM_EFFECTIVE_ROTOR_COUNT>
1.2

> <PUBCHEM_PHARMACOPHORE_FEATURES>
7
1 3 acceptor
1 4 acceptor
1 5 acceptor
6 10 15 20 22 23 24 rings
6 2 7 9 14 19 21 rings
6 6 7 8 9 12 13 rings
6 6 8 10 11 15 16 rings

> <PUBCHEM_HEAVY_ATOM_COUNT>
24

> <PUBCHEM_ATOM_DEF_STEREO_COUNT>
5

> <PUBCHEM_ATOM_UDEF_STEREO_COUNT>
0

> <PUBCHEM_BOND_DEF_STEREO_COUNT>
0

> <PUBCHEM_BOND_UDEF_STEREO_COUNT>
0

> <PUBCHEM_ISOTOPIC_ATOM_COUNT>
0

> <PUBCHEM_COMPONENT_COUNT>
1

> <PUBCHEM_CACTVS_TAUTO_COUNT>
6

> <PUBCHEM_CONFORMER_ID>
0003DD8E00000001

> <PUBCHEM_MMFF94_ENERGY>
67.7453

> <PUBCHEM_FEATURE_SELFOVERLAP>
35.583

> <PUBCHEM_SHAPE_FINGERPRINT>
10366900 7 18413674612817151633
10498660 4 18341898484738705645
10693767 8 17895768399253506599
10759866 29 18060422460135021098
10863032 1 18273212010557788690
10967382 1 18408610266053344761
11961588 58 17988644064641111276
12011746 2 18409167705658852797
12236239 1 17846780710712246782
12403259 415 18410864265523866301
12788726 201 18263363749295872720
13140716 1 18337958990305542640
13224815 77 18201716249755274841
13464514 151 18265894838290357577
13583140 156 16773790390420802737
13760787 19 17775569719147705851
14790565 3 18191573366627510481
15099037 51 18334576854036615871
15163728 17 16843624888280574949
15196674 1 18335704974647486569
15230672 131 13440859979380887787
15238133 3 18199482123621463936
1601671 61 18410577326646849285
16752209 62 18334581277726492817
16945 1 18192997019604985128
17349148 13 16805322193350388333
17492 54 18340757192133395492
1813 80 5328750673356629304
18186145 218 18339374019110921717
18608769 82 18270112397549336355
19862831 5 18334576840972463272
200 152 16950002534808781389
20775438 99 16884180129573172391
20871999 31 18335695053183290588
21033648 29 18339647745961544361
21069387 34 14490190496914923686
21267235 1 18260544516067568701
21285901 2 17968086586226406924
21637258 2 15141233387005925724
21857420 4 15004793674301536597
221357 26 18187650214992651141
22393880 68 18335712636921877461
23402539 116 17968090962740000036
23493267 7 18060134323484835922
23558518 356 17624142598506147592
23559900 14 18114188467138425472
2748010 2 18409738326334232969
296302 2 16128656344673784232
3004659 81 18340766052983424918
3286 77 15791736308131430482
34934 24 18263089838178082208
350125 39 18339913828049369705
3759504 43 17917425393606557690
4280585 95 17251731859981298478
4340502 62 16702299070192226922
474 4 17418085482519173956
495365 180 17313680252144341146
633830 44 18261968370482349469
9709674 26 18117566123666199803

> <PUBCHEM_SHAPE_MULTIPOLES>
463.16
9.35
2.23
1.27
2.29
0.04
0.34
-1.68
-4.12
0.04
0.41
-0.5
0.16
0.15

> <PUBCHEM_SHAPE_SELFOVERLAP>
1015.436

> <PUBCHEM_SHAPE_VOLUME>
249.3

> <PUBCHEM_COORDINATE_TYPE>
2
5
10

$$$$

