442625
  -OEChem-07051212583D

 35 36  0     1  0  0  0  0  0999 V2000
    4.5392    0.3177    0.0017 O   0  0  0  0  0  0  0  0  0  0  0  0
   -2.4293   -0.6994    0.9085 N   0  0  0  0  0  0  0  0  0  0  0  0
    2.2366   -0.0145    0.0576 N   0  0  0  0  0  0  0  0  0  0  0  0
   -1.5320    0.2958    0.3036 C   0  0  2  0  0  0  0  0  0  0  0  0
   -2.0904    0.7812   -1.0437 C   0  0  0  0  0  0  0  0  0  0  0  0
   -0.1593   -0.2776    0.1125 C   0  0  0  0  0  0  0  0  0  0  0  0
   -3.5101    1.3223   -0.8982 C   0  0  0  0  0  0  0  0  0  0  0  0
   -4.4010    0.3017   -0.2004 C   0  0  0  0  0  0  0  0  0  0  0  0
   -0.0899   -1.7564   -0.1632 C   0  0  0  0  0  0  0  0  0  0  0  0
   -3.7772   -0.1647    1.1116 C   0  0  0  0  0  0  0  0  0  0  0  0
    1.2551   -2.1502   -0.7652 C   0  0  0  0  0  0  0  0  0  0  0  0
    2.3977   -1.4755   -0.0186 C   0  0  0  0  0  0  0  0  0  0  0  0
    0.9461    0.4859    0.1775 C   0  0  0  0  0  0  0  0  0  0  0  0
    3.3964    0.7731    0.1095 C   0  0  0  0  0  0  0  0  0  0  0  0
    3.2179    2.2605    0.3067 C   0  0  0  0  0  0  0  0  0  0  0  0
   -1.4657    1.1548    0.9863 H   0  0  0  0  0  0  0  0  0  0  0  0
   -2.0957   -0.0382   -1.7754 H   0  0  0  0  0  0  0  0  0  0  0  0
   -1.4503    1.5689   -1.4606 H   0  0  0  0  0  0  0  0  0  0  0  0
   -3.9210    1.5690   -1.8833 H   0  0  0  0  0  0  0  0  0  0  0  0
   -3.4897    2.2513   -0.3153 H   0  0  0  0  0  0  0  0  0  0  0  0
   -5.3867    0.7401   -0.0081 H   0  0  0  0  0  0  0  0  0  0  0  0
   -4.5569   -0.5602   -0.8614 H   0  0  0  0  0  0  0  0  0  0  0  0
   -0.2409   -2.3100    0.7718 H   0  0  0  0  0  0  0  0  0  0  0  0
   -0.8743   -2.0637   -0.8647 H   0  0  0  0  0  0  0  0  0  0  0  0
   -2.0554   -0.9830    1.8148 H   0  0  0  0  0  0  0  0  0  0  0  0
   -3.7494    0.6609    1.8334 H   0  0  0  0  0  0  0  0  0  0  0  0
   -4.4052   -0.9490    1.5480 H   0  0  0  0  0  0  0  0  0  0  0  0
    1.3749   -3.2390   -0.7428 H   0  0  0  0  0  0  0  0  0  0  0  0
    1.2828   -1.8448   -1.8195 H   0  0  0  0  0  0  0  0  0  0  0  0
    2.4597   -1.8466    1.0122 H   0  0  0  0  0  0  0  0  0  0  0  0
    3.3473   -1.7213   -0.5068 H   0  0  0  0  0  0  0  0  0  0  0  0
    0.8416    1.5512    0.3428 H   0  0  0  0  0  0  0  0  0  0  0  0
    2.7297    2.4610    1.2642 H   0  0  0  0  0  0  0  0  0  0  0  0
    2.6400    2.6872   -0.5175 H   0  0  0  0  0  0  0  0  0  0  0  0
    4.1995    2.7447    0.3186 H   0  0  0  0  0  0  0  0  0  0  0  0
  1 14  2  0  0  0  0
  2  4  1  0  0  0  0
  2 10  1  0  0  0  0
  2 25  1  0  0  0  0
  3 12  1  0  0  0  0
  3 13  1  0  0  0  0
  3 14  1  0  0  0  0
  4  5  1  0  0  0  0
  4  6  1  0  0  0  0
  4 16  1  0  0  0  0
  5  7  1  0  0  0  0
  5 17  1  0  0  0  0
  5 18  1  0  0  0  0
  6  9  1  0  0  0  0
  6 13  2  0  0  0  0
  7  8  1  0  0  0  0
  7 19  1  0  0  0  0
  7 20  1  0  0  0  0
  8 10  1  0  0  0  0
  8 21  1  0  0  0  0
  8 22  1  0  0  0  0
  9 11  1  0  0  0  0
  9 23  1  0  0  0  0
  9 24  1  0  0  0  0
 10 26  1  0  0  0  0
 10 27  1  0  0  0  0
 11 12  1  0  0  0  0
 11 28  1  0  0  0  0
 11 29  1  0  0  0  0
 12 30  1  0  0  0  0
 12 31  1  0  0  0  0
 13 32  1  0  0  0  0
 14 15  1  0  0  0  0
 15 33  1  0  0  0  0
 15 34  1  0  0  0  0
 15 35  1  0  0  0  0
M  END
> <PUBCHEM_COMPOUND_CID>
442625

> <PUBCHEM_CONFORMER_RMSD>
0.6

> <PUBCHEM_CONFORMER_DIVERSEORDER>
1
24
8
13
9
22
23
19
7
17
12
15
20
14
10
25
2
16
6
5
4
21
18
11
3

> <PUBCHEM_MMFF94_PARTIAL_CHARGES>
13
1 -0.57
10 0.27
12 0.3
13 -0.04
14 0.57
15 0.06
2 -0.9
25 0.36
3 -0.47
32 0.15
4 0.41
6 -0.28
9 0.14

> <PUBCHEM_EFFECTIVE_ROTOR_COUNT>
4

> <PUBCHEM_PHARMACOPHORE_FEATURES>
5
1 1 acceptor
1 2 cation
1 2 donor
6 2 4 5 7 8 10 rings
6 3 6 9 11 12 13 rings

> <PUBCHEM_HEAVY_ATOM_COUNT>
15

> <PUBCHEM_ATOM_DEF_STEREO_COUNT>
1

> <PUBCHEM_ATOM_UDEF_STEREO_COUNT>
0

> <PUBCHEM_BOND_DEF_STEREO_COUNT>
0

> <PUBCHEM_BOND_UDEF_STEREO_COUNT>
0

> <PUBCHEM_ISOTOPIC_ATOM_COUNT>
0

> <PUBCHEM_COMPONENT_COUNT>
1

> <PUBCHEM_CACTVS_TAUTO_COUNT>
1

> <PUBCHEM_CONFORMER_ID>
0006C10100000001

> <PUBCHEM_MMFF94_ENERGY>
16.4362

> <PUBCHEM_FEATURE_SELFOVERLAP>
25.371

> <PUBCHEM_SHAPE_FINGERPRINT>
10608611 8 18271247235003319589
107287 299 18334575767399476751
11031198 65 18333450958240065829
11132069 177 17704351091621688829
11471102 20 18335138726079872302
11543360 7 14418418737266688976
11615757 297 18040715866012307105
12119455 92 18411705378437659362
12236239 1 17022902371870093001
13214271 11 18273497858254142813
13296909 8 15195299637359666791
13380535 76 18408885122670497138
13583140 156 17130734719711409840
14026960 21 18200307702198411332
14123255 52 18336551512664611432
14415576 193 18411698790063562836
14897335 6 18334017176859089886
15099037 37 17988073371336532747
15219456 202 18343018938795802495
15279308 16 18201157745362140461
15309172 13 18335416846523659467
15375358 24 18201441402303491845
15775835 57 18187368718182044263
16945 1 18261108642404562406
1813 80 16882145242614127174
18175812 5 18202282502406677903
18186145 218 18113896044347813500
19786989 88 18259983799086055039
200 152 18113343024590707245
20279233 1 18202278130546851291
204376 136 18335138640148786888
20645477 56 18131069381319319933
20645477 70 18262523731112793655
20671657 53 17828194725165563734
21499 59 18260551099667007478
21524375 3 18336265648210238226
21639500 275 18187938273716168713
21730867 7 18411133662482367118
22096605 113 18408892849263466983
22854114 111 18408604781453941126
22854114 59 18410572881635064977
228727 97 17095519612720303689
231179 274 18413389847763519278
23402539 116 17703515407134737175
23402655 69 18188499085303416997
23557571 272 17560799970116950405
23559900 14 17560518524925649890
25 1 18334014995089251136
2748010 2 18270952544227609815
3060560 45 18259984899014187222
449060 50 18409722955099675265
4990 188 17458054963402734524
5104073 3 18272368732784890921
633830 44 17749654251471465653
7364860 26 18263078967579316086
77492 1 16950567730982625715
81228 2 17471311560287563986
81539 233 18413387648656179574
8272917 22 18042117820810539759

> <PUBCHEM_SHAPE_MULTIPOLES>
292.86
8.03
1.93
0.93
1.13
0.25
-0.01
-3.17
0.4
-1.63
-0.27
0.76
-0.01
0.85

> <PUBCHEM_SHAPE_SELFOVERLAP>
593.829

> <PUBCHEM_SHAPE_VOLUME>
169.2

> <PUBCHEM_COORDINATE_TYPE>
2
5
10

$$$$

