440483
  -OEChem-07051212493D

 47 49  0     1  0  0  0  0  0999 V2000
   -4.8233   -1.7664    1.1531 O   0  0  0  0  0  0  0  0  0  0  0  0
   -0.7431    2.9598    0.0747 O   0  0  0  0  0  0  0  0  0  0  0  0
    2.0198   -2.1551    0.1006 O   0  0  0  0  0  0  0  0  0  0  0  0
    4.7468   -2.5610   -0.1101 O   0  0  0  0  0  0  0  0  0  0  0  0
   -1.9309   -0.3547   -0.1763 C   0  0  2  0  0  0  0  0  0  0  0  0
   -3.4589   -0.1607   -0.0629 C   0  0  2  0  0  0  0  0  0  0  0  0
   -1.2600    0.8032   -0.9108 C   0  0  1  0  0  0  0  0  0  0  0  0
   -1.7734   -1.7727   -0.7148 C   0  0  0  0  0  0  0  0  0  0  0  0
   -3.7024    1.0316    0.8591 C   0  0  0  0  0  0  0  0  0  0  0  0
   -3.8177   -1.5250    0.4985 C   0  0  0  0  0  0  0  0  0  0  0  0
   -2.7839   -2.5709    0.1203 C   0  0  0  0  0  0  0  0  0  0  0  0
   -3.0309    2.2972    0.3150 C   0  0  0  0  0  0  0  0  0  0  0  0
   -1.5842    2.0809   -0.1207 C   0  0  0  0  0  0  0  0  0  0  0  0
   -4.2189   -0.0114   -1.3920 C   0  0  0  0  0  0  0  0  0  0  0  0
    0.2483    0.5993   -1.0337 C   0  0  0  0  0  0  0  0  0  0  0  0
    0.8956    0.4292    0.3385 C   0  0  0  0  0  0  0  0  0  0  0  0
    2.3820    0.2064    0.2238 C   0  0  0  0  0  0  0  0  0  0  0  0
    3.2451    1.2946    0.2324 C   0  0  0  0  0  0  0  0  0  0  0  0
    2.8702   -1.0889    0.1101 C   0  0  0  0  0  0  0  0  0  0  0  0
    4.6198    1.0839    0.1258 C   0  0  0  0  0  0  0  0  0  0  0  0
    4.2449   -1.2996    0.0034 C   0  0  0  0  0  0  0  0  0  0  0  0
    2.7353    2.6934    0.3545 C   0  0  0  0  0  0  0  0  0  0  0  0
    5.1198   -0.2131    0.0113 C   0  0  0  0  0  0  0  0  0  0  0  0
   -1.5535   -0.3730    0.8581 H   0  0  0  0  0  0  0  0  0  0  0  0
   -1.6695    0.9266   -1.9191 H   0  0  0  0  0  0  0  0  0  0  0  0
   -0.7708   -2.1794   -0.5887 H   0  0  0  0  0  0  0  0  0  0  0  0
   -2.0199   -1.8258   -1.7810 H   0  0  0  0  0  0  0  0  0  0  0  0
   -3.3086    0.8159    1.8613 H   0  0  0  0  0  0  0  0  0  0  0  0
   -4.7765    1.2095    0.9914 H   0  0  0  0  0  0  0  0  0  0  0  0
   -2.3221   -2.9566    1.0337 H   0  0  0  0  0  0  0  0  0  0  0  0
   -3.2363   -3.3786   -0.4590 H   0  0  0  0  0  0  0  0  0  0  0  0
   -3.0473    3.0710    1.0907 H   0  0  0  0  0  0  0  0  0  0  0  0
   -3.5806    2.6871   -0.5484 H   0  0  0  0  0  0  0  0  0  0  0  0
   -4.0914   -0.8816   -2.0447 H   0  0  0  0  0  0  0  0  0  0  0  0
   -5.2957    0.0794   -1.2043 H   0  0  0  0  0  0  0  0  0  0  0  0
   -3.9123    0.8720   -1.9583 H   0  0  0  0  0  0  0  0  0  0  0  0
    0.6901    1.4538   -1.5604 H   0  0  0  0  0  0  0  0  0  0  0  0
    0.4508   -0.2735   -1.6665 H   0  0  0  0  0  0  0  0  0  0  0  0
    0.4729   -0.4122    0.8958 H   0  0  0  0  0  0  0  0  0  0  0  0
    0.7011    1.2780    0.9992 H   0  0  0  0  0  0  0  0  0  0  0  0
    5.3158    1.9186    0.1307 H   0  0  0  0  0  0  0  0  0  0  0  0
    3.5518    3.4221    0.2914 H   0  0  0  0  0  0  0  0  0  0  0  0
    2.0410    2.9364   -0.4540 H   0  0  0  0  0  0  0  0  0  0  0  0
    2.2499    2.8490    1.3233 H   0  0  0  0  0  0  0  0  0  0  0  0
    6.1918   -0.3707   -0.0715 H   0  0  0  0  0  0  0  0  0  0  0  0
    1.1770   -1.8903   -0.2942 H   0  0  0  0  0  0  0  0  0  0  0  0
    4.0028   -3.1881   -0.0990 H   0  0  0  0  0  0  0  0  0  0  0  0
  1 10  2  0  0  0  0
  2 13  2  0  0  0  0
  3 19  1  0  0  0  0
  3 46  1  0  0  0  0
  4 21  1  0  0  0  0
  4 47  1  0  0  0  0
  5  6  1  0  0  0  0
  5  7  1  0  0  0  0
  5  8  1  0  0  0  0
  5 24  1  0  0  0  0
  6  9  1  0  0  0  0
  6 10  1  0  0  0  0
  6 14  1  0  0  0  0
  7 13  1  0  0  0  0
  7 15  1  0  0  0  0
  7 25  1  0  0  0  0
  8 11  1  0  0  0  0
  8 26  1  0  0  0  0
  8 27  1  0  0  0  0
  9 12  1  0  0  0  0
  9 28  1  0  0  0  0
  9 29  1  0  0  0  0
 10 11  1  0  0  0  0
 11 30  1  0  0  0  0
 11 31  1  0  0  0  0
 12 13  1  0  0  0  0
 12 32  1  0  0  0  0
 12 33  1  0  0  0  0
 14 34  1  0  0  0  0
 14 35  1  0  0  0  0
 14 36  1  0  0  0  0
 15 16  1  0  0  0  0
 15 37  1  0  0  0  0
 15 38  1  0  0  0  0
 16 17  1  0  0  0  0
 16 39  1  0  0  0  0
 16 40  1  0  0  0  0
 17 18  2  0  0  0  0
 17 19  1  0  0  0  0
 18 20  1  0  0  0  0
 18 22  1  0  0  0  0
 19 21  2  0  0  0  0
 20 23  2  0  0  0  0
 20 41  1  0  0  0  0
 21 23  1  0  0  0  0
 22 42  1  0  0  0  0
 22 43  1  0  0  0  0
 22 44  1  0  0  0  0
 23 45  1  0  0  0  0
M  END
> <PUBCHEM_COMPOUND_CID>
440483

> <PUBCHEM_CONFORMER_RMSD>
0.6

> <PUBCHEM_CONFORMER_DIVERSEORDER>
1
7
3
12
11
5
4
2
9
10
6
8

> <PUBCHEM_MMFF94_PARTIAL_CHARGES>
22
1 -0.57
10 0.45
11 0.06
12 0.06
13 0.45
16 0.14
17 -0.14
18 -0.14
19 0.08
2 -0.57
20 -0.15
21 0.08
22 0.14
23 -0.15
3 -0.53
4 -0.53
41 0.15
45 0.15
46 0.45
47 0.45
6 0.06
7 0.06

> <PUBCHEM_EFFECTIVE_ROTOR_COUNT>
4

> <PUBCHEM_PHARMACOPHORE_FEATURES>
7
1 1 acceptor
1 2 acceptor
1 3 donor
1 4 donor
5 5 6 8 10 11 rings
6 17 18 19 20 21 23 rings
6 5 6 7 9 12 13 rings

> <PUBCHEM_HEAVY_ATOM_COUNT>
23

> <PUBCHEM_ATOM_DEF_STEREO_COUNT>
3

> <PUBCHEM_ATOM_UDEF_STEREO_COUNT>
0

> <PUBCHEM_BOND_DEF_STEREO_COUNT>
0

> <PUBCHEM_BOND_UDEF_STEREO_COUNT>
0

> <PUBCHEM_ISOTOPIC_ATOM_COUNT>
0

> <PUBCHEM_COMPONENT_COUNT>
1

> <PUBCHEM_CACTVS_TAUTO_COUNT>
422

> <PUBCHEM_CONFORMER_ID>
0006B8A300000001

> <PUBCHEM_MMFF94_ENERGY>
68.2021

> <PUBCHEM_FEATURE_SELFOVERLAP>
35.591

> <PUBCHEM_SHAPE_FINGERPRINT>
10366900 7 18187093827305782633
10616163 171 18408885122575395830
1100329 8 17330839535133762531
11370993 144 18336261340046557149
11552529 35 17896320220867242875
11578080 2 17773615844373702933
12107183 9 17975690911506744002
12553582 1 18337681801674368815
12633257 1 18262513835259781912
13140716 1 18336539516905492761
13167823 11 18411981381937232394
13224815 77 17989210330393538232
13533116 47 18334863783832750063
13544653 18 18341613651329626295
13583140 156 18334867086288600237
14223421 5 18411422803917919316
14341114 176 18408599258352981704
14420673 8 18049717714002197414
14787075 74 17913771617667022000
15196674 1 18410856576830227762
15209289 33 18272931613612666066
15788980 27 16415484861096669094
17349148 13 16988843869697166200
17492 89 18411699881106809138
17804303 29 18409443725879216046
17834074 16 18410295813289427732
1813 80 17489867115901525132
200 152 18187939373533751901
20681677 274 18410579483052760936
21065198 57 18409731785310082928
21065199 12 18408044009265405224
21267235 1 18411129212759163374
21673915 165 18411982442767774146
221490 88 18411135844863693874
23559900 14 18411146817993893384
23566358 27 18341041926832158212
2838139 119 5327084806003952187
2871803 45 18343591749930955350
312423 11 18411408519099279508
335352 9 18265334091201647693
350125 39 18338797819631999396
4214541 1 18410012164911767152
5104073 3 18335987553573081560
6287921 2 18270396071428022364
6823239 73 18115294718129116926
77779 3 18410292532077020256
9709674 26 18334857272388393222

> <PUBCHEM_SHAPE_MULTIPOLES>
449.85
10.68
3.05
0.91
5.45
0.27
-0.12
-3.49
1.11
-0.09
0.33
-0.83
-0.01
0.4

> <PUBCHEM_SHAPE_SELFOVERLAP>
967.643

> <PUBCHEM_SHAPE_VOLUME>
248.7

> <PUBCHEM_COORDINATE_TYPE>
2
5
10

$$$$

