656601
  -OEChem-07051213032D

 45 45  0     1  0  0  0  0  0999 V2000
    8.6841    3.7126    0.0000 Cl  0  0  0  0  0  0  0  0  0  0  0  0
    4.0010    4.8100    0.0000 O   0  0  0  0  0  0  0  0  0  0  0  0
    3.1350    0.3100    0.0000 O   0  0  0  0  0  0  0  0  0  0  0  0
    6.6651    1.2858    0.0000 O   0  0  0  0  0  0  0  0  0  0  0  0
    2.2690    5.8100    0.0000 N   0  0  0  0  0  0  0  0  0  0  0  0
    4.8950    1.2753    0.0000 N   0  0  0  0  0  0  0  0  0  0  0  0
    2.2690    4.8100    0.0000 C   0  0  3  0  0  0  0  0  0  0  0  0
    3.1350    4.3100    0.0000 C   0  0  3  0  0  0  0  0  0  0  0  0
    1.4030    4.3100    0.0000 C   0  0  0  0  0  0  0  0  0  0  0  0
    3.1350    3.3100    0.0000 C   0  0  0  0  0  0  0  0  0  0  0  0
    1.4030    6.3100    0.0000 C   0  0  0  0  0  0  0  0  0  0  0  0
    4.0010    2.8100    0.0000 C   0  0  0  0  0  0  0  0  0  0  0  0
    0.5369    4.8100    0.0000 C   0  0  0  0  0  0  0  0  0  0  0  0
    2.2690    2.8100    0.0000 C   0  0  0  0  0  0  0  0  0  0  0  0
    4.0010    1.8100    0.0000 C   0  0  0  0  0  0  0  0  0  0  0  0
    1.4030    7.3100    0.0000 C   0  0  0  0  0  0  0  0  0  0  0  0
    0.5369    5.8100    0.0000 C   0  0  0  0  0  0  0  0  0  0  0  0
    3.1350    1.3100    0.0000 C   0  0  0  0  0  0  0  0  0  0  0  0
    4.8950    3.3447    0.0000 C   0  0  0  0  0  0  0  0  0  0  0  0
    2.2690    1.8100    0.0000 C   0  0  0  0  0  0  0  0  0  0  0  0
    5.8010    2.8308    0.0000 C   0  0  0  0  0  0  0  0  0  0  0  0
    5.8010    1.7892    0.0000 C   0  0  0  0  0  0  0  0  0  0  0  0
    2.8059    5.1200    0.0000 H   0  0  0  0  0  0  0  0  0  0  0  0
    3.1350    4.9300    0.0000 H   0  0  0  0  0  0  0  0  0  0  0  0
    1.0044    3.8350    0.0000 H   0  0  0  0  0  0  0  0  0  0  0  0
    1.8015    3.8350    0.0000 H   0  0  0  0  0  0  0  0  0  0  0  0
    2.8059    6.1200    0.0000 H   0  0  0  0  0  0  0  0  0  0  0  0
    1.4030    5.6900    0.0000 H   0  0  0  0  0  0  0  0  0  0  0  0
    0.8469    5.3469    0.0000 H   0  0  0  0  0  0  0  0  0  0  0  0
    0.0000    5.1200    0.0000 H   0  0  0  0  0  0  0  0  0  0  0  0
    0.2269    4.2731    0.0000 H   0  0  0  0  0  0  0  0  0  0  0  0
    1.7320    3.1200    0.0000 H   0  0  0  0  0  0  0  0  0  0  0  0
    2.0230    7.3100    0.0000 H   0  0  0  0  0  0  0  0  0  0  0  0
    1.4030    7.9300    0.0000 H   0  0  0  0  0  0  0  0  0  0  0  0
    0.7830    7.3100    0.0000 H   0  0  0  0  0  0  0  0  0  0  0  0
    0.2269    6.3469    0.0000 H   0  0  0  0  0  0  0  0  0  0  0  0
    0.0000    5.5000    0.0000 H   0  0  0  0  0  0  0  0  0  0  0  0
    0.8469    5.2731    0.0000 H   0  0  0  0  0  0  0  0  0  0  0  0
    4.0010    5.4300    0.0000 H   0  0  0  0  0  0  0  0  0  0  0  0
    4.8878    3.9646    0.0000 H   0  0  0  0  0  0  0  0  0  0  0  0
    1.7320    1.5000    0.0000 H   0  0  0  0  0  0  0  0  0  0  0  0
    4.8878    0.6554    0.0000 H   0  0  0  0  0  0  0  0  0  0  0  0
    6.3368    3.1429    0.0000 H   0  0  0  0  0  0  0  0  0  0  0  0
    2.5981    0.0000    0.0000 H   0  0  0  0  0  0  0  0  0  0  0  0
    9.6841    3.7126    0.0000 H   0  0  0  0  0  0  0  0  0  0  0  0
  1 45  1  0  0  0  0
  2  8  1  0  0  0  0
  2 39  1  0  0  0  0
  3 18  1  0  0  0  0
  3 44  1  0  0  0  0
  4 22  2  0  0  0  0
  5  7  1  0  0  0  0
  5 11  1  0  0  0  0
  5 27  1  0  0  0  0
  6 15  1  0  0  0  0
  6 22  1  0  0  0  0
  6 42  1  0  0  0  0
  7  8  1  0  0  0  0
  7  9  1  0  0  0  0
  7 23  1  0  0  0  0
  8 10  1  0  0  0  0
  8 24  1  0  0  0  0
  9 13  1  0  0  0  0
  9 25  1  0  0  0  0
  9 26  1  0  0  0  0
 10 12  2  0  0  0  0
 10 14  1  0  0  0  0
 11 16  1  0  0  0  0
 11 17  1  0  0  0  0
 11 28  1  0  0  0  0
 12 15  1  0  0  0  0
 12 19  1  0  0  0  0
 13 29  1  0  0  0  0
 13 30  1  0  0  0  0
 13 31  1  0  0  0  0
 14 20  2  0  0  0  0
 14 32  1  0  0  0  0
 15 18  2  0  0  0  0
 16 33  1  0  0  0  0
 16 34  1  0  0  0  0
 16 35  1  0  0  0  0
 17 36  1  0  0  0  0
 17 37  1  0  0  0  0
 17 38  1  0  0  0  0
 18 20  1  0  0  0  0
 19 21  2  0  0  0  0
 19 40  1  0  0  0  0
 20 41  1  0  0  0  0
 21 22  1  0  0  0  0
 21 43  1  0  0  0  0
M  END
> <PUBCHEM_COMPOUND_CID>
656601

> <PUBCHEM_COMPOUND_CANONICALIZED>
1

> <PUBCHEM_CACTVS_COMPLEXITY>
397

> <PUBCHEM_CACTVS_HBOND_ACCEPTOR>
4

> <PUBCHEM_CACTVS_HBOND_DONOR>
5

> <PUBCHEM_CACTVS_ROTATABLE_BOND>
5

> <PUBCHEM_CACTVS_SUBSKEYS>
AAADceB7MAAEAAAAAAAAAAAAAAAAAAAAAAAwQAAAAAAAAACBAAAAHgAQCAAADDzhmAYyxoLAAgCIAiVSUACCAAAhIAAIiIAPTMgKNiLSkZOEcAhk1BHY2Yew4PQOoAABQAASEABAAAKAACQgAAAAAAAAAA==

> <PUBCHEM_IUPAC_OPENEYE_NAME>
8-hydroxy-5-[1-hydroxy-2-(isopropylamino)butyl]-1H-quinolin-2-one hydrochloride

> <PUBCHEM_IUPAC_CAS_NAME>
8-hydroxy-5-[1-hydroxy-2-(propan-2-ylamino)butyl]-1H-quinolin-2-one hydrochloride

> <PUBCHEM_IUPAC_NAME>
8-hydroxy-5-[1-hydroxy-2-(propan-2-ylamino)butyl]-1H-quinolin-2-one hydrochloride

> <PUBCHEM_IUPAC_SYSTEMATIC_NAME>
8-oxidanyl-5-[1-oxidanyl-2-(propan-2-ylamino)butyl]-1H-quinolin-2-one hydrochloride

> <PUBCHEM_IUPAC_TRADITIONAL_NAME>
8-hydroxy-5-[1-hydroxy-2-(isopropylamino)butyl]carbostyril hydrochloride

> <PUBCHEM_IUPAC_INCHI>
InChI=1S/C16H22N2O3.ClH/c1-4-12(17-9(2)3)16(21)11-5-7-13(19)15-10(11)6-8-14(20)18-15;/h5-9,12,16-17,19,21H,4H2,1-3H3,(H,18,20);1H

> <PUBCHEM_IUPAC_INCHIKEY>
AEQDBKHAAWUCMT-UHFFFAOYSA-N

> <PUBCHEM_EXACT_MASS>
326.13972

> <PUBCHEM_MOLECULAR_FORMULA>
C16H23ClN2O3

> <PUBCHEM_MOLECULAR_WEIGHT>
326.81842

> <PUBCHEM_OPENEYE_CAN_SMILES>
CCC(C(C1=C2C=CC(=O)NC2=C(C=C1)O)O)NC(C)C.Cl

> <PUBCHEM_OPENEYE_ISO_SMILES>
CCC(C(C1=C2C=CC(=O)NC2=C(C=C1)O)O)NC(C)C.Cl

> <PUBCHEM_CACTVS_TPSA>
81.6

> <PUBCHEM_MONOISOTOPIC_WEIGHT>
326.13972

> <PUBCHEM_TOTAL_CHARGE>
0

> <PUBCHEM_HEAVY_ATOM_COUNT>
22

> <PUBCHEM_ATOM_DEF_STEREO_COUNT>
0

> <PUBCHEM_ATOM_UDEF_STEREO_COUNT>
2

> <PUBCHEM_BOND_DEF_STEREO_COUNT>
0

> <PUBCHEM_BOND_UDEF_STEREO_COUNT>
0

> <PUBCHEM_ISOTOPIC_ATOM_COUNT>
0

> <PUBCHEM_COMPONENT_COUNT>
2

> <PUBCHEM_CACTVS_TAUTO_COUNT>
6

> <PUBCHEM_COORDINATE_TYPE>
1
5
255

> <PUBCHEM_BONDANNOTATIONS>
10  12  8
10  14  8
12  15  8
12  19  8
14  20  8
15  18  8
18  20  8
19  21  8
8  2  3
21  22  8
6  15  8
6  22  8
7  9  3

$$$$

