82143
  -OEChem-07051212563D

 30 33  0     0  0  0  0  0  0999 V2000
    0.5995   -1.0903    0.1431 N   0  0  0  0  0  0  0  0  0  0  0  0
   -1.4354    1.9061    0.1038 N   0  0  0  0  0  0  0  0  0  0  0  0
   -0.4930   -0.2275    0.0796 C   0  0  0  0  0  0  0  0  0  0  0  0
   -0.2506    1.2138    0.1076 C   0  0  0  0  0  0  0  0  0  0  0  0
   -1.8185   -0.4119   -0.0134 C   0  0  0  0  0  0  0  0  0  0  0  0
    1.9285   -0.5684    0.0337 C   0  0  0  0  0  0  0  0  0  0  0  0
    2.1284    0.8390    0.0282 C   0  0  0  0  0  0  0  0  0  0  0  0
   -2.3357    0.9765    0.0255 C   0  0  0  0  0  0  0  0  0  0  0  0
    0.9752    1.7443    0.1013 C   0  0  0  0  0  0  0  0  0  0  0  0
    0.4771   -2.5331    0.3450 C   0  0  0  0  0  0  0  0  0  0  0  0
   -2.7209   -1.5164   -0.1382 C   0  0  0  0  0  0  0  0  0  0  0  0
    3.0710   -1.3826   -0.0852 C   0  0  0  0  0  0  0  0  0  0  0  0
    3.4177    1.3839   -0.0621 C   0  0  0  0  0  0  0  0  0  0  0  0
   -3.8026    1.1586   -0.0219 C   0  0  0  0  0  0  0  0  0  0  0  0
    4.3526   -0.8303   -0.1786 C   0  0  0  0  0  0  0  0  0  0  0  0
   -4.0415   -1.2784   -0.1881 C   0  0  0  0  0  0  0  0  0  0  0  0
    4.5261    0.5489   -0.1620 C   0  0  0  0  0  0  0  0  0  0  0  0
   -4.5781    0.0676   -0.1184 C   0  0  0  0  0  0  0  0  0  0  0  0
    1.1354    2.8165    0.1104 H   0  0  0  0  0  0  0  0  0  0  0  0
   -0.4883   -2.8067    0.7763 H   0  0  0  0  0  0  0  0  0  0  0  0
    0.5965   -3.0678   -0.6031 H   0  0  0  0  0  0  0  0  0  0  0  0
    1.2086   -2.9071    1.0709 H   0  0  0  0  0  0  0  0  0  0  0  0
   -2.3522   -2.5302   -0.2148 H   0  0  0  0  0  0  0  0  0  0  0  0
    2.9976   -2.4662   -0.1204 H   0  0  0  0  0  0  0  0  0  0  0  0
    3.5684    2.4609   -0.0622 H   0  0  0  0  0  0  0  0  0  0  0  0
   -4.2120    2.1597    0.0229 H   0  0  0  0  0  0  0  0  0  0  0  0
    5.2162   -1.4835   -0.2675 H   0  0  0  0  0  0  0  0  0  0  0  0
   -4.7470   -2.0959   -0.2918 H   0  0  0  0  0  0  0  0  0  0  0  0
    5.5229    0.9735   -0.2350 H   0  0  0  0  0  0  0  0  0  0  0  0
   -5.6579    0.1701   -0.1551 H   0  0  0  0  0  0  0  0  0  0  0  0
  1  3  1  0  0  0  0
  1  6  1  0  0  0  0
  1 10  1  0  0  0  0
  2  4  1  0  0  0  0
  2  8  2  0  0  0  0
  3  4  1  0  0  0  0
  3  5  2  0  0  0  0
  4  9  2  0  0  0  0
  5  8  1  0  0  0  0
  5 11  1  0  0  0  0
  6  7  1  0  0  0  0
  6 12  2  0  0  0  0
  7  9  1  0  0  0  0
  7 13  2  0  0  0  0
  8 14  1  0  0  0  0
  9 19  1  0  0  0  0
 10 20  1  0  0  0  0
 10 21  1  0  0  0  0
 10 22  1  0  0  0  0
 11 16  2  0  0  0  0
 11 23  1  0  0  0  0
 12 15  1  0  0  0  0
 12 24  1  0  0  0  0
 13 17  1  0  0  0  0
 13 25  1  0  0  0  0
 14 18  2  0  0  0  0
 14 26  1  0  0  0  0
 15 17  2  0  0  0  0
 15 27  1  0  0  0  0
 16 18  1  0  0  0  0
 16 28  1  0  0  0  0
 17 29  1  0  0  0  0
 18 30  1  0  0  0  0
M  END
> <PUBCHEM_COMPOUND_CID>
82143

> <PUBCHEM_CONFORMER_RMSD>
0.4

> <PUBCHEM_CONFORMER_DIVERSEORDER>
1

> <PUBCHEM_MMFF94_PARTIAL_CHARGES>
27
1 -0.57
10 0.37
11 -0.15
12 -0.15
13 -0.15
14 -0.14
15 -0.15
16 -0.15
17 -0.15
18 -0.15
19 0.15
2 -0.62
23 0.15
24 0.15
25 0.15
26 0.15
27 0.15
28 0.15
29 0.15
3 0.1
30 0.15
4 0.17
5 0.01
6 0.1
7 0.03
8 0.42
9 -0.18

> <PUBCHEM_EFFECTIVE_ROTOR_COUNT>
0

> <PUBCHEM_PHARMACOPHORE_FEATURES>
6
1 1 cation
1 2 acceptor
5 2 3 4 5 8 rings
6 1 3 4 6 7 9 rings
6 5 8 11 14 16 18 rings
6 6 7 12 13 15 17 rings

> <PUBCHEM_HEAVY_ATOM_COUNT>
18

> <PUBCHEM_ATOM_DEF_STEREO_COUNT>
0

> <PUBCHEM_ATOM_UDEF_STEREO_COUNT>
0

> <PUBCHEM_BOND_DEF_STEREO_COUNT>
0

> <PUBCHEM_BOND_UDEF_STEREO_COUNT>
0

> <PUBCHEM_ISOTOPIC_ATOM_COUNT>
0

> <PUBCHEM_COMPONENT_COUNT>
1

> <PUBCHEM_CACTVS_TAUTO_COUNT>
1

> <PUBCHEM_CONFORMER_ID>
000140DF00000001

> <PUBCHEM_MMFF94_ENERGY>
63.313

> <PUBCHEM_FEATURE_SELFOVERLAP>
30.693

> <PUBCHEM_SHAPE_FINGERPRINT>
10062212 137 18410582785650535291
10616163 171 18408602565362054015
10967382 1 18410856563945319394
11132069 177 18410298012059540832
11458722 379 18411979178249913174
11471102 20 18411141337462253164
11578080 2 16914261964033495414
11806522 49 18410575058914387245
12236239 1 17894628145876468619
13140716 1 18410293635461512225
13221675 6 18409450297326962703
13288520 33 18335135427692695190
13862211 1 18410862052945613930
14790565 3 17975407238003572073
15196674 1 18410575080368111630
15442244 35 18122063362568486762
15536298 74 18334295357695877376
16945 1 18195251245811532713
17804303 29 18334574629328160313
18186145 218 18130794459745031422
19591789 44 18338235968588955587
200 152 18113621175046517909
20510252 161 18261109681791955688
20645477 70 18335139825322767382
21029758 11 18334577919030587593
21267235 1 18410002243532175031
21421861 104 17842842397437288267
221490 88 18269267963464416459
2334 1 18411137991709070840
23402539 116 18408611344459492214
23402655 69 18409449202031252588
23463225 33 18412263951914319084
23559900 14 18335140891218117216
2748010 2 18339362967827616713
2871803 45 18412831299729615815
3312278 4 18409166623606558505
335352 9 18338236097463880917
34934 24 18339084890734403151
4214541 1 18409729590529125109
43471831 8 18342180011413708426
474 4 17345747465982701412
4921388 177 16415187932890996659
4990 188 18113892780235842508
5104073 3 18409730664049027217
69090 78 18334579027279680494
7364860 26 18192712460731492590
77779 3 18409728460725580669
8809292 202 18271803493424171555
9709674 26 18409722959094501374

> <PUBCHEM_SHAPE_MULTIPOLES>
360.47
8.6
2.14
0.63
0.05
0.42
0
0.25
-0.8
-0.02
0.12
-0.01
0.02
-0.09

> <PUBCHEM_SHAPE_SELFOVERLAP>
820.901

> <PUBCHEM_SHAPE_VOLUME>
187.1

> <PUBCHEM_COORDINATE_TYPE>
2
5
10

$$$$

