5084
  -OEChem-06261200303D

 62 67  0     1  0  0  0  0  0999 V2000
    1.2980    0.3262    3.4907 O   0  0  0  0  0  0  0  0  0  0  0  0
   -1.8399   -2.8991    2.6502 O   0  0  0  0  0  0  0  0  0  0  0  0
    1.7133    1.9286   -0.8117 N   0  0  0  0  0  0  0  0  0  0  0  0
    4.8619   -2.0888   -0.3831 N   0  0  0  0  0  0  0  0  0  0  0  0
   -0.2247   -1.4267    3.4358 N   0  0  0  0  0  0  0  0  0  0  0  0
   -2.2792   -2.1693   -1.8854 N   0  0  0  0  0  0  0  0  0  0  0  0
    3.7911   -0.0033   -1.0493 C   0  0  2  0  0  0  0  0  0  0  0  0
    2.4690   -0.4272   -0.3900 C   0  0  0  0  0  0  0  0  0  0  0  0
    3.5066    0.9410   -2.2261 C   0  0  0  0  0  0  0  0  0  0  0  0
    1.5648    0.7356   -0.1459 C   0  0  0  0  0  0  0  0  0  0  0  0
    2.7912    2.2041   -1.7473 C   0  0  0  0  0  0  0  0  0  0  0  0
    0.4714    0.8602    0.6845 C   0  0  0  0  0  0  0  0  0  0  0  0
    4.5814   -1.2259   -1.5088 C   0  0  0  0  0  0  0  0  0  0  0  0
    0.7463    2.8278   -0.4163 C   0  0  0  0  0  0  0  0  0  0  0  0
   -0.0533    2.1726    0.5256 C   0  0  0  0  0  0  0  0  0  0  0  0
   -0.0282   -0.1693    1.5420 C   0  0  0  0  0  0  0  0  0  0  0  0
    0.5070    4.1564   -0.7991 C   0  0  0  0  0  0  0  0  0  0  0  0
   -1.1377    2.8652    1.1012 C   0  0  0  0  0  0  0  0  0  0  0  0
   -0.9423   -1.1245    1.2911 C   0  0  0  0  0  0  0  0  0  0  0  0
    0.4527   -0.3547    2.9350 C   0  0  0  0  0  0  0  0  0  0  0  0
   -0.5735    4.8228   -0.2143 C   0  0  0  0  0  0  0  0  0  0  0  0
   -1.7047   -1.3657    0.1057 C   0  0  0  0  0  0  0  0  0  0  0  0
   -1.3856    4.1884    0.7214 C   0  0  0  0  0  0  0  0  0  0  0  0
    5.6504   -1.3860    0.6368 C   0  0  0  0  0  0  0  0  0  0  0  0
    5.5705   -3.3015   -0.8112 C   0  0  0  0  0  0  0  0  0  0  0  0
   -1.0848   -1.9508    2.5171 C   0  0  0  0  0  0  0  0  0  0  0  0
   -2.9834   -0.8394   -0.2384 C   0  0  0  0  0  0  0  0  0  0  0  0
   -1.2998   -2.1802   -0.9289 C   0  0  0  0  0  0  0  0  0  0  0  0
   -3.3197   -1.3588   -1.4904 C   0  0  0  0  0  0  0  0  0  0  0  0
   -3.8883    0.0323    0.3994 C   0  0  0  0  0  0  0  0  0  0  0  0
   -4.5204   -1.0488   -2.1390 C   0  0  0  0  0  0  0  0  0  0  0  0
   -2.2149   -2.9103   -3.1266 C   0  0  0  0  0  0  0  0  0  0  0  0
   -5.0932    0.3513   -0.2374 C   0  0  0  0  0  0  0  0  0  0  0  0
   -5.4023   -0.1822   -1.4871 C   0  0  0  0  0  0  0  0  0  0  0  0
    4.3759    0.5915   -0.3361 H   0  0  0  0  0  0  0  0  0  0  0  0
    2.6624   -0.9342    0.5623 H   0  0  0  0  0  0  0  0  0  0  0  0
    1.9389   -1.1413   -1.0338 H   0  0  0  0  0  0  0  0  0  0  0  0
    2.8808    0.4269   -2.9676 H   0  0  0  0  0  0  0  0  0  0  0  0
    4.4367    1.2225   -2.7334 H   0  0  0  0  0  0  0  0  0  0  0  0
    3.4920    2.8652   -1.2244 H   0  0  0  0  0  0  0  0  0  0  0  0
    2.3707    2.7421   -2.6033 H   0  0  0  0  0  0  0  0  0  0  0  0
    5.5073   -0.9048   -2.0047 H   0  0  0  0  0  0  0  0  0  0  0  0
    3.9941   -1.7699   -2.2604 H   0  0  0  0  0  0  0  0  0  0  0  0
    1.1354    4.6587   -1.5273 H   0  0  0  0  0  0  0  0  0  0  0  0
   -1.7787    2.3867    1.8363 H   0  0  0  0  0  0  0  0  0  0  0  0
   -0.7813    5.8520   -0.4952 H   0  0  0  0  0  0  0  0  0  0  0  0
   -2.2202    4.7256    1.1637 H   0  0  0  0  0  0  0  0  0  0  0  0
    5.9896   -2.0911    1.4059 H   0  0  0  0  0  0  0  0  0  0  0  0
    6.5398   -0.9026    0.2164 H   0  0  0  0  0  0  0  0  0  0  0  0
    5.0592   -0.6450    1.1829 H   0  0  0  0  0  0  0  0  0  0  0  0
    4.9766   -3.8517   -1.5496 H   0  0  0  0  0  0  0  0  0  0  0  0
    6.5473   -3.0733   -1.2527 H   0  0  0  0  0  0  0  0  0  0  0  0
    5.7213   -3.9794    0.0363 H   0  0  0  0  0  0  0  0  0  0  0  0
   -0.1033   -1.7894    4.3745 H   0  0  0  0  0  0  0  0  0  0  0  0
   -0.3972   -2.7635   -1.0606 H   0  0  0  0  0  0  0  0  0  0  0  0
   -3.6637    0.4557    1.3743 H   0  0  0  0  0  0  0  0  0  0  0  0
   -4.7670   -1.4606   -3.1119 H   0  0  0  0  0  0  0  0  0  0  0  0
   -1.2750   -3.4663   -3.1745 H   0  0  0  0  0  0  0  0  0  0  0  0
   -3.0579   -3.6052   -3.1574 H   0  0  0  0  0  0  0  0  0  0  0  0
   -2.2669   -2.1997   -3.9554 H   0  0  0  0  0  0  0  0  0  0  0  0
   -5.7949    1.0230    0.2499 H   0  0  0  0  0  0  0  0  0  0  0  0
   -6.3438    0.0791   -1.9636 H   0  0  0  0  0  0  0  0  0  0  0  0
  1 20  2  0  0  0  0
  2 26  2  0  0  0  0
  3 10  1  0  0  0  0
  3 11  1  0  0  0  0
  3 14  1  0  0  0  0
  4 13  1  0  0  0  0
  4 24  1  0  0  0  0
  4 25  1  0  0  0  0
  5 20  1  0  0  0  0
  5 26  1  0  0  0  0
  5 54  1  0  0  0  0
  6 28  1  0  0  0  0
  6 29  1  0  0  0  0
  6 32  1  0  0  0  0
  7  8  1  0  0  0  0
  7  9  1  0  0  0  0
  7 13  1  0  0  0  0
  7 35  1  0  0  0  0
  8 10  1  0  0  0  0
  8 36  1  0  0  0  0
  8 37  1  0  0  0  0
  9 11  1  0  0  0  0
  9 38  1  0  0  0  0
  9 39  1  0  0  0  0
 10 12  2  0  0  0  0
 11 40  1  0  0  0  0
 11 41  1  0  0  0  0
 12 15  1  0  0  0  0
 12 16  1  0  0  0  0
 13 42  1  0  0  0  0
 13 43  1  0  0  0  0
 14 15  1  0  0  0  0
 14 17  2  0  0  0  0
 15 18  2  0  0  0  0
 16 19  2  0  0  0  0
 16 20  1  0  0  0  0
 17 21  1  0  0  0  0
 17 44  1  0  0  0  0
 18 23  1  0  0  0  0
 18 45  1  0  0  0  0
 19 22  1  0  0  0  0
 19 26  1  0  0  0  0
 21 23  2  0  0  0  0
 21 46  1  0  0  0  0
 22 27  1  0  0  0  0
 22 28  2  0  0  0  0
 23 47  1  0  0  0  0
 24 48  1  0  0  0  0
 24 49  1  0  0  0  0
 24 50  1  0  0  0  0
 25 51  1  0  0  0  0
 25 52  1  0  0  0  0
 25 53  1  0  0  0  0
 27 29  1  0  0  0  0
 27 30  2  0  0  0  0
 28 55  1  0  0  0  0
 29 31  2  0  0  0  0
 30 33  1  0  0  0  0
 30 56  1  0  0  0  0
 31 34  1  0  0  0  0
 31 57  1  0  0  0  0
 32 58  1  0  0  0  0
 32 59  1  0  0  0  0
 32 60  1  0  0  0  0
 33 34  2  0  0  0  0
 33 61  1  0  0  0  0
 34 62  1  0  0  0  0
M  END
> <PUBCHEM_COMPOUND_CID>
5084

> <PUBCHEM_CONFORMER_RMSD>
0.8

> <PUBCHEM_CONFORMER_DIVERSEORDER>
9
11
17
23
26
5
8
18
21
25
12
3
4
24
6
22
29
1
13
15
27
10
19
7
28
14
20
2
16

> <PUBCHEM_MMFF94_PARTIAL_CHARGES>
40
1 -0.57
10 -0.33
11 0.26
12 -0.05
13 0.27
14 -0.15
16 0.06
17 -0.15
18 -0.15
19 0.06
2 -0.57
20 0.62
21 -0.15
22 -0.05
23 -0.15
24 0.27
25 0.27
26 0.62
28 -0.3
29 -0.15
3 0.05
30 -0.15
31 -0.15
32 0.26
33 -0.15
34 -0.15
4 -0.81
44 0.15
45 0.15
46 0.15
47 0.15
5 -0.49
54 0.37
55 0.15
56 0.15
57 0.15
6 0.05
61 0.15
62 0.15
8 0.18

> <PUBCHEM_EFFECTIVE_ROTOR_COUNT>
5

> <PUBCHEM_PHARMACOPHORE_FEATURES>
12
1 1 acceptor
1 2 acceptor
1 3 cation
1 4 cation
1 5 donor
1 6 cation
5 3 10 12 14 15 rings
5 5 16 19 20 26 rings
5 6 22 27 28 29 rings
6 14 15 17 18 21 23 rings
6 27 29 30 31 33 34 rings
6 3 7 8 9 10 11 rings

> <PUBCHEM_HEAVY_ATOM_COUNT>
34

> <PUBCHEM_ATOM_DEF_STEREO_COUNT>
0

> <PUBCHEM_ATOM_UDEF_STEREO_COUNT>
1

> <PUBCHEM_BOND_DEF_STEREO_COUNT>
0

> <PUBCHEM_BOND_UDEF_STEREO_COUNT>
0

> <PUBCHEM_ISOTOPIC_ATOM_COUNT>
0

> <PUBCHEM_COMPONENT_COUNT>
1

> <PUBCHEM_CACTVS_TAUTO_COUNT>
3

> <PUBCHEM_CONFORMER_ID>
000013DC00000009

> <PUBCHEM_MMFF94_ENERGY>
75.6968

> <PUBCHEM_FEATURE_SELFOVERLAP>
61.159

> <PUBCHEM_SHAPE_FINGERPRINT>
11578080 2 17458615675520680336
11582403 64 16469848821630645556
11720765 8 18263092041180560957
12156800 1 17904232525551993634
12160290 23 17903039525677625004
12422481 6 17684890942384524065
12788726 201 18339915017666029716
13004483 165 18334579061876776596
13083527 12 13984663607601090483
13636023 20 17535472522160839428
13636023 51 17170141190770567746
13911987 19 17192027927995600244
15297060 5 17681280176707523761
15361156 5 17766815589085426686
15815584 197 17904747892064617212
17809404 112 18131063789462019274
19311894 1 18410854387172568253
20465049 17 18273217487310841357
20600515 1 17773899527174235872
20775438 99 17395888391781143215
21133665 82 16902690825014349086
21987440 362 15119066102902780532
22149856 69 16195417506574027711
23536364 44 18129669732570210205
238 59 17183063544636693397
3027735 51 17824251829033665630
3380486 77 18041549270030192310
340366 18 18114466643896563063
3729539 64 16844734286580811370
5080951 261 17909853234069205150
613672 6 18343295969109538058
9981440 41 17040652586957639737

> <PUBCHEM_SHAPE_MULTIPOLES>
668.04
9.28
4.97
3.09
5.13
5.65
2.11
-8.06
-5.85
0.39
-1.14
-0.69
-2.12
-1.26

> <PUBCHEM_SHAPE_SELFOVERLAP>
1500.459

> <PUBCHEM_SHAPE_VOLUME>
357

> <PUBCHEM_COORDINATE_TYPE>
2
5
10

$$$$

