2249229
  -OEChem-07051213043D

 32 32  0     0  0  0  0  0  0999 V2000
   -0.0183    0.2616   -0.0213 O   0  0  0  0  0  0  0  0  0  0  0  0
    1.0541    2.2188    0.5430 O   0  0  0  0  0  0  0  0  0  0  0  0
   -4.7905   -0.4818   -0.3868 N   0  0  0  0  0  0  0  0  0  0  0  0
   -3.7636    0.5128   -0.1009 C   0  0  0  0  0  0  0  0  0  0  0  0
   -2.3761   -0.1090   -0.2216 C   0  0  0  0  0  0  0  0  0  0  0  0
   -1.2816    0.9017    0.0933 C   0  0  0  0  0  0  0  0  0  0  0  0
   -6.1263    0.0992   -0.2398 C   0  0  0  0  0  0  0  0  0  0  0  0
   -4.6427   -1.6431    0.4923 C   0  0  0  0  0  0  0  0  0  0  0  0
    1.0717    1.0382    0.2314 C   0  0  0  0  0  0  0  0  0  0  0  0
    2.3238    0.2554    0.0771 C   0  0  0  0  0  0  0  0  0  0  0  0
    3.4714    0.9060   -0.3278 C   0  0  0  0  0  0  0  0  0  0  0  0
    2.3012   -1.0983    0.3438 C   0  0  0  0  0  0  0  0  0  0  0  0
    4.6479    0.1707   -0.4725 C   0  0  0  0  0  0  0  0  0  0  0  0
    3.4779   -1.8335    0.1990 C   0  0  0  0  0  0  0  0  0  0  0  0
    4.6511   -1.1989   -0.2091 C   0  0  0  0  0  0  0  0  0  0  0  0
   -3.8439    1.3410   -0.8160 H   0  0  0  0  0  0  0  0  0  0  0  0
   -3.8922    0.9369    0.9039 H   0  0  0  0  0  0  0  0  0  0  0  0
   -2.2272   -0.9418    0.4744 H   0  0  0  0  0  0  0  0  0  0  0  0
   -2.2187   -0.5175   -1.2281 H   0  0  0  0  0  0  0  0  0  0  0  0
   -1.4048    1.2841    1.1135 H   0  0  0  0  0  0  0  0  0  0  0  0
   -1.3313    1.7396   -0.6121 H   0  0  0  0  0  0  0  0  0  0  0  0
   -6.2492    0.9557   -0.9122 H   0  0  0  0  0  0  0  0  0  0  0  0
   -6.3212    0.4343    0.7855 H   0  0  0  0  0  0  0  0  0  0  0  0
   -6.8964   -0.6288   -0.5181 H   0  0  0  0  0  0  0  0  0  0  0  0
   -5.5170   -2.3003    0.4045 H   0  0  0  0  0  0  0  0  0  0  0  0
   -4.5471   -1.3635    1.5479 H   0  0  0  0  0  0  0  0  0  0  0  0
   -3.7960   -2.2720    0.2002 H   0  0  0  0  0  0  0  0  0  0  0  0
    3.4807    1.9711   -0.5390 H   0  0  0  0  0  0  0  0  0  0  0  0
    1.4048   -1.6132    0.6757 H   0  0  0  0  0  0  0  0  0  0  0  0
    5.5613    0.6645   -0.7909 H   0  0  0  0  0  0  0  0  0  0  0  0
    3.4816   -2.8995    0.4071 H   0  0  0  0  0  0  0  0  0  0  0  0
    5.5673   -1.7713   -0.3212 H   0  0  0  0  0  0  0  0  0  0  0  0
  1  6  1  0  0  0  0
  1  9  1  0  0  0  0
  2  9  2  0  0  0  0
  3  4  1  0  0  0  0
  3  7  1  0  0  0  0
  3  8  1  0  0  0  0
  4  5  1  0  0  0  0
  4 16  1  0  0  0  0
  4 17  1  0  0  0  0
  5  6  1  0  0  0  0
  5 18  1  0  0  0  0
  5 19  1  0  0  0  0
  6 20  1  0  0  0  0
  6 21  1  0  0  0  0
  7 22  1  0  0  0  0
  7 23  1  0  0  0  0
  7 24  1  0  0  0  0
  8 25  1  0  0  0  0
  8 26  1  0  0  0  0
  8 27  1  0  0  0  0
  9 10  1  0  0  0  0
 10 11  2  0  0  0  0
 10 12  1  0  0  0  0
 11 13  1  0  0  0  0
 11 28  1  0  0  0  0
 12 14  2  0  0  0  0
 12 29  1  0  0  0  0
 13 15  2  0  0  0  0
 13 30  1  0  0  0  0
 14 15  1  0  0  0  0
 14 31  1  0  0  0  0
 15 32  1  0  0  0  0
M  END
> <PUBCHEM_COMPOUND_CID>
2249229

> <PUBCHEM_CONFORMER_RMSD>
0.8

> <PUBCHEM_CONFORMER_DIVERSEORDER>
1
33
28
19
4
32
39
17
24
43
47
30
42
35
37
11
21
48
8
22
5
25
3
45
20
40
31
7
6
13
46
12
16
38
9
26
41
44
10
23
15
36
29
2
34
14
18
27

> <PUBCHEM_MMFF94_PARTIAL_CHARGES>
19
1 -0.43
10 0.09
11 -0.15
12 -0.15
13 -0.15
14 -0.15
15 -0.15
2 -0.57
28 0.15
29 0.15
3 -0.81
30 0.15
31 0.15
32 0.15
4 0.27
6 0.28
7 0.27
8 0.27
9 0.63

> <PUBCHEM_EFFECTIVE_ROTOR_COUNT>
6

> <PUBCHEM_PHARMACOPHORE_FEATURES>
3
1 2 acceptor
1 3 cation
6 10 11 12 13 14 15 rings

> <PUBCHEM_HEAVY_ATOM_COUNT>
15

> <PUBCHEM_ATOM_DEF_STEREO_COUNT>
0

> <PUBCHEM_ATOM_UDEF_STEREO_COUNT>
0

> <PUBCHEM_BOND_DEF_STEREO_COUNT>
0

> <PUBCHEM_BOND_UDEF_STEREO_COUNT>
0

> <PUBCHEM_ISOTOPIC_ATOM_COUNT>
0

> <PUBCHEM_COMPONENT_COUNT>
1

> <PUBCHEM_CACTVS_TAUTO_COUNT>
1

> <PUBCHEM_CONFORMER_ID>
0022520D00000001

> <PUBCHEM_MMFF94_ENERGY>
36.6896

> <PUBCHEM_FEATURE_SELFOVERLAP>
15.223

> <PUBCHEM_SHAPE_FINGERPRINT>
11287383 113 17275098401498957877
12596602 18 16298111956066670955
12616999 72 18272366465026184174
13167823 11 18409731755345467295
13690532 89 18334576854015510221
14251718 22 17989486294948287615
14251764 18 18259980480009745425
14252887 29 17603579755634870950
14455015 7 18342170060301147867
14576447 43 18341046419715992246
15188451 53 15575296306728261165
15242433 33 18411418401708153863
15242439 84 18271812311403161837
15477762 27 18342174492791702332
17834072 33 18411698772730433477
17834072 8 18343590651078483471
17844677 252 18342168973558780189
200 152 18260830406049191585
20261772 1 17821733827141582463
20281475 54 18339361967153179280
20369508 70 18261116253171033016
20374829 77 18201725058986516835
20645477 70 18340769338032045454
21267235 1 18335696183076272150
221490 88 18197491835966388411
2215653 11 18411990161251279759
22485316 2 18412827975746629991
23402539 116 15913331281988556767
23557571 272 17275109461076779509
23559900 14 18340493262103519625
239999 70 18334572435053423078
2871803 45 18202002161538879050
3004659 81 18201720695400224114
314194 84 18333453135936632567
3268164 11 15841280306775002279
351380 3 18113902662776450391
4047638 21 8934999282869706004
4214541 1 18411982503071655965
42630746 31 18261960648579868864
465052 167 18187361013190290839
4990 188 17846782905482648689
5104073 3 18334013929684369457
522135 26 18411983563590662628
77779 3 18413388735303790077
94968 8 18410293623093542146

> <PUBCHEM_SHAPE_MULTIPOLES>
291.97
13.14
1.69
0.69
14.13
0.13
0
4.27
-1.6
-0.84
0.28
-0.02
0
0.14

> <PUBCHEM_SHAPE_SELFOVERLAP>
587.572

> <PUBCHEM_SHAPE_VOLUME>
172.6

> <PUBCHEM_COORDINATE_TYPE>
2
5
10

$$$$

