49787024
  -OEChem-07051213082D

109111  0     1  0  0  0  0  0999 V2000
    3.3100   -2.2963    0.0000 O   0  0  0  0  0  0  0  0  0  0  0  0
    2.3100   -1.2963    0.0000 O   0  0  0  0  0  0  0  0  0  0  0  0
    5.8081   -0.6535    0.0000 O   0  0  0  0  0  0  0  0  0  0  0  0
    6.8929   -2.9700    0.0000 O   0  0  0  0  0  0  0  0  0  0  0  0
    6.5922   -4.6757    0.0000 O   0  0  0  0  0  0  0  0  0  0  0  0
    5.0420   -0.2963    0.0000 O   0  0  0  0  0  0  0  0  0  0  0  0
    5.0421   -4.0284    0.0000 O   0  0  0  0  0  0  0  0  0  0  0  0
    8.8625   -3.3173    0.0000 O   0  0  0  0  0  0  0  0  0  0  0  0
    6.4817   -3.5044    0.0000 O   0  0  0  0  0  0  0  0  0  0  0  0
    8.2610   -6.7287    0.0000 O   0  0  0  0  0  0  0  0  0  0  0  0
    6.7741    2.7037    0.0000 O   0  0  0  0  0  0  0  0  0  0  0  0
    7.6401    4.2037    0.0000 O   0  0  0  0  0  0  0  0  0  0  0  0
    8.5062    5.7037    0.0000 O   0  0  0  0  0  0  0  0  0  0  0  0
    7.6401    7.2037    0.0000 O   0  0  0  0  0  0  0  0  0  0  0  0
    9.5465   -5.1966    0.0000 N   0  0  0  0  0  0  0  0  0  0  0  0
    4.1760   -2.7963    0.0000 C   0  0  2  0  0  0  0  0  0  0  0  0
    5.0420   -2.2963    0.0000 C   0  0  1  0  0  0  0  0  0  0  0  0
    3.3100   -1.2963    0.0000 C   0  0  1  0  0  0  0  0  0  0  0  0
    5.0420   -1.2963    0.0000 C   0  0  2  0  0  0  0  0  0  0  0  0
    4.1760   -0.7963    0.0000 C   0  0  0  0  0  0  0  0  0  0  0  0
    5.0420   -3.2963    0.0000 C   0  0  0  0  0  0  0  0  0  0  0  0
    3.3100   -0.2963    0.0000 C   0  0  0  0  0  0  0  0  0  0  0  0
    5.9081   -2.7963    0.0000 C   0  0  2  0  0  0  0  0  0  0  0  0
    4.1760    0.2037    0.0000 C   0  0  2  0  0  0  0  0  0  0  0  0
    5.5420   -3.1623    0.0000 C   0  0  0  0  0  0  0  0  0  0  0  0
    7.2349   -3.9097    0.0000 C   0  0  2  0  0  0  0  0  0  0  0  0
    8.2197   -4.0833    0.0000 C   0  0  2  0  0  0  0  0  0  0  0  0
    8.5617   -5.0230    0.0000 C   0  0  2  0  0  0  0  0  0  0  0  0
    4.1760    1.2037    0.0000 C   0  0  0  0  0  0  0  0  0  0  0  0
    7.9189   -5.7890    0.0000 C   0  0  1  0  0  0  0  0  0  0  0  0
    6.9342   -5.6154    0.0000 C   0  0  1  0  0  0  0  0  0  0  0  0
    5.9081   -1.7963    0.0000 C   0  0  0  0  0  0  0  0  0  0  0  0
    5.0420    1.7037    0.0000 C   0  0  0  0  0  0  0  0  0  0  0  0
    6.2914   -6.3814    0.0000 C   0  0  0  0  0  0  0  0  0  0  0  0
    5.0420    2.7037    0.0000 C   0  0  0  0  0  0  0  0  0  0  0  0
    6.7741   -1.2963    0.0000 C   0  0  0  0  0  0  0  0  0  0  0  0
    5.9081    3.2037    0.0000 C   0  0  0  0  0  0  0  0  0  0  0  0
    5.9081    4.2037    0.0000 C   0  0  0  0  0  0  0  0  0  0  0  0
    6.7741    4.7037    0.0000 C   0  0  2  0  0  0  0  0  0  0  0  0
    6.7741   -0.2963    0.0000 C   0  0  0  0  0  0  0  0  0  0  0  0
    6.7741    5.7037    0.0000 C   0  0  2  0  0  0  0  0  0  0  0  0
    5.9081    6.2037    0.0000 C   0  0  0  0  0  0  0  0  0  0  0  0
    7.6401    0.2037    0.0000 C   0  0  0  0  0  0  0  0  0  0  0  0
    7.6401    6.2037    0.0000 C   0  0  0  0  0  0  0  0  0  0  0  0
    5.9081    7.2037    0.0000 C   0  0  0  0  0  0  0  0  0  0  0  0
    7.6401    1.2037    0.0000 C   0  0  0  0  0  0  0  0  0  0  0  0
    8.5062    4.7037    0.0000 C   0  0  1  0  0  0  0  0  0  0  0  0
    9.3722    4.2037    0.0000 C   0  0  0  0  0  0  0  0  0  0  0  0
    8.5062    1.7037    0.0000 C   0  0  0  0  0  0  0  0  0  0  0  0
    7.6402    5.2037    0.0000 C   0  0  0  0  0  0  0  0  0  0  0  0
    9.3722    3.2037    0.0000 C   0  0  0  0  0  0  0  0  0  0  0  0
    8.5062    2.7037    0.0000 C   0  0  0  0  0  0  0  0  0  0  0  0
    3.4399   -3.2213    0.0000 H   0  0  0  0  0  0  0  0  0  0  0  0
    5.6409   -2.1358    0.0000 H   0  0  0  0  0  0  0  0  0  0  0  0
    5.6040   -1.5583    0.0000 H   0  0  0  0  0  0  0  0  0  0  0  0
    4.5746   -0.3214    0.0000 H   0  0  0  0  0  0  0  0  0  0  0  0
    3.7775   -0.3214    0.0000 H   0  0  0  0  0  0  0  0  0  0  0  0
    4.6435   -3.7713    0.0000 H   0  0  0  0  0  0  0  0  0  0  0  0
    5.4406   -3.7713    0.0000 H   0  0  0  0  0  0  0  0  0  0  0  0
    3.0980    0.2863    0.0000 H   0  0  0  0  0  0  0  0  0  0  0  0
    2.6994   -0.4040    0.0000 H   0  0  0  0  0  0  0  0  0  0  0  0
    6.0157   -3.4069    0.0000 H   0  0  0  0  0  0  0  0  0  0  0  0
    4.1760   -0.4163    0.0000 H   0  0  0  0  0  0  0  0  0  0  0  0
    6.6243   -3.8020    0.0000 H   0  0  0  0  0  0  0  0  0  0  0  0
    8.8303   -4.1910    0.0000 H   0  0  0  0  0  0  0  0  0  0  0  0
    8.9603   -4.5480    0.0000 H   0  0  0  0  0  0  0  0  0  0  0  0
    3.9640    1.7863    0.0000 H   0  0  0  0  0  0  0  0  0  0  0  0
    3.5654    1.0960    0.0000 H   0  0  0  0  0  0  0  0  0  0  0  0
    2.0000   -0.7594    0.0000 H   0  0  0  0  0  0  0  0  0  0  0  0
    7.5204   -6.2640    0.0000 H   0  0  0  0  0  0  0  0  0  0  0  0
    6.2066   -1.1285    0.0000 H   0  0  0  0  0  0  0  0  0  0  0  0
    6.3236   -5.5077    0.0000 H   0  0  0  0  0  0  0  0  0  0  0  0
    5.2881   -1.7963    0.0000 H   0  0  0  0  0  0  0  0  0  0  0  0
    5.2541    1.1211    0.0000 H   0  0  0  0  0  0  0  0  0  0  0  0
    5.6526    1.8113    0.0000 H   0  0  0  0  0  0  0  0  0  0  0  0
    5.5790    0.0137    0.0000 H   0  0  0  0  0  0  0  0  0  0  0  0
    5.8165   -5.9829    0.0000 H   0  0  0  0  0  0  0  0  0  0  0  0
    5.8929   -6.8564    0.0000 H   0  0  0  0  0  0  0  0  0  0  0  0
    6.7664   -6.7800    0.0000 H   0  0  0  0  0  0  0  0  0  0  0  0
    9.7586   -5.7793    0.0000 H   0  0  0  0  0  0  0  0  0  0  0  0
    9.9451   -4.7217    0.0000 H   0  0  0  0  0  0  0  0  0  0  0  0
    4.8300    3.2863    0.0000 H   0  0  0  0  0  0  0  0  0  0  0  0
    4.4315    2.5960    0.0000 H   0  0  0  0  0  0  0  0  0  0  0  0
    4.4221   -4.0284    0.0000 H   0  0  0  0  0  0  0  0  0  0  0  0
    9.4731   -3.4249    0.0000 H   0  0  0  0  0  0  0  0  0  0  0  0
    7.8624   -7.2037    0.0000 H   0  0  0  0  0  0  0  0  0  0  0  0
    7.3110   -1.6063    0.0000 H   0  0  0  0  0  0  0  0  0  0  0  0
    5.6960    4.7863    0.0000 H   0  0  0  0  0  0  0  0  0  0  0  0
    5.2975    4.0960    0.0000 H   0  0  0  0  0  0  0  0  0  0  0  0
    6.7741    4.0837    0.0000 H   0  0  0  0  0  0  0  0  0  0  0  0
    6.2372    0.0137    0.0000 H   0  0  0  0  0  0  0  0  0  0  0  0
    6.7741    6.3237    0.0000 H   0  0  0  0  0  0  0  0  0  0  0  0
    5.2975    6.3113    0.0000 H   0  0  0  0  0  0  0  0  0  0  0  0
    5.6960    5.6211    0.0000 H   0  0  0  0  0  0  0  0  0  0  0  0
    8.1771   -0.1063    0.0000 H   0  0  0  0  0  0  0  0  0  0  0  0
    7.6401    3.5837    0.0000 H   0  0  0  0  0  0  0  0  0  0  0  0
    6.5281    7.2037    0.0000 H   0  0  0  0  0  0  0  0  0  0  0  0
    5.9081    7.8237    0.0000 H   0  0  0  0  0  0  0  0  0  0  0  0
    5.2881    7.2037    0.0000 H   0  0  0  0  0  0  0  0  0  0  0  0
    7.1032    1.5137    0.0000 H   0  0  0  0  0  0  0  0  0  0  0  0
    8.1962    5.2406    0.0000 H   0  0  0  0  0  0  0  0  0  0  0  0
    9.9828    4.0960    0.0000 H   0  0  0  0  0  0  0  0  0  0  0  0
    9.5842    4.7863    0.0000 H   0  0  0  0  0  0  0  0  0  0  0  0
    9.0431    1.3937    0.0000 H   0  0  0  0  0  0  0  0  0  0  0  0
    7.9502    5.7406    0.0000 H   0  0  0  0  0  0  0  0  0  0  0  0
    7.1032    5.5137    0.0000 H   0  0  0  0  0  0  0  0  0  0  0  0
    7.3301    4.6668    0.0000 H   0  0  0  0  0  0  0  0  0  0  0  0
    9.9091    2.8937    0.0000 H   0  0  0  0  0  0  0  0  0  0  0  0
    7.9692    3.0137    0.0000 H   0  0  0  0  0  0  0  0  0  0  0  0
  1 16  1  0  0  0  0
  1 18  1  0  0  0  0
 18  2  1  1  0  0  0
  2 69  1  0  0  0  0
 19  3  1  6  0  0  0
  3 71  1  0  0  0  0
 23  4  1  6  0  0  0
 26  4  1  1  0  0  0
  5 26  1  0  0  0  0
  5 31  1  0  0  0  0
 24  6  1  6  0  0  0
  6 76  1  0  0  0  0
  7 25  1  0  0  0  0
  7 84  1  0  0  0  0
 27  8  1  1  0  0  0
  8 85  1  0  0  0  0
  9 25  2  0  0  0  0
 30 10  1  6  0  0  0
 10 86  1  0  0  0  0
 11 37  2  0  0  0  0
 39 12  1  6  0  0  0
 12 96  1  0  0  0  0
 13 44  1  0  0  0  0
 13 47  1  0  0  0  0
 14 44  2  0  0  0  0
 28 15  1  1  0  0  0
 15 80  1  0  0  0  0
 15 81  1  0  0  0  0
 16 17  1  0  0  0  0
 16 21  1  0  0  0  0
 16 53  1  1  0  0  0
 17 19  1  0  0  0  0
 17 25  1  1  0  0  0
 17 54  1  0  0  0  0
 18 20  1  0  0  0  0
 18 22  1  0  0  0  0
 19 20  1  0  0  0  0
 19 55  1  0  0  0  0
 20 56  1  0  0  0  0
 20 57  1  0  0  0  0
 21 23  1  0  0  0  0
 21 58  1  0  0  0  0
 21 59  1  0  0  0  0
 22 24  1  0  0  0  0
 22 60  1  0  0  0  0
 22 61  1  0  0  0  0
 23 32  1  0  0  0  0
 23 62  1  0  0  0  0
 24 29  1  0  0  0  0
 24 63  1  0  0  0  0
 26 27  1  0  0  0  0
 26 64  1  0  0  0  0
 27 28  1  0  0  0  0
 27 65  1  0  0  0  0
 28 30  1  0  0  0  0
 28 66  1  0  0  0  0
 29 33  1  0  0  0  0
 29 67  1  0  0  0  0
 29 68  1  0  0  0  0
 30 31  1  0  0  0  0
 30 70  1  0  0  0  0
 31 34  1  1  0  0  0
 31 72  1  0  0  0  0
 32 36  2  0  0  0  0
 32 73  1  0  0  0  0
 33 35  1  0  0  0  0
 33 74  1  0  0  0  0
 33 75  1  0  0  0  0
 34 77  1  0  0  0  0
 34 78  1  0  0  0  0
 34 79  1  0  0  0  0
 35 37  1  0  0  0  0
 35 82  1  0  0  0  0
 35 83  1  0  0  0  0
 36 40  1  0  0  0  0
 36 87  1  0  0  0  0
 37 38  1  0  0  0  0
 38 39  1  0  0  0  0
 38 88  1  0  0  0  0
 38 89  1  0  0  0  0
 39 41  1  0  0  0  0
 39 90  1  0  0  0  0
 40 43  2  0  0  0  0
 40 91  1  0  0  0  0
 41 42  1  6  0  0  0
 41 44  1  0  0  0  0
 41 92  1  0  0  0  0
 42 45  1  0  0  0  0
 42 93  1  0  0  0  0
 42 94  1  0  0  0  0
 43 46  1  0  0  0  0
 43 95  1  0  0  0  0
 45 97  1  0  0  0  0
 45 98  1  0  0  0  0
 45 99  1  0  0  0  0
 46 49  2  0  0  0  0
 46100  1  0  0  0  0
 47 48  1  0  0  0  0
 47 50  1  1  0  0  0
 47101  1  0  0  0  0
 48 51  1  0  0  0  0
 48102  1  0  0  0  0
 48103  1  0  0  0  0
 49 52  1  0  0  0  0
 49104  1  0  0  0  0
 50105  1  0  0  0  0
 50106  1  0  0  0  0
 50107  1  0  0  0  0
 51 52  2  0  0  0  0
 51108  1  0  0  0  0
 52109  1  0  0  0  0
M  END
> <PUBCHEM_COMPOUND_CID>
49787024

> <PUBCHEM_COMPOUND_CANONICALIZED>
1

> <PUBCHEM_CACTVS_COMPLEXITY>
1290

> <PUBCHEM_CACTVS_HBOND_ACCEPTOR>
15

> <PUBCHEM_CACTVS_HBOND_DONOR>
8

> <PUBCHEM_CACTVS_ROTATABLE_BOND>
4

> <PUBCHEM_CACTVS_SUBSKEYS>
AAADcfB+PAAAAAAAAAAAAAAAAAAAAAAAAAAkSAAAAAAAAAAAAAAAHgAQCAAADTzxgAcCCABABgCIAKDSCAAAAAAgAAAICIEAAAgbFBYAoQAiUAAH8AAPoAPI7uzuAAAAAAAAAAAAAAAAAAAAAAAAAAAAAA==

> <PUBCHEM_IUPAC_OPENEYE_NAME>
(1S,3R,4E,6E,8E,10E,13R,16S,17R,23S,25R,27S,28R)-3-[(2R,3S,4S,5S,6R)-4-amino-3,5-dihydroxy-6-methyl-tetrahydropyran-2-yl]oxy-16-ethyl-17,23,25,27-tetrahydroxy-13-methyl-15,19-dioxo-14,29-dioxabicyclo[23.3.1]nonacosa-4,6,8,10-tetraene-28-carboxylic acid

> <PUBCHEM_IUPAC_CAS_NAME>
(1S,3R,4E,6E,8E,10E,13R,16S,17R,23S,25R,27S,28R)-3-[[(2R,3S,4S,5S,6R)-4-amino-3,5-dihydroxy-6-methyl-2-oxanyl]oxy]-16-ethyl-17,23,25,27-tetrahydroxy-13-methyl-15,19-dioxo-14,29-dioxabicyclo[23.3.1]nonacosa-4,6,8,10-tetraene-28-carboxylic acid

> <PUBCHEM_IUPAC_NAME>
(1S,3R,4E,6E,8E,10E,13R,16S,17R,23S,25R,27S,28R)-3-[(2R,3S,4S,5S,6R)-4-amino-3,5-dihydroxy-6-methyloxan-2-yl]oxy-16-ethyl-17,23,25,27-tetrahydroxy-13-methyl-15,19-dioxo-14,29-dioxabicyclo[23.3.1]nonacosa-4,6,8,10-tetraene-28-carboxylic acid

> <PUBCHEM_IUPAC_SYSTEMATIC_NAME>
(1S,3R,4E,6E,8E,10E,13R,16S,17R,23S,25R,27S,28R)-3-[(2R,3S,4S,5S,6R)-4-azanyl-6-methyl-3,5-bis(oxidanyl)oxan-2-yl]oxy-16-ethyl-13-methyl-17,23,25,27-tetrakis(oxidanyl)-15,19-bis(oxidanylidene)-14,29-dioxabicyclo[23.3.1]nonacosa-4,6,8,10-tetraene-28-carboxylic acid

> <PUBCHEM_IUPAC_TRADITIONAL_NAME>
(1S,3R,4E,6E,8E,10E,13R,16S,17R,23S,25R,27S,28R)-3-[(2R,3S,4S,5S,6R)-4-amino-3,5-dihydroxy-6-methyl-tetrahydropyran-2-yl]oxy-16-ethyl-17,23,25,27-tetrahydroxy-15,19-diketo-13-methyl-14,29-dioxabicyclo[23.3.1]nonacosa-4,6,8,10-tetraene-28-carboxylic acid

> <PUBCHEM_IUPAC_INCHI>
InChI=1S/C37H57NO14/c1-4-26-27(41)17-23(39)14-12-15-24(40)19-37(48)20-28(42)30(34(45)46)29(52-37)18-25(51-36-33(44)31(38)32(43)22(3)50-36)16-11-9-7-5-6-8-10-13-21(2)49-35(26)47/h5-11,16,21-22,24-33,36,40-44,48H,4,12-15,17-20,38H2,1-3H3,(H,45,46)/b6-5+,9-7+,10-8+,16-11+/t21-,22-,24+,25+,26+,27-,28+,29+,30-,31+,32-,33+,36+,37-/m1/s1

> <PUBCHEM_IUPAC_INCHIKEY>
WENZSKRHIWIHNO-GWEXXVLASA-N

> <PUBCHEM_XLOGP3_AA>
-1.1

> <PUBCHEM_EXACT_MASS>
739.377906

> <PUBCHEM_MOLECULAR_FORMULA>
C37H57NO14

> <PUBCHEM_MOLECULAR_WEIGHT>
739.84678

> <PUBCHEM_OPENEYE_CAN_SMILES>
CCC1C(CC(=O)CCCC(CC2(CC(C(C(O2)CC(C=CC=CC=CC=CCC(OC1=O)C)OC3C(C(C(C(O3)C)O)N)O)C(=O)O)O)O)O)O

> <PUBCHEM_OPENEYE_ISO_SMILES>
CC[C@H]1[C@@H](CC(=O)CCC[C@@H](C[C@@]2(C[C@@H]([C@H]([C@@H](O2)C[C@H](/C=C/C=C/C=C/C=C/C[C@H](OC1=O)C)O[C@H]3[C@H]([C@H]([C@@H]([C@H](O3)C)O)N)O)C(=O)O)O)O)O)O

> <PUBCHEM_CACTVS_TPSA>
256

> <PUBCHEM_MONOISOTOPIC_WEIGHT>
739.377906

> <PUBCHEM_TOTAL_CHARGE>
0

> <PUBCHEM_HEAVY_ATOM_COUNT>
52

> <PUBCHEM_ATOM_DEF_STEREO_COUNT>
14

> <PUBCHEM_ATOM_UDEF_STEREO_COUNT>
0

> <PUBCHEM_BOND_DEF_STEREO_COUNT>
4

> <PUBCHEM_BOND_UDEF_STEREO_COUNT>
0

> <PUBCHEM_ISOTOPIC_ATOM_COUNT>
0

> <PUBCHEM_COMPONENT_COUNT>
1

> <PUBCHEM_CACTVS_TAUTO_COUNT>
6

> <PUBCHEM_COORDINATE_TYPE>
1
5
255

> <PUBCHEM_BONDANNOTATIONS>
30  10  6
39  12  6
28  15  5
16  53  5
17  25  5
18  2  5
19  3  6
31  34  5
23  4  6
26  4  5
41  42  6
47  50  5
24  6  6
27  8  5

$$$$

