440344
  -OEChem-07051212493D

 22 22  0     0  0  0  0  0  0999 V2000
    1.8859   -1.4687    0.3056 O   0  0  0  0  0  0  0  0  0  0  0  0
   -1.3659    1.9789   -0.0756 O   0  0  0  0  0  0  0  0  0  0  0  0
    1.0875    2.3854   -0.5805 O   0  0  0  0  0  0  0  0  0  0  0  0
    2.4739    1.0968    0.7253 O   0  0  0  0  0  0  0  0  0  0  0  0
   -2.0738   -0.2414   -0.0067 N   0  0  0  0  0  0  0  0  0  0  0  0
    0.3202    0.3297    0.1156 C   0  0  0  0  0  0  0  0  0  0  0  0
    0.5991   -0.9825    0.2000 C   0  0  0  0  0  0  0  0  0  0  0  0
   -1.1121    0.7770    0.0024 C   0  0  0  0  0  0  0  0  0  0  0  0
   -1.7293   -1.5769    0.0827 C   0  0  0  0  0  0  0  0  0  0  0  0
   -0.4552   -1.9679    0.1835 C   0  0  0  0  0  0  0  0  0  0  0  0
   -3.4919    0.0826   -0.1137 C   0  0  0  0  0  0  0  0  0  0  0  0
    1.4247    1.2997    0.1349 C   0  0  0  0  0  0  0  0  0  0  0  0
    2.4369   -1.7128   -0.9739 C   0  0  0  0  0  0  0  0  0  0  0  0
   -2.5412   -2.2955    0.0685 H   0  0  0  0  0  0  0  0  0  0  0  0
   -0.1998   -3.0192    0.2554 H   0  0  0  0  0  0  0  0  0  0  0  0
   -3.8992   -0.3872   -1.0146 H   0  0  0  0  0  0  0  0  0  0  0  0
   -3.6505    1.1624   -0.1776 H   0  0  0  0  0  0  0  0  0  0  0  0
   -4.0137   -0.2984    0.7700 H   0  0  0  0  0  0  0  0  0  0  0  0
    3.4634   -2.0671   -0.8390 H   0  0  0  0  0  0  0  0  0  0  0  0
    2.4748   -0.8031   -1.5833 H   0  0  0  0  0  0  0  0  0  0  0  0
    1.8808   -2.4941   -1.5039 H   0  0  0  0  0  0  0  0  0  0  0  0
    1.8020    3.0573   -0.5935 H   0  0  0  0  0  0  0  0  0  0  0  0
  1  7  1  0  0  0  0
  1 13  1  0  0  0  0
  2  8  2  0  0  0  0
  3 12  1  0  0  0  0
  3 22  1  0  0  0  0
  4 12  2  0  0  0  0
  5  8  1  0  0  0  0
  5  9  1  0  0  0  0
  5 11  1  0  0  0  0
  6  7  2  0  0  0  0
  6  8  1  0  0  0  0
  6 12  1  0  0  0  0
  7 10  1  0  0  0  0
  9 10  2  0  0  0  0
  9 14  1  0  0  0  0
 10 15  1  0  0  0  0
 11 16  1  0  0  0  0
 11 17  1  0  0  0  0
 11 18  1  0  0  0  0
 13 19  1  0  0  0  0
 13 20  1  0  0  0  0
 13 21  1  0  0  0  0
M  END
> <PUBCHEM_COMPOUND_CID>
440344

> <PUBCHEM_CONFORMER_RMSD>
0.6

> <PUBCHEM_CONFORMER_DIVERSEORDER>
1
2

> <PUBCHEM_MMFF94_PARTIAL_CHARGES>
16
1 -0.36
10 -0.15
11 0.3
12 0.71
13 0.28
14 0.15
15 0.15
2 -0.57
22 0.5
3 -0.65
4 -0.57
5 -0.47
6 0.03
7 0.08
8 0.62
9 -0.04

> <PUBCHEM_EFFECTIVE_ROTOR_COUNT>
2

> <PUBCHEM_PHARMACOPHORE_FEATURES>
7
1 1 acceptor
1 2 acceptor
1 3 acceptor
1 4 acceptor
1 6 anion
3 3 4 12 anion
6 5 6 7 8 9 10 rings

> <PUBCHEM_HEAVY_ATOM_COUNT>
13

> <PUBCHEM_ATOM_DEF_STEREO_COUNT>
0

> <PUBCHEM_ATOM_UDEF_STEREO_COUNT>
0

> <PUBCHEM_BOND_DEF_STEREO_COUNT>
0

> <PUBCHEM_BOND_UDEF_STEREO_COUNT>
0

> <PUBCHEM_ISOTOPIC_ATOM_COUNT>
0

> <PUBCHEM_COMPONENT_COUNT>
1

> <PUBCHEM_CACTVS_TAUTO_COUNT>
1

> <PUBCHEM_CONFORMER_ID>
0006B81800000001

> <PUBCHEM_MMFF94_ENERGY>
40.9665

> <PUBCHEM_FEATURE_SELFOVERLAP>
35.934

> <PUBCHEM_SHAPE_FINGERPRINT>
10967382 1 18411139125733404755
11206711 2 18196935697973348135
12423570 1 11731832362051915651
12524768 44 18409731742207429163
13380535 21 18266724801875777755
13380535 220 18266731574812298388
13380535 76 18266467515885852835
161256 15 18410291445033407140
16945 1 18339077086230252121
193761 8 18267300937247013371
20588541 1 18337674100829772657
20645477 70 18335991917618894343
20871998 184 17688307889294792282
21040471 1 18194684761168520657
2334 1 18339364170482042441
23463225 33 18126575517760109464
23552423 10 18341892931272288303
23559900 14 17830170565627088134
241688 4 18195807594442431336
2748010 2 18267875049730675333
5084963 1 18114185297441738627
528886 8 18266467507443403577
66348 1 18123474035907607097
7364860 26 18259984851389666800

> <PUBCHEM_SHAPE_MULTIPOLES>
239.08
3.8
2.46
0.73
1.52
0.36
0.05
-0.3
0.29
-0.86
0.23
-0.28
-0.07
0.37

> <PUBCHEM_SHAPE_SELFOVERLAP>
500.401

> <PUBCHEM_SHAPE_VOLUME>
135.3

> <PUBCHEM_COORDINATE_TYPE>
2
5
10

$$$$

