107807
  -OEChem-07051212543D

 58 59  0     1  0  0  0  0  0999 V2000
   -0.5693    2.3700    0.9356 O   0  0  0  0  0  0  0  0  0  0  0  0
   -0.3390   -2.9888    0.5298 O   0  0  0  0  0  0  0  0  0  0  0  0
   -0.2937   -1.3715   -1.0759 O   0  0  0  0  0  0  0  0  0  0  0  0
    2.9388   -1.1670   -0.6712 O   0  0  0  0  0  0  0  0  0  0  0  0
    3.6922   -0.7501    1.4660 O   0  0  0  0  0  0  0  0  0  0  0  0
   -1.6176    0.3249    0.6657 N   0  0  0  0  0  0  0  0  0  0  0  0
    1.7245    1.2320    1.6089 N   0  0  0  0  0  0  0  0  0  0  0  0
   -3.9080   -0.1630    0.4901 C   0  0  2  0  0  0  0  0  0  0  0  0
   -2.8520    0.8780    0.1020 C   0  0  2  0  0  0  0  0  0  0  0  0
   -3.1423   -1.4836    0.3708 C   0  0  0  0  0  0  0  0  0  0  0  0
   -1.7310   -1.1259    0.8499 C   0  0  1  0  0  0  0  0  0  0  0  0
   -5.2003   -0.0946   -0.3179 C   0  0  0  0  0  0  0  0  0  0  0  0
   -2.7098    1.0957   -1.4093 C   0  0  0  0  0  0  0  0  0  0  0  0
   -4.9818    0.1061   -1.8140 C   0  0  0  0  0  0  0  0  0  0  0  0
   -4.0596    1.2888   -2.0872 C   0  0  0  0  0  0  0  0  0  0  0  0
   -0.6032    1.1523    1.1270 C   0  0  0  0  0  0  0  0  0  0  0  0
   -0.7202   -1.8088   -0.0175 C   0  0  0  0  0  0  0  0  0  0  0  0
    0.5125    0.4809    1.8880 C   0  0  2  0  0  0  0  0  0  0  0  0
    0.2005    0.4807    3.3709 C   0  0  0  0  0  0  0  0  0  0  0  0
    2.2790    0.8700    0.3101 C   0  0  1  0  0  0  0  0  0  0  0  0
    3.1432    2.0006   -0.2677 C   0  0  0  0  0  0  0  0  0  0  0  0
    3.0609   -0.4228    0.4694 C   0  0  0  0  0  0  0  0  0  0  0  0
    3.6868    1.7291   -1.6759 C   0  0  0  0  0  0  0  0  0  0  0  0
    4.4850    2.9148   -2.1974 C   0  0  0  0  0  0  0  0  0  0  0  0
    3.6186   -2.4264   -0.6627 C   0  0  0  0  0  0  0  0  0  0  0  0
    3.3858   -3.1213   -1.9873 C   0  0  0  0  0  0  0  0  0  0  0  0
   -4.1603   -0.0301    1.5521 H   0  0  0  0  0  0  0  0  0  0  0  0
   -3.0778    1.8396    0.5793 H   0  0  0  0  0  0  0  0  0  0  0  0
   -3.5877   -2.2692    0.9906 H   0  0  0  0  0  0  0  0  0  0  0  0
   -3.1396   -1.8517   -0.6622 H   0  0  0  0  0  0  0  0  0  0  0  0
   -1.5771   -1.3636    1.9058 H   0  0  0  0  0  0  0  0  0  0  0  0
   -5.8001   -0.9965   -0.1490 H   0  0  0  0  0  0  0  0  0  0  0  0
   -5.7948    0.7493    0.0558 H   0  0  0  0  0  0  0  0  0  0  0  0
   -2.0700    1.9662   -1.5983 H   0  0  0  0  0  0  0  0  0  0  0  0
   -2.2034    0.2437   -1.8781 H   0  0  0  0  0  0  0  0  0  0  0  0
   -4.5580   -0.8032   -2.2562 H   0  0  0  0  0  0  0  0  0  0  0  0
   -5.9478    0.2739   -2.3038 H   0  0  0  0  0  0  0  0  0  0  0  0
   -4.5256    2.2145   -1.7284 H   0  0  0  0  0  0  0  0  0  0  0  0
   -3.9153    1.4000   -3.1678 H   0  0  0  0  0  0  0  0  0  0  0  0
    0.6549   -0.5601    1.6003 H   0  0  0  0  0  0  0  0  0  0  0  0
    2.4226    1.0949    2.3390 H   0  0  0  0  0  0  0  0  0  0  0  0
    0.9985   -0.0065    3.9422 H   0  0  0  0  0  0  0  0  0  0  0  0
   -0.7339   -0.0473    3.5865 H   0  0  0  0  0  0  0  0  0  0  0  0
    0.0854    1.5005    3.7573 H   0  0  0  0  0  0  0  0  0  0  0  0
    0.3266   -3.4505   -0.0236 H   0  0  0  0  0  0  0  0  0  0  0  0
    1.4670    0.6944   -0.4075 H   0  0  0  0  0  0  0  0  0  0  0  0
    3.9913    2.1904    0.4039 H   0  0  0  0  0  0  0  0  0  0  0  0
    2.5491    2.9238   -0.2926 H   0  0  0  0  0  0  0  0  0  0  0  0
    2.8573    1.5205   -2.3610 H   0  0  0  0  0  0  0  0  0  0  0  0
    4.3384    0.8490   -1.6697 H   0  0  0  0  0  0  0  0  0  0  0  0
    3.8619    3.8130   -2.2539 H   0  0  0  0  0  0  0  0  0  0  0  0
    4.8663    2.7026   -3.2011 H   0  0  0  0  0  0  0  0  0  0  0  0
    5.3394    3.1290   -1.5475 H   0  0  0  0  0  0  0  0  0  0  0  0
    3.2288   -3.0453    0.1532 H   0  0  0  0  0  0  0  0  0  0  0  0
    4.6916   -2.2610   -0.5146 H   0  0  0  0  0  0  0  0  0  0  0  0
    2.3151   -3.2770   -2.1568 H   0  0  0  0  0  0  0  0  0  0  0  0
    3.7521   -2.5051   -2.8150 H   0  0  0  0  0  0  0  0  0  0  0  0
    3.8928   -4.0897   -2.0158 H   0  0  0  0  0  0  0  0  0  0  0  0
  1 16  2  0  0  0  0
  2 17  1  0  0  0  0
  2 45  1  0  0  0  0
  3 17  2  0  0  0  0
  4 22  1  0  0  0  0
  4 25  1  0  0  0  0
  5 22  2  0  0  0  0
  6  9  1  0  0  0  0
  6 11  1  0  0  0  0
  6 16  1  0  0  0  0
  7 18  1  0  0  0  0
  7 20  1  0  0  0  0
  7 41  1  0  0  0  0
  8  9  1  0  0  0  0
  8 10  1  0  0  0  0
  8 12  1  0  0  0  0
  8 27  1  0  0  0  0
  9 13  1  0  0  0  0
  9 28  1  0  0  0  0
 10 11  1  0  0  0  0
 10 29  1  0  0  0  0
 10 30  1  0  0  0  0
 11 17  1  0  0  0  0
 11 31  1  0  0  0  0
 12 14  1  0  0  0  0
 12 32  1  0  0  0  0
 12 33  1  0  0  0  0
 13 15  1  0  0  0  0
 13 34  1  0  0  0  0
 13 35  1  0  0  0  0
 14 15  1  0  0  0  0
 14 36  1  0  0  0  0
 14 37  1  0  0  0  0
 15 38  1  0  0  0  0
 15 39  1  0  0  0  0
 16 18  1  0  0  0  0
 18 19  1  0  0  0  0
 18 40  1  0  0  0  0
 19 42  1  0  0  0  0
 19 43  1  0  0  0  0
 19 44  1  0  0  0  0
 20 21  1  0  0  0  0
 20 22  1  0  0  0  0
 20 46  1  0  0  0  0
 21 23  1  0  0  0  0
 21 47  1  0  0  0  0
 21 48  1  0  0  0  0
 23 24  1  0  0  0  0
 23 49  1  0  0  0  0
 23 50  1  0  0  0  0
 24 51  1  0  0  0  0
 24 52  1  0  0  0  0
 24 53  1  0  0  0  0
 25 26  1  0  0  0  0
 25 54  1  0  0  0  0
 25 55  1  0  0  0  0
 26 56  1  0  0  0  0
 26 57  1  0  0  0  0
 26 58  1  0  0  0  0
M  END
> <PUBCHEM_COMPOUND_CID>
107807

> <PUBCHEM_CONFORMER_RMSD>
1

> <PUBCHEM_CONFORMER_DIVERSEORDER>
1
20
27
53
18
36
13
38
52
31
23
4
54
19
25
32
6
49
41
48
55
33
50
34
26
17
24
44
39
3
46
15
8
22
37
42
14
28
47
29
40
45
51
11
21
9
7
16
10
12
2
43
5
35
30

> <PUBCHEM_MMFF94_PARTIAL_CHARGES>
17
1 -0.57
11 0.36
16 0.57
17 0.66
18 0.33
2 -0.65
20 0.33
22 0.66
25 0.28
3 -0.57
4 -0.43
41 0.36
45 0.5
5 -0.57
6 -0.66
7 -0.9
9 0.3

> <PUBCHEM_EFFECTIVE_ROTOR_COUNT>
11.4

> <PUBCHEM_PHARMACOPHORE_FEATURES>
10
1 1 acceptor
1 2 acceptor
1 24 hydrophobe
1 3 acceptor
1 5 acceptor
1 7 cation
1 7 donor
3 2 3 17 anion
5 6 8 9 10 11 rings
6 8 9 12 13 14 15 rings

> <PUBCHEM_HEAVY_ATOM_COUNT>
26

> <PUBCHEM_ATOM_DEF_STEREO_COUNT>
5

> <PUBCHEM_ATOM_UDEF_STEREO_COUNT>
0

> <PUBCHEM_BOND_DEF_STEREO_COUNT>
0

> <PUBCHEM_BOND_UDEF_STEREO_COUNT>
0

> <PUBCHEM_ISOTOPIC_ATOM_COUNT>
0

> <PUBCHEM_COMPONENT_COUNT>
1

> <PUBCHEM_CACTVS_TAUTO_COUNT>
1

> <PUBCHEM_CONFORMER_ID>
0001A51F00000001

> <PUBCHEM_MMFF94_ENERGY>
40.7209

> <PUBCHEM_FEATURE_SELFOVERLAP>
50.956

> <PUBCHEM_SHAPE_FINGERPRINT>
10062212 137 17386287730776740443
10382601 240 10231455399354028254
12173636 292 16200152067180211121
12553582 1 17968365754510293232
12788726 201 17242142821232226648
13583140 156 17346880087096156787
14251757 17 18268433601632369447
14251764 38 18059862795816446085
14468879 13 17773864320889089960
14957384 54 17488485072845742759
15163728 17 18202562908564760365
15342816 4 16587749741350365236
16752209 62 17677035919583420584
1813 80 16588025693126188817
20626108 58 14852474080751168333
20715895 44 18129395949917018677
20775530 9 17680415943119100078
22907989 373 18410853248763940469
23227448 37 17273976839788951541
23557571 272 15481242905030256176
23559900 14 18408039637073451054
2838139 119 16986023489582253084
34797466 226 17918277528735936253
4280585 95 18123736824484517838
44802255 64 17195970811527258460
46194498 28 18272644654094425038
463206 1 17385734607281744679
633830 44 18343021138056369949
7288768 16 15625382294840967536

> <PUBCHEM_SHAPE_MULTIPOLES>
495.76
9.57
3.03
2.47
3.01
0.85
0.81
-1.96
-6.34
-4
-1.77
-0.79
-0.56
0.51

> <PUBCHEM_SHAPE_SELFOVERLAP>
1003.085

> <PUBCHEM_SHAPE_VOLUME>
289

> <PUBCHEM_COORDINATE_TYPE>
2
5
10

$$$$

