17396461
  -OEChem-06241222562D

 52 55  0     0  0  0  0  0  0999 V2000
    5.2368   -1.2436    0.0000 O   0  0  0  0  0  0  0  0  0  0  0  0
    8.4444    0.5559    0.0000 O   0  0  0  0  0  0  0  0  0  0  0  0
    2.7688    0.9946    0.0000 N   0  0  0  0  0  0  0  0  0  0  0  0
    5.7720    0.4037    0.0000 N   0  0  0  0  0  0  0  0  0  0  0  0
    2.4598    0.0435    0.0000 N   0  0  0  0  0  0  0  0  0  0  0  0
    4.0778    0.0435    0.0000 C   0  0  0  0  0  0  0  0  0  0  0  0
    3.2688   -0.5442    0.0000 C   0  0  0  0  0  0  0  0  0  0  0  0
    2.1810    1.8036    0.0000 C   0  0  0  0  0  0  0  0  0  0  0  0
    3.7688    0.9946    0.0000 C   0  0  0  0  0  0  0  0  0  0  0  0
    3.2688   -1.5442    0.0000 C   0  0  0  0  0  0  0  0  0  0  0  0
    5.0289   -0.2655    0.0000 C   0  0  0  0  0  0  0  0  0  0  0  0
    6.7231    0.0946    0.0000 C   0  0  0  0  0  0  0  0  0  0  0  0
    2.5878    2.7172    0.0000 C   0  0  0  0  0  0  0  0  0  0  0  0
    2.4028   -2.0442    0.0000 C   0  0  0  0  0  0  0  0  0  0  0  0
    4.1349   -2.0442    0.0000 C   0  0  0  0  0  0  0  0  0  0  0  0
    5.5641    1.3818    0.0000 C   0  0  0  0  0  0  0  0  0  0  0  0
    7.4662    0.7638    0.0000 C   0  0  0  0  0  0  0  0  0  0  0  0
    3.2688   -3.5442    0.0000 C   0  0  0  0  0  0  0  0  0  0  0  0
    2.4028   -3.0442    0.0000 C   0  0  0  0  0  0  0  0  0  0  0  0
    4.1349   -3.0442    0.0000 C   0  0  0  0  0  0  0  0  0  0  0  0
    3.5823    2.8217    0.0000 C   0  0  0  0  0  0  0  0  0  0  0  0
    2.0000    3.5262    0.0000 C   0  0  0  0  0  0  0  0  0  0  0  0
    7.3617    1.7583    0.0000 C   0  0  0  0  0  0  0  0  0  0  0  0
    3.9890    3.7352    0.0000 C   0  0  0  0  0  0  0  0  0  0  0  0
    2.4067    4.4397    0.0000 C   0  0  0  0  0  0  0  0  0  0  0  0
    3.2688   -4.5442    0.0000 C   0  0  0  0  0  0  0  0  0  0  0  0
    3.4013    4.5442    0.0000 C   0  0  0  0  0  0  0  0  0  0  0  0
    8.2753    2.1650    0.0000 C   0  0  0  0  0  0  0  0  0  0  0  0
    8.9444    1.4219    0.0000 C   0  0  0  0  0  0  0  0  0  0  0  0
    1.6670    2.1503    0.0000 H   0  0  0  0  0  0  0  0  0  0  0  0
    1.7504    1.3576    0.0000 H   0  0  0  0  0  0  0  0  0  0  0  0
    4.1333    1.4962    0.0000 H   0  0  0  0  0  0  0  0  0  0  0  0
    6.4320   -0.4528    0.0000 H   0  0  0  0  0  0  0  0  0  0  0  0
    7.2117   -0.2871    0.0000 H   0  0  0  0  0  0  0  0  0  0  0  0
    1.8659   -1.7342    0.0000 H   0  0  0  0  0  0  0  0  0  0  0  0
    4.6718   -1.7342    0.0000 H   0  0  0  0  0  0  0  0  0  0  0  0
    6.1706    1.5107    0.0000 H   0  0  0  0  0  0  0  0  0  0  0  0
    5.4352    1.9882    0.0000 H   0  0  0  0  0  0  0  0  0  0  0  0
    4.9577    1.2529    0.0000 H   0  0  0  0  0  0  0  0  0  0  0  0
    1.8659   -3.3542    0.0000 H   0  0  0  0  0  0  0  0  0  0  0  0
    4.6718   -3.3542    0.0000 H   0  0  0  0  0  0  0  0  0  0  0  0
    3.9467    2.3201    0.0000 H   0  0  0  0  0  0  0  0  0  0  0  0
    1.3834    3.4614    0.0000 H   0  0  0  0  0  0  0  0  0  0  0  0
    6.8248    2.0683    0.0000 H   0  0  0  0  0  0  0  0  0  0  0  0
    4.6056    3.8000    0.0000 H   0  0  0  0  0  0  0  0  0  0  0  0
    2.0423    4.9413    0.0000 H   0  0  0  0  0  0  0  0  0  0  0  0
    2.6488   -4.5442    0.0000 H   0  0  0  0  0  0  0  0  0  0  0  0
    3.2688   -5.1642    0.0000 H   0  0  0  0  0  0  0  0  0  0  0  0
    3.8888   -4.5442    0.0000 H   0  0  0  0  0  0  0  0  0  0  0  0
    3.6534    5.1106    0.0000 H   0  0  0  0  0  0  0  0  0  0  0  0
    8.4042    2.7715    0.0000 H   0  0  0  0  0  0  0  0  0  0  0  0
    9.5610    1.4867    0.0000 H   0  0  0  0  0  0  0  0  0  0  0  0
  1 11  2  0  0  0  0
  2 17  1  0  0  0  0
  2 29  1  0  0  0  0
  3  5  1  0  0  0  0
  3  8  1  0  0  0  0
  3  9  1  0  0  0  0
  4 11  1  0  0  0  0
  4 12  1  0  0  0  0
  4 16  1  0  0  0  0
  5  7  2  0  0  0  0
  6  7  1  0  0  0  0
  6  9  2  0  0  0  0
  6 11  1  0  0  0  0
  7 10  1  0  0  0  0
  8 13  1  0  0  0  0
  8 30  1  0  0  0  0
  8 31  1  0  0  0  0
  9 32  1  0  0  0  0
 10 14  2  0  0  0  0
 10 15  1  0  0  0  0
 12 17  1  0  0  0  0
 12 33  1  0  0  0  0
 12 34  1  0  0  0  0
 13 21  2  0  0  0  0
 13 22  1  0  0  0  0
 14 19  1  0  0  0  0
 14 35  1  0  0  0  0
 15 20  2  0  0  0  0
 15 36  1  0  0  0  0
 16 37  1  0  0  0  0
 16 38  1  0  0  0  0
 16 39  1  0  0  0  0
 17 23  2  0  0  0  0
 18 19  2  0  0  0  0
 18 20  1  0  0  0  0
 18 26  1  0  0  0  0
 19 40  1  0  0  0  0
 20 41  1  0  0  0  0
 21 24  1  0  0  0  0
 21 42  1  0  0  0  0
 22 25  2  0  0  0  0
 22 43  1  0  0  0  0
 23 28  1  0  0  0  0
 23 44  1  0  0  0  0
 24 27  2  0  0  0  0
 24 45  1  0  0  0  0
 25 27  1  0  0  0  0
 25 46  1  0  0  0  0
 26 47  1  0  0  0  0
 26 48  1  0  0  0  0
 26 49  1  0  0  0  0
 27 50  1  0  0  0  0
 28 29  2  0  0  0  0
 28 51  1  0  0  0  0
 29 52  1  0  0  0  0
M  END
> <PUBCHEM_COMPOUND_CID>
17396461

> <PUBCHEM_COMPOUND_CANONICALIZED>
1

> <PUBCHEM_CACTVS_COMPLEXITY>
528

> <PUBCHEM_CACTVS_HBOND_ACCEPTOR>
3

> <PUBCHEM_CACTVS_HBOND_DONOR>
0

> <PUBCHEM_CACTVS_ROTATABLE_BOND>
6

> <PUBCHEM_CACTVS_SUBSKEYS>
AAADceB7MAAAAAAAAAAAAAAAAAAAAWJAAAAwYAAAAAAAAAAB9AAAHgAIAAAADAzhngY+hJMIBECqA7131ACSDAA1oAAY2CGuTNgOJrrE9fuHvajkzhHY6ceYmcKOQAAAAAAAAACAAAAAAAAAAAAAAAAAAA==

> <PUBCHEM_IUPAC_OPENEYE_NAME>
1-benzyl-N-(2-furylmethyl)-N-methyl-3-(p-tolyl)pyrazole-4-carboxamide

> <PUBCHEM_IUPAC_CAS_NAME>
N-(2-furanylmethyl)-N-methyl-3-(4-methylphenyl)-1-(phenylmethyl)-4-pyrazolecarboxamide

> <PUBCHEM_IUPAC_NAME>
1-benzyl-N-(furan-2-ylmethyl)-N-methyl-3-(4-methylphenyl)pyrazole-4-carboxamide

> <PUBCHEM_IUPAC_SYSTEMATIC_NAME>
N-(furan-2-ylmethyl)-N-methyl-3-(4-methylphenyl)-1-(phenylmethyl)pyrazole-4-carboxamide

> <PUBCHEM_IUPAC_TRADITIONAL_NAME>
1-benzyl-N-(2-furfuryl)-N-methyl-3-(p-tolyl)pyrazole-4-carboxamide

> <PUBCHEM_IUPAC_INCHI>
InChI=1S/C24H23N3O2/c1-18-10-12-20(13-11-18)23-22(24(28)26(2)16-21-9-6-14-29-21)17-27(25-23)15-19-7-4-3-5-8-19/h3-14,17H,15-16H2,1-2H3

> <PUBCHEM_IUPAC_INCHIKEY>
LIWIUOUNBIEZID-UHFFFAOYSA-N

> <PUBCHEM_XLOGP3_AA>
3.9

> <PUBCHEM_EXACT_MASS>
385.179027

> <PUBCHEM_MOLECULAR_FORMULA>
C24H23N3O2

> <PUBCHEM_MOLECULAR_WEIGHT>
385.45832

> <PUBCHEM_OPENEYE_CAN_SMILES>
CC1=CC=C(C=C1)C2=NN(C=C2C(=O)N(C)CC3=CC=CO3)CC4=CC=CC=C4

> <PUBCHEM_OPENEYE_ISO_SMILES>
CC1=CC=C(C=C1)C2=NN(C=C2C(=O)N(C)CC3=CC=CO3)CC4=CC=CC=C4

> <PUBCHEM_CACTVS_TPSA>
51.3

> <PUBCHEM_MONOISOTOPIC_WEIGHT>
385.179027

> <PUBCHEM_TOTAL_CHARGE>
0

> <PUBCHEM_HEAVY_ATOM_COUNT>
29

> <PUBCHEM_ATOM_DEF_STEREO_COUNT>
0

> <PUBCHEM_ATOM_UDEF_STEREO_COUNT>
0

> <PUBCHEM_BOND_DEF_STEREO_COUNT>
0

> <PUBCHEM_BOND_UDEF_STEREO_COUNT>
0

> <PUBCHEM_ISOTOPIC_ATOM_COUNT>
0

> <PUBCHEM_COMPONENT_COUNT>
1

> <PUBCHEM_CACTVS_TAUTO_COUNT>
1

> <PUBCHEM_COORDINATE_TYPE>
1
5
255

> <PUBCHEM_BONDANNOTATIONS>
10  14  8
10  15  8
13  21  8
13  22  8
14  19  8
15  20  8
17  23  8
18  19  8
18  20  8
2  17  8
2  29  8
21  24  8
22  25  8
23  28  8
24  27  8
25  27  8
28  29  8
3  5  8
3  9  8
5  7  8
6  7  8
6  9  8

$$$$

