5282361
  -OEChem-07051213043D

 29 30  0     0  0  0  0  0  0999 V2000
    5.9864    1.1322    0.2575 O   0  0  0  0  0  0  0  0  0  0  0  0
   -1.7174   -2.2439   -0.4388 O   0  0  0  0  0  0  0  0  0  0  0  0
    2.1771   -0.4784   -0.0938 C   0  0  0  0  0  0  0  0  0  0  0  0
   -2.8514   -0.2254   -0.0592 C   0  0  0  0  0  0  0  0  0  0  0  0
    0.8423   -1.0425   -0.2157 C   0  0  0  0  0  0  0  0  0  0  0  0
    2.3724    0.8931   -0.2573 C   0  0  0  0  0  0  0  0  0  0  0  0
    3.2621   -1.3086    0.1878 C   0  0  0  0  0  0  0  0  0  0  0  0
   -1.6238   -1.0397   -0.2285 C   0  0  0  0  0  0  0  0  0  0  0  0
   -0.3115   -0.3466   -0.1017 C   0  0  0  0  0  0  0  0  0  0  0  0
   -2.8228    1.1091   -0.4123 C   0  0  0  0  0  0  0  0  0  0  0  0
   -3.9874   -0.8257    0.4465 C   0  0  0  0  0  0  0  0  0  0  0  0
    3.6525    1.4344   -0.1396 C   0  0  0  0  0  0  0  0  0  0  0  0
    4.5422   -0.7673    0.3058 C   0  0  0  0  0  0  0  0  0  0  0  0
    4.7374    0.6042    0.1419 C   0  0  0  0  0  0  0  0  0  0  0  0
   -3.9779    1.8749   -0.2532 C   0  0  0  0  0  0  0  0  0  0  0  0
   -5.1425   -0.0600    0.6053 C   0  0  0  0  0  0  0  0  0  0  0  0
   -5.1377    1.2903    0.2554 C   0  0  0  0  0  0  0  0  0  0  0  0
    0.8051   -2.1101   -0.4213 H   0  0  0  0  0  0  0  0  0  0  0  0
    1.5622    1.5752   -0.4985 H   0  0  0  0  0  0  0  0  0  0  0  0
    3.1294   -2.3797    0.3202 H   0  0  0  0  0  0  0  0  0  0  0  0
   -0.3036    0.7037    0.1587 H   0  0  0  0  0  0  0  0  0  0  0  0
   -1.9558    1.5927   -0.8495 H   0  0  0  0  0  0  0  0  0  0  0  0
   -4.0055   -1.8744    0.7279 H   0  0  0  0  0  0  0  0  0  0  0  0
    3.7926    2.5036   -0.2738 H   0  0  0  0  0  0  0  0  0  0  0  0
    5.3836   -1.4188    0.5256 H   0  0  0  0  0  0  0  0  0  0  0  0
   -3.9776    2.9240   -0.5342 H   0  0  0  0  0  0  0  0  0  0  0  0
   -6.0455   -0.5149    1.0020 H   0  0  0  0  0  0  0  0  0  0  0  0
   -6.0377    1.8860    0.3772 H   0  0  0  0  0  0  0  0  0  0  0  0
    5.9368    2.0931    0.1148 H   0  0  0  0  0  0  0  0  0  0  0  0
  1 14  1  0  0  0  0
  1 29  1  0  0  0  0
  2  8  2  0  0  0  0
  3  5  1  0  0  0  0
  3  6  2  0  0  0  0
  3  7  1  0  0  0  0
  4  8  1  0  0  0  0
  4 10  2  0  0  0  0
  4 11  1  0  0  0  0
  5  9  2  0  0  0  0
  5 18  1  0  0  0  0
  6 12  1  0  0  0  0
  6 19  1  0  0  0  0
  7 13  2  0  0  0  0
  7 20  1  0  0  0  0
  8  9  1  0  0  0  0
  9 21  1  0  0  0  0
 10 15  1  0  0  0  0
 10 22  1  0  0  0  0
 11 16  2  0  0  0  0
 11 23  1  0  0  0  0
 12 14  2  0  0  0  0
 12 24  1  0  0  0  0
 13 14  1  0  0  0  0
 13 25  1  0  0  0  0
 15 17  2  0  0  0  0
 15 26  1  0  0  0  0
 16 17  1  0  0  0  0
 16 27  1  0  0  0  0
 17 28  1  0  0  0  0
M  END
> <PUBCHEM_COMPOUND_CID>
5282361

> <PUBCHEM_CONFORMER_RMSD>
0.6

> <PUBCHEM_CONFORMER_DIVERSEORDER>
1
8
7
4
5
6
3
2
9

> <PUBCHEM_MMFF94_PARTIAL_CHARGES>
29
1 -0.53
10 -0.15
11 -0.15
12 -0.15
13 -0.15
14 0.08
15 -0.15
16 -0.15
17 -0.15
18 0.15
19 0.15
2 -0.57
20 0.15
21 0.15
22 0.15
23 0.15
24 0.15
25 0.15
26 0.15
27 0.15
28 0.15
29 0.45
3 0.03
4 0.09
5 -0.18
6 -0.15
7 -0.15
8 0.47
9 -0.14

> <PUBCHEM_EFFECTIVE_ROTOR_COUNT>
3

> <PUBCHEM_PHARMACOPHORE_FEATURES>
4
1 1 donor
1 2 acceptor
6 3 6 7 12 13 14 rings
6 4 10 11 15 16 17 rings

> <PUBCHEM_HEAVY_ATOM_COUNT>
17

> <PUBCHEM_ATOM_DEF_STEREO_COUNT>
0

> <PUBCHEM_ATOM_UDEF_STEREO_COUNT>
0

> <PUBCHEM_BOND_DEF_STEREO_COUNT>
1

> <PUBCHEM_BOND_UDEF_STEREO_COUNT>
0

> <PUBCHEM_ISOTOPIC_ATOM_COUNT>
0

> <PUBCHEM_COMPONENT_COUNT>
1

> <PUBCHEM_CACTVS_TAUTO_COUNT>
2

> <PUBCHEM_CONFORMER_ID>
00509A3900000001

> <PUBCHEM_MMFF94_ENERGY>
52.5265

> <PUBCHEM_FEATURE_SELFOVERLAP>
20.297

> <PUBCHEM_SHAPE_FINGERPRINT>
10 15 18271247127877180752
10014705 185 18334861610426453823
10354089 29 18272930518765120936
11046707 91 10592040263220596143
11089746 13 17749399148174129800
11595378 159 17417828269565123032
12107183 9 17693946592917365825
12507557 5 18341891892286049425
12555020 224 9295282803995759137
12596602 18 17275385395551199673
12916748 109 18335977644672000753
13675066 3 18202560687422823287
13785724 45 17689154938846542698
14123255 352 18409451414150387125
14251764 18 18202006517305454882
14252887 29 14405189495234620626
14341114 176 18343577464621588208
15188451 53 16199859558812370835
15196674 1 18411138060386317005
15501527 16 18408602560998216057
17870717 6 7925913690649094993
1813 80 16343699958727287366
193927 3 11023830616946773120
19489759 90 15913332403629116485
20281389 69 18411140225598772376
20645477 56 18407760322195784335
20645477 70 16950832700584959862
21065199 12 18272929453354963715
212847 35 18260832613752059120
21421861 104 17845105128776243594
21652331 79 18413389847531696589
23402539 116 18259992578236221229
23402655 69 18335423448384148758
23559900 14 18114460188392372918
2916195 48 18335426733680877904
300161 21 18186526488386427650
351380 180 18343582953911701769
351380 3 10879988051893858489
3545911 37 18335136484228224086
42 15 18060418031828754662
4214541 1 18411700984675488039
465052 167 11527653202960669753
474 4 17845932940208326076
5104073 3 18342738545855400219
542803 24 17313103059557133098
77779 3 18413107259968435194
8272917 22 18335980960914845790
90127 26 18341601646669395050

> <PUBCHEM_SHAPE_MULTIPOLES>
338.11
13.34
1.8
0.69
3.09
0.01
0.01
4.78
2.18
-0.42
-0.15
-0.18
-0.02
0.06

> <PUBCHEM_SHAPE_SELFOVERLAP>
729.044

> <PUBCHEM_SHAPE_VOLUME>
185.6

> <PUBCHEM_COORDINATE_TYPE>
2
5
10

$$$$

