5284599
  -OEChem-07051212542D

 48 50  0     0  0  0  0  0  0999 V2000
    7.1620    3.0953    0.0000 O   0  0  0  0  0  0  0  0  0  0  0  0
    2.5932   -0.1571    0.0000 O   0  0  0  0  0  0  0  0  0  0  0  0
    3.0973    1.4999    0.0000 O   0  0  0  0  0  0  0  0  0  0  0  0
    9.3940   -2.0953    0.0000 N   0  0  0  0  0  0  0  0  0  0  0  0
    7.6619    0.9047    0.0000 C   0  0  0  0  0  0  0  0  0  0  0  0
    6.7610    1.3386    0.0000 C   0  0  0  0  0  0  0  0  0  0  0  0
    8.5629    1.3386    0.0000 C   0  0  0  0  0  0  0  0  0  0  0  0
    8.7854    2.3135    0.0000 C   0  0  0  0  0  0  0  0  0  0  0  0
    6.5384    2.3135    0.0000 C   0  0  0  0  0  0  0  0  0  0  0  0
    8.5279   -0.5953    0.0000 C   0  0  0  0  0  0  0  0  0  0  0  0
    7.6619   -0.0953    0.0000 C   0  0  0  0  0  0  0  0  0  0  0  0
    8.1619    3.0953    0.0000 C   0  0  0  0  0  0  0  0  0  0  0  0
    8.5279   -1.5953    0.0000 C   0  0  0  0  0  0  0  0  0  0  0  0
    6.0084    0.6184    0.0000 C   0  0  0  0  0  0  0  0  0  0  0  0
    5.0107    0.9178    0.0000 C   0  0  0  0  0  0  0  0  0  0  0  0
    9.3154    0.6184    0.0000 C   0  0  0  0  0  0  0  0  0  0  0  0
    5.5480    2.6358    0.0000 C   0  0  0  0  0  0  0  0  0  0  0  0
    9.7759    2.6358    0.0000 C   0  0  0  0  0  0  0  0  0  0  0  0
    4.7789    1.9333    0.0000 C   0  0  0  0  0  0  0  0  0  0  0  0
    4.2803    0.2348    0.0000 C   0  0  0  0  0  0  0  0  0  0  0  0
   10.3131    0.9177    0.0000 C   0  0  0  0  0  0  0  0  0  0  0  0
   10.5449    1.9332    0.0000 C   0  0  0  0  0  0  0  0  0  0  0  0
    9.3940   -3.0953    0.0000 C   0  0  0  0  0  0  0  0  0  0  0  0
   10.2600   -1.5953    0.0000 C   0  0  0  0  0  0  0  0  0  0  0  0
    3.3236    0.5258    0.0000 C   0  0  0  0  0  0  0  0  0  0  0  0
    9.1385   -0.7030    0.0000 H   0  0  0  0  0  0  0  0  0  0  0  0
    8.7400   -0.0127    0.0000 H   0  0  0  0  0  0  0  0  0  0  0  0
    7.1250   -0.4053    0.0000 H   0  0  0  0  0  0  0  0  0  0  0  0
    8.7206    3.3643    0.0000 H   0  0  0  0  0  0  0  0  0  0  0  0
    8.0240    3.6998    0.0000 H   0  0  0  0  0  0  0  0  0  0  0  0
    7.9174   -1.4877    0.0000 H   0  0  0  0  0  0  0  0  0  0  0  0
    8.3159   -2.1779    0.0000 H   0  0  0  0  0  0  0  0  0  0  0  0
    6.1533    0.0156    0.0000 H   0  0  0  0  0  0  0  0  0  0  0  0
    9.1705    0.0156    0.0000 H   0  0  0  0  0  0  0  0  0  0  0  0
    5.4170    3.2419    0.0000 H   0  0  0  0  0  0  0  0  0  0  0  0
    9.9069    3.2418    0.0000 H   0  0  0  0  0  0  0  0  0  0  0  0
    4.1872    2.1183    0.0000 H   0  0  0  0  0  0  0  0  0  0  0  0
    3.9996   -0.3180    0.0000 H   0  0  0  0  0  0  0  0  0  0  0  0
    4.7759   -0.1377    0.0000 H   0  0  0  0  0  0  0  0  0  0  0  0
   10.7660    0.4943    0.0000 H   0  0  0  0  0  0  0  0  0  0  0  0
   11.1367    2.1183    0.0000 H   0  0  0  0  0  0  0  0  0  0  0  0
    8.7739   -3.0953    0.0000 H   0  0  0  0  0  0  0  0  0  0  0  0
   10.5700   -2.1323    0.0000 H   0  0  0  0  0  0  0  0  0  0  0  0
   10.7969   -1.2853    0.0000 H   0  0  0  0  0  0  0  0  0  0  0  0
    9.9500   -1.0584    0.0000 H   0  0  0  0  0  0  0  0  0  0  0  0
    9.3939   -3.7153    0.0000 H   0  0  0  0  0  0  0  0  0  0  0  0
   10.0139   -3.0953    0.0000 H   0  0  0  0  0  0  0  0  0  0  0  0
    2.0000    0.0233    0.0000 H   0  0  0  0  0  0  0  0  0  0  0  0
  1  9  1  0  0  0  0
  1 12  1  0  0  0  0
  2 25  1  0  0  0  0
  2 48  1  0  0  0  0
  3 25  2  0  0  0  0
  4 13  1  0  0  0  0
  4 23  1  0  0  0  0
  4 24  1  0  0  0  0
  5  6  1  0  0  0  0
  5  7  1  0  0  0  0
  5 11  2  0  0  0  0
  6  9  2  0  0  0  0
  6 14  1  0  0  0  0
  7  8  1  0  0  0  0
  7 16  2  0  0  0  0
  8 12  1  0  0  0  0
  8 18  2  0  0  0  0
  9 17  1  0  0  0  0
 10 11  1  0  0  0  0
 10 13  1  0  0  0  0
 10 26  1  0  0  0  0
 10 27  1  0  0  0  0
 11 28  1  0  0  0  0
 12 29  1  0  0  0  0
 12 30  1  0  0  0  0
 13 31  1  0  0  0  0
 13 32  1  0  0  0  0
 14 15  2  0  0  0  0
 14 33  1  0  0  0  0
 15 19  1  0  0  0  0
 15 20  1  0  0  0  0
 16 21  1  0  0  0  0
 16 34  1  0  0  0  0
 17 19  2  0  0  0  0
 17 35  1  0  0  0  0
 18 22  1  0  0  0  0
 18 36  1  0  0  0  0
 19 37  1  0  0  0  0
 20 25  1  0  0  0  0
 20 38  1  0  0  0  0
 20 39  1  0  0  0  0
 21 22  2  0  0  0  0
 21 40  1  0  0  0  0
 22 41  1  0  0  0  0
 23 42  1  0  0  0  0
 23 46  1  0  0  0  0
 23 47  1  0  0  0  0
 24 43  1  0  0  0  0
 24 44  1  0  0  0  0
 24 45  1  0  0  0  0
M  END
> <PUBCHEM_COMPOUND_CID>
5284599

> <PUBCHEM_COMPOUND_CANONICALIZED>
1

> <PUBCHEM_CACTVS_COMPLEXITY>
488

> <PUBCHEM_CACTVS_HBOND_ACCEPTOR>
4

> <PUBCHEM_CACTVS_HBOND_DONOR>
1

> <PUBCHEM_CACTVS_ROTATABLE_BOND>
5

> <PUBCHEM_CACTVS_SUBSKEYS>
AAADceB6MAAAAAAAAAAAAAAAAAAAAAAAAAAwYAAABIAAAAABQAAAHgAACAAADAThmAYyDoMABgCIAiDSCAACCAAgIAAIiAEOCIgMJjKENRqGeCCkwBEIqAeIyPCOoAACAAAYAABAAAQAADAAAAAAAAAAAA==

> <PUBCHEM_IUPAC_OPENEYE_NAME>
2-[(11E)-11-[3-(dimethylamino)propylidene]-6H-benzo[c][1]benzoxepin-2-yl]acetic acid

> <PUBCHEM_IUPAC_CAS_NAME>
2-[(11E)-11-[3-(dimethylamino)propylidene]-6H-benzo[c][1]benzoxepin-2-yl]acetic acid

> <PUBCHEM_IUPAC_NAME>
2-[(11E)-11-[3-(dimethylamino)propylidene]-6H-benzo[c][1]benzoxepin-2-yl]acetic acid

> <PUBCHEM_IUPAC_SYSTEMATIC_NAME>
2-[(11E)-11-[3-(dimethylamino)propylidene]-6H-benzo[c][1]benzoxepin-2-yl]ethanoic acid

> <PUBCHEM_IUPAC_TRADITIONAL_NAME>
2-[(11E)-11-[3-(dimethylamino)propylidene]-6H-benzo[c][1]benzoxepin-2-yl]acetic acid

> <PUBCHEM_IUPAC_INCHI>
InChI=1S/C21H23NO3/c1-22(2)11-5-8-18-17-7-4-3-6-16(17)14-25-20-10-9-15(12-19(18)20)13-21(23)24/h3-4,6-10,12H,5,11,13-14H2,1-2H3,(H,23,24)/b18-8+

> <PUBCHEM_IUPAC_INCHIKEY>
JBIMVDZLSHOPLA-QGMBQPNBSA-N

> <PUBCHEM_XLOGP3>
1.5

> <PUBCHEM_EXACT_MASS>
337.167794

> <PUBCHEM_MOLECULAR_FORMULA>
C21H23NO3

> <PUBCHEM_MOLECULAR_WEIGHT>
337.41222

> <PUBCHEM_OPENEYE_CAN_SMILES>
CN(C)CCC=C1C2=CC=CC=C2COC3=C1C=C(C=C3)CC(=O)O

> <PUBCHEM_OPENEYE_ISO_SMILES>
CN(C)CC/C=C/1\C2=CC=CC=C2COC3=C1C=C(C=C3)CC(=O)O

> <PUBCHEM_CACTVS_TPSA>
49.8

> <PUBCHEM_MONOISOTOPIC_WEIGHT>
337.167794

> <PUBCHEM_TOTAL_CHARGE>
0

> <PUBCHEM_HEAVY_ATOM_COUNT>
25

> <PUBCHEM_ATOM_DEF_STEREO_COUNT>
0

> <PUBCHEM_ATOM_UDEF_STEREO_COUNT>
0

> <PUBCHEM_BOND_DEF_STEREO_COUNT>
1

> <PUBCHEM_BOND_UDEF_STEREO_COUNT>
0

> <PUBCHEM_ISOTOPIC_ATOM_COUNT>
0

> <PUBCHEM_COMPONENT_COUNT>
1

> <PUBCHEM_CACTVS_TAUTO_COUNT>
1

> <PUBCHEM_COORDINATE_TYPE>
1
5
255

> <PUBCHEM_BONDANNOTATIONS>
14  15  8
15  19  8
16  21  8
17  19  8
18  22  8
21  22  8
6  14  8
6  9  8
7  16  8
7  8  8
8  18  8
9  17  8

$$$$

