17395290
  -OEChem-06241222492D

 33 34  0     0  0  0  0  0  0999 V2000
    3.7320    0.6488    0.0000 S   0  0  0  0  0  0  0  0  0  0  0  0
    4.7320    0.6488    0.0000 O   0  0  0  0  0  0  0  0  0  0  0  0
    2.7320    0.6488    0.0000 O   0  0  0  0  0  0  0  0  0  0  0  0
    3.7320    1.6488    0.0000 N   0  0  0  0  0  0  0  0  0  0  0  0
    6.1808    2.4852    0.0000 N   0  0  0  0  0  0  0  0  0  0  0  0
    5.5116    1.7420    0.0000 N   0  0  0  0  0  0  0  0  0  0  0  0
    3.7320   -0.3512    0.0000 C   0  0  0  0  0  0  0  0  0  0  0  0
    2.8660   -0.8512    0.0000 C   0  0  0  0  0  0  0  0  0  0  0  0
    4.5981   -0.8512    0.0000 C   0  0  0  0  0  0  0  0  0  0  0  0
    2.8660   -1.8512    0.0000 C   0  0  0  0  0  0  0  0  0  0  0  0
    3.7320   -2.3512    0.0000 C   0  0  0  0  0  0  0  0  0  0  0  0
    4.5981   -1.8512    0.0000 C   0  0  0  0  0  0  0  0  0  0  0  0
    4.5981    2.1488    0.0000 C   0  0  0  0  0  0  0  0  0  0  0  0
    2.0000   -0.3512    0.0000 C   0  0  0  0  0  0  0  0  0  0  0  0
    3.7320   -3.3512    0.0000 C   0  0  0  0  0  0  0  0  0  0  0  0
    4.7026    3.1433    0.0000 C   0  0  0  0  0  0  0  0  0  0  0  0
    5.6808    3.3512    0.0000 C   0  0  0  0  0  0  0  0  0  0  0  0
    7.1753    2.3807    0.0000 C   0  0  0  0  0  0  0  0  0  0  0  0
    5.1350   -0.5412    0.0000 H   0  0  0  0  0  0  0  0  0  0  0  0
    2.3291   -2.1612    0.0000 H   0  0  0  0  0  0  0  0  0  0  0  0
    3.1951    1.9588    0.0000 H   0  0  0  0  0  0  0  0  0  0  0  0
    5.1350   -2.1612    0.0000 H   0  0  0  0  0  0  0  0  0  0  0  0
    2.3100    0.1857    0.0000 H   0  0  0  0  0  0  0  0  0  0  0  0
    1.4631   -0.0412    0.0000 H   0  0  0  0  0  0  0  0  0  0  0  0
    1.6900   -0.8882    0.0000 H   0  0  0  0  0  0  0  0  0  0  0  0
    4.2419    3.5582    0.0000 H   0  0  0  0  0  0  0  0  0  0  0  0
    3.1120   -3.3512    0.0000 H   0  0  0  0  0  0  0  0  0  0  0  0
    3.7320   -3.9712    0.0000 H   0  0  0  0  0  0  0  0  0  0  0  0
    4.3520   -3.3512    0.0000 H   0  0  0  0  0  0  0  0  0  0  0  0
    5.9329    3.9176    0.0000 H   0  0  0  0  0  0  0  0  0  0  0  0
    7.1105    1.7641    0.0000 H   0  0  0  0  0  0  0  0  0  0  0  0
    7.7919    2.3159    0.0000 H   0  0  0  0  0  0  0  0  0  0  0  0
    7.2401    2.9973    0.0000 H   0  0  0  0  0  0  0  0  0  0  0  0
  1  2  2  0  0  0  0
  1  3  2  0  0  0  0
  1  4  1  0  0  0  0
  1  7  1  0  0  0  0
  4 13  1  0  0  0  0
  4 21  1  0  0  0  0
  5  6  1  0  0  0  0
  5 17  1  0  0  0  0
  5 18  1  0  0  0  0
  6 13  2  0  0  0  0
  7  8  2  0  0  0  0
  7  9  1  0  0  0  0
  8 10  1  0  0  0  0
  8 14  1  0  0  0  0
  9 12  2  0  0  0  0
  9 19  1  0  0  0  0
 10 11  2  0  0  0  0
 10 20  1  0  0  0  0
 11 12  1  0  0  0  0
 11 15  1  0  0  0  0
 12 22  1  0  0  0  0
 13 16  1  0  0  0  0
 14 23  1  0  0  0  0
 14 24  1  0  0  0  0
 14 25  1  0  0  0  0
 15 27  1  0  0  0  0
 15 28  1  0  0  0  0
 15 29  1  0  0  0  0
 16 17  2  0  0  0  0
 16 26  1  0  0  0  0
 17 30  1  0  0  0  0
 18 31  1  0  0  0  0
 18 32  1  0  0  0  0
 18 33  1  0  0  0  0
M  END
> <PUBCHEM_COMPOUND_CID>
17395290

> <PUBCHEM_COMPOUND_CANONICALIZED>
1

> <PUBCHEM_CACTVS_COMPLEXITY>
379

> <PUBCHEM_CACTVS_HBOND_ACCEPTOR>
4

> <PUBCHEM_CACTVS_HBOND_DONOR>
1

> <PUBCHEM_CACTVS_ROTATABLE_BOND>
3

> <PUBCHEM_CACTVS_SUBSKEYS>
AAADccBzMABAAAAAAAAAAAAAAAAAAWAAAAAwAAAAAAAAAAABwAAAHAQYQAAADADBWgQ/sZJIAAKiAjJnZHDSBBIxggAc2Dg4ZJgIIKLAUVCEpAgwmABIiAcAgEAOEAACAAAEAAAgAAQAAAgAAAAAAAAAAA==

> <PUBCHEM_IUPAC_OPENEYE_NAME>
2,4-dimethyl-N-(1-methylpyrazol-3-yl)benzenesulfonamide

> <PUBCHEM_IUPAC_CAS_NAME>
2,4-dimethyl-N-(1-methyl-3-pyrazolyl)benzenesulfonamide

> <PUBCHEM_IUPAC_NAME>
2,4-dimethyl-N-(1-methylpyrazol-3-yl)benzenesulfonamide

> <PUBCHEM_IUPAC_SYSTEMATIC_NAME>
2,4-dimethyl-N-(1-methylpyrazol-3-yl)benzenesulfonamide

> <PUBCHEM_IUPAC_TRADITIONAL_NAME>
2,4-dimethyl-N-(1-methylpyrazol-3-yl)benzenesulfonamide

> <PUBCHEM_IUPAC_INCHI>
InChI=1S/C12H15N3O2S/c1-9-4-5-11(10(2)8-9)18(16,17)14-12-6-7-15(3)13-12/h4-8H,1-3H3,(H,13,14)

> <PUBCHEM_IUPAC_INCHIKEY>
NYMNTHZIEFCEDE-UHFFFAOYSA-N

> <PUBCHEM_XLOGP3_AA>
1.8

> <PUBCHEM_EXACT_MASS>
265.088498

> <PUBCHEM_MOLECULAR_FORMULA>
C12H15N3O2S

> <PUBCHEM_MOLECULAR_WEIGHT>
265.3314

> <PUBCHEM_OPENEYE_CAN_SMILES>
CC1=CC(=C(C=C1)S(=O)(=O)NC2=NN(C=C2)C)C

> <PUBCHEM_OPENEYE_ISO_SMILES>
CC1=CC(=C(C=C1)S(=O)(=O)NC2=NN(C=C2)C)C

> <PUBCHEM_CACTVS_TPSA>
72.4

> <PUBCHEM_MONOISOTOPIC_WEIGHT>
265.088498

> <PUBCHEM_TOTAL_CHARGE>
0

> <PUBCHEM_HEAVY_ATOM_COUNT>
18

> <PUBCHEM_ATOM_DEF_STEREO_COUNT>
0

> <PUBCHEM_ATOM_UDEF_STEREO_COUNT>
0

> <PUBCHEM_BOND_DEF_STEREO_COUNT>
0

> <PUBCHEM_BOND_UDEF_STEREO_COUNT>
0

> <PUBCHEM_ISOTOPIC_ATOM_COUNT>
0

> <PUBCHEM_COMPONENT_COUNT>
1

> <PUBCHEM_CACTVS_TAUTO_COUNT>
2

> <PUBCHEM_COORDINATE_TYPE>
1
5
255

> <PUBCHEM_BONDANNOTATIONS>
10  11  8
11  12  8
13  16  8
16  17  8
5  17  8
5  6  8
6  13  8
7  8  8
7  9  8
8  10  8
9  12  8

$$$$

