854096
  -OEChem-06241222472D

 44 47  0     0  0  0  0  0  0999 V2000
   10.7224   -1.0142    0.0000 O   0  0  0  0  0  0  0  0  0  0  0  0
    7.1923   -1.0384    0.0000 O   0  0  0  0  0  0  0  0  0  0  0  0
   12.4544   -1.0142    0.0000 O   0  0  0  0  0  0  0  0  0  0  0  0
    2.8680   -2.5550    0.0000 O   0  0  0  0  0  0  0  0  0  0  0  0
    9.8564    0.4858    0.0000 C   0  0  0  0  0  0  0  0  0  0  0  0
    9.8564   -0.5142    0.0000 C   0  0  0  0  0  0  0  0  0  0  0  0
   10.7224    0.9858    0.0000 C   0  0  0  0  0  0  0  0  0  0  0  0
    8.9624   -1.0489    0.0000 C   0  0  0  0  0  0  0  0  0  0  0  0
    8.0564   -0.5350    0.0000 C   0  0  0  0  0  0  0  0  0  0  0  0
   11.5884    0.4858    0.0000 C   0  0  0  0  0  0  0  0  0  0  0  0
    8.9624    1.0204    0.0000 C   0  0  0  0  0  0  0  0  0  0  0  0
    8.0564    0.5066    0.0000 C   0  0  0  0  0  0  0  0  0  0  0  0
   10.7063    2.0273    0.0000 C   0  0  0  0  0  0  0  0  0  0  0  0
   11.5884   -0.5142    0.0000 C   0  0  0  0  0  0  0  0  0  0  0  0
    8.9740   -2.0488    0.0000 C   0  0  0  0  0  0  0  0  0  0  0  0
   12.4984    0.9926    0.0000 C   0  0  0  0  0  0  0  0  0  0  0  0
    6.3243   -0.5417    0.0000 C   0  0  0  0  0  0  0  0  0  0  0  0
   11.6044    2.5550    0.0000 C   0  0  0  0  0  0  0  0  0  0  0  0
    5.4602   -1.0450    0.0000 C   0  0  0  0  0  0  0  0  0  0  0  0
   12.5064    2.0342    0.0000 C   0  0  0  0  0  0  0  0  0  0  0  0
    4.5923   -0.5484    0.0000 C   0  0  0  0  0  0  0  0  0  0  0  0
    5.4641   -2.0450    0.0000 C   0  0  0  0  0  0  0  0  0  0  0  0
    3.7282   -1.0517    0.0000 C   0  0  0  0  0  0  0  0  0  0  0  0
    4.6000   -2.5484    0.0000 C   0  0  0  0  0  0  0  0  0  0  0  0
    3.7320   -2.0517    0.0000 C   0  0  0  0  0  0  0  0  0  0  0  0
    2.0000   -2.0584    0.0000 C   0  0  0  0  0  0  0  0  0  0  0  0
    8.9696    1.6404    0.0000 H   0  0  0  0  0  0  0  0  0  0  0  0
    7.5206    0.8187    0.0000 H   0  0  0  0  0  0  0  0  0  0  0  0
   10.1658    2.3311    0.0000 H   0  0  0  0  0  0  0  0  0  0  0  0
    8.3540   -2.0560    0.0000 H   0  0  0  0  0  0  0  0  0  0  0  0
    8.9812   -2.6688    0.0000 H   0  0  0  0  0  0  0  0  0  0  0  0
    9.5939   -2.0416    0.0000 H   0  0  0  0  0  0  0  0  0  0  0  0
   13.0317    0.6764    0.0000 H   0  0  0  0  0  0  0  0  0  0  0  0
    6.7210   -0.0652    0.0000 H   0  0  0  0  0  0  0  0  0  0  0  0
    5.9240   -0.0683    0.0000 H   0  0  0  0  0  0  0  0  0  0  0  0
   11.6020    3.1750    0.0000 H   0  0  0  0  0  0  0  0  0  0  0  0
   13.0446    2.3422    0.0000 H   0  0  0  0  0  0  0  0  0  0  0  0
    4.5899    0.0716    0.0000 H   0  0  0  0  0  0  0  0  0  0  0  0
    6.0022   -2.3530    0.0000 H   0  0  0  0  0  0  0  0  0  0  0  0
    3.1901   -0.7438    0.0000 H   0  0  0  0  0  0  0  0  0  0  0  0
    4.6024   -3.1684    0.0000 H   0  0  0  0  0  0  0  0  0  0  0  0
    2.3079   -1.5203    0.0000 H   0  0  0  0  0  0  0  0  0  0  0  0
    1.4619   -1.7505    0.0000 H   0  0  0  0  0  0  0  0  0  0  0  0
    1.6921   -2.5965    0.0000 H   0  0  0  0  0  0  0  0  0  0  0  0
  1  6  1  0  0  0  0
  1 14  1  0  0  0  0
  2  9  1  0  0  0  0
  2 17  1  0  0  0  0
  3 14  2  0  0  0  0
  4 25  1  0  0  0  0
  4 26  1  0  0  0  0
  5  6  2  0  0  0  0
  5  7  1  0  0  0  0
  5 11  1  0  0  0  0
  6  8  1  0  0  0  0
  7 10  1  0  0  0  0
  7 13  2  0  0  0  0
  8  9  2  0  0  0  0
  8 15  1  0  0  0  0
  9 12  1  0  0  0  0
 10 14  1  0  0  0  0
 10 16  2  0  0  0  0
 11 12  2  0  0  0  0
 11 27  1  0  0  0  0
 12 28  1  0  0  0  0
 13 18  1  0  0  0  0
 13 29  1  0  0  0  0
 15 30  1  0  0  0  0
 15 31  1  0  0  0  0
 15 32  1  0  0  0  0
 16 20  1  0  0  0  0
 16 33  1  0  0  0  0
 17 19  1  0  0  0  0
 17 34  1  0  0  0  0
 17 35  1  0  0  0  0
 18 20  2  0  0  0  0
 18 36  1  0  0  0  0
 19 21  2  0  0  0  0
 19 22  1  0  0  0  0
 20 37  1  0  0  0  0
 21 23  1  0  0  0  0
 21 38  1  0  0  0  0
 22 24  2  0  0  0  0
 22 39  1  0  0  0  0
 23 25  2  0  0  0  0
 23 40  1  0  0  0  0
 24 25  1  0  0  0  0
 24 41  1  0  0  0  0
 26 42  1  0  0  0  0
 26 43  1  0  0  0  0
 26 44  1  0  0  0  0
M  END
> <PUBCHEM_COMPOUND_CID>
854096

> <PUBCHEM_COMPOUND_CANONICALIZED>
1

> <PUBCHEM_CACTVS_COMPLEXITY>
485

> <PUBCHEM_CACTVS_HBOND_ACCEPTOR>
4

> <PUBCHEM_CACTVS_HBOND_DONOR>
0

> <PUBCHEM_CACTVS_ROTATABLE_BOND>
4

> <PUBCHEM_CACTVS_SUBSKEYS>
AAADceB4OAAAAAAAAAAAAAAAAAAAAAAAAAA0YMEAAAAAAACRUAAAGgAAAAAADASgmAIyDoAABACIAiDSCAACCAAkIAAIiAEGCMgMJzKENRqCOyClwBUIqYeI7PzOoAACCAAYAABAAAQQADAAAAAAAAAAAA==

> <PUBCHEM_IUPAC_OPENEYE_NAME>
3-[(4-methoxyphenyl)methoxy]-4-methyl-benzo[c]chromen-6-one

> <PUBCHEM_IUPAC_CAS_NAME>
3-[(4-methoxyphenyl)methoxy]-4-methyl-6-benzo[c][1]benzopyranone

> <PUBCHEM_IUPAC_NAME>
3-[(4-methoxyphenyl)methoxy]-4-methylbenzo[c]chromen-6-one

> <PUBCHEM_IUPAC_SYSTEMATIC_NAME>
3-[(4-methoxyphenyl)methoxy]-4-methyl-benzo[c]chromen-6-one

> <PUBCHEM_IUPAC_TRADITIONAL_NAME>
4-methyl-3-p-anisyloxy-benzo[c]chromen-6-one

> <PUBCHEM_IUPAC_INCHI>
InChI=1S/C22H18O4/c1-14-20(25-13-15-7-9-16(24-2)10-8-15)12-11-18-17-5-3-4-6-19(17)22(23)26-21(14)18/h3-12H,13H2,1-2H3

> <PUBCHEM_IUPAC_INCHIKEY>
IUDUEONZSHLLFM-UHFFFAOYSA-N

> <PUBCHEM_XLOGP3_AA>
4.8

> <PUBCHEM_EXACT_MASS>
346.120509

> <PUBCHEM_MOLECULAR_FORMULA>
C22H18O4

> <PUBCHEM_MOLECULAR_WEIGHT>
346.37592

> <PUBCHEM_OPENEYE_CAN_SMILES>
CC1=C(C=CC2=C1OC(=O)C3=CC=CC=C23)OCC4=CC=C(C=C4)OC

> <PUBCHEM_OPENEYE_ISO_SMILES>
CC1=C(C=CC2=C1OC(=O)C3=CC=CC=C23)OCC4=CC=C(C=C4)OC

> <PUBCHEM_CACTVS_TPSA>
44.8

> <PUBCHEM_MONOISOTOPIC_WEIGHT>
346.120509

> <PUBCHEM_TOTAL_CHARGE>
0

> <PUBCHEM_HEAVY_ATOM_COUNT>
26

> <PUBCHEM_ATOM_DEF_STEREO_COUNT>
0

> <PUBCHEM_ATOM_UDEF_STEREO_COUNT>
0

> <PUBCHEM_BOND_DEF_STEREO_COUNT>
0

> <PUBCHEM_BOND_UDEF_STEREO_COUNT>
0

> <PUBCHEM_ISOTOPIC_ATOM_COUNT>
0

> <PUBCHEM_COMPONENT_COUNT>
1

> <PUBCHEM_CACTVS_TAUTO_COUNT>
1

> <PUBCHEM_COORDINATE_TYPE>
1
5
255

> <PUBCHEM_BONDANNOTATIONS>
1  14  8
1  6  8
10  14  8
10  16  8
11  12  8
13  18  8
16  20  8
18  20  8
19  21  8
19  22  8
21  23  8
22  24  8
23  25  8
24  25  8
5  11  8
5  6  8
5  7  8
6  8  8
7  10  8
7  13  8
8  9  8
9  12  8

$$$$

