73675
  -OEChem-07051213123D

 37 39  0     0  0  0  0  0  0999 V2000
   -0.0687   -0.7892   -0.5772 Si  0  0  0  0  0  0  0  0  0  0  0  0
    2.0140    4.7421    0.4146 F   0  0  0  0  0  0  0  0  0  0  0  0
   -5.9356   -0.2514    0.5212 F   0  0  0  0  0  0  0  0  0  0  0  0
    2.1830   -2.0811    0.4350 N   0  0  0  0  0  0  0  0  0  0  0  0
    2.7313   -2.9211   -0.4372 N   0  0  0  0  0  0  0  0  0  0  0  0
    4.2925   -1.6705    0.6723 N   0  0  0  0  0  0  0  0  0  0  0  0
    0.7272   -2.0369    0.5924 C   0  0  0  0  0  0  0  0  0  0  0  0
    0.5781    0.9313   -0.2689 C   0  0  0  0  0  0  0  0  0  0  0  0
   -1.9326   -0.6175   -0.2276 C   0  0  0  0  0  0  0  0  0  0  0  0
    0.1530   -1.3554   -2.3600 C   0  0  0  0  0  0  0  0  0  0  0  0
    0.4278    1.5182    0.9875 C   0  0  0  0  0  0  0  0  0  0  0  0
   -2.6637    0.2690   -0.9827 C   0  0  0  0  0  0  0  0  0  0  0  0
    1.2132    1.6317   -1.2944 C   0  0  0  0  0  0  0  0  0  0  0  0
   -2.4877   -1.3863    0.7682 C   0  0  0  0  0  0  0  0  0  0  0  0
    0.9129    2.8055    1.2184 C   0  0  0  0  0  0  0  0  0  0  0  0
   -4.0293    0.3940   -0.7273 C   0  0  0  0  0  0  0  0  0  0  0  0
    1.6982    2.9189   -1.0635 C   0  0  0  0  0  0  0  0  0  0  0  0
   -3.8533   -1.2612    1.0236 C   0  0  0  0  0  0  0  0  0  0  0  0
    3.0935   -1.3408    1.0932 C   0  0  0  0  0  0  0  0  0  0  0  0
    1.5481    3.5058    0.1929 C   0  0  0  0  0  0  0  0  0  0  0  0
   -4.6241   -0.3712    0.2759 C   0  0  0  0  0  0  0  0  0  0  0  0
    4.0222   -2.6341   -0.2566 C   0  0  0  0  0  0  0  0  0  0  0  0
    0.5326   -1.7795    1.6393 H   0  0  0  0  0  0  0  0  0  0  0  0
    0.3497   -3.0498    0.4140 H   0  0  0  0  0  0  0  0  0  0  0  0
   -0.2761   -2.3525   -2.4979 H   0  0  0  0  0  0  0  0  0  0  0  0
   -0.3437   -0.6712   -3.0544 H   0  0  0  0  0  0  0  0  0  0  0  0
    1.2135   -1.4012   -2.6245 H   0  0  0  0  0  0  0  0  0  0  0  0
   -0.0602    0.9948    1.8065 H   0  0  0  0  0  0  0  0  0  0  0  0
   -2.2219    0.8734   -1.7698 H   0  0  0  0  0  0  0  0  0  0  0  0
    1.3484    1.2046   -2.2846 H   0  0  0  0  0  0  0  0  0  0  0  0
   -1.9159   -2.0886    1.3660 H   0  0  0  0  0  0  0  0  0  0  0  0
    0.7970    3.2626    2.1966 H   0  0  0  0  0  0  0  0  0  0  0  0
   -4.6300    1.0866   -1.3094 H   0  0  0  0  0  0  0  0  0  0  0  0
    2.1931    3.4647   -1.8613 H   0  0  0  0  0  0  0  0  0  0  0  0
   -4.3171   -1.8569    1.8043 H   0  0  0  0  0  0  0  0  0  0  0  0
    2.8582   -0.6013    1.8457 H   0  0  0  0  0  0  0  0  0  0  0  0
    4.7901   -3.1429   -0.8200 H   0  0  0  0  0  0  0  0  0  0  0  0
  1  7  1  0  0  0  0
  1  8  1  0  0  0  0
  1  9  1  0  0  0  0
  1 10  1  0  0  0  0
  2 20  1  0  0  0  0
  3 21  1  0  0  0  0
  4  5  1  0  0  0  0
  4  7  1  0  0  0  0
  4 19  1  0  0  0  0
  5 22  2  0  0  0  0
  6 19  2  0  0  0  0
  6 22  1  0  0  0  0
  7 23  1  0  0  0  0
  7 24  1  0  0  0  0
  8 11  2  0  0  0  0
  8 13  1  0  0  0  0
  9 12  2  0  0  0  0
  9 14  1  0  0  0  0
 10 25  1  0  0  0  0
 10 26  1  0  0  0  0
 10 27  1  0  0  0  0
 11 15  1  0  0  0  0
 11 28  1  0  0  0  0
 12 16  1  0  0  0  0
 12 29  1  0  0  0  0
 13 17  2  0  0  0  0
 13 30  1  0  0  0  0
 14 18  2  0  0  0  0
 14 31  1  0  0  0  0
 15 20  2  0  0  0  0
 15 32  1  0  0  0  0
 16 21  2  0  0  0  0
 16 33  1  0  0  0  0
 17 20  1  0  0  0  0
 17 34  1  0  0  0  0
 18 21  1  0  0  0  0
 18 35  1  0  0  0  0
 19 36  1  0  0  0  0
 22 37  1  0  0  0  0
M  END
> <PUBCHEM_COMPOUND_CID>
73675

> <PUBCHEM_CONFORMER_RMSD>
0.6

> <PUBCHEM_CONFORMER_DIVERSEORDER>
1
10
9
11
15
31
2
29
27
24
5
26
8
20
7
18
21
17
12
19
13
6
16
32
14
22
4
3
30
23
28
25

> <PUBCHEM_MMFF94_PARTIAL_CHARGES>
32
1 0.6
10 -0.08
11 -0.15
12 -0.15
13 -0.15
14 -0.15
15 -0.15
16 -0.15
17 -0.15
18 -0.15
19 0.04
2 -0.19
20 0.19
21 0.19
22 0.37
28 0.15
29 0.15
3 -0.19
30 0.15
31 0.15
32 0.15
33 0.15
34 0.15
35 0.15
36 0.15
37 0.15
4 0.31
5 -0.71
6 -0.57
7 0.18
8 -0.22
9 -0.22

> <PUBCHEM_EFFECTIVE_ROTOR_COUNT>
4

> <PUBCHEM_PHARMACOPHORE_FEATURES>
5
3 4 6 19 cation
3 5 6 22 cation
5 4 5 6 19 22 rings
6 8 11 13 15 17 20 rings
6 9 12 14 16 18 21 rings

> <PUBCHEM_HEAVY_ATOM_COUNT>
22

> <PUBCHEM_ATOM_DEF_STEREO_COUNT>
0

> <PUBCHEM_ATOM_UDEF_STEREO_COUNT>
0

> <PUBCHEM_BOND_DEF_STEREO_COUNT>
0

> <PUBCHEM_BOND_UDEF_STEREO_COUNT>
0

> <PUBCHEM_ISOTOPIC_ATOM_COUNT>
0

> <PUBCHEM_COMPONENT_COUNT>
1

> <PUBCHEM_CACTVS_TAUTO_COUNT>
1

> <PUBCHEM_CONFORMER_ID>
00011FCB00000001

> <PUBCHEM_MMFF94_ENERGY>
37.4105

> <PUBCHEM_FEATURE_SELFOVERLAP>
28.148

> <PUBCHEM_SHAPE_FINGERPRINT>
10165383 225 17982431712544344957
10756046 70 18040725722888515815
107951 10 17619049648083401036
11578080 2 16988021468958577710
11582403 64 16012991935143398472
12516196 113 18339080496540423330
12549972 3 17845637184908377801
12788726 201 17982457301991065274
12930653 34 17764866892732738699
13004483 165 18051420857080930531
13132413 78 18267025153107062933
13134695 92 18335146409602330701
13140716 1 18052259484126420504
13294875 104 17897729764640728704
13533116 47 18340483366873188571
13681431 1 18334847350939774518
13899415 154 18339067259820092518
14170010 4 18410300211626108835
14787075 74 18201997724938382634
14866123 147 16826999374277786531
14955137 171 18334850632379730350
15230672 131 17766555756554850644
15238133 3 18122889079169755421
15927050 60 17904477403645326406
17357779 13 18192168193837933446
17804303 29 17989203789612410319
17980427 23 17895754122950596873
17980427 26 18117847585848323276
1813 80 18115296912108247262
18785283 64 18271244893934861401
20600515 1 18189324835220146359
20671657 1 18337952294904980839
21033648 29 17678480738298056219
21041028 32 18337391651064453237
21120745 212 18048013458378579420
21524375 3 17684360664236864317
23175994 123 18339641256366140951
23419403 2 18195552439083664236
23557571 272 18049723215807525838
23559900 14 17846495903568999295
283562 15 17982167026742773362
394222 165 18043796602951015793
5104073 3 18340189801743089907
5895379 119 17242988389056071849
6442390 28 17546996443158845803
6443956 14 18411420630854189864
7364860 26 18340206293246055909
81228 2 17760915642857690422
9981440 41 17762062038559538313

> <PUBCHEM_SHAPE_MULTIPOLES>
441.47
7.73
4.4
1.43
8.79
4.76
0.52
-4.39
-1.76
-6.47
-0.52
-0.09
-0.05
0.23

> <PUBCHEM_SHAPE_SELFOVERLAP>
938.399

> <PUBCHEM_SHAPE_VOLUME>
246.9

> <PUBCHEM_COORDINATE_TYPE>
2
5
10

$$$$

