443196
  -OEChem-07051213013D

 25 28  0     1  0  0  0  0  0999 V2000
   -0.0002   -2.4616    0.8403 O   0  0  0  0  0  0  0  0  0  0  0  0
   -0.7529   -1.9907   -0.2889 C   0  0  2  0  0  0  0  0  0  0  0  0
    0.7528   -1.9908   -0.2887 C   0  0  1  0  0  0  0  0  0  0  0  0
   -1.4657   -0.6726   -0.1452 C   0  0  0  0  0  0  0  0  0  0  0  0
    1.4656   -0.6726   -0.1450 C   0  0  0  0  0  0  0  0  0  0  0  0
   -0.7503    0.5539   -0.0379 C   0  0  0  0  0  0  0  0  0  0  0  0
    0.7504    0.5539   -0.0378 C   0  0  0  0  0  0  0  0  0  0  0  0
   -2.8754   -0.6579   -0.1214 C   0  0  0  0  0  0  0  0  0  0  0  0
    2.8755   -0.6580   -0.1213 C   0  0  0  0  0  0  0  0  0  0  0  0
   -1.5062    1.7403    0.0795 C   0  0  0  0  0  0  0  0  0  0  0  0
    1.5063    1.7402    0.0796 C   0  0  0  0  0  0  0  0  0  0  0  0
   -3.5895    0.5293   -0.0025 C   0  0  0  0  0  0  0  0  0  0  0  0
    3.5895    0.5291   -0.0027 C   0  0  0  0  0  0  0  0  0  0  0  0
   -2.9036    1.7288    0.0960 C   0  0  0  0  0  0  0  0  0  0  0  0
    2.9037    1.7288    0.0959 C   0  0  0  0  0  0  0  0  0  0  0  0
   -1.2304   -2.7497   -0.9021 H   0  0  0  0  0  0  0  0  0  0  0  0
    1.2305   -2.7497   -0.9017 H   0  0  0  0  0  0  0  0  0  0  0  0
   -3.4247   -1.5941   -0.2002 H   0  0  0  0  0  0  0  0  0  0  0  0
    3.4248   -1.5942   -0.2001 H   0  0  0  0  0  0  0  0  0  0  0  0
   -1.0317    2.7134    0.1646 H   0  0  0  0  0  0  0  0  0  0  0  0
    1.0318    2.7133    0.1646 H   0  0  0  0  0  0  0  0  0  0  0  0
   -4.6749    0.5154    0.0116 H   0  0  0  0  0  0  0  0  0  0  0  0
    4.6749    0.5152    0.0113 H   0  0  0  0  0  0  0  0  0  0  0  0
   -3.4510    2.6624    0.1886 H   0  0  0  0  0  0  0  0  0  0  0  0
    3.4512    2.6624    0.1884 H   0  0  0  0  0  0  0  0  0  0  0  0
  1  2  1  0  0  0  0
  1  3  1  0  0  0  0
  2  3  1  0  0  0  0
  2  4  1  0  0  0  0
  2 16  1  0  0  0  0
  3  5  1  0  0  0  0
  3 17  1  0  0  0  0
  4  6  1  0  0  0  0
  4  8  2  0  0  0  0
  5  7  1  0  0  0  0
  5  9  2  0  0  0  0
  6  7  1  0  0  0  0
  6 10  2  0  0  0  0
  7 11  2  0  0  0  0
  8 12  1  0  0  0  0
  8 18  1  0  0  0  0
  9 13  1  0  0  0  0
  9 19  1  0  0  0  0
 10 14  1  0  0  0  0
 10 20  1  0  0  0  0
 11 15  1  0  0  0  0
 11 21  1  0  0  0  0
 12 14  2  0  0  0  0
 12 22  1  0  0  0  0
 13 15  2  0  0  0  0
 13 23  1  0  0  0  0
 14 24  1  0  0  0  0
 15 25  1  0  0  0  0
M  END
> <PUBCHEM_COMPOUND_CID>
443196

> <PUBCHEM_CONFORMER_RMSD>
0.4

> <PUBCHEM_CONFORMER_DIVERSEORDER>
1

> <PUBCHEM_MMFF94_PARTIAL_CHARGES>
23
1 -0.3
10 -0.15
11 -0.15
12 -0.15
13 -0.15
14 -0.15
15 -0.15
16 0.1
17 0.1
18 0.15
19 0.15
2 0.08
20 0.15
21 0.15
22 0.15
23 0.15
24 0.15
25 0.15
3 0.08
4 -0.03
5 -0.03
8 -0.15
9 -0.15

> <PUBCHEM_EFFECTIVE_ROTOR_COUNT>
0.2

> <PUBCHEM_PHARMACOPHORE_FEATURES>
4
1 1 acceptor
6 4 6 8 10 12 14 rings
6 5 7 9 11 13 15 rings
7 1 2 3 4 5 6 7 rings

> <PUBCHEM_HEAVY_ATOM_COUNT>
15

> <PUBCHEM_ATOM_DEF_STEREO_COUNT>
2

> <PUBCHEM_ATOM_UDEF_STEREO_COUNT>
0

> <PUBCHEM_BOND_DEF_STEREO_COUNT>
0

> <PUBCHEM_BOND_UDEF_STEREO_COUNT>
0

> <PUBCHEM_ISOTOPIC_ATOM_COUNT>
0

> <PUBCHEM_COMPONENT_COUNT>
1

> <PUBCHEM_CACTVS_TAUTO_COUNT>
1

> <PUBCHEM_CONFORMER_ID>
0006C33C00000001

> <PUBCHEM_MMFF94_ENERGY>
44.974

> <PUBCHEM_FEATURE_SELFOVERLAP>
20.316

> <PUBCHEM_SHAPE_FINGERPRINT>
10411042 1 16320340061792201175
10608611 8 18335986363514036672
10967382 1 18410012160479506893
11132069 177 18335426754981562872
11471102 20 18338240482789156661
13140716 1 18410574028143660337
13380535 76 18409168792269708774
13897977 150 18338800117001425581
14144814 61 18410575084774134632
14325111 11 18409730659738553028
15196674 1 18409729560221351693
15309172 13 18411130342557082561
15442244 35 18048315836275096304
15536298 74 18188209913513164198
15775835 57 18410007749574584597
16945 1 18408322185338032358
18186145 218 18261385684901105620
20510252 161 18191020106077227457
20645476 183 17916568839968058038
20645477 70 18191310579648746269
21267235 1 18409158917992228207
21501502 16 18265901254934379622
21524375 3 18410295813031205310
2334 1 18410012104671578621
23402539 116 18263375714942279700
23463225 33 18341617074349885346
23559900 14 18260823792627971300
25 1 18410009982983841956
2748010 2 18410851032096040029
2871803 45 18410583868551779039
305870 269 18271248321287043619
335352 9 18121780792221985724
43471831 8 18342181080702251067
5104073 3 18409729564537542345
528886 8 18410016537072313096
53812653 166 18335704974409979976
54173680 148 18124031222073400714
69090 78 18187369791976693679
7364860 26 18118966033902159863
7832392 63 17758112983708501553
81228 2 17835252146664032963
8809292 202 18339920407728348466
9709674 26 18262514784890899902

> <PUBCHEM_SHAPE_MULTIPOLES>
302.82
5.39
2.46
0.66
0
0.62
-0.02
-2.18
0.05
0
-0.18
0
0.1
0

> <PUBCHEM_SHAPE_SELFOVERLAP>
681.413

> <PUBCHEM_SHAPE_VOLUME>
158.6

> <PUBCHEM_COORDINATE_TYPE>
2
5
10

$$$$

