439585
  -OEChem-07051212463D

 43 43  0     1  0  0  0  0  0999 V2000
   -4.1018    2.5761   -0.4160 O   0  0  0  0  0  0  0  0  0  0  0  0
   -0.8762    0.5717   -1.0641 O   0  0  0  0  0  0  0  0  0  0  0  0
   -3.3294    1.4757    1.4249 O   0  0  0  0  0  0  0  0  0  0  0  0
    1.5340   -0.0361    1.4561 O   0  0  0  0  0  0  0  0  0  0  0  0
   -2.6485   -0.6241   -0.1777 N   0  0  0  0  0  0  0  0  0  0  0  0
    0.9427   -1.1351   -0.5018 N   0  0  0  0  0  0  0  0  0  0  0  0
    2.8716    1.1489   -1.1337 N   0  0  0  0  0  0  0  0  0  0  0  0
   -3.7010    0.2718   -0.6386 C   0  0  1  0  0  0  0  0  0  0  0  0
   -4.9886   -0.5278   -0.4770 C   0  0  0  0  0  0  0  0  0  0  0  0
   -4.6810   -1.4640    0.6892 C   0  0  0  0  0  0  0  0  0  0  0  0
   -3.2091   -1.7942    0.4935 C   0  0  0  0  0  0  0  0  0  0  0  0
   -1.3134   -0.4307   -0.4964 C   0  0  0  0  0  0  0  0  0  0  0  0
   -3.6782    1.4764    0.2536 C   0  0  0  0  0  0  0  0  0  0  0  0
   -0.3807   -1.5436   -0.0898 C   0  0  0  0  0  0  0  0  0  0  0  0
    4.2581    0.1482    0.6362 C   0  0  0  0  0  0  0  0  0  0  0  0
    5.6324    0.4366   -0.0060 C   0  0  0  0  0  0  0  0  0  0  0  0
    3.1187   -0.0773   -0.3705 C   0  0  1  0  0  0  0  0  0  0  0  0
    1.7973   -0.4084    0.3141 C   0  0  0  0  0  0  0  0  0  0  0  0
    6.7313    0.6560    1.0347 C   0  0  0  0  0  0  0  0  0  0  0  0
    6.0218   -0.7202   -0.9309 C   0  0  0  0  0  0  0  0  0  0  0  0
   -3.5031    0.5694   -1.6738 H   0  0  0  0  0  0  0  0  0  0  0  0
   -5.8709    0.0913   -0.2889 H   0  0  0  0  0  0  0  0  0  0  0  0
   -5.1713   -1.1229   -1.3800 H   0  0  0  0  0  0  0  0  0  0  0  0
   -5.3139   -2.3557    0.6975 H   0  0  0  0  0  0  0  0  0  0  0  0
   -4.8260   -0.9368    1.6396 H   0  0  0  0  0  0  0  0  0  0  0  0
   -3.0795   -2.6574   -0.1682 H   0  0  0  0  0  0  0  0  0  0  0  0
   -2.6915   -1.9863    1.4372 H   0  0  0  0  0  0  0  0  0  0  0  0
    4.0029    0.9800    1.3074 H   0  0  0  0  0  0  0  0  0  0  0  0
    4.3385   -0.7369    1.2819 H   0  0  0  0  0  0  0  0  0  0  0  0
   -0.6329   -2.4673   -0.6164 H   0  0  0  0  0  0  0  0  0  0  0  0
   -0.4050   -1.6907    0.9930 H   0  0  0  0  0  0  0  0  0  0  0  0
    5.5733    1.3533   -0.6042 H   0  0  0  0  0  0  0  0  0  0  0  0
    3.3628   -0.8983   -1.0518 H   0  0  0  0  0  0  0  0  0  0  0  0
    1.2366   -1.3720   -1.4449 H   0  0  0  0  0  0  0  0  0  0  0  0
    6.8715   -0.2348    1.6563 H   0  0  0  0  0  0  0  0  0  0  0  0
    7.6867    0.8891    0.5532 H   0  0  0  0  0  0  0  0  0  0  0  0
    6.4754    1.4918    1.6942 H   0  0  0  0  0  0  0  0  0  0  0  0
    5.9638   -1.6843   -0.4145 H   0  0  0  0  0  0  0  0  0  0  0  0
    5.3858   -0.7621   -1.8198 H   0  0  0  0  0  0  0  0  0  0  0  0
    7.0497   -0.5963   -1.2904 H   0  0  0  0  0  0  0  0  0  0  0  0
    3.6948    1.3854   -1.6852 H   0  0  0  0  0  0  0  0  0  0  0  0
    2.1267    0.9839   -1.8106 H   0  0  0  0  0  0  0  0  0  0  0  0
   -4.0955    3.3758    0.1520 H   0  0  0  0  0  0  0  0  0  0  0  0
  1 13  1  0  0  0  0
  1 43  1  0  0  0  0
  2 12  2  0  0  0  0
  3 13  2  0  0  0  0
  4 18  2  0  0  0  0
  5  8  1  0  0  0  0
  5 11  1  0  0  0  0
  5 12  1  0  0  0  0
  6 14  1  0  0  0  0
  6 18  1  0  0  0  0
  6 34  1  0  0  0  0
  7 17  1  0  0  0  0
  7 41  1  0  0  0  0
  7 42  1  0  0  0  0
  8  9  1  0  0  0  0
  8 13  1  0  0  0  0
  8 21  1  0  0  0  0
  9 10  1  0  0  0  0
  9 22  1  0  0  0  0
  9 23  1  0  0  0  0
 10 11  1  0  0  0  0
 10 24  1  0  0  0  0
 10 25  1  0  0  0  0
 11 26  1  0  0  0  0
 11 27  1  0  0  0  0
 12 14  1  0  0  0  0
 14 30  1  0  0  0  0
 14 31  1  0  0  0  0
 15 16  1  0  0  0  0
 15 17  1  0  0  0  0
 15 28  1  0  0  0  0
 15 29  1  0  0  0  0
 16 19  1  0  0  0  0
 16 20  1  0  0  0  0
 16 32  1  0  0  0  0
 17 18  1  0  0  0  0
 17 33  1  0  0  0  0
 19 35  1  0  0  0  0
 19 36  1  0  0  0  0
 19 37  1  0  0  0  0
 20 38  1  0  0  0  0
 20 39  1  0  0  0  0
 20 40  1  0  0  0  0
M  END
> <PUBCHEM_COMPOUND_CID>
439585

> <PUBCHEM_CONFORMER_RMSD>
0.8

> <PUBCHEM_CONFORMER_DIVERSEORDER>
1
99
16
56
86
87
24
55
12
77
106
2
74
91
84
114
46
94
52
72
69
50
41
105
32
7
112
51
92
82
8
79
71
98
17
42
31
33
113
36
20
61
93
34
75
115
100
57
49
70
118
95
26
48
90
23
35
73
109
11
65
85
44
60
59
19
97
62
116
10
28
47
39
83
117
96
76
43
29
25
78
108
53
88
27
101
37
38
21
14
81
3
13
18
66
103
9
22
45
80
58
15
104
54
63
6
5
40
68
89
4
110
64
30
111
102
67
107

> <PUBCHEM_MMFF94_PARTIAL_CHARGES>
18
1 -0.65
11 0.3
12 0.57
13 0.66
14 0.36
17 0.33
18 0.57
2 -0.57
3 -0.57
34 0.37
4 -0.57
41 0.36
42 0.36
43 0.5
5 -0.66
6 -0.73
7 -0.99
8 0.36

> <PUBCHEM_EFFECTIVE_ROTOR_COUNT>
9

> <PUBCHEM_PHARMACOPHORE_FEATURES>
10
1 1 acceptor
1 2 acceptor
1 3 acceptor
1 4 acceptor
1 6 donor
1 7 cation
1 7 donor
3 1 3 13 anion
3 16 19 20 hydrophobe
5 5 8 9 10 11 rings

> <PUBCHEM_HEAVY_ATOM_COUNT>
20

> <PUBCHEM_ATOM_DEF_STEREO_COUNT>
2

> <PUBCHEM_ATOM_UDEF_STEREO_COUNT>
0

> <PUBCHEM_BOND_DEF_STEREO_COUNT>
0

> <PUBCHEM_BOND_UDEF_STEREO_COUNT>
0

> <PUBCHEM_ISOTOPIC_ATOM_COUNT>
0

> <PUBCHEM_COMPONENT_COUNT>
1

> <PUBCHEM_CACTVS_TAUTO_COUNT>
2

> <PUBCHEM_CONFORMER_ID>
0006B52100000001

> <PUBCHEM_MMFF94_ENERGY>
34.8382

> <PUBCHEM_FEATURE_SELFOVERLAP>
50.8

> <PUBCHEM_SHAPE_FINGERPRINT>
10366900 7 18260275122892390851
10912923 1 17489588948582323354
11045977 3 12175616261839053758
11315181 36 17988924444432660549
12091667 2 18186805760013325534
12107183 9 17697049397582865434
12236239 1 17346601850593657414
12507557 5 18202284680213800261
12596602 18 18060143098604324416
12916748 109 18408600340763803098
13073987 5 18409449211053944346
13631057 29 17917149378113880211
14251752 14 7348902057054906598
14573314 32 18114176458689102950
15042514 8 18193834839177096439
15183329 4 18341328977066711494
15778101 99 18335416928492223369
15788980 27 17894349973576744886
17844677 252 18335977597849496576
19433438 28 18334577910572190632
19489759 90 18410294700734805051
200 152 15267068029674614743
20281389 69 18410859863155663488
20645477 56 17822013073125166198
21033648 29 17822588152055526448
21065198 48 18059583524015156227
21279426 13 18187922958553887894
23402539 116 18340494378536449902
23536379 177 18411420618517888114
23559900 14 18338243665486497537
26918003 58 13902191490885081335
2916195 48 18187654570279101192
3545911 37 18410009948808882223
441001 317 18261110794114430689
5104073 3 18340485680979924938
542803 24 18410855447913160014
54446538 1 18342177739323007796

> <PUBCHEM_SHAPE_MULTIPOLES>
373.17
15.19
1.71
1.1
17.37
0.54
0.14
1.82
1.24
-2.61
0.07
0.4
0.15
0.53

> <PUBCHEM_SHAPE_SELFOVERLAP>
744.619

> <PUBCHEM_SHAPE_VOLUME>
220.5

> <PUBCHEM_COORDINATE_TYPE>
2
5
10

$$$$

