47205499
  -OEChem-06241222593D

 37 38  0     0  0  0  0  0  0999 V2000
    5.9596   -1.7243    0.9679 Cl  0  0  0  0  0  0  0  0  0  0  0  0
   -5.2747    0.2708    0.6203 S   0  0  0  0  0  0  0  0  0  0  0  0
   -6.2347    1.3560    0.5785 O   0  0  0  0  0  0  0  0  0  0  0  0
   -5.5423   -0.9353    1.3787 O   0  0  0  0  0  0  0  0  0  0  0  0
   -0.0956    1.0822   -1.0851 O   0  0  0  0  0  0  0  0  0  0  0  0
   -2.4460   -0.2819   -0.6076 N   0  0  0  0  0  0  0  0  0  0  0  0
    1.1050   -0.8076   -0.3790 N   0  0  0  0  0  0  0  0  0  0  0  0
   -4.8923   -0.1917   -1.0522 C   0  0  0  0  0  0  0  0  0  0  0  0
   -3.7152    0.9345    1.1532 C   0  0  0  0  0  0  0  0  0  0  0  0
   -2.5646   -0.0132    0.8359 C   0  0  0  0  0  0  0  0  0  0  0  0
   -3.6127   -1.0162   -1.1270 C   0  0  0  0  0  0  0  0  0  0  0  0
   -1.2213   -1.0412   -0.8735 C   0  0  0  0  0  0  0  0  0  0  0  0
   -0.0239   -0.1096   -0.8032 C   0  0  0  0  0  0  0  0  0  0  0  0
    2.4122   -0.3001   -0.1865 C   0  0  0  0  0  0  0  0  0  0  0  0
    3.4331   -1.1471    0.2450 C   0  0  0  0  0  0  0  0  0  0  0  0
    2.6796    1.0472   -0.4295 C   0  0  0  0  0  0  0  0  0  0  0  0
    4.9890    0.7006    0.1904 C   0  0  0  0  0  0  0  0  0  0  0  0
    4.7215   -0.6467    0.4335 C   0  0  0  0  0  0  0  0  0  0  0  0
    3.9679    1.5475   -0.2408 C   0  0  0  0  0  0  0  0  0  0  0  0
    6.3553    1.2762    0.3810 C   0  0  0  0  0  0  0  0  0  0  0  0
   -3.5797    1.8996    0.6535 H   0  0  0  0  0  0  0  0  0  0  0  0
   -3.7889    1.1102    2.2308 H   0  0  0  0  0  0  0  0  0  0  0  0
   -5.7451   -0.7608   -1.4348 H   0  0  0  0  0  0  0  0  0  0  0  0
   -4.8015    0.7305   -1.6360 H   0  0  0  0  0  0  0  0  0  0  0  0
   -3.7406   -1.9657   -0.5912 H   0  0  0  0  0  0  0  0  0  0  0  0
   -3.4515   -1.2623   -2.1840 H   0  0  0  0  0  0  0  0  0  0  0  0
   -1.6498    0.4603    1.2119 H   0  0  0  0  0  0  0  0  0  0  0  0
   -2.6886   -0.9511    1.3932 H   0  0  0  0  0  0  0  0  0  0  0  0
   -1.2189   -1.4337   -1.8988 H   0  0  0  0  0  0  0  0  0  0  0  0
   -1.1206   -1.8956   -0.1933 H   0  0  0  0  0  0  0  0  0  0  0  0
    1.0021   -1.8013   -0.1856 H   0  0  0  0  0  0  0  0  0  0  0  0
    3.2218   -2.1976    0.4337 H   0  0  0  0  0  0  0  0  0  0  0  0
    1.9436    1.7640   -0.7649 H   0  0  0  0  0  0  0  0  0  0  0  0
    4.1588    2.5999   -0.4346 H   0  0  0  0  0  0  0  0  0  0  0  0
    6.6765    1.1678    1.4223 H   0  0  0  0  0  0  0  0  0  0  0  0
    7.0767    0.7809   -0.2773 H   0  0  0  0  0  0  0  0  0  0  0  0
    6.3844    2.3456    0.1443 H   0  0  0  0  0  0  0  0  0  0  0  0
  1 18  1  0  0  0  0
  2  3  2  0  0  0  0
  2  4  2  0  0  0  0
  2  8  1  0  0  0  0
  2  9  1  0  0  0  0
  5 13  2  0  0  0  0
  6 10  1  0  0  0  0
  6 11  1  0  0  0  0
  6 12  1  0  0  0  0
  7 13  1  0  0  0  0
  7 14  1  0  0  0  0
  7 31  1  0  0  0  0
  8 11  1  0  0  0  0
  8 23  1  0  0  0  0
  8 24  1  0  0  0  0
  9 10  1  0  0  0  0
  9 21  1  0  0  0  0
  9 22  1  0  0  0  0
 10 27  1  0  0  0  0
 10 28  1  0  0  0  0
 11 25  1  0  0  0  0
 11 26  1  0  0  0  0
 12 13  1  0  0  0  0
 12 29  1  0  0  0  0
 12 30  1  0  0  0  0
 14 15  2  0  0  0  0
 14 16  1  0  0  0  0
 15 18  1  0  0  0  0
 15 32  1  0  0  0  0
 16 19  2  0  0  0  0
 16 33  1  0  0  0  0
 17 18  2  0  0  0  0
 17 19  1  0  0  0  0
 17 20  1  0  0  0  0
 19 34  1  0  0  0  0
 20 35  1  0  0  0  0
 20 36  1  0  0  0  0
 20 37  1  0  0  0  0
M  END
> <PUBCHEM_COMPOUND_CID>
47205499

> <PUBCHEM_CONFORMER_RMSD>
0.8

> <PUBCHEM_CONFORMER_DIVERSEORDER>
2
40
28
8
13
29
25
30
9
37
24
11
27
33
39
16
17
3
19
12
18
14
41
1
38
15
36
32
35
21
6
22
31
26
4
5
34
23
20
7
10

> <PUBCHEM_MMFF94_PARTIAL_CHARGES>
24
1 -0.18
10 0.27
11 0.27
12 0.33
13 0.57
14 0.12
15 -0.15
16 -0.15
17 -0.14
18 0.18
19 -0.15
2 1.09
20 0.14
3 -0.65
31 0.37
32 0.15
33 0.15
34 0.15
4 -0.65
5 -0.57
6 -0.81
7 -0.55
8 0.11
9 0.11

> <PUBCHEM_EFFECTIVE_ROTOR_COUNT>
5

> <PUBCHEM_PHARMACOPHORE_FEATURES>
7
1 3 acceptor
1 4 acceptor
1 5 acceptor
1 6 cation
1 7 donor
6 14 15 16 17 18 19 rings
6 2 6 8 9 10 11 rings

> <PUBCHEM_HEAVY_ATOM_COUNT>
20

> <PUBCHEM_ATOM_DEF_STEREO_COUNT>
0

> <PUBCHEM_ATOM_UDEF_STEREO_COUNT>
0

> <PUBCHEM_BOND_DEF_STEREO_COUNT>
0

> <PUBCHEM_BOND_UDEF_STEREO_COUNT>
0

> <PUBCHEM_ISOTOPIC_ATOM_COUNT>
0

> <PUBCHEM_COMPONENT_COUNT>
1

> <PUBCHEM_CACTVS_TAUTO_COUNT>
2

> <PUBCHEM_CONFORMER_ID>
02D04C7B00000002

> <PUBCHEM_MMFF94_ENERGY>
44.2403

> <PUBCHEM_FEATURE_SELFOVERLAP>
35.537

> <PUBCHEM_SHAPE_MULTIPOLES>
389.74
17.15
1.51
1.17
0.88
0.05
-0.07
1.57
-5.32
-1.44
-0.11
1.15
-0.12
-1.25

> <PUBCHEM_SHAPE_SELFOVERLAP>
787.123

> <PUBCHEM_SHAPE_VOLUME>
229.1

> <PUBCHEM_COORDINATE_TYPE>
2
5
10

$$$$

