441966
  -OEChem-07051212563D

 49 52  0     1  0  0  0  0  0999 V2000
    3.6589    0.4662   -0.7097 O   0  0  0  0  0  0  0  0  0  0  0  0
    1.8093    0.1588    0.6788 O   0  0  0  0  0  0  0  0  0  0  0  0
    5.7926   -2.4281    1.2745 O   0  0  0  0  0  0  0  0  0  0  0  0
    7.1692   -0.5394   -0.4266 O   0  0  0  0  0  0  0  0  0  0  0  0
    3.4668   -1.1548    2.5590 O   0  0  0  0  0  0  0  0  0  0  0  0
    4.7299    2.1492   -2.6010 O   0  0  0  0  0  0  0  0  0  0  0  0
   -0.7556   -0.0288   -0.2049 O   0  0  0  0  0  0  0  0  0  0  0  0
   -4.4914   -2.9184   -1.0720 O   0  0  0  0  0  0  0  0  0  0  0  0
   -5.3390    1.2920    0.7167 O   0  0  0  0  0  0  0  0  0  0  0  0
   -3.2824    2.8494    1.1811 O   0  0  0  0  0  0  0  0  0  0  0  0
    5.3283   -1.1005    1.0245 C   0  0  1  0  0  0  0  0  0  0  0  0
    5.7546   -0.7092   -0.3905 C   0  0  1  0  0  0  0  0  0  0  0  0
    3.8077   -1.0561    1.1765 C   0  0  2  0  0  0  0  0  0  0  0  0
    5.0775    0.5942   -0.8209 C   0  0  1  0  0  0  0  0  0  0  0  0
    3.2327    0.2523    0.6338 C   0  0  1  0  0  0  0  0  0  0  0  0
    5.3955    0.9437   -2.2712 C   0  0  0  0  0  0  0  0  0  0  0  0
    1.1910    1.3361    0.1908 C   0  0  0  0  0  0  0  0  0  0  0  0
   -0.2971    1.1936    0.2566 C   0  0  0  0  0  0  0  0  0  0  0  0
   -3.0378    0.6661    0.2694 C   0  0  0  0  0  0  0  0  0  0  0  0
   -2.1093   -0.2711   -0.1904 C   0  0  0  0  0  0  0  0  0  0  0  0
   -1.0886    2.1703    0.7217 C   0  0  0  0  0  0  0  0  0  0  0  0
   -2.5487    1.9659    0.7594 C   0  0  0  0  0  0  0  0  0  0  0  0
   -4.4150    0.3898    0.2715 C   0  0  0  0  0  0  0  0  0  0  0  0
   -4.8440   -0.8629   -0.2040 C   0  0  0  0  0  0  0  0  0  0  0  0
   -3.8897   -1.7695   -0.6532 C   0  0  0  0  0  0  0  0  0  0  0  0
   -2.5179   -1.5216   -0.6666 C   0  0  0  0  0  0  0  0  0  0  0  0
   -6.0973   -1.5113   -0.3642 C   0  0  0  0  0  0  0  0  0  0  0  0
   -5.8276   -2.7521   -0.8930 C   0  0  0  0  0  0  0  0  0  0  0  0
   -5.8726    2.1962   -0.2461 C   0  0  0  0  0  0  0  0  0  0  0  0
    5.8063   -0.4580    1.7743 H   0  0  0  0  0  0  0  0  0  0  0  0
    5.5041   -1.5212   -1.0841 H   0  0  0  0  0  0  0  0  0  0  0  0
    3.3477   -1.9138    0.6702 H   0  0  0  0  0  0  0  0  0  0  0  0
    5.4016    1.4338   -0.1909 H   0  0  0  0  0  0  0  0  0  0  0  0
    3.5400    1.0967    1.2658 H   0  0  0  0  0  0  0  0  0  0  0  0
    5.0301    0.1651   -2.9491 H   0  0  0  0  0  0  0  0  0  0  0  0
    6.4700    1.0822   -2.4249 H   0  0  0  0  0  0  0  0  0  0  0  0
    6.7582   -2.4252    1.1587 H   0  0  0  0  0  0  0  0  0  0  0  0
    7.4004    0.1835    0.1813 H   0  0  0  0  0  0  0  0  0  0  0  0
    3.8588   -1.9784    2.8964 H   0  0  0  0  0  0  0  0  0  0  0  0
    1.5299    2.1985    0.7775 H   0  0  0  0  0  0  0  0  0  0  0  0
    1.4663    1.5006   -0.8576 H   0  0  0  0  0  0  0  0  0  0  0  0
    4.9423    2.3501   -3.5284 H   0  0  0  0  0  0  0  0  0  0  0  0
   -0.6969    3.1172    1.0749 H   0  0  0  0  0  0  0  0  0  0  0  0
   -1.8109   -2.2600   -1.0269 H   0  0  0  0  0  0  0  0  0  0  0  0
   -7.0767   -1.1223   -0.1239 H   0  0  0  0  0  0  0  0  0  0  0  0
   -6.4447   -3.5896   -1.1834 H   0  0  0  0  0  0  0  0  0  0  0  0
   -6.5798    1.6732   -0.8974 H   0  0  0  0  0  0  0  0  0  0  0  0
   -5.0833    2.6536   -0.8514 H   0  0  0  0  0  0  0  0  0  0  0  0
   -6.4085    2.9871    0.2857 H   0  0  0  0  0  0  0  0  0  0  0  0
  1 14  1  0  0  0  0
  1 15  1  0  0  0  0
  2 15  1  0  0  0  0
  2 17  1  0  0  0  0
  3 11  1  0  0  0  0
  3 37  1  0  0  0  0
  4 12  1  0  0  0  0
  4 38  1  0  0  0  0
  5 13  1  0  0  0  0
  5 39  1  0  0  0  0
  6 16  1  0  0  0  0
  6 42  1  0  0  0  0
  7 18  1  0  0  0  0
  7 20  1  0  0  0  0
  8 25  1  0  0  0  0
  8 28  1  0  0  0  0
  9 23  1  0  0  0  0
  9 29  1  0  0  0  0
 10 22  2  0  0  0  0
 11 12  1  0  0  0  0
 11 13  1  0  0  0  0
 11 30  1  0  0  0  0
 12 14  1  0  0  0  0
 12 31  1  0  0  0  0
 13 15  1  0  0  0  0
 13 32  1  0  0  0  0
 14 16  1  0  0  0  0
 14 33  1  0  0  0  0
 15 34  1  0  0  0  0
 16 35  1  0  0  0  0
 16 36  1  0  0  0  0
 17 18  1  0  0  0  0
 17 40  1  0  0  0  0
 17 41  1  0  0  0  0
 18 21  2  0  0  0  0
 19 20  2  0  0  0  0
 19 22  1  0  0  0  0
 19 23  1  0  0  0  0
 20 26  1  0  0  0  0
 21 22  1  0  0  0  0
 21 43  1  0  0  0  0
 23 24  2  0  0  0  0
 24 25  1  0  0  0  0
 24 27  1  0  0  0  0
 25 26  2  0  0  0  0
 26 44  1  0  0  0  0
 27 28  2  0  0  0  0
 27 45  1  0  0  0  0
 28 46  1  0  0  0  0
 29 47  1  0  0  0  0
 29 48  1  0  0  0  0
 29 49  1  0  0  0  0
M  END
> <PUBCHEM_COMPOUND_CID>
441966

> <PUBCHEM_CONFORMER_RMSD>
0.8

> <PUBCHEM_CONFORMER_DIVERSEORDER>
1
83
18
38
84
5
76
16
66
44
15
34
60
7
3
35
6
22
67
64
71
20
49
4
86
88
43
33
74
10
50
68
80
42
19
21
2
52
45
87
59
70
26
57
39
31
58
63
54
36
40
81
85
37
51
77
8
62
46
73
82
61
32
79
75
53
28
27
72
23
41
29
13
55
17
47
25
56
69
24
9
14
30
78
12
48
11
65

> <PUBCHEM_MMFF94_PARTIAL_CHARGES>
36
1 -0.56
10 -0.57
11 0.28
12 0.28
13 0.28
14 0.28
15 0.56
16 0.28
17 0.42
18 -0.06
19 0.09
2 -0.56
20 0.08
21 -0.14
22 0.47
23 0.08
25 0.14
26 -0.15
27 -0.15
28 -0.01
29 0.28
3 -0.68
37 0.4
38 0.4
39 0.4
4 -0.68
42 0.4
43 0.15
44 0.15
45 0.15
46 0.15
5 -0.68
6 -0.68
7 -0.16
8 -0.28
9 -0.36

> <PUBCHEM_EFFECTIVE_ROTOR_COUNT>
6.2

> <PUBCHEM_PHARMACOPHORE_FEATURES>
18
1 1 acceptor
1 10 acceptor
1 2 acceptor
1 3 acceptor
1 3 donor
1 4 acceptor
1 4 donor
1 5 acceptor
1 5 donor
1 6 acceptor
1 6 donor
1 7 acceptor
1 8 acceptor
1 9 acceptor
5 8 24 25 27 28 rings
6 1 11 12 13 14 15 rings
6 19 20 23 24 25 26 rings
6 7 18 19 20 21 22 rings

> <PUBCHEM_HEAVY_ATOM_COUNT>
29

> <PUBCHEM_ATOM_DEF_STEREO_COUNT>
5

> <PUBCHEM_ATOM_UDEF_STEREO_COUNT>
0

> <PUBCHEM_BOND_DEF_STEREO_COUNT>
0

> <PUBCHEM_BOND_UDEF_STEREO_COUNT>
0

> <PUBCHEM_ISOTOPIC_ATOM_COUNT>
0

> <PUBCHEM_COMPONENT_COUNT>
1

> <PUBCHEM_CACTVS_TAUTO_COUNT>
1

> <PUBCHEM_CONFORMER_ID>
0006BE6E00000001

> <PUBCHEM_MMFF94_ENERGY>
81.9364

> <PUBCHEM_FEATURE_SELFOVERLAP>
91.549

> <PUBCHEM_SHAPE_FINGERPRINT>
10050765 1 18189621553806333481
10299344 5 18342174479490315810
10319926 262 17895205423281705307
10411042 1 18116719509468798503
10595046 47 18411697673846767396
10622 236 17986412176612783378
11524674 6 16515688844883618143
11545043 162 17385444314720792139
12236239 1 18272650160121354012
12616971 3 18060419144483610784
12788726 201 18408598145755972851
13422730 153 17846495903426334444
13782708 43 16877662344470289895
14347332 77 18409451371174418381
15042514 8 18261116266683565569
15183329 4 18343024397630690175
15250474 111 18412550920123131146
15274700 147 13461055078091724886
1577012 14 18272366486464097436
15799311 1 18187351177667677506
16990350 14 16456267125819326153
17844677 252 18113334185253042208
17857418 61 18412265055952892960
18681886 176 18335140865511766432
18927931 339 18040999519165132567
20511986 3 18343024376367168780
21033648 29 15936697059361715856
21223535 225 15984554419467722724
21267235 1 18335700495492501563
22950370 63 18412547604260022832
2297311 6 18040707044328796637
2303208 19 16805315596143471766
23081809 10 18272650138493413372
23522609 53 18196626618994834781
23559900 14 18040723536787533577
23569914 152 14902609753383276578
25147074 1 18342734126387085088
3004659 81 18343587330752447130
335352 9 18334299782314376973
397830 11 17313965021255505666
4015057 19 17561356262755492280
497634 4 18202285792726154007
5104073 3 17895196558880819153
559249 180 18409173229609177027
6700243 42 17897416558725691580
6823239 73 17894633634786930560
7237137 82 18412262818428478037
86090 222 16009847490896065142

> <PUBCHEM_SHAPE_MULTIPOLES>
538.11
18.71
2.85
1.57
11.49
0.18
0.33
6.74
3.68
-4.13
0.06
3.17
-0.16
-3.96

> <PUBCHEM_SHAPE_SELFOVERLAP>
1175.521

> <PUBCHEM_SHAPE_VOLUME>
290.4

> <PUBCHEM_COORDINATE_TYPE>
2
5
10

$$$$

