5400
  -OEChem-06261200403D

 29 30  0     1  0  0  0  0  0999 V2000
    0.0073   -2.4680   -0.1110 O   0  0  0  0  0  0  0  0  0  0  0  0
    3.1946    0.5613    0.2117 N   0  0  0  0  0  0  0  0  0  0  0  0
    0.9866   -0.2557   -0.4886 C   0  0  1  0  0  0  0  0  0  0  0  0
    0.3050    1.1273   -0.3732 C   0  0  0  0  0  0  0  0  0  0  0  0
    2.1484   -0.4179    0.4775 C   0  0  0  0  0  0  0  0  0  0  0  0
   -1.1388    0.8057   -0.1507 C   0  0  0  0  0  0  0  0  0  0  0  0
   -0.1148   -1.2592   -0.1966 C   0  0  0  0  0  0  0  0  0  0  0  0
   -1.3791   -0.5579   -0.0394 C   0  0  0  0  0  0  0  0  0  0  0  0
   -2.1909    1.7001   -0.0361 C   0  0  0  0  0  0  0  0  0  0  0  0
   -2.6374   -1.0856    0.1845 C   0  0  0  0  0  0  0  0  0  0  0  0
    3.7127    0.4065   -1.1490 C   0  0  0  0  0  0  0  0  0  0  0  0
    4.2807    0.4336    1.1853 C   0  0  0  0  0  0  0  0  0  0  0  0
   -3.4768    1.1965    0.1880 C   0  0  0  0  0  0  0  0  0  0  0  0
   -3.6977   -0.1868    0.2978 C   0  0  0  0  0  0  0  0  0  0  0  0
    1.2739   -0.4434   -1.5302 H   0  0  0  0  0  0  0  0  0  0  0  0
    0.4379    1.6990   -1.2979 H   0  0  0  0  0  0  0  0  0  0  0  0
    0.6855    1.7174    0.4674 H   0  0  0  0  0  0  0  0  0  0  0  0
    2.5421   -1.4419    0.4158 H   0  0  0  0  0  0  0  0  0  0  0  0
    1.7780   -0.2965    1.5047 H   0  0  0  0  0  0  0  0  0  0  0  0
   -2.0274    2.7697   -0.1158 H   0  0  0  0  0  0  0  0  0  0  0  0
   -2.8034   -2.1535    0.2686 H   0  0  0  0  0  0  0  0  0  0  0  0
    2.9911    0.7358   -1.9027 H   0  0  0  0  0  0  0  0  0  0  0  0
    4.0170   -0.6238   -1.3664 H   0  0  0  0  0  0  0  0  0  0  0  0
    4.5888    1.0497   -1.2977 H   0  0  0  0  0  0  0  0  0  0  0  0
    3.9038    0.5798    2.2037 H   0  0  0  0  0  0  0  0  0  0  0  0
    5.0398    1.2063    1.0199 H   0  0  0  0  0  0  0  0  0  0  0  0
    4.7684   -0.5468    1.1347 H   0  0  0  0  0  0  0  0  0  0  0  0
   -4.3148    1.8822    0.2802 H   0  0  0  0  0  0  0  0  0  0  0  0
   -4.7040   -0.5572    0.4730 H   0  0  0  0  0  0  0  0  0  0  0  0
  1  7  2  0  0  0  0
  2  5  1  0  0  0  0
  2 11  1  0  0  0  0
  2 12  1  0  0  0  0
  3  4  1  0  0  0  0
  3  5  1  0  0  0  0
  3  7  1  0  0  0  0
  3 15  1  0  0  0  0
  4  6  1  0  0  0  0
  4 16  1  0  0  0  0
  4 17  1  0  0  0  0
  5 18  1  0  0  0  0
  5 19  1  0  0  0  0
  6  8  1  0  0  0  0
  6  9  2  0  0  0  0
  7  8  1  0  0  0  0
  8 10  2  0  0  0  0
  9 13  1  0  0  0  0
  9 20  1  0  0  0  0
 10 14  1  0  0  0  0
 10 21  1  0  0  0  0
 11 22  1  0  0  0  0
 11 23  1  0  0  0  0
 11 24  1  0  0  0  0
 12 25  1  0  0  0  0
 12 26  1  0  0  0  0
 12 27  1  0  0  0  0
 13 14  2  0  0  0  0
 13 28  1  0  0  0  0
 14 29  1  0  0  0  0
M  END
> <PUBCHEM_COMPOUND_CID>
5400

> <PUBCHEM_CONFORMER_RMSD>
0.6

> <PUBCHEM_CONFORMER_DIVERSEORDER>
1
2

> <PUBCHEM_MMFF94_PARTIAL_CHARGES>
18
1 -0.57
10 -0.15
11 0.27
12 0.27
13 -0.15
14 -0.15
2 -0.81
20 0.15
21 0.15
28 0.15
29 0.15
3 0.06
4 0.14
5 0.27
6 -0.14
7 0.42
8 0.09
9 -0.15

> <PUBCHEM_EFFECTIVE_ROTOR_COUNT>
2.4

> <PUBCHEM_PHARMACOPHORE_FEATURES>
4
1 1 acceptor
1 2 cation
5 3 4 6 7 8 rings
6 6 8 9 10 13 14 rings

> <PUBCHEM_HEAVY_ATOM_COUNT>
14

> <PUBCHEM_ATOM_DEF_STEREO_COUNT>
0

> <PUBCHEM_ATOM_UDEF_STEREO_COUNT>
1

> <PUBCHEM_BOND_DEF_STEREO_COUNT>
0

> <PUBCHEM_BOND_UDEF_STEREO_COUNT>
0

> <PUBCHEM_ISOTOPIC_ATOM_COUNT>
0

> <PUBCHEM_COMPONENT_COUNT>
1

> <PUBCHEM_CACTVS_TAUTO_COUNT>
2

> <PUBCHEM_CONFORMER_ID>
0000151800000001

> <PUBCHEM_MMFF94_ENERGY>
37.8343

> <PUBCHEM_FEATURE_SELFOVERLAP>
20.376

> <PUBCHEM_SHAPE_FINGERPRINT>
10608611 8 18265334091365119133
11132069 177 18411982476779424317
11543360 7 15502388806633182237
12251169 10 18273497874843402032
12346645 44 18335421304683804131
12382932 28 18339358686193706633
13214271 11 18335425655738837109
13380535 76 18413107290476356883
13538477 17 17987515914498472646
14144814 61 18342458140473329440
14289901 80 15195564568001046660
14325111 11 18410291445080925380
14614273 12 18272375334075803845
14993402 34 18272084972368529124
15219456 202 18113613534157397262
15309172 13 18410569587252782691
15536298 74 18335420235421927438
15669948 3 18268426837454393694
15775835 57 18411418431619749352
16945 1 18410573946602396559
17846911 113 18408327687233245632
1813 80 16844453907405874850
18186145 218 17749100115091369312
19026448 4 16950277395129557534
19026448 5 16773794783707869348
19422 9 17846779594337118146
200 152 14764355928961590648
20510252 161 18260264148596718017
20645476 183 17631153213567881838
20645477 56 18261676983011269784
20871998 184 18189048707720384135
21501502 16 18266179628929060179
23402539 116 18334588909851540943
23463225 33 18272936071857173802
23559900 14 18260820519509171724
2748010 2 18053092119555811471
4072396 5 18200326510292294931
43471831 8 18342177799257735011
5104073 3 18338512075278124595
53812653 166 18333734632277124233
633830 44 17822008748114315012
69090 78 17676492721984159518
7364860 26 18046062932544578958
77492 1 17704069564888930332
90316 7 17846508074810438748

> <PUBCHEM_SHAPE_MULTIPOLES>
277.26
7
1.68
0.87
3.95
0.51
-0.02
-1.86
-1.25
-0.89
0.07
0.83
-0.09
0.03

> <PUBCHEM_SHAPE_SELFOVERLAP>
588.356

> <PUBCHEM_SHAPE_VOLUME>
158.3

> <PUBCHEM_COORDINATE_TYPE>
2
5
10

$$$$

