10055958
  -OEChem-07051213112D

107108  0     1  0  0  0  0  0999 V2000
    8.5991    3.5950    0.0000 O   0  0  0  0  0  0  0  0  0  0  0  0
   11.1972    6.0950    0.0000 O   0  0  0  0  0  0  0  0  0  0  0  0
    6.0010    6.0950    0.0000 O   0  0  0  0  0  0  0  0  0  0  0  0
   13.7953    3.5950    0.0000 O   0  0  0  0  0  0  0  0  0  0  0  0
   13.7953    6.5950    0.0000 O   0  0  0  0  0  0  0  0  0  0  0  0
   12.9292    0.0950    0.0000 O   0  0  0  0  0  0  0  0  0  0  0  0
   12.0632    6.5950    0.0000 O   0  0  0  0  0  0  0  0  0  0  0  0
    9.4651   -0.9050    0.0000 O   0  0  0  0  0  0  0  0  0  0  0  0
    3.4030    3.5950    0.0000 O   0  0  0  0  0  0  0  0  0  0  0  0
    9.4651   -6.9050    0.0000 O   0  0  0  0  0  0  0  0  0  0  0  0
    7.7331    5.0950    0.0000 N   0  0  0  0  0  0  0  0  0  0  0  0
   10.3312    4.5950    0.0000 N   0  0  0  0  0  0  0  0  0  0  0  0
   12.0632    3.5950    0.0000 N   0  0  0  0  0  0  0  0  0  0  0  0
   12.0632    1.5950    0.0000 N   0  0  0  0  0  0  0  0  0  0  0  0
    5.1350    4.5950    0.0000 N   0  0  0  0  0  0  0  0  0  0  0  0
   11.1972   -0.9050    0.0000 N   0  0  0  0  0  0  0  0  0  0  0  0
   11.1972   -2.9050    0.0000 N   0  0  0  0  0  0  0  0  0  0  0  0
    2.5369    5.0950    0.0000 N   0  0  0  0  0  0  0  0  0  0  0  0
    9.4651    5.0950    0.0000 C   0  0  1  0  0  0  0  0  0  0  0  0
    9.4651    6.0950    0.0000 C   0  0  0  0  0  0  0  0  0  0  0  0
    6.8671    4.5950    0.0000 C   0  0  1  0  0  0  0  0  0  0  0  0
    6.8671    3.5950    0.0000 C   0  0  0  0  0  0  0  0  0  0  0  0
    8.5991    4.5950    0.0000 C   0  0  0  0  0  0  0  0  0  0  0  0
   12.0632    4.5950    0.0000 C   0  0  2  0  0  0  0  0  0  0  0  0
    8.5991    6.5950    0.0000 C   0  0  0  0  0  0  0  0  0  0  0  0
   10.3312    6.5950    0.0000 C   0  0  0  0  0  0  0  0  0  0  0  0
   11.1972    5.0950    0.0000 C   0  0  0  0  0  0  0  0  0  0  0  0
    6.0010    3.0950    0.0000 C   0  0  0  0  0  0  0  0  0  0  0  0
    7.7331    3.0950    0.0000 C   0  0  0  0  0  0  0  0  0  0  0  0
    6.0010    5.0950    0.0000 C   0  0  0  0  0  0  0  0  0  0  0  0
   12.9292    2.0950    0.0000 C   0  0  2  0  0  0  0  0  0  0  0  0
   12.9292    5.0950    0.0000 C   0  0  0  0  0  0  0  0  0  0  0  0
   12.9292    3.0950    0.0000 C   0  0  0  0  0  0  0  0  0  0  0  0
   13.7953    1.5950    0.0000 C   0  0  0  0  0  0  0  0  0  0  0  0
   14.6613    2.0950    0.0000 C   0  0  0  0  0  0  0  0  0  0  0  0
   11.1972    0.0950    0.0000 C   0  0  1  0  0  0  0  0  0  0  0  0
   12.0632    0.5950    0.0000 C   0  0  0  0  0  0  0  0  0  0  0  0
   12.9292    6.0950    0.0000 C   0  0  0  0  0  0  0  0  0  0  0  0
    4.2690    5.0950    0.0000 C   0  0  0  0  0  0  0  0  0  0  0  0
   10.3312   -2.4050    0.0000 C   0  0  2  0  0  0  0  0  0  0  0  0
   10.3312    0.5950    0.0000 C   0  0  0  0  0  0  0  0  0  0  0  0
   15.5273    1.5950    0.0000 C   0  0  0  0  0  0  0  0  0  0  0  0
   14.6613    3.0950    0.0000 C   0  0  0  0  0  0  0  0  0  0  0  0
   10.3312   -1.4050    0.0000 C   0  0  0  0  0  0  0  0  0  0  0  0
    9.4651   -2.9050    0.0000 C   0  0  0  0  0  0  0  0  0  0  0  0
    3.4030    4.5950    0.0000 C   0  0  0  0  0  0  0  0  0  0  0  0
   16.3933    2.0950    0.0000 C   0  0  0  0  0  0  0  0  0  0  0  0
   15.5273    3.5950    0.0000 C   0  0  0  0  0  0  0  0  0  0  0  0
    9.4651   -3.9050    0.0000 C   0  0  0  0  0  0  0  0  0  0  0  0
   16.3933    3.0950    0.0000 C   0  0  0  0  0  0  0  0  0  0  0  0
    8.5991   -4.4050    0.0000 C   0  0  0  0  0  0  0  0  0  0  0  0
   10.3312   -4.4050    0.0000 C   0  0  0  0  0  0  0  0  0  0  0  0
    8.5991   -5.4050    0.0000 C   0  0  0  0  0  0  0  0  0  0  0  0
   10.3312   -5.4050    0.0000 C   0  0  0  0  0  0  0  0  0  0  0  0
    9.4651   -5.9050    0.0000 C   0  0  0  0  0  0  0  0  0  0  0  0
   10.0021    5.4050    0.0000 H   0  0  0  0  0  0  0  0  0  0  0  0
   10.0021    5.7850    0.0000 H   0  0  0  0  0  0  0  0  0  0  0  0
    7.4040    4.2850    0.0000 H   0  0  0  0  0  0  0  0  0  0  0  0
    6.3301    3.9050    0.0000 H   0  0  0  0  0  0  0  0  0  0  0  0
    7.7331    5.7150    0.0000 H   0  0  0  0  0  0  0  0  0  0  0  0
   10.3312    3.9750    0.0000 H   0  0  0  0  0  0  0  0  0  0  0  0
   12.6002    4.2850    0.0000 H   0  0  0  0  0  0  0  0  0  0  0  0
   10.6412    6.0581    0.0000 H   0  0  0  0  0  0  0  0  0  0  0  0
   10.8681    6.9050    0.0000 H   0  0  0  0  0  0  0  0  0  0  0  0
   10.0212    7.1319    0.0000 H   0  0  0  0  0  0  0  0  0  0  0  0
    8.9091    7.1319    0.0000 H   0  0  0  0  0  0  0  0  0  0  0  0
    8.0622    6.9050    0.0000 H   0  0  0  0  0  0  0  0  0  0  0  0
    8.2891    6.0581    0.0000 H   0  0  0  0  0  0  0  0  0  0  0  0
    7.4231    2.5581    0.0000 H   0  0  0  0  0  0  0  0  0  0  0  0
    8.2700    2.7850    0.0000 H   0  0  0  0  0  0  0  0  0  0  0  0
    8.0431    3.6319    0.0000 H   0  0  0  0  0  0  0  0  0  0  0  0
    5.6910    3.6319    0.0000 H   0  0  0  0  0  0  0  0  0  0  0  0
    5.4641    2.7850    0.0000 H   0  0  0  0  0  0  0  0  0  0  0  0
    6.3110    2.5581    0.0000 H   0  0  0  0  0  0  0  0  0  0  0  0
   12.3923    2.4050    0.0000 H   0  0  0  0  0  0  0  0  0  0  0  0
   11.5263    3.2850    0.0000 H   0  0  0  0  0  0  0  0  0  0  0  0
   13.1413    4.5124    0.0000 H   0  0  0  0  0  0  0  0  0  0  0  0
   13.5398    5.2027    0.0000 H   0  0  0  0  0  0  0  0  0  0  0  0
   13.3967    1.1200    0.0000 H   0  0  0  0  0  0  0  0  0  0  0  0
   14.1938    1.1200    0.0000 H   0  0  0  0  0  0  0  0  0  0  0  0
   11.5263    1.9050    0.0000 H   0  0  0  0  0  0  0  0  0  0  0  0
    5.1350    3.9750    0.0000 H   0  0  0  0  0  0  0  0  0  0  0  0
   10.6603   -0.2150    0.0000 H   0  0  0  0  0  0  0  0  0  0  0  0
    4.6675    5.5700    0.0000 H   0  0  0  0  0  0  0  0  0  0  0  0
    3.8705    5.5700    0.0000 H   0  0  0  0  0  0  0  0  0  0  0  0
   11.7341   -1.2150    0.0000 H   0  0  0  0  0  0  0  0  0  0  0  0
   10.8681   -2.0950    0.0000 H   0  0  0  0  0  0  0  0  0  0  0  0
   10.6412    1.1319    0.0000 H   0  0  0  0  0  0  0  0  0  0  0  0
    9.7942    0.9050    0.0000 H   0  0  0  0  0  0  0  0  0  0  0  0
   10.0212    0.0581    0.0000 H   0  0  0  0  0  0  0  0  0  0  0  0
   15.5273    0.9750    0.0000 H   0  0  0  0  0  0  0  0  0  0  0  0
   14.1244    3.4050    0.0000 H   0  0  0  0  0  0  0  0  0  0  0  0
    9.2531   -2.3224    0.0000 H   0  0  0  0  0  0  0  0  0  0  0  0
    8.8546   -3.0127    0.0000 H   0  0  0  0  0  0  0  0  0  0  0  0
   16.9303    1.7850    0.0000 H   0  0  0  0  0  0  0  0  0  0  0  0
   15.5273    4.2150    0.0000 H   0  0  0  0  0  0  0  0  0  0  0  0
   16.9303    3.4050    0.0000 H   0  0  0  0  0  0  0  0  0  0  0  0
   13.7953    7.2150    0.0000 H   0  0  0  0  0  0  0  0  0  0  0  0
   11.7341   -2.5950    0.0000 H   0  0  0  0  0  0  0  0  0  0  0  0
   11.1972   -3.5250    0.0000 H   0  0  0  0  0  0  0  0  0  0  0  0
    8.0622   -4.0950    0.0000 H   0  0  0  0  0  0  0  0  0  0  0  0
   10.8681   -4.0950    0.0000 H   0  0  0  0  0  0  0  0  0  0  0  0
    2.0000    4.7850    0.0000 H   0  0  0  0  0  0  0  0  0  0  0  0
    2.5369    5.7150    0.0000 H   0  0  0  0  0  0  0  0  0  0  0  0
    8.0622   -5.7150    0.0000 H   0  0  0  0  0  0  0  0  0  0  0  0
   10.8681   -5.7150    0.0000 H   0  0  0  0  0  0  0  0  0  0  0  0
    8.9282   -7.2150    0.0000 H   0  0  0  0  0  0  0  0  0  0  0  0
  1 23  2  0  0  0  0
  2 27  2  0  0  0  0
  3 30  2  0  0  0  0
  4 33  2  0  0  0  0
  5 38  1  0  0  0  0
  5 98  1  0  0  0  0
  6 37  2  0  0  0  0
  7 38  2  0  0  0  0
  8 44  2  0  0  0  0
  9 46  2  0  0  0  0
 10 55  1  0  0  0  0
 10107  1  0  0  0  0
 21 11  1  1  0  0  0
 11 23  1  0  0  0  0
 11 60  1  0  0  0  0
 19 12  1  6  0  0  0
 12 27  1  0  0  0  0
 12 61  1  0  0  0  0
 24 13  1  6  0  0  0
 13 33  1  0  0  0  0
 13 76  1  0  0  0  0
 31 14  1  6  0  0  0
 14 37  1  0  0  0  0
 14 81  1  0  0  0  0
 15 30  1  0  0  0  0
 15 39  1  0  0  0  0
 15 82  1  0  0  0  0
 36 16  1  6  0  0  0
 16 44  1  0  0  0  0
 16 86  1  0  0  0  0
 40 17  1  1  0  0  0
 17 99  1  0  0  0  0
 17100  1  0  0  0  0
 18 46  1  0  0  0  0
 18103  1  0  0  0  0
 18104  1  0  0  0  0
 19 20  1  0  0  0  0
 19 23  1  0  0  0  0
 19 56  1  0  0  0  0
 20 25  1  0  0  0  0
 20 26  1  0  0  0  0
 20 57  1  0  0  0  0
 21 22  1  0  0  0  0
 21 30  1  0  0  0  0
 21 58  1  0  0  0  0
 22 28  1  0  0  0  0
 22 29  1  0  0  0  0
 22 59  1  0  0  0  0
 24 27  1  0  0  0  0
 24 32  1  0  0  0  0
 24 62  1  0  0  0  0
 25 66  1  0  0  0  0
 25 67  1  0  0  0  0
 25 68  1  0  0  0  0
 26 63  1  0  0  0  0
 26 64  1  0  0  0  0
 26 65  1  0  0  0  0
 28 72  1  0  0  0  0
 28 73  1  0  0  0  0
 28 74  1  0  0  0  0
 29 69  1  0  0  0  0
 29 70  1  0  0  0  0
 29 71  1  0  0  0  0
 31 33  1  0  0  0  0
 31 34  1  0  0  0  0
 31 75  1  0  0  0  0
 32 38  1  0  0  0  0
 32 77  1  0  0  0  0
 32 78  1  0  0  0  0
 34 35  1  0  0  0  0
 34 79  1  0  0  0  0
 34 80  1  0  0  0  0
 35 42  2  0  0  0  0
 35 43  1  0  0  0  0
 36 37  1  0  0  0  0
 36 41  1  0  0  0  0
 36 83  1  0  0  0  0
 39 46  1  0  0  0  0
 39 84  1  0  0  0  0
 39 85  1  0  0  0  0
 40 44  1  0  0  0  0
 40 45  1  0  0  0  0
 40 87  1  0  0  0  0
 41 88  1  0  0  0  0
 41 89  1  0  0  0  0
 41 90  1  0  0  0  0
 42 47  1  0  0  0  0
 42 91  1  0  0  0  0
 43 48  2  0  0  0  0
 43 92  1  0  0  0  0
 45 49  1  0  0  0  0
 45 93  1  0  0  0  0
 45 94  1  0  0  0  0
 47 50  2  0  0  0  0
 47 95  1  0  0  0  0
 48 50  1  0  0  0  0
 48 96  1  0  0  0  0
 49 51  2  0  0  0  0
 49 52  1  0  0  0  0
 50 97  1  0  0  0  0
 51 53  1  0  0  0  0
 51101  1  0  0  0  0
 52 54  2  0  0  0  0
 52102  1  0  0  0  0
 53 55  2  0  0  0  0
 53105  1  0  0  0  0
 54 55  1  0  0  0  0
 54106  1  0  0  0  0
M  END
> <PUBCHEM_COMPOUND_CID>
10055958

> <PUBCHEM_COMPOUND_CANONICALIZED>
1

> <PUBCHEM_CACTVS_COMPLEXITY>
1350

> <PUBCHEM_CACTVS_HBOND_ACCEPTOR>
11

> <PUBCHEM_CACTVS_HBOND_DONOR>
10

> <PUBCHEM_CACTVS_ROTATABLE_BOND>
21

> <PUBCHEM_CACTVS_SUBSKEYS>
AAADcfB//AAAAAAAAAAAAAAAAAAAAAAAAAAwYAAAAAAAAAABQAAAHgAQCAAADSzBmAQyDoLAAgCIAiHSGAACAAAgIAAIiIGOCIgIZjqCkTOUcAAm1hGImAe/yKCOIAAAAAAAAABAAAAAAAAAAAAAAAAAAA==

> <PUBCHEM_IUPAC_OPENEYE_NAME>
(3S)-3-[[(2S)-2-[[(2R)-2-[[(2S)-2-amino-3-(4-hydroxyphenyl)propanoyl]amino]propanoyl]amino]-3-phenyl-propanoyl]amino]-4-[[(1S)-1-[[(1S)-1-[(2-amino-2-oxo-ethyl)carbamoyl]-2-methyl-propyl]carbamoyl]-2-methyl-propyl]amino]-4-oxo-butanoic acid

> <PUBCHEM_IUPAC_CAS_NAME>
(3S)-3-[[(2S)-2-[[(2R)-2-[[(2S)-2-amino-3-(4-hydroxyphenyl)-1-oxopropyl]amino]-1-oxopropyl]amino]-1-oxo-3-phenylpropyl]amino]-4-[[(2S)-1-[[(2S)-1-[(2-amino-2-oxoethyl)amino]-3-methyl-1-oxobutan-2-yl]amino]-3-methyl-1-oxobutan-2-yl]amino]-4-oxobutanoic acid

> <PUBCHEM_IUPAC_NAME>
(3S)-3-[[(2S)-2-[[(2R)-2-[[(2S)-2-amino-3-(4-hydroxyphenyl)propanoyl]amino]propanoyl]amino]-3-phenylpropanoyl]amino]-4-[[(2S)-1-[[(2S)-1-[(2-amino-2-oxoethyl)amino]-3-methyl-1-oxobutan-2-yl]amino]-3-methyl-1-oxobutan-2-yl]amino]-4-oxobutanoic acid

> <PUBCHEM_IUPAC_SYSTEMATIC_NAME>
(3S)-3-[[(2S)-2-[[(2R)-2-[[(2S)-2-azanyl-3-(4-hydroxyphenyl)propanoyl]amino]propanoyl]amino]-3-phenyl-propanoyl]amino]-4-[[(2S)-1-[[(2S)-1-[(2-azanyl-2-oxidanylidene-ethyl)amino]-3-methyl-1-oxidanylidene-butan-2-yl]amino]-3-methyl-1-oxidanylidene-butan-2-yl]amino]-4-oxidanylidene-butanoic acid

> <PUBCHEM_IUPAC_TRADITIONAL_NAME>
(3S)-3-[[(2S)-2-[[(2R)-2-[[(2S)-2-amino-3-(4-hydroxyphenyl)propanoyl]amino]propanoyl]amino]-3-phenyl-propanoyl]amino]-4-[[(1S)-1-[[(1S)-1-[(2-amino-2-keto-ethyl)carbamoyl]-2-methyl-propyl]carbamoyl]-2-methyl-propyl]amino]-4-keto-butyric acid

> <PUBCHEM_IUPAC_INCHI>
InChI=1S/C37H52N8O10/c1-19(2)30(36(54)40-18-28(39)47)45-37(55)31(20(3)4)44-35(53)27(17-29(48)49)43-34(52)26(16-22-9-7-6-8-10-22)42-32(50)21(5)41-33(51)25(38)15-23-11-13-24(46)14-12-23/h6-14,19-21,25-27,30-31,46H,15-18,38H2,1-5H3,(H2,39,47)(H,40,54)(H,41,51)(H,42,50)(H,43,52)(H,44,53)(H,45,55)(H,48,49)/t21-,25+,26+,27+,30+,31+/m1/s1

> <PUBCHEM_IUPAC_INCHIKEY>
CJAORFIPPWIGPG-QXYJMILXSA-N

> <PUBCHEM_XLOGP3_AA>
-1.7

> <PUBCHEM_EXACT_MASS>
768.38064

> <PUBCHEM_MOLECULAR_FORMULA>
C37H52N8O10

> <PUBCHEM_MOLECULAR_WEIGHT>
768.85638

> <PUBCHEM_OPENEYE_CAN_SMILES>
CC(C)C(C(=O)NC(C(C)C)C(=O)NCC(=O)N)NC(=O)C(CC(=O)O)NC(=O)C(CC1=CC=CC=C1)NC(=O)C(C)NC(=O)C(CC2=CC=C(C=C2)O)N

> <PUBCHEM_OPENEYE_ISO_SMILES>
C[C@H](C(=O)N[C@@H](CC1=CC=CC=C1)C(=O)N[C@@H](CC(=O)O)C(=O)N[C@@H](C(C)C)C(=O)N[C@@H](C(C)C)C(=O)NCC(=O)N)NC(=O)[C@H](CC2=CC=C(C=C2)O)N

> <PUBCHEM_CACTVS_TPSA>
301

> <PUBCHEM_MONOISOTOPIC_WEIGHT>
768.38064

> <PUBCHEM_TOTAL_CHARGE>
0

> <PUBCHEM_HEAVY_ATOM_COUNT>
55

> <PUBCHEM_ATOM_DEF_STEREO_COUNT>
6

> <PUBCHEM_ATOM_UDEF_STEREO_COUNT>
0

> <PUBCHEM_BOND_DEF_STEREO_COUNT>
0

> <PUBCHEM_BOND_UDEF_STEREO_COUNT>
0

> <PUBCHEM_ISOTOPIC_ATOM_COUNT>
0

> <PUBCHEM_COMPONENT_COUNT>
1

> <PUBCHEM_CACTVS_TAUTO_COUNT>
384

> <PUBCHEM_COORDINATE_TYPE>
1
5
255

> <PUBCHEM_BONDANNOTATIONS>
21  11  5
19  12  6
24  13  6
31  14  6
36  16  6
40  17  5
35  42  8
35  43  8
42  47  8
43  48  8
47  50  8
48  50  8
49  51  8
49  52  8
51  53  8
52  54  8
53  55  8
54  55  8

$$$$

