5281457
  -OEChem-07051212573D

 57 58  0     1  0  0  0  0  0999 V2000
    2.3211   -2.1088   -0.7813 O   0  0  0  0  0  0  0  0  0  0  0  0
   -1.1880   -0.7272    0.9443 O   0  0  0  0  0  0  0  0  0  0  0  0
    3.3417    3.9938    0.1012 O   0  0  0  0  0  0  0  0  0  0  0  0
    3.0080   -4.0536    0.2354 O   0  0  0  0  0  0  0  0  0  0  0  0
   -2.6049   -0.2014    2.6793 O   0  0  0  0  0  0  0  0  0  0  0  0
   -2.4670   -0.1597   -1.8147 O   0  0  0  0  0  0  0  0  0  0  0  0
   -2.8448   -1.8385   -3.3562 O   0  0  0  0  0  0  0  0  0  0  0  0
    1.2662   -1.0120    1.0484 C   0  0  2  0  0  0  0  0  0  0  0  0
   -0.0185   -0.4186    1.6954 C   0  0  1  0  0  0  0  0  0  0  0  0
    1.3124   -1.1329   -0.4872 C   0  0  1  0  0  0  0  0  0  0  0  0
    0.0081    1.0914    2.0710 C   0  0  0  0  0  0  0  0  0  0  0  0
    1.5801   -2.4506    1.3571 C   0  0  0  0  0  0  0  0  0  0  0  0
    1.5701    0.1652   -1.1905 C   0  0  0  0  0  0  0  0  0  0  0  0
    0.3277    2.0956    0.9801 C   0  0  0  0  0  0  0  0  0  0  0  0
    2.3829   -3.0086    0.2425 C   0  0  0  0  0  0  0  0  0  0  0  0
    2.6793    0.9339   -1.1867 C   0  0  0  0  0  0  0  0  0  0  0  0
    2.5218    2.4047   -1.5563 C   0  0  0  0  0  0  0  0  0  0  0  0
    2.1661    3.3048   -0.3354 C   0  0  1  0  0  0  0  0  0  0  0  0
    1.5940    2.5391    0.8373 C   0  0  0  0  0  0  0  0  0  0  0  0
    1.2528   -3.2221    2.3975 C   0  0  0  0  0  0  0  0  0  0  0  0
   -0.8196    2.5213    0.1061 C   0  0  0  0  0  0  0  0  0  0  0  0
    4.0311    0.5350   -0.6693 C   0  0  0  0  0  0  0  0  0  0  0  0
   -2.3719   -0.3161    1.4842 C   0  0  0  0  0  0  0  0  0  0  0  0
   -3.3525   -0.0174    0.3950 C   0  0  0  0  0  0  0  0  0  0  0  0
   -3.2998   -0.8214   -0.8725 C   0  0  0  0  0  0  0  0  0  0  0  0
   -4.2598    0.9382    0.6715 C   0  0  0  0  0  0  0  0  0  0  0  0
   -4.3864    1.7216    1.9398 C   0  0  0  0  0  0  0  0  0  0  0  0
   -2.3249   -0.7816   -3.0247 C   0  0  0  0  0  0  0  0  0  0  0  0
   -1.4256    0.0257   -3.9111 C   0  0  0  0  0  0  0  0  0  0  0  0
    2.1321   -0.4470    1.4204 H   0  0  0  0  0  0  0  0  0  0  0  0
   -0.1419   -0.9195    2.6638 H   0  0  0  0  0  0  0  0  0  0  0  0
    0.3723   -1.5411   -0.8839 H   0  0  0  0  0  0  0  0  0  0  0  0
    0.7704    1.1932    2.8580 H   0  0  0  0  0  0  0  0  0  0  0  0
   -0.9112    1.4231    2.5627 H   0  0  0  0  0  0  0  0  0  0  0  0
    0.6599    0.6099   -1.5907 H   0  0  0  0  0  0  0  0  0  0  0  0
    3.4293    2.7579   -2.0611 H   0  0  0  0  0  0  0  0  0  0  0  0
    1.7135    2.5006   -2.2944 H   0  0  0  0  0  0  0  0  0  0  0  0
    1.4743    4.0910   -0.6547 H   0  0  0  0  0  0  0  0  0  0  0  0
    2.3389    2.1793    1.5474 H   0  0  0  0  0  0  0  0  0  0  0  0
    0.6720   -2.8443    3.2303 H   0  0  0  0  0  0  0  0  0  0  0  0
    1.5629   -4.2606    2.4554 H   0  0  0  0  0  0  0  0  0  0  0  0
   -1.6426    2.8972    0.7210 H   0  0  0  0  0  0  0  0  0  0  0  0
   -1.1780    1.6827   -0.4907 H   0  0  0  0  0  0  0  0  0  0  0  0
   -0.5540    3.3213   -0.5891 H   0  0  0  0  0  0  0  0  0  0  0  0
    4.0702   -0.4875   -0.2917 H   0  0  0  0  0  0  0  0  0  0  0  0
    4.3409    1.1929    0.1488 H   0  0  0  0  0  0  0  0  0  0  0  0
    4.7720    0.6167   -1.4714 H   0  0  0  0  0  0  0  0  0  0  0  0
    3.6620    4.5283   -0.6454 H   0  0  0  0  0  0  0  0  0  0  0  0
   -4.3094   -0.9189   -1.2909 H   0  0  0  0  0  0  0  0  0  0  0  0
   -2.9217   -1.8316   -0.6741 H   0  0  0  0  0  0  0  0  0  0  0  0
   -5.0096    1.1588   -0.0863 H   0  0  0  0  0  0  0  0  0  0  0  0
   -4.9770    2.6235    1.7420 H   0  0  0  0  0  0  0  0  0  0  0  0
   -3.4241    2.0698    2.3243 H   0  0  0  0  0  0  0  0  0  0  0  0
   -4.9176    1.1461    2.7035 H   0  0  0  0  0  0  0  0  0  0  0  0
   -0.3845   -0.2394   -3.7170 H   0  0  0  0  0  0  0  0  0  0  0  0
   -1.5819    1.0946   -3.7407 H   0  0  0  0  0  0  0  0  0  0  0  0
   -1.6690   -0.1836   -4.9566 H   0  0  0  0  0  0  0  0  0  0  0  0
  1 10  1  0  0  0  0
  1 15  1  0  0  0  0
  2  9  1  0  0  0  0
  2 23  1  0  0  0  0
  3 18  1  0  0  0  0
  3 48  1  0  0  0  0
  4 15  2  0  0  0  0
  5 23  2  0  0  0  0
  6 25  1  0  0  0  0
  6 28  1  0  0  0  0
  7 28  2  0  0  0  0
  8  9  1  0  0  0  0
  8 10  1  0  0  0  0
  8 12  1  0  0  0  0
  8 30  1  0  0  0  0
  9 11  1  0  0  0  0
  9 31  1  0  0  0  0
 10 13  1  0  0  0  0
 10 32  1  0  0  0  0
 11 14  1  0  0  0  0
 11 33  1  0  0  0  0
 11 34  1  0  0  0  0
 12 15  1  0  0  0  0
 12 20  2  0  0  0  0
 13 16  2  0  0  0  0
 13 35  1  0  0  0  0
 14 19  2  0  0  0  0
 14 21  1  0  0  0  0
 16 17  1  0  0  0  0
 16 22  1  0  0  0  0
 17 18  1  0  0  0  0
 17 36  1  0  0  0  0
 17 37  1  0  0  0  0
 18 19  1  0  0  0  0
 18 38  1  0  0  0  0
 19 39  1  0  0  0  0
 20 40  1  0  0  0  0
 20 41  1  0  0  0  0
 21 42  1  0  0  0  0
 21 43  1  0  0  0  0
 21 44  1  0  0  0  0
 22 45  1  0  0  0  0
 22 46  1  0  0  0  0
 22 47  1  0  0  0  0
 23 24  1  0  0  0  0
 24 25  1  0  0  0  0
 24 26  2  0  0  0  0
 25 49  1  0  0  0  0
 25 50  1  0  0  0  0
 26 27  1  0  0  0  0
 26 51  1  0  0  0  0
 27 52  1  0  0  0  0
 27 53  1  0  0  0  0
 27 54  1  0  0  0  0
 28 29  1  0  0  0  0
 29 55  1  0  0  0  0
 29 56  1  0  0  0  0
 29 57  1  0  0  0  0
M  END
> <PUBCHEM_COMPOUND_CID>
5281457

> <PUBCHEM_CONFORMER_RMSD>
0.8

> <PUBCHEM_CONFORMER_DIVERSEORDER>
4
172
54
185
53
32
110
173
193
69
128
47
176
101
155
8
165
196
136
163
160
11
57
190
2
124
189
192
107
90
56
23
100
125
82
180
27
41
31
26
70
115
153
50
149
108
81
89
111
186
187
194
74
151
181
73
20
86
154
14
98
66
158
38
148
178
13
87
182
152
97
118
134
141
132
170
157
61
64
84
88
68
29
45
166
76
58
162
37
113
103
18
35
133
143
7
144
55
71
83
15
126
1
171
167
116
112
175
49
16
127
44
79
164
138
188
22
174
184
77
104
131
92
25
117
6
94
105
183
168
95
85
179
121
80
142
63
106
169
146
5
122
159
3
43
109
130
119
39
17
150
191
36
12
195
30
78
48
96
99
46
21
34
24
139
72
137
129
156
114
145
62
40
28
65
52
33
9
42
75
135
10
102
91
19
59
93
60
161
177
51
67
120
147
123
140

> <PUBCHEM_MMFF94_PARTIAL_CHARGES>
35
1 -0.43
10 0.42
11 0.14
12 -0.12
13 -0.29
14 -0.28
15 0.71
16 -0.28
17 0.14
18 0.42
19 -0.29
2 -0.43
20 -0.3
21 0.14
22 0.14
23 0.71
24 -0.12
25 0.42
26 -0.29
27 0.14
28 0.66
29 0.06
3 -0.68
35 0.15
39 0.15
4 -0.57
40 0.15
41 0.15
48 0.4
5 -0.57
51 0.15
6 -0.43
7 -0.57
8 0.14
9 0.28

> <PUBCHEM_EFFECTIVE_ROTOR_COUNT>
7

> <PUBCHEM_PHARMACOPHORE_FEATURES>
7
1 27 hydrophobe
1 3 acceptor
1 3 donor
1 4 acceptor
1 5 acceptor
1 7 acceptor
5 1 8 10 12 15 rings

> <PUBCHEM_HEAVY_ATOM_COUNT>
29

> <PUBCHEM_ATOM_DEF_STEREO_COUNT>
4

> <PUBCHEM_ATOM_UDEF_STEREO_COUNT>
0

> <PUBCHEM_BOND_DEF_STEREO_COUNT>
3

> <PUBCHEM_BOND_UDEF_STEREO_COUNT>
0

> <PUBCHEM_ISOTOPIC_ATOM_COUNT>
0

> <PUBCHEM_COMPONENT_COUNT>
1

> <PUBCHEM_CACTVS_TAUTO_COUNT>
1

> <PUBCHEM_CONFORMER_ID>
005096B100000004

> <PUBCHEM_MMFF94_ENERGY>
78.2307

> <PUBCHEM_FEATURE_SELFOVERLAP>
35.52

> <PUBCHEM_SHAPE_FINGERPRINT>
10165383 225 17630014157949033253
10764073 3 15118225023535821976
11578080 2 17059495290994264012
12788726 201 17335617999819871418
13004483 165 17836648895920309250
13140716 1 17977916057143819424
13149001 5 15953895242639674017
133893 2 18196680482199877179
13681431 1 18196680542456182034
13911987 19 17844222216581628086
14251757 17 16772399632591624862
14251764 3 17558570027112409084
17921350 177 18117829117747504101
17980427 26 18337947900995597468
18981168 100 16414932949293620693
20511986 3 18040716986883136216
22907989 373 16970258540726643332
23419403 2 17631475452263678600
23598288 3 18048037668613224701
238 59 18056223317749029655
35225 105 17046858264659293178
484985 159 15759922239846027395
6287921 2 16913365647767161851
6438718 38 17257381167729788210

> <PUBCHEM_SHAPE_MULTIPOLES>
555.72
6.53
4.25
3.26
4.11
0.28
-3.1
-1.15
-0.22
-5.77
1.31
3.35
0.91
-1.72

> <PUBCHEM_SHAPE_SELFOVERLAP>
1144.821

> <PUBCHEM_SHAPE_VOLUME>
316.2

> <PUBCHEM_COORDINATE_TYPE>
2
5
10

$$$$

