583175
  -OEChem-06241222442D

123127  0     1  0  0  0  0  0999 V2000
   15.4449    3.9841    0.0000 Si  0  0  0  0  0  0  0  0  0  0  0  0
    2.8641   -3.5321    0.0000 Si  0  0  0  0  0  0  0  0  0  0  0  0
   11.7193    0.5035    0.0000 O   0  0  0  0  0  0  0  0  0  0  0  0
   14.4314    1.0668    0.0000 O   0  0  0  0  0  0  0  0  0  0  0  0
    7.1923   -4.0488    0.0000 O   0  0  0  0  0  0  0  0  0  0  0  0
   14.4664    3.7779    0.0000 O   0  0  0  0  0  0  0  0  0  0  0  0
    9.9873    0.5035    0.0000 O   0  0  0  0  0  0  0  0  0  0  0  0
    6.3320   -2.5455    0.0000 O   0  0  0  0  0  0  0  0  0  0  0  0
    3.7282   -4.0354    0.0000 O   0  0  0  0  0  0  0  0  0  0  0  0
    4.6000   -2.5388    0.0000 O   0  0  0  0  0  0  0  0  0  0  0  0
   11.7193   -2.4965    0.0000 C   0  0  3  0  0  0  0  0  0  0  0  0
   12.5853   -1.9965    0.0000 C   0  0  3  0  0  0  0  0  0  0  0  0
   10.8533   -1.9965    0.0000 C   0  0  3  0  0  0  0  0  0  0  0  0
   12.5853   -0.9965    0.0000 C   0  0  3  0  0  0  0  0  0  0  0  0
    9.9433   -2.5033    0.0000 C   0  0  3  0  0  0  0  0  0  0  0  0
    9.9353   -3.5449    0.0000 C   0  0  3  0  0  0  0  0  0  0  0  0
   13.5316   -0.6917    0.0000 C   0  0  3  0  0  0  0  0  0  0  0  0
   11.7354   -3.5380    0.0000 C   0  0  0  0  0  0  0  0  0  0  0  0
   10.8533   -0.9965    0.0000 C   0  0  0  0  0  0  0  0  0  0  0  0
   11.7193   -0.4965    0.0000 C   0  0  3  0  0  0  0  0  0  0  0  0
   13.5316   -2.3012    0.0000 C   0  0  0  0  0  0  0  0  0  0  0  0
   10.8373   -4.0657    0.0000 C   0  0  0  0  0  0  0  0  0  0  0  0
   14.1152   -1.4965    0.0000 C   0  0  0  0  0  0  0  0  0  0  0  0
    8.9998   -4.0946    0.0000 C   0  0  0  0  0  0  0  0  0  0  0  0
    9.0165   -1.9392    0.0000 C   0  0  0  0  0  0  0  0  0  0  0  0
   12.3621   -3.2625    0.0000 C   0  0  0  0  0  0  0  0  0  0  0  0
   12.9275   -2.9361    0.0000 C   0  0  0  0  0  0  0  0  0  0  0  0
   13.8422    0.2588    0.0000 C   0  0  3  0  0  0  0  0  0  0  0  0
    9.9510   -1.5033    0.0000 C   0  0  0  0  0  0  0  0  0  0  0  0
    8.0602   -3.5521    0.0000 C   0  0  3  0  0  0  0  0  0  0  0  0
    8.0686   -2.4672    0.0000 C   0  0  0  0  0  0  0  0  0  0  0  0
   12.8917    0.5694    0.0000 C   0  0  0  0  0  0  0  0  0  0  0  0
    8.5032   -4.9626    0.0000 C   0  0  0  0  0  0  0  0  0  0  0  0
    9.5032   -4.9587    0.0000 C   0  0  0  0  0  0  0  0  0  0  0  0
   14.6502   -0.3304    0.0000 C   0  0  0  0  0  0  0  0  0  0  0  0
   12.8934    1.5694    0.0000 C   0  0  0  0  0  0  0  0  0  0  0  0
   13.8450    1.8768    0.0000 C   0  0  3  0  0  0  0  0  0  0  0  0
   14.1557    2.8273    0.0000 C   0  0  0  0  0  0  0  0  0  0  0  0
   10.8533    1.0035    0.0000 C   0  0  0  0  0  0  0  0  0  0  0  0
    6.3282   -3.5455    0.0000 C   0  0  0  0  0  0  0  0  0  0  0  0
   15.1062    2.5167    0.0000 C   0  0  0  0  0  0  0  0  0  0  0  0
   13.2052    3.1380    0.0000 C   0  0  0  0  0  0  0  0  0  0  0  0
   10.8533    2.0035    0.0000 C   0  0  0  0  0  0  0  0  0  0  0  0
    5.4602   -4.0421    0.0000 C   0  0  0  0  0  0  0  0  0  0  0  0
    4.5961   -3.5388    0.0000 C   0  0  0  0  0  0  0  0  0  0  0  0
   16.4234    4.1903    0.0000 C   0  0  0  0  0  0  0  0  0  0  0  0
   15.2386    4.9626    0.0000 C   0  0  0  0  0  0  0  0  0  0  0  0
   15.6511    3.0056    0.0000 C   0  0  0  0  0  0  0  0  0  0  0  0
    2.0000   -3.0288    0.0000 C   0  0  0  0  0  0  0  0  0  0  0  0
    2.3608   -4.3962    0.0000 C   0  0  0  0  0  0  0  0  0  0  0  0
    3.3674   -2.6680    0.0000 C   0  0  0  0  0  0  0  0  0  0  0  0
   11.3902   -1.6865    0.0000 H   0  0  0  0  0  0  0  0  0  0  0  0
   12.6510   -0.3799    0.0000 H   0  0  0  0  0  0  0  0  0  0  0  0
    9.9376   -4.1649    0.0000 H   0  0  0  0  0  0  0  0  0  0  0  0
   14.1441   -0.5955    0.0000 H   0  0  0  0  0  0  0  0  0  0  0  0
   11.9534   -4.1184    0.0000 H   0  0  0  0  0  0  0  0  0  0  0  0
   12.3445   -3.4225    0.0000 H   0  0  0  0  0  0  0  0  0  0  0  0
   10.6412   -0.4139    0.0000 H   0  0  0  0  0  0  0  0  0  0  0  0
   10.2427   -1.1041    0.0000 H   0  0  0  0  0  0  0  0  0  0  0  0
   12.2563   -0.1865    0.0000 H   0  0  0  0  0  0  0  0  0  0  0  0
   13.2805   -2.8681    0.0000 H   0  0  0  0  0  0  0  0  0  0  0  0
   14.0689   -2.6104    0.0000 H   0  0  0  0  0  0  0  0  0  0  0  0
   10.4400   -4.5417    0.0000 H   0  0  0  0  0  0  0  0  0  0  0  0
   11.2383   -4.5386    0.0000 H   0  0  0  0  0  0  0  0  0  0  0  0
   14.5760   -1.9112    0.0000 H   0  0  0  0  0  0  0  0  0  0  0  0
   14.5760   -1.0817    0.0000 H   0  0  0  0  0  0  0  0  0  0  0  0
    9.4247   -1.4726    0.0000 H   0  0  0  0  0  0  0  0  0  0  0  0
    8.6265   -1.4572    0.0000 H   0  0  0  0  0  0  0  0  0  0  0  0
   11.8872   -3.6610    0.0000 H   0  0  0  0  0  0  0  0  0  0  0  0
   12.7606   -3.7375    0.0000 H   0  0  0  0  0  0  0  0  0  0  0  0
   12.8371   -2.8640    0.0000 H   0  0  0  0  0  0  0  0  0  0  0  0
   12.3449   -3.1482    0.0000 H   0  0  0  0  0  0  0  0  0  0  0  0
   13.1396   -3.5187    0.0000 H   0  0  0  0  0  0  0  0  0  0  0  0
   13.5100   -2.7240    0.0000 H   0  0  0  0  0  0  0  0  0  0  0  0
   10.5710   -1.5081    0.0000 H   0  0  0  0  0  0  0  0  0  0  0  0
    9.9558   -0.8834    0.0000 H   0  0  0  0  0  0  0  0  0  0  0  0
    9.3310   -1.4986    0.0000 H   0  0  0  0  0  0  0  0  0  0  0  0
    7.5251   -3.2390    0.0000 H   0  0  0  0  0  0  0  0  0  0  0  0
    7.8640   -1.8819    0.0000 H   0  0  0  0  0  0  0  0  0  0  0  0
    7.4569   -2.5686    0.0000 H   0  0  0  0  0  0  0  0  0  0  0  0
   12.2752    0.6353    0.0000 H   0  0  0  0  0  0  0  0  0  0  0  0
   12.7618   -0.0368    0.0000 H   0  0  0  0  0  0  0  0  0  0  0  0
    7.9650   -4.6546    0.0000 H   0  0  0  0  0  0  0  0  0  0  0  0
    8.1952   -5.5007    0.0000 H   0  0  0  0  0  0  0  0  0  0  0  0
    8.9674   -5.2708    0.0000 H   0  0  0  0  0  0  0  0  0  0  0  0
    9.8152   -5.4945    0.0000 H   0  0  0  0  0  0  0  0  0  0  0  0
   10.0389   -4.6467    0.0000 H   0  0  0  0  0  0  0  0  0  0  0  0
    9.0413   -5.2705    0.0000 H   0  0  0  0  0  0  0  0  0  0  0  0
   14.2849   -0.8314    0.0000 H   0  0  0  0  0  0  0  0  0  0  0  0
   15.1512   -0.6957    0.0000 H   0  0  0  0  0  0  0  0  0  0  0  0
   15.0155    0.1706    0.0000 H   0  0  0  0  0  0  0  0  0  0  0  0
   12.7656    2.1761    0.0000 H   0  0  0  0  0  0  0  0  0  0  0  0
   12.2767    1.5057    0.0000 H   0  0  0  0  0  0  0  0  0  0  0  0
   14.4576    1.9728    0.0000 H   0  0  0  0  0  0  0  0  0  0  0  0
   13.3978    3.7273    0.0000 H   0  0  0  0  0  0  0  0  0  0  0  0
   12.6158    3.3306    0.0000 H   0  0  0  0  0  0  0  0  0  0  0  0
   13.0126    2.5487    0.0000 H   0  0  0  0  0  0  0  0  0  0  0  0
   14.9136    1.9274    0.0000 H   0  0  0  0  0  0  0  0  0  0  0  0
   15.6955    2.3241    0.0000 H   0  0  0  0  0  0  0  0  0  0  0  0
   15.2988    3.1060    0.0000 H   0  0  0  0  0  0  0  0  0  0  0  0
   11.4733    2.0035    0.0000 H   0  0  0  0  0  0  0  0  0  0  0  0
   10.8533    2.6235    0.0000 H   0  0  0  0  0  0  0  0  0  0  0  0
   10.2333    2.0035    0.0000 H   0  0  0  0  0  0  0  0  0  0  0  0
    5.0599   -4.5155    0.0000 H   0  0  0  0  0  0  0  0  0  0  0  0
    5.8569   -4.5186    0.0000 H   0  0  0  0  0  0  0  0  0  0  0  0
   15.8453    5.0904    0.0000 H   0  0  0  0  0  0  0  0  0  0  0  0
   15.1108    5.5693    0.0000 H   0  0  0  0  0  0  0  0  0  0  0  0
   14.6320    4.8347    0.0000 H   0  0  0  0  0  0  0  0  0  0  0  0
   15.0444    2.8777    0.0000 H   0  0  0  0  0  0  0  0  0  0  0  0
   15.7789    2.3989    0.0000 H   0  0  0  0  0  0  0  0  0  0  0  0
   16.5512    3.5836    0.0000 H   0  0  0  0  0  0  0  0  0  0  0  0
   17.0300    4.3182    0.0000 H   0  0  0  0  0  0  0  0  0  0  0  0
   16.2955    4.7970    0.0000 H   0  0  0  0  0  0  0  0  0  0  0  0
   16.2577    3.1334    0.0000 H   0  0  0  0  0  0  0  0  0  0  0  0
    3.9032   -2.9801    0.0000 H   0  0  0  0  0  0  0  0  0  0  0  0
    3.6795   -2.1323    0.0000 H   0  0  0  0  0  0  0  0  0  0  0  0
    2.3121   -2.4930    0.0000 H   0  0  0  0  0  0  0  0  0  0  0  0
    1.4643   -2.7167    0.0000 H   0  0  0  0  0  0  0  0  0  0  0  0
    1.6879   -3.5645    0.0000 H   0  0  0  0  0  0  0  0  0  0  0  0
    1.8250   -4.0841    0.0000 H   0  0  0  0  0  0  0  0  0  0  0  0
    2.0487   -4.9319    0.0000 H   0  0  0  0  0  0  0  0  0  0  0  0
    2.8965   -4.7083    0.0000 H   0  0  0  0  0  0  0  0  0  0  0  0
    2.8317   -2.3560    0.0000 H   0  0  0  0  0  0  0  0  0  0  0  0
  1  6  1  0  0  0  0
  1 46  1  0  0  0  0
  1 47  1  0  0  0  0
  1 48  1  0  0  0  0
  2  9  1  0  0  0  0
  2 49  1  0  0  0  0
  2 50  1  0  0  0  0
  2 51  1  0  0  0  0
  3 20  1  0  0  0  0
  3 39  1  0  0  0  0
  4 28  1  0  0  0  0
  4 37  1  0  0  0  0
  5 30  1  0  0  0  0
  5 40  1  0  0  0  0
  6 38  1  0  0  0  0
  7 39  2  0  0  0  0
  8 40  2  0  0  0  0
  9 45  1  0  0  0  0
 10 45  2  0  0  0  0
 11 12  1  0  0  0  0
 11 13  1  0  0  0  0
 11 18  1  0  0  0  0
 11 26  1  0  0  0  0
 12 14  1  0  0  0  0
 12 21  1  0  0  0  0
 12 27  1  0  0  0  0
 13 15  1  0  0  0  0
 13 19  1  0  0  0  0
 13 52  1  0  0  0  0
 14 17  1  0  0  0  0
 14 20  1  0  0  0  0
 14 53  1  0  0  0  0
 15 16  1  0  0  0  0
 15 25  1  0  0  0  0
 15 29  1  0  0  0  0
 16 22  1  0  0  0  0
 16 24  1  0  0  0  0
 16 54  1  0  0  0  0
 17 23  1  0  0  0  0
 17 28  1  0  0  0  0
 17 55  1  0  0  0  0
 18 22  1  0  0  0  0
 18 56  1  0  0  0  0
 18 57  1  0  0  0  0
 19 20  1  0  0  0  0
 19 58  1  0  0  0  0
 19 59  1  0  0  0  0
 20 60  1  0  0  0  0
 21 23  1  0  0  0  0
 21 61  1  0  0  0  0
 21 62  1  0  0  0  0
 22 63  1  0  0  0  0
 22 64  1  0  0  0  0
 23 65  1  0  0  0  0
 23 66  1  0  0  0  0
 24 30  1  0  0  0  0
 24 33  1  0  0  0  0
 24 34  1  0  0  0  0
 25 31  1  0  0  0  0
 25 67  1  0  0  0  0
 25 68  1  0  0  0  0
 26 69  1  0  0  0  0
 26 70  1  0  0  0  0
 26 71  1  0  0  0  0
 27 72  1  0  0  0  0
 27 73  1  0  0  0  0
 27 74  1  0  0  0  0
 28 32  1  0  0  0  0
 28 35  1  0  0  0  0
 29 75  1  0  0  0  0
 29 76  1  0  0  0  0
 29 77  1  0  0  0  0
 30 31  1  0  0  0  0
 30 78  1  0  0  0  0
 31 79  1  0  0  0  0
 31 80  1  0  0  0  0
 32 36  1  0  0  0  0
 32 81  1  0  0  0  0
 32 82  1  0  0  0  0
 33 83  1  0  0  0  0
 33 84  1  0  0  0  0
 33 88  1  0  0  0  0
 34 85  1  0  0  0  0
 34 86  1  0  0  0  0
 34 87  1  0  0  0  0
 35 89  1  0  0  0  0
 35 90  1  0  0  0  0
 35 91  1  0  0  0  0
 36 37  1  0  0  0  0
 36 92  1  0  0  0  0
 36 93  1  0  0  0  0
 37 38  1  0  0  0  0
 37 94  1  0  0  0  0
 38 41  1  0  0  0  0
 38 42  1  0  0  0  0
 39 43  1  0  0  0  0
 40 44  1  0  0  0  0
 41 98  1  0  0  0  0
 41 99  1  0  0  0  0
 41100  1  0  0  0  0
 42 95  1  0  0  0  0
 42 96  1  0  0  0  0
 42 97  1  0  0  0  0
 43101  1  0  0  0  0
 43102  1  0  0  0  0
 43103  1  0  0  0  0
 44 45  1  0  0  0  0
 44104  1  0  0  0  0
 44105  1  0  0  0  0
 46111  1  0  0  0  0
 46112  1  0  0  0  0
 46113  1  0  0  0  0
 47106  1  0  0  0  0
 47107  1  0  0  0  0
 47108  1  0  0  0  0
 48109  1  0  0  0  0
 48110  1  0  0  0  0
 48114  1  0  0  0  0
 49117  1  0  0  0  0
 49118  1  0  0  0  0
 49119  1  0  0  0  0
 50120  1  0  0  0  0
 50121  1  0  0  0  0
 50122  1  0  0  0  0
 51115  1  0  0  0  0
 51116  1  0  0  0  0
 51123  1  0  0  0  0
M  END
> <PUBCHEM_COMPOUND_CID>
583175

> <PUBCHEM_COMPOUND_CANONICALIZED>
1

> <PUBCHEM_CACTVS_COMPLEXITY>
1370

> <PUBCHEM_CACTVS_HBOND_ACCEPTOR>
8

> <PUBCHEM_CACTVS_HBOND_DONOR>
0

> <PUBCHEM_CACTVS_ROTATABLE_BOND>
12

> <PUBCHEM_CACTVS_SUBSKEYS>
AAADcfB8PAwAAAAAAAAAAAAAAAAAAaIAAAAwYMAAAAAAAGDAAAAAGhAAAEAAD1SggAJCCAAABAEIAACQCAAAAAAAAAAAAAEAAAABAAYIAAACAAAFIAACAAHA4PQPgAAAAAAAAADAAAYAADAAAQAACAAAAA==

> <PUBCHEM_IUPAC_OPENEYE_NAME>
O1-[12-acetoxy-4,4,8,10,14-pentamethyl-17-[2-methyl-5-(1-methyl-1-trimethylsilyloxy-ethyl)tetrahydrofuran-2-yl]-2,3,5,6,7,9,11,12,13,15,16,17-dodecahydro-1H-cyclopenta[a]phenanthren-3-yl] O3-trimethylsilyl propanedioate

> <PUBCHEM_IUPAC_CAS_NAME>
propanedioic acid O1-[12-acetyloxy-4,4,8,10,14-pentamethyl-17-[2-methyl-5-(2-trimethylsilyloxypropan-2-yl)-2-oxolanyl]-2,3,5,6,7,9,11,12,13,15,16,17-dodecahydro-1H-cyclopenta[a]phenanthren-3-yl] ester O3-trimethylsilyl ester

> <PUBCHEM_IUPAC_NAME>
1-O-[12-acetyloxy-4,4,8,10,14-pentamethyl-17-[2-methyl-5-(2-trimethylsilyloxypropan-2-yl)oxolan-2-yl]-2,3,5,6,7,9,11,12,13,15,16,17-dodecahydro-1H-cyclopenta[a]phenanthren-3-yl] 3-O-trimethylsilyl propanedioate

> <PUBCHEM_IUPAC_SYSTEMATIC_NAME>
O1-[12-acetyloxy-4,4,8,10,14-pentamethyl-17-[2-methyl-5-(2-trimethylsilyloxypropan-2-yl)oxolan-2-yl]-2,3,5,6,7,9,11,12,13,15,16,17-dodecahydro-1H-cyclopenta[a]phenanthren-3-yl] O3-trimethylsilyl propanedioate

> <PUBCHEM_IUPAC_TRADITIONAL_NAME>
malonic acid O1-[12-acetoxy-4,4,8,10,14-pentamethyl-17-[2-methyl-5-(1-methyl-1-trimethylsilyloxy-ethyl)tetrahydrofuran-2-yl]-2,3,5,6,7,9,11,12,13,15,16,17-dodecahydro-1H-cyclopenta[a]phenanthren-3-yl] ester O3-trimethylsilyl ester

> <PUBCHEM_IUPAC_INCHI>
InChI=1S/C41H72O8Si2/c1-26(42)45-28-24-30-38(6)20-18-31(46-33(43)25-34(44)48-50(10,11)12)36(2,3)29(38)17-22-39(30,7)40(8)21-16-27(35(28)40)41(9)23-19-32(47-41)37(4,5)49-51(13,14)15/h27-32,35H,16-25H2,1-15H3

> <PUBCHEM_IUPAC_INCHIKEY>
ZPZWYVOFMNMSQD-UHFFFAOYSA-N

> <PUBCHEM_EXACT_MASS>
748.476572

> <PUBCHEM_MOLECULAR_FORMULA>
C41H72O8Si2

> <PUBCHEM_MOLECULAR_WEIGHT>
749.17658

> <PUBCHEM_OPENEYE_CAN_SMILES>
CC(=O)OC1CC2C3(CCC(C(C3CCC2(C4(C1C(CC4)C5(CCC(O5)C(C)(C)O[Si](C)(C)C)C)C)C)(C)C)OC(=O)CC(=O)O[Si](C)(C)C)C

> <PUBCHEM_OPENEYE_ISO_SMILES>
CC(=O)OC1CC2C3(CCC(C(C3CCC2(C4(C1C(CC4)C5(CCC(O5)C(C)(C)O[Si](C)(C)C)C)C)C)(C)C)OC(=O)CC(=O)O[Si](C)(C)C)C

> <PUBCHEM_CACTVS_TPSA>
97.4

> <PUBCHEM_MONOISOTOPIC_WEIGHT>
748.476572

> <PUBCHEM_TOTAL_CHARGE>
0

> <PUBCHEM_HEAVY_ATOM_COUNT>
51

> <PUBCHEM_ATOM_DEF_STEREO_COUNT>
0

> <PUBCHEM_ATOM_UDEF_STEREO_COUNT>
11

> <PUBCHEM_BOND_DEF_STEREO_COUNT>
0

> <PUBCHEM_BOND_UDEF_STEREO_COUNT>
0

> <PUBCHEM_ISOTOPIC_ATOM_COUNT>
0

> <PUBCHEM_COMPONENT_COUNT>
1

> <PUBCHEM_CACTVS_TAUTO_COUNT>
1

> <PUBCHEM_COORDINATE_TYPE>
1
5
255

> <PUBCHEM_BONDANNOTATIONS>
11  26  3
12  27  3
13  19  3
14  20  3
15  29  3
16  22  3
17  23  3
28  35  3
20  3  3
37  38  3
30  5  3

$$$$

