10321
  -OEChem-07051212553D

 21 21  0     0  0  0  0  0  0999 V2000
   -0.5898   -2.5089   -0.0010 O   0  0  0  0  0  0  0  0  0  0  0  0
   -1.5477   -0.3383    0.0004 C   0  0  0  0  0  0  0  0  0  0  0  0
   -1.2980    1.0341    0.0008 C   0  0  0  0  0  0  0  0  0  0  0  0
   -2.8612   -0.8082   -0.0005 C   0  0  0  0  0  0  0  0  0  0  0  0
   -2.3614    1.9366    0.0004 C   0  0  0  0  0  0  0  0  0  0  0  0
   -3.9247    0.0945   -0.0010 C   0  0  0  0  0  0  0  0  0  0  0  0
   -3.6747    1.4668   -0.0006 C   0  0  0  0  0  0  0  0  0  0  0  0
   -0.4389   -1.2791    0.0006 C   0  0  0  0  0  0  0  0  0  0  0  0
    0.9353   -0.7892    0.0010 C   0  0  0  0  0  0  0  0  0  0  0  0
    2.0650   -0.3821    0.0010 C   0  0  0  0  0  0  0  0  0  0  0  0
    5.8577    0.9941   -0.0013 C   0  0  0  0  0  0  0  0  0  0  0  0
    3.3550    0.0851    0.0004 C   0  0  0  0  0  0  0  0  0  0  0  0
    4.4836    0.4946   -0.0003 C   0  0  0  0  0  0  0  0  0  0  0  0
   -0.2935    1.4459    0.0015 H   0  0  0  0  0  0  0  0  0  0  0  0
   -3.0793   -1.8729   -0.0009 H   0  0  0  0  0  0  0  0  0  0  0  0
   -2.1676    3.0054    0.0007 H   0  0  0  0  0  0  0  0  0  0  0  0
   -4.9475   -0.2710   -0.0017 H   0  0  0  0  0  0  0  0  0  0  0  0
   -4.5028    2.1695   -0.0010 H   0  0  0  0  0  0  0  0  0  0  0  0
    6.0895    1.4976    0.9420 H   0  0  0  0  0  0  0  0  0  0  0  0
    6.0111    1.7099   -0.8146 H   0  0  0  0  0  0  0  0  0  0  0  0
    6.5699    0.1739   -0.1323 H   0  0  0  0  0  0  0  0  0  0  0  0
  1  8  2  0  0  0  0
  2  3  2  0  0  0  0
  2  4  1  0  0  0  0
  2  8  1  0  0  0  0
  3  5  1  0  0  0  0
  3 14  1  0  0  0  0
  4  6  2  0  0  0  0
  4 15  1  0  0  0  0
  5  7  2  0  0  0  0
  5 16  1  0  0  0  0
  6  7  1  0  0  0  0
  6 17  1  0  0  0  0
  7 18  1  0  0  0  0
  8  9  1  0  0  0  0
  9 10  3  0  0  0  0
 10 12  1  0  0  0  0
 11 13  1  0  0  0  0
 11 19  1  0  0  0  0
 11 20  1  0  0  0  0
 11 21  1  0  0  0  0
 12 13  3  0  0  0  0
M  END
> <PUBCHEM_COMPOUND_CID>
10321

> <PUBCHEM_CONFORMER_RMSD>
0.4

> <PUBCHEM_CONFORMER_DIVERSEORDER>
1
2

> <PUBCHEM_MMFF94_PARTIAL_CHARGES>
16
1 -0.57
11 0.2
13 -0.2
14 0.15
15 0.15
16 0.15
17 0.15
18 0.15
2 0.09
3 -0.15
4 -0.15
5 -0.15
6 -0.15
7 -0.15
8 0.59
9 -0.1

> <PUBCHEM_EFFECTIVE_ROTOR_COUNT>
1

> <PUBCHEM_PHARMACOPHORE_FEATURES>
3
1 1 acceptor
1 11 hydrophobe
6 2 3 4 5 6 7 rings

> <PUBCHEM_HEAVY_ATOM_COUNT>
13

> <PUBCHEM_ATOM_DEF_STEREO_COUNT>
0

> <PUBCHEM_ATOM_UDEF_STEREO_COUNT>
0

> <PUBCHEM_BOND_DEF_STEREO_COUNT>
0

> <PUBCHEM_BOND_UDEF_STEREO_COUNT>
0

> <PUBCHEM_ISOTOPIC_ATOM_COUNT>
0

> <PUBCHEM_COMPONENT_COUNT>
1

> <PUBCHEM_CACTVS_TAUTO_COUNT>
1

> <PUBCHEM_CONFORMER_ID>
0000285100000001

> <PUBCHEM_MMFF94_ENERGY>
22.2553

> <PUBCHEM_FEATURE_SELFOVERLAP>
15.223

> <PUBCHEM_SHAPE_FINGERPRINT>
11132069 177 18272645787923716253
12346645 44 18340487867133822883
12390115 104 18116134723005144585
13214271 11 18411699876964348447
13897977 58 18342174445135702812
15501527 16 18408601448992128592
15775835 57 18341049708916960704
17834072 32 18410574015459503932
200 152 6194844778553906318
20300324 65 18186242818396514261
20510252 161 18334291002430338457
20645477 56 18409164390344766794
20645477 70 16805870880345336670
21524375 3 18411983589255224674
23402539 116 18335991886757245894
23402655 69 17895195536478057284
23557571 272 18114174181887152046
23559900 14 18259982708918586366
7364860 26 17975696409112998207

> <PUBCHEM_SHAPE_MULTIPOLES>
261.66
9.89
1.86
0.61
14.19
0.32
0
-4.93
0.01
-1.21
0
0
-0.02
0

> <PUBCHEM_SHAPE_SELFOVERLAP>
540.861

> <PUBCHEM_SHAPE_VOLUME>
148.1

> <PUBCHEM_COORDINATE_TYPE>
2
5
10

$$$$

