7275
  -OEChem-06261201582D

 28 30  0     1  0  0  0  0  0999 V2000
    7.3306    0.1830    0.0000 O   0  0  0  0  0  0  0  0  0  0  0  0
    3.3660   -1.6830    0.0000 O   0  0  0  0  0  0  0  0  0  0  0  0
    6.4641    0.6830    0.0000 C   0  0  3  0  0  0  0  0  0  0  0  0
    6.4641   -0.3170    0.0000 C   0  0  3  0  0  0  0  0  0  0  0  0
    4.7320   -0.3170    0.0000 C   0  0  3  0  0  0  0  0  0  0  0  0
    5.5981   -0.8170    0.0000 C   0  0  0  0  0  0  0  0  0  0  0  0
    3.8660   -0.8170    0.0000 C   0  0  3  0  0  0  0  0  0  0  0  0
    5.5981    1.1830    0.0000 C   0  0  0  0  0  0  0  0  0  0  0  0
    4.7320    0.6830    0.0000 C   0  0  0  0  0  0  0  0  0  0  0  0
    2.8660   -0.8170    0.0000 C   0  0  3  0  0  0  0  0  0  0  0  0
    6.4641    1.6830    0.0000 C   0  0  0  0  0  0  0  0  0  0  0  0
    2.0000   -0.3170    0.0000 C   0  0  0  0  0  0  0  0  0  0  0  0
    6.7740   -0.8540    0.0000 H   0  0  0  0  0  0  0  0  0  0  0  0
    4.7320   -0.9370    0.0000 H   0  0  0  0  0  0  0  0  0  0  0  0
    5.1996   -1.2919    0.0000 H   0  0  0  0  0  0  0  0  0  0  0  0
    5.9966   -1.2919    0.0000 H   0  0  0  0  0  0  0  0  0  0  0  0
    3.7056   -0.2181    0.0000 H   0  0  0  0  0  0  0  0  0  0  0  0
    5.9966    1.6580    0.0000 H   0  0  0  0  0  0  0  0  0  0  0  0
    5.1996    1.6580    0.0000 H   0  0  0  0  0  0  0  0  0  0  0  0
    4.5200    1.2656    0.0000 H   0  0  0  0  0  0  0  0  0  0  0  0
    4.1215    0.5754    0.0000 H   0  0  0  0  0  0  0  0  0  0  0  0
    2.4276   -1.2554    0.0000 H   0  0  0  0  0  0  0  0  0  0  0  0
    7.0841    1.6830    0.0000 H   0  0  0  0  0  0  0  0  0  0  0  0
    6.4641    2.3030    0.0000 H   0  0  0  0  0  0  0  0  0  0  0  0
    5.8441    1.6830    0.0000 H   0  0  0  0  0  0  0  0  0  0  0  0
    2.3100    0.2199    0.0000 H   0  0  0  0  0  0  0  0  0  0  0  0
    1.4631   -0.0070    0.0000 H   0  0  0  0  0  0  0  0  0  0  0  0
    1.6900   -0.8539    0.0000 H   0  0  0  0  0  0  0  0  0  0  0  0
  1  3  1  0  0  0  0
  1  4  1  0  0  0  0
  2  7  1  0  0  0  0
  2 10  1  0  0  0  0
  3  4  1  0  0  0  0
  3  8  1  0  0  0  0
  3 11  1  0  0  0  0
  4  6  1  0  0  0  0
  4 13  1  0  0  0  0
  5  6  1  0  0  0  0
  5  7  1  0  0  0  0
  5  9  1  0  0  0  0
  5 14  1  0  0  0  0
  6 15  1  0  0  0  0
  6 16  1  0  0  0  0
  7 10  1  0  0  0  0
  7 17  1  0  0  0  0
  8  9  1  0  0  0  0
  8 18  1  0  0  0  0
  8 19  1  0  0  0  0
  9 20  1  0  0  0  0
  9 21  1  0  0  0  0
 10 12  1  0  0  0  0
 10 22  1  0  0  0  0
 11 23  1  0  0  0  0
 11 24  1  0  0  0  0
 11 25  1  0  0  0  0
 12 26  1  0  0  0  0
 12 27  1  0  0  0  0
 12 28  1  0  0  0  0
M  END
> <PUBCHEM_COMPOUND_CID>
7275

> <PUBCHEM_COMPOUND_CANONICALIZED>
1

> <PUBCHEM_CACTVS_COMPLEXITY>
216

> <PUBCHEM_CACTVS_HBOND_ACCEPTOR>
2

> <PUBCHEM_CACTVS_HBOND_DONOR>
0

> <PUBCHEM_CACTVS_ROTATABLE_BOND>
1

> <PUBCHEM_CACTVS_SUBSKEYS>
AAADceBwMAAAAAAAAAAAAAAAEiQAAAAAAAAwAAAABIAAAAAAAAAAGgAAAAAADVSggAICAAAABAAAAAAAAAAAAAAAAAAAAAAAAAAAAAIAAAACAAAEAAAAAAHA4PwOAAAAAAAAAADAAAIAABAAAAAAAAAAAA==

> <PUBCHEM_IUPAC_OPENEYE_NAME>
6-methyl-3-(3-methyloxiran-2-yl)-7-oxabicyclo[4.1.0]heptane

> <PUBCHEM_IUPAC_CAS_NAME>
6-methyl-3-(3-methyl-2-oxiranyl)-7-oxabicyclo[4.1.0]heptane

> <PUBCHEM_IUPAC_NAME>
6-methyl-3-(3-methyloxiran-2-yl)-7-oxabicyclo[4.1.0]heptane

> <PUBCHEM_IUPAC_SYSTEMATIC_NAME>
6-methyl-3-(3-methyloxiran-2-yl)-7-oxabicyclo[4.1.0]heptane

> <PUBCHEM_IUPAC_TRADITIONAL_NAME>
6-methyl-3-(3-methyloxiran-2-yl)-7-oxabicyclo[4.1.0]heptane

> <PUBCHEM_IUPAC_INCHI>
InChI=1S/C10H16O2/c1-6-9(11-6)7-3-4-10(2)8(5-7)12-10/h6-9H,3-5H2,1-2H3

> <PUBCHEM_IUPAC_INCHIKEY>
YIEDFHHVUWKOEV-UHFFFAOYSA-N

> <PUBCHEM_XLOGP3_AA>
1.4

> <PUBCHEM_EXACT_MASS>
168.11503

> <PUBCHEM_MOLECULAR_FORMULA>
C10H16O2

> <PUBCHEM_MOLECULAR_WEIGHT>
168.23284

> <PUBCHEM_OPENEYE_CAN_SMILES>
CC1C(O1)C2CCC3(C(C2)O3)C

> <PUBCHEM_OPENEYE_ISO_SMILES>
CC1C(O1)C2CCC3(C(C2)O3)C

> <PUBCHEM_CACTVS_TPSA>
25.1

> <PUBCHEM_MONOISOTOPIC_WEIGHT>
168.11503

> <PUBCHEM_TOTAL_CHARGE>
0

> <PUBCHEM_HEAVY_ATOM_COUNT>
12

> <PUBCHEM_ATOM_DEF_STEREO_COUNT>
0

> <PUBCHEM_ATOM_UDEF_STEREO_COUNT>
5

> <PUBCHEM_BOND_DEF_STEREO_COUNT>
0

> <PUBCHEM_BOND_UDEF_STEREO_COUNT>
0

> <PUBCHEM_ISOTOPIC_ATOM_COUNT>
0

> <PUBCHEM_COMPONENT_COUNT>
1

> <PUBCHEM_CACTVS_TAUTO_COUNT>
1

> <PUBCHEM_COORDINATE_TYPE>
1
5
255

> <PUBCHEM_BONDANNOTATIONS>
10  12  3
7  2  3
3  11  3
4  6  3
5  6  3

$$$$

