227677
  -OEChem-07051213073D

 56 59  0     1  0  0  0  0  0999 V2000
    5.9890   -1.9639    0.5123 F   0  0  0  0  0  0  0  0  0  0  0  0
    3.1627    0.1578    1.9967 O   0  0  0  0  0  0  0  0  0  0  0  0
    0.1265   -1.8878   -1.7272 O   0  0  0  0  0  0  0  0  0  0  0  0
    5.4966    0.6004   -0.2364 O   0  0  0  0  0  0  0  0  0  0  0  0
   -5.8872   -0.9513    1.7099 O   0  0  0  0  0  0  0  0  0  0  0  0
    2.0352    0.0167   -0.1845 C   0  0  1  0  0  0  0  0  0  0  0  0
    1.0170    1.0997    0.2357 C   0  0  2  0  0  0  0  0  0  0  0  0
   -0.3525    0.9521   -0.4450 C   0  0  1  0  0  0  0  0  0  0  0  0
   -0.9602   -0.4389   -0.0578 C   0  0  2  0  0  0  0  0  0  0  0  0
    3.2715    0.5049    0.6193 C   0  0  1  0  0  0  0  0  0  0  0  0
    1.4537   -1.3497    0.2296 C   0  0  0  0  0  0  0  0  0  0  0  0
    0.0394   -1.6065   -0.3374 C   0  0  2  0  0  0  0  0  0  0  0  0
    1.7936    2.4021    0.0594 C   0  0  0  0  0  0  0  0  0  0  0  0
   -2.4237   -0.6273   -0.6226 C   0  0  1  0  0  0  0  0  0  0  0  0
    3.2357    2.0432    0.4737 C   0  0  0  0  0  0  0  0  0  0  0  0
   -1.2858    2.1036   -0.0308 C   0  0  0  0  0  0  0  0  0  0  0  0
   -2.7049    1.9431   -0.5922 C   0  0  1  0  0  0  0  0  0  0  0  0
    2.3617    0.0374   -1.7037 C   0  0  0  0  0  0  0  0  0  0  0  0
   -3.2575    0.5864   -0.1637 C   0  0  0  0  0  0  0  0  0  0  0  0
    4.5753   -0.0956    0.1871 C   0  0  0  0  0  0  0  0  0  0  0  0
   -2.4973   -0.7162   -2.1647 C   0  0  0  0  0  0  0  0  0  0  0  0
   -3.0052   -1.9354   -0.1046 C   0  0  0  0  0  0  0  0  0  0  0  0
   -3.5410    3.1718   -0.2077 C   0  0  0  0  0  0  0  0  0  0  0  0
   -4.3665    0.4575    0.5859 C   0  0  0  0  0  0  0  0  0  0  0  0
   -4.1063   -2.0543    0.6414 C   0  0  0  0  0  0  0  0  0  0  0  0
    4.6991   -1.5912    0.2950 C   0  0  0  0  0  0  0  0  0  0  0  0
   -4.8690   -0.8587    1.0324 C   0  0  0  0  0  0  0  0  0  0  0  0
    0.8320    1.0034    1.3185 H   0  0  0  0  0  0  0  0  0  0  0  0
   -0.2347    1.0172   -1.5304 H   0  0  0  0  0  0  0  0  0  0  0  0
   -1.0619   -0.4212    1.0411 H   0  0  0  0  0  0  0  0  0  0  0  0
    1.3895   -1.4185    1.3223 H   0  0  0  0  0  0  0  0  0  0  0  0
    2.1082   -2.1602   -0.1055 H   0  0  0  0  0  0  0  0  0  0  0  0
   -0.3273   -2.5224    0.1376 H   0  0  0  0  0  0  0  0  0  0  0  0
    1.3932    3.2085    0.6821 H   0  0  0  0  0  0  0  0  0  0  0  0
    1.7695    2.7424   -0.9822 H   0  0  0  0  0  0  0  0  0  0  0  0
    3.9204    2.4281   -0.2897 H   0  0  0  0  0  0  0  0  0  0  0  0
    3.4839    2.5420    1.4177 H   0  0  0  0  0  0  0  0  0  0  0  0
   -0.8669    3.0537   -0.3855 H   0  0  0  0  0  0  0  0  0  0  0  0
   -1.3272    2.1694    1.0652 H   0  0  0  0  0  0  0  0  0  0  0  0
   -2.6497    1.9547   -1.6880 H   0  0  0  0  0  0  0  0  0  0  0  0
    2.8454   -0.8939   -2.0167 H   0  0  0  0  0  0  0  0  0  0  0  0
    1.4933    0.1854   -2.3437 H   0  0  0  0  0  0  0  0  0  0  0  0
    3.0492    0.8495   -1.9662 H   0  0  0  0  0  0  0  0  0  0  0  0
   -2.1638   -1.6876   -2.5461 H   0  0  0  0  0  0  0  0  0  0  0  0
   -3.5317   -0.5965   -2.5139 H   0  0  0  0  0  0  0  0  0  0  0  0
   -1.9039    0.0547   -2.6646 H   0  0  0  0  0  0  0  0  0  0  0  0
   -2.4982   -2.8565   -0.3844 H   0  0  0  0  0  0  0  0  0  0  0  0
    3.8684    0.6163    2.4842 H   0  0  0  0  0  0  0  0  0  0  0  0
    0.0152   -1.0681   -2.2300 H   0  0  0  0  0  0  0  0  0  0  0  0
   -3.0829    4.0855   -0.6029 H   0  0  0  0  0  0  0  0  0  0  0  0
   -4.5514    3.1087   -0.6260 H   0  0  0  0  0  0  0  0  0  0  0  0
   -3.6198    3.2866    0.8790 H   0  0  0  0  0  0  0  0  0  0  0  0
   -4.9482    1.3095    0.9179 H   0  0  0  0  0  0  0  0  0  0  0  0
   -4.4683   -3.0232    0.9648 H   0  0  0  0  0  0  0  0  0  0  0  0
    4.3703   -2.0591   -0.6347 H   0  0  0  0  0  0  0  0  0  0  0  0
    4.1212   -1.9796    1.1351 H   0  0  0  0  0  0  0  0  0  0  0  0
  1 26  1  0  0  0  0
  2 10  1  0  0  0  0
  2 48  1  0  0  0  0
  3 12  1  0  0  0  0
  3 49  1  0  0  0  0
  4 20  2  0  0  0  0
  5 27  2  0  0  0  0
  6  7  1  0  0  0  0
  6 10  1  0  0  0  0
  6 11  1  0  0  0  0
  6 18  1  0  0  0  0
  7  8  1  0  0  0  0
  7 13  1  0  0  0  0
  7 28  1  0  0  0  0
  8  9  1  0  0  0  0
  8 16  1  0  0  0  0
  8 29  1  0  0  0  0
  9 12  1  0  0  0  0
  9 14  1  0  0  0  0
  9 30  1  0  0  0  0
 10 15  1  0  0  0  0
 10 20  1  0  0  0  0
 11 12  1  0  0  0  0
 11 31  1  0  0  0  0
 11 32  1  0  0  0  0
 12 33  1  0  0  0  0
 13 15  1  0  0  0  0
 13 34  1  0  0  0  0
 13 35  1  0  0  0  0
 14 19  1  0  0  0  0
 14 21  1  0  0  0  0
 14 22  1  0  0  0  0
 15 36  1  0  0  0  0
 15 37  1  0  0  0  0
 16 17  1  0  0  0  0
 16 38  1  0  0  0  0
 16 39  1  0  0  0  0
 17 19  1  0  0  0  0
 17 23  1  0  0  0  0
 17 40  1  0  0  0  0
 18 41  1  0  0  0  0
 18 42  1  0  0  0  0
 18 43  1  0  0  0  0
 19 24  2  0  0  0  0
 20 26  1  0  0  0  0
 21 44  1  0  0  0  0
 21 45  1  0  0  0  0
 21 46  1  0  0  0  0
 22 25  2  0  0  0  0
 22 47  1  0  0  0  0
 23 50  1  0  0  0  0
 23 51  1  0  0  0  0
 23 52  1  0  0  0  0
 24 27  1  0  0  0  0
 24 53  1  0  0  0  0
 25 27  1  0  0  0  0
 25 54  1  0  0  0  0
 26 55  1  0  0  0  0
 26 56  1  0  0  0  0
M  END
> <PUBCHEM_COMPOUND_CID>
227677

> <PUBCHEM_CONFORMER_RMSD>
0.8

> <PUBCHEM_CONFORMER_DIVERSEORDER>
1
2

> <PUBCHEM_MMFF94_PARTIAL_CHARGES>
21
1 -0.34
10 0.34
12 0.28
14 0.28
17 0.14
19 -0.28
2 -0.68
20 0.45
22 -0.29
24 -0.14
25 -0.14
26 0.4
27 0.54
3 -0.68
4 -0.57
47 0.15
48 0.4
49 0.4
5 -0.57
53 0.15
54 0.15

> <PUBCHEM_EFFECTIVE_ROTOR_COUNT>
3.4

> <PUBCHEM_PHARMACOPHORE_FEATURES>
10
1 2 acceptor
1 2 donor
1 3 acceptor
1 3 donor
1 4 acceptor
1 5 acceptor
5 6 7 10 13 15 rings
6 14 19 22 24 25 27 rings
6 6 7 8 9 11 12 rings
6 8 9 14 16 17 19 rings

> <PUBCHEM_HEAVY_ATOM_COUNT>
27

> <PUBCHEM_ATOM_DEF_STEREO_COUNT>
8

> <PUBCHEM_ATOM_UDEF_STEREO_COUNT>
0

> <PUBCHEM_BOND_DEF_STEREO_COUNT>
0

> <PUBCHEM_BOND_UDEF_STEREO_COUNT>
0

> <PUBCHEM_ISOTOPIC_ATOM_COUNT>
0

> <PUBCHEM_COMPONENT_COUNT>
1

> <PUBCHEM_CACTVS_TAUTO_COUNT>
6

> <PUBCHEM_CONFORMER_ID>
0003795D00000001

> <PUBCHEM_MMFF94_ENERGY>
94.0702

> <PUBCHEM_FEATURE_SELFOVERLAP>
50.842

> <PUBCHEM_SHAPE_FINGERPRINT>
10319926 262 18338529628672241624
12107183 9 17767977793411065560
12236239 1 17704351078562720020
12403259 226 18337961094829298873
12403259 415 18113623374144016648
12403814 3 18260832562497197029
12422481 6 18260541238722893123
12553582 1 18340216201804361529
12596602 18 17560799918313611368
12633257 1 17168141191867492153
13009979 54 18059847394052951964
13073987 5 18343304782149827336
13140716 1 18193270793932252099
13224815 77 18410579448597960005
13583140 156 17702690785591737101
13675066 3 18259991461275828656
13726171 33 18192684865809852260
14178342 30 18269549593408486101
14223421 5 18410569622081954437
14341114 176 18342735208671052818
14420673 8 18195527219373461402
14955137 171 18261103071826581440
15196674 1 18411422834430888296
15209289 33 18273215278874998051
15685185 35 16981785907481718476
15788980 27 18412548716740994030
16945 1 18411428284322186183
17349148 13 17676489432376547610
17492 89 18340773641467885370
17844677 252 18341608226791374904
1813 80 17418375757540768485
19591789 44 18410577275428884662
20261772 1 18261111833580782219
20739085 24 18267856207899324693
20775438 99 12170792524293588945
21033648 29 17822592576019625512
21267235 1 18412819196733419146
22182313 1 18041550472467735927
23559900 14 18339650030588434504
23845131 108 17689703587102155193
312423 11 17989197127532597981
335352 9 18337677528182260556
350125 39 18410569574220525376
392239 28 18270385119482840531
460360 51 17972582544985436318
465052 167 18341885260423755123
5104073 3 18410019866315741336
5265222 85 18261668195951216438
7097593 13 17843137049653387171

> <PUBCHEM_SHAPE_MULTIPOLES>
524.9
11.21
2.71
1.33
3.81
1.15
-0.29
-3.22
4.01
-1.11
-0.03
-0.53
-0.4
0.53

> <PUBCHEM_SHAPE_SELFOVERLAP>
1134.103

> <PUBCHEM_SHAPE_VOLUME>
289.3

> <PUBCHEM_COORDINATE_TYPE>
2
5
10

$$$$

