5282314
  -OEChem-07051213043D

 52 51  0     1  0  0  0  0  0999 V2000
    1.7535    1.4757   -0.7206 O   0  0  0  0  0  0  0  0  0  0  0  0
    4.3753    3.0005    1.1652 O   0  0  0  0  0  0  0  0  0  0  0  0
    2.7668    3.8985   -0.1684 O   0  0  0  0  0  0  0  0  0  0  0  0
   -2.3979   -1.2425   -0.2935 C   0  0  0  0  0  0  0  0  0  0  0  0
   -3.5658   -0.6291    0.4808 C   0  0  0  0  0  0  0  0  0  0  0  0
   -1.3562   -1.8394    0.6545 C   0  0  0  0  0  0  0  0  0  0  0  0
   -4.6245   -0.0606   -0.4667 C   0  0  0  0  0  0  0  0  0  0  0  0
   -0.2013   -2.4822   -0.1188 C   0  0  0  0  0  0  0  0  0  0  0  0
   -5.8076    0.5204    0.3108 C   0  0  0  0  0  0  0  0  0  0  0  0
    0.8508   -3.1139    0.7984 C   0  0  0  0  0  0  0  0  0  0  0  0
   -6.8834    1.1317   -0.5892 C   0  0  0  0  0  0  0  0  0  0  0  0
    3.6849   -0.7370   -1.0118 C   0  0  0  0  0  0  0  0  0  0  0  0
    3.4202   -1.6704    0.1742 C   0  0  0  0  0  0  0  0  0  0  0  0
    4.0498    0.7076   -0.6415 C   0  0  0  0  0  0  0  0  0  0  0  0
    1.9919   -3.7266    0.0388 C   0  0  0  0  0  0  0  0  0  0  0  0
    3.1363   -3.0853   -0.2398 C   0  0  0  0  0  0  0  0  0  0  0  0
    2.9346    1.4790    0.0686 C   0  0  1  0  0  0  0  0  0  0  0  0
   -8.0491    1.7337    0.1801 C   0  0  0  0  0  0  0  0  0  0  0  0
    3.3248    2.9214    0.3098 C   0  0  0  0  0  0  0  0  0  0  0  0
    0.5967    1.7186    0.0690 C   0  0  0  0  0  0  0  0  0  0  0  0
   -2.7735   -2.0247   -0.9643 H   0  0  0  0  0  0  0  0  0  0  0  0
   -1.9285   -0.4757   -0.9216 H   0  0  0  0  0  0  0  0  0  0  0  0
   -3.1940    0.1662    1.1382 H   0  0  0  0  0  0  0  0  0  0  0  0
   -4.0214   -1.3931    1.1226 H   0  0  0  0  0  0  0  0  0  0  0  0
   -0.9666   -1.0580    1.3173 H   0  0  0  0  0  0  0  0  0  0  0  0
   -1.8305   -2.5954    1.2921 H   0  0  0  0  0  0  0  0  0  0  0  0
   -4.9825   -0.8493   -1.1393 H   0  0  0  0  0  0  0  0  0  0  0  0
   -4.1765    0.7206   -1.0926 H   0  0  0  0  0  0  0  0  0  0  0  0
   -0.5987   -3.2479   -0.7974 H   0  0  0  0  0  0  0  0  0  0  0  0
    0.2739   -1.7186   -0.7479 H   0  0  0  0  0  0  0  0  0  0  0  0
   -6.2599   -0.2676    0.9258 H   0  0  0  0  0  0  0  0  0  0  0  0
   -5.4419    1.2901    1.0019 H   0  0  0  0  0  0  0  0  0  0  0  0
    0.3750   -3.9191    1.3743 H   0  0  0  0  0  0  0  0  0  0  0  0
    1.1834   -2.3991    1.5568 H   0  0  0  0  0  0  0  0  0  0  0  0
   -6.4332    1.9121   -1.2142 H   0  0  0  0  0  0  0  0  0  0  0  0
   -7.2672    0.3622   -1.2695 H   0  0  0  0  0  0  0  0  0  0  0  0
    4.5117   -1.1482   -1.6063 H   0  0  0  0  0  0  0  0  0  0  0  0
    2.8100   -0.7331   -1.6742 H   0  0  0  0  0  0  0  0  0  0  0  0
    2.6250   -1.2375    0.7817 H   0  0  0  0  0  0  0  0  0  0  0  0
    4.3112   -1.6860    0.8147 H   0  0  0  0  0  0  0  0  0  0  0  0
    4.3052    1.2318   -1.5720 H   0  0  0  0  0  0  0  0  0  0  0  0
    4.9584    0.7052   -0.0272 H   0  0  0  0  0  0  0  0  0  0  0  0
    1.8653   -4.7471   -0.3132 H   0  0  0  0  0  0  0  0  0  0  0  0
    3.9084   -3.6097   -0.7965 H   0  0  0  0  0  0  0  0  0  0  0  0
    2.7327    1.0200    1.0445 H   0  0  0  0  0  0  0  0  0  0  0  0
   -8.5480    0.9736    0.7895 H   0  0  0  0  0  0  0  0  0  0  0  0
   -8.7854    2.1538   -0.5120 H   0  0  0  0  0  0  0  0  0  0  0  0
   -7.7070    2.5351    0.8426 H   0  0  0  0  0  0  0  0  0  0  0  0
   -0.2733    1.7095   -0.5934 H   0  0  0  0  0  0  0  0  0  0  0  0
    0.6358    2.6910    0.5672 H   0  0  0  0  0  0  0  0  0  0  0  0
    0.4675    0.9246    0.8107 H   0  0  0  0  0  0  0  0  0  0  0  0
    4.6334    3.9300    1.3428 H   0  0  0  0  0  0  0  0  0  0  0  0
  1 17  1  0  0  0  0
  1 20  1  0  0  0  0
  2 19  1  0  0  0  0
  2 52  1  0  0  0  0
  3 19  2  0  0  0  0
  4  5  1  0  0  0  0
  4  6  1  0  0  0  0
  4 21  1  0  0  0  0
  4 22  1  0  0  0  0
  5  7  1  0  0  0  0
  5 23  1  0  0  0  0
  5 24  1  0  0  0  0
  6  8  1  0  0  0  0
  6 25  1  0  0  0  0
  6 26  1  0  0  0  0
  7  9  1  0  0  0  0
  7 27  1  0  0  0  0
  7 28  1  0  0  0  0
  8 10  1  0  0  0  0
  8 29  1  0  0  0  0
  8 30  1  0  0  0  0
  9 11  1  0  0  0  0
  9 31  1  0  0  0  0
  9 32  1  0  0  0  0
 10 15  1  0  0  0  0
 10 33  1  0  0  0  0
 10 34  1  0  0  0  0
 11 18  1  0  0  0  0
 11 35  1  0  0  0  0
 11 36  1  0  0  0  0
 12 13  1  0  0  0  0
 12 14  1  0  0  0  0
 12 37  1  0  0  0  0
 12 38  1  0  0  0  0
 13 16  1  0  0  0  0
 13 39  1  0  0  0  0
 13 40  1  0  0  0  0
 14 17  1  0  0  0  0
 14 41  1  0  0  0  0
 14 42  1  0  0  0  0
 15 16  2  0  0  0  0
 15 43  1  0  0  0  0
 16 44  1  0  0  0  0
 17 19  1  0  0  0  0
 17 45  1  0  0  0  0
 18 46  1  0  0  0  0
 18 47  1  0  0  0  0
 18 48  1  0  0  0  0
 20 49  1  0  0  0  0
 20 50  1  0  0  0  0
 20 51  1  0  0  0  0
M  END
> <PUBCHEM_COMPOUND_CID>
5282314

> <PUBCHEM_CONFORMER_RMSD>
1.2

> <PUBCHEM_CONFORMER_DIVERSEORDER>
3
4
8
60
20
67
28
29
114
71
82
111
21
103
32
78
63
122
62
80
31
11
22
53
75
43
76
121
110
56
48
23
9
10
42
57
58
96
104
79
70
41
5
30
105
51
27
40
108
106
86
18
7
87
83
14
50
74
102
107
47
13
109
16
91
124
68
17
25
99
35
69
65
15
44
89
94
77
123
37
118
98
95
97
55
92
116
39
64
45
26
119
46
59
24
81
61
34
66
6
73
113
112
85
117
115
38
19
2
33
120
49
93
101
52
36
72
54
1
100
12
90
88
84

> <PUBCHEM_MMFF94_PARTIAL_CHARGES>
13
1 -0.56
10 0.14
13 0.14
15 -0.29
16 -0.29
17 0.34
19 0.66
2 -0.65
20 0.28
3 -0.57
43 0.15
44 0.15
52 0.5

> <PUBCHEM_EFFECTIVE_ROTOR_COUNT>
14

> <PUBCHEM_PHARMACOPHORE_FEATURES>
6
1 1 acceptor
1 18 hydrophobe
1 2 acceptor
1 3 acceptor
3 2 3 19 anion
4 12 13 14 16 hydrophobe

> <PUBCHEM_HEAVY_ATOM_COUNT>
20

> <PUBCHEM_ATOM_DEF_STEREO_COUNT>
0

> <PUBCHEM_ATOM_UDEF_STEREO_COUNT>
1

> <PUBCHEM_BOND_DEF_STEREO_COUNT>
1

> <PUBCHEM_BOND_UDEF_STEREO_COUNT>
0

> <PUBCHEM_ISOTOPIC_ATOM_COUNT>
0

> <PUBCHEM_COMPONENT_COUNT>
1

> <PUBCHEM_CACTVS_TAUTO_COUNT>
1

> <PUBCHEM_CONFORMER_ID>
00509A0A00000003

> <PUBCHEM_MMFF94_ENERGY>
11.9469

> <PUBCHEM_FEATURE_SELFOVERLAP>
30.511

> <PUBCHEM_SHAPE_FINGERPRINT>
10411042 1 17834677471662052738
10638233 991 18262234534633859905
10675989 125 18408885122470381896
11370993 70 18121218675977574682
13533116 47 18409447029205218149
13878862 14 18200328718042869663
13944108 23 18341885333855197300
14251764 75 18266452114465672649
14464042 87 18042684082378847339
15322687 12 18410855464523674563
16120349 18 18339645659593686917
17093844 170 18339361864638485984
1768 85 18339630167018799163
17810953 82 18411983550473626235
18335252 114 18337956812820914119
20621476 13 18338514145141065626
20715895 44 18409453557280915954
21298829 104 18335138725953453961
21344244 78 17769112467979396650
21475661 188 18342738485736868002
22122407 14 18264757935188967065
3014063 31 18340485689474491247
5047190 2 18043519728554790473
5312510 48 18410854382634683011

> <PUBCHEM_SHAPE_MULTIPOLES>
393.98
15.5
5.04
0.87
40.86
0.58
-0.01
10.46
0.94
-8.2
-0.84
-0.29
0.05
0.76

> <PUBCHEM_SHAPE_SELFOVERLAP>
730.607

> <PUBCHEM_SHAPE_VOLUME>
246.8

> <PUBCHEM_COORDINATE_TYPE>
2
5
10

$$$$

