17395994
  -OEChem-06241222533D

 38 40  0     0  0  0  0  0  0999 V2000
    5.4550    2.4805   -0.7821 F   0  0  0  0  0  0  0  0  0  0  0  0
    3.5388    2.7579    0.1953 F   0  0  0  0  0  0  0  0  0  0  0  0
    5.2089    1.9134    1.3028 F   0  0  0  0  0  0  0  0  0  0  0  0
   -5.4551   -0.6681   -0.7788 O   0  0  0  0  0  0  0  0  0  0  0  0
    0.2725   -0.2904    1.9937 O   0  0  0  0  0  0  0  0  0  0  0  0
   -6.0818    2.8439   -0.2025 O   0  0  0  0  0  0  0  0  0  0  0  0
    0.5858   -2.0686    0.5739 N   0  0  0  0  0  0  0  0  0  0  0  0
   -4.1765    1.6370    0.2459 N   0  0  0  0  0  0  0  0  0  0  0  0
   -3.5081    0.4104    0.1767 C   0  0  0  0  0  0  0  0  0  0  0  0
   -1.5552   -0.9329    0.6297 C   0  0  0  0  0  0  0  0  0  0  0  0
    1.9632   -2.2919    0.9512 C   0  0  0  0  0  0  0  0  0  0  0  0
   -4.1612   -0.7069   -0.3409 C   0  0  0  0  0  0  0  0  0  0  0  0
    2.9145   -1.5055    0.0963 C   0  0  0  0  0  0  0  0  0  0  0  0
   -2.2054    0.3008    0.6672 C   0  0  0  0  0  0  0  0  0  0  0  0
   -0.1967   -1.0526    1.1345 C   0  0  0  0  0  0  0  0  0  0  0  0
   -2.2089   -2.0532    0.1157 C   0  0  0  0  0  0  0  0  0  0  0  0
   -3.5148   -1.9431   -0.3631 C   0  0  0  0  0  0  0  0  0  0  0  0
    3.2941   -0.2184    0.4766 C   0  0  0  0  0  0  0  0  0  0  0  0
   -5.9121    0.6260   -1.1220 C   0  0  0  0  0  0  0  0  0  0  0  0
    4.1787    0.5111   -0.3177 C   0  0  0  0  0  0  0  0  0  0  0  0
    3.4195   -2.0634   -1.0783 C   0  0  0  0  0  0  0  0  0  0  0  0
   -5.4285    1.8070   -0.2980 C   0  0  0  0  0  0  0  0  0  0  0  0
    4.6836   -0.0465   -1.4923 C   0  0  0  0  0  0  0  0  0  0  0  0
    4.3041   -1.3338   -1.8726 C   0  0  0  0  0  0  0  0  0  0  0  0
    4.5858    1.8873    0.0887 C   0  0  0  0  0  0  0  0  0  0  0  0
    2.1023   -2.0408    2.0093 H   0  0  0  0  0  0  0  0  0  0  0  0
    2.1590   -3.3658    0.8538 H   0  0  0  0  0  0  0  0  0  0  0  0
   -1.7046    1.1768    1.0730 H   0  0  0  0  0  0  0  0  0  0  0  0
    0.2266   -2.6365   -0.1861 H   0  0  0  0  0  0  0  0  0  0  0  0
   -1.7537   -3.0392    0.1049 H   0  0  0  0  0  0  0  0  0  0  0  0
   -4.0238   -2.8245   -0.7438 H   0  0  0  0  0  0  0  0  0  0  0  0
   -3.7297    2.4129    0.7252 H   0  0  0  0  0  0  0  0  0  0  0  0
    2.9082    0.2195    1.3936 H   0  0  0  0  0  0  0  0  0  0  0  0
   -5.6516    0.8202   -2.1697 H   0  0  0  0  0  0  0  0  0  0  0  0
   -7.0056    0.6065   -1.0559 H   0  0  0  0  0  0  0  0  0  0  0  0
    3.1301   -3.0646   -1.3864 H   0  0  0  0  0  0  0  0  0  0  0  0
    5.3736    0.5059   -2.1242 H   0  0  0  0  0  0  0  0  0  0  0  0
    4.6969   -1.7679   -2.7873 H   0  0  0  0  0  0  0  0  0  0  0  0
  1 25  1  0  0  0  0
  2 25  1  0  0  0  0
  3 25  1  0  0  0  0
  4 12  1  0  0  0  0
  4 19  1  0  0  0  0
  5 15  2  0  0  0  0
  6 22  2  0  0  0  0
  7 11  1  0  0  0  0
  7 15  1  0  0  0  0
  7 29  1  0  0  0  0
  8  9  1  0  0  0  0
  8 22  1  0  0  0  0
  8 32  1  0  0  0  0
  9 12  2  0  0  0  0
  9 14  1  0  0  0  0
 10 14  2  0  0  0  0
 10 15  1  0  0  0  0
 10 16  1  0  0  0  0
 11 13  1  0  0  0  0
 11 26  1  0  0  0  0
 11 27  1  0  0  0  0
 12 17  1  0  0  0  0
 13 18  2  0  0  0  0
 13 21  1  0  0  0  0
 14 28  1  0  0  0  0
 16 17  2  0  0  0  0
 16 30  1  0  0  0  0
 17 31  1  0  0  0  0
 18 20  1  0  0  0  0
 18 33  1  0  0  0  0
 19 22  1  0  0  0  0
 19 34  1  0  0  0  0
 19 35  1  0  0  0  0
 20 23  2  0  0  0  0
 20 25  1  0  0  0  0
 21 24  2  0  0  0  0
 21 36  1  0  0  0  0
 23 24  1  0  0  0  0
 23 37  1  0  0  0  0
 24 38  1  0  0  0  0
M  END
> <PUBCHEM_COMPOUND_CID>
17395994

> <PUBCHEM_CONFORMER_RMSD>
0.8

> <PUBCHEM_CONFORMER_DIVERSEORDER>
3
21
40
29
15
19
14
35
17
48
11
26
25
45
51
43
8
20
5
23
1
38
28
36
49
34
44
13
41
39
27
24
16
30
47
2
10
6
7
4
50
37
12
18
22
46
33
31
9
32
42

> <PUBCHEM_MMFF94_PARTIAL_CHARGES>
34
1 -0.34
10 0.09
11 0.44
12 0.08
13 -0.14
14 -0.15
15 0.54
16 -0.15
17 -0.15
18 -0.15
19 0.34
2 -0.34
20 -0.14
21 -0.15
22 0.57
23 -0.15
24 -0.15
25 1.16
28 0.15
29 0.37
3 -0.34
30 0.15
31 0.15
32 0.37
33 0.15
36 0.15
37 0.15
38 0.15
4 -0.36
5 -0.57
6 -0.57
7 -0.73
8 -0.55
9 0.12

> <PUBCHEM_EFFECTIVE_ROTOR_COUNT>
5.6

> <PUBCHEM_PHARMACOPHORE_FEATURES>
8
1 4 acceptor
1 5 acceptor
1 6 acceptor
1 7 donor
1 8 donor
6 13 18 20 21 23 24 rings
6 4 8 9 12 19 22 rings
6 9 10 12 14 16 17 rings

> <PUBCHEM_HEAVY_ATOM_COUNT>
25

> <PUBCHEM_ATOM_DEF_STEREO_COUNT>
0

> <PUBCHEM_ATOM_UDEF_STEREO_COUNT>
0

> <PUBCHEM_BOND_DEF_STEREO_COUNT>
0

> <PUBCHEM_BOND_UDEF_STEREO_COUNT>
0

> <PUBCHEM_ISOTOPIC_ATOM_COUNT>
0

> <PUBCHEM_COMPONENT_COUNT>
1

> <PUBCHEM_CACTVS_TAUTO_COUNT>
4

> <PUBCHEM_CONFORMER_ID>
0109711A00000003

> <PUBCHEM_MMFF94_ENERGY>
62.652

> <PUBCHEM_FEATURE_SELFOVERLAP>
40.628

> <PUBCHEM_SHAPE_FINGERPRINT>
10319926 262 11023838296380154555
10498660 4 18411695482980793538
11069576 57 16082198774929971374
11089746 13 18342177808095413886
11796584 16 5833696934584555087
12633257 1 15913046457080066150
12670546 177 18187361038749247094
12839892 36 11815889077050432745
13690498 29 17751086812782345399
1420 369 7637395224917524231
14251740 57 9367341544335988288
14251764 30 9870932189658656984
14251764 38 18127404553849112036
14528608 73 18411701010704001711
14790565 3 18122061172805566105
14848178 5 7204482300021296201
14848178 96 18343014480714720740
14931854 50 18188477026599726764
15183329 4 18187926226770694849
15188451 53 8285908035315063079
15210252 30 17703213071417747556
15348495 7 11024108746186301391
15510800 12 6194547927267645029
16989378 47 16155362447953813262
17349148 13 5328739690961859199
17959699 21 18410855464465587147
1813 80 5039949641611136834
18222031 100 5400799462089381058
1979834 28 12319462112247181192
20715895 44 18411986870937137416
21033648 29 17845921970925201194
21774942 28 18261677064673969664
21792934 111 9727359069953374711
21968339 14 18113617889939809962
22289505 5 18334289873513263932
22393880 68 18409162208296243446
23559900 14 18042125517266112986
25122255 55 5256102671876948365
25222932 49 5905765502422083022
2838139 119 18200318839517692493
3004659 81 17968660539860075278
3117164 225 10447387431049612599
312425 54 10375872995950251053
316301 35 8430328905030273844
3472631 163 18410856603101282791
34797466 226 18186798076337997143
3680242 22 16988850479546547716
44317340 157 18334286595999549443
474 4 17489581255715998247
5104073 3 17846781827678337035
53794403 172 18129650886190977148
543368 44 18342742910349267813
6898599 12 18409173191060155399
7970288 3 7853317314391611444
960060 61 16950002543071785306

> <PUBCHEM_SHAPE_MULTIPOLES>
465.1
15.57
2.97
1.34
7.42
1.28
0.07
10.28
5.53
-1.21
-0.07
-1.17
-0.28
0.82

> <PUBCHEM_SHAPE_SELFOVERLAP>
1016.425

> <PUBCHEM_SHAPE_VOLUME>
252.1

> <PUBCHEM_COORDINATE_TYPE>
2
5
10

$$$$

