46173724
  -OEChem-07051212493D

 66 70  0     1  0  0  0  0  0999 V2000
   -2.3234   -0.8800    0.5175 O   0  0  0  0  0  0  0  0  0  0  0  0
    1.0333   -2.2141   -0.1062 O   0  0  0  0  0  0  0  0  0  0  0  0
   -2.4468    0.2099   -1.5439 O   0  0  0  0  0  0  0  0  0  0  0  0
    0.1961   -0.0834   -0.5626 O   0  0  0  0  0  0  0  0  0  0  0  0
   -2.7601   -3.7469    0.2779 O   0  0  0  0  0  0  0  0  0  0  0  0
   -0.5252   -5.2182    1.3209 O   0  0  0  0  0  0  0  0  0  0  0  0
   -5.0388   -0.1629    1.0208 O   0  0  0  0  0  0  0  0  0  0  0  0
   -5.8039    2.2598   -0.3513 O   0  0  0  0  0  0  0  0  0  0  0  0
   -5.0939    2.0892   -3.2081 O   0  0  0  0  0  0  0  0  0  0  0  0
    3.3310   -3.5616    0.5399 O   0  0  0  0  0  0  0  0  0  0  0  0
    2.9339    2.0494    0.6792 O   0  0  0  0  0  0  0  0  0  0  0  0
    2.3473   -0.8005   -2.1738 O   0  0  0  0  0  0  0  0  0  0  0  0
   -1.3570   -1.8036    0.0183 C   0  0  2  0  0  0  0  0  0  0  0  0
   -1.5517   -3.1386    0.7374 C   0  0  2  0  0  0  0  0  0  0  0  0
   -0.3909   -4.0930    0.4566 C   0  0  1  0  0  0  0  0  0  0  0  0
    0.9524   -3.3977    0.6899 C   0  0  1  0  0  0  0  0  0  0  0  0
    0.0479   -1.2472    0.2497 C   0  0  1  0  0  0  0  0  0  0  0  0
   -3.1989   -0.4350   -0.5177 C   0  0  2  0  0  0  0  0  0  0  0  0
   -4.2016    0.5393    0.1024 C   0  0  1  0  0  0  0  0  0  0  0  0
   -5.0893    1.1844   -0.9616 C   0  0  2  0  0  0  0  0  0  0  0  0
   -4.2518    1.7218   -2.1214 C   0  0  1  0  0  0  0  0  0  0  0  0
    2.1346   -4.2814    0.3043 C   0  0  0  0  0  0  0  0  0  0  0  0
   -3.2724    0.6641   -2.6106 C   0  0  0  0  0  0  0  0  0  0  0  0
    1.4401    0.4887   -0.4065 C   0  0  0  0  0  0  0  0  0  0  0  0
    1.7047    1.4307    0.5168 C   0  0  0  0  0  0  0  0  0  0  0  0
    2.5278    0.0524   -1.3150 C   0  0  0  0  0  0  0  0  0  0  0  0
    3.8344    0.7017   -1.1278 C   0  0  0  0  0  0  0  0  0  0  0  0
    0.6825    1.9279    1.4545 C   0  0  0  0  0  0  0  0  0  0  0  0
    3.9689    1.6712   -0.1365 C   0  0  0  0  0  0  0  0  0  0  0  0
    4.9251    0.3563   -1.9296 C   0  0  0  0  0  0  0  0  0  0  0  0
    5.1972    2.3032    0.0592 C   0  0  0  0  0  0  0  0  0  0  0  0
   -0.4738    2.5369    0.9671 C   0  0  0  0  0  0  0  0  0  0  0  0
    0.8712    1.7894    2.8296 C   0  0  0  0  0  0  0  0  0  0  0  0
    6.1527    0.9896   -1.7317 C   0  0  0  0  0  0  0  0  0  0  0  0
    6.2888    1.9612   -0.7394 C   0  0  0  0  0  0  0  0  0  0  0  0
   -1.4415    3.0076    1.8548 C   0  0  0  0  0  0  0  0  0  0  0  0
   -0.0963    2.2600    3.7173 C   0  0  0  0  0  0  0  0  0  0  0  0
   -1.2527    2.8691    3.2298 C   0  0  0  0  0  0  0  0  0  0  0  0
   -1.4924   -1.9770   -1.0593 H   0  0  0  0  0  0  0  0  0  0  0  0
   -1.6795   -2.9818    1.8151 H   0  0  0  0  0  0  0  0  0  0  0  0
   -0.4573   -4.4618   -0.5741 H   0  0  0  0  0  0  0  0  0  0  0  0
    1.0709   -3.1162    1.7452 H   0  0  0  0  0  0  0  0  0  0  0  0
    0.1653   -0.9656    1.3053 H   0  0  0  0  0  0  0  0  0  0  0  0
   -3.7208   -1.3106   -0.9276 H   0  0  0  0  0  0  0  0  0  0  0  0
   -3.6781    1.3075    0.6817 H   0  0  0  0  0  0  0  0  0  0  0  0
   -5.8471    0.4806   -1.3256 H   0  0  0  0  0  0  0  0  0  0  0  0
   -3.7104    2.6192   -1.7976 H   0  0  0  0  0  0  0  0  0  0  0  0
    2.1546   -5.2025    0.8945 H   0  0  0  0  0  0  0  0  0  0  0  0
    2.1014   -4.5339   -0.7608 H   0  0  0  0  0  0  0  0  0  0  0  0
   -2.6229    1.0847   -3.3862 H   0  0  0  0  0  0  0  0  0  0  0  0
   -3.7909   -0.1859   -3.0722 H   0  0  0  0  0  0  0  0  0  0  0  0
   -2.6824   -3.8874   -0.6811 H   0  0  0  0  0  0  0  0  0  0  0  0
   -0.4272   -4.9069    2.2369 H   0  0  0  0  0  0  0  0  0  0  0  0
   -5.4948   -0.8695    0.5326 H   0  0  0  0  0  0  0  0  0  0  0  0
   -5.1561    2.9119   -0.0340 H   0  0  0  0  0  0  0  0  0  0  0  0
   -4.5256    2.4391   -3.9154 H   0  0  0  0  0  0  0  0  0  0  0  0
    4.0693   -4.1397    0.2825 H   0  0  0  0  0  0  0  0  0  0  0  0
    4.8386   -0.3974   -2.7071 H   0  0  0  0  0  0  0  0  0  0  0  0
    5.3118    3.0608    0.8297 H   0  0  0  0  0  0  0  0  0  0  0  0
   -0.6383    2.6600   -0.1007 H   0  0  0  0  0  0  0  0  0  0  0  0
    1.7654    1.3142    3.2257 H   0  0  0  0  0  0  0  0  0  0  0  0
    7.0048    0.7256   -2.3517 H   0  0  0  0  0  0  0  0  0  0  0  0
    7.2460    2.4518   -0.5886 H   0  0  0  0  0  0  0  0  0  0  0  0
   -2.3412    3.4830    1.4752 H   0  0  0  0  0  0  0  0  0  0  0  0
    0.0501    2.1515    4.7879 H   0  0  0  0  0  0  0  0  0  0  0  0
   -2.0062    3.2354    3.9209 H   0  0  0  0  0  0  0  0  0  0  0  0
  1 13  1  0  0  0  0
  1 18  1  0  0  0  0
  2 16  1  0  0  0  0
  2 17  1  0  0  0  0
  3 18  1  0  0  0  0
  3 23  1  0  0  0  0
  4 17  1  0  0  0  0
  4 24  1  0  0  0  0
  5 14  1  0  0  0  0
  5 52  1  0  0  0  0
  6 15  1  0  0  0  0
  6 53  1  0  0  0  0
  7 19  1  0  0  0  0
  7 54  1  0  0  0  0
  8 20  1  0  0  0  0
  8 55  1  0  0  0  0
  9 21  1  0  0  0  0
  9 56  1  0  0  0  0
 10 22  1  0  0  0  0
 10 57  1  0  0  0  0
 11 25  1  0  0  0  0
 11 29  1  0  0  0  0
 12 26  2  0  0  0  0
 13 14  1  0  0  0  0
 13 17  1  0  0  0  0
 13 39  1  0  0  0  0
 14 15  1  0  0  0  0
 14 40  1  0  0  0  0
 15 16  1  0  0  0  0
 15 41  1  0  0  0  0
 16 22  1  0  0  0  0
 16 42  1  0  0  0  0
 17 43  1  0  0  0  0
 18 19  1  0  0  0  0
 18 44  1  0  0  0  0
 19 20  1  0  0  0  0
 19 45  1  0  0  0  0
 20 21  1  0  0  0  0
 20 46  1  0  0  0  0
 21 23  1  0  0  0  0
 21 47  1  0  0  0  0
 22 48  1  0  0  0  0
 22 49  1  0  0  0  0
 23 50  1  0  0  0  0
 23 51  1  0  0  0  0
 24 25  2  0  0  0  0
 24 26  1  0  0  0  0
 25 28  1  0  0  0  0
 26 27  1  0  0  0  0
 27 29  1  0  0  0  0
 27 30  2  0  0  0  0
 28 32  2  0  0  0  0
 28 33  1  0  0  0  0
 29 31  2  0  0  0  0
 30 34  1  0  0  0  0
 30 58  1  0  0  0  0
 31 35  1  0  0  0  0
 31 59  1  0  0  0  0
 32 36  1  0  0  0  0
 32 60  1  0  0  0  0
 33 37  2  0  0  0  0
 33 61  1  0  0  0  0
 34 35  2  0  0  0  0
 34 62  1  0  0  0  0
 35 63  1  0  0  0  0
 36 38  2  0  0  0  0
 36 64  1  0  0  0  0
 37 38  1  0  0  0  0
 37 65  1  0  0  0  0
 38 66  1  0  0  0  0
M  END
> <PUBCHEM_COMPOUND_CID>
46173724

> <PUBCHEM_CONFORMER_RMSD>
1

> <PUBCHEM_CONFORMER_DIVERSEORDER>
1
39
20
44
36
28
25
37
34
31
27
35
33
38
43
40
32
12
5
21
17
26
41
42
11
15
24
14
18
19
2
22
6
29
10
13
7
23
8
4
3
9
16
30

> <PUBCHEM_MMFF94_PARTIAL_CHARGES>
53
1 -0.56
10 -0.68
11 -0.16
12 -0.57
13 0.28
14 0.28
15 0.28
16 0.28
17 0.56
18 0.56
19 0.28
2 -0.56
20 0.28
21 0.28
22 0.28
23 0.28
24 0.09
25 0.05
26 0.47
27 0.09
28 0.03
29 0.08
3 -0.56
30 -0.15
31 -0.15
32 -0.15
33 -0.15
34 -0.15
35 -0.15
36 -0.15
37 -0.15
38 -0.15
4 -0.36
5 -0.68
52 0.4
53 0.4
54 0.4
55 0.4
56 0.4
57 0.4
58 0.15
59 0.15
6 -0.68
60 0.15
61 0.15
62 0.15
63 0.15
64 0.15
65 0.15
66 0.15
7 -0.68
8 -0.68
9 -0.68

> <PUBCHEM_EFFECTIVE_ROTOR_COUNT>
8.4

> <PUBCHEM_PHARMACOPHORE_FEATURES>
23
1 1 acceptor
1 10 acceptor
1 10 donor
1 11 acceptor
1 12 acceptor
1 2 acceptor
1 3 acceptor
1 4 acceptor
1 5 acceptor
1 5 donor
1 6 acceptor
1 6 donor
1 7 acceptor
1 7 donor
1 8 acceptor
1 8 donor
1 9 acceptor
1 9 donor
6 11 24 25 26 27 29 rings
6 2 13 14 15 16 17 rings
6 27 29 30 31 34 35 rings
6 28 32 33 36 37 38 rings
6 3 18 19 20 21 23 rings

> <PUBCHEM_HEAVY_ATOM_COUNT>
38

> <PUBCHEM_ATOM_DEF_STEREO_COUNT>
8

> <PUBCHEM_ATOM_UDEF_STEREO_COUNT>
1

> <PUBCHEM_BOND_DEF_STEREO_COUNT>
0

> <PUBCHEM_BOND_UDEF_STEREO_COUNT>
0

> <PUBCHEM_ISOTOPIC_ATOM_COUNT>
0

> <PUBCHEM_COMPONENT_COUNT>
1

> <PUBCHEM_CACTVS_TAUTO_COUNT>
1

> <PUBCHEM_CONFORMER_ID>
02C08E1C00000001

> <PUBCHEM_MMFF94_ENERGY>
122.2401

> <PUBCHEM_FEATURE_SELFOVERLAP>
116.866

> <PUBCHEM_SHAPE_FINGERPRINT>
10165383 225 18341322319803832809
105312 117 18202008694025744868
10675989 125 18267585895442110180
1100329 8 17831551526339899126
11297750 10 17614281065773947394
11763715 3 17316792037280793519
1200032 147 17631177570570692941
12293681 160 18259700116290289792
12355185 1 17895202121011218114
12403259 226 17542777612880555466
12422481 6 17417267514729951550
12788726 201 17749664215895897472
140371 6 18044348588317628012
14068700 675 17685806878293929898
14114206 34 18040720307251824825
14279260 333 17968363659098821038
14400156 260 17533211114895879081
14400156 266 17756431826567123510
14725015 67 17760372089225322914
15230672 131 18202285802176574262
15324884 4 17258791317442393843
15351339 4 18335699481083589923
15775530 1 17179413183296527888
17138139 8 17895483621183005448
19319366 153 18337396049464496423
21033648 29 18341057311131069652
21796203 349 16752913108714968338
23558518 356 18044623535149354776
44802255 64 17917131820403053502
469060 322 18057859434349473249
50150288 127 17025411543003630177
508706 21 18194969526069477415
513532 50 16806759237562314169
5252454 2 18411990161129843575
5265222 85 17984404258364189076
7226269 152 18260823753361368328

> <PUBCHEM_SHAPE_MULTIPOLES>
711.59
11.03
5.53
2.86
4.06
8.04
-0.6
-8.06
9.14
-0.54
-3.98
-1.8
-2.89
0.9

> <PUBCHEM_SHAPE_SELFOVERLAP>
1548.064

> <PUBCHEM_SHAPE_VOLUME>
380.6

> <PUBCHEM_COORDINATE_TYPE>
2
5
10

$$$$

