440172
  -OEChem-07051212492D

 29 29  0     1  0  0  0  0  0999 V2000
    5.1350   -1.2500    0.0000 O   0  0  0  0  0  0  0  0  0  0  0  0
    2.5369    0.2500    0.0000 O   0  0  0  0  0  0  0  0  0  0  0  0
    2.5369   -1.7500    0.0000 O   0  0  0  0  0  0  0  0  0  0  0  0
    5.1350   -3.2500    0.0000 O   0  0  0  0  0  0  0  0  0  0  0  0
    6.0010    0.2500    0.0000 O   0  0  0  0  0  0  0  0  0  0  0  0
    6.0010    1.2500    0.0000 O   0  0  0  0  0  0  0  0  0  0  0  0
    6.0010    3.2500    0.0000 O   0  0  0  0  0  0  0  0  0  0  0  0
    4.2690    1.2500    0.0000 N   0  0  0  0  0  0  0  0  0  0  0  0
    3.4030   -0.2500    0.0000 C   0  0  1  0  0  0  0  0  0  0  0  0
    3.4030   -1.2500    0.0000 C   0  0  1  0  0  0  0  0  0  0  0  0
    4.2690    0.2500    0.0000 C   0  0  1  0  0  0  0  0  0  0  0  0
    4.2690   -1.7500    0.0000 C   0  0  1  0  0  0  0  0  0  0  0  0
    5.1350   -0.2500    0.0000 C   0  0  0  0  0  0  0  0  0  0  0  0
    4.2690   -2.7500    0.0000 C   0  0  0  0  0  0  0  0  0  0  0  0
    5.1350    1.7500    0.0000 C   0  0  0  0  0  0  0  0  0  0  0  0
    5.1350    2.7500    0.0000 C   0  0  0  0  0  0  0  0  0  0  0  0
    3.4030    0.3700    0.0000 H   0  0  0  0  0  0  0  0  0  0  0  0
    3.4030   -1.8700    0.0000 H   0  0  0  0  0  0  0  0  0  0  0  0
    4.8059    0.5600    0.0000 H   0  0  0  0  0  0  0  0  0  0  0  0
    4.8059   -2.0600    0.0000 H   0  0  0  0  0  0  0  0  0  0  0  0
    3.6584   -2.6423    0.0000 H   0  0  0  0  0  0  0  0  0  0  0  0
    4.0569   -3.3326    0.0000 H   0  0  0  0  0  0  0  0  0  0  0  0
    3.7320    1.5600    0.0000 H   0  0  0  0  0  0  0  0  0  0  0  0
    2.0000   -0.0600    0.0000 H   0  0  0  0  0  0  0  0  0  0  0  0
    2.5369   -2.3700    0.0000 H   0  0  0  0  0  0  0  0  0  0  0  0
    5.1350   -3.8700    0.0000 H   0  0  0  0  0  0  0  0  0  0  0  0
    4.9230    3.3326    0.0000 H   0  0  0  0  0  0  0  0  0  0  0  0
    4.5244    2.6423    0.0000 H   0  0  0  0  0  0  0  0  0  0  0  0
    6.0010    3.8700    0.0000 H   0  0  0  0  0  0  0  0  0  0  0  0
  1 12  1  0  0  0  0
  1 13  1  0  0  0  0
  9  2  1  6  0  0  0
  2 24  1  0  0  0  0
 10  3  1  1  0  0  0
  3 25  1  0  0  0  0
  4 14  1  0  0  0  0
  4 26  1  0  0  0  0
  5 13  2  0  0  0  0
  6 15  2  0  0  0  0
  7 16  1  0  0  0  0
  7 29  1  0  0  0  0
 11  8  1  6  0  0  0
  8 15  1  0  0  0  0
  8 23  1  0  0  0  0
  9 10  1  0  0  0  0
  9 11  1  0  0  0  0
  9 17  1  0  0  0  0
 10 12  1  0  0  0  0
 10 18  1  0  0  0  0
 11 13  1  0  0  0  0
 11 19  1  0  0  0  0
 12 14  1  6  0  0  0
 12 20  1  0  0  0  0
 14 21  1  0  0  0  0
 14 22  1  0  0  0  0
 15 16  1  0  0  0  0
 16 27  1  0  0  0  0
 16 28  1  0  0  0  0
M  END
> <PUBCHEM_COMPOUND_CID>
440172

> <PUBCHEM_COMPOUND_CANONICALIZED>
1

> <PUBCHEM_CACTVS_COMPLEXITY>
282

> <PUBCHEM_CACTVS_HBOND_ACCEPTOR>
7

> <PUBCHEM_CACTVS_HBOND_DONOR>
5

> <PUBCHEM_CACTVS_ROTATABLE_BOND>
3

> <PUBCHEM_CACTVS_SUBSKEYS>
AAADccByOAAAAAAAAAAAAAAAAAAAAAAAAAAkAAAAAAAAAAAAAAAAHgAQCAAACDzhgAYACALABgAIAAGQGAIAAAAAAAAAAIHIAAADEBYAgCAHQAAHNgCTAAH6XANAAAAAAAAAAAAAAAAAAAAAAAAAAAAAAA==

> <PUBCHEM_IUPAC_OPENEYE_NAME>
N-[(3S,4R,5S,6R)-4,5-dihydroxy-6-(hydroxymethyl)-2-oxo-tetrahydropyran-3-yl]-2-hydroxy-acetamide

> <PUBCHEM_IUPAC_CAS_NAME>
N-[(3S,4R,5S,6R)-4,5-dihydroxy-6-(hydroxymethyl)-2-oxo-3-oxanyl]-2-hydroxyacetamide

> <PUBCHEM_IUPAC_NAME>
N-[(3S,4R,5S,6R)-4,5-dihydroxy-6-(hydroxymethyl)-2-oxooxan-3-yl]-2-hydroxyacetamide

> <PUBCHEM_IUPAC_SYSTEMATIC_NAME>
N-[(3S,4R,5S,6R)-6-(hydroxymethyl)-4,5-bis(oxidanyl)-2-oxidanylidene-oxan-3-yl]-2-oxidanyl-ethanamide

> <PUBCHEM_IUPAC_TRADITIONAL_NAME>
N-[(3S,4R,5S,6R)-4,5-dihydroxy-2-keto-6-methylol-tetrahydropyran-3-yl]-2-hydroxy-acetamide

> <PUBCHEM_IUPAC_INCHI>
InChI=1S/C8H13NO7/c10-1-3-6(13)7(14)5(8(15)16-3)9-4(12)2-11/h3,5-7,10-11,13-14H,1-2H2,(H,9,12)/t3-,5+,6-,7-/m1/s1

> <PUBCHEM_IUPAC_INCHIKEY>
HGKMWYVYIMDKCV-VYNVVFCLSA-N

> <PUBCHEM_XLOGP3_AA>
-2.7

> <PUBCHEM_EXACT_MASS>
235.069202

> <PUBCHEM_MOLECULAR_FORMULA>
C8H13NO7

> <PUBCHEM_MOLECULAR_WEIGHT>
235.19132

> <PUBCHEM_OPENEYE_CAN_SMILES>
C(C1C(C(C(C(=O)O1)NC(=O)CO)O)O)O

> <PUBCHEM_OPENEYE_ISO_SMILES>
C([C@@H]1[C@H]([C@@H]([C@@H](C(=O)O1)NC(=O)CO)O)O)O

> <PUBCHEM_CACTVS_TPSA>
136

> <PUBCHEM_MONOISOTOPIC_WEIGHT>
235.069202

> <PUBCHEM_TOTAL_CHARGE>
0

> <PUBCHEM_HEAVY_ATOM_COUNT>
16

> <PUBCHEM_ATOM_DEF_STEREO_COUNT>
4

> <PUBCHEM_ATOM_UDEF_STEREO_COUNT>
0

> <PUBCHEM_BOND_DEF_STEREO_COUNT>
0

> <PUBCHEM_BOND_UDEF_STEREO_COUNT>
0

> <PUBCHEM_ISOTOPIC_ATOM_COUNT>
0

> <PUBCHEM_COMPONENT_COUNT>
1

> <PUBCHEM_CACTVS_TAUTO_COUNT>
4

> <PUBCHEM_COORDINATE_TYPE>
1
5
255

> <PUBCHEM_BONDANNOTATIONS>
12  14  6
9  2  6
10  3  5
11  8  6

$$$$

