442147
  -OEChem-07051212573D

 38 42  0     1  0  0  0  0  0999 V2000
   -2.0629    0.0360    1.3828 O   0  0  0  0  0  0  0  0  0  0  0  0
   -1.2649   -2.5445    0.9585 O   0  0  0  0  0  0  0  0  0  0  0  0
    1.8030   -1.2706    0.0197 O   0  0  0  0  0  0  0  0  0  0  0  0
   -1.4220    1.9442   -1.7125 O   0  0  0  0  0  0  0  0  0  0  0  0
    4.1037   -1.3209    0.0274 O   0  0  0  0  0  0  0  0  0  0  0  0
   -1.6392    0.2737    0.0193 C   0  0  2  0  0  0  0  0  0  0  0  0
   -0.9255   -2.0546   -0.3370 C   0  0  2  0  0  0  0  0  0  0  0  0
   -2.8091   -0.6469    0.3781 C   0  0  1  0  0  0  0  0  0  0  0  0
   -0.4805   -0.5988   -0.4614 C   0  0  2  0  0  0  0  0  0  0  0  0
   -2.3620   -2.0916    0.1465 C   0  0  2  0  0  0  0  0  0  0  0  0
   -1.6755    1.7462   -0.3210 C   0  0  1  0  0  0  0  0  0  0  0  0
    0.8063   -0.2635    0.2852 C   0  0  2  0  0  0  0  0  0  0  0  0
   -0.4030   -3.0821   -1.2649 C   0  0  0  0  0  0  0  0  0  0  0  0
    1.4159    1.0314   -0.2377 C   0  0  1  0  0  0  0  0  0  0  0  0
   -0.6541    2.5199    0.5471 C   0  0  0  0  0  0  0  0  0  0  0  0
    0.8589    2.3440    0.3204 C   0  0  0  0  0  0  0  0  0  0  0  0
   -3.0713    2.3516   -0.0908 C   0  0  0  0  0  0  0  0  0  0  0  0
    2.8591    0.7522    0.0354 C   0  0  0  0  0  0  0  0  0  0  0  0
    3.0486   -0.7138    0.0379 C   0  0  0  0  0  0  0  0  0  0  0  0
    3.8745    1.5880    0.2669 C   0  0  0  0  0  0  0  0  0  0  0  0
   -3.8252   -0.3510    0.1719 H   0  0  0  0  0  0  0  0  0  0  0  0
   -0.3415   -0.4301   -1.5370 H   0  0  0  0  0  0  0  0  0  0  0  0
   -3.0482   -2.8167   -0.2647 H   0  0  0  0  0  0  0  0  0  0  0  0
    0.6446   -0.2410    1.3711 H   0  0  0  0  0  0  0  0  0  0  0  0
   -0.5586   -2.7770   -2.3046 H   0  0  0  0  0  0  0  0  0  0  0  0
    0.6673   -3.2476   -1.1157 H   0  0  0  0  0  0  0  0  0  0  0  0
   -0.9051   -4.0460   -1.1259 H   0  0  0  0  0  0  0  0  0  0  0  0
    1.3317    1.0590   -1.3328 H   0  0  0  0  0  0  0  0  0  0  0  0
   -0.8554    2.3007    1.6048 H   0  0  0  0  0  0  0  0  0  0  0  0
   -0.8480    3.5962    0.4360 H   0  0  0  0  0  0  0  0  0  0  0  0
    1.1860    3.1467   -0.3559 H   0  0  0  0  0  0  0  0  0  0  0  0
    1.3469    2.5722    1.2781 H   0  0  0  0  0  0  0  0  0  0  0  0
   -3.0893    3.4099   -0.3775 H   0  0  0  0  0  0  0  0  0  0  0  0
   -3.8218    1.8565   -0.7179 H   0  0  0  0  0  0  0  0  0  0  0  0
   -3.3897    2.2753    0.9540 H   0  0  0  0  0  0  0  0  0  0  0  0
   -0.4750    1.8364   -1.8852 H   0  0  0  0  0  0  0  0  0  0  0  0
    3.7270    2.6624    0.2647 H   0  0  0  0  0  0  0  0  0  0  0  0
    4.8789    1.2264    0.4600 H   0  0  0  0  0  0  0  0  0  0  0  0
  1  6  1  0  0  0  0
  1  8  1  0  0  0  0
  2  7  1  0  0  0  0
  2 10  1  0  0  0  0
  3 12  1  0  0  0  0
  3 19  1  0  0  0  0
  4 11  1  0  0  0  0
  4 36  1  0  0  0  0
  5 19  2  0  0  0  0
  6  8  1  0  0  0  0
  6  9  1  0  0  0  0
  6 11  1  0  0  0  0
  7  9  1  0  0  0  0
  7 10  1  0  0  0  0
  7 13  1  0  0  0  0
  8 10  1  0  0  0  0
  8 21  1  0  0  0  0
  9 12  1  0  0  0  0
  9 22  1  0  0  0  0
 10 23  1  0  0  0  0
 11 15  1  0  0  0  0
 11 17  1  0  0  0  0
 12 14  1  0  0  0  0
 12 24  1  0  0  0  0
 13 25  1  0  0  0  0
 13 26  1  0  0  0  0
 13 27  1  0  0  0  0
 14 16  1  0  0  0  0
 14 18  1  0  0  0  0
 14 28  1  0  0  0  0
 15 16  1  0  0  0  0
 15 29  1  0  0  0  0
 15 30  1  0  0  0  0
 16 31  1  0  0  0  0
 16 32  1  0  0  0  0
 17 33  1  0  0  0  0
 17 34  1  0  0  0  0
 17 35  1  0  0  0  0
 18 19  1  0  0  0  0
 18 20  2  0  0  0  0
 20 37  1  0  0  0  0
 20 38  1  0  0  0  0
M  END
> <PUBCHEM_COMPOUND_CID>
442147

> <PUBCHEM_CONFORMER_RMSD>
0.6

> <PUBCHEM_CONFORMER_DIVERSEORDER>
1

> <PUBCHEM_MMFF94_PARTIAL_CHARGES>
22
1 -0.3
10 0.05
11 0.38
12 0.28
13 0.09
14 0.14
18 -0.12
19 0.71
2 -0.3
20 -0.3
21 0.1
23 0.1
3 -0.43
36 0.4
37 0.15
38 0.15
4 -0.68
5 -0.57
6 -0.04
7 -0.04
8 0.05
9 0.19

> <PUBCHEM_EFFECTIVE_ROTOR_COUNT>
1.2

> <PUBCHEM_PHARMACOPHORE_FEATURES>
8
1 1 acceptor
1 2 acceptor
1 4 acceptor
1 4 donor
1 5 acceptor
5 3 12 14 18 19 rings
7 1 2 6 7 8 9 10 rings
7 6 9 11 12 14 15 16 rings

> <PUBCHEM_HEAVY_ATOM_COUNT>
20

> <PUBCHEM_ATOM_DEF_STEREO_COUNT>
8

> <PUBCHEM_ATOM_UDEF_STEREO_COUNT>
0

> <PUBCHEM_BOND_DEF_STEREO_COUNT>
0

> <PUBCHEM_BOND_UDEF_STEREO_COUNT>
0

> <PUBCHEM_ISOTOPIC_ATOM_COUNT>
0

> <PUBCHEM_COMPONENT_COUNT>
1

> <PUBCHEM_CACTVS_TAUTO_COUNT>
1

> <PUBCHEM_CONFORMER_ID>
0006BF2300000001

> <PUBCHEM_MMFF94_ENERGY>
71.2277

> <PUBCHEM_FEATURE_SELFOVERLAP>
40.64

> <PUBCHEM_SHAPE_FINGERPRINT>
10863032 1 18410856589757639529
10948715 1 18267586999433464433
10967382 1 17977383059859679616
1100329 8 16030978300326881512
11132069 177 18192434061214824320
11578080 2 17025172721557827177
12011746 2 18336543820304175685
12173636 292 18337392750407717861
12382932 28 18335699399690057944
12553582 1 17977667507154537534
12730499 353 17695918005168063157
13027679 85 18192149287566365945
13140716 1 18266457783558506200
13380535 76 18194122047622877951
14081887 123 18115883910021383032
14223421 5 18264773160320620616
14790565 3 16756612424134661661
15309172 13 18263354940306969985
16945 1 18266172825410797393
17357779 13 18195265325025429509
19591789 44 18338796835683295715
19868273 325 18197782098213889425
20510252 161 18334856121300163201
21296965 12 18057044824902325645
21524375 3 18196376033532822839
22721475 48 18267019453616869744
23184049 59 18338499868954662579
2334 1 18410012151984706176
23388829 49 17327459121014625823
23557571 272 18334565812171810532
23559900 14 18262805198364459850
238 59 17408844301867465373
25 1 17978517751623047877
2748010 2 18337950194270509676
335352 9 18194401315181623036
34934 24 18266747874302740482
352729 6 18264768929440191376
427121 178 16014881171065805611
6443956 14 17401495840604747559
6992083 37 17974273340408077643
81228 2 18199197199965342809
8809292 202 18339640143963979336
90525 40 18337107964137354606
9709674 26 18334575767737126134

> <PUBCHEM_SHAPE_MULTIPOLES>
382.24
5.23
3.48
0.96
4.81
0.37
0.15
-0.26
-0.56
-1.61
0.48
-0.46
0.04
0.35

> <PUBCHEM_SHAPE_SELFOVERLAP>
844.021

> <PUBCHEM_SHAPE_VOLUME>
207.1

> <PUBCHEM_COORDINATE_TYPE>
2
5
10

$$$$

