24848419
  -OEChem-07051213032D

 54 57  0     1  0  0  0  0  0999 V2000
    9.7942   -3.4330    0.0000 F   0  0  0  0  0  0  0  0  0  0  0  0
    6.3301   -0.4330    0.0000 O   0  0  0  0  0  0  0  0  0  0  0  0
    4.5981   -0.4330    0.0000 O   0  0  0  0  0  0  0  0  0  0  0  0
    2.0000    1.0670    0.0000 O   0  5  0  0  0  0  0  0  0  0  0  0
    2.8660   -0.4330    0.0000 O   0  0  0  0  0  0  0  0  0  0  0  0
    9.7942    2.5670    0.0000 N   0  0  0  0  0  0  0  0  0  0  0  0
    8.0622    2.5670    0.0000 C   0  0  0  0  0  0  0  0  0  0  0  0
    7.5622    3.4330    0.0000 C   0  0  0  0  0  0  0  0  0  0  0  0
    7.0622    2.5670    0.0000 C   0  0  0  0  0  0  0  0  0  0  0  0
    8.9282    2.0670    0.0000 C   0  0  0  0  0  0  0  0  0  0  0  0
    8.9282    1.0670    0.0000 C   0  0  0  0  0  0  0  0  0  0  0  0
    9.7942    0.5670    0.0000 C   0  0  0  0  0  0  0  0  0  0  0  0
   10.6603    2.0670    0.0000 C   0  0  0  0  0  0  0  0  0  0  0  0
   10.6603    1.0670    0.0000 C   0  0  0  0  0  0  0  0  0  0  0  0
    8.0622    0.5670    0.0000 C   0  0  0  0  0  0  0  0  0  0  0  0
    9.7942   -0.4330    0.0000 C   0  0  0  0  0  0  0  0  0  0  0  0
    7.1962    1.0670    0.0000 C   0  0  0  0  0  0  0  0  0  0  0  0
    6.3301    0.5670    0.0000 C   0  0  2  0  0  0  0  0  0  0  0  0
   11.5542    2.6016    0.0000 C   0  0  0  0  0  0  0  0  0  0  0  0
   11.5542    0.5323    0.0000 C   0  0  0  0  0  0  0  0  0  0  0  0
    5.4641    1.0670    0.0000 C   0  0  0  0  0  0  0  0  0  0  0  0
    4.5981    0.5670    0.0000 C   0  0  2  0  0  0  0  0  0  0  0  0
   12.4603    1.0462    0.0000 C   0  0  0  0  0  0  0  0  0  0  0  0
   12.4603    2.0878    0.0000 C   0  0  0  0  0  0  0  0  0  0  0  0
   10.6603   -0.9330    0.0000 C   0  0  0  0  0  0  0  0  0  0  0  0
    8.9282   -0.9330    0.0000 C   0  0  0  0  0  0  0  0  0  0  0  0
    3.7320    1.0670    0.0000 C   0  0  0  0  0  0  0  0  0  0  0  0
   10.6603   -1.9330    0.0000 C   0  0  0  0  0  0  0  0  0  0  0  0
    8.9282   -1.9330    0.0000 C   0  0  0  0  0  0  0  0  0  0  0  0
    9.7942   -2.4330    0.0000 C   0  0  0  0  0  0  0  0  0  0  0  0
    2.8660    0.5670    0.0000 C   0  0  0  0  0  0  0  0  0  0  0  0
    7.9017    1.9681    0.0000 H   0  0  0  0  0  0  0  0  0  0  0  0
    6.4796    2.7790    0.0000 H   0  0  0  0  0  0  0  0  0  0  0  0
    6.9545    1.9564    0.0000 H   0  0  0  0  0  0  0  0  0  0  0  0
    8.0371    3.8315    0.0000 H   0  0  0  0  0  0  0  0  0  0  0  0
    7.0872    3.8315    0.0000 H   0  0  0  0  0  0  0  0  0  0  0  0
    8.0622   -0.0530    0.0000 H   0  0  0  0  0  0  0  0  0  0  0  0
    7.1962    1.6870    0.0000 H   0  0  0  0  0  0  0  0  0  0  0  0
    6.8671    0.2570    0.0000 H   0  0  0  0  0  0  0  0  0  0  0  0
   11.5470   -0.0876    0.0000 H   0  0  0  0  0  0  0  0  0  0  0  0
   11.5470    3.2216    0.0000 H   0  0  0  0  0  0  0  0  0  0  0  0
    5.8626    1.5419    0.0000 H   0  0  0  0  0  0  0  0  0  0  0  0
    5.0656    1.5419    0.0000 H   0  0  0  0  0  0  0  0  0  0  0  0
    5.1350    0.2570    0.0000 H   0  0  0  0  0  0  0  0  0  0  0  0
   12.9960    0.7341    0.0000 H   0  0  0  0  0  0  0  0  0  0  0  0
   12.9960    2.3999    0.0000 H   0  0  0  0  0  0  0  0  0  0  0  0
   11.1972   -0.6230    0.0000 H   0  0  0  0  0  0  0  0  0  0  0  0
    8.3913   -0.6230    0.0000 H   0  0  0  0  0  0  0  0  0  0  0  0
    4.1306    1.5419    0.0000 H   0  0  0  0  0  0  0  0  0  0  0  0
    3.3335    1.5419    0.0000 H   0  0  0  0  0  0  0  0  0  0  0  0
   11.1972   -2.2430    0.0000 H   0  0  0  0  0  0  0  0  0  0  0  0
    8.3913   -2.2430    0.0000 H   0  0  0  0  0  0  0  0  0  0  0  0
    5.7932   -0.7430    0.0000 H   0  0  0  0  0  0  0  0  0  0  0  0
    4.0611   -0.7430    0.0000 H   0  0  0  0  0  0  0  0  0  0  0  0
  1 30  1  0  0  0  0
 18  2  1  1  0  0  0
  2 53  1  0  0  0  0
 22  3  1  1  0  0  0
  3 54  1  0  0  0  0
  4 31  1  0  0  0  0
  5 31  2  0  0  0  0
  6 10  2  0  0  0  0
  6 13  1  0  0  0  0
  7  8  1  0  0  0  0
  7  9  1  0  0  0  0
  7 10  1  0  0  0  0
  7 32  1  0  0  0  0
  8  9  1  0  0  0  0
  8 35  1  0  0  0  0
  8 36  1  0  0  0  0
  9 33  1  0  0  0  0
  9 34  1  0  0  0  0
 10 11  1  0  0  0  0
 11 12  2  0  0  0  0
 11 15  1  0  0  0  0
 12 14  1  0  0  0  0
 12 16  1  0  0  0  0
 13 14  1  0  0  0  0
 13 19  2  0  0  0  0
 14 20  2  0  0  0  0
 15 17  2  0  0  0  0
 15 37  1  0  0  0  0
 16 25  2  0  0  0  0
 16 26  1  0  0  0  0
 17 18  1  0  0  0  0
 17 38  1  0  0  0  0
 18 21  1  0  0  0  0
 18 39  1  0  0  0  0
 19 24  1  0  0  0  0
 19 41  1  0  0  0  0
 20 23  1  0  0  0  0
 20 40  1  0  0  0  0
 21 22  1  0  0  0  0
 21 42  1  0  0  0  0
 21 43  1  0  0  0  0
 22 27  1  0  0  0  0
 22 44  1  0  0  0  0
 23 24  2  0  0  0  0
 23 45  1  0  0  0  0
 24 46  1  0  0  0  0
 25 28  1  0  0  0  0
 25 47  1  0  0  0  0
 26 29  2  0  0  0  0
 26 48  1  0  0  0  0
 27 31  1  0  0  0  0
 27 49  1  0  0  0  0
 27 50  1  0  0  0  0
 28 30  2  0  0  0  0
 28 51  1  0  0  0  0
 29 30  1  0  0  0  0
 29 52  1  0  0  0  0
M  CHG  1   4  -1
M  END
> <PUBCHEM_COMPOUND_CID>
24848419

> <PUBCHEM_COMPOUND_CANONICALIZED>
1

> <PUBCHEM_CACTVS_COMPLEXITY>
626

> <PUBCHEM_CACTVS_HBOND_ACCEPTOR>
6

> <PUBCHEM_CACTVS_HBOND_DONOR>
2

> <PUBCHEM_CACTVS_ROTATABLE_BOND>
7

> <PUBCHEM_CACTVS_SUBSKEYS>
AAADceB6OQAAAAAAAAAAAAAAGAAAAAAAAAA8YIAAAAAAAACx9AAAHwAACAAADRyhngowyPIIEgCoAyTyTACCgCAhAiAImCEwZJgINPbAkZGEcAhloADI2AeY7MROgAAAAAACAAAAAAAAAAQAAAAAAAAAAA==

> <PUBCHEM_IUPAC_OPENEYE_NAME>
(E,3R,5S)-7-[2-cyclopropyl-4-(4-fluorophenyl)-3-quinolyl]-3,5-dihydroxy-hept-6-enoate

> <PUBCHEM_IUPAC_CAS_NAME>
(E,3R,5S)-7-[2-cyclopropyl-4-(4-fluorophenyl)-3-quinolinyl]-3,5-dihydroxy-6-heptenoate

> <PUBCHEM_IUPAC_NAME>
(E,3R,5S)-7-[2-cyclopropyl-4-(4-fluorophenyl)quinolin-3-yl]-3,5-dihydroxyhept-6-enoate

> <PUBCHEM_IUPAC_SYSTEMATIC_NAME>
(E,3R,5S)-7-[2-cyclopropyl-4-(4-fluorophenyl)quinolin-3-yl]-3,5-bis(oxidanyl)hept-6-enoate

> <PUBCHEM_IUPAC_TRADITIONAL_NAME>
(E,3R,5S)-7-[2-cyclopropyl-4-(4-fluorophenyl)-3-quinolyl]-3,5-dihydroxy-hept-6-enoate

> <PUBCHEM_IUPAC_INCHI>
InChI=1S/C25H24FNO4/c26-17-9-7-15(8-10-17)24-20-3-1-2-4-22(20)27-25(16-5-6-16)21(24)12-11-18(28)13-19(29)14-23(30)31/h1-4,7-12,16,18-19,28-29H,5-6,13-14H2,(H,30,31)/p-1/b12-11+/t18-,19-/m1/s1

> <PUBCHEM_IUPAC_INCHIKEY>
VGYFMXBACGZSIL-MCBHFWOFSA-M

> <PUBCHEM_XLOGP3_AA>
4.2

> <PUBCHEM_EXACT_MASS>
420.161111

> <PUBCHEM_MOLECULAR_FORMULA>
C25H23FNO4-

> <PUBCHEM_MOLECULAR_WEIGHT>
420.452823

> <PUBCHEM_OPENEYE_CAN_SMILES>
C1CC1C2=NC3=CC=CC=C3C(=C2C=CC(CC(CC(=O)[O-])O)O)C4=CC=C(C=C4)F

> <PUBCHEM_OPENEYE_ISO_SMILES>
C1CC1C2=NC3=CC=CC=C3C(=C2/C=C/[C@H](C[C@H](CC(=O)[O-])O)O)C4=CC=C(C=C4)F

> <PUBCHEM_CACTVS_TPSA>
93.5

> <PUBCHEM_MONOISOTOPIC_WEIGHT>
420.161111

> <PUBCHEM_TOTAL_CHARGE>
-1

> <PUBCHEM_HEAVY_ATOM_COUNT>
31

> <PUBCHEM_ATOM_DEF_STEREO_COUNT>
2

> <PUBCHEM_ATOM_UDEF_STEREO_COUNT>
0

> <PUBCHEM_BOND_DEF_STEREO_COUNT>
1

> <PUBCHEM_BOND_UDEF_STEREO_COUNT>
0

> <PUBCHEM_ISOTOPIC_ATOM_COUNT>
0

> <PUBCHEM_COMPONENT_COUNT>
1

> <PUBCHEM_CACTVS_TAUTO_COUNT>
1

> <PUBCHEM_COORDINATE_TYPE>
1
5
255

> <PUBCHEM_BONDANNOTATIONS>
10  11  8
11  12  8
12  14  8
13  14  8
13  19  8
14  20  8
16  25  8
16  26  8
19  24  8
18  2  5
20  23  8
23  24  8
25  28  8
26  29  8
28  30  8
29  30  8
22  3  5
6  10  8
6  13  8

$$$$

