7847021
  -OEChem-06241222483D

 44 46  0     0  0  0  0  0  0999 V2000
   -1.4458    1.7378    1.8388 S   0  0  0  0  0  0  0  0  0  0  0  0
    1.6667   -0.8021    2.5431 S   0  0  0  0  0  0  0  0  0  0  0  0
   -2.6323   -1.3182   -0.7858 O   0  0  0  0  0  0  0  0  0  0  0  0
   -3.8471   -2.2002    0.9658 O   0  0  0  0  0  0  0  0  0  0  0  0
   -0.0959   -2.0885   -2.4207 O   0  0  0  0  0  0  0  0  0  0  0  0
   -2.0788    1.6376   -0.6595 N   0  0  0  0  0  0  0  0  0  0  0  0
    0.4012   -1.6148   -0.1712 N   0  0  0  0  0  0  0  0  0  0  0  0
   -3.9412    1.0961    0.8698 C   0  0  0  0  0  0  0  0  0  0  0  0
   -4.4499   -0.0575   -0.0147 C   0  0  0  0  0  0  0  0  0  0  0  0
   -2.5473    1.4783    0.5563 C   0  0  0  0  0  0  0  0  0  0  0  0
   -0.2107    2.1002    0.6916 C   0  0  0  0  0  0  0  0  0  0  0  0
   -0.7395    1.9945   -0.5983 C   0  0  0  0  0  0  0  0  0  0  0  0
   -3.6361   -1.3221    0.1408 C   0  0  0  0  0  0  0  0  0  0  0  0
    1.1298    2.4525    0.9168 C   0  0  0  0  0  0  0  0  0  0  0  0
    0.1051    2.2511   -1.7000 C   0  0  0  0  0  0  0  0  0  0  0  0
    1.7373   -1.1518   -0.2260 C   0  0  0  0  0  0  0  0  0  0  0  0
    1.9442    2.7013   -0.1908 C   0  0  0  0  0  0  0  0  0  0  0  0
    1.4406    2.6023   -1.4831 C   0  0  0  0  0  0  0  0  0  0  0  0
   -1.7676   -2.4585   -0.7626 C   0  0  0  0  0  0  0  0  0  0  0  0
    2.4240   -0.7554    0.9217 C   0  0  0  0  0  0  0  0  0  0  0  0
   -0.3915   -2.0374   -1.2307 C   0  0  0  0  0  0  0  0  0  0  0  0
    2.3676   -1.0985   -1.4692 C   0  0  0  0  0  0  0  0  0  0  0  0
    3.7411   -0.3058    0.8258 C   0  0  0  0  0  0  0  0  0  0  0  0
    3.6845   -0.6488   -1.5648 C   0  0  0  0  0  0  0  0  0  0  0  0
    4.3712   -0.2524   -0.4174 C   0  0  0  0  0  0  0  0  0  0  0  0
    2.7701   -1.9399    3.4244 C   0  0  0  0  0  0  0  0  0  0  0  0
   -4.5912    1.9666    0.7216 H   0  0  0  0  0  0  0  0  0  0  0  0
   -4.0453    0.7974    1.9203 H   0  0  0  0  0  0  0  0  0  0  0  0
   -4.4669    0.2318   -1.0729 H   0  0  0  0  0  0  0  0  0  0  0  0
   -5.4873   -0.2966    0.2478 H   0  0  0  0  0  0  0  0  0  0  0  0
    1.5288    2.5386    1.9228 H   0  0  0  0  0  0  0  0  0  0  0  0
   -0.2774    2.1748   -2.7138 H   0  0  0  0  0  0  0  0  0  0  0  0
   -2.1587   -3.2092   -1.4574 H   0  0  0  0  0  0  0  0  0  0  0  0
   -1.6960   -2.9112    0.2332 H   0  0  0  0  0  0  0  0  0  0  0  0
    2.9842    2.9772   -0.0385 H   0  0  0  0  0  0  0  0  0  0  0  0
    2.0896    2.7979   -2.3324 H   0  0  0  0  0  0  0  0  0  0  0  0
   -0.0078   -1.6246    0.7606 H   0  0  0  0  0  0  0  0  0  0  0  0
    1.9152   -1.3826   -2.4073 H   0  0  0  0  0  0  0  0  0  0  0  0
    4.2959    0.0194    1.7023 H   0  0  0  0  0  0  0  0  0  0  0  0
    4.1761   -0.6048   -2.5325 H   0  0  0  0  0  0  0  0  0  0  0  0
    5.3954    0.1011   -0.4926 H   0  0  0  0  0  0  0  0  0  0  0  0
    2.3539   -2.1458    4.4141 H   0  0  0  0  0  0  0  0  0  0  0  0
    3.7623   -1.5000    3.5524 H   0  0  0  0  0  0  0  0  0  0  0  0
    2.8575   -2.8840    2.8799 H   0  0  0  0  0  0  0  0  0  0  0  0
  1 10  1  0  0  0  0
  1 11  1  0  0  0  0
  2 20  1  0  0  0  0
  2 26  1  0  0  0  0
  3 13  1  0  0  0  0
  3 19  1  0  0  0  0
  4 13  2  0  0  0  0
  5 21  2  0  0  0  0
  6 10  2  0  0  0  0
  6 12  1  0  0  0  0
  7 16  1  0  0  0  0
  7 21  1  0  0  0  0
  7 37  1  0  0  0  0
  8  9  1  0  0  0  0
  8 10  1  0  0  0  0
  8 27  1  0  0  0  0
  8 28  1  0  0  0  0
  9 13  1  0  0  0  0
  9 29  1  0  0  0  0
  9 30  1  0  0  0  0
 11 12  1  0  0  0  0
 11 14  2  0  0  0  0
 12 15  2  0  0  0  0
 14 17  1  0  0  0  0
 14 31  1  0  0  0  0
 15 18  1  0  0  0  0
 15 32  1  0  0  0  0
 16 20  1  0  0  0  0
 16 22  2  0  0  0  0
 17 18  2  0  0  0  0
 17 35  1  0  0  0  0
 18 36  1  0  0  0  0
 19 21  1  0  0  0  0
 19 33  1  0  0  0  0
 19 34  1  0  0  0  0
 20 23  2  0  0  0  0
 22 24  1  0  0  0  0
 22 38  1  0  0  0  0
 23 25  1  0  0  0  0
 23 39  1  0  0  0  0
 24 25  2  0  0  0  0
 24 40  1  0  0  0  0
 25 41  1  0  0  0  0
 26 42  1  0  0  0  0
 26 43  1  0  0  0  0
 26 44  1  0  0  0  0
M  END
> <PUBCHEM_COMPOUND_CID>
7847021

> <PUBCHEM_CONFORMER_RMSD>
1

> <PUBCHEM_CONFORMER_DIVERSEORDER>
1
218
10
253
68
98
276
288
379
153
75
4
243
256
362
2
24
392
364
336
6
86
121
132
73
228
297
183
327
262
277
84
376
39
157
371
92
148
273
69
330
375
134
135
67
72
212
38
150
202
151
283
206
215
213
7
280
114
281
307
109
165
308
77
155
193
229
248
210
328
64
60
176
199
186
145
18
286
395
138
226
139
52
125
159
104
348
324
341
146
101
323
334
209
102
190
71
23
57
192
149
20
315
181
350
103
303
179
393
246
287
239
50
394
320
387
295
267
118
166
19
279
204
14
34
160
97
42
344
188
345
383
120
117
225
164
168
152
28
201
82
133
13
96
257
29
368
81
264
167
242
147
158
236
234
187
106
200
282
357
237
175
386
108
78
331
110
11
240
302
326
49
211
294
35
221
61
304
3
198
184
390
12
62
142
122
289
137
70
173
25
191
107
195
171
94
87
127
365
83
85
291
391
337
300
56
112
76
378
258
222
129
340
26
178
207
224
88
382
305
105
261
380
40
219
16
124
260
290
9
325
15
381
162
144
130
55
174
293
363
301
89
235
31
21
319
329
356
45
116
244
43
65
263
27
385
163
321
377
119
271
335
358
338
252
278
241
143
227
141
366
233
53
284
32
374
5
266
270
361
322
41
48
91
343
113
265
351
360
196
316
17
169
346
156
313
99
254
312
8
292
216
126
115
247
90
214
238
354
347
79
309
272
232
100
93
223
355
250
332
111
230
172
205
353
372
249
298
36
259
46
342
311
339
245
274
44
317
296
269
30
194
37
58
123
66
95
74
189
161
388
373
306
333
359
268
197
299
349
80
182
185
136
170
352
59
54
208
128
177
22
251
51
47
318
310
314
367
203
217
255
389
154
63
220
275
180
384
131
33
140
285
369
231
370

> <PUBCHEM_MMFF94_PARTIAL_CHARGES>
35
1 -0.08
10 0.2
11 0.04
12 0.23
13 0.66
14 -0.15
15 -0.15
16 0.12
17 -0.15
18 -0.15
19 0.34
2 -0.33
20 0.1
21 0.57
22 -0.15
23 -0.15
24 -0.15
25 -0.15
26 0.23
3 -0.43
31 0.15
32 0.15
35 0.15
36 0.15
37 0.37
38 0.15
39 0.15
4 -0.57
40 0.15
41 0.15
5 -0.57
6 -0.57
7 -0.55
8 0.18
9 0.06

> <PUBCHEM_EFFECTIVE_ROTOR_COUNT>
9

> <PUBCHEM_PHARMACOPHORE_FEATURES>
8
1 26 hydrophobe
1 4 acceptor
1 5 acceptor
1 6 acceptor
1 7 donor
5 1 6 10 11 12 rings
6 11 12 14 15 17 18 rings
6 16 20 22 23 24 25 rings

> <PUBCHEM_HEAVY_ATOM_COUNT>
26

> <PUBCHEM_ATOM_DEF_STEREO_COUNT>
0

> <PUBCHEM_ATOM_UDEF_STEREO_COUNT>
0

> <PUBCHEM_BOND_DEF_STEREO_COUNT>
0

> <PUBCHEM_BOND_UDEF_STEREO_COUNT>
0

> <PUBCHEM_ISOTOPIC_ATOM_COUNT>
0

> <PUBCHEM_COMPONENT_COUNT>
1

> <PUBCHEM_CACTVS_TAUTO_COUNT>
4

> <PUBCHEM_CONFORMER_ID>
0077BC6D00000001

> <PUBCHEM_MMFF94_ENERGY>
56.6985

> <PUBCHEM_FEATURE_SELFOVERLAP>
40.666

> <PUBCHEM_SHAPE_FINGERPRINT>
11112241 14 16733856136404973001
11578080 2 16879076222472094250
12156800 1 15386506994188860511
12422481 6 18119835533510905432
12553582 1 18339077215469992433
13140716 1 18335973195539712225
133893 2 17549298867651978526
13726171 33 18337940294608977488
14787075 74 18059845161234232620
17357779 13 18187658993747256671
17492 54 18198879505672025828
20600515 1 18410019810132980010
20691752 17 17560524984656442941
20905425 154 17902217919655068439
21033648 29 17530972397125055747
229495 10 16844734264794192582
23419403 2 16168709281336399032
2818148 4 17757822339071936463
3052486 1 18409729582049882426
3380486 77 17618559437443319110
35225 105 17831058888673465034
3524813 1 17603867844555729822
469060 322 17632301159842268916
7064713 232 18187361077451380233

> <PUBCHEM_SHAPE_MULTIPOLES>
515.2
6.98
3.49
2.42
2.47
0.99
-1.31
-2.49
-1.04
0.64
0.5
-1.94
-1.06
-1.21

> <PUBCHEM_SHAPE_SELFOVERLAP>
1074.34

> <PUBCHEM_SHAPE_VOLUME>
293.9

> <PUBCHEM_COORDINATE_TYPE>
2
5
10

$$$$

