23724596
  -OEChem-07051213083D

 78 81  0     1  0  0  0  0  0999 V2000
   -6.2192   -2.0684    1.1070 O   0  0  0  0  0  0  0  0  0  0  0  0
   -7.0484    0.2671    0.2057 O   0  0  0  0  0  0  0  0  0  0  0  0
   -5.4110    1.8524    0.2450 O   0  0  0  0  0  0  0  0  0  0  0  0
    1.8600    0.9571   -0.3158 C   0  0  1  0  0  0  0  0  0  0  0  0
    0.6064    1.8067   -0.6247 C   0  0  1  0  0  0  0  0  0  0  0  0
   -2.2002   -0.9451   -0.1308 C   0  0  1  0  0  0  0  0  0  0  0  0
    2.8919    2.0577    0.0381 C   0  0  1  0  0  0  0  0  0  0  0  0
   -3.3766    0.0913   -0.2521 C   0  0  2  0  0  0  0  0  0  0  0  0
   -0.7148    1.0626   -0.6028 C   0  0  0  0  0  0  0  0  0  0  0  0
   -0.8537   -0.1710   -0.0604 C   0  0  0  0  0  0  0  0  0  0  0  0
    1.5523    0.0023    0.8507 C   0  0  0  0  0  0  0  0  0  0  0  0
    0.6480    2.9582    0.3965 C   0  0  0  0  0  0  0  0  0  0  0  0
    2.0993    3.0752    0.8645 C   0  0  0  0  0  0  0  0  0  0  0  0
    0.3268   -0.8771    0.5861 C   0  0  0  0  0  0  0  0  0  0  0  0
   -4.8334   -0.4780   -0.1657 C   0  0  2  0  0  0  0  0  0  0  0  0
   -3.1420    1.0227   -1.4501 C   0  0  0  0  0  0  0  0  0  0  0  0
   -1.8481    1.8126   -1.2676 C   0  0  0  0  0  0  0  0  0  0  0  0
   -2.4601   -1.7979    1.1392 C   0  0  0  0  0  0  0  0  0  0  0  0
    4.1545    1.5887    0.7494 C   0  0  1  0  0  0  0  0  0  0  0  0
    2.3211    0.1594   -1.5488 C   0  0  0  0  0  0  0  0  0  0  0  0
   -4.9585   -1.3987    1.0754 C   0  0  2  0  0  0  0  0  0  0  0  0
   -3.8456   -2.4370    1.1742 C   0  0  0  0  0  0  0  0  0  0  0  0
   -2.0587   -1.8915   -1.3469 C   0  0  0  0  0  0  0  0  0  0  0  0
   -5.3547   -1.1371   -1.4532 C   0  0  0  0  0  0  0  0  0  0  0  0
    4.9687    0.5805   -0.0903 C   0  0  0  0  0  0  0  0  0  0  0  0
   -5.7636    0.6897    0.1150 C   0  0  0  0  0  0  0  0  0  0  0  0
    5.0382    2.7946    1.0904 C   0  0  0  0  0  0  0  0  0  0  0  0
    6.2314    0.0310    0.5882 C   0  0  0  0  0  0  0  0  0  0  0  0
    6.9470   -0.9875   -0.2549 C   0  0  0  0  0  0  0  0  0  0  0  0
    6.8401   -2.3292   -0.2161 C   0  0  0  0  0  0  0  0  0  0  0  0
    5.9564   -3.1091    0.7151 C   0  0  0  0  0  0  0  0  0  0  0  0
    7.6466   -3.1822   -1.1600 C   0  0  0  0  0  0  0  0  0  0  0  0
    0.7390    2.2414   -1.6269 H   0  0  0  0  0  0  0  0  0  0  0  0
    3.1874    2.5689   -0.8912 H   0  0  0  0  0  0  0  0  0  0  0  0
   -3.2723    0.7305    0.6429 H   0  0  0  0  0  0  0  0  0  0  0  0
    2.4078   -0.6474    1.0708 H   0  0  0  0  0  0  0  0  0  0  0  0
    1.3666    0.5711    1.7709 H   0  0  0  0  0  0  0  0  0  0  0  0
   -0.0045    2.7712    1.2581 H   0  0  0  0  0  0  0  0  0  0  0  0
    0.3093    3.8933   -0.0643 H   0  0  0  0  0  0  0  0  0  0  0  0
    2.1531    2.8594    1.9382 H   0  0  0  0  0  0  0  0  0  0  0  0
    2.4702    4.0951    0.7151 H   0  0  0  0  0  0  0  0  0  0  0  0
    0.6234   -1.7184   -0.0511 H   0  0  0  0  0  0  0  0  0  0  0  0
    0.0380   -1.2980    1.5544 H   0  0  0  0  0  0  0  0  0  0  0  0
   -3.0825    0.4464   -2.3799 H   0  0  0  0  0  0  0  0  0  0  0  0
   -3.9572    1.7341   -1.6089 H   0  0  0  0  0  0  0  0  0  0  0  0
   -2.0685    2.6996   -0.6597 H   0  0  0  0  0  0  0  0  0  0  0  0
   -1.5277    2.1763   -2.2515 H   0  0  0  0  0  0  0  0  0  0  0  0
   -1.7220   -2.6057    1.2203 H   0  0  0  0  0  0  0  0  0  0  0  0
   -2.3409   -1.1728    2.0346 H   0  0  0  0  0  0  0  0  0  0  0  0
    3.8891    1.1085    1.6996 H   0  0  0  0  0  0  0  0  0  0  0  0
    1.4604   -0.1066   -2.1755 H   0  0  0  0  0  0  0  0  0  0  0  0
    2.9968    0.7314   -2.1929 H   0  0  0  0  0  0  0  0  0  0  0  0
    2.7868   -0.7978   -1.3014 H   0  0  0  0  0  0  0  0  0  0  0  0
   -4.9237   -0.7841    1.9852 H   0  0  0  0  0  0  0  0  0  0  0  0
   -3.9499   -3.1878    0.3826 H   0  0  0  0  0  0  0  0  0  0  0  0
   -3.9620   -2.9984    2.1102 H   0  0  0  0  0  0  0  0  0  0  0  0
   -1.8827   -1.3511   -2.2823 H   0  0  0  0  0  0  0  0  0  0  0  0
   -1.2074   -2.5714   -1.2172 H   0  0  0  0  0  0  0  0  0  0  0  0
   -2.9228   -2.5366   -1.4934 H   0  0  0  0  0  0  0  0  0  0  0  0
   -6.4245   -1.3722   -1.4110 H   0  0  0  0  0  0  0  0  0  0  0  0
   -4.8581   -2.0822   -1.6701 H   0  0  0  0  0  0  0  0  0  0  0  0
   -5.2286   -0.4810   -2.3207 H   0  0  0  0  0  0  0  0  0  0  0  0
    5.2310    1.0209   -1.0604 H   0  0  0  0  0  0  0  0  0  0  0  0
    4.3648   -0.3033   -0.2771 H   0  0  0  0  0  0  0  0  0  0  0  0
    5.3930    3.2970    0.1839 H   0  0  0  0  0  0  0  0  0  0  0  0
    5.9115    2.5007    1.6799 H   0  0  0  0  0  0  0  0  0  0  0  0
    4.5095    3.5328    1.7009 H   0  0  0  0  0  0  0  0  0  0  0  0
   -6.2114   -2.7646    0.4286 H   0  0  0  0  0  0  0  0  0  0  0  0
    6.9460    0.8388    0.7796 H   0  0  0  0  0  0  0  0  0  0  0  0
    5.9770   -0.3829    1.5700 H   0  0  0  0  0  0  0  0  0  0  0  0
   -7.6655    1.0075    0.3879 H   0  0  0  0  0  0  0  0  0  0  0  0
    7.6191   -0.5517   -0.9937 H   0  0  0  0  0  0  0  0  0  0  0  0
    6.5637   -3.7314    1.3803 H   0  0  0  0  0  0  0  0  0  0  0  0
    5.3244   -2.4712    1.3383 H   0  0  0  0  0  0  0  0  0  0  0  0
    5.2890   -3.7626    0.1432 H   0  0  0  0  0  0  0  0  0  0  0  0
    8.2854   -2.5864   -1.8205 H   0  0  0  0  0  0  0  0  0  0  0  0
    8.2948   -3.8613   -0.5963 H   0  0  0  0  0  0  0  0  0  0  0  0
    6.9821   -3.7800   -1.7923 H   0  0  0  0  0  0  0  0  0  0  0  0
  1 21  1  0  0  0  0
  1 68  1  0  0  0  0
  2 26  1  0  0  0  0
  2 71  1  0  0  0  0
  3 26  2  0  0  0  0
  4  5  1  0  0  0  0
  4  7  1  0  0  0  0
  4 11  1  0  0  0  0
  4 20  1  0  0  0  0
  5  9  1  0  0  0  0
  5 12  1  0  0  0  0
  5 33  1  0  0  0  0
  6  8  1  0  0  0  0
  6 10  1  0  0  0  0
  6 18  1  0  0  0  0
  6 23  1  0  0  0  0
  7 13  1  0  0  0  0
  7 19  1  0  0  0  0
  7 34  1  0  0  0  0
  8 15  1  0  0  0  0
  8 16  1  0  0  0  0
  8 35  1  0  0  0  0
  9 10  2  0  0  0  0
  9 17  1  0  0  0  0
 10 14  1  0  0  0  0
 11 14  1  0  0  0  0
 11 36  1  0  0  0  0
 11 37  1  0  0  0  0
 12 13  1  0  0  0  0
 12 38  1  0  0  0  0
 12 39  1  0  0  0  0
 13 40  1  0  0  0  0
 13 41  1  0  0  0  0
 14 42  1  0  0  0  0
 14 43  1  0  0  0  0
 15 21  1  0  0  0  0
 15 24  1  0  0  0  0
 15 26  1  0  0  0  0
 16 17  1  0  0  0  0
 16 44  1  0  0  0  0
 16 45  1  0  0  0  0
 17 46  1  0  0  0  0
 17 47  1  0  0  0  0
 18 22  1  0  0  0  0
 18 48  1  0  0  0  0
 18 49  1  0  0  0  0
 19 25  1  0  0  0  0
 19 27  1  0  0  0  0
 19 50  1  0  0  0  0
 20 51  1  0  0  0  0
 20 52  1  0  0  0  0
 20 53  1  0  0  0  0
 21 22  1  0  0  0  0
 21 54  1  0  0  0  0
 22 55  1  0  0  0  0
 22 56  1  0  0  0  0
 23 57  1  0  0  0  0
 23 58  1  0  0  0  0
 23 59  1  0  0  0  0
 24 60  1  0  0  0  0
 24 61  1  0  0  0  0
 24 62  1  0  0  0  0
 25 28  1  0  0  0  0
 25 63  1  0  0  0  0
 25 64  1  0  0  0  0
 27 65  1  0  0  0  0
 27 66  1  0  0  0  0
 27 67  1  0  0  0  0
 28 29  1  0  0  0  0
 28 69  1  0  0  0  0
 28 70  1  0  0  0  0
 29 30  2  0  0  0  0
 29 72  1  0  0  0  0
 30 31  1  0  0  0  0
 30 32  1  0  0  0  0
 31 73  1  0  0  0  0
 31 74  1  0  0  0  0
 31 75  1  0  0  0  0
 32 76  1  0  0  0  0
 32 77  1  0  0  0  0
 32 78  1  0  0  0  0
M  END
> <PUBCHEM_COMPOUND_CID>
23724596

> <PUBCHEM_CONFORMER_RMSD>
1

> <PUBCHEM_CONFORMER_DIVERSEORDER>
1
31
2
22
23
29
19
6
3
33
25
5
13
32
21
24
34
20
15
18
27
16
17
4
8
28
10
11
7
9
14
12
30
26

> <PUBCHEM_MMFF94_PARTIAL_CHARGES>
20
1 -0.68
10 -0.28
14 0.14
15 0.06
17 0.14
2 -0.65
21 0.28
26 0.66
28 0.14
29 -0.29
3 -0.57
30 -0.28
31 0.14
32 0.14
5 0.14
6 0.14
68 0.4
71 0.5
72 0.15
9 -0.28

> <PUBCHEM_EFFECTIVE_ROTOR_COUNT>
7.2

> <PUBCHEM_PHARMACOPHORE_FEATURES>
12
1 1 acceptor
1 1 donor
1 2 acceptor
1 27 hydrophobe
1 3 acceptor
3 2 3 26 anion
3 30 31 32 hydrophobe
4 19 25 28 29 hydrophobe
5 4 5 7 12 13 rings
6 4 5 9 10 11 14 rings
6 6 8 15 18 21 22 rings
6 6 8 9 10 16 17 rings

> <PUBCHEM_HEAVY_ATOM_COUNT>
32

> <PUBCHEM_ATOM_DEF_STEREO_COUNT>
6

> <PUBCHEM_ATOM_UDEF_STEREO_COUNT>
2

> <PUBCHEM_BOND_DEF_STEREO_COUNT>
0

> <PUBCHEM_BOND_UDEF_STEREO_COUNT>
0

> <PUBCHEM_ISOTOPIC_ATOM_COUNT>
0

> <PUBCHEM_COMPONENT_COUNT>
1

> <PUBCHEM_CACTVS_TAUTO_COUNT>
1

> <PUBCHEM_CONFORMER_ID>
016A023400000001

> <PUBCHEM_MMFF94_ENERGY>
101.0553

> <PUBCHEM_FEATURE_SELFOVERLAP>
61.138

> <PUBCHEM_SHAPE_FINGERPRINT>
10533779 47 18268695153221600699
10554248 39 18270690757254520764
10622 236 17316789593523817118
11135609 12 18342458128100253860
11273773 46 18267866262834437726
11456790 92 17821716235925813739
117089 54 18057873658833142026
12166972 35 18060132168176306876
12422481 6 18260552195226650582
12760667 363 18409167744582447214
13533116 47 18333453119547833488
13583140 156 16371006240351966725
13782708 43 18341898467606406814
14202776 33 15266788835119798102
14341114 176 18340488859245258392
14420673 8 18341891904949086995
14556957 393 13686030820901326550
14856354 85 14692569901737902107
14955137 171 18411418388786594904
15064986 96 18114451336691635631
15131766 46 16300950809638831664
15183329 4 17749383746078683836
15352257 5 18343864437731742898
15361156 5 18129940075091701822
18393751 57 16746796005522278217
20501277 279 17894638029703973952
21033648 29 18042699303247735161
21033650 10 16916787456701872620
21130935 74 18261112920028433018
21267235 1 18201718440120218665
21279426 13 18343590654745910868
21682296 61 18408884044622909582
21781051 124 17274523361476654907
23522609 53 18193246707661776044
23559900 14 18202284662796378693
23569914 152 17618262771003402286
23569917 315 18341045221647840411
23569943 247 18335706099660652970
25269216 80 15625355966986667378
3383291 50 18413395341001123226
4073 2 18269838606426847698
4144715 1 18200589177232683529
437815 12 18409448102751538490
439807 62 18201437034797044642
465052 167 18260266365822813302
5104073 3 18333726905752499265
9831232 110 18272932726594907382

> <PUBCHEM_SHAPE_MULTIPOLES>
640.94
18.88
3.59
1.31
11.73
0.15
0.2
13.07
-0.79
4.98
-0.58
-0.49
0.28
2.3

> <PUBCHEM_SHAPE_SELFOVERLAP>
1344.775

> <PUBCHEM_SHAPE_VOLUME>
358.8

> <PUBCHEM_COORDINATE_TYPE>
2
5
10

$$$$

