9034
  -OEChem-07051212542D

 37 37  0     1  0  0  0  0  0999 V2000
    5.7320   -0.6651    0.0000 O   0  0  0  0  0  0  0  0  0  0  0  0
    2.2680   -0.6651    0.0000 O   0  0  0  0  0  0  0  0  0  0  0  0
    4.0000   -3.6651    0.0000 O   0  0  0  0  0  0  0  0  0  0  0  0
    4.8660   -2.1651    0.0000 N   0  0  0  0  0  0  0  0  0  0  0  0
    3.1340   -2.1651    0.0000 N   0  0  0  0  0  0  0  0  0  0  0  0
    4.0000   -0.6651    0.0000 C   0  0  3  0  0  0  0  0  0  0  0  0
    4.5000    0.2010    0.0000 C   0  0  3  0  0  0  0  0  0  0  0  0
    3.5000    0.2010    0.0000 C   0  0  0  0  0  0  0  0  0  0  0  0
    4.8660   -1.1651    0.0000 C   0  0  0  0  0  0  0  0  0  0  0  0
    3.1340   -1.1651    0.0000 C   0  0  0  0  0  0  0  0  0  0  0  0
    5.5000    0.2010    0.0000 C   0  0  0  0  0  0  0  0  0  0  0  0
    4.0000   -2.6651    0.0000 C   0  0  0  0  0  0  0  0  0  0  0  0
    2.5000    0.2010    0.0000 C   0  0  0  0  0  0  0  0  0  0  0  0
    4.0000    1.0670    0.0000 C   0  0  0  0  0  0  0  0  0  0  0  0
    5.7320   -2.6651    0.0000 C   0  0  0  0  0  0  0  0  0  0  0  0
    2.0000    1.0670    0.0000 C   0  0  0  0  0  0  0  0  0  0  0  0
    3.5000    1.9330    0.0000 C   0  0  0  0  0  0  0  0  0  0  0  0
    3.0000    2.7990    0.0000 C   0  0  0  0  0  0  0  0  0  0  0  0
    3.5000    3.6651    0.0000 C   0  0  0  0  0  0  0  0  0  0  0  0
    4.9250   -0.5352    0.0000 H   0  0  0  0  0  0  0  0  0  0  0  0
    4.0826    0.4130    0.0000 H   0  0  0  0  0  0  0  0  0  0  0  0
    3.3923    0.8115    0.0000 H   0  0  0  0  0  0  0  0  0  0  0  0
    5.5000   -0.4190    0.0000 H   0  0  0  0  0  0  0  0  0  0  0  0
    6.1200    0.2010    0.0000 H   0  0  0  0  0  0  0  0  0  0  0  0
    5.5000    0.8210    0.0000 H   0  0  0  0  0  0  0  0  0  0  0  0
    2.5970   -2.4751    0.0000 H   0  0  0  0  0  0  0  0  0  0  0  0
    2.1900   -0.3360    0.0000 H   0  0  0  0  0  0  0  0  0  0  0  0
    5.4220   -3.2020    0.0000 H   0  0  0  0  0  0  0  0  0  0  0  0
    6.2690   -2.9751    0.0000 H   0  0  0  0  0  0  0  0  0  0  0  0
    6.0420   -2.1281    0.0000 H   0  0  0  0  0  0  0  0  0  0  0  0
    2.3100    1.6039    0.0000 H   0  0  0  0  0  0  0  0  0  0  0  0
    1.3800    1.0670    0.0000 H   0  0  0  0  0  0  0  0  0  0  0  0
    2.5250    3.1976    0.0000 H   0  0  0  0  0  0  0  0  0  0  0  0
    2.5250    2.4005    0.0000 H   0  0  0  0  0  0  0  0  0  0  0  0
    4.0369    3.3551    0.0000 H   0  0  0  0  0  0  0  0  0  0  0  0
    3.8100    4.2020    0.0000 H   0  0  0  0  0  0  0  0  0  0  0  0
    2.9631    3.9751    0.0000 H   0  0  0  0  0  0  0  0  0  0  0  0
  1  9  2  0  0  0  0
  2 10  2  0  0  0  0
  3 12  2  0  0  0  0
  4  9  1  0  0  0  0
  4 12  1  0  0  0  0
  4 15  1  0  0  0  0
  5 10  1  0  0  0  0
  5 12  1  0  0  0  0
  5 26  1  0  0  0  0
  6  7  1  0  0  0  0
  6  8  1  0  0  0  0
  6  9  1  0  0  0  0
  6 10  1  0  0  0  0
  7 11  1  0  0  0  0
  7 14  1  0  0  0  0
  7 20  1  0  0  0  0
  8 13  1  0  0  0  0
  8 21  1  0  0  0  0
  8 22  1  0  0  0  0
 11 23  1  0  0  0  0
 11 24  1  0  0  0  0
 11 25  1  0  0  0  0
 13 16  2  0  0  0  0
 13 27  1  0  0  0  0
 14 17  3  0  0  0  0
 15 28  1  0  0  0  0
 15 29  1  0  0  0  0
 15 30  1  0  0  0  0
 16 31  1  0  0  0  0
 16 32  1  0  0  0  0
 17 18  1  0  0  0  0
 18 19  1  0  0  0  0
 18 33  1  0  0  0  0
 18 34  1  0  0  0  0
 19 35  1  0  0  0  0
 19 36  1  0  0  0  0
 19 37  1  0  0  0  0
M  END
> <PUBCHEM_COMPOUND_CID>
9034

> <PUBCHEM_COMPOUND_CANONICALIZED>
1

> <PUBCHEM_CACTVS_COMPLEXITY>
497

> <PUBCHEM_CACTVS_HBOND_ACCEPTOR>
3

> <PUBCHEM_CACTVS_HBOND_DONOR>
1

> <PUBCHEM_CACTVS_ROTATABLE_BOND>
3

> <PUBCHEM_CACTVS_SUBSKEYS>
AAADceBzMAAAAAAAAAAAAAAAAAAAAAAAAAAsAAAAAAAAAAAAAAAAHgAQAAAADwCBgAQDAAPAAADIECFSEAgAAAAgAAAIAAEIAAiAABoIwQAEAAAIhyIAAAAAAAAPgAAAAAAAAAAAAAAAAAAAAAAAAAAAAA==

> <PUBCHEM_IUPAC_OPENEYE_NAME>
5-allyl-1-methyl-5-(1-methylpent-2-ynyl)hexahydropyrimidine-2,4,6-trione

> <PUBCHEM_IUPAC_CAS_NAME>
5-hex-3-yn-2-yl-1-methyl-5-prop-2-enyl-1,3-diazinane-2,4,6-trione

> <PUBCHEM_IUPAC_NAME>
5-hex-3-yn-2-yl-1-methyl-5-prop-2-enyl-1,3-diazinane-2,4,6-trione

> <PUBCHEM_IUPAC_SYSTEMATIC_NAME>
5-hex-3-yn-2-yl-1-methyl-5-prop-2-enyl-1,3-diazinane-2,4,6-trione

> <PUBCHEM_IUPAC_TRADITIONAL_NAME>
5-allyl-1-methyl-5-(1-methylpent-2-ynyl)barbituric acid

> <PUBCHEM_IUPAC_INCHI>
InChI=1S/C14H18N2O3/c1-5-7-8-10(3)14(9-6-2)11(17)15-13(19)16(4)12(14)18/h6,10H,2,5,9H2,1,3-4H3,(H,15,17,19)

> <PUBCHEM_IUPAC_INCHIKEY>
NZXKDOXHBHYTKP-UHFFFAOYSA-N

> <PUBCHEM_XLOGP3>
2.3

> <PUBCHEM_EXACT_MASS>
262.131742

> <PUBCHEM_MOLECULAR_FORMULA>
C14H18N2O3

> <PUBCHEM_MOLECULAR_WEIGHT>
262.30432

> <PUBCHEM_OPENEYE_CAN_SMILES>
CCC#CC(C)C1(C(=O)NC(=O)N(C1=O)C)CC=C

> <PUBCHEM_OPENEYE_ISO_SMILES>
CCC#CC(C)C1(C(=O)NC(=O)N(C1=O)C)CC=C

> <PUBCHEM_CACTVS_TPSA>
66.5

> <PUBCHEM_MONOISOTOPIC_WEIGHT>
262.131742

> <PUBCHEM_TOTAL_CHARGE>
0

> <PUBCHEM_HEAVY_ATOM_COUNT>
19

> <PUBCHEM_ATOM_DEF_STEREO_COUNT>
0

> <PUBCHEM_ATOM_UDEF_STEREO_COUNT>
2

> <PUBCHEM_BOND_DEF_STEREO_COUNT>
0

> <PUBCHEM_BOND_UDEF_STEREO_COUNT>
0

> <PUBCHEM_ISOTOPIC_ATOM_COUNT>
0

> <PUBCHEM_COMPONENT_COUNT>
1

> <PUBCHEM_CACTVS_TAUTO_COUNT>
3

> <PUBCHEM_COORDINATE_TYPE>
1
5
255

> <PUBCHEM_BONDANNOTATIONS>
6  8  3
7  20  3

$$$$

