11343
  -OEChem-06261205332D

 23 24  0     0  0  0  0  0  0999 V2000
    3.0934    2.2786    0.0000 S   0  0  0  0  0  0  0  0  0  0  0  0
    2.0000    0.6149    0.0000 O   0  0  0  0  0  0  0  0  0  0  0  0
    6.3092    0.8468    0.0000 O   0  0  0  0  0  0  0  0  0  0  0  0
    3.7321    0.6149    0.0000 N   0  0  0  0  0  0  0  0  0  0  0  0
    4.8147    1.8174    0.0000 N   0  0  0  0  0  0  0  0  0  0  0  0
    4.6456    0.2082    0.0000 C   0  0  0  0  0  0  0  0  0  0  0  0
    2.8660    0.1149    0.0000 C   0  0  0  0  0  0  0  0  0  0  0  0
    2.8660   -0.8851    0.0000 C   0  0  0  0  0  0  0  0  0  0  0  0
    3.8366    1.6095    0.0000 C   0  0  0  0  0  0  0  0  0  0  0  0
    5.3147    0.9514    0.0000 C   0  0  0  0  0  0  0  0  0  0  0  0
    3.7321   -1.3851    0.0000 C   0  0  0  0  0  0  0  0  0  0  0  0
    2.0000   -1.3851    0.0000 C   0  0  0  0  0  0  0  0  0  0  0  0
    3.7321   -2.3851    0.0000 C   0  0  0  0  0  0  0  0  0  0  0  0
    2.0000   -2.3851    0.0000 C   0  0  0  0  0  0  0  0  0  0  0  0
    2.8660   -2.8851    0.0000 C   0  0  0  0  0  0  0  0  0  0  0  0
    4.3356   -0.3287    0.0000 H   0  0  0  0  0  0  0  0  0  0  0  0
    5.1472   -0.1562    0.0000 H   0  0  0  0  0  0  0  0  0  0  0  0
    4.2690   -1.0751    0.0000 H   0  0  0  0  0  0  0  0  0  0  0  0
    1.4631   -1.0751    0.0000 H   0  0  0  0  0  0  0  0  0  0  0  0
    4.2690   -2.6951    0.0000 H   0  0  0  0  0  0  0  0  0  0  0  0
    1.4631   -2.6951    0.0000 H   0  0  0  0  0  0  0  0  0  0  0  0
    2.8660   -3.5051    0.0000 H   0  0  0  0  0  0  0  0  0  0  0  0
    3.2223    2.8851    0.0000 H   0  0  0  0  0  0  0  0  0  0  0  0
  1  9  1  0  0  0  0
  1 23  1  0  0  0  0
  2  7  2  0  0  0  0
  3 10  2  0  0  0  0
  4  6  1  0  0  0  0
  4  7  1  0  0  0  0
  4  9  1  0  0  0  0
  5  9  2  0  0  0  0
  5 10  1  0  0  0  0
  6 10  1  0  0  0  0
  6 16  1  0  0  0  0
  6 17  1  0  0  0  0
  7  8  1  0  0  0  0
  8 11  2  0  0  0  0
  8 12  1  0  0  0  0
 11 13  1  0  0  0  0
 11 18  1  0  0  0  0
 12 14  2  0  0  0  0
 12 19  1  0  0  0  0
 13 15  2  0  0  0  0
 13 20  1  0  0  0  0
 14 15  1  0  0  0  0
 14 21  1  0  0  0  0
 15 22  1  0  0  0  0
M  END
> <PUBCHEM_COMPOUND_CID>
11343

> <PUBCHEM_COMPOUND_CANONICALIZED>
1

> <PUBCHEM_CACTVS_COMPLEXITY>
321

> <PUBCHEM_CACTVS_HBOND_ACCEPTOR>
3

> <PUBCHEM_CACTVS_HBOND_DONOR>
1

> <PUBCHEM_CACTVS_ROTATABLE_BOND>
1

> <PUBCHEM_CACTVS_SUBSKEYS>
AAADccBzMABAAAAAAAAAAAAAAAAAAQAAAAAwAAAAAAAAAAABAAAAHgQAAAAADADBmAQxAIMAAASoAiFSNACCEAEkAAAJiAGIBMgIYDKAnTGUIQhghgCIiYcYiACOAAAAAAAAAAAAAAAAAAAAAAAAAAAAAA==

> <PUBCHEM_IUPAC_OPENEYE_NAME>
3-benzoyl-2-sulfanyl-4H-imidazol-5-one

> <PUBCHEM_IUPAC_CAS_NAME>
3-benzoyl-2-mercapto-4H-imidazol-5-one

> <PUBCHEM_IUPAC_NAME>
3-benzoyl-2-sulfanyl-4H-imidazol-5-one

> <PUBCHEM_IUPAC_SYSTEMATIC_NAME>
3-(phenylcarbonyl)-2-sulfanyl-4H-imidazol-5-one

> <PUBCHEM_IUPAC_TRADITIONAL_NAME>
1-benzoyl-2-mercapto-2-imidazolin-4-one

> <PUBCHEM_IUPAC_INCHI>
InChI=1S/C10H8N2O2S/c13-8-6-12(10(15)11-8)9(14)7-4-2-1-3-5-7/h1-5H,6H2,(H,11,13,15)

> <PUBCHEM_IUPAC_INCHIKEY>
YTMVOQHVLQJLML-UHFFFAOYSA-N

> <PUBCHEM_XLOGP3_AA>
1.4

> <PUBCHEM_EXACT_MASS>
220.030649

> <PUBCHEM_MOLECULAR_FORMULA>
C10H8N2O2S

> <PUBCHEM_MOLECULAR_WEIGHT>
220.24772

> <PUBCHEM_OPENEYE_CAN_SMILES>
C1C(=O)N=C(N1C(=O)C2=CC=CC=C2)S

> <PUBCHEM_OPENEYE_ISO_SMILES>
C1C(=O)N=C(N1C(=O)C2=CC=CC=C2)S

> <PUBCHEM_CACTVS_TPSA>
50.7

> <PUBCHEM_MONOISOTOPIC_WEIGHT>
220.030649

> <PUBCHEM_TOTAL_CHARGE>
0

> <PUBCHEM_HEAVY_ATOM_COUNT>
15

> <PUBCHEM_ATOM_DEF_STEREO_COUNT>
0

> <PUBCHEM_ATOM_UDEF_STEREO_COUNT>
0

> <PUBCHEM_BOND_DEF_STEREO_COUNT>
0

> <PUBCHEM_BOND_UDEF_STEREO_COUNT>
0

> <PUBCHEM_ISOTOPIC_ATOM_COUNT>
0

> <PUBCHEM_COMPONENT_COUNT>
1

> <PUBCHEM_CACTVS_TAUTO_COUNT>
3

> <PUBCHEM_COORDINATE_TYPE>
1
5
255

> <PUBCHEM_BONDANNOTATIONS>
11  13  8
12  14  8
13  15  8
14  15  8
8  11  8
8  12  8

$$$$

