440654
  -OEChem-07051212503D

 50 51  0     1  0  0  0  0  0999 V2000
   -2.9947    3.1723   -0.6844 P   0  0  0  0  0  0  0  0  0  0  0  0
    1.0952   -1.4059    0.4940 O   0  0  0  0  0  0  0  0  0  0  0  0
   -1.0354   -0.5287    0.1200 O   0  0  0  0  0  0  0  0  0  0  0  0
    3.7456    0.6821   -0.9908 O   0  0  0  0  0  0  0  0  0  0  0  0
    0.0779   -4.0164    0.0259 O   0  0  0  0  0  0  0  0  0  0  0  0
    0.5587    1.1972    1.5840 O   0  0  0  0  0  0  0  0  0  0  0  0
   -2.7432   -4.2660    0.6128 O   0  0  0  0  0  0  0  0  0  0  0  0
   -3.2305   -1.6882    1.5327 O   0  0  0  0  0  0  0  0  0  0  0  0
    2.9764    2.7447    1.9520 O   0  0  0  0  0  0  0  0  0  0  0  0
    4.9387    0.9585    1.0391 O   0  0  0  0  0  0  0  0  0  0  0  0
   -2.3835    1.6776   -0.8045 O   0  0  0  0  0  0  0  0  0  0  0  0
    4.2042   -1.5869   -2.4378 O   0  0  0  0  0  0  0  0  0  0  0  0
   -4.4843    3.0039   -1.2910 O   0  0  0  0  0  0  0  0  0  0  0  0
   -3.2571    3.3532    0.9010 O   0  0  0  0  0  0  0  0  0  0  0  0
   -2.1675    4.2484   -1.3247 O   0  0  0  0  0  0  0  0  0  0  0  0
    1.7037   -0.2095    0.0136 C   0  0  1  0  0  0  0  0  0  0  0  0
   -0.1673   -1.6329   -0.1317 C   0  0  2  0  0  0  0  0  0  0  0  0
   -0.7484   -2.9283    0.4396 C   0  0  1  0  0  0  0  0  0  0  0  0
    1.8596    0.7501    1.1949 C   0  0  1  0  0  0  0  0  0  0  0  0
   -2.1710   -3.1547   -0.0712 C   0  0  2  0  0  0  0  0  0  0  0  0
    3.0614   -0.5232   -0.6295 C   0  0  1  0  0  0  0  0  0  0  0  0
   -3.0333   -1.9089    0.1347 C   0  0  2  0  0  0  0  0  0  0  0  0
   -2.3319   -0.6873   -0.4695 C   0  0  1  0  0  0  0  0  0  0  0  0
    2.7047    1.9588    0.7971 C   0  0  2  0  0  0  0  0  0  0  0  0
    4.0112    1.5373    0.1229 C   0  0  2  0  0  0  0  0  0  0  0  0
    2.9147   -1.3511   -1.9033 C   0  0  0  0  0  0  0  0  0  0  0  0
   -3.1039    0.6041   -0.2258 C   0  0  0  0  0  0  0  0  0  0  0  0
    1.0791    0.2881   -0.7432 H   0  0  0  0  0  0  0  0  0  0  0  0
   -0.0024   -1.7374   -1.2127 H   0  0  0  0  0  0  0  0  0  0  0  0
   -0.7307   -2.9191    1.5360 H   0  0  0  0  0  0  0  0  0  0  0  0
    2.2834    0.2422    2.0692 H   0  0  0  0  0  0  0  0  0  0  0  0
   -2.1471   -3.4136   -1.1371 H   0  0  0  0  0  0  0  0  0  0  0  0
    3.6949   -1.0908    0.0649 H   0  0  0  0  0  0  0  0  0  0  0  0
   -4.0245   -2.0580   -0.3062 H   0  0  0  0  0  0  0  0  0  0  0  0
   -2.1951   -0.8173   -1.5510 H   0  0  0  0  0  0  0  0  0  0  0  0
    2.1187    2.5797    0.1074 H   0  0  0  0  0  0  0  0  0  0  0  0
    4.5085    2.4289   -0.2729 H   0  0  0  0  0  0  0  0  0  0  0  0
    2.4437   -2.3178   -1.7043 H   0  0  0  0  0  0  0  0  0  0  0  0
    2.3288   -0.8212   -2.6616 H   0  0  0  0  0  0  0  0  0  0  0  0
   -3.2015    0.7987    0.8469 H   0  0  0  0  0  0  0  0  0  0  0  0
   -4.1012    0.5412   -0.6720 H   0  0  0  0  0  0  0  0  0  0  0  0
    0.9808   -3.8302    0.3360 H   0  0  0  0  0  0  0  0  0  0  0  0
    0.0466    0.4125    1.8443 H   0  0  0  0  0  0  0  0  0  0  0  0
   -2.1563   -5.0286    0.4719 H   0  0  0  0  0  0  0  0  0  0  0  0
   -2.3847   -1.4057    1.9197 H   0  0  0  0  0  0  0  0  0  0  0  0
    3.5142    3.5040    1.6694 H   0  0  0  0  0  0  0  0  0  0  0  0
    4.4428    0.4871    1.7278 H   0  0  0  0  0  0  0  0  0  0  0  0
    4.6139   -0.7220   -2.6105 H   0  0  0  0  0  0  0  0  0  0  0  0
   -5.0394    3.8031   -1.4147 H   0  0  0  0  0  0  0  0  0  0  0  0
   -3.5681    4.2216    1.2345 H   0  0  0  0  0  0  0  0  0  0  0  0
  1 11  1  0  0  0  0
  1 13  1  0  0  0  0
  1 14  1  0  0  0  0
  1 15  2  0  0  0  0
  2 16  1  0  0  0  0
  2 17  1  0  0  0  0
  3 17  1  0  0  0  0
  3 23  1  0  0  0  0
  4 21  1  0  0  0  0
  4 25  1  0  0  0  0
  5 18  1  0  0  0  0
  5 42  1  0  0  0  0
  6 19  1  0  0  0  0
  6 43  1  0  0  0  0
  7 20  1  0  0  0  0
  7 44  1  0  0  0  0
  8 22  1  0  0  0  0
  8 45  1  0  0  0  0
  9 24  1  0  0  0  0
  9 46  1  0  0  0  0
 10 25  1  0  0  0  0
 10 47  1  0  0  0  0
 11 27  1  0  0  0  0
 12 26  1  0  0  0  0
 12 48  1  0  0  0  0
 13 49  1  0  0  0  0
 14 50  1  0  0  0  0
 16 19  1  0  0  0  0
 16 21  1  0  0  0  0
 16 28  1  0  0  0  0
 17 18  1  0  0  0  0
 17 29  1  0  0  0  0
 18 20  1  0  0  0  0
 18 30  1  0  0  0  0
 19 24  1  0  0  0  0
 19 31  1  0  0  0  0
 20 22  1  0  0  0  0
 20 32  1  0  0  0  0
 21 26  1  0  0  0  0
 21 33  1  0  0  0  0
 22 23  1  0  0  0  0
 22 34  1  0  0  0  0
 23 27  1  0  0  0  0
 23 35  1  0  0  0  0
 24 25  1  0  0  0  0
 24 36  1  0  0  0  0
 25 37  1  0  0  0  0
 26 38  1  0  0  0  0
 26 39  1  0  0  0  0
 27 40  1  0  0  0  0
 27 41  1  0  0  0  0
M  END
> <PUBCHEM_COMPOUND_CID>
440654

> <PUBCHEM_CONFORMER_RMSD>
1

> <PUBCHEM_CONFORMER_DIVERSEORDER>
1
61
89
76
70
60
80
77
97
28
33
96
85
98
111
7
41
94
107
4
57
36
103
72
35
43
32
59
58
48
39
93
15
56
67
27
75
95
44
92
73
74
86
104
88
78
21
6
26
64
84
105
91
62
42
101
108
83
2
20
14
18
8
25
66
54
53
22
55
87
68
81
9
30
106
24
37
69
11
45
99
3
102
49
90
38
52
50
71
51
10
65
23
79
5
40
19
100
109
63
31
82
16
29
46
13
110
12
34
47
17

> <PUBCHEM_MMFF94_PARTIAL_CHARGES>
36
1 1.51
10 -0.68
11 -0.55
12 -0.68
13 -0.77
14 -0.77
15 -0.7
16 0.28
17 0.56
18 0.28
19 0.28
2 -0.56
20 0.28
21 0.28
22 0.28
23 0.28
24 0.28
25 0.56
26 0.28
27 0.28
3 -0.56
4 -0.56
42 0.4
43 0.4
44 0.4
45 0.4
46 0.4
47 0.4
48 0.4
49 0.5
5 -0.68
50 0.5
6 -0.68
7 -0.68
8 -0.68
9 -0.68

> <PUBCHEM_EFFECTIVE_ROTOR_COUNT>
8.4

> <PUBCHEM_PHARMACOPHORE_FEATURES>
23
1 10 acceptor
1 10 donor
1 12 acceptor
1 12 donor
1 13 acceptor
1 14 acceptor
1 15 acceptor
1 2 acceptor
1 3 acceptor
1 4 acceptor
1 5 acceptor
1 5 donor
1 6 acceptor
1 6 donor
1 7 acceptor
1 7 donor
1 8 acceptor
1 8 donor
1 9 acceptor
1 9 donor
4 1 13 14 15 anion
6 3 17 18 20 22 23 rings
6 4 16 19 21 24 25 rings

> <PUBCHEM_HEAVY_ATOM_COUNT>
27

> <PUBCHEM_ATOM_DEF_STEREO_COUNT>
9

> <PUBCHEM_ATOM_UDEF_STEREO_COUNT>
1

> <PUBCHEM_BOND_DEF_STEREO_COUNT>
0

> <PUBCHEM_BOND_UDEF_STEREO_COUNT>
0

> <PUBCHEM_ISOTOPIC_ATOM_COUNT>
0

> <PUBCHEM_COMPONENT_COUNT>
1

> <PUBCHEM_CACTVS_TAUTO_COUNT>
1

> <PUBCHEM_CONFORMER_ID>
0006B94E00000001

> <PUBCHEM_MMFF94_ENERGY>
38.2477

> <PUBCHEM_FEATURE_SELFOVERLAP>
116.875

> <PUBCHEM_SHAPE_FINGERPRINT>
10006869 2 18342749537663738475
10165383 225 17981302788896104213
10498660 4 18269848531711302575
1100329 8 17978514461678372034
12107183 9 18056220170281729170
12173636 292 18413393150493364503
12788726 201 17914324684979816566
138480 1 17042055031186640085
13965767 371 17630337560359928316
14251757 17 18260542364009385018
14955137 171 17911210868831489083
151778 21 17837767099330361005
15322687 12 18051415368281193389
15961568 22 17692251833594318804
1813 80 17836637535937552315
20465049 17 17973713976915930749
20600515 1 17268368127622105351
20693207 138 18043226025542040950
21033650 10 18058710435248562294
21285901 2 18189609441296600903
22182313 1 17894903006846214692
23526113 38 18040715878944759514
23536364 44 17829021545261905846
23557571 272 18268712705908289535
23559900 14 18187638168158220142
238 59 17970095329213437157
23845131 108 18196647618012364473
460360 51 18339917220994750426
508706 21 18410012122078054718
5283173 99 18339067268863526342
5895379 119 18201430334289289548
621550 34 17827354384907325654
6287921 2 16964912728182286697
7399639 24 17826800226804362696
7808743 9 18343580720608355612
84936 182 17978238484459824941
9925002 15 15014586792505205718
9981440 41 18270133404154909307

> <PUBCHEM_SHAPE_MULTIPOLES>
477.33
8.26
5.45
1.56
4.14
0.49
-0.31
4.09
-1.19
-6.64
-0.24
1.29
0.38
3.33

> <PUBCHEM_SHAPE_SELFOVERLAP>
962.108

> <PUBCHEM_SHAPE_VOLUME>
279

> <PUBCHEM_COORDINATE_TYPE>
2
5
10

$$$$

