16061259
  -OEChem-07051213153D

 70 69  0     0  0  0  0  0  0999 V2000
   -8.0466    0.2052   -0.0009 C   0  0  0  0  0  0  0  0  0  0  0  0
    8.1054   -0.3016   -0.0048 C   0  0  0  0  0  0  0  0  0  0  0  0
   -3.0868    0.1692   -0.0141 C   0  0  0  0  0  0  0  0  0  0  0  0
    3.0815   -0.6217   -0.0090 C   0  0  0  0  0  0  0  0  0  0  0  0
   -6.8493   -0.4144   -0.0009 C   0  0  0  0  0  0  0  0  0  0  0  0
    6.8452    0.1810   -0.0058 C   0  0  0  0  0  0  0  0  0  0  0  0
   -4.3922   -0.4719   -0.0153 C   0  0  0  0  0  0  0  0  0  0  0  0
    4.3780    0.0590   -0.0078 C   0  0  0  0  0  0  0  0  0  0  0  0
   -9.3429   -0.4560    0.0147 C   0  0  0  0  0  0  0  0  0  0  0  0
    9.3004    0.5419   -0.0037 C   0  0  0  0  0  0  0  0  0  0  0  0
   -1.9075   -0.4833   -0.0131 C   0  0  0  0  0  0  0  0  0  0  0  0
    1.9034    0.0376   -0.0099 C   0  0  0  0  0  0  0  0  0  0  0  0
   -5.5458    0.2147   -0.0162 C   0  0  0  0  0  0  0  0  0  0  0  0
    5.5843   -0.5324   -0.0068 C   0  0  0  0  0  0  0  0  0  0  0  0
  -13.0660   -0.0522    0.0326 C   0  0  0  0  0  0  0  0  0  0  0  0
   13.0159    0.6619    0.0244 C   0  0  0  0  0  0  0  0  0  0  0  0
   -8.1367    1.7054   -0.0901 C   0  0  0  0  0  0  0  0  0  0  0  0
    8.3018   -1.7991    0.0361 C   0  0  0  0  0  0  0  0  0  0  0  0
  -10.5676    0.0963    0.0157 C   0  0  0  0  0  0  0  0  0  0  0  0
   10.5729    0.1066   -0.0026 C   0  0  0  0  0  0  0  0  0  0  0  0
   -3.1395    1.6727   -0.0062 C   0  0  0  0  0  0  0  0  0  0  0  0
    3.0725   -2.1296   -0.0557 C   0  0  0  0  0  0  0  0  0  0  0  0
   -0.5857    0.1165   -0.0120 C   0  0  0  0  0  0  0  0  0  0  0  0
    0.5808   -0.5477   -0.0111 C   0  0  0  0  0  0  0  0  0  0  0  0
  -11.8360   -0.6027    0.0316 C   0  0  0  0  0  0  0  0  0  0  0  0
   11.7120    1.0014    0.0213 C   0  0  0  0  0  0  0  0  0  0  0  0
  -14.3725   -0.7980    0.0492 C   0  0  0  0  0  0  0  0  0  0  0  0
  -13.2225    1.4465    0.0173 C   0  0  0  0  0  0  0  0  0  0  0  0
   14.0764    1.7321    0.0509 C   0  0  0  0  0  0  0  0  0  0  0  0
   13.5672   -0.7375   -0.0077 C   0  0  0  0  0  0  0  0  0  0  0  0
   -6.8392   -1.5037    0.0311 H   0  0  0  0  0  0  0  0  0  0  0  0
    6.7336    1.2665   -0.0170 H   0  0  0  0  0  0  0  0  0  0  0  0
   -4.4028   -1.5594   -0.0141 H   0  0  0  0  0  0  0  0  0  0  0  0
    4.3301    1.1473   -0.0049 H   0  0  0  0  0  0  0  0  0  0  0  0
   -9.2859   -1.5448    0.0329 H   0  0  0  0  0  0  0  0  0  0  0  0
    9.1109    1.6146    0.0034 H   0  0  0  0  0  0  0  0  0  0  0  0
   -1.9213   -1.5726   -0.0151 H   0  0  0  0  0  0  0  0  0  0  0  0
    1.9219    1.1270    0.0022 H   0  0  0  0  0  0  0  0  0  0  0  0
   -5.5318    1.2932   -0.0088 H   0  0  0  0  0  0  0  0  0  0  0  0
    5.6220   -1.6133   -0.0073 H   0  0  0  0  0  0  0  0  0  0  0  0
   -7.1940    2.2413   -0.1943 H   0  0  0  0  0  0  0  0  0  0  0  0
   -8.6153    2.1122    0.8090 H   0  0  0  0  0  0  0  0  0  0  0  0
   -8.7261    2.0046   -0.9658 H   0  0  0  0  0  0  0  0  0  0  0  0
    8.9009   -2.0757    0.9122 H   0  0  0  0  0  0  0  0  0  0  0  0
    8.8341   -2.1309   -0.8632 H   0  0  0  0  0  0  0  0  0  0  0  0
    7.4000   -2.4069    0.0967 H   0  0  0  0  0  0  0  0  0  0  0  0
  -10.6439    1.1791   -0.0011 H   0  0  0  0  0  0  0  0  0  0  0  0
   10.7801   -0.9566   -0.0118 H   0  0  0  0  0  0  0  0  0  0  0  0
   -3.6495    2.0503   -0.9010 H   0  0  0  0  0  0  0  0  0  0  0  0
   -2.1756    2.1810    0.0010 H   0  0  0  0  0  0  0  0  0  0  0  0
   -3.6561    2.0410    0.8888 H   0  0  0  0  0  0  0  0  0  0  0  0
    3.6907   -2.4819   -0.8907 H   0  0  0  0  0  0  0  0  0  0  0  0
    2.1113   -2.6190   -0.2017 H   0  0  0  0  0  0  0  0  0  0  0  0
    3.4925   -2.5330    0.8732 H   0  0  0  0  0  0  0  0  0  0  0  0
   -0.5105    1.1977   -0.0203 H   0  0  0  0  0  0  0  0  0  0  0  0
    0.4935   -1.6276    0.0069 H   0  0  0  0  0  0  0  0  0  0  0  0
  -11.7671   -1.6894    0.0437 H   0  0  0  0  0  0  0  0  0  0  0  0
   11.4615    2.0616    0.0414 H   0  0  0  0  0  0  0  0  0  0  0  0
  -14.9689   -0.5440   -0.8329 H   0  0  0  0  0  0  0  0  0  0  0  0
  -14.2127   -1.8813    0.0448 H   0  0  0  0  0  0  0  0  0  0  0  0
  -14.9455   -0.5480    0.9479 H   0  0  0  0  0  0  0  0  0  0  0  0
  -12.6213    1.9266    0.7965 H   0  0  0  0  0  0  0  0  0  0  0  0
  -14.2614    1.7363    0.2121 H   0  0  0  0  0  0  0  0  0  0  0  0
  -12.9497    1.8536   -0.9618 H   0  0  0  0  0  0  0  0  0  0  0  0
   14.7122    1.6581   -0.8375 H   0  0  0  0  0  0  0  0  0  0  0  0
   13.6519    2.7414    0.0713 H   0  0  0  0  0  0  0  0  0  0  0  0
   14.7058    1.6197    0.9398 H   0  0  0  0  0  0  0  0  0  0  0  0
   12.8025   -1.5156   -0.0385 H   0  0  0  0  0  0  0  0  0  0  0  0
   14.1794   -0.9186    0.8823 H   0  0  0  0  0  0  0  0  0  0  0  0
   14.2000   -0.8702   -0.8919 H   0  0  0  0  0  0  0  0  0  0  0  0
  1  5  2  0  0  0  0
  1  9  1  0  0  0  0
  1 17  1  0  0  0  0
  2  6  2  0  0  0  0
  2 10  1  0  0  0  0
  2 18  1  0  0  0  0
  3  7  1  0  0  0  0
  3 11  2  0  0  0  0
  3 21  1  0  0  0  0
  4  8  1  0  0  0  0
  4 12  2  0  0  0  0
  4 22  1  0  0  0  0
  5 13  1  0  0  0  0
  5 31  1  0  0  0  0
  6 14  1  0  0  0  0
  6 32  1  0  0  0  0
  7 13  2  0  0  0  0
  7 33  1  0  0  0  0
  8 14  2  0  0  0  0
  8 34  1  0  0  0  0
  9 19  2  0  0  0  0
  9 35  1  0  0  0  0
 10 20  2  0  0  0  0
 10 36  1  0  0  0  0
 11 23  1  0  0  0  0
 11 37  1  0  0  0  0
 12 24  1  0  0  0  0
 12 38  1  0  0  0  0
 13 39  1  0  0  0  0
 14 40  1  0  0  0  0
 15 25  2  0  0  0  0
 15 27  1  0  0  0  0
 15 28  1  0  0  0  0
 16 26  2  0  0  0  0
 16 29  1  0  0  0  0
 16 30  1  0  0  0  0
 17 41  1  0  0  0  0
 17 42  1  0  0  0  0
 17 43  1  0  0  0  0
 18 44  1  0  0  0  0
 18 45  1  0  0  0  0
 18 46  1  0  0  0  0
 19 25  1  0  0  0  0
 19 47  1  0  0  0  0
 20 26  1  0  0  0  0
 20 48  1  0  0  0  0
 21 49  1  0  0  0  0
 21 50  1  0  0  0  0
 21 51  1  0  0  0  0
 22 52  1  0  0  0  0
 22 53  1  0  0  0  0
 22 54  1  0  0  0  0
 23 24  2  0  0  0  0
 23 55  1  0  0  0  0
 24 56  1  0  0  0  0
 25 57  1  0  0  0  0
 26 58  1  0  0  0  0
 27 59  1  0  0  0  0
 27 60  1  0  0  0  0
 27 61  1  0  0  0  0
 28 62  1  0  0  0  0
 28 63  1  0  0  0  0
 28 64  1  0  0  0  0
 29 65  1  0  0  0  0
 29 66  1  0  0  0  0
 29 67  1  0  0  0  0
 30 68  1  0  0  0  0
 30 69  1  0  0  0  0
 30 70  1  0  0  0  0
M  END
> <PUBCHEM_COMPOUND_CID>
16061259

> <PUBCHEM_CONFORMER_RMSD>
1

> <PUBCHEM_CONFORMER_DIVERSEORDER>
16
9
4
53
86
24
79
14
83
3
69
8
20
56
18
19
22
84
63
80
62
97
11
92
46
17
30
23
57
70
90
96
7
91
26
85
76
1
32
73
50
28
93
29
67
13
6
52
95
2
82
21
59
61
37
15
99
39
75
98
72
5
48
40
77
12
42
31
51
81
66
27
10
78
36
74
38
55
101
34
25
33
43
41
68
49
89
47
71
35
100
87
58
45
102
54
64
44
65
88
60
94

> <PUBCHEM_MMFF94_PARTIAL_CHARGES>
46
1 -0.14
10 -0.15
11 -0.15
12 -0.15
13 -0.15
14 -0.15
15 -0.28
16 -0.28
17 0.14
18 0.14
19 -0.15
2 -0.14
20 -0.15
21 0.14
22 0.14
23 -0.15
24 -0.15
25 -0.15
26 -0.15
27 0.14
28 0.14
29 0.14
3 -0.14
30 0.14
31 0.15
32 0.15
33 0.15
34 0.15
35 0.15
36 0.15
37 0.15
38 0.15
39 0.15
4 -0.14
40 0.15
47 0.15
48 0.15
5 -0.15
55 0.15
56 0.15
57 0.15
58 0.15
6 -0.15
7 -0.15
8 -0.15
9 -0.15

> <PUBCHEM_EFFECTIVE_ROTOR_COUNT>
10

> <PUBCHEM_PHARMACOPHORE_FEATURES>
6
1 17 hydrophobe
1 18 hydrophobe
1 21 hydrophobe
1 22 hydrophobe
3 15 27 28 hydrophobe
3 16 29 30 hydrophobe

> <PUBCHEM_HEAVY_ATOM_COUNT>
30

> <PUBCHEM_ATOM_DEF_STEREO_COUNT>
0

> <PUBCHEM_ATOM_UDEF_STEREO_COUNT>
0

> <PUBCHEM_BOND_DEF_STEREO_COUNT>
9

> <PUBCHEM_BOND_UDEF_STEREO_COUNT>
0

> <PUBCHEM_ISOTOPIC_ATOM_COUNT>
0

> <PUBCHEM_COMPONENT_COUNT>
1

> <PUBCHEM_CACTVS_TAUTO_COUNT>
1

> <PUBCHEM_CONFORMER_ID>
00F5134B00000010

> <PUBCHEM_MMFF94_ENERGY>
69.7311

> <PUBCHEM_FEATURE_SELFOVERLAP>
30.446

> <PUBCHEM_SHAPE_FINGERPRINT>
12013929 2 7493285538947956415
12559415 90 18273217533727761317
14251764 46 18410573989451699682
14251920 1 18410855464423129090
14251920 17 18410575084663078914
15061470 23 18343022211286932941
15219723 13 17203336642075245690
15274700 256 18272933835176803637
155225 1 18410293602346712312
16728433 110 18409449163893829928
21026386 74 5905752412196527762
21043394 1 18410855460128161794
21057603 130 18130509657403368151
21057603 192 8069760580877729883
21362035 10 17697891616858729194
22082594 50 6266360271671458619
22978887 1 18411136922267878672
232437 2 18408041819132829463
23399689 5 18187081754174345208
23581129 1 18411982459546632199
67123 10 18410575093253020007
9663363 56 16271928211647182965

> <PUBCHEM_SHAPE_MULTIPOLES>
617.39
76.76
1.41
0.62
1.19
0.06
0
14.17
-1.17
-1.19
0.01
0
0
0.11

> <PUBCHEM_SHAPE_SELFOVERLAP>
1209.519

> <PUBCHEM_SHAPE_VOLUME>
360.6

> <PUBCHEM_COORDINATE_TYPE>
2
5
10

$$$$

