854103
  -OEChem-06241222473D

 47 49  0     1  0  0  0  0  0999 V2000
    0.6992    0.5802   -0.7869 O   0  0  0  0  0  0  0  0  0  0  0  0
   -0.5315   -1.3326   -0.4240 O   0  0  0  0  0  0  0  0  0  0  0  0
    3.5291   -0.6994    0.8523 N   0  3  0  0  0  0  0  0  0  0  0  0
    3.0831    0.6871   -1.2749 C   0  0  0  0  0  0  0  0  0  0  0  0
    2.1393   -1.0510    0.2930 C   0  0  0  0  0  0  0  0  0  0  0  0
    1.8747   -0.2066   -0.9575 C   0  0  1  0  0  0  0  0  0  0  0  0
    3.5768    0.7954    1.1942 C   0  0  0  0  0  0  0  0  0  0  0  0
    4.5976   -1.0157   -0.2051 C   0  0  0  0  0  0  0  0  0  0  0  0
    3.3622    1.6106   -0.0804 C   0  0  0  0  0  0  0  0  0  0  0  0
    4.3054   -0.2142   -1.4746 C   0  0  0  0  0  0  0  0  0  0  0  0
    3.7951   -1.5181    2.1068 C   0  0  0  0  0  0  0  0  0  0  0  0
   -0.4515   -0.1150   -0.5211 C   0  0  0  0  0  0  0  0  0  0  0  0
   -1.6166    0.8589   -0.3747 C   0  0  2  0  0  0  0  0  0  0  0  0
   -1.3034    1.8914    0.7270 C   0  0  0  0  0  0  0  0  0  0  0  0
   -2.9316    0.1222   -0.1702 C   0  0  0  0  0  0  0  0  0  0  0  0
   -2.3636    2.9799    0.8426 C   0  0  0  0  0  0  0  0  0  0  0  0
   -3.6803   -0.2272   -1.2760 C   0  0  0  0  0  0  0  0  0  0  0  0
   -3.3374   -0.1758    1.1151 C   0  0  0  0  0  0  0  0  0  0  0  0
   -4.8861   -0.9031   -1.0886 C   0  0  0  0  0  0  0  0  0  0  0  0
   -4.5432   -0.8518    1.3023 C   0  0  0  0  0  0  0  0  0  0  0  0
   -5.3175   -1.2154    0.2005 C   0  0  0  0  0  0  0  0  0  0  0  0
    2.8910    1.2922   -2.1677 H   0  0  0  0  0  0  0  0  0  0  0  0
    1.4293   -0.8768    1.1085 H   0  0  0  0  0  0  0  0  0  0  0  0
    2.1597   -2.1200    0.0512 H   0  0  0  0  0  0  0  0  0  0  0  0
    1.7003   -0.8710   -1.8149 H   0  0  0  0  0  0  0  0  0  0  0  0
    4.5537    1.0058    1.6440 H   0  0  0  0  0  0  0  0  0  0  0  0
    2.7917    0.9914    1.9333 H   0  0  0  0  0  0  0  0  0  0  0  0
    4.5693   -2.0943   -0.3970 H   0  0  0  0  0  0  0  0  0  0  0  0
    5.5726   -0.7525    0.2205 H   0  0  0  0  0  0  0  0  0  0  0  0
    2.5342    2.3141    0.0678 H   0  0  0  0  0  0  0  0  0  0  0  0
    4.2493    2.2250   -0.2778 H   0  0  0  0  0  0  0  0  0  0  0  0
    5.1840    0.3866   -1.7393 H   0  0  0  0  0  0  0  0  0  0  0  0
    4.1405   -0.8998   -2.3146 H   0  0  0  0  0  0  0  0  0  0  0  0
    3.7460   -2.5789    1.8444 H   0  0  0  0  0  0  0  0  0  0  0  0
    4.7903   -1.2624    2.4819 H   0  0  0  0  0  0  0  0  0  0  0  0
    3.0312   -1.2714    2.8499 H   0  0  0  0  0  0  0  0  0  0  0  0
   -1.6839    1.4002   -1.3297 H   0  0  0  0  0  0  0  0  0  0  0  0
   -0.3559    2.3937    0.4918 H   0  0  0  0  0  0  0  0  0  0  0  0
   -1.1354    1.4183    1.7011 H   0  0  0  0  0  0  0  0  0  0  0  0
   -2.5248    3.4723   -0.1219 H   0  0  0  0  0  0  0  0  0  0  0  0
   -2.0351    3.7431    1.5560 H   0  0  0  0  0  0  0  0  0  0  0  0
   -3.3231    2.5948    1.1970 H   0  0  0  0  0  0  0  0  0  0  0  0
   -3.3512    0.0092   -2.2834 H   0  0  0  0  0  0  0  0  0  0  0  0
   -2.7513    0.0671    1.9936 H   0  0  0  0  0  0  0  0  0  0  0  0
   -5.4884   -1.1872   -1.9465 H   0  0  0  0  0  0  0  0  0  0  0  0
   -4.8768   -1.1005    2.3056 H   0  0  0  0  0  0  0  0  0  0  0  0
   -6.2554   -1.7430    0.3463 H   0  0  0  0  0  0  0  0  0  0  0  0
  1  6  1  0  0  0  0
  1 12  1  0  0  0  0
  2 12  2  0  0  0  0
  3  5  1  0  0  0  0
  3  7  1  0  0  0  0
  3  8  1  0  0  0  0
  3 11  1  0  0  0  0
  4  6  1  0  0  0  0
  4  9  1  0  0  0  0
  4 10  1  0  0  0  0
  4 22  1  0  0  0  0
  5  6  1  0  0  0  0
  5 23  1  0  0  0  0
  5 24  1  0  0  0  0
  6 25  1  0  0  0  0
  7  9  1  0  0  0  0
  7 26  1  0  0  0  0
  7 27  1  0  0  0  0
  8 10  1  0  0  0  0
  8 28  1  0  0  0  0
  8 29  1  0  0  0  0
  9 30  1  0  0  0  0
  9 31  1  0  0  0  0
 10 32  1  0  0  0  0
 10 33  1  0  0  0  0
 11 34  1  0  0  0  0
 11 35  1  0  0  0  0
 11 36  1  0  0  0  0
 12 13  1  0  0  0  0
 13 14  1  0  0  0  0
 13 15  1  0  0  0  0
 13 37  1  0  0  0  0
 14 16  1  0  0  0  0
 14 38  1  0  0  0  0
 14 39  1  0  0  0  0
 15 17  2  0  0  0  0
 15 18  1  0  0  0  0
 16 40  1  0  0  0  0
 16 41  1  0  0  0  0
 16 42  1  0  0  0  0
 17 19  1  0  0  0  0
 17 43  1  0  0  0  0
 18 20  2  0  0  0  0
 18 44  1  0  0  0  0
 19 21  2  0  0  0  0
 19 45  1  0  0  0  0
 20 21  1  0  0  0  0
 20 46  1  0  0  0  0
 21 47  1  0  0  0  0
M  CHG  1   3   1
M  END
> <PUBCHEM_COMPOUND_CID>
854103

> <PUBCHEM_CONFORMER_RMSD>
0.8

> <PUBCHEM_CONFORMER_DIVERSEORDER>
1
34
42
37
14
2
10
41
32
43
39
18
3
31
9
24
27
7
17
25
12
13
16
30
20
15
26
40
21
28
8
6
22
35
33
4
19
11
5
23
36
38
29

> <PUBCHEM_MMFF94_PARTIAL_CHARGES>
21
1 -0.43
11 0.5
12 0.66
13 0.2
15 -0.14
17 -0.15
18 -0.15
19 -0.15
2 -0.57
20 -0.15
21 -0.15
3 -1.01
43 0.15
44 0.15
45 0.15
46 0.15
47 0.15
5 0.5
6 0.28
7 0.5
8 0.5

> <PUBCHEM_EFFECTIVE_ROTOR_COUNT>
6.2

> <PUBCHEM_PHARMACOPHORE_FEATURES>
5
1 16 hydrophobe
1 2 acceptor
1 3 cation
6 15 17 18 19 20 21 rings
8 3 4 5 6 7 8 9 10 rings

> <PUBCHEM_HEAVY_ATOM_COUNT>
21

> <PUBCHEM_ATOM_DEF_STEREO_COUNT>
2

> <PUBCHEM_ATOM_UDEF_STEREO_COUNT>
0

> <PUBCHEM_BOND_DEF_STEREO_COUNT>
0

> <PUBCHEM_BOND_UDEF_STEREO_COUNT>
0

> <PUBCHEM_ISOTOPIC_ATOM_COUNT>
0

> <PUBCHEM_COMPONENT_COUNT>
1

> <PUBCHEM_CACTVS_TAUTO_COUNT>
1

> <PUBCHEM_CONFORMER_ID>
000D085700000001

> <PUBCHEM_MMFF94_ENERGY>
60.3862

> <PUBCHEM_FEATURE_SELFOVERLAP>
25.371

> <PUBCHEM_SHAPE_FINGERPRINT>
10366900 7 18410567379676593970
11132069 177 17385725798714659453
11370993 144 15502641746284807463
11370993 70 16630530605084828803
11545043 162 17823134695713735998
11595378 159 18260830418649328441
11615757 297 18060132154679279868
11796584 16 17275110501007504179
12107183 9 16912303759557182649
12236239 1 18273213118954633158
12403259 415 16950285135082793408
12553582 1 18260827081834136351
12596602 18 18342744026877364744
128620 24 18408602552434473575
12892183 10 18118143548361120178
13167823 11 16988847168063556211
13224815 77 18334293179999843221
13533116 47 17917997195619380123
13544592 145 12391521909618908872
13544653 18 18411981330529636541
13583140 156 17703510987032881239
14178342 30 18120094137121684152
14289901 80 18114179773839359351
14573314 32 15769779052503835095
15183329 4 16774089479485545415
15239154 128 13840262581030451915
15342168 16 14201976574730084898
15375358 24 13542457644733825164
15788980 27 18410294713904465759
15806764 133 16950837115563620984
16752209 62 18335985354038044341
17349148 13 18342736316983800151
1813 80 18114179692778780401
18186145 218 16515684485148732276
18222031 100 17968098582228072829
200 152 18272088297084601231
20279233 1 13398625048421213380
20645477 70 16272213007092757090
20871999 31 9871167445922368489
22646028 1 18272932730140515607
22854114 59 17385160645137027687
23402539 116 18333448755428225845
23557571 272 17603859044278354333
23559900 14 16917351428530001254
26918003 58 18202003218306445187
300161 21 11671781537873266358
3004659 81 15985111824992825962
312423 11 18341321275588995684
3286 77 18342466971284799312
33382 64 17418083283770069315
495365 180 14908187413015186588
5104073 3 18410294743589831928
5281201 14 17168136871410064844
5283173 99 17488758881886365125
5374978 207 18334017172453118928
633830 44 5184345200851709652
6442390 28 16153710873365741190
6913067 236 17531826713364350445
960060 61 14836123286432182698

> <PUBCHEM_SHAPE_MULTIPOLES>
415.45
11.6
1.91
1.56
3.46
1.37
-0.3
-4.15
-0.55
0.61
-0.68
-0.75
-0.31
-0.88

> <PUBCHEM_SHAPE_SELFOVERLAP>
873.038

> <PUBCHEM_SHAPE_VOLUME>
232.2

> <PUBCHEM_COORDINATE_TYPE>
2
5
10

$$$$

