17395543
  -OEChem-06241222513D

 42 44  0     0  0  0  0  0  0999 V2000
   -1.5816   -4.0438   -0.4911 O   0  0  0  0  0  0  0  0  0  0  0  0
    2.2302    0.3966    2.2043 O   0  0  0  0  0  0  0  0  0  0  0  0
    5.2732   -0.6030   -0.5814 O   0  0  0  0  0  0  0  0  0  0  0  0
   -2.1185   -1.3795    0.3542 N   0  0  0  0  0  0  0  0  0  0  0  0
    1.2458    1.4113    0.3851 N   0  0  0  0  0  0  0  0  0  0  0  0
   -1.0322   -1.6829   -0.5877 C   0  0  0  0  0  0  0  0  0  0  0  0
   -2.3524   -2.5286    1.2400 C   0  0  0  0  0  0  0  0  0  0  0  0
   -1.8122   -0.1799    1.1305 C   0  0  0  0  0  0  0  0  0  0  0  0
   -1.3691   -2.9444   -1.3773 C   0  0  0  0  0  0  0  0  0  0  0  0
   -2.6573   -3.7708    0.4076 C   0  0  0  0  0  0  0  0  0  0  0  0
   -2.0409    1.0772    0.3342 C   0  0  0  0  0  0  0  0  0  0  0  0
   -1.1071    2.1134    0.3444 C   0  0  0  0  0  0  0  0  0  0  0  0
   -3.2068    1.1967   -0.4224 C   0  0  0  0  0  0  0  0  0  0  0  0
    0.1483    2.0084    1.1465 C   0  0  0  0  0  0  0  0  0  0  0  0
   -1.3391    3.2688   -0.4020 C   0  0  0  0  0  0  0  0  0  0  0  0
   -3.4388    2.3521   -1.1685 C   0  0  0  0  0  0  0  0  0  0  0  0
   -2.5050    3.3881   -1.1584 C   0  0  0  0  0  0  0  0  0  0  0  0
    2.2126    0.6396    0.9980 C   0  0  0  0  0  0  0  0  0  0  0  0
    3.2651    0.1400    0.1023 C   0  0  0  0  0  0  0  0  0  0  0  0
    3.1947   -0.1199   -1.2871 C   0  0  0  0  0  0  0  0  0  0  0  0
    4.5498   -0.1696    0.4841 C   0  0  0  0  0  0  0  0  0  0  0  0
    4.4413   -0.5697   -1.6553 C   0  0  0  0  0  0  0  0  0  0  0  0
   -0.0893   -1.8383   -0.0467 H   0  0  0  0  0  0  0  0  0  0  0  0
   -0.8823   -0.8606   -1.2960 H   0  0  0  0  0  0  0  0  0  0  0  0
   -3.2020   -2.3328    1.9041 H   0  0  0  0  0  0  0  0  0  0  0  0
   -1.4677   -2.7139    1.8633 H   0  0  0  0  0  0  0  0  0  0  0  0
   -0.8066   -0.2742    1.5474 H   0  0  0  0  0  0  0  0  0  0  0  0
   -2.4891   -0.1071    1.9935 H   0  0  0  0  0  0  0  0  0  0  0  0
   -0.5348   -3.2053   -2.0363 H   0  0  0  0  0  0  0  0  0  0  0  0
   -2.2568   -2.8033   -2.0060 H   0  0  0  0  0  0  0  0  0  0  0  0
   -3.5891   -3.6586   -0.1601 H   0  0  0  0  0  0  0  0  0  0  0  0
   -2.7716   -4.6399    1.0632 H   0  0  0  0  0  0  0  0  0  0  0  0
   -3.9558    0.4093   -0.4362 H   0  0  0  0  0  0  0  0  0  0  0  0
    0.0053    1.5083    2.1092 H   0  0  0  0  0  0  0  0  0  0  0  0
    0.4936    3.0154    1.4157 H   0  0  0  0  0  0  0  0  0  0  0  0
   -0.6199    4.0836   -0.4063 H   0  0  0  0  0  0  0  0  0  0  0  0
   -4.3478    2.4465   -1.7552 H   0  0  0  0  0  0  0  0  0  0  0  0
   -2.6858    4.2877   -1.7394 H   0  0  0  0  0  0  0  0  0  0  0  0
    1.3188    1.6352   -0.6030 H   0  0  0  0  0  0  0  0  0  0  0  0
    2.3461   -0.0035   -1.9464 H   0  0  0  0  0  0  0  0  0  0  0  0
    5.0813   -0.1386    1.4245 H   0  0  0  0  0  0  0  0  0  0  0  0
    4.8737   -0.8909   -2.5917 H   0  0  0  0  0  0  0  0  0  0  0  0
  1  9  1  0  0  0  0
  1 10  1  0  0  0  0
  2 18  2  0  0  0  0
  3 21  1  0  0  0  0
  3 22  1  0  0  0  0
  4  6  1  0  0  0  0
  4  7  1  0  0  0  0
  4  8  1  0  0  0  0
  5 14  1  0  0  0  0
  5 18  1  0  0  0  0
  5 39  1  0  0  0  0
  6  9  1  0  0  0  0
  6 23  1  0  0  0  0
  6 24  1  0  0  0  0
  7 10  1  0  0  0  0
  7 25  1  0  0  0  0
  7 26  1  0  0  0  0
  8 11  1  0  0  0  0
  8 27  1  0  0  0  0
  8 28  1  0  0  0  0
  9 29  1  0  0  0  0
  9 30  1  0  0  0  0
 10 31  1  0  0  0  0
 10 32  1  0  0  0  0
 11 12  1  0  0  0  0
 11 13  2  0  0  0  0
 12 14  1  0  0  0  0
 12 15  2  0  0  0  0
 13 16  1  0  0  0  0
 13 33  1  0  0  0  0
 14 34  1  0  0  0  0
 14 35  1  0  0  0  0
 15 17  1  0  0  0  0
 15 36  1  0  0  0  0
 16 17  2  0  0  0  0
 16 37  1  0  0  0  0
 17 38  1  0  0  0  0
 18 19  1  0  0  0  0
 19 20  1  0  0  0  0
 19 21  2  0  0  0  0
 20 22  2  0  0  0  0
 20 40  1  0  0  0  0
 21 41  1  0  0  0  0
 22 42  1  0  0  0  0
M  END
> <PUBCHEM_COMPOUND_CID>
17395543

> <PUBCHEM_CONFORMER_RMSD>
0.8

> <PUBCHEM_CONFORMER_DIVERSEORDER>
4
105
99
2
84
145
104
13
82
58
32
79
141
161
67
130
109
149
124
160
113
125
43
108
167
22
156
139
116
107
165
146
140
63
92
122
54
121
37
77
69
162
16
164
166
68
106
72
74
49
182
173
170
185
26
171
128
31
143
60
98
42
12
23
115
52
150
56
153
142
21
34
61
137
65
90
179
86
51
62
83
181
88
103
172
184
135
33
24
20
110
40
117
70
127
85
44
91
38
144
177
148
175
18
48
66
46
152
131
94
180
80
114
9
136
7
11
129
87
95
5
126
29
168
97
47
89
81
154
8
112
30
55
28
53
134
14
186
71
101
157
73
138
123
100
10
132
39
93
159
119
176
17
163
76
147
102
57
118
15
151
19
133
50
6
45
27
25
120
3
78
111
174
178
41
183
75
59
158
169
155
96
1
35
36
64

> <PUBCHEM_MMFF94_PARTIAL_CHARGES>
30
1 -0.56
10 0.28
11 -0.14
12 -0.14
13 -0.15
14 0.44
15 -0.15
16 -0.15
17 -0.15
18 0.72
19 -0.09
2 -0.57
20 -0.15
21 -0.01
22 -0.01
3 -0.28
33 0.15
36 0.15
37 0.15
38 0.15
39 0.37
4 -0.81
40 0.15
41 0.15
42 0.15
5 -0.73
6 0.27
7 0.27
8 0.41
9 0.28

> <PUBCHEM_EFFECTIVE_ROTOR_COUNT>
7.2

> <PUBCHEM_PHARMACOPHORE_FEATURES>
8
1 1 acceptor
1 2 acceptor
1 3 acceptor
1 4 cation
1 5 donor
5 3 19 20 21 22 rings
6 1 4 6 7 9 10 rings
6 11 12 13 15 16 17 rings

> <PUBCHEM_HEAVY_ATOM_COUNT>
22

> <PUBCHEM_ATOM_DEF_STEREO_COUNT>
0

> <PUBCHEM_ATOM_UDEF_STEREO_COUNT>
0

> <PUBCHEM_BOND_DEF_STEREO_COUNT>
0

> <PUBCHEM_BOND_UDEF_STEREO_COUNT>
0

> <PUBCHEM_ISOTOPIC_ATOM_COUNT>
0

> <PUBCHEM_COMPONENT_COUNT>
1

> <PUBCHEM_CACTVS_TAUTO_COUNT>
2

> <PUBCHEM_CONFORMER_ID>
01096F5700000004

> <PUBCHEM_MMFF94_ENERGY>
40.725

> <PUBCHEM_FEATURE_SELFOVERLAP>
40.594

> <PUBCHEM_SHAPE_FINGERPRINT>
107951 10 17701522125027731035
11370993 70 18124030389012957764
12403259 327 15649560512633555379
12553582 1 17690565182366322451
12714826 92 18336536140865662138
12788726 201 18131075909295193931
13257819 37 18200312255427968549
133893 2 17186724360196139849
13402501 40 18186795902678395975
13785724 45 17907280067201233059
14251751 93 18201711882005799106
14251757 5 18411694396417293252
15163728 17 17198548426721533717
15463212 79 17988924496315341648
15475509 35 5107728027073955757
15664445 248 17477193930416757373
16752209 62 18342188785931199553
17357779 13 18043826298434112719
1813 80 17979631239100863323
20567600 347 18051705626756077341
20602899 9 18263083378241710537
20645476 183 17845935242152755721
21344244 181 18042141933105288215
21421566 26 18270663295291716732
22849339 104 18339347652116826902
22907989 373 18341602711847834029
22956985 138 7703471467269107332
23366157 5 17047118265285093433
23557571 272 18264785280570929688
23559900 14 18261957444797724384
23598288 3 17988061349163804156
26353 1 17911806773472276013
3298306 158 18049166858211724055
4409770 3 18410851092183546606
81228 2 18193575371606548569
9709674 26 18262250919021945112
9981440 41 18125157396973759905

> <PUBCHEM_SHAPE_MULTIPOLES>
425.18
7.87
4.79
1.54
12.26
3.32
-0.09
-0.21
2.15
-7.24
0.97
0.6
0.03
1.51

> <PUBCHEM_SHAPE_SELFOVERLAP>
903.288

> <PUBCHEM_SHAPE_VOLUME>
237.8

> <PUBCHEM_COORDINATE_TYPE>
2
5
10

$$$$

