5281445
  -OEChem-07051212572D

 54 55  0     1  0  0  0  0  0999 V2000
    9.5453   -2.2172    0.0000 O   0  0  0  0  0  0  0  0  0  0  0  0
    7.7331    0.5875    0.0000 O   0  0  0  0  0  0  0  0  0  0  0  0
    6.0010   -3.4125    0.0000 O   0  0  0  0  0  0  0  0  0  0  0  0
   11.1289   -1.4125    0.0000 O   0  0  0  0  0  0  0  0  0  0  0  0
    2.5369   -0.4125    0.0000 O   0  0  0  0  0  0  0  0  0  0  0  0
    9.2331    1.4535    0.0000 O   0  0  0  0  0  0  0  0  0  0  0  0
    8.5991   -0.9125    0.0000 C   0  0  2  0  0  0  0  0  0  0  0  0
    8.5991   -1.9125    0.0000 C   0  0  1  0  0  0  0  0  0  0  0  0
    7.7331   -0.4125    0.0000 C   0  0  1  0  0  0  0  0  0  0  0  0
    6.8671   -0.9125    0.0000 C   0  0  0  0  0  0  0  0  0  0  0  0
    7.7331   -2.4125    0.0000 C   0  0  0  0  0  0  0  0  0  0  0  0
    6.8671   -1.9125    0.0000 C   0  0  0  0  0  0  0  0  0  0  0  0
    6.0010   -0.4125    0.0000 C   0  0  2  0  0  0  0  0  0  0  0  0
    9.5453   -0.6078    0.0000 C   0  0  0  0  0  0  0  0  0  0  0  0
    5.1350   -0.9125    0.0000 C   0  0  0  0  0  0  0  0  0  0  0  0
   10.1289   -1.4125    0.0000 C   0  0  0  0  0  0  0  0  0  0  0  0
    6.0010   -2.4125    0.0000 C   0  0  0  0  0  0  0  0  0  0  0  0
    6.0010    0.5875    0.0000 C   0  0  0  0  0  0  0  0  0  0  0  0
    4.2690   -0.4125    0.0000 C   0  0  0  0  0  0  0  0  0  0  0  0
   10.2896    0.0601    0.0000 C   0  0  0  0  0  0  0  0  0  0  0  0
    8.2331    1.4535    0.0000 C   0  0  0  0  0  0  0  0  0  0  0  0
    3.4030   -0.9125    0.0000 C   0  0  0  0  0  0  0  0  0  0  0  0
    7.7331    2.3195    0.0000 C   0  0  0  0  0  0  0  0  0  0  0  0
    6.7331    2.3195    0.0000 C   0  0  0  0  0  0  0  0  0  0  0  0
    8.2331    3.1856    0.0000 C   0  0  0  0  0  0  0  0  0  0  0  0
    9.2331    3.1856    0.0000 C   0  0  0  0  0  0  0  0  0  0  0  0
    8.6891   -0.0673    0.0000 H   0  0  0  0  0  0  0  0  0  0  0  0
    8.6891   -2.7577    0.0000 H   0  0  0  0  0  0  0  0  0  0  0  0
    8.2700   -0.1025    0.0000 H   0  0  0  0  0  0  0  0  0  0  0  0
    7.3346   -2.8874    0.0000 H   0  0  0  0  0  0  0  0  0  0  0  0
    8.1316   -2.8874    0.0000 H   0  0  0  0  0  0  0  0  0  0  0  0
    6.5380   -0.1025    0.0000 H   0  0  0  0  0  0  0  0  0  0  0  0
    4.7365   -1.3874    0.0000 H   0  0  0  0  0  0  0  0  0  0  0  0
    5.5335   -1.3874    0.0000 H   0  0  0  0  0  0  0  0  0  0  0  0
    5.7890   -1.8299    0.0000 H   0  0  0  0  0  0  0  0  0  0  0  0
    5.3905   -2.5202    0.0000 H   0  0  0  0  0  0  0  0  0  0  0  0
    6.6210    0.5875    0.0000 H   0  0  0  0  0  0  0  0  0  0  0  0
    6.0010    1.2075    0.0000 H   0  0  0  0  0  0  0  0  0  0  0  0
    5.3810    0.5875    0.0000 H   0  0  0  0  0  0  0  0  0  0  0  0
    4.6675    0.0624    0.0000 H   0  0  0  0  0  0  0  0  0  0  0  0
    3.8705    0.0624    0.0000 H   0  0  0  0  0  0  0  0  0  0  0  0
   10.8790   -0.1325    0.0000 H   0  0  0  0  0  0  0  0  0  0  0  0
   10.1618    0.6667    0.0000 H   0  0  0  0  0  0  0  0  0  0  0  0
    3.0044   -1.3874    0.0000 H   0  0  0  0  0  0  0  0  0  0  0  0
    3.8015   -1.3874    0.0000 H   0  0  0  0  0  0  0  0  0  0  0  0
    5.4641   -3.7225    0.0000 H   0  0  0  0  0  0  0  0  0  0  0  0
    2.0000   -0.7225    0.0000 H   0  0  0  0  0  0  0  0  0  0  0  0
    6.7331    2.9395    0.0000 H   0  0  0  0  0  0  0  0  0  0  0  0
    6.1131    2.3195    0.0000 H   0  0  0  0  0  0  0  0  0  0  0  0
    6.7331    1.6995    0.0000 H   0  0  0  0  0  0  0  0  0  0  0  0
    7.9231    3.7225    0.0000 H   0  0  0  0  0  0  0  0  0  0  0  0
    9.2331    2.5656    0.0000 H   0  0  0  0  0  0  0  0  0  0  0  0
    9.8531    3.1856    0.0000 H   0  0  0  0  0  0  0  0  0  0  0  0
    9.2331    3.8056    0.0000 H   0  0  0  0  0  0  0  0  0  0  0  0
  1  8  1  0  0  0  0
  1 16  1  0  0  0  0
  9  2  1  1  0  0  0
  2 21  1  0  0  0  0
  3 17  1  0  0  0  0
  3 46  1  0  0  0  0
  4 16  2  0  0  0  0
  5 22  1  0  0  0  0
  5 47  1  0  0  0  0
  6 21  2  0  0  0  0
  7  8  1  0  0  0  0
  7  9  1  0  0  0  0
  7 14  1  0  0  0  0
  7 27  1  1  0  0  0
  8 11  1  0  0  0  0
  8 28  1  1  0  0  0
  9 10  1  0  0  0  0
  9 29  1  0  0  0  0
 10 12  2  0  0  0  0
 10 13  1  0  0  0  0
 11 12  1  0  0  0  0
 11 30  1  0  0  0  0
 11 31  1  0  0  0  0
 12 17  1  0  0  0  0
 13 15  1  0  0  0  0
 13 18  1  6  0  0  0
 13 32  1  0  0  0  0
 14 16  1  0  0  0  0
 14 20  2  0  0  0  0
 15 19  1  0  0  0  0
 15 33  1  0  0  0  0
 15 34  1  0  0  0  0
 17 35  1  0  0  0  0
 17 36  1  0  0  0  0
 18 37  1  0  0  0  0
 18 38  1  0  0  0  0
 18 39  1  0  0  0  0
 19 22  1  0  0  0  0
 19 40  1  0  0  0  0
 19 41  1  0  0  0  0
 20 42  1  0  0  0  0
 20 43  1  0  0  0  0
 21 23  1  0  0  0  0
 22 44  1  0  0  0  0
 22 45  1  0  0  0  0
 23 24  1  0  0  0  0
 23 25  2  0  0  0  0
 24 48  1  0  0  0  0
 24 49  1  0  0  0  0
 24 50  1  0  0  0  0
 25 26  1  0  0  0  0
 25 51  1  0  0  0  0
 26 52  1  0  0  0  0
 26 53  1  0  0  0  0
 26 54  1  0  0  0  0
M  END
> <PUBCHEM_COMPOUND_CID>
5281445

> <PUBCHEM_COMPOUND_CANONICALIZED>
1

> <PUBCHEM_CACTVS_COMPLEXITY>
645

> <PUBCHEM_CACTVS_HBOND_ACCEPTOR>
6

> <PUBCHEM_CACTVS_HBOND_DONOR>
2

> <PUBCHEM_CACTVS_ROTATABLE_BOND>
8

> <PUBCHEM_CACTVS_SUBSKEYS>
AAADceB4OAAAAAAAAAAAAAAAAAAAASAAAAAgAAAAAAAAAEAAAAAAGgAACAAADRSggAICCAAABgCIAiDSCAAAAAAgAAAACAEAAEgAFBIAIQACUAAFwAAIMYPKyPCOAAAAAAAAAAAAAAAAAAAAAAAAAAAAAA==

> <PUBCHEM_IUPAC_OPENEYE_NAME>
[(3aR,4S,7aR)-6-(hydroxymethyl)-5-[(1S)-4-hydroxy-1-methyl-butyl]-3-methylene-2-oxo-3a,4,7,7a-tetrahydrobenzofuran-4-yl] (Z)-2-methylbut-2-enoate

> <PUBCHEM_IUPAC_CAS_NAME>
(Z)-2-methyl-2-butenoic acid [(3aR,4S,7aR)-6-(hydroxymethyl)-5-[(2S)-5-hydroxypentan-2-yl]-3-methylene-2-oxo-3a,4,7,7a-tetrahydrobenzofuran-4-yl] ester

> <PUBCHEM_IUPAC_NAME>
[(3aR,4S,7aR)-6-(hydroxymethyl)-5-[(2S)-5-hydroxypentan-2-yl]-3-methylidene-2-oxo-3a,4,7,7a-tetrahydro-1-benzofuran-4-yl] (Z)-2-methylbut-2-enoate

> <PUBCHEM_IUPAC_SYSTEMATIC_NAME>
[(3aR,4S,7aR)-6-(hydroxymethyl)-3-methylidene-2-oxidanylidene-5-[(2S)-5-oxidanylpentan-2-yl]-3a,4,7,7a-tetrahydro-1-benzofuran-4-yl] (Z)-2-methylbut-2-enoate

> <PUBCHEM_IUPAC_TRADITIONAL_NAME>
(Z)-2-methylbut-2-enoic acid [(3aR,4S,7aR)-5-[(1S)-4-hydroxy-1-methyl-butyl]-2-keto-3-methylene-6-methylol-3a,4,7,7a-tetrahydrobenzofuran-4-yl] ester

> <PUBCHEM_IUPAC_INCHI>
InChI=1S/C20H28O6/c1-5-11(2)19(23)26-18-16(12(3)7-6-8-21)14(10-22)9-15-17(18)13(4)20(24)25-15/h5,12,15,17-18,21-22H,4,6-10H2,1-3H3/b11-5-/t12-,15+,17+,18+/m0/s1

> <PUBCHEM_IUPAC_INCHIKEY>
FCDRLRIIZKINNV-WLHXTXINSA-N

> <PUBCHEM_XLOGP3_AA>
1.3

> <PUBCHEM_EXACT_MASS>
364.188589

> <PUBCHEM_MOLECULAR_FORMULA>
C20H28O6

> <PUBCHEM_MOLECULAR_WEIGHT>
364.43272

> <PUBCHEM_OPENEYE_CAN_SMILES>
CC=C(C)C(=O)OC1C2C(CC(=C1C(C)CCCO)CO)OC(=O)C2=C

> <PUBCHEM_OPENEYE_ISO_SMILES>
C/C=C(/C)\C(=O)O[C@H]1[C@H]2[C@@H](CC(=C1[C@@H](C)CCCO)CO)OC(=O)C2=C

> <PUBCHEM_CACTVS_TPSA>
93.1

> <PUBCHEM_MONOISOTOPIC_WEIGHT>
364.188589

> <PUBCHEM_TOTAL_CHARGE>
0

> <PUBCHEM_HEAVY_ATOM_COUNT>
26

> <PUBCHEM_ATOM_DEF_STEREO_COUNT>
4

> <PUBCHEM_ATOM_UDEF_STEREO_COUNT>
0

> <PUBCHEM_BOND_DEF_STEREO_COUNT>
1

> <PUBCHEM_BOND_UDEF_STEREO_COUNT>
0

> <PUBCHEM_ISOTOPIC_ATOM_COUNT>
0

> <PUBCHEM_COMPONENT_COUNT>
1

> <PUBCHEM_CACTVS_TAUTO_COUNT>
1

> <PUBCHEM_COORDINATE_TYPE>
1
5
255

> <PUBCHEM_BONDANNOTATIONS>
13  18  6
9  2  5
7  27  5
8  28  5

$$$$

