17112
  -OEChem-07051213133D

 26 25  0     0  0  0  0  0  0999 V2000
    2.1667    1.1991    0.0156 P   0  0  0  0  0  0  0  0  0  0  0  0
   -2.2786    0.9152   -0.0143 P   0  0  0  0  0  0  0  0  0  0  0  0
    3.7197    0.9987    0.4264 O   0  0  0  0  0  0  0  0  0  0  0  0
    2.1922    0.9775   -1.5865 O   0  0  0  0  0  0  0  0  0  0  0  0
   -2.9580    2.2846    0.5177 O   0  0  0  0  0  0  0  0  0  0  0  0
   -1.9934    1.2432   -1.5720 O   0  0  0  0  0  0  0  0  0  0  0  0
    1.5790    2.5018    0.4695 O   0  0  0  0  0  0  0  0  0  0  0  0
   -3.1025   -0.3129    0.2338 O   0  0  0  0  0  0  0  0  0  0  0  0
    0.4487   -3.5259    0.7846 O   0  0  0  0  0  0  0  0  0  0  0  0
    0.1397   -2.7182   -1.3165 O   0  0  0  0  0  0  0  0  0  0  0  0
    0.0193   -0.2022    0.1881 N   0  0  0  0  0  0  0  0  0  0  0  0
    1.4063   -0.2860    0.6519 C   0  0  0  0  0  0  0  0  0  0  0  0
   -0.6668    0.9617    0.7536 C   0  0  0  0  0  0  0  0  0  0  0  0
   -0.6836   -1.4381    0.5527 C   0  0  0  0  0  0  0  0  0  0  0  0
    0.0112   -2.5984   -0.1046 C   0  0  0  0  0  0  0  0  0  0  0  0
    1.9555   -1.1342    0.2328 H   0  0  0  0  0  0  0  0  0  0  0  0
    1.4787   -0.3253    1.7446 H   0  0  0  0  0  0  0  0  0  0  0  0
   -0.7325    0.9366    1.8459 H   0  0  0  0  0  0  0  0  0  0  0  0
   -0.3435    1.9347    0.4185 H   0  0  0  0  0  0  0  0  0  0  0  0
   -1.6558   -1.6094    0.1191 H   0  0  0  0  0  0  0  0  0  0  0  0
   -0.7417   -1.5860    1.6373 H   0  0  0  0  0  0  0  0  0  0  0  0
    4.3609    1.7104    0.2154 H   0  0  0  0  0  0  0  0  0  0  0  0
    2.5601    1.6853   -2.1573 H   0  0  0  0  0  0  0  0  0  0  0  0
   -3.8840    2.4840    0.2629 H   0  0  0  0  0  0  0  0  0  0  0  0
   -2.7470    1.2558   -2.1997 H   0  0  0  0  0  0  0  0  0  0  0  0
    0.8839   -4.2835    0.3385 H   0  0  0  0  0  0  0  0  0  0  0  0
  1  3  1  0  0  0  0
  1  4  1  0  0  0  0
  1  7  2  0  0  0  0
  1 12  1  0  0  0  0
  2  5  1  0  0  0  0
  2  6  1  0  0  0  0
  2  8  2  0  0  0  0
  2 13  1  0  0  0  0
  3 22  1  0  0  0  0
  4 23  1  0  0  0  0
  5 24  1  0  0  0  0
  6 25  1  0  0  0  0
  9 15  1  0  0  0  0
  9 26  1  0  0  0  0
 10 15  2  0  0  0  0
 11 12  1  0  0  0  0
 11 13  1  0  0  0  0
 11 14  1  0  0  0  0
 12 16  1  0  0  0  0
 12 17  1  0  0  0  0
 13 18  1  0  0  0  0
 13 19  1  0  0  0  0
 14 15  1  0  0  0  0
 14 20  1  0  0  0  0
 14 21  1  0  0  0  0
M  END
> <PUBCHEM_COMPOUND_CID>
17112

> <PUBCHEM_CONFORMER_RMSD>
0.6

> <PUBCHEM_CONFORMER_DIVERSEORDER>
1
6
4
7
3
2
5
8

> <PUBCHEM_MMFF94_PARTIAL_CHARGES>
20
1 1.24
10 -0.57
11 -0.81
12 0.27
13 0.27
14 0.33
15 0.66
2 1.24
22 0.5
23 0.5
24 0.5
25 0.5
26 0.5
3 -0.77
4 -0.77
5 -0.77
6 -0.77
7 -0.7
8 -0.7
9 -0.65

> <PUBCHEM_EFFECTIVE_ROTOR_COUNT>
6

> <PUBCHEM_PHARMACOPHORE_FEATURES>
12
1 10 acceptor
1 11 cation
1 3 acceptor
1 4 acceptor
1 5 acceptor
1 6 acceptor
1 7 acceptor
1 8 acceptor
1 9 acceptor
3 9 10 15 anion
4 1 3 4 7 anion
4 2 5 6 8 anion

> <PUBCHEM_HEAVY_ATOM_COUNT>
15

> <PUBCHEM_ATOM_DEF_STEREO_COUNT>
0

> <PUBCHEM_ATOM_UDEF_STEREO_COUNT>
0

> <PUBCHEM_BOND_DEF_STEREO_COUNT>
0

> <PUBCHEM_BOND_UDEF_STEREO_COUNT>
0

> <PUBCHEM_ISOTOPIC_ATOM_COUNT>
0

> <PUBCHEM_COMPONENT_COUNT>
1

> <PUBCHEM_CACTVS_TAUTO_COUNT>
1

> <PUBCHEM_CONFORMER_ID>
000042D800000001

> <PUBCHEM_MMFF94_ENERGY>
-14.0644

> <PUBCHEM_FEATURE_SELFOVERLAP>
61.027

> <PUBCHEM_SHAPE_FINGERPRINT>
1 1 18340210803051478462
14817 1 11570282638668791158
15775835 57 18272933803935502696
16945 1 18123456198808239201
20645476 183 17987783125994190910
20671657 1 18048027760218728721
20711985 344 17977944584047729282
21041028 32 17400639823231056833
21524375 3 18343023276448904091
23402539 116 18189066295421310277
23419403 2 16545165754769841010
23552423 10 18193274324368885299
23557571 272 17687737243145397316
23559900 14 18334569107034478380
2748010 2 18410847785243169578
305870 269 18338238283428427312
3060560 45 18339092548244789645
7364860 26 18119528992587719649
81228 2 17834401115963579483

> <PUBCHEM_SHAPE_MULTIPOLES>
264.46
4.14
3.49
1.12
0.44
3.11
0.48
-3.44
-0.02
-0.09
-0.11
0.07
0
-0.02

> <PUBCHEM_SHAPE_SELFOVERLAP>
486.483

> <PUBCHEM_SHAPE_VOLUME>
168.3

> <PUBCHEM_COORDINATE_TYPE>
2
5
10

$$$$

