4839
  -OEChem-06261200223D

 49 51  0     1  0  0  0  0  0999 V2000
    0.8683    1.0198   -0.3727 O   0  0  0  0  0  0  0  0  0  0  0  0
    0.2738   -0.8509   -1.5753 O   0  0  0  0  0  0  0  0  0  0  0  0
    4.2365   -0.5030   -0.0086 N   0  0  1  0  0  0  0  0  0  0  0  0
    2.2556    0.8420   -0.6378 C   0  0  1  0  0  0  0  0  0  0  0  0
    2.9892    2.1264   -0.2648 C   0  0  0  0  0  0  0  0  0  0  0  0
    2.7864   -0.3499    0.1640 C   0  0  0  0  0  0  0  0  0  0  0  0
    4.4959    1.9314   -0.3719 C   0  0  0  0  0  0  0  0  0  0  0  0
    4.9533    0.7059    0.4212 C   0  0  0  0  0  0  0  0  0  0  0  0
    4.7191   -1.6726    0.7252 C   0  0  0  0  0  0  0  0  0  0  0  0
    6.1953   -1.9159    0.4610 C   0  0  0  0  0  0  0  0  0  0  0  0
   -1.1147   -0.1056    0.2935 C   0  0  0  0  0  0  0  0  0  0  0  0
    0.0581   -0.0436   -0.6802 C   0  0  0  0  0  0  0  0  0  0  0  0
   -1.9659    1.1570    0.3135 C   0  0  0  0  0  0  0  0  0  0  0  0
   -1.9610   -1.3612    0.1263 C   0  0  0  0  0  0  0  0  0  0  0  0
   -2.6096    1.5080    1.4821 C   0  0  0  0  0  0  0  0  0  0  0  0
   -3.0271   -1.3338   -0.7483 C   0  0  0  0  0  0  0  0  0  0  0  0
   -2.0673    1.9103   -0.8375 C   0  0  0  0  0  0  0  0  0  0  0  0
   -1.6346   -2.4858    0.8549 C   0  0  0  0  0  0  0  0  0  0  0  0
   -3.3897    2.6643    1.5003 C   0  0  0  0  0  0  0  0  0  0  0  0
   -3.8023   -2.4833   -0.9011 C   0  0  0  0  0  0  0  0  0  0  0  0
   -2.8473    3.0665   -0.8194 C   0  0  0  0  0  0  0  0  0  0  0  0
   -2.4097   -3.6354    0.7020 C   0  0  0  0  0  0  0  0  0  0  0  0
   -3.5085    3.4435    0.3496 C   0  0  0  0  0  0  0  0  0  0  0  0
   -3.4936   -3.6341   -0.1760 C   0  0  0  0  0  0  0  0  0  0  0  0
    2.3907    0.6646   -1.7135 H   0  0  0  0  0  0  0  0  0  0  0  0
    2.7214    2.4245    0.7573 H   0  0  0  0  0  0  0  0  0  0  0  0
    2.6617    2.9490   -0.9115 H   0  0  0  0  0  0  0  0  0  0  0  0
    2.5232   -0.2306    1.2247 H   0  0  0  0  0  0  0  0  0  0  0  0
    2.2943   -1.2717   -0.1658 H   0  0  0  0  0  0  0  0  0  0  0  0
    4.7757    1.8137   -1.4266 H   0  0  0  0  0  0  0  0  0  0  0  0
    5.0108    2.8255   -0.0024 H   0  0  0  0  0  0  0  0  0  0  0  0
    6.0297    0.6181    0.2430 H   0  0  0  0  0  0  0  0  0  0  0  0
    4.8098    0.8865    1.4947 H   0  0  0  0  0  0  0  0  0  0  0  0
    4.5454   -1.5778    1.8045 H   0  0  0  0  0  0  0  0  0  0  0  0
    4.1718   -2.5612    0.3862 H   0  0  0  0  0  0  0  0  0  0  0  0
   -0.6338   -0.1723    1.2829 H   0  0  0  0  0  0  0  0  0  0  0  0
    6.4278   -1.8787   -0.6087 H   0  0  0  0  0  0  0  0  0  0  0  0
    6.8383   -1.2057    0.9896 H   0  0  0  0  0  0  0  0  0  0  0  0
    6.4709   -2.9139    0.8201 H   0  0  0  0  0  0  0  0  0  0  0  0
   -2.5233    0.9066    2.3820 H   0  0  0  0  0  0  0  0  0  0  0  0
   -3.2842   -0.4677   -1.3468 H   0  0  0  0  0  0  0  0  0  0  0  0
   -1.5777    1.6320   -1.7653 H   0  0  0  0  0  0  0  0  0  0  0  0
   -0.7910   -2.4975    1.5383 H   0  0  0  0  0  0  0  0  0  0  0  0
   -3.9050    2.9575    2.4102 H   0  0  0  0  0  0  0  0  0  0  0  0
   -4.6430   -2.4845   -1.5888 H   0  0  0  0  0  0  0  0  0  0  0  0
   -2.9433    3.6713   -1.7165 H   0  0  0  0  0  0  0  0  0  0  0  0
   -2.1686   -4.5319    1.2657 H   0  0  0  0  0  0  0  0  0  0  0  0
   -4.1168    4.3431    0.3633 H   0  0  0  0  0  0  0  0  0  0  0  0
   -4.0961   -4.5296   -0.2961 H   0  0  0  0  0  0  0  0  0  0  0  0
  1  4  1  0  0  0  0
  1 12  1  0  0  0  0
  2 12  2  0  0  0  0
  3  6  1  0  0  0  0
  3  8  1  0  0  0  0
  3  9  1  0  0  0  0
  4  5  1  0  0  0  0
  4  6  1  0  0  0  0
  4 25  1  0  0  0  0
  5  7  1  0  0  0  0
  5 26  1  0  0  0  0
  5 27  1  0  0  0  0
  6 28  1  0  0  0  0
  6 29  1  0  0  0  0
  7  8  1  0  0  0  0
  7 30  1  0  0  0  0
  7 31  1  0  0  0  0
  8 32  1  0  0  0  0
  8 33  1  0  0  0  0
  9 10  1  0  0  0  0
  9 34  1  0  0  0  0
  9 35  1  0  0  0  0
 10 37  1  0  0  0  0
 10 38  1  0  0  0  0
 10 39  1  0  0  0  0
 11 12  1  0  0  0  0
 11 13  1  0  0  0  0
 11 14  1  0  0  0  0
 11 36  1  0  0  0  0
 13 15  2  0  0  0  0
 13 17  1  0  0  0  0
 14 16  2  0  0  0  0
 14 18  1  0  0  0  0
 15 19  1  0  0  0  0
 15 40  1  0  0  0  0
 16 20  1  0  0  0  0
 16 41  1  0  0  0  0
 17 21  2  0  0  0  0
 17 42  1  0  0  0  0
 18 22  2  0  0  0  0
 18 43  1  0  0  0  0
 19 23  2  0  0  0  0
 19 44  1  0  0  0  0
 20 24  2  0  0  0  0
 20 45  1  0  0  0  0
 21 23  1  0  0  0  0
 21 46  1  0  0  0  0
 22 24  1  0  0  0  0
 22 47  1  0  0  0  0
 23 48  1  0  0  0  0
 24 49  1  0  0  0  0
M  END
> <PUBCHEM_COMPOUND_CID>
4839

> <PUBCHEM_CONFORMER_RMSD>
0.8

> <PUBCHEM_CONFORMER_DIVERSEORDER>
1
114
152
97
243
20
167
121
169
26
78
19
237
185
113
28
119
170
36
151
23
293
131
118
273
159
12
163
147
158
184
196
146
70
199
18
10
230
215
259
71
282
177
287
52
73
270
61
226
207
143
248
99
100
40
262
150
271
94
247
66
98
242
281
190
266
161
64
171
129
15
213
14
22
179
263
227
200
192
211
84
284
206
63
17
267
65
62
210
87
44
45
104
68
186
234
180
85
102
239
160
182
89
11
101
79
27
7
256
187
261
166
201
53
249
275
280
6
258
103
120
80
253
8
82
157
202
228
58
3
123
260
108
292
81
209
231
217
153
254
74
145
198
5
88
29
164
286
9
48
117
72
283
175
274
174
252
31
212
290
195
229
24
189
277
238
57
188
138
268
46
75
135
125
38
244
111
154
191
181
130
136
86
77
219
291
47
250
105
39
193
60
149
34
13
222
141
205
59
223
245
137
216
288
69
172
55
257
25
106
41
246
35
204
21
168
251
183
90
162
178
56
203
49
235
33
272
92
115
276
156
37
67
116
126
289
265
107
32
140
294
224
233
132
148
96
93
110
50
220
221
95
269
43
240
112
127
83
214
285
278
236
91
197
51
133
124
128
109
54
255
42
279
225
208
139
134
165
264
241
144
30
16
122
218
142
155
2
76
176
4
194
232
173

> <PUBCHEM_MMFF94_PARTIAL_CHARGES>
31
1 -0.43
11 0.35
12 0.66
13 -0.14
14 -0.14
15 -0.15
16 -0.15
17 -0.15
18 -0.15
19 -0.15
2 -0.57
20 -0.15
21 -0.15
22 -0.15
23 -0.15
24 -0.15
3 -0.81
4 0.28
40 0.15
41 0.15
42 0.15
43 0.15
44 0.15
45 0.15
46 0.15
47 0.15
48 0.15
49 0.15
6 0.27
8 0.27
9 0.27

> <PUBCHEM_EFFECTIVE_ROTOR_COUNT>
7.2

> <PUBCHEM_PHARMACOPHORE_FEATURES>
5
1 2 acceptor
1 3 cation
6 13 15 17 19 21 23 rings
6 14 16 18 20 22 24 rings
6 3 4 5 6 7 8 rings

> <PUBCHEM_HEAVY_ATOM_COUNT>
24

> <PUBCHEM_ATOM_DEF_STEREO_COUNT>
0

> <PUBCHEM_ATOM_UDEF_STEREO_COUNT>
1

> <PUBCHEM_BOND_DEF_STEREO_COUNT>
0

> <PUBCHEM_BOND_UDEF_STEREO_COUNT>
0

> <PUBCHEM_ISOTOPIC_ATOM_COUNT>
0

> <PUBCHEM_COMPONENT_COUNT>
1

> <PUBCHEM_CACTVS_TAUTO_COUNT>
1

> <PUBCHEM_CONFORMER_ID>
000012E700000001

> <PUBCHEM_MMFF94_ENERGY>
57.4455

> <PUBCHEM_FEATURE_SELFOVERLAP>
25.371

> <PUBCHEM_SHAPE_FINGERPRINT>
10366900 7 18122339078410778552
10670039 82 18051676760598354020
1100329 8 17979076307730226562
11036077 51 18338517546897679811
11045515 52 17983018856322448621
11101153 10 17979345362120875644
11265709 11 18050558552697252083
11405975 8 18410012169818605944
11552529 35 18408884001741821416
12107183 9 18195528327669546882
12160290 23 18121185819614916681
12633257 1 18340205323137497428
12643181 29 18120370115575134086
12788726 201 18339371759968875267
12892183 10 18262806151536015028
13004483 165 18264491676727828903
13134695 92 17685777913809387399
13140716 1 18335702762966247464
13149001 5 17392722124309411335
13533116 47 18339928095746506818
13583140 156 17631727308877261073
13631057 29 18193835942967035588
14251740 79 18340499932124329399
14866123 147 18340772657783497531
14955137 171 17329976406143529827
15042514 8 18340762655527013803
15250474 111 18343025489096079002
15420108 30 17907586079251551137
15842332 3 17987214678203264340
16728300 4 17198832096125345601
17492 89 18340207389054105762
19141452 34 18269556203573748332
20286276 3 18411975846051311908
20600515 1 17756683266589807759
21033648 144 18337966657382004132
21033648 29 18123767593034588352
21065198 48 18409729535190169060
21478907 32 18340206272262063731
21703447 108 18192725453392243616
23402539 116 18264209119651312599
23558518 356 18271797995707582042
23559900 14 18269285564440770958
23598288 3 18261115157896175150
23622692 118 18410580552652604854
255183 313 18262502789553501865
283562 15 18339365154230156379
312423 11 18341887451368473764
38695281 34 17979639262284304049
5104073 3 18335991917665984120
532947 4 17761774370071356495
53777708 50 18341607080219911700
5486654 36 18273209816225405778
56633871 153 17981335796089351090
5924683 9 18409733941293793490
7097593 13 18343580768000168848
7164475 11 18340487751222421044
79837 15 18263638640250969361
81228 2 18265310860435322919
9709674 26 18409444782842519814
9981440 41 17096090336532966423

> <PUBCHEM_SHAPE_MULTIPOLES>
477.19
10.85
4.73
1.15
18.16
1.07
-0.1
2.05
-1.44
-6.53
-0.49
-0.76
-0.22
-1.47

> <PUBCHEM_SHAPE_SELFOVERLAP>
1012.331

> <PUBCHEM_SHAPE_VOLUME>
264.8

> <PUBCHEM_COORDINATE_TYPE>
2
5
10

$$$$

