223998
  -OEChem-07051213053D

 40 43  0     1  0  0  0  0  0999 V2000
   -4.5306   -0.8004   -1.2253 O   0  0  0  0  0  0  0  0  0  0  0  0
    5.8234    0.0056    0.1219 O   0  0  0  0  0  0  0  0  0  0  0  0
   -2.6323   -0.6307    0.3484 C   0  0  1  0  0  0  0  0  0  0  0  0
   -2.0472    0.6212   -0.3374 C   0  0  1  0  0  0  0  0  0  0  0  0
   -4.1385   -0.4193    0.0894 C   0  0  1  0  0  0  0  0  0  0  0  0
   -2.9556    1.7469    0.1593 C   0  0  0  0  0  0  0  0  0  0  0  0
   -1.9865   -1.8401   -0.3358 C   0  0  0  0  0  0  0  0  0  0  0  0
   -4.3470    1.0964    0.2813 C   0  0  0  0  0  0  0  0  0  0  0  0
   -0.5512    0.7161   -0.2015 C   0  0  0  0  0  0  0  0  0  0  0  0
   -0.4571   -1.8363   -0.1625 C   0  0  0  0  0  0  0  0  0  0  0  0
   -2.4006   -0.6853    1.8804 C   0  0  0  0  0  0  0  0  0  0  0  0
    0.2267   -0.4701   -0.1739 C   0  0  0  0  0  0  0  0  0  0  0  0
    0.0840    1.9601   -0.1919 C   0  0  0  0  0  0  0  0  0  0  0  0
    1.6506   -0.3859   -0.0976 C   0  0  0  0  0  0  0  0  0  0  0  0
    2.2630    0.8928   -0.0759 C   0  0  0  0  0  0  0  0  0  0  0  0
    1.4716    2.0459   -0.1254 C   0  0  0  0  0  0  0  0  0  0  0  0
    2.5029   -1.5139   -0.0371 C   0  0  0  0  0  0  0  0  0  0  0  0
    3.6616    1.0067   -0.0037 C   0  0  0  0  0  0  0  0  0  0  0  0
    3.8917   -1.3852    0.0357 C   0  0  0  0  0  0  0  0  0  0  0  0
    4.4710   -0.1247    0.0515 C   0  0  0  0  0  0  0  0  0  0  0  0
   -2.2211    0.5468   -1.4238 H   0  0  0  0  0  0  0  0  0  0  0  0
   -4.7677   -0.9830    0.7872 H   0  0  0  0  0  0  0  0  0  0  0  0
   -2.9733    2.5945   -0.5342 H   0  0  0  0  0  0  0  0  0  0  0  0
   -2.6303    2.1315    1.1332 H   0  0  0  0  0  0  0  0  0  0  0  0
   -2.2007   -1.8252   -1.4126 H   0  0  0  0  0  0  0  0  0  0  0  0
   -2.4027   -2.7802    0.0453 H   0  0  0  0  0  0  0  0  0  0  0  0
   -4.7595    1.3112    1.2734 H   0  0  0  0  0  0  0  0  0  0  0  0
   -5.0337    1.5069   -0.4668 H   0  0  0  0  0  0  0  0  0  0  0  0
   -0.0326   -2.4599   -0.9588 H   0  0  0  0  0  0  0  0  0  0  0  0
   -0.2216   -2.3186    0.7950 H   0  0  0  0  0  0  0  0  0  0  0  0
   -2.8837    0.1430    2.4084 H   0  0  0  0  0  0  0  0  0  0  0  0
   -2.8186   -1.6121    2.2905 H   0  0  0  0  0  0  0  0  0  0  0  0
   -1.3419   -0.6571    2.1537 H   0  0  0  0  0  0  0  0  0  0  0  0
   -0.4917    2.8802   -0.2439 H   0  0  0  0  0  0  0  0  0  0  0  0
   -4.4956   -1.7709   -1.2705 H   0  0  0  0  0  0  0  0  0  0  0  0
    1.9300    3.0332   -0.1161 H   0  0  0  0  0  0  0  0  0  0  0  0
    2.0961   -2.5225   -0.0441 H   0  0  0  0  0  0  0  0  0  0  0  0
    4.1238    1.9929    0.0112 H   0  0  0  0  0  0  0  0  0  0  0  0
    4.5116   -2.2765    0.0801 H   0  0  0  0  0  0  0  0  0  0  0  0
    6.0503    0.9514    0.1230 H   0  0  0  0  0  0  0  0  0  0  0  0
  1  5  1  0  0  0  0
  1 35  1  0  0  0  0
  2 20  1  0  0  0  0
  2 40  1  0  0  0  0
  3  4  1  0  0  0  0
  3  5  1  0  0  0  0
  3  7  1  0  0  0  0
  3 11  1  0  0  0  0
  4  6  1  0  0  0  0
  4  9  1  0  0  0  0
  4 21  1  0  0  0  0
  5  8  1  0  0  0  0
  5 22  1  0  0  0  0
  6  8  1  0  0  0  0
  6 23  1  0  0  0  0
  6 24  1  0  0  0  0
  7 10  1  0  0  0  0
  7 25  1  0  0  0  0
  7 26  1  0  0  0  0
  8 27  1  0  0  0  0
  8 28  1  0  0  0  0
  9 12  2  0  0  0  0
  9 13  1  0  0  0  0
 10 12  1  0  0  0  0
 10 29  1  0  0  0  0
 10 30  1  0  0  0  0
 11 31  1  0  0  0  0
 11 32  1  0  0  0  0
 11 33  1  0  0  0  0
 12 14  1  0  0  0  0
 13 16  2  0  0  0  0
 13 34  1  0  0  0  0
 14 15  2  0  0  0  0
 14 17  1  0  0  0  0
 15 16  1  0  0  0  0
 15 18  1  0  0  0  0
 16 36  1  0  0  0  0
 17 19  2  0  0  0  0
 17 37  1  0  0  0  0
 18 20  2  0  0  0  0
 18 38  1  0  0  0  0
 19 20  1  0  0  0  0
 19 39  1  0  0  0  0
M  END
> <PUBCHEM_COMPOUND_CID>
223998

> <PUBCHEM_CONFORMER_RMSD>
0.6

> <PUBCHEM_CONFORMER_DIVERSEORDER>
1

> <PUBCHEM_MMFF94_PARTIAL_CHARGES>
20
1 -0.68
10 0.14
12 -0.14
13 -0.15
16 -0.15
17 -0.15
18 -0.15
19 -0.15
2 -0.53
20 0.08
34 0.15
35 0.4
36 0.15
37 0.15
38 0.15
39 0.15
4 0.14
40 0.45
5 0.28
9 -0.14

> <PUBCHEM_EFFECTIVE_ROTOR_COUNT>
1

> <PUBCHEM_PHARMACOPHORE_FEATURES>
7
1 1 acceptor
1 1 donor
1 2 donor
5 3 4 5 6 8 rings
6 14 15 17 18 19 20 rings
6 3 4 7 9 10 12 rings
6 9 12 13 14 15 16 rings

> <PUBCHEM_HEAVY_ATOM_COUNT>
20

> <PUBCHEM_ATOM_DEF_STEREO_COUNT>
3

> <PUBCHEM_ATOM_UDEF_STEREO_COUNT>
0

> <PUBCHEM_BOND_DEF_STEREO_COUNT>
0

> <PUBCHEM_BOND_UDEF_STEREO_COUNT>
0

> <PUBCHEM_ISOTOPIC_ATOM_COUNT>
0

> <PUBCHEM_COMPONENT_COUNT>
1

> <PUBCHEM_CACTVS_TAUTO_COUNT>
3

> <PUBCHEM_CONFORMER_ID>
00036AFE00000001

> <PUBCHEM_MMFF94_ENERGY>
74.1599

> <PUBCHEM_FEATURE_SELFOVERLAP>
35.625

> <PUBCHEM_SHAPE_FINGERPRINT>
10616163 171 18336825308065970590
10967382 1 18410855481835217374
11132069 177 18408041814616082218
11315181 36 18272088279910182032
11471102 20 18412266112467420460
12011746 2 18413111671084276453
12107183 9 17615685571492350586
12236239 1 17676206870493627198
12251169 10 18409165497961045556
12403259 226 18264213526266788945
12403814 3 17775005699647142724
124424 183 18202282489585066419
12596602 18 16877947113939948554
13140716 1 18194113027922537707
13221675 6 18342175557395049914
13675066 3 18271803497528981320
13862211 1 18411143545555686070
14115302 16 17346304995185961958
14790565 3 17764020273628888444
15099037 51 18413110567356796029
15196674 1 18410574023843080126
15309172 13 18334566949778974563
15375358 24 18413669119205930698
15442244 35 18409730672623136604
15536298 74 18334858311944246476
16945 1 18267294331544886805
17349148 13 17967251987854185583
17804303 29 18409444769551305860
1813 80 17346876771698025812
18186145 218 17131833148822713473
19141452 34 18334575732907947735
200 152 18114185224511521567
20028762 73 18115026286715500367
20510252 161 18188770685717972960
20645477 70 18336828688548039550
21029758 11 18407764737527919409
21267235 1 18410847759589683086
21279426 13 18125160691008025645
21421861 104 17844253045724335010
221490 88 18198616636245422194
23184049 59 18409442613509098911
23402539 116 18260837011339718757
23463225 33 18412260640473467452
23557571 272 4750885818713394147
23559900 14 18263090932930961008
26918003 58 17775003483945047762
2748010 2 18338793549711489676
296302 2 18408601487082136784
335352 9 18410855503114855940
34934 24 18412548734195325698
350125 39 18410008849788170129
351380 180 18411139138755404673
4214541 1 18409730672676104981
4921388 177 15841257165148144785
5104073 3 18410292518806919512
69090 78 18335423456489026983
7364860 26 18264209110818940512
8809292 202 18130782335004817251
9709674 26 18409442604872146431

> <PUBCHEM_SHAPE_MULTIPOLES>
399.85
9.35
2.04
0.88
4.58
0.24
0.24
-0.45
0.13
-0.14
-0.12
-0.75
-0.18
-0.14

> <PUBCHEM_SHAPE_SELFOVERLAP>
891.011

> <PUBCHEM_SHAPE_VOLUME>
214

> <PUBCHEM_COORDINATE_TYPE>
2
5
10

$$$$

