656737
  -OEChem-07051213042D

 45 44  0     1  0  0  0  0  0999 V2000
   12.3923   -1.0950    0.0000 O   0  0  0  0  0  0  0  0  0  0  0  0
   14.1244   -0.0950    0.0000 O   0  0  0  0  0  0  0  0  0  0  0  0
   13.2583    1.4050    0.0000 O   0  0  0  0  0  0  0  0  0  0  0  0
    8.0622    0.4050    0.0000 C   0  0  0  0  0  0  0  0  0  0  0  0
    7.1962   -0.0950    0.0000 C   0  0  0  0  0  0  0  0  0  0  0  0
    8.9282   -0.0950    0.0000 C   0  0  0  0  0  0  0  0  0  0  0  0
    6.3301    0.4050    0.0000 C   0  0  0  0  0  0  0  0  0  0  0  0
    9.7942    0.4050    0.0000 C   0  0  0  0  0  0  0  0  0  0  0  0
    5.4641   -0.0950    0.0000 C   0  0  0  0  0  0  0  0  0  0  0  0
    4.5981    0.4050    0.0000 C   0  0  0  0  0  0  0  0  0  0  0  0
   10.6603   -0.0950    0.0000 C   0  0  0  0  0  0  0  0  0  0  0  0
    3.7320   -0.0950    0.0000 C   0  0  0  0  0  0  0  0  0  0  0  0
   11.5263    0.4050    0.0000 C   0  0  0  0  0  0  0  0  0  0  0  0
    2.8660    0.4050    0.0000 C   0  0  0  0  0  0  0  0  0  0  0  0
   12.3923   -0.0950    0.0000 C   0  0  1  0  0  0  0  0  0  0  0  0
    2.0000   -0.0950    0.0000 C   0  0  0  0  0  0  0  0  0  0  0  0
   13.2583    0.4050    0.0000 C   0  0  0  0  0  0  0  0  0  0  0  0
    8.4607    0.8799    0.0000 H   0  0  0  0  0  0  0  0  0  0  0  0
    7.6636    0.8799    0.0000 H   0  0  0  0  0  0  0  0  0  0  0  0
    6.7976   -0.5699    0.0000 H   0  0  0  0  0  0  0  0  0  0  0  0
    7.5947   -0.5699    0.0000 H   0  0  0  0  0  0  0  0  0  0  0  0
    8.5297   -0.5699    0.0000 H   0  0  0  0  0  0  0  0  0  0  0  0
    9.3267   -0.5699    0.0000 H   0  0  0  0  0  0  0  0  0  0  0  0
    6.7287    0.8799    0.0000 H   0  0  0  0  0  0  0  0  0  0  0  0
    5.9316    0.8799    0.0000 H   0  0  0  0  0  0  0  0  0  0  0  0
   10.1928    0.8799    0.0000 H   0  0  0  0  0  0  0  0  0  0  0  0
    9.3957    0.8799    0.0000 H   0  0  0  0  0  0  0  0  0  0  0  0
    5.0656   -0.5699    0.0000 H   0  0  0  0  0  0  0  0  0  0  0  0
    5.8626   -0.5699    0.0000 H   0  0  0  0  0  0  0  0  0  0  0  0
    4.9966    0.8799    0.0000 H   0  0  0  0  0  0  0  0  0  0  0  0
    4.1996    0.8799    0.0000 H   0  0  0  0  0  0  0  0  0  0  0  0
   10.2617   -0.5699    0.0000 H   0  0  0  0  0  0  0  0  0  0  0  0
   11.0588   -0.5699    0.0000 H   0  0  0  0  0  0  0  0  0  0  0  0
    3.3335   -0.5699    0.0000 H   0  0  0  0  0  0  0  0  0  0  0  0
    4.1306   -0.5699    0.0000 H   0  0  0  0  0  0  0  0  0  0  0  0
   11.9248    0.8799    0.0000 H   0  0  0  0  0  0  0  0  0  0  0  0
   11.1278    0.8799    0.0000 H   0  0  0  0  0  0  0  0  0  0  0  0
    3.2646    0.8799    0.0000 H   0  0  0  0  0  0  0  0  0  0  0  0
    2.4675    0.8799    0.0000 H   0  0  0  0  0  0  0  0  0  0  0  0
   11.8554   -0.4050    0.0000 H   0  0  0  0  0  0  0  0  0  0  0  0
    1.6900    0.4419    0.0000 H   0  0  0  0  0  0  0  0  0  0  0  0
    1.4631   -0.4050    0.0000 H   0  0  0  0  0  0  0  0  0  0  0  0
    2.3100   -0.6319    0.0000 H   0  0  0  0  0  0  0  0  0  0  0  0
   11.8554   -1.4050    0.0000 H   0  0  0  0  0  0  0  0  0  0  0  0
   14.6613    0.2150    0.0000 H   0  0  0  0  0  0  0  0  0  0  0  0
 15  1  1  1  0  0  0
  1 44  1  0  0  0  0
  2 17  1  0  0  0  0
  2 45  1  0  0  0  0
  3 17  2  0  0  0  0
  4  5  1  0  0  0  0
  4  6  1  0  0  0  0
  4 18  1  0  0  0  0
  4 19  1  0  0  0  0
  5  7  1  0  0  0  0
  5 20  1  0  0  0  0
  5 21  1  0  0  0  0
  6  8  1  0  0  0  0
  6 22  1  0  0  0  0
  6 23  1  0  0  0  0
  7  9  1  0  0  0  0
  7 24  1  0  0  0  0
  7 25  1  0  0  0  0
  8 11  1  0  0  0  0
  8 26  1  0  0  0  0
  8 27  1  0  0  0  0
  9 10  1  0  0  0  0
  9 28  1  0  0  0  0
  9 29  1  0  0  0  0
 10 12  1  0  0  0  0
 10 30  1  0  0  0  0
 10 31  1  0  0  0  0
 11 13  1  0  0  0  0
 11 32  1  0  0  0  0
 11 33  1  0  0  0  0
 12 14  1  0  0  0  0
 12 34  1  0  0  0  0
 12 35  1  0  0  0  0
 13 15  1  0  0  0  0
 13 36  1  0  0  0  0
 13 37  1  0  0  0  0
 14 16  1  0  0  0  0
 14 38  1  0  0  0  0
 14 39  1  0  0  0  0
 15 17  1  0  0  0  0
 15 40  1  0  0  0  0
 16 41  1  0  0  0  0
 16 42  1  0  0  0  0
 16 43  1  0  0  0  0
M  END
> <PUBCHEM_COMPOUND_CID>
656737

> <PUBCHEM_COMPOUND_CANONICALIZED>
1

> <PUBCHEM_CACTVS_COMPLEXITY>
180

> <PUBCHEM_CACTVS_HBOND_ACCEPTOR>
3

> <PUBCHEM_CACTVS_HBOND_DONOR>
2

> <PUBCHEM_CACTVS_ROTATABLE_BOND>
12

> <PUBCHEM_CACTVS_SUBSKEYS>
AAADceBwMAAAAAAAAAAAAAAAAAAAAAAAAAAAAAAAAAAAAAAAAAAAGgAACAAACBSggAICCAAAAgAIAACQCAIAAAAAAAAAAAFAAAABEBIAAAAAQAAEAAABAAGIyKCAAAAAAAAAAAAAAAAAAAAAAAAAAAAAAA==

> <PUBCHEM_IUPAC_OPENEYE_NAME>
(2S)-2-hydroxytetradecanoic acid

> <PUBCHEM_IUPAC_CAS_NAME>
(2S)-2-hydroxytetradecanoic acid

> <PUBCHEM_IUPAC_NAME>
(2S)-2-hydroxytetradecanoic acid

> <PUBCHEM_IUPAC_SYSTEMATIC_NAME>
(2S)-2-oxidanyltetradecanoic acid

> <PUBCHEM_IUPAC_TRADITIONAL_NAME>
(2S)-2-hydroxymyristic acid

> <PUBCHEM_IUPAC_INCHI>
InChI=1S/C14H28O3/c1-2-3-4-5-6-7-8-9-10-11-12-13(15)14(16)17/h13,15H,2-12H2,1H3,(H,16,17)/t13-/m0/s1

> <PUBCHEM_IUPAC_INCHIKEY>
JYZJYKOZGGEXSX-ZDUSSCGKSA-N

> <PUBCHEM_XLOGP3_AA>
5.3

> <PUBCHEM_EXACT_MASS>
244.203845

> <PUBCHEM_MOLECULAR_FORMULA>
C14H28O3

> <PUBCHEM_MOLECULAR_WEIGHT>
244.37032

> <PUBCHEM_OPENEYE_CAN_SMILES>
CCCCCCCCCCCCC(C(=O)O)O

> <PUBCHEM_OPENEYE_ISO_SMILES>
CCCCCCCCCCCC[C@@H](C(=O)O)O

> <PUBCHEM_CACTVS_TPSA>
57.5

> <PUBCHEM_MONOISOTOPIC_WEIGHT>
244.203845

> <PUBCHEM_TOTAL_CHARGE>
0

> <PUBCHEM_HEAVY_ATOM_COUNT>
17

> <PUBCHEM_ATOM_DEF_STEREO_COUNT>
1

> <PUBCHEM_ATOM_UDEF_STEREO_COUNT>
0

> <PUBCHEM_BOND_DEF_STEREO_COUNT>
0

> <PUBCHEM_BOND_UDEF_STEREO_COUNT>
0

> <PUBCHEM_ISOTOPIC_ATOM_COUNT>
0

> <PUBCHEM_COMPONENT_COUNT>
1

> <PUBCHEM_CACTVS_TAUTO_COUNT>
1

> <PUBCHEM_COORDINATE_TYPE>
1
5
255

> <PUBCHEM_BONDANNOTATIONS>
15  1  5

$$$$

