193354
  -OEChem-07051212482D

 80 82  0     1  0  0  0  0  0999 V2000
    7.4321   -0.6529    0.0000 O   0  0  0  0  0  0  0  0  0  0  0  0
    6.3301   -1.4535    0.0000 O   0  0  0  0  0  0  0  0  0  0  0  0
    9.0378    4.2889    0.0000 O   0  0  0  0  0  0  0  0  0  0  0  0
    9.7614    7.1436    0.0000 O   0  0  0  0  0  0  0  0  0  0  0  0
   10.6126    1.0454    0.0000 O   0  0  0  0  0  0  0  0  0  0  0  0
    8.8954    5.6436    0.0000 O   0  0  0  0  0  0  0  0  0  0  0  0
    3.7320   -3.9536    0.0000 O   0  0  0  0  0  0  0  0  0  0  0  0
    2.8660   -2.4536    0.0000 O   0  0  0  0  0  0  0  0  0  0  0  0
    5.4641    0.0465    0.0000 N   0  0  0  0  0  0  0  0  0  0  0  0
   10.7320    4.6490    0.0000 N   0  0  0  0  0  0  0  0  0  0  0  0
    7.9673    0.9944    0.0000 N   0  0  0  0  0  0  0  0  0  0  0  0
    9.4536    2.3326    0.0000 N   0  0  0  0  0  0  0  0  0  0  0  0
    4.5981   -2.4536    0.0000 N   0  0  0  0  0  0  0  0  0  0  0  0
    6.2731    0.6342    0.0000 C   0  0  1  0  0  0  0  0  0  0  0  0
    5.9641    1.5853    0.0000 C   0  0  0  0  0  0  0  0  0  0  0  0
    4.9641    1.5853    0.0000 C   0  0  0  0  0  0  0  0  0  0  0  0
    4.6551    0.6342    0.0000 C   0  0  0  0  0  0  0  0  0  0  0  0
   10.6275    5.6436    0.0000 C   0  0  1  0  0  0  0  0  0  0  0  0
   11.5410    6.0503    0.0000 C   0  0  0  0  0  0  0  0  0  0  0  0
    7.2242    0.3252    0.0000 C   0  0  0  0  0  0  0  0  0  0  0  0
   12.2101    5.3071    0.0000 C   0  0  0  0  0  0  0  0  0  0  0  0
   11.7101    4.4411    0.0000 C   0  0  0  0  0  0  0  0  0  0  0  0
    8.9184    0.6853    0.0000 C   0  0  1  0  0  0  0  0  0  0  0  0
    5.4641   -0.9535    0.0000 C   0  0  0  0  0  0  0  0  0  0  0  0
    9.1263   -0.2928    0.0000 C   0  0  0  0  0  0  0  0  0  0  0  0
   10.0773   -0.6018    0.0000 C   0  0  0  0  0  0  0  0  0  0  0  0
    9.9888    3.9799    0.0000 C   0  0  0  0  0  0  0  0  0  0  0  0
    9.6615    1.3545    0.0000 C   0  0  0  0  0  0  0  0  0  0  0  0
   10.1968    3.0018    0.0000 C   0  0  0  0  0  0  0  0  0  0  0  0
    9.7614    6.1436    0.0000 C   0  0  0  0  0  0  0  0  0  0  0  0
    4.5981   -1.4535    0.0000 C   0  0  0  0  0  0  0  0  0  0  0  0
   10.2853   -1.5800    0.0000 C   0  0  0  0  0  0  0  0  0  0  0  0
   10.8205    0.0673    0.0000 C   0  0  0  0  0  0  0  0  0  0  0  0
    3.7320   -2.9536    0.0000 C   0  0  0  0  0  0  0  0  0  0  0  0
    2.8660   -4.4536    0.0000 C   0  0  0  0  0  0  0  0  0  0  0  0
    2.8660   -5.4536    0.0000 C   0  0  0  0  0  0  0  0  0  0  0  0
    2.0000   -5.9536    0.0000 C   0  0  0  0  0  0  0  0  0  0  0  0
    3.7320   -5.9536    0.0000 C   0  0  0  0  0  0  0  0  0  0  0  0
    2.0000   -6.9536    0.0000 C   0  0  0  0  0  0  0  0  0  0  0  0
    3.7320   -6.9536    0.0000 C   0  0  0  0  0  0  0  0  0  0  0  0
    2.8660   -7.4536    0.0000 C   0  0  0  0  0  0  0  0  0  0  0  0
    6.3701    0.0219    0.0000 H   0  0  0  0  0  0  0  0  0  0  0  0
    6.5706    1.7142    0.0000 H   0  0  0  0  0  0  0  0  0  0  0  0
    5.8993    2.2019    0.0000 H   0  0  0  0  0  0  0  0  0  0  0  0
    5.0289    2.2019    0.0000 H   0  0  0  0  0  0  0  0  0  0  0  0
    4.3576    1.7142    0.0000 H   0  0  0  0  0  0  0  0  0  0  0  0
    4.0887    0.8864    0.0000 H   0  0  0  0  0  0  0  0  0  0  0  0
    4.3451    0.0973    0.0000 H   0  0  0  0  0  0  0  0  0  0  0  0
   10.1075    5.3059    0.0000 H   0  0  0  0  0  0  0  0  0  0  0  0
   12.0426    6.4147    0.0000 H   0  0  0  0  0  0  0  0  0  0  0  0
   11.2310    6.5872    0.0000 H   0  0  0  0  0  0  0  0  0  0  0  0
   12.7117    4.9427    0.0000 H   0  0  0  0  0  0  0  0  0  0  0  0
   12.6250    5.7679    0.0000 H   0  0  0  0  0  0  0  0  0  0  0  0
   11.5185    3.8515    0.0000 H   0  0  0  0  0  0  0  0  0  0  0  0
   12.2765    4.1889    0.0000 H   0  0  0  0  0  0  0  0  0  0  0  0
    8.4576    0.2705    0.0000 H   0  0  0  0  0  0  0  0  0  0  0  0
    7.8384    1.6008    0.0000 H   0  0  0  0  0  0  0  0  0  0  0  0
    8.5067   -0.3144    0.0000 H   0  0  0  0  0  0  0  0  0  0  0  0
    9.0400   -0.9068    0.0000 H   0  0  0  0  0  0  0  0  0  0  0  0
    9.9484    0.0046    0.0000 H   0  0  0  0  0  0  0  0  0  0  0  0
   10.5253    2.4760    0.0000 H   0  0  0  0  0  0  0  0  0  0  0  0
   10.7716    3.2340    0.0000 H   0  0  0  0  0  0  0  0  0  0  0  0
    4.3860   -0.8709    0.0000 H   0  0  0  0  0  0  0  0  0  0  0  0
    3.9875   -1.5612    0.0000 H   0  0  0  0  0  0  0  0  0  0  0  0
    8.8640    2.5242    0.0000 H   0  0  0  0  0  0  0  0  0  0  0  0
    9.6788   -1.7089    0.0000 H   0  0  0  0  0  0  0  0  0  0  0  0
   10.4142   -2.1864    0.0000 H   0  0  0  0  0  0  0  0  0  0  0  0
   10.8917   -1.4511    0.0000 H   0  0  0  0  0  0  0  0  0  0  0  0
   11.2354   -0.3934    0.0000 H   0  0  0  0  0  0  0  0  0  0  0  0
   11.2812    0.4822    0.0000 H   0  0  0  0  0  0  0  0  0  0  0  0
   10.4056    0.5281    0.0000 H   0  0  0  0  0  0  0  0  0  0  0  0
    5.1350   -2.7636    0.0000 H   0  0  0  0  0  0  0  0  0  0  0  0
    9.2245    7.4536    0.0000 H   0  0  0  0  0  0  0  0  0  0  0  0
    2.6540   -3.8709    0.0000 H   0  0  0  0  0  0  0  0  0  0  0  0
    2.2554   -4.5612    0.0000 H   0  0  0  0  0  0  0  0  0  0  0  0
    1.4631   -5.6436    0.0000 H   0  0  0  0  0  0  0  0  0  0  0  0
    4.2690   -5.6436    0.0000 H   0  0  0  0  0  0  0  0  0  0  0  0
    1.4631   -7.2636    0.0000 H   0  0  0  0  0  0  0  0  0  0  0  0
    4.2690   -7.2636    0.0000 H   0  0  0  0  0  0  0  0  0  0  0  0
    2.8660   -8.0735    0.0000 H   0  0  0  0  0  0  0  0  0  0  0  0
  1 20  2  0  0  0  0
  2 24  2  0  0  0  0
  3 27  2  0  0  0  0
  4 30  1  0  0  0  0
  4 73  1  0  0  0  0
  5 28  2  0  0  0  0
  6 30  2  0  0  0  0
  7 34  1  0  0  0  0
  7 35  1  0  0  0  0
  8 34  2  0  0  0  0
  9 14  1  0  0  0  0
  9 17  1  0  0  0  0
  9 24  1  0  0  0  0
 10 18  1  0  0  0  0
 10 22  1  0  0  0  0
 10 27  1  0  0  0  0
 11 20  1  0  0  0  0
 23 11  1  6  0  0  0
 11 57  1  0  0  0  0
 12 28  1  0  0  0  0
 12 29  1  0  0  0  0
 12 65  1  0  0  0  0
 13 31  1  0  0  0  0
 13 34  1  0  0  0  0
 13 72  1  0  0  0  0
 14 15  1  0  0  0  0
 14 20  1  1  0  0  0
 14 42  1  0  0  0  0
 15 16  1  0  0  0  0
 15 43  1  0  0  0  0
 15 44  1  0  0  0  0
 16 17  1  0  0  0  0
 16 45  1  0  0  0  0
 16 46  1  0  0  0  0
 17 47  1  0  0  0  0
 17 48  1  0  0  0  0
 18 19  1  0  0  0  0
 18 30  1  6  0  0  0
 18 49  1  0  0  0  0
 19 21  1  0  0  0  0
 19 50  1  0  0  0  0
 19 51  1  0  0  0  0
 21 22  1  0  0  0  0
 21 52  1  0  0  0  0
 21 53  1  0  0  0  0
 22 54  1  0  0  0  0
 22 55  1  0  0  0  0
 23 25  1  0  0  0  0
 23 28  1  0  0  0  0
 23 56  1  0  0  0  0
 24 31  1  0  0  0  0
 25 26  1  0  0  0  0
 25 58  1  0  0  0  0
 25 59  1  0  0  0  0
 26 32  1  0  0  0  0
 26 33  1  0  0  0  0
 26 60  1  0  0  0  0
 27 29  1  0  0  0  0
 29 61  1  0  0  0  0
 29 62  1  0  0  0  0
 31 63  1  0  0  0  0
 31 64  1  0  0  0  0
 32 66  1  0  0  0  0
 32 67  1  0  0  0  0
 32 68  1  0  0  0  0
 33 69  1  0  0  0  0
 33 70  1  0  0  0  0
 33 71  1  0  0  0  0
 35 36  1  0  0  0  0
 35 74  1  0  0  0  0
 35 75  1  0  0  0  0
 36 37  2  0  0  0  0
 36 38  1  0  0  0  0
 37 39  1  0  0  0  0
 37 76  1  0  0  0  0
 38 40  2  0  0  0  0
 38 77  1  0  0  0  0
 39 41  2  0  0  0  0
 39 78  1  0  0  0  0
 40 41  1  0  0  0  0
 40 79  1  0  0  0  0
 41 80  1  0  0  0  0
M  END
> <PUBCHEM_COMPOUND_CID>
193354

> <PUBCHEM_COMPOUND_CANONICALIZED>
1

> <PUBCHEM_CACTVS_COMPLEXITY>
967

> <PUBCHEM_CACTVS_HBOND_ACCEPTOR>
8

> <PUBCHEM_CACTVS_HBOND_DONOR>
4

> <PUBCHEM_CACTVS_ROTATABLE_BOND>
13

> <PUBCHEM_CACTVS_SUBSKEYS>
AAADcfB7vAAAAAAAAAAAAAAAAAAAAWLAAAAwAAAAAAAAAAABAAAAHgAQCAAADSjhmAYyCIPABgCIAiHSGAACAAAgAAAIiIGICIkKZjKAsTiccAAk1gGYqAeY0SIOAAAAAAAAAAAAAAAAAAAAAAAAAAAAAA==

> <PUBCHEM_IUPAC_OPENEYE_NAME>
(2S)-1-[2-[[(2S)-2-[[(2S)-1-[2-(benzyloxycarbonylamino)acetyl]pyrrolidine-2-carbonyl]amino]-4-methyl-pentanoyl]amino]acetyl]pyrrolidine-2-carboxylic acid

> <PUBCHEM_IUPAC_CAS_NAME>
(2S)-1-[2-[[(2S)-4-methyl-1-oxo-2-[[oxo-[(2S)-1-[1-oxo-2-(phenylmethoxycarbonylamino)ethyl]-2-pyrrolidinyl]methyl]amino]pentyl]amino]-1-oxoethyl]-2-pyrrolidinecarboxylic acid

> <PUBCHEM_IUPAC_NAME>
(2S)-1-[2-[[(2S)-4-methyl-2-[[(2S)-1-[2-(phenylmethoxycarbonylamino)acetyl]pyrrolidine-2-carbonyl]amino]pentanoyl]amino]acetyl]pyrrolidine-2-carboxylic acid

> <PUBCHEM_IUPAC_SYSTEMATIC_NAME>
(2S)-1-[2-[[(2S)-4-methyl-2-[[(2S)-1-[2-(phenylmethoxycarbonylamino)ethanoyl]pyrrolidin-2-yl]carbonylamino]pentanoyl]amino]ethanoyl]pyrrolidine-2-carboxylic acid

> <PUBCHEM_IUPAC_TRADITIONAL_NAME>
(2S)-1-[2-[[(2S)-2-[[(2S)-1-[2-(benzyloxycarbonylamino)acetyl]prolyl]amino]-4-methyl-pentanoyl]amino]acetyl]proline

> <PUBCHEM_IUPAC_INCHI>
InChI=1S/C28H39N5O8/c1-18(2)14-20(25(36)29-15-23(34)33-13-7-11-22(33)27(38)39)31-26(37)21-10-6-12-32(21)24(35)16-30-28(40)41-17-19-8-4-3-5-9-19/h3-5,8-9,18,20-22H,6-7,10-17H2,1-2H3,(H,29,36)(H,30,40)(H,31,37)(H,38,39)/t20-,21-,22-/m0/s1

> <PUBCHEM_IUPAC_INCHIKEY>
DGRDYZZPQWDRBB-FKBYEOEOSA-N

> <PUBCHEM_XLOGP3_AA>
1.5

> <PUBCHEM_EXACT_MASS>
573.279863

> <PUBCHEM_MOLECULAR_FORMULA>
C28H39N5O8

> <PUBCHEM_MOLECULAR_WEIGHT>
573.63796

> <PUBCHEM_OPENEYE_CAN_SMILES>
CC(C)CC(C(=O)NCC(=O)N1CCCC1C(=O)O)NC(=O)C2CCCN2C(=O)CNC(=O)OCC3=CC=CC=C3

> <PUBCHEM_OPENEYE_ISO_SMILES>
CC(C)C[C@@H](C(=O)NCC(=O)N1CCC[C@H]1C(=O)O)NC(=O)[C@@H]2CCCN2C(=O)CNC(=O)OCC3=CC=CC=C3

> <PUBCHEM_CACTVS_TPSA>
174

> <PUBCHEM_MONOISOTOPIC_WEIGHT>
573.279863

> <PUBCHEM_TOTAL_CHARGE>
0

> <PUBCHEM_HEAVY_ATOM_COUNT>
41

> <PUBCHEM_ATOM_DEF_STEREO_COUNT>
3

> <PUBCHEM_ATOM_UDEF_STEREO_COUNT>
0

> <PUBCHEM_BOND_DEF_STEREO_COUNT>
0

> <PUBCHEM_BOND_UDEF_STEREO_COUNT>
0

> <PUBCHEM_ISOTOPIC_ATOM_COUNT>
0

> <PUBCHEM_COMPONENT_COUNT>
1

> <PUBCHEM_CACTVS_TAUTO_COUNT>
8

> <PUBCHEM_COORDINATE_TYPE>
1
5
255

> <PUBCHEM_BONDANNOTATIONS>
23  11  6
14  20  5
18  30  6
36  37  8
36  38  8
37  39  8
38  40  8
39  41  8
40  41  8

$$$$

