13223
  -OEChem-06261207553D

 20 22  0     1  0  0  0  0  0999 V2000
    2.0707    0.0000   -0.1409 O   0  0  0  0  0  0  0  0  0  0  0  0
    1.7542   -2.2656   -0.0879 O   0  0  0  0  0  0  0  0  0  0  0  0
    1.7542    2.2657   -0.0878 O   0  0  0  0  0  0  0  0  0  0  0  0
   -1.1649   -1.1184   -0.3028 C   0  0  2  0  0  0  0  0  0  0  0  0
   -1.1648    1.1183   -0.3032 C   0  0  1  0  0  0  0  0  0  0  0  0
    0.0015   -0.7695    0.6473 C   0  0  2  0  0  0  0  0  0  0  0  0
    0.0014    0.7695    0.6472 C   0  0  1  0  0  0  0  0  0  0  0  0
   -1.0759   -0.0002   -1.3499 C   0  0  0  0  0  0  0  0  0  0  0  0
   -2.4392   -0.6714    0.3803 C   0  0  0  0  0  0  0  0  0  0  0  0
   -2.4391    0.6716    0.3800 C   0  0  0  0  0  0  0  0  0  0  0  0
    1.3510   -1.1294    0.1088 C   0  0  0  0  0  0  0  0  0  0  0  0
    1.3509    1.1295    0.1089 C   0  0  0  0  0  0  0  0  0  0  0  0
   -0.1137   -1.1779    1.6571 H   0  0  0  0  0  0  0  0  0  0  0  0
   -0.1139    1.1781    1.6569 H   0  0  0  0  0  0  0  0  0  0  0  0
   -1.1815   -2.1277   -0.7158 H   0  0  0  0  0  0  0  0  0  0  0  0
   -1.1813    2.1274   -0.7165 H   0  0  0  0  0  0  0  0  0  0  0  0
   -0.1414   -0.0003   -1.9200 H   0  0  0  0  0  0  0  0  0  0  0  0
   -1.9134   -0.0003   -2.0602 H   0  0  0  0  0  0  0  0  0  0  0  0
   -3.1788   -1.3127    0.8319 H   0  0  0  0  0  0  0  0  0  0  0  0
   -3.1786    1.3132    0.8314 H   0  0  0  0  0  0  0  0  0  0  0  0
  1 11  1  0  0  0  0
  1 12  1  0  0  0  0
  2 11  2  0  0  0  0
  3 12  2  0  0  0  0
  4  6  1  0  0  0  0
  4  8  1  0  0  0  0
  4  9  1  0  0  0  0
  4 15  1  0  0  0  0
  5  7  1  0  0  0  0
  5  8  1  0  0  0  0
  5 10  1  0  0  0  0
  5 16  1  0  0  0  0
  6  7  1  0  0  0  0
  6 11  1  0  0  0  0
  6 13  1  0  0  0  0
  7 12  1  0  0  0  0
  7 14  1  0  0  0  0
  8 17  1  0  0  0  0
  8 18  1  0  0  0  0
  9 10  2  0  0  0  0
  9 19  1  0  0  0  0
 10 20  1  0  0  0  0
M  END
> <PUBCHEM_COMPOUND_CID>
13223

> <PUBCHEM_CONFORMER_RMSD>
0.4

> <PUBCHEM_CONFORMER_DIVERSEORDER>
1
3
2
4

> <PUBCHEM_MMFF94_PARTIAL_CHARGES>
13
1 -0.3
10 -0.29
11 0.66
12 0.66
19 0.15
2 -0.57
20 0.15
3 -0.57
4 0.14
5 0.14
6 0.06
7 0.06
9 -0.29

> <PUBCHEM_EFFECTIVE_ROTOR_COUNT>
0.4

> <PUBCHEM_PHARMACOPHORE_FEATURES>
4
1 2 acceptor
1 3 acceptor
5 1 6 7 11 12 rings
7 4 5 6 7 8 9 10 rings

> <PUBCHEM_HEAVY_ATOM_COUNT>
12

> <PUBCHEM_ATOM_DEF_STEREO_COUNT>
0

> <PUBCHEM_ATOM_UDEF_STEREO_COUNT>
4

> <PUBCHEM_BOND_DEF_STEREO_COUNT>
0

> <PUBCHEM_BOND_UDEF_STEREO_COUNT>
0

> <PUBCHEM_ISOTOPIC_ATOM_COUNT>
0

> <PUBCHEM_COMPONENT_COUNT>
1

> <PUBCHEM_CACTVS_TAUTO_COUNT>
1

> <PUBCHEM_CONFORMER_ID>
000033A700000001

> <PUBCHEM_MMFF94_ENERGY>
35.8828

> <PUBCHEM_FEATURE_SELFOVERLAP>
20.395

> <PUBCHEM_SHAPE_FINGERPRINT>
12423570 1 15046126927566025819
12524768 44 18272373053210545559
13024252 1 16768421667999136762
16945 1 18410571786302262425
21040471 1 17977387127267782944
23552423 10 18410012113377382399
241688 4 17906173202203311256
2748010 2 18049729808238913750
29004967 10 18338518641755676722
369184 2 18410860966460864667
5084963 1 18042133209704650539
528886 8 18265900150727078912

> <PUBCHEM_SHAPE_MULTIPOLES>
229.35
2.98
1.89
0.88
0.41
0
0.16
0
-0.14
-1.14
0.02
0.26
0
0

> <PUBCHEM_SHAPE_SELFOVERLAP>
523.352

> <PUBCHEM_SHAPE_VOLUME>
126.1

> <PUBCHEM_COORDINATE_TYPE>
2
5
10

$$$$

