164544
  -OEChem-07051212562D

 36 37  0     0  0  0  0  0  0999 V2000
    7.1962   -1.6154    0.0000 Cl  0  5  0  0  0  0  0  0  0  0  0  0
    7.1962   -0.6154    0.0000 O   0  3  0  0  0  0  0  0  0  0  0  0
    5.4641    1.3846    0.0000 O   0  0  0  0  0  0  0  0  0  0  0  0
    8.9446    2.4192    0.0000 O   0  0  0  0  0  0  0  0  0  0  0  0
    2.8660   -0.1154    0.0000 O   0  0  0  0  0  0  0  0  0  0  0  0
   10.7263   -0.6395    0.0000 O   0  0  0  0  0  0  0  0  0  0  0  0
    2.8660   -2.1154    0.0000 O   0  0  0  0  0  0  0  0  0  0  0  0
    8.0622    0.8846    0.0000 C   0  0  0  0  0  0  0  0  0  0  0  0
    6.3301   -0.1154    0.0000 C   0  0  0  0  0  0  0  0  0  0  0  0
    8.0622   -0.1154    0.0000 C   0  0  0  0  0  0  0  0  0  0  0  0
    5.4641   -0.6154    0.0000 C   0  0  0  0  0  0  0  0  0  0  0  0
    6.3301    0.8846    0.0000 C   0  0  0  0  0  0  0  0  0  0  0  0
    7.1962    1.3846    0.0000 C   0  0  0  0  0  0  0  0  0  0  0  0
    8.9561    1.4193    0.0000 C   0  0  0  0  0  0  0  0  0  0  0  0
    8.9561   -0.6501    0.0000 C   0  0  0  0  0  0  0  0  0  0  0  0
    4.5981   -0.1154    0.0000 C   0  0  0  0  0  0  0  0  0  0  0  0
    5.4641   -1.6154    0.0000 C   0  0  0  0  0  0  0  0  0  0  0  0
    9.8622   -0.1362    0.0000 C   0  0  0  0  0  0  0  0  0  0  0  0
    9.8622    0.9054    0.0000 C   0  0  0  0  0  0  0  0  0  0  0  0
    3.7320   -0.6154    0.0000 C   0  0  0  0  0  0  0  0  0  0  0  0
    4.5981   -2.1154    0.0000 C   0  0  0  0  0  0  0  0  0  0  0  0
    3.7320   -1.6154    0.0000 C   0  0  0  0  0  0  0  0  0  0  0  0
    2.0000   -0.6154    0.0000 C   0  0  0  0  0  0  0  0  0  0  0  0
    7.1962    2.0046    0.0000 H   0  0  0  0  0  0  0  0  0  0  0  0
    8.9490   -1.2700    0.0000 H   0  0  0  0  0  0  0  0  0  0  0  0
    4.5981    0.5046    0.0000 H   0  0  0  0  0  0  0  0  0  0  0  0
    6.0010   -1.9254    0.0000 H   0  0  0  0  0  0  0  0  0  0  0  0
   10.3979    1.2175    0.0000 H   0  0  0  0  0  0  0  0  0  0  0  0
    4.5981   -2.7354    0.0000 H   0  0  0  0  0  0  0  0  0  0  0  0
    5.4641    2.0046    0.0000 H   0  0  0  0  0  0  0  0  0  0  0  0
    9.4779    2.7354    0.0000 H   0  0  0  0  0  0  0  0  0  0  0  0
   11.2644   -0.3316    0.0000 H   0  0  0  0  0  0  0  0  0  0  0  0
    2.8660   -2.7354    0.0000 H   0  0  0  0  0  0  0  0  0  0  0  0
    1.6900   -0.0785    0.0000 H   0  0  0  0  0  0  0  0  0  0  0  0
    1.4631   -0.9254    0.0000 H   0  0  0  0  0  0  0  0  0  0  0  0
    2.3100   -1.1523    0.0000 H   0  0  0  0  0  0  0  0  0  0  0  0
  2  9  2  0  0  0  0
  2 10  1  0  0  0  0
  3 12  1  0  0  0  0
  3 30  1  0  0  0  0
  4 14  1  0  0  0  0
  4 31  1  0  0  0  0
  5 20  1  0  0  0  0
  5 23  1  0  0  0  0
  6 18  1  0  0  0  0
  6 32  1  0  0  0  0
  7 22  1  0  0  0  0
  7 33  1  0  0  0  0
  8 10  1  0  0  0  0
  8 13  1  0  0  0  0
  8 14  2  0  0  0  0
  9 11  1  0  0  0  0
  9 12  1  0  0  0  0
 10 15  2  0  0  0  0
 11 16  2  0  0  0  0
 11 17  1  0  0  0  0
 12 13  2  0  0  0  0
 13 24  1  0  0  0  0
 14 19  1  0  0  0  0
 15 18  1  0  0  0  0
 15 25  1  0  0  0  0
 16 20  1  0  0  0  0
 16 26  1  0  0  0  0
 17 21  2  0  0  0  0
 17 27  1  0  0  0  0
 18 19  2  0  0  0  0
 19 28  1  0  0  0  0
 20 22  2  0  0  0  0
 21 22  1  0  0  0  0
 21 29  1  0  0  0  0
 23 34  1  0  0  0  0
 23 35  1  0  0  0  0
 23 36  1  0  0  0  0
M  CHG  2   1  -1   2   1
M  END
> <PUBCHEM_COMPOUND_CID>
164544

> <PUBCHEM_COMPOUND_CANONICALIZED>
1

> <PUBCHEM_CACTVS_COMPLEXITY>
378

> <PUBCHEM_CACTVS_HBOND_ACCEPTOR>
6

> <PUBCHEM_CACTVS_HBOND_DONOR>
4

> <PUBCHEM_CACTVS_ROTATABLE_BOND>
2

> <PUBCHEM_CACTVS_SUBSKEYS>
AAADccB4OAAEAAAAAAAAAAAAAAAAAAAAAAA0YIAAAAAAAACR9AAAGgAACAAADASAmAIyBsAABkCIAqBSAAICCAAkIAAIiAFGiMgNJzaGNRqCeWOl4BULuYfK7PzOIAABCAAIQABAAAIQABCAAAAAAAAAAA==

> <PUBCHEM_IUPAC_OPENEYE_NAME>
2-(4-hydroxy-3-methoxy-phenyl)chromenylium-3,5,7-triol chloride

> <PUBCHEM_IUPAC_CAS_NAME>
2-(4-hydroxy-3-methoxyphenyl)-1-benzopyrylium-3,5,7-triol chloride

> <PUBCHEM_IUPAC_NAME>
2-(4-hydroxy-3-methoxyphenyl)chromenylium-3,5,7-triol chloride

> <PUBCHEM_IUPAC_SYSTEMATIC_NAME>
2-(3-methoxy-4-oxidanyl-phenyl)chromenylium-3,5,7-triol chloride

> <PUBCHEM_IUPAC_TRADITIONAL_NAME>
2-(4-hydroxy-3-methoxy-phenyl)-1-benzopyrylium-3,5,7-triol chloride

> <PUBCHEM_IUPAC_INCHI>
InChI=1S/C16H12O6.ClH/c1-21-15-4-8(2-3-11(15)18)16-13(20)7-10-12(19)5-9(17)6-14(10)22-16;/h2-7H,1H3,(H3-,17,18,19,20);1H

> <PUBCHEM_IUPAC_INCHIKEY>
OGBSHLKSHNAPEW-UHFFFAOYSA-N

> <PUBCHEM_EXACT_MASS>
336.040066

> <PUBCHEM_MOLECULAR_FORMULA>
C16H13ClO6

> <PUBCHEM_MOLECULAR_WEIGHT>
336.72382

> <PUBCHEM_OPENEYE_CAN_SMILES>
COC1=C(C=CC(=C1)C2=C(C=C3C(=CC(=CC3=[O+]2)O)O)O)O.[Cl-]

> <PUBCHEM_OPENEYE_ISO_SMILES>
COC1=C(C=CC(=C1)C2=C(C=C3C(=CC(=CC3=[O+]2)O)O)O)O.[Cl-]

> <PUBCHEM_CACTVS_TPSA>
91.2

> <PUBCHEM_MONOISOTOPIC_WEIGHT>
336.040066

> <PUBCHEM_TOTAL_CHARGE>
0

> <PUBCHEM_HEAVY_ATOM_COUNT>
23

> <PUBCHEM_ATOM_DEF_STEREO_COUNT>
0

> <PUBCHEM_ATOM_UDEF_STEREO_COUNT>
0

> <PUBCHEM_BOND_DEF_STEREO_COUNT>
0

> <PUBCHEM_BOND_UDEF_STEREO_COUNT>
0

> <PUBCHEM_ISOTOPIC_ATOM_COUNT>
0

> <PUBCHEM_COMPONENT_COUNT>
2

> <PUBCHEM_CACTVS_TAUTO_COUNT>
212

> <PUBCHEM_COORDINATE_TYPE>
1
5
255

> <PUBCHEM_BONDANNOTATIONS>
10  15  8
11  16  8
11  17  8
12  13  8
14  19  8
15  18  8
16  20  8
17  21  8
18  19  8
2  10  8
2  9  8
20  22  8
21  22  8
8  10  8
8  13  8
8  14  8
9  12  8

$$$$

