17396404
  -OEChem-06241222563D

 35 37  0     0  0  0  0  0  0999 V2000
    3.1075    1.3300   -1.2834 S   0  0  0  0  0  0  0  0  0  0  0  0
   -2.2270    2.0319    1.3937 O   0  0  0  0  0  0  0  0  0  0  0  0
   -0.3889    2.4418    0.0475 N   0  0  0  0  0  0  0  0  0  0  0  0
    1.3292    0.0418    0.0695 N   0  0  0  0  0  0  0  0  0  0  0  0
   -1.7953    0.6024   -0.3904 N   0  0  0  0  0  0  0  0  0  0  0  0
   -3.9784   -2.2981   -1.1165 N   0  0  0  0  0  0  0  0  0  0  0  0
    0.4399    2.0566   -1.0929 C   0  0  0  0  0  0  0  0  0  0  0  0
    1.5175    1.0868   -0.7021 C   0  0  0  0  0  0  0  0  0  0  0  0
    3.6217   -0.0828   -0.4391 C   0  0  0  0  0  0  0  0  0  0  0  0
    2.5273   -0.6389    0.2303 C   0  0  0  0  0  0  0  0  0  0  0  0
   -1.5317    1.7018    0.4305 C   0  0  0  0  0  0  0  0  0  0  0  0
    0.0368    3.6368    0.7649 C   0  0  0  0  0  0  0  0  0  0  0  0
    4.9013   -0.6574   -0.3734 C   0  0  0  0  0  0  0  0  0  0  0  0
    2.7236   -1.8115    0.9920 C   0  0  0  0  0  0  0  0  0  0  0  0
    5.0682   -1.8175    0.3873 C   0  0  0  0  0  0  0  0  0  0  0  0
    3.9948   -2.3887    1.0619 C   0  0  0  0  0  0  0  0  0  0  0  0
   -2.8568   -0.3291   -0.2738 C   0  0  0  0  0  0  0  0  0  0  0  0
   -3.7972   -0.2202    0.7445 C   0  0  0  0  0  0  0  0  0  0  0  0
   -2.9905   -1.3767   -1.1708 C   0  0  0  0  0  0  0  0  0  0  0  0
   -4.8282   -1.1490    0.8334 C   0  0  0  0  0  0  0  0  0  0  0  0
   -4.8739   -2.1599   -0.1131 C   0  0  0  0  0  0  0  0  0  0  0  0
    0.8829    2.9789   -1.4924 H   0  0  0  0  0  0  0  0  0  0  0  0
   -0.1532    1.6632   -1.9227 H   0  0  0  0  0  0  0  0  0  0  0  0
    1.0627    3.4965    1.1172 H   0  0  0  0  0  0  0  0  0  0  0  0
   -0.6100    3.8326    1.6236 H   0  0  0  0  0  0  0  0  0  0  0  0
   -0.0082    4.4929    0.0855 H   0  0  0  0  0  0  0  0  0  0  0  0
    5.7439   -0.2168   -0.8973 H   0  0  0  0  0  0  0  0  0  0  0  0
    1.8919   -2.2660    1.5228 H   0  0  0  0  0  0  0  0  0  0  0  0
   -1.1544    0.3676   -1.1371 H   0  0  0  0  0  0  0  0  0  0  0  0
    6.0505   -2.2781    0.4514 H   0  0  0  0  0  0  0  0  0  0  0  0
    4.1435   -3.2911    1.6487 H   0  0  0  0  0  0  0  0  0  0  0  0
   -3.7952    0.5509    1.5013 H   0  0  0  0  0  0  0  0  0  0  0  0
   -2.2883   -1.5156   -1.9874 H   0  0  0  0  0  0  0  0  0  0  0  0
   -5.5729   -1.0852    1.6187 H   0  0  0  0  0  0  0  0  0  0  0  0
   -5.6579   -2.9095   -0.0877 H   0  0  0  0  0  0  0  0  0  0  0  0
  1  8  1  0  0  0  0
  1  9  1  0  0  0  0
  2 11  2  0  0  0  0
  3  7  1  0  0  0  0
  3 11  1  0  0  0  0
  3 12  1  0  0  0  0
  4  8  2  0  0  0  0
  4 10  1  0  0  0  0
  5 11  1  0  0  0  0
  5 17  1  0  0  0  0
  5 29  1  0  0  0  0
  6 19  1  0  0  0  0
  6 21  2  0  0  0  0
  7  8  1  0  0  0  0
  7 22  1  0  0  0  0
  7 23  1  0  0  0  0
  9 10  1  0  0  0  0
  9 13  2  0  0  0  0
 10 14  2  0  0  0  0
 12 24  1  0  0  0  0
 12 25  1  0  0  0  0
 12 26  1  0  0  0  0
 13 15  1  0  0  0  0
 13 27  1  0  0  0  0
 14 16  1  0  0  0  0
 14 28  1  0  0  0  0
 15 16  2  0  0  0  0
 15 30  1  0  0  0  0
 16 31  1  0  0  0  0
 17 18  1  0  0  0  0
 17 19  2  0  0  0  0
 18 20  2  0  0  0  0
 18 32  1  0  0  0  0
 19 33  1  0  0  0  0
 20 21  1  0  0  0  0
 20 34  1  0  0  0  0
 21 35  1  0  0  0  0
M  END
> <PUBCHEM_COMPOUND_CID>
17396404

> <PUBCHEM_CONFORMER_RMSD>
0.8

> <PUBCHEM_CONFORMER_DIVERSEORDER>
11
79
40
229
237
147
106
231
55
66
42
166
252
171
39
241
267
31
215
134
176
236
149
56
205
19
259
15
276
247
172
278
222
123
97
170
45
206
179
193
111
46
146
65
274
61
76
248
249
264
99
272
244
13
74
233
186
8
208
250
73
22
14
35
225
110
258
261
117
188
116
173
53
126
75
96
125
91
190
160
142
112
216
226
242
182
209
50
130
18
234
284
151
177
167
221
137
210
17
85
279
232
23
192
143
127
140
105
57
235
121
67
269
219
181
21
283
78
98
164
189
198
220
228
92
43
95
168
114
51
77
150
89
52
131
254
268
132
81
48
155
90
47
217
271
154
37
251
68
141
107
59
113
102
266
227
240
180
212
136
253
202
84
169
255
64
273
32
163
83
270
262
156
36
203
185
280
108
16
224
128
133
135
145
12
148
70
158
38
100
101
44
263
260
118
24
88
71
201
104
62
243
200
124
207
256
138
33
119
80
49
10
195
277
82
26
20
157
246
191
159
63
25
184
72
103
6
86
245
282
281
211
115
122
218
1
187
93
120
28
87
7
183
109
41
94
213
238
54
199
34
194
265
257
197
139
69
27
4
129
161
175
9
275
5
144
214
29
162
174
239
196
2
153
178
223
58
152
204
30
165
60
3
230

> <PUBCHEM_MMFF94_PARTIAL_CHARGES>
30
1 -0.08
10 0.23
11 0.69
12 0.3
13 -0.15
14 -0.15
15 -0.15
16 -0.15
17 0.12
18 -0.15
19 0.16
2 -0.57
20 -0.15
21 0.16
27 0.15
28 0.15
29 0.37
3 -0.66
30 0.15
31 0.15
32 0.15
33 0.15
34 0.15
35 0.15
4 -0.57
5 -0.55
6 -0.62
7 0.48
8 0.2
9 0.04

> <PUBCHEM_EFFECTIVE_ROTOR_COUNT>
5

> <PUBCHEM_PHARMACOPHORE_FEATURES>
7
1 2 acceptor
1 4 acceptor
1 5 donor
1 6 acceptor
5 1 4 8 9 10 rings
6 6 17 18 19 20 21 rings
6 9 10 13 14 15 16 rings

> <PUBCHEM_HEAVY_ATOM_COUNT>
21

> <PUBCHEM_ATOM_DEF_STEREO_COUNT>
0

> <PUBCHEM_ATOM_UDEF_STEREO_COUNT>
0

> <PUBCHEM_BOND_DEF_STEREO_COUNT>
0

> <PUBCHEM_BOND_UDEF_STEREO_COUNT>
0

> <PUBCHEM_ISOTOPIC_ATOM_COUNT>
0

> <PUBCHEM_COMPONENT_COUNT>
1

> <PUBCHEM_CACTVS_TAUTO_COUNT>
2

> <PUBCHEM_CONFORMER_ID>
010972B40000000B

> <PUBCHEM_MMFF94_ENERGY>
54.9132

> <PUBCHEM_FEATURE_SELFOVERLAP>
35.591

> <PUBCHEM_SHAPE_FINGERPRINT>
11045515 52 18059858384816350533
11265709 11 18409165506730536065
11552529 35 18120942969242130584
11578080 2 18341068344897246269
12174731 88 17050504735055177178
12553582 1 18334860493682300511
12633257 1 16153716383740306851
12788726 201 18188749713677503257
12824470 246 18411981372967762353
13004483 165 18409735096766979889
13009979 54 18338229479241089196
13103583 49 18113326523162936531
13544653 18 18342739598154067997
13583140 156 17096952358556130850
1420 369 18411418414582655566
14251757 17 16917067741713880787
14576447 43 18272367573228116294
14767858 380 18058713742563135478
14787075 74 18338232649217669180
15099037 8 18341891947935858512
15342816 4 18337660949909042044
15352361 1 18413671309502263987
15375462 189 18337667508371458461
15415430 10 18342176695766975226
15475509 35 17838036128056285931
15537594 2 18339346488222835311
17349148 13 17917713526362540226
17492 89 18268146629451382818
200 152 18273212001867490618
20291156 8 18411420609236746543
20645477 70 17417807306035024876
20775530 9 18342465849771028659
21033648 29 15502642837259157329
21250096 35 18410577279707858845
23366157 5 17976819792469880489
235170 7 16415485913100354671
23598288 3 18334579087514822101
3004659 81 18131355210627912694
312423 11 18341319072418219070
314194 84 18340763728720334883
339767 52 18338526321141481495
351380 3 18410853248304972191
46194498 28 16557904490573566415
463206 1 18341610361163735739
7970288 3 18410577266655269231
85463 6 18188221973469932823

> <PUBCHEM_SHAPE_MULTIPOLES>
410.23
10.97
3.44
1.21
1.69
1.8
0.05
-10.36
-0.29
0.18
-0.7
0.2
0.09
-2.07

> <PUBCHEM_SHAPE_SELFOVERLAP>
872.648

> <PUBCHEM_SHAPE_VOLUME>
230.1

> <PUBCHEM_COORDINATE_TYPE>
2
5
10

$$$$

