134572
  -OEChem-07051213053D

 69 72  0     1  0  0  0  0  0999 V2000
   -5.0130   -0.2143   -0.4303 O   0  0  0  0  0  0  0  0  0  0  0  0
    4.9833   -0.0541   -1.1529 O   0  0  0  0  0  0  0  0  0  0  0  0
   -6.1435    1.7903   -0.5964 O   0  0  0  0  0  0  0  0  0  0  0  0
    6.6493    0.9164    0.1145 O   0  0  0  0  0  0  0  0  0  0  0  0
    0.3913   -0.6861   -0.1836 C   0  0  1  0  0  0  0  0  0  0  0  0
   -0.2768   -0.0290    1.0688 C   0  0  2  0  0  0  0  0  0  0  0  0
   -1.6100    0.5923    0.6392 C   0  0  1  0  0  0  0  0  0  0  0  0
    1.7985   -1.3041    0.1584 C   0  0  2  0  0  0  0  0  0  0  0  0
   -2.5887   -0.4453    0.0533 C   0  0  2  0  0  0  0  0  0  0  0  0
    2.6714   -0.1631    0.7730 C   0  0  1  0  0  0  0  0  0  0  0  0
   -0.5740   -1.6544   -0.9184 C   0  0  0  0  0  0  0  0  0  0  0  0
   -1.9542   -1.0373   -1.2121 C   0  0  0  0  0  0  0  0  0  0  0  0
    0.6479    1.0139    1.7124 C   0  0  0  0  0  0  0  0  0  0  0  0
   -3.7990    0.4753   -0.2036 C   0  0  2  0  0  0  0  0  0  0  0  0
   -2.4538    1.3352    1.6723 C   0  0  0  0  0  0  0  0  0  0  0  0
    2.0330    0.4516    2.0243 C   0  0  0  0  0  0  0  0  0  0  0  0
    2.5091   -1.7975   -1.1339 C   0  0  0  0  0  0  0  0  0  0  0  0
   -3.8605    1.3749    1.0473 C   0  0  0  0  0  0  0  0  0  0  0  0
    4.1226   -0.5967    1.0407 C   0  0  0  0  0  0  0  0  0  0  0  0
    1.6496   -2.5080    1.1240 C   0  0  0  0  0  0  0  0  0  0  0  0
   -2.9688   -1.5921    1.0237 C   0  0  0  0  0  0  0  0  0  0  0  0
    3.9701   -2.2112   -0.9127 C   0  0  0  0  0  0  0  0  0  0  0  0
    4.7953   -1.1249   -0.2280 C   0  0  1  0  0  0  0  0  0  0  0  0
   -6.1272    0.5672   -0.6144 C   0  0  0  0  0  0  0  0  0  0  0  0
    5.7413    0.9914   -0.7018 C   0  0  0  0  0  0  0  0  0  0  0  0
   -7.3310   -0.3165   -0.8434 C   0  0  0  0  0  0  0  0  0  0  0  0
    5.2781    2.2618   -1.3754 C   0  0  0  0  0  0  0  0  0  0  0  0
   -8.6037    0.4895   -1.0357 C   0  0  0  0  0  0  0  0  0  0  0  0
    6.0636    3.4751   -0.9092 C   0  0  0  0  0  0  0  0  0  0  0  0
    0.5788    0.1314   -0.8982 H   0  0  0  0  0  0  0  0  0  0  0  0
   -0.4741   -0.7951    1.8256 H   0  0  0  0  0  0  0  0  0  0  0  0
   -1.3746    1.3307   -0.1458 H   0  0  0  0  0  0  0  0  0  0  0  0
    2.7210    0.6462    0.0289 H   0  0  0  0  0  0  0  0  0  0  0  0
   -0.7100   -2.5722   -0.3388 H   0  0  0  0  0  0  0  0  0  0  0  0
   -0.1379   -1.9580   -1.8767 H   0  0  0  0  0  0  0  0  0  0  0  0
   -1.8299   -0.2552   -1.9722 H   0  0  0  0  0  0  0  0  0  0  0  0
   -2.6106   -1.7957   -1.6555 H   0  0  0  0  0  0  0  0  0  0  0  0
    0.2025    1.3904    2.6407 H   0  0  0  0  0  0  0  0  0  0  0  0
    0.7555    1.8770    1.0428 H   0  0  0  0  0  0  0  0  0  0  0  0
   -3.5926    1.1009   -1.0841 H   0  0  0  0  0  0  0  0  0  0  0  0
   -2.0739    2.3441    1.8629 H   0  0  0  0  0  0  0  0  0  0  0  0
   -2.4761    0.8030    2.6299 H   0  0  0  0  0  0  0  0  0  0  0  0
    2.6637    1.2659    2.4017 H   0  0  0  0  0  0  0  0  0  0  0  0
    1.9657   -0.2867    2.8313 H   0  0  0  0  0  0  0  0  0  0  0  0
    2.4804   -1.0037   -1.8920 H   0  0  0  0  0  0  0  0  0  0  0  0
    1.9768   -2.6544   -1.5632 H   0  0  0  0  0  0  0  0  0  0  0  0
   -4.6109    1.0367    1.7708 H   0  0  0  0  0  0  0  0  0  0  0  0
   -4.1140    2.4047    0.7725 H   0  0  0  0  0  0  0  0  0  0  0  0
    4.6689    0.2502    1.4684 H   0  0  0  0  0  0  0  0  0  0  0  0
    4.1447   -1.3766    1.8107 H   0  0  0  0  0  0  0  0  0  0  0  0
    1.1202   -3.3376    0.6440 H   0  0  0  0  0  0  0  0  0  0  0  0
    2.6148   -2.9071    1.4473 H   0  0  0  0  0  0  0  0  0  0  0  0
    1.0993   -2.2550    2.0333 H   0  0  0  0  0  0  0  0  0  0  0  0
   -3.6623   -2.2894    0.5393 H   0  0  0  0  0  0  0  0  0  0  0  0
   -2.1056   -2.1774    1.3505 H   0  0  0  0  0  0  0  0  0  0  0  0
   -3.4651   -1.2252    1.9277 H   0  0  0  0  0  0  0  0  0  0  0  0
    4.0078   -3.1309   -0.3181 H   0  0  0  0  0  0  0  0  0  0  0  0
    4.4105   -2.4476   -1.8892 H   0  0  0  0  0  0  0  0  0  0  0  0
    5.7798   -1.5430    0.0168 H   0  0  0  0  0  0  0  0  0  0  0  0
   -7.1480   -0.9258   -1.7347 H   0  0  0  0  0  0  0  0  0  0  0  0
   -7.4464   -0.9748    0.0241 H   0  0  0  0  0  0  0  0  0  0  0  0
    5.3995    2.1441   -2.4572 H   0  0  0  0  0  0  0  0  0  0  0  0
    4.2172    2.4090   -1.1473 H   0  0  0  0  0  0  0  0  0  0  0  0
   -8.5204    1.1552   -1.9013 H   0  0  0  0  0  0  0  0  0  0  0  0
   -9.4564   -0.1770   -1.1974 H   0  0  0  0  0  0  0  0  0  0  0  0
   -8.8139    1.1080   -0.1568 H   0  0  0  0  0  0  0  0  0  0  0  0
    7.1303    3.3612   -1.1290 H   0  0  0  0  0  0  0  0  0  0  0  0
    5.7049    4.3780   -1.4126 H   0  0  0  0  0  0  0  0  0  0  0  0
    5.9580    3.6201    0.1711 H   0  0  0  0  0  0  0  0  0  0  0  0
  1 14  1  0  0  0  0
  1 24  1  0  0  0  0
  2 23  1  0  0  0  0
  2 25  1  0  0  0  0
  3 24  2  0  0  0  0
  4 25  2  0  0  0  0
  5  6  1  0  0  0  0
  5  8  1  0  0  0  0
  5 11  1  0  0  0  0
  5 30  1  0  0  0  0
  6  7  1  0  0  0  0
  6 13  1  0  0  0  0
  6 31  1  0  0  0  0
  7  9  1  0  0  0  0
  7 15  1  0  0  0  0
  7 32  1  0  0  0  0
  8 10  1  0  0  0  0
  8 17  1  0  0  0  0
  8 20  1  0  0  0  0
  9 12  1  0  0  0  0
  9 14  1  0  0  0  0
  9 21  1  0  0  0  0
 10 16  1  0  0  0  0
 10 19  1  0  0  0  0
 10 33  1  0  0  0  0
 11 12  1  0  0  0  0
 11 34  1  0  0  0  0
 11 35  1  0  0  0  0
 12 36  1  0  0  0  0
 12 37  1  0  0  0  0
 13 16  1  0  0  0  0
 13 38  1  0  0  0  0
 13 39  1  0  0  0  0
 14 18  1  0  0  0  0
 14 40  1  0  0  0  0
 15 18  1  0  0  0  0
 15 41  1  0  0  0  0
 15 42  1  0  0  0  0
 16 43  1  0  0  0  0
 16 44  1  0  0  0  0
 17 22  1  0  0  0  0
 17 45  1  0  0  0  0
 17 46  1  0  0  0  0
 18 47  1  0  0  0  0
 18 48  1  0  0  0  0
 19 23  1  0  0  0  0
 19 49  1  0  0  0  0
 19 50  1  0  0  0  0
 20 51  1  0  0  0  0
 20 52  1  0  0  0  0
 20 53  1  0  0  0  0
 21 54  1  0  0  0  0
 21 55  1  0  0  0  0
 21 56  1  0  0  0  0
 22 23  1  0  0  0  0
 22 57  1  0  0  0  0
 22 58  1  0  0  0  0
 23 59  1  0  0  0  0
 24 26  1  0  0  0  0
 25 27  1  0  0  0  0
 26 28  1  0  0  0  0
 26 60  1  0  0  0  0
 26 61  1  0  0  0  0
 27 29  1  0  0  0  0
 27 62  1  0  0  0  0
 27 63  1  0  0  0  0
 28 64  1  0  0  0  0
 28 65  1  0  0  0  0
 28 66  1  0  0  0  0
 29 67  1  0  0  0  0
 29 68  1  0  0  0  0
 29 69  1  0  0  0  0
M  END
> <PUBCHEM_COMPOUND_CID>
134572

> <PUBCHEM_CONFORMER_RMSD>
1

> <PUBCHEM_CONFORMER_DIVERSEORDER>
1
7
6
8
5
4
2
3

> <PUBCHEM_MMFF94_PARTIAL_CHARGES>
10
1 -0.43
14 0.28
2 -0.43
23 0.28
24 0.66
25 0.66
26 0.06
27 0.06
3 -0.57
4 -0.57

> <PUBCHEM_EFFECTIVE_ROTOR_COUNT>
8.2

> <PUBCHEM_PHARMACOPHORE_FEATURES>
8
1 28 hydrophobe
1 29 hydrophobe
1 3 acceptor
1 4 acceptor
5 7 9 14 15 18 rings
6 5 6 7 9 11 12 rings
6 5 6 8 10 13 16 rings
6 8 10 17 19 22 23 rings

> <PUBCHEM_HEAVY_ATOM_COUNT>
29

> <PUBCHEM_ATOM_DEF_STEREO_COUNT>
8

> <PUBCHEM_ATOM_UDEF_STEREO_COUNT>
0

> <PUBCHEM_BOND_DEF_STEREO_COUNT>
0

> <PUBCHEM_BOND_UDEF_STEREO_COUNT>
0

> <PUBCHEM_ISOTOPIC_ATOM_COUNT>
0

> <PUBCHEM_COMPONENT_COUNT>
1

> <PUBCHEM_CACTVS_TAUTO_COUNT>
1

> <PUBCHEM_CONFORMER_ID>
00020DAC00000001

> <PUBCHEM_MMFF94_ENERGY>
84.4145

> <PUBCHEM_FEATURE_SELFOVERLAP>
40.685

> <PUBCHEM_SHAPE_FINGERPRINT>
10 15 12175615187717544991
10591671 39 18186519895680057333
10673678 19 18339354155198505292
10906281 52 17968642922272927275
11135609 127 18338804412401784044
11135609 187 18194118521803699456
11456790 92 12103566416143720133
11961588 58 18413105052376370290
12011746 2 17822294595583711955
12236239 1 18337111262951767343
12522641 24 16916800595476258472
12633257 1 13830125066858759374
13533116 47 8286199444635441204
13540713 4 17098073627834484147
13540713 5 17388524175887352538
13617811 41 18260271828146443120
13668630 136 14706927337120699085
13685833 64 6338959953797640452
13782708 43 5400792865526172509
14117953 113 18411410693292150916
14251757 52 18202286913744734109
14294032 229 14563348771614281803
14767858 380 18040152915816299149
15082195 135 18187644687459327600
15131766 46 17986955133809907468
15183329 4 17167863071576711635
15361156 5 18334859377898119399
15475509 35 7637408389614935268
15510800 12 5905782055353285764
15840311 113 18202562869508849068
17492 54 18041271098294417898
18335252 114 18412258438073344252
18608769 82 18339637846647872691
19319366 153 18334579066251618598
20157964 124 18342736334374613958
2026 5 14635412979727441060
20554085 129 15769781243116724977
20715895 44 18341046321121824052
20771845 171 17894623786063086886
21049683 118 17845104978388851280
21049683 271 18261395521305050737
21150785 3 18410576184913269629
21267235 1 17385445436435165323
21344244 181 4895274819322967004
21781051 124 17823135640902440815
21792934 111 12966864454734264749
221357 26 17385447643520750683
23522609 53 17605529198267526305
23559900 14 17531261521395744363
23569914 2 16984108268352903532
23569943 247 14492127922255108358
27425 322 17846498080832562370
3004659 81 18114459080733740102
3472631 163 18412822465519984470
34797466 226 18413105086936458455
350125 39 17676208017946305873
3633792 109 18341895229818367597
3886686 26 10803778736589014996
4072396 5 12895352200693208698
4093350 32 16486983941650408115
4258327 124 18342167818043266109
474 4 18341324527522615434
86090 222 5617265818825987788

> <PUBCHEM_SHAPE_MULTIPOLES>
573.33
18.36
2.47
1.6
19.2
0.77
-0.42
9.74
9.19
-4.1
0.57
-0.38
0.25
-1.1

> <PUBCHEM_SHAPE_SELFOVERLAP>
1197.571

> <PUBCHEM_SHAPE_VOLUME>
321.1

> <PUBCHEM_COORDINATE_TYPE>
2
5
10

$$$$

