11906
  -OEChem-06261206163D

 15 15  0     0  0  0  0  0  0999 V2000
    0.9003    2.3528    0.1217 Cl  0  0  0  0  0  0  0  0  0  0  0  0
    2.8111   -0.7898   -0.8457 Cl  0  0  0  0  0  0  0  0  0  0  0  0
    0.4240   -0.3237    0.3139 C   0  0  0  0  0  0  0  0  0  0  0  0
   -0.0981    0.9460    0.0664 C   0  0  0  0  0  0  0  0  0  0  0  0
   -0.4080   -1.4421    0.2619 C   0  0  0  0  0  0  0  0  0  0  0  0
    1.8687   -0.5281    0.6378 C   0  0  0  0  0  0  0  0  0  0  0  0
   -1.4521    1.0970   -0.2332 C   0  0  0  0  0  0  0  0  0  0  0  0
   -1.7619   -1.2909   -0.0376 C   0  0  0  0  0  0  0  0  0  0  0  0
   -2.2840   -0.0214   -0.2851 C   0  0  0  0  0  0  0  0  0  0  0  0
   -0.0164   -2.4383    0.4504 H   0  0  0  0  0  0  0  0  0  0  0  0
    2.0015   -1.4141    1.2688 H   0  0  0  0  0  0  0  0  0  0  0  0
    2.3088    0.3042    1.1944 H   0  0  0  0  0  0  0  0  0  0  0  0
   -1.8745    2.0794   -0.4286 H   0  0  0  0  0  0  0  0  0  0  0  0
   -2.4097   -2.1618   -0.0787 H   0  0  0  0  0  0  0  0  0  0  0  0
   -3.3382    0.0961   -0.5184 H   0  0  0  0  0  0  0  0  0  0  0  0
  1  4  1  0  0  0  0
  2  6  1  0  0  0  0
  3  4  1  0  0  0  0
  3  5  2  0  0  0  0
  3  6  1  0  0  0  0
  4  7  2  0  0  0  0
  5  8  1  0  0  0  0
  5 10  1  0  0  0  0
  6 11  1  0  0  0  0
  6 12  1  0  0  0  0
  7  9  1  0  0  0  0
  7 13  1  0  0  0  0
  8  9  2  0  0  0  0
  8 14  1  0  0  0  0
  9 15  1  0  0  0  0
M  END
> <PUBCHEM_COMPOUND_CID>
11906

> <PUBCHEM_CONFORMER_RMSD>
0.4

> <PUBCHEM_CONFORMER_DIVERSEORDER>
1
2
3

> <PUBCHEM_MMFF94_PARTIAL_CHARGES>
13
1 -0.18
10 0.15
13 0.15
14 0.15
15 0.15
2 -0.29
3 -0.14
4 0.18
5 -0.15
6 0.43
7 -0.15
8 -0.15
9 -0.15

> <PUBCHEM_EFFECTIVE_ROTOR_COUNT>
1

> <PUBCHEM_PHARMACOPHORE_FEATURES>
1
6 3 4 5 7 8 9 rings

> <PUBCHEM_HEAVY_ATOM_COUNT>
9

> <PUBCHEM_ATOM_DEF_STEREO_COUNT>
0

> <PUBCHEM_ATOM_UDEF_STEREO_COUNT>
0

> <PUBCHEM_BOND_DEF_STEREO_COUNT>
0

> <PUBCHEM_BOND_UDEF_STEREO_COUNT>
0

> <PUBCHEM_ISOTOPIC_ATOM_COUNT>
0

> <PUBCHEM_COMPONENT_COUNT>
1

> <PUBCHEM_CACTVS_TAUTO_COUNT>
1

> <PUBCHEM_CONFORMER_ID>
00002E8200000001

> <PUBCHEM_MMFF94_ENERGY>
19.3403

> <PUBCHEM_FEATURE_SELFOVERLAP>
5.074

> <PUBCHEM_SHAPE_FINGERPRINT>
11206711 2 18270695263044108645
12423570 1 10183466299304688529
12524768 44 18195249918714052491
12716758 59 18120653793141306886
12897270 3 18337386153727802126
14128692 85 18337105670508488262
15310529 11 16702301307891305963
161256 15 18125151637301335259
16714656 1 18338796843898664374
16945 1 18412553127830701523
18185500 45 18270691989946771267
21040471 1 17979366578757079321
23552423 10 18128257787572129270
241688 4 18410578426158438448
2748010 2 18197788699974242855
29004967 10 16515976942341273722
5084963 1 18186525384342501331

> <PUBCHEM_SHAPE_MULTIPOLES>
188.96
3.21
2.04
0.79
1
1.1
-0.04
-0.99
-0.73
0.21
0.07
0.29
-0.09
0.22

> <PUBCHEM_SHAPE_SELFOVERLAP>
370.198

> <PUBCHEM_SHAPE_VOLUME>
111.4

> <PUBCHEM_COORDINATE_TYPE>
2
5
10

$$$$

