442547
  -OEChem-07051212582D

 46 49  0     1  0  0  0  0  0999 V2000
    6.2392    2.2950    0.0000 O   0  0  0  0  0  0  0  0  0  0  0  0
    6.3683    0.1279    0.0000 O   0  0  0  0  0  0  0  0  0  0  0  0
    2.9042    2.1279    0.0000 O   0  0  0  0  0  0  0  0  0  0  0  0
    2.0000    0.6310    0.0000 O   0  0  0  0  0  0  0  0  0  0  0  0
    4.6523   -0.9136    0.0000 C   0  0  2  0  0  0  0  0  0  0  0  0
    5.6042   -1.4342    0.0000 C   0  0  0  0  0  0  0  0  0  0  0  0
    4.6362    0.1279    0.0000 C   0  0  0  0  0  0  0  0  0  0  0  0
    3.7542   -1.4414    0.0000 C   0  0  0  0  0  0  0  0  0  0  0  0
    5.6209   -2.5191    0.0000 C   0  0  0  0  0  0  0  0  0  0  0  0
    5.5144   -0.4069    0.0000 C   0  0  0  0  0  0  0  0  0  0  0  0
    3.7702    0.6279    0.0000 C   0  0  0  0  0  0  0  0  0  0  0  0
    3.7459   -2.5263    0.0000 C   0  0  0  0  0  0  0  0  0  0  0  0
    4.6855   -3.0688    0.0000 C   0  0  0  0  0  0  0  0  0  0  0  0
    5.5022    0.6279    0.0000 C   0  0  0  0  0  0  0  0  0  0  0  0
    2.8522   -0.9205    0.0000 C   0  0  0  0  0  0  0  0  0  0  0  0
    4.6362    2.1279    0.0000 C   0  0  0  0  0  0  0  0  0  0  0  0
    5.5022    1.6279    0.0000 C   0  0  0  0  0  0  0  0  0  0  0  0
    3.7702    1.6279    0.0000 C   0  0  0  0  0  0  0  0  0  0  0  0
    2.8602    0.1211    0.0000 C   0  0  0  0  0  0  0  0  0  0  0  0
    4.8454    3.0997    0.0000 C   0  0  0  0  0  0  0  0  0  0  0  0
    5.8341    3.2028    0.0000 C   0  0  2  0  0  0  0  0  0  0  0  0
    2.8779   -3.0230    0.0000 C   0  0  0  0  0  0  0  0  0  0  0  0
    4.6894   -4.0688    0.0000 C   0  0  0  0  0  0  0  0  0  0  0  0
    6.3341    4.0688    0.0000 C   0  0  0  0  0  0  0  0  0  0  0  0
    6.2166   -1.5309    0.0000 H   0  0  0  0  0  0  0  0  0  0  0  0
    5.8042   -0.8474    0.0000 H   0  0  0  0  0  0  0  0  0  0  0  0
    5.8390   -3.0995    0.0000 H   0  0  0  0  0  0  0  0  0  0  0  0
    6.2301   -2.4036    0.0000 H   0  0  0  0  0  0  0  0  0  0  0  0
    5.8286   -0.9415    0.0000 H   0  0  0  0  0  0  0  0  0  0  0  0
    6.0489   -0.0928    0.0000 H   0  0  0  0  0  0  0  0  0  0  0  0
    5.2003    0.1276    0.0000 H   0  0  0  0  0  0  0  0  0  0  0  0
    2.3140   -1.2285    0.0000 H   0  0  0  0  0  0  0  0  0  0  0  0
    4.8463    3.7197    0.0000 H   0  0  0  0  0  0  0  0  0  0  0  0
    4.2290    3.1658    0.0000 H   0  0  0  0  0  0  0  0  0  0  0  0
    6.4533    3.1706    0.0000 H   0  0  0  0  0  0  0  0  0  0  0  0
    2.5700   -2.4848    0.0000 H   0  0  0  0  0  0  0  0  0  0  0  0
    2.3398   -3.3309    0.0000 H   0  0  0  0  0  0  0  0  0  0  0  0
    3.1858   -3.5611    0.0000 H   0  0  0  0  0  0  0  0  0  0  0  0
    4.0694   -4.0712    0.0000 H   0  0  0  0  0  0  0  0  0  0  0  0
    4.6918   -4.6888    0.0000 H   0  0  0  0  0  0  0  0  0  0  0  0
    5.3094   -4.0664    0.0000 H   0  0  0  0  0  0  0  0  0  0  0  0
    6.8711    3.7588    0.0000 H   0  0  0  0  0  0  0  0  0  0  0  0
    6.6441    4.6057    0.0000 H   0  0  0  0  0  0  0  0  0  0  0  0
    5.7972    4.3788    0.0000 H   0  0  0  0  0  0  0  0  0  0  0  0
    6.9052    0.4379    0.0000 H   0  0  0  0  0  0  0  0  0  0  0  0
    2.9042    2.7479    0.0000 H   0  0  0  0  0  0  0  0  0  0  0  0
  1 17  1  0  0  0  0
  1 21  1  0  0  0  0
  2 14  1  0  0  0  0
  2 45  1  0  0  0  0
  3 18  1  0  0  0  0
  3 46  1  0  0  0  0
  4 19  2  0  0  0  0
  5  6  1  0  0  0  0
  5  7  1  0  0  0  0
  5  8  1  0  0  0  0
  5 10  1  6  0  0  0
  6  9  1  0  0  0  0
  6 25  1  0  0  0  0
  6 26  1  0  0  0  0
  7 11  2  0  0  0  0
  7 14  1  0  0  0  0
  8 12  1  0  0  0  0
  8 15  2  0  0  0  0
  9 13  1  0  0  0  0
  9 27  1  0  0  0  0
  9 28  1  0  0  0  0
 10 29  1  0  0  0  0
 10 30  1  0  0  0  0
 10 31  1  0  0  0  0
 11 18  1  0  0  0  0
 11 19  1  0  0  0  0
 12 13  2  0  0  0  0
 12 22  1  0  0  0  0
 13 23  1  0  0  0  0
 14 17  2  0  0  0  0
 15 19  1  0  0  0  0
 15 32  1  0  0  0  0
 16 17  1  0  0  0  0
 16 18  2  0  0  0  0
 16 20  1  0  0  0  0
 20 21  1  0  0  0  0
 20 33  1  0  0  0  0
 20 34  1  0  0  0  0
 21 24  1  6  0  0  0
 21 35  1  0  0  0  0
 22 36  1  0  0  0  0
 22 37  1  0  0  0  0
 22 38  1  0  0  0  0
 23 39  1  0  0  0  0
 23 40  1  0  0  0  0
 23 41  1  0  0  0  0
 24 42  1  0  0  0  0
 24 43  1  0  0  0  0
 24 44  1  0  0  0  0
M  END
> <PUBCHEM_COMPOUND_CID>
442547

> <PUBCHEM_COMPOUND_CANONICALIZED>
1

> <PUBCHEM_CACTVS_COMPLEXITY>
648

> <PUBCHEM_CACTVS_HBOND_ACCEPTOR>
4

> <PUBCHEM_CACTVS_HBOND_DONOR>
2

> <PUBCHEM_CACTVS_ROTATABLE_BOND>
0

> <PUBCHEM_CACTVS_SUBSKEYS>
AAADceB4OAAAAAAAAAAAAAAAAAAAASAAAAAwQIAAAAAAAEiBAAAAGgAACAAADhSgmAICBoAABgCIAqBSAAACCAAkIAAAiAEEiMgNJzaGNBqCeWOl4BULuQfK7PzP4QADCAAYQADCAAYQADCAAAAAAAAAAA==

> <PUBCHEM_IUPAC_OPENEYE_NAME>
(9S,11bS)-7,11-dihydroxy-3,4,9,11b-tetramethyl-1,2,8,9-tetrahydronaphtho[2,1-f]benzofuran-6-one

> <PUBCHEM_IUPAC_CAS_NAME>
(9S,11bS)-7,11-dihydroxy-3,4,9,11b-tetramethyl-1,2,8,9-tetrahydronaphtho[2,1-f]benzofuran-6-one

> <PUBCHEM_IUPAC_NAME>
(9S,11bS)-7,11-dihydroxy-3,4,9,11b-tetramethyl-1,2,8,9-tetrahydronaphtho[2,1-f][1]benzofuran-6-one

> <PUBCHEM_IUPAC_SYSTEMATIC_NAME>
(9S,11bS)-3,4,9,11b-tetramethyl-7,11-bis(oxidanyl)-1,2,8,9-tetrahydronaphtho[2,1-f][1]benzofuran-6-one

> <PUBCHEM_IUPAC_TRADITIONAL_NAME>
(9S,11bS)-7,11-dihydroxy-3,4,9,11b-tetramethyl-1,2,8,9-tetrahydronaphtho[2,1-f]benzofuran-6-one

> <PUBCHEM_IUPAC_INCHI>
InChI=1S/C20H22O4/c1-9-5-6-20(4)13(11(9)3)8-14(21)15-16(20)18(23)19-12(17(15)22)7-10(2)24-19/h8,10,22-23H,5-7H2,1-4H3/t10-,20-/m0/s1

> <PUBCHEM_IUPAC_INCHIKEY>
IQGPVLVWUUPQMQ-FVINQWEUSA-N

> <PUBCHEM_XLOGP3_AA>
3.6

> <PUBCHEM_EXACT_MASS>
326.151809

> <PUBCHEM_MOLECULAR_FORMULA>
C20H22O4

> <PUBCHEM_MOLECULAR_WEIGHT>
326.38628

> <PUBCHEM_OPENEYE_CAN_SMILES>
CC1CC2=C(C3=C(C(=C2O1)O)C4(CCC(=C(C4=CC3=O)C)C)C)O

> <PUBCHEM_OPENEYE_ISO_SMILES>
C[C@H]1CC2=C(C3=C(C(=C2O1)O)[C@]4(CCC(=C(C4=CC3=O)C)C)C)O

> <PUBCHEM_CACTVS_TPSA>
66.8

> <PUBCHEM_MONOISOTOPIC_WEIGHT>
326.151809

> <PUBCHEM_TOTAL_CHARGE>
0

> <PUBCHEM_HEAVY_ATOM_COUNT>
24

> <PUBCHEM_ATOM_DEF_STEREO_COUNT>
2

> <PUBCHEM_ATOM_UDEF_STEREO_COUNT>
0

> <PUBCHEM_BOND_DEF_STEREO_COUNT>
0

> <PUBCHEM_BOND_UDEF_STEREO_COUNT>
0

> <PUBCHEM_ISOTOPIC_ATOM_COUNT>
0

> <PUBCHEM_COMPONENT_COUNT>
1

> <PUBCHEM_CACTVS_TAUTO_COUNT>
134

> <PUBCHEM_COORDINATE_TYPE>
1
5
255

> <PUBCHEM_BONDANNOTATIONS>
11  18  8
14  17  8
16  17  8
16  18  8
21  24  6
5  10  6
7  11  8
7  14  8

$$$$

