114992
  -OEChem-07051213113D

 55 58  0     1  0  0  0  0  0999 V2000
   -3.4523    3.4397   -0.3315 Cl  0  0  0  0  0  0  0  0  0  0  0  0
    3.2164    0.1042    1.2261 O   0  0  0  0  0  0  0  0  0  0  0  0
   -4.8172   -1.6664    0.7794 O   0  0  0  0  0  0  0  0  0  0  0  0
    5.1327   -0.5050   -1.3246 O   0  0  0  0  0  0  0  0  0  0  0  0
    5.2902    1.0820    0.9427 O   0  0  0  0  0  0  0  0  0  0  0  0
   -6.6954   -0.4247    1.0032 O   0  0  0  0  0  0  0  0  0  0  0  0
    1.6888   -0.5752   -0.6023 C   0  0  1  0  0  0  0  0  0  0  0  0
    0.8623    0.7254   -0.4200 C   0  0  2  0  0  0  0  0  0  0  0  0
   -0.6044    0.5546   -0.8414 C   0  0  1  0  0  0  0  0  0  0  0  0
   -1.2360   -0.5464    0.0604 C   0  0  2  0  0  0  0  0  0  0  0  0
    3.0861   -0.0506   -0.1837 C   0  0  1  0  0  0  0  0  0  0  0  0
    1.0656   -1.6613    0.2921 C   0  0  0  0  0  0  0  0  0  0  0  0
    1.7179    1.7826   -1.1153 C   0  0  0  0  0  0  0  0  0  0  0  0
   -0.4317   -1.8675   -0.0100 C   0  0  0  0  0  0  0  0  0  0  0  0
    3.1706    1.3530   -0.8233 C   0  0  0  0  0  0  0  0  0  0  0  0
   -2.7735   -0.6818   -0.1990 C   0  0  2  0  0  0  0  0  0  0  0  0
    1.7274   -1.0814   -2.0720 C   0  0  0  0  0  0  0  0  0  0  0  0
   -1.4050    1.8264   -0.7501 C   0  0  0  0  0  0  0  0  0  0  0  0
   -3.4563    0.6770    0.0065 C   0  0  0  0  0  0  0  0  0  0  0  0
    4.2455   -0.9160   -0.5783 C   0  0  0  0  0  0  0  0  0  0  0  0
   -3.3800   -1.6526    0.8321 C   0  0  0  0  0  0  0  0  0  0  0  0
   -3.0886   -1.1896   -1.6242 C   0  0  0  0  0  0  0  0  0  0  0  0
   -2.6879    1.8746   -0.3513 C   0  0  0  0  0  0  0  0  0  0  0  0
   -4.7054    0.7255    0.5053 C   0  0  0  0  0  0  0  0  0  0  0  0
    4.2716   -2.3108   -0.0145 C   0  0  0  0  0  0  0  0  0  0  0  0
    4.3752    0.6889    1.6535 C   0  0  0  0  0  0  0  0  0  0  0  0
   -5.4895   -0.4907    0.7913 C   0  0  0  0  0  0  0  0  0  0  0  0
    4.3729    0.7862    3.1490 C   0  0  0  0  0  0  0  0  0  0  0  0
    0.8562    0.9939    0.6496 H   0  0  0  0  0  0  0  0  0  0  0  0
   -0.6371    0.2516   -1.8933 H   0  0  0  0  0  0  0  0  0  0  0  0
   -1.1306   -0.2015    1.1036 H   0  0  0  0  0  0  0  0  0  0  0  0
    1.1670   -1.3902    1.3503 H   0  0  0  0  0  0  0  0  0  0  0  0
    1.5753   -2.6214    0.1671 H   0  0  0  0  0  0  0  0  0  0  0  0
    1.5181    2.7871   -0.7275 H   0  0  0  0  0  0  0  0  0  0  0  0
    1.5328    1.8036   -2.1952 H   0  0  0  0  0  0  0  0  0  0  0  0
   -0.5479   -2.3354   -0.9925 H   0  0  0  0  0  0  0  0  0  0  0  0
   -0.8197   -2.5844    0.7219 H   0  0  0  0  0  0  0  0  0  0  0  0
    3.7187    1.3636   -1.7723 H   0  0  0  0  0  0  0  0  0  0  0  0
    3.6061    2.1355   -0.1967 H   0  0  0  0  0  0  0  0  0  0  0  0
    2.2140   -0.3716   -2.7483 H   0  0  0  0  0  0  0  0  0  0  0  0
    2.2757   -2.0253   -2.1516 H   0  0  0  0  0  0  0  0  0  0  0  0
    0.7321   -1.2730   -2.4808 H   0  0  0  0  0  0  0  0  0  0  0  0
   -0.9082    2.7429   -1.0601 H   0  0  0  0  0  0  0  0  0  0  0  0
   -3.0585   -2.6817    0.6406 H   0  0  0  0  0  0  0  0  0  0  0  0
   -3.0837   -1.4055    1.8596 H   0  0  0  0  0  0  0  0  0  0  0  0
   -2.6954   -0.5233   -2.3985 H   0  0  0  0  0  0  0  0  0  0  0  0
   -2.6676   -2.1857   -1.7955 H   0  0  0  0  0  0  0  0  0  0  0  0
   -4.1686   -1.2675   -1.7970 H   0  0  0  0  0  0  0  0  0  0  0  0
   -5.2372    1.6563    0.6696 H   0  0  0  0  0  0  0  0  0  0  0  0
    3.8906   -2.3368    1.0086 H   0  0  0  0  0  0  0  0  0  0  0  0
    3.7007   -2.9892   -0.6500 H   0  0  0  0  0  0  0  0  0  0  0  0
    5.3097   -2.6563    0.0168 H   0  0  0  0  0  0  0  0  0  0  0  0
    4.3103   -0.2142    3.5845 H   0  0  0  0  0  0  0  0  0  0  0  0
    3.5333    1.4033    3.4782 H   0  0  0  0  0  0  0  0  0  0  0  0
    5.3028    1.2548    3.4836 H   0  0  0  0  0  0  0  0  0  0  0  0
  1 23  1  0  0  0  0
  2 11  1  0  0  0  0
  2 26  1  0  0  0  0
  3 21  1  0  0  0  0
  3 27  1  0  0  0  0
  4 20  2  0  0  0  0
  5 26  2  0  0  0  0
  6 27  2  0  0  0  0
  7  8  1  0  0  0  0
  7 11  1  0  0  0  0
  7 12  1  0  0  0  0
  7 17  1  0  0  0  0
  8  9  1  0  0  0  0
  8 13  1  0  0  0  0
  8 29  1  0  0  0  0
  9 10  1  0  0  0  0
  9 18  1  0  0  0  0
  9 30  1  0  0  0  0
 10 14  1  0  0  0  0
 10 16  1  0  0  0  0
 10 31  1  0  0  0  0
 11 15  1  0  0  0  0
 11 20  1  0  0  0  0
 12 14  1  0  0  0  0
 12 32  1  0  0  0  0
 12 33  1  0  0  0  0
 13 15  1  0  0  0  0
 13 34  1  0  0  0  0
 13 35  1  0  0  0  0
 14 36  1  0  0  0  0
 14 37  1  0  0  0  0
 15 38  1  0  0  0  0
 15 39  1  0  0  0  0
 16 19  1  0  0  0  0
 16 21  1  0  0  0  0
 16 22  1  0  0  0  0
 17 40  1  0  0  0  0
 17 41  1  0  0  0  0
 17 42  1  0  0  0  0
 18 23  2  0  0  0  0
 18 43  1  0  0  0  0
 19 23  1  0  0  0  0
 19 24  2  0  0  0  0
 20 25  1  0  0  0  0
 21 44  1  0  0  0  0
 21 45  1  0  0  0  0
 22 46  1  0  0  0  0
 22 47  1  0  0  0  0
 22 48  1  0  0  0  0
 24 27  1  0  0  0  0
 24 49  1  0  0  0  0
 25 50  1  0  0  0  0
 25 51  1  0  0  0  0
 25 52  1  0  0  0  0
 26 28  1  0  0  0  0
 28 53  1  0  0  0  0
 28 54  1  0  0  0  0
 28 55  1  0  0  0  0
M  END
> <PUBCHEM_COMPOUND_CID>
114992

> <PUBCHEM_CONFORMER_RMSD>
0.8

> <PUBCHEM_CONFORMER_DIVERSEORDER>
1
2

> <PUBCHEM_MMFF94_PARTIAL_CHARGES>
21
1 -0.14
11 0.34
16 0.14
18 -0.29
19 -0.14
2 -0.43
20 0.45
21 0.28
23 0.14
24 -0.14
25 0.06
26 0.66
27 0.71
28 0.06
3 -0.43
4 -0.57
43 0.15
49 0.15
5 -0.57
6 -0.57
9 0.14

> <PUBCHEM_EFFECTIVE_ROTOR_COUNT>
4.4

> <PUBCHEM_PHARMACOPHORE_FEATURES>
7
1 4 acceptor
1 5 acceptor
1 6 acceptor
5 7 8 11 13 15 rings
6 3 16 19 21 24 27 rings
6 7 8 9 10 12 14 rings
6 9 10 16 18 19 23 rings

> <PUBCHEM_HEAVY_ATOM_COUNT>
28

> <PUBCHEM_ATOM_DEF_STEREO_COUNT>
6

> <PUBCHEM_ATOM_UDEF_STEREO_COUNT>
0

> <PUBCHEM_BOND_DEF_STEREO_COUNT>
0

> <PUBCHEM_BOND_UDEF_STEREO_COUNT>
0

> <PUBCHEM_ISOTOPIC_ATOM_COUNT>
0

> <PUBCHEM_COMPONENT_COUNT>
1

> <PUBCHEM_CACTVS_TAUTO_COUNT>
2

> <PUBCHEM_CONFORMER_ID>
0001C13000000001

> <PUBCHEM_MMFF94_ENERGY>
101.442

> <PUBCHEM_FEATURE_SELFOVERLAP>
35.62

> <PUBCHEM_SHAPE_FINGERPRINT>
10 15 18409454657093607304
10319926 262 18268441298667243442
10646746 165 18337390543004874660
11595378 159 18059587913656348928
11796584 16 16845565392642895315
12107183 9 17553486181492237152
12236239 1 18113894953885238215
12403259 415 18186803603802683660
12422481 6 18339352063559844849
12507560 40 18334017224224913028
12553582 1 18201723946188969813
12596602 18 17489314066180361704
12633257 1 18271811168161158752
12788726 201 18200297862924364177
12839892 36 18201730564892081947
12925494 130 18120939675018805377
13140716 1 18055353535268788731
13224815 77 18408327674316532933
13533116 47 15913333480880041384
13583140 156 17822304508378858708
13675066 3 18333733528470353644
13692114 37 16409322287112065757
13782708 43 18114457954750929335
14178342 30 18200317761154184789
14341114 176 18413100680078414375
15131766 46 16154572856080364897
15196674 1 18270676579535483141
15788980 27 15791730827732022726
17349148 13 17489584563040996883
1813 80 16917344844250204486
18681886 176 18271795810117991500
200 152 14979956960928993183
20028762 73 18340202990812877055
21033648 144 16154009962351777880
21033648 29 18114476629300056048
21267235 1 18270948124727341839
21792934 111 18341890827846076569
22122407 14 16009015177964137811
22182313 1 18262791994964819719
23557571 272 18337380638773509853
23559900 14 18267017447898869438
23569914 2 16519950650600600129
23845131 108 17472970079669838137
2838139 119 15647348390302367832
29717793 49 12391519684641272235
3004659 81 17846772988666938933
335352 9 18343293783012895645
3411729 13 17984979302835681284
34797466 226 15647044924876497879
350125 39 18342166787198705213
3886686 26 17050237536327120938
392239 28 18059563651902870707
4340502 62 16153416251953203247
460360 51 16987177108579704146
495365 180 17603594028127920738
5104073 3 18338238292092001104
542803 24 14779262016868502539
56638632 10 16882475873333603512

> <PUBCHEM_SHAPE_MULTIPOLES>
548.75
12.49
2.47
1.72
3.8
1.01
-0.82
-0.78
-5.13
1.41
0.29
-2.15
0.16
1.41

> <PUBCHEM_SHAPE_SELFOVERLAP>
1182.386

> <PUBCHEM_SHAPE_VOLUME>
302

> <PUBCHEM_COORDINATE_TYPE>
2
5
10

$$$$

