10349
  -OEChem-06261204293D

 17 16  0     1  0  0  0  0  0999 V2000
   -2.8134   -0.6284    0.6444 O   0  0  0  0  0  0  0  0  0  0  0  0
    2.8559    0.9769   -0.2995 O   0  0  0  0  0  0  0  0  0  0  0  0
   -2.1524    1.3512   -0.2460 O   0  0  0  0  0  0  0  0  0  0  0  0
    2.3106   -1.0410    0.5988 O   0  0  0  0  0  0  0  0  0  0  0  0
   -0.5074   -0.4234    0.0445 C   0  0  2  0  0  0  0  0  0  0  0  0
    0.5854    0.6437    0.2138 C   0  0  0  0  0  0  0  0  0  0  0  0
   -0.3763   -1.1622   -1.2853 C   0  0  0  0  0  0  0  0  0  0  0  0
   -1.8843    0.2158    0.1251 C   0  0  0  0  0  0  0  0  0  0  0  0
    1.9818    0.0674    0.2041 C   0  0  0  0  0  0  0  0  0  0  0  0
   -0.4207   -1.1431    0.8685 H   0  0  0  0  0  0  0  0  0  0  0  0
    0.4519    1.1823    1.1592 H   0  0  0  0  0  0  0  0  0  0  0  0
    0.5038    1.3786   -0.5974 H   0  0  0  0  0  0  0  0  0  0  0  0
   -1.1961   -1.8778   -1.4133 H   0  0  0  0  0  0  0  0  0  0  0  0
    0.5617   -1.7214   -1.3496 H   0  0  0  0  0  0  0  0  0  0  0  0
   -0.4184   -0.4658   -2.1303 H   0  0  0  0  0  0  0  0  0  0  0  0
   -3.7016   -0.2138    0.6849 H   0  0  0  0  0  0  0  0  0  0  0  0
    3.7746    0.6332   -0.3113 H   0  0  0  0  0  0  0  0  0  0  0  0
  1  8  1  0  0  0  0
  1 16  1  0  0  0  0
  2  9  1  0  0  0  0
  2 17  1  0  0  0  0
  3  8  2  0  0  0  0
  4  9  2  0  0  0  0
  5  6  1  0  0  0  0
  5  7  1  0  0  0  0
  5  8  1  0  0  0  0
  5 10  1  0  0  0  0
  6  9  1  0  0  0  0
  6 11  1  0  0  0  0
  6 12  1  0  0  0  0
  7 13  1  0  0  0  0
  7 14  1  0  0  0  0
  7 15  1  0  0  0  0
M  END
> <PUBCHEM_COMPOUND_CID>
10349

> <PUBCHEM_CONFORMER_RMSD>
0.6

> <PUBCHEM_CONFORMER_DIVERSEORDER>
1
5
12
7
14
6
10
2
11
4
3
13
8
9

> <PUBCHEM_MMFF94_PARTIAL_CHARGES>
10
1 -0.65
16 0.5
17 0.5
2 -0.65
3 -0.57
4 -0.57
5 0.06
6 0.06
8 0.66
9 0.66

> <PUBCHEM_EFFECTIVE_ROTOR_COUNT>
3

> <PUBCHEM_PHARMACOPHORE_FEATURES>
7
1 1 acceptor
1 2 acceptor
1 3 acceptor
1 4 acceptor
1 7 hydrophobe
3 1 3 8 anion
3 2 4 9 anion

> <PUBCHEM_HEAVY_ATOM_COUNT>
9

> <PUBCHEM_ATOM_DEF_STEREO_COUNT>
0

> <PUBCHEM_ATOM_UDEF_STEREO_COUNT>
1

> <PUBCHEM_BOND_DEF_STEREO_COUNT>
0

> <PUBCHEM_BOND_UDEF_STEREO_COUNT>
0

> <PUBCHEM_ISOTOPIC_ATOM_COUNT>
0

> <PUBCHEM_COMPONENT_COUNT>
1

> <PUBCHEM_CACTVS_TAUTO_COUNT>
1

> <PUBCHEM_CONFORMER_ID>
0000286D00000001

> <PUBCHEM_MMFF94_ENERGY>
9.2394

> <PUBCHEM_FEATURE_SELFOVERLAP>
35.636

> <PUBCHEM_SHAPE_FINGERPRINT>
12932764 1 18114187401875382864
14325111 11 18412262852281378545
14390081 3 18410858733115170784
15310529 11 18342459222746961856
16714656 1 18186518774187320661
20645464 45 16733278858614588554
21040471 1 17821733844474185174
23235685 24 17095514080728598936
23552423 10 18130789009505463802
29004967 10 17560803221196079520
3248919 1 17917439717374866912
369184 2 18202568388509973769
5084963 1 18408604764300432921
5460574 1 8358264738990574408

> <PUBCHEM_SHAPE_MULTIPOLES>
161.74
3.99
1.22
0.87
0.55
0.08
0.1
-0.63
-0.55
-0.09
0.26
-0.06
0.23
-0.12

> <PUBCHEM_SHAPE_SELFOVERLAP>
307.287

> <PUBCHEM_SHAPE_VOLUME>
99.3

> <PUBCHEM_COORDINATE_TYPE>
2
5
10

$$$$

