6103
  -OEChem-07051213043D

 16 17  0     0  0  0  0  0  0999 V2000
    3.7866    0.8199   -0.0016 Cl  0  0  0  0  0  0  0  0  0  0  0  0
   -1.7258   -0.9971   -0.0001 O   0  0  0  0  0  0  0  0  0  0  0  0
   -1.4260    1.2494    0.0004 N   0  0  0  0  0  0  0  0  0  0  0  0
   -3.6308    0.2874   -0.0012 N   0  0  0  0  0  0  0  0  0  0  0  0
   -0.2030    0.6235    0.0004 C   0  0  0  0  0  0  0  0  0  0  0  0
   -0.3825   -0.7519    0.0001 C   0  0  0  0  0  0  0  0  0  0  0  0
    1.1020    1.1366    0.0008 C   0  0  0  0  0  0  0  0  0  0  0  0
    0.6471   -1.6848    0.0000 C   0  0  0  0  0  0  0  0  0  0  0  0
   -2.2784    0.2482    0.0003 C   0  0  0  0  0  0  0  0  0  0  0  0
    2.1682    0.2255    0.0006 C   0  0  0  0  0  0  0  0  0  0  0  0
    1.9427   -1.1566    0.0003 C   0  0  0  0  0  0  0  0  0  0  0  0
    1.2730    2.2086    0.0007 H   0  0  0  0  0  0  0  0  0  0  0  0
    0.4618   -2.7516   -0.0004 H   0  0  0  0  0  0  0  0  0  0  0  0
    2.7835   -1.8477   -0.0002 H   0  0  0  0  0  0  0  0  0  0  0  0
   -4.1910   -0.5586   -0.0019 H   0  0  0  0  0  0  0  0  0  0  0  0
   -4.1411    1.1644   -0.0019 H   0  0  0  0  0  0  0  0  0  0  0  0
  1 10  1  0  0  0  0
  2  6  1  0  0  0  0
  2  9  1  0  0  0  0
  3  5  1  0  0  0  0
  3  9  2  0  0  0  0
  4  9  1  0  0  0  0
  4 15  1  0  0  0  0
  4 16  1  0  0  0  0
  5  6  2  0  0  0  0
  5  7  1  0  0  0  0
  6  8  1  0  0  0  0
  7 10  2  0  0  0  0
  7 12  1  0  0  0  0
  8 11  2  0  0  0  0
  8 13  1  0  0  0  0
 10 11  1  0  0  0  0
 11 14  1  0  0  0  0
M  END
> <PUBCHEM_COMPOUND_CID>
6103

> <PUBCHEM_CONFORMER_RMSD>
0.4

> <PUBCHEM_CONFORMER_DIVERSEORDER>
1

> <PUBCHEM_MMFF94_PARTIAL_CHARGES>
16
1 -0.18
10 0.18
11 -0.15
12 0.15
13 0.15
14 0.15
15 0.4
16 0.4
2 -0.28
3 -0.57
4 -0.88
5 0.23
6 0.14
7 -0.15
8 -0.15
9 0.56

> <PUBCHEM_EFFECTIVE_ROTOR_COUNT>
0

> <PUBCHEM_PHARMACOPHORE_FEATURES>
4
1 4 donor
3 3 4 9 cation
5 2 3 5 6 9 rings
6 5 6 7 8 10 11 rings

> <PUBCHEM_HEAVY_ATOM_COUNT>
11

> <PUBCHEM_ATOM_DEF_STEREO_COUNT>
0

> <PUBCHEM_ATOM_UDEF_STEREO_COUNT>
0

> <PUBCHEM_BOND_DEF_STEREO_COUNT>
0

> <PUBCHEM_BOND_UDEF_STEREO_COUNT>
0

> <PUBCHEM_ISOTOPIC_ATOM_COUNT>
0

> <PUBCHEM_COMPONENT_COUNT>
1

> <PUBCHEM_CACTVS_TAUTO_COUNT>
2

> <PUBCHEM_CONFORMER_ID>
000017D700000001

> <PUBCHEM_MMFF94_ENERGY>
16.67

> <PUBCHEM_FEATURE_SELFOVERLAP>
20.415

> <PUBCHEM_SHAPE_FINGERPRINT>
10219947 1 18272650151526112220
11471102 20 18410861001052822125
12897270 3 18410292518796343180
12932764 1 13984950678909416917
13380535 76 18411700971854208026
14325111 11 18410856576883105184
15775835 57 18335137579128399444
16945 1 18410575084678916160
193761 8 17834113426475113764
20645477 70 18265339576471055031
20871998 184 18044087956379283798
21040471 1 18338516344196053986
23235685 24 18411706465164592480
23402655 69 18335997458094895349
23463225 33 18343306998257986930
23552423 10 18197495331895771686
2748010 2 18195528327110520284
369184 2 16200437948555976984
5084963 1 18261111923611532818
528886 8 18410297986395245074
53812653 166 18334018255085655592
7364860 26 18262519329140618958

> <PUBCHEM_SHAPE_MULTIPOLES>
212.41
4.9
1.49
0.6
0.04
0.36
0
-1.36
0
0.35
0
0.07
0
0

> <PUBCHEM_SHAPE_SELFOVERLAP>
459.503

> <PUBCHEM_SHAPE_VOLUME>
119.9

> <PUBCHEM_COORDINATE_TYPE>
2
5
10

$$$$

