119653
  -OEChem-07051213122D

 27 28  0     0  0  0  0  0  0999 V2000
    2.0000   -0.5344    0.0000 Cl  0  0  0  0  0  0  0  0  0  0  0  0
    7.1441    1.3776    0.0000 O   0  0  0  0  0  0  0  0  0  0  0  0
    7.5013   -0.3172    0.0000 O   0  0  0  0  0  0  0  0  0  0  0  0
    6.1279   -1.5344    0.0000 N   0  0  0  0  0  0  0  0  0  0  0  0
    5.5443   -2.3391    0.0000 N   0  0  0  0  0  0  0  0  0  0  0  0
    5.5443   -0.7296    0.0000 C   0  0  0  0  0  0  0  0  0  0  0  0
    4.5981   -1.0344    0.0000 C   0  0  0  0  0  0  0  0  0  0  0  0
    5.8550    0.2209    0.0000 C   0  0  0  0  0  0  0  0  0  0  0  0
    4.5981   -2.0344    0.0000 C   0  0  0  0  0  0  0  0  0  0  0  0
    3.7320   -0.5344    0.0000 C   0  0  0  0  0  0  0  0  0  0  0  0
    3.7320   -2.5344    0.0000 C   0  0  0  0  0  0  0  0  0  0  0  0
    6.8335    0.4271    0.0000 C   0  0  0  0  0  0  0  0  0  0  0  0
    2.8660   -1.0344    0.0000 C   0  0  0  0  0  0  0  0  0  0  0  0
    2.8660   -2.0344    0.0000 C   0  0  0  0  0  0  0  0  0  0  0  0
    8.1226    1.5838    0.0000 C   0  0  0  0  0  0  0  0  0  0  0  0
    8.4333    2.5344    0.0000 C   0  0  0  0  0  0  0  0  0  0  0  0
    5.8344    0.8405    0.0000 H   0  0  0  0  0  0  0  0  0  0  0  0
    5.2411    0.3082    0.0000 H   0  0  0  0  0  0  0  0  0  0  0  0
    6.7479   -1.5344    0.0000 H   0  0  0  0  0  0  0  0  0  0  0  0
    3.7320    0.0856    0.0000 H   0  0  0  0  0  0  0  0  0  0  0  0
    3.7320   -3.1544    0.0000 H   0  0  0  0  0  0  0  0  0  0  0  0
    2.3291   -2.3444    0.0000 H   0  0  0  0  0  0  0  0  0  0  0  0
    8.1432    0.9642    0.0000 H   0  0  0  0  0  0  0  0  0  0  0  0
    8.7364    1.4965    0.0000 H   0  0  0  0  0  0  0  0  0  0  0  0
    9.0226    2.3418    0.0000 H   0  0  0  0  0  0  0  0  0  0  0  0
    8.6259    3.1237    0.0000 H   0  0  0  0  0  0  0  0  0  0  0  0
    7.8440    2.7270    0.0000 H   0  0  0  0  0  0  0  0  0  0  0  0
  1 13  1  0  0  0  0
  2 12  1  0  0  0  0
  2 15  1  0  0  0  0
  3 12  2  0  0  0  0
  4  5  1  0  0  0  0
  4  6  1  0  0  0  0
  4 19  1  0  0  0  0
  5  9  2  0  0  0  0
  6  7  2  0  0  0  0
  6  8  1  0  0  0  0
  7  9  1  0  0  0  0
  7 10  1  0  0  0  0
  8 12  1  0  0  0  0
  8 17  1  0  0  0  0
  8 18  1  0  0  0  0
  9 11  1  0  0  0  0
 10 13  2  0  0  0  0
 10 20  1  0  0  0  0
 11 14  2  0  0  0  0
 11 21  1  0  0  0  0
 13 14  1  0  0  0  0
 14 22  1  0  0  0  0
 15 16  1  0  0  0  0
 15 23  1  0  0  0  0
 15 24  1  0  0  0  0
 16 25  1  0  0  0  0
 16 26  1  0  0  0  0
 16 27  1  0  0  0  0
M  END
> <PUBCHEM_COMPOUND_CID>
119653

> <PUBCHEM_COMPOUND_CANONICALIZED>
1

> <PUBCHEM_CACTVS_COMPLEXITY>
262

> <PUBCHEM_CACTVS_HBOND_ACCEPTOR>
3

> <PUBCHEM_CACTVS_HBOND_DONOR>
1

> <PUBCHEM_CACTVS_ROTATABLE_BOND>
4

> <PUBCHEM_CACTVS_SUBSKEYS>
AAADccBzMAAEAAAAAAAAAAAAAAAAAWAAAAAwAAAAAAAAAFgB8AAAHgIYAAAADAqhniIyyPBjBACqAyTySACSBAAgBwAYuSEwZpgIILqB19GCpABm2AEIyAeY2aGeAABAIAACAAAAAIBAAAQAAAAAAAAAAA==

> <PUBCHEM_IUPAC_OPENEYE_NAME>
ethyl 2-(5-chloro-2H-indazol-3-yl)acetate

> <PUBCHEM_IUPAC_CAS_NAME>
2-(5-chloro-2H-indazol-3-yl)acetic acid ethyl ester

> <PUBCHEM_IUPAC_NAME>
ethyl 2-(5-chloro-2H-indazol-3-yl)acetate

> <PUBCHEM_IUPAC_SYSTEMATIC_NAME>
ethyl 2-(5-chloranyl-2H-indazol-3-yl)ethanoate

> <PUBCHEM_IUPAC_TRADITIONAL_NAME>
2-(5-chloro-2H-indazol-3-yl)acetic acid ethyl ester

> <PUBCHEM_IUPAC_INCHI>
InChI=1S/C11H11ClN2O2/c1-2-16-11(15)6-10-8-5-7(12)3-4-9(8)13-14-10/h3-5H,2,6H2,1H3,(H,13,14)

> <PUBCHEM_IUPAC_INCHIKEY>
GLPZEHFBLBYFHN-UHFFFAOYSA-N

> <PUBCHEM_XLOGP3_AA>
2.4

> <PUBCHEM_EXACT_MASS>
238.050905

> <PUBCHEM_MOLECULAR_FORMULA>
C11H11ClN2O2

> <PUBCHEM_MOLECULAR_WEIGHT>
238.67024

> <PUBCHEM_OPENEYE_CAN_SMILES>
CCOC(=O)CC1=C2C=C(C=CC2=NN1)Cl

> <PUBCHEM_OPENEYE_ISO_SMILES>
CCOC(=O)CC1=C2C=C(C=CC2=NN1)Cl

> <PUBCHEM_CACTVS_TPSA>
55

> <PUBCHEM_MONOISOTOPIC_WEIGHT>
238.050905

> <PUBCHEM_TOTAL_CHARGE>
0

> <PUBCHEM_HEAVY_ATOM_COUNT>
16

> <PUBCHEM_ATOM_DEF_STEREO_COUNT>
0

> <PUBCHEM_ATOM_UDEF_STEREO_COUNT>
0

> <PUBCHEM_BOND_DEF_STEREO_COUNT>
0

> <PUBCHEM_BOND_UDEF_STEREO_COUNT>
0

> <PUBCHEM_ISOTOPIC_ATOM_COUNT>
0

> <PUBCHEM_COMPONENT_COUNT>
1

> <PUBCHEM_CACTVS_TAUTO_COUNT>
2

> <PUBCHEM_COORDINATE_TYPE>
1
5
255

> <PUBCHEM_BONDANNOTATIONS>
10  13  8
11  14  8
13  14  8
4  5  8
4  6  8
5  9  8
6  7  8
7  10  8
7  9  8
9  11  8

$$$$

