247749
  -OEChem-07051213063D

 61 65  0     1  0  0  0  0  0999 V2000
   -6.5625    0.3169    0.0774 O   0  0  0  0  0  0  0  0  0  0  0  0
   -2.3663   -0.7904    0.6108 C   0  0  2  0  0  0  0  0  0  0  0  0
   -3.2929    0.2717   -0.0200 C   0  0  1  0  0  0  0  0  0  0  0  0
   -1.1581   -1.1231   -0.2702 C   0  0  1  0  0  0  0  0  0  0  0  0
   -0.3203    0.1897   -0.4861 C   0  0  1  0  0  0  0  0  0  0  0  0
    0.9723   -0.0815   -1.3402 C   0  0  2  0  0  0  0  0  0  0  0  0
   -4.3918    0.3192    1.0649 C   0  0  2  0  0  0  0  0  0  0  0  0
   -2.4854    1.5672   -0.1758 C   0  0  0  0  0  0  0  0  0  0  0  0
   -1.2079    1.3502   -1.0083 C   0  0  0  0  0  0  0  0  0  0  0  0
   -3.3267   -1.9066    1.0066 C   0  0  0  0  0  0  0  0  0  0  0  0
   -0.3022   -2.2484    0.3407 C   0  0  0  0  0  0  0  0  0  0  0  0
   -4.5868   -1.1560    1.4739 C   0  0  0  0  0  0  0  0  0  0  0  0
    1.7273   -1.2018   -0.6086 C   0  0  0  0  0  0  0  0  0  0  0  0
   -3.8844   -0.1425   -1.3928 C   0  0  0  0  0  0  0  0  0  0  0  0
    0.9810   -2.5016   -0.4522 C   0  0  0  0  0  0  0  0  0  0  0  0
    1.8878    1.1740   -1.4904 C   0  0  0  0  0  0  0  0  0  0  0  0
    0.6250   -0.5157   -2.7860 C   0  0  0  0  0  0  0  0  0  0  0  0
   -5.6697    0.9629    0.6240 C   0  0  0  0  0  0  0  0  0  0  0  0
    2.7327    1.4597   -0.2531 C   0  0  0  0  0  0  0  0  0  0  0  0
    2.9229   -1.0272   -0.0143 C   0  0  0  0  0  0  0  0  0  0  0  0
    3.5805    0.2611    0.0811 C   0  0  0  0  0  0  0  0  0  0  0  0
   -5.8094    2.4383    0.8846 C   0  0  0  0  0  0  0  0  0  0  0  0
    4.8568    0.3755    0.4768 C   0  0  0  0  0  0  0  0  0  0  0  0
    5.6009    1.6129    0.6042 C   0  0  0  0  0  0  0  0  0  0  0  0
    5.7330   -0.7166    0.8515 C   0  0  0  0  0  0  0  0  0  0  0  0
    6.8312    1.2765    1.0240 C   0  0  0  0  0  0  0  0  0  0  0  0
    6.9127   -0.1644    1.1774 C   0  0  0  0  0  0  0  0  0  0  0  0
   -1.9648   -0.3857    1.5552 H   0  0  0  0  0  0  0  0  0  0  0  0
   -1.5187   -1.4897   -1.2364 H   0  0  0  0  0  0  0  0  0  0  0  0
    0.0177    0.5069    0.5131 H   0  0  0  0  0  0  0  0  0  0  0  0
   -4.0299    0.8600    1.9504 H   0  0  0  0  0  0  0  0  0  0  0  0
   -2.1985    1.9539    0.8106 H   0  0  0  0  0  0  0  0  0  0  0  0
   -3.0894    2.3475   -0.6519 H   0  0  0  0  0  0  0  0  0  0  0  0
   -1.4817    1.1782   -2.0540 H   0  0  0  0  0  0  0  0  0  0  0  0
   -0.6470    2.2903   -0.9862 H   0  0  0  0  0  0  0  0  0  0  0  0
   -2.9209   -2.5365    1.8046 H   0  0  0  0  0  0  0  0  0  0  0  0
   -3.5593   -2.5571    0.1563 H   0  0  0  0  0  0  0  0  0  0  0  0
   -0.8804   -3.1790    0.3820 H   0  0  0  0  0  0  0  0  0  0  0  0
   -0.0431   -1.9926    1.3768 H   0  0  0  0  0  0  0  0  0  0  0  0
   -5.4782   -1.6258    1.0457 H   0  0  0  0  0  0  0  0  0  0  0  0
   -4.6878   -1.2263    2.5635 H   0  0  0  0  0  0  0  0  0  0  0  0
   -4.5155   -1.0344   -1.3260 H   0  0  0  0  0  0  0  0  0  0  0  0
   -4.5011    0.6627   -1.8084 H   0  0  0  0  0  0  0  0  0  0  0  0
   -3.1141   -0.3563   -2.1383 H   0  0  0  0  0  0  0  0  0  0  0  0
    0.7512   -2.9319   -1.4328 H   0  0  0  0  0  0  0  0  0  0  0  0
    1.5817   -3.2519    0.0760 H   0  0  0  0  0  0  0  0  0  0  0  0
    1.3073    2.0630   -1.7548 H   0  0  0  0  0  0  0  0  0  0  0  0
    2.5788    1.0234   -2.3338 H   0  0  0  0  0  0  0  0  0  0  0  0
   -0.0898   -1.3410   -2.8324 H   0  0  0  0  0  0  0  0  0  0  0  0
    0.1969    0.3152   -3.3575 H   0  0  0  0  0  0  0  0  0  0  0  0
    1.5239   -0.8464   -3.3211 H   0  0  0  0  0  0  0  0  0  0  0  0
    2.0842    1.6969    0.5992 H   0  0  0  0  0  0  0  0  0  0  0  0
    3.3213    2.3578   -0.4595 H   0  0  0  0  0  0  0  0  0  0  0  0
    3.3739   -1.8783    0.4860 H   0  0  0  0  0  0  0  0  0  0  0  0
   -5.6643    2.6420    1.9485 H   0  0  0  0  0  0  0  0  0  0  0  0
   -5.0852    2.9974    0.2905 H   0  0  0  0  0  0  0  0  0  0  0  0
   -6.8159    2.7631    0.6053 H   0  0  0  0  0  0  0  0  0  0  0  0
    5.2610    2.6165    0.4150 H   0  0  0  0  0  0  0  0  0  0  0  0
    5.5160   -1.7710    0.8692 H   0  0  0  0  0  0  0  0  0  0  0  0
    7.6453    1.9537    1.2259 H   0  0  0  0  0  0  0  0  0  0  0  0
    7.7967   -0.6895    1.5016 H   0  0  0  0  0  0  0  0  0  0  0  0
  1 18  2  0  0  0  0
  2  3  1  0  0  0  0
  2  4  1  0  0  0  0
  2 10  1  0  0  0  0
  2 28  1  0  0  0  0
  3  7  1  0  0  0  0
  3  8  1  0  0  0  0
  3 14  1  0  0  0  0
  4  5  1  0  0  0  0
  4 11  1  0  0  0  0
  4 29  1  0  0  0  0
  5  6  1  0  0  0  0
  5  9  1  0  0  0  0
  5 30  1  0  0  0  0
  6 13  1  0  0  0  0
  6 16  1  0  0  0  0
  6 17  1  0  0  0  0
  7 12  1  0  0  0  0
  7 18  1  0  0  0  0
  7 31  1  0  0  0  0
  8  9  1  0  0  0  0
  8 32  1  0  0  0  0
  8 33  1  0  0  0  0
  9 34  1  0  0  0  0
  9 35  1  0  0  0  0
 10 12  1  0  0  0  0
 10 36  1  0  0  0  0
 10 37  1  0  0  0  0
 11 15  1  0  0  0  0
 11 38  1  0  0  0  0
 11 39  1  0  0  0  0
 12 40  1  0  0  0  0
 12 41  1  0  0  0  0
 13 15  1  0  0  0  0
 13 20  2  0  0  0  0
 14 42  1  0  0  0  0
 14 43  1  0  0  0  0
 14 44  1  0  0  0  0
 15 45  1  0  0  0  0
 15 46  1  0  0  0  0
 16 19  1  0  0  0  0
 16 47  1  0  0  0  0
 16 48  1  0  0  0  0
 17 49  1  0  0  0  0
 17 50  1  0  0  0  0
 17 51  1  0  0  0  0
 18 22  1  0  0  0  0
 19 21  1  0  0  0  0
 19 52  1  0  0  0  0
 19 53  1  0  0  0  0
 20 21  1  0  0  0  0
 20 54  1  0  0  0  0
 21 23  2  0  0  0  0
 22 55  1  0  0  0  0
 22 56  1  0  0  0  0
 22 57  1  0  0  0  0
 23 24  1  0  0  0  0
 23 25  1  0  0  0  0
 24 26  2  0  0  0  0
 24 58  1  0  0  0  0
 25 27  2  0  0  0  0
 25 59  1  0  0  0  0
 26 27  1  0  0  0  0
 26 60  1  0  0  0  0
 27 61  1  0  0  0  0
M  END
> <PUBCHEM_COMPOUND_CID>
247749

> <PUBCHEM_CONFORMER_RMSD>
0.6

> <PUBCHEM_CONFORMER_DIVERSEORDER>
1
2

> <PUBCHEM_MMFF94_PARTIAL_CHARGES>
19
1 -0.57
13 -0.28
15 0.14
18 0.45
19 0.14
20 -0.15
21 -0.14
22 0.06
24 -0.15
25 -0.15
26 -0.15
27 -0.15
54 0.15
58 0.15
59 0.15
6 0.14
60 0.15
61 0.15
7 0.06

> <PUBCHEM_EFFECTIVE_ROTOR_COUNT>
2.8

> <PUBCHEM_PHARMACOPHORE_FEATURES>
6
1 1 acceptor
5 2 3 7 10 12 rings
5 23 24 25 26 27 rings
6 2 3 4 5 8 9 rings
6 4 5 6 11 13 15 rings
6 6 13 16 19 20 21 rings

> <PUBCHEM_HEAVY_ATOM_COUNT>
27

> <PUBCHEM_ATOM_DEF_STEREO_COUNT>
6

> <PUBCHEM_ATOM_UDEF_STEREO_COUNT>
0

> <PUBCHEM_BOND_DEF_STEREO_COUNT>
0

> <PUBCHEM_BOND_UDEF_STEREO_COUNT>
0

> <PUBCHEM_ISOTOPIC_ATOM_COUNT>
0

> <PUBCHEM_COMPONENT_COUNT>
1

> <PUBCHEM_CACTVS_TAUTO_COUNT>
3

> <PUBCHEM_CONFORMER_ID>
0003C7C500000001

> <PUBCHEM_MMFF94_ENERGY>
104.378

> <PUBCHEM_FEATURE_SELFOVERLAP>
30.561

> <PUBCHEM_SHAPE_FINGERPRINT>
10 15 18342742888827192568
10319926 262 18271515446873100362
10670039 82 5112016014662288658
10675989 125 16903582519315499437
11823591 26 16515692160503223174
11961588 58 13984669152693766294
12236239 1 17603591828434564222
12403260 363 18196652900136355519
12422481 6 18131347526941703326
12516196 113 14620795998874411148
12596602 18 18131070394694115184
12616971 3 16630238139022894215
12633257 1 18343300344926630852
13103583 49 17203327775922634138
13140716 1 18201149936890017823
13288520 33 11455891369250614547
13540713 5 17415545524322101534
13583140 156 16629979766849374679
13631057 29 16081665370378040087
13668630 136 12607403317067504736
13673619 4 11887665178862851133
13685833 64 13830128395215801096
13690498 29 8358258121079007051
13782708 43 12391505360967687649
13914758 101 4895284685864605980
14251764 18 18131349674404278226
14251764 30 12319738059521587304
14341114 176 18202284710716297632
14347424 109 18410580604777411616
14767858 380 6699806492889352360
15064986 96 18188213234225237922
15188451 53 17416962842614094859
15238133 3 18410566259217897068
15301273 46 18412821417838029854
15420108 30 18409457985504019766
15461852 350 17968377853659765943
15575132 122 15068611730000842689
16110190 28 18131349662020796196
17492 54 5400802756534875822
17980427 23 18341895147490958823
1813 80 16128657462209618766
19784866 240 13039182623884243893
20511986 3 18338804519864909473
20567600 247 11600003232547491328
20871999 31 7781523611190490966
21033648 29 18336815459542170598
21130935 74 18412543236315979690
21150785 3 13840271385840100225
21267235 1 8862933992851640345
21403212 168 18272098213715857258
21452121 103 18336540620416578175
21521239 73 7204781389023293988
21637258 2 14189581814847481584
21756936 100 18041571247878654302
21792934 111 18129651020247033937
21859007 373 17344920826475082901
22122407 14 17749383737488886672
22224240 67 18408890628591431531
23198884 109 5400804964005751585
23522609 53 17273667971500440716
23559900 14 18196064815828869535
23569917 315 18343297042456509555
23622692 88 18202565064505954318
2838139 119 17676214554443613440
312425 54 18060701693323465562
3737641 26 15769232655665265322
392239 28 18335693910547956097
4093350 32 17313380192796992902
4340502 62 18410293636004960662
46194498 28 8718535117231774338
465052 167 12607397806550279602
5104073 3 18270388516738596835
5385378 56 18338233881503940338
6608658 132 14418128560786451163
86090 222 14620515700887935488

> <PUBCHEM_SHAPE_MULTIPOLES>
549.78
15.91
2.14
1.57
8.44
0.28
0.79
-6.8
-9.21
-0.93
-0.29
-0.02
0.09
0.32

> <PUBCHEM_SHAPE_SELFOVERLAP>
1198.346

> <PUBCHEM_SHAPE_VOLUME>
298.9

> <PUBCHEM_COORDINATE_TYPE>
2
5
10

$$$$

