5459896
  -OEChem-07051212453D

 33 33  0     1  0  0  0  0  0999 V2000
    0.6819    0.8906   -0.3399 O   0  0  0  0  0  0  0  0  0  0  0  0
    3.1031   -2.4256   -0.4292 O   0  0  0  0  0  0  0  0  0  0  0  0
    4.1484    0.0922    0.5318 O   0  0  0  0  0  0  0  0  0  0  0  0
   -1.2406   -0.4169   -0.5345 O   0  0  0  0  0  0  0  0  0  0  0  0
    0.2502   -2.6879    0.2583 O   0  0  0  0  0  0  0  0  0  0  0  0
    1.5622    3.4289    0.2415 O   0  0  0  0  0  0  0  0  0  0  0  0
   -5.5431   -0.0799   -0.0898 O   0  5  0  0  0  0  0  0  0  0  0  0
   -3.4783    0.6815   -0.7086 N   0  0  0  0  0  0  0  0  0  0  0  0
   -4.2886    0.0860    0.0722 N   0  3  0  0  0  0  0  0  0  0  0  0
    2.3023   -1.4200    0.1937 C   0  0  1  0  0  0  0  0  0  0  0  0
    2.9047   -0.0570   -0.1479 C   0  0  1  0  0  0  0  0  0  0  0  0
    1.9613    1.0736    0.2691 C   0  0  1  0  0  0  0  0  0  0  0  0
    0.8633   -1.5309   -0.3100 C   0  0  2  0  0  0  0  0  0  0  0  0
    0.0385   -0.3072    0.0890 C   0  0  1  0  0  0  0  0  0  0  0  0
    2.4872    2.4376   -0.1667 C   0  0  0  0  0  0  0  0  0  0  0  0
   -2.0872    0.6923   -0.2158 C   0  0  0  0  0  0  0  0  0  0  0  0
   -3.6654   -0.4574    1.2866 C   0  0  0  0  0  0  0  0  0  0  0  0
    2.3491   -1.6114    1.2728 H   0  0  0  0  0  0  0  0  0  0  0  0
    3.1115   -0.0095   -1.2242 H   0  0  0  0  0  0  0  0  0  0  0  0
    1.8278    1.0942    1.3594 H   0  0  0  0  0  0  0  0  0  0  0  0
    0.8510   -1.6678   -1.3978 H   0  0  0  0  0  0  0  0  0  0  0  0
   -0.1127   -0.2833    1.1769 H   0  0  0  0  0  0  0  0  0  0  0  0
    2.5850    2.5003   -1.2556 H   0  0  0  0  0  0  0  0  0  0  0  0
    3.4562    2.6623    0.2880 H   0  0  0  0  0  0  0  0  0  0  0  0
    4.0119   -2.3197   -0.0993 H   0  0  0  0  0  0  0  0  0  0  0  0
    3.9740    0.0586    1.4879 H   0  0  0  0  0  0  0  0  0  0  0  0
    0.2502   -2.5851    1.2253 H   0  0  0  0  0  0  0  0  0  0  0  0
   -1.6538    1.5325   -0.7768 H   0  0  0  0  0  0  0  0  0  0  0  0
   -1.9586    1.0349    0.8188 H   0  0  0  0  0  0  0  0  0  0  0  0
    0.7043    3.2159   -0.1640 H   0  0  0  0  0  0  0  0  0  0  0  0
   -2.8750   -1.1776    1.0714 H   0  0  0  0  0  0  0  0  0  0  0  0
   -4.4429   -1.0353    1.8038 H   0  0  0  0  0  0  0  0  0  0  0  0
   -3.3913    0.3411    1.9802 H   0  0  0  0  0  0  0  0  0  0  0  0
  1 12  1  0  0  0  0
  1 14  1  0  0  0  0
  2 10  1  0  0  0  0
  2 25  1  0  0  0  0
  3 11  1  0  0  0  0
  3 26  1  0  0  0  0
  4 14  1  0  0  0  0
  4 16  1  0  0  0  0
  5 13  1  0  0  0  0
  5 27  1  0  0  0  0
  6 15  1  0  0  0  0
  6 30  1  0  0  0  0
  7  9  1  0  0  0  0
  8  9  2  0  0  0  0
  8 16  1  0  0  0  0
  9 17  1  0  0  0  0
 10 11  1  0  0  0  0
 10 13  1  0  0  0  0
 10 18  1  0  0  0  0
 11 12  1  0  0  0  0
 11 19  1  0  0  0  0
 12 15  1  0  0  0  0
 12 20  1  0  0  0  0
 13 14  1  0  0  0  0
 13 21  1  0  0  0  0
 14 22  1  0  0  0  0
 15 23  1  0  0  0  0
 15 24  1  0  0  0  0
 16 28  1  0  0  0  0
 16 29  1  0  0  0  0
 17 31  1  0  0  0  0
 17 32  1  0  0  0  0
 17 33  1  0  0  0  0
M  CHG  2   7  -1   9   1
M  END
> <PUBCHEM_COMPOUND_CID>
5459896

> <PUBCHEM_CONFORMER_RMSD>
0.6

> <PUBCHEM_CONFORMER_DIVERSEORDER>
4
75
11
81
6
48
72
34
9
84
29
53
67
88
80
68
22
77
28
82
61
90
26
70
66
30
19
7
52
71
89
55
86
91
21
56
27
60
73
24
14
50
74
31
49
13
76
36
62
25
59
23
42
45
64
63
15
83
79
2
47
46
92
38
12
40
78
1
58
18
5
35
57
39
69
51
65
20
44
17
37
32
10
54
43
87
8
3
41
33
16
85

> <PUBCHEM_MMFF94_PARTIAL_CHARGES>
21
1 -0.56
10 0.28
11 0.28
12 0.28
13 0.28
14 0.56
15 0.28
16 0.53
17 0.1
2 -0.68
25 0.4
26 0.4
27 0.4
3 -0.68
30 0.4
4 -0.56
5 -0.68
6 -0.68
7 -0.63
8 -0.45
9 0.74

> <PUBCHEM_EFFECTIVE_ROTOR_COUNT>
5.2

> <PUBCHEM_PHARMACOPHORE_FEATURES>
12
1 1 acceptor
1 2 acceptor
1 2 donor
1 3 acceptor
1 3 donor
1 4 acceptor
1 5 acceptor
1 5 donor
1 6 acceptor
1 6 donor
1 7 anion
6 1 10 11 12 13 14 rings

> <PUBCHEM_HEAVY_ATOM_COUNT>
17

> <PUBCHEM_ATOM_DEF_STEREO_COUNT>
5

> <PUBCHEM_ATOM_UDEF_STEREO_COUNT>
0

> <PUBCHEM_BOND_DEF_STEREO_COUNT>
1

> <PUBCHEM_BOND_UDEF_STEREO_COUNT>
0

> <PUBCHEM_ISOTOPIC_ATOM_COUNT>
0

> <PUBCHEM_COMPONENT_COUNT>
1

> <PUBCHEM_CACTVS_TAUTO_COUNT>
1

> <PUBCHEM_CONFORMER_ID>
00534FB800000004

> <PUBCHEM_MMFF94_ENERGY>
57.8652

> <PUBCHEM_FEATURE_SELFOVERLAP>
60.953

> <PUBCHEM_SHAPE_FINGERPRINT>
10366900 7 18131343129327682953
10608611 8 18343587356443240229
10967382 1 18410295817747996844
11471102 20 18410576205697158951
11615757 297 18260543429303744761
12236239 1 17530965791491129939
13140716 1 18195254312993188776
13380536 305 18410291389578608022
13922767 16 18412546500442975696
14026960 21 18198619943544527617
14251717 144 18410575102033001599
14252887 29 18261110833138537678
16945 1 18410013204763221318
18186145 218 18260823774308508573
200 152 18260272971297923855
20279233 1 17988637515380422411
20339313 130 18263080071132320238
20559304 39 18408322194181382280
20606313 2 18410577318330942014
20645477 70 18411705396018468383
21041028 32 18264210394845071180
21501502 16 18122348978078326014
21639500 275 18337400356952547877
221490 88 18341041948075002843
22854114 111 18409449150549797061
23557571 272 17203617003832207549
23558518 356 17840309913063578346
23559900 14 17704066305088042671
2748010 2 17979355257845733852
3060560 45 18334012808967021118
42630746 31 18407762529656052183
474 4 18263365802247781881
49207404 50 18127400168840061545
7364860 26 18409448076807862756
8272917 22 18335414703651334071
9999458 23 18272370845655410518

> <PUBCHEM_SHAPE_MULTIPOLES>
298.8
8.12
2.7
0.77
11.02
0.86
-0.12
0.29
-0.59
-3.21
-0.02
0.38
-0.04
0.43

> <PUBCHEM_SHAPE_SELFOVERLAP>
592.392

> <PUBCHEM_SHAPE_VOLUME>
175.3

> <PUBCHEM_COORDINATE_TYPE>
2
5
10

$$$$

