153311
  -OEChem-07051212462D

 43 46  0     1  0  0  0  0  0999 V2000
    2.0000   -0.0092    0.0000 O   0  0  0  0  0  0  0  0  0  0  0  0
    8.1803    0.3169    0.0000 O   0  0  0  0  0  0  0  0  0  0  0  0
    7.7320   -1.3561    0.0000 O   0  0  0  0  0  0  0  0  0  0  0  0
   11.0780   -0.4595    0.0000 O   0  0  0  0  0  0  0  0  0  0  0  0
    4.2547    2.9396    0.0000 N   0  0  0  0  0  0  0  0  0  0  0  0
    3.0004   -0.0090    0.0000 C   0  0  3  0  0  0  0  0  0  0  0  0
    2.5004    0.8571    0.0000 C   0  0  3  0  0  0  0  0  0  0  0  0
    4.7325    0.9910    0.0000 C   0  0  1  0  0  0  0  0  0  0  0  0
    4.9913    1.9570    0.0000 C   0  0  2  0  0  0  0  0  0  0  0  0
    6.4372   -0.0536    0.0000 C   0  0  0  0  0  0  0  0  0  0  0  0
    6.8560    1.5093    0.0000 C   0  0  0  0  0  0  0  0  0  0  0  0
    7.2143    0.5757    0.0000 C   0  0  0  0  0  0  0  0  0  0  0  0
    3.7547    3.8056    0.0000 C   0  0  0  0  0  0  0  0  0  0  0  0
    8.4391   -0.6490    0.0000 C   0  0  0  0  0  0  0  0  0  0  0  0
    9.4050   -0.9078    0.0000 C   0  0  2  0  0  0  0  0  0  0  0  0
   10.1121   -0.2007    0.0000 C   0  0  0  0  0  0  0  0  0  0  0  0
    9.6638   -1.8738    0.0000 C   0  0  0  0  0  0  0  0  0  0  0  0
    8.9567   -2.5809    0.0000 C   0  0  0  0  0  0  0  0  0  0  0  0
   10.6298   -2.1326    0.0000 C   0  0  0  0  0  0  0  0  0  0  0  0
    9.2155   -3.5468    0.0000 C   0  0  0  0  0  0  0  0  0  0  0  0
   10.8886   -3.0985    0.0000 C   0  0  0  0  0  0  0  0  0  0  0  0
   10.1815   -3.8056    0.0000 C   0  0  0  0  0  0  0  0  0  0  0  0
    3.2205   -0.8300    0.0000 H   0  0  0  0  0  0  0  0  0  0  0  0
    1.9327    1.4897    0.0000 H   0  0  0  0  0  0  0  0  0  0  0  0
    4.5125    0.1700    0.0000 H   0  0  0  0  0  0  0  0  0  0  0  0
    5.2113    2.7780    0.0000 H   0  0  0  0  0  0  0  0  0  0  0  0
    6.0555   -0.5422    0.0000 H   0  0  0  0  0  0  0  0  0  0  0  0
    6.8794   -0.4882    0.0000 H   0  0  0  0  0  0  0  0  0  0  0  0
    7.4675    1.6116    0.0000 H   0  0  0  0  0  0  0  0  0  0  0  0
    6.8776    2.1289    0.0000 H   0  0  0  0  0  0  0  0  0  0  0  0
    7.6292    1.0365    0.0000 H   0  0  0  0  0  0  0  0  0  0  0  0
    4.2916    4.1156    0.0000 H   0  0  0  0  0  0  0  0  0  0  0  0
    3.4447    4.3426    0.0000 H   0  0  0  0  0  0  0  0  0  0  0  0
    3.2178    3.4956    0.0000 H   0  0  0  0  0  0  0  0  0  0  0  0
    9.2445   -0.3090    0.0000 H   0  0  0  0  0  0  0  0  0  0  0  0
   10.3741    0.3612    0.0000 H   0  0  0  0  0  0  0  0  0  0  0  0
    9.6042    0.1549    0.0000 H   0  0  0  0  0  0  0  0  0  0  0  0
    8.3578   -2.4204    0.0000 H   0  0  0  0  0  0  0  0  0  0  0  0
   11.0682   -1.6942    0.0000 H   0  0  0  0  0  0  0  0  0  0  0  0
   11.5164   -0.0211    0.0000 H   0  0  0  0  0  0  0  0  0  0  0  0
    8.7771   -3.9852    0.0000 H   0  0  0  0  0  0  0  0  0  0  0  0
   11.4874   -3.2590    0.0000 H   0  0  0  0  0  0  0  0  0  0  0  0
   10.3419   -4.4045    0.0000 H   0  0  0  0  0  0  0  0  0  0  0  0
  1  6  1  0  0  0  0
  1  7  1  0  0  0  0
  2 12  1  0  0  0  0
  2 14  1  0  0  0  0
  3 14  2  0  0  0  0
  4 16  1  0  0  0  0
  4 40  1  0  0  0  0
  5  8  1  0  0  0  0
  5  9  1  0  0  0  0
  5 13  1  0  0  0  0
  6  7  1  0  0  0  0
  6  8  1  0  0  0  0
  6 23  1  0  0  0  0
  7  9  1  0  0  0  0
  7 24  1  0  0  0  0
  8 10  1  0  0  0  0
  8 25  1  1  0  0  0
  9 11  1  0  0  0  0
  9 26  1  6  0  0  0
 10 12  1  0  0  0  0
 10 27  1  0  0  0  0
 10 28  1  0  0  0  0
 11 12  1  0  0  0  0
 11 29  1  0  0  0  0
 11 30  1  0  0  0  0
 12 31  1  0  0  0  0
 13 32  1  0  0  0  0
 13 33  1  0  0  0  0
 13 34  1  0  0  0  0
 14 15  1  0  0  0  0
 15 16  1  6  0  0  0
 15 17  1  0  0  0  0
 15 35  1  0  0  0  0
 16 36  1  0  0  0  0
 16 37  1  0  0  0  0
 17 18  2  0  0  0  0
 17 19  1  0  0  0  0
 18 20  1  0  0  0  0
 18 38  1  0  0  0  0
 19 21  2  0  0  0  0
 19 39  1  0  0  0  0
 20 22  2  0  0  0  0
 20 41  1  0  0  0  0
 21 22  1  0  0  0  0
 21 42  1  0  0  0  0
 22 43  1  0  0  0  0
M  END
> <PUBCHEM_COMPOUND_CID>
153311

> <PUBCHEM_COMPOUND_CANONICALIZED>
1

> <PUBCHEM_CACTVS_COMPLEXITY>
418

> <PUBCHEM_CACTVS_HBOND_ACCEPTOR>
5

> <PUBCHEM_CACTVS_HBOND_DONOR>
1

> <PUBCHEM_CACTVS_ROTATABLE_BOND>
5

> <PUBCHEM_CACTVS_SUBSKEYS>
AAADceB6OAAAAAAAAAAAAAAAEgAAAWAAAAA8WIAABgAAAAABAAAAHgAACAAADTzhmAYyCIMABgCIAiDSCAACAAAgAAAIiAEIAIgKMDaAlRCHYAAn4AGYiAfY6OyOgAAAAAAAAAAAAAAAAAAAAAAAAAAAAA==

> <PUBCHEM_IUPAC_INCHI>
InChI=1S/C17H21NO4/c1-18-13-7-11(8-14(18)16-15(13)22-16)21-17(20)12(9-19)10-5-3-2-4-6-10/h2-6,11-16,19H,7-9H2,1H3/t11?,12-,13-,14+,15?,16?/m1/s1

> <PUBCHEM_IUPAC_INCHIKEY>
STECJAGHUSJQJN-MKXJHAPZSA-N

> <PUBCHEM_XLOGP3>
0.9

> <PUBCHEM_EXACT_MASS>
303.147058

> <PUBCHEM_MOLECULAR_FORMULA>
C17H21NO4

> <PUBCHEM_MOLECULAR_WEIGHT>
303.35294

> <PUBCHEM_OPENEYE_CAN_SMILES>
CN1C2CC(CC1C3C2O3)OC(=O)C(CO)C4=CC=CC=C4

> <PUBCHEM_OPENEYE_ISO_SMILES>
CN1[C@@H]2CC(C[C@H]1C3C2O3)OC(=O)[C@H](CO)C4=CC=CC=C4

> <PUBCHEM_CACTVS_TPSA>
62.3

> <PUBCHEM_MONOISOTOPIC_WEIGHT>
303.147058

> <PUBCHEM_TOTAL_CHARGE>
0

> <PUBCHEM_HEAVY_ATOM_COUNT>
22

> <PUBCHEM_ATOM_DEF_STEREO_COUNT>
3

> <PUBCHEM_ATOM_UDEF_STEREO_COUNT>
2

> <PUBCHEM_BOND_DEF_STEREO_COUNT>
0

> <PUBCHEM_BOND_UDEF_STEREO_COUNT>
0

> <PUBCHEM_ISOTOPIC_ATOM_COUNT>
0

> <PUBCHEM_COMPONENT_COUNT>
1

> <PUBCHEM_CACTVS_TAUTO_COUNT>
1

> <PUBCHEM_COORDINATE_TYPE>
1
5
255

> <PUBCHEM_BONDANNOTATIONS>
15  16  6
17  18  8
17  19  8
18  20  8
19  21  8
20  22  8
21  22  8
6  23  3
7  24  3
8  25  5
9  26  6

$$$$

