440352
  -OEChem-07051212493D

 20 19  0     1  0  0  0  0  0999 V2000
   -0.8153   -1.5175   -0.7650 O   0  0  0  0  0  0  0  0  0  0  0  0
   -2.2482    1.6410    0.4038 O   0  0  0  0  0  0  0  0  0  0  0  0
    1.6968   -1.4740    0.5231 O   0  0  0  0  0  0  0  0  0  0  0  0
   -4.3114   -0.0956    0.5187 O   0  0  0  0  0  0  0  0  0  0  0  0
    3.9776   -0.4131    0.3154 O   0  0  0  0  0  0  0  0  0  0  0  0
    3.0337    1.5472   -0.4126 O   0  0  0  0  0  0  0  0  0  0  0  0
   -0.8730   -0.3357    0.0378 C   0  0  1  0  0  0  0  0  0  0  0  0
    0.4079    0.4764   -0.1861 C   0  0  0  0  0  0  0  0  0  0  0  0
   -2.1202    0.4589   -0.3649 C   0  0  1  0  0  0  0  0  0  0  0  0
    1.6562   -0.3113    0.1497 C   0  0  0  0  0  0  0  0  0  0  0  0
   -3.3715   -0.3820   -0.2161 C   0  0  0  0  0  0  0  0  0  0  0  0
    2.9674    0.4056   -0.0038 C   0  0  0  0  0  0  0  0  0  0  0  0
   -0.9448   -0.6427    1.0886 H   0  0  0  0  0  0  0  0  0  0  0  0
    0.4844    0.7616   -1.2421 H   0  0  0  0  0  0  0  0  0  0  0  0
    0.3959    1.3801    0.4322 H   0  0  0  0  0  0  0  0  0  0  0  0
   -2.0602    0.7390   -1.4237 H   0  0  0  0  0  0  0  0  0  0  0  0
   -3.4140   -1.2899   -0.8421 H   0  0  0  0  0  0  0  0  0  0  0  0
   -0.1240   -2.0936   -0.3977 H   0  0  0  0  0  0  0  0  0  0  0  0
   -2.9835    2.1563    0.0302 H   0  0  0  0  0  0  0  0  0  0  0  0
    4.8531    0.0151    0.2036 H   0  0  0  0  0  0  0  0  0  0  0  0
  1  7  1  0  0  0  0
  1 18  1  0  0  0  0
  2  9  1  0  0  0  0
  2 19  1  0  0  0  0
  3 10  2  0  0  0  0
  4 11  2  0  0  0  0
  5 12  1  0  0  0  0
  5 20  1  0  0  0  0
  6 12  2  0  0  0  0
  7  8  1  0  0  0  0
  7  9  1  0  0  0  0
  7 13  1  0  0  0  0
  8 10  1  0  0  0  0
  8 14  1  0  0  0  0
  8 15  1  0  0  0  0
  9 11  1  0  0  0  0
  9 16  1  0  0  0  0
 10 12  1  0  0  0  0
 11 17  1  0  0  0  0
M  END
> <PUBCHEM_COMPOUND_CID>
440352

> <PUBCHEM_CONFORMER_RMSD>
0.6

> <PUBCHEM_CONFORMER_DIVERSEORDER>
1
31
27
39
4
41
47
43
14
44
23
8
20
48
29
11
21
16
42
6
2
35
34
19
49
22
5
38
26
3
36
46
24
32
37
13
25
18
40
17
33
7
45
9
12
30
10
15
28

> <PUBCHEM_MMFF94_PARTIAL_CHARGES>
16
1 -0.68
10 0.51
11 0.45
12 0.72
17 0.06
18 0.4
19 0.4
2 -0.68
20 0.5
3 -0.57
4 -0.57
5 -0.65
6 -0.57
7 0.28
8 0.06
9 0.34

> <PUBCHEM_EFFECTIVE_ROTOR_COUNT>
5

> <PUBCHEM_PHARMACOPHORE_FEATURES>
9
1 1 acceptor
1 1 donor
1 2 acceptor
1 2 donor
1 3 acceptor
1 4 acceptor
1 5 acceptor
1 6 acceptor
3 5 6 12 anion

> <PUBCHEM_HEAVY_ATOM_COUNT>
12

> <PUBCHEM_ATOM_DEF_STEREO_COUNT>
2

> <PUBCHEM_ATOM_UDEF_STEREO_COUNT>
0

> <PUBCHEM_BOND_DEF_STEREO_COUNT>
0

> <PUBCHEM_BOND_UDEF_STEREO_COUNT>
0

> <PUBCHEM_ISOTOPIC_ATOM_COUNT>
0

> <PUBCHEM_COMPONENT_COUNT>
1

> <PUBCHEM_CACTVS_TAUTO_COUNT>
32

> <PUBCHEM_CONFORMER_ID>
0006B82000000001

> <PUBCHEM_MMFF94_ENERGY>
14.3232

> <PUBCHEM_FEATURE_SELFOVERLAP>
45.749

> <PUBCHEM_SHAPE_FINGERPRINT>
10219947 1 17203608185894888292
11062470 55 9223231853475243435
12162725 195 18412544327300443088
12932764 1 17095538313092338527
14144814 61 18411421743081816872
14325111 11 18410012173575457333
15775835 57 18335137561837734485
170605 34 18343864411708523754
190213 19 18412267241737903036
20645477 70 18198918070310223399
23402539 116 17968106325642800301

> <PUBCHEM_SHAPE_MULTIPOLES>
211.74
6.95
1.33
0.7
0.78
0.09
0.03
0.6
-0.71
-0.24
0.03
0.11
-0.04
-0.43

> <PUBCHEM_SHAPE_SELFOVERLAP>
413.429

> <PUBCHEM_SHAPE_VOLUME>
125.4

> <PUBCHEM_COORDINATE_TYPE>
2
5
10

$$$$

