443725
  -OEChem-07051213033D

 37 40  0     1  0  0  0  0  0999 V2000
   -4.1151    1.1313   -0.1578 O   0  0  0  0  0  0  0  0  0  0  0  0
   -3.6485   -1.5678    0.2877 O   0  0  0  0  0  0  0  0  0  0  0  0
    1.9556    1.5415    0.0341 N   0  0  1  0  0  0  0  0  0  0  0  0
    2.1955    0.1686    0.0540 C   0  0  0  0  0  0  0  0  0  0  0  0
    3.2431    2.1783   -0.2279 C   0  0  0  0  0  0  0  0  0  0  0  0
    4.3328    1.1402    0.1457 C   0  0  0  0  0  0  0  0  0  0  0  0
    3.5548   -0.1346    0.1101 C   0  0  0  0  0  0  0  0  0  0  0  0
    0.6871    2.0216   -0.4764 C   0  0  0  0  0  0  0  0  0  0  0  0
    1.2004   -0.8038    0.0365 C   0  0  0  0  0  0  0  0  0  0  0  0
   -0.4524    1.0428   -0.2269 C   0  0  0  0  0  0  0  0  0  0  0  0
   -0.1991   -0.3405   -0.0146 C   0  0  0  0  0  0  0  0  0  0  0  0
    3.9840   -1.4437    0.1573 C   0  0  0  0  0  0  0  0  0  0  0  0
    1.6389   -2.1350    0.0727 C   0  0  0  0  0  0  0  0  0  0  0  0
   -1.7712    1.5193   -0.2813 C   0  0  0  0  0  0  0  0  0  0  0  0
   -1.2992   -1.1960    0.1585 C   0  0  0  0  0  0  0  0  0  0  0  0
    3.0131   -2.4482    0.1330 C   0  0  0  0  0  0  0  0  0  0  0  0
   -2.8428    0.6479   -0.1068 C   0  0  0  0  0  0  0  0  0  0  0  0
   -2.6071   -0.7055    0.1134 C   0  0  0  0  0  0  0  0  0  0  0  0
   -4.6915    1.5705    1.0707 C   0  0  0  0  0  0  0  0  0  0  0  0
   -4.1784   -2.1872   -0.8821 C   0  0  0  0  0  0  0  0  0  0  0  0
    3.3593    3.1042    0.3447 H   0  0  0  0  0  0  0  0  0  0  0  0
    3.3241    2.4269   -1.2941 H   0  0  0  0  0  0  0  0  0  0  0  0
    4.7122    1.3215    1.1567 H   0  0  0  0  0  0  0  0  0  0  0  0
    5.1577    1.1535   -0.5719 H   0  0  0  0  0  0  0  0  0  0  0  0
    0.7606    2.1853   -1.5589 H   0  0  0  0  0  0  0  0  0  0  0  0
    0.4606    2.9830   -0.0015 H   0  0  0  0  0  0  0  0  0  0  0  0
    5.0378   -1.6921    0.2108 H   0  0  0  0  0  0  0  0  0  0  0  0
    0.9335   -2.9614    0.0531 H   0  0  0  0  0  0  0  0  0  0  0  0
   -1.9598    2.5747   -0.4645 H   0  0  0  0  0  0  0  0  0  0  0  0
   -1.1563   -2.2585    0.3396 H   0  0  0  0  0  0  0  0  0  0  0  0
    3.3197   -3.4908    0.1636 H   0  0  0  0  0  0  0  0  0  0  0  0
   -4.7432    0.7461    1.7888 H   0  0  0  0  0  0  0  0  0  0  0  0
   -5.7071    1.9207    0.8667 H   0  0  0  0  0  0  0  0  0  0  0  0
   -4.1129    2.3994    1.4908 H   0  0  0  0  0  0  0  0  0  0  0  0
   -5.0035   -2.8385   -0.5811 H   0  0  0  0  0  0  0  0  0  0  0  0
   -3.4132   -2.7963   -1.3738 H   0  0  0  0  0  0  0  0  0  0  0  0
   -4.5630   -1.4340   -1.5769 H   0  0  0  0  0  0  0  0  0  0  0  0
  1 17  1  0  0  0  0
  1 19  1  0  0  0  0
  2 18  1  0  0  0  0
  2 20  1  0  0  0  0
  3  4  1  0  0  0  0
  3  5  1  0  0  0  0
  3  8  1  0  0  0  0
  4  7  2  0  0  0  0
  4  9  1  0  0  0  0
  5  6  1  0  0  0  0
  5 21  1  0  0  0  0
  5 22  1  0  0  0  0
  6  7  1  0  0  0  0
  6 23  1  0  0  0  0
  6 24  1  0  0  0  0
  7 12  1  0  0  0  0
  8 10  1  0  0  0  0
  8 25  1  0  0  0  0
  8 26  1  0  0  0  0
  9 11  1  0  0  0  0
  9 13  2  0  0  0  0
 10 11  1  0  0  0  0
 10 14  2  0  0  0  0
 11 15  2  0  0  0  0
 12 16  2  0  0  0  0
 12 27  1  0  0  0  0
 13 16  1  0  0  0  0
 13 28  1  0  0  0  0
 14 17  1  0  0  0  0
 14 29  1  0  0  0  0
 15 18  1  0  0  0  0
 15 30  1  0  0  0  0
 16 31  1  0  0  0  0
 17 18  2  0  0  0  0
 19 32  1  0  0  0  0
 19 33  1  0  0  0  0
 19 34  1  0  0  0  0
 20 35  1  0  0  0  0
 20 36  1  0  0  0  0
 20 37  1  0  0  0  0
M  END
> <PUBCHEM_COMPOUND_CID>
443725

> <PUBCHEM_CONFORMER_RMSD>
0.6

> <PUBCHEM_CONFORMER_DIVERSEORDER>
1
2

> <PUBCHEM_MMFF94_PARTIAL_CHARGES>
23
1 -0.36
10 -0.14
12 -0.15
13 -0.15
14 -0.15
15 -0.15
16 -0.15
17 0.08
18 0.08
19 0.28
2 -0.36
20 0.28
27 0.15
28 0.15
29 0.15
3 -0.84
30 0.15
31 0.15
4 0.1
5 0.37
6 0.14
7 -0.14
8 0.51

> <PUBCHEM_EFFECTIVE_ROTOR_COUNT>
2.6

> <PUBCHEM_PHARMACOPHORE_FEATURES>
7
1 1 acceptor
1 2 acceptor
1 3 cation
5 3 4 5 6 7 rings
6 10 11 14 15 17 18 rings
6 3 4 8 9 10 11 rings
6 4 7 9 12 13 16 rings

> <PUBCHEM_HEAVY_ATOM_COUNT>
20

> <PUBCHEM_ATOM_DEF_STEREO_COUNT>
0

> <PUBCHEM_ATOM_UDEF_STEREO_COUNT>
0

> <PUBCHEM_BOND_DEF_STEREO_COUNT>
0

> <PUBCHEM_BOND_UDEF_STEREO_COUNT>
0

> <PUBCHEM_ISOTOPIC_ATOM_COUNT>
0

> <PUBCHEM_COMPONENT_COUNT>
1

> <PUBCHEM_CACTVS_TAUTO_COUNT>
1

> <PUBCHEM_CONFORMER_ID>
0006C54D00000001

> <PUBCHEM_MMFF94_ENERGY>
94.1165

> <PUBCHEM_FEATURE_SELFOVERLAP>
35.751

> <PUBCHEM_SHAPE_FINGERPRINT>
10062212 137 18335708234495950831
10411042 1 17690842684857772970
10608611 8 18341898523456818836
10616163 171 18337670815232831063
10967382 1 18340206263634997990
1100329 8 16253640378392548347
11132069 177 18342463650810985616
11405975 8 18409448128352771315
11471102 20 18411985797084523844
11578080 2 17532394009925078001
11806522 49 18268433442839872687
12107183 9 17975690911733597339
12251169 10 18337388369740892681
12553582 1 18053390078211510674
12596599 1 17968923297078886750
12633257 1 18340209716340532219
12788726 201 15249022480037121140
13140716 1 18339918311795013635
13224815 77 18411704270225203734
13583140 156 15357992186562047735
13675066 3 17917421064706654585
14289901 80 18335703806226419843
14787075 74 17608374540843835056
14790565 3 18125429814176751476
14866123 147 16605754557983274706
15042514 8 17331966530816662314
15196674 1 18411138026248157190
15442244 35 18338516472818219672
15536298 74 18408604773032785580
16945 1 18196377141982518756
17492 89 18409449180631074559
1813 80 17131826586265712021
18186145 218 17561367296140996411
19050596 39 18411702105635604626
19141452 34 18337672018319052333
19591789 44 18410856517154665198
200 152 18261400988433934551
20281475 54 18410014338175696973
20645477 70 18336267924268566406
20691752 17 17704075096522042282
21267235 1 18267577082364462562
21421861 104 17916029155963320746
21501502 16 18410293601344411991
221490 88 18413383250667781706
2334 1 18412546496585734838
23366157 5 18060700593985916758
23402539 116 18412553127957561886
23463225 33 18413109472272140636
23503953 91 18335425719962880267
23559900 14 18336833090831248562
2748010 2 18413112775302308524
2871803 45 18342747273218700783
335352 9 18267304411753918646
33824 294 18340772520808325746
34934 24 18412268367182910365
350125 39 18268424818756779132
3545911 37 18410854382202419641
4214541 1 18409730681661431617
5104073 3 18411420604841605274
543358 83 18337667615682194354
633830 44 17203887474601746557
7364860 26 18409449224028120454
77779 3 18409729560374403963
8809292 202 18201433718095562906
9709674 26 18413385419294067258

> <PUBCHEM_SHAPE_MULTIPOLES>
394.87
8.95
2.74
0.74
4.04
0.47
0.02
0.17
0.77
-0.42
-0.17
0.42
-0.03
-0.85

> <PUBCHEM_SHAPE_SELFOVERLAP>
880.477

> <PUBCHEM_SHAPE_VOLUME>
213.9

> <PUBCHEM_COORDINATE_TYPE>
2
5
10

$$$$

