13886897
  -OEChem-07051213082D

 34 36  0     1  0  0  0  0  0999 V2000
    6.3301    0.5950    0.0000 O   0  0  0  0  0  0  0  0  0  0  0  0
    4.5981   -1.4050    0.0000 O   0  0  0  0  0  0  0  0  0  0  0  0
    6.3301   -2.4050    0.0000 O   0  0  0  0  0  0  0  0  0  0  0  0
    9.8602    0.6192    0.0000 O   0  0  0  0  0  0  0  0  0  0  0  0
    2.0000    2.0950    0.0000 O   0  0  0  0  0  0  0  0  0  0  0  0
    5.4641   -0.9050    0.0000 C   0  0  2  0  0  0  0  0  0  0  0  0
    5.4641    0.0950    0.0000 C   0  0  1  0  0  0  0  0  0  0  0  0
    6.3301   -1.4050    0.0000 C   0  0  2  0  0  0  0  0  0  0  0  0
    7.1962   -0.9050    0.0000 C   0  0  0  0  0  0  0  0  0  0  0  0
    7.1962    0.0950    0.0000 C   0  0  0  0  0  0  0  0  0  0  0  0
    4.5981    0.5950    0.0000 C   0  0  0  0  0  0  0  0  0  0  0  0
    8.0901   -1.4397    0.0000 C   0  0  0  0  0  0  0  0  0  0  0  0
    8.0901    0.6297    0.0000 C   0  0  0  0  0  0  0  0  0  0  0  0
    4.5981    1.5950    0.0000 C   0  0  0  0  0  0  0  0  0  0  0  0
    3.7320    0.0950    0.0000 C   0  0  0  0  0  0  0  0  0  0  0  0
    8.9962   -0.9258    0.0000 C   0  0  0  0  0  0  0  0  0  0  0  0
    8.9962    0.1158    0.0000 C   0  0  0  0  0  0  0  0  0  0  0  0
    3.7320    2.0950    0.0000 C   0  0  0  0  0  0  0  0  0  0  0  0
    2.8660    0.5950    0.0000 C   0  0  0  0  0  0  0  0  0  0  0  0
    2.8660    1.5950    0.0000 C   0  0  0  0  0  0  0  0  0  0  0  0
    5.4641   -1.5250    0.0000 H   0  0  0  0  0  0  0  0  0  0  0  0
    5.4641    0.7150    0.0000 H   0  0  0  0  0  0  0  0  0  0  0  0
    6.8671   -1.7150    0.0000 H   0  0  0  0  0  0  0  0  0  0  0  0
    8.0829   -2.0596    0.0000 H   0  0  0  0  0  0  0  0  0  0  0  0
    8.0829    1.2496    0.0000 H   0  0  0  0  0  0  0  0  0  0  0  0
    4.5981   -2.0250    0.0000 H   0  0  0  0  0  0  0  0  0  0  0  0
    5.1350    1.9050    0.0000 H   0  0  0  0  0  0  0  0  0  0  0  0
    3.7320   -0.5250    0.0000 H   0  0  0  0  0  0  0  0  0  0  0  0
    6.8671   -2.7150    0.0000 H   0  0  0  0  0  0  0  0  0  0  0  0
    9.5319   -1.2379    0.0000 H   0  0  0  0  0  0  0  0  0  0  0  0
    3.7320    2.7150    0.0000 H   0  0  0  0  0  0  0  0  0  0  0  0
    2.3291    0.2850    0.0000 H   0  0  0  0  0  0  0  0  0  0  0  0
   10.3984    0.3112    0.0000 H   0  0  0  0  0  0  0  0  0  0  0  0
    2.0000    2.7150    0.0000 H   0  0  0  0  0  0  0  0  0  0  0  0
  1  7  1  0  0  0  0
  1 10  1  0  0  0  0
  6  2  1  6  0  0  0
  2 26  1  0  0  0  0
  8  3  1  6  0  0  0
  3 29  1  0  0  0  0
  4 17  1  0  0  0  0
  4 33  1  0  0  0  0
  5 20  1  0  0  0  0
  5 34  1  0  0  0  0
  6  7  1  0  0  0  0
  6  8  1  0  0  0  0
  6 21  1  0  0  0  0
  7 11  1  1  0  0  0
  7 22  1  0  0  0  0
  8  9  1  0  0  0  0
  8 23  1  0  0  0  0
  9 10  2  0  0  0  0
  9 12  1  0  0  0  0
 10 13  1  0  0  0  0
 11 14  2  0  0  0  0
 11 15  1  0  0  0  0
 12 16  2  0  0  0  0
 12 24  1  0  0  0  0
 13 17  2  0  0  0  0
 13 25  1  0  0  0  0
 14 18  1  0  0  0  0
 14 27  1  0  0  0  0
 15 19  2  0  0  0  0
 15 28  1  0  0  0  0
 16 17  1  0  0  0  0
 16 30  1  0  0  0  0
 18 20  2  0  0  0  0
 18 31  1  0  0  0  0
 19 20  1  0  0  0  0
 19 32  1  0  0  0  0
M  END
> <PUBCHEM_COMPOUND_CID>
13886897

> <PUBCHEM_COMPOUND_CANONICALIZED>
1

> <PUBCHEM_CACTVS_COMPLEXITY>
328

> <PUBCHEM_CACTVS_HBOND_ACCEPTOR>
5

> <PUBCHEM_CACTVS_HBOND_DONOR>
4

> <PUBCHEM_CACTVS_ROTATABLE_BOND>
1

> <PUBCHEM_CACTVS_SUBSKEYS>
AAADccBwOAAAAAAAAAAAAAAAAAAAAAAAAAA0YIAAAAAAAACRQAAAGgAACAAADBSgmAIwBoAABgCAAiBCAAACCAAgIAAIiAAGCIgNNyKGMRqCeCClwBULuAfA4OwOIAAACAAIAABAAAAQABAAAAAAAAAAAA==

> <PUBCHEM_IUPAC_OPENEYE_NAME>
(2R,3S,4S)-2-(4-hydroxyphenyl)chromane-3,4,7-triol

> <PUBCHEM_IUPAC_CAS_NAME>
(2R,3S,4S)-2-(4-hydroxyphenyl)-3,4-dihydro-2H-1-benzopyran-3,4,7-triol

> <PUBCHEM_IUPAC_NAME>
(2R,3S,4S)-2-(4-hydroxyphenyl)-3,4-dihydro-2H-chromene-3,4,7-triol

> <PUBCHEM_IUPAC_SYSTEMATIC_NAME>
(2R,3S,4S)-2-(4-hydroxyphenyl)-3,4-dihydro-2H-chromene-3,4,7-triol

> <PUBCHEM_IUPAC_TRADITIONAL_NAME>
(2R,3S,4S)-2-(4-hydroxyphenyl)chroman-3,4,7-triol

> <PUBCHEM_IUPAC_INCHI>
InChI=1S/C15H14O5/c16-9-3-1-8(2-4-9)15-14(19)13(18)11-6-5-10(17)7-12(11)20-15/h1-7,13-19H/t13-,14-,15+/m0/s1

> <PUBCHEM_IUPAC_INCHIKEY>
NTLUSUFJOUMRLA-SOUVJXGZSA-N

> <PUBCHEM_XLOGP3_AA>
1

> <PUBCHEM_EXACT_MASS>
274.084124

> <PUBCHEM_MOLECULAR_FORMULA>
C15H14O5

> <PUBCHEM_MOLECULAR_WEIGHT>
274.26866

> <PUBCHEM_OPENEYE_CAN_SMILES>
C1=CC(=CC=C1C2C(C(C3=C(O2)C=C(C=C3)O)O)O)O

> <PUBCHEM_OPENEYE_ISO_SMILES>
C1=CC(=CC=C1[C@@H]2[C@H]([C@H](C3=C(O2)C=C(C=C3)O)O)O)O

> <PUBCHEM_CACTVS_TPSA>
90.2

> <PUBCHEM_MONOISOTOPIC_WEIGHT>
274.084124

> <PUBCHEM_TOTAL_CHARGE>
0

> <PUBCHEM_HEAVY_ATOM_COUNT>
20

> <PUBCHEM_ATOM_DEF_STEREO_COUNT>
3

> <PUBCHEM_ATOM_UDEF_STEREO_COUNT>
0

> <PUBCHEM_BOND_DEF_STEREO_COUNT>
0

> <PUBCHEM_BOND_UDEF_STEREO_COUNT>
0

> <PUBCHEM_ISOTOPIC_ATOM_COUNT>
0

> <PUBCHEM_COMPONENT_COUNT>
1

> <PUBCHEM_CACTVS_TAUTO_COUNT>
6

> <PUBCHEM_COORDINATE_TYPE>
1
5
255

> <PUBCHEM_BONDANNOTATIONS>
10  13  8
11  14  8
11  15  8
12  16  8
13  17  8
14  18  8
15  19  8
16  17  8
18  20  8
19  20  8
6  2  6
8  3  6
7  11  5
9  10  8
9  12  8

$$$$

