14366
  -OEChem-06241222432D

 32 32  0     0  0  0  0  0  0999 V2000
    3.7320   -1.0000    0.0000 O   0  0  0  0  0  0  0  0  0  0  0  0
    5.4641    3.0000    0.0000 O   0  0  0  0  0  0  0  0  0  0  0  0
    2.8660    0.5000    0.0000 O   0  0  0  0  0  0  0  0  0  0  0  0
    6.3301    1.5000    0.0000 O   0  0  0  0  0  0  0  0  0  0  0  0
    4.5981    0.5000    0.0000 N   0  0  0  0  0  0  0  0  0  0  0  0
    2.8660   -2.5000    0.0000 C   0  0  0  0  0  0  0  0  0  0  0  0
    2.8660   -1.5000    0.0000 C   0  0  0  0  0  0  0  0  0  0  0  0
    2.0000   -3.0000    0.0000 C   0  0  0  0  0  0  0  0  0  0  0  0
    3.7320   -3.0000    0.0000 C   0  0  0  0  0  0  0  0  0  0  0  0
    4.5981    1.5000    0.0000 C   0  0  0  0  0  0  0  0  0  0  0  0
    2.0000   -4.0000    0.0000 C   0  0  0  0  0  0  0  0  0  0  0  0
    3.7320   -4.0000    0.0000 C   0  0  0  0  0  0  0  0  0  0  0  0
    2.8660   -4.5000    0.0000 C   0  0  0  0  0  0  0  0  0  0  0  0
    3.7320    0.0000    0.0000 C   0  0  0  0  0  0  0  0  0  0  0  0
    5.4641    2.0000    0.0000 C   0  0  0  0  0  0  0  0  0  0  0  0
    6.3301    3.5000    0.0000 C   0  0  0  0  0  0  0  0  0  0  0  0
    6.3301    4.5000    0.0000 C   0  0  0  0  0  0  0  0  0  0  0  0
    2.6540   -0.9174    0.0000 H   0  0  0  0  0  0  0  0  0  0  0  0
    2.2554   -1.6077    0.0000 H   0  0  0  0  0  0  0  0  0  0  0  0
    1.4631   -2.6900    0.0000 H   0  0  0  0  0  0  0  0  0  0  0  0
    4.2690   -2.6900    0.0000 H   0  0  0  0  0  0  0  0  0  0  0  0
    4.3860    2.0826    0.0000 H   0  0  0  0  0  0  0  0  0  0  0  0
    3.9875    1.3923    0.0000 H   0  0  0  0  0  0  0  0  0  0  0  0
    5.1350    0.1900    0.0000 H   0  0  0  0  0  0  0  0  0  0  0  0
    1.4631   -4.3100    0.0000 H   0  0  0  0  0  0  0  0  0  0  0  0
    4.2690   -4.3100    0.0000 H   0  0  0  0  0  0  0  0  0  0  0  0
    2.8660   -5.1200    0.0000 H   0  0  0  0  0  0  0  0  0  0  0  0
    6.5422    2.9174    0.0000 H   0  0  0  0  0  0  0  0  0  0  0  0
    6.9407    3.6077    0.0000 H   0  0  0  0  0  0  0  0  0  0  0  0
    6.9501    4.5000    0.0000 H   0  0  0  0  0  0  0  0  0  0  0  0
    6.3301    5.1200    0.0000 H   0  0  0  0  0  0  0  0  0  0  0  0
    5.7101    4.5000    0.0000 H   0  0  0  0  0  0  0  0  0  0  0  0
  1  7  1  0  0  0  0
  1 14  1  0  0  0  0
  2 15  1  0  0  0  0
  2 16  1  0  0  0  0
  3 14  2  0  0  0  0
  4 15  2  0  0  0  0
  5 10  1  0  0  0  0
  5 14  1  0  0  0  0
  5 24  1  0  0  0  0
  6  7  1  0  0  0  0
  6  8  2  0  0  0  0
  6  9  1  0  0  0  0
  7 18  1  0  0  0  0
  7 19  1  0  0  0  0
  8 11  1  0  0  0  0
  8 20  1  0  0  0  0
  9 12  2  0  0  0  0
  9 21  1  0  0  0  0
 10 15  1  0  0  0  0
 10 22  1  0  0  0  0
 10 23  1  0  0  0  0
 11 13  2  0  0  0  0
 11 25  1  0  0  0  0
 12 13  1  0  0  0  0
 12 26  1  0  0  0  0
 13 27  1  0  0  0  0
 16 17  1  0  0  0  0
 16 28  1  0  0  0  0
 16 29  1  0  0  0  0
 17 30  1  0  0  0  0
 17 31  1  0  0  0  0
 17 32  1  0  0  0  0
M  END
> <PUBCHEM_COMPOUND_CID>
14366

> <PUBCHEM_COMPOUND_CANONICALIZED>
1

> <PUBCHEM_CACTVS_COMPLEXITY>
249

> <PUBCHEM_CACTVS_HBOND_ACCEPTOR>
4

> <PUBCHEM_CACTVS_HBOND_DONOR>
1

> <PUBCHEM_CACTVS_ROTATABLE_BOND>
7

> <PUBCHEM_CACTVS_SUBSKEYS>
AAADccByOAAAAAAAAAAAAAAAAAAAAAAAAAAwAAAAAAAAAAABAAAAHgAQAAAADADhmAYyCILABACIAiDSGAACAAAgAAAIiICICIkKJiKAMTiLMAAkxgEYqAeAwCAOAAAAAAAAAAAAAAAAAAAAAAAAAAAAAA==

> <PUBCHEM_IUPAC_OPENEYE_NAME>
ethyl 2-(benzyloxycarbonylamino)acetate

> <PUBCHEM_IUPAC_CAS_NAME>
2-(phenylmethoxycarbonylamino)acetic acid ethyl ester

> <PUBCHEM_IUPAC_NAME>
ethyl 2-(phenylmethoxycarbonylamino)acetate

> <PUBCHEM_IUPAC_SYSTEMATIC_NAME>
ethyl 2-(phenylmethoxycarbonylamino)ethanoate

> <PUBCHEM_IUPAC_TRADITIONAL_NAME>
2-(benzyloxycarbonylamino)acetic acid ethyl ester

> <PUBCHEM_IUPAC_INCHI>
InChI=1S/C12H15NO4/c1-2-16-11(14)8-13-12(15)17-9-10-6-4-3-5-7-10/h3-7H,2,8-9H2,1H3,(H,13,15)

> <PUBCHEM_IUPAC_INCHIKEY>
HAIHOTOFCDNWDA-UHFFFAOYSA-N

> <PUBCHEM_XLOGP3_AA>
1.7

> <PUBCHEM_EXACT_MASS>
237.100108

> <PUBCHEM_MOLECULAR_FORMULA>
C12H15NO4

> <PUBCHEM_MOLECULAR_WEIGHT>
237.2518

> <PUBCHEM_OPENEYE_CAN_SMILES>
CCOC(=O)CNC(=O)OCC1=CC=CC=C1

> <PUBCHEM_OPENEYE_ISO_SMILES>
CCOC(=O)CNC(=O)OCC1=CC=CC=C1

> <PUBCHEM_CACTVS_TPSA>
64.6

> <PUBCHEM_MONOISOTOPIC_WEIGHT>
237.100108

> <PUBCHEM_TOTAL_CHARGE>
0

> <PUBCHEM_HEAVY_ATOM_COUNT>
17

> <PUBCHEM_ATOM_DEF_STEREO_COUNT>
0

> <PUBCHEM_ATOM_UDEF_STEREO_COUNT>
0

> <PUBCHEM_BOND_DEF_STEREO_COUNT>
0

> <PUBCHEM_BOND_UDEF_STEREO_COUNT>
0

> <PUBCHEM_ISOTOPIC_ATOM_COUNT>
0

> <PUBCHEM_COMPONENT_COUNT>
1

> <PUBCHEM_CACTVS_TAUTO_COUNT>
2

> <PUBCHEM_COORDINATE_TYPE>
1
5
255

> <PUBCHEM_BONDANNOTATIONS>
11  13  8
12  13  8
6  8  8
6  9  8
8  11  8
9  12  8

$$$$

