189003
  -OEChem-07051212522D

 18 18  0     0  0  0  0  0  0999 V2000
    4.2690    1.5000    0.0000 S   0  0  0  0  0  0  0  0  0  0  0  0
    4.2690    2.5000    0.0000 O   0  0  0  0  0  0  0  0  0  0  0  0
    2.5369   -1.5000    0.0000 O   0  0  0  0  0  0  0  0  0  0  0  0
    4.2690   -2.5000    0.0000 O   0  0  0  0  0  0  0  0  0  0  0  0
    5.2690    1.5000    0.0000 O   0  0  0  0  0  0  0  0  0  0  0  0
    3.2690    1.5000    0.0000 O   0  0  0  0  0  0  0  0  0  0  0  0
    4.2690    0.5000    0.0000 C   0  0  0  0  0  0  0  0  0  0  0  0
    3.4030    0.0000    0.0000 C   0  0  0  0  0  0  0  0  0  0  0  0
    5.1350    0.0000    0.0000 C   0  0  0  0  0  0  0  0  0  0  0  0
    3.4030   -1.0000    0.0000 C   0  0  0  0  0  0  0  0  0  0  0  0
    4.2690   -1.5000    0.0000 C   0  0  0  0  0  0  0  0  0  0  0  0
    5.1350   -1.0000    0.0000 C   0  0  0  0  0  0  0  0  0  0  0  0
    2.8660    0.3100    0.0000 H   0  0  0  0  0  0  0  0  0  0  0  0
    5.6720    0.3100    0.0000 H   0  0  0  0  0  0  0  0  0  0  0  0
    5.6720   -1.3100    0.0000 H   0  0  0  0  0  0  0  0  0  0  0  0
    4.8059    2.8100    0.0000 H   0  0  0  0  0  0  0  0  0  0  0  0
    2.0000   -1.1900    0.0000 H   0  0  0  0  0  0  0  0  0  0  0  0
    4.8059   -2.8100    0.0000 H   0  0  0  0  0  0  0  0  0  0  0  0
  1  2  1  0  0  0  0
  1  5  2  0  0  0  0
  1  6  2  0  0  0  0
  1  7  1  0  0  0  0
  2 16  1  0  0  0  0
  3 10  1  0  0  0  0
  3 17  1  0  0  0  0
  4 11  1  0  0  0  0
  4 18  1  0  0  0  0
  7  8  2  0  0  0  0
  7  9  1  0  0  0  0
  8 10  1  0  0  0  0
  8 13  1  0  0  0  0
  9 12  2  0  0  0  0
  9 14  1  0  0  0  0
 10 11  2  0  0  0  0
 11 12  1  0  0  0  0
 12 15  1  0  0  0  0
M  END
> <PUBCHEM_COMPOUND_CID>
189003

> <PUBCHEM_COMPOUND_CANONICALIZED>
1

> <PUBCHEM_CACTVS_COMPLEXITY>
241

> <PUBCHEM_CACTVS_HBOND_ACCEPTOR>
5

> <PUBCHEM_CACTVS_HBOND_DONOR>
3

> <PUBCHEM_CACTVS_ROTATABLE_BOND>
1

> <PUBCHEM_CACTVS_SUBSKEYS>
AAADcYBgOABAAAAAAAAAAAAAAAAAAAAAAAAwAAAAAAAAAAABAAAAGgQACAAACASA0AAwB4AAAoKAACBCAHBCAEAgIAAIiBgGiIgJJiKCERKAcAEkwBEJmAeAQAAAAIAABAAAQAABAAAIAACAAAAAAAAAAA==

> <PUBCHEM_IUPAC_OPENEYE_NAME>
3,4-dihydroxybenzenesulfonic acid

> <PUBCHEM_IUPAC_CAS_NAME>
3,4-dihydroxybenzenesulfonic acid

> <PUBCHEM_IUPAC_NAME>
3,4-dihydroxybenzenesulfonic acid

> <PUBCHEM_IUPAC_SYSTEMATIC_NAME>
3,4-bis(oxidanyl)benzenesulfonic acid

> <PUBCHEM_IUPAC_TRADITIONAL_NAME>
3,4-dihydroxybesylic acid

> <PUBCHEM_IUPAC_INCHI>
InChI=1S/C6H6O5S/c7-5-2-1-4(3-6(5)8)12(9,10)11/h1-3,7-8H,(H,9,10,11)

> <PUBCHEM_IUPAC_INCHIKEY>
LTPDITOEDOAWRU-UHFFFAOYSA-N

> <PUBCHEM_XLOGP3>
0.6

> <PUBCHEM_EXACT_MASS>
189.993594

> <PUBCHEM_MOLECULAR_FORMULA>
C6H6O5S

> <PUBCHEM_MOLECULAR_WEIGHT>
190.17384

> <PUBCHEM_OPENEYE_CAN_SMILES>
C1=CC(=C(C=C1S(=O)(=O)O)O)O

> <PUBCHEM_OPENEYE_ISO_SMILES>
C1=CC(=C(C=C1S(=O)(=O)O)O)O

> <PUBCHEM_CACTVS_TPSA>
103

> <PUBCHEM_MONOISOTOPIC_WEIGHT>
189.993594

> <PUBCHEM_TOTAL_CHARGE>
0

> <PUBCHEM_HEAVY_ATOM_COUNT>
12

> <PUBCHEM_ATOM_DEF_STEREO_COUNT>
0

> <PUBCHEM_ATOM_UDEF_STEREO_COUNT>
0

> <PUBCHEM_BOND_DEF_STEREO_COUNT>
0

> <PUBCHEM_BOND_UDEF_STEREO_COUNT>
0

> <PUBCHEM_ISOTOPIC_ATOM_COUNT>
0

> <PUBCHEM_COMPONENT_COUNT>
1

> <PUBCHEM_CACTVS_TAUTO_COUNT>
8

> <PUBCHEM_COORDINATE_TYPE>
1
5
255

> <PUBCHEM_BONDANNOTATIONS>
10  11  8
11  12  8
7  8  8
7  9  8
8  10  8
9  12  8

$$$$

