35703
  -OEChem-07051213013D

 24 25  0     0  0  0  0  0  0999 V2000
    3.0531   -0.1073    0.3846 O   0  0  0  0  0  0  0  0  0  0  0  0
   -1.5220    1.2681    0.1282 O   0  0  0  0  0  0  0  0  0  0  0  0
   -3.7172    1.9089    0.0016 O   0  0  0  0  0  0  0  0  0  0  0  0
   -0.9658   -1.0936   -0.0641 C   0  0  0  0  0  0  0  0  0  0  0  0
   -0.5684    0.2300    0.1051 C   0  0  0  0  0  0  0  0  0  0  0  0
    1.7374   -0.4249    0.2384 C   0  0  0  0  0  0  0  0  0  0  0  0
    0.7718    0.5793    0.2568 C   0  0  0  0  0  0  0  0  0  0  0  0
    0.0086   -2.0940   -0.0816 C   0  0  0  0  0  0  0  0  0  0  0  0
    1.3571   -1.7583    0.0695 C   0  0  0  0  0  0  0  0  0  0  0  0
   -2.3807   -1.3865   -0.2164 C   0  0  0  0  0  0  0  0  0  0  0  0
    3.4685    1.1724   -0.0900 C   0  0  0  0  0  0  0  0  0  0  0  0
   -3.2778   -0.3976   -0.1939 C   0  0  0  0  0  0  0  0  0  0  0  0
   -2.8816    1.0118   -0.0163 C   0  0  0  0  0  0  0  0  0  0  0  0
    4.9171    1.0917   -0.5220 C   0  0  0  0  0  0  0  0  0  0  0  0
    1.0217    1.6242    0.4117 H   0  0  0  0  0  0  0  0  0  0  0  0
   -0.2663   -3.1377   -0.2118 H   0  0  0  0  0  0  0  0  0  0  0  0
    2.1089   -2.5430    0.0545 H   0  0  0  0  0  0  0  0  0  0  0  0
   -2.6942   -2.4162   -0.3482 H   0  0  0  0  0  0  0  0  0  0  0  0
    2.8835    1.4947   -0.9605 H   0  0  0  0  0  0  0  0  0  0  0  0
    3.3625    1.9069    0.7159 H   0  0  0  0  0  0  0  0  0  0  0  0
   -4.3357   -0.6084   -0.3071 H   0  0  0  0  0  0  0  0  0  0  0  0
    5.2729    2.0609   -0.8828 H   0  0  0  0  0  0  0  0  0  0  0  0
    5.5507    0.7713    0.3116 H   0  0  0  0  0  0  0  0  0  0  0  0
    5.0414    0.3507   -1.3187 H   0  0  0  0  0  0  0  0  0  0  0  0
  1  6  1  0  0  0  0
  1 11  1  0  0  0  0
  2  5  1  0  0  0  0
  2 13  1  0  0  0  0
  3 13  2  0  0  0  0
  4  5  2  0  0  0  0
  4  8  1  0  0  0  0
  4 10  1  0  0  0  0
  5  7  1  0  0  0  0
  6  7  2  0  0  0  0
  6  9  1  0  0  0  0
  7 15  1  0  0  0  0
  8  9  2  0  0  0  0
  8 16  1  0  0  0  0
  9 17  1  0  0  0  0
 10 12  2  0  0  0  0
 10 18  1  0  0  0  0
 11 14  1  0  0  0  0
 11 19  1  0  0  0  0
 11 20  1  0  0  0  0
 12 13  1  0  0  0  0
 12 21  1  0  0  0  0
 14 22  1  0  0  0  0
 14 23  1  0  0  0  0
 14 24  1  0  0  0  0
M  END
> <PUBCHEM_COMPOUND_CID>
35703

> <PUBCHEM_CONFORMER_RMSD>
0.6

> <PUBCHEM_CONFORMER_DIVERSEORDER>
1
4
2
3

> <PUBCHEM_MMFF94_PARTIAL_CHARGES>
18
1 -0.36
10 -0.18
11 0.28
12 -0.14
13 0.71
15 0.15
16 0.15
17 0.15
18 0.15
2 -0.23
21 0.15
3 -0.57
4 0.03
5 0.08
6 0.08
7 -0.15
8 -0.15
9 -0.15

> <PUBCHEM_EFFECTIVE_ROTOR_COUNT>
2

> <PUBCHEM_PHARMACOPHORE_FEATURES>
4
1 1 acceptor
1 3 acceptor
6 2 4 5 10 12 13 rings
6 4 5 6 7 8 9 rings

> <PUBCHEM_HEAVY_ATOM_COUNT>
14

> <PUBCHEM_ATOM_DEF_STEREO_COUNT>
0

> <PUBCHEM_ATOM_UDEF_STEREO_COUNT>
0

> <PUBCHEM_BOND_DEF_STEREO_COUNT>
0

> <PUBCHEM_BOND_UDEF_STEREO_COUNT>
0

> <PUBCHEM_ISOTOPIC_ATOM_COUNT>
0

> <PUBCHEM_COMPONENT_COUNT>
1

> <PUBCHEM_CACTVS_TAUTO_COUNT>
1

> <PUBCHEM_CONFORMER_ID>
00008B7700000001

> <PUBCHEM_MMFF94_ENERGY>
46.8794

> <PUBCHEM_FEATURE_SELFOVERLAP>
20.325

> <PUBCHEM_SHAPE_FINGERPRINT>
10608611 8 18338802320145555521
11543360 7 15357991009841118440
12346645 44 18412827984152058714
12390115 104 18262216885621866561
12932764 1 17386018247048169579
13380535 21 18335415811478849571
13380535 76 18410859871107463378
14325111 11 18410295830184486354
14897335 6 18410016567131815799
15196674 1 18410575106159150822
15536298 74 18334576884486755598
15775835 57 18411417332055464784
16945 1 18262812752294230515
18186145 218 17603303713638731208
20510252 161 18261670372476203435
20645477 56 18263925441435448232
21501502 16 18338244863518869219
21524375 3 18413111649799545130
23366157 5 18058447776249879234
23402539 116 18261397728611844084
23402655 69 18189631586928460629
23463225 33 18341339997462221786
23559900 14 18114179714833638208
25 1 18408888464080804176
2748010 2 18336825398307665503
474 4 17561079151633995700
4990 188 17967525779630185092
5104073 3 18412265059857613866
7364860 26 18191306185586394454

> <PUBCHEM_SHAPE_MULTIPOLES>
270.51
7.13
2
0.64
5.43
0.33
0.01
-4.09
0.95
-0.77
0.05
0.13
0.01
-0.31

> <PUBCHEM_SHAPE_SELFOVERLAP>
578.83

> <PUBCHEM_SHAPE_VOLUME>
150.1

> <PUBCHEM_COORDINATE_TYPE>
2
5
10

$$$$

