5357349
  -OEChem-07051213102D

 18 17  0     0  0  0  0  0  0999 V2000
    2.5369    0.2500    0.0000 O   0  0  0  0  0  0  0  0  0  0  0  0
    3.4030    0.7500    0.0000 N   0  0  0  0  0  0  0  0  0  0  0  0
    6.0010    0.2500    0.0000 C   0  0  0  0  0  0  0  0  0  0  0  0
    5.1350    0.7500    0.0000 C   0  0  0  0  0  0  0  0  0  0  0  0
    6.8671    0.7500    0.0000 C   0  0  0  0  0  0  0  0  0  0  0  0
    6.0010   -0.7500    0.0000 C   0  0  0  0  0  0  0  0  0  0  0  0
    4.2690    0.2500    0.0000 C   0  0  0  0  0  0  0  0  0  0  0  0
    6.5380   -0.0600    0.0000 H   0  0  0  0  0  0  0  0  0  0  0  0
    5.5335    1.2250    0.0000 H   0  0  0  0  0  0  0  0  0  0  0  0
    4.7365    1.2250    0.0000 H   0  0  0  0  0  0  0  0  0  0  0  0
    7.1771    0.2131    0.0000 H   0  0  0  0  0  0  0  0  0  0  0  0
    7.4040    1.0600    0.0000 H   0  0  0  0  0  0  0  0  0  0  0  0
    6.5571    1.2869    0.0000 H   0  0  0  0  0  0  0  0  0  0  0  0
    5.3810   -0.7500    0.0000 H   0  0  0  0  0  0  0  0  0  0  0  0
    6.0010   -1.3700    0.0000 H   0  0  0  0  0  0  0  0  0  0  0  0
    6.6210   -0.7500    0.0000 H   0  0  0  0  0  0  0  0  0  0  0  0
    4.2690   -0.3700    0.0000 H   0  0  0  0  0  0  0  0  0  0  0  0
    2.0000    0.5600    0.0000 H   0  0  0  0  0  0  0  0  0  0  0  0
  1  2  1  0  0  0  0
  1 18  1  0  0  0  0
  2  7  2  0  0  0  0
  3  4  1  0  0  0  0
  3  5  1  0  0  0  0
  3  6  1  0  0  0  0
  3  8  1  0  0  0  0
  4  7  1  0  0  0  0
  4  9  1  0  0  0  0
  4 10  1  0  0  0  0
  5 11  1  0  0  0  0
  5 12  1  0  0  0  0
  5 13  1  0  0  0  0
  6 14  1  0  0  0  0
  6 15  1  0  0  0  0
  6 16  1  0  0  0  0
  7 17  1  0  0  0  0
M  END
> <PUBCHEM_COMPOUND_CID>
5357349

> <PUBCHEM_COMPOUND_CANONICALIZED>
1

> <PUBCHEM_CACTVS_COMPLEXITY>
59.1

> <PUBCHEM_CACTVS_HBOND_ACCEPTOR>
2

> <PUBCHEM_CACTVS_HBOND_DONOR>
1

> <PUBCHEM_CACTVS_ROTATABLE_BOND>
2

> <PUBCHEM_CACTVS_SUBSKEYS>
AAADccBiIAAAAAAAAAAAAAAAAAAAAAAAAAAAAAAAAAAAAAAAAAAAHAAECAAADQDBAAQCAAAQAAAgABAhAAAAAAAAAAAAAAAwAAAAAAAAAAAAAAAAAAAAAAAAAAAIAAAAAAAAAAAAAAAAAAAAAAAAAAAAAA==

> <PUBCHEM_IUPAC_OPENEYE_NAME>
(1E)-3-methylbutanal oxime

> <PUBCHEM_IUPAC_CAS_NAME>
(1E)-3-methylbutanal oxime

> <PUBCHEM_IUPAC_NAME>
(NE)-N-(3-methylbutylidene)hydroxylamine

> <PUBCHEM_IUPAC_SYSTEMATIC_NAME>
(NE)-N-(3-methylbutylidene)hydroxylamine

> <PUBCHEM_IUPAC_TRADITIONAL_NAME>
(1E)-3-methylbutyraldoxime

> <PUBCHEM_IUPAC_INCHI>
InChI=1S/C5H11NO/c1-5(2)3-4-6-7/h4-5,7H,3H2,1-2H3/b6-4+

> <PUBCHEM_IUPAC_INCHIKEY>
JAUPRNSQRRCCRR-GQCTYLIASA-N

> <PUBCHEM_XLOGP3_AA>
1.2

> <PUBCHEM_EXACT_MASS>
101.084064

> <PUBCHEM_MOLECULAR_FORMULA>
C5H11NO

> <PUBCHEM_MOLECULAR_WEIGHT>
101.14694

> <PUBCHEM_OPENEYE_CAN_SMILES>
CC(C)CC=NO

> <PUBCHEM_OPENEYE_ISO_SMILES>
CC(C)C/C=N/O

> <PUBCHEM_CACTVS_TPSA>
32.6

> <PUBCHEM_MONOISOTOPIC_WEIGHT>
101.084064

> <PUBCHEM_TOTAL_CHARGE>
0

> <PUBCHEM_HEAVY_ATOM_COUNT>
7

> <PUBCHEM_ATOM_DEF_STEREO_COUNT>
0

> <PUBCHEM_ATOM_UDEF_STEREO_COUNT>
0

> <PUBCHEM_BOND_DEF_STEREO_COUNT>
1

> <PUBCHEM_BOND_UDEF_STEREO_COUNT>
0

> <PUBCHEM_ISOTOPIC_ATOM_COUNT>
0

> <PUBCHEM_COMPONENT_COUNT>
1

> <PUBCHEM_CACTVS_TAUTO_COUNT>
3

> <PUBCHEM_COORDINATE_TYPE>
1
5
255

$$$$

