17396339
  -OEChem-06241222562D

 37 39  0     0  0  0  0  0  0999 V2000
    5.0768   -2.7425    0.0000 S   0  0  0  0  0  0  0  0  0  0  0  0
    7.0255   -0.0401    0.0000 O   0  0  0  0  0  0  0  0  0  0  0  0
    8.7576   -0.0401    0.0000 O   0  0  0  0  0  0  0  0  0  0  0  0
    3.4013   -3.4946    0.0000 O   0  0  0  0  0  0  0  0  0  0  0  0
    5.2460   -1.1334    0.0000 N   0  0  0  0  0  0  0  0  0  0  0  0
    3.5823   -1.7720    0.0000 N   0  0  0  0  0  0  0  0  0  0  0  0
    8.7576    1.9599    0.0000 C   0  0  0  0  0  0  0  0  0  0  0  0
    8.7576    2.9599    0.0000 C   0  0  0  0  0  0  0  0  0  0  0  0
    7.8916    1.4599    0.0000 C   0  0  0  0  0  0  0  0  0  0  0  0
    9.6515    1.4252    0.0000 C   0  0  0  0  0  0  0  0  0  0  0  0
    7.8916    3.4599    0.0000 C   0  0  0  0  0  0  0  0  0  0  0  0
    7.0255    1.9599    0.0000 C   0  0  0  0  0  0  0  0  0  0  0  0
    9.6515    3.4946    0.0000 C   0  0  0  0  0  0  0  0  0  0  0  0
    7.0255    2.9599    0.0000 C   0  0  0  0  0  0  0  0  0  0  0  0
    7.8916    0.4599    0.0000 C   0  0  0  0  0  0  0  0  0  0  0  0
    7.0255   -1.0401    0.0000 C   0  0  0  0  0  0  0  0  0  0  0  0
   10.5576    1.9391    0.0000 C   0  0  0  0  0  0  0  0  0  0  0  0
   10.5576    2.9807    0.0000 C   0  0  0  0  0  0  0  0  0  0  0  0
    6.1595   -1.5401    0.0000 C   0  0  0  0  0  0  0  0  0  0  0  0
    6.0550   -2.5346    0.0000 C   0  0  0  0  0  0  0  0  0  0  0  0
    4.5768   -1.8765    0.0000 C   0  0  0  0  0  0  0  0  0  0  0  0
    2.9945   -2.5810    0.0000 C   0  0  0  0  0  0  0  0  0  0  0  0
    2.0000   -2.4765    0.0000 C   0  0  0  0  0  0  0  0  0  0  0  0
    9.6444    0.8053    0.0000 H   0  0  0  0  0  0  0  0  0  0  0  0
    7.8916    4.0799    0.0000 H   0  0  0  0  0  0  0  0  0  0  0  0
    6.4886    1.6499    0.0000 H   0  0  0  0  0  0  0  0  0  0  0  0
    9.6444    4.1145    0.0000 H   0  0  0  0  0  0  0  0  0  0  0  0
    6.4886    3.2699    0.0000 H   0  0  0  0  0  0  0  0  0  0  0  0
    7.2376   -1.6227    0.0000 H   0  0  0  0  0  0  0  0  0  0  0  0
    7.6361   -0.9324    0.0000 H   0  0  0  0  0  0  0  0  0  0  0  0
   11.0933    1.6270    0.0000 H   0  0  0  0  0  0  0  0  0  0  0  0
   11.0933    3.2928    0.0000 H   0  0  0  0  0  0  0  0  0  0  0  0
    6.5157   -2.9495    0.0000 H   0  0  0  0  0  0  0  0  0  0  0  0
    3.3301   -1.2056    0.0000 H   0  0  0  0  0  0  0  0  0  0  0  0
    2.0648   -1.8599    0.0000 H   0  0  0  0  0  0  0  0  0  0  0  0
    1.3834   -2.4117    0.0000 H   0  0  0  0  0  0  0  0  0  0  0  0
    1.9352   -3.0931    0.0000 H   0  0  0  0  0  0  0  0  0  0  0  0
  1 20  1  0  0  0  0
  1 21  1  0  0  0  0
  2 15  1  0  0  0  0
  2 16  1  0  0  0  0
  3 15  2  0  0  0  0
  4 22  2  0  0  0  0
  5 19  1  0  0  0  0
  5 21  2  0  0  0  0
  6 21  1  0  0  0  0
  6 22  1  0  0  0  0
  6 34  1  0  0  0  0
  7  8  1  0  0  0  0
  7  9  1  0  0  0  0
  7 10  2  0  0  0  0
  8 11  1  0  0  0  0
  8 13  2  0  0  0  0
  9 12  2  0  0  0  0
  9 15  1  0  0  0  0
 10 17  1  0  0  0  0
 10 24  1  0  0  0  0
 11 14  2  0  0  0  0
 11 25  1  0  0  0  0
 12 14  1  0  0  0  0
 12 26  1  0  0  0  0
 13 18  1  0  0  0  0
 13 27  1  0  0  0  0
 14 28  1  0  0  0  0
 16 19  1  0  0  0  0
 16 29  1  0  0  0  0
 16 30  1  0  0  0  0
 17 18  2  0  0  0  0
 17 31  1  0  0  0  0
 18 32  1  0  0  0  0
 19 20  2  0  0  0  0
 20 33  1  0  0  0  0
 22 23  1  0  0  0  0
 23 35  1  0  0  0  0
 23 36  1  0  0  0  0
 23 37  1  0  0  0  0
M  END
> <PUBCHEM_COMPOUND_CID>
17396339

> <PUBCHEM_COMPOUND_CANONICALIZED>
1

> <PUBCHEM_CACTVS_COMPLEXITY>
446

> <PUBCHEM_CACTVS_HBOND_ACCEPTOR>
5

> <PUBCHEM_CACTVS_HBOND_DONOR>
1

> <PUBCHEM_CACTVS_ROTATABLE_BOND>
5

> <PUBCHEM_CACTVS_SUBSKEYS>
AAADccB7MABAAAAAAAAAAAAAAAAAAWAAAAAwYAAAAAAAAADB1AAAHgQQAAAADAil3gKzmdLIFAisAyXyfAQC8KllCjkJiBUQKMiKJjKgPRiDMQAs0QMYqaeIyOCOgAACAAAQAAAAAAQAACAAAAAAAAAAAA==

> <PUBCHEM_IUPAC_OPENEYE_NAME>
(2-acetamidothiazol-4-yl)methyl naphthalene-1-carboxylate

> <PUBCHEM_IUPAC_CAS_NAME>
1-naphthalenecarboxylic acid (2-acetamido-4-thiazolyl)methyl ester

> <PUBCHEM_IUPAC_NAME>
(2-acetamido-1,3-thiazol-4-yl)methyl naphthalene-1-carboxylate

> <PUBCHEM_IUPAC_SYSTEMATIC_NAME>
(2-acetamido-1,3-thiazol-4-yl)methyl naphthalene-1-carboxylate

> <PUBCHEM_IUPAC_TRADITIONAL_NAME>
naphthalene-1-carboxylic acid (2-acetamidothiazol-4-yl)methyl ester

> <PUBCHEM_IUPAC_INCHI>
InChI=1S/C17H14N2O3S/c1-11(20)18-17-19-13(10-23-17)9-22-16(21)15-8-4-6-12-5-2-3-7-14(12)15/h2-8,10H,9H2,1H3,(H,18,19,20)

> <PUBCHEM_IUPAC_INCHIKEY>
FXZKOXVZLCUIHL-UHFFFAOYSA-N

> <PUBCHEM_XLOGP3_AA>
3.1

> <PUBCHEM_EXACT_MASS>
326.072513

> <PUBCHEM_MOLECULAR_FORMULA>
C17H14N2O3S

> <PUBCHEM_MOLECULAR_WEIGHT>
326.36966

> <PUBCHEM_OPENEYE_CAN_SMILES>
CC(=O)NC1=NC(=CS1)COC(=O)C2=CC=CC3=CC=CC=C32

> <PUBCHEM_OPENEYE_ISO_SMILES>
CC(=O)NC1=NC(=CS1)COC(=O)C2=CC=CC3=CC=CC=C32

> <PUBCHEM_CACTVS_TPSA>
96.5

> <PUBCHEM_MONOISOTOPIC_WEIGHT>
326.072513

> <PUBCHEM_TOTAL_CHARGE>
0

> <PUBCHEM_HEAVY_ATOM_COUNT>
23

> <PUBCHEM_ATOM_DEF_STEREO_COUNT>
0

> <PUBCHEM_ATOM_UDEF_STEREO_COUNT>
0

> <PUBCHEM_BOND_DEF_STEREO_COUNT>
0

> <PUBCHEM_BOND_UDEF_STEREO_COUNT>
0

> <PUBCHEM_ISOTOPIC_ATOM_COUNT>
0

> <PUBCHEM_COMPONENT_COUNT>
1

> <PUBCHEM_CACTVS_TAUTO_COUNT>
5

> <PUBCHEM_COORDINATE_TYPE>
1
5
255

> <PUBCHEM_BONDANNOTATIONS>
1  20  8
1  21  8
10  17  8
11  14  8
12  14  8
13  18  8
17  18  8
19  20  8
5  19  8
5  21  8
7  10  8
7  8  8
7  9  8
8  11  8
8  13  8
9  12  8

$$$$

