46173804
  -OEChem-07051213072D

 33 34  0     1  0  0  0  0  0999 V2000
    7.7953   -1.6660    0.0000 O   0  0  0  0  0  0  0  0  0  0  0  0
    5.1350   -1.1419    0.0000 O   0  0  0  0  0  0  0  0  0  0  0  0
    9.5312   -0.6727    0.0000 O   0  0  0  0  0  0  0  0  0  0  0  0
    3.7691   -1.5080    0.0000 O   0  0  0  0  0  0  0  0  0  0  0  0
    6.0290   -0.6766    0.0000 N   0  0  0  0  0  0  0  0  0  0  0  0
    6.0290    1.3928    0.0000 N   0  0  0  0  0  0  0  0  0  0  0  0
    4.2690    1.3581    0.0000 N   0  0  0  0  0  0  0  0  0  0  0  0
    3.4030   -0.1419    0.0000 N   0  0  0  0  0  0  0  0  0  0  0  0
    2.5369    1.3581    0.0000 N   0  0  0  0  0  0  0  0  0  0  0  0
    6.9350   -0.1627    0.0000 C   0  0  1  0  0  0  0  0  0  0  0  0
    7.7991   -0.6660    0.0000 C   0  0  2  0  0  0  0  0  0  0  0  0
    5.1350   -0.1419    0.0000 C   0  0  1  0  0  0  0  0  0  0  0  0
    6.9350    0.8789    0.0000 C   0  0  0  0  0  0  0  0  0  0  0  0
    8.6671   -0.1694    0.0000 C   0  0  2  0  0  0  0  0  0  0  0  0
    5.1350    0.8581    0.0000 C   0  0  0  0  0  0  0  0  0  0  0  0
    4.2690   -0.6419    0.0000 C   0  0  0  0  0  0  0  0  0  0  0  0
    8.6709    0.8306    0.0000 C   0  0  0  0  0  0  0  0  0  0  0  0
    3.4030    0.8581    0.0000 C   0  0  0  0  0  0  0  0  0  0  0  0
    6.9301   -1.0127    0.0000 H   0  0  0  0  0  0  0  0  0  0  0  0
    7.2610   -0.9740    0.0000 H   0  0  0  0  0  0  0  0  0  0  0  0
    6.0218   -1.2965    0.0000 H   0  0  0  0  0  0  0  0  0  0  0  0
    7.5459    0.7728    0.0000 H   0  0  0  0  0  0  0  0  0  0  0  0
    7.1441    1.4626    0.0000 H   0  0  0  0  0  0  0  0  0  0  0  0
    8.6647   -0.7894    0.0000 H   0  0  0  0  0  0  0  0  0  0  0  0
    4.2690    1.9781    0.0000 H   0  0  0  0  0  0  0  0  0  0  0  0
    9.2909    0.8282    0.0000 H   0  0  0  0  0  0  0  0  0  0  0  0
    8.6733    1.4506    0.0000 H   0  0  0  0  0  0  0  0  0  0  0  0
    8.0509    0.8330    0.0000 H   0  0  0  0  0  0  0  0  0  0  0  0
    8.3310   -1.9781    0.0000 H   0  0  0  0  0  0  0  0  0  0  0  0
    4.8250   -1.6788    0.0000 H   0  0  0  0  0  0  0  0  0  0  0  0
   10.0693   -0.3648    0.0000 H   0  0  0  0  0  0  0  0  0  0  0  0
    2.0000    1.0481    0.0000 H   0  0  0  0  0  0  0  0  0  0  0  0
    2.5369    1.9781    0.0000 H   0  0  0  0  0  0  0  0  0  0  0  0
 11  1  1  6  0  0  0
  1 29  1  0  0  0  0
 12  2  1  6  0  0  0
  2 30  1  0  0  0  0
 14  3  1  6  0  0  0
  3 31  1  0  0  0  0
  4 16  2  0  0  0  0
  5 10  1  0  0  0  0
  5 12  1  0  0  0  0
  5 21  1  0  0  0  0
  6 13  1  0  0  0  0
  6 15  2  0  0  0  0
  7 15  1  0  0  0  0
  7 18  1  0  0  0  0
  7 25  1  0  0  0  0
  8 16  1  0  0  0  0
  8 18  2  0  0  0  0
  9 18  1  0  0  0  0
  9 32  1  0  0  0  0
  9 33  1  0  0  0  0
 10 11  1  0  0  0  0
 10 13  1  0  0  0  0
 10 19  1  1  0  0  0
 11 14  1  0  0  0  0
 11 20  1  0  0  0  0
 12 15  1  0  0  0  0
 12 16  1  0  0  0  0
 13 22  1  0  0  0  0
 13 23  1  0  0  0  0
 14 17  1  0  0  0  0
 14 24  1  0  0  0  0
 17 26  1  0  0  0  0
 17 27  1  0  0  0  0
 17 28  1  0  0  0  0
M  END
> <PUBCHEM_COMPOUND_CID>
46173804

> <PUBCHEM_COMPOUND_CANONICALIZED>
1

> <PUBCHEM_CACTVS_COMPLEXITY>
437

> <PUBCHEM_CACTVS_HBOND_ACCEPTOR>
6

> <PUBCHEM_CACTVS_HBOND_DONOR>
6

> <PUBCHEM_CACTVS_ROTATABLE_BOND>
2

> <PUBCHEM_CACTVS_SUBSKEYS>
AAADccBzuAAAAAAAAAAAAAAAAAAAAAAAAAAgQAAAAAAAAACAAAAAHgAQCAAACDzhgAYDAALAAgAoAAMwNAYAAAEAAAABAIHoAAGDUAoAyCAUQAAGEAKRAAAwAAAAAAAAAAAAAAAAAAAAAAAAAAAAAAAAAA==

> <PUBCHEM_IUPAC_OPENEYE_NAME>
(4aS,6R)-2-amino-6-[(1R,2S)-1,2-dihydroxypropyl]-4a-hydroxy-1,5,6,7-tetrahydropteridin-4-one

> <PUBCHEM_IUPAC_CAS_NAME>
(4aS,6R)-2-amino-6-[(1R,2S)-1,2-dihydroxypropyl]-4a-hydroxy-1,5,6,7-tetrahydropteridin-4-one

> <PUBCHEM_IUPAC_NAME>
(4aS,6R)-2-amino-6-[(1R,2S)-1,2-dihydroxypropyl]-4a-hydroxy-1,5,6,7-tetrahydropteridin-4-one

> <PUBCHEM_IUPAC_SYSTEMATIC_NAME>
(4aS,6R)-2-azanyl-6-[(1R,2S)-1,2-bis(oxidanyl)propyl]-4a-oxidanyl-1,5,6,7-tetrahydropteridin-4-one

> <PUBCHEM_IUPAC_TRADITIONAL_NAME>
(4aS,6R)-2-amino-6-[(1R,2S)-1,2-dihydroxypropyl]-4a-hydroxy-1,5,6,7-tetrahydropteridin-4-one

> <PUBCHEM_IUPAC_INCHI>
InChI=1S/C9H15N5O4/c1-3(15)5(16)4-2-11-6-9(18,14-4)7(17)13-8(10)12-6/h3-5,14-16,18H,2H2,1H3,(H3,10,11,12,13,17)/t3-,4+,5-,9-/m0/s1

> <PUBCHEM_IUPAC_INCHIKEY>
KJKIEFUPAPPGBC-XXKOCQOQSA-N

> <PUBCHEM_XLOGP3_AA>
-3.7

> <PUBCHEM_EXACT_MASS>
257.112404

> <PUBCHEM_MOLECULAR_FORMULA>
C9H15N5O4

> <PUBCHEM_MOLECULAR_WEIGHT>
257.2465

> <PUBCHEM_OPENEYE_CAN_SMILES>
CC(C(C1CN=C2C(N1)(C(=O)N=C(N2)N)O)O)O

> <PUBCHEM_OPENEYE_ISO_SMILES>
C[C@@H]([C@@H]([C@H]1CN=C2[C@@](N1)(C(=O)N=C(N2)N)O)O)O

> <PUBCHEM_CACTVS_TPSA>
153

> <PUBCHEM_MONOISOTOPIC_WEIGHT>
257.112404

> <PUBCHEM_TOTAL_CHARGE>
0

> <PUBCHEM_HEAVY_ATOM_COUNT>
18

> <PUBCHEM_ATOM_DEF_STEREO_COUNT>
4

> <PUBCHEM_ATOM_UDEF_STEREO_COUNT>
0

> <PUBCHEM_BOND_DEF_STEREO_COUNT>
0

> <PUBCHEM_BOND_UDEF_STEREO_COUNT>
0

> <PUBCHEM_ISOTOPIC_ATOM_COUNT>
0

> <PUBCHEM_COMPONENT_COUNT>
1

> <PUBCHEM_CACTVS_TAUTO_COUNT>
8

> <PUBCHEM_COORDINATE_TYPE>
1
5
255

> <PUBCHEM_BONDANNOTATIONS>
11  1  6
10  19  5
12  2  6
14  3  6

$$$$

