441316
  -OEChem-07051212543D

 25 27  0     0  0  0  0  0  0999 V2000
   -1.3326   -2.2538   -0.0001 O   0  0  0  0  0  0  0  0  0  0  0  0
   -3.8648   -1.1559    0.0004 O   0  0  0  0  0  0  0  0  0  0  0  0
    0.7468    2.0725    0.0001 C   0  0  0  0  0  0  0  0  0  0  0  0
   -0.5870    1.3553   -0.0001 C   0  0  0  0  0  0  0  0  0  0  0  0
   -0.3958   -0.0448   -0.0002 C   0  0  0  0  0  0  0  0  0  0  0  0
    1.7208    0.9129   -0.0001 C   0  0  0  0  0  0  0  0  0  0  0  0
    1.0254   -0.3172   -0.0002 C   0  0  0  0  0  0  0  0  0  0  0  0
   -1.4825   -0.9032   -0.0001 C   0  0  0  0  0  0  0  0  0  0  0  0
   -1.8540    1.9120    0.0001 C   0  0  0  0  0  0  0  0  0  0  0  0
    3.1038    0.9617    0.0000 C   0  0  0  0  0  0  0  0  0  0  0  0
    1.7177   -1.5167   -0.0001 C   0  0  0  0  0  0  0  0  0  0  0  0
   -2.7654   -0.3472   -0.0001 C   0  0  0  0  0  0  0  0  0  0  0  0
   -2.9492    1.0464    0.0001 C   0  0  0  0  0  0  0  0  0  0  0  0
    3.8013   -0.2475    0.0002 C   0  0  0  0  0  0  0  0  0  0  0  0
    3.1152   -1.4744    0.0002 C   0  0  0  0  0  0  0  0  0  0  0  0
    0.8624    2.6755    0.9053 H   0  0  0  0  0  0  0  0  0  0  0  0
    0.8624    2.6758   -0.9050 H   0  0  0  0  0  0  0  0  0  0  0  0
   -1.9972    2.9868    0.0003 H   0  0  0  0  0  0  0  0  0  0  0  0
    3.6345    1.9073    0.0004 H   0  0  0  0  0  0  0  0  0  0  0  0
    1.2319   -2.4834    0.0189 H   0  0  0  0  0  0  0  0  0  0  0  0
   -3.9548    1.4600    0.0002 H   0  0  0  0  0  0  0  0  0  0  0  0
    4.8882   -0.2424    0.0015 H   0  0  0  0  0  0  0  0  0  0  0  0
    3.6812   -2.4024    0.0048 H   0  0  0  0  0  0  0  0  0  0  0  0
   -0.6381   -2.4779   -0.6406 H   0  0  0  0  0  0  0  0  0  0  0  0
   -3.5634   -2.0811   -0.0001 H   0  0  0  0  0  0  0  0  0  0  0  0
  1  8  1  0  0  0  0
  1 24  1  0  0  0  0
  2 12  1  0  0  0  0
  2 25  1  0  0  0  0
  3  4  1  0  0  0  0
  3  6  1  0  0  0  0
  3 16  1  0  0  0  0
  3 17  1  0  0  0  0
  4  5  2  0  0  0  0
  4  9  1  0  0  0  0
  5  7  1  0  0  0  0
  5  8  1  0  0  0  0
  6  7  1  0  0  0  0
  6 10  2  0  0  0  0
  7 11  2  0  0  0  0
  8 12  2  0  0  0  0
  9 13  2  0  0  0  0
  9 18  1  0  0  0  0
 10 14  1  0  0  0  0
 10 19  1  0  0  0  0
 11 15  1  0  0  0  0
 11 20  1  0  0  0  0
 12 13  1  0  0  0  0
 13 21  1  0  0  0  0
 14 15  2  0  0  0  0
 14 22  1  0  0  0  0
 15 23  1  0  0  0  0
M  END
> <PUBCHEM_COMPOUND_CID>
441316

> <PUBCHEM_CONFORMER_RMSD>
0.4

> <PUBCHEM_CONFORMER_DIVERSEORDER>
1

> <PUBCHEM_MMFF94_PARTIAL_CHARGES>
21
1 -0.53
10 -0.15
11 -0.15
12 0.08
13 -0.15
14 -0.15
15 -0.15
18 0.15
19 0.15
2 -0.53
20 0.15
21 0.15
22 0.15
23 0.15
24 0.45
25 0.45
3 0.29
4 -0.14
6 -0.14
8 0.08
9 -0.15

> <PUBCHEM_EFFECTIVE_ROTOR_COUNT>
0.2

> <PUBCHEM_PHARMACOPHORE_FEATURES>
5
1 1 donor
1 2 donor
5 3 4 5 6 7 rings
6 4 5 8 9 12 13 rings
6 6 7 10 11 14 15 rings

> <PUBCHEM_HEAVY_ATOM_COUNT>
15

> <PUBCHEM_ATOM_DEF_STEREO_COUNT>
0

> <PUBCHEM_ATOM_UDEF_STEREO_COUNT>
0

> <PUBCHEM_BOND_DEF_STEREO_COUNT>
0

> <PUBCHEM_BOND_UDEF_STEREO_COUNT>
0

> <PUBCHEM_ISOTOPIC_ATOM_COUNT>
0

> <PUBCHEM_COMPONENT_COUNT>
1

> <PUBCHEM_CACTVS_TAUTO_COUNT>
18

> <PUBCHEM_CONFORMER_ID>
0006BBE400000001

> <PUBCHEM_MMFF94_ENERGY>
52.7961

> <PUBCHEM_FEATURE_SELFOVERLAP>
25.541

> <PUBCHEM_SHAPE_FINGERPRINT>
10608611 8 18410016554479412264
10967382 1 18338517413373761924
11132069 177 18410300241469450752
11471102 20 18411142407104256285
11769659 78 18411704313280397728
11806522 49 18339645538073793887
12032990 46 18410288129424240574
12382932 28 18336548317124339520
13140716 1 17977948981788071352
13221675 6 18410575071815223726
13296908 3 18409729599087105918
13380535 76 18336830882880532790
14115302 16 17917140602967777095
14144814 61 18410293631271981176
14325111 11 18410574023917225412
14790565 3 16037717594194685957
15196674 1 18410856576851333252
15375462 189 18130223882056299842
15442244 35 18194683889559210922
15536298 74 18334295379434418960
16945 1 18338516335279201701
17804303 29 18335136531509800612
193761 8 17834114143444436900
200 152 18041009431691117341
20201158 50 18412263921696645186
20510252 161 18260547861293587953
20871998 184 18187366557892641719
21267235 1 18410846668562585742
21501502 16 18410571812056495264
21501925 9 18411428306050223656
22721475 48 18411132524194623448
2334 1 18410575131913104357
23402539 116 18335432278240862527
23463225 33 18412262869703834340
23552423 10 18271241625538595628
23559900 14 18118972636058242866
238 59 4874118424793416694
2748010 2 18338517572234876005
3312278 4 18409727395769000080
335352 9 17978228588628107548
5104073 3 18410575110686188712
528886 8 18410298033850855920
69090 78 18336271223061691423
7364860 26 18263926531930159280
8809292 202 18272084942325162322
9709674 26 18409443696020725390

> <PUBCHEM_SHAPE_MULTIPOLES>
296.95
5.85
2.17
0.6
0.51
0.01
0
-1.17
0
-0.39
0
0.03
0.02
0

> <PUBCHEM_SHAPE_SELFOVERLAP>
672.396

> <PUBCHEM_SHAPE_VOLUME>
157.6

> <PUBCHEM_COORDINATE_TYPE>
2
5
10

$$$$

