443195
  -OEChem-07051213013D

 21 22  0     0  0  0  0  0  0999 V2000
   -0.9685   -2.2301    0.0003 O   0  0  0  0  0  0  0  0  0  0  0  0
   -4.0505    0.3803    0.0007 O   0  0  0  0  0  0  0  0  0  0  0  0
    0.6707   -0.4678   -0.0002 C   0  0  0  0  0  0  0  0  0  0  0  0
    0.9533    0.9189    0.0000 C   0  0  0  0  0  0  0  0  0  0  0  0
   -0.6668   -0.8962   -0.0004 C   0  0  0  0  0  0  0  0  0  0  0  0
   -1.7106    0.0295   -0.0004 C   0  0  0  0  0  0  0  0  0  0  0  0
   -0.1099    1.8365    0.0000 C   0  0  0  0  0  0  0  0  0  0  0  0
    1.7340   -1.3854   -0.0001 C   0  0  0  0  0  0  0  0  0  0  0  0
    2.2908    1.3472    0.0002 C   0  0  0  0  0  0  0  0  0  0  0  0
   -1.4328    1.3932   -0.0002 C   0  0  0  0  0  0  0  0  0  0  0  0
    3.0568   -0.9420    0.0001 C   0  0  0  0  0  0  0  0  0  0  0  0
    3.3347    0.4217    0.0002 C   0  0  0  0  0  0  0  0  0  0  0  0
   -3.1010   -0.4058   -0.0001 C   0  0  0  0  0  0  0  0  0  0  0  0
    0.0842    2.9071    0.0001 H   0  0  0  0  0  0  0  0  0  0  0  0
    1.5770   -2.4601   -0.0173 H   0  0  0  0  0  0  0  0  0  0  0  0
    2.5315    2.4084    0.0001 H   0  0  0  0  0  0  0  0  0  0  0  0
   -2.2280    2.1342   -0.0002 H   0  0  0  0  0  0  0  0  0  0  0  0
    3.8704   -1.6615   -0.0037 H   0  0  0  0  0  0  0  0  0  0  0  0
    4.3647    0.7661   -0.0007 H   0  0  0  0  0  0  0  0  0  0  0  0
   -3.2940   -1.4911   -0.0005 H   0  0  0  0  0  0  0  0  0  0  0  0
   -0.2897   -2.7247    0.4857 H   0  0  0  0  0  0  0  0  0  0  0  0
  1  5  1  0  0  0  0
  1 21  1  0  0  0  0
  2 13  2  0  0  0  0
  3  4  1  0  0  0  0
  3  5  1  0  0  0  0
  3  8  2  0  0  0  0
  4  7  1  0  0  0  0
  4  9  2  0  0  0  0
  5  6  2  0  0  0  0
  6 10  1  0  0  0  0
  6 13  1  0  0  0  0
  7 10  2  0  0  0  0
  7 14  1  0  0  0  0
  8 11  1  0  0  0  0
  8 15  1  0  0  0  0
  9 12  1  0  0  0  0
  9 16  1  0  0  0  0
 10 17  1  0  0  0  0
 11 12  2  0  0  0  0
 11 18  1  0  0  0  0
 12 19  1  0  0  0  0
 13 20  1  0  0  0  0
M  END
> <PUBCHEM_COMPOUND_CID>
443195

> <PUBCHEM_CONFORMER_RMSD>
0.4

> <PUBCHEM_CONFORMER_DIVERSEORDER>
1
2

> <PUBCHEM_MMFF94_PARTIAL_CHARGES>
19
1 -0.53
10 -0.15
11 -0.15
12 -0.15
13 0.42
14 0.15
15 0.15
16 0.15
17 0.15
18 0.15
19 0.15
2 -0.57
20 0.06
21 0.45
5 0.08
6 0.09
7 -0.15
8 -0.15
9 -0.15

> <PUBCHEM_EFFECTIVE_ROTOR_COUNT>
1

> <PUBCHEM_PHARMACOPHORE_FEATURES>
4
1 1 donor
1 2 acceptor
6 3 4 5 6 7 10 rings
6 3 4 8 9 11 12 rings

> <PUBCHEM_HEAVY_ATOM_COUNT>
13

> <PUBCHEM_ATOM_DEF_STEREO_COUNT>
0

> <PUBCHEM_ATOM_UDEF_STEREO_COUNT>
0

> <PUBCHEM_BOND_DEF_STEREO_COUNT>
0

> <PUBCHEM_BOND_UDEF_STEREO_COUNT>
0

> <PUBCHEM_ISOTOPIC_ATOM_COUNT>
0

> <PUBCHEM_COMPONENT_COUNT>
1

> <PUBCHEM_CACTVS_TAUTO_COUNT>
5

> <PUBCHEM_CONFORMER_ID>
0006C33B00000001

> <PUBCHEM_MMFF94_ENERGY>
40.5434

> <PUBCHEM_FEATURE_SELFOVERLAP>
20.324

> <PUBCHEM_SHAPE_FINGERPRINT>
10219947 1 18409164424409119059
10967382 1 18410856564072004358
11132069 177 18334864904439451626
11471102 20 18411142441421887573
12032990 46 18411693292441931883
12382932 28 18337111151055589162
12423570 1 7689309942049406304
13221675 6 18410572881508470830
13380535 76 18409449163429521646
13897977 150 18265619771009401920
14144814 61 18409728477900155752
14325111 11 18410575097732843969
14993402 34 18408603656209432999
15536298 74 18333169470784764896
15775835 57 18335979787813247676
16945 1 18410856542734350404
17844478 74 17988921180442274861
193761 8 17762056540853504133
20201158 50 18411699893727505594
20510252 161 18187929533626858160
20588541 1 18409164394186118422
20645476 183 17773015493654598190
20645477 70 18337958990785739615
21267235 1 18410565193369584270
21501502 16 18194968443790212894
2334 1 17834113044048970592
23402539 116 18334307477803404190
23402655 69 18335709364188459541
23463225 33 18412544331595215476
23552423 10 18199748042200052887
23559900 14 18408038516656354918
2748010 2 18195249038324995228
5084963 1 18115028622638540826
528886 8 18337676321559862874
53812653 166 18261679151653347304
69090 78 18334863796512176951
7364860 26 18333449829407653644
8809292 202 18272083877352659938

> <PUBCHEM_SHAPE_MULTIPOLES>
255.8
5.22
1.87
0.6
1.66
0.12
0
0.11
0
-0.19
0
-0.04
-0.01
0

> <PUBCHEM_SHAPE_SELFOVERLAP>
565.29

> <PUBCHEM_SHAPE_VOLUME>
137.7

> <PUBCHEM_COORDINATE_TYPE>
2
5
10

$$$$

