5281905
  -OEChem-07051213013D

 37 37  0     1  0  0  0  0  0999 V2000
   -3.4031   -0.5550    1.5035 O   0  0  0  0  0  0  0  0  0  0  0  0
    1.2909   -0.7694   -0.6313 C   0  0  0  0  0  0  0  0  0  0  0  0
    1.9631   -0.8312    0.7808 C   0  0  2  0  0  0  0  0  0  0  0  0
    0.2416    0.4083   -0.6381 C   0  0  2  0  0  0  0  0  0  0  0  0
    2.6402    0.5048    1.1518 C   0  0  0  0  0  0  0  0  0  0  0  0
    0.8139    1.7070   -0.0897 C   0  0  0  0  0  0  0  0  0  0  0  0
    2.3365   -0.5179   -1.7496 C   0  0  0  0  0  0  0  0  0  0  0  0
    0.6004   -2.1116   -0.9716 C   0  0  0  0  0  0  0  0  0  0  0  0
    1.8888    1.7268    0.7170 C   0  0  0  0  0  0  0  0  0  0  0  0
    2.9662   -1.9758    0.9706 C   0  0  0  0  0  0  0  0  0  0  0  0
   -1.0298    0.0747    0.1005 C   0  0  0  0  0  0  0  0  0  0  0  0
    0.1282    2.9791   -0.5061 C   0  0  0  0  0  0  0  0  0  0  0  0
   -2.2312    0.0211   -0.4888 C   0  0  0  0  0  0  0  0  0  0  0  0
   -3.4494   -0.3127    0.2994 C   0  0  0  0  0  0  0  0  0  0  0  0
   -4.7563   -0.3482   -0.4485 C   0  0  0  0  0  0  0  0  0  0  0  0
    1.1701   -1.0065    1.5214 H   0  0  0  0  0  0  0  0  0  0  0  0
   -0.0107    0.5904   -1.6937 H   0  0  0  0  0  0  0  0  0  0  0  0
    3.6457    0.5555    0.7154 H   0  0  0  0  0  0  0  0  0  0  0  0
    2.7726    0.5441    2.2403 H   0  0  0  0  0  0  0  0  0  0  0  0
    3.0666   -1.3319   -1.8080 H   0  0  0  0  0  0  0  0  0  0  0  0
    1.8479   -0.4569   -2.7294 H   0  0  0  0  0  0  0  0  0  0  0  0
    2.8932    0.4131   -1.6095 H   0  0  0  0  0  0  0  0  0  0  0  0
   -0.0096   -2.0206   -1.8778 H   0  0  0  0  0  0  0  0  0  0  0  0
    1.3321   -2.9053   -1.1584 H   0  0  0  0  0  0  0  0  0  0  0  0
   -0.0485   -2.4540   -0.1583 H   0  0  0  0  0  0  0  0  0  0  0  0
    2.2739    2.6777    1.0768 H   0  0  0  0  0  0  0  0  0  0  0  0
    3.3716   -1.9609    1.9887 H   0  0  0  0  0  0  0  0  0  0  0  0
    2.4935   -2.9519    0.8290 H   0  0  0  0  0  0  0  0  0  0  0  0
    3.8114   -1.8977    0.2804 H   0  0  0  0  0  0  0  0  0  0  0  0
   -0.9438   -0.1200    1.1670 H   0  0  0  0  0  0  0  0  0  0  0  0
    0.6287    3.8670   -0.1053 H   0  0  0  0  0  0  0  0  0  0  0  0
   -0.9068    2.9957   -0.1511 H   0  0  0  0  0  0  0  0  0  0  0  0
    0.1241    3.0676   -1.5974 H   0  0  0  0  0  0  0  0  0  0  0  0
   -2.3488    0.2140   -1.5492 H   0  0  0  0  0  0  0  0  0  0  0  0
   -5.4867    0.2725    0.0779 H   0  0  0  0  0  0  0  0  0  0  0  0
   -5.1114   -1.3805   -0.5026 H   0  0  0  0  0  0  0  0  0  0  0  0
   -4.6485    0.0421   -1.4639 H   0  0  0  0  0  0  0  0  0  0  0  0
  1 14  2  0  0  0  0
  2  3  1  0  0  0  0
  2  4  1  0  0  0  0
  2  7  1  0  0  0  0
  2  8  1  0  0  0  0
  3  5  1  0  0  0  0
  3 10  1  0  0  0  0
  3 16  1  0  0  0  0
  4  6  1  0  0  0  0
  4 11  1  0  0  0  0
  4 17  1  0  0  0  0
  5  9  1  0  0  0  0
  5 18  1  0  0  0  0
  5 19  1  0  0  0  0
  6  9  2  0  0  0  0
  6 12  1  0  0  0  0
  7 20  1  0  0  0  0
  7 21  1  0  0  0  0
  7 22  1  0  0  0  0
  8 23  1  0  0  0  0
  8 24  1  0  0  0  0
  8 25  1  0  0  0  0
  9 26  1  0  0  0  0
 10 27  1  0  0  0  0
 10 28  1  0  0  0  0
 10 29  1  0  0  0  0
 11 13  2  0  0  0  0
 11 30  1  0  0  0  0
 12 31  1  0  0  0  0
 12 32  1  0  0  0  0
 12 33  1  0  0  0  0
 13 14  1  0  0  0  0
 13 34  1  0  0  0  0
 14 15  1  0  0  0  0
 15 35  1  0  0  0  0
 15 36  1  0  0  0  0
 15 37  1  0  0  0  0
M  END
> <PUBCHEM_COMPOUND_CID>
5281905

> <PUBCHEM_CONFORMER_RMSD>
0.6

> <PUBCHEM_CONFORMER_DIVERSEORDER>
1
6
4
7
8
11
2
12
5
9
3
10

> <PUBCHEM_MMFF94_PARTIAL_CHARGES>
13
1 -0.57
11 -0.29
12 0.14
13 -0.14
14 0.49
15 0.06
26 0.15
30 0.15
34 0.15
4 0.28
5 0.14
6 -0.28
9 -0.29

> <PUBCHEM_EFFECTIVE_ROTOR_COUNT>
2.8

> <PUBCHEM_PHARMACOPHORE_FEATURES>
3
1 1 acceptor
3 2 7 8 hydrophobe
6 2 3 4 5 6 9 rings

> <PUBCHEM_HEAVY_ATOM_COUNT>
15

> <PUBCHEM_ATOM_DEF_STEREO_COUNT>
2

> <PUBCHEM_ATOM_UDEF_STEREO_COUNT>
0

> <PUBCHEM_BOND_DEF_STEREO_COUNT>
1

> <PUBCHEM_BOND_UDEF_STEREO_COUNT>
0

> <PUBCHEM_ISOTOPIC_ATOM_COUNT>
0

> <PUBCHEM_COMPONENT_COUNT>
1

> <PUBCHEM_CACTVS_TAUTO_COUNT>
5

> <PUBCHEM_CONFORMER_ID>
0050987100000001

> <PUBCHEM_MMFF94_ENERGY>
31.3722

> <PUBCHEM_FEATURE_SELFOVERLAP>
15.223

> <PUBCHEM_SHAPE_FINGERPRINT>
10219947 1 18335426754875924857
11067466 332 18343294877480482582
11086676 242 18335991947134623280
11471102 22 18411145722608090280
12251169 10 18261688007670137754
12346645 6 18261959552624470085
12423570 1 12675284025287103420
12725867 57 18342176678439640436
12824470 246 16841653519408026714
13134695 92 18271538545212363189
14252887 29 18334290972281112682
15501101 241 17967530202950750836
16945 1 18192742010565100216
18186145 218 18335693936897884587
20279233 1 18131354068767738939
20559304 39 17313097536603814953
20645477 70 18410014312912386599
20871998 22 18262236754261572190
21524375 3 17615967707942094677
21730867 7 18334290929531808741
2255824 54 18337945689018445989
23557571 272 16916801694127997516
2748010 2 17974315371416939536
3060560 45 18187358809597644678
81228 2 17980193411649431469
81539 233 18128253376751973532

> <PUBCHEM_SHAPE_MULTIPOLES>
302.82
6.06
2.35
1.33
8.66
1.23
0.08
-2.22
-1.38
-1.57
0.22
-0.57
-0.32
0.18

> <PUBCHEM_SHAPE_SELFOVERLAP>
601.729

> <PUBCHEM_SHAPE_VOLUME>
179.5

> <PUBCHEM_COORDINATE_TYPE>
2
5
10

$$$$

