440310
  -OEChem-07051212492D

 23 23  0     1  0  0  0  0  0999 V2000
    2.5369    2.1550    0.0000 I   0  0  0  0  0  0  0  0  0  0  0  0
    6.0010    2.1550    0.0000 I   0  0  0  0  0  0  0  0  0  0  0  0
    2.5369   -0.8450    0.0000 O   0  0  0  0  0  0  0  0  0  0  0  0
    4.2690    3.1550    0.0000 O   0  0  0  0  0  0  0  0  0  0  0  0
    2.5369   -2.8450    0.0000 O   0  0  0  0  0  0  0  0  0  0  0  0
    4.2690   -2.8450    0.0000 O   0  0  0  0  0  0  0  0  0  0  0  0
    4.2690   -0.8450    0.0000 C   0  0  0  0  0  0  0  0  0  0  0  0
    4.2690    0.1550    0.0000 C   0  0  0  0  0  0  0  0  0  0  0  0
    3.4030   -1.3450    0.0000 C   0  0  3  0  0  0  0  0  0  0  0  0
    5.1350    0.6550    0.0000 C   0  0  0  0  0  0  0  0  0  0  0  0
    3.4030    0.6550    0.0000 C   0  0  0  0  0  0  0  0  0  0  0  0
    3.4030    1.6550    0.0000 C   0  0  0  0  0  0  0  0  0  0  0  0
    5.1350    1.6550    0.0000 C   0  0  0  0  0  0  0  0  0  0  0  0
    4.2690    2.1550    0.0000 C   0  0  0  0  0  0  0  0  0  0  0  0
    3.4030   -2.3450    0.0000 C   0  0  0  0  0  0  0  0  0  0  0  0
    4.4810   -1.4276    0.0000 H   0  0  0  0  0  0  0  0  0  0  0  0
    4.8796   -0.7373    0.0000 H   0  0  0  0  0  0  0  0  0  0  0  0
    3.4030   -0.7250    0.0000 H   0  0  0  0  0  0  0  0  0  0  0  0
    5.6720    0.3450    0.0000 H   0  0  0  0  0  0  0  0  0  0  0  0
    2.8660    0.3450    0.0000 H   0  0  0  0  0  0  0  0  0  0  0  0
    2.0000   -1.1550    0.0000 H   0  0  0  0  0  0  0  0  0  0  0  0
    4.8059    3.4650    0.0000 H   0  0  0  0  0  0  0  0  0  0  0  0
    2.5369   -3.4650    0.0000 H   0  0  0  0  0  0  0  0  0  0  0  0
  1 12  1  0  0  0  0
  2 13  1  0  0  0  0
  3  9  1  0  0  0  0
  3 21  1  0  0  0  0
  4 14  1  0  0  0  0
  4 22  1  0  0  0  0
  5 15  1  0  0  0  0
  5 23  1  0  0  0  0
  6 15  2  0  0  0  0
  7  8  1  0  0  0  0
  7  9  1  0  0  0  0
  7 16  1  0  0  0  0
  7 17  1  0  0  0  0
  8 10  2  0  0  0  0
  8 11  1  0  0  0  0
  9 15  1  0  0  0  0
  9 18  1  0  0  0  0
 10 13  1  0  0  0  0
 10 19  1  0  0  0  0
 11 12  2  0  0  0  0
 11 20  1  0  0  0  0
 12 14  1  0  0  0  0
 13 14  2  0  0  0  0
M  END
> <PUBCHEM_COMPOUND_CID>
440310

> <PUBCHEM_COMPOUND_CANONICALIZED>
1

> <PUBCHEM_CACTVS_COMPLEXITY>
224

> <PUBCHEM_CACTVS_HBOND_ACCEPTOR>
4

> <PUBCHEM_CACTVS_HBOND_DONOR>
3

> <PUBCHEM_CACTVS_ROTATABLE_BOND>
3

> <PUBCHEM_CACTVS_SUBSKEYS>
AAADccBwOAAAAwAAAAAAAAAAAAAAAAAAAAAwAAAAAAAAAAABAAAAGgAgCAAADBSimAIwDoAAAgCIAiDSCAICAAAgIAAAiAFECIgJNjKCERKAcAAkwBEJmAeIyKCOIAAAAAAAAABAAAAAAAAAAAAAAAAAAA==

> <PUBCHEM_IUPAC_OPENEYE_NAME>
2-hydroxy-3-(4-hydroxy-3,5-diiodo-phenyl)propanoic acid

> <PUBCHEM_IUPAC_CAS_NAME>
2-hydroxy-3-(4-hydroxy-3,5-diiodophenyl)propanoic acid

> <PUBCHEM_IUPAC_NAME>
2-hydroxy-3-(4-hydroxy-3,5-diiodophenyl)propanoic acid

> <PUBCHEM_IUPAC_SYSTEMATIC_NAME>
3-[3,5-bis(iodanyl)-4-oxidanyl-phenyl]-2-oxidanyl-propanoic acid

> <PUBCHEM_IUPAC_TRADITIONAL_NAME>
2-hydroxy-3-(4-hydroxy-3,5-diiodo-phenyl)propionic acid

> <PUBCHEM_IUPAC_INCHI>
InChI=1S/C9H8I2O4/c10-5-1-4(2-6(11)8(5)13)3-7(12)9(14)15/h1-2,7,12-13H,3H2,(H,14,15)

> <PUBCHEM_IUPAC_INCHIKEY>
ZPJHINFPRQWKIH-UHFFFAOYSA-N

> <PUBCHEM_XLOGP3_AA>
2.1

> <PUBCHEM_EXACT_MASS>
433.851205

> <PUBCHEM_MOLECULAR_FORMULA>
C9H8I2O4

> <PUBCHEM_MOLECULAR_WEIGHT>
433.96636

> <PUBCHEM_OPENEYE_CAN_SMILES>
C1=C(C=C(C(=C1I)O)I)CC(C(=O)O)O

> <PUBCHEM_OPENEYE_ISO_SMILES>
C1=C(C=C(C(=C1I)O)I)CC(C(=O)O)O

> <PUBCHEM_CACTVS_TPSA>
77.8

> <PUBCHEM_MONOISOTOPIC_WEIGHT>
433.851205

> <PUBCHEM_TOTAL_CHARGE>
0

> <PUBCHEM_HEAVY_ATOM_COUNT>
15

> <PUBCHEM_ATOM_DEF_STEREO_COUNT>
0

> <PUBCHEM_ATOM_UDEF_STEREO_COUNT>
1

> <PUBCHEM_BOND_DEF_STEREO_COUNT>
0

> <PUBCHEM_BOND_UDEF_STEREO_COUNT>
0

> <PUBCHEM_ISOTOPIC_ATOM_COUNT>
0

> <PUBCHEM_COMPONENT_COUNT>
1

> <PUBCHEM_CACTVS_TAUTO_COUNT>
2

> <PUBCHEM_COORDINATE_TYPE>
1
5
255

> <PUBCHEM_BONDANNOTATIONS>
10  13  8
11  12  8
12  14  8
13  14  8
9  3  3
8  10  8
8  11  8

$$$$

