586249
  -OEChem-06241222462D

 45 45  0     0  0  0  0  0  0999 V2000
    2.5369    0.5000    0.0000 O   0  0  0  0  0  0  0  0  0  0  0  0
    9.4651    0.5000    0.0000 C   0  0  0  0  0  0  0  0  0  0  0  0
   10.3312   -0.0000    0.0000 C   0  0  0  0  0  0  0  0  0  0  0  0
    8.5991   -0.0000    0.0000 C   0  0  0  0  0  0  0  0  0  0  0  0
   10.3312   -1.0000    0.0000 C   0  0  0  0  0  0  0  0  0  0  0  0
    8.5991   -1.0000    0.0000 C   0  0  0  0  0  0  0  0  0  0  0  0
    9.4651   -1.5000    0.0000 C   0  0  0  0  0  0  0  0  0  0  0  0
    7.7331    0.5000    0.0000 C   0  0  0  0  0  0  0  0  0  0  0  0
    9.9651    1.3660    0.0000 C   0  0  0  0  0  0  0  0  0  0  0  0
    8.9651    1.3660    0.0000 C   0  0  0  0  0  0  0  0  0  0  0  0
    6.8671    0.0000    0.0000 C   0  0  0  0  0  0  0  0  0  0  0  0
    7.7331   -1.5000    0.0000 C   0  0  0  0  0  0  0  0  0  0  0  0
    6.0010    0.5000    0.0000 C   0  0  0  0  0  0  0  0  0  0  0  0
    5.1350    0.0000    0.0000 C   0  0  0  0  0  0  0  0  0  0  0  0
    6.0010    1.5000    0.0000 C   0  0  0  0  0  0  0  0  0  0  0  0
    4.2690    0.5000    0.0000 C   0  0  0  0  0  0  0  0  0  0  0  0
    3.4030    0.0000    0.0000 C   0  0  0  0  0  0  0  0  0  0  0  0
   10.9417   -0.1077    0.0000 H   0  0  0  0  0  0  0  0  0  0  0  0
   10.5432    0.5826    0.0000 H   0  0  0  0  0  0  0  0  0  0  0  0
   10.5432   -1.5826    0.0000 H   0  0  0  0  0  0  0  0  0  0  0  0
   10.9417   -0.8923    0.0000 H   0  0  0  0  0  0  0  0  0  0  0  0
    9.0666   -1.9749    0.0000 H   0  0  0  0  0  0  0  0  0  0  0  0
    9.8637   -1.9749    0.0000 H   0  0  0  0  0  0  0  0  0  0  0  0
    8.1316    0.9749    0.0000 H   0  0  0  0  0  0  0  0  0  0  0  0
    7.3346    0.9749    0.0000 H   0  0  0  0  0  0  0  0  0  0  0  0
   10.5021    1.0560    0.0000 H   0  0  0  0  0  0  0  0  0  0  0  0
   10.2751    1.9030    0.0000 H   0  0  0  0  0  0  0  0  0  0  0  0
    9.4282    1.6760    0.0000 H   0  0  0  0  0  0  0  0  0  0  0  0
    9.5021    1.6760    0.0000 H   0  0  0  0  0  0  0  0  0  0  0  0
    8.6551    1.9030    0.0000 H   0  0  0  0  0  0  0  0  0  0  0  0
    8.4282    1.0560    0.0000 H   0  0  0  0  0  0  0  0  0  0  0  0
    6.4685   -0.4749    0.0000 H   0  0  0  0  0  0  0  0  0  0  0  0
    7.2656   -0.4749    0.0000 H   0  0  0  0  0  0  0  0  0  0  0  0
    7.4231   -0.9631    0.0000 H   0  0  0  0  0  0  0  0  0  0  0  0
    7.1962   -1.8100    0.0000 H   0  0  0  0  0  0  0  0  0  0  0  0
    8.0431   -2.0369    0.0000 H   0  0  0  0  0  0  0  0  0  0  0  0
    5.1350   -0.6200    0.0000 H   0  0  0  0  0  0  0  0  0  0  0  0
    6.6210    1.5000    0.0000 H   0  0  0  0  0  0  0  0  0  0  0  0
    6.0010    2.1200    0.0000 H   0  0  0  0  0  0  0  0  0  0  0  0
    5.3810    1.5000    0.0000 H   0  0  0  0  0  0  0  0  0  0  0  0
    4.6675    0.9749    0.0000 H   0  0  0  0  0  0  0  0  0  0  0  0
    3.8705    0.9749    0.0000 H   0  0  0  0  0  0  0  0  0  0  0  0
    3.0044   -0.4749    0.0000 H   0  0  0  0  0  0  0  0  0  0  0  0
    3.8015   -0.4749    0.0000 H   0  0  0  0  0  0  0  0  0  0  0  0
    2.0000    0.1900    0.0000 H   0  0  0  0  0  0  0  0  0  0  0  0
  1 17  1  0  0  0  0
  1 45  1  0  0  0  0
  2  3  1  0  0  0  0
  2  4  1  0  0  0  0
  2  9  1  0  0  0  0
  2 10  1  0  0  0  0
  3  5  1  0  0  0  0
  3 18  1  0  0  0  0
  3 19  1  0  0  0  0
  4  6  2  0  0  0  0
  4  8  1  0  0  0  0
  5  7  1  0  0  0  0
  5 20  1  0  0  0  0
  5 21  1  0  0  0  0
  6  7  1  0  0  0  0
  6 12  1  0  0  0  0
  7 22  1  0  0  0  0
  7 23  1  0  0  0  0
  8 11  1  0  0  0  0
  8 24  1  0  0  0  0
  8 25  1  0  0  0  0
  9 26  1  0  0  0  0
  9 27  1  0  0  0  0
  9 28  1  0  0  0  0
 10 29  1  0  0  0  0
 10 30  1  0  0  0  0
 10 31  1  0  0  0  0
 11 13  1  0  0  0  0
 11 32  1  0  0  0  0
 11 33  1  0  0  0  0
 12 34  1  0  0  0  0
 12 35  1  0  0  0  0
 12 36  1  0  0  0  0
 13 14  2  3  0  0  0
 13 15  1  0  0  0  0
 14 16  1  0  0  0  0
 14 37  1  0  0  0  0
 15 38  1  0  0  0  0
 15 39  1  0  0  0  0
 15 40  1  0  0  0  0
 16 17  1  0  0  0  0
 16 41  1  0  0  0  0
 16 42  1  0  0  0  0
 17 43  1  0  0  0  0
 17 44  1  0  0  0  0
M  END
> <PUBCHEM_COMPOUND_CID>
586249

> <PUBCHEM_COMPOUND_CANONICALIZED>
1

> <PUBCHEM_CACTVS_COMPLEXITY>
308

> <PUBCHEM_CACTVS_HBOND_ACCEPTOR>
1

> <PUBCHEM_CACTVS_HBOND_DONOR>
1

> <PUBCHEM_CACTVS_ROTATABLE_BOND>
5

> <PUBCHEM_CACTVS_SUBSKEYS>
AAADceB4IAAAAAAAAAAAAAAAAAAAAAAAAAAgAAAAAAAAAAAAAAAAGgAACAAADgCggAICAAAAAgCAAiBCAAAAAAAgAAAACAAAAAgAEAIAAQAAQAAAwAAIAAMAgMAPAAAAAAAAAAAAAAAAAAAAAAAAAAAAAA==

> <PUBCHEM_IUPAC_OPENEYE_NAME>
4-methyl-6-(2,6,6-trimethylcyclohexen-1-yl)hex-3-en-1-ol

> <PUBCHEM_IUPAC_CAS_NAME>
4-methyl-6-(2,6,6-trimethyl-1-cyclohexenyl)-3-hexen-1-ol

> <PUBCHEM_IUPAC_NAME>
4-methyl-6-(2,6,6-trimethylcyclohexen-1-yl)hex-3-en-1-ol

> <PUBCHEM_IUPAC_SYSTEMATIC_NAME>
4-methyl-6-(2,6,6-trimethylcyclohexen-1-yl)hex-3-en-1-ol

> <PUBCHEM_IUPAC_TRADITIONAL_NAME>
4-methyl-6-(2,6,6-trimethylcyclohexen-1-yl)hex-3-en-1-ol

> <PUBCHEM_IUPAC_INCHI>
InChI=1S/C16H28O/c1-13(7-6-12-17)9-10-15-14(2)8-5-11-16(15,3)4/h7,17H,5-6,8-12H2,1-4H3

> <PUBCHEM_IUPAC_INCHIKEY>
KPAPKRAHTYQTRQ-UHFFFAOYSA-N

> <PUBCHEM_XLOGP3_AA>
4.2

> <PUBCHEM_EXACT_MASS>
236.214016

> <PUBCHEM_MOLECULAR_FORMULA>
C16H28O

> <PUBCHEM_MOLECULAR_WEIGHT>
236.39292

> <PUBCHEM_OPENEYE_CAN_SMILES>
CC1=C(C(CCC1)(C)C)CCC(=CCCO)C

> <PUBCHEM_OPENEYE_ISO_SMILES>
CC1=C(C(CCC1)(C)C)CCC(=CCCO)C

> <PUBCHEM_CACTVS_TPSA>
20.2

> <PUBCHEM_MONOISOTOPIC_WEIGHT>
236.214016

> <PUBCHEM_TOTAL_CHARGE>
0

> <PUBCHEM_HEAVY_ATOM_COUNT>
17

> <PUBCHEM_ATOM_DEF_STEREO_COUNT>
0

> <PUBCHEM_ATOM_UDEF_STEREO_COUNT>
0

> <PUBCHEM_BOND_DEF_STEREO_COUNT>
0

> <PUBCHEM_BOND_UDEF_STEREO_COUNT>
1

> <PUBCHEM_ISOTOPIC_ATOM_COUNT>
0

> <PUBCHEM_COMPONENT_COUNT>
1

> <PUBCHEM_CACTVS_TAUTO_COUNT>
1

> <PUBCHEM_COORDINATE_TYPE>
1
5
255

> <PUBCHEM_BONDANNOTATIONS>
13  14  1

$$$$

