441764
  -OEChem-07051212563D

 57 61  0     1  0  0  0  0  0999 V2000
    2.7996   -0.3726   -1.7170 O   0  0  0  0  0  0  0  0  0  0  0  0
   -3.2518   -0.7382   -0.3798 O   0  0  0  0  0  0  0  0  0  0  0  0
    2.9680   -2.2389    2.2616 O   0  0  0  0  0  0  0  0  0  0  0  0
    1.1309    0.5741   -3.8418 O   0  0  0  0  0  0  0  0  0  0  0  0
   -2.3499    2.8129   -0.0052 O   0  0  0  0  0  0  0  0  0  0  0  0
   -4.8661    2.7808    0.9816 O   0  0  0  0  0  0  0  0  0  0  0  0
    6.5137    2.0686    1.0618 O   0  0  0  0  0  0  0  0  0  0  0  0
   -7.1539    1.5998    1.3298 O   0  0  0  0  0  0  0  0  0  0  0  0
    8.4543    0.0785    1.0443 O   0  0  0  0  0  0  0  0  0  0  0  0
   -7.3771   -2.9999    0.1841 O   0  0  0  0  0  0  0  0  0  0  0  0
    2.0987   -0.7833    0.5782 C   0  0  1  0  0  0  0  0  0  0  0  0
    3.1424   -1.1176   -0.5143 C   0  0  2  0  0  0  0  0  0  0  0  0
    0.9721   -0.3737   -0.3035 C   0  0  0  0  0  0  0  0  0  0  0  0
    1.4557   -0.1300   -1.5817 C   0  0  0  0  0  0  0  0  0  0  0  0
   -1.2069    0.2917   -1.0227 C   0  0  0  0  0  0  0  0  0  0  0  0
    1.8075   -1.9604    1.4972 C   0  0  0  0  0  0  0  0  0  0  0  0
   -0.3629   -0.1613   -0.0048 C   0  0  0  0  0  0  0  0  0  0  0  0
   -2.6764    0.5303   -0.7304 C   0  0  2  0  0  0  0  0  0  0  0  0
    4.5589   -0.7950   -0.0972 C   0  0  0  0  0  0  0  0  0  0  0  0
    0.6431    0.3314   -2.5997 C   0  0  0  0  0  0  0  0  0  0  0  0
   -2.8731    1.5560    0.3873 C   0  0  2  0  0  0  0  0  0  0  0  0
   -0.7065    0.5377   -2.3115 C   0  0  0  0  0  0  0  0  0  0  0  0
    4.8929    0.5013    0.2953 C   0  0  0  0  0  0  0  0  0  0  0  0
   -4.3556    1.7203    0.6409 C   0  0  0  0  0  0  0  0  0  0  0  0
    5.5332   -1.7935   -0.1054 C   0  0  0  0  0  0  0  0  0  0  0  0
   -5.1679    0.4973    0.4884 C   0  0  0  0  0  0  0  0  0  0  0  0
   -4.5648   -0.6650    0.0022 C   0  0  0  0  0  0  0  0  0  0  0  0
    6.2003    0.7991    0.6794 C   0  0  0  0  0  0  0  0  0  0  0  0
    6.8407   -1.4958    0.2786 C   0  0  0  0  0  0  0  0  0  0  0  0
   -6.5172    0.4939    0.8528 C   0  0  0  0  0  0  0  0  0  0  0  0
    7.1742   -0.1995    0.6710 C   0  0  0  0  0  0  0  0  0  0  0  0
   -5.3064   -1.8441   -0.0865 C   0  0  0  0  0  0  0  0  0  0  0  0
   -6.6525   -1.8515    0.2803 C   0  0  0  0  0  0  0  0  0  0  0  0
   -7.2576   -0.6835    0.7445 C   0  0  0  0  0  0  0  0  0  0  0  0
    5.4604    3.0300    1.0421 C   0  0  0  0  0  0  0  0  0  0  0  0
    2.3932    0.0857    1.1785 H   0  0  0  0  0  0  0  0  0  0  0  0
    3.0749   -2.1796   -0.7935 H   0  0  0  0  0  0  0  0  0  0  0  0
    1.5358   -2.8607    0.9359 H   0  0  0  0  0  0  0  0  0  0  0  0
    0.9860   -1.7405    2.1871 H   0  0  0  0  0  0  0  0  0  0  0  0
   -0.7344   -0.3457    0.9976 H   0  0  0  0  0  0  0  0  0  0  0  0
   -3.1634    0.8821   -1.6519 H   0  0  0  0  0  0  0  0  0  0  0  0
   -2.4096    1.2495    1.3320 H   0  0  0  0  0  0  0  0  0  0  0  0
   -1.3687    0.8959   -3.0965 H   0  0  0  0  0  0  0  0  0  0  0  0
    4.1051    1.2457    0.2646 H   0  0  0  0  0  0  0  0  0  0  0  0
    5.2883   -2.8080   -0.4080 H   0  0  0  0  0  0  0  0  0  0  0  0
    3.1765   -1.4450    2.7830 H   0  0  0  0  0  0  0  0  0  0  0  0
    7.5895   -2.2833    0.2677 H   0  0  0  0  0  0  0  0  0  0  0  0
    2.0826    0.3706   -3.8417 H   0  0  0  0  0  0  0  0  0  0  0  0
   -2.4253    3.4129    0.7565 H   0  0  0  0  0  0  0  0  0  0  0  0
   -4.8398   -2.7563   -0.4504 H   0  0  0  0  0  0  0  0  0  0  0  0
   -8.3075   -0.6967    1.0283 H   0  0  0  0  0  0  0  0  0  0  0  0
   -8.0815    1.3824    1.5242 H   0  0  0  0  0  0  0  0  0  0  0  0
    8.9873   -0.7322    0.9760 H   0  0  0  0  0  0  0  0  0  0  0  0
    4.6635    2.7716    1.7479 H   0  0  0  0  0  0  0  0  0  0  0  0
    5.0830    3.1948    0.0271 H   0  0  0  0  0  0  0  0  0  0  0  0
    5.8864    3.9807    1.3798 H   0  0  0  0  0  0  0  0  0  0  0  0
   -8.2875   -2.8248    0.4781 H   0  0  0  0  0  0  0  0  0  0  0  0
  1 12  1  0  0  0  0
  1 14  1  0  0  0  0
  2 18  1  0  0  0  0
  2 27  1  0  0  0  0
  3 16  1  0  0  0  0
  3 46  1  0  0  0  0
  4 20  1  0  0  0  0
  4 48  1  0  0  0  0
  5 21  1  0  0  0  0
  5 49  1  0  0  0  0
  6 24  2  0  0  0  0
  7 28  1  0  0  0  0
  7 35  1  0  0  0  0
  8 30  1  0  0  0  0
  8 52  1  0  0  0  0
  9 31  1  0  0  0  0
  9 53  1  0  0  0  0
 10 33  1  0  0  0  0
 10 57  1  0  0  0  0
 11 12  1  0  0  0  0
 11 13  1  0  0  0  0
 11 16  1  0  0  0  0
 11 36  1  0  0  0  0
 12 19  1  0  0  0  0
 12 37  1  0  0  0  0
 13 14  2  0  0  0  0
 13 17  1  0  0  0  0
 14 20  1  0  0  0  0
 15 17  2  0  0  0  0
 15 18  1  0  0  0  0
 15 22  1  0  0  0  0
 16 38  1  0  0  0  0
 16 39  1  0  0  0  0
 17 40  1  0  0  0  0
 18 21  1  0  0  0  0
 18 41  1  0  0  0  0
 19 23  2  0  0  0  0
 19 25  1  0  0  0  0
 20 22  2  0  0  0  0
 21 24  1  0  0  0  0
 21 42  1  0  0  0  0
 22 43  1  0  0  0  0
 23 28  1  0  0  0  0
 23 44  1  0  0  0  0
 24 26  1  0  0  0  0
 25 29  2  0  0  0  0
 25 45  1  0  0  0  0
 26 27  1  0  0  0  0
 26 30  2  0  0  0  0
 27 32  2  0  0  0  0
 28 31  2  0  0  0  0
 29 31  1  0  0  0  0
 29 47  1  0  0  0  0
 30 34  1  0  0  0  0
 32 33  1  0  0  0  0
 32 50  1  0  0  0  0
 33 34  2  0  0  0  0
 34 51  1  0  0  0  0
 35 54  1  0  0  0  0
 35 55  1  0  0  0  0
 35 56  1  0  0  0  0
M  END
> <PUBCHEM_COMPOUND_CID>
441764

> <PUBCHEM_CONFORMER_RMSD>
0.8

> <PUBCHEM_CONFORMER_DIVERSEORDER>
1
34
54
25
4
56
41
21
57
50
40
35
48
8
36
31
26
47
32
2
46
55
23
13
42
17
37
51
52
15
19
24
12
11
29
53
30
45
7
43
14
9
33
16
6
38
20
18
5
27
39
49
44
10
22
28
3

> <PUBCHEM_MMFF94_PARTIAL_CHARGES>
48
1 -0.36
10 -0.53
11 0.14
12 0.42
13 -0.14
14 0.08
15 -0.14
16 0.28
17 -0.15
18 0.42
19 -0.14
2 -0.36
20 0.08
21 0.34
22 -0.15
23 -0.15
24 0.42
25 -0.15
26 0.09
27 0.08
28 0.08
29 -0.15
3 -0.68
30 0.08
31 0.08
32 -0.15
33 0.08
34 -0.15
35 0.28
4 -0.53
40 0.15
43 0.15
44 0.15
45 0.15
46 0.4
47 0.15
48 0.45
49 0.4
5 -0.68
50 0.15
51 0.15
52 0.45
53 0.45
57 0.45
6 -0.57
7 -0.36
8 -0.53
9 -0.53

> <PUBCHEM_EFFECTIVE_ROTOR_COUNT>
5.2

> <PUBCHEM_PHARMACOPHORE_FEATURES>
17
1 1 acceptor
1 10 donor
1 2 acceptor
1 3 acceptor
1 3 donor
1 4 donor
1 5 acceptor
1 5 donor
1 6 acceptor
1 7 acceptor
1 8 donor
1 9 donor
5 1 11 12 13 14 rings
6 13 14 15 17 20 22 rings
6 19 23 25 28 29 31 rings
6 2 18 21 24 26 27 rings
6 26 27 30 32 33 34 rings

> <PUBCHEM_HEAVY_ATOM_COUNT>
35

> <PUBCHEM_ATOM_DEF_STEREO_COUNT>
4

> <PUBCHEM_ATOM_UDEF_STEREO_COUNT>
0

> <PUBCHEM_BOND_DEF_STEREO_COUNT>
0

> <PUBCHEM_BOND_UDEF_STEREO_COUNT>
0

> <PUBCHEM_ISOTOPIC_ATOM_COUNT>
0

> <PUBCHEM_COMPONENT_COUNT>
1

> <PUBCHEM_CACTVS_TAUTO_COUNT>
994

> <PUBCHEM_CONFORMER_ID>
0006BDA400000001

> <PUBCHEM_MMFF94_ENERGY>
112.9038

> <PUBCHEM_FEATURE_SELFOVERLAP>
86.402

> <PUBCHEM_SHAPE_FINGERPRINT>
10 15 17603303760646137287
10165383 225 15574714698640521701
10369192 42 16588025710000109300
11135926 11 16343986923068055779
11456790 92 18336276712895020968
11719270 70 13686304577911308208
11991303 11 16805610226605147374
12166972 35 17704347754068382741
12236239 1 18131338718791876655
12596602 18 18409166636101031601
13177829 20 18408040693207605314
13692114 37 18131350761627987394
13782708 43 17630616832947194522
13947934 56 18272933796727384279
14068700 675 17918273138910263821
14394314 77 18343300405794839953
14849402 71 18341327787298097308
14933364 13 18259985989830287560
15064981 113 11743297043268369715
15183329 4 9727637206674918172
15439362 3 9582705086509011521
19377110 9 18130790087494600665
19611394 137 18113896022888743411
20028762 73 17917707998492489586
20511986 3 18130794503485871609
21033648 29 16951109786542560125
21130935 74 18410291436565636522
21223535 225 15769785684713666365
21792961 116 16733260266017804982
22122407 14 18040992917621356288
22224240 67 17917713496361196026
23569943 247 17628362881123163050
23576562 1 14997153288106412104
24771293 8 17846775196470072428
3383291 50 17845925235581135683
3418910 222 18188197741634792464
3663271 9 18409448119731266186
38570 142 6194566597748631437
392239 28 18342736347244107408
397830 11 18261108590817144732
4112364 45 17386294190808954576
4144715 1 18043519723600081968
4149490 64 17202189726391892787
4340502 62 18411700998114674214
4625314 4 18334858354973060213
474113 269 13829591838332240960
5028188 123 18200865292913700342
504843 32 15575007147406517429
5385378 56 14779538015683004838
6126387 218 17846505837938969149
613672 6 15984816086155275921
6608658 132 6988327088988628875
9689198 14 17676205763025119504
9953998 17 18335980948214073153

> <PUBCHEM_SHAPE_MULTIPOLES>
661.59
22.75
2.56
1.94
0.02
0.72
-1.86
-2.28
11.57
-1.19
1.19
1.05
0.28
-0.2

> <PUBCHEM_SHAPE_SELFOVERLAP>
1480.199

> <PUBCHEM_SHAPE_VOLUME>
349.4

> <PUBCHEM_COORDINATE_TYPE>
2
5
10

$$$$

