854251
  -OEChem-06241222473D

 34 35  0     0  0  0  0  0  0999 V2000
   -1.9071    1.6241    0.2380 S   0  0  0  0  0  0  0  0  0  0  0  0
   -1.7415    2.2851   -1.0425 O   0  0  0  0  0  0  0  0  0  0  0  0
   -2.3505    2.3768    1.3958 O   0  0  0  0  0  0  0  0  0  0  0  0
    5.6953   -0.5529    0.3386 O   0  0  0  0  0  0  0  0  0  0  0  0
   -0.4634    0.7754    0.6133 N   0  0  0  0  0  0  0  0  0  0  0  0
    0.1049   -0.1726   -0.3206 C   0  0  0  0  0  0  0  0  0  0  0  0
    1.5824   -0.2734   -0.1467 C   0  0  0  0  0  0  0  0  0  0  0  0
   -3.0494    0.2926    0.0207 C   0  0  0  0  0  0  0  0  0  0  0  0
    2.1184   -1.2071    0.7400 C   0  0  0  0  0  0  0  0  0  0  0  0
    2.4285    0.5670   -0.8704 C   0  0  0  0  0  0  0  0  0  0  0  0
   -3.7638   -0.1694    1.1123 C   0  0  0  0  0  0  0  0  0  0  0  0
   -3.2071   -0.2639   -1.2366 C   0  0  0  0  0  0  0  0  0  0  0  0
    3.5006   -1.3005    0.9031 C   0  0  0  0  0  0  0  0  0  0  0  0
    3.8107    0.4734   -0.7073 C   0  0  0  0  0  0  0  0  0  0  0  0
    4.3467   -0.4602    0.1795 C   0  0  0  0  0  0  0  0  0  0  0  0
   -4.6641   -1.2210    0.9413 C   0  0  0  0  0  0  0  0  0  0  0  0
   -4.1074   -1.3155   -1.4078 C   0  0  0  0  0  0  0  0  0  0  0  0
   -4.8358   -1.7940   -0.3187 C   0  0  0  0  0  0  0  0  0  0  0  0
    6.5026    0.3361   -0.4320 C   0  0  0  0  0  0  0  0  0  0  0  0
   -0.1167    0.1137   -1.3549 H   0  0  0  0  0  0  0  0  0  0  0  0
   -0.3532   -1.1561   -0.1631 H   0  0  0  0  0  0  0  0  0  0  0  0
   -0.2608    0.6105    1.6076 H   0  0  0  0  0  0  0  0  0  0  0  0
    1.4700   -1.8662    1.3113 H   0  0  0  0  0  0  0  0  0  0  0  0
    2.0219    1.2999   -1.5625 H   0  0  0  0  0  0  0  0  0  0  0  0
   -3.6382    0.2574    2.1025 H   0  0  0  0  0  0  0  0  0  0  0  0
   -2.6468    0.0913   -2.0959 H   0  0  0  0  0  0  0  0  0  0  0  0
    3.9124   -2.0296    1.5957 H   0  0  0  0  0  0  0  0  0  0  0  0
    4.4097    1.1564   -1.2999 H   0  0  0  0  0  0  0  0  0  0  0  0
   -5.2298   -1.5953    1.7895 H   0  0  0  0  0  0  0  0  0  0  0  0
   -4.2404   -1.7627   -2.3886 H   0  0  0  0  0  0  0  0  0  0  0  0
   -5.5361   -2.6134   -0.4517 H   0  0  0  0  0  0  0  0  0  0  0  0
    6.3151    1.3820   -0.1665 H   0  0  0  0  0  0  0  0  0  0  0  0
    6.3893    0.1537   -1.5061 H   0  0  0  0  0  0  0  0  0  0  0  0
    7.5470    0.1246   -0.1803 H   0  0  0  0  0  0  0  0  0  0  0  0
  1  2  2  0  0  0  0
  1  3  2  0  0  0  0
  1  5  1  0  0  0  0
  1  8  1  0  0  0  0
  4 15  1  0  0  0  0
  4 19  1  0  0  0  0
  5  6  1  0  0  0  0
  5 22  1  0  0  0  0
  6  7  1  0  0  0  0
  6 20  1  0  0  0  0
  6 21  1  0  0  0  0
  7  9  2  0  0  0  0
  7 10  1  0  0  0  0
  8 11  2  0  0  0  0
  8 12  1  0  0  0  0
  9 13  1  0  0  0  0
  9 23  1  0  0  0  0
 10 14  2  0  0  0  0
 10 24  1  0  0  0  0
 11 16  1  0  0  0  0
 11 25  1  0  0  0  0
 12 17  2  0  0  0  0
 12 26  1  0  0  0  0
 13 15  2  0  0  0  0
 13 27  1  0  0  0  0
 14 15  1  0  0  0  0
 14 28  1  0  0  0  0
 16 18  2  0  0  0  0
 16 29  1  0  0  0  0
 17 18  1  0  0  0  0
 17 30  1  0  0  0  0
 18 31  1  0  0  0  0
 19 32  1  0  0  0  0
 19 33  1  0  0  0  0
 19 34  1  0  0  0  0
M  END
> <PUBCHEM_COMPOUND_CID>
854251

> <PUBCHEM_CONFORMER_RMSD>
0.6

> <PUBCHEM_CONFORMER_DIVERSEORDER>
1
19
39
30
29
15
24
28
23
7
21
44
35
14
16
34
36
11
32
33
37
42
38
22
41
18
43
27
40
17
31
26
8
12
5
13
25
10
4
3
9
6
20
2

> <PUBCHEM_MMFF94_PARTIAL_CHARGES>
29
1 1.45
10 -0.15
11 -0.15
12 -0.15
13 -0.15
14 -0.15
15 0.08
16 -0.15
17 -0.15
18 -0.15
19 0.28
2 -0.65
22 0.42
23 0.15
24 0.15
25 0.15
26 0.15
27 0.15
28 0.15
29 0.15
3 -0.65
30 0.15
31 0.15
4 -0.36
5 -0.91
6 0.5
7 -0.14
8 -0.01
9 -0.15

> <PUBCHEM_EFFECTIVE_ROTOR_COUNT>
5

> <PUBCHEM_PHARMACOPHORE_FEATURES>
6
1 2 acceptor
1 3 acceptor
1 4 acceptor
1 5 donor
6 7 9 10 13 14 15 rings
6 8 11 12 16 17 18 rings

> <PUBCHEM_HEAVY_ATOM_COUNT>
19

> <PUBCHEM_ATOM_DEF_STEREO_COUNT>
0

> <PUBCHEM_ATOM_UDEF_STEREO_COUNT>
0

> <PUBCHEM_BOND_DEF_STEREO_COUNT>
0

> <PUBCHEM_BOND_UDEF_STEREO_COUNT>
0

> <PUBCHEM_ISOTOPIC_ATOM_COUNT>
0

> <PUBCHEM_COMPONENT_COUNT>
1

> <PUBCHEM_CACTVS_TAUTO_COUNT>
1

> <PUBCHEM_CONFORMER_ID>
000D08EB00000001

> <PUBCHEM_MMFF94_ENERGY>
42.3532

> <PUBCHEM_FEATURE_SELFOVERLAP>
30.464

> <PUBCHEM_SHAPE_FINGERPRINT>
10291535 26 14979960302329381397
10366900 7 18408328765428539778
11045515 52 17632861910699004333
11046707 91 18260551104510561879
11089746 13 11815896730629321814
11101153 10 18201712908751695876
11315181 36 15841548570294939204
11370993 144 15141225668485568111
12236239 1 18413108372908173470
12553582 1 18187650176469651887
12633257 1 16588020174430550707
128620 24 18343582945094874910
13167823 11 18338517542592377290
14251758 9 9583526438574051536
15183329 4 9655586214413135480
17093844 174 10807928250690905996
17349148 13 17847059986924015490
17834072 33 18342457037209910478
1813 80 18336814313387296229
18186145 218 14057015952754961020
18927931 339 18261387853975537535
19489759 90 13830134979142040606
200 152 18060703887798519447
20281389 69 7709458316603612650
20621476 66 10015591622451231911
20645477 70 16558478586178299138
21054139 6 18272935999233626698
21150785 3 18340193130321261814
22646028 1 18342177769234596582
2297311 6 17821721728418825012
23402539 116 18272933829789273829
23557571 272 17749104530207337144
23559900 14 17703229507598049564
312423 11 18341037584388022420
351380 3 18336264557373116583
4325135 7 18187081724552361068
474229 33 18412825768144561018
5104073 3 18337960120530599786
5283173 99 15338850771364348254
542803 24 15285359514083811666
602551 16 17313389985090468582
6328613 192 9223223066743016738
7495541 125 17530971259258778800

> <PUBCHEM_SHAPE_MULTIPOLES>
372.27
13.34
1.83
1.23
12.04
0.78
-0.05
-4.5
-0.56
-1.89
0.22
-1.02
0.04
-1.09

> <PUBCHEM_SHAPE_SELFOVERLAP>
773.64

> <PUBCHEM_SHAPE_VOLUME>
212.6

> <PUBCHEM_COORDINATE_TYPE>
2
5
10

$$$$

