72540
  -OEChem-07051212572D

 34 36  0     1  0  0  0  0  0999 V2000
    7.3424   -1.0720    0.0000 O   0  0  0  0  0  0  0  0  0  0  0  0
    8.9260   -0.2673    0.0000 O   0  0  0  0  0  0  0  0  0  0  0  0
    2.0000    0.7569    0.0000 O   0  0  0  0  0  0  0  0  0  0  0  0
    4.6641   -0.7673    0.0000 C   0  0  2  0  0  0  0  0  0  0  0  0
    4.6641    0.2327    0.0000 C   0  0  1  0  0  0  0  0  0  0  0  0
    6.3961    0.2327    0.0000 C   0  0  2  0  0  0  0  0  0  0  0  0
    6.3961   -0.7673    0.0000 C   0  0  1  0  0  0  0  0  0  0  0  0
    5.5301   -1.2673    0.0000 C   0  0  0  0  0  0  0  0  0  0  0  0
    5.5301    0.7327    0.0000 C   0  0  0  0  0  0  0  0  0  0  0  0
    4.6641   -1.7673    0.0000 C   0  0  0  0  0  0  0  0  0  0  0  0
    3.7702   -1.3020    0.0000 C   0  0  0  0  0  0  0  0  0  0  0  0
    3.7702    0.7674    0.0000 C   0  0  0  0  0  0  0  0  0  0  0  0
    7.3424    0.5374    0.0000 C   0  0  0  0  0  0  0  0  0  0  0  0
    7.9260   -0.2673    0.0000 C   0  0  0  0  0  0  0  0  0  0  0  0
    2.8641   -0.7881    0.0000 C   0  0  0  0  0  0  0  0  0  0  0  0
    2.8641    0.2535    0.0000 C   0  0  0  0  0  0  0  0  0  0  0  0
    3.7817    1.7673    0.0000 C   0  0  0  0  0  0  0  0  0  0  0  0
    7.6530    1.4880    0.0000 C   0  0  0  0  0  0  0  0  0  0  0  0
    4.6706    1.0827    0.0000 H   0  0  0  0  0  0  0  0  0  0  0  0
    6.4861    1.0779    0.0000 H   0  0  0  0  0  0  0  0  0  0  0  0
    6.4861   -1.6125    0.0000 H   0  0  0  0  0  0  0  0  0  0  0  0
    5.1316   -1.7422    0.0000 H   0  0  0  0  0  0  0  0  0  0  0  0
    5.9286   -1.7422    0.0000 H   0  0  0  0  0  0  0  0  0  0  0  0
    5.9286    1.2076    0.0000 H   0  0  0  0  0  0  0  0  0  0  0  0
    5.1316    1.2076    0.0000 H   0  0  0  0  0  0  0  0  0  0  0  0
    4.0441   -1.7673    0.0000 H   0  0  0  0  0  0  0  0  0  0  0  0
    4.6641   -2.3873    0.0000 H   0  0  0  0  0  0  0  0  0  0  0  0
    5.2841   -1.7673    0.0000 H   0  0  0  0  0  0  0  0  0  0  0  0
    3.7773   -1.9219    0.0000 H   0  0  0  0  0  0  0  0  0  0  0  0
    2.3284   -1.1002    0.0000 H   0  0  0  0  0  0  0  0  0  0  0  0
    4.3222    2.0711    0.0000 H   0  0  0  0  0  0  0  0  0  0  0  0
    3.2484    2.0835    0.0000 H   0  0  0  0  0  0  0  0  0  0  0  0
    8.2597    1.6158    0.0000 H   0  0  0  0  0  0  0  0  0  0  0  0
    7.2390    1.9494    0.0000 H   0  0  0  0  0  0  0  0  0  0  0  0
  1  7  1  0  0  0  0
  1 14  1  0  0  0  0
  2 14  2  0  0  0  0
  3 16  2  0  0  0  0
  4  5  1  0  0  0  0
  4  8  1  0  0  0  0
  4 10  1  6  0  0  0
  4 11  1  0  0  0  0
  5  9  1  0  0  0  0
  5 12  1  0  0  0  0
  5 19  1  1  0  0  0
  6  7  1  0  0  0  0
  6  9  1  0  0  0  0
  6 13  1  0  0  0  0
  6 20  1  1  0  0  0
  7  8  1  0  0  0  0
  7 21  1  1  0  0  0
  8 22  1  0  0  0  0
  8 23  1  0  0  0  0
  9 24  1  0  0  0  0
  9 25  1  0  0  0  0
 10 26  1  0  0  0  0
 10 27  1  0  0  0  0
 10 28  1  0  0  0  0
 11 15  2  0  0  0  0
 11 29  1  0  0  0  0
 12 16  1  0  0  0  0
 12 17  2  0  0  0  0
 13 14  1  0  0  0  0
 13 18  2  0  0  0  0
 15 16  1  0  0  0  0
 15 30  1  0  0  0  0
 17 31  1  0  0  0  0
 17 32  1  0  0  0  0
 18 33  1  0  0  0  0
 18 34  1  0  0  0  0
M  END
> <PUBCHEM_COMPOUND_CID>
72540

> <PUBCHEM_COMPOUND_CANONICALIZED>
1

> <PUBCHEM_CACTVS_COMPLEXITY>
514

> <PUBCHEM_CACTVS_HBOND_ACCEPTOR>
3

> <PUBCHEM_CACTVS_HBOND_DONOR>
0

> <PUBCHEM_CACTVS_ROTATABLE_BOND>
0

> <PUBCHEM_CACTVS_SUBSKEYS>
AAADceBwMAAAAAAAAAAAAAAAAAAAASAAAAAwQAAAAAAAAEiAAAAAGgAAAAAADxSggAICCAAABACIAqDSCAAAAAAgAAAICAEAAEgABBIAIQACAAAEwAAIIYOKyPCPgAAAAAAAAADAAAYAADAAAAAAAAAAAA==

> <PUBCHEM_IUPAC_OPENEYE_NAME>
(3aR,4aR,8aS,9aR)-8a-methyl-3,5-dimethylene-4,4a,9,9a-tetrahydro-3aH-benzo[f]benzofuran-2,6-dione

> <PUBCHEM_IUPAC_CAS_NAME>
(3aR,4aR,8aS,9aR)-8a-methyl-3,5-dimethylene-4,4a,9,9a-tetrahydro-3aH-benzo[f]benzofuran-2,6-dione

> <PUBCHEM_IUPAC_NAME>
(3aR,4aR,8aS,9aR)-8a-methyl-3,5-dimethylidene-4,4a,9,9a-tetrahydro-3aH-benzo[f][1]benzofuran-2,6-dione

> <PUBCHEM_IUPAC_SYSTEMATIC_NAME>
(3aR,4aR,8aS,9aR)-8a-methyl-3,5-dimethylidene-4,4a,9,9a-tetrahydro-3aH-benzo[f][1]benzofuran-2,6-dione

> <PUBCHEM_IUPAC_TRADITIONAL_NAME>
(3aR,4aR,8aS,9aR)-8a-methyl-3,5-dimethylene-4,4a,9,9a-tetrahydro-3aH-benzo[f]benzofuran-2,6-quinone

> <PUBCHEM_IUPAC_INCHI>
InChI=1S/C15H16O3/c1-8-10-6-11-9(2)12(16)4-5-15(11,3)7-13(10)18-14(8)17/h4-5,10-11,13H,1-2,6-7H2,3H3/t10-,11+,13-,15-/m1/s1

> <PUBCHEM_IUPAC_INCHIKEY>
LXMUZMFQJGRVFW-NDPMZMCLSA-N

> <PUBCHEM_XLOGP3_AA>
2.5

> <PUBCHEM_EXACT_MASS>
244.109944

> <PUBCHEM_MOLECULAR_FORMULA>
C15H16O3

> <PUBCHEM_MOLECULAR_WEIGHT>
244.28574

> <PUBCHEM_OPENEYE_CAN_SMILES>
CC12CC3C(CC1C(=C)C(=O)C=C2)C(=C)C(=O)O3

> <PUBCHEM_OPENEYE_ISO_SMILES>
C[C@@]12C[C@@H]3[C@H](C[C@H]1C(=C)C(=O)C=C2)C(=C)C(=O)O3

> <PUBCHEM_CACTVS_TPSA>
43.4

> <PUBCHEM_MONOISOTOPIC_WEIGHT>
244.109944

> <PUBCHEM_TOTAL_CHARGE>
0

> <PUBCHEM_HEAVY_ATOM_COUNT>
18

> <PUBCHEM_ATOM_DEF_STEREO_COUNT>
4

> <PUBCHEM_ATOM_UDEF_STEREO_COUNT>
0

> <PUBCHEM_BOND_DEF_STEREO_COUNT>
0

> <PUBCHEM_BOND_UDEF_STEREO_COUNT>
0

> <PUBCHEM_ISOTOPIC_ATOM_COUNT>
0

> <PUBCHEM_COMPONENT_COUNT>
1

> <PUBCHEM_CACTVS_TAUTO_COUNT>
1

> <PUBCHEM_COORDINATE_TYPE>
1
5
255

> <PUBCHEM_BONDANNOTATIONS>
4  10  6
5  19  5
6  20  5
7  21  5

$$$$

